drugbank_target|P42126 Enoyl-CoA delta isomerase 1, mitochondrial (DB02910; DB03127)
 OpenBabel12092119593D

  0  0  0     0  0            999 V3000
M  V30 BEGIN CTAB
M  V30 COUNTS 4667 4706 0 0 0
M  V30 BEGIN ATOM
M  V30 1 H -0.908 1.98254 -0.117106 0
M  V30 2 N 0 1.576 0 0
M  V30 3 C 0.933 2.03868 1.02534 0
M  V30 4 C 1.911 0.928543 1.3348 0
M  V30 5 O 3.095 1.19667 1.45644 0
M  V30 6 C 0.222 2.43627 2.35294 0
M  V30 7 C -0.732 3.65373 2.2001 0
M  V30 8 S 0.101 5.13292 1.52614 0
M  V30 9 C 1.257 5.56322 2.86805 0
M  V30 10 H 1.49 2.90518 0.631377 0
M  V30 11 H -0.977 1.52953 0.210867 0
M  V30 12 H 0.981 2.67203 3.11629 0
M  V30 13 H -0.358 1.57376 2.7183 0
M  V30 14 H -1.165 3.90944 3.18086 0
M  V30 15 H -1.563 3.418 1.51819 0
M  V30 16 H 0.729 5.58782 3.83104 0
M  V30 17 H 1.672 6.56266 2.65933 0
M  V30 18 H 2.08 4.83886 2.90714 0
M  V30 19 N 1.4781 -0.272755 1.55222 0
M  V30 20 C 2.4411 -1.32041 1.87344 0
M  V30 21 C 3.4411 -1.42342 0.74803 0
M  V30 22 O 4.6311 -1.41488 1.0162 0
M  V30 23 C 1.7631 -2.70173 2.07893 0
M  V30 24 H 2.9561 -1.04789 2.80997 0
M  V30 25 H 0.5091 -0.51083 1.47717 0
M  V30 26 H 1.2441 -3.02605 1.16622 0
M  V30 27 H 1.0291 -2.64082 2.89833 0
M  V30 28 H 2.5191 -3.45869 2.34017 0
M  V30 29 N 2.9562 -1.48159 -0.537278 0
M  V30 30 C 3.8862 -1.65029 -1.6519 0
M  V30 31 C 4.8672 -0.499281 -1.62607 0
M  V30 32 O 6.0522 -0.730972 -1.79918 0
M  V30 33 C 3.1822 -1.68303 -3.03795 0
M  V30 34 C 2.1362 -2.8283 -3.21234 0
M  V30 35 C 1.4622 -2.71189 -4.60826 0
M  V30 36 C 2.7622 -4.24211 -3.04701 0
M  V30 37 H 4.4562 -2.58341 -1.51328 0
M  V30 38 H 2.0022 -1.24325 -0.726585 0
M  V30 39 H 3.9552 -1.78693 -3.81637 0
M  V30 40 H 2.6792 -0.715635 -3.18663 0
M  V30 41 H 1.3382 -2.71983 -2.45807 0
M  V30 42 H 0.9862 -1.72435 -4.7252 0
M  V30 43 H 0.6862 -3.48035 -4.7344 0
M  V30 44 H 2.2102 -2.83537 -5.40777 0
M  V30 45 H 3.6242 -4.3593 -3.72341 0
M  V30 46 H 2.0212 -5.01998 -3.28813 0
M  V30 47 H 3.0912 -4.41184 -2.01209 0
M  V30 48 N 4.4343 0.785586 -1.36625 0
M  V30 49 C 5.6803 1.54591 -1.31261 0
M  V30 50 C 6.0133 1.93906 0.106823 0
M  V30 51 O 5.2883 1.63007 1.06108 0
M  V30 52 C 5.5713 2.82038 -2.23889 0
M  V30 53 C 5.4243 2.49066 -3.74548 0
M  V30 54 C 6.7433 3.83887 -2.15217 0
M  V30 55 H 3.8623 0.560846 -0.478143 0
M  V30 56 H 6.5043 0.902278 -1.67209 0
M  V30 57 H 4.6543 3.36961 -1.93363 0
M  V30 58 H 6.3263 2.00164 -4.15611 0
M  V30 59 H 4.5693 1.81954 -3.93796 0
M  V30 60 H 5.2403 3.40109 -4.34776 0
M  V30 61 H 7.7163 3.38421 -2.42096 0
M  V30 62 H 6.5923 4.70806 -2.82193 0
M  V30 63 H 6.8533 4.27131 -1.14068 0
M  V30 64 N 5.9124 1.20967 1.01018 0
M  V30 65 C 6.8754 0.965918 2.07853 0
M  V30 66 C 7.8754 -0.0610545 1.60684 0
M  V30 67 O 9.0654 0.175681 1.73312 0
M  V30 68 C 6.1974 0.455513 3.37843 0
M  V30 69 H 7.3904 1.91365 2.3091 0
M  V30 70 H 4.9434 1.02594 1.17916 0
M  V30 71 H 5.6784 -0.497381 3.20463 0
M  V30 72 H 5.4634 1.19622 3.73407 0
M  V30 73 H 6.9534 0.304667 4.16487 0
M  V30 74 N 7.3905 -1.2043 1.01659 0
M  V30 75 C 8.6155 -1.94318 0.724942 0
M  V30 76 C 9.0405 -1.74266 -0.708034 0
M  V30 77 O 8.3985 -1.03694 -1.48719 0
M  V30 78 C 8.4465 -3.44486 1.06591 0
M  V30 79 O 7.5505 -4.12017 0.177599 0
M  V30 80 H 6.8915 -0.60708 0.26898 0
M  V30 81 H 9.4215 -1.52861 1.35995 0
M  V30 82 H 9.4315 -3.95106 1.01762 0
M  V30 83 H 8.1065 -3.58404 2.10997 0
M  V30 84 H 6.6835 -3.71821 0.283421 0
M  V30 85 N 8.8686 -0.792821 -1.36206 0
M  V30 86 C 10.1146 -0.36733 -1.99446 0
M  V30 87 C 10.4476 1.05917 -1.62774 0
M  V30 88 O 9.7226 1.7324 -0.88421 0
M  V30 89 C 10.0056 -0.535044 -3.56103 0
M  V30 90 C 9.8586 -2.00548 -4.02617 0
M  V30 91 C 11.1776 0.0478191 -4.40074 0
M  V30 92 H 8.2966 -0.134941 -0.724541 0
M  V30 93 H 10.9386 -0.999794 -1.61568 0
M  V30 94 H 9.0886 0.00336329 -3.885 0
M  V30 95 H 10.7606 -2.60521 -3.80692 0
M  V30 96 H 9.0036 -2.50686 -3.54032 0
M  V30 97 H 9.6746 -2.07377 -5.11565 0
M  V30 98 H 12.1506 -0.411822 -4.14057 0
M  V30 99 H 11.0266 -0.0995336 -5.4881 0
M  V30 100 H 11.2876 1.14025 -4.27142 0
M  V30 101 N 10.3467 1.47872 -0.545128 0
M  V30 102 C 11.7627 1.5829 -0.204032 0
M  V30 103 C 11.9627 1.54529 1.29317 0
M  V30 104 O 11.0187 1.44232 2.07252 0
M  V30 105 C 12.3317 2.89304 -0.819987 0
M  V30 106 C 13.8797 3.02864 -0.790105 0
M  V30 107 C 14.3547 4.3656 -1.38491 0
M  V30 108 N 15.8457 4.43165 -1.34755 0
M  V30 109 C 16.5807 5.45153 -1.77753 0
M  V30 110 N 16.0767 6.54016 -2.2855 0
M  V30 111 N 17.8697 5.36125 -1.68897 0
M  V30 112 H 10.0207 1.4856 -1.51802 0
M  V30 113 H 12.2837 0.706305 -0.632327 0
M  V30 114 H 11.9897 2.97757 -1.87173 0
M  V30 115 H 11.8637 3.75957 -0.305915 0
M  V30 116 H 14.2507 2.94014 0.252913 0
M  V30 117 H 14.3317 2.17782 -1.34181 0
M  V30 118 H 13.9757 4.46164 -2.42693 0
M  V30 119 H 13.9057 5.20353 -0.808754 0
M  V30 120 H 16.3967 3.65083 -0.975855 0
M  V30 121 H 16.7097 7.27994 -2.59314 0
M  V30 122 H 15.0547 6.54938 -2.32553 0
M  V30 123 H 18.2457 4.49975 -1.28998 0
M  V30 124 H 18.4187 6.15472 -2.02726 0
M  V30 125 N 11.8248 0.280983 1.55075 0
M  V30 126 C 13.0708 -0.33461 2.00021 0
M  V30 127 C 13.4038 -1.55063 1.16915 0
M  V30 128 O 12.6788 -1.93006 0.240646 0
M  V30 129 C 12.9618 -0.711007 3.53011 0
M  V30 130 C 12.8148 0.512766 4.46868 0
M  V30 131 C 14.1338 -1.54522 4.12081 0
M  V30 132 H 11.2528 -0.120147 0.727141 0
M  V30 133 H 13.8948 0.389097 1.85973 0
M  V30 134 H 12.0448 -1.32761 3.65112 0
M  V30 135 H 13.7168 1.15131 4.46702 0
M  V30 136 H 11.9598 1.14975 4.18286 0
M  V30 137 H 12.6308 0.205556 5.51617 0
M  V30 138 H 15.1068 -1.02442 4.03293 0
M  V30 139 H 13.9828 -1.77739 5.19327 0
M  V30 140 H 14.2438 -2.52813 3.62682 0
M  V30 141 N 13.3029 -1.57598 0.00835791 0
M  V30 142 C 14.7139 -1.7892 -0.53333 0
M  V30 143 C 15.0649 -0.916609 -1.73473 0
M  V30 144 O 14.1899 -0.121336 -2.1606 0
M  V30 145 C 14.7849 -3.24488 -0.974313 0
M  V30 146 C 13.3439 -3.46878 -1.46125 0
M  V30 147 C 12.4909 -2.74157 -0.416302 0
M  V30 148 H 15.4419 -1.56958 0.234495 0
M  V30 149 H 15.4629 -3.3306 -1.83988 0
M  V30 150 H 14.9749 -3.87972 -0.099718 0
M  V30 151 H 13.0759 -2.8862 -2.35646 0
M  V30 152 H 13.1889 -4.55572 -1.48295 0
M  V30 153 H 11.5529 -2.39022 -0.87981 0
M  V30 154 H 12.3359 -3.40345 0.44947 0
M  V30 155 N 14.781 0.264519 -1.55364 0
M  V30 156 C 15.744 1.31046 -1.88042 0
M  V30 157 C 16.744 1.41943 -0.755569 0
M  V30 158 O 17.934 1.40947 -1.02369 0
M  V30 159 C 15.066 2.69067 -2.09323 0
M  V30 160 H 16.259 1.03297 -2.81549 0
M  V30 161 H 13.812 0.502989 -1.47986 0
M  V30 162 H 14.547 3.01982 -1.18226 0
M  V30 163 H 14.332 2.62542 -2.91229 0
M  V30 164 H 15.822 3.44623 -2.35848 0
M  V30 165 N 16.2591 1.48442 0.529413 0
M  V30 166 C 17.6751 1.34575 0.858004 0
M  V30 167 C 17.8751 0.3572 1.98309 0
M  V30 168 O 16.9311 -0.221379 2.51528 0
M  V30 169 C 18.2441 2.74617 1.22499 0
M  V30 170 C 19.7921 2.83109 1.33484 0
M  V30 171 C 20.2671 4.23854 1.73526 0
M  V30 172 N 21.7581 4.2653 1.80628 0
M  V30 173 C 22.4931 5.32372 2.12997 0
M  V30 174 N 21.9891 6.48491 2.43786 0
M  V30 175 N 23.7821 5.19766 2.14008 0
M  V30 176 H 15.9331 2.1133 -0.212925 0
M  V30 177 H 18.1961 0.947439 -0.0326199 0
M  V30 178 H 17.9021 3.4852 0.471905 0
M  V30 179 H 17.7761 3.08177 2.17501 0
M  V30 180 H 20.1631 2.09462 2.0787 0
M  V30 181 H 20.2441 2.53168 0.366027 0
M  V30 182 H 19.8881 4.98018 0.997013 0
M  V30 183 H 19.8181 4.5124 2.71459 0
M  V30 184 H 22.3091 3.42772 1.59108 0
M  V30 185 H 22.6221 7.24993 2.67592 0
M  V30 186 H 20.9671 6.51765 2.41304 0
M  V30 187 H 24.1581 4.28066 1.89412 0
M  V30 188 H 24.3311 6.02354 2.38902 0
M  V30 189 N 17.7372 -0.778329 1.37039 0
M  V30 190 C 18.9832 -1.53892 1.32079 0
M  V30 191 C 19.3162 -1.9396 -0.0965386 0
M  V30 192 O 18.5912 -1.63568 -1.05242 0
M  V30 193 C 18.8742 -2.80847 2.25382 0
M  V30 194 C 18.7272 -2.47076 3.75864 0
M  V30 195 C 20.0462 -3.82741 2.1725 0
M  V30 196 H 17.1652 -0.558303 0.48111 0
M  V30 197 H 19.8072 -0.893397 1.67685 0
M  V30 198 H 17.9572 -3.35931 1.95148 0
M  V30 199 H 19.6292 -1.97957 4.16666 0
M  V30 200 H 17.8722 -1.79863 3.94755 0
M  V30 201 H 18.5432 -3.37798 4.36574 0
M  V30 202 H 21.0192 -3.37133 2.43887 0
M  V30 203 H 19.8952 -4.69303 2.84686 0
M  V30 204 H 20.1562 -4.2652 1.16331 0
M  V30 205 N 19.2153 -1.21501 -1.00376 0
M  V30 206 C 20.1453 -0.999478 -2.11028 0
M  V30 207 C 21.1263 0.0759671 -1.6993 0
M  V30 208 O 22.3113 -0.0841106 -1.94018 0
M  V30 209 C 19.4413 -0.564709 -3.42678 0
M  V30 210 C 18.3953 -1.58486 -3.97576 0
M  V30 211 C 17.7213 -1.00628 -5.25146 0
M  V30 212 C 19.0213 -2.97204 -4.29496 0
M  V30 213 H 20.7153 -1.92495 -2.29317 0
M  V30 214 H 18.2613 -0.92693 -1.102 0
M  V30 215 H 20.2143 -0.401091 -4.19487 0
M  V30 216 H 18.9383 0.396411 -3.24185 0
M  V30 217 H 17.5973 -1.73606 -3.22888 0
M  V30 218 H 17.2453 -0.0368439 -5.02987 0
M  V30 219 H 16.9453 -1.68771 -5.62841 0
M  V30 220 H 18.4693 -0.854015 -6.04598 0
M  V30 221 H 19.8833 -2.8552 -4.97143 0
M  V30 222 H 18.2803 -3.62372 -4.78338 0
M  V30 223 H 19.3503 -3.47956 -3.3772 0
M  V30 224 N 20.6934 1.19889 -1.02296 0
M  V30 225 C 21.6234 2.25141 -0.619174 0
M  V30 226 C 22.6044 1.66051 0.368915 0
M  V30 227 O 23.7894 1.92546 0.252941 0
M  V30 228 C 20.9194 3.4728 0.0368783 0
M  V30 229 C 19.8734 4.19005 -0.872865 0
M  V30 230 C 19.1994 5.34637 -0.0822402 0
M  V30 231 C 20.4994 4.74452 -2.18387 0
M  V30 232 H 22.1934 2.59171 -1.49903 0
M  V30 233 H 19.7394 1.24579 -0.722222 0
M  V30 234 H 21.6924 4.20098 0.330958 0
M  V30 235 H 20.4164 3.12433 0.95149 0
M  V30 236 H 19.0754 3.48061 -1.15105 0
M  V30 237 H 18.7234 4.96034 0.83422 0
M  V30 238 H 18.4234 5.83557 -0.688149 0
M  V30 239 H 19.9474 6.10255 0.205238 0
M  V30 240 H 21.3614 5.39055 -1.95172 0
M  V30 241 H 19.7584 5.33834 -2.74119 0
M  V30 242 H 20.8284 3.92844 -2.84257 0
M  V30 243 N 22.1715 0.800033 1.35784 0
M  V30 244 C 23.5875 0.482977 1.52117 0
M  V30 245 C 23.7875 -0.996948 1.75109 0
M  V30 246 O 22.8435 -1.78216 1.78872 0
M  V30 247 C 24.1565 1.32264 2.70049 0
M  V30 248 C 25.7045 1.31742 2.83924 0
M  V30 249 C 26.1795 2.14106 4.04874 0
M  V30 250 N 27.6705 2.11607 4.12039 0
M  V30 251 C 28.4055 2.72099 5.04727 0
M  V30 252 N 27.9015 3.41492 6.02789 0
M  V30 253 N 29.6945 2.61776 4.97423 0
M  V30 254 H 21.8455 1.75856 1.19115 0
M  V30 255 H 24.1085 0.748122 0.582252 0
M  V30 256 H 23.8145 2.37261 2.59616 0
M  V30 257 H 23.6885 0.971303 3.6448 0
M  V30 258 H 26.0755 0.275333 2.93813 0
M  V30 259 H 26.1565 1.70859 1.9037 0
M  V30 260 H 25.8005 3.18351 3.95746 0
M  V30 261 H 25.7305 1.72353 4.97596 0
M  V30 262 H 28.2215 1.61112 3.41835 0
M  V30 263 H 28.5345 3.84953 6.70098 0
M  V30 264 H 26.8795 3.45596 6.02983 0
M  V30 265 H 30.0705 2.07157 4.19766 0
M  V30 266 H 30.2435 3.0921 5.69468 0
M  V30 267 N 23.6496 -1.47581 0.552962 0
M  V30 268 C 24.6126 -2.28439 -0.186605 0
M  V30 269 C 25.6126 -1.36706 -0.84665 0
M  V30 270 O 26.8026 -1.59378 -0.703164 0
M  V30 271 C 23.9346 -3.16264 -1.2724 0
M  V30 272 H 25.1276 -2.95294 0.523609 0
M  V30 273 H 22.6806 -1.532 0.309745 0
M  V30 274 H 23.4156 -2.54091 -2.01514 0
M  V30 275 H 23.2006 -3.83769 -0.803968 0
M  V30 276 H 24.6906 -3.77198 -1.79196 0
M  V30 277 N 25.1277 -0.289203 -1.54924 0
M  V30 278 C 26.3757 0.322879 -1.99504 0
M  V30 279 C 26.6967 1.55313 -1.1791 0
M  V30 280 O 25.9667 1.94001 -0.272097 0
M  V30 281 H 24.5467 0.122291 -0.736922 0
M  V30 282 H 27.2087 -0.397802 -1.90797 0
M  V30 283 H 26.3047 0.603061 -3.06218 0
M  V30 284 N 26.6058 1.57591 -0.0167156 0
M  V30 285 C 27.5688 2.08393 0.954204 0
M  V30 286 C 28.5688 0.996531 1.26198 0
M  V30 287 O 29.7588 1.25858 1.20438 0
M  V30 288 C 26.8908 2.5394 2.27436 0
M  V30 289 H 28.0838 2.95455 0.514451 0
M  V30 290 H 25.6368 1.54582 0.231089 0
M  V30 291 H 26.3718 1.70171 2.76066 0
M  V30 292 H 26.1568 3.33371 2.06412 0
M  V30 293 H 27.6468 2.93512 2.97053 0
M  V30 294 N 28.0839 -0.256276 1.55502 0
M  V30 295 C 29.4999 -0.604325 1.47716 0
M  V30 296 C 29.6999 -1.88763 0.705039 0
M  V30 297 O 28.7559 -2.51445 0.230613 0
M  V30 298 C 30.0689 -0.715756 2.92057 0
M  V30 299 C 31.6169 -0.808706 3.02372 0
M  V30 300 C 32.0919 -0.951777 4.48001 0
M  V30 301 N 33.5829 -1.01688 4.519 0
M  V30 302 C 34.3179 -1.14668 5.61817 0
M  V30 303 N 33.8139 -1.24261 6.81565 0
M  V30 304 N 35.6069 -1.1791 5.49594 0
M  V30 305 H 27.7579 0.586291 2.04148 0
M  V30 306 H 30.0209 0.201015 0.926443 0
M  V30 307 H 29.7269 0.157027 3.51349 0
M  V30 308 H 29.6009 -1.59071 3.42018 0
M  V30 309 H 31.9879 -1.67195 2.43166 0
M  V30 310 H 32.0689 0.0912063 2.55637 0
M  V30 311 H 31.7129 -0.0931291 5.07815 0
M  V30 312 H 31.6429 -1.86659 4.92408 0
M  V30 313 H 34.1339 -0.954468 3.65648 0
M  V30 314 H 34.4469 -1.34046 7.61086 0
M  V30 315 H 32.7919 -1.21236 6.84344 0
M  V30 316 H 35.9829 -1.10057 4.54978 0
M  V30 317 H 36.1559 -1.27681 6.35296 0
M  V30 318 N 29.562 -1.4872 -0.521534 0
M  V30 319 C 30.492 -1.66771 -1.63431 0
M  V30 320 C 31.473 -0.516499 -1.62069 0
M  V30 321 O 32.658 -0.750013 -1.79132 0
M  V30 322 C 29.788 -1.71515 -3.01993 0
M  V30 323 C 28.742 -2.86222 -3.18216 0
M  V30 324 C 28.068 -2.76061 -4.57924 0
M  V30 325 C 29.368 -4.27419 -3.00184 0
M  V30 326 H 31.062 -2.59932 -1.48579 0
M  V30 327 H 28.608 -1.25089 -0.713358 0
M  V30 328 H 30.561 -1.82731 -3.7972 0
M  V30 329 H 29.285 -0.749393 -3.17886 0
M  V30 330 H 27.944 -2.74575 -2.42908 0
M  V30 331 H 27.592 -1.77437 -4.70665 0
M  V30 332 H 27.292 -3.53037 -4.69722 0
M  V30 333 H 28.816 -2.89256 -5.37739 0
M  V30 334 H 30.23 -4.39855 -3.67697 0
M  V30 335 H 28.627 -5.05458 -3.2347 0
M  V30 336 H 29.697 -4.43293 -1.96518 0
M  V30 337 N 31.0401 0.771051 -1.3745 0
M  V30 338 C 32.4511 1.34737 -1.29239 0
M  V30 339 C 32.8021 1.96109 0.0596908 0
M  V30 340 O 31.9271 1.93865 0.961534 0
M  V30 341 C 32.5221 2.44973 -2.34037 0
M  V30 342 C 31.0811 2.98372 -2.29458 0
M  V30 343 C 30.2281 1.71595 -2.17831 0
M  V30 344 H 33.1791 0.571256 -1.48062 0
M  V30 345 H 33.2001 3.24471 -1.98744 0
M  V30 346 H 32.7121 2.00276 -3.32432 0
M  V30 347 H 30.8131 3.47443 -1.34589 0
M  V30 348 H 30.9261 3.53939 -3.229 0
M  V30 349 H 29.2901 1.94547 -1.64388 0
M  V30 350 H 30.0731 1.29001 -3.18141 0
M  V30 351 N 32.5182 1.22032 0.997298 0
M  V30 352 C 33.7662 1.04016 1.73278 0
M  V30 353 C 34.0872 -0.426255 1.90284 0
M  V30 354 O 33.3572 -1.30694 1.45931 0
M  V30 355 H 31.9372 0.381897 0.642 0
M  V30 356 H 34.5992 1.5347 1.20137 0
M  V30 357 H 33.6952 1.51441 2.72896 0
M  V30 358 N 33.9963 -1.19345 1.0293 0
M  V30 359 C 34.9593 -2.20793 0.615069 0
M  V30 360 C 35.9593 -1.57553 -0.321533 0
M  V30 361 O 37.1493 -1.73862 -0.108483 0
M  V30 362 C 34.2813 -3.40754 -0.0999222 0
M  V30 363 H 35.4743 -2.58955 1.51269 0
M  V30 364 H 33.0273 -1.3303 0.820534 0
M  V30 365 H 33.7623 -3.0811 -1.01187 0
M  V30 366 H 33.5473 -3.87889 0.57309 0
M  V30 367 H 35.0373 -4.15898 -0.376645 0
M  V30 368 N 35.4744 -0.807222 -1.35358 0
M  V30 369 C 36.4374 -0.223665 -2.28106 0
M  V30 370 C 37.4374 0.589354 -1.4961 0
M  V30 371 O 38.6274 0.407745 -1.69361 0
M  V30 372 C 35.7594 0.688149 -3.33882 0
M  V30 373 H 36.9524 -1.04169 -2.81227 0
M  V30 374 H 34.5054 -0.577921 -1.45223 0
M  V30 375 H 35.2404 1.52984 -2.85948 0
M  V30 376 H 35.0254 0.10687 -3.91954 0
M  V30 377 H 36.5154 1.09075 -4.03104 0
M  V30 378 N 36.9525 1.47285 -0.560781 0
M  V30 379 C 37.8825 2.32857 0.173105 0
M  V30 380 C 38.8635 1.44009 0.905281 0
M  V30 381 O 40.0485 1.7286 0.885046 0
M  V30 382 C 37.1785 3.25861 1.20133 0
M  V30 383 C 36.1325 4.23978 0.585388 0
M  V30 384 C 35.4585 5.06332 1.7185 0
M  V30 385 C 36.7585 5.20242 -0.463178 0
M  V30 386 H 38.4525 2.94466 -0.541307 0
M  V30 387 H 35.9985 1.41601 -0.261764 0
M  V30 388 H 37.9515 3.84569 1.72293 0
M  V30 389 H 36.6755 2.62315 1.94573 0
M  V30 390 H 35.3345 3.66501 0.085054 0
M  V30 391 H 34.9825 4.39186 2.45203 0
M  V30 392 H 34.6825 5.72762 1.31213 0
M  V30 393 H 36.2065 5.67899 2.24329 0
M  V30 394 H 37.6205 5.73293 -0.027502 0
M  V30 395 H 36.0175 5.94896 -0.788627 0
M  V30 396 H 37.0875 4.65504 -1.35773 0
M  V30 397 N 38.4306 0.297415 1.54768 0
M  V30 398 C 39.6786 -0.312295 1.99673 0
M  V30 399 C 39.9996 -1.54686 1.18732 0
M  V30 400 O 39.2696 -1.93854 0.282382 0
M  V30 401 H 37.8496 -0.118381 0.73756 0
M  V30 402 H 40.5116 0.407915 1.90583 0
M  V30 403 H 39.6076 -0.586813 3.06534 0
M  V30 404 N 39.9087 -1.5758 0.0250728 0
M  V30 405 C 41.3247 -1.56124 -0.331282 0
M  V30 406 C 41.5247 -1.03029 -1.73169 0
M  V30 407 O 40.5807 -0.675215 -2.43305 0
M  V30 408 C 41.8937 -3.00139 -0.183584 0
M  V30 409 C 43.4417 -3.11946 -0.256654 0
M  V30 410 C 43.9167 -4.57793 -0.137792 0
M  V30 411 N 45.4077 -4.6279 -0.194904 0
M  V30 412 C 46.1427 -5.7326 -0.126655 0
M  V30 413 N 45.6387 -6.928 -0.00755288 0
M  V30 414 N 47.4317 -5.61811 -0.180348 0
M  V30 415 H 39.5827 -1.90424 0.94087 0
M  V30 416 H 41.8457 -0.875761 0.362968 0
M  V30 417 H 41.5517 -3.4292 0.780927 0
M  V30 418 H 41.4257 -3.64899 -0.955448 0
M  V30 419 H 43.8127 -2.69079 -1.21162 0
M  V30 420 H 43.8937 -2.49915 0.545517 0
M  V30 421 H 43.5377 -5.01339 0.813739 0
M  V30 422 H 43.4677 -5.17798 -0.958775 0
M  V30 423 H 45.9587 -3.76807 -0.287267 0
M  V30 424 H 46.2717 -7.72791 0.0379428 0
M  V30 425 H 44.6167 -6.94995 0.0271731 0
M  V30 426 H 47.8077 -4.6731 -0.271767 0
M  V30 427 H 47.9807 -6.47882 -0.123697 0
M  V30 428 N 41.3868 0.248026 -1.55636 0
M  V30 429 C 42.6148 0.993808 -1.81469 0
M  V30 430 C 43.0298 1.78991 -0.60064 0
M  V30 431 O 42.3868 1.77345 0.430682 0
M  V30 432 C 42.4378 1.93258 -3.05506 0
M  V30 433 O 42.1588 1.16869 -4.22224 0
M  V30 434 C 43.6598 2.79444 -3.4413 0
M  V30 435 H 40.8798 0.292486 -0.603898 0
M  V30 436 H 43.4238 0.271253 -2.02693 0
M  V30 437 H 41.5788 2.60943 -2.86335 0
M  V30 438 H 41.9928 1.80359 -4.92515 0
M  V30 439 H 43.4668 3.41066 -4.34026 0
M  V30 440 H 43.9438 3.50499 -2.64665 0
M  V30 441 H 44.5498 2.17214 -3.65648 0
M  V30 442 N 42.8649 1.48995 0.513639 0
M  V30 443 C 43.7749 1.67443 1.64317 0
M  V30 444 C 44.7909 0.556947 1.64846 0
M  V30 445 O 45.9669 0.830082 1.83498 0
M  V30 446 C 43.0319 1.72515 3.00732 0
M  V30 447 C 42.0929 2.96009 3.1093 0
M  V30 448 C 41.3259 3.00829 4.40837 0
M  V30 449 O 41.5489 2.13594 5.28898 0
M  V30 450 O 40.4829 3.93168 4.55744 0
M  V30 451 H 44.3089 2.63106 1.51687 0
M  V30 452 H 41.8939 1.32588 0.688543 0
M  V30 453 H 43.7759 1.78277 3.81831 0
M  V30 454 H 42.4509 0.800278 3.13651 0
M  V30 455 H 41.3579 2.9577 2.29065 0
M  V30 456 H 42.6909 3.87934 3.02933 0
M  V30 457 N 44.343 -0.763751 1.37857 0
M  V30 458 C 45.759 -1.06542 1.18832 0
M  V30 459 C 45.959 -2.01478 0.0299722 0
M  V30 460 O 45.015 -2.4458 -0.627447 0
M  V30 461 C 46.328 -1.65525 2.51042 0
M  V30 462 C 47.876 -1.77745 2.57635 0
M  V30 463 C 48.351 -2.4014 3.89996 0
M  V30 464 N 49.842 -2.47582 3.91481 0
M  V30 465 C 50.577 -2.96732 4.9065 0
M  V30 466 N 50.073 -3.45993 6.00217 0
M  V30 467 N 51.866 -2.95679 4.78048 0
M  V30 468 H 44.017 -0.133556 2.1198 0
M  V30 469 H 46.28 -0.121879 0.940133 0
M  V30 470 H 45.986 -1.03236 3.36207 0
M  V30 471 H 45.86 -2.64719 2.68707 0
M  V30 472 H 48.247 -2.39164 1.72872 0
M  V30 473 H 48.328 -0.772836 2.43846 0
M  V30 474 H 47.972 -1.79358 4.75177 0
M  V30 475 H 47.902 -3.41223 4.01092 0
M  V30 476 H 50.393 -2.1273 3.12337 0
M  V30 477 H 50.706 -3.81922 6.7183 0
M  V30 478 H 49.051 -3.44077 6.03851 0
M  V30 479 H 52.242 -2.56499 3.91568 0
M  V30 480 H 52.415 -3.33672 5.55488 0
M  V30 481 N 45.8211 -1.22559 -0.990812 0
M  V30 482 C 46.7841 -0.998863 -2.0629 0
M  V30 483 C 47.7841 0.0354834 -1.60761 0
M  V30 484 O 48.9741 -0.203231 -1.7301 0
M  V30 485 C 46.1061 -0.509203 -3.37076 0
M  V30 486 H 47.2991 -1.95014 -2.27837 0
M  V30 487 H 44.8521 -1.04456 -1.16269 0
M  V30 488 H 45.5871 0.446335 -3.21214 0
M  V30 489 H 45.3721 -1.25547 -3.71457 0
M  V30 490 H 46.8621 -0.370888 -4.1595 0
M  V30 491 N 47.2992 1.18797 -1.03562 0
M  V30 492 C 48.2622 2.20464 -0.626769 0
M  V30 493 C 49.2622 1.57721 0.313173 0
M  V30 494 O 50.4522 1.73917 0.0992615 0
M  V30 495 C 47.5842 3.40802 0.0818498 0
M  V30 496 H 48.7772 2.58149 -1.5264 0
M  V30 497 H 46.3302 1.32593 -0.827578 0
M  V30 498 H 47.0652 3.08642 0.995518 0
M  V30 499 H 46.8502 3.8758 -0.593652 0
M  V30 500 H 48.3402 4.16092 0.354584 0
M  V30 501 N 48.7773 0.814389 1.34928 0
M  V30 502 C 50.0253 0.397636 1.9815 0
M  V30 503 C 50.3463 -1.04069 1.64908 0
M  V30 504 O 49.6163 -1.72121 0.93548 0
M  V30 505 H 48.1963 0.144043 0.732981 0
M  V30 506 H 50.8583 1.04195 1.6471 0
M  V30 507 H 49.9543 0.509688 3.0791 0
M  V30 508 N 50.2554 -1.46986 0.568584 0
M  V30 509 C 51.5034 -2.02041 0.0487022 0
M  V30 510 C 51.8244 -1.44408 -1.31039 0
M  V30 511 O 51.0944 -0.623477 -1.85714 0
M  V30 512 H 49.6744 -0.746849 0.015014 0
M  V30 513 H 52.3364 -1.80257 0.741168 0
M  V30 514 H 51.4324 -3.12085 -0.0308961 0
M  V30 515 N 51.7335 -0.305618 -1.54608 0
M  V30 516 C 52.9815 0.301701 -1.99835 0
M  V30 517 C 53.3025 1.54054 -1.19551 0
M  V30 518 O 52.5725 1.93702 -0.292658 0
M  V30 519 H 51.1525 0.114468 -0.738178 0
M  V30 520 H 53.8145 -0.418016 -1.90364 0
M  V30 521 H 52.9105 0.570548 -3.06841 0
M  V30 522 N 53.2116 1.57565 -0.0334293 0
M  V30 523 C 54.4886 1.83282 0.683163 0
M  V30 524 C 54.8686 0.91823 1.90084 0
M  V30 525 O 54.2166 -0.025113 2.28486 0
M  V30 526 C 54.4266 3.32599 1.0573 0
M  V30 527 C 55.7746 3.99179 1.44711 0
M  V30 528 O 56.7986 3.3712 1.15015 0
M  V30 529 O 55.6576 5.08565 2.0006 0
M  V30 530 H 52.7516 0.755869 0.335546 0
M  V30 531 H 55.2976 1.69589 -0.0614402 0
M  V30 532 H 54.0696 3.90834 0.190828 0
M  V30 533 H 53.6926 3.51415 1.85993 0
M  V30 534 N 54.6897 -0.239769 1.55765 0
M  V30 535 C 55.9377 -0.964892 1.77579 0
M  V30 536 C 56.2587 -1.85582 0.598699 0
M  V30 537 O 55.5287 -1.92075 -0.385226 0
M  V30 538 H 54.1087 -0.359265 0.654933 0
M  V30 539 H 56.7707 -0.256001 1.93211 0
M  V30 540 H 55.8667 -1.58243 2.69009 0
M  V30 541 N 56.1678 -1.49265 -0.50573 0
M  V30 542 C 57.1308 -1.65075 -1.59006 0
M  V30 543 C 58.1308 -0.522768 -1.52065 0
M  V30 544 O 59.3208 -0.789117 -1.55302 0
M  V30 545 C 56.4528 -1.64369 -2.98656 0
M  V30 546 H 57.6458 -2.61784 -1.46319 0
M  V30 547 H 55.1988 -1.38226 -0.729616 0
M  V30 548 H 55.9338 -0.692272 -3.16825 0
M  V30 549 H 55.7188 -2.46282 -3.05103 0
M  V30 550 H 57.2088 -1.78674 -3.77446 0
M  V30 551 N 57.6459 0.756429 -1.3826 0
M  V30 552 C 59.0619 1.0591 -1.19395 0
M  V30 553 C 59.2619 2.01459 -0.0406567 0
M  V30 554 O 58.3179 2.44909 0.614467 0
M  V30 555 C 59.6309 1.64191 -2.51916 0
M  V30 556 C 61.1789 1.76376 -2.58574 0
M  V30 557 C 61.6539 2.38069 -3.91264 0
M  V30 558 N 63.1449 2.45503 -3.92788 0
M  V30 559 C 63.8799 2.94126 -4.92217 0
M  V30 560 N 63.3759 3.42805 -6.02043 0
M  V30 561 N 65.1689 2.9314 -4.7961 0
M  V30 562 H 57.3199 0.122313 -2.12048 0
M  V30 563 H 59.5829 0.116892 -0.940766 0
M  V30 564 H 59.2889 1.01451 -3.3675 0
M  V30 565 H 59.1629 2.6329 -2.70108 0
M  V30 566 H 61.5499 2.38244 -1.74137 0
M  V30 567 H 61.6309 0.759894 -2.44252 0
M  V30 568 H 61.2749 1.76835 -4.76121 0
M  V30 569 H 61.2049 3.39091 -4.02895 0
M  V30 570 H 63.6959 2.1107 -3.13461 0
M  V30 571 H 64.0089 3.78354 -6.73846 0
M  V30 572 H 62.3539 3.4087 -6.05667 0
M  V30 573 H 65.5449 2.54419 -3.92923 0
M  V30 574 H 65.7179 3.30721 -5.5725 0
M  V30 575 N 59.124 1.23083 0.984299 0
M  V30 576 C 60.54 0.992637 1.24975 0
M  V30 577 C 60.74 -0.308618 1.99123 0
M  V30 578 O 59.796 -1.02905 2.30579 0
M  V30 579 C 61.109 2.19698 2.05312 0
M  V30 580 C 62.657 2.24147 2.18465 0
M  V30 581 C 63.132 3.44157 3.02192 0
M  V30 582 N 64.623 3.44372 3.09777 0
M  V30 583 C 65.358 4.33886 3.74874 0
M  V30 584 N 64.854 5.3363 4.41827 0
M  V30 585 N 66.647 4.21639 3.71721 0
M  V30 586 H 58.798 2.06731 0.487453 0
M  V30 587 H 61.061 0.906339 0.277944 0
M  V30 588 H 60.767 3.1411 1.58201 0
M  V30 589 H 60.641 2.20465 3.06064 0
M  V30 590 H 63.028 1.30277 2.64786 0
M  V30 591 H 63.109 2.27415 1.17115 0
M  V30 592 H 62.753 4.38332 2.56568 0
M  V30 593 H 62.683 3.3813 4.03702 0
M  V30 594 H 65.174 2.72201 2.62135 0
M  V30 595 H 65.487 5.98196 4.89266 0
M  V30 596 H 63.832 5.37534 4.40548 0
M  V30 597 H 67.023 3.42962 3.18582 0
M  V30 598 H 67.196 4.91604 4.22173 0
M  V30 599 N 60.6021 -1.18246 1.0419 0
M  V30 600 C 61.8491 -1.88257 0.746017 0
M  V30 601 C 62.1771 -1.80429 -0.726331 0
M  V30 602 O 61.4321 -1.2 -1.54591 0
M  V30 603 C 61.7311 -3.38082 1.15911 0
M  V30 604 C 61.3971 -3.66114 2.63195 0
M  V30 605 C 60.0591 -3.73474 3.03432 0
M  V30 606 C 62.4111 -3.78398 3.5842 0
M  V30 607 C 59.7391 -3.90599 4.37778 0
M  V30 608 C 62.0911 -3.97039 4.92487 0
M  V30 609 C 60.7551 -4.02635 5.32392 0
M  V30 610 H 60.0251 -0.688883 0.272987 0
M  V30 611 H 62.6721 -1.3995 1.30715 0
M  V30 612 H 60.9771 -3.88377 0.516806 0
M  V30 613 H 62.6741 -3.90596 0.907516 0
M  V30 614 H 59.2641 -3.61003 2.3103 0
M  V30 615 H 63.4481 -3.72042 3.28479 0
M  V30 616 H 58.7041 -3.93175 4.68213 0
M  V30 617 H 62.8781 -4.05486 5.66175 0
M  V30 618 H 60.5051 -4.15657 6.36501 0
M  V30 619 N 62.0802 -0.821533 -1.34494 0
M  V30 620 C 63.3282 -0.408139 -1.97936 0
M  V30 621 C 63.6492 1.03193 -1.65457 0
M  V30 622 O 62.9192 1.71622 -0.944595 0
M  V30 623 H 61.4992 -0.147928 -0.732206 0
M  V30 624 H 64.1612 -1.05067 -1.64155 0
M  V30 625 H 63.2572 -0.52601 -3.07635 0
M  V30 626 N 63.5583 1.46682 -0.576371 0
M  V30 627 C 64.7833 2.07304 -0.0630475 0
M  V30 628 C 65.2083 1.42329 1.2298 0
M  V30 629 O 64.5663 0.504865 1.74129 0
M  V30 630 C 64.6143 3.60472 0.095895 0
M  V30 631 O 63.7183 3.95927 1.15394 0
M  V30 632 H 63.0593 0.661288 -0.0599463 0
M  V30 633 H 65.5893 1.88417 -0.797511 0
M  V30 634 H 65.5993 4.06865 0.304071 0
M  V30 635 H 64.2743 4.07157 -0.84828 0
M  V30 636 H 62.8513 3.61252 0.924724 0
M  V30 637 N 65.0364 0.313813 1.54444 0
M  V30 638 C 65.9684 -0.590425 2.21465 0
M  V30 639 C 66.9814 -1.08753 1.21147 0
M  V30 640 O 68.1704 -1.00278 1.4767 0
M  V30 641 C 65.2704 -1.82179 2.85769 0
M  V30 642 C 64.4434 -1.46502 4.12136 0
M  V30 643 C 63.5024 -2.55288 4.60124 0
M  V30 644 O 62.5284 -2.19842 5.25032 0
M  V30 645 N 63.7304 -3.86053 4.33525 0
M  V30 646 H 66.4954 -0.0166033 2.99695 0
M  V30 647 H 64.0564 0.136578 1.61323 0
M  V30 648 H 66.0484 -2.54328 3.14801 0
M  V30 649 H 64.6184 -2.30369 2.11303 0
M  V30 650 H 63.8384 -0.575595 3.89975 0
M  V30 651 H 65.1264 -1.20221 4.94393 0
M  V30 652 H 64.5244 -4.17654 3.81552 0
M  V30 653 H 63.0814 -4.54461 4.67235 0
M  V30 654 N 66.5145 -1.57545 0.0417849 0
M  V30 655 C 67.9305 -1.56467 -0.314704 0
M  V30 656 C 68.1305 -1.04859 -1.72066 0
M  V30 657 O 67.1865 -0.700983 -2.42575 0
M  V30 658 C 68.4995 -3.00317 -0.15174 0
M  V30 659 C 70.0475 -3.12201 -0.223553 0
M  V30 660 C 70.5225 -4.57913 -0.0892295 0
M  V30 661 N 72.0135 -4.6297 -0.145808 0
M  V30 662 C 72.7485 -5.73362 -0.0658459 0
M  V30 663 N 72.2445 -6.92769 0.0659282 0
M  V30 664 N 74.0375 -5.6197 -0.12075 0
M  V30 665 H 66.1885 -1.89416 0.961014 0
M  V30 666 H 68.4515 -0.871862 0.372237 0
M  V30 667 H 68.1575 -3.42073 0.817254 0
M  V30 668 H 68.0315 -3.65892 -0.916692 0
M  V30 669 H 70.4185 -2.70349 -1.18301 0
M  V30 670 H 70.4995 -2.49323 0.571994 0
M  V30 671 H 70.1435 -5.00448 0.866867 0
M  V30 672 H 70.0735 -5.18786 -0.903802 0
M  V30 673 H 72.5645 -3.7709 -0.247286 0
M  V30 674 H 72.8775 -7.72707 0.119905 0
M  V30 675 H 71.2225 -6.94927 0.100885 0
M  V30 676 H 74.4135 -4.67572 -0.222187 0
M  V30 677 H 74.5865 -6.47977 -0.0549735 0
M  V30 678 N 67.9926 0.231505 -1.5589 0
M  V30 679 C 69.2386 0.95877 -1.78705 0
M  V30 680 C 69.5716 1.8438 -0.609725 0
M  V30 681 O 68.8466 1.90521 0.391426 0
M  V30 682 C 69.1296 1.8062 -3.11526 0
M  V30 683 C 68.9826 0.948328 -4.39689 0
M  V30 684 C 70.3016 2.78585 -3.40703 0
M  V30 685 H 67.4206 0.347129 -0.650131 0
M  V30 686 H 70.0626 0.228259 -1.88624 0
M  V30 687 H 68.2126 2.42902 -3.03201 0
M  V30 688 H 69.8846 0.343016 -4.60023 0
M  V30 689 H 68.1276 0.253314 -4.3306 0
M  V30 690 H 68.7986 1.57543 -5.29041 0
M  V30 691 H 71.2746 2.26439 -3.49091 0
M  V30 692 H 70.1506 3.34988 -4.34826 0
M  V30 693 H 70.4116 3.55825 -2.62375 0
M  V30 694 N 69.4707 1.49531 0.497807 0
M  V30 695 C 70.4007 1.6935 1.60757 0
M  V30 696 C 71.3817 0.542218 1.61227 0
M  V30 697 O 72.5667 0.778417 1.77917 0
M  V30 698 C 69.6967 1.76298 2.99226 0
M  V30 699 C 68.6507 2.91248 3.13622 0
M  V30 700 C 67.9767 2.83312 4.53474 0
M  V30 701 C 69.2767 4.3214 2.93346 0
M  V30 702 H 70.9707 2.62263 1.44425 0
M  V30 703 H 68.5167 1.26208 0.693367 0
M  V30 704 H 70.4697 1.88749 3.76765 0
M  V30 705 H 69.1937 0.799871 3.16654 0
M  V30 706 H 67.8527 2.78404 2.38509 0
M  V30 707 H 67.5007 1.84902 4.67782 0
M  V30 708 H 67.2007 3.60465 4.64046 0
M  V30 709 H 68.7247 2.97775 5.33069 0
M  V30 710 H 70.1387 4.45649 3.60652 0
M  V30 711 H 68.5357 5.1054 3.15387 0
M  V30 712 H 69.6057 4.46363 1.89441 0
M  V30 713 N 70.9488 -0.749086 1.3866 0
M  V30 714 C 72.1948 -1.51056 1.35314 0
M  V30 715 C 72.5278 -1.94121 -0.0553751 0
M  V30 716 O 71.8028 -1.65763 -1.01749 0
M  V30 717 C 72.0858 -2.76003 2.31288 0
M  V30 718 C 71.9388 -2.39047 3.8102 0
M  V30 719 C 73.2578 -3.78046 2.2532 0
M  V30 720 H 70.3768 -0.547972 0.492844 0
M  V30 721 H 73.0188 -0.857628 1.69543 0
M  V30 722 H 71.1688 -3.31716 2.02229 0
M  V30 723 H 72.8408 -1.89074 4.20771 0
M  V30 724 H 71.0838 -1.71449 3.98482 0
M  V30 725 H 71.7548 -3.28462 4.4364 0
M  V30 726 H 74.2308 -3.31884 2.50983 0
M  V30 727 H 73.1068 -4.63159 2.94576 0
M  V30 728 H 73.3678 -4.23957 1.25352 0
M  V30 729 N 72.4269 -1.23603 -0.977757 0
M  V30 730 C 73.3369 -1.03632 -2.1047 0
M  V30 731 C 74.3529 0.0199435 -1.73989 0
M  V30 732 O 75.5289 -0.176076 -2.00629 0
M  V30 733 C 72.5939 -0.63276 -3.40877 0
M  V30 734 C 71.6549 -1.76437 -3.91367 0
M  V30 735 C 70.8879 -1.37997 -5.15551 0
M  V30 736 O 71.1109 -0.265357 -5.69782 0
M  V30 737 O 70.0449 -2.20201 -5.60174 0
M  V30 738 H 73.8709 -1.98086 -2.30208 0
M  V30 739 H 71.4559 -1.02332 -1.08851 0
M  V30 740 H 73.3379 -0.418761 -4.19314 0
M  V30 741 H 72.0129 0.282754 -3.22463 0
M  V30 742 H 70.9199 -2.03304 -3.14036 0
M  V30 743 H 72.2529 -2.6583 -4.14241 0
M  V30 744 N 73.905 1.17692 -1.04816 0
M  V30 745 C 75.316 1.69501 -0.782698 0
M  V30 746 C 75.667 1.83456 0.695577 0
M  V30 747 O 74.792 1.51942 1.54086 0
M  V30 748 C 75.387 3.07874 -1.41419 0
M  V30 749 C 73.946 3.56864 -1.19686 0
M  V30 750 C 73.093 2.3322 -1.50012 0
M  V30 751 H 76.044 1.02262 -1.2136 0
M  V30 752 H 76.065 3.71528 -0.821428 0
M  V30 753 H 75.577 2.97685 -2.49009 0
M  V30 754 H 73.678 3.72337 -0.140043 0
M  V30 755 H 73.791 4.39851 -1.89916 0
M  V30 756 H 72.155 2.37501 -0.920071 0
M  V30 757 H 72.938 2.25644 -2.58727 0
M  V30 758 N 75.3831 0.828654 1.34056 0
M  V30 759 C 76.6601 0.341809 1.9259 0
M  V30 760 C 77.0401 -1.17158 1.75605 0
M  V30 761 O 76.3881 -1.98132 1.13824 0
M  V30 762 C 76.5981 0.777453 3.4023 0
M  V30 763 C 77.9461 0.779579 4.17382 0
M  V30 764 O 78.9701 0.7204 3.48839 0
M  V30 765 O 77.8291 0.857996 5.39723 0
M  V30 766 H 74.9231 0.0946085 0.821571 0
M  V30 767 H 77.4691 0.913827 1.42994 0
M  V30 768 H 76.2411 1.8196 3.46419 0
M  V30 769 H 75.8641 0.181444 3.97186 0
M  V30 770 N 76.8612 -1.46375 0.584142 0
M  V30 771 C 77.8242 -2.28784 -0.138108 0
M  V30 772 C 78.8242 -1.38471 -0.817462 0
M  V30 773 O 80.0142 -1.60833 -0.669199 0
M  V30 774 C 77.1462 -3.18892 -1.20503 0
M  V30 775 H 78.3392 -2.94117 0.586127 0
M  V30 776 H 75.8922 -1.52509 0.342171 0
M  V30 777 H 76.6272 -2.58309 -1.96079 0
M  V30 778 H 76.4122 -3.85388 -0.722384 0
M  V30 779 H 77.9022 -3.80914 -1.71155 0
M  V30 780 N 78.3393 -0.321999 -1.54275 0
M  V30 781 C 79.5873 0.280489 -2.00144 0
M  V30 782 C 79.9083 1.52777 -1.21178 0
M  V30 783 O 79.1783 1.9338 -0.313187 0
M  V30 784 H 77.7583 0.106632 -0.73935 0
M  V30 785 H 80.4203 -0.438184 -1.8991 0
M  V30 786 H 79.5163 0.537972 -3.07428 0
M  V30 787 N 79.8174 1.5752 -0.0501392 0
M  V30 788 C 80.7804 2.1037 0.909786 0
M  V30 789 C 81.7804 1.02308 1.24056 0
M  V30 790 O 82.9704 1.28385 1.17741 0
M  V30 791 C 80.1024 2.58708 2.21998 0
M  V30 792 H 81.2954 2.96479 0.451665 0
M  V30 793 H 78.8484 1.55038 0.198248 0
M  V30 794 H 79.5834 1.75989 2.72394 0
M  V30 795 H 79.3684 3.37675 1.99295 0
M  V30 796 H 80.8584 2.99747 2.9076 0
M  V30 797 N 81.2955 -0.223234 1.56011 0
M  V30 798 C 82.5435 -0.946003 1.78592 0
M  V30 799 C 82.8645 -1.84936 0.618349 0
M  V30 800 O 82.1345 -1.92473 -0.364833 0
M  V30 801 H 80.7145 -0.352298 0.658707 0
M  V30 802 H 83.3765 -0.235494 1.93472 0
M  V30 803 H 82.4725 -1.55381 2.70672 0
M  V30 804 N 82.7736 -1.49793 -0.48987 0
M  V30 805 C 84.0196 -1.60078 -1.24511 0
M  V30 806 C 84.3526 -0.291608 -1.91998 0
M  V30 807 O 83.6276 0.705647 -1.81248 0
M  V30 808 C 83.9106 -2.76791 -2.30345 0
M  V30 809 C 83.7636 -4.17535 -1.67286 0
M  V30 810 C 85.0826 -2.89111 -3.31817 0
M  V30 811 H 82.2016 -0.582645 -0.451324 0
M  V30 812 H 84.8436 -1.82117 -0.541612 0
M  V30 813 H 82.9936 -2.5813 -2.90346 0
M  V30 814 H 84.6656 -4.4774 -1.11026 0
M  V30 815 H 82.9086 -4.22665 -0.976577 0
M  V30 816 H 83.5796 -4.95094 -2.44103 0
M  V30 817 H 86.0556 -3.06133 -2.81819 0
M  V30 818 H 84.9316 -3.72433 -4.03219 0
M  V30 819 H 85.1926 -1.9893 -3.94815 0
M  V30 820 N 84.2517 0.741722 -1.39055 0
M  V30 821 C 85.2147 1.83733 -1.37021 0
M  V30 822 C 86.2147 1.58542 -0.268534 0
M  V30 823 O 87.4047 1.66067 -0.526076 0
M  V30 824 C 84.5367 3.2141 -1.13617 0
M  V30 825 H 85.7297 1.86941 -2.34506 0
M  V30 826 H 83.2827 0.944676 -1.24521 0
M  V30 827 H 84.0177 3.23865 -0.167863 0
M  V30 828 H 83.8027 3.4109 -1.93391 0
M  V30 829 H 85.2927 4.01477 -1.14918 0
M  V30 830 N 85.7298 1.2412 0.971189 0
M  V30 831 C 86.9758 1.08041 1.71625 0
M  V30 832 C 87.3088 -0.380407 1.90438 0
M  V30 833 O 86.5838 -1.28127 1.46334 0
M  V30 834 C 86.8668 1.81682 3.10908 0
M  V30 835 C 86.7198 3.35493 2.99608 0
M  V30 836 C 88.0388 1.58671 4.10501 0
M  V30 837 H 85.1578 0.39388 0.622919 0
M  V30 838 H 87.7998 1.52743 1.13003 0
M  V30 839 H 85.9498 1.43684 3.60953 0
M  V30 840 H 87.6218 3.83068 2.57015 0
M  V30 841 H 85.8648 3.64052 2.35899 0
M  V30 842 H 86.5358 3.82217 3.98264 0
M  V30 843 H 89.0118 1.91719 3.69301 0
M  V30 844 H 87.8878 2.1266 5.06031 0
M  V30 845 H 88.1488 0.524161 4.38982 0
M  V30 846 N 87.2079 -1.17134 1.05439 0
M  V30 847 C 88.1409 -2.2012 0.601855 0
M  V30 848 C 89.1189 -1.58314 -0.370854 0
M  V30 849 O 90.3029 -1.8638 -0.281882 0
M  V30 850 C 87.4299 -3.38491 -0.118868 0
M  V30 851 C 86.4759 -4.18752 0.809242 0
M  V30 852 S 87.3089 -4.83602 2.29977 0
M  V30 853 C 88.4649 -6.0536 1.59029 0
M  V30 854 H 88.6979 -2.58165 1.47438 0
M  V30 855 H 86.2309 -1.27788 0.866573 0
M  V30 856 H 88.1889 -4.07084 -0.528495 0
M  V30 857 H 86.8499 -2.98829 -0.967465 0
M  V30 858 H 86.0429 -5.03373 0.251379 0
M  V30 859 H 85.6449 -3.5561 1.15835 0
M  V30 860 H 87.9369 -6.71615 0.891017 0
M  V30 861 H 88.8799 -6.65679 2.41407 0
M  V30 862 H 89.2879 -5.54138 1.07663 0
M  V30 863 N 88.686 -0.835752 -1.33615 0
M  V30 864 C 89.633 -0.26473 -2.29277 0
M  V30 865 C 90.603 0.617712 -1.54187 0
M  V30 866 O 91.788 0.556641 -1.825 0
M  V30 867 C 88.928 0.556777 -3.40579 0
M  V30 868 C 88.041 -0.349339 -4.30585 0
M  V30 869 C 87.176 0.482969 -5.29 0
M  V30 870 C 86.215 -0.421732 -6.10645 0
M  V30 871 N 85.352 0.372262 -7.01112 0
M  V30 872 H 90.192 -1.08582 -2.77514 0
M  V30 873 H 87.729 -0.546927 -1.36554 0
M  V30 874 H 89.687 1.04852 -4.03809 0
M  V30 875 H 88.317 1.34286 -2.93542 0
M  V30 876 H 87.369 -0.959372 -3.68104 0
M  V30 877 H 88.681 -1.04445 -4.87742 0
M  V30 878 H 87.835 1.03866 -5.97743 0
M  V30 879 H 86.574 1.21153 -4.72412 0
M  V30 880 H 85.579 -0.989464 -5.40823 0
M  V30 881 H 86.804 -1.14861 -6.69316 0
M  V30 882 H 84.75 1.08426 -6.46977 0
M  V30 883 H 84.667 -0.264198 -7.55538 0
M  V30 884 H 85.935 0.910293 -7.74167 0
M  V30 885 N 90.1641 1.46063 -0.591896 0
M  V30 886 C 91.4111 2.02338 -0.0809991 0
M  V30 887 C 91.7391 1.46228 1.28249 0
M  V30 888 O 90.9941 0.620818 1.85592 0
M  V30 889 C 91.2931 3.57391 0.0249813 0
M  V30 890 C 90.9591 4.32583 -1.27211 0
M  V30 891 C 89.6211 4.52844 -1.62745 0
M  V30 892 C 91.9731 4.75687 -2.13005 0
M  V30 893 C 89.3011 5.13462 -2.83855 0
M  V30 894 C 91.6531 5.37644 -3.3335 0
M  V30 895 C 90.3171 5.5613 -3.69155 0
M  V30 896 H 89.5871 0.740407 -0.0296397 0
M  V30 897 H 92.2341 1.75321 -0.770374 0
M  V30 898 H 90.5391 3.83597 0.797537 0
M  V30 899 H 92.2361 3.98621 0.436184 0
M  V30 900 H 88.8261 4.17116 -0.985499 0
M  V30 901 H 93.0101 4.59782 -1.86855 0
M  V30 902 H 88.2661 5.25965 -3.11722 0
M  V30 903 H 92.4401 5.7 -4.00092 0
M  V30 904 H 90.0671 6.0287 -4.63089 0
M  V30 905 N 91.6422 0.330177 1.54103 0
M  V30 906 C 92.5892 -0.532762 2.24567 0
M  V30 907 C 93.5592 -1.10635 1.23892 0
M  V30 908 O 94.7442 -1.14546 1.5259 0
M  V30 909 C 91.8842 -1.6845 3.01195 0
M  V30 910 C 90.9972 -1.13951 4.167 0
M  V30 911 C 90.1322 -2.25746 4.80845 0
M  V30 912 C 89.1712 -1.6853 5.88442 0
M  V30 913 N 88.3082 -2.74014 6.46421 0
M  V30 914 H 93.1482 0.0746905 2.97906 0
M  V30 915 H 90.6852 0.048632 1.4702 0
M  V30 916 H 92.6432 -2.36234 3.43874 0
M  V30 917 H 91.2732 -2.26314 2.30178 0
M  V30 918 H 90.3252 -0.35301 3.78758 0
M  V30 919 H 91.6372 -0.680892 4.94131 0
M  V30 920 H 90.7912 -3.01422 5.26526 0
M  V30 921 H 89.5302 -2.74947 4.0281 0
M  V30 922 H 88.5352 -0.913543 5.42157 0
M  V30 923 H 89.7602 -1.20198 6.68378 0
M  V30 924 H 87.7062 -3.22494 5.71256 0
M  V30 925 H 87.6232 -2.32735 7.19285 0
M  V30 926 H 88.8912 -3.49499 6.96757 0
M  V30 927 N 93.1203 -1.57491 0.0584922 0
M  V30 928 C 94.0683 -2.13148 -0.931168 0
M  V30 929 C 95.0623 -1.06507 -1.31729 0
M  V30 930 O 96.2683 -1.24906 -1.29609 0
M  V30 931 H 92.6433 -0.68137 -0.31818 0
M  V30 932 H 94.6143 -2.95187 -0.436707 0
M  V30 933 C 93.3633 -2.69732 -2.19408 0
M  V30 934 H 92.6863 -3.51454 -1.90578 0
M  V30 935 H 94.1263 -3.12287 -2.86798 0
M  V30 936 C 92.5853 -1.63855 -2.94369 0
M  V30 937 O 93.1153 -1.05565 -3.87581 0
M  V30 938 N 91.3213 -1.35202 -2.57233 0
M  V30 939 H 90.8683 -1.82791 -1.81508 0
M  V30 940 H 90.8263 -0.645922 -3.07693 0
M  V30 941 N 94.5984 0.214957 -1.56127 0
M  V30 942 C 96.0094 0.781386 -1.69562 0
M  V30 943 C 96.3604 1.84707 -0.66165 0
M  V30 944 O 95.4854 2.156 0.185927 0
M  V30 945 C 96.0804 1.42411 -3.07416 0
M  V30 946 C 94.6394 1.93786 -3.22683 0
M  V30 947 C 93.7864 0.800438 -2.65496 0
M  V30 948 H 96.7374 -0.00980633 -1.58697 0
M  V30 949 H 96.7584 2.29309 -3.0364 0
M  V30 950 H 96.2704 0.64826 -3.82648 0
M  V30 951 H 94.3714 2.74152 -2.52332 0
M  V30 952 H 94.4844 2.1133 -4.29973 0
M  V30 953 H 92.8484 1.2095 -2.2415 0
M  V30 954 H 93.6314 0.0371471 -3.4328 0
M  V30 955 N 96.0765 1.50051 0.48192 0
M  V30 956 C 97.4875 1.5348 1.06305 0
M  V30 957 C 97.8385 0.331997 1.93371 0
M  V30 958 O 96.9635 -0.556256 2.09129 0
M  V30 959 C 97.5585 2.7813 1.93466 0
M  V30 960 C 96.1175 2.84275 2.46707 0
M  V30 961 C 95.2645 2.47637 1.24785 0
M  V30 962 H 98.2155 1.56472 0.264995 0
M  V30 963 H 98.2365 2.59372 2.78399 0
M  V30 964 H 97.7485 3.65654 1.30072 0
M  V30 965 H 95.8495 2.01077 3.13686 0
M  V30 966 H 95.9625 3.8691 2.82555 0
M  V30 967 H 94.3265 1.99835 1.57918 0
M  V30 968 H 95.1095 3.37457 0.630694 0
M  V30 969 N 97.5546 -0.734337 1.39446 0
M  V30 970 C 98.8006 -1.49613 1.36908 0
M  V30 971 C 99.1336 -1.94169 -0.0347829 0
M  V30 972 O 98.4086 -1.66833 -0.999847 0
M  V30 973 C 98.6916 -2.73534 2.34203 0
M  V30 974 C 98.5446 -2.34993 3.83534 0
M  V30 975 C 99.8636 -3.75635 2.29317 0
M  V30 976 H 96.9826 -0.542714 0.498629 0
M  V30 977 H 99.6246 -0.839597 1.70443 0
M  V30 978 H 97.7746 -3.29553 2.05736 0
M  V30 979 H 99.4466 -1.84601 4.22753 0
M  V30 980 H 97.6896 -1.67213 4.00278 0
M  V30 981 H 98.3606 -3.23738 4.47099 0
M  V30 982 H 100.837 -3.29203 2.54489 0
M  V30 983 H 99.7126 -4.60008 2.99472 0
M  V30 984 H 99.9736 -4.22603 1.29842 0
M  V30 985 N 99.0327 -1.24633 -0.964593 0
M  V30 986 C 99.9807 -1.03917 -2.08096 0
M  V30 987 C 100.975 0.0268581 -1.69379 0
M  V30 988 O 102.181 -0.127952 -1.79545 0
M  V30 989 H 98.5557 -0.319044 -0.680966 0
M  V30 990 H 100.527 -1.98581 -2.22729 0
M  V30 991 C 99.2757 -0.663983 -3.41301 0
M  V30 992 H 98.5987 -1.47605 -3.71555 0
M  V30 993 H 100.039 -0.558663 -4.20303 0
M  V30 994 C 98.4977 0.629169 -3.30973 0
M  V30 995 O 99.0277 1.67404 -3.65156 0
M  V30 996 N 97.2337 0.611057 -2.84103 0
M  V30 997 H 96.7807 -0.239593 -2.56483 0
M  V30 998 H 96.7387 1.47647 -2.77575 0
M  V30 999 N 100.511 1.16574 -1.06058 0
M  V30 1000 C 101.736 1.91493 -0.796562 0
M  V30 1001 C 102.161 1.76773 0.642868 0
M  V30 1002 O 101.519 1.09142 1.44768 0
M  V30 1003 C 101.567 3.40293 -1.19303 0
M  V30 1004 O 100.671 4.11074 -0.330394 0
M  V30 1005 H 100.012 0.596678 -0.291326 0
M  V30 1006 H 102.542 1.47708 -1.41575 0
M  V30 1007 H 102.552 3.91057 -1.16356 0
M  V30 1008 H 101.227 3.50326 -2.24153 0
M  V30 1009 H 99.8038 3.70513 -0.421225 0
M  V30 1010 N 101.989 0.842826 1.3317 0
M  V30 1011 C 102.919 0.294028 2.31641 0
M  V30 1012 C 103.9 -0.600401 1.59151 0
M  V30 1013 O 105.085 -0.523124 1.87022 0
M  V30 1014 C 102.215 -0.528416 3.43257 0
M  V30 1015 C 101.169 0.27056 4.27144 0
M  V30 1016 C 100.495 -0.675881 5.30411 0
M  V30 1017 C 101.795 1.48981 5.00602 0
M  V30 1018 H 103.489 1.11681 2.77791 0
M  V30 1019 H 101.035 0.538478 1.33553 0
M  V30 1020 H 102.988 -0.922674 4.11175 0
M  V30 1021 H 101.712 -1.38445 2.95805 0
M  V30 1022 H 100.371 0.646427 3.60856 0
M  V30 1023 H 100.019 -1.52842 4.79216 0
M  V30 1024 H 99.7189 -0.145374 5.8742 0
M  V30 1025 H 101.243 -1.06757 6.01195 0
M  V30 1026 H 102.657 1.16849 5.61266 0
M  V30 1027 H 101.054 1.95739 5.6728 0
M  V30 1028 H 102.124 2.25746 4.29147 0
M  V30 1029 N 103.467 -1.45747 0.599634 0
M  V30 1030 C 104.692 -2.07178 0.0960198 0
M  V30 1031 C 105.117 -1.44268 -1.207 0
M  V30 1032 O 104.475 -0.532503 -1.73303 0
M  V30 1033 C 104.523 -3.60579 -0.0385348 0
M  V30 1034 O 103.627 -3.97713 -1.0908 0
M  V30 1035 H 102.968 -0.660251 0.0704593 0
M  V30 1036 H 105.498 -1.87124 0.827385 0
M  V30 1037 H 105.508 -4.07298 -0.239304 0
M  V30 1038 H 104.183 -4.05756 0.912947 0
M  V30 1039 H 102.76 -3.62678 -0.867135 0
M  V30 1040 N 104.945 -0.338344 -1.53925 0
M  V30 1041 C 105.875 0.51328 -2.27789 0
M  V30 1042 C 106.856 1.107 -1.29149 0
M  V30 1043 O 108.041 1.12937 -1.57984 0
M  V30 1044 C 105.171 1.66697 -3.04679 0
M  V30 1045 C 104.125 1.20183 -4.1078 0
M  V30 1046 C 103.451 2.44363 -4.75595 0
M  V30 1047 C 104.751 0.30605 -5.21403 0
M  V30 1048 H 106.445 -0.102883 -2.99223 0
M  V30 1049 H 103.991 -0.0509219 -1.4391 0
M  V30 1050 H 105.944 2.26915 -3.55088 0
M  V30 1051 H 104.668 2.30995 -2.30887 0
M  V30 1052 H 103.327 0.622499 -3.61276 0
M  V30 1053 H 102.975 3.07057 -3.98403 0
M  V30 1054 H 102.675 2.13925 -5.47275 0
M  V30 1055 H 104.199 3.05317 -5.28786 0
M  V30 1056 H 105.613 0.814929 -5.67478 0
M  V30 1057 H 104.01 0.0937929 -6.00027 0
M  V30 1058 H 105.08 -0.65921 -4.80398 0
M  V30 1059 N 106.423 1.57458 -0.0668435 0
M  V30 1060 C 107.333 2.15937 0.916975 0
M  V30 1061 C 108.349 1.12123 1.33058 0
M  V30 1062 O 109.525 1.44366 1.40429 0
M  V30 1063 C 106.59 2.70547 2.16807 0
M  V30 1064 C 105.651 3.89215 1.81135 0
M  V30 1065 C 104.884 4.41211 3.0028 0
M  V30 1066 O 105.107 3.92225 4.14144 0
M  V30 1067 O 104.041 5.32605 2.80384 0
M  V30 1068 H 107.867 3.00354 0.449561 0
M  V30 1069 H 105.452 1.48584 0.155949 0
M  V30 1070 H 107.334 3.0557 2.90181 0
M  V30 1071 H 106.009 1.89192 2.62656 0
M  V30 1072 H 104.916 3.59054 1.05028 0
M  V30 1073 H 106.249 4.71848 1.40073 0
M  V30 1074 N 107.901 -0.206675 1.56239 0
M  V30 1075 C 109.148 -0.928842 1.79941 0
M  V30 1076 C 109.476 -1.83734 0.638131 0
M  V30 1077 O 108.731 -1.92039 -0.376746 0
M  V30 1078 C 109.03 -1.78675 3.09532 0
M  V30 1079 C 108.696 -1.03022 4.38973 0
M  V30 1080 C 107.358 -0.821302 4.74139 0
M  V30 1081 C 109.71 -0.497081 5.18824 0
M  V30 1082 C 107.038 -0.0675719 5.86661 0
M  V30 1083 C 109.39 0.24338 6.32132 0
M  V30 1084 C 108.054 0.463422 6.65889 0
M  V30 1085 H 107.324 -0.339887 0.658451 0
M  V30 1086 H 109.971 -0.195977 1.90495 0
M  V30 1087 H 108.276 -2.58794 2.94165 0
M  V30 1088 H 109.973 -2.34792 3.25075 0
M  V30 1089 H 106.563 -1.20306 4.11369 0
M  V30 1090 H 110.747 -0.645921 4.92079 0
M  V30 1091 H 106.003 0.112995 6.11296 0
M  V30 1092 H 110.177 0.66393 6.93228 0
M  V30 1093 H 107.804 1.04938 7.52922 0
M  V30 1094 N 109.379 -1.50304 -0.473955 0
M  V30 1095 C 110.309 -1.71886 -1.58042 0
M  V30 1096 C 111.29 -0.567799 -1.60344 0
M  V30 1097 O 112.475 -0.806623 -1.76656 0
M  V30 1098 C 109.605 -1.81036 -2.96384 0
M  V30 1099 C 108.559 -2.962 -3.08949 0
M  V30 1100 C 107.885 -2.9049 -4.48909 0
M  V30 1101 C 109.185 -4.36752 -2.86434 0
M  V30 1102 H 110.879 -2.64527 -1.40234 0
M  V30 1103 H 108.425 -1.27295 -0.673201 0
M  V30 1104 H 110.378 -1.94719 -3.73714 0
M  V30 1105 H 109.102 -0.850147 -3.15341 0
M  V30 1106 H 107.761 -2.82164 -2.3405 0
M  V30 1107 H 107.409 -1.92321 -4.64781 0
M  V30 1108 H 107.109 -3.67802 -4.58253 0
M  V30 1109 H 108.633 -3.06218 -5.28264 0
M  V30 1110 H 110.047 -4.5133 -3.53517 0
M  V30 1111 H 108.444 -5.15493 -3.07225 0
M  V30 1112 H 109.514 -4.49321 -1.82316 0
M  V30 1113 N 110.857 0.726932 -1.39834 0
M  V30 1114 C 112.085 1.51613 -1.40787 0
M  V30 1115 C 112.5 1.88799 -0.00451505 0
M  V30 1116 O 111.857 1.54662 0.968809 0
M  V30 1117 C 111.908 2.79863 -2.28821 0
M  V30 1118 O 111.629 2.44253 -3.63692 0
M  V30 1119 C 113.13 3.73837 -2.38245 0
M  V30 1120 H 110.35 0.468264 -0.480593 0
M  V30 1121 H 112.894 0.897607 -1.83748 0
M  V30 1122 H 111.049 3.38027 -1.89252 0
M  V30 1123 H 111.463 3.26695 -4.1033 0
M  V30 1124 H 112.937 4.60699 -3.04073 0
M  V30 1125 H 113.414 4.16153 -1.40403 0
M  V30 1126 H 114.02 3.21589 -2.78317 0
M  V30 1127 N 112.336 1.25143 0.95797 0
M  V30 1128 C 113.246 1.06968 2.08794 0
M  V30 1129 C 114.262 0.00773911 1.73998 0
M  V30 1130 O 115.438 0.207972 2.00323 0
M  V30 1131 C 112.503 0.68691 3.39827 0
M  V30 1132 C 111.564 1.82641 3.88511 0
M  V30 1133 C 110.797 1.46181 5.1329 0
M  V30 1134 O 111.02 0.355971 5.69288 0
M  V30 1135 O 109.954 2.29085 5.566 0
M  V30 1136 H 113.78 2.01723 2.27027 0
M  V30 1137 H 111.365 1.04051 1.07209 0
M  V30 1138 H 113.247 0.485417 4.18595 0
M  V30 1139 H 111.922 -0.231417 3.22872 0
M  V30 1140 H 110.829 2.08274 3.10762 0
M  V30 1141 H 112.162 2.72386 4.09959 0
M  V30 1142 N 113.814 -1.1601 1.06675 0
M  V30 1143 C 114.744 -2.22688 0.702307 0
M  V30 1144 C 115.725 -1.67306 -0.307032 0
M  V30 1145 O 116.91 -1.93352 -0.181305 0
M  V30 1146 C 114.04 -3.47178 0.092038 0
M  V30 1147 C 112.994 -4.15477 1.02777 0
M  V30 1148 C 112.32 -5.33963 0.28061 0
M  V30 1149 C 113.62 -4.66019 2.35846 0
M  V30 1150 H 115.314 -2.53429 1.59419 0
M  V30 1151 H 112.86 -1.21813 0.767961 0
M  V30 1152 H 114.813 -4.21037 -0.174814 0
M  V30 1153 H 113.537 -3.15749 -0.834877 0
M  V30 1154 H 112.196 -3.43549 1.27944 0
M  V30 1155 H 111.844 -4.98788 -0.649545 0
M  V30 1156 H 111.544 -5.806 0.904258 0
M  V30 1157 H 113.068 -6.10596 0.021396 0
M  V30 1158 H 114.482 -5.3144 2.15045 0
M  V30 1159 H 112.879 -5.23293 2.93743 0
M  V30 1160 H 113.949 -3.82023 2.98641 0
M  V30 1161 N 115.292 -0.849877 -1.32721 0
M  V30 1162 C 116.538 -0.451591 -1.97708 0
M  V30 1163 C 116.871 0.989175 -1.6712 0
M  V30 1164 O 116.146 1.69334 -0.956891 0
M  V30 1165 C 116.429 -0.685598 -3.53513 0
M  V30 1166 C 116.282 -2.17444 -3.93749 0
M  V30 1167 C 117.601 -0.138874 -4.39881 0
M  V30 1168 H 114.72 -0.16555 -0.718166 0
M  V30 1169 H 117.362 -1.06742 -1.57182 0
M  V30 1170 H 115.512 -0.161416 -3.88165 0
M  V30 1171 H 117.184 -2.76433 -3.693 0
M  V30 1172 H 115.427 -2.65476 -3.43081 0
M  V30 1173 H 116.098 -2.28888 -5.02309 0
M  V30 1174 H 118.574 -0.587068 -4.11938 0
M  V30 1175 H 117.45 -0.332213 -5.47894 0
M  V30 1176 H 117.711 0.95806 -4.31594 0
M  V30 1177 N 116.77 1.45427 -0.607355 0
M  V30 1178 C 118.019 2.01452 -0.100036 0
M  V30 1179 C 118.332 1.48159 1.27704 0
M  V30 1180 O 119.538 1.96159 1.87707 0
M  V30 1181 C 117.994 3.59672 -0.128158 0
M  V30 1182 C 117.602 4.21962 -1.50507 0
M  V30 1183 C 119.346 4.23262 0.323932 0
M  V30 1184 C 117.253 5.72333 -1.48959 0
M  V30 1185 H 116.183 0.75325 -0.0336299 0
M  V30 1186 H 118.834 1.66901 -0.76265 0
M  V30 1187 H 117.216 3.91411 0.601105 0
M  V30 1188 H 118.39 4.01796 -2.25602 0
M  V30 1189 H 116.705 3.70565 -1.89923 0
M  V30 1190 H 119.302 5.33522 0.354691 0
M  V30 1191 H 119.645 3.93921 1.34656 0
M  V30 1192 H 120.178 3.96239 -0.352056 0
M  V30 1193 H 116.917 6.06373 -2.48981 0
M  V30 1194 H 116.437 5.94691 -0.781214 0
M  V30 1195 H 118.116 6.35525 -1.21313 0
M  V30 1196 N 118.248 0.346503 1.53744 0
M  V30 1197 C 119.473 -0.253074 2.0585 0
M  V30 1198 C 119.898 -1.43202 1.21962 0
M  V30 1199 O 119.256 -1.79783 0.234073 0
M  V30 1200 C 119.304 -0.643193 3.54817 0
M  V30 1201 O 118.408 -1.74286 3.73762 0
M  V30 1202 H 117.749 -0.0413583 0.662711 0
M  V30 1203 H 120.279 0.501574 1.98357 0
M  V30 1204 H 120.289 -0.919526 3.97503 0
M  V30 1205 H 118.964 0.218966 4.15323 0
M  V30 1206 H 117.541 -1.46356 3.42979 0
M  V30 1207 N 119.726 -1.57421 0.075193 0
M  V30 1208 C 120.656 -2.15942 -0.888324 0
M  V30 1209 C 121.637 -1.08737 -1.30806 0
M  V30 1210 O 122.822 -1.36787 -1.37851 0
M  V30 1211 C 119.952 -2.72379 -2.1547 0
M  V30 1212 C 118.906 -3.8478 -1.87425 0
M  V30 1213 C 118.232 -4.27834 -3.20721 0
M  V30 1214 C 119.532 -5.08869 -1.17684 0
M  V30 1215 H 121.226 -2.96705 -0.400799 0
M  V30 1216 H 118.772 -1.42723 -0.191342 0
M  V30 1217 H 120.725 -3.11965 -2.83295 0
M  V30 1218 H 119.449 -1.88841 -2.6647 0
M  V30 1219 H 118.108 -3.45703 -1.22004 0
M  V30 1220 H 117.756 -3.41214 -3.6957 0
M  V30 1221 H 117.456 -5.03605 -3.02746 0
M  V30 1222 H 118.98 -4.70039 -3.89738 0
M  V30 1223 H 120.394 -5.4575 -1.75584 0
M  V30 1224 H 118.791 -5.8994 -1.09956 0
M  V30 1225 H 119.861 -4.84648 -0.156453 0
M  V30 1226 N 121.204 0.198386 -1.56346 0
M  V30 1227 C 122.114 1.2664 -1.97483 0
M  V30 1228 C 123.13 1.49989 -0.882002 0
M  V30 1229 O 124.306 1.62668 -1.18748 0
M  V30 1230 C 121.371 2.59141 -2.30319 0
M  V30 1231 C 120.432 2.43892 -3.53292 0
M  V30 1232 C 119.665 3.70074 -3.84553 0
M  V30 1233 O 119.888 4.74101 -3.1715 0
M  V30 1234 O 118.822 3.658 -4.7799 0
M  V30 1235 H 122.648 0.947304 -2.88548 0
M  V30 1236 H 120.233 0.403123 -1.43859 0
M  V30 1237 H 122.115 3.37352 -2.5253 0
M  V30 1238 H 120.79 2.90684 -1.42423 0
M  V30 1239 H 119.697 1.63803 -3.36332 0
M  V30 1240 H 121.03 2.17282 -4.41644 0
M  V30 1241 N 122.682 1.50554 0.465978 0
M  V30 1242 C 123.629 1.6979 1.56333 0
M  V30 1243 C 124.599 0.539239 1.57103 0
M  V30 1244 O 125.784 0.770401 1.74555 0
M  V30 1245 C 122.924 1.80273 2.94271 0
M  V30 1246 C 122.037 3.07674 3.0325 0
M  V30 1247 C 121.172 3.08922 4.32135 0
M  V30 1248 C 120.211 4.30755 4.34875 0
M  V30 1249 N 119.348 4.29714 5.55239 0
M  V30 1250 H 124.188 2.63472 1.39235 0
M  V30 1251 H 121.725 1.30602 0.676873 0
M  V30 1252 H 123.683 1.84332 3.74269 0
M  V30 1253 H 122.313 0.900258 3.09992 0
M  V30 1254 H 121.365 3.13062 2.16094 0
M  V30 1255 H 122.677 3.97642 3.01135 0
M  V30 1256 H 121.831 3.11738 5.20485 0
M  V30 1257 H 120.57 2.16792 4.36866 0
M  V30 1258 H 119.575 4.28146 3.44922 0
M  V30 1259 H 120.8 5.24117 4.31831 0
M  V30 1260 H 118.746 3.4044 5.60746 0
M  V30 1261 H 118.663 5.13456 5.54886 0
M  V30 1262 H 119.931 4.36683 6.457 0
M  V30 1263 N 124.16 -0.719506 1.40217 0
M  V30 1264 C 125.09 -1.8465 1.42922 0
M  V30 1265 C 126.071 -1.67599 0.29062 0
M  V30 1266 O 127.256 -1.87688 0.498677 0
M  V30 1267 C 124.386 -3.22565 1.28722 0
M  V30 1268 C 123.34 -3.54281 2.40144 0
M  V30 1269 C 122.666 -4.91298 2.11023 0
M  V30 1270 C 123.966 -3.55676 3.82481 0
M  V30 1271 H 125.66 -1.82644 2.37237 0
M  V30 1272 H 123.206 -0.877305 1.1419 0
M  V30 1273 H 125.159 -4.01095 1.29232 0
M  V30 1274 H 123.883 -3.25137 0.308811 0
M  V30 1275 H 122.542 -2.78088 2.38877 0
M  V30 1276 H 122.19 -4.90468 1.11582 0
M  V30 1277 H 121.89 -5.13485 2.8567 0
M  V30 1278 H 123.414 -5.72166 2.13209 0
M  V30 1279 H 124.828 -4.24254 3.85592 0
M  V30 1280 H 123.225 -3.89388 4.56614 0
M  V30 1281 H 124.295 -2.55144 4.12346 0
M  V30 1282 N 125.638 -1.25649 -0.95132 0
M  V30 1283 C 126.548 -1.08073 -2.08224 0
M  V30 1284 C 127.564 -0.0169666 -1.73992 0
M  V30 1285 O 128.74 -0.218593 -2.0021 0
M  V30 1286 C 125.805 -0.704922 -3.39458 0
M  V30 1287 C 124.866 -1.84699 -3.87537 0
M  V30 1288 C 124.099 -1.48902 -5.12508 0
M  V30 1289 O 124.322 -0.386156 -5.69091 0
M  V30 1290 O 123.256 -2.32033 -5.55378 0
M  V30 1291 H 127.082 -2.02924 -2.25954 0
M  V30 1292 H 124.667 -1.04618 -1.06656 0
M  V30 1293 H 126.549 -0.507609 -4.18332 0
M  V30 1294 H 125.224 0.214291 -3.2299 0
M  V30 1295 H 124.131 -2.09919 -3.09653 0
M  V30 1296 H 125.464 -2.74557 -4.08509 0
M  V30 1297 N 127.117 1.15442 -1.07289 0
M  V30 1298 C 128.065 2.22225 -0.686952 0
M  V30 1299 C 129.059 1.66688 0.30193 0
M  V30 1300 O 130.265 1.79236 0.165712 0
M  V30 1301 H 126.64 0.723783 -0.204064 0
M  V30 1302 H 128.611 2.52056 -1.5972 0
M  V30 1303 C 127.36 3.47556 -0.100149 0
M  V30 1304 H 126.683 3.90612 -0.852211 0
M  V30 1305 H 128.123 4.23794 0.132235 0
M  V30 1306 C 126.582 3.16337 1.159 0
M  V30 1307 O 127.112 3.33074 2.24555 0
M  V30 1308 N 125.318 2.70385 1.06491 0
M  V30 1309 H 124.865 2.56966 0.180668 0
M  V30 1310 H 124.823 2.49871 1.90819 0
M  V30 1311 N 128.595 0.856903 1.32268 0
M  V30 1312 C 129.872 0.382583 1.91822 0
M  V30 1313 C 130.252 -1.13407 1.78051 0
M  V30 1314 O 129.6 -1.95673 1.18001 0
M  V30 1315 C 129.81 0.849446 3.38505 0
M  V30 1316 C 131.158 0.867936 4.15634 0
M  V30 1317 O 132.182 0.794232 3.47232 0
M  V30 1318 O 131.041 0.972286 5.37781 0
M  V30 1319 H 128.135 0.112014 0.819379 0
M  V30 1320 H 130.681 0.943952 1.41024 0
M  V30 1321 H 129.453 1.89267 3.42482 0
M  V30 1322 H 129.076 0.265652 3.96712 0
M  V30 1323 N 130.073 -1.45103 0.615059 0
M  V30 1324 C 131.02 -2.30586 -0.0993978 0
M  V30 1325 C 131.99 -1.42544 -0.852669 0
M  V30 1326 O 133.175 -1.71465 -0.836917 0
M  V30 1327 C 130.315 -3.27572 -1.08583 0
M  V30 1328 C 129.428 -4.30717 -0.332656 0
M  V30 1329 C 128.563 -5.14807 -1.30947 0
M  V30 1330 C 127.602 -6.09673 -0.544538 0
M  V30 1331 N 126.739 -6.86517 -1.47101 0
M  V30 1332 H 131.579 -2.91144 0.635542 0
M  V30 1333 H 129.116 -1.4346 0.325206 0
M  V30 1334 H 131.074 -3.82276 -1.67095 0
M  V30 1335 H 129.704 -2.68751 -1.78809 0
M  V30 1336 H 128.756 -3.78615 0.368107 0
M  V30 1337 H 130.068 -4.98102 0.263842 0
M  V30 1338 H 129.222 -5.73948 -1.96643 0
M  V30 1339 H 127.961 -4.47458 -1.9399 0
M  V30 1340 H 126.966 -5.49656 0.126003 0
M  V30 1341 H 128.191 -6.79052 0.080947 0
M  V30 1342 H 126.137 -6.21851 -2.08895 0
M  V30 1343 H 126.054 -7.50281 -0.928137 0
M  V30 1344 H 127.322 -7.50194 -2.11731 0
M  V30 1345 N 131.551 -0.354651 -1.53558 0
M  V30 1346 C 132.776 0.242153 -2.05981 0
M  V30 1347 C 133.201 1.42553 -1.2272 0
M  V30 1348 O 132.559 1.79656 -0.243604 0
M  V30 1349 C 132.607 0.624367 -3.55154 0
M  V30 1350 O 131.711 1.72301 -3.74681 0
M  V30 1351 H 131.052 0.0378432 -0.662921 0
M  V30 1352 H 133.582 -0.512087 -1.98088 0
M  V30 1353 H 133.592 0.898433 -3.97985 0
M  V30 1354 H 132.267 -0.240989 -4.15201 0
M  V30 1355 H 130.844 1.44535 -3.4375 0
M  V30 1356 N 133.029 1.57378 -0.0835403 0
M  V30 1357 C 134.276 1.9393 0.58287 0
M  V30 1358 C 134.604 0.964455 1.68904 0
M  V30 1359 O 133.859 -0.0179474 1.95692 0
M  V30 1360 C 134.158 3.37063 1.1884 0
M  V30 1361 C 133.824 4.50424 0.207194 0
M  V30 1362 C 132.486 4.81159 -0.0627115 0
M  V30 1363 C 134.838 5.19136 -0.463426 0
M  V30 1364 C 132.166 5.77939 -1.01012 0
M  V30 1365 C 134.518 6.16931 -1.39924 0
M  V30 1366 C 133.182 6.46078 -1.67749 0
M  V30 1367 H 132.452 0.70964 0.213287 0
M  V30 1368 H 135.099 1.90856 -0.156916 0
M  V30 1369 H 133.404 3.3666 2.00418 0
M  V30 1370 H 135.101 3.6264 1.71153 0
M  V30 1371 H 131.691 4.2646 0.427747 0
M  V30 1372 H 135.875 4.95576 -0.268034 0
M  V30 1373 H 131.131 5.98842 -1.23283 0
M  V30 1374 H 135.305 6.69273 -1.92476 0
M  V30 1375 H 132.932 7.2088 -2.41321 0
M  V30 1376 N 134.507 -0.190092 1.56449 0
M  V30 1377 C 135.923 -0.54113 1.50146 0
M  V30 1378 C 136.123 -1.85603 0.784465 0
M  V30 1379 O 135.179 -2.5024 0.337051 0
M  V30 1380 C 136.492 -0.591241 2.9483 0
M  V30 1381 C 138.04 -0.679732 3.0553 0
M  V30 1382 C 138.515 -0.760908 4.51635 0
M  V30 1383 N 140.006 -0.824302 4.55806 0
M  V30 1384 C 140.741 -0.907365 5.66175 0
M  V30 1385 N 140.237 -0.952422 6.86222 0
M  V30 1386 N 142.03 -0.94494 5.541 0
M  V30 1387 H 134.181 0.67235 2.01478 0
M  V30 1388 H 136.444 0.240127 0.917084 0
M  V30 1389 H 136.15 0.305905 3.50367 0
M  V30 1390 H 136.024 -1.44422 3.48457 0
M  V30 1391 H 138.411 -1.56731 2.50039 0
M  V30 1392 H 138.492 0.199549 2.5502 0
M  V30 1393 H 138.136 0.122336 5.07753 0
M  V30 1394 H 138.066 -1.65606 4.99882 0
M  V30 1395 H 140.557 -0.798526 3.69367 0
M  V30 1396 H 140.87 -1.01645 7.66086 0
M  V30 1397 H 139.215 -0.921014 6.8887 0
M  V30 1398 H 142.406 -0.906612 4.59236 0
M  V30 1399 H 142.579 -1.00622 6.4014 0
M  V30 1400 N 135.985 -1.50799 -0.457987 0
M  V30 1401 C 137.233 -1.62121 -1.2067 0
M  V30 1402 C 137.554 -0.329793 -1.92191 0
M  V30 1403 O 136.824 0.653409 -1.84682 0
M  V30 1404 H 135.404 -0.597441 -0.448411 0
M  V30 1405 H 138.066 -1.87637 -0.527096 0
M  V30 1406 H 137.162 -2.43882 -1.94751 0
M  V30 1407 N 137.463 0.71206 -1.40597 0
M  V30 1408 C 138.709 1.47416 -1.39271 0
M  V30 1409 C 139.042 1.942 0.00388791 0
M  V30 1410 O 138.317 1.68403 0.973179 0
M  V30 1411 C 138.6 2.69774 -2.38525 0
M  V30 1412 C 138.453 2.28861 -3.87224 0
M  V30 1413 C 139.772 3.71939 -2.35264 0
M  V30 1414 H 136.891 0.534713 -0.5072 0
M  V30 1415 H 139.533 0.812375 -1.71757 0
M  V30 1416 H 137.683 3.26238 -2.10953 0
M  V30 1417 H 139.355 1.77852 -4.25636 0
M  V30 1418 H 137.598 1.60824 -4.02887 0
M  V30 1419 H 138.269 3.16584 -4.52193 0
M  V30 1420 H 140.745 3.25113 -2.59694 0
M  V30 1421 H 139.621 4.55186 -3.06753 0
M  V30 1422 H 139.882 4.20484 -1.36549 0
M  V30 1423 N 138.941 1.26152 0.944643 0
M  V30 1424 C 140.19 1.10883 1.68487 0
M  V30 1425 C 140.503 -0.348153 1.92477 0
M  V30 1426 O 141.709 -0.621459 2.64292 0
M  V30 1427 C 140.165 1.93624 3.03377 0
M  V30 1428 C 139.773 3.43875 2.87148 0
M  V30 1429 C 141.517 1.86954 3.81115 0
M  V30 1430 C 139.424 4.18875 4.1749 0
M  V30 1431 H 138.354 0.41135 0.631907 0
M  V30 1432 H 141.005 1.50433 1.05082 0
M  V30 1433 H 139.387 1.46904 3.67743 0
M  V30 1434 H 140.561 3.98338 2.31653 0
M  V30 1435 H 138.876 3.51744 2.22856 0
M  V30 1436 H 141.473 2.40275 4.77673 0
M  V30 1437 H 141.816 0.839518 4.07747 0
M  V30 1438 H 142.349 2.31477 3.23517 0
M  V30 1439 H 139.088 5.22332 3.96043 0
M  V30 1440 H 138.608 3.69193 4.72712 0
M  V30 1441 H 140.287 4.27134 4.85968 0
M  V30 1442 N 140.419 -1.14872 1.07899 0
M  V30 1443 C 141.349 -2.2193 0.725887 0
M  V30 1444 C 142.33 -1.67622 -0.28927 0
M  V30 1445 O 143.515 -1.93533 -0.160787 0
M  V30 1446 C 140.645 -3.47061 0.128856 0
M  V30 1447 C 139.599 -4.14363 1.07178 0
M  V30 1448 C 138.925 -5.33636 0.337229 0
M  V30 1449 C 140.225 -4.63492 2.40775 0
M  V30 1450 H 141.919 -2.51724 1.62097 0
M  V30 1451 H 139.465 -1.20991 0.780838 0
M  V30 1452 H 141.418 -4.21199 -0.130147 0
M  V30 1453 H 140.142 -3.16617 -0.80134 0
M  V30 1454 H 138.801 -3.42173 1.3158 0
M  V30 1455 H 138.449 -4.99449 -0.596606 0
M  V30 1456 H 138.149 -5.79609 0.965788 0
M  V30 1457 H 139.673 -6.10539 0.0861567 0
M  V30 1458 H 141.087 -5.2913 2.20669 0
M  V30 1459 H 139.484 -5.20148 2.99276 0
M  V30 1460 H 140.554 -3.78834 3.02676 0
M  V30 1461 N 141.898 -0.863906 -1.31812 0
M  V30 1462 C 143.126 -0.486111 -2.01108 0
M  V30 1463 C 143.541 0.919755 -1.64882 0
M  V30 1464 O 142.898 1.60162 -0.874893 0
M  V30 1465 C 142.949 -0.626435 -3.56031 0
M  V30 1466 O 142.67 -1.97693 -3.90959 0
M  V30 1467 C 144.171 -0.248857 -4.42601 0
M  V30 1468 H 141.391 -0.190052 -0.643523 0
M  V30 1469 H 143.935 -1.1634 -1.68182 0
M  V30 1470 H 142.09 0.00322717 -3.874 0
M  V30 1471 H 142.504 -1.98034 -4.85678 0
M  V30 1472 H 143.978 -0.398016 -5.50563 0
M  V30 1473 H 144.455 0.811489 -4.31638 0
M  V30 1474 H 145.061 -0.853971 -4.16638 0
M  V30 1475 N 143.376 1.44774 -0.622745 0
M  V30 1476 C 144.601 2.06999 -0.128968 0
M  V30 1477 C 145.026 1.4617 1.1839 0
M  V30 1478 O 144.384 0.560007 1.72434 0
M  V30 1479 C 144.432 3.60595 -0.0188351 0
M  V30 1480 O 143.536 3.99398 1.02739 0
M  V30 1481 H 142.877 0.659047 -0.0809544 0
M  V30 1482 H 145.407 1.85784 -0.85705 0
M  V30 1483 H 145.417 4.07627 0.174476 0
M  V30 1484 H 144.092 4.04252 -0.977384 0
M  V30 1485 H 142.669 3.64011 0.809326 0
M  V30 1486 N 144.854 0.36279 1.53368 0
M  V30 1487 C 146.131 -0.284021 1.93527 0
M  V30 1488 C 146.511 -1.66628 1.29608 0
M  V30 1489 O 145.859 -2.23942 0.45413 0
M  V30 1490 C 146.069 -0.337028 3.47369 0
M  V30 1491 C 147.417 -0.578708 4.20638 0
M  V30 1492 O 148.441 -0.418352 3.53735 0
M  V30 1493 O 147.3 -0.89074 5.39192 0
M  V30 1494 H 144.394 -0.169743 0.809393 0
M  V30 1495 H 146.94 0.41537 1.64538 0
M  V30 1496 H 145.712 0.632217 3.86159 0
M  V30 1497 H 145.335 -1.08243 3.82582 0
M  V30 1498 N 146.332 -1.57332 0.0918853 0
M  V30 1499 C 147.748 -1.57389 -0.264766 0
M  V30 1500 C 147.948 -1.10281 -1.68643 0
M  V30 1501 O 147.004 -0.777801 -2.40222 0
M  V30 1502 C 148.317 -3.00648 -0.0561195 0
M  V30 1503 C 149.865 -3.12754 -0.124116 0
M  V30 1504 C 150.34 -4.57965 0.0564972 0
M  V30 1505 N 151.831 -4.632 0.00155611 0
M  V30 1506 C 152.566 -5.73281 0.116598 0
M  V30 1507 N 152.062 -6.92208 0.286294 0
M  V30 1508 N 153.855 -5.6207 0.0580973 0
M  V30 1509 H 146.006 -1.86262 1.02079 0
M  V30 1510 H 148.269 -0.859579 0.399786 0
M  V30 1511 H 147.975 -3.393 0.925669 0
M  V30 1512 H 147.849 -3.68623 -0.799823 0
M  V30 1513 H 150.236 -2.73976 -1.09641 0
M  V30 1514 H 150.317 -2.47377 0.651024 0
M  V30 1515 H 149.961 -4.97436 1.02564 0
M  V30 1516 H 149.891 -5.21399 -0.738297 0
M  V30 1517 H 152.382 -3.77686 -0.127192 0
M  V30 1518 H 152.695 -7.71934 0.365676 0
M  V30 1519 H 151.04 -6.94254 0.32192 0
M  V30 1520 H 154.231 -4.68043 -0.0733204 0
M  V30 1521 H 154.404 -6.47824 0.151203 0
M  V30 1522 N 147.81 0.181792 -1.56548 0
M  V30 1523 C 149.221 0.745244 -1.71181 0
M  V30 1524 C 149.572 1.83262 -0.70068 0
M  V30 1525 O 148.697 2.15946 0.140154 0
M  V30 1526 C 149.292 1.35859 -3.10367 0
M  V30 1527 C 147.851 1.86898 -3.2672 0
M  V30 1528 C 146.998 0.743942 -2.67134 0
M  V30 1529 H 149.949 -0.0434661 -1.5864 0
M  V30 1530 H 149.97 2.22817 -3.08436 0
M  V30 1531 H 149.482 0.566948 -3.83937 0
M  V30 1532 H 147.583 2.68738 -2.5809 0
M  V30 1533 H 147.696 2.02162 -4.34359 0
M  V30 1534 H 146.06 1.16169 -2.26665 0
M  V30 1535 H 146.843 -0.035676 -3.43281 0
M  V30 1536 N 149.288 1.51039 0.449983 0
M  V30 1537 C 150.536 1.62759 1.19808 0
M  V30 1538 C 150.857 0.339981 1.92013 0
M  V30 1539 O 150.127 -0.643606 1.85026 0
M  V30 1540 H 148.707 0.599811 0.445237 0
M  V30 1541 H 151.369 1.87914 0.517138 0
M  V30 1542 H 150.465 2.44911 1.93455 0
M  V30 1543 N 150.766 -0.704594 1.40972 0
M  V30 1544 C 152.012 -1.46675 1.40051 0
M  V30 1545 C 152.345 -1.94199 0.00641102 0
M  V30 1546 O 151.62 -1.68916 -0.964235 0
M  V30 1547 C 151.903 -2.68505 2.39952 0
M  V30 1548 C 151.756 -2.26805 3.88432 0
M  V30 1549 C 153.075 -3.70686 2.37233 0
M  V30 1550 H 150.194 -0.532015 0.510028 0
M  V30 1551 H 152.836 -0.803255 1.72185 0
M  V30 1552 H 150.986 -3.25114 2.1268 0
M  V30 1553 H 152.658 -1.75592 4.26574 0
M  V30 1554 H 150.901 -1.58685 4.03734 0
M  V30 1555 H 151.572 -3.14181 4.53866 0
M  V30 1556 H 154.048 -3.23731 2.61415 0
M  V30 1557 H 152.924 -4.53553 3.09162 0
M  V30 1558 H 153.185 -4.19754 1.38777 0
M  V30 1559 N 152.244 -1.26651 -0.937939 0
M  V30 1560 C 153.491 -1.12387 -1.6845 0
M  V30 1561 C 153.819 0.332208 -1.91642 0
M  V30 1562 O 153.074 1.2602 -1.49725 0
M  V30 1563 C 153.373 -1.84168 -3.06295 0
M  V30 1564 C 153.039 -3.34056 -3.02849 0
M  V30 1565 C 151.701 -3.74942 -3.01616 0
M  V30 1566 C 154.053 -4.29741 -2.9491 0
M  V30 1567 C 151.381 -5.09894 -2.90215 0
M  V30 1568 C 153.733 -5.64738 -2.8505 0
M  V30 1569 C 152.397 -6.0493 -2.82162 0
M  V30 1570 H 151.667 -0.411252 -0.616403 0
M  V30 1571 H 154.314 -1.57134 -1.09459 0
M  V30 1572 H 152.619 -1.319 -3.6893 0
M  V30 1573 H 154.316 -1.70569 -3.62915 0
M  V30 1574 H 150.906 -3.01534 -3.0459 0
M  V30 1575 H 155.09 -3.99133 -2.94969 0
M  V30 1576 H 150.346 -5.40194 -2.86358 0
M  V30 1577 H 154.52 -6.38561 -2.77872 0
M  V30 1578 H 152.147 -7.09457 -2.73084 0
M  V30 1579 N 153.722 1.14298 -1.08507 0
M  V30 1580 C 154.947 1.8976 -0.837001 0
M  V30 1581 C 155.372 1.78097 0.605228 0
M  V30 1582 O 154.73 1.12188 1.4242 0
M  V30 1583 C 154.778 3.37685 -1.26495 0
M  V30 1584 O 153.882 4.10281 -0.417514 0
M  V30 1585 H 153.223 0.590365 -0.303917 0
M  V30 1586 H 155.753 1.44672 -1.44676 0
M  V30 1587 H 155.763 3.88501 -1.24625 0
M  V30 1588 H 154.438 3.45492 -2.31534 0
M  V30 1589 H 153.015 3.69536 -0.499722 0
M  V30 1590 N 155.201 0.870884 1.31352 0
M  V30 1591 C 156.164 0.332243 2.26779 0
M  V30 1592 C 157.164 -0.517302 1.52252 0
M  V30 1593 O 158.354 -0.326477 1.71113 0
M  V30 1594 C 155.486 -0.528066 3.36785 0
M  V30 1595 H 156.679 1.17469 2.75937 0
M  V30 1596 H 154.232 0.64655 1.423 0
M  V30 1597 H 154.967 -1.39167 2.92922 0
M  V30 1598 H 154.752 0.0802582 3.92018 0
M  V30 1599 H 156.242 -0.897179 4.07849 0
M  V30 1600 N 156.679 -1.44442 0.630414 0
M  V30 1601 C 157.927 -2.01653 0.134351 0
M  V30 1602 C 158.248 -1.49836 -1.24796 0
M  V30 1603 O 157.518 -0.701684 -1.82902 0
M  V30 1604 H 156.098 -0.74554 0.0466769 0
M  V30 1605 H 158.76 -1.76952 0.816955 0
M  V30 1606 H 157.856 -3.11935 0.101498 0
M  V30 1607 N 158.157 -0.370918 -1.53173 0
M  V30 1608 C 159.087 0.464847 -2.28826 0
M  V30 1609 C 160.068 1.07936 -1.31468 0
M  V30 1610 O 161.253 1.0956 -1.60344 0
M  V30 1611 C 158.383 1.60196 -3.08147 0
M  V30 1612 C 157.337 1.11443 -4.13237 0
M  V30 1613 C 156.663 2.3422 -4.80672 0
M  V30 1614 C 157.963 0.195384 -5.21934 0
M  V30 1615 H 159.657 -0.166329 -2.98938 0
M  V30 1616 H 157.203 -0.0814359 -1.4377 0
M  V30 1617 H 159.156 2.19332 -3.59822 0
M  V30 1618 H 157.88 2.26045 -2.35735 0
M  V30 1619 H 156.539 0.545727 -3.62515 0
M  V30 1620 H 156.187 2.98537 -4.04827 0
M  V30 1621 H 155.887 2.02269 -5.51689 0
M  V30 1622 H 157.411 2.94032 -5.35143 0
M  V30 1623 H 158.825 0.694375 -5.69079 0
M  V30 1624 H 157.222 -0.0335027 -6.00091 0
M  V30 1625 H 158.292 -0.760961 -4.78892 0
M  V30 1626 N 159.635 1.57281 -0.100228 0
M  V30 1627 C 160.912 1.86014 0.604812 0
M  V30 1628 C 161.292 0.998025 1.86018 0
M  V30 1629 O 160.64 0.0718184 2.28387 0
M  V30 1630 C 160.85 3.36784 0.915278 0
M  V30 1631 C 162.198 4.04957 1.27651 0
M  V30 1632 O 163.222 3.41695 1.00613 0
M  V30 1633 O 162.081 5.16593 1.7831 0
M  V30 1634 H 159.175 0.76942 0.303185 0
M  V30 1635 H 161.721 1.69176 -0.133313 0
M  V30 1636 H 160.493 3.91292 0.0248896 0
M  V30 1637 H 160.116 3.58987 1.70921 0
M  V30 1638 N 161.113 -0.173488 1.56642 0
M  V30 1639 C 162.043 -1.2171 1.99271 0
M  V30 1640 C 163.024 -1.46289 0.867959 0
M  V30 1641 O 164.209 -1.5766 1.13388 0
M  V30 1642 C 161.339 -2.55651 2.35074 0
M  V30 1643 C 160.293 -2.45645 3.50489 0
M  V30 1644 C 159.619 -3.84056 3.72028 0
M  V30 1645 C 160.919 -1.96302 4.84007 0
M  V30 1646 H 162.613 -0.86275 2.867 0
M  V30 1647 H 160.159 -0.413571 1.37933 0
M  V30 1648 H 162.112 -3.2886 2.63494 0
M  V30 1649 H 160.836 -2.92869 1.44552 0
M  V30 1650 H 159.495 -1.7489 3.22194 0
M  V30 1651 H 159.143 -4.18664 2.788 0
M  V30 1652 H 158.843 -3.7823 4.49684 0
M  V30 1653 H 160.367 -4.58854 4.02846 0
M  V30 1654 H 161.781 -2.59284 5.11317 0
M  V30 1655 H 160.178 -2.01429 5.65284 0
M  V30 1656 H 161.248 -0.917226 4.76146 0
M  V30 1657 N 162.591 -1.51276 -0.441967 0
M  V30 1658 C 163.819 -1.67516 -1.21434 0
M  V30 1659 C 164.234 -0.37055 -1.85128 0
M  V30 1660 O 163.591 0.650498 -1.70513 0
M  V30 1661 C 163.642 -2.78748 -2.30177 0
M  V30 1662 O 163.363 -4.04154 -1.69089 0
M  V30 1663 C 164.864 -3.06217 -3.20541 0
M  V30 1664 H 162.084 -0.562276 -0.366178 0
M  V30 1665 H 164.628 -1.97666 -0.524244 0
M  V30 1666 H 162.783 -2.5121 -2.94911 0
M  V30 1667 H 163.197 -4.65894 -2.40922 0
M  V30 1668 H 164.671 -3.8764 -3.92987 0
M  V30 1669 H 165.148 -2.18439 -3.81026 0
M  V30 1670 H 165.754 -3.35397 -2.61513 0
M  V30 1671 N 164.069 0.697108 -1.41344 0
M  V30 1672 C 164.979 1.84088 -1.45427 0
M  V30 1673 C 165.995 1.70545 -0.34501 0
M  V30 1674 O 167.171 1.92488 -0.592492 0
M  V30 1675 C 164.236 3.20056 -1.33286 0
M  V30 1676 C 163.297 3.45718 -2.54514 0
M  V30 1677 C 162.53 4.75199 -2.42944 0
M  V30 1678 O 162.753 5.51579 -1.45318 0
M  V30 1679 O 161.687 5.0161 -3.32672 0
M  V30 1680 H 165.513 1.836 -2.41919 0
M  V30 1681 H 163.098 0.849966 -1.22866 0
M  V30 1682 H 164.98 4.01236 -1.28794 0
M  V30 1683 H 163.655 3.2123 -0.39909 0
M  V30 1684 H 162.562 2.64474 -2.64583 0
M  V30 1685 H 163.895 3.49356 -3.46715 0
M  V30 1686 N 165.547 1.27147 0.931209 0
M  V30 1687 C 166.48 1.0389 2.0318 0
M  V30 1688 C 167.458 -0.0395716 1.62552 0
M  V30 1689 O 168.642 0.104867 1.88208 0
M  V30 1690 C 165.769 0.575227 3.3378 0
M  V30 1691 C 164.815 1.64774 3.93385 0
M  V30 1692 S 165.648 3.23933 4.26413 0
M  V30 1693 C 166.804 2.79358 5.60098 0
M  V30 1694 H 167.037 1.97075 2.22596 0
M  V30 1695 H 164.57 1.10938 1.07387 0
M  V30 1696 H 166.528 0.314385 4.09294 0
M  V30 1697 H 165.189 -0.336505 3.12292 0
M  V30 1698 H 164.382 1.27454 4.87618 0
M  V30 1699 H 163.984 1.86048 3.24441 0
M  V30 1700 H 166.276 2.24443 6.39243 0
M  V30 1701 H 167.219 3.72322 6.02314 0
M  V30 1702 H 167.627 2.1861 5.20452 0
M  V30 1703 N 167.025 -1.13721 1.09112 0
M  V30 1704 C 168.265 -1.86576 0.834801 0
M  V30 1705 C 168.629 -1.81435 -0.628122 0
M  V30 1706 O 169.83 -2.49497 -1.00024 0
M  V30 1707 C 168.101 -3.30872 1.35124 0
M  V30 1708 S 169.66 -4.21257 1.22832 0
M  V30 1709 H 166.478 -0.643666 0.302017 0
M  V30 1710 H 169.08 -1.37085 1.39385 0
M  V30 1711 H 167.784 -3.32166 2.41027 0
M  V30 1712 H 167.315 -3.85423 0.788185 0
M  V30 1713 H 169.33 -4.95884 0.177191 0
M  V30 1714 N 168.503 -0.877838 -1.30888 0
M  V30 1715 C 169.751 -0.491723 -1.96027 0
M  V30 1716 C 170.072 0.960827 -1.69685 0
M  V30 1717 O 169.342 1.67462 -1.01654 0
M  V30 1718 H 167.922 -0.17885 -0.725273 0
M  V30 1719 H 170.584 -1.11935 -1.59551 0
M  V30 1720 H 169.68 -0.656016 -3.05128 0
M  V30 1721 N 169.982 1.44106 -0.638065 0
M  V30 1722 C 171.398 1.56672 -0.304286 0
M  V30 1723 C 171.598 1.6244 1.19228 0
M  V30 1724 O 170.654 1.57121 1.9766 0
M  V30 1725 C 171.967 2.83503 -1.00231 0
M  V30 1726 C 173.515 2.97226 -0.981116 0
M  V30 1727 C 173.99 4.26868 -1.65974 0
M  V30 1728 N 175.481 4.33698 -1.62666 0
M  V30 1729 C 176.216 5.32745 -2.12063 0
M  V30 1730 N 175.712 6.38157 -2.6968 0
M  V30 1731 N 177.505 5.24299 -2.02651 0
M  V30 1732 H 169.656 1.38605 -1.60942 0
M  V30 1733 H 171.919 0.664661 -0.675965 0
M  V30 1734 H 171.625 2.85251 -2.0573 0
M  V30 1735 H 171.499 3.73251 -0.54439 0
M  V30 1736 H 173.886 2.95027 0.0654188 0
M  V30 1737 H 173.967 2.08808 -1.47759 0
M  V30 1738 H 173.611 4.29826 -2.70576 0
M  V30 1739 H 173.541 5.14156 -1.13804 0
M  V30 1740 H 176.032 3.58138 -1.20606 0
M  V30 1741 H 176.345 7.10029 -3.05087 0
M  V30 1742 H 174.69 6.38823 -2.73734 0
M  V30 1743 H 177.881 4.4086 -1.57353 0
M  V30 1744 H 178.054 6.01334 -2.41457 0
M  V30 1745 N 171.46 0.379036 1.52974 0
M  V30 1746 C 172.685 -0.209353 2.06341 0
M  V30 1747 C 173.11 -1.40583 1.24972 0
M  V30 1748 O 172.468 -1.79246 0.272155 0
M  V30 1749 C 172.516 -0.567786 3.56102 0
M  V30 1750 O 171.62 -1.66318 3.77375 0
M  V30 1751 H 170.961 -0.0272919 0.663439 0
M  V30 1752 H 173.491 0.543536 1.97248 0
M  V30 1753 H 173.501 -0.835003 3.99364 0
M  V30 1754 H 172.176 0.307013 4.14765 0
M  V30 1755 H 170.753 -1.39048 3.46006 0
M  V30 1756 N 172.938 -1.57226 0.108567 0
M  V30 1757 C 174.349 -1.8195 -0.418464 0
M  V30 1758 C 174.7 -1.02508 -1.67292 0
M  V30 1759 O 173.825 -0.258496 -2.14851 0
M  V30 1760 C 174.42 -3.30028 -0.765979 0
M  V30 1761 C 172.979 -3.55469 -1.23769 0
M  V30 1762 C 172.126 -2.7625 -0.241106 0
M  V30 1763 H 175.077 -1.55149 0.33384 0
M  V30 1764 H 175.098 -3.44086 -1.62434 0
M  V30 1765 H 174.61 -3.87821 0.147219 0
M  V30 1766 H 172.711 -3.03022 -2.16814 0
M  V30 1767 H 172.824 -4.6408 -1.19022 0
M  V30 1768 H 171.188 -2.44133 -0.72602 0
M  V30 1769 H 171.971 -3.36797 0.665007 0
M  V30 1770 N 174.416 0.165178 -1.56732 0
M  V30 1771 C 175.379 1.18822 -1.95995 0
M  V30 1772 C 176.379 1.3685 -0.84431 0
M  V30 1773 O 177.569 1.34152 -1.11126 0
M  V30 1774 C 174.701 2.5521 -2.26011 0
M  V30 1775 H 175.894 0.851825 -2.87548 0
M  V30 1776 H 173.447 0.407857 -1.50885 0
M  V30 1777 H 174.182 2.93852 -1.37191 0
M  V30 1778 H 173.967 2.43489 -3.07336 0
M  V30 1779 H 175.457 3.28927 -2.57288 0
M  V30 1780 N 175.894 1.51508 0.433938 0
M  V30 1781 C 176.844 1.69451 1.52546 0
M  V30 1782 C 177.828 0.548474 1.51263 0
M  V30 1783 O 179.02 0.804529 1.57659 0
M  V30 1784 C 176.149 1.82604 2.90707 0
M  V30 1785 C 175.235 3.03002 2.96733 0
M  V30 1786 N 175.626 4.26121 2.72496 0
M  V30 1787 C 173.924 3.02327 3.27894 0
M  V30 1788 C 174.625 5.07407 2.84452 0
M  V30 1789 N 173.601 4.42126 3.16269 0
M  V30 1790 H 177.403 2.62305 1.32564 0
M  V30 1791 H 174.917 1.49202 0.641297 0
M  V30 1792 H 176.914 1.93569 3.69238 0
M  V30 1793 H 175.574 0.909339 3.11707 0
M  V30 1794 H 176.585 4.55009 2.4736 0
M  V30 1795 H 173.262 2.20301 3.54646 0
M  V30 1796 H 174.652 6.15422 2.69639 0
M  V30 1797 N 177.372 -0.689602 1.41712 0
M  V30 1798 C 178.602 -1.47613 1.44548 0
M  V30 1799 C 179.01 -1.89132 0.0509034 0
M  V30 1800 O 178.353 -1.57741 -0.94146 0
M  V30 1801 C 178.415 -2.76596 2.2964 0
M  V30 1802 C 178.079 -2.57245 3.77722 0
M  V30 1803 C 179.076 -2.22804 4.69739 0
M  V30 1804 C 176.761 -2.727 4.2183 0
M  V30 1805 C 178.755 -2.04064 6.03851 0
M  V30 1806 C 176.442 -2.53576 5.56006 0
M  V30 1807 C 177.44 -2.1931 6.46832 0
M  V30 1808 O 177.128 -2.00359 7.78532 0
M  V30 1809 H 176.86 -0.461227 0.494212 0
M  V30 1810 H 179.414 -0.856045 1.86711 0
M  V30 1811 H 177.644 -3.41033 1.82301 0
M  V30 1812 H 179.333 -3.38424 2.24107 0
M  V30 1813 H 180.099 -2.10473 4.36951 0
M  V30 1814 H 175.978 -2.98353 3.51435 0
M  V30 1815 H 179.522 -1.77241 6.74708 0
M  V30 1816 H 175.419 -2.65499 5.88371 0
M  V30 1817 H 176.187 -2.15075 7.89737 0
M  V30 1818 N 178.85 -1.27639 -0.924453 0
M  V30 1819 C 179.813 -1.10681 -2.00705 0
M  V30 1820 C 180.813 -0.0497823 -1.60723 0
M  V30 1821 O 182.003 -0.294654 -1.7169 0
M  V30 1822 C 179.135 -0.687164 -3.33902 0
M  V30 1823 H 180.328 -2.06817 -2.17179 0
M  V30 1824 H 177.881 -1.10473 -1.10569 0
M  V30 1825 H 178.616 0.275439 -3.23128 0
M  V30 1826 H 178.401 -1.45061 -3.6428 0
M  V30 1827 H 179.891 -0.590853 -4.13399 0
M  V30 1828 N 180.328 1.1314 -1.09713 0
M  V30 1829 C 181.576 1.84119 -0.833338 0
M  V30 1830 C 181.897 1.84097 0.642904 0
M  V30 1831 O 181.167 1.29881 1.46655 0
M  V30 1832 H 179.747 0.681766 -0.305293 0
M  V30 1833 H 182.409 1.37038 -1.38588 0
M  V30 1834 H 181.505 2.88543 -1.18951 0
M  V30 1835 N 181.806 0.884767 1.30421 0
M  V30 1836 C 183.036 0.517293 2.00019 0
M  V30 1837 C 183.444 -0.898632 1.66497 0
M  V30 1838 O 182.787 -1.60245 0.898181 0
M  V30 1839 C 182.849 0.612025 3.54252 0
M  V30 1840 C 182.513 1.99222 4.1129 0
M  V30 1841 C 183.51 2.9616 4.273 0
M  V30 1842 C 181.195 2.29755 4.46674 0
M  V30 1843 C 183.189 4.21764 4.77906 0
M  V30 1844 C 180.876 3.55606 4.96979 0
M  V30 1845 C 181.874 4.51425 5.12547 0
M  V30 1846 O 181.562 5.75043 5.61766 0
M  V30 1847 H 181.294 0.198529 0.64619 0
M  V30 1848 H 183.848 1.1919 1.67281 0
M  V30 1849 H 182.078 -0.119561 3.86515 0
M  V30 1850 H 183.767 0.255859 4.05093 0
M  V30 1851 H 184.533 2.73882 4.00267 0
M  V30 1852 H 180.412 1.55942 4.33824 0
M  V30 1853 H 183.956 4.96561 4.89972 0
M  V30 1854 H 179.853 3.7772 5.23448 0
M  V30 1855 H 180.621 5.77422 5.80109 0
M  V30 1856 N 183.284 -1.43765 0.645699 0
M  V30 1857 C 184.53 -2.02731 0.164844 0
M  V30 1858 C 184.885 -1.49983 -1.2051 0
M  V30 1859 O 184.178 -0.680208 -1.79119 0
M  V30 1860 C 184.372 -3.57238 0.107679 0
M  V30 1861 C 184.201 -4.24977 1.47054 0
M  V30 1862 C 182.971 -4.61356 2.06103 0
M  V30 1863 C 185.169 -4.54476 2.40741 0
M  V30 1864 N 183.151 -5.14132 3.35473 0
M  V30 1865 C 184.522 -5.08489 3.54737 0
M  V30 1866 C 186.577 -4.36438 2.39637 0
M  V30 1867 C 185.28 -5.46364 4.67845 0
M  V30 1868 C 187.306 -4.7537 3.5182 0
M  V30 1869 C 186.668 -5.2951 4.64541 0
M  V30 1870 H 182.767 -0.774976 0.104578 0
M  V30 1871 H 185.351 -1.75051 0.852367 0
M  V30 1872 H 183.522 -3.84498 -0.549165 0
M  V30 1873 H 185.254 -4.0288 -0.383351 0
M  V30 1874 H 182.009 -4.46151 1.58892 0
M  V30 1875 H 182.433 -5.4498 4.01654 0
M  V30 1876 H 187.075 -3.93861 1.53731 0
M  V30 1877 H 184.793 -5.87888 5.54448 0
M  V30 1878 H 188.379 -4.63115 3.52159 0
M  V30 1879 H 187.259 -5.59077 5.49911 0
M  V30 1880 N 184.763 -0.387143 -1.52771 0
M  V30 1881 C 185.71 0.449048 -2.26389 0
M  V30 1882 C 186.68 1.05961 -1.27912 0
M  V30 1883 O 187.865 1.08804 -1.56737 0
M  V30 1884 C 185.005 1.57155 -3.0724 0
M  V30 1885 C 184.118 0.984066 -4.20643 0
M  V30 1886 C 183.253 2.07745 -4.88892 0
M  V30 1887 C 182.292 1.46574 -5.94292 0
M  V30 1888 N 181.429 2.49834 -6.56146 0
M  V30 1889 H 186.269 -0.185205 -2.97424 0
M  V30 1890 H 183.806 -0.103164 -1.46738 0
M  V30 1891 H 185.764 2.23309 -3.52405 0
M  V30 1892 H 184.394 2.17615 -2.38419 0
M  V30 1893 H 183.446 0.212193 -3.79808 0
M  V30 1894 H 184.758 0.497029 -4.96318 0
M  V30 1895 H 183.912 2.81673 -5.3735 0
M  V30 1896 H 182.651 2.59807 -4.12737 0
M  V30 1897 H 181.656 0.711696 -5.45174 0
M  V30 1898 H 182.881 0.953088 -6.72379 0
M  V30 1899 H 180.827 3.0107 -5.82832 0
M  V30 1900 H 180.744 2.05879 -7.27427 0
M  V30 1901 H 182.012 3.23399 -7.09249 0
M  V30 1902 N 186.241 1.57166 -0.116904 0
M  V30 1903 C 187.204 2.14039 0.819742 0
M  V30 1904 C 188.204 1.07477 1.19605 0
M  V30 1905 O 189.394 1.33263 1.1219 0
M  V30 1906 C 186.526 2.67891 2.10826 0
M  V30 1907 H 187.719 2.98128 0.325511 0
M  V30 1908 H 185.272 1.55739 0.132312 0
M  V30 1909 H 186.007 1.87384 2.64685 0
M  V30 1910 H 185.792 3.45823 1.84793 0
M  V30 1911 H 187.282 3.11809 2.77785 0
M  V30 1912 N 187.719 -0.156864 1.56817 0
M  V30 1913 C 188.965 -0.872416 1.83076 0
M  V30 1914 C 189.298 -1.81261 0.697001 0
M  V30 1915 O 188.573 -1.92171 -0.30008 0
M  V30 1916 C 188.856 -1.65551 3.19789 0
M  V30 1917 C 188.709 -0.737467 4.43713 0
M  V30 1918 C 190.028 -2.62012 3.53606 0
M  V30 1919 H 187.147 -0.315715 0.665953 0
M  V30 1920 H 189.789 -0.138004 1.89498 0
M  V30 1921 H 187.939 -2.28159 3.14445 0
M  V30 1922 H 189.611 -0.123143 4.61136 0
M  V30 1923 H 187.854 -0.0464067 4.33775 0
M  V30 1924 H 188.525 -1.32122 5.35955 0
M  V30 1925 H 191.001 -2.09525 3.59497 0
M  V30 1926 H 189.877 -3.13861 4.50314 0
M  V30 1927 H 190.138 -3.42902 2.79053 0
M  V30 1928 N 189.197 -1.51736 -0.425897 0
M  V30 1929 C 190.129 -1.70083 -1.53638 0
M  V30 1930 C 191.142 -0.581349 -1.52066 0
M  V30 1931 O 192.331 -0.856017 -1.56635 0
M  V30 1932 C 189.431 -1.71078 -2.9255 0
M  V30 1933 C 188.604 -2.99795 -3.185 0
M  V30 1934 C 187.663 -2.92825 -4.37196 0
M  V30 1935 O 186.689 -3.66756 -4.35291 0
M  V30 1936 N 187.891 -2.0946 -5.41393 0
M  V30 1937 H 190.656 -2.65882 -1.383 0
M  V30 1938 H 188.217 -1.49765 -0.614988 0
M  V30 1939 H 190.209 -1.63969 -3.69995 0
M  V30 1940 H 188.779 -0.828242 -3.01428 0
M  V30 1941 H 187.999 -3.20684 -2.2925 0
M  V30 1942 H 189.287 -3.84977 -3.32671 0
M  V30 1943 H 188.685 -1.48792 -5.45781 0
M  V30 1944 H 187.242 -2.08221 -6.17647 0
M  V30 1945 N 190.675 0.682077 -1.42076 0
M  V30 1946 C 191.585 1.82535 -1.47371 0
M  V30 1947 C 192.601 1.7017 -0.363079 0
M  V30 1948 O 193.777 1.91848 -0.612875 0
M  V30 1949 C 190.842 3.18624 -1.36674 0
M  V30 1950 C 189.903 3.42999 -2.58167 0
M  V30 1951 C 189.136 4.72595 -2.4797 0
M  V30 1952 O 189.359 5.50006 -1.5116 0
M  V30 1953 O 188.293 4.98054 -3.37974 0
M  V30 1954 H 192.119 1.81023 -2.43853 0
M  V30 1955 H 189.704 0.836887 -1.2376 0
M  V30 1956 H 191.586 3.99847 -1.33043 0
M  V30 1957 H 190.261 3.20789 -0.433138 0
M  V30 1958 H 189.168 2.61653 -2.67373 0
M  V30 1959 H 190.501 3.45659 -3.50401 0
M  V30 1960 N 192.153 1.28127 0.917671 0
M  V30 1961 C 193.083 1.14248 2.03641 0
M  V30 1962 C 194.064 0.0412748 1.7005 0
M  V30 1963 O 195.249 0.217566 1.92977 0
M  V30 1964 C 192.379 0.799431 3.37974 0
M  V30 1965 C 191.333 1.85497 3.85713 0
M  V30 1966 C 190.659 1.36565 5.16966 0
M  V30 1967 C 191.959 3.26085 4.08002 0
M  V30 1968 H 193.653 2.07835 2.15511 0
M  V30 1969 H 191.199 1.00064 1.03553 0
M  V30 1970 H 193.152 0.689114 4.15727 0
M  V30 1971 H 191.876 -0.172145 3.26146 0
M  V30 1972 H 190.535 1.95437 3.10161 0
M  V30 1973 H 190.183 0.383253 5.01538 0
M  V30 1974 H 189.883 2.07143 5.49878 0
M  V30 1975 H 191.407 1.26848 5.97279 0
M  V30 1976 H 192.821 3.19089 4.76293 0
M  V30 1977 H 191.218 3.94462 4.52238 0
M  V30 1978 H 192.288 3.70394 3.12948 0
M  V30 1979 N 193.631 -1.12557 1.10312 0
M  V30 1980 C 194.877 -1.84515 0.855901 0
M  V30 1981 C 195.232 -1.82409 -0.611936 0
M  V30 1982 O 194.525 -1.25778 -1.44535 0
M  V30 1983 C 194.719 -3.31462 1.33669 0
M  V30 1984 C 194.548 -3.47879 2.84974 0
M  V30 1985 C 193.318 -3.61589 3.52961 0
M  V30 1986 C 195.516 -3.43152 3.83081 0
M  V30 1987 N 193.498 -3.66359 4.926 0
M  V30 1988 C 194.869 -3.54401 5.08724 0
M  V30 1989 C 196.924 -3.2661 3.75807 0
M  V30 1990 C 195.627 -3.50815 6.2795 0
M  V30 1991 C 197.653 -3.24335 4.94531 0
M  V30 1992 C 197.015 -3.36144 6.19021 0
M  V30 1993 H 193.114 -0.690967 0.366182 0
M  V30 1994 H 195.698 -1.34763 1.40524 0
M  V30 1995 H 193.869 -3.7976 0.814686 0
M  V30 1996 H 195.601 -3.91272 1.03385 0
M  V30 1997 H 192.356 -3.63652 3.03404 0
M  V30 1998 H 192.78 -3.72411 5.65366 0
M  V30 1999 H 197.422 -3.16375 2.80476 0
M  V30 2000 H 195.14 -3.5982 7.23571 0
M  V30 2001 H 198.726 -3.12719 4.9061 0
M  V30 2002 H 197.606 -3.34357 7.09348 0
M  V30 2003 N 195.109 -0.891671 -1.2995 0
M  V30 2004 C 196.039 -0.379797 -2.30391 0
M  V30 2005 C 197.02 0.540919 -1.6127 0
M  V30 2006 O 198.205 0.453352 -1.88834 0
M  V30 2007 C 195.335 0.400654 -3.44981 0
M  V30 2008 C 194.289 -0.428905 -4.25846 0
M  V30 2009 C 193.615 0.478557 -5.32554 0
M  V30 2010 C 194.915 -1.67458 -4.94727 0
M  V30 2011 H 196.609 -1.21914 -2.73454 0
M  V30 2012 H 194.155 -0.587675 -1.31462 0
M  V30 2013 H 196.108 0.769434 -4.14316 0
M  V30 2014 H 194.832 1.27371 -3.0074 0
M  V30 2015 H 193.491 -0.779911 -3.58208 0
M  V30 2016 H 193.139 1.34951 -4.84559 0
M  V30 2017 H 192.839 -0.0727433 -5.87555 0
M  V30 2018 H 194.363 0.843705 -6.04743 0
M  V30 2019 H 195.777 -1.376 -5.56542 0
M  V30 2020 H 194.174 -2.16659 -5.59624 0
M  V30 2021 H 195.244 -2.41518 -4.20473 0
M  V30 2022 N 196.587 1.43421 -0.653314 0
M  V30 2023 C 198.003 1.56341 -0.320886 0
M  V30 2024 C 198.203 1.63696 1.17499 0
M  V30 2025 O 197.259 1.59208 1.95982 0
M  V30 2026 C 198.572 2.82424 -1.03233 0
M  V30 2027 C 200.12 2.96168 -1.01259 0
M  V30 2028 C 200.595 4.25084 -1.70492 0
M  V30 2029 N 202.086 4.31948 -1.67257 0
M  V30 2030 C 202.821 5.30466 -2.17701 0
M  V30 2031 N 202.317 6.35261 -2.76434 0
M  V30 2032 N 204.11 5.2212 -2.082 0
M  V30 2033 H 196.261 1.3689 -1.62403 0
M  V30 2034 H 198.524 0.657455 -0.682977 0
M  V30 2035 H 198.23 2.83053 -2.08744 0
M  V30 2036 H 198.104 3.72653 -0.583948 0
M  V30 2037 H 200.491 2.9508 0.0341235 0
M  V30 2038 H 200.572 2.07229 -1.49966 0
M  V30 2039 H 200.216 4.26932 -2.7512 0
M  V30 2040 H 200.146 5.1292 -1.19251 0
M  V30 2041 H 202.637 3.56838 -1.24398 0
M  V30 2042 H 202.95 7.06754 -3.12601 0
M  V30 2043 H 201.295 6.35884 -2.80495 0
M  V30 2044 H 204.486 4.39166 -1.62021 0
M  V30 2045 H 204.659 5.98739 -2.47822 0
M  V30 2046 N 198.065 0.39524 1.52563 0
M  V30 2047 C 198.995 -0.428384 2.29537 0
M  V30 2048 C 199.976 -1.05831 1.33169 0
M  V30 2049 O 201.161 -1.06995 1.62067 0
M  V30 2050 C 198.291 -1.55274 3.10656 0
M  V30 2051 C 197.245 -1.04855 4.14957 0
M  V30 2052 C 196.571 -2.26543 4.84337 0
M  V30 2053 C 197.871 -0.112324 5.22179 0
M  V30 2054 H 199.565 0.213867 2.98635 0
M  V30 2055 H 197.111 0.104298 1.43622 0
M  V30 2056 H 199.064 -2.1358 3.63265 0
M  V30 2057 H 197.788 -2.22266 2.39302 0
M  V30 2058 H 196.447 -0.487985 3.63338 0
M  V30 2059 H 196.095 -2.92059 4.09525 0
M  V30 2060 H 195.795 -1.93466 5.54837 0
M  V30 2061 H 197.319 -2.85481 5.39753 0
M  V30 2062 H 198.733 -0.603752 5.70112 0
M  V30 2063 H 197.13 0.128968 5.99961 0
M  V30 2064 H 198.2 0.837052 4.77621 0
M  V30 2065 N 199.544 -1.57102 0.125237 0
M  V30 2066 C 200.774 -1.99472 -0.538015 0
M  V30 2067 C 201.182 -1.00395 -1.60366 0
M  V30 2068 O 200.525 0.0103875 -1.83697 0
M  V30 2069 C 200.587 -3.38262 -1.21734 0
M  V30 2070 C 200.251 -4.56021 -0.298897 0
M  V30 2071 C 201.248 -5.17817 0.464943 0
M  V30 2072 C 198.933 -5.01869 -0.208149 0
M  V30 2073 C 200.927 -6.23852 1.3072 0
M  V30 2074 C 198.614 -6.07763 0.637736 0
M  V30 2075 C 199.612 -6.68622 1.39403 0
M  V30 2076 O 199.3 -7.7247 2.22586 0
M  V30 2077 H 199.032 -0.659934 -0.146501 0
M  V30 2078 H 201.586 -2.04321 0.210267 0
M  V30 2079 H 199.816 -3.30185 -2.01282 0
M  V30 2080 H 201.505 -3.6488 -1.77813 0
M  V30 2081 H 202.271 -4.83308 0.404741 0
M  V30 2082 H 198.15 -4.54241 -0.786522 0
M  V30 2083 H 201.694 -6.71284 1.898 0
M  V30 2084 H 197.591 -6.41701 0.699309 0
M  V30 2085 H 198.359 -7.89595 2.15596 0
M  V30 2086 N 201.022 0.148545 -1.56898 0
M  V30 2087 C 201.954 1.20852 -1.9475 0
M  V30 2088 C 202.967 1.39265 -0.843152 0
M  V30 2089 O 204.156 1.38864 -1.12156 0
M  V30 2090 C 201.256 2.57362 -2.20495 0
M  V30 2091 C 200.429 2.59947 -3.51776 0
M  V30 2092 C 199.488 3.77984 -3.6608 0
M  V30 2093 O 198.514 3.62929 -4.38487 0
M  V30 2094 N 199.716 4.95375 -3.02629 0
M  V30 2095 H 202.481 0.886804 -2.86279 0
M  V30 2096 H 200.042 0.338121 -1.5833 0
M  V30 2097 H 202.034 3.34833 -2.27307 0
M  V30 2098 H 200.604 2.81832 -1.35238 0
M  V30 2099 H 199.824 1.68403 -3.56419 0
M  V30 2100 H 201.112 2.58704 -4.38121 0
M  V30 2101 H 200.51 5.10509 -2.43715 0
M  V30 2102 H 199.067 5.70627 -3.15004 0
M  V30 2103 N 202.5 1.5196 0.417844 0
M  V30 2104 C 203.725 1.69717 1.1921 0
M  V30 2105 C 204.15 0.402148 1.83751 0
M  V30 2106 O 203.508 -0.639593 1.69643 0
M  V30 2107 C 203.556 2.82794 2.2374 0
M  V30 2108 O 202.66 2.47756 3.29683 0
M  V30 2109 H 202.001 0.565263 0.348387 0
M  V30 2110 H 204.531 1.98621 0.490985 0
M  V30 2111 H 204.541 3.07452 2.68212 0
M  V30 2112 H 203.216 3.76756 1.76146 0
M  V30 2113 H 201.793 2.33739 2.90552 0
M  V30 2114 N 203.978 -0.674533 1.42435 0
M  V30 2115 C 204.926 -1.80934 1.46169 0
M  V30 2116 C 205.92 -1.66006 0.3374 0
M  V30 2117 O 207.126 -1.72611 0.510425 0
M  V30 2118 H 203.501 -0.596594 0.457798 0
M  V30 2119 H 205.472 -1.74903 2.41767 0
M  V30 2120 C 204.221 -3.19088 1.38123 0
M  V30 2121 H 203.544 -3.31203 2.23931 0
M  V30 2122 H 204.984 -3.9851 1.44797 0
M  V30 2123 C 203.443 -3.36763 0.0960517 0
M  V30 2124 O 203.973 -3.92581 -0.851073 0
M  V30 2125 N 202.179 -2.90597 0.0131186 0
M  V30 2126 H 201.726 -2.45359 0.784639 0
M  V30 2127 H 201.684 -3.028 -0.846133 0
M  V30 2128 N 205.456 -1.28612 -0.910864 0
M  V30 2129 C 206.386 -1.15326 -2.03032 0
M  V30 2130 C 207.367 -0.0502924 -1.70026 0
M  V30 2131 O 208.552 -0.227797 -1.92859 0
M  V30 2132 C 205.682 -0.817343 -3.37545 0
M  V30 2133 C 204.636 -1.8754 -3.84724 0
M  V30 2134 C 203.962 -1.39305 -5.16235 0
M  V30 2135 C 205.262 -3.28244 -4.06267 0
M  V30 2136 H 206.956 -2.08975 -2.14406 0
M  V30 2137 H 204.502 -1.00612 -1.03021 0
M  V30 2138 H 206.455 -0.711151 -4.15356 0
M  V30 2139 H 205.179 0.154846 -3.26233 0
M  V30 2140 H 203.838 -1.97079 -3.09121 0
M  V30 2141 H 203.486 -0.409846 -5.01328 0
M  V30 2142 H 203.186 -2.10057 -5.48771 0
M  V30 2143 H 204.71 -1.30014 -5.96598 0
M  V30 2144 H 206.124 -3.21611 -4.74594 0
M  V30 2145 H 204.521 -3.96855 -4.5014 0
M  V30 2146 H 205.591 -3.72048 -3.10979 0
M  V30 2147 N 206.934 1.1197 -1.10907 0
M  V30 2148 C 208.18 1.8386 -0.855773 0
M  V30 2149 C 208.513 1.84134 0.617103 0
M  V30 2150 O 207.788 1.29041 1.45529 0
M  V30 2151 C 208.071 3.31305 -1.411 0
M  V30 2152 C 207.924 3.39456 -2.9511 0
M  V30 2153 C 209.243 4.2721 -1.05736 0
M  V30 2154 H 206.362 0.667545 -0.312334 0
M  V30 2155 H 209.004 1.31331 -1.37303 0
M  V30 2156 H 207.154 3.76169 -0.97105 0
M  V30 2157 H 208.826 3.03191 -3.47668 0
M  V30 2158 H 207.069 2.79849 -3.31462 0
M  V30 2159 H 207.74 4.43209 -3.29044 0
M  V30 2160 H 210.216 3.90497 -1.43706 0
M  V30 2161 H 209.092 5.28775 -1.47269 0
M  V30 2162 H 209.353 4.42088 0.0325958 0
M  V30 2163 N 208.412 0.89855 1.29475 0
M  V30 2164 C 209.342 0.39201 2.30186 0
M  V30 2165 C 210.323 -0.532359 1.61555 0
M  V30 2166 O 211.508 -0.443331 1.89072 0
M  V30 2167 C 208.638 -0.382353 3.45189 0
M  V30 2168 C 207.592 0.451483 4.25612 0
M  V30 2169 C 206.918 -0.450307 5.328 0
M  V30 2170 C 208.218 1.70079 4.93832 0
M  V30 2171 H 209.912 1.23362 2.72804 0
M  V30 2172 H 207.458 0.594638 1.31149 0
M  V30 2173 H 209.411 -0.747451 4.14718 0
M  V30 2174 H 208.135 -1.25774 3.01411 0
M  V30 2175 H 206.794 0.798897 3.57789 0
M  V30 2176 H 206.442 -1.32379 4.85268 0
M  V30 2177 H 206.142 0.103902 5.87508 0
M  V30 2178 H 207.666 -0.811623 6.05182 0
M  V30 2179 H 209.08 1.40549 5.55805 0
M  V30 2180 H 207.477 2.19623 5.58467 0
M  V30 2181 H 208.547 2.43744 4.19186 0
M  V30 2182 N 209.89 -1.43072 0.660911 0
M  V30 2183 C 211.136 -2.0202 0.177708 0
M  V30 2184 C 211.469 -1.52066 -1.20787 0
M  V30 2185 O 210.744 -0.716987 -1.80802 0
M  V30 2186 C 211.027 -3.59561 0.197019 0
M  V30 2187 C 210.88 -4.19727 1.61706 0
M  V30 2188 C 212.199 -4.37664 -0.462396 0
M  V30 2189 H 209.318 -0.734034 0.0660494 0
M  V30 2190 H 211.96 -1.70272 0.843058 0
M  V30 2191 H 210.11 -3.86739 -0.369527 0
M  V30 2192 H 211.782 -4.03553 2.23479 0
M  V30 2193 H 210.025 -3.76084 2.16201 0
M  V30 2194 H 210.696 -5.28834 1.58237 0
M  V30 2195 H 213.172 -4.16095 0.0197215 0
M  V30 2196 H 212.048 -5.47305 -0.418188 0
M  V30 2197 H 212.309 -4.14493 -1.53778 0
M  V30 2198 N 211.368 -0.403325 -1.52352 0
M  V30 2199 C 212.593 0.176499 -2.06648 0
M  V30 2200 C 213.018 1.38577 -1.27193 0
M  V30 2201 O 212.376 1.7879 -0.300637 0
M  V30 2202 C 212.424 0.511061 -3.5696 0
M  V30 2203 O 211.528 1.60294 -3.79973 0
M  V30 2204 H 210.869 0.0167337 -0.663789 0
M  V30 2205 H 213.399 -0.574848 -1.96359 0
M  V30 2206 H 213.409 0.771362 -4.00642 0
M  V30 2207 H 212.084 -0.37296 -4.14224 0
M  V30 2208 H 210.661 1.33526 -3.48174 0
M  V30 2209 N 212.846 1.57033 -0.133567 0
M  V30 2210 C 213.809 2.14897 0.796995 0
M  V30 2211 C 214.809 1.0874 1.18458 0
M  V30 2212 O 215.999 1.34446 1.1077 0
M  V30 2213 C 213.131 2.70112 2.07973 0
M  V30 2214 H 214.324 2.98457 0.293873 0
M  V30 2215 H 211.877 1.55871 0.115787 0
M  V30 2216 H 212.612 1.9018 2.62682 0
M  V30 2217 H 212.397 3.47764 1.81115 0
M  V30 2218 H 213.887 3.14738 2.74462 0
M  V30 2219 N 214.325 -0.140222 1.56975 0
M  V30 2220 C 215.574 -0.850152 1.82908 0
M  V30 2221 C 215.887 -1.82028 0.715892 0
M  V30 2222 O 217.093 -2.57485 0.861016 0
M  V30 2223 C 215.549 -1.5625 3.24213 0
M  V30 2224 C 215.157 -0.63443 4.43485 0
M  V30 2225 C 216.901 -2.25881 3.59413 0
M  V30 2226 C 214.808 -1.34879 5.75814 0
M  V30 2227 H 213.738 -0.321221 0.682153 0
M  V30 2228 H 216.389 -0.102874 1.83211 0
M  V30 2229 H 214.771 -2.35565 3.18316 0
M  V30 2230 H 215.945 0.12398 4.60633 0
M  V30 2231 H 214.26 -0.0461836 4.16374 0
M  V30 2232 H 216.857 -2.79978 4.5554 0
M  V30 2233 H 217.2 -3.02693 2.85802 0
M  V30 2234 H 217.733 -1.53477 3.67001 0
M  V30 2235 H 214.472 -0.622385 6.52539 0
M  V30 2236 H 213.992 -2.07974 5.6259 0
M  V30 2237 H 215.671 -1.88784 6.18845 0
M  V30 2238 N 215.803 -1.52179 -0.40978 0
M  V30 2239 C 216.751 -1.76086 -1.51975 0
M  V30 2240 C 217.745 -0.627964 -1.57331 0
M  V30 2241 O 218.951 -0.809993 -1.60745 0
M  V30 2242 H 215.326 -0.556829 -0.505416 0
M  V30 2243 H 217.297 -2.69077 -1.28996 0
M  V30 2244 C 216.046 -1.92799 -2.8935 0
M  V30 2245 H 215.369 -2.79392 -2.85972 0
M  V30 2246 H 216.809 -2.13527 -3.66309 0
M  V30 2247 C 215.268 -0.694923 -3.29655 0
M  V30 2248 O 215.798 0.13751 -4.01465 0
M  V30 2249 N 214.004 -0.53101 -2.85707 0
M  V30 2250 H 213.551 -1.20952 -2.27439 0
M  V30 2251 H 213.509 0.292718 -3.13034 0
M  V30 2252 N 217.281 0.66697 -1.42791 0
M  V30 2253 C 218.529 1.42417 -1.43394 0
M  V30 2254 C 218.85 1.94925 -0.0542373 0
M  V30 2255 O 218.12 1.73564 0.908415 0
M  V30 2256 H 216.7 0.528515 -0.527902 0
M  V30 2257 H 219.362 0.787562 -1.78279 0
M  V30 2258 H 218.458 2.27333 -2.13837 0
M  V30 2259 N 218.759 1.29093 0.90403 0
M  V30 2260 C 219.722 1.1386 1.98919 0
M  V30 2261 C 220.722 0.0753457 1.60623 0
M  V30 2262 O 221.912 0.321931 1.71199 0
M  V30 2263 C 219.044 0.740198 3.32767 0
M  V30 2264 H 220.237 2.10246 2.13861 0
M  V30 2265 H 217.79 1.12218 1.08797 0
M  V30 2266 H 218.525 -0.223997 3.23525 0
M  V30 2267 H 218.31 1.50838 3.61926 0
M  V30 2268 H 219.8 0.656546 4.12407 0
M  V30 2269 N 220.237 -1.11381 1.11499 0
M  V30 2270 C 221.477 -1.84763 0.874188 0
M  V30 2271 C 221.841 -1.82726 -0.589496 0
M  V30 2272 O 223.042 -2.51562 -0.947089 0
M  V30 2273 C 221.313 -3.27931 1.42112 0
M  V30 2274 S 222.872 -4.18557 1.31739 0
M  V30 2275 H 219.69 -0.637115 0.315603 0
M  V30 2276 H 222.292 -1.34097 1.42261 0
M  V30 2277 H 220.996 -3.26978 2.48019 0
M  V30 2278 H 220.527 -3.83665 0.869761 0
M  V30 2279 H 222.542 -4.95396 0.282335 0
M  V30 2280 N 221.715 -0.905404 -1.28997 0
M  V30 2281 C 223.126 -0.581953 -1.77398 0
M  V30 2282 C 223.477 0.902552 -1.74208 0
M  V30 2283 O 222.602 1.70584 -1.33154 0
M  V30 2284 C 223.197 -1.04961 -3.22131 0
M  V30 2285 C 221.756 -0.777229 -3.68288 0
M  V30 2286 C 220.903 -1.22109 -2.48967 0
M  V30 2287 H 223.854 -1.08754 -1.15578 0
M  V30 2288 H 223.875 -0.387387 -3.78523 0
M  V30 2289 H 223.387 -2.13008 -3.24421 0
M  V30 2290 H 221.488 0.290383 -3.71467 0
M  V30 2291 H 221.601 -1.37911 -4.58822 0
M  V30 2292 H 219.965 -0.639971 -2.46529 0
M  V30 2293 H 220.748 -2.30972 -2.53982 0
M  V30 2294 N 223.193 1.4272 -0.668489 0
M  V30 2295 C 224.156 2.292 0.00448567 0
M  V30 2296 C 225.156 1.43001 0.735339 0
M  V30 2297 O 226.346 1.64461 0.57429 0
M  V30 2298 C 223.478 3.25375 1.01705 0
M  V30 2299 H 224.671 2.90199 -0.756608 0
M  V30 2300 H 222.224 1.50254 -0.430506 0
M  V30 2301 H 222.959 2.69301 1.80686 0
M  V30 2302 H 222.744 3.88944 0.496463 0
M  V30 2303 H 224.234 3.90245 1.48655 0
M  V30 2304 N 224.671 0.411399 1.52136 0
M  V30 2305 C 225.919 -0.163322 2.01439 0
M  V30 2306 C 226.24 -1.45453 1.29879 0
M  V30 2307 O 225.51 -1.91225 0.4254 0
M  V30 2308 H 224.09 -0.0633447 0.744309 0
M  V30 2309 H 226.752 0.548161 1.87033 0
M  V30 2310 H 225.848 -0.357817 3.10042 0
M  V30 2311 N 226.149 -1.5696 0.141893 0
M  V30 2312 C 227.397 -1.95573 -0.509484 0
M  V30 2313 C 227.718 -1.02746 -1.65736 0
M  V30 2314 O 226.988 -0.0880311 -1.95702 0
M  V30 2315 H 225.568 -0.722115 -0.191205 0
M  V30 2316 H 228.23 -1.93697 0.216196 0
M  V30 2317 H 227.326 -2.99171 -0.889 0
M  V30 2318 N 227.627 0.131896 -1.57047 0
M  V30 2319 C 228.867 0.847972 -1.85981 0
M  V30 2320 C 229.231 1.77655 -0.7282 0
M  V30 2321 O 230.432 2.53322 -0.898968 0
M  V30 2322 C 228.703 1.58919 -3.20124 0
M  V30 2323 S 230.262 2.34862 -3.70655 0
M  V30 2324 H 227.08 0.283273 -0.652133 0
M  V30 2325 H 229.682 0.107057 -1.95207 0
M  V30 2326 H 228.386 0.898771 -4.00438 0
M  V30 2327 H 227.917 2.37073 -3.13942 0
M  V30 2328 H 229.932 3.60344 -3.41126 0
M  V30 2329 N 229.106 1.52395 0.401703 0
M  V30 2330 C 230.036 1.79231 1.49661 0
M  V30 2331 C 231.017 0.643654 1.57452 0
M  V30 2332 O 232.202 0.889989 1.72606 0
M  V30 2333 C 229.332 1.94971 2.87409 0
M  V30 2334 C 228.286 3.10604 2.94465 0
M  V30 2335 C 227.612 3.11577 4.34538 0
M  V30 2336 C 228.912 4.49921 2.6527 0
M  V30 2337 H 230.606 2.70917 1.27454 0
M  V30 2338 H 228.152 1.30362 0.6117 0
M  V30 2339 H 230.105 2.12328 3.63999 0
M  V30 2340 H 228.829 0.999632 3.10926 0
M  V30 2341 H 227.488 2.93009 2.20321 0
M  V30 2342 H 227.136 2.14277 4.55076 0
M  V30 2343 H 226.836 3.89247 4.40183 0
M  V30 2344 H 228.36 3.31073 5.13053 0
M  V30 2345 H 229.774 4.67683 3.31581 0
M  V30 2346 H 228.171 5.29564 2.82281 0
M  V30 2347 H 229.241 4.57507 1.60671 0
M  V30 2348 N 230.584 -0.659388 1.43143 0
M  V30 2349 C 231.83 -1.42145 1.44647 0
M  V30 2350 C 232.163 -1.9408 0.0681907 0
M  V30 2351 O 231.438 -1.71899 -0.910007 0
M  V30 2352 C 231.721 -2.60735 2.48373 0
M  V30 2353 C 231.574 -2.14332 3.95451 0
M  V30 2354 C 232.893 -3.62951 2.48906 0
M  V30 2355 H 230.012 -0.51552 0.526696 0
M  V30 2356 H 232.654 -0.748069 1.74654 0
M  V30 2357 H 230.804 -3.18184 2.22916 0
M  V30 2358 H 232.476 -1.61932 4.31944 0
M  V30 2359 H 230.719 -1.4576 4.08578 0
M  V30 2360 H 231.39 -2.99583 4.63631 0
M  V30 2361 H 233.866 -3.1525 2.71582 0
M  V30 2362 H 232.742 -4.43487 3.23435 0
M  V30 2363 H 233.003 -4.15126 1.52061 0
M  V30 2364 N 232.062 -1.29571 -0.897171 0
M  V30 2365 C 233.025 -1.14913 -1.98312 0
M  V30 2366 C 234.025 -0.0838629 -1.60581 0
M  V30 2367 O 235.215 -0.331006 -1.71026 0
M  V30 2368 C 232.347 -0.757835 -3.3237 0
M  V30 2369 H 233.54 -2.11377 -2.12743 0
M  V30 2370 H 231.093 -1.12793 -1.08201 0
M  V30 2371 H 231.828 0.206837 -3.2364 0
M  V30 2372 H 231.613 -1.52755 -3.61121 0
M  V30 2373 H 233.103 -0.678408 -4.12053 0
M  V30 2374 N 233.54 1.10788 -1.12088 0
M  V30 2375 C 234.47 2.19083 -0.807755 0
M  V30 2376 C 235.451 1.6858 0.226859 0
M  V30 2377 O 236.636 1.93997 0.0888475 0
M  V30 2378 C 233.766 3.46344 -0.257576 0
M  V30 2379 C 232.72 4.101 -1.22483 0
M  V30 2380 C 232.046 5.32016 -0.535052 0
M  V30 2381 C 233.346 4.54236 -2.57811 0
M  V30 2382 H 235.04 2.45534 -1.71328 0
M  V30 2383 H 232.586 1.1801 -0.825205 0
M  V30 2384 H 234.539 4.21392 -0.0262679 0
M  V30 2385 H 233.263 3.19373 0.683278 0
M  V30 2386 H 231.922 3.37054 -1.44189 0
M  V30 2387 H 231.57 5.01319 0.410827 0
M  V30 2388 H 231.27 5.75625 -1.18024 0
M  V30 2389 H 232.794 6.09799 -0.312695 0
M  V30 2390 H 234.208 5.20575 -2.40155 0
M  V30 2391 H 232.605 5.08682 -3.18375 0
M  V30 2392 H 233.675 3.6734 -3.16528 0
M  V30 2393 N 235.018 0.912232 1.28515 0
M  V30 2394 C 236.246 0.560416 1.99166 0
M  V30 2395 C 236.661 -0.857927 1.68182 0
M  V30 2396 O 236.018 -1.56805 0.933733 0
M  V30 2397 C 236.069 0.758142 3.53461 0
M  V30 2398 O 235.79 2.12067 3.83352 0
M  V30 2399 C 237.291 0.412954 4.41372 0
M  V30 2400 H 234.511 0.213805 0.636026 0
M  V30 2401 H 237.055 1.22502 1.63749 0
M  V30 2402 H 235.21 0.140556 3.87145 0
M  V30 2403 H 235.624 2.15923 4.77993 0
M  V30 2404 H 237.098 0.60208 5.48707 0
M  V30 2405 H 237.575 -0.65073 4.34353 0
M  V30 2406 H 238.181 1.00802 4.13182 0
M  V30 2407 N 236.496 -1.42363 0.676048 0
M  V30 2408 C 237.736 -2.03392 0.20273 0
M  V30 2409 C 238.1 -1.52306 -1.16906 0
M  V30 2410 O 239.301 -2.05129 -1.73711 0
M  V30 2411 C 237.572 -3.56614 0.236947 0
M  V30 2412 S 239.131 -4.38489 -0.165186 0
M  V30 2413 H 235.949 -0.70611 0.0832418 0
M  V30 2414 H 238.551 -1.74093 0.88948 0
M  V30 2415 H 237.255 -3.91293 1.23767 0
M  V30 2416 H 236.786 -3.90587 -0.469596 0
M  V30 2417 H 238.801 -4.76093 -1.39822 0
M  V30 2418 N 237.974 -0.419461 -1.51915 0
M  V30 2419 C 239.251 0.211999 -1.94448 0
M  V30 2420 C 239.631 1.61703 -1.35703 0
M  V30 2421 O 238.979 2.22102 -0.536931 0
M  V30 2422 C 239.189 0.207872 -3.4838 0
M  V30 2423 C 240.537 0.422192 -4.22496 0
M  V30 2424 O 241.561 0.286778 -3.55044 0
M  V30 2425 O 240.42 0.690009 -5.42126 0
M  V30 2426 H 237.514 0.139586 -0.815135 0
M  V30 2427 H 240.06 -0.476151 -1.62883 0
M  V30 2428 H 238.832 -0.775102 -3.83546 0
M  V30 2429 H 238.455 0.939688 -3.86336 0
M  V30 2430 N 239.452 1.56882 -0.150215 0
M  V30 2431 C 240.682 2.00302 0.506213 0
M  V30 2432 C 241.09 1.02934 1.58749 0
M  V30 2433 O 240.433 0.0188384 1.8369 0
M  V30 2434 C 240.495 3.40156 1.16337 0
M  V30 2435 C 240.159 4.56439 0.226311 0
M  V30 2436 C 241.156 5.17012 -0.547265 0
M  V30 2437 C 238.841 5.02136 0.128279 0
M  V30 2438 C 240.835 6.21693 -1.40629 0
M  V30 2439 C 238.522 6.06672 -0.734345 0
M  V30 2440 C 239.52 6.6632 -1.50023 0
M  V30 2441 O 239.208 7.68831 -2.34848 0
M  V30 2442 H 238.94 0.662182 0.135984 0
M  V30 2443 H 241.494 2.03961 -0.242746 0
M  V30 2444 H 239.724 3.33346 1.96004 0
M  V30 2445 H 241.413 3.67663 1.71985 0
M  V30 2446 H 242.179 4.82603 -0.48158 0
M  V30 2447 H 238.058 4.55435 0.714157 0
M  V30 2448 H 241.602 6.68179 -2.00455 0
M  V30 2449 H 237.499 6.40507 -0.801309 0
M  V30 2450 H 238.267 7.86065 -2.28131 0
M  V30 2451 N 240.93 -0.123565 1.57115 0
M  V30 2452 C 242.346 -0.476961 1.52306 0
M  V30 2453 C 242.546 -1.82109 0.86248 0
M  V30 2454 O 241.602 -2.48586 0.442884 0
M  V30 2455 C 242.915 -0.465661 2.97073 0
M  V30 2456 C 244.463 -0.549534 3.08138 0
M  V30 2457 C 244.938 -0.568669 4.54456 0
M  V30 2458 N 246.429 -0.630237 4.58892 0
M  V30 2459 C 247.164 -0.666415 5.69514 0
M  V30 2460 N 246.66 -0.660514 6.89644 0
M  V30 2461 N 248.453 -0.709077 5.5761 0
M  V30 2462 H 240.604 0.757198 1.98445 0
M  V30 2463 H 242.867 0.278808 0.906074 0
M  V30 2464 H 242.573 0.454232 3.48754 0
M  V30 2465 H 242.447 -1.29513 3.54269 0
M  V30 2466 H 244.834 -1.45985 2.56461 0
M  V30 2467 H 244.915 0.307532 2.53945 0
M  V30 2468 H 244.559 0.337581 5.06777 0
M  V30 2469 H 244.489 -1.44256 5.06456 0
M  V30 2470 H 246.98 -0.641146 3.72421 0
M  V30 2471 H 247.293 -0.690616 7.69708 0
M  V30 2472 H 245.638 -0.628012 6.92157 0
M  V30 2473 H 248.829 -0.711019 4.62668 0
M  V30 2474 H 249.002 -0.733804 6.43832 0
M  V30 2475 N 242.408 -1.52605 -0.393616 0
M  V30 2476 C 243.657 -1.66649 -1.13627 0
M  V30 2477 C 243.97 -0.410364 -1.91247 0
M  V30 2478 O 245.176 -0.430854 -2.68059 0
M  V30 2479 C 243.632 -2.9449 -2.06891 0
M  V30 2480 C 243.24 -4.27266 -1.34714 0
M  V30 2481 C 244.984 -3.17899 -2.81319 0
M  V30 2482 C 242.891 -5.46217 -2.26717 0
M  V30 2483 H 241.821 -0.62084 -0.427871 0
M  V30 2484 H 244.472 -1.791 -0.399428 0
M  V30 2485 H 242.854 -2.75774 -2.84191 0
M  V30 2486 H 244.028 -4.56518 -0.626714 0
M  V30 2487 H 242.343 -4.10081 -0.722643 0
M  V30 2488 H 244.94 -4.03949 -3.50328 0
M  V30 2489 H 245.283 -2.32777 -3.45139 0
M  V30 2490 H 245.816 -3.37159 -2.11113 0
M  V30 2491 H 242.555 -6.33733 -1.67521 0
M  V30 2492 H 242.075 -5.21283 -2.96689 0
M  V30 2493 H 243.754 -5.7991 -2.86903 0
M  V30 2494 N 243.887 0.651787 -1.4349 0
M  V30 2495 C 244.817 1.77621 -1.51569 0
M  V30 2496 C 245.798 1.66022 -0.370253 0
M  V30 2497 O 246.983 1.85095 -0.587658 0
M  V30 2498 C 244.113 3.16056 -1.43966 0
M  V30 2499 C 243.067 3.4242 -2.56774 0
M  V30 2500 C 242.393 4.8067 -2.34223 0
M  V30 2501 C 243.693 3.37023 -3.99015 0
M  V30 2502 H 245.387 1.71117 -2.45681 0
M  V30 2503 H 242.933 0.821825 -1.18246 0
M  V30 2504 H 244.886 3.94472 -1.48221 0
M  V30 2505 H 243.61 3.23293 -0.463586 0
M  V30 2506 H 242.269 2.66375 -2.51873 0
M  V30 2507 H 241.917 4.84585 -1.34856 0
M  V30 2508 H 241.617 4.9927 -3.09844 0
M  V30 2509 H 243.141 5.61342 -2.40265 0
M  V30 2510 H 244.555 4.05374 -4.05395 0
M  V30 2511 H 242.952 3.67159 -4.74673 0
M  V30 2512 H 244.022 2.3518 -4.2405 0
M  V30 2513 N 245.365 1.30045 0.890287 0
M  V30 2514 C 246.328 1.15963 1.977 0
M  V30 2515 C 247.328 0.0923777 1.60534 0
M  V30 2516 O 248.518 0.340071 1.70848 0
M  V30 2517 C 245.65 0.775451 3.31963 0
M  V30 2518 H 246.843 2.12502 2.11619 0
M  V30 2519 H 244.396 1.13366 1.07601 0
M  V30 2520 H 245.131 -0.189671 3.23745 0
M  V30 2521 H 244.916 1.54668 3.60306 0
M  V30 2522 H 246.406 0.700251 4.11687 0
M  V30 2523 N 246.843 -1.10192 1.12674 0
M  V30 2524 C 248.12 -1.78717 0.794965 0
M  V30 2525 C 248.5 -1.98628 -0.714853 0
M  V30 2526 O 247.848 -1.58135 -1.64941 0
M  V30 2527 C 248.058 -3.11546 1.5729 0
M  V30 2528 C 249.406 -3.86382 1.76052 0
M  V30 2529 O 250.43 -3.21274 1.53823 0
M  V30 2530 O 249.289 -5.03246 2.13087 0
M  V30 2531 H 246.383 -0.774702 0.289423 0
M  V30 2532 H 248.929 -1.16819 1.23091 0
M  V30 2533 H 247.701 -2.92489 2.59935 0
M  V30 2534 H 247.324 -3.81164 1.13137 0
M  V30 2535 N 248.321 -0.919034 -1.28029 0
M  V30 2536 C 249.269 -0.401753 -2.29104 0
M  V30 2537 C 250.263 0.509354 -1.61561 0
M  V30 2538 O 251.469 0.390014 -1.75724 0
M  V30 2539 H 247.844 -0.111331 -0.743713 0
M  V30 2540 H 249.815 -1.2672 -2.70156 0
M  V30 2541 C 248.564 0.338148 -3.46052 0
M  V30 2542 H 247.887 -0.353732 -3.98232 0
M  V30 2543 H 249.327 0.664653 -4.18758 0
M  V30 2544 C 247.786 1.54798 -2.99231 0
M  V30 2545 O 248.316 2.64696 -3.02157 0
M  V30 2546 N 246.522 1.3968 -2.54829 0
M  V30 2547 H 246.069 0.502698 -2.52647 0
M  V30 2548 H 246.027 2.20755 -2.23863 0
M  V30 2549 N 249.799 1.42003 -0.683588 0
M  V30 2550 C 251.21 1.84501 -0.285736 0
M  V30 2551 C 251.561 1.57213 1.17382 0
M  V30 2552 O 250.686 1.03642 1.89966 0
M  V30 2553 C 251.281 3.34912 -0.511821 0
M  V30 2554 C 249.84 3.76025 -0.168005 0
M  V30 2555 C 248.987 2.6551 -0.799983 0
M  V30 2556 H 251.938 1.31724 -0.885119 0
M  V30 2557 H 251.959 3.79784 0.233292 0
M  V30 2558 H 251.471 3.54741 -1.57418 0
M  V30 2559 H 249.572 3.61801 0.890567 0
M  V30 2560 H 249.685 4.75141 -0.614661 0
M  V30 2561 H 248.049 2.53654 -0.230568 0
M  V30 2562 H 248.832 2.8816 -1.86597 0
M  V30 2563 N 251.277 0.427512 1.51691 0
M  V30 2564 C 252.693 0.0792977 1.59403 0
M  V30 2565 C 252.893 -1.41035 1.43914 0
M  V30 2566 O 251.949 -2.17922 1.27539 0
M  V30 2567 C 253.262 0.590636 2.94842 0
M  V30 2568 C 254.81 0.550215 3.08126 0
M  V30 2569 C 255.285 1.03836 4.46074 0
M  V30 2570 N 256.776 0.995943 4.52366 0
M  V30 2571 C 257.511 1.34463 5.57411 0
M  V30 2572 N 257.007 1.76569 6.69922 0
M  V30 2573 N 258.8 1.26343 5.47717 0
M  V30 2574 H 250.951 1.39687 1.60004 0
M  V30 2575 H 253.214 0.575003 0.753708 0
M  V30 2576 H 252.92 1.63251 3.11516 0
M  V30 2577 H 252.794 0.0102061 3.77199 0
M  V30 2578 H 255.181 -0.482654 2.91126 0
M  V30 2579 H 255.262 1.16693 2.27632 0
M  V30 2580 H 254.906 2.06965 4.63819 0
M  V30 2581 H 254.836 0.398286 5.25092 0
M  V30 2582 H 257.327 0.68661 3.7161 0
M  V30 2583 H 257.64 2.01438 7.46085 0
M  V30 2584 H 255.985 1.80488 6.71155 0
M  V30 2585 H 259.176 0.933209 4.58703 0
M  V30 2586 H 259.349 1.53846 6.29472 0
M  V30 2587 N 252.755 -1.56801 0.158532 0
M  V30 2588 C 253.985 -2.00568 -0.495583 0
M  V30 2589 C 254.393 -1.03774 -1.58201 0
M  V30 2590 O 253.736 -0.0285797 -1.83678 0
M  V30 2591 C 253.798 -3.40768 -1.14532 0
M  V30 2592 C 253.462 -4.56553 -0.202101 0
M  V30 2593 C 254.459 -5.16714 0.574675 0
M  V30 2594 C 252.144 -5.02197 -0.101648 0
M  V30 2595 C 254.138 -6.20939 1.43924 0
M  V30 2596 C 251.825 -6.06274 0.766508 0
M  V30 2597 C 252.823 -6.65515 1.53555 0
M  V30 2598 O 252.511 -7.67575 2.38922 0
M  V30 2599 H 252.243 -0.662893 -0.13247 0
M  V30 2600 H 254.797 -2.03829 0.253559 0
M  V30 2601 H 253.027 -3.34381 -1.94233 0
M  V30 2602 H 254.716 -3.6857 -1.70033 0
M  V30 2603 H 255.482 -4.82341 0.507167 0
M  V30 2604 H 251.361 -4.55807 -0.689994 0
M  V30 2605 H 254.905 -6.67107 2.03996 0
M  V30 2606 H 250.802 -6.40073 0.835266 0
M  V30 2607 H 251.57 -7.84844 2.32296 0
M  V30 2608 N 254.233 0.115231 -1.57178 0
M  V30 2609 C 255.473 0.828199 -1.8687 0
M  V30 2610 C 255.837 1.76873 -0.747002 0
M  V30 2611 O 257.038 2.52354 -0.925785 0
M  V30 2612 C 255.309 1.55515 -3.21792 0
M  V30 2613 S 256.868 2.30917 -3.73125 0
M  V30 2614 H 253.686 0.27634 -0.655101 0
M  V30 2615 H 256.288 0.0863469 -1.95309 0
M  V30 2616 H 254.992 0.856248 -4.01368 0
M  V30 2617 H 254.523 2.3373 -3.16439 0
M  V30 2618 H 256.538 3.56705 -3.44929 0
M  V30 2619 N 255.711 1.52812 0.385517 0
M  V30 2620 C 256.96 1.67249 1.12741 0
M  V30 2621 C 257.273 0.4205 1.91027 0
M  V30 2622 O 258.479 0.445064 2.67827 0
M  V30 2623 C 256.935 2.95583 2.05326 0
M  V30 2624 C 256.543 4.27974 1.32447 0
M  V30 2625 C 258.287 3.19386 2.7963 0
M  V30 2626 C 256.194 5.47412 2.23818 0
M  V30 2627 H 255.124 0.6231 0.424573 0
M  V30 2628 H 257.775 1.79309 0.389924 0
M  V30 2629 H 256.157 2.77277 2.82725 0
M  V30 2630 H 257.331 4.56844 0.602495 0
M  V30 2631 H 255.646 4.10459 0.700885 0
M  V30 2632 H 258.243 4.05801 3.48181 0
M  V30 2633 H 258.586 2.34604 3.43899 0
M  V30 2634 H 259.119 3.38274 2.09322 0
M  V30 2635 H 255.858 6.34612 1.64157 0
M  V30 2636 H 255.378 5.22849 2.93921 0
M  V30 2637 H 257.057 5.81423 2.83824 0
M  V30 2638 N 257.189 -0.644168 1.43834 0
M  V30 2639 C 258.437 -1.40117 1.45642 0
M  V30 2640 C 258.758 -1.94814 0.0852413 0
M  V30 2641 O 258.028 -1.74988 -0.880688 0
M  V30 2642 H 256.608 -0.52005 0.536243 0
M  V30 2643 H 259.27 -0.7591 1.7951 0
M  V30 2644 H 258.366 -2.23902 2.17427 0
M  V30 2645 N 258.668 -1.30515 -0.883378 0
M  V30 2646 C 259.598 -1.19607 -2.00541 0
M  V30 2647 C 260.579 -0.086346 -1.69881 0
M  V30 2648 O 261.764 -0.268654 -1.92333 0
M  V30 2649 C 258.894 -0.888758 -3.35736 0
M  V30 2650 C 257.848 -1.95659 -3.8066 0
M  V30 2651 C 257.174 -1.50224 -5.13164 0
M  V30 2652 C 258.474 -3.36788 -3.99213 0
M  V30 2653 H 260.168 -2.13476 -2.09925 0
M  V30 2654 H 257.714 -1.02775 -1.00863 0
M  V30 2655 H 259.667 -0.799094 -4.13754 0
M  V30 2656 H 258.391 0.0856125 -3.26488 0
M  V30 2657 H 257.05 -2.03591 -3.04871 0
M  V30 2658 H 256.698 -0.516092 -5.00345 0
M  V30 2659 H 256.398 -2.2165 -5.44192 0
M  V30 2660 H 257.922 -1.42639 -5.93706 0
M  V30 2661 H 259.336 -3.31605 -4.67665 0
M  V30 2662 H 257.733 -4.06314 -4.41621 0
M  V30 2663 H 258.803 -3.78561 -3.03017 0
M  V30 2664 N 260.146 1.09593 -1.13257 0
M  V30 2665 C 261.094 2.18271 -0.803783 0
M  V30 2666 C 262.088 1.68054 0.213148 0
M  V30 2667 O 263.294 1.79862 0.0704699 0
M  V30 2668 H 259.669 0.711949 -0.242143 0
M  V30 2669 H 261.64 2.43235 -1.72856 0
M  V30 2670 C 260.389 3.46536 -0.28424 0
M  V30 2671 H 259.712 3.85545 -1.05807 0
M  V30 2672 H 261.152 4.23899 -0.0925945 0
M  V30 2673 C 259.611 3.22036 0.989684 0
M  V30 2674 O 260.141 3.44509 2.06584 0
M  V30 2675 N 258.347 2.7565 0.920086 0
M  V30 2676 H 257.894 2.57562 0.0442019 0
M  V30 2677 H 257.852 2.59635 1.77306 0
M  V30 2678 N 261.624 0.925811 1.2754 0
M  V30 2679 C 262.534 0.428993 2.30644 0
M  V30 2680 C 263.55 -0.489387 1.66976 0
M  V30 2681 O 264.726 -0.372653 1.97922 0
M  V30 2682 C 261.791 -0.311967 3.45294 0
M  V30 2683 C 260.852 0.641098 4.24486 0
M  V30 2684 C 260.085 -0.0645955 5.33661 0
M  V30 2685 O 260.308 -1.28429 5.55754 0
M  V30 2686 O 259.242 0.606265 5.98839 0
M  V30 2687 H 263.068 1.28504 2.75173 0
M  V30 2688 H 260.653 0.691086 1.32455 0
M  V30 2689 H 262.535 -0.729972 4.15029 0
M  V30 2690 H 261.21 -1.14365 3.02824 0
M  V30 2691 H 260.117 1.10874 3.57292 0
M  V30 2692 H 261.45 1.43995 4.70666 0
M  V30 2693 N 263.102 -1.41638 0.69111 0
M  V30 2694 C 264.33 -2.05628 0.22909 0
M  V30 2695 C 264.745 -1.51992 -1.11999 0
M  V30 2696 O 264.102 -0.666322 -1.69901 0
M  V30 2697 C 264.153 -3.61084 0.173283 0
M  V30 2698 O 263.874 -4.12735 1.46907 0
M  V30 2699 C 265.375 -4.42213 -0.310266 0
M  V30 2700 H 262.595 -0.662327 0.107534 0
M  V30 2701 H 265.139 -1.81489 0.942438 0
M  V30 2702 H 263.294 -3.84278 -0.490858 0
M  V30 2703 H 263.708 -5.06743 1.35322 0
M  V30 2704 H 265.182 -5.51194 -0.298196 0
M  V30 2705 H 265.659 -4.1799 -1.34838 0
M  V30 2706 H 266.265 -4.24074 0.322716 0
M  V30 2707 N 264.58 -0.43555 -1.51462 0
M  V30 2708 C 265.512 0.41257 -2.25456 0
M  V30 2709 C 266.525 0.987822 -1.29406 0
M  V30 2710 O 267.714 0.882266 -1.55172 0
M  V30 2711 C 264.814 1.58894 -2.99342 0
M  V30 2712 C 263.987 1.13288 -4.22474 0
M  V30 2713 C 263.046 2.17917 -4.78956 0
M  V30 2714 O 262.072 1.77425 -5.40841 0
M  V30 2715 N 263.274 3.50382 -4.62832 0
M  V30 2716 H 266.039 -0.221603 -2.9888 0
M  V30 2717 H 263.6 -0.264342 -1.59727 0
M  V30 2718 H 265.592 2.28508 -3.34015 0
M  V30 2719 H 264.162 2.12849 -2.28941 0
M  V30 2720 H 263.382 0.263881 -3.93316 0
M  V30 2721 H 264.67 0.805542 -5.02383 0
M  V30 2722 H 264.068 3.86013 -4.13534 0
M  V30 2723 H 262.625 4.15895 -5.01871 0
M  V30 2724 N 266.058 1.56714 -0.166846 0
M  V30 2725 C 266.988 2.20754 0.760913 0
M  V30 2726 C 267.969 1.16178 1.24244 0
M  V30 2727 O 269.154 1.44592 1.29641 0
M  V30 2728 C 266.284 2.84478 1.99223 0
M  V30 2729 C 265.238 3.95053 1.64672 0
M  V30 2730 C 264.564 4.45805 2.95232 0
M  V30 2731 C 265.864 5.14865 0.878155 0
M  V30 2732 H 267.558 2.98537 0.22713 0
M  V30 2733 H 265.104 1.43596 0.107805 0
M  V30 2734 H 267.057 3.27951 2.64624 0
M  V30 2735 H 265.781 2.04056 2.55007 0
M  V30 2736 H 264.44 3.52228 1.01641 0
M  V30 2737 H 264.088 3.62181 3.49047 0
M  V30 2738 H 263.788 5.204 2.7287 0
M  V30 2739 H 265.312 4.91962 3.6167 0
M  V30 2740 H 266.726 5.55059 1.43466 0
M  V30 2741 H 265.123 5.95348 0.753738 0
M  V30 2742 H 266.193 4.84735 -0.126377 0
M  V30 2743 N 267.536 -0.106894 1.57237 0
M  V30 2744 C 268.784 -0.810921 1.85117 0
M  V30 2745 C 269.105 -1.7984 0.753827 0
M  V30 2746 O 268.375 -1.94649 -0.221056 0
M  V30 2747 H 266.955 -0.302466 0.683025 0
M  V30 2748 H 269.617 -0.0913324 1.94686 0
M  V30 2749 H 268.713 -1.34875 2.81452 0
M  V30 2750 N 269.014 -1.53014 -0.377408 0
M  V30 2751 C 270.263 -1.67845 -1.11853 0
M  V30 2752 C 270.576 -0.430625 -1.90801 0
M  V30 2753 O 271.782 -0.459261 -2.67587 0
M  V30 2754 C 270.238 -2.96668 -2.03756 0
M  V30 2755 C 269.846 -4.28671 -1.30175 0
M  V30 2756 C 271.59 -3.20865 -2.77932 0
M  V30 2757 C 269.497 -5.48591 -2.20911 0
M  V30 2758 H 268.427 -0.625343 -0.421263 0
M  V30 2759 H 271.078 -1.79514 -0.380409 0
M  V30 2760 H 269.46 -2.78773 -2.8125 0
M  V30 2761 H 270.634 -4.57157 -0.578259 0
M  V30 2762 H 268.949 -4.10825 -0.679108 0
M  V30 2763 H 271.546 -4.07642 -3.46024 0
M  V30 2764 H 271.889 -2.36424 -3.4265 0
M  V30 2765 H 272.422 -3.39379 -2.07525 0
M  V30 2766 H 269.161 -6.35474 -1.6079 0
M  V30 2767 H 268.681 -5.244 -2.91144 0
M  V30 2768 H 270.36 -5.8292 -2.80736 0
M  V30 2769 N 270.492 0.636531 -1.44174 0
M  V30 2770 C 271.741 1.39213 -1.45954 0
M  V30 2771 C 272.054 1.95374 -0.0939119 0
M  V30 2772 O 273.26 2.71498 0.0107767 0
M  V30 2773 C 271.716 2.52025 -2.56927 0
M  V30 2774 C 271.324 2.024 -3.99673 0
M  V30 2775 C 273.068 3.29269 -2.67922 0
M  V30 2776 C 270.975 3.12521 -5.0208 0
M  V30 2777 H 269.905 0.523132 -0.542999 0
M  V30 2778 H 272.556 0.685349 -1.70221 0
M  V30 2779 H 270.938 3.25253 -2.25891 0
M  V30 2780 H 272.112 1.36073 -4.40251 0
M  V30 2781 H 270.427 1.37987 -3.92872 0
M  V30 2782 H 273.024 4.11352 -3.41605 0
M  V30 2783 H 273.367 3.78397 -1.73555 0
M  V30 2784 H 273.9 2.63129 -2.98342 0
M  V30 2785 H 270.639 2.68343 -5.98057 0
M  V30 2786 H 270.159 3.77507 -4.66099 0
M  V30 2787 H 271.838 3.77385 -5.25538 0
M  V30 2788 N 271.97 1.30982 0.876444 0
M  V30 2789 C 272.933 1.18054 1.96459 0
M  V30 2790 C 273.933 0.109399 1.60427 0
M  V30 2791 O 275.123 0.358173 1.70478 0
M  V30 2792 C 272.255 0.810616 3.31122 0
M  V30 2793 H 273.448 2.14735 2.09354 0
M  V30 2794 H 271.001 1.145 1.06392 0
M  V30 2795 H 271.736 -0.155322 3.23928 0
M  V30 2796 H 271.521 1.58481 3.58645 0
M  V30 2797 H 273.011 0.743876 4.10921 0
M  V30 2798 N 273.449 -1.08991 1.13837 0
M  V30 2799 C 274.86 -1.62746 0.914917 0
M  V30 2800 C 275.211 -1.88403 -0.547594 0
M  V30 2801 O 274.336 -1.63706 -1.41525 0
M  V30 2802 C 274.931 -2.95662 1.65437 0
M  V30 2803 C 273.49 -3.46225 1.47666 0
M  V30 2804 C 272.637 -2.20562 1.6807 0
M  V30 2805 H 275.588 -0.922946 1.29102 0
M  V30 2806 H 275.609 -3.63825 1.11407 0
M  V30 2807 H 275.121 -2.76956 2.71877 0
M  V30 2808 H 273.222 -3.70046 0.435478 0
M  V30 2809 H 273.335 -4.23368 2.24268 0
M  V30 2810 H 271.699 -2.29439 1.10589 0
M  V30 2811 H 272.482 -2.0437 2.7584 0
M  V30 2812 N 274.927 -0.932562 -1.27047 0
M  V30 2813 C 276.174 -0.575559 -1.94148 0
M  V30 2814 C 276.502 0.883984 -1.73251 0
M  V30 2815 O 275.757 1.64655 -1.0577 0
M  V30 2816 C 276.056 -0.853713 -3.47054 0
M  V30 2817 C 275.722 -2.29577 -3.88079 0
M  V30 2818 C 274.384 -2.68999 -3.9899 0
M  V30 2819 C 276.736 -3.23331 -4.08787 0
M  V30 2820 C 274.064 -4.01289 -4.28 0
M  V30 2821 C 276.416 -4.55207 -4.39282 0
M  V30 2822 C 275.08 -4.94457 -4.48407 0
M  V30 2823 H 274.35 -0.210612 -0.710439 0
M  V30 2824 H 276.997 -1.17744 -1.51025 0
M  V30 2825 H 275.302 -0.169204 -3.91434 0
M  V30 2826 H 276.999 -0.55639 -3.97121 0
M  V30 2827 H 273.589 -1.97994 -3.80127 0
M  V30 2828 H 277.773 -2.94074 -3.99793 0
M  V30 2829 H 273.029 -4.31374 -4.33275 0
M  V30 2830 H 277.203 -5.27852 -4.54252 0
M  V30 2831 H 274.83 -5.96994 -4.7064 0
M  V30 2832 N 276.405 1.4127 -0.698611 0
M  V30 2833 C 277.651 2.01979 -0.239972 0
M  V30 2834 C 278.006 1.54353 1.14861 0
M  V30 2835 O 277.299 0.746218 1.76471 0
M  V30 2836 C 277.493 3.56592 -0.240192 0
M  V30 2837 C 277.322 4.19226 -1.62726 0
M  V30 2838 C 276.092 4.53389 -2.23084 0
M  V30 2839 C 278.29 4.45228 -2.57443 0
M  V30 2840 N 276.272 5.01327 -3.54323 0
M  V30 2841 C 277.643 4.94973 -3.73365 0
M  V30 2842 C 279.698 4.27243 -2.55671 0
M  V30 2843 C 278.401 5.28624 -4.878 0
M  V30 2844 C 280.427 4.61985 -3.69221 0
M  V30 2845 C 279.789 5.11904 -4.83873 0
M  V30 2846 H 275.888 0.770561 -0.133269 0
M  V30 2847 H 278.472 1.71767 -0.916748 0
M  V30 2848 H 276.643 3.86271 0.406082 0
M  V30 2849 H 278.375 4.04025 0.23356 0
M  V30 2850 H 275.13 4.39946 -1.75341 0
M  V30 2851 H 275.554 5.29697 -4.21604 0
M  V30 2852 H 280.196 3.87884 -1.68243 0
M  V30 2853 H 277.914 5.66905 -5.75885 0
M  V30 2854 H 281.5 4.49725 -3.69105 0
M  V30 2855 H 280.38 5.38282 -5.70282 0
M  V30 2856 N 277.883 0.443576 1.51229 0
M  V30 2857 C 278.813 -0.355142 2.30783 0
M  V30 2858 C 279.794 -1.0154 1.36468 0
M  V30 2859 O 280.979 -1.01785 1.65389 0
M  V30 2860 C 278.109 -1.45312 3.15439 0
M  V30 2861 C 277.063 -0.916002 4.18083 0
M  V30 2862 C 276.389 -2.1102 4.91299 0
M  V30 2863 C 277.689 0.0538602 5.22272 0
M  V30 2864 H 279.383 0.308767 2.97804 0
M  V30 2865 H 276.929 0.149937 1.43217 0
M  V30 2866 H 278.882 -2.01914 3.69876 0
M  V30 2867 H 277.606 -2.14541 2.46252 0
M  V30 2868 H 276.265 -0.372145 3.64706 0
M  V30 2869 H 275.913 -2.78882 4.18609 0
M  V30 2870 H 275.613 -1.75717 5.60712 0
M  V30 2871 H 277.137 -2.68164 5.48562 0
M  V30 2872 H 278.551 -0.422069 5.71744 0
M  V30 2873 H 276.948 0.319776 5.99247 0
M  V30 2874 H 278.018 0.98858 4.74716 0
M  V30 2875 N 279.361 -1.56624 0.175154 0
M  V30 2876 C 280.308 -2.18149 -0.753634 0
M  V30 2877 C 281.278 -1.12265 -1.22417 0
M  V30 2878 O 282.463 -1.40432 -1.29165 0
M  V30 2879 C 279.603 -2.82933 -1.97592 0
M  V30 2880 C 278.716 -4.03289 -1.5486 0
M  V30 2881 C 277.851 -4.55988 -2.72485 0
M  V30 2882 C 276.89 -5.68746 -2.26262 0
M  V30 2883 N 276.027 -6.15938 -3.36994 0
M  V30 2884 H 280.867 -2.9717 -0.222195 0
M  V30 2885 H 278.404 -1.46774 -0.0979422 0
M  V30 2886 H 280.362 -3.18653 -2.69288 0
M  V30 2887 H 278.992 -2.06509 -2.481 0
M  V30 2888 H 278.044 -3.73364 -0.728246 0
M  V30 2889 H 279.356 -4.849 -1.16933 0
M  V30 2890 H 278.51 -4.9391 -3.52332 0
M  V30 2891 H 277.249 -3.73443 -3.13674 0
M  V30 2892 H 276.254 -5.30372 -1.44863 0
M  V30 2893 H 277.479 -6.53095 -1.86127 0
M  V30 2894 H 275.425 -5.36321 -3.77751 0
M  V30 2895 H 275.342 -6.92548 -3.03172 0
M  V30 2896 H 276.61 -6.58511 -4.17114 0
M  V30 2897 N 280.839 0.0985539 -1.57292 0
M  V30 2898 C 282.116 0.834155 -1.76921 0
M  V30 2899 C 282.496 1.97101 -0.755928 0
M  V30 2900 O 281.844 2.27474 0.216245 0
M  V30 2901 C 282.054 1.33194 -3.22584 0
M  V30 2902 C 283.402 1.77611 -3.85668 0
M  V30 2903 O 284.426 1.42825 -3.26312 0
M  V30 2904 O 283.285 2.4192 -4.90038 0
M  V30 2905 H 280.379 0.397628 -0.725135 0
M  V30 2906 H 282.925 0.0807044 -1.69508 0
M  V30 2907 H 281.697 0.517248 -3.87866 0
M  V30 2908 H 281.32 2.1475 -3.34616 0
M  V30 2909 N 282.317 1.53212 0.369288 0
M  V30 2910 C 283.545 1.73119 1.13303 0
M  V30 2911 C 283.96 0.458455 1.83149 0
M  V30 2912 O 283.317 -0.568403 1.73423 0
M  V30 2913 C 283.368 2.89413 2.16616 0
M  V30 2914 O 283.089 4.11761 1.49614 0
M  V30 2915 C 284.59 3.21161 3.05566 0
M  V30 2916 H 281.81 0.579107 0.338934 0
M  V30 2917 H 284.354 1.99942 0.429338 0
M  V30 2918 H 282.509 2.64994 2.82589 0
M  V30 2919 H 282.923 4.76858 2.18419 0
M  V30 2920 H 284.397 4.05949 3.74045 0
M  V30 2921 H 284.874 2.36369 3.70171 0
M  V30 2922 H 285.48 3.47492 2.45213 0
M  V30 2923 N 283.795 -0.628877 1.44509 0
M  V30 2924 C 284.725 -1.75187 1.54376 0
M  V30 2925 C 285.706 -1.65411 0.396618 0
M  V30 2926 O 286.891 -1.84137 0.617031 0
M  V30 2927 C 284.021 -3.13725 1.48976 0
M  V30 2928 C 282.975 -3.38291 2.62189 0
M  V30 2929 C 282.301 -4.76883 2.41841 0
M  V30 2930 C 283.601 -3.30632 4.04326 0
M  V30 2931 H 285.295 -1.67187 2.48373 0
M  V30 2932 H 282.841 -0.802909 1.19538 0
M  V30 2933 H 284.794 -3.92064 1.54478 0
M  V30 2934 H 283.518 -3.22515 0.514961 0
M  V30 2935 H 282.177 -2.62334 2.56079 0
M  V30 2936 H 281.825 -4.82378 1.42548 0
M  V30 2937 H 281.525 -4.94278 3.17747 0
M  V30 2938 H 283.049 -5.57449 2.49165 0
M  V30 2939 H 284.463 -3.98873 4.11793 0
M  V30 2940 H 282.86 -3.59561 4.80454 0
M  V30 2941 H 283.93 -2.28404 4.27738 0
M  V30 2942 N 285.273 -1.31445 -0.869486 0
M  V30 2943 C 286.183 -1.21097 -2.0093 0
M  V30 2944 C 287.199 -0.127584 -1.73532 0
M  V30 2945 O 288.375 -0.345477 -1.98415 0
M  V30 2946 C 285.44 -0.919378 -3.34288 0
M  V30 2947 C 284.501 -2.08971 -3.75006 0
M  V30 2948 C 283.734 -1.81194 -5.02001 0
M  V30 2949 O 283.957 -0.747296 -5.65484 0
M  V30 2950 O 282.891 -2.66883 -5.39497 0
M  V30 2951 H 286.717 -2.16883 -2.12592 0
M  V30 2952 H 284.302 -1.11189 -0.997868 0
M  V30 2953 H 286.184 -0.772625 -4.14257 0
M  V30 2954 H 284.859 0.00844772 -3.23699 0
M  V30 2955 H 283.766 -2.29187 -2.95676 0
M  V30 2956 H 285.099 -2.9998 -3.90221 0
M  V30 2957 N 286.751 1.08385 -1.14413 0
M  V30 2958 C 287.699 2.17406 -0.826888 0
M  V30 2959 C 288.693 1.6827 0.195312 0
M  V30 2960 O 289.899 1.79927 0.0513892 0
M  V30 2961 H 286.274 0.70934 -0.249681 0
M  V30 2962 H 288.245 2.41388 -1.75426 0
M  V30 2963 C 286.994 3.46215 -0.320979 0
M  V30 2964 H 286.317 3.84401 -1.0989 0
M  V30 2965 H 287.757 4.23777 -0.137549 0
M  V30 2966 C 286.216 3.23067 0.955472 0
M  V30 2967 O 286.746 3.4668 2.02918 0
M  V30 2968 N 284.952 2.7661 0.890798 0
M  V30 2969 H 284.499 2.57594 0.0168815 0
M  V30 2970 H 284.457 2.61501 1.74542 0
M  V30 2971 N 288.23 0.939286 1.26551 0
M  V30 2972 C 289.458 0.602536 1.97932 0
M  V30 2973 C 289.873 -0.82206 1.69964 0
M  V30 2974 O 289.23 -1.54789 0.966784 0
M  V30 2975 C 289.281 0.832946 3.51773 0
M  V30 2976 O 289.002 2.20151 3.78768 0
M  V30 2977 C 290.503 0.506483 4.40397 0
M  V30 2978 H 287.723 0.227248 0.631347 0
M  V30 2979 H 290.267 1.25948 1.61113 0
M  V30 2980 H 288.422 0.222644 3.8676 0
M  V30 2981 H 288.836 2.26013 4.73306 0
M  V30 2982 H 290.31 0.718333 5.47306 0
M  V30 2983 H 290.787 -0.558451 4.35635 0
M  V30 2984 H 291.393 1.09543 4.10951 0
M  V30 2985 N 289.708 -1.40897 0.706093 0
M  V30 2986 C 290.957 -2.00284 0.238574 0
M  V30 2987 C 291.27 -1.56604 -1.17194 0
M  V30 2988 O 292.476 -2.08624 -1.73748 0
M  V30 2989 C 290.932 -3.57934 0.375623 0
M  V30 2990 C 290.54 -4.10591 1.79217 0
M  V30 2991 C 292.284 -4.24488 -0.0315857 0
M  V30 2992 C 290.191 -5.60712 1.88032 0
M  V30 2993 H 289.121 -0.749144 0.0854398 0
M  V30 2994 H 291.772 -1.61251 0.875813 0
M  V30 2995 H 290.154 -3.94622 -0.330042 0
M  V30 2996 H 291.328 -3.85301 2.52745 0
M  V30 2997 H 289.643 -3.56601 2.15 0
M  V30 2998 H 292.24 -5.34698 0.0136842 0
M  V30 2999 H 292.583 -4.02261 -1.072 0
M  V30 3000 H 293.116 -3.92873 0.624181 0
M  V30 3001 H 289.855 -5.87781 2.90161 0
M  V30 3002 H 289.375 -5.87896 1.18903 0
M  V30 3003 H 291.054 -6.25658 1.64805 0
M  V30 3004 N 291.186 -0.45159 -1.50991 0
M  V30 3005 C 292.434 0.109857 -2.01801 0
M  V30 3006 C 292.755 1.41958 -1.3369 0
M  V30 3007 O 292.025 1.9003 -0.475951 0
M  V30 3008 H 290.605 0.0435884 -0.745727 0
M  V30 3009 H 293.267 -0.597557 -1.85514 0
M  V30 3010 H 292.363 0.275489 -3.10882 0
M  V30 3011 N 292.664 1.56529 -0.183458 0
M  V30 3012 C 293.614 2.1515 0.754605 0
M  V30 3013 C 294.598 1.08904 1.18443 0
M  V30 3014 O 295.79 1.34997 1.14476 0
M  V30 3015 C 292.919 2.80531 1.97881 0
M  V30 3016 C 292.005 3.93952 1.57043 0
M  V30 3017 N 292.396 4.98221 0.87231 0
M  V30 3018 C 290.694 4.05338 1.86057 0
M  V30 3019 C 291.395 5.77836 0.669377 0
M  V30 3020 N 290.371 5.29858 1.21454 0
M  V30 3021 H 294.173 2.93132 0.212387 0
M  V30 3022 H 291.687 1.62391 0.0167725 0
M  V30 3023 H 293.684 3.20914 2.6612 0
M  V30 3024 H 292.344 2.04035 2.52586 0
M  V30 3025 H 293.355 5.15191 0.529033 0
M  V30 3026 H 290.032 3.39957 2.42354 0
M  V30 3027 H 291.422 6.71799 0.116422 0
M  V30 3028 N 294.142 -0.090211 1.57342 0
M  V30 3029 C 295.558 -0.444547 1.53284 0
M  V30 3030 C 295.758 -1.80238 0.900914 0
M  V30 3031 O 294.814 -2.4759 0.495513 0
M  V30 3032 C 296.127 -0.402543 2.97993 0
M  V30 3033 C 297.675 -0.48405 3.09234 0
M  V30 3034 C 298.15 -0.472144 4.5556 0
M  V30 3035 N 299.641 -0.532757 4.60126 0
M  V30 3036 C 300.376 -0.545462 5.708 0
M  V30 3037 N 299.872 -0.514082 6.9089 0
M  V30 3038 N 301.665 -0.59064 5.58988 0
M  V30 3039 H 293.816 0.799121 1.96794 0
M  V30 3040 H 296.079 0.297965 0.899956 0
M  V30 3041 H 295.785 0.528106 3.47712 0
M  V30 3042 H 295.659 -1.21969 3.56936 0
M  V30 3043 H 298.046 -1.40512 2.595 0
M  V30 3044 H 298.127 0.361328 2.53235 0
M  V30 3045 H 297.771 0.445 5.05947 0
M  V30 3046 H 297.701 -1.3348 5.09402 0
M  V30 3047 H 300.192 -0.562006 3.73698 0
M  V30 3048 H 300.505 -0.527195 7.71 0
M  V30 3049 H 298.85 -0.481054 6.93333 0
M  V30 3050 H 302.041 -0.61272 4.64073 0
M  V30 3051 H 302.214 -0.597073 6.45243 0
M  V30 3052 N 295.62 -1.53406 -0.361157 0
M  V30 3053 C 296.583 -1.79479 -1.42548 0
M  V30 3054 C 297.583 -0.665327 -1.4639 0
M  V30 3055 O 298.773 -0.933549 -1.47073 0
M  V30 3056 C 295.905 -1.92087 -2.8163 0
M  V30 3057 H 297.098 -2.74538 -1.20701 0
M  V30 3058 H 294.651 -1.4455 -0.594546 0
M  V30 3059 H 295.386 -0.991099 -3.08784 0
M  V30 3060 H 295.171 -2.74241 -2.80239 0
M  V30 3061 H 296.661 -2.13836 -3.58697 0
M  V30 3062 N 297.098 0.621204 -1.44841 0
M  V30 3063 C 298.061 1.71459 -1.521 0
M  V30 3064 C 299.061 1.55696 -0.401933 0
M  V30 3065 O 300.251 1.61011 -0.664925 0
M  V30 3066 C 297.383 3.10624 -1.40447 0
M  V30 3067 H 298.576 1.66394 -2.49506 0
M  V30 3068 H 296.129 0.835745 -1.3208 0
M  V30 3069 H 296.864 3.21277 -0.441737 0
M  V30 3070 H 296.649 3.23473 -2.21602 0
M  V30 3071 H 298.139 3.90293 -1.4853 0
M  V30 3072 N 298.576 1.31904 0.862503 0
M  V30 3073 C 299.486 1.22161 2.00285 0
M  V30 3074 C 300.502 0.136785 1.73462 0
M  V30 3075 O 301.678 0.355994 1.98229 0
M  V30 3076 C 298.743 0.937093 3.33796 0
M  V30 3077 C 297.804 2.10957 3.73893 0
M  V30 3078 C 297.037 1.83853 5.01033 0
M  V30 3079 O 297.26 0.777274 5.65079 0
M  V30 3080 O 296.194 2.69741 5.38074 0
M  V30 3081 H 300.02 2.18008 2.11439 0
M  V30 3082 H 297.605 1.11716 0.991957 0
M  V30 3083 H 299.487 0.794583 4.13841 0
M  V30 3084 H 298.162 0.00871894 3.23699 0
M  V30 3085 H 297.069 2.30752 2.94456 0
M  V30 3086 H 298.402 3.02046 3.88625 0
M  V30 3087 N 300.054 -1.07777 1.14986 0
M  V30 3088 C 301.47 -1.32373 0.891596 0
M  V30 3089 C 301.67 -1.9609 -0.463788 0
M  V30 3090 O 300.726 -2.21801 -1.20667 0
M  V30 3091 C 302.039 -2.21905 2.02925 0
M  V30 3092 C 303.587 -2.35367 2.06329 0
M  V30 3093 C 304.062 -3.28245 3.19405 0
M  V30 3094 N 305.553 -3.35824 3.19024 0
M  V30 3095 C 306.288 -4.07739 4.03158 0
M  V30 3096 N 305.784 -4.82306 4.97346 0
M  V30 3097 N 307.577 -4.03635 3.91197 0
M  V30 3098 H 299.728 -0.648039 2.02273 0
M  V30 3099 H 301.991 -0.348149 0.881757 0
M  V30 3100 H 301.697 -1.82342 3.0074 0
M  V30 3101 H 301.571 -3.22407 1.95789 0
M  V30 3102 H 303.958 -2.74186 1.09116 0
M  V30 3103 H 304.039 -1.34585 2.17533 0
M  V30 3104 H 303.683 -2.90146 4.16867 0
M  V30 3105 H 303.613 -4.28971 3.05437 0
M  V30 3106 H 306.104 -2.8267 2.50811 0
M  V30 3107 H 306.417 -5.34661 5.57994 0
M  V30 3108 H 304.762 -4.81337 5.01338 0
M  V30 3109 H 307.953 -3.44491 3.16928 0
M  V30 3110 H 308.126 -4.59417 4.5699 0
M  V30 3111 N 301.532 -0.945985 -1.26051 0
M  V30 3112 C 302.495 -0.463897 -2.24456 0
M  V30 3113 C 303.495 0.427655 -1.55009 0
M  V30 3114 O 304.685 0.226157 -1.72726 0
M  V30 3115 C 301.817 0.330812 -3.39291 0
M  V30 3116 H 303.01 -1.33357 -2.68619 0
M  V30 3117 H 300.563 -0.728416 -1.38289 0
M  V30 3118 H 301.298 1.21852 -3.00537 0
M  V30 3119 H 301.083 -0.308679 -3.90883 0
M  V30 3120 H 302.573 0.657865 -4.12386 0
M  V30 3121 N 303.011 1.40521 -0.713556 0
M  V30 3122 C 303.941 2.33381 -0.0743864 0
M  V30 3123 C 304.922 1.52784 0.747735 0
M  V30 3124 O 306.107 1.81258 0.697071 0
M  V30 3125 C 303.237 3.36748 0.849598 0
M  V30 3126 C 302.191 4.27793 0.133247 0
M  V30 3127 C 301.517 5.21679 1.17281 0
M  V30 3128 C 302.817 5.12415 -1.01134 0
M  V30 3129 H 304.511 2.87081 -0.850007 0
M  V30 3130 H 302.057 1.38034 -0.410201 0
M  V30 3131 H 304.01 4.00648 1.30612 0
M  V30 3132 H 302.734 2.81439 1.65709 0
M  V30 3133 H 301.393 3.65342 -0.303426 0
M  V30 3134 H 301.041 4.62677 1.9733 0
M  V30 3135 H 300.741 5.83435 0.698397 0
M  V30 3136 H 302.265 5.88456 1.62947 0
M  V30 3137 H 303.679 5.69781 -0.634274 0
M  V30 3138 H 302.076 5.83203 -1.41399 0
M  V30 3139 H 303.146 4.48514 -1.84292 0
M  V30 3140 N 304.489 0.459591 1.5075 0
M  V30 3141 C 305.421 -0.37665 2.26084 0
M  V30 3142 C 306.434 -0.967109 1.30961 0
M  V30 3143 O 307.623 -0.857468 1.56556 0
M  V30 3144 C 304.723 -1.54112 3.01832 0
M  V30 3145 C 303.896 -1.06553 4.24223 0
M  V30 3146 C 302.955 -2.1027 4.82362 0
M  V30 3147 O 301.981 -1.68798 5.43595 0
M  V30 3148 N 303.183 -3.42974 4.68347 0
M  V30 3149 H 305.948 0.269124 2.98489 0
M  V30 3150 H 303.509 0.28972 1.59287 0
M  V30 3151 H 305.501 -2.23165 3.37608 0
M  V30 3152 H 304.071 -2.0918 2.32298 0
M  V30 3153 H 303.291 -0.201274 3.93686 0
M  V30 3154 H 304.579 -0.725516 5.03601 0
M  V30 3155 H 303.977 -3.79385 4.19623 0
M  V30 3156 H 302.534 -4.07858 5.08424 0
M  V30 3157 N 305.967 -1.56429 0.191757 0
M  V30 3158 C 306.897 -2.21937 -0.725696 0
M  V30 3159 C 307.878 -1.1814 -1.2238 0
M  V30 3160 O 309.063 -1.46636 -1.27325 0
M  V30 3161 C 306.193 -2.87611 -1.94672 0
M  V30 3162 C 305.147 -3.97623 -1.58366 0
M  V30 3163 C 304.473 -4.50446 -2.88102 0
M  V30 3164 C 305.773 -5.16197 -0.796133 0
M  V30 3165 H 307.467 -2.98861 -0.179606 0
M  V30 3166 H 305.013 -1.43749 -0.0849464 0
M  V30 3167 H 306.966 -3.3212 -2.59373 0
M  V30 3168 H 305.69 -2.08087 -2.51728 0
M  V30 3169 H 304.349 -3.53801 -0.960247 0
M  V30 3170 H 303.997 -3.67688 -3.43241 0
M  V30 3171 H 303.697 -5.24675 -2.64556 0
M  V30 3172 H 305.221 -4.97654 -3.53798 0
M  V30 3173 H 306.635 -5.57271 -1.34618 0
M  V30 3174 H 305.032 -5.96471 -0.658928 0
M  V30 3175 H 306.102 -4.84473 0.203478 0
M  V30 3176 N 307.445 0.0818655 -1.57387 0
M  V30 3177 C 308.693 0.781368 -1.86384 0
M  V30 3178 C 309.014 1.78618 -0.782342 0
M  V30 3179 O 308.284 1.94976 0.190061 0
M  V30 3180 H 306.864 0.291562 -0.687751 0
M  V30 3181 H 309.526 0.060348 -1.94807 0
M  V30 3182 H 308.622 1.3038 -2.83562 0
M  V30 3183 N 308.923 1.53595 0.353017 0
M  V30 3184 C 309.853 1.83902 1.43883 0
M  V30 3185 C 310.834 0.693421 1.55324 0
M  V30 3186 O 312.019 0.944452 1.69687 0
M  V30 3187 C 309.149 2.04016 2.8106 0
M  V30 3188 C 308.103 3.19814 2.84434 0
M  V30 3189 C 307.429 3.25244 4.24406 0
M  V30 3190 C 308.729 4.58133 2.50822 0
M  V30 3191 H 310.423 2.74835 1.1877 0
M  V30 3192 H 307.969 1.32242 0.569917 0
M  V30 3193 H 309.922 2.238 3.57059 0
M  V30 3194 H 308.646 1.09804 3.07588 0
M  V30 3195 H 307.305 2.9987 2.10887 0
M  V30 3196 H 306.953 2.28646 4.48029 0
M  V30 3197 H 306.653 4.03054 4.27576 0
M  V30 3198 H 308.177 3.47228 5.0226 0
M  V30 3199 H 309.591 4.77995 3.16534 0
M  V30 3200 H 307.988 5.38276 2.6529 0
M  V30 3201 H 309.058 4.62387 1.46034 0
M  V30 3202 N 310.401 -0.613514 1.45168 0
M  V30 3203 C 311.331 -1.7354 1.56225 0
M  V30 3204 C 312.312 -1.64981 0.41414 0
M  V30 3205 O 313.497 -1.83472 0.636526 0
M  V30 3206 C 310.627 -3.12128 1.52295 0
M  V30 3207 C 309.581 -3.35491 2.65762 0
M  V30 3208 C 308.907 -4.74291 2.46885 0
M  V30 3209 C 310.207 -3.26325 4.0781 0
M  V30 3210 H 311.901 -1.64543 2.50132 0
M  V30 3211 H 309.447 -0.790185 1.20383 0
M  V30 3212 H 311.4 -3.90404 1.58628 0
M  V30 3213 H 310.124 -3.2195 0.549139 0
M  V30 3214 H 308.783 -2.59603 2.58847 0
M  V30 3215 H 308.431 -4.80839 1.47657 0
M  V30 3216 H 308.131 -4.9088 3.22972 0
M  V30 3217 H 309.655 -5.54775 2.55063 0
M  V30 3218 H 311.069 -3.94483 4.16 0
M  V30 3219 H 309.466 -3.54445 4.8424 0
M  V30 3220 H 310.536 -2.23855 4.30136 0
M  V30 3221 N 311.879 -1.3236 -0.855495 0
M  V30 3222 C 313.126 -1.22872 -1.60962 0
M  V30 3223 C 313.454 0.209658 -1.93367 0
M  V30 3224 O 312.709 1.16243 -1.57436 0
M  V30 3225 C 313.008 -2.03275 -2.93963 0
M  V30 3226 C 312.674 -3.5264 -2.80991 0
M  V30 3227 C 311.336 -3.93364 -2.7716 0
M  V30 3228 C 313.688 -4.47626 -2.66983 0
M  V30 3229 C 311.016 -5.27319 -2.572 0
M  V30 3230 C 313.368 -5.81723 -2.48558 0
M  V30 3231 C 312.032 -6.2165 -2.4312 0
M  V30 3232 H 311.302 -0.44962 -0.589001 0
M  V30 3233 H 313.949 -1.63777 -0.992442 0
M  V30 3234 H 312.254 -1.55095 -3.59795 0
M  V30 3235 H 313.951 -1.93303 -3.51333 0
M  V30 3236 H 310.541 -3.20295 -2.84797 0
M  V30 3237 H 314.725 -4.17084 -2.68988 0
M  V30 3238 H 309.981 -5.57311 -2.51424 0
M  V30 3239 H 314.155 -6.5494 -2.36699 0
M  V30 3240 H 311.782 -7.25388 -2.27412 0
M  V30 3241 N 313.357 1.07166 -1.15556 0
M  V30 3242 C 314.768 1.6127 -0.940693 0
M  V30 3243 C 315.119 1.89251 0.517551 0
M  V30 3244 O 314.244 1.65937 1.38903 0
M  V30 3245 C 314.839 2.92993 -1.7012 0
M  V30 3246 C 313.398 3.43832 -1.53156 0
M  V30 3247 C 312.545 2.1786 -1.71558 0
M  V30 3248 H 315.496 0.90229 -1.30554 0
M  V30 3249 H 315.517 3.62007 -1.17181 0
M  V30 3250 H 315.029 2.72596 -2.76248 0
M  V30 3251 H 313.13 3.69307 -0.494294 0
M  V30 3252 H 313.243 4.19747 -2.30975 0
M  V30 3253 H 311.607 2.2765 -1.14225 0
M  V30 3254 H 312.39 1.99956 -2.79056 0
M  V30 3255 N 314.835 0.952656 1.25548 0
M  V30 3256 C 316.246 0.647392 1.75116 0
M  V30 3257 C 316.597 -0.837274 1.77438 0
M  V30 3258 O 315.722 -1.65525 1.39393 0
M  V30 3259 C 316.317 1.16845 3.18014 0
M  V30 3260 C 314.876 0.913382 3.6515 0
M  V30 3261 C 314.023 1.31265 2.44264 0
M  V30 3262 H 316.974 1.12968 1.11462 0
M  V30 3263 H 316.995 0.527606 3.76824 0
M  V30 3264 H 316.507 2.24902 3.16292 0
M  V30 3265 H 314.608 -0.152316 3.72289 0
M  V30 3266 H 314.721 1.54845 4.53387 0
M  V30 3267 H 313.085 0.731028 2.43984 0
M  V30 3268 H 313.868 2.40239 2.45234 0
M  V30 3269 N 316.313 -1.40141 0.720998 0
M  V30 3270 C 317.276 -2.29058 0.0805834 0
M  V30 3271 C 318.276 -1.45632 -0.681758 0
M  V30 3272 O 319.466 -1.6648 -0.512856 0
M  V30 3273 C 316.598 -3.28925 -0.895593 0
M  V30 3274 H 317.791 -2.87191 0.863793 0
M  V30 3275 H 315.344 -1.48553 0.485975 0
M  V30 3276 H 316.079 -2.75822 -1.70566 0
M  V30 3277 H 315.864 -3.90519 -0.351766 0
M  V30 3278 H 317.354 -3.95494 -1.34069 0
M  V30 3279 N 317.792 -0.46758 -1.50504 0
M  V30 3280 C 318.702 0.33382 -2.32213 0
M  V30 3281 C 319.718 0.999323 -1.42441 0
M  V30 3282 O 320.894 0.988068 -1.75497 0
M  V30 3283 C 317.959 1.4035 -3.17022 0
M  V30 3284 C 317.02 0.754961 -4.2261 0
M  V30 3285 C 316.253 1.77367 -5.03365 0
M  V30 3286 O 316.476 2.99976 -4.8515 0
M  V30 3287 O 315.41 1.34744 -5.86624 0
M  V30 3288 H 319.236 -0.334067 -3.01857 0
M  V30 3289 H 316.821 -0.229496 -1.47627 0
M  V30 3290 H 318.703 2.02318 -3.69656 0
M  V30 3291 H 317.378 2.05492 -2.5011 0
M  V30 3292 H 316.285 0.0964244 -3.73976 0
M  V30 3293 H 317.618 0.146545 -4.91982 0
M  V30 3294 N 319.27 1.56325 -0.20005 0
M  V30 3295 C 320.233 2.18084 0.705132 0
M  V30 3296 C 321.233 1.13666 1.1374 0
M  V30 3297 O 322.423 1.39023 1.04968 0
M  V30 3298 C 319.555 2.78689 1.96329 0
M  V30 3299 H 320.748 2.99435 0.167023 0
M  V30 3300 H 318.301 1.56221 0.0495725 0
M  V30 3301 H 319.036 2.0115 2.5438 0
M  V30 3302 H 318.821 3.55133 1.66202 0
M  V30 3303 H 320.311 3.26096 2.60866 0
M  V30 3304 N 320.748 -0.0735177 1.57428 0
M  V30 3305 C 321.678 -1.0879 2.06608 0
M  V30 3306 C 322.659 -1.40473 0.959237 0
M  V30 3307 O 323.844 -1.5013 1.23185 0
M  V30 3308 C 320.974 -2.40183 2.50857 0
M  V30 3309 C 319.928 -2.22858 3.65402 0
M  V30 3310 C 319.254 -3.59619 3.957 0
M  V30 3311 C 320.554 -1.65123 4.95511 0
M  V30 3312 H 322.248 -0.678673 2.91607 0
M  V30 3313 H 319.794 -0.325013 1.40284 0
M  V30 3314 H 321.747 -3.11437 2.83874 0
M  V30 3315 H 320.471 -2.83083 1.62885 0
M  V30 3316 H 319.13 -1.54045 3.32664 0
M  V30 3317 H 318.778 -4.00086 3.04861 0
M  V30 3318 H 318.478 -3.48866 4.72828 0
M  V30 3319 H 320.002 -4.32306 4.31212 0
M  V30 3320 H 321.416 -2.26241 5.26771 0
M  V30 3321 H 319.813 -1.65071 5.7695 0
M  V30 3322 H 320.883 -0.612559 4.81015 0
M  V30 3323 N 322.226 -1.5378 -0.344866 0
M  V30 3324 C 323.158 -1.77988 -1.44406 0
M  V30 3325 C 324.171 -0.661138 -1.48771 0
M  V30 3326 O 325.36 -0.937842 -1.51877 0
M  V30 3327 C 322.46 -1.86345 -2.8307 0
M  V30 3328 C 321.633 -3.16256 -3.0216 0
M  V30 3329 C 320.692 -3.15588 -4.21059 0
M  V30 3330 O 319.718 -3.89314 -4.15239 0
M  V30 3331 N 320.92 -2.37864 -5.29529 0
M  V30 3332 H 323.685 -2.72839 -1.24012 0
M  V30 3333 H 321.246 -1.52814 -0.534737 0
M  V30 3334 H 323.238 -1.83351 -3.60783 0
M  V30 3335 H 321.808 -0.986858 -2.96614 0
M  V30 3336 H 321.028 -3.32385 -2.11929 0
M  V30 3337 H 322.316 -4.0207 -3.11797 0
M  V30 3338 H 321.714 -1.77514 -5.37127 0
M  V30 3339 H 320.271 -2.40668 -6.05741 0
M  V30 3340 N 323.704 0.605807 -1.45491 0
M  V30 3341 C 324.95 1.36679 -1.49823 0
M  V30 3342 C 325.283 1.93693 -0.140175 0
M  V30 3343 O 324.558 1.75158 0.845581 0
M  V30 3344 C 324.841 2.51337 -2.57879 0
M  V30 3345 C 324.694 1.99508 -4.03134 0
M  V30 3346 C 326.013 3.53463 -2.62205 0
M  V30 3347 H 323.132 0.495617 -0.545466 0
M  V30 3348 H 325.774 0.682732 -1.7731 0
M  V30 3349 H 323.924 3.09691 -2.34571 0
M  V30 3350 H 325.596 1.45789 -4.37656 0
M  V30 3351 H 323.839 1.30496 -4.13707 0
M  V30 3352 H 324.51 2.82169 -4.74431 0
M  V30 3353 H 326.986 3.04953 -2.83095 0
M  V30 3354 H 325.862 4.31178 -3.39672 0
M  V30 3355 H 326.123 4.09197 -1.67363 0
M  V30 3356 N 325.182 1.32811 0.848464 0
M  V30 3357 C 326.43 1.23479 1.59991 0
M  V30 3358 C 326.751 -0.201853 1.93952 0
M  V30 3359 O 326.021 -1.12818 1.60153 0
M  V30 3360 H 324.601 0.454034 0.593179 0
M  V30 3361 H 327.263 1.66412 1.01455 0
M  V30 3362 H 326.359 1.82178 2.53412 0
M  V30 3363 N 326.66 -1.06551 1.16123 0
M  V30 3364 C 327.909 -1.78687 0.935622 0
M  V30 3365 C 328.222 -1.88056 -0.538001 0
M  V30 3366 O 329.428 -2.56794 -0.88143 0
M  V30 3367 C 327.884 -3.21143 1.62466 0
M  V30 3368 C 327.492 -3.19949 3.13587 0
M  V30 3369 C 329.236 -3.9783 1.48092 0
M  V30 3370 C 327.143 -4.57108 3.75241 0
M  V30 3371 H 326.073 -0.669712 0.346412 0
M  V30 3372 H 328.724 -1.19534 1.39226 0
M  V30 3373 H 327.106 -3.80539 1.09572 0
M  V30 3374 H 328.28 -2.70151 3.73303 0
M  V30 3375 H 326.595 -2.5676 3.27816 0
M  V30 3376 H 329.192 -4.99217 1.91538 0
M  V30 3377 H 329.535 -4.14078 0.429507 0
M  V30 3378 H 330.068 -3.4495 1.98127 0
M  V30 3379 H 326.807 -4.46065 4.80319 0
M  V30 3380 H 326.327 -5.07111 3.20309 0
M  V30 3381 H 328.006 -5.26069 3.76644 0
M  V30 3382 N 328.138 -0.959301 -1.25041 0
M  V30 3383 C 329.384 -0.617525 -1.9317 0
M  V30 3384 C 329.717 0.843981 -1.74902 0
M  V30 3385 O 328.992 1.60615 -1.09696 0
M  V30 3386 C 329.275 -0.982736 -3.46431 0
M  V30 3387 C 329.128 -2.50032 -3.73904 0
M  V30 3388 C 330.447 -0.511176 -4.37121 0
M  V30 3389 H 327.566 -0.22582 -0.701552 0
M  V30 3390 H 330.208 -1.19679 -1.4757 0
M  V30 3391 H 328.358 -0.489806 -3.854 0
M  V30 3392 H 330.03 -3.06737 -3.44544 0
M  V30 3393 H 328.273 -2.93598 -3.19348 0
M  V30 3394 H 328.944 -2.70635 -4.81103 0
M  V30 3395 H 331.42 -0.934075 -4.0548 0
M  V30 3396 H 330.296 -0.795361 -5.43107 0
M  V30 3397 H 330.557 0.588834 -4.38161 0
M  V30 3398 N 329.616 1.39756 -0.72842 0
M  V30 3399 C 330.893 1.94574 -0.200079 0
M  V30 3400 C 331.273 1.66569 1.29684 0
M  V30 3401 O 330.621 0.990326 2.05924 0
M  V30 3402 C 330.831 3.45004 -0.526608 0
M  V30 3403 C 332.179 4.21965 -0.472318 0
M  V30 3404 O 333.203 3.53173 -0.463413 0
M  V30 3405 O 332.062 5.44552 -0.461075 0
M  V30 3406 H 329.156 0.826289 -0.0342851 0
M  V30 3407 H 331.702 1.49293 -0.806829 0
M  V30 3408 H 330.474 3.58796 -1.56144 0
M  V30 3409 H 330.097 3.97449 0.109449 0
M  V30 3410 N 331.094 0.475555 1.50254 0
M  V30 3411 C 332.026 -0.352649 2.26471 0
M  V30 3412 C 333.039 -0.953165 1.3198 0
M  V30 3413 O 334.228 -0.840815 1.57457 0
M  V30 3414 C 331.328 -1.50902 3.0345 0
M  V30 3415 C 330.501 -1.02047 4.25329 0
M  V30 3416 C 329.56 -2.05142 4.84565 0
M  V30 3417 O 328.586 -1.63023 5.45355 0
M  V30 3418 N 329.788 -3.37987 4.71959 0
M  V30 3419 H 332.553 0.300767 2.98187 0
M  V30 3420 H 330.114 0.306598 1.5897 0
M  V30 3421 H 332.106 -2.19572 3.39956 0
M  V30 3422 H 330.676 -2.06705 2.34504 0
M  V30 3423 H 329.896 -0.159507 3.93877 0
M  V30 3424 H 331.184 -0.672061 5.04342 0
M  V30 3425 H 330.582 -3.74913 4.23623 0
M  V30 3426 H 329.139 -4.02443 5.12721 0
M  V30 3427 N 332.573 -1.56217 0.208337 0
M  V30 3428 C 333.819 -1.98242 -0.427552 0
M  V30 3429 C 334.152 -1.09554 -1.60348 0
M  V30 3430 O 333.427 -0.15035 -1.93918 0
M  V30 3431 C 333.71 -3.4931 -0.874907 0
M  V30 3432 C 333.563 -4.48773 0.303751 0
M  V30 3433 C 334.882 -4.04424 -1.73577 0
M  V30 3434 H 332.001 -0.720744 -0.153936 0
M  V30 3435 H 334.643 -1.87586 0.30192 0
M  V30 3436 H 332.793 -3.58522 -1.49648 0
M  V30 3437 H 334.465 -4.51586 0.941682 0
M  V30 3438 H 332.708 -4.23194 0.953375 0
M  V30 3439 H 333.379 -5.51976 -0.0519883 0
M  V30 3440 H 335.855 -3.98075 -1.21143 0
M  V30 3441 H 334.731 -5.1047 -2.01771 0
M  V30 3442 H 334.992 -3.50494 -2.69456 0
M  V30 3443 N 334.051 0.0651679 -1.57465 0
M  V30 3444 C 335.297 0.764193 -1.87851 0
M  V30 3445 C 335.63 1.76889 -0.801495 0
M  V30 3446 O 334.905 1.93594 0.187528 0
M  V30 3447 C 335.188 1.46625 -3.28897 0
M  V30 3448 C 335.041 0.477515 -4.47258 0
M  V30 3449 C 336.36 2.4095 -3.68281 0
M  V30 3450 H 333.479 0.276351 -0.683227 0
M  V30 3451 H 336.121 0.0272868 -1.8998 0
M  V30 3452 H 334.271 2.09438 -3.27212 0
M  V30 3453 H 335.943 -0.145922 -4.61069 0
M  V30 3454 H 334.186 -0.206576 -4.33308 0
M  V30 3455 H 334.857 1.0065 -5.42746 0
M  V30 3456 H 337.333 1.88209 -3.71102 0
M  V30 3457 H 336.209 2.87072 -4.67847 0
M  V30 3458 H 336.47 3.26049 -2.98571 0
M  V30 3459 N 335.529 1.53961 0.336706 0
M  V30 3460 C 336.94 1.62914 0.911925 0
M  V30 3461 C 337.291 0.514795 1.89326 0
M  V30 3462 O 336.416 -0.354395 2.13478 0
M  V30 3463 C 337.011 2.95304 1.66076 0
M  V30 3464 C 335.57 3.06496 2.18489 0
M  V30 3465 C 334.717 2.58403 1.00613 0
M  V30 3466 H 337.668 1.58285 0.114649 0
M  V30 3467 H 337.689 2.84727 2.5241 0
M  V30 3468 H 337.201 3.76387 0.946276 0
M  V30 3469 H 335.302 2.3006 2.93092 0
M  V30 3470 H 335.415 4.1208 2.44391 0
M  V30 3471 H 333.779 2.13977 1.38152 0
M  V30 3472 H 334.562 3.41932 0.306179 0
M  V30 3473 N 337.007 -0.598083 1.45811 0
M  V30 3474 C 337.917 -1.73632 1.57763 0
M  V30 3475 C 338.933 -1.67763 0.461676 0
M  V30 3476 O 340.109 -1.87949 0.723685 0
M  V30 3477 C 337.174 -3.10114 1.55018 0
M  V30 3478 C 336.235 -3.27364 2.77726 0
M  V30 3479 C 335.468 -4.57334 2.75102 0
M  V30 3480 O 335.691 -5.40258 1.8297 0
M  V30 3481 O 334.625 -4.77502 3.66437 0
M  V30 3482 H 338.451 -1.66498 2.53992 0
M  V30 3483 H 336.036 -0.763308 1.28429 0
M  V30 3484 H 337.918 -3.9141 1.56129 0
M  V30 3485 H 336.593 -3.17718 0.619431 0
M  V30 3486 H 335.5 -2.45619 2.82174 0
M  V30 3487 H 336.833 -3.24641 3.69958 0
M  V30 3488 N 338.485 -1.33259 -0.841409 0
M  V30 3489 C 339.395 -1.25332 -1.98316 0
M  V30 3490 C 340.411 -0.164364 -1.73222 0
M  V30 3491 O 341.587 -0.387486 -1.97637 0
M  V30 3492 C 338.652 -0.990078 -3.32262 0
M  V30 3493 C 337.713 -2.16879 -3.70489 0
M  V30 3494 C 336.946 -1.91801 -4.98044 0
M  V30 3495 O 337.169 -0.867075 -5.63771 0
M  V30 3496 O 336.103 -2.78267 -5.33714 0
M  V30 3497 H 339.929 -2.21344 -2.07944 0
M  V30 3498 H 337.514 -1.1328 -0.974058 0
M  V30 3499 H 339.396 -0.860321 -4.12524 0
M  V30 3500 H 338.071 -0.0602155 -3.23644 0
M  V30 3501 H 336.978 -2.35407 -2.90748 0
M  V30 3502 H 338.311 -3.0819 -3.8377 0
M  V30 3503 N 339.963 1.05934 -1.16686 0
M  V30 3504 C 340.895 2.13468 -0.834503 0
M  V30 3505 C 341.908 1.62013 0.15984 0
M  V30 3506 O 343.097 1.7838 -0.0654228 0
M  V30 3507 C 340.197 3.3817 -0.222361 0
M  V30 3508 C 339.37 4.18928 -1.25771 0
M  V30 3509 C 338.429 5.21985 -0.664703 0
M  V30 3510 O 337.455 5.53334 -1.33453 0
M  V30 3511 N 338.657 5.77919 0.546834 0
M  V30 3512 H 341.422 2.42578 -1.75999 0
M  V30 3513 H 338.983 1.21967 -1.06469 0
M  V30 3514 H 340.975 4.04266 0.187472 0
M  V30 3515 H 339.545 3.06655 0.606758 0
M  V30 3516 H 338.765 3.48433 -1.84358 0
M  V30 3517 H 340.053 4.69687 -1.95631 0
M  V30 3518 H 339.451 5.54721 1.10912 0
M  V30 3519 H 338.008 6.45573 0.898829 0
M  V30 3520 N 341.441 0.965919 1.2453 0
M  V30 3521 C 342.687 0.62776 1.92839 0
M  V30 3522 C 343.02 -0.834694 1.75347 0
M  V30 3523 O 342.295 -1.60031 1.10546 0
M  V30 3524 C 342.578 1.00109 3.45905 0
M  V30 3525 C 342.431 2.52011 3.72573 0
M  V30 3526 C 343.75 0.53435 4.36844 0
M  V30 3527 H 340.869 0.229537 0.700344 0
M  V30 3528 H 343.511 1.2046 1.46933 0
M  V30 3529 H 341.661 0.510238 3.85135 0
M  V30 3530 H 343.333 3.08559 3.42912 0
M  V30 3531 H 341.576 2.95287 3.17786 0
M  V30 3532 H 342.247 2.73183 4.79661 0
M  V30 3533 H 344.723 0.955565 4.04979 0
M  V30 3534 H 343.599 0.824152 5.42678 0
M  V30 3535 H 343.86 -0.565589 4.38467 0
M  V30 3536 N 342.919 -1.39368 0.735821 0
M  V30 3537 C 343.851 -2.2913 0.0567723 0
M  V30 3538 C 344.864 -1.46859 -0.702589 0
M  V30 3539 O 346.053 -1.69925 -0.546616 0
M  V30 3540 C 343.153 -3.25492 -0.943823 0
M  V30 3541 C 342.326 -4.36709 -0.24581 0
M  V30 3542 C 341.385 -5.13376 -1.15463 0
M  V30 3543 O 340.411 -5.65683 -0.631803 0
M  V30 3544 N 341.613 -5.24656 -2.48427 0
M  V30 3545 H 344.378 -2.88047 0.827582 0
M  V30 3546 H 341.939 -1.50957 0.585112 0
M  V30 3547 H 343.931 -3.73657 -1.55443 0
M  V30 3548 H 342.501 -2.676 -1.61583 0
M  V30 3549 H 341.721 -3.9041 0.545286 0
M  V30 3550 H 343.009 -5.08244 0.237891 0
M  V30 3551 H 342.407 -4.83679 -2.93379 0
M  V30 3552 H 340.964 -5.76258 -3.04582 0
M  V30 3553 N 344.397 -0.483516 -1.5 0
M  V30 3554 C 345.622 0.0667119 -2.07293 0
M  V30 3555 C 346.047 1.3164 -1.3436 0
M  V30 3556 O 345.405 1.76945 -0.394987 0
M  V30 3557 C 345.453 0.321126 -3.59167 0
M  V30 3558 O 344.557 1.39927 -3.87936 0
M  V30 3559 H 343.898 -0.0184758 -0.663743 0
M  V30 3560 H 346.428 -0.678125 -1.93035 0
M  V30 3561 H 346.438 0.557906 -4.04168 0
M  V30 3562 H 345.113 -0.592007 -4.11665 0
M  V30 3563 H 343.69 1.14882 -3.54763 0
M  V30 3564 N 345.875 1.56104 -0.216619 0
M  V30 3565 C 347.103 2.02563 0.421413 0
M  V30 3566 C 347.518 1.0965 1.53695 0
M  V30 3567 O 346.875 0.10521 1.82196 0
M  V30 3568 C 346.926 3.48584 0.957665 0
M  V30 3569 O 346.647 4.37953 -0.113389 0
M  V30 3570 C 348.148 4.10664 1.66943 0
M  V30 3571 H 345.368 0.662944 0.103665 0
M  V30 3572 H 347.912 2.01793 -0.331629 0
M  V30 3573 H 346.067 3.49985 1.661 0
M  V30 3574 H 346.481 5.23704 0.288932 0
M  V30 3575 H 347.955 5.14622 1.99671 0
M  V30 3576 H 348.432 3.55373 2.58083 0
M  V30 3577 H 349.038 4.13098 1.01142 0
M  V30 3578 N 347.353 -0.0568162 1.57498 0
M  V30 3579 C 348.316 -1.05038 2.03715 0
M  V30 3580 C 349.316 -1.30709 0.936577 0
M  V30 3581 O 350.506 -1.26178 1.20103 0
M  V30 3582 C 347.638 -2.39034 2.43055 0
M  V30 3583 H 348.831 -0.651715 2.92733 0
M  V30 3584 H 346.384 -0.302947 1.53336 0
M  V30 3585 H 347.119 -2.83703 1.57108 0
M  V30 3586 H 346.904 -2.21739 3.2338 0
M  V30 3587 H 348.394 -3.10421 2.79336 0
M  V30 3588 N 348.832 -1.54138 -0.328536 0
M  V30 3589 C 349.762 -1.86167 -1.40939 0
M  V30 3590 C 350.743 -0.718044 -1.54202 0
M  V30 3591 O 351.928 -0.971328 -1.68163 0
M  V30 3592 C 349.058 -2.08461 -2.77779 0
M  V30 3593 C 348.012 -3.24299 -2.7931 0
M  V30 3594 C 347.338 -3.31955 -4.19178 0
M  V30 3595 C 348.638 -4.62065 -2.43502 0
M  V30 3596 H 350.332 -2.76689 -1.14383 0
M  V30 3597 H 347.878 -1.33132 -0.548806 0
M  V30 3598 H 349.831 -2.29453 -3.53454 0
M  V30 3599 H 348.555 -1.14684 -3.05802 0
M  V30 3600 H 347.214 -3.03187 -2.0609 0
M  V30 3601 H 346.862 -2.35745 -4.44335 0
M  V30 3602 H 346.562 -4.09805 -4.2111 0
M  V30 3603 H 348.086 -3.55175 -4.96672 0
M  V30 3604 H 349.5 -4.8297 -3.08889 0
M  V30 3605 H 347.897 -5.42429 -2.56693 0
M  V30 3606 H 348.967 -4.64652 -1.38659 0
M  V30 3607 N 350.31 0.590341 -1.46126 0
M  V30 3608 C 351.535 1.37991 -1.54833 0
M  V30 3609 C 351.96 1.87163 -0.187506 0
M  V30 3610 O 351.318 1.61133 0.831008 0
M  V30 3611 C 351.366 2.54867 -2.55098 0
M  V30 3612 O 350.47 3.56061 -2.08073 0
M  V30 3613 H 349.811 0.411265 -0.521303 0
M  V30 3614 H 352.341 0.716819 -1.91632 0
M  V30 3615 H 352.351 3.01886 -2.74461 0
M  V30 3616 H 351.026 2.18429 -3.53923 0
M  V30 3617 H 349.603 3.15574 -1.98664 0
M  V30 3618 N 351.788 1.33704 0.83433 0
M  V30 3619 C 352.751 1.24244 1.92603 0
M  V30 3620 C 353.751 0.160383 1.59998 0
M  V30 3621 O 354.941 0.412228 1.69252 0
M  V30 3622 C 352.073 0.91555 3.28376 0
M  V30 3623 H 353.266 2.21287 2.02416 0
M  V30 3624 H 350.819 1.17827 1.02696 0
M  V30 3625 H 351.554 -0.0521886 3.24258 0
M  V30 3626 H 351.339 1.69811 3.53422 0
M  V30 3627 H 352.829 0.874231 4.08347 0
M  V30 3628 N 353.266 -1.05314 1.17247 0
M  V30 3629 C 354.515 -1.77685 0.954521 0
M  V30 3630 C 354.828 -1.88616 -0.518025 0
M  V30 3631 O 356.034 -2.57714 -0.854144 0
M  V30 3632 C 354.49 -3.19402 1.65863 0
M  V30 3633 C 354.098 -3.16605 3.16963 0
M  V30 3634 C 355.842 -3.96237 1.52303 0
M  V30 3635 C 353.749 -4.53103 3.80068 0
M  V30 3636 H 352.679 -0.666 0.353496 0
M  V30 3637 H 355.33 -1.1805 1.40486 0
M  V30 3638 H 353.712 -3.79355 1.13602 0
M  V30 3639 H 354.886 -2.66176 3.76148 0
M  V30 3640 H 353.201 -2.53268 3.30521 0
M  V30 3641 H 355.798 -4.97157 1.96822 0
M  V30 3642 H 356.141 -4.136 0.473401 0
M  V30 3643 H 356.674 -3.42829 2.01775 0
M  V30 3644 H 353.413 -4.40946 4.85023 0
M  V30 3645 H 352.933 -5.03686 3.2567 0
M  V30 3646 H 354.612 -5.22045 3.82202 0
M  V30 3647 N 354.744 -0.972509 -1.24016 0
M  V30 3648 C 355.707 -0.511403 -2.23422 0
M  V30 3649 C 356.707 0.394679 -1.55881 0
M  V30 3650 O 357.897 0.189469 -1.73167 0
M  V30 3651 C 355.029 0.258769 -3.39916 0
M  V30 3652 H 356.222 -1.39024 -2.6573 0
M  V30 3653 H 353.775 -0.757585 -1.36713 0
M  V30 3654 H 354.51 1.1545 -3.03054 0
M  V30 3655 H 354.295 -0.391522 -3.9014 0
M  V30 3656 H 355.785 0.570244 -4.13688 0
M  V30 3657 N 356.222 1.38976 -0.743202 0
M  V30 3658 C 357.154 2.29096 -0.0689228 0
M  V30 3659 C 358.167 1.47229 0.694791 0
M  V30 3660 O 359.356 1.70212 0.537597 0
M  V30 3661 C 356.456 3.25988 0.926548 0
M  V30 3662 C 355.629 4.36833 0.222647 0
M  V30 3663 C 354.688 5.13981 1.12739 0
M  V30 3664 O 353.714 5.6601 0.601795 0
M  V30 3665 N 354.916 5.25966 2.45641 0
M  V30 3666 H 357.681 2.87604 -0.842846 0
M  V30 3667 H 355.242 1.50645 -0.593109 0
M  V30 3668 H 357.234 3.74476 1.5346 0
M  V30 3669 H 355.804 2.68453 1.60162 0
M  V30 3670 H 355.024 3.90116 -0.565983 0
M  V30 3671 H 356.312 5.0811 -0.264841 0
M  V30 3672 H 355.71 4.85228 2.9081 0
M  V30 3673 H 354.267 5.77865 3.01522 0
M  V30 3674 N 357.7 0.491464 1.49741 0
M  V30 3675 C 358.946 -0.0485431 2.03342 0
M  V30 3676 C 359.301 -1.35566 1.36527 0
M  V30 3677 O 358.594 -1.85262 0.488729 0
M  V30 3678 C 358.788 -0.267329 3.56399 0
M  V30 3679 C 358.617 1.01703 4.38049 0
M  V30 3680 C 357.387 1.56614 4.80417 0
M  V30 3681 C 359.585 1.91782 4.77204 0
M  V30 3682 N 357.567 2.7974 5.4646 0
M  V30 3683 C 358.938 2.99489 5.42868 0
M  V30 3684 C 360.993 1.92575 4.5915 0
M  V30 3685 C 359.696 4.08005 5.92389 0
M  V30 3686 C 361.722 3.0006 5.09626 0
M  V30 3687 C 361.084 4.06485 5.75282 0
M  V30 3688 H 357.183 0.0227779 0.781668 0
M  V30 3689 H 359.767 0.664204 1.8302 0
M  V30 3690 H 357.938 -0.949126 3.76625 0
M  V30 3691 H 359.67 -0.803492 3.96644 0
M  V30 3692 H 356.425 1.11256 4.60347 0
M  V30 3693 H 356.849 3.42323 5.84075 0
M  V30 3694 H 361.491 1.11605 4.07804 0
M  V30 3695 H 359.209 4.89779 6.42761 0
M  V30 3696 H 362.795 3.01681 4.97473 0
M  V30 3697 H 361.675 4.88287 6.13633 0
M  V30 3698 N 359.178 -1.55987 0.224894 0
M  V30 3699 C 360.111 -2.16413 -0.723929 0
M  V30 3700 C 361.089 -1.10952 -1.18863 0
M  V30 3701 O 362.273 -1.39225 -1.27077 0
M  V30 3702 C 359.4 -2.74711 -1.98121 0
M  V30 3703 C 358.446 -3.9303 -1.6562 0
M  V30 3704 S 359.279 -5.29817 -0.778058 0
M  V30 3705 C 360.435 -5.91555 -2.04483 0
M  V30 3706 H 360.668 -2.96555 -0.210347 0
M  V30 3707 H 358.201 -1.54397 0.00955457 0
M  V30 3708 H 360.159 -3.08938 -2.70311 0
M  V30 3709 H 358.82 -1.94555 -2.46591 0
M  V30 3710 H 358.013 -4.32334 -2.59043 0
M  V30 3711 H 357.615 -3.59966 -1.01491 0
M  V30 3712 H 359.907 -6.07732 -2.99446 0
M  V30 3713 H 360.85 -6.87498 -1.69563 0
M  V30 3714 H 361.258 -5.20419 -2.18688 0
M  V30 3715 N 360.656 0.0484629 -1.57525 0
M  V30 3716 C 361.619 1.03956 -2.04269 0
M  V30 3717 C 362.619 1.30211 -0.943496 0
M  V30 3718 O 363.809 1.25539 -1.20771 0
M  V30 3719 C 360.941 2.37742 -2.44319 0
M  V30 3720 H 362.134 0.636182 -2.93075 0
M  V30 3721 H 359.687 0.294811 -1.53494 0
M  V30 3722 H 360.422 2.82866 -1.5861 0
M  V30 3723 H 360.207 2.20021 -3.24551 0
M  V30 3724 H 361.697 3.08936 -2.80978 0
M  V30 3725 N 362.134 1.5431 0.320358 0
M  V30 3726 C 363.383 1.7188 1.05546 0
M  V30 3727 C 363.696 0.501143 1.89071 0
M  V30 3728 O 364.902 0.558258 2.65699 0
M  V30 3729 C 363.358 3.04025 1.92605 0
M  V30 3730 C 362.966 4.33207 1.14176 0
M  V30 3731 C 364.71 3.30959 2.65832 0
M  V30 3732 C 362.617 5.56412 2.00399 0
M  V30 3733 H 361.547 0.640547 0.397763 0
M  V30 3734 H 364.198 1.80802 0.313522 0
M  V30 3735 H 362.58 2.89019 2.7071 0
M  V30 3736 H 363.754 4.58989 0.40819 0
M  V30 3737 H 362.069 4.13062 0.526165 0
M  V30 3738 H 364.666 4.20203 3.30656 0
M  V30 3739 H 365.009 2.48979 3.33639 0
M  V30 3740 H 365.542 3.46847 1.94787 0
M  V30 3741 H 362.281 6.41004 1.37094 0
M  V30 3742 H 361.801 5.34844 2.7148 0
M  V30 3743 H 363.48 5.92938 2.58908 0
M  V30 3744 N 363.613 -0.582584 1.46437 0
M  V30 3745 C 365.024 -1.1647 1.45916 0
M  V30 3746 C 365.375 -1.95177 0.200077 0
M  V30 3747 O 364.5 -2.04874 -0.696819 0
M  V30 3748 C 365.095 -2.11885 2.64367 0
M  V30 3749 C 363.654 -2.65421 2.66887 0
M  V30 3750 C 362.801 -1.41294 2.38603 0
M  V30 3751 H 365.752 -0.370514 1.54314 0
M  V30 3752 H 365.773 -2.9535 2.39892 0
M  V30 3753 H 365.285 -1.54573 3.5599 0
M  V30 3754 H 363.386 -3.26602 1.79338 0
M  V30 3755 H 363.499 -3.08147 3.66854 0
M  V30 3756 H 361.863 -1.71109 1.88663 0
M  V30 3757 H 362.646 -0.858125 3.32402 0
M  V30 3758 N 365.091 -1.34144 -0.827227 0
M  V30 3759 C 366.368 -1.16844 -1.56865 0
M  V30 3760 C 366.748 0.260654 -2.09485 0
M  V30 3761 O 366.096 1.26138 -1.9053 0
M  V30 3762 C 366.306 -2.21939 -2.6934 0
M  V30 3763 C 367.654 -2.56695 -3.3822 0
M  V30 3764 O 368.678 -2.20695 -2.79593 0
M  V30 3765 O 367.537 -3.18518 -4.44082 0
M  V30 3766 H 364.631 -0.452669 -0.692112 0
M  V30 3767 H 367.177 -1.45763 -0.868973 0
M  V30 3768 H 365.949 -3.17882 -2.28182 0
M  V30 3769 H 365.572 -1.94172 -3.46962 0
M  V30 3770 N 366.569 1.04691 -1.17803 0
M  V30 3771 C 367.519 2.10856 -0.867391 0
M  V30 3772 C 368.503 1.601 0.160206 0
M  V30 3773 O 369.695 1.76948 -0.042947 0
M  V30 3774 C 366.824 3.411 -0.388012 0
M  V30 3775 C 365.91 3.9864 -1.44732 0
M  V30 3776 N 366.301 4.30075 -2.66212 0
M  V30 3777 C 364.599 4.26439 -1.30637 0
M  V30 3778 C 365.3 4.76033 -3.34317 0
M  V30 3779 N 364.276 4.76462 -2.61696 0
M  V30 3780 H 368.078 2.33029 -1.79094 0
M  V30 3781 H 365.592 1.22386 -1.0675 0
M  V30 3782 H 367.589 4.16641 -0.146994 0
M  V30 3783 H 366.249 3.20357 0.529271 0
M  V30 3784 H 367.26 4.19917 -3.03134 0
M  V30 3785 H 363.937 4.15056 -0.451129 0
M  V30 3786 H 365.327 5.09427 -4.38103 0
M  V30 3787 N 368.047 0.979072 1.23499 0
M  V30 3788 C 369.01 0.523244 2.23147 0
M  V30 3789 C 370.01 -0.386406 1.56088 0
M  V30 3790 O 371.2 -0.180283 1.73265 0
M  V30 3791 C 368.332 -0.240739 3.40049 0
M  V30 3792 H 369.525 1.40432 2.64989 0
M  V30 3793 H 367.078 0.764824 1.36309 0
M  V30 3794 H 367.813 -1.13841 3.03662 0
M  V30 3795 H 367.598 0.412207 3.89927 0
M  V30 3796 H 369.088 -0.548297 4.13985 0
M  V30 3797 N 369.525 -1.3858 0.750561 0
M  V30 3798 C 370.941 -1.53759 0.427824 0
M  V30 3799 C 371.141 -1.71401 -1.05943 0
M  V30 3800 O 370.197 -1.72331 -1.84549 0
M  V30 3801 C 371.51 -2.74642 1.22443 0
M  V30 3802 C 373.058 -2.88489 1.2142 0
M  V30 3803 C 373.533 -4.12329 1.9937 0
M  V30 3804 N 375.024 -4.194 1.96616 0
M  V30 3805 C 375.759 -5.14209 2.53727 0
M  V30 3806 N 375.255 -6.14709 3.19539 0
M  V30 3807 N 377.048 -5.06537 2.43673 0
M  V30 3808 H 369.199 -1.25377 1.71447 0
M  V30 3809 H 371.462 -0.608844 0.726645 0
M  V30 3810 H 371.168 -2.68 2.27747 0
M  V30 3811 H 371.042 -3.67745 0.839273 0
M  V30 3812 H 373.429 -2.94614 0.169232 0
M  V30 3813 H 373.51 -1.96406 1.63885 0
M  V30 3814 H 373.154 -4.06966 3.03877 0
M  V30 3815 H 373.084 -5.03486 1.54302 0
M  V30 3816 H 375.575 -3.47421 1.48684 0
M  V30 3817 H 375.888 -6.8354 3.60545 0
M  V30 3818 H 374.233 -6.1505 3.23633 0
M  V30 3819 H 377.424 -4.26962 1.91889 0
M  V30 3820 H 377.597 -5.80245 2.88479 0
M  V30 3821 N 371.003 -0.499398 -1.49478 0
M  V30 3822 C 371.935 0.316575 -2.27003 0
M  V30 3823 C 372.948 0.932047 -1.33479 0
M  V30 3824 O 374.137 0.815658 -1.58774 0
M  V30 3825 C 371.237 1.46055 -3.05812 0
M  V30 3826 C 370.41 0.952679 -4.26899 0
M  V30 3827 C 369.469 1.97407 -4.87767 0
M  V30 3828 O 368.495 1.54326 -5.4788 0
M  V30 3829 N 369.697 3.30436 -4.77276 0
M  V30 3830 H 372.462 -0.348168 -2.97671 0
M  V30 3831 H 370.023 -0.33185 -1.58463 0
M  V30 3832 H 372.015 2.14135 -3.43407 0
M  V30 3833 H 370.585 2.02948 -2.37762 0
M  V30 3834 H 369.805 0.0968248 -3.94081 0
M  V30 3835 H 371.093 0.59174 -5.05347 0
M  V30 3836 H 370.491 3.68126 -4.29534 0
M  V30 3837 H 369.048 3.94235 -5.19059 0
M  V30 3838 N 372.481 1.55866 -0.233164 0
M  V30 3839 C 373.411 2.23783 0.666599 0
M  V30 3840 C 374.392 1.21343 1.19205 0
M  V30 3841 O 375.577 1.4996 1.23392 0
M  V30 3842 C 372.707 2.92671 1.86978 0
M  V30 3843 C 371.661 4.01682 1.47768 0
M  V30 3844 C 370.987 4.57926 2.76058 0
M  V30 3845 C 372.287 5.18126 0.658993 0
M  V30 3846 H 373.981 2.99232 0.100306 0
M  V30 3847 H 371.527 1.43924 0.046804 0
M  V30 3848 H 373.48 3.3888 2.50476 0
M  V30 3849 H 372.204 2.14688 2.46123 0
M  V30 3850 H 370.863 3.56222 0.866106 0
M  V30 3851 H 370.511 3.76659 3.33372 0
M  V30 3852 H 370.211 5.31505 2.50552 0
M  V30 3853 H 371.735 5.06859 3.40479 0
M  V30 3854 H 373.149 5.60644 1.19795 0
M  V30 3855 H 371.546 5.98009 0.500552 0
M  V30 3856 H 372.616 4.83763 -0.331856 0
M  V30 3857 N 373.959 -0.0401083 1.57549 0
M  V30 3858 C 375.187 -0.745196 1.93014 0
M  V30 3859 C 375.602 -1.6948 0.831984 0
M  V30 3860 O 374.959 -1.81482 -0.192463 0
M  V30 3861 C 375.01 -1.51176 3.28372 0
M  V30 3862 O 374.731 -0.600284 4.33968 0
M  V30 3863 C 376.232 -2.315 3.78051 0
M  V30 3864 H 373.452 -0.210088 0.637263 0
M  V30 3865 H 375.996 -0.000924689 2.045 0
M  V30 3866 H 374.151 -2.20801 3.18317 0
M  V30 3867 H 374.565 -1.13669 5.12035 0
M  V30 3868 H 376.039 -2.80697 4.75303 0
M  V30 3869 H 376.516 -3.12436 3.08675 0
M  V30 3870 H 377.122 -1.66971 3.91153 0
M  V30 3871 N 375.437 -1.54477 -0.31217 0
M  V30 3872 C 376.384 -1.84655 -1.38461 0
M  V30 3873 C 377.354 -0.694536 -1.50882 0
M  V30 3874 O 378.539 -0.942081 -1.6592 0
M  V30 3875 C 375.679 -2.0896 -2.74645 0
M  V30 3876 C 374.792 -3.36618 -2.70763 0
M  V30 3877 C 373.927 -3.50824 -3.98868 0
M  V30 3878 C 372.966 -4.72315 -3.89339 0
M  V30 3879 N 372.103 -4.83387 -5.09197 0
M  V30 3880 H 376.943 -2.76142 -1.12026 0
M  V30 3881 H 374.48 -1.36748 -0.542065 0
M  V30 3882 H 376.438 -2.21045 -3.53829 0
M  V30 3883 H 375.068 -1.20752 -2.99364 0
M  V30 3884 H 374.12 -3.33211 -1.83506 0
M  V30 3885 H 375.432 -4.25917 -2.59608 0
M  V30 3886 H 374.586 -3.62513 -4.86486 0
M  V30 3887 H 373.325 -2.59638 -4.12843 0
M  V30 3888 H 372.33 -4.6067 -3.00105 0
M  V30 3889 H 373.555 -5.64897 -3.76919 0
M  V30 3890 H 371.501 -3.9512 -5.23657 0
M  V30 3891 H 371.418 -5.66669 -5.00422 0
M  V30 3892 H 372.686 -4.9942 -5.98498 0
M  V30 3893 N 376.915 0.57481 -1.46744 0
M  V30 3894 C 377.878 1.66533 -1.57478 0
M  V30 3895 C 378.878 1.54338 -0.451263 0
M  V30 3896 O 380.068 1.58814 -0.715813 0
M  V30 3897 C 377.2 3.05999 -1.50259 0
M  V30 3898 H 378.393 1.58372 -2.54673 0
M  V30 3899 H 375.946 0.793301 -1.34672 0
M  V30 3900 H 376.681 3.19709 -0.543725 0
M  V30 3901 H 376.466 3.16259 -2.31781 0
M  V30 3902 H 377.956 3.8537 -1.60872 0
M  V30 3903 N 378.394 1.34581 0.820102 0
M  V30 3904 C 379.327 1.20735 1.93644 0
M  V30 3905 C 380.305 0.0983343 1.62302 0
M  V30 3906 O 381.489 0.263997 1.86642 0
M  V30 3907 C 378.616 0.856037 3.27704 0
M  V30 3908 C 377.662 1.97521 3.78005 0
M  V30 3909 S 378.495 3.58906 3.97425 0
M  V30 3910 C 379.651 3.25822 5.34407 0
M  V30 3911 H 379.884 2.15231 2.05093 0
M  V30 3912 H 377.417 1.1964 0.97599 0
M  V30 3913 H 379.375 0.660133 4.05157 0
M  V30 3914 H 378.036 -0.0706253 3.14021 0
M  V30 3915 H 377.229 1.68321 4.75062 0
M  V30 3916 H 376.831 2.12875 3.07507 0
M  V30 3917 H 379.123 2.77812 6.17922 0
M  V30 3918 H 380.066 4.22029 5.68592 0
M  V30 3919 H 380.474 2.61932 5.00052 0
M  V30 3920 N 379.872 -1.04064 1.18357 0
M  V30 3921 C 380.805 -2.11618 0.854 0
M  V30 3922 C 381.783 -1.61555 -0.184043 0
M  V30 3923 O 382.967 -1.88395 -0.0630048 0
M  V30 3924 C 380.094 -3.37574 0.27597 0
M  V30 3925 C 379.14 -4.06485 1.2912 0
M  V30 3926 S 379.973 -4.53543 2.84709 0
M  V30 3927 C 381.129 -5.82732 2.28417 0
M  V30 3928 H 381.362 -2.39247 1.76488 0
M  V30 3929 H 378.895 -1.16832 1.00944 0
M  V30 3930 H 380.853 -4.10468 -0.051026 0
M  V30 3931 H 379.514 -3.0806 -0.613028 0
M  V30 3932 H 378.707 -4.97024 0.835633 0
M  V30 3933 H 378.309 -3.39708 1.56443 0
M  V30 3934 H 380.601 -6.56677 1.66677 0
M  V30 3935 H 381.544 -6.33052 3.17256 0
M  V30 3936 H 381.952 -5.37838 1.71436 0
M  V30 3937 N 381.35 -0.985608 -1.22978 0
M  V30 3938 C 382.766 -0.695104 -1.43668 0
M  V30 3939 C 382.966 0.736866 -1.87543 0
M  V30 3940 O 382.022 1.50868 -2.02473 0
M  V30 3941 C 383.335 -1.69447 -2.48412 0
M  V30 3942 C 384.883 -1.70909 -2.62219 0
M  V30 3943 C 385.358 -2.6969 -3.70178 0
M  V30 3944 N 386.849 -2.6824 -3.77626 0
M  V30 3945 C 387.584 -3.41339 -4.60733 0
M  V30 3946 N 387.08 -4.24015 -5.4789 0
M  V30 3947 N 388.873 -3.30079 -4.54977 0
M  V30 3948 H 381.024 -1.91054 -0.928016 0
M  V30 3949 H 383.287 -0.823553 -0.469536 0
M  V30 3950 H 382.993 -2.7188 -2.23102 0
M  V30 3951 H 382.867 -1.48147 -3.46889 0
M  V30 3952 H 385.254 -0.691785 -2.86877 0
M  V30 3953 H 385.335 -1.96276 -1.6404 0
M  V30 3954 H 384.979 -3.71566 -3.46268 0
M  V30 3955 H 384.909 -2.41595 -4.67909 0
M  V30 3956 H 387.4 -2.08243 -3.15346 0
M  V30 3957 H 387.713 -4.76636 -6.08308 0
M  V30 3958 H 386.058 -4.28104 -5.47496 0
M  V30 3959 H 389.249 -2.64937 -3.85909 0
M  V30 3960 H 389.422 -3.87308 -5.19516 0
M  V30 3961 N 382.828 1.3818 -0.7579 0
M  V30 3962 C 383.775 2.30416 -0.133057 0
M  V30 3963 C 384.745 1.50398 0.704957 0
M  V30 3964 O 385.93 1.79014 0.660192 0
M  V30 3965 C 383.07 3.36834 0.750813 0
M  V30 3966 C 382.183 4.31879 -0.102297 0
M  V30 3967 C 381.318 5.25368 0.784979 0
M  V30 3968 C 380.357 6.12058 -0.0715046 0
M  V30 3969 N 379.494 6.97832 0.772972 0
M  V30 3970 H 384.334 2.83274 -0.925186 0
M  V30 3971 H 381.871 1.39461 -0.467866 0
M  V30 3972 H 383.829 3.97145 1.27794 0
M  V30 3973 H 382.459 2.85374 1.50868 0
M  V30 3974 H 381.511 3.72991 -0.747095 0
M  V30 3975 H 382.823 4.92921 -0.763552 0
M  V30 3976 H 381.977 5.90818 1.37911 0
M  V30 3977 H 380.716 4.64703 1.47996 0
M  V30 3978 H 379.721 5.456 -0.678272 0
M  V30 3979 H 380.946 6.74793 -0.763606 0
M  V30 3980 H 378.892 6.3971 1.45282 0
M  V30 3981 H 378.809 7.55812 0.168709 0
M  V30 3982 H 380.077 7.67687 1.35194 0
M  V30 3983 N 384.306 0.507319 1.49211 0
M  V30 3984 C 385.269 -0.256763 2.27757 0
M  V30 3985 C 386.269 -0.888287 1.34038 0
M  V30 3986 O 387.459 -0.751841 1.5714 0
M  V30 3987 C 384.591 -1.36905 3.12202 0
M  V30 3988 H 385.784 0.432557 2.96764 0
M  V30 3989 H 383.337 0.262488 1.5408 0
M  V30 3990 H 384.072 -2.09233 2.47775 0
M  V30 3991 H 383.857 -0.921599 3.81115 0
M  V30 3992 H 385.347 -1.9071 3.7151 0
M  V30 3993 N 385.784 -1.5574 0.241426 0
M  V30 3994 C 387.012 -2.03208 -0.389134 0
M  V30 3995 C 387.427 -1.12082 -1.51931 0
M  V30 3996 O 386.784 -0.134183 -1.82006 0
M  V30 3997 C 386.835 -3.50064 -0.902087 0
M  V30 3998 O 386.556 -4.37717 0.18305 0
M  V30 3999 C 388.057 -4.13268 -1.60389 0
M  V30 4000 H 385.277 -0.664509 -0.0931053 0
M  V30 4001 H 387.821 -2.0124 0.36369 0
M  V30 4002 H 385.976 -3.52583 -1.60511 0
M  V30 4003 H 386.39 -5.24097 -0.205579 0
M  V30 4004 H 387.864 -5.17733 -1.91458 0
M  V30 4005 H 388.341 -3.59434 -2.52397 0
M  V30 4006 H 388.947 -4.14655 -0.945576 0
M  V30 4007 N 387.262 0.0317525 -1.57568 0
M  V30 4008 C 388.225 1.01783 -2.0536 0
M  V30 4009 C 389.225 1.29203 -0.957253 0
M  V30 4010 O 390.415 1.24251 -1.22095 0
M  V30 4011 C 387.547 2.35137 -2.46827 0
M  V30 4012 H 388.74 0.605062 -2.93733 0
M  V30 4013 H 386.293 0.278514 -1.53799 0
M  V30 4014 H 387.028 2.81168 -1.61602 0
M  V30 4015 H 386.813 2.16566 -3.26866 0
M  V30 4016 H 388.303 3.05938 -2.84239 0
M  V30 4017 N 388.74 1.54641 0.303973 0
M  V30 4018 C 389.965 1.78092 1.06292 0
M  V30 4019 C 390.39 0.537342 1.80262 0
M  V30 4020 O 389.748 -0.511993 1.7392 0
M  V30 4021 C 389.796 2.98612 2.02147 0
M  V30 4022 O 388.9 2.71528 3.10397 0
M  V30 4023 H 388.241 0.589548 0.305497 0
M  V30 4024 H 390.771 2.01716 0.3423 0
M  V30 4025 H 390.781 3.265 2.44667 0
M  V30 4026 H 389.456 3.88785 1.47714 0
M  V30 4027 H 388.033 2.54648 2.72413 0
M  V30 4028 N 390.218 -0.567019 1.47046 0
M  V30 4029 C 391.634 -0.891975 1.32348 0
M  V30 4030 C 391.834 -1.99154 0.306616 0
M  V30 4031 O 390.89 -2.50883 -0.28532 0
M  V30 4032 C 392.203 -1.29449 2.7141 0
M  V30 4033 C 393.751 -1.40646 2.79621 0
M  V30 4034 C 394.226 -1.84257 4.19301 0
M  V30 4035 N 395.717 -1.91424 4.21795 0
M  V30 4036 C 396.452 -2.26476 5.26779 0
M  V30 4037 N 395.948 -2.60211 6.42077 0
M  V30 4038 N 397.741 -2.27166 5.14152 0
M  V30 4039 H 389.892 0.159074 2.11803 0
M  V30 4040 H 392.155 0.00849752 0.947962 0
M  V30 4041 H 391.861 -0.560448 3.47206 0
M  V30 4042 H 391.735 -2.25273 3.02542 0
M  V30 4043 H 394.122 -2.13133 2.04104 0
M  V30 4044 H 394.203 -0.430339 2.52154 0
M  V30 4045 H 393.847 -1.12343 4.95319 0
M  V30 4046 H 393.777 -2.82855 4.44185 0
M  V30 4047 H 396.268 -1.6778 3.38612 0
M  V30 4048 H 396.581 -2.85956 7.17948 0
M  V30 4049 H 394.926 -2.57813 6.45413 0
M  V30 4050 H 398.117 -2.00244 4.23107 0
M  V30 4051 H 398.29 -2.54154 5.96079 0
M  V30 4052 N 391.696 -1.35014 -0.812953 0
M  V30 4053 C 392.626 -1.30069 -1.93919 0
M  V30 4054 C 393.607 -0.176275 -1.69184 0
M  V30 4055 O 394.792 -0.370227 -1.90638 0
M  V30 4056 C 391.922 -1.06547 -3.30552 0
M  V30 4057 C 390.876 -2.15561 -3.69753 0
M  V30 4058 C 390.202 -1.77214 -5.04479 0
M  V30 4059 C 391.502 -3.57476 -3.808 0
M  V30 4060 H 393.196 -2.24303 -1.98314 0
M  V30 4061 H 390.742 -1.07977 -0.952736 0
M  V30 4062 H 392.695 -1.01729 -4.08937 0
M  V30 4063 H 391.419 -0.0875719 -3.26483 0
M  V30 4064 H 390.078 -2.19466 -2.9365 0
M  V30 4065 H 389.726 -0.780589 -4.96906 0
M  V30 4066 H 389.426 -2.50184 -5.31678 0
M  V30 4067 H 390.95 -1.7391 -5.8531 0
M  V30 4068 H 392.364 -3.55929 -4.4943 0
M  V30 4069 H 390.761 -4.29152 -4.19462 0
M  V30 4070 H 391.831 -3.94091 -2.82525 0
M  V30 4071 N 393.175 1.03435 -1.18907 0
M  V30 4072 C 394.421 1.77005 -0.989798 0
M  V30 4073 C 394.754 1.88205 0.478816 0
M  V30 4074 O 394.029 1.39481 1.35556 0
M  V30 4075 C 394.312 3.19925 -1.65287 0
M  V30 4076 C 394.165 3.1663 -3.19477 0
M  V30 4077 C 395.484 4.18189 -1.37134 0
M  V30 4078 H 392.603 0.642538 -0.360991 0
M  V30 4079 H 395.245 1.20784 -1.46667 0
M  V30 4080 H 393.395 3.67929 -1.24741 0
M  V30 4081 H 395.067 2.76567 -3.692 0
M  V30 4082 H 393.31 2.54491 -3.51307 0
M  V30 4083 H 393.981 4.1758 -3.61013 0
M  V30 4084 H 396.457 3.78761 -1.72276 0
M  V30 4085 H 395.333 5.16394 -1.86087 0
M  V30 4086 H 395.594 4.41112 -0.295424 0
M  V30 4087 N 394.653 0.992116 1.22453 0
M  V30 4088 C 395.881 0.685944 1.95198 0
M  V30 4089 C 396.296 -0.749233 1.73297 0
M  V30 4090 O 395.653 -1.50549 1.03156 0
M  V30 4091 C 395.704 0.981395 3.47924 0
M  V30 4092 O 395.425 2.36018 3.6909 0
M  V30 4093 C 396.926 0.692815 4.37853 0
M  V30 4094 H 394.146 0.253821 0.621141 0
M  V30 4095 H 396.69 1.32668 1.55626 0
M  V30 4096 H 394.845 0.386481 3.85467 0
M  V30 4097 H 395.259 2.45884 4.63294 0
M  V30 4098 H 396.733 0.949818 5.43767 0
M  V30 4099 H 397.21 -0.373181 4.37612 0
M  V30 4100 H 397.816 1.26874 4.05935 0
M  V30 4101 N 396.131 -1.37776 0.765217 0
M  V30 4102 C 397.063 -2.28958 0.105361 0
M  V30 4103 C 398.076 -1.48316 -0.67128 0
M  V30 4104 O 399.265 -1.71046 -0.51045 0
M  V30 4105 C 396.365 -3.27421 -0.874569 0
M  V30 4106 C 395.538 -4.37132 -0.153123 0
M  V30 4107 C 394.597 -5.1571 -1.04547 0
M  V30 4108 O 393.623 -5.66896 -0.511672 0
M  V30 4109 N 394.825 -5.29808 -2.37243 0
M  V30 4110 H 397.59 -2.86227 0.888495 0
M  V30 4111 H 395.151 -1.49682 0.617 0
M  V30 4112 H 397.143 -3.7687 -1.47483 0
M  V30 4113 H 395.713 -2.70967 -1.55871 0
M  V30 4114 H 394.933 -3.89166 0.627975 0
M  V30 4115 H 396.221 -5.07625 0.345643 0
M  V30 4116 H 395.619 -4.89793 -2.83054 0
M  V30 4117 H 394.176 -5.82589 -2.9229 0
M  V30 4118 N 397.609 -0.515225 -1.4894 0
M  V30 4119 C 399.025 -0.172099 -1.58669 0
M  V30 4120 C 399.225 1.32405 -1.51892 0
M  V30 4121 O 398.281 2.10116 -1.40027 0
M  V30 4122 C 399.594 -0.761533 -2.90897 0
M  V30 4123 C 401.142 -0.728926 -3.04394 0
M  V30 4124 C 401.617 -1.29667 -4.39261 0
M  V30 4125 N 403.108 -1.25799 -4.4579 0
M  V30 4126 C 403.843 -1.66733 -5.48623 0
M  V30 4127 N 403.339 -2.15327 -6.58488 0
M  V30 4128 N 405.132 -1.58061 -5.39419 0
M  V30 4129 H 397.283 -1.48778 -1.51588 0
M  V30 4130 H 399.546 -0.617968 -0.718901 0
M  V30 4131 H 399.252 -1.81136 -3.01468 0
M  V30 4132 H 399.126 -0.230106 -3.76497 0
M  V30 4133 H 401.513 0.312098 -2.93445 0
M  V30 4134 H 401.594 -1.29766 -2.20442 0
M  V30 4135 H 401.238 -2.33655 -4.50963 0
M  V30 4136 H 401.168 -0.703752 -5.21876 0
M  V30 4137 H 403.659 -0.902102 -3.66975 0
M  V30 4138 H 403.972 -2.44594 -7.33071 0
M  V30 4139 H 402.317 -2.19311 -6.59491 0
M  V30 4140 H 405.508 -1.19906 -4.52482 0
M  V30 4141 H 405.681 -1.90284 -6.19432 0
M  V30 4142 N 399.087 1.5561 -0.249682 0
M  V30 4143 C 400.364 1.90932 0.424761 0
M  V30 4144 C 400.744 1.17078 1.75658 0
M  V30 4145 O 400.092 0.289176 2.26663 0
M  V30 4146 C 400.302 3.43975 0.590109 0
M  V30 4147 C 401.65 4.15281 0.884714 0
M  V30 4148 O 402.674 3.49729 0.67587 0
M  V30 4149 O 401.533 5.31236 1.28259 0
M  V30 4150 H 398.627 0.794815 0.228468 0
M  V30 4151 H 401.173 1.67135 -0.293954 0
M  V30 4152 H 399.945 3.89748 -0.34818 0
M  V30 4153 H 399.568 3.73644 1.35926 0
M  V30 4154 N 400.565 -0.0233959 1.57583 0
M  V30 4155 C 401.528 -1.00693 2.05897 0
M  V30 4156 C 402.528 -1.28693 0.964092 0
M  V30 4157 O 403.718 -1.23602 1.22753 0
M  V30 4158 C 400.85 -2.33825 2.4807 0
M  V30 4159 H 402.043 -0.589476 2.9405 0
M  V30 4160 H 399.596 -0.270354 1.53944 0
M  V30 4161 H 400.331 -2.80307 1.6309 0
M  V30 4162 H 400.116 -2.1483 3.2801 0
M  V30 4163 H 401.606 -3.04426 2.85857 0
M  V30 4164 N 402.043 -1.548 -0.295768 0
M  V30 4165 C 403.32 -1.65014 -1.05023 0
M  V30 4166 C 403.7 -0.501805 -2.05049 0
M  V30 4167 O 403.048 0.500869 -2.22943 0
M  V30 4168 C 403.258 -3.03252 -1.72741 0
M  V30 4169 C 404.606 -3.60242 -2.24746 0
M  V30 4170 O 405.63 -3.05737 -1.82765 0
M  V30 4171 O 404.489 -4.55687 -3.01681 0
M  V30 4172 H 401.583 -0.669314 -0.485744 0
M  V30 4173 H 404.129 -1.67144 -0.293438 0
M  V30 4174 H 402.901 -3.7827 -1.00138 0
M  V30 4175 H 402.524 -3.04922 -2.55163 0
M  V30 4176 N 403.521 0.559213 -1.47345 0
M  V30 4177 C 404.767 1.31843 -1.54095 0
M  V30 4178 C 405.1 1.93149 -0.201726 0
M  V30 4179 O 404.375 1.77759 0.789428 0
M  V30 4180 C 404.658 2.43006 -2.65744 0
M  V30 4181 C 404.511 1.86581 -4.09277 0
M  V30 4182 C 405.83 3.44943 -2.73318 0
M  V30 4183 H 402.949 0.478012 -0.560957 0
M  V30 4184 H 405.591 0.625977 -1.79392 0
M  V30 4185 H 403.741 3.02072 -2.44305 0
M  V30 4186 H 405.413 1.31792 -4.42073 0
M  V30 4187 H 403.656 1.17268 -4.17649 0
M  V30 4188 H 404.327 2.66933 -4.83168 0
M  V30 4189 H 406.803 2.95793 -2.92653 0
M  V30 4190 H 405.679 4.20153 -3.53218 0
M  V30 4191 H 405.94 4.03665 -1.80296 0
M  V30 4192 N 404.999 1.35443 0.805782 0
M  V30 4193 C 405.931 1.24285 1.92577 0
M  V30 4194 C 406.944 0.165962 1.61952 0
M  V30 4195 O 408.133 0.419303 1.73505 0
M  V30 4196 C 405.233 0.891272 3.2697 0
M  V30 4197 C 404.406 2.06669 3.85495 0
M  V30 4198 C 403.465 1.69077 4.98297 0
M  V30 4199 O 402.491 2.4096 5.15681 0
M  V30 4200 N 403.693 0.614869 5.77234 0
M  V30 4201 H 406.458 2.20777 2.02676 0
M  V30 4202 H 404.019 1.28623 0.983243 0
M  V30 4203 H 406.011 0.621256 3.99903 0
M  V30 4204 H 404.581 0.016004 3.12596 0
M  V30 4205 H 403.801 2.50046 3.04747 0
M  V30 4206 H 405.089 2.85237 4.21328 0
M  V30 4207 H 404.487 0.017648 5.65697 0
M  V30 4208 H 403.044 0.404636 6.50543 0
M  V30 4209 N 406.477 -1.02803 1.19454 0
M  V30 4210 C 407.425 -2.13213 0.929673 0
M  V30 4211 C 408.419 -1.69011 -0.114806 0
M  V30 4212 O 409.625 -1.79967 0.0345147 0
M  V30 4213 H 406 -0.69662 0.28324 0
M  V30 4214 H 407.971 -2.32744 1.86743 0
M  V30 4215 C 406.72 -3.4429 0.485797 0
M  V30 4216 H 406.043 -3.7872 1.28105 0
M  V30 4217 H 407.483 -4.22638 0.339582 0
M  V30 4218 C 405.942 -3.27258 -0.800244 0
M  V30 4219 O 406.472 -3.55967 -1.86146 0
M  V30 4220 N 404.678 -2.80545 -0.75781 0
M  V30 4221 H 404.225 -2.57382 0.106039 0
M  V30 4222 H 404.183 -2.6953 -1.61867 0
M  V30 4223 N 407.956 -0.998596 -1.21925 0
M  V30 4224 C 409.203 -0.677663 -1.90824 0
M  V30 4225 C 409.531 0.790905 -1.77693 0
M  V30 4226 O 408.786 1.58817 -1.14349 0
M  V30 4227 C 409.085 -1.03648 -3.42041 0
M  V30 4228 C 408.751 -2.49825 -3.75364 0
M  V30 4229 C 407.413 -2.8977 -3.8417 0
M  V30 4230 C 409.765 -3.44545 -3.91073 0
M  V30 4231 C 407.093 -4.23412 -4.06127 0
M  V30 4232 C 409.445 -4.77853 -4.14535 0
M  V30 4233 C 408.109 -5.17531 -4.21566 0
M  V30 4234 H 407.379 -0.247975 -0.698276 0
M  V30 4235 H 410.026 -1.25584 -1.44571 0
M  V30 4236 H 408.331 -0.376457 -3.89987 0
M  V30 4237 H 410.028 -0.766113 -3.93614 0
M  V30 4238 H 406.618 -2.17866 -3.69097 0
M  V30 4239 H 410.802 -3.14853 -3.83642 0
M  V30 4240 H 406.058 -4.53734 -4.09799 0
M  V30 4241 H 410.232 -5.51189 -4.25633 0
M  V30 4242 H 407.859 -6.21102 -4.38333 0
M  V30 4243 N 409.434 1.37368 -0.772513 0
M  V30 4244 C 410.68 1.99969 -0.337681 0
M  V30 4245 C 411.013 1.61184 1.08321 0
M  V30 4246 O 410.288 0.858395 1.74533 0
M  V30 4247 C 410.571 3.56858 -0.482121 0
M  V30 4248 C 410.424 4.0555 -1.94549 0
M  V30 4249 C 411.743 4.39955 0.113143 0
M  V30 4250 H 408.862 0.726464 -0.124171 0
M  V30 4251 H 411.504 1.63034 -0.975699 0
M  V30 4252 H 409.654 3.88452 0.0610361 0
M  V30 4253 H 411.326 3.84518 -2.54841 0
M  V30 4254 H 409.569 3.57715 -2.45403 0
M  V30 4255 H 410.24 5.14587 -1.9976 0
M  V30 4256 H 412.716 4.14623 -0.35031 0
M  V30 4257 H 411.592 5.48897 -0.0180514 0
M  V30 4258 H 411.853 4.25403 1.20354 0
M  V30 4259 N 410.912 0.523116 1.48665 0
M  V30 4260 C 412.137 -0.0117284 2.07397 0
M  V30 4261 C 412.562 -1.28031 1.37803 0
M  V30 4262 O 411.92 -1.75836 0.441762 0
M  V30 4263 C 411.968 -0.225786 3.59892 0
M  V30 4264 O 411.072 -1.29592 3.91509 0
M  V30 4265 H 410.413 0.0360673 0.66302 0
M  V30 4266 H 412.943 0.729066 1.9117 0
M  V30 4267 H 412.953 -0.450552 4.05505 0
M  V30 4268 H 411.628 0.700944 4.09951 0
M  V30 4269 H 410.205 -1.05436 3.57684 0
M  V30 4270 N 412.39 -1.55475 0.257931 0
M  V30 4271 C 413.637 -1.99207 -0.363728 0
M  V30 4272 C 413.965 -1.1462 -1.57139 0
M  V30 4273 O 413.22 -0.199653 -1.94679 0
M  V30 4274 C 413.519 -3.48183 -0.806433 0
M  V30 4275 C 413.185 -4.49936 0.294684 0
M  V30 4276 C 411.847 -4.77481 0.597076 0
M  V30 4277 C 414.199 -5.10769 1.03751 0
M  V30 4278 C 411.527 -5.63132 1.64618 0
M  V30 4279 C 413.879 -5.97558 2.07622 0
M  V30 4280 C 412.543 -6.23432 2.38514 0
M  V30 4281 H 411.813 -0.728949 -0.133097 0
M  V30 4282 H 414.46 -1.8793 0.368059 0
M  V30 4283 H 412.765 -3.56848 -1.61761 0
M  V30 4284 H 414.462 -3.79415 -1.29789 0
M  V30 4285 H 411.052 -4.28572 0.0488649 0
M  V30 4286 H 415.236 -4.89527 0.817149 0
M  V30 4287 H 410.492 -5.8143 1.89074 0
M  V30 4288 H 414.666 -6.43735 2.65666 0
M  V30 4289 H 412.293 -6.89594 3.19943 0
M  V30 4290 N 413.868 0.0150385 -1.57593 0
M  V30 4291 C 415.117 0.702115 -1.89085 0
M  V30 4292 C 415.43 1.75764 -0.858277 0
M  V30 4293 O 416.636 2.49829 -1.0629 0
M  V30 4294 C 415.092 1.29992 -3.35604 0
M  V30 4295 C 414.7 0.280007 -4.47124 0
M  V30 4296 C 416.444 1.96606 -3.76227 0
M  V30 4297 C 414.351 0.886949 -5.84711 0
M  V30 4298 H 413.281 0.265997 -0.705522 0
M  V30 4299 H 415.932 -0.0430408 -1.8345 0
M  V30 4300 H 414.314 2.09525 -3.36029 0
M  V30 4301 H 415.488 -0.489631 -4.58191 0
M  V30 4302 H 413.803 -0.284835 -4.15425 0
M  V30 4303 H 416.4 2.42893 -4.76347 0
M  V30 4304 H 416.743 2.79024 -3.08952 0
M  V30 4305 H 417.276 1.23828 -3.78036 0
M  V30 4306 H 414.015 0.101876 -6.55421 0
M  V30 4307 H 413.535 1.6261 -5.77337 0
M  V30 4308 H 415.214 1.39011 -6.3189 0
M  V30 4309 N 415.346 1.54954 0.287554 0
M  V30 4310 C 416.571 1.79209 1.04397 0
M  V30 4311 C 416.996 0.556431 1.79682 0
M  V30 4312 O 416.354 -0.493518 1.74454 0
M  V30 4313 C 416.402 3.00739 1.98969 0
M  V30 4314 O 415.506 2.74805 3.075 0
M  V30 4315 H 414.847 0.592755 0.299227 0
M  V30 4316 H 417.377 2.02068 0.320886 0
M  V30 4317 H 417.387 3.29077 2.4119 0
M  V30 4318 H 416.062 3.90329 1.43582 0
M  V30 4319 H 414.639 2.57523 2.69697 0
M  V30 4320 N 416.824 -0.551391 1.4764 0
M  V30 4321 C 417.771 -1.65796 1.60563 0
M  V30 4322 C 418.741 -1.59932 0.448428 0
M  V30 4323 O 419.926 -1.78679 0.669222 0
M  V30 4324 C 417.066 -3.04108 1.63133 0
M  V30 4325 C 416.179 -3.20365 2.89811 0
M  V30 4326 C 415.314 -4.49109 2.8368 0
M  V30 4327 C 414.353 -4.58819 4.05156 0
M  V30 4328 N 413.49 -5.78926 3.97227 0
M  V30 4329 H 418.33 -1.54088 2.5507 0
M  V30 4330 H 415.867 -0.75052 1.26513 0
M  V30 4331 H 417.825 -3.84207 1.62606 0
M  V30 4332 H 416.455 -3.14637 0.721341 0
M  V30 4333 H 415.507 -2.33659 3.00179 0
M  V30 4334 H 416.819 -3.23402 3.79753 0
M  V30 4335 H 415.973 -5.37475 2.81434 0
M  V30 4336 H 414.712 -4.4856 1.91431 0
M  V30 4337 H 413.717 -3.68864 4.077 0
M  V30 4338 H 414.942 -4.61124 4.98539 0
M  V30 4339 H 412.888 -5.79314 3.07785 0
M  V30 4340 H 412.805 -5.83367 4.80853 0
M  V30 4341 H 414.073 -6.69637 3.99007 0
M  V30 4342 N 418.302 -1.35869 -0.798587 0
M  V30 4343 C 419.579 -1.20145 -1.54352 0
M  V30 4344 C 419.959 0.216161 -2.0999 0
M  V30 4345 O 419.307 1.22068 -1.93162 0
M  V30 4346 C 419.517 -2.27602 -2.64572 0
M  V30 4347 C 420.865 -2.63811 -3.32699 0
M  V30 4348 O 421.889 -2.26576 -2.74849 0
M  V30 4349 O 420.748 -3.27866 -4.37226 0
M  V30 4350 H 417.842 -0.467248 -0.682355 0
M  V30 4351 H 420.388 -1.47574 -0.837859 0
M  V30 4352 H 419.16 -3.2265 -2.21388 0
M  V30 4353 H 418.783 -2.01488 -3.42766 0
M  V30 4354 N 419.78 1.02168 -1.19998 0
M  V30 4355 C 421.005 1.79833 -1.03319 0
M  V30 4356 C 421.43 1.83504 0.413281 0
M  V30 4357 O 420.788 1.26635 1.29743 0
M  V30 4358 C 420.836 3.22396 -1.61533 0
M  V30 4359 O 419.94 4.03555 -0.849519 0
M  V30 4360 H 419.281 0.554872 -0.364709 0
M  V30 4361 H 421.811 1.28542 -1.59179 0
M  V30 4362 H 421.821 3.73124 -1.65054 0
M  V30 4363 H 420.496 3.19039 -2.66809 0
M  V30 4364 H 419.073 3.62169 -0.888129 0
M  V30 4365 N 421.258 1.00505 1.21394 0
M  V30 4366 C 422.507 0.683159 1.89778 0
M  V30 4367 C 422.82 -0.789471 1.7896 0
M  V30 4368 O 424.026 -1.22344 2.42372 0
M  V30 4369 C 422.482 1.17146 3.40301 0
M  V30 4370 C 422.09 2.67017 3.5973 0
M  V30 4371 C 423.834 0.924461 4.14311 0
M  V30 4372 C 421.741 3.09387 5.04017 0
M  V30 4373 H 420.671 0.25183 0.710702 0
M  V30 4374 H 423.322 1.21622 1.37406 0
M  V30 4375 H 421.704 0.566451 3.91928 0
M  V30 4376 H 422.878 3.32968 3.18542 0
M  V30 4377 H 421.193 2.89732 2.99073 0
M  V30 4378 H 423.79 1.21658 5.20676 0
M  V30 4379 H 424.133 -0.139286 4.16067 0
M  V30 4380 H 424.666 1.49226 3.6875 0
M  V30 4381 H 421.405 4.14989 5.07409 0
M  V30 4382 H 420.925 2.48149 5.46061 0
M  V30 4383 H 422.604 3.01371 5.72525 0
M  V30 4384 N 422.737 -1.36956 0.779787 0
M  V30 4385 C 423.669 -2.28833 0.129639 0
M  V30 4386 C 424.682 -1.4902 -0.655511 0
M  V30 4387 O 425.871 -1.71578 -0.492279 0
M  V30 4388 C 422.971 -3.2833 -0.839792 0
M  V30 4389 C 422.144 -4.3727 -0.10675 0
M  V30 4390 C 421.203 -5.16789 -0.990717 0
M  V30 4391 O 420.229 -5.67406 -0.451516 0
M  V30 4392 N 421.431 -5.32294 -2.3161 0
M  V30 4393 H 424.196 -2.85268 0.918803 0
M  V30 4394 H 421.757 -1.49019 0.632841 0
M  V30 4395 H 423.749 -3.78413 -1.43477 0
M  V30 4396 H 422.319 -2.72605 -1.52988 0
M  V30 4397 H 421.539 -3.88478 0.669216 0
M  V30 4398 H 422.827 -5.07229 0.399464 0
M  V30 4399 H 422.225 -4.92768 -2.77843 0
M  V30 4400 H 420.782 -5.85656 -2.86095 0
M  V30 4401 N 424.215 -0.530993 -1.48385 0
M  V30 4402 C 425.162 0.231223 -2.29639 0
M  V30 4403 C 426.132 0.932864 -1.37429 0
M  V30 4404 O 427.317 0.933692 -1.66394 0
M  V30 4405 C 424.457 1.27155 -3.2082 0
M  V30 4406 C 423.57 0.578655 -4.28107 0
M  V30 4407 C 422.705 1.602 -5.06467 0
M  V30 4408 C 421.744 0.892625 -6.05556 0
M  V30 4409 N 420.881 1.86157 -6.76971 0
M  V30 4410 H 425.721 -0.467848 -2.94305 0
M  V30 4411 H 423.258 -0.242556 -1.45086 0
M  V30 4412 H 425.216 1.88703 -3.72085 0
M  V30 4413 H 423.846 1.939 -2.58075 0
M  V30 4414 H 422.898 -0.150782 -3.80101 0
M  V30 4415 H 424.21 0.0217065 -4.98795 0
M  V30 4416 H 423.364 2.29173 -5.61751 0
M  V30 4417 H 422.103 2.19285 -4.35621 0
M  V30 4418 H 421.108 0.188829 -5.49476 0
M  V30 4419 H 422.333 0.307878 -6.78402 0
M  V30 4420 H 420.279 2.44147 -6.08875 0
M  V30 4421 H 420.196 1.35608 -7.43738 0
M  V30 4422 H 421.464 2.54325 -7.36844 0
M  V30 4423 N 425.693 1.55336 -0.266172 0
M  V30 4424 C 426.918 2.04258 0.359661 0
M  V30 4425 C 427.343 1.14359 1.49344 0
M  V30 4426 O 426.701 0.140369 1.80756 0
M  V30 4427 C 426.749 3.50997 0.826635 0
M  V30 4428 O 425.853 3.64204 1.93466 0
M  V30 4429 H 425.194 0.659668 0.075727 0
M  V30 4430 H 427.724 2.00694 -0.39786 0
M  V30 4431 H 427.734 3.9219 1.12477 0
M  V30 4432 H 426.409 4.159 -0.00293032 0
M  V30 4433 H 424.986 3.34913 1.63974 0
M  V30 4434 N 427.171 -0.0066808 1.57599 0
M  V30 4435 C 428.101 -0.999296 2.11036 0
M  V30 4436 C 429.082 -1.36278 1.01795 0
M  V30 4437 O 430.267 -1.4477 1.29442 0
M  V30 4438 C 427.397 -2.29328 2.60818 0
M  V30 4439 C 426.351 -2.07159 3.74525 0
M  V30 4440 C 425.677 -3.42512 4.10596 0
M  V30 4441 C 426.977 -1.43959 5.02069 0
M  V30 4442 H 428.671 -0.554382 2.94223 0
M  V30 4443 H 426.217 -0.265221 1.41536 0
M  V30 4444 H 428.17 -2.99117 2.96828 0
M  V30 4445 H 426.894 -2.7592 1.74745 0
M  V30 4446 H 425.553 -1.39797 3.38899 0
M  V30 4447 H 425.201 -3.86795 3.21556 0
M  V30 4448 H 424.901 -3.28498 4.87199 0
M  V30 4449 H 426.425 -4.13628 4.4916 0
M  V30 4450 H 427.839 -2.03696 5.35893 0
M  V30 4451 H 426.236 -1.40452 5.83432 0
M  V30 4452 H 427.306 -0.407992 4.83181 0
M  V30 4453 N 428.649 -1.55105 -0.279332 0
M  V30 4454 C 429.581 -1.83952 -1.36727 0
M  V30 4455 C 430.594 -0.723642 -1.45833 0
M  V30 4456 O 431.783 -1.00141 -1.47763 0
M  V30 4457 C 428.883 -1.98183 -2.74912 0
M  V30 4458 C 428.056 -3.28787 -2.88475 0
M  V30 4459 C 427.115 -3.33162 -4.07295 0
M  V30 4460 O 426.141 -4.06576 -3.98353 0
M  V30 4461 N 427.343 -2.60109 -5.18964 0
M  V30 4462 H 430.108 -2.77853 -1.12328 0
M  V30 4463 H 427.669 -1.54945 -0.469442 0
M  V30 4464 H 429.661 -1.98488 -3.52682 0
M  V30 4465 H 428.231 -1.11177 -2.92162 0
M  V30 4466 H 427.451 -3.41075 -1.97641 0
M  V30 4467 H 428.739 -4.14933 -2.94463 0
M  V30 4468 H 428.137 -2.00136 -5.29115 0
M  V30 4469 H 426.694 -2.66143 -5.94988 0
M  V30 4470 N 430.127 0.543554 -1.4793 0
M  V30 4471 C 431.06 1.66556 -1.55995 0
M  V30 4472 C 432.038 1.57315 -0.411205 0
M  V30 4473 O 433.222 1.7798 -0.620922 0
M  V30 4474 C 430.349 3.04883 -1.47527 0
M  V30 4475 C 429.395 3.32526 -2.67074 0
M  V30 4476 S 430.228 3.20282 -4.29162 0
M  V30 4477 C 431.384 4.61079 -4.23269 0
M  V30 4478 H 431.617 1.59462 -2.50917 0
M  V30 4479 H 429.15 0.725456 -1.36296 0
M  V30 4480 H 431.108 3.84665 -1.43328 0
M  V30 4481 H 429.769 3.09429 -0.539665 0
M  V30 4482 H 428.962 4.33403 -2.5725 0
M  V30 4483 H 428.564 2.60389 -2.68466 0
M  V30 4484 H 430.856 5.52318 -3.92365 0
M  V30 4485 H 431.799 4.75959 -5.24279 0
M  V30 4486 H 432.207 4.39766 -3.5393 0
M  V30 4487 N 431.605 1.3629 0.791371 0
M  V30 4488 C 432.835 1.33368 1.57786 0
M  V30 4489 C 433.243 -0.0875188 1.88997 0
M  V30 4490 O 432.586 -1.05427 1.50435 0
M  V30 4491 C 432.648 2.08802 2.92646 0
M  V30 4492 C 432.312 3.57903 2.84174 0
M  V30 4493 C 433.309 4.52191 2.56553 0
M  V30 4494 C 430.994 4.00762 3.02812 0
M  V30 4495 C 432.988 5.87315 2.47669 0
M  V30 4496 C 430.675 5.35977 2.93551 0
M  V30 4497 C 431.673 6.29066 2.66017 0
M  V30 4498 O 431.361 7.61798 2.56746 0
M  V30 4499 H 431.093 0.459166 0.496128 0
M  V30 4500 H 433.647 1.79952 0.990269 0
M  V30 4501 H 431.877 1.56878 3.53449 0
M  V30 4502 H 433.566 1.98762 3.53904 0
M  V30 4503 H 434.332 4.20393 2.41858 0
M  V30 4504 H 430.211 3.2868 3.2325 0
M  V30 4505 H 433.755 6.59943 2.26099 0
M  V30 4506 H 429.652 5.67384 3.07808 0
M  V30 4507 H 430.42 7.71898 2.72242 0
M  V30 4508 N 433.083 -1.0153 1.20538 0
M  V30 4509 C 434.013 -2.11972 0.979295 0
M  V30 4510 C 434.994 -1.6985 -0.0921787 0
M  V30 4511 O 436.179 -1.94089 0.0655932 0
M  V30 4512 C 433.309 -3.43201 0.531984 0
M  V30 4513 C 432.263 -3.9907 1.54685 0
M  V30 4514 C 431.589 -5.26082 0.956127 0
M  V30 4515 C 432.889 -4.32313 2.93092 0
M  V30 4516 H 434.583 -2.31143 1.90298 0
M  V30 4517 H 432.129 -1.11079 0.916372 0
M  V30 4518 H 434.082 -4.1985 0.361044 0
M  V30 4519 H 432.806 -3.23792 -0.427327 0
M  V30 4520 H 431.465 -3.2453 1.70517 0
M  V30 4521 H 431.113 -5.02999 -0.0111538 0
M  V30 4522 H 430.813 -5.64426 1.63393 0
M  V30 4523 H 432.337 -6.05386 0.796284 0
M  V30 4524 H 433.751 -4.99845 2.80763 0
M  V30 4525 H 432.148 -4.81774 3.57791 0
M  V30 4526 H 433.218 -3.41025 3.44717 0
M  V30 4527 N 434.561 -1.01147 -1.20859 0
M  V30 4528 C 435.471 -0.58686 -2.27141 0
M  V30 4529 C 436.487 0.373198 -1.69951 0
M  V30 4530 O 437.663 0.235423 -2.00019 0
M  V30 4531 C 434.728 0.0733602 -3.46622 0
M  V30 4532 C 433.789 -0.931995 -4.19061 0
M  V30 4533 C 433.022 -0.303186 -5.32838 0
M  V30 4534 O 433.245 0.898395 -5.63281 0
M  V30 4535 O 432.179 -1.01735 -5.9324 0
M  V30 4536 H 436.005 -1.47155 -2.65667 0
M  V30 4537 H 433.59 -0.780689 -1.2738 0
M  V30 4538 H 435.472 0.442333 -4.19072 0
M  V30 4539 H 434.147 0.932329 -3.09983 0
M  V30 4540 H 433.054 -1.35224 -3.48805 0
M  V30 4541 H 434.387 -1.76076 -4.59628 0
M  V30 4542 N 436.039 1.36541 -0.78704 0
M  V30 4543 C 437.455 1.52571 -0.46844 0
M  V30 4544 C 437.655 1.7415 1.01361 0
M  V30 4545 O 436.711 1.77163 1.79915 0
M  V30 4546 C 438.024 2.71299 -1.29682 0
M  V30 4547 C 439.572 2.85169 -1.29027 0
M  V30 4548 C 440.047 4.06898 -2.10233 0
M  V30 4549 N 441.538 4.1404 -2.07666 0
M  V30 4550 C 442.273 5.07301 -2.67271 0
M  V30 4551 N 441.769 6.06021 -3.35724 0
M  V30 4552 N 443.562 4.99898 -2.57018 0
M  V30 4553 H 435.713 1.20788 -1.74711 0
M  V30 4554 H 437.976 0.589364 -0.742532 0
M  V30 4555 H 437.682 2.61868 -2.34773 0
M  V30 4556 H 437.556 3.6539 -0.936479 0
M  V30 4557 H 439.943 2.94062 -0.247284 0
M  V30 4558 H 440.024 1.91992 -1.69035 0
M  V30 4559 H 439.668 3.98766 -3.1456 0
M  V30 4560 H 439.598 4.99218 -1.67597 0
M  V30 4561 H 442.089 3.43357 -1.57843 0
M  V30 4562 H 442.402 6.73741 -3.78541 0
M  V30 4563 H 440.747 6.06253 -3.39826 0
M  V30 4564 H 443.938 4.21724 -2.03142 0
M  V30 4565 H 444.111 5.72392 -3.03761 0
M  V30 4566 N 437.518 0.538854 1.48102 0
M  V30 4567 C 438.448 -0.207654 2.32575 0
M  V30 4568 C 439.429 -0.926559 1.4265 0
M  V30 4569 O 440.614 -0.91061 1.71527 0
M  V30 4570 C 437.744 -1.24957 3.24042 0
M  V30 4571 C 436.698 -0.648263 4.23062 0
M  V30 4572 C 436.024 -1.79348 5.03725 0
M  V30 4573 C 437.324 0.385897 5.20872 0
M  V30 4574 H 439.018 0.497534 2.95237 0
M  V30 4575 H 436.564 0.240715 1.41974 0
M  V30 4576 H 438.517 -1.77983 3.81969 0
M  V30 4577 H 437.241 -1.98446 2.59397 0
M  V30 4578 H 435.9 -0.139452 3.66335 0
M  V30 4579 H 435.548 -2.51696 4.35498 0
M  V30 4580 H 435.248 -1.39702 5.70751 0
M  V30 4581 H 436.772 -2.32735 5.64506 0
M  V30 4582 H 438.186 -0.057607 5.73271 0
M  V30 4583 H 436.583 0.700227 5.96001 0
M  V30 4584 H 437.653 1.28848 4.67468 0
M  V30 4585 N 438.996 -1.55193 0.274407 0
M  V30 4586 C 439.943 -2.225 -0.613374 0
M  V30 4587 C 440.913 -1.19823 -1.15029 0
M  V30 4588 O 442.098 -1.48362 -1.19973 0
M  V30 4589 C 439.238 -2.94927 -1.79199 0
M  V30 4590 C 438.351 -4.12322 -1.28899 0
M  V30 4591 C 437.486 -4.72394 -2.42934 0
M  V30 4592 C 436.525 -5.81984 -1.89634 0
M  V30 4593 N 435.662 -6.36123 -2.9714 0
M  V30 4594 H 440.502 -2.97982 -0.032756 0
M  V30 4595 H 438.039 -1.47099 -0.00440146 0
M  V30 4596 H 439.997 -3.35134 -2.48478 0
M  V30 4597 H 438.627 -2.2187 -2.34465 0
M  V30 4598 H 437.679 -3.7724 -0.489327 0
M  V30 4599 H 438.991 -4.91355 -0.858587 0
M  V30 4600 H 438.145 -5.15317 -3.20208 0
M  V30 4601 H 436.884 -3.92636 -2.8929 0
M  V30 4602 H 435.889 -5.38511 -1.1084 0
M  V30 4603 H 437.114 -6.6361 -1.44215 0
M  V30 4604 H 435.06 -5.59259 -3.42878 0
M  V30 4605 H 434.977 -7.10427 -2.58515 0
M  V30 4606 H 436.245 -6.83704 -3.74391 0
M  V30 4607 N 440.474 -0.00167713 -1.576 0
M  V30 4608 C 441.384 1.00548 -2.1196 0
M  V30 4609 C 442.4 1.3758 -1.06526 0
M  V30 4610 O 443.576 1.46278 -1.38436 0
M  V30 4611 C 440.641 2.27809 -2.6135 0
M  V30 4612 C 439.702 1.97074 -3.81393 0
M  V30 4613 C 438.935 3.18267 -4.28417 0
M  V30 4614 O 439.158 4.30009 -3.74765 0
M  V30 4615 O 438.092 3.02167 -5.20556 0
M  V30 4616 H 441.918 0.573373 -2.98238 0
M  V30 4617 H 439.503 0.217255 -1.47812 0
M  V30 4618 H 441.385 3.02568 -2.93309 0
M  V30 4619 H 440.06 2.70254 -1.78169 0
M  V30 4620 H 438.967 1.19785 -3.54404 0
M  V30 4621 H 440.3 1.59464 -4.65652 0
M  V30 4622 N 441.952 1.55251 0.271103 0
M  V30 4623 C 442.862 1.9136 1.35714 0
M  V30 4624 C 443.878 0.811075 1.5394 0
M  V30 4625 O 445.054 1.11031 1.6803 0
M  V30 4626 C 442.119 2.1798 2.69603 0
M  V30 4627 C 441.18 3.4153 2.60107 0
M  V30 4628 C 440.413 3.66871 3.8761 0
M  V30 4629 O 440.636 2.94689 4.8838 0
M  V30 4630 O 439.57 4.60405 3.87699 0
M  V30 4631 H 443.396 2.83815 1.08088 0
M  V30 4632 H 440.981 1.41821 0.469792 0
M  V30 4633 H 442.863 2.36518 3.48765 0
M  V30 4634 H 441.538 1.28708 2.97012 0
M  V30 4635 H 440.445 3.28325 1.79314 0
M  V30 4636 H 441.778 4.31027 2.37647 0
M  V30 4637 N 443.43 -0.535701 1.48216 0
M  V30 4638 C 444.377 -1.64083 1.62312 0
M  V30 4639 C 445.347 -1.59448 0.465365 0
M  V30 4640 O 446.532 -1.77959 0.688135 0
M  V30 4641 C 443.672 -3.0236 1.66349 0
M  V30 4642 C 442.785 -3.17273 2.93193 0
M  V30 4643 C 441.92 -4.46075 2.88427 0
M  V30 4644 C 440.959 -4.54496 4.1 0
M  V30 4645 N 440.096 -5.7468 4.03345 0
M  V30 4646 H 444.936 -1.51374 2.5669 0
M  V30 4647 H 442.473 -0.737059 1.27302 0
M  V30 4648 H 444.431 -3.82461 1.66672 0
M  V30 4649 H 443.061 -3.13854 0.754672 0
M  V30 4650 H 442.113 -2.30462 3.02641 0
M  V30 4651 H 443.425 -3.19357 3.83162 0
M  V30 4652 H 442.579 -5.3446 2.87119 0
M  V30 4653 H 441.318 -4.46504 1.96177 0
M  V30 4654 H 440.323 -3.64519 4.11589 0
M  V30 4655 H 441.548 -4.5581 5.03402 0
M  V30 4656 H 439.494 -5.76017 3.13912 0
M  V30 4657 H 439.411 -5.78234 4.87013 0
M  V30 4658 H 440.679 -6.65367 4.06087 0
M  V30 4659 N 444.908 -1.36708 -0.784132 0
M  V30 4660 C 446.156 -1.30972 -1.53918 0
M  V30 4661 C 446.477 0.109086 -1.94695 0
M  V30 4662 O 445.747 1.05048 -1.65353 0
M  V30 4663 H 444.327 -0.481819 -0.570841 0
M  V30 4664 H 446.989 -1.71063 -0.934002 0
M  V30 4665 H 446.085 -1.94061 -2.44431 0
M  V30 4666 O 446.425 0.923818 -1.32468 0
M  V30 4667 H 447.116 1.55617 -1.15339 0
M  V30 END ATOM
M  V30 BEGIN BOND
M  V30 END BOND
M  V30 END CTAB
M  END
$$$$
