drugbank_target|P62660 30S ribosomal protein S19 (DB08185)
 OpenBabel12092120483D

  0  0  0     0  0            999 V3000
M  V30 BEGIN CTAB
M  V30 COUNTS 1530 1545 0 0 0
M  V30 BEGIN ATOM
M  V30 1 H -0.908 1.98254 -0.117106 0
M  V30 2 N 0 1.576 0 0
M  V30 3 C 0.933 2.03868 1.02534 0
M  V30 4 C 1.911 0.928543 1.3348 0
M  V30 5 O 3.095 1.19667 1.45644 0
M  V30 6 C 0.222 2.43627 2.35294 0
M  V30 7 C -0.732 3.65373 2.2001 0
M  V30 8 S 0.101 5.13292 1.52614 0
M  V30 9 C 1.257 5.56322 2.86805 0
M  V30 10 H 1.49 2.90518 0.631377 0
M  V30 11 H -0.977 1.52953 0.210867 0
M  V30 12 H 0.981 2.67203 3.11629 0
M  V30 13 H -0.358 1.57376 2.7183 0
M  V30 14 H -1.165 3.90944 3.18086 0
M  V30 15 H -1.563 3.418 1.51819 0
M  V30 16 H 0.729 5.58782 3.83104 0
M  V30 17 H 1.672 6.56266 2.65933 0
M  V30 18 H 2.08 4.83886 2.90714 0
M  V30 19 N 1.4781 -0.272755 1.55222 0
M  V30 20 C 2.8891 -0.84378 1.66545 0
M  V30 21 C 3.2401 -1.87035 0.592641 0
M  V30 22 O 2.3651 -2.14761 -0.265818 0
M  V30 23 C 2.9601 -1.53723 3.01918 0
M  V30 24 C 1.5191 -2.05628 3.15268 0
M  V30 25 C 0.6661 -0.898424 2.62343 0
M  V30 26 H 3.6171 -0.0490998 1.58624 0
M  V30 27 H 3.6381 -2.40421 2.94921 0
M  V30 28 H 3.1501 -0.78983 3.79978 0
M  V30 29 H 1.2511 -2.83329 2.41983 0
M  V30 30 H 1.3641 -2.27142 4.21833 0
M  V30 31 H -0.2719 -1.29186 2.19506 0
M  V30 32 H 0.5111 -0.164528 3.42906 0
M  V30 33 N 2.9562 -1.48159 -0.537278 0
M  V30 34 C 4.3722 -1.34118 -0.865129 0
M  V30 35 C 4.5722 -0.346678 -1.98495 0
M  V30 36 O 3.6282 0.234715 -2.51407 0
M  V30 37 C 4.9412 -2.73963 -1.23954 0
M  V30 38 C 6.4892 -2.82397 -1.34984 0
M  V30 39 C 6.9642 -4.22928 -1.75772 0
M  V30 40 N 8.4552 -4.25566 -1.82887 0
M  V30 41 C 9.1902 -5.31235 -2.15817 0
M  V30 42 N 8.6862 -6.47189 -2.47222 0
M  V30 43 N 10.4792 -5.18624 -2.16761 0
M  V30 44 H 2.6302 -2.1144 0.201715 0
M  V30 45 H 4.8932 -0.947598 0.0275949 0
M  V30 46 H 4.5992 -3.48264 -0.490381 0
M  V30 47 H 4.4732 -3.0702 -2.19132 0
M  V30 48 H 6.8602 -2.08356 -2.08978 0
M  V30 49 H 6.9412 -2.5297 -0.379448 0
M  V30 50 H 6.5852 -4.97482 -1.02341 0
M  V30 51 H 6.5152 -4.49794 -2.73848 0
M  V30 52 H 9.0062 -3.41924 -1.60924 0
M  V30 53 H 9.3192 -7.23564 -2.71433 0
M  V30 54 H 7.6642 -6.50476 -2.44757 0
M  V30 55 H 10.8552 -4.27056 -1.91679 0
M  V30 56 H 11.0282 -6.01078 -2.42093 0
M  V30 57 N 4.4343 0.785586 -1.36625 0
M  V30 58 C 5.6593 1.57963 -1.34397 0
M  V30 59 C 6.0843 1.87964 0.071526 0
M  V30 60 O 5.4423 1.48182 1.0446 0
M  V30 61 C 5.4903 2.87511 -2.17646 0
M  V30 62 O 4.5943 3.81281 -1.57158 0
M  V30 63 H 3.9353 0.479014 -0.459828 0
M  V30 64 H 6.4653 0.973411 -1.79961 0
M  V30 65 H 6.4753 3.36745 -2.30362 0
M  V30 66 H 5.1503 2.65002 -3.20541 0
M  V30 67 H 3.7273 3.39885 -1.53403 0
M  V30 68 N 5.9124 1.20967 1.01018 0
M  V30 69 C 6.8424 0.988272 2.11555 0
M  V30 70 C 7.8234 -0.0849778 1.69888 0
M  V30 71 O 9.0084 0.0738202 1.9406 0
M  V30 72 C 6.1384 0.546528 3.42973 0
M  V30 73 C 5.0924 1.56375 3.9841 0
M  V30 74 C 4.4184 0.97842 5.25672 0
M  V30 75 C 5.7184 2.94922 4.31066 0
M  V30 76 H 7.4124 1.91276 2.30334 0
M  V30 77 H 4.9584 0.921073 1.1069 0
M  V30 78 H 6.9114 0.378839 4.19694 0
M  V30 79 H 5.6354 -0.413598 3.23971 0
M  V30 80 H 4.2944 1.71891 3.23804 0
M  V30 81 H 3.9424 0.0101688 5.02999 0
M  V30 82 H 3.6424 1.65784 5.63728 0
M  V30 83 H 5.1664 0.821939 6.05043 0
M  V30 84 H 6.5804 2.8288 4.9865 0
M  V30 85 H 4.9774 3.5983 4.80253 0
M  V30 86 H 6.0474 3.4616 3.39561 0
M  V30 87 N 7.3905 -1.2043 1.01659 0
M  V30 88 C 8.3375 -2.23215 0.586822 0
M  V30 89 C 9.3075 -1.61382 -0.393085 0
M  V30 90 O 10.4925 -1.88544 -0.292525 0
M  V30 91 C 7.6325 -3.45032 -0.0687464 0
M  V30 92 C 6.7455 -4.21296 0.955724 0
M  V30 93 C 5.8805 -5.30507 0.271208 0
M  V30 94 C 4.9195 -5.98515 1.28244 0
M  V30 95 N 4.0565 -6.99316 0.62459 0
M  V30 96 H 8.8965 -2.59336 1.46796 0
M  V30 97 H 6.4335 -1.27431 0.734836 0
M  V30 98 H 8.3915 -4.1459 -0.465965 0
M  V30 99 H 7.0215 -3.09604 -0.913529 0
M  V30 100 H 6.0735 -3.50803 1.4711 0
M  V30 101 H 7.3855 -4.6803 1.72479 0
M  V30 102 H 6.5395 -6.06428 -0.18151 0
M  V30 103 H 5.2785 -4.8481 -0.530163 0
M  V30 104 H 4.2835 -5.21355 1.74554 0
M  V30 105 H 5.5085 -6.46298 2.08509 0
M  V30 106 H 3.4545 -6.55812 -0.156914 0
M  V30 107 H 3.3715 -7.44178 1.33172 0
M  V30 108 H 4.6395 -7.79255 0.195462 0
M  V30 109 N 8.8686 -0.792821 -1.36206 0
M  V30 110 C 9.8156 -0.191653 -2.30003 0
M  V30 111 C 10.7856 0.666453 -1.52143 0
M  V30 112 O 11.9706 0.61442 -1.80636 0
M  V30 113 C 9.1106 0.664848 -3.38635 0
M  V30 114 C 8.2236 -0.212175 -4.31479 0
M  V30 115 C 7.3586 0.651022 -5.27196 0
M  V30 116 C 6.3976 -0.227247 -6.11678 0
M  V30 117 N 5.5346 0.595127 -6.99573 0
M  V30 118 H 10.3746 -0.996978 -2.80828 0
M  V30 119 H 7.9116 -0.503206 -1.38225 0
M  V30 120 H 9.8696 1.17645 -4.00269 0
M  V30 121 H 8.4996 1.43557 -2.89122 0
M  V30 122 H 7.5516 -0.841777 -3.70969 0
M  V30 123 H 8.8636 -0.888751 -4.90818 0
M  V30 124 H 8.0176 1.2283 -5.94136 0
M  V30 125 H 6.7566 1.36121 -4.68319 0
M  V30 126 H 5.7616 -0.816904 -5.43697 0
M  V30 127 H 6.9866 -0.93509 -6.72631 0
M  V30 128 H 4.9326 1.28955 -6.432 0
M  V30 129 H 4.8496 -0.0236952 -7.55996 0
M  V30 130 H 6.1176 1.15613 -7.70879 0
M  V30 131 N 10.3467 1.47872 -0.545128 0
M  V30 132 C 11.5947 2.02093 -0.016553 0
M  V30 133 C 11.9157 1.42305 1.3332 0
M  V30 134 O 11.1857 0.593853 1.86682 0
M  V30 135 H 9.7657 0.746993 -0.00313038 0
M  V30 136 H 12.4277 1.81414 -0.712397 0
M  V30 137 H 11.5237 3.11996 0.0805422 0
M  V30 138 N 11.8248 0.280983 1.55075 0
M  V30 139 C 13.0708 -0.33461 2.00021 0
M  V30 140 C 13.4038 -1.55063 1.16915 0
M  V30 141 O 12.6788 -1.93006 0.240646 0
M  V30 142 C 12.9618 -0.711007 3.53011 0
M  V30 143 C 12.8148 0.512766 4.46868 0
M  V30 144 C 14.1338 -1.54522 4.12081 0
M  V30 145 H 11.2528 -0.120147 0.727141 0
M  V30 146 H 13.8948 0.389097 1.85973 0
M  V30 147 H 12.0448 -1.32761 3.65112 0
M  V30 148 H 13.7168 1.15131 4.46702 0
M  V30 149 H 11.9598 1.14975 4.18286 0
M  V30 150 H 12.6308 0.205556 5.51617 0
M  V30 151 H 15.1068 -1.02442 4.03293 0
M  V30 152 H 13.9828 -1.77739 5.19327 0
M  V30 153 H 14.2438 -2.52813 3.62682 0
M  V30 154 N 13.3029 -1.57598 0.00835791 0
M  V30 155 C 14.5499 -1.90928 -0.674732 0
M  V30 156 C 14.8779 -0.88277 -1.73313 0
M  V30 157 O 14.1329 0.111294 -1.95383 0
M  V30 158 C 14.4319 -3.3101 -1.34787 0
M  V30 159 C 14.0979 -4.48922 -0.421861 0
M  V30 160 C 12.7599 -4.8091 -0.166927 0
M  V30 161 C 15.1119 -5.20755 0.215211 0
M  V30 162 C 12.4399 -5.821 0.733232 0
M  V30 163 C 14.7919 -6.22905 1.1033 0
M  V30 164 C 13.4559 -6.53346 1.36733 0
M  V30 165 H 12.7259 -0.698656 -0.246902 0
M  V30 166 H 15.3729 -1.91387 0.0656779 0
M  V30 167 H 13.6779 -3.26714 -2.16253 0
M  V30 168 H 15.3749 -3.54061 -1.8826 0
M  V30 169 H 11.9649 -4.23934 -0.630729 0
M  V30 170 H 16.1489 -4.9629 0.0312829 0
M  V30 171 H 11.4049 -6.04042 0.945712 0
M  V30 172 H 15.5789 -6.77694 1.60325 0
M  V30 173 H 13.2059 -7.31573 2.06652 0
M  V30 174 N 14.781 0.264519 -1.55364 0
M  V30 175 C 16.027 0.99646 -1.76631 0
M  V30 176 C 16.36 1.85632 -0.570478 0
M  V30 177 O 15.635 1.89647 0.43175 0
M  V30 178 C 15.918 1.87187 -3.07625 0
M  V30 179 C 15.771 1.04138 -4.37579 0
M  V30 180 C 17.09 2.85749 -3.34717 0
M  V30 181 H 14.209 0.360841 -0.642622 0
M  V30 182 H 16.851 0.268218 -1.88097 0
M  V30 183 H 15.001 2.49279 -2.9798 0
M  V30 184 H 16.673 0.440517 -4.59192 0
M  V30 185 H 14.916 0.345115 -4.32425 0
M  V30 186 H 15.587 1.68729 -5.2558 0
M  V30 187 H 18.063 2.33793 -3.4421 0
M  V30 188 H 16.939 3.44136 -4.27623 0
M  V30 189 H 17.2 3.61311 -2.54768 0
M  V30 190 N 16.2591 1.48442 0.529413 0
M  V30 191 C 17.5361 1.46978 1.29062 0
M  V30 192 C 17.9161 0.181769 2.10316 0
M  V30 193 O 17.2641 -0.836481 2.12639 0
M  V30 194 C 17.4741 2.7321 2.17157 0
M  V30 195 C 18.8221 3.21562 2.77278 0
M  V30 196 O 19.8461 2.74131 2.27444 0
M  V30 197 O 18.7051 4.04094 3.67927 0
M  V30 198 H 15.7991 0.587003 0.582543 0
M  V30 199 H 18.3451 1.60676 0.546021 0
M  V30 200 H 17.1171 3.58465 1.56903 0
M  V30 201 H 16.7401 2.62235 2.98862 0
M  V30 202 N 17.7372 -0.778329 1.37039 0
M  V30 203 C 19.0142 -1.52551 1.22424 0
M  V30 204 C 19.3942 -2.10288 -0.184964 0
M  V30 205 O 18.7422 -1.94953 -1.19187 0
M  V30 206 C 18.9522 -2.61164 2.31504 0
M  V30 207 C 20.3002 -3.28746 2.68721 0
M  V30 208 O 21.3242 -2.71455 2.30631 0
M  V30 209 O 20.1832 -4.3231 3.3432 0
M  V30 210 H 17.2772 -0.675343 0.477326 0
M  V30 211 H 19.8232 -0.815859 1.48801 0
M  V30 212 H 18.5952 -2.16574 3.25901 0
M  V30 213 H 18.2182 -3.39737 2.06554 0
M  V30 214 N 19.2153 -1.21501 -1.00376 0
M  V30 215 C 20.1653 -0.942843 -2.07592 0
M  V30 216 C 21.1493 0.102384 -1.60574 0
M  V30 217 O 22.3413 -0.10671 -1.76678 0
M  V30 218 C 19.4703 -0.510729 -3.3948 0
M  V30 219 C 18.5563 -1.59009 -3.93163 0
M  V30 220 N 18.9473 -2.81544 -4.20198 0
M  V30 221 C 17.2453 -1.45925 -4.21452 0
M  V30 222 C 17.9463 -3.51261 -4.63671 0
M  V30 223 N 16.9223 -2.78703 -4.66718 0
M  V30 224 H 20.7243 -1.87378 -2.26421 0
M  V30 225 H 18.2383 -1.11093 -1.18458 0
M  V30 226 H 20.2353 -0.297101 -4.1584 0
M  V30 227 H 18.8953 0.413436 -3.22057 0
M  V30 228 H 19.9063 -3.18075 -4.08716 0
M  V30 229 H 16.5833 -0.600467 -4.13159 0
M  V30 230 H 17.9733 -4.56183 -4.93302 0
M  V30 231 N 20.6934 1.19889 -1.02296 0
M  V30 232 C 21.6234 2.25141 -0.619174 0
M  V30 233 C 22.6044 1.66051 0.368915 0
M  V30 234 O 23.7894 1.92546 0.252941 0
M  V30 235 C 20.9194 3.4728 0.0368783 0
M  V30 236 C 19.8734 4.19005 -0.872865 0
M  V30 237 C 19.1994 5.34637 -0.0822402 0
M  V30 238 C 20.4994 4.74452 -2.18387 0
M  V30 239 H 22.1934 2.59171 -1.49903 0
M  V30 240 H 19.7394 1.24579 -0.722222 0
M  V30 241 H 21.6924 4.20098 0.330958 0
M  V30 242 H 20.4164 3.12433 0.95149 0
M  V30 243 H 19.0754 3.48061 -1.15105 0
M  V30 244 H 18.7234 4.96034 0.83422 0
M  V30 245 H 18.4234 5.83557 -0.688149 0
M  V30 246 H 19.9474 6.10255 0.205238 0
M  V30 247 H 21.3614 5.39055 -1.95172 0
M  V30 248 H 19.7584 5.33834 -2.74119 0
M  V30 249 H 20.8284 3.92844 -2.84257 0
M  V30 250 N 22.1715 0.800033 1.35784 0
M  V30 251 C 23.1015 0.220184 2.3246 0
M  V30 252 C 24.0825 -0.65073 1.57161 0
M  V30 253 O 25.2675 -0.582359 1.85263 0
M  V30 254 C 22.3975 -0.637353 3.41402 0
M  V30 255 C 21.3515 0.134531 4.27789 0
M  V30 256 C 20.6775 -0.844285 5.27992 0
M  V30 257 C 21.9775 1.32979 5.05088 0
M  V30 258 H 23.6715 1.02787 2.81203 0
M  V30 259 H 21.2175 0.495717 1.35199 0
M  V30 260 H 23.1705 -1.05302 4.08031 0
M  V30 261 H 21.8945 -1.47785 2.91251 0
M  V30 262 H 20.5535 0.531296 3.6273 0
M  V30 263 H 20.2015 -1.68011 4.74111 0
M  V30 264 H 19.9015 -0.332184 5.8666 0
M  V30 265 H 21.4255 -1.2583 5.97494 0
M  V30 266 H 22.8395 0.98934 5.64699 0
M  V30 267 H 21.2365 1.77593 5.7322 0
M  V30 268 H 22.3065 2.11978 4.36111 0
M  V30 269 N 23.6496 -1.47581 0.552962 0
M  V30 270 C 24.5596 -2.33743 -0.200353 0
M  V30 271 C 25.5756 -1.47928 -0.916151 0
M  V30 272 O 26.7516 -1.80865 -0.885993 0
M  V30 273 C 23.8166 -3.24536 -1.21973 0
M  V30 274 C 22.8776 -4.26238 -0.511819 0
M  V30 275 C 22.1106 -5.12693 -1.48263 0
M  V30 276 O 22.3336 -5.01525 -2.71714 0
M  V30 277 O 21.2676 -5.93375 -1.00945 0
M  V30 278 H 25.0936 -2.9945 0.506304 0
M  V30 279 H 22.6786 -1.46071 0.313622 0
M  V30 280 H 24.5606 -3.80631 -1.80827 0
M  V30 281 H 23.2356 -2.61462 -1.90839 0
M  V30 282 H 22.1426 -3.73914 0.117799 0
M  V30 283 H 23.4756 -4.92014 0.135308 0
M  V30 284 N 25.1277 -0.289203 -1.54924 0
M  V30 285 C 26.0747 0.592115 -2.23075 0
M  V30 286 C 27.0447 1.13881 -1.20915 0
M  V30 287 O 28.2297 1.18551 -1.495 0
M  V30 288 C 25.3697 1.76376 -2.96623 0
M  V30 289 C 24.4827 1.24959 -4.13533 0
M  V30 290 C 23.6177 2.38416 -4.74691 0
M  V30 291 C 22.6567 1.84072 -5.83767 0
M  V30 292 N 21.7937 2.91057 -6.38929 0
M  V30 293 H 26.6337 0.00432038 -2.98 0
M  V30 294 H 24.1707 -0.00963529 -1.47097 0
M  V30 295 H 26.1287 2.45268 -3.3749 0
M  V30 296 H 24.7587 2.32337 -2.24097 0
M  V30 297 H 23.8107 0.453307 -3.77689 0
M  V30 298 H 25.1227 0.811662 -4.92152 0
M  V30 299 H 24.2767 3.15276 -5.18349 0
M  V30 300 H 23.0157 2.8553 -3.95378 0
M  V30 301 H 22.0207 1.05697 -5.39545 0
M  V30 302 H 23.2457 1.37877 -6.64956 0
M  V30 303 H 21.1917 3.37526 -5.62505 0
M  V30 304 H 21.1087 2.51724 -7.12861 0
M  V30 305 H 22.3767 3.6785 -6.87246 0
M  V30 306 N 26.6058 1.57591 -0.0167156 0
M  V30 307 C 27.8518 1.91567 0.665582 0
M  V30 308 C 28.1848 0.892298 1.72487 0
M  V30 309 O 27.4598 -0.0867127 1.94307 0
M  V30 310 C 27.7428 3.36069 1.29342 0
M  V30 311 C 27.5958 4.49135 0.244541 0
M  V30 312 C 28.9148 3.803 2.21495 0
M  V30 313 H 26.0338 0.69666 0.240488 0
M  V30 314 H 28.6758 1.89866 -0.0714356 0
M  V30 315 H 26.8258 3.3765 1.92158 0
M  V30 316 H 28.4978 4.59689 -0.385228 0
M  V30 317 H 26.7408 4.3165 -0.431379 0
M  V30 318 H 27.4118 5.47242 0.723207 0
M  V30 319 H 29.8878 3.80377 1.68678 0
M  V30 320 H 28.7638 4.82127 2.62382 0
M  V30 321 H 29.0248 3.15104 3.101 0
M  V30 322 N 28.0839 -0.256276 1.55502 0
M  V30 323 C 29.0139 -1.32102 1.92539 0
M  V30 324 C 29.9949 -1.50684 0.789194 0
M  V30 325 O 31.1799 -1.63449 1.04872 0
M  V30 326 C 28.3099 -2.67752 2.21192 0
M  V30 327 C 27.2639 -2.63878 3.36975 0
M  V30 328 C 26.5899 -4.03236 3.51147 0
M  V30 329 C 27.8899 -2.21682 4.72921 0
M  V30 330 H 29.5839 -1.01351 2.81724 0
M  V30 331 H 27.1299 -0.486105 1.35547 0
M  V30 332 H 29.0829 -3.42365 2.45691 0
M  V30 333 H 27.8069 -3.0012 1.28824 0
M  V30 334 H 26.4659 -1.91722 3.12471 0
M  V30 335 H 26.1139 -4.32854 2.56216 0
M  V30 336 H 25.8139 -4.01535 4.29003 0
M  V30 337 H 27.3379 -4.79563 3.77957 0
M  V30 338 H 28.7519 -2.86023 4.96854 0
M  V30 339 H 27.1489 -2.3111 5.53812 0
M  V30 340 H 28.2189 -1.16833 4.70615 0
M  V30 341 N 29.562 -1.4872 -0.521534 0
M  V30 342 C 30.472 -1.66569 -1.65203 0
M  V30 343 C 31.488 -0.548197 -1.65139 0
M  V30 344 O 32.664 -0.820339 -1.83936 0
M  V30 345 C 29.729 -1.70917 -3.01642 0
M  V30 346 C 28.79 -2.94356 -3.12495 0
M  V30 347 C 28.023 -2.98487 -4.42426 0
M  V30 348 O 28.246 -2.10786 -5.30024 0
M  V30 349 O 27.18 -3.90746 -4.57822 0
M  V30 350 H 31.006 -2.62298 -1.5308 0
M  V30 351 H 28.591 -1.3222 -0.695565 0
M  V30 352 H 30.473 -1.7625 -3.82771 0
M  V30 353 H 29.148 -0.783633 -3.14071 0
M  V30 354 H 28.055 -2.94552 -2.3063 0
M  V30 355 H 29.388 -3.86322 -3.04986 0
M  V30 356 N 31.0401 0.771051 -1.3745 0
M  V30 357 C 31.9701 1.89827 -1.3597 0
M  V30 358 C 32.9511 1.68562 -0.228216 0
M  V30 359 O 34.1361 1.8941 -0.428675 0
M  V30 360 C 31.2661 3.2712 -1.16662 0
M  V30 361 C 30.2201 3.6295 -2.2683 0
M  V30 362 C 29.5461 4.98791 -1.92644 0
M  V30 363 C 30.8461 3.69627 -3.69017 0
M  V30 364 H 32.5401 1.91323 -2.30295 0
M  V30 365 H 30.0861 0.919082 -1.10855 0
M  V30 366 H 32.0391 4.05615 -1.14256 0
M  V30 367 H 30.7631 3.26059 -0.187926 0
M  V30 368 H 29.4221 2.86763 -2.28392 0
M  V30 369 H 29.0701 4.94271 -0.933021 0
M  V30 370 H 28.7701 5.23733 -2.66416 0
M  V30 371 H 30.2941 5.79685 -1.91826 0
M  V30 372 H 31.7081 4.38273 -3.69581 0
M  V30 373 H 30.1051 4.06067 -4.41848 0
M  V30 374 H 31.1751 2.70273 -4.02592 0
M  V30 375 N 32.5182 1.22032 0.997298 0
M  V30 376 C 33.4662 0.983634 2.10778 0
M  V30 377 C 34.4602 -0.0717564 1.69248 0
M  V30 378 O 35.6662 0.080304 1.79821 0
M  V30 379 H 32.0412 0.300877 0.689186 0
M  V30 380 H 34.0122 1.92606 2.27916 0
M  V30 381 C 32.7612 0.57326 3.42942 0
M  V30 382 H 32.0842 1.37702 3.75338 0
M  V30 383 H 33.5242 0.447031 4.21637 0
M  V30 384 C 31.9832 -0.7167 3.29188 0
M  V30 385 O 32.5132 -1.77027 3.60589 0
M  V30 386 N 30.7192 -0.686167 2.82383 0
M  V30 387 H 30.2662 0.171507 2.57028 0
M  V30 388 H 30.2242 -1.54955 2.73562 0
M  V30 389 N 33.9963 -1.19345 1.0293 0
M  V30 390 C 34.9593 -2.20793 0.615069 0
M  V30 391 C 35.9593 -1.57553 -0.321533 0
M  V30 392 O 37.1493 -1.73862 -0.108483 0
M  V30 393 C 34.2813 -3.40754 -0.0999222 0
M  V30 394 H 35.4743 -2.58955 1.51269 0
M  V30 395 H 33.0273 -1.3303 0.820534 0
M  V30 396 H 33.7623 -3.0811 -1.01187 0
M  V30 397 H 33.5473 -3.87889 0.57309 0
M  V30 398 H 35.0373 -4.15898 -0.376645 0
M  V30 399 N 35.4744 -0.807222 -1.35358 0
M  V30 400 C 36.4214 -0.216037 -2.29787 0
M  V30 401 C 37.3914 0.650278 -1.52842 0
M  V30 402 O 38.5764 0.595227 -1.81278 0
M  V30 403 C 35.7164 0.628893 -3.39321 0
M  V30 404 C 34.8294 -0.257927 -4.31229 0
M  V30 405 C 33.9644 0.595069 -5.27856 0
M  V30 406 C 33.0034 -0.292111 -6.11403 0
M  V30 407 N 32.1404 0.520895 -7.00165 0
M  V30 408 H 36.9804 -1.02671 -2.79755 0
M  V30 409 H 34.5174 -0.517839 -1.37684 0
M  V30 410 H 36.4754 1.13393 -4.01494 0
M  V30 411 H 35.1054 1.40482 -2.90628 0
M  V30 412 H 34.1574 -0.881076 -3.70056 0
M  V30 413 H 35.4694 -0.940759 -4.89848 0
M  V30 414 H 34.6234 1.16522 -5.95405 0
M  V30 415 H 33.3624 1.31146 -4.69736 0
M  V30 416 H 32.3674 -0.874525 -5.428 0
M  V30 417 H 33.5924 -1.00638 -6.71602 0
M  V30 418 H 31.5384 1.22125 -6.44532 0
M  V30 419 H 31.4554 -0.103877 -7.55929 0
M  V30 420 H 32.7234 1.0743 -7.72062 0
M  V30 421 N 36.9525 1.47285 -0.560781 0
M  V30 422 C 38.2005 2.02064 -0.0379868 0
M  V30 423 C 38.5215 1.43711 1.31803 0
M  V30 424 O 37.7915 0.61362 1.86042 0
M  V30 425 H 36.3715 0.746918 -0.0110531 0
M  V30 426 H 39.0335 1.80648 -0.731598 0
M  V30 427 H 38.1295 3.12064 0.0474463 0
M  V30 428 N 38.4306 0.297415 1.54768 0
M  V30 429 C 39.3406 -0.58983 2.27064 0
M  V30 430 C 40.3566 -1.15144 1.30453 0
M  V30 431 O 41.5326 -1.17699 1.63428 0
M  V30 432 C 38.5976 -1.74714 2.9946 0
M  V30 433 C 37.6586 -1.21997 4.11601 0
M  V30 434 C 36.8916 -2.32212 4.80535 0
M  V30 435 O 37.1146 -3.52036 4.48806 0
M  V30 436 O 36.0486 -1.99106 5.68014 0
M  V30 437 H 39.8746 -0.00348199 3.037 0
M  V30 438 H 37.4596 0.0640035 1.49263 0
M  V30 439 H 39.3416 -2.42147 3.44881 0
M  V30 440 H 38.0166 -2.32016 2.25722 0
M  V30 441 H 36.9236 -0.511458 3.70587 0
M  V30 442 H 38.2566 -0.692419 4.87305 0
M  V30 443 N 39.9087 -1.5758 0.0250728 0
M  V30 444 C 40.8557 -2.09973 -0.958129 0
M  V30 445 C 41.8257 -1.00085 -1.3256 0
M  V30 446 O 43.0107 -1.27481 -1.41962 0
M  V30 447 C 40.1507 -2.62812 -2.2366 0
M  V30 448 C 39.2637 -3.86693 -1.92594 0
M  V30 449 C 38.3987 -4.27941 -3.14707 0
M  V30 450 C 37.4377 -5.44591 -2.79442 0
M  V30 451 N 36.5747 -5.81014 -3.94167 0
M  V30 452 H 41.4147 -2.937 -0.504428 0
M  V30 453 H 38.9517 -1.45172 -0.237392 0
M  V30 454 H 40.9097 -2.91536 -2.98434 0
M  V30 455 H 39.5397 -1.81922 -2.66654 0
M  V30 456 H 38.5917 -3.64723 -1.0808 0
M  V30 457 H 39.9037 -4.71547 -1.62619 0
M  V30 458 H 39.0577 -4.58079 -3.97804 0
M  V30 459 H 37.7967 -3.41845 -3.4784 0
M  V30 460 H 36.8017 -5.1415 -1.94755 0
M  V30 461 H 38.0267 -6.32382 -2.47528 0
M  V30 462 H 35.9727 -4.97874 -4.2715 0
M  V30 463 H 35.8897 -6.60498 -3.67801 0
M  V30 464 H 37.1577 -6.15756 -4.7798 0
M  V30 465 N 41.3868 0.248026 -1.55636 0
M  V30 466 C 42.8028 0.596483 -1.48035 0
M  V30 467 C 43.0028 1.88386 -0.715039 0
M  V30 468 O 42.0588 2.51319 -0.243944 0
M  V30 469 C 43.3718 0.700258 -2.92433 0
M  V30 470 C 44.9198 0.792659 -3.02797 0
M  V30 471 C 45.3948 0.928005 -4.485 0
M  V30 472 N 46.8858 0.992903 -4.52433 0
M  V30 473 C 47.6208 1.11687 -5.62418 0
M  V30 474 N 47.1168 1.20645 -6.82214 0
M  V30 475 N 48.9098 1.14994 -5.50212 0
M  V30 476 H 41.0608 -0.597109 -2.03834 0
M  V30 477 H 43.3238 -0.205925 -0.925364 0
M  V30 478 H 43.0298 -0.175658 -3.51261 0
M  V30 479 H 42.9038 1.57255 -3.42857 0
M  V30 480 H 45.2908 1.65903 -2.4405 0
M  V30 481 H 45.3718 -0.104762 -2.55585 0
M  V30 482 H 45.0158 0.0661971 -5.07857 0
M  V30 483 H 44.9458 1.84045 -4.93391 0
M  V30 484 H 47.4368 0.935064 -3.66149 0
M  V30 485 H 47.7498 1.30008 -7.61786 0
M  V30 486 H 46.0948 1.17605 -6.84977 0
M  V30 487 H 49.2858 1.07643 -4.55555 0
M  V30 488 H 49.4588 1.24311 -6.35965 0
M  V30 489 N 42.8649 1.48995 0.513639 0
M  V30 490 C 43.7949 1.67636 1.62544 0
M  V30 491 C 44.7759 0.525087 1.61793 0
M  V30 492 O 45.9609 0.759502 1.78732 0
M  V30 493 C 43.0909 1.73114 3.01079 0
M  V30 494 C 42.0449 2.87905 3.16693 0
M  V30 495 C 41.3709 2.78486 4.56453 0
M  V30 496 C 42.6709 4.29005 2.97913 0
M  V30 497 H 44.3649 2.60716 1.47198 0
M  V30 498 H 41.9109 1.25465 0.706714 0
M  V30 499 H 43.8639 1.84742 3.78746 0
M  V30 500 H 42.5879 0.766241 3.17484 0
M  V30 501 H 41.2469 2.75859 2.41448 0
M  V30 502 H 40.8949 1.7993 4.69717 0
M  V30 503 H 40.5949 3.55523 4.67843 0
M  V30 504 H 42.1189 2.92104 5.36197 0
M  V30 505 H 43.5329 4.41798 3.65359 0
M  V30 506 H 41.9299 5.07166 3.20785 0
M  V30 507 H 42.9999 4.44329 1.94165 0
M  V30 508 N 44.343 -0.763751 1.37857 0
M  V30 509 C 45.592 -1.51789 1.32827 0
M  V30 510 C 45.905 -1.95426 -0.0823719 0
M  V30 511 O 47.111 -2.70298 -0.255172 0
M  V30 512 C 45.567 -2.74133 2.33193 0
M  V30 513 C 45.175 -2.37562 3.79827 0
M  V30 514 C 46.919 -3.52054 2.37188 0
M  V30 515 C 44.826 -3.56456 4.71904 0
M  V30 516 H 43.756 -0.569896 0.493695 0
M  V30 517 H 46.407 -0.835822 1.63359 0
M  V30 518 H 44.789 -3.4427 1.9569 0
M  V30 519 H 45.963 -1.75157 4.26212 0
M  V30 520 H 44.278 -1.72798 3.78853 0
M  V30 521 H 46.875 -4.40437 3.03182 0
M  V30 522 H 47.218 -3.92486 1.38782 0
M  V30 523 H 47.751 -2.88921 2.7344 0
M  V30 524 H 44.49 -3.21099 5.71468 0
M  V30 525 H 44.01 -4.17938 4.30218 0
M  V30 526 H 45.689 -4.23168 4.89426 0
M  V30 527 N 45.8211 -1.22559 -0.990812 0
M  V30 528 C 46.7681 -0.997519 -2.0813 0
M  V30 529 C 47.7381 0.0814702 -1.659 0
M  V30 530 O 48.9231 -0.0685424 -1.90677 0
M  V30 531 C 46.0631 -0.583615 -3.40129 0
M  V30 532 C 45.1761 -1.7336 -3.9569 0
M  V30 533 C 44.3111 -1.26748 -5.15857 0
M  V30 534 C 43.3501 -2.38888 -5.63559 0
M  V30 535 N 42.4871 -1.93308 -6.74964 0
M  V30 536 H 47.3271 -1.93099 -2.26973 0
M  V30 537 H 44.8641 -0.962114 -1.11273 0
M  V30 538 H 46.8221 -0.324801 -4.15934 0
M  V30 539 H 45.4521 0.312845 -3.2128 0
M  V30 540 H 44.5041 -2.10669 -3.16738 0
M  V30 541 H 45.8161 -2.57704 -4.27071 0
M  V30 542 H 44.9701 -0.966173 -5.98957 0
M  V30 543 H 43.7091 -0.394272 -4.86104 0
M  V30 544 H 42.7141 -2.69805 -4.79046 0
M  V30 545 H 43.9391 -3.26728 -5.95336 0
M  V30 546 H 41.8851 -1.08352 -6.4699 0
M  V30 547 H 41.8021 -2.71217 -7.05675 0
M  V30 548 H 43.0701 -1.66252 -7.61564 0
M  V30 549 N 47.2992 1.18797 -1.03562 0
M  V30 550 C 48.5272 1.92599 -0.755869 0
M  V30 551 C 48.9422 1.75886 0.686271 0
M  V30 552 O 48.2992 1.08517 1.46732 0
M  V30 553 C 48.3502 3.44159 -1.10619 0
M  V30 554 O 48.0712 3.60341 -2.4917 0
M  V30 555 C 49.5722 4.3507 -0.850214 0
M  V30 556 H 46.7922 0.611587 -0.276048 0
M  V30 557 H 49.3362 1.50742 -1.38192 0
M  V30 558 H 47.4912 3.83823 -0.525194 0
M  V30 559 H 47.9052 4.54128 -2.62427 0
M  V30 560 H 49.3792 5.39989 -1.14523 0
M  V30 561 H 49.8562 4.38673 0.215176 0
M  V30 562 H 50.4622 4.01097 -1.41426 0
M  V30 563 N 48.7773 0.814389 1.34928 0
M  V30 564 C 50.0233 0.408167 1.99263 0
M  V30 565 C 50.3783 -1.0154 1.63424 0
M  V30 566 O 49.6713 -1.69607 0.891289 0
M  V30 567 C 49.8653 0.537781 3.53331 0
M  V30 568 C 49.6943 1.9724 4.04137 0
M  V30 569 C 48.4643 2.60245 4.33129 0
M  V30 570 C 50.6623 2.93801 4.2212 0
M  V30 571 N 48.6443 3.95036 4.69914 0
M  V30 572 C 50.0153 4.1348 4.6199 0
M  V30 573 C 52.0703 2.9053 4.04348 0
M  V30 574 C 50.7733 5.3033 4.85945 0
M  V30 575 C 52.7993 4.06589 4.29464 0
M  V30 576 C 52.1613 5.25017 4.69613 0
M  V30 577 H 48.2603 0.197289 0.756704 0
M  V30 578 H 50.8443 1.05728 1.63492 0
M  V30 579 H 49.0153 -0.0813868 3.88315 0
M  V30 580 H 50.7473 0.105389 4.04563 0
M  V30 581 H 47.5023 2.11545 4.23728 0
M  V30 582 H 47.9263 4.64455 4.92555 0
M  V30 583 H 52.5683 2.00115 3.72443 0
M  V30 584 H 50.2863 6.21309 5.16721 0
M  V30 585 H 53.8723 4.05447 4.17257 0
M  V30 586 H 52.7523 6.1333 4.88667 0
M  V30 587 N 50.2554 -1.46986 0.568584 0
M  V30 588 C 51.4804 -2.07335 0.0520528 0
M  V30 589 C 51.9054 -1.41675 -1.23733 0
M  V30 590 O 51.2634 -0.495623 -1.74394 0
M  V30 591 C 51.3114 -3.60417 -0.11501 0
M  V30 592 O 50.4154 -3.95309 -1.17492 0
M  V30 593 H 49.7564 -0.661597 0.0564385 0
M  V30 594 H 52.2864 -1.88837 0.787507 0
M  V30 595 H 52.2964 -4.06698 -0.325644 0
M  V30 596 H 50.9714 -4.07601 0.826675 0
M  V30 597 H 49.5484 -3.60757 -0.943869 0
M  V30 598 N 51.7335 -0.305618 -1.54608 0
M  V30 599 C 53.1495 0.0476228 -1.59529 0
M  V30 600 C 53.3495 1.52025 -1.32252 0
M  V30 601 O 52.4055 2.27368 -1.09818 0
M  V30 602 C 53.7185 -0.354471 -2.98603 0
M  V30 603 C 55.2665 -0.303622 -3.11524 0
M  V30 604 C 55.7415 -0.680608 -4.52915 0
M  V30 605 N 57.2325 -0.63332 -4.5885 0
M  V30 606 C 57.9675 -0.897432 -5.66334 0
M  V30 607 N 57.4635 -1.22775 -6.81834 0
M  V30 608 N 59.2565 -0.824186 -5.56025 0
M  V30 609 H 51.4075 -1.2653 -1.70599 0
M  V30 610 H 53.6705 -0.513291 -0.797017 0
M  V30 611 H 53.3765 -1.3798 -3.23503 0
M  V30 612 H 53.2505 0.289568 -3.76087 0
M  V30 613 H 55.6375 0.712472 -2.8637 0
M  V30 614 H 55.7185 -0.982348 -2.36185 0
M  V30 615 H 55.3625 -1.69453 -4.78799 0
M  V30 616 H 55.2925 0.0202385 -5.26596 0
M  V30 617 H 57.7835 -0.389138 -3.75891 0
M  V30 618 H 58.0965 -1.41513 -7.59733 0
M  V30 619 H 56.4415 -1.26583 -6.83375 0
M  V30 620 H 59.6325 -0.565748 -4.64669 0
M  V30 621 H 59.8055 -1.03338 -6.39707 0
M  V30 622 N 53.2116 1.57565 -0.0334293 0
M  V30 623 C 54.6276 1.56297 0.322997 0
M  V30 624 C 54.8276 1.03945 1.7262 0
M  V30 625 O 53.8836 0.688109 2.42943 0
M  V30 626 C 55.1966 3.00232 0.167664 0
M  V30 627 C 56.7446 3.12078 0.240107 0
M  V30 628 C 57.2196 4.57859 0.113513 0
M  V30 629 N 58.7106 4.62887 0.170359 0
M  V30 630 C 59.4456 5.73319 0.0962517 0
M  V30 631 N 58.9416 6.92794 -0.0291881 0
M  V30 632 N 60.7346 5.61898 0.150551 0
M  V30 633 H 52.8856 1.89923 -0.950956 0
M  V30 634 H 55.1486 0.873824 -0.367608 0
M  V30 635 H 54.8546 3.42501 -0.799102 0
M  V30 636 H 54.7286 3.654 0.936083 0
M  V30 637 H 57.1156 2.69718 1.19733 0
M  V30 638 H 57.1966 2.49623 -0.558763 0
M  V30 639 H 56.8406 5.009 -0.840314 0
M  V30 640 H 56.7706 5.18299 0.931302 0
M  V30 641 H 59.2616 3.76954 0.26728 0
M  V30 642 H 59.5746 7.7276 -0.0789252 0
M  V30 643 H 57.9196 6.94971 -0.0640299 0
M  V30 644 H 61.1106 4.67448 0.246981 0
M  V30 645 H 61.2836 6.47938 0.0893365 0
M  V30 646 N 54.6897 -0.239769 1.55765 0
M  V30 647 C 55.9147 -0.988373 1.82335 0
M  V30 648 C 56.3397 -1.77886 0.611421 0
M  V30 649 O 55.6977 -1.75889 -0.439639 0
M  V30 650 C 55.7457 -1.89627 3.06715 0
M  V30 651 O 54.8497 -2.98904 2.84131 0
M  V30 652 H 54.1907 -0.280858 0.601677 0
M  V30 653 H 56.7207 -0.258597 2.02959 0
M  V30 654 H 56.7307 -2.30957 3.36338 0
M  V30 655 H 55.4057 -1.31511 3.9456 0
M  V30 656 H 53.9827 -2.61651 2.65694 0
M  V30 657 N 56.1678 -1.49265 -0.50573 0
M  V30 658 C 57.3958 -1.62215 -1.28429 0
M  V30 659 C 57.8108 -0.291697 -1.86533 0
M  V30 660 O 57.1678 0.722233 -1.67601 0
M  V30 661 C 57.2188 -2.68735 -2.41793 0
M  V30 662 O 56.9398 -3.96619 -1.86078 0
M  V30 663 C 58.4408 -2.92346 -3.3324 0
M  V30 664 H 55.6608 -0.546239 -0.389697 0
M  V30 665 H 58.2048 -1.95265 -0.607609 0
M  V30 666 H 56.3598 -2.38476 -3.053 0
M  V30 667 H 56.7738 -4.55256 -2.60465 0
M  V30 668 H 58.2478 -3.70623 -4.09075 0
M  V30 669 H 58.7248 -2.02081 -3.89948 0
M  V30 670 H 59.3308 -3.24003 -2.75503 0
M  V30 671 N 57.6459 0.756429 -1.3826 0
M  V30 672 C 58.8949 1.51082 -1.3363 0
M  V30 673 C 59.2079 1.95467 0.0720068 0
M  V30 674 O 60.4139 2.7043 0.240834 0
M  V30 675 C 58.8699 2.72893 -2.34644 0
M  V30 676 C 58.4779 2.35544 -3.81081 0
M  V30 677 C 60.2219 3.50791 -2.39052 0
M  V30 678 C 58.1289 3.53948 -4.73787 0
M  V30 679 H 57.0589 0.56727 -0.49671 0
M  V30 680 H 59.7099 0.827147 -1.638 0
M  V30 681 H 58.0919 3.43227 -1.97513 0
M  V30 682 H 59.2659 1.72894 -4.27135 0
M  V30 683 H 57.5809 1.70786 -3.79764 0
M  V30 684 H 60.1779 4.38823 -3.05513 0
M  V30 685 H 60.5209 3.91745 -1.40861 0
M  V30 686 H 61.0539 2.87467 -2.74968 0
M  V30 687 H 57.7929 3.18064 -5.73163 0
M  V30 688 H 57.3129 4.15651 -4.32428 0
M  V30 689 H 58.9919 4.20566 -4.91663 0
M  V30 690 N 59.124 1.23083 0.984299 0
M  V30 691 C 60.37 1.06214 1.72761 0
M  V30 692 C 60.703 -0.400584 1.90024 0
M  V30 693 O 59.978 -1.29672 1.44967 0
M  V30 694 C 60.261 1.78375 3.12817 0
M  V30 695 C 60.114 3.32296 3.03149 0
M  V30 696 C 61.433 1.54309 4.12161 0
M  V30 697 H 58.552 0.387251 0.627061 0
M  V30 698 H 61.194 1.51536 1.14616 0
M  V30 699 H 59.344 1.39848 3.62457 0
M  V30 700 H 61.016 3.8032 2.61064 0
M  V30 701 H 59.259 3.6153 2.39747 0
M  V30 702 H 59.93 3.77972 4.02295 0
M  V30 703 H 62.406 1.87791 3.71314 0
M  V30 704 H 61.282 2.07281 5.08258 0
M  V30 705 H 61.543 0.477572 4.39513 0
M  V30 706 N 60.6021 -1.18246 1.0419 0
M  V30 707 C 62.0131 -1.69914 0.773698 0
M  V30 708 C 62.3641 -1.83085 -0.705297 0
M  V30 709 O 61.4891 -1.51123 -1.5489 0
M  V30 710 C 62.0841 -3.08619 1.39784 0
M  V30 711 C 60.6431 -3.57494 1.17792 0
M  V30 712 C 59.7901 -2.34013 1.48773 0
M  V30 713 H 62.7411 -1.02904 1.20816 0
M  V30 714 H 62.7621 -3.71958 0.801714 0
M  V30 715 H 62.2741 -2.99001 2.47426 0
M  V30 716 H 60.3751 -3.72406 0.120295 0
M  V30 717 H 60.4881 -4.40852 1.87581 0
M  V30 718 H 58.8521 -2.37986 0.907463 0
M  V30 719 H 59.6351 -2.27013 2.57527 0
M  V30 720 N 62.0802 -0.821533 -1.34494 0
M  V30 721 C 62.9902 -0.244355 -2.33324 0
M  V30 722 C 64.0062 0.620527 -1.62559 0
M  V30 723 O 65.1822 0.528754 -1.94335 0
M  V30 724 C 62.2472 0.585368 -3.41723 0
M  V30 725 C 61.3082 -0.301752 -4.28238 0
M  V30 726 C 60.5412 0.488466 -5.3146 0
M  V30 727 O 60.7642 1.72186 -5.4379 0
M  V30 728 O 59.6982 -0.12848 -6.01763 0
M  V30 729 H 63.5242 -1.06231 -2.84515 0
M  V30 730 H 61.1092 -0.583645 -1.37528 0
M  V30 731 H 62.9912 1.05747 -4.07916 0
M  V30 732 H 61.6662 1.38068 -2.92778 0
M  V30 733 H 60.5732 -0.821315 -3.64973 0
M  V30 734 H 61.9062 -1.06138 -4.8062 0
M  V30 735 N 63.5583 1.46682 -0.576371 0
M  V30 736 C 64.4913 2.27243 0.208731 0
M  V30 737 C 65.4693 1.35238 0.902746 0
M  V30 738 O 66.6533 1.64641 0.917904 0
M  V30 739 C 63.7803 3.12802 1.29896 0
M  V30 740 C 62.8263 4.20524 0.711457 0
M  V30 741 S 63.6593 5.33548 -0.456781 0
M  V30 742 C 64.8153 6.22673 0.634798 0
M  V30 743 H 65.0483 2.93484 -0.474838 0
M  V30 744 H 62.5813 1.50069 -0.363118 0
M  V30 745 H 64.5393 3.62661 1.92321 0
M  V30 746 H 63.2003 2.45887 1.95444 0
M  V30 747 H 62.3933 4.80191 1.53076 0
M  V30 748 H 61.9953 3.73645 0.162999 0
M  V30 749 H 64.2873 6.60181 1.52209 0
M  V30 750 H 65.2303 7.0806 0.0750311 0
M  V30 751 H 65.6383 5.56684 0.936092 0
M  V30 752 N 65.0364 0.313813 1.54444 0
M  V30 753 C 66.2824 -0.292108 2.00685 0
M  V30 754 C 66.6154 -1.52548 1.20177 0
M  V30 755 O 65.8904 -1.92452 0.281531 0
M  V30 756 C 66.1734 -0.635968 3.5444 0
M  V30 757 C 66.0264 0.607437 4.4568 0
M  V30 758 C 67.3454 -1.45747 4.15266 0
M  V30 759 H 64.4644 -0.104697 0.729526 0
M  V30 760 H 67.1064 0.428457 1.85106 0
M  V30 761 H 65.2564 -1.24986 3.67846 0
M  V30 762 H 66.9284 1.24581 4.44159 0
M  V30 763 H 65.1714 1.23822 4.15753 0
M  V30 764 H 65.8424 0.322515 5.51057 0
M  V30 765 H 68.3184 -0.938645 4.05375 0
M  V30 766 H 67.1944 -1.66683 5.2298 0
M  V30 767 H 67.4554 -2.45063 3.67963 0
M  V30 768 N 66.5145 -1.57545 0.0417849 0
M  V30 769 C 67.7625 -1.91937 -0.632829 0
M  V30 770 C 68.0835 -0.919978 -1.71934 0
M  V30 771 O 67.3535 0.0366064 -1.95866 0
M  V30 772 H 65.9335 -0.708493 -0.236742 0
M  V30 773 H 68.5955 -1.9468 0.0925745 0
M  V30 774 H 67.6915 -2.92912 -1.07746 0
M  V30 775 N 67.9926 0.231505 -1.5589 0
M  V30 776 C 68.9426 1.29007 -1.87993 0
M  V30 777 C 69.9266 1.42764 -0.742102 0
M  V30 778 O 71.1186 1.45747 -1.00433 0
M  V30 779 C 68.2476 2.6425 -2.1915 0
M  V30 780 C 67.3336 2.54435 -3.39299 0
M  V30 781 N 67.7246 2.14262 -4.58176 0
M  V30 782 C 66.0226 2.85416 -3.42715 0
M  V30 783 C 66.7236 2.15455 -5.40328 0
M  V30 784 N 65.6996 2.55558 -4.79783 0
M  V30 785 H 69.5016 0.970213 -2.77424 0
M  V30 786 H 67.0156 0.440097 -1.56323 0
M  V30 787 H 69.0126 3.40665 -2.40319 0
M  V30 788 H 67.6726 2.9709 -1.31025 0
M  V30 789 H 68.6836 1.85554 -4.83518 0
M  V30 790 H 65.3606 3.22693 -2.64906 0
M  V30 791 H 66.7506 1.86605 -6.45467 0
M  V30 792 N 69.4707 1.49531 0.497807 0
M  V30 793 C 70.6987 1.62893 1.27567 0
M  V30 794 C 71.1137 0.301585 1.86376 0
M  V30 795 O 70.4707 -0.713335 1.67982 0
M  V30 796 C 70.5217 2.70013 2.40364 0
M  V30 797 O 70.2427 3.976 1.83972 0
M  V30 798 C 71.7437 2.94109 3.31685 0
M  V30 799 H 68.9637 0.548298 0.386794 0
M  V30 800 H 71.5077 1.95584 0.597245 0
M  V30 801 H 69.6627 2.40092 3.04031 0
M  V30 802 H 70.0767 4.56631 2.58047 0
M  V30 803 H 71.5507 3.72788 4.07104 0
M  V30 804 H 72.0277 2.04147 3.88871 0
M  V30 805 H 72.6337 3.2546 2.73781 0
M  V30 806 N 70.9488 -0.749086 1.3866 0
M  V30 807 C 72.1978 -1.50371 1.3443 0
M  V30 808 C 72.5108 -1.95503 -0.0616397 0
M  V30 809 O 73.7168 -2.70554 -0.226489 0
M  V30 810 C 72.1728 -2.71644 2.36088 0
M  V30 811 C 71.7808 -2.3352 3.82325 0
M  V30 812 C 73.5248 -3.49518 2.40909 0
M  V30 813 C 71.4318 -3.51431 4.75658 0
M  V30 814 H 70.3618 -0.564628 0.499712 0
M  V30 815 H 73.0128 -0.818449 1.64237 0
M  V30 816 H 71.3948 -3.42175 1.9933 0
M  V30 817 H 72.5688 -1.70627 4.28046 0
M  V30 818 H 70.8838 -1.6877 3.80665 0
M  V30 819 H 73.4808 -4.37197 3.07836 0
M  V30 820 H 73.8238 -3.90992 1.42937 0
M  V30 821 H 74.3568 -2.86005 2.76489 0
M  V30 822 H 71.0958 -3.15019 5.74842 0
M  V30 823 H 70.6158 -4.13352 4.34627 0
M  V30 824 H 72.2948 -4.17953 4.93887 0
M  V30 825 N 72.4269 -1.23603 -0.977757 0
M  V30 826 C 73.3899 -1.02069 -2.05218 0
M  V30 827 C 74.3899 0.0184305 -1.60789 0
M  V30 828 O 75.5799 -0.221569 -1.72785 0
M  V30 829 C 72.7119 -0.544926 -3.36517 0
M  V30 830 H 73.9049 -1.9742 -2.25755 0
M  V30 831 H 71.4579 -1.05684 -1.15155 0
M  V30 832 H 72.1929 0.412241 -3.21669 0
M  V30 833 H 71.9779 -1.2948 -3.70105 0
M  V30 834 H 73.4679 -0.414985 -4.15533 0
M  V30 835 N 73.905 1.17692 -1.04816 0
M  V30 836 C 75.151 1.88137 -0.75711 0
M  V30 837 C 75.484 1.80604 0.713841 0
M  V30 838 O 74.759 1.21146 1.52164 0
M  V30 839 C 75.042 3.38318 -1.2334 0
M  V30 840 C 74.895 3.54622 -2.76701 0
M  V30 841 C 76.214 4.32214 -0.829415 0
M  V30 842 H 73.333 0.683163 -0.27651 0
M  V30 843 H 75.975 1.38424 -1.30149 0
M  V30 844 H 74.125 3.80787 -0.770286 0
M  V30 845 H 75.797 3.21194 -3.31107 0
M  V30 846 H 74.04 2.97026 -3.16161 0
M  V30 847 H 74.711 4.60028 -3.05088 0
M  V30 848 H 77.187 3.97565 -1.22805 0
M  V30 849 H 76.063 5.35838 -1.19033 0
M  V30 850 H 76.324 4.41294 0.266891 0
M  V30 851 N 75.3831 0.828654 1.34056 0
M  V30 852 C 76.6131 0.431993 2.02033 0
M  V30 853 C 77.0211 -0.96844 1.62536 0
M  V30 854 O 76.3641 -1.6391 0.829408 0
M  V30 855 C 76.4261 0.461224 3.56529 0
M  V30 856 C 76.0901 1.81599 4.1937 0
M  V30 857 C 77.0871 2.7777 4.39477 0
M  V30 858 C 74.7721 2.10604 4.56017 0
M  V30 859 C 76.7661 4.01115 4.95364 0
M  V30 860 C 74.4531 3.34207 5.11614 0
M  V30 861 C 75.4511 4.2928 5.31232 0
M  V30 862 O 75.1391 5.50699 5.8565 0
M  V30 863 H 74.8711 0.170943 0.654029 0
M  V30 864 H 77.4251 1.11988 1.72185 0
M  V30 865 H 75.6551 -0.283388 3.8566 0
M  V30 866 H 77.3441 0.0838149 4.05813 0
M  V30 867 H 78.1101 2.56659 4.11523 0
M  V30 868 H 73.9891 1.37402 4.40047 0
M  V30 869 H 77.5331 4.75333 5.10592 0
M  V30 870 H 73.4301 3.55179 5.38997 0
M  V30 871 H 74.1981 5.52298 6.04077 0
M  V30 872 N 76.8612 -1.46375 0.584142 0
M  V30 873 C 77.8092 -2.32042 -0.161047 0
M  V30 874 C 78.8032 -1.44569 -0.882966 0
M  V30 875 O 80.0092 -1.61186 -0.801191 0
M  V30 876 H 76.3842 -0.748659 -0.0708033 0
M  V30 877 H 78.3552 -2.92704 0.580269 0
M  V30 878 C 77.1042 -3.27762 -1.1605 0
M  V30 879 H 76.4272 -3.95051 -0.614419 0
M  V30 880 H 77.8672 -3.90481 -1.65228 0
M  V30 881 C 76.3262 -2.53218 -2.22221 0
M  V30 882 O 76.8562 -2.29628 -3.29597 0
M  V30 883 N 75.0622 -2.13756 -1.96868 0
M  V30 884 H 74.6092 -2.33142 -1.09557 0
M  V30 885 H 74.5672 -1.642 -2.68115 0
M  V30 886 N 78.3393 -0.321999 -1.54275 0
M  V30 887 C 79.5873 0.280489 -2.00144 0
M  V30 888 C 79.9083 1.52777 -1.21178 0
M  V30 889 O 79.1783 1.9338 -0.313187 0
M  V30 890 H 77.7583 0.106632 -0.73935 0
M  V30 891 H 80.4203 -0.438184 -1.8991 0
M  V30 892 H 79.5163 0.537972 -3.07428 0
M  V30 893 N 79.8174 1.5752 -0.0501392 0
M  V30 894 C 80.7644 2.1147 0.924603 0
M  V30 895 C 81.7344 1.02182 1.30951 0
M  V30 896 O 82.9194 1.29723 1.39916 0
M  V30 897 C 80.0594 2.66337 2.19451 0
M  V30 898 C 79.1724 3.89708 1.86418 0
M  V30 899 C 78.3074 4.32893 3.07859 0
M  V30 900 C 77.3464 5.48967 2.70742 0
M  V30 901 N 76.4834 5.87211 3.84874 0
M  V30 902 H 81.3234 2.94465 0.457639 0
M  V30 903 H 78.8604 1.45531 0.214266 0
M  V30 904 H 80.8184 2.96247 2.93758 0
M  V30 905 H 79.4484 1.86141 2.63726 0
M  V30 906 H 78.5004 3.66396 1.02264 0
M  V30 907 H 79.8124 4.74074 1.55096 0
M  V30 908 H 78.9664 4.6435 3.90466 0
M  V30 909 H 77.7054 3.47336 3.42358 0
M  V30 910 H 76.7104 5.17183 1.86551 0
M  V30 911 H 77.9354 6.3624 2.37436 0
M  V30 912 H 75.8814 5.04607 4.19175 0
M  V30 913 H 75.7984 6.66266 3.57247 0
M  V30 914 H 77.0664 6.23282 4.68123 0
M  V30 915 N 81.2955 -0.223234 1.56011 0
M  V30 916 C 82.2275 -1.30006 1.88762 0
M  V30 917 C 83.2405 -1.43129 0.775746 0
M  V30 918 O 84.4295 -1.44057 1.05403 0
M  V30 919 C 81.5295 -2.67589 2.07965 0
M  V30 920 C 80.7025 -2.76434 3.38973 0
M  V30 921 C 79.7615 -3.95019 3.47629 0
M  V30 922 O 78.7875 -3.83436 4.20672 0
M  V30 923 N 79.9895 -5.09249 2.78649 0
M  V30 924 H 82.7545 -1.02238 2.81722 0
M  V30 925 H 80.3155 -0.413278 1.56536 0
M  V30 926 H 82.3075 -3.45297 2.11073 0
M  V30 927 H 80.8775 -2.87964 1.21638 0
M  V30 928 H 80.0975 -1.85216 3.47978 0
M  V30 929 H 81.3855 -2.79313 4.25278 0
M  V30 930 H 80.7835 -5.21556 2.19081 0
M  V30 931 H 79.3405 -5.85007 2.8742 0
M  V30 932 N 82.7736 -1.49793 -0.48987 0
M  V30 933 C 83.7236 -1.63673 -1.5873 0
M  V30 934 C 84.7076 -0.491956 -1.53195 0
M  V30 935 O 85.8996 -0.745461 -1.60536 0
M  V30 936 C 83.0286 -1.71689 -2.97284 0
M  V30 937 C 82.1146 -2.91781 -3.07774 0
M  V30 938 N 82.5056 -4.15714 -2.88124 0
M  V30 939 C 80.8036 -2.89949 -3.38889 0
M  V30 940 C 81.5046 -4.965 -3.03088 0
M  V30 941 N 80.4806 -4.30083 -3.3246 0
M  V30 942 H 84.2826 -2.57204 -1.42208 0
M  V30 943 H 81.7966 -1.46719 -0.69623 0
M  V30 944 H 83.7936 -1.79732 -3.76168 0
M  V30 945 H 82.4536 -0.793024 -3.14867 0
M  V30 946 H 83.4646 -4.45515 -2.64077 0
M  V30 947 H 80.1416 -2.06987 -3.62578 0
M  V30 948 H 81.5316 -6.04991 -2.92294 0
M  V30 949 N 84.2517 0.741722 -1.39055 0
M  V30 950 C 85.4977 1.50336 -1.36113 0
M  V30 951 C 85.8307 1.94148 0.0450796 0
M  V30 952 O 85.1057 1.66301 1.00868 0
M  V30 953 C 85.3887 2.74773 -2.32749 0
M  V30 954 C 85.2417 2.37023 -3.82283 0
M  V30 955 C 86.5607 3.76846 -2.27322 0
M  V30 956 H 83.6797 0.545351 -0.495743 0
M  V30 957 H 86.3217 0.848624 -1.69995 0
M  V30 958 H 84.4717 3.30639 -2.03986 0
M  V30 959 H 86.1437 1.8684 -4.21768 0
M  V30 960 H 84.3867 1.69334 -3.99385 0
M  V30 961 H 85.0577 3.26104 -4.45376 0
M  V30 962 H 87.5337 3.30548 -2.5274 0
M  V30 963 H 86.4097 4.6159 -2.97028 0
M  V30 964 H 86.6707 4.23286 -1.27599 0
M  V30 965 N 85.7298 1.2412 0.971189 0
M  V30 966 C 87.1408 1.07236 1.52831 0
M  V30 967 C 87.4918 -0.357352 1.92918 0
M  V30 968 O 86.6168 -1.24528 1.76979 0
M  V30 969 C 87.2118 1.94043 2.77728 0
M  V30 970 C 85.7708 1.81394 3.29808 0
M  V30 971 C 84.9178 1.89189 2.02738 0
M  V30 972 H 87.8688 1.37648 0.789864 0
M  V30 973 H 87.8898 1.47066 3.5093 0
M  V30 974 H 87.4018 2.98093 2.4852 0
M  V30 975 H 85.5028 0.801634 3.63874 0
M  V30 976 H 85.6158 2.65294 3.98944 0
M  V30 977 H 83.9798 1.32877 2.17292 0
M  V30 978 H 84.7628 2.94812 1.759 0
M  V30 979 N 87.2079 -1.17134 1.05439 0
M  V30 980 C 88.4539 -1.87733 0.767077 0
M  V30 981 C 88.7869 -1.8098 -0.704253 0
M  V30 982 O 88.0619 -1.21951 -1.5152 0
M  V30 983 C 88.3449 -3.37659 1.25133 0
M  V30 984 C 88.1979 -3.53149 2.78578 0
M  V30 985 C 89.5169 -4.31768 0.852324 0
M  V30 986 H 86.6359 -0.681687 0.280129 0
M  V30 987 H 89.2779 -1.37732 1.30881 0
M  V30 988 H 87.4279 -3.80373 0.790469 0
M  V30 989 H 89.0999 -3.19434 3.32806 0
M  V30 990 H 87.3429 -2.95345 3.17732 0
M  V30 991 H 88.0139 -4.58403 3.07523 0
M  V30 992 H 90.4899 -3.96909 1.24911 0
M  V30 993 H 89.3659 -5.35199 1.21873 0
M  V30 994 H 89.6269 -4.41429 -0.243485 0
M  V30 995 N 88.686 -0.835752 -1.33615 0
M  V30 996 C 89.916 -0.442701 -2.01801 0
M  V30 997 C 90.324 0.959807 -1.63047 0
M  V30 998 O 89.667 1.63468 -0.838088 0
M  V30 999 C 89.729 -0.480125 -3.56279 0
M  V30 1000 C 89.393 -1.8382 -4.18401 0
M  V30 1001 C 90.39 -2.80097 -4.37998 0
M  V30 1002 C 88.075 -2.13019 -4.54894 0
M  V30 1003 C 90.069 -4.03736 -4.9323 0
M  V30 1004 C 87.756 -3.36916 -5.09834 0
M  V30 1005 C 88.754 -4.32091 -5.28948 0
M  V30 1006 O 88.442 -5.53797 -5.82721 0
M  V30 1007 H 88.174 -0.17441 -0.653114 0
M  V30 1008 H 90.728 -1.129 -1.71589 0
M  V30 1009 H 88.958 0.262931 -3.85805 0
M  V30 1010 H 90.647 -0.105335 -4.05763 0
M  V30 1011 H 91.413 -2.58838 -4.10156 0
M  V30 1012 H 87.292 -1.39733 -4.39313 0
M  V30 1013 H 90.836 -4.78034 -5.08064 0
M  V30 1014 H 86.733 -3.58033 -5.37106 0
M  V30 1015 H 87.501 -5.55494 -6.0114 0
M  V30 1016 N 90.1641 1.46063 -0.591896 0
M  V30 1017 C 91.4131 2.01547 -0.0786637 0
M  V30 1018 C 91.7261 1.46796 1.29268 0
M  V30 1019 O 92.9321 1.94157 1.89777 0
M  V30 1020 C 91.3881 3.59787 -0.0900024 0
M  V30 1021 C 90.9961 4.23534 -1.46023 0
M  V30 1022 C 92.7401 4.22895 0.368806 0
M  V30 1023 C 90.6471 5.73881 -1.4288 0
M  V30 1024 H 89.5771 0.753564 -0.0256388 0
M  V30 1025 H 92.2281 1.677 -0.744905 0
M  V30 1026 H 90.6101 3.90752 0.642586 0
M  V30 1027 H 91.7841 4.04167 -2.21328 0
M  V30 1028 H 90.0991 3.72558 -1.85982 0
M  V30 1029 H 92.6961 5.33116 0.411258 0
M  V30 1030 H 93.0391 3.9247 1.38827 0
M  V30 1031 H 93.5721 3.9659 -0.31001 0
M  V30 1032 H 90.3111 6.0898 -2.42536 0
M  V30 1033 H 89.8311 5.95486 -0.718095 0
M  V30 1034 H 91.5101 6.36776 -1.14565 0
M  V30 1035 N 91.6422 0.330177 1.54103 0
M  V30 1036 C 92.8702 -0.272179 2.05102 0
M  V30 1037 C 93.2852 -1.45267 1.20595 0
M  V30 1038 O 92.6422 -1.8094 0.238144 0
M  V30 1039 C 92.6932 -0.70023 3.54653 0
M  V30 1040 O 92.4142 0.433301 4.35952 0
M  V30 1041 C 93.9152 -1.3647 4.21771 0
M  V30 1042 H 91.1352 -0.0549159 0.668749 0
M  V30 1043 H 93.6792 0.478285 1.98828 0
M  V30 1044 H 91.8342 -1.40066 3.61193 0
M  V30 1045 H 92.2482 0.0947539 5.24414 0
M  V30 1046 H 93.7222 -1.61509 5.27843 0
M  V30 1047 H 94.1992 -2.31409 3.73292 0
M  V30 1048 H 94.8052 -0.706675 4.19388 0
M  V30 1049 N 93.1203 -1.57491 0.0584922 0
M  V30 1050 C 94.0303 -2.15448 -0.928414 0
M  V30 1051 C 95.0463 -1.11416 -1.3365 0
M  V30 1052 O 96.2223 -1.4362 -1.41193 0
M  V30 1053 C 93.2873 -2.69393 -2.18239 0
M  V30 1054 C 92.3483 -3.88249 -1.83196 0
M  V30 1055 C 91.5813 -4.39613 -3.02616 0
M  V30 1056 O 91.8043 -3.90023 -4.16219 0
M  V30 1057 O 90.7383 -5.31111 -2.83204 0
M  V30 1058 H 94.5643 -3.00112 -0.465483 0
M  V30 1059 H 92.1493 -1.48499 -0.163826 0
M  V30 1060 H 94.0313 -3.04026 -2.91798 0
M  V30 1061 H 92.7063 -1.87796 -2.63656 0
M  V30 1062 H 91.6133 -3.58492 -1.06931 0
M  V30 1063 H 92.9463 -4.71098 -1.42573 0
M  V30 1064 N 94.5984 0.214957 -1.56127 0
M  V30 1065 C 95.5464 1.28601 -1.93816 0
M  V30 1066 C 96.5404 1.48175 -0.821016 0
M  V30 1067 O 97.7464 1.49271 -1.0059 0
M  V30 1068 H 94.1214 0.431302 -0.616022 0
M  V30 1069 H 96.0924 0.940991 -2.83175 0
M  V30 1070 C 94.8414 2.62779 -2.27689 0
M  V30 1071 H 94.1644 2.48527 -3.13168 0
M  V30 1072 H 95.6044 3.36517 -2.57939 0
M  V30 1073 C 94.0634 3.18285 -1.10436 0
M  V30 1074 O 94.5934 4.00002 -0.368945 0
M  V30 1075 N 92.7994 2.7675 -0.886433 0
M  V30 1076 H 92.3464 2.10404 -1.48619 0
M  V30 1077 H 92.3044 3.14229 -0.103656 0
M  V30 1078 N 96.0765 1.50051 0.48192 0
M  V30 1079 C 97.0095 1.62749 1.59963 0
M  V30 1080 C 97.9875 0.475903 1.5548 0
M  V30 1081 O 99.1715 0.693986 1.7526 0
M  V30 1082 C 96.2985 1.60008 2.98522 0
M  V30 1083 C 95.3445 2.80596 3.21198 0
M  V30 1084 S 96.1775 4.42038 3.02262 0
M  V30 1085 C 97.3335 4.41973 4.43182 0
M  V30 1086 H 97.5665 2.57296 1.4895 0
M  V30 1087 H 95.0995 1.39179 0.668477 0
M  V30 1088 H 97.0575 1.59112 3.78409 0
M  V30 1089 H 95.7185 0.667153 3.06933 0
M  V30 1090 H 94.9115 2.74952 4.22395 0
M  V30 1091 H 94.5135 2.79003 2.49065 0
M  V30 1092 H 96.8055 4.14868 5.35622 0
M  V30 1093 H 97.7485 5.43512 4.53873 0
M  V30 1094 H 98.1565 3.71812 4.24755 0
M  V30 1095 N 97.5546 -0.734337 1.39446 0
M  V30 1096 C 98.8006 -1.49613 1.36908 0
M  V30 1097 C 99.1336 -1.94169 -0.0347829 0
M  V30 1098 O 98.4086 -1.66833 -0.999847 0
M  V30 1099 C 98.6916 -2.73534 2.34203 0
M  V30 1100 C 98.5446 -2.34993 3.83534 0
M  V30 1101 C 99.8636 -3.75635 2.29317 0
M  V30 1102 H 96.9826 -0.542714 0.498629 0
M  V30 1103 H 99.6246 -0.839597 1.70443 0
M  V30 1104 H 97.7746 -3.29553 2.05736 0
M  V30 1105 H 99.4466 -1.84601 4.22753 0
M  V30 1106 H 97.6896 -1.67213 4.00278 0
M  V30 1107 H 98.3606 -3.23738 4.47099 0
M  V30 1108 H 100.837 -3.29203 2.54489 0
M  V30 1109 H 99.7126 -4.60008 2.99472 0
M  V30 1110 H 99.9736 -4.22603 1.29842 0
M  V30 1111 N 99.0327 -1.24633 -0.964593 0
M  V30 1112 C 100.281 -1.08573 -1.70459 0
M  V30 1113 C 100.602 0.375655 -1.91347 0
M  V30 1114 O 99.8717 1.26779 -1.49345 0
M  V30 1115 H 98.4517 -0.398784 -0.631649 0
M  V30 1116 H 101.114 -1.56601 -1.16026 0
M  V30 1117 H 100.21 -1.58623 -2.68785 0
M  V30 1118 N 100.511 1.16574 -1.06058 0
M  V30 1119 C 101.461 2.18854 -0.63929 0
M  V30 1120 C 102.445 1.57505 0.328798 0
M  V30 1121 O 103.637 1.76408 0.144623 0
M  V30 1122 C 100.766 3.43291 -0.0247203 0
M  V30 1123 C 99.8518 4.11722 -1.01716 0
M  V30 1124 N 100.243 4.55841 -2.19186 0
M  V30 1125 C 98.5408 4.37872 -0.847569 0
M  V30 1126 C 99.2418 5.08751 -2.82042 0
M  V30 1127 N 98.2178 5.01489 -2.09784 0
M  V30 1128 H 102.02 2.5068 -1.53417 0
M  V30 1129 H 99.5338 1.32999 -0.931935 0
M  V30 1130 H 101.531 4.15856 0.294915 0
M  V30 1131 H 100.191 3.12954 0.865448 0
M  V30 1132 H 101.202 4.49649 -2.56975 0
M  V30 1133 H 97.8788 4.17499 -0.00918848 0
M  V30 1134 H 99.2688 5.52944 -3.81709 0
M  V30 1135 N 101.989 0.842826 1.3317 0
M  V30 1136 C 102.936 0.276885 2.29133 0
M  V30 1137 C 103.906 -0.609527 1.54512 0
M  V30 1138 O 105.091 -0.546955 1.82792 0
M  V30 1139 C 102.231 -0.538707 3.40869 0
M  V30 1140 C 101.344 0.372169 4.30394 0
M  V30 1141 C 100.479 -0.454908 5.29249 0
M  V30 1142 C 99.5179 0.45411 6.10413 0
M  V30 1143 N 98.6549 -0.335075 7.013 0
M  V30 1144 H 103.495 1.10052 2.76934 0
M  V30 1145 H 101.032 0.554161 1.36262 0
M  V30 1146 H 102.99 -1.02709 4.0436 0
M  V30 1147 H 101.62 -1.32727 2.9425 0
M  V30 1148 H 100.672 0.97888 3.6759 0
M  V30 1149 H 101.984 1.0703 4.87182 0
M  V30 1150 H 101.138 -1.00695 5.98285 0
M  V30 1151 H 99.8769 -1.18646 4.73048 0
M  V30 1152 H 98.8819 1.01813 5.40291 0
M  V30 1153 H 100.107 1.18409 6.68697 0
M  V30 1154 H 98.0529 -1.04994 6.47543 0
M  V30 1155 H 97.9699 0.304262 7.55387 0
M  V30 1156 H 99.2379 -0.869224 7.74638 0
M  V30 1157 N 103.467 -1.45747 0.599634 0
M  V30 1158 C 104.397 -2.33235 -0.111306 0
M  V30 1159 C 105.378 -1.46359 -0.866781 0
M  V30 1160 O 106.563 -1.75146 -0.838904 0
M  V30 1161 C 103.693 -3.28932 -1.11451 0
M  V30 1162 C 102.647 -4.25381 -0.472772 0
M  V30 1163 C 101.973 -5.1071 -1.58365 0
M  V30 1164 C 103.273 -5.18831 0.600948 0
M  V30 1165 H 104.967 -2.92927 0.61919 0
M  V30 1166 H 102.513 -1.40857 0.299215 0
M  V30 1167 H 104.466 -3.89002 -1.62036 0
M  V30 1168 H 103.19 -2.67381 -1.8755 0
M  V30 1169 H 101.849 -3.66598 0.0121472 0
M  V30 1170 H 101.497 -4.45533 -2.33473 0
M  V30 1171 H 101.197 -5.7604 -1.15982 0
M  V30 1172 H 102.721 -5.73647 -2.09194 0
M  V30 1173 H 104.135 -5.73019 0.179491 0
M  V30 1174 H 102.532 -5.92595 0.946076 0
M  V30 1175 H 103.602 -4.6174 1.48068 0
M  V30 1176 N 104.945 -0.338344 -1.53925 0
M  V30 1177 C 106.193 0.259245 -2.0043 0
M  V30 1178 C 106.514 1.51484 -1.22791 0
M  V30 1179 O 105.784 1.93037 -0.33368 0
M  V30 1180 H 104.364 0.0987845 -0.740439 0
M  V30 1181 H 107.026 -0.458302 -1.89435 0
M  V30 1182 H 106.122 0.505334 -3.07982 0
M  V30 1183 N 106.423 1.57458 -0.0668435 0
M  V30 1184 C 107.333 2.15937 0.916975 0
M  V30 1185 C 108.349 1.12123 1.33058 0
M  V30 1186 O 109.525 1.44366 1.40429 0
M  V30 1187 C 106.59 2.70547 2.16807 0
M  V30 1188 C 105.651 3.89215 1.81135 0
M  V30 1189 C 104.884 4.41211 3.0028 0
M  V30 1190 O 105.107 3.92225 4.14144 0
M  V30 1191 O 104.041 5.32605 2.80384 0
M  V30 1192 H 107.867 3.00354 0.449561 0
M  V30 1193 H 105.452 1.48584 0.155949 0
M  V30 1194 H 107.334 3.0557 2.90181 0
M  V30 1195 H 106.009 1.89192 2.62656 0
M  V30 1196 H 104.916 3.59054 1.05028 0
M  V30 1197 H 106.249 4.71848 1.40073 0
M  V30 1198 N 107.901 -0.206675 1.56239 0
M  V30 1199 C 109.148 -0.928842 1.79941 0
M  V30 1200 C 109.476 -1.83734 0.638131 0
M  V30 1201 O 108.731 -1.92039 -0.376746 0
M  V30 1202 C 109.03 -1.78675 3.09532 0
M  V30 1203 C 108.696 -1.03022 4.38973 0
M  V30 1204 C 107.358 -0.821302 4.74139 0
M  V30 1205 C 109.71 -0.497081 5.18824 0
M  V30 1206 C 107.038 -0.0675719 5.86661 0
M  V30 1207 C 109.39 0.24338 6.32132 0
M  V30 1208 C 108.054 0.463422 6.65889 0
M  V30 1209 H 107.324 -0.339887 0.658451 0
M  V30 1210 H 109.971 -0.195977 1.90495 0
M  V30 1211 H 108.276 -2.58794 2.94165 0
M  V30 1212 H 109.973 -2.34792 3.25075 0
M  V30 1213 H 106.563 -1.20306 4.11369 0
M  V30 1214 H 110.747 -0.645921 4.92079 0
M  V30 1215 H 106.003 0.112995 6.11296 0
M  V30 1216 H 110.177 0.66393 6.93228 0
M  V30 1217 H 107.804 1.04938 7.52922 0
M  V30 1218 N 109.379 -1.50304 -0.473955 0
M  V30 1219 C 110.342 -1.6841 -1.55469 0
M  V30 1220 C 111.342 -0.554905 -1.50922 0
M  V30 1221 O 112.532 -0.821882 -1.53593 0
M  V30 1222 C 109.664 -1.70667 -2.95102 0
M  V30 1223 H 110.857 -2.64828 -1.40733 0
M  V30 1224 H 108.41 -1.39742 -0.700132 0
M  V30 1225 H 109.145 -0.75932 -3.15285 0
M  V30 1226 H 108.93 -2.52698 -2.9981 0
M  V30 1227 H 110.42 -1.8664 -3.73571 0
M  V30 1228 N 110.857 0.726932 -1.39834 0
M  V30 1229 C 112.268 1.30558 -1.3346 0
M  V30 1230 C 112.619 1.962 -0.00273003 0
M  V30 1231 O 111.744 1.96826 0.899371 0
M  V30 1232 C 112.339 2.37404 -2.41713 0
M  V30 1233 C 110.898 2.90921 -2.38835 0
M  V30 1234 C 110.045 1.64578 -2.2318 0
M  V30 1235 H 112.996 0.523862 -1.49804 0
M  V30 1236 H 113.017 3.17984 -2.08966 0
M  V30 1237 H 112.529 1.89599 -3.38635 0
M  V30 1238 H 110.63 3.42985 -1.45575 0
M  V30 1239 H 110.743 3.43487 -3.33997 0
M  V30 1240 H 109.107 1.89219 -1.70494 0
M  V30 1241 H 109.89 1.18814 -3.22084 0
M  V30 1242 N 112.336 1.25143 0.95797 0
M  V30 1243 C 113.564 1.12424 1.73691 0
M  V30 1244 C 113.979 -0.322304 1.86029 0
M  V30 1245 O 113.336 -1.22186 1.35561 0
M  V30 1246 C 113.387 1.76933 3.15241 0
M  V30 1247 O 113.108 3.15932 3.03511 0
M  V30 1248 C 114.609 1.6995 4.09429 0
M  V30 1249 H 111.829 0.3923 0.544373 0
M  V30 1250 H 114.373 1.6544 1.20207 0
M  V30 1251 H 112.528 1.27895 3.6568 0
M  V30 1252 H 112.942 3.47598 3.9278 0
M  V30 1253 H 114.416 2.19753 5.06372 0
M  V30 1254 H 114.893 0.662619 4.34173 0
M  V30 1255 H 115.499 2.18461 3.64904 0
M  V30 1256 N 113.814 -1.1601 1.06675 0
M  V30 1257 C 115.23 -1.38622 0.790948 0
M  V30 1258 C 115.43 -1.92109 -0.607965 0
M  V30 1259 O 114.486 -2.12239 -1.36787 0
M  V30 1260 C 115.799 -2.36347 1.85905 0
M  V30 1261 C 117.347 -2.50023 1.88301 0
M  V30 1262 C 117.822 -3.51033 2.94176 0
M  V30 1263 N 119.313 -3.58563 2.93235 0
M  V30 1264 C 120.048 -4.36521 3.71803 0
M  V30 1265 N 119.544 -5.17869 4.602 0
M  V30 1266 N 121.337 -4.31541 3.60178 0
M  V30 1267 H 113.488 -0.796294 1.96908 0
M  V30 1268 H 115.751 -0.412597 0.853503 0
M  V30 1269 H 115.457 -2.04147 2.86386 0
M  V30 1270 H 115.331 -3.36042 1.71334 0
M  V30 1271 H 117.718 -2.81524 0.884769 0
M  V30 1272 H 117.799 -1.5035 2.06951 0
M  V30 1273 H 117.443 -3.20268 3.94196 0
M  V30 1274 H 117.373 -4.50445 2.72776 0
M  V30 1275 H 119.864 -3.00496 2.29152 0
M  V30 1276 H 120.177 -5.74578 5.16797 0
M  V30 1277 H 118.522 -5.17199 4.64253 0
M  V30 1278 H 121.713 -3.67051 2.90502 0
M  V30 1279 H 121.886 -4.9205 4.21653 0
M  V30 1280 N 115.292 -0.849877 -1.32721 0
M  V30 1281 C 116.52 -0.464754 -2.01613 0
M  V30 1282 C 116.935 0.937191 -1.63897 0
M  V30 1283 O 116.292 1.61081 -0.857856 0
M  V30 1284 C 116.343 -0.588638 -3.56675 0
M  V30 1285 O 116.064 -1.93535 -3.93034 0
M  V30 1286 C 117.565 -0.2019 -4.4284 0
M  V30 1287 H 114.785 -0.183215 -0.645502 0
M  V30 1288 H 117.329 -1.1455 -1.69407 0
M  V30 1289 H 115.484 0.0443159 -3.87375 0
M  V30 1290 H 115.898 -1.92871 -4.87751 0
M  V30 1291 H 117.372 -0.339599 -5.50954 0
M  V30 1292 H 117.849 0.857224 -4.30753 0
M  V30 1293 H 118.455 -0.809733 -4.17521 0
M  V30 1294 N 116.77 1.45427 -0.607355 0
M  V30 1295 C 118 2.06314 -0.108656 0
M  V30 1296 C 118.408 1.45269 1.21217 0
M  V30 1297 O 117.751 0.561115 1.74921 0
M  V30 1298 C 117.813 3.59345 0.105618 0
M  V30 1299 C 117.477 4.42723 -1.13337 0
M  V30 1300 C 118.474 4.77715 -2.05145 0
M  V30 1301 C 116.159 4.83478 -1.36213 0
M  V30 1302 C 118.153 5.52317 -3.18158 0
M  V30 1303 C 115.84 5.57835 -2.49527 0
M  V30 1304 C 116.838 5.92171 -3.40327 0
M  V30 1305 O 116.526 6.65019 -4.51669 0
M  V30 1306 H 116.258 0.672782 -0.0658842 0
M  V30 1307 H 118.812 1.87664 -0.834945 0
M  V30 1308 H 117.042 3.76394 0.886796 0
M  V30 1309 H 118.731 4.02076 0.555886 0
M  V30 1310 H 119.497 4.46787 -1.88697 0
M  V30 1311 H 115.376 4.56188 -0.664362 0
M  V30 1312 H 118.92 5.79036 -3.89054 0
M  V30 1313 H 114.817 5.88177 -2.65928 0
M  V30 1314 H 115.585 6.83469 -4.50348 0
M  V30 1315 N 118.248 0.346503 1.53744 0
M  V30 1316 C 119.664 -0.00530975 1.59599 0
M  V30 1317 C 119.864 -1.48465 1.36236 0
M  V30 1318 O 118.92 -2.24376 1.15808 0
M  V30 1319 C 120.233 0.433516 2.97559 0
M  V30 1320 C 121.781 0.386111 3.10609 0
M  V30 1321 C 122.256 0.800451 4.50951 0
M  V30 1322 N 123.747 0.754753 4.5701 0
M  V30 1323 C 124.482 1.04727 5.63755 0
M  V30 1324 N 123.978 1.4081 6.7834 0
M  V30 1325 N 125.771 0.971316 5.53644 0
M  V30 1326 H 117.922 1.31009 1.67184 0
M  V30 1327 H 120.185 0.534242 0.783128 0
M  V30 1328 H 119.891 1.46509 3.19731 0
M  V30 1329 H 119.765 -0.189753 3.76722 0
M  V30 1330 H 122.152 -0.636295 2.88158 0
M  V30 1331 H 122.233 1.04462 2.33498 0
M  V30 1332 H 121.877 1.82088 4.74137 0
M  V30 1333 H 121.807 0.119386 5.26465 0
M  V30 1334 H 124.298 0.488662 3.74727 0
M  V30 1335 H 124.611 1.61607 7.55714 0
M  V30 1336 H 122.956 1.44657 6.79779 0
M  V30 1337 H 126.147 0.688748 4.63005 0
M  V30 1338 H 126.32 1.20263 6.36742 0
M  V30 1339 N 119.726 -1.57421 0.075193 0
M  V30 1340 C 120.974 -1.93236 -0.591974 0
M  V30 1341 C 121.295 -0.956241 -1.69944 0
M  V30 1342 O 120.565 -0.00494792 -1.95899 0
M  V30 1343 H 119.145 -0.713355 -0.22166 0
M  V30 1344 H 121.807 -1.9444 0.133848 0
M  V30 1345 H 120.903 -2.95131 -1.01509 0
M  V30 1346 N 121.204 0.198386 -1.56346 0
M  V30 1347 C 122.154 1.2499 -1.90687 0
M  V30 1348 C 123.138 1.41158 -0.772217 0
M  V30 1349 O 124.33 1.43584 -1.03502 0
M  V30 1350 C 121.459 2.59542 -2.24706 0
M  V30 1351 C 120.545 2.47181 -3.44619 0
M  V30 1352 N 120.936 2.04495 -4.62618 0
M  V30 1353 C 119.234 2.78082 -3.48692 0
M  V30 1354 C 119.935 2.03945 -5.44776 0
M  V30 1355 N 118.911 2.45323 -4.85095 0
M  V30 1356 H 122.713 0.911149 -2.7942 0
M  V30 1357 H 120.227 0.40684 -1.57221 0
M  V30 1358 H 122.224 3.3549 -2.47491 0
M  V30 1359 H 120.884 2.94244 -1.37298 0
M  V30 1360 H 121.895 1.75256 -4.87345 0
M  V30 1361 H 118.572 3.17002 -2.71691 0
M  V30 1362 H 119.962 1.72872 -6.4928 0
M  V30 1363 N 122.682 1.50554 0.465978 0
M  V30 1364 C 123.93 1.61479 1.21528 0
M  V30 1365 C 124.251 0.319596 1.92363 0
M  V30 1366 O 123.521 -0.663194 1.84333 0
M  V30 1367 H 122.101 0.595055 0.451573 0
M  V30 1368 H 124.763 1.87355 0.53704 0
M  V30 1369 H 123.859 2.42846 1.96042 0
M  V30 1370 N 124.16 -0.719506 1.40217 0
M  V30 1371 C 125.107 -1.83359 1.40172 0
M  V30 1372 C 126.077 -1.64065 0.259206 0
M  V30 1373 O 127.262 -1.85254 0.456677 0
M  V30 1374 C 124.402 -3.2103 1.26624 0
M  V30 1375 C 123.515 -3.51923 2.50548 0
M  V30 1376 C 122.65 -4.79079 2.29471 0
M  V30 1377 C 121.689 -5.02863 3.48992 0
M  V30 1378 N 120.826 -6.2123 3.27135 0
M  V30 1379 H 125.666 -1.82733 2.35399 0
M  V30 1380 H 123.203 -0.892688 1.16917 0
M  V30 1381 H 125.161 -4.00524 1.16776 0
M  V30 1382 H 123.791 -3.20895 0.350176 0
M  V30 1383 H 122.843 -2.67014 2.70939 0
M  V30 1384 H 124.155 -3.6541 3.39525 0
M  V30 1385 H 123.309 -5.66582 2.16955 0
M  V30 1386 H 122.048 -4.67794 1.37913 0
M  V30 1387 H 121.053 -4.13816 3.6199 0
M  V30 1388 H 122.278 -5.16023 4.41472 0
M  V30 1389 H 120.224 -6.11204 2.38256 0
M  V30 1390 H 120.141 -6.35375 4.09675 0
M  V30 1391 H 121.409 -7.11532 3.18344 0
M  V30 1392 N 125.638 -1.25649 -0.95132 0
M  V30 1393 C 126.548 -1.08073 -2.08224 0
M  V30 1394 C 127.564 -0.0169666 -1.73992 0
M  V30 1395 O 128.74 -0.218593 -2.0021 0
M  V30 1396 C 125.805 -0.704922 -3.39458 0
M  V30 1397 C 124.866 -1.84699 -3.87537 0
M  V30 1398 C 124.099 -1.48902 -5.12508 0
M  V30 1399 O 124.322 -0.386156 -5.69091 0
M  V30 1400 O 123.256 -2.32033 -5.55378 0
M  V30 1401 H 127.082 -2.02924 -2.25954 0
M  V30 1402 H 124.667 -1.04618 -1.06656 0
M  V30 1403 H 126.549 -0.507609 -4.18332 0
M  V30 1404 H 125.224 0.214291 -3.2299 0
M  V30 1405 H 124.131 -2.09919 -3.09653 0
M  V30 1406 H 125.464 -2.74557 -4.08509 0
M  V30 1407 N 127.117 1.15442 -1.07289 0
M  V30 1408 C 128.08 2.18358 -0.696591 0
M  V30 1409 C 129.08 1.58637 0.262837 0
M  V30 1410 O 130.27 1.74145 0.0438809 0
M  V30 1411 C 127.402 3.4089 -0.0266151 0
M  V30 1412 H 128.595 2.53162 -1.60776 0
M  V30 1413 H 126.148 1.29893 -0.869342 0
M  V30 1414 H 126.883 3.11653 0.896822 0
M  V30 1415 H 126.668 3.85495 -0.716657 0
M  V30 1416 H 128.158 4.17009 0.222028 0
M  V30 1417 N 128.595 0.856903 1.32268 0
M  V30 1418 C 129.542 0.301172 2.28827 0
M  V30 1419 C 130.512 -0.593104 1.5515 0
M  V30 1420 O 131.697 -0.527537 1.83362 0
M  V30 1421 C 128.837 -0.502523 3.41422 0
M  V30 1422 C 127.95 0.417797 4.29975 0
M  V30 1423 C 127.085 -0.398749 5.29701 0
M  V30 1424 C 126.124 0.518827 6.09897 0
M  V30 1425 N 125.261 -0.260674 7.01616 0
M  V30 1426 H 130.101 1.12983 2.75751 0
M  V30 1427 H 127.638 0.568582 1.35667 0
M  V30 1428 H 129.596 -0.984141 4.05426 0
M  V30 1429 H 128.226 -1.29599 2.95642 0
M  V30 1430 H 127.278 1.01781 3.66531 0
M  V30 1431 H 128.59 1.12191 4.86019 0
M  V30 1432 H 127.744 -0.943435 5.9932 0
M  V30 1433 H 126.483 -1.13622 4.7428 0
M  V30 1434 H 125.488 1.07538 5.39181 0
M  V30 1435 H 126.713 1.25495 6.67404 0
M  V30 1436 H 124.659 -0.981198 6.4862 0
M  V30 1437 H 124.576 0.384364 7.55022 0
M  V30 1438 H 125.844 -0.787014 7.75517 0
M  V30 1439 N 130.073 -1.45103 0.615059 0
M  V30 1440 C 131.036 -2.29025 -0.0895485 0
M  V30 1441 C 132.036 -1.40174 -0.787906 0
M  V30 1442 O 133.226 -1.62217 -0.634933 0
M  V30 1443 C 130.358 -3.21376 -1.13711 0
M  V30 1444 H 131.551 -2.92807 0.648382 0
M  V30 1445 H 129.104 -1.51749 0.374444 0
M  V30 1446 H 129.839 -2.6241 -1.90556 0
M  V30 1447 H 129.624 -3.86834 -0.640475 0
M  V30 1448 H 131.114 -3.84459 -1.63036 0
M  V30 1449 N 131.551 -0.354651 -1.53558 0
M  V30 1450 C 132.779 0.239515 -2.05509 0
M  V30 1451 C 133.194 1.4333 -1.2289 0
M  V30 1452 O 132.551 1.80538 -0.266899 0
M  V30 1453 C 132.602 0.643719 -3.55723 0
M  V30 1454 O 132.323 -0.502602 -4.35207 0
M  V30 1455 C 133.824 1.29743 -4.23889 0
M  V30 1456 H 131.044 0.0442697 -0.669538 0
M  V30 1457 H 133.588 -0.509856 -1.98042 0
M  V30 1458 H 131.743 1.34302 -3.63376 0
M  V30 1459 H 132.157 -0.178172 -5.24197 0
M  V30 1460 H 133.631 1.53091 -5.30346 0
M  V30 1461 H 134.108 2.25441 -3.76926 0
M  V30 1462 H 134.714 0.639865 -4.20459 0
M  V30 1463 N 133.029 1.57378 -0.0835403 0
M  V30 1464 C 133.976 2.13384 0.879539 0
M  V30 1465 C 134.946 1.04936 1.28754 0
M  V30 1466 O 136.131 1.32662 1.37133 0
M  V30 1467 C 133.271 2.70932 2.13752 0
M  V30 1468 C 132.384 3.93575 1.7811 0
M  V30 1469 C 131.519 4.39326 2.98607 0
M  V30 1470 C 130.558 5.54587 2.59037 0
M  V30 1471 N 129.695 5.95243 3.72331 0
M  V30 1472 H 134.535 2.9537 0.395076 0
M  V30 1473 H 132.072 1.45953 0.183349 0
M  V30 1474 H 134.03 3.02411 2.87408 0
M  V30 1475 H 132.66 1.91693 2.59718 0
M  V30 1476 H 131.712 3.68483 0.94469 0
M  V30 1477 H 133.024 4.77258 1.45005 0
M  V30 1478 H 132.178 4.72528 3.80529 0
M  V30 1479 H 130.917 3.5452 3.34913 0
M  V30 1480 H 129.922 5.21024 1.75539 0
M  V30 1481 H 131.147 6.41133 2.23887 0
M  V30 1482 H 129.093 5.13385 4.08378 0
M  V30 1483 H 129.01 6.73694 3.43034 0
M  V30 1484 H 130.278 6.33072 4.54797 0
M  V30 1485 N 134.507 -0.190092 1.56449 0
M  V30 1486 C 135.454 -1.23557 1.94942 0
M  V30 1487 C 136.424 -1.44972 0.810696 0
M  V30 1488 O 137.609 -1.58023 1.06927 0
M  V30 1489 C 134.749 -2.57416 2.2985 0
M  V30 1490 C 133.862 -2.43537 3.5681 0
M  V30 1491 C 132.997 -3.70134 3.81017 0
M  V30 1492 C 132.036 -3.51109 5.01387 0
M  V30 1493 N 131.173 -4.6973 5.21822 0
M  V30 1494 H 136.013 -0.900304 2.84075 0
M  V30 1495 H 133.55 -0.43318 1.40577 0
M  V30 1496 H 135.508 -3.35409 2.48106 0
M  V30 1497 H 134.138 -2.88975 1.43852 0
M  V30 1498 H 133.19 -1.56816 3.46573 0
M  V30 1499 H 134.502 -2.25415 4.4496 0
M  V30 1500 H 133.656 -4.56566 3.9954 0
M  V30 1501 H 132.395 -3.91215 2.91207 0
M  V30 1502 H 131.4 -2.63063 4.82782 0
M  V30 1503 H 132.625 -3.31468 5.9271 0
M  V30 1504 H 130.571 -4.91065 4.34961 0
M  V30 1505 H 130.488 -4.54452 6.0416 0
M  V30 1506 H 131.756 -5.57499 5.44808 0
M  V30 1507 N 135.985 -1.50799 -0.457987 0
M  V30 1508 C 136.932 -1.70617 -1.5543 0
M  V30 1509 C 137.902 -0.547562 -1.56815 0
M  V30 1510 O 139.087 -0.779647 -1.74144 0
M  V30 1511 C 136.227 -1.81831 -2.93311 0
M  V30 1512 C 135.34 -3.09278 -3.01615 0
M  V30 1513 C 134.475 -3.11209 -4.30491 0
M  V30 1514 C 133.514 -4.33055 -4.32585 0
M  V30 1515 N 132.651 -4.32652 -5.52952 0
M  V30 1516 H 137.491 -2.64207 -1.37836 0
M  V30 1517 H 135.028 -1.30959 -0.669937 0
M  V30 1518 H 136.986 -1.86314 -3.73287 0
M  V30 1519 H 135.616 -0.916685 -3.0951 0
M  V30 1520 H 134.668 -3.14203 -2.1443 0
M  V30 1521 H 135.98 -3.99233 -2.99022 0
M  V30 1522 H 135.134 -3.14494 -5.18824 0
M  V30 1523 H 133.873 -2.19106 -4.35711 0
M  V30 1524 H 132.878 -4.29969 -3.42647 0
M  V30 1525 H 134.103 -5.264 -4.29046 0
M  V30 1526 H 132.049 -3.43409 -5.58933 0
M  V30 1527 H 131.966 -5.16392 -5.52155 0
M  V30 1528 H 133.234 -4.40101 -6.43375 0
M  V30 1529 O 137.502 0.603621 -1.49795 0
M  V30 1530 H 138.193 1.25828 -1.47265 0
M  V30 END ATOM
M  V30 BEGIN BOND
M  V30 END BOND
M  V30 END CTAB
M  END
$$$$
