drugbank_target|Q9P0X4 Voltage-dependent T-type calcium channel subunit alpha-1I (DB00381; DB00568; DB00617; DB00909; DB01118; DB01388; DB04841; DB06152; DB09061; DB09235; DB14009; DB14011)
 OpenBabel12092119223D

  0  0  0     0  0            999 V3000
M  V30 BEGIN CTAB
M  V30 COUNTS 34270 34702 0 0 0
M  V30 BEGIN ATOM
M  V30 1 H -0.908 1.98254 -0.117106 0
M  V30 2 N 0 1.576 0 0
M  V30 3 C 0.933 2.03868 1.02534 0
M  V30 4 C 1.911 0.928543 1.3348 0
M  V30 5 O 3.095 1.19667 1.45644 0
M  V30 6 C 0.222 2.43627 2.35294 0
M  V30 7 C -0.732 3.65373 2.2001 0
M  V30 8 S 0.101 5.13292 1.52614 0
M  V30 9 C 1.257 5.56322 2.86805 0
M  V30 10 H 1.49 2.90518 0.631377 0
M  V30 11 H -0.977 1.52953 0.210867 0
M  V30 12 H 0.981 2.67203 3.11629 0
M  V30 13 H -0.358 1.57376 2.7183 0
M  V30 14 H -1.165 3.90944 3.18086 0
M  V30 15 H -1.563 3.418 1.51819 0
M  V30 16 H 0.729 5.58782 3.83104 0
M  V30 17 H 1.672 6.56266 2.65933 0
M  V30 18 H 2.08 4.83886 2.90714 0
M  V30 19 N 1.4781 -0.272755 1.55222 0
M  V30 20 C 2.4411 -1.32041 1.87344 0
M  V30 21 C 3.4411 -1.42342 0.74803 0
M  V30 22 O 4.6311 -1.41488 1.0162 0
M  V30 23 C 1.7631 -2.70173 2.07893 0
M  V30 24 H 2.9561 -1.04789 2.80997 0
M  V30 25 H 0.5091 -0.51083 1.47717 0
M  V30 26 H 1.2441 -3.02605 1.16622 0
M  V30 27 H 1.0291 -2.64082 2.89833 0
M  V30 28 H 2.5191 -3.45869 2.34017 0
M  V30 29 N 2.9562 -1.48159 -0.537278 0
M  V30 30 C 3.8662 -1.64807 -1.6696 0
M  V30 31 C 4.8822 -0.530651 -1.65711 0
M  V30 32 O 6.0582 -0.800784 -1.84796 0
M  V30 33 C 3.1232 -1.67708 -3.03438 0
M  V30 34 C 2.1842 -2.91025 -3.156 0
M  V30 35 C 1.4172 -2.93778 -4.45567 0
M  V30 36 O 1.6402 -2.05153 -5.3223 0
M  V30 37 O 0.5742 -3.85868 -4.61941 0
M  V30 38 H 4.4002 -2.6066 -1.55853 0
M  V30 39 H 1.9852 -1.31475 -0.709549 0
M  V30 40 H 3.8672 -1.7218 -3.84619 0
M  V30 41 H 2.5422 -0.750278 -3.14885 0
M  V30 42 H 1.4492 -2.92089 -2.33741 0
M  V30 43 H 2.7822 -3.83065 -3.09066 0
M  V30 44 N 4.4343 0.785586 -1.36625 0
M  V30 45 C 5.6593 1.57963 -1.34397 0
M  V30 46 C 6.0843 1.87964 0.071526 0
M  V30 47 O 5.4423 1.48182 1.0446 0
M  V30 48 C 5.4903 2.87511 -2.17646 0
M  V30 49 O 4.5943 3.81281 -1.57158 0
M  V30 50 H 3.9353 0.479014 -0.459828 0
M  V30 51 H 6.4653 0.973411 -1.79961 0
M  V30 52 H 6.4753 3.36745 -2.30362 0
M  V30 53 H 5.1503 2.65002 -3.20541 0
M  V30 54 H 3.7273 3.39885 -1.53403 0
M  V30 55 N 5.9124 1.20967 1.01018 0
M  V30 56 C 6.8754 0.965918 2.07853 0
M  V30 57 C 7.8754 -0.0610545 1.60684 0
M  V30 58 O 9.0654 0.175681 1.73312 0
M  V30 59 C 6.1974 0.455513 3.37843 0
M  V30 60 H 7.3904 1.91365 2.3091 0
M  V30 61 H 4.9434 1.02594 1.17916 0
M  V30 62 H 5.6784 -0.497381 3.20463 0
M  V30 63 H 5.4634 1.19622 3.73407 0
M  V30 64 H 6.9534 0.304667 4.16487 0
M  V30 65 N 7.3905 -1.2043 1.01659 0
M  V30 66 C 8.6155 -1.94318 0.724942 0
M  V30 67 C 9.0405 -1.74266 -0.708034 0
M  V30 68 O 8.3985 -1.03694 -1.48719 0
M  V30 69 C 8.4465 -3.44486 1.06591 0
M  V30 70 O 7.5505 -4.12017 0.177599 0
M  V30 71 H 6.8915 -0.60708 0.26898 0
M  V30 72 H 9.4215 -1.52861 1.35995 0
M  V30 73 H 9.4315 -3.95106 1.01762 0
M  V30 74 H 8.1065 -3.58404 2.10997 0
M  V30 75 H 6.6835 -3.71821 0.283421 0
M  V30 76 N 8.8686 -0.792821 -1.36206 0
M  V30 77 C 10.2796 -0.429513 -1.81692 0
M  V30 78 C 10.6306 1.04695 -1.65932 0
M  V30 79 O 9.7556 1.81256 -1.18218 0
M  V30 80 C 10.3506 -0.772831 -3.29868 0
M  V30 81 C 8.9096 -0.462307 -3.7355 0
M  V30 82 C 8.0566 -1.00569 -2.5842 0
M  V30 83 H 11.0076 -0.985672 -1.24379 0
M  V30 84 H 11.0286 -0.0651928 -3.80444 0
M  V30 85 H 10.5406 -1.84747 -3.41307 0
M  V30 86 H 8.6416 0.604158 -3.67669 0
M  V30 87 H 8.7546 -0.985299 -4.68859 0
M  V30 88 H 7.1186 -0.428734 -2.51066 0
M  V30 89 H 7.9016 -2.08616 -2.72643 0
M  V30 90 N 10.3467 1.47872 -0.545128 0
M  V30 91 C 11.7577 1.86384 -0.108581 0
M  V30 92 C 12.1087 1.45309 1.31832 0
M  V30 93 O 11.2337 0.850641 1.9898 0
M  V30 94 C 11.8287 3.38265 -0.190274 0
M  V30 95 C 10.3877 3.75914 0.191164 0
M  V30 96 C 9.5347 2.71926 -0.543273 0
M  V30 97 H 12.4857 1.39561 -0.755537 0
M  V30 98 H 12.5067 3.75831 0.594217 0
M  V30 99 H 12.0187 3.6813 -1.2289 0
M  V30 100 H 10.1197 3.51665 1.23136 0
M  V30 101 H 10.2327 4.78836 -0.158987 0
M  V30 102 H 8.5967 2.54697 0.0122495 0
M  V30 103 H 9.3797 3.04634 -1.58282 0
M  V30 104 N 11.8248 0.280983 1.55075 0
M  V30 105 C 13.0498 -0.340154 2.04592 0
M  V30 106 C 13.4748 -1.48246 1.15779 0
M  V30 107 O 12.8328 -1.80614 0.15761 0
M  V30 108 C 12.8808 -0.793104 3.5177 0
M  V30 109 O 11.9848 -1.89981 3.66034 0
M  V30 110 H 11.3258 -0.0694289 0.66036 0
M  V30 111 H 13.8558 0.416993 2.00306 0
M  V30 112 H 13.8658 -1.08729 3.93245 0
M  V30 113 H 12.5408 0.0426163 4.15878 0
M  V30 114 H 11.1178 -1.60771 3.36463 0
M  V30 115 N 13.3029 -1.57598 0.00835791 0
M  V30 116 C 14.5279 -1.95617 -0.689103 0
M  V30 117 C 14.9529 -0.883753 -1.66046 0
M  V30 118 O 14.3109 0.157352 -1.80616 0
M  V30 119 C 14.3589 -3.32736 -1.38994 0
M  V30 120 O 13.4629 -3.27631 -2.50463 0
M  V30 121 H 12.8039 -0.638379 -0.182668 0
M  V30 122 H 15.3339 -2.045 0.064036 0
M  V30 123 H 15.3439 -3.68494 -1.75147 0
M  V30 124 H 14.0189 -4.1034 -0.677778 0
M  V30 125 H 12.5959 -3.03561 -2.16576 0
M  V30 126 N 14.781 0.264519 -1.55364 0
M  V30 127 C 16.006 1.01726 -1.80739 0
M  V30 128 C 16.431 1.78836 -0.583044 0
M  V30 129 O 15.789 1.75167 0.467566 0
M  V30 130 C 15.837 1.94482 -3.03659 0
M  V30 131 O 14.941 3.03386 -2.7934 0
M  V30 132 H 14.282 0.290395 -0.597132 0
M  V30 133 H 16.812 0.290854 -2.02522 0
M  V30 134 H 16.822 2.36278 -3.32621 0
M  V30 135 H 15.497 1.37772 -3.92418 0
M  V30 136 H 14.074 2.65844 -2.61498 0
M  V30 137 N 16.2591 1.48442 0.529413 0
M  V30 138 C 17.2221 1.62524 1.61612 0
M  V30 139 C 18.2221 0.498509 1.52877 0
M  V30 140 O 19.4121 0.76431 1.56537 0
M  V30 141 C 16.5441 1.59597 3.01233 0
M  V30 142 H 17.7371 2.59423 1.50465 0
M  V30 143 H 15.2901 1.37047 0.751514 0
M  V30 144 H 16.0251 0.641781 3.17886 0
M  V30 145 H 15.8101 2.41397 3.08982 0
M  V30 146 H 17.3001 1.72646 3.80241 0
M  V30 147 N 17.7372 -0.778329 1.37039 0
M  V30 148 C 18.7002 -1.87301 1.32102 0
M  V30 149 C 19.7002 -1.59198 0.226405 0
M  V30 150 O 20.8902 -1.67403 0.481861 0
M  V30 151 C 18.0222 -3.24309 1.05055 0
M  V30 152 H 19.2152 -1.93093 2.29467 0
M  V30 153 H 16.7682 -0.977358 1.21973 0
M  V30 154 H 17.5032 -3.24196 0.0819373 0
M  V30 155 H 17.2882 -3.46098 1.84279 0
M  V30 156 H 18.7782 -4.04382 1.04234 0
M  V30 157 N 19.2153 -1.21501 -1.00376 0
M  V30 158 C 20.1783 -0.976927 -2.07337 0
M  V30 159 C 21.1783 0.0525322 -1.60714 0
M  V30 160 O 22.3683 -0.184869 -1.73216 0
M  V30 161 C 19.5003 -0.473423 -3.37597 0
M  V30 162 H 20.6933 -1.92587 -2.29892 0
M  V30 163 H 18.2463 -1.03217 -1.17371 0
M  V30 164 H 18.9813 0.480379 -3.20722 0
M  V30 165 H 18.7663 -1.216 -3.72768 0
M  V30 166 H 20.2563 -0.32675 -4.1632 0
M  V30 167 N 20.6934 1.19889 -1.02296 0
M  V30 168 C 22.1044 1.71124 -0.746568 0
M  V30 169 C 22.4554 1.81939 0.734335 0
M  V30 170 O 21.5804 1.48639 1.57275 0
M  V30 171 C 22.1754 3.10804 -1.34857 0
M  V30 172 C 20.7344 3.59323 -1.1209 0
M  V30 173 C 19.8814 2.3635 -1.45031 0
M  V30 174 H 22.8324 1.04813 -1.19163 0
M  V30 175 H 22.8534 3.73186 -0.742437 0
M  V30 176 H 22.3654 3.029 -2.42638 0
M  V30 177 H 20.4664 3.7255 -0.0610337 0
M  V30 178 H 20.5794 4.4378 -1.80544 0
M  V30 179 H 18.9434 2.39399 -0.869487 0
M  V30 180 H 19.7264 2.31081 -2.53883 0
M  V30 181 N 22.1715 0.800033 1.35784 0
M  V30 182 C 23.1345 0.211565 2.28221 0
M  V30 183 C 24.1345 -0.59728 1.49296 0
M  V30 184 O 25.3245 -0.416721 1.69142 0
M  V30 185 C 22.4565 -0.705846 3.33513 0
M  V30 186 H 23.6495 1.02677 2.81776 0
M  V30 187 H 21.2025 0.570211 1.45528 0
M  V30 188 H 21.9375 -1.54498 2.85133 0
M  V30 189 H 21.7225 -0.127655 3.91892 0
M  V30 190 H 23.2125 -1.11211 4.02519 0
M  V30 191 N 23.6496 -1.47581 0.552962 0
M  V30 192 C 24.6126 -2.28439 -0.186605 0
M  V30 193 C 25.6126 -1.36706 -0.84665 0
M  V30 194 O 26.8026 -1.59378 -0.703164 0
M  V30 195 C 23.9346 -3.16264 -1.2724 0
M  V30 196 H 25.1276 -2.95294 0.523609 0
M  V30 197 H 22.6806 -1.532 0.309745 0
M  V30 198 H 23.4156 -2.54091 -2.01514 0
M  V30 199 H 23.2006 -3.83769 -0.803968 0
M  V30 200 H 24.6906 -3.77198 -1.79196 0
M  V30 201 N 25.1277 -0.289203 -1.54924 0
M  V30 202 C 26.0377 0.601863 -2.26748 0
M  V30 203 C 27.0537 1.15834 -1.2984 0
M  V30 204 O 28.2297 1.18564 -1.62802 0
M  V30 205 C 25.2947 1.76299 -2.98529 0
M  V30 206 C 24.3557 1.24178 -4.10948 0
M  V30 207 C 23.5887 2.34757 -4.79296 0
M  V30 208 O 23.8117 3.54411 -4.46933 0
M  V30 209 O 22.7457 2.02115 -5.66951 0
M  V30 210 H 26.5717 0.0195879 -3.03694 0
M  V30 211 H 24.1567 -0.0560868 -1.49295 0
M  V30 212 H 26.0387 2.43973 -3.43592 0
M  V30 213 H 24.7137 2.33209 -2.24488 0
M  V30 214 H 23.6207 0.531104 -3.70311 0
M  V30 215 H 24.9537 0.718252 -4.86931 0
M  V30 216 N 26.6058 1.57591 -0.0167156 0
M  V30 217 C 28.0168 1.79201 0.523834 0
M  V30 218 C 28.3678 0.925796 1.72984 0
M  V30 219 O 27.4928 0.132792 2.15992 0
M  V30 220 C 28.0878 3.25 0.957091 0
M  V30 221 C 26.6468 3.47648 1.44283 0
M  V30 222 C 25.7938 2.74374 0.401757 0
M  V30 223 H 28.7448 1.56831 -0.242816 0
M  V30 224 H 28.7658 3.34031 1.82219 0
M  V30 225 H 28.2778 3.88019 0.0791415 0
M  V30 226 H 26.3788 2.89866 2.34113 0
M  V30 227 H 26.4918 4.56352 1.45877 0
M  V30 228 H 24.8558 2.39485 0.867121 0
M  V30 229 H 25.6388 3.40102 -0.467513 0
M  V30 230 N 28.0839 -0.256276 1.55502 0
M  V30 231 C 29.3319 -0.983672 1.76545 0
M  V30 232 C 29.6529 -1.86206 0.578982 0
M  V30 233 O 28.9229 -1.91656 -0.405577 0
M  V30 234 H 27.5029 -0.366191 0.651086 0
M  V30 235 H 30.1649 -0.276479 1.92929 0
M  V30 236 H 29.2609 -1.61087 2.67315 0
M  V30 237 N 29.562 -1.4872 -0.521534 0
M  V30 238 C 30.808 -1.574 -1.27879 0
M  V30 239 C 31.141 -0.250817 -1.92573 0
M  V30 240 O 30.416 0.743934 -1.79711 0
M  V30 241 C 30.699 -2.71843 -2.36164 0
M  V30 242 C 30.552 -4.13893 -1.76105 0
M  V30 243 C 31.871 -2.82008 -3.37875 0
M  V30 244 H 28.99 -0.572941 -0.463581 0
M  V30 245 H 31.632 -1.80927 -0.580119 0
M  V30 246 H 29.782 -2.51914 -2.95756 0
M  V30 247 H 31.454 -4.45284 -1.20499 0
M  V30 248 H 29.697 -4.20498 -1.06601 0
M  V30 249 H 30.368 -4.89804 -2.5455 0
M  V30 250 H 32.844 -3.00086 -2.88249 0
M  V30 251 H 31.72 -3.63796 -4.11028 0
M  V30 252 H 31.981 -1.90511 -3.98946 0
M  V30 253 N 31.0401 0.771051 -1.3745 0
M  V30 254 C 32.2681 1.56015 -1.35893 0
M  V30 255 C 32.6831 1.88718 0.0555523 0
M  V30 256 O 32.0401 1.51502 1.01752 0
M  V30 257 C 32.0911 2.87001 -2.19801 0
M  V30 258 O 31.8121 2.557 -3.55738 0
M  V30 259 C 33.3131 3.81228 -2.26231 0
M  V30 260 H 30.5331 0.483317 -0.465453 0
M  V30 261 H 33.0771 0.955611 -1.80799 0
M  V30 262 H 31.2321 3.43877 -1.78402 0
M  V30 263 H 31.6461 3.39584 -3.99729 0
M  V30 264 H 33.1201 4.70139 -2.89263 0
M  V30 265 H 33.5971 4.20409 -1.27093 0
M  V30 266 H 34.2031 3.30281 -2.67945 0
M  V30 267 N 32.5182 1.22032 0.997298 0
M  V30 268 C 33.7462 1.06841 1.7718 0
M  V30 269 C 34.1612 -0.381325 1.84909 0
M  V30 270 O 33.5182 -1.26437 1.31605 0
M  V30 271 C 33.5692 1.66814 3.20711 0
M  V30 272 O 33.2902 3.06116 3.13408 0
M  V30 273 C 34.7912 1.56838 4.14628 0
M  V30 274 H 32.0112 0.374782 0.556578 0
M  V30 275 H 34.5552 1.61532 1.2541 0
M  V30 276 H 32.7102 1.16196 3.69564 0
M  V30 277 H 33.1242 3.34926 4.0364 0
M  V30 278 H 34.5982 2.03532 5.13107 0
M  V30 279 H 35.0752 0.524155 4.36061 0
M  V30 280 H 35.6812 2.06741 3.7167 0
M  V30 281 N 33.9963 -1.19345 1.0293 0
M  V30 282 C 34.9063 -2.26245 0.620515 0
M  V30 283 C 35.9223 -1.70486 -0.347928 0
M  V30 284 O 37.0983 -2.00347 -0.205704 0
M  V30 285 C 34.1633 -3.46693 -0.0218957 0
M  V30 286 C 33.2243 -4.17632 0.994102 0
M  V30 287 C 32.4573 -5.32329 0.382253 0
M  V30 288 O 32.6803 -5.64552 -0.814676 0
M  V30 289 O 31.6143 -5.91664 1.10531 0
M  V30 290 H 35.4403 -2.63453 1.51083 0
M  V30 291 H 33.0253 -1.26207 0.799513 0
M  V30 292 H 34.9073 -4.19683 -0.380072 0
M  V30 293 H 33.5823 -3.11333 -0.886209 0
M  V30 294 H 32.4893 -3.4676 1.40387 0
M  V30 295 H 33.8223 -4.56964 1.8288 0
M  V30 296 N 35.4744 -0.807222 -1.35358 0
M  V30 297 C 36.4064 -0.175717 -2.28525 0
M  V30 298 C 37.4194 0.625354 -1.5031 0
M  V30 299 O 38.6084 0.457611 -1.72535 0
M  V30 300 C 35.7084 0.773471 -3.29956 0
M  V30 301 C 34.8814 0.0186296 -4.37396 0
M  V30 302 C 33.9404 0.886395 -5.18681 0
M  V30 303 O 32.9664 0.337106 -5.68201 0
M  V30 304 N 34.1684 2.20839 -5.36852 0
M  V30 305 H 36.9334 -0.976091 -2.83359 0
M  V30 306 H 34.4944 -0.662737 -1.47714 0
M  V30 307 H 36.4864 1.35824 -3.81227 0
M  V30 308 H 35.0564 1.47465 -2.75632 0
M  V30 309 H 34.2764 -0.747349 -3.87051 0
M  V30 310 H 35.5644 -0.501577 -5.06322 0
M  V30 311 H 34.9624 2.67858 -4.98265 0
M  V30 312 H 33.5194 2.74237 -5.91301 0
M  V30 313 N 36.9525 1.47285 -0.560781 0
M  V30 314 C 38.3635 1.86258 -0.128343 0
M  V30 315 C 38.7145 1.46699 1.30284 0
M  V30 316 O 37.8395 0.871698 1.98067 0
M  V30 317 C 38.4345 3.38044 -0.22614 0
M  V30 318 C 36.9935 3.76096 0.151283 0
M  V30 319 C 36.1405 2.71335 -0.572084 0
M  V30 320 H 39.0915 1.38752 -0.770297 0
M  V30 321 H 39.1125 3.76441 0.554322 0
M  V30 322 H 38.6245 3.66806 -1.26788 0
M  V30 323 H 36.7255 3.52951 1.19399 0
M  V30 324 H 36.8385 4.78641 -0.209765 0
M  V30 325 H 35.2025 2.54696 -0.0147653 0
M  V30 326 H 35.9855 3.02938 -1.61504 0
M  V30 327 N 38.4306 0.297415 1.54768 0
M  V30 328 C 39.6786 -0.312295 1.99673 0
M  V30 329 C 39.9996 -1.54686 1.18732 0
M  V30 330 O 39.2696 -1.93854 0.282382 0
M  V30 331 H 37.8496 -0.118381 0.73756 0
M  V30 332 H 40.5116 0.407915 1.90583 0
M  V30 333 H 39.6076 -0.586813 3.06534 0
M  V30 334 N 39.9087 -1.5758 0.0250728 0
M  V30 335 C 41.3197 -1.79476 -0.514323 0
M  V30 336 C 41.6707 -0.934956 -1.72491 0
M  V30 337 O 40.7957 -0.144245 -2.15919 0
M  V30 338 C 41.3907 -3.25503 -0.939842 0
M  V30 339 C 39.9497 -3.48408 -1.42438 0
M  V30 340 C 39.0967 -2.74583 -0.387201 0
M  V30 341 H 42.0477 -1.567 0.25113 0
M  V30 342 H 42.0687 -3.34992 -1.80445 0
M  V30 343 H 41.5807 -3.88056 -0.0585628 0
M  V30 344 H 39.6817 -2.91103 -2.32572 0
M  V30 345 H 39.7947 -4.57119 -1.43455 0
M  V30 346 H 38.1587 -2.39942 -0.854409 0
M  V30 347 H 38.9417 -3.39849 0.485543 0
M  V30 348 N 41.3868 0.248026 -1.55636 0
M  V30 349 C 42.8028 0.596483 -1.48035 0
M  V30 350 C 43.0028 1.88386 -0.715039 0
M  V30 351 O 42.0588 2.51319 -0.243944 0
M  V30 352 C 43.3718 0.700258 -2.92433 0
M  V30 353 C 44.9198 0.792659 -3.02797 0
M  V30 354 C 45.3948 0.928005 -4.485 0
M  V30 355 N 46.8858 0.992903 -4.52433 0
M  V30 356 C 47.6208 1.11687 -5.62418 0
M  V30 357 N 47.1168 1.20645 -6.82214 0
M  V30 358 N 48.9098 1.14994 -5.50212 0
M  V30 359 H 41.0608 -0.597109 -2.03834 0
M  V30 360 H 43.3238 -0.205925 -0.925364 0
M  V30 361 H 43.0298 -0.175658 -3.51261 0
M  V30 362 H 42.9038 1.57255 -3.42857 0
M  V30 363 H 45.2908 1.65903 -2.4405 0
M  V30 364 H 45.3718 -0.104762 -2.55585 0
M  V30 365 H 45.0158 0.0661971 -5.07857 0
M  V30 366 H 44.9458 1.84045 -4.93391 0
M  V30 367 H 47.4368 0.935064 -3.66149 0
M  V30 368 H 47.7498 1.30008 -7.61786 0
M  V30 369 H 46.0948 1.17605 -6.84977 0
M  V30 370 H 49.2858 1.07643 -4.55555 0
M  V30 371 H 49.4588 1.24311 -6.35965 0
M  V30 372 N 42.8649 1.48995 0.513639 0
M  V30 373 C 44.0899 1.61792 1.29762 0
M  V30 374 C 44.5149 0.284475 1.85936 0
M  V30 375 O 43.8729 -0.746185 1.65232 0
M  V30 376 C 43.9209 2.67993 2.41272 0
M  V30 377 O 43.0249 2.26287 3.44772 0
M  V30 378 H 42.3659 0.541963 0.38363 0
M  V30 379 H 44.8959 1.95097 0.616307 0
M  V30 380 H 44.9059 2.89772 2.87221 0
M  V30 381 H 43.5809 3.64791 1.9975 0
M  V30 382 H 42.1579 2.14788 3.04829 0
M  V30 383 N 44.343 -0.763751 1.37857 0
M  V30 384 C 45.754 -1.3405 1.29952 0
M  V30 385 C 46.105 -1.96138 -0.0492898 0
M  V30 386 O 45.23 -1.94372 -0.951239 0
M  V30 387 C 45.825 -2.43729 2.35333 0
M  V30 388 C 44.384 -2.97151 2.31037 0
M  V30 389 C 43.531 -1.70438 2.18738 0
M  V30 390 H 46.482 -0.563396 1.48363 0
M  V30 391 H 46.503 -3.23412 2.00462 0
M  V30 392 H 46.015 -1.9851 3.33489 0
M  V30 393 H 44.116 -3.46724 1.3643 0
M  V30 394 H 44.229 -3.52221 3.24772 0
M  V30 395 H 42.593 -1.93673 1.65418 0
M  V30 396 H 43.376 -1.27312 3.18821 0
M  V30 397 N 45.8211 -1.22559 -0.990812 0
M  V30 398 C 47.2321 -1.04791 -1.54518 0
M  V30 399 C 47.5831 0.387998 -1.92325 0
M  V30 400 O 46.7081 1.27328 -1.74976 0
M  V30 401 C 47.3031 -1.896 -2.80779 0
M  V30 402 C 45.8621 -1.76124 -3.32652 0
M  V30 403 C 45.0091 -1.8594 -2.05722 0
M  V30 404 H 47.9601 -1.36374 -0.811662 0
M  V30 405 H 47.9811 -1.41464 -3.53225 0
M  V30 406 H 47.4931 -2.94101 -2.53231 0
M  V30 407 H 45.5941 -0.743643 -3.65104 0
M  V30 408 H 45.7071 -2.58913 -4.03114 0
M  V30 409 H 44.0711 -1.29403 -2.19379 0
M  V30 410 H 44.8541 -2.91976 -1.80568 0
M  V30 411 N 47.2992 1.18797 -1.03562 0
M  V30 412 C 48.5242 1.9314 -0.755764 0
M  V30 413 C 48.9492 1.7537 0.68022 0
M  V30 414 O 48.3072 1.06046 1.47051 0
M  V30 415 C 48.3552 3.42747 -1.12058 0
M  V30 416 O 47.4592 4.11683 -0.243124 0
M  V30 417 H 46.8002 0.602724 -0.278604 0
M  V30 418 H 49.3302 1.50678 -1.3841 0
M  V30 419 H 49.3402 3.93437 -1.08035 0
M  V30 420 H 48.0152 3.55002 -2.16672 0
M  V30 421 H 46.5922 3.71323 -0.342539 0
M  V30 422 N 48.7773 0.814389 1.34928 0
M  V30 423 C 50.0023 0.410097 2.03305 0
M  V30 424 C 50.4273 -0.973464 1.60951 0
M  V30 425 O 49.7853 -1.63185 0.789964 0
M  V30 426 C 49.8333 0.51049 3.56968 0
M  V30 427 O 48.9373 -0.473035 4.09678 0
M  V30 428 H 48.2783 0.170088 0.641846 0
M  V30 429 H 50.8083 1.10244 1.72358 0
M  V30 430 H 50.8183 0.383135 4.06197 0
M  V30 431 H 49.4933 1.51963 3.87144 0
M  V30 432 H 48.0703 -0.305272 3.71648 0
M  V30 433 N 50.2554 -1.46986 0.568584 0
M  V30 434 C 51.6664 -1.86188 0.138219 0
M  V30 435 C 52.0174 -1.47388 -1.29504 0
M  V30 436 O 51.1424 -0.88219 -1.97602 0
M  V30 437 C 51.7374 -3.3792 0.244065 0
M  V30 438 C 50.2964 -3.76171 -0.131335 0
M  V30 439 C 49.4434 -2.71027 0.586465 0
M  V30 440 H 52.3944 -1.38342 0.777645 0
M  V30 441 H 52.4154 -3.76729 -0.534351 0
M  V30 442 H 51.9274 -3.66128 1.28731 0
M  V30 443 H 50.0284 -3.5358 -1.17526 0
M  V30 444 H 50.1414 -4.78523 0.235146 0
M  V30 445 H 48.5054 -2.54684 0.0282722 0
M  V30 446 H 49.2884 -3.02077 1.63109 0
M  V30 447 N 51.7335 -0.305618 -1.54608 0
M  V30 448 C 53.1445 0.186098 -1.8577 0
M  V30 449 C 53.4955 1.53058 -1.22751 0
M  V30 450 O 52.6205 2.09888 -0.526893 0
M  V30 451 C 53.2155 0.344449 -3.37044 0
M  V30 452 C 51.7745 0.780384 -3.68221 0
M  V30 453 C 50.9215 -0.108554 -2.77087 0
M  V30 454 H 53.8725 -0.526485 -1.49712 0
M  V30 455 H 53.8935 1.17828 -3.61796 0
M  V30 456 H 53.4055 -0.634235 -3.82883 0
M  V30 457 H 51.5065 1.76945 -3.27904 0
M  V30 458 H 51.6195 0.596572 -4.75371 0
M  V30 459 H 49.9835 0.412931 -2.5133 0
M  V30 460 H 50.7665 -1.08368 -3.25747 0
M  V30 461 N 53.2116 1.57565 -0.0334293 0
M  V30 462 C 54.4596 1.91598 0.642999 0
M  V30 463 C 54.7806 0.910847 1.7242 0
M  V30 464 O 54.0506 -0.0469931 1.95844 0
M  V30 465 H 52.6306 0.707228 0.240496 0
M  V30 466 H 55.2926 1.94726 -0.0822488 0
M  V30 467 H 54.3886 2.92336 1.09298 0
M  V30 468 N 54.6897 -0.239769 1.55765 0
M  V30 469 C 55.6197 -1.30052 1.9393 0
M  V30 470 C 56.6007 -1.49839 0.805132 0
M  V30 471 O 57.7857 -1.62328 1.06599 0
M  V30 472 C 54.9157 -2.65391 2.2402 0
M  V30 473 C 53.8697 -2.60289 3.39755 0
M  V30 474 C 53.1957 -3.99489 3.55405 0
M  V30 475 C 54.4957 -2.16654 4.75246 0
M  V30 476 H 56.1897 -0.983573 2.82783 0
M  V30 477 H 53.7357 -0.471701 1.36055 0
M  V30 478 H 55.6887 -3.3974 2.49308 0
M  V30 479 H 54.4127 -2.98736 1.32 0
M  V30 480 H 53.0717 -1.88398 3.14487 0
M  V30 481 H 52.7197 -4.30112 2.60793 0
M  V30 482 H 52.4197 -3.96962 4.33238 0
M  V30 483 H 53.9437 -4.75528 3.83022 0
M  V30 484 H 55.3577 -2.80737 4.99859 0
M  V30 485 H 53.7547 -2.25223 5.56232 0
M  V30 486 H 54.8247 -1.11835 4.71827 0
M  V30 487 N 56.1678 -1.49265 -0.50573 0
M  V30 488 C 57.0778 -1.68312 -1.63427 0
M  V30 489 C 58.0938 -0.565682 -1.64548 0
M  V30 490 O 59.2698 -0.839801 -1.83055 0
M  V30 491 C 56.3348 -1.74107 -2.99813 0
M  V30 492 C 55.3958 -2.97653 -3.09356 0
M  V30 493 C 54.6288 -3.03163 -4.39236 0
M  V30 494 O 54.8518 -2.16396 -5.27758 0
M  V30 495 O 53.7858 -3.9558 -4.53652 0
M  V30 496 H 57.6118 -2.63907 -1.50289 0
M  V30 497 H 55.1968 -1.32951 -0.681502 0
M  V30 498 H 57.0788 -1.803 -3.80881 0
M  V30 499 H 55.7538 -0.816901 -3.13223 0
M  V30 500 H 54.6608 -2.96981 -2.27493 0
M  V30 501 H 55.9938 -3.89535 -3.00871 0
M  V30 502 N 57.6459 0.756429 -1.3826 0
M  V30 503 C 58.5559 1.9009 -1.37488 0
M  V30 504 C 59.5719 1.71855 -0.272366 0
M  V30 505 O 60.7479 1.94827 -0.510318 0
M  V30 506 C 57.8129 3.25421 -1.19592 0
M  V30 507 C 56.8739 3.56202 -2.39622 0
M  V30 508 C 56.1069 4.85075 -2.2257 0
M  V30 509 O 56.3299 5.57246 -1.21793 0
M  V30 510 O 55.2639 5.15269 -3.11098 0
M  V30 511 H 59.0899 1.93695 -2.33914 0
M  V30 512 H 56.6749 0.901313 -1.1915 0
M  V30 513 H 58.5569 4.06337 -1.11661 0
M  V30 514 H 57.2319 3.22634 -0.262486 0
M  V30 515 H 56.1389 2.75458 -2.53128 0
M  V30 516 H 57.4719 3.63747 -3.31586 0
M  V30 517 N 59.124 1.23083 0.984299 0
M  V30 518 C 60.535 1.05609 1.5396 0
M  V30 519 C 60.886 -0.377793 1.92528 0
M  V30 520 O 60.011 -1.26398 1.75649 0
M  V30 521 C 60.606 1.91087 2.7977 0
M  V30 522 C 59.165 1.77885 3.31713 0
M  V30 523 C 58.312 1.87028 2.04733 0
M  V30 524 H 61.263 1.36802 0.804419 0
M  V30 525 H 61.284 1.43336 3.5247 0
M  V30 526 H 60.796 2.9544 2.51668 0
M  V30 527 H 58.897 0.762995 3.64704 0
M  V30 528 H 59.01 2.61047 4.01735 0
M  V30 529 H 57.374 1.30565 2.18689 0
M  V30 530 H 58.157 2.92929 1.79017 0
M  V30 531 N 60.6021 -1.18246 1.0419 0
M  V30 532 C 61.5321 -2.24127 0.654914 0
M  V30 533 C 62.5131 -1.66617 -0.342451 0
M  V30 534 O 63.6981 -1.92924 -0.222277 0
M  V30 535 C 60.8281 -3.47295 0.0183757 0
M  V30 536 C 59.7821 -4.17563 0.939414 0
M  V30 537 C 59.1081 -5.34438 0.167286 0
M  V30 538 C 60.4081 -4.70917 2.25908 0
M  V30 539 H 62.1021 -2.56753 1.54007 0
M  V30 540 H 59.6481 -1.23414 0.74195 0
M  V30 541 H 61.6011 -4.20572 -0.264082 0
M  V30 542 H 60.3251 -3.13907 -0.901664 0
M  V30 543 H 58.9841 -3.46186 1.20628 0
M  V30 544 H 58.6321 -4.97298 -0.7552 0
M  V30 545 H 58.3321 -5.82388 0.780901 0
M  V30 546 H 59.8561 -6.10504 -0.108125 0
M  V30 547 H 61.2701 -5.35882 2.03724 0
M  V30 548 H 59.6671 -5.29406 2.82577 0
M  V30 549 H 60.7371 -3.88272 2.9047 0
M  V30 550 N 62.0802 -0.821533 -1.34494 0
M  V30 551 C 63.3572 -0.33159 -1.92769 0
M  V30 552 C 63.7372 1.18088 -1.74981 0
M  V30 553 O 63.0852 1.98733 -1.12772 0
M  V30 554 C 63.2952 -0.759398 -3.40638 0
M  V30 555 C 64.6432 -0.757433 -4.1779 0
M  V30 556 O 65.6672 -0.70189 -3.49216 0
M  V30 557 O 64.5262 -0.829361 -5.4017 0
M  V30 558 H 61.6202 -0.0902502 -0.822061 0
M  V30 559 H 64.1662 -0.906231 -1.43477 0
M  V30 560 H 62.9382 -1.8012 -3.47379 0
M  V30 561 H 62.5612 -0.160378 -3.97276 0
M  V30 562 N 63.5583 1.46682 -0.576371 0
M  V30 563 C 64.8063 2.02013 -0.0594163 0
M  V30 564 C 65.1273 1.45101 1.30271 0
M  V30 565 O 64.3973 0.633317 1.8538 0
M  V30 566 H 62.9773 0.746759 -0.0189745 0
M  V30 567 H 65.6393 1.79862 -0.750717 0
M  V30 568 H 64.7353 3.12097 0.014345 0
M  V30 569 N 65.0364 0.313813 1.54444 0
M  V30 570 C 65.9994 -0.54379 2.22656 0
M  V30 571 C 66.9994 -1.05124 1.21678 0
M  V30 572 O 68.1894 -0.945225 1.46325 0
M  V30 573 C 65.3214 -1.75427 2.92298 0
M  V30 574 H 66.5144 0.0523599 2.99854 0
M  V30 575 H 64.0674 0.0647834 1.56166 0
M  V30 576 H 64.8024 -2.38991 2.19211 0
M  V30 577 H 64.5874 -1.39791 3.66334 0
M  V30 578 H 66.0774 -2.36325 3.44297 0
M  V30 579 N 66.5145 -1.57545 0.0417849 0
M  V30 580 C 67.7915 -1.83642 -0.673433 0
M  V30 581 C 68.1715 -0.928298 -1.89594 0
M  V30 582 O 67.5195 0.0129955 -2.28496 0
M  V30 583 C 67.7295 -3.33155 -1.03964 0
M  V30 584 C 69.0775 -3.99941 -1.42592 0
M  V30 585 O 70.1015 -3.37725 -1.13226 0
M  V30 586 O 68.9605 -5.09619 -1.9736 0
M  V30 587 H 66.0545 -0.757638 -0.331533 0
M  V30 588 H 68.6005 -1.69554 0.070433 0
M  V30 589 H 67.3725 -3.9093 -0.170098 0
M  V30 590 H 66.9955 -3.52396 -1.84126 0
M  V30 591 N 67.9926 0.231505 -1.5589 0
M  V30 592 C 69.4036 0.799327 -1.68724 0
M  V30 593 C 69.7546 1.85398 -0.642022 0
M  V30 594 O 68.8796 2.1539 0.208784 0
M  V30 595 C 69.4746 1.45664 -3.05888 0
M  V30 596 C 68.0336 1.97197 -3.20609 0
M  V30 597 C 67.1806 0.828552 -2.64632 0
M  V30 598 H 70.1316 0.00702616 -1.58698 0
M  V30 599 H 70.1526 2.32517 -3.01191 0
M  V30 600 H 69.6646 0.688808 -3.81939 0
M  V30 601 H 67.7656 2.76813 -2.4941 0
M  V30 602 H 67.8786 2.15878 -4.27707 0
M  V30 603 H 66.2426 1.23321 -2.22854 0
M  V30 604 H 67.0256 0.0735544 -3.43221 0
M  V30 605 N 69.4707 1.49531 0.497807 0
M  V30 606 C 70.4207 1.62829 1.59596 0
M  V30 607 C 71.4047 0.483824 1.53453 0
M  V30 608 O 72.5967 0.736937 1.60929 0
M  V30 609 C 69.7257 1.7011 2.98191 0
M  V30 610 C 68.8117 2.90144 3.09317 0
M  V30 611 N 69.2027 4.1418 2.90324 0
M  V30 612 C 67.5007 2.88148 3.40422 0
M  V30 613 C 68.2017 4.94886 3.05717 0
M  V30 614 N 67.1777 4.28314 3.34736 0
M  V30 615 H 70.9797 2.56446 1.4357 0
M  V30 616 H 68.4937 1.46347 0.704001 0
M  V30 617 H 70.4907 1.77735 3.77115 0
M  V30 618 H 69.1507 0.776315 3.15283 0
M  V30 619 H 70.1617 4.44109 2.66436 0
M  V30 620 H 66.8387 2.05061 3.63671 0
M  V30 621 H 68.2287 6.03432 2.95499 0
M  V30 622 N 70.9488 -0.749086 1.3866 0
M  V30 623 C 72.1948 -1.51056 1.35314 0
M  V30 624 C 72.5278 -1.94121 -0.0553751 0
M  V30 625 O 71.8028 -1.65763 -1.01749 0
M  V30 626 C 72.0858 -2.76003 2.31288 0
M  V30 627 C 71.9388 -2.39047 3.8102 0
M  V30 628 C 73.2578 -3.78046 2.2532 0
M  V30 629 H 70.3768 -0.547972 0.492844 0
M  V30 630 H 73.0188 -0.857628 1.69543 0
M  V30 631 H 71.1688 -3.31716 2.02229 0
M  V30 632 H 72.8408 -1.89074 4.20771 0
M  V30 633 H 71.0838 -1.71449 3.98482 0
M  V30 634 H 71.7548 -3.28462 4.4364 0
M  V30 635 H 74.2308 -3.31884 2.50983 0
M  V30 636 H 73.1068 -4.63159 2.94576 0
M  V30 637 H 73.3678 -4.23957 1.25352 0
M  V30 638 N 72.4269 -1.23603 -0.977757 0
M  V30 639 C 73.8379 -1.06424 -1.53398 0
M  V30 640 C 74.1889 0.367578 -1.92726 0
M  V30 641 O 73.3139 1.25465 -1.76316 0
M  V30 642 C 73.9089 -1.92568 -2.78753 0
M  V30 643 C 72.4679 -1.79642 -3.30765 0
M  V30 644 C 71.6149 -1.88111 -2.03739 0
M  V30 645 H 74.5659 -1.37227 -0.797152 0
M  V30 646 H 74.5869 -1.45203 -3.51705 0
M  V30 647 H 74.0989 -2.96771 -2.50098 0
M  V30 648 H 72.1999 -0.782325 -3.64294 0
M  V30 649 H 72.3129 -2.63174 -4.00345 0
M  V30 650 H 70.6769 -1.31723 -2.17994 0
M  V30 651 H 71.4599 -2.93875 -1.77461 0
M  V30 652 N 73.905 1.17692 -1.04816 0
M  V30 653 C 74.855 2.1952 -0.616042 0
M  V30 654 C 75.839 1.57147 0.345485 0
M  V30 655 O 77.031 1.76245 0.163325 0
M  V30 656 C 74.16 3.43298 0.0116917 0
M  V30 657 C 73.246 4.12777 -0.973435 0
M  V30 658 N 73.637 4.5814 -2.14339 0
M  V30 659 C 71.935 4.38747 -0.80108 0
M  V30 660 C 72.636 5.11713 -2.7663 0
M  V30 661 N 71.612 5.03686 -2.04453 0
M  V30 662 H 75.414 2.52293 -1.5075 0
M  V30 663 H 72.928 1.3398 -0.917776 0
M  V30 664 H 74.925 4.15519 0.339006 0
M  V30 665 H 73.585 3.12018 0.898593 0
M  V30 666 H 74.596 4.52349 -2.52191 0
M  V30 667 H 71.273 4.17485 0.0350934 0
M  V30 668 H 72.663 5.56962 -3.75823 0
M  V30 669 N 75.3831 0.828654 1.34056 0
M  V30 670 C 76.7941 0.477534 1.8049 0
M  V30 671 C 77.1451 -1.00258 1.6865 0
M  V30 672 O 76.2701 -1.78057 1.22982 0
M  V30 673 C 76.8651 0.860018 3.27703 0
M  V30 674 C 75.4241 0.561185 3.72193 0
M  V30 675 C 74.5711 1.07385 2.55663 0
M  V30 676 H 77.5221 1.0183 1.21722 0
M  V30 677 H 77.5431 0.166038 3.80138 0
M  V30 678 H 77.0551 1.93731 3.36288 0
M  V30 679 H 75.1561 -0.506465 3.69142 0
M  V30 680 H 75.2691 1.10926 4.66082 0
M  V30 681 H 73.6331 0.495149 2.49841 0
M  V30 682 H 74.4161 2.15771 2.67016 0
M  V30 683 N 76.8612 -1.46375 0.584142 0
M  V30 684 C 78.1382 -1.956 0.0033388 0
M  V30 685 C 78.5182 -1.52679 -1.45782 0
M  V30 686 O 77.8662 -0.77816 -2.14842 0
M  V30 687 C 78.0762 -3.48551 0.176891 0
M  V30 688 C 79.4242 -4.24576 0.0454609 0
M  V30 689 O 80.4482 -3.56043 0.105801 0
M  V30 690 O 79.3072 -5.46427 -0.0890376 0
M  V30 691 H 76.4012 -0.825547 -0.0490066 0
M  V30 692 H 78.9472 -1.56652 0.65256 0
M  V30 693 H 77.7192 -3.72683 1.1926 0
M  V30 694 H 77.3422 -3.94332 -0.508695 0
M  V30 695 N 78.3393 -0.321999 -1.54275 0
M  V30 696 C 79.2693 0.537411 -2.27231 0
M  V30 697 C 80.2503 1.12064 -1.27968 0
M  V30 698 O 81.4353 1.14606 -1.56777 0
M  V30 699 C 78.5653 1.69919 -3.02894 0
M  V30 700 C 77.5193 1.24534 -4.09482 0
M  V30 701 C 76.8453 2.49394 -4.72977 0
M  V30 702 C 78.1453 0.361335 -5.21049 0
M  V30 703 H 79.8393 -0.0711406 -2.99315 0
M  V30 704 H 77.3853 -0.0356555 -1.43956 0
M  V30 705 H 79.3383 2.30668 -3.52662 0
M  V30 706 H 78.0623 2.33431 -2.28424 0
M  V30 707 H 76.7213 0.660782 -3.60596 0
M  V30 708 H 76.3693 3.11265 -3.95124 0
M  V30 709 H 76.0693 2.19718 -5.44975 0
M  V30 710 H 77.5933 3.10908 -5.25517 0
M  V30 711 H 79.0073 0.875072 -5.66582 0
M  V30 712 H 77.4043 0.157428 -5.99893 0
M  V30 713 H 78.4743 -0.60822 -4.8107 0
M  V30 714 N 79.8174 1.5752 -0.0501392 0
M  V30 715 C 80.7804 2.1037 0.909786 0
M  V30 716 C 81.7804 1.02308 1.24056 0
M  V30 717 O 82.9704 1.28385 1.17741 0
M  V30 718 C 80.1024 2.58708 2.21998 0
M  V30 719 H 81.2954 2.96479 0.451665 0
M  V30 720 H 78.8484 1.55038 0.198248 0
M  V30 721 H 79.5834 1.75989 2.72394 0
M  V30 722 H 79.3684 3.37675 1.99295 0
M  V30 723 H 80.8584 2.99747 2.9076 0
M  V30 724 N 81.2955 -0.223234 1.56011 0
M  V30 725 C 82.7065 -0.790368 1.69145 0
M  V30 726 C 83.0575 -1.85055 0.651845 0
M  V30 727 O 82.1825 -2.15498 -0.197359 0
M  V30 728 C 82.7775 -1.4404 3.06656 0
M  V30 729 C 81.3365 -1.95494 3.2165 0
M  V30 730 C 80.4835 -0.814506 2.65068 0
M  V30 731 H 83.4345 0.00139011 1.587 0
M  V30 732 H 83.4555 -2.30916 3.0242 0
M  V30 733 H 82.9675 -0.668543 3.82298 0
M  V30 734 H 81.0685 -2.75487 2.50874 0
M  V30 735 H 81.1815 -2.13607 4.28846 0
M  V30 736 H 79.5455 -1.22137 2.23505 0
M  V30 737 H 80.3285 -0.0553515 3.43255 0
M  V30 738 N 82.7736 -1.49793 -0.48987 0
M  V30 739 C 84.0226 -1.59085 -1.23995 0
M  V30 740 C 84.3356 -0.287907 -1.9347 0
M  V30 741 O 85.5416 -0.259506 -2.70257 0
M  V30 742 C 83.9976 -2.80736 -2.252 0
M  V30 743 C 83.6056 -4.17833 -1.61614 0
M  V30 744 C 85.3496 -2.99364 -3.00967 0
M  V30 745 C 83.2566 -5.30693 -2.60996 0
M  V30 746 H 82.1866 -0.592372 -0.466488 0
M  V30 747 H 84.8376 -1.76197 -0.51252 0
M  V30 748 H 83.2196 -2.57142 -3.01154 0
M  V30 749 H 84.3936 -4.51608 -0.915774 0
M  V30 750 H 82.7086 -4.04656 -0.981977 0
M  V30 751 H 85.3056 -3.80851 -3.75308 0
M  V30 752 H 85.6486 -2.10356 -3.59244 0
M  V30 753 H 86.1816 -3.2305 -2.32128 0
M  V30 754 H 82.9206 -6.21796 -2.07485 0
M  V30 755 H 82.4406 -5.01359 -3.2924 0
M  V30 756 H 84.1196 -5.6049 -3.23202 0
M  V30 757 N 84.2517 0.741722 -1.39055 0
M  V30 758 C 85.2147 1.83733 -1.37021 0
M  V30 759 C 86.2147 1.58542 -0.268534 0
M  V30 760 O 87.4047 1.66067 -0.526076 0
M  V30 761 C 84.5367 3.2141 -1.13617 0
M  V30 762 H 85.7297 1.86941 -2.34506 0
M  V30 763 H 83.2827 0.944676 -1.24521 0
M  V30 764 H 84.0177 3.23865 -0.167863 0
M  V30 765 H 83.8027 3.4109 -1.93391 0
M  V30 766 H 85.2927 4.01477 -1.14918 0
M  V30 767 N 85.7298 1.2412 0.971189 0
M  V30 768 C 86.9768 1.07881 1.71371 0
M  V30 769 C 87.3048 -0.382901 1.90694 0
M  V30 770 O 86.5598 -1.29945 1.46331 0
M  V30 771 C 86.8588 1.75983 3.11071 0
M  V30 772 C 86.5248 3.25909 3.11599 0
M  V30 773 C 85.1868 3.66813 3.11451 0
M  V30 774 C 87.5388 4.21771 3.062 0
M  V30 775 C 84.8668 5.02021 3.03631 0
M  V30 776 C 87.2188 5.56982 2.99923 0
M  V30 777 C 85.8828 5.97237 2.98102 0
M  V30 778 H 85.1528 0.394764 0.62709 0
M  V30 779 H 87.7998 1.54176 1.13587 0
M  V30 780 H 86.1048 1.22072 3.72298 0
M  V30 781 H 87.8018 1.60887 3.6731 0
M  V30 782 H 84.3918 2.93353 3.12477 0
M  V30 783 H 88.5758 3.91172 3.05447 0
M  V30 784 H 83.8318 5.32411 3.0058 0
M  V30 785 H 88.0058 6.30969 2.94704 0
M  V30 786 H 85.6328 7.01967 2.91798 0
M  V30 787 N 87.2079 -1.17134 1.05439 0
M  V30 788 C 88.4549 -1.87456 0.765942 0
M  V30 789 C 88.7829 -1.81189 -0.707153 0
M  V30 790 O 88.0379 -1.21633 -1.5331 0
M  V30 791 C 88.3369 -3.36833 1.19491 0
M  V30 792 C 88.0029 -3.63301 2.67063 0
M  V30 793 C 86.6649 -3.70234 3.07376 0
M  V30 794 C 89.0169 -3.74575 3.62413 0
M  V30 795 C 86.3449 -3.85933 4.41896 0
M  V30 796 C 88.6969 -3.91793 4.9667 0
M  V30 797 C 87.3609 -3.96966 5.36633 0
M  V30 798 H 86.6309 -0.685948 0.280278 0
M  V30 799 H 89.2779 -1.38556 1.32192 0
M  V30 800 H 87.5829 -3.87807 0.557969 0
M  V30 801 H 89.2799 -3.89611 0.948893 0
M  V30 802 H 85.8699 -3.58532 2.34846 0
M  V30 803 H 90.0539 -3.68537 3.32406 0
M  V30 804 H 85.3099 -3.88187 4.72357 0
M  V30 805 H 89.4839 -3.99458 5.70444 0
M  V30 806 H 87.1109 -4.08883 6.40874 0
M  V30 807 N 88.686 -0.835752 -1.33615 0
M  V30 808 C 89.926 -0.43599 -1.99696 0
M  V30 809 C 90.29 0.98557 -1.64774 0
M  V30 810 O 91.491 1.48889 -2.23798 0
M  V30 811 C 89.762 -0.646721 -3.515 0
M  V30 812 S 91.321 -0.341715 -4.37467 0
M  V30 813 H 88.139 -0.164136 -0.691795 0
M  V30 814 H 90.741 -1.08436 -1.62671 0
M  V30 815 H 89.445 -1.68077 -3.74404 0
M  V30 816 H 88.976 0.0159173 -3.93397 0
M  V30 817 H 90.991 0.839708 -4.89043 0
M  V30 818 N 90.1641 1.46063 -0.591896 0
M  V30 819 C 91.0941 2.33172 0.123673 0
M  V30 820 C 92.0751 1.45897 0.87453 0
M  V30 821 O 93.2601 1.74698 0.848181 0
M  V30 822 C 90.3901 3.28336 1.13194 0
M  V30 823 C 89.3441 4.25124 0.495324 0
M  V30 824 C 88.6701 5.09863 1.61071 0
M  V30 825 C 89.9701 5.19143 -0.573425 0
M  V30 826 H 91.6641 2.93252 -0.603646 0
M  V30 827 H 89.2101 1.41014 -0.291741 0
M  V30 828 H 91.1631 3.88137 1.64097 0
M  V30 829 H 89.8871 2.66383 1.88965 0
M  V30 830 H 88.5461 3.66599 0.00729452 0
M  V30 831 H 88.1941 4.44288 2.35832 0
M  V30 832 H 87.8941 5.75417 1.19035 0
M  V30 833 H 89.4181 5.72529 2.12233 0
M  V30 834 H 90.8321 5.73106 -0.1491 0
M  V30 835 H 89.2291 5.93089 -0.914636 0
M  V30 836 H 90.2991 4.62519 -1.45617 0
M  V30 837 N 91.6422 0.330177 1.54103 0
M  V30 838 C 93.0582 -0.0222371 1.59585 0
M  V30 839 C 93.2582 -1.49902 1.34654 0
M  V30 840 O 92.3142 -2.25592 1.13421 0
M  V30 841 C 93.6272 0.401932 2.98002 0
M  V30 842 C 95.1752 0.353145 3.11001 0
M  V30 843 C 95.6502 0.752576 4.51775 0
M  V30 844 N 97.1412 0.706239 4.57784 0
M  V30 845 C 97.8762 0.987417 5.64834 0
M  V30 846 N 97.3722 1.33607 6.79795 0
M  V30 847 N 99.1652 0.91254 5.54643 0
M  V30 848 H 91.3162 1.29228 1.68564 0
M  V30 849 H 93.5792 0.525906 0.78875 0
M  V30 850 H 93.2852 1.4311 3.21267 0
M  V30 851 H 93.1592 -0.229699 3.765 0
M  V30 852 H 95.5462 -0.666822 2.87467 0
M  V30 853 H 95.6272 1.0198 2.34593 0
M  V30 854 H 95.2712 1.77049 4.76042 0
M  V30 855 H 95.2012 0.0635409 5.26562 0
M  V30 856 H 97.6922 0.44889 3.75224 0
M  V30 857 H 98.0052 1.53582 7.57385 0
M  V30 858 H 96.3502 1.37439 6.81275 0
M  V30 859 H 99.5412 0.639601 4.6371 0
M  V30 860 H 99.7142 1.13503 6.37982 0
M  V30 861 N 93.1203 -1.57491 0.0584922 0
M  V30 862 C 94.0523 -2.08916 -0.942694 0
M  V30 863 C 95.0653 -1.0185 -1.27006 0
M  V30 864 O 96.2543 -1.29398 -1.22957 0
M  V30 865 C 93.3543 -2.52341 -2.26224 0
M  V30 866 C 92.5273 -3.82827 -2.1157 0
M  V30 867 C 91.5863 -4.12487 -3.26712 0
M  V30 868 O 90.6123 -4.82295 -3.02292 0
M  V30 869 N 91.8143 -3.64978 -4.5141 0
M  V30 870 H 94.5793 -2.95437 -0.503722 0
M  V30 871 H 92.1403 -1.61397 -0.12757 0
M  V30 872 H 94.1323 -2.69254 -3.02133 0
M  V30 873 H 92.7023 -1.7103 -2.61663 0
M  V30 874 H 91.9223 -3.75425 -1.20208 0
M  V30 875 H 93.2103 -4.68263 -1.99015 0
M  V30 876 H 92.6083 -3.08558 -4.7414 0
M  V30 877 H 91.1653 -3.87115 -5.2439 0
M  V30 878 N 94.5984 0.214957 -1.56127 0
M  V30 879 C 95.8264 0.955092 -1.83536 0
M  V30 880 C 96.2414 1.77677 -0.638472 0
M  V30 881 O 95.5984 1.78219 0.392968 0
M  V30 882 C 95.6494 1.86734 -3.09536 0
M  V30 883 O 95.3704 1.07887 -4.24608 0
M  V30 884 C 96.8714 2.72082 -3.4998 0
M  V30 885 H 94.0914 0.279611 -0.609966 0
M  V30 886 H 96.6354 0.228197 -2.03223 0
M  V30 887 H 94.7904 2.5481 -2.91806 0
M  V30 888 H 95.2044 1.69872 -4.9623 0
M  V30 889 H 96.6784 3.31782 -4.41163 0
M  V30 890 H 97.1554 3.44806 -2.7204 0
M  V30 891 H 97.7614 2.09409 -3.70173 0
M  V30 892 N 96.0765 1.50051 0.48192 0
M  V30 893 C 97.3045 1.64237 1.25832 0
M  V30 894 C 97.7195 0.321336 1.86045 0
M  V30 895 O 97.0765 -0.695478 1.68729 0
M  V30 896 C 97.1275 2.72548 2.37487 0
M  V30 897 O 96.8485 3.99529 1.79745 0
M  V30 898 C 98.3495 2.9761 3.28547 0
M  V30 899 H 95.5695 0.55237 0.380957 0
M  V30 900 H 98.1135 1.96207 0.576467 0
M  V30 901 H 96.2685 2.43303 3.01467 0
M  V30 902 H 96.6825 4.59342 2.5319 0
M  V30 903 H 98.1565 3.77084 4.03127 0
M  V30 904 H 98.6335 2.0826 3.86684 0
M  V30 905 H 99.2395 3.28345 2.70314 0
M  V30 906 N 97.5546 -0.734337 1.39446 0
M  V30 907 C 98.7796 -1.52866 1.40167 0
M  V30 908 C 99.2046 -1.881 -0.00171513 0
M  V30 909 O 98.5626 -1.51957 -0.988879 0
M  V30 910 C 98.6106 -2.79235 2.28167 0
M  V30 911 O 97.7146 -3.75185 1.71201 0
M  V30 912 H 97.0556 -0.461618 0.477289 0
M  V30 913 H 99.5856 -0.905949 1.8345 0
M  V30 914 H 99.5956 -3.27963 2.42702 0
M  V30 915 H 98.2706 -2.52923 3.30156 0
M  V30 916 H 96.8476 -3.33958 1.65912 0
M  V30 917 N 99.0327 -1.24633 -0.964593 0
M  V30 918 C 100.444 -1.08045 -1.5226 0
M  V30 919 C 100.795 0.347116 -1.93105 0
M  V30 920 O 99.9197 1.23588 -1.77637 0
M  V30 921 C 100.515 -1.95514 -2.76695 0
M  V30 922 C 99.0737 -1.8314 -3.28841 0
M  V30 923 C 98.2207 -1.90262 -2.01732 0
M  V30 924 H 101.172 -1.38064 -0.782553 0
M  V30 925 H 101.193 -1.48925 -3.50145 0
M  V30 926 H 100.705 -2.99407 -2.46936 0
M  V30 927 H 98.8057 -0.82092 -3.63444 0
M  V30 928 H 98.9187 -2.67406 -3.97531 0
M  V30 929 H 97.2827 -1.34027 -2.16584 0
M  V30 930 H 98.0657 -2.9574 -1.74334 0
M  V30 931 N 100.511 1.16574 -1.06058 0
M  V30 932 C 101.927 1.3904 -0.783585 0
M  V30 933 C 102.127 1.91784 0.618145 0
M  V30 934 O 101.183 2.11511 1.37911 0
M  V30 935 C 102.496 2.37329 -1.84649 0
M  V30 936 C 104.044 2.51018 -1.86973 0
M  V30 937 C 104.519 3.52588 -2.92311 0
M  V30 938 N 106.01 3.60113 -2.91329 0
M  V30 939 C 106.745 4.38486 -3.69482 0
M  V30 940 N 106.241 5.20302 -4.57447 0
M  V30 941 N 108.034 4.33446 -3.57885 0
M  V30 942 H 100.185 0.806725 -1.96483 0
M  V30 943 H 102.448 0.417117 -0.851303 0
M  V30 944 H 102.154 2.05663 -2.85299 0
M  V30 945 H 102.028 3.36946 -1.6955 0
M  V30 946 H 104.415 2.81989 -0.869827 0
M  V30 947 H 104.496 1.51445 -2.0615 0
M  V30 948 H 104.14 3.22354 -3.92492 0
M  V30 949 H 104.07 4.51886 -2.70383 0
M  V30 950 H 106.561 3.01707 -2.27555 0
M  V30 951 H 106.874 5.77311 -5.13743 0
M  V30 952 H 105.219 5.19653 -4.61503 0
M  V30 953 H 108.41 3.68586 -2.88551 0
M  V30 954 H 108.583 4.94279 -4.19037 0
M  V30 955 N 101.989 0.842826 1.3317 0
M  V30 956 C 102.937 0.267495 2.31057 0
M  V30 957 C 103.931 -0.602682 1.58316 0
M  V30 958 O 105.137 -0.491803 1.73151 0
M  V30 959 H 101.512 0.0677813 0.748939 0
M  V30 960 H 103.483 1.10754 2.77085 0
M  V30 961 C 102.232 -0.539331 3.43492 0
M  V30 962 H 101.555 0.12095 3.99617 0
M  V30 963 H 102.995 -0.90767 4.14171 0
M  V30 964 C 101.454 -1.71981 2.89697 0
M  V30 965 O 101.984 -2.81862 2.86211 0
M  V30 966 N 100.19 -1.54299 2.46252 0
M  V30 967 H 99.7369 -0.649143 2.49287 0
M  V30 968 H 99.6949 -2.33431 2.10612 0
M  V30 969 N 103.467 -1.45747 0.599634 0
M  V30 970 C 104.713 -2.03153 0.100263 0
M  V30 971 C 105.068 -1.46073 -1.25221 0
M  V30 972 O 104.361 -0.622878 -1.81193 0
M  V30 973 C 104.555 -3.57399 -0.00602758 0
M  V30 974 C 104.384 -4.2944 1.3346 0
M  V30 975 C 103.154 -4.6768 1.91321 0
M  V30 976 C 105.352 -4.61905 2.2616 0
M  V30 977 N 103.334 -5.24544 3.18946 0
M  V30 978 C 104.705 -5.19518 3.3838 0
M  V30 979 C 106.76 -4.43841 2.25631 0
M  V30 980 C 105.463 -5.60972 4.50226 0
M  V30 981 C 107.489 -4.86322 3.36518 0
M  V30 982 C 106.851 -5.44021 4.4746 0
M  V30 983 H 102.95 -0.777911 0.0798696 0
M  V30 984 H 105.534 -1.77674 0.796244 0
M  V30 985 H 103.705 -3.82556 -0.671212 0
M  V30 986 H 105.437 -4.01457 -0.51133 0
M  V30 987 H 102.192 -4.5098 1.44617 0
M  V30 988 H 102.616 -5.57483 3.84112 0
M  V30 989 H 107.258 -3.98552 1.41123 0
M  V30 990 H 104.976 -6.0523 5.35464 0
M  V30 991 H 108.562 -4.74084 3.37247 0
M  V30 992 H 107.442 -5.76289 5.31846 0
M  V30 993 N 104.945 -0.338344 -1.53925 0
M  V30 994 C 106.185 0.260168 -2.02737 0
M  V30 995 C 106.549 1.48181 -1.22092 0
M  V30 996 O 107.75 2.15416 -1.60777 0
M  V30 997 C 106.021 0.571627 -3.52799 0
M  V30 998 S 107.58 1.14769 -4.23525 0
M  V30 999 H 104.398 0.077791 -0.706732 0
M  V30 1000 H 107 -0.474899 -1.89644 0
M  V30 1001 H 105.704 -0.325392 -4.09108 0
M  V30 1002 H 105.235 1.3365 -3.70002 0
M  V30 1003 H 107.25 2.43372 -4.32417 0
M  V30 1004 N 106.423 1.57458 -0.0668435 0
M  V30 1005 C 107.672 1.92477 0.602947 0
M  V30 1006 C 107.985 0.948419 1.71068 0
M  V30 1007 O 109.191 1.19124 2.43971 0
M  V30 1008 C 107.647 3.41903 1.12383 0
M  V30 1009 C 107.255 4.47975 0.04737 0
M  V30 1010 C 108.999 3.85931 1.76797 0
M  V30 1011 C 106.906 5.88529 0.582022 0
M  V30 1012 H 105.836 0.718387 0.22899 0
M  V30 1013 H 108.487 1.82978 -0.138276 0
M  V30 1014 H 106.869 3.46459 1.91787 0
M  V30 1015 H 108.043 4.55029 -0.726978 0
M  V30 1016 H 106.358 4.13384 -0.500243 0
M  V30 1017 H 108.955 4.88322 2.17821 0
M  V30 1018 H 109.298 3.23029 2.62599 0
M  V30 1019 H 109.831 3.83958 1.04024 0
M  V30 1020 H 106.57 6.55065 -0.238721 0
M  V30 1021 H 106.09 5.85004 1.324 0
M  V30 1022 H 107.769 6.38258 1.05999 0
M  V30 1023 N 107.901 -0.206675 1.56239 0
M  V30 1024 C 108.848 -1.25617 1.93621 0
M  V30 1025 C 109.818 -1.45824 0.795274 0
M  V30 1026 O 111.003 -1.59148 1.05245 0
M  V30 1027 C 108.143 -2.59839 2.27107 0
M  V30 1028 C 107.256 -2.47308 3.54207 0
M  V30 1029 C 106.391 -3.74155 3.7707 0
M  V30 1030 C 105.43 -3.56407 4.97635 0
M  V30 1031 N 104.567 -4.75238 5.1681 0
M  V30 1032 H 109.407 -0.930383 2.83104 0
M  V30 1033 H 106.944 -0.448065 1.4011 0
M  V30 1034 H 108.902 -3.38021 2.44535 0
M  V30 1035 H 107.532 -2.90485 1.40778 0
M  V30 1036 H 106.584 -1.60483 3.4489 0
M  V30 1037 H 107.896 -2.30122 4.42544 0
M  V30 1038 H 107.05 -4.60778 3.94675 0
M  V30 1039 H 105.789 -3.94282 2.87042 0
M  V30 1040 H 104.794 -2.68168 4.79964 0
M  V30 1041 H 106.019 -3.37736 5.89161 0
M  V30 1042 H 103.965 -4.95651 4.29728 0
M  V30 1043 H 103.882 -4.60835 5.99306 0
M  V30 1044 H 105.15 -5.63246 5.38864 0
M  V30 1045 N 109.379 -1.50304 -0.473955 0
M  V30 1046 C 110.312 -1.63595 -1.59097 0
M  V30 1047 C 111.29 -0.484142 -1.55225 0
M  V30 1048 O 112.474 -0.703271 -1.7489 0
M  V30 1049 C 109.601 -1.61589 -2.97669 0
M  V30 1050 C 108.647 -2.82295 -3.19705 0
M  V30 1051 S 109.48 -4.43635 -2.99913 0
M  V30 1052 C 110.636 -4.44317 -4.40832 0
M  V30 1053 H 110.869 -2.58082 -1.47583 0
M  V30 1054 H 108.402 -1.39531 -0.661087 0
M  V30 1055 H 110.36 -1.61116 -3.7756 0
M  V30 1056 H 109.021 -0.683421 -3.06575 0
M  V30 1057 H 108.214 -2.77188 -4.20931 0
M  V30 1058 H 107.816 -2.8032 -2.47582 0
M  V30 1059 H 110.108 -4.17703 -5.33414 0
M  V30 1060 H 111.051 -5.45911 -4.50984 0
M  V30 1061 H 111.459 -3.74059 -4.22777 0
M  V30 1062 N 110.857 0.726932 -1.39834 0
M  V30 1063 C 112.103 1.48884 -1.377 0
M  V30 1064 C 112.436 1.94185 0.0244852 0
M  V30 1065 O 111.711 1.67361 0.990986 0
M  V30 1066 C 111.994 2.72288 -2.3565 0
M  V30 1067 C 111.847 2.32956 -3.84775 0
M  V30 1068 C 113.166 3.74414 -2.31306 0
M  V30 1069 H 110.285 0.540062 -0.5015 0
M  V30 1070 H 112.927 0.830547 -1.70886 0
M  V30 1071 H 111.077 3.28457 -2.07481 0
M  V30 1072 H 112.749 1.82356 -4.23726 0
M  V30 1073 H 110.992 1.65088 -4.01159 0
M  V30 1074 H 111.663 3.21362 -4.4881 0
M  V30 1075 H 114.139 3.27849 -2.56231 0
M  V30 1076 H 113.015 4.58414 -3.01907 0
M  V30 1077 H 113.276 4.21909 -1.32081 0
M  V30 1078 N 112.336 1.25143 0.95797 0
M  V30 1079 C 113.576 1.10893 1.71703 0
M  V30 1080 C 113.94 -0.34478 1.88879 0
M  V30 1081 O 115.141 -0.609014 2.6181 0
M  V30 1082 C 113.412 1.83889 3.06463 0
M  V30 1083 S 114.971 1.85491 3.97666 0
M  V30 1084 H 111.789 0.396428 0.590226 0
M  V30 1085 H 114.391 1.58618 1.14283 0
M  V30 1086 H 113.095 2.88756 2.9163 0
M  V30 1087 H 112.626 1.36538 3.68946 0
M  V30 1088 H 114.641 0.929553 4.87415 0
M  V30 1089 N 113.814 -1.1601 1.06675 0
M  V30 1090 C 114.762 -2.22586 0.675157 0
M  V30 1091 C 115.756 -1.66525 -0.310766 0
M  V30 1092 O 116.962 -1.79145 -0.175215 0
M  V30 1093 H 113.337 -0.724855 0.200223 0
M  V30 1094 H 115.308 -2.52899 1.58381 0
M  V30 1095 C 114.057 -3.47604 0.0817162 0
M  V30 1096 H 113.38 -3.91058 0.831484 0
M  V30 1097 H 114.82 -4.23718 -0.154708 0
M  V30 1098 C 113.279 -3.15718 -1.17576 0
M  V30 1099 O 113.809 -3.31878 -2.26318 0
M  V30 1100 N 112.015 -2.69816 -1.07923 0
M  V30 1101 H 111.562 -2.56866 -0.194293 0
M  V30 1102 H 111.52 -2.48855 -1.92141 0
M  V30 1103 N 115.292 -0.849877 -1.32721 0
M  V30 1104 C 116.703 -0.506188 -1.79707 0
M  V30 1105 C 117.054 0.975627 -1.70223 0
M  V30 1106 O 116.179 1.76078 -1.25799 0
M  V30 1107 C 116.774 -0.912044 -3.26293 0
M  V30 1108 C 115.333 -0.620326 -3.71253 0
M  V30 1109 C 114.48 -1.11439 -2.53922 0
M  V30 1110 H 117.431 -1.03754 -1.20087 0
M  V30 1111 H 117.452 -0.226493 -3.79825 0
M  V30 1112 H 116.964 -1.99057 -3.33164 0
M  V30 1113 H 115.065 0.447674 -3.69901 0
M  V30 1114 H 115.178 -1.18327 -4.64258 0
M  V30 1115 H 113.542 -0.534834 -2.49021 0
M  V30 1116 H 114.325 -2.19992 -2.6355 0
M  V30 1117 N 116.77 1.45427 -0.607355 0
M  V30 1118 C 118.016 2.03097 -0.111035 0
M  V30 1119 C 118.371 1.46735 1.24445 0
M  V30 1120 O 117.664 0.632478 1.8086 0
M  V30 1121 C 117.858 3.57398 -0.0129263 0
M  V30 1122 C 117.687 4.28726 -1.35735 0
M  V30 1123 C 116.457 4.66659 -1.93798 0
M  V30 1124 C 118.655 4.60699 -2.28607 0
M  V30 1125 N 116.637 5.22845 -3.21723 0
M  V30 1126 C 118.008 5.17716 -3.41131 0
M  V30 1127 C 120.063 4.42638 -2.27982 0
M  V30 1128 C 118.766 5.58576 -4.53194 0
M  V30 1129 C 120.792 4.84531 -3.39093 0
M  V30 1130 C 120.154 5.4164 -4.50339 0
M  V30 1131 H 116.253 0.777476 -0.083994 0
M  V30 1132 H 118.837 1.77249 -0.805655 0
M  V30 1133 H 117.008 3.82907 0.650914 0
M  V30 1134 H 118.74 4.01722 0.490033 0
M  V30 1135 H 115.495 4.50207 -1.47007 0
M  V30 1136 H 115.919 5.55438 -3.87063 0
M  V30 1137 H 120.561 3.97798 -1.43235 0
M  V30 1138 H 118.279 6.02382 -5.38667 0
M  V30 1139 H 121.865 4.72289 -3.39757 0
M  V30 1140 H 120.745 5.73461 -5.34895 0
M  V30 1141 N 118.248 0.346503 1.53744 0
M  V30 1142 C 119.495 -0.249104 2.00962 0
M  V30 1143 C 119.823 -1.5032 1.23426 0
M  V30 1144 O 119.078 -1.93217 0.310761 0
M  V30 1145 C 119.377 -0.605809 3.52228 0
M  V30 1146 C 119.043 0.551747 4.47512 0
M  V30 1147 C 117.705 0.86941 4.73281 0
M  V30 1148 C 120.057 1.32818 5.03993 0
M  V30 1149 C 117.385 1.96582 5.52786 0
M  V30 1150 C 119.737 2.41486 5.84694 0
M  V30 1151 C 118.401 2.73808 6.08757 0
M  V30 1152 H 117.671 -0.0911538 0.735372 0
M  V30 1153 H 120.318 0.475027 1.85515 0
M  V30 1154 H 118.623 -1.4107 3.65522 0
M  V30 1155 H 120.32 -1.07858 3.86222 0
M  V30 1156 H 116.91 0.294102 4.2759 0
M  V30 1157 H 121.094 1.09602 4.84047 0
M  V30 1158 H 116.35 2.22045 5.69654 0
M  V30 1159 H 120.524 3.02078 6.27473 0
M  V30 1160 H 118.151 3.58892 6.7015 0
M  V30 1161 N 119.726 -1.57421 0.075193 0
M  V30 1162 C 120.636 -2.1642 -0.905511 0
M  V30 1163 C 121.652 -1.12828 -1.32461 0
M  V30 1164 O 122.828 -1.45109 -1.39661 0
M  V30 1165 C 119.893 -2.71693 -2.15369 0
M  V30 1166 C 118.954 -3.90171 -1.79068 0
M  V30 1167 C 118.187 -4.42798 -2.97936 0
M  V30 1168 O 118.41 -3.94416 -4.12058 0
M  V30 1169 O 117.344 -5.34085 -2.77555 0
M  V30 1170 H 121.17 -3.00588 -0.433626 0
M  V30 1171 H 118.755 -1.48664 -0.148067 0
M  V30 1172 H 120.637 -3.07104 -2.88557 0
M  V30 1173 H 119.312 -1.90582 -2.61649 0
M  V30 1174 H 118.219 -3.59606 -1.03122 0
M  V30 1175 H 119.552 -4.72584 -1.37569 0
M  V30 1176 N 121.204 0.198386 -1.56346 0
M  V30 1177 C 122.444 0.92609 -1.82217 0
M  V30 1178 C 122.808 1.80584 -0.652195 0
M  V30 1179 O 124.009 2.56907 -0.790716 0
M  V30 1180 C 122.28 1.72354 -3.13096 0
M  V30 1181 S 123.839 2.50371 -3.6036 0
M  V30 1182 H 120.657 0.310677 -0.639532 0
M  V30 1183 H 123.259 0.189755 -1.94577 0
M  V30 1184 H 121.963 1.0678 -3.96265 0
M  V30 1185 H 121.494 2.50175 -3.03605 0
M  V30 1186 H 123.509 3.74488 -3.25535 0
M  V30 1187 N 122.682 1.50554 0.465978 0
M  V30 1188 C 123.928 1.62038 1.21949 0
M  V30 1189 C 124.261 0.322116 1.9151 0
M  V30 1190 O 123.536 -0.676723 1.82348 0
M  V30 1191 C 123.819 2.80421 2.25912 0
M  V30 1192 C 123.672 4.20144 1.60622 0
M  V30 1193 C 124.991 2.94354 3.27176 0
M  V30 1194 H 122.11 0.589752 0.441998 0
M  V30 1195 H 124.752 1.82956 0.51257 0
M  V30 1196 H 122.902 2.62717 2.86203 0
M  V30 1197 H 124.574 4.49449 1.03889 0
M  V30 1198 H 122.817 4.24165 0.909211 0
M  V30 1199 H 123.488 4.98914 2.36196 0
M  V30 1200 H 125.964 3.10578 2.76913 0
M  V30 1201 H 124.84 3.788 3.97242 0
M  V30 1202 H 125.101 2.05186 3.916 0
M  V30 1203 N 124.16 -0.719506 1.40217 0
M  V30 1204 C 125.385 -1.51371 1.4178 0
M  V30 1205 C 125.81 -1.88091 0.0182355 0
M  V30 1206 O 125.168 -1.52997 -0.972707 0
M  V30 1207 C 125.216 -2.768 2.31115 0
M  V30 1208 O 124.32 -3.73349 1.7517 0
M  V30 1209 H 123.661 -0.456529 0.482159 0
M  V30 1210 H 126.191 -0.88644 1.844 0
M  V30 1211 H 126.201 -3.25371 2.46167 0
M  V30 1212 H 124.876 -2.49407 3.3282 0
M  V30 1213 H 123.453 -3.32179 1.69444 0
M  V30 1214 N 125.638 -1.25649 -0.95132 0
M  V30 1215 C 126.571 -1.00644 -2.04807 0
M  V30 1216 C 127.549 0.0654271 -1.62468 0
M  V30 1217 O 128.733 -0.074911 -1.88351 0
M  V30 1218 C 125.86 -0.522052 -3.34653 0
M  V30 1219 C 124.906 -1.58495 -3.95957 0
M  V30 1220 S 125.739 -3.17108 -4.31512 0
M  V30 1221 C 126.895 -2.70412 -5.64471 0
M  V30 1222 H 127.128 -1.93508 -2.25703 0
M  V30 1223 H 124.661 -1.09216 -1.09139 0
M  V30 1224 H 126.619 -0.24923 -4.09743 0
M  V30 1225 H 125.28 0.386146 -3.11717 0
M  V30 1226 H 124.473 -1.1968 -4.89584 0
M  V30 1227 H 124.075 -1.80862 -3.2736 0
M  V30 1228 H 126.367 -2.14245 -6.42733 0
M  V30 1229 H 127.31 -3.62693 -6.08161 0
M  V30 1230 H 127.718 -2.10302 -5.23864 0
M  V30 1231 N 127.117 1.15442 -1.07289 0
M  V30 1232 C 128.047 2.22312 -0.714107 0
M  V30 1233 C 129.028 1.67467 0.298155 0
M  V30 1234 O 130.213 1.93445 0.171048 0
M  V30 1235 C 127.343 3.47124 -0.110448 0
M  V30 1236 C 126.297 4.14926 -1.04979 0
M  V30 1237 C 125.623 5.33807 -0.308924 0
M  V30 1238 C 126.923 4.64762 -2.38314 0
M  V30 1239 H 128.617 2.5258 -1.6076 0
M  V30 1240 H 126.163 1.21404 -0.77441 0
M  V30 1241 H 128.116 4.21124 0.152482 0
M  V30 1242 H 126.84 3.16187 0.81812 0
M  V30 1243 H 125.499 3.42866 -1.29764 0
M  V30 1244 H 125.147 4.99126 0.623084 0
M  V30 1245 H 124.847 5.80113 -0.935036 0
M  V30 1246 H 126.371 6.10576 -0.0537771 0
M  V30 1247 H 127.785 5.30292 -2.1786 0
M  V30 1248 H 126.182 5.21728 -2.96514 0
M  V30 1249 H 127.252 3.80434 -3.00663 0
M  V30 1250 N 128.595 0.856903 1.32268 0
M  V30 1251 C 129.841 0.462069 1.97466 0
M  V30 1252 C 130.174 -0.980298 1.67642 0
M  V30 1253 O 129.449 -1.68824 0.965858 0
M  V30 1254 C 129.732 0.704336 3.53145 0
M  V30 1255 C 129.585 2.19529 3.9259 0
M  V30 1256 C 130.904 0.1622 4.39801 0
M  V30 1257 H 128.023 0.169357 0.717278 0
M  V30 1258 H 130.665 1.07574 1.56614 0
M  V30 1259 H 128.815 0.181999 3.88073 0
M  V30 1260 H 130.487 2.78387 3.67829 0
M  V30 1261 H 128.73 2.67292 3.41668 0
M  V30 1262 H 129.401 2.31549 5.01088 0
M  V30 1263 H 131.877 0.608905 4.11621 0
M  V30 1264 H 130.753 0.361265 5.4771 0
M  V30 1265 H 131.014 -0.935158 4.32096 0
M  V30 1266 N 130.073 -1.45103 0.615059 0
M  V30 1267 C 131.322 -2.01396 0.110718 0
M  V30 1268 C 131.635 -1.48834 -1.26916 0
M  V30 1269 O 132.841 -1.97152 -1.86664 0
M  V30 1270 C 131.297 -3.59599 0.14723 0
M  V30 1271 C 130.905 -4.21158 1.52743 0
M  V30 1272 C 132.649 -4.23428 -0.30148 0
M  V30 1273 C 130.556 -5.71535 1.51992 0
M  V30 1274 H 129.486 -0.753061 0.0376241 0
M  V30 1275 H 132.137 -1.66494 0.77149 0
M  V30 1276 H 130.519 -3.91724 -0.580339 0
M  V30 1277 H 131.693 -4.00594 2.2773 0
M  V30 1278 H 130.008 -3.69552 1.91886 0
M  V30 1279 H 132.605 -5.33703 -0.326392 0
M  V30 1280 H 132.948 -3.94629 -1.32565 0
M  V30 1281 H 133.481 -3.96047 0.373065 0
M  V30 1282 H 130.22 -6.05044 2.52193 0
M  V30 1283 H 129.74 -5.94268 0.81274 0
M  V30 1284 H 131.419 -6.34873 1.24681 0
M  V30 1285 N 131.551 -0.354651 -1.53558 0
M  V30 1286 C 132.481 0.489091 -2.2832 0
M  V30 1287 C 133.462 1.09324 -1.30316 0
M  V30 1288 O 134.647 1.11255 -1.59173 0
M  V30 1289 C 131.777 1.63456 -3.0643 0
M  V30 1290 C 130.731 1.1582 -4.12031 0
M  V30 1291 C 130.057 2.39305 -4.7816 0
M  V30 1292 C 131.357 0.250731 -5.21698 0
M  V30 1293 H 133.051 -0.134614 -2.99097 0
M  V30 1294 H 130.597 -0.0661826 -1.43848 0
M  V30 1295 H 132.55 2.23136 -3.57475 0
M  V30 1296 H 131.274 2.28533 -2.33325 0
M  V30 1297 H 129.933 0.584146 -3.61916 0
M  V30 1298 H 129.581 3.02814 -4.01637 0
M  V30 1299 H 129.281 2.08109 -5.49513 0
M  V30 1300 H 130.805 2.99691 -5.31994 0
M  V30 1301 H 132.219 0.754695 -5.68311 0
M  V30 1302 H 130.616 0.0301468 -6.00092 0
M  V30 1303 H 131.686 -0.710125 -4.79672 0
M  V30 1304 N 133.029 1.57378 -0.0835403 0
M  V30 1305 C 133.959 2.1641 0.87686 0
M  V30 1306 C 134.94 1.09429 1.30228 0
M  V30 1307 O 136.125 1.37516 1.37124 0
M  V30 1308 C 133.255 2.73517 2.14022 0
M  V30 1309 C 132.209 3.85769 1.85381 0
M  V30 1310 C 131.535 4.29529 3.18448 0
M  V30 1311 C 132.835 5.09486 1.14984 0
M  V30 1312 H 134.529 2.96914 0.385059 0
M  V30 1313 H 132.075 1.42823 0.18377 0
M  V30 1314 H 134.028 3.13463 2.81636 0
M  V30 1315 H 132.752 1.90252 2.65465 0
M  V30 1316 H 131.411 3.46345 1.20169 0
M  V30 1317 H 131.059 3.43169 3.67755 0
M  V30 1318 H 130.759 5.05204 3.00071 0
M  V30 1319 H 132.283 4.72099 3.8724 0
M  V30 1320 H 133.697 5.46674 1.72687 0
M  V30 1321 H 132.094 5.90515 1.06826 0
M  V30 1322 H 133.164 4.84724 0.130749 0
M  V30 1323 N 134.507 -0.190092 1.56449 0
M  V30 1324 C 135.455 -1.25501 1.95837 0
M  V30 1325 C 136.449 -1.4685 0.844485 0
M  V30 1326 O 137.655 -1.47651 1.02952 0
M  V30 1327 H 134.03 -0.421447 0.622805 0
M  V30 1328 H 136.001 -0.895821 2.84636 0
M  V30 1329 C 134.75 -2.59124 2.31841 0
M  V30 1330 H 134.073 -2.43514 3.17082 0
M  V30 1331 H 135.513 -3.32371 2.6326 0
M  V30 1332 C 133.972 -3.16488 1.15486 0
M  V30 1333 O 134.502 -3.99365 0.432535 0
M  V30 1334 N 132.708 -2.75305 0.930349 0
M  V30 1335 H 132.255 -2.08013 1.51948 0
M  V30 1336 H 132.213 -3.14024 0.153634 0
M  V30 1337 N 135.985 -1.50799 -0.457987 0
M  V30 1338 C 137.225 -1.64088 -1.21879 0
M  V30 1339 C 137.589 -0.339848 -1.88968 0
M  V30 1340 O 138.79 -0.348301 -2.66534 0
M  V30 1341 C 137.061 -2.79726 -2.2246 0
M  V30 1342 S 138.62 -3.13225 -3.07303 0
M  V30 1343 H 135.438 -0.578314 -0.41361 0
M  V30 1344 H 138.04 -1.88632 -0.513645 0
M  V30 1345 H 136.744 -3.72722 -1.71775 0
M  V30 1346 H 136.275 -2.57308 -2.97584 0
M  V30 1347 H 138.29 -2.58062 -4.23814 0
M  V30 1348 N 137.463 0.71206 -1.40597 0
M  V30 1349 C 138.709 1.47416 -1.39271 0
M  V30 1350 C 139.042 1.942 0.00388791 0
M  V30 1351 O 138.317 1.68403 0.973179 0
M  V30 1352 C 138.6 2.69774 -2.38525 0
M  V30 1353 C 138.453 2.28861 -3.87224 0
M  V30 1354 C 139.772 3.71939 -2.35264 0
M  V30 1355 H 136.891 0.534713 -0.5072 0
M  V30 1356 H 139.533 0.812375 -1.71757 0
M  V30 1357 H 137.683 3.26238 -2.10953 0
M  V30 1358 H 139.355 1.77852 -4.25636 0
M  V30 1359 H 137.598 1.60824 -4.02887 0
M  V30 1360 H 138.269 3.16584 -4.52193 0
M  V30 1361 H 140.745 3.25113 -2.59694 0
M  V30 1362 H 139.621 4.55186 -3.06753 0
M  V30 1363 H 139.882 4.20484 -1.36549 0
M  V30 1364 N 138.941 1.26152 0.944643 0
M  V30 1365 C 140.169 1.14259 1.72489 0
M  V30 1366 C 140.584 -0.302555 1.8636 0
M  V30 1367 O 139.941 -1.20741 1.36849 0
M  V30 1368 C 139.992 1.80266 3.13347 0
M  V30 1369 O 139.713 3.19133 3.00143 0
M  V30 1370 C 141.214 1.74283 4.07603 0
M  V30 1371 H 138.434 0.398051 0.540181 0
M  V30 1372 H 140.978 1.66706 1.18446 0
M  V30 1373 H 139.133 1.31766 3.64303 0
M  V30 1374 H 139.547 3.51744 3.89071 0
M  V30 1375 H 141.021 2.25111 5.04013 0
M  V30 1376 H 141.498 0.708631 4.33446 0
M  V30 1377 H 142.104 2.22319 3.62567 0
M  V30 1378 N 140.419 -1.14872 1.07899 0
M  V30 1379 C 141.349 -2.2193 0.725887 0
M  V30 1380 C 142.33 -1.67622 -0.28927 0
M  V30 1381 O 143.515 -1.93533 -0.160787 0
M  V30 1382 C 140.645 -3.47061 0.128856 0
M  V30 1383 C 139.599 -4.14363 1.07178 0
M  V30 1384 C 138.925 -5.33636 0.337229 0
M  V30 1385 C 140.225 -4.63492 2.40775 0
M  V30 1386 H 141.919 -2.51724 1.62097 0
M  V30 1387 H 139.465 -1.20991 0.780838 0
M  V30 1388 H 141.418 -4.21199 -0.130147 0
M  V30 1389 H 140.142 -3.16617 -0.80134 0
M  V30 1390 H 138.801 -3.42173 1.3158 0
M  V30 1391 H 138.449 -4.99449 -0.596606 0
M  V30 1392 H 138.149 -5.79609 0.965788 0
M  V30 1393 H 139.673 -6.10539 0.0861567 0
M  V30 1394 H 141.087 -5.2913 2.20669 0
M  V30 1395 H 139.484 -5.20148 2.99276 0
M  V30 1396 H 140.554 -3.78834 3.02676 0
M  V30 1397 N 141.898 -0.863906 -1.31812 0
M  V30 1398 C 143.146 -0.470904 -1.96537 0
M  V30 1399 C 143.467 0.978771 -1.68657 0
M  V30 1400 O 142.737 1.6853 -0.998717 0
M  V30 1401 H 141.317 -0.171148 -0.72713 0
M  V30 1402 H 143.979 -1.10236 -1.60729 0
M  V30 1403 H 143.075 -0.623616 -3.05806 0
M  V30 1404 N 143.376 1.44774 -0.622745 0
M  V30 1405 C 144.309 2.27792 0.136329 0
M  V30 1406 C 145.287 1.38041 0.859264 0
M  V30 1407 O 146.471 1.67478 0.86506 0
M  V30 1408 C 143.598 3.16776 1.19878 0
M  V30 1409 C 142.644 4.22575 0.57731 0
M  V30 1410 S 143.477 5.31825 -0.626294 0
M  V30 1411 C 144.633 6.24377 0.436378 0
M  V30 1412 H 144.866 2.91824 -0.567967 0
M  V30 1413 H 142.399 1.48838 -0.410677 0
M  V30 1414 H 144.357 3.68596 1.80686 0
M  V30 1415 H 143.018 2.5198 1.87523 0
M  V30 1416 H 142.211 4.84818 1.37721 0
M  V30 1417 H 141.813 3.73974 0.0440439 0
M  V30 1418 H 144.105 6.64689 1.31128 0
M  V30 1419 H 145.048 7.07941 -0.150271 0
M  V30 1420 H 145.456 5.59381 0.758513 0
M  V30 1421 N 144.854 0.36279 1.53368 0
M  V30 1422 C 146.084 -0.228281 2.05335 0
M  V30 1423 C 146.492 -1.43226 1.23625 0
M  V30 1424 O 145.835 -1.81717 0.269206 0
M  V30 1425 C 145.897 -0.688549 3.52845 0
M  V30 1426 C 145.561 0.398362 4.5526 0
M  V30 1427 C 146.558 1.24732 5.04716 0
M  V30 1428 C 144.243 0.557805 4.99193 0
M  V30 1429 C 146.237 2.2411 5.96702 0
M  V30 1430 C 143.924 1.55495 5.90986 0
M  V30 1431 C 144.922 2.39503 6.39631 0
M  V30 1432 O 144.61 3.37517 7.29615 0
M  V30 1433 H 144.342 -0.044395 0.674541 0
M  V30 1434 H 146.896 0.518668 1.98744 0
M  V30 1435 H 145.126 -1.48706 3.56964 0
M  V30 1436 H 146.815 -1.20231 3.87685 0
M  V30 1437 H 147.581 1.13532 4.71525 0
M  V30 1438 H 143.46 -0.0862959 4.60919 0
M  V30 1439 H 147.004 2.89718 6.34594 0
M  V30 1440 H 142.901 1.66744 6.23592 0
M  V30 1441 H 143.669 3.33213 7.47604 0
M  V30 1442 N 146.332 -1.57332 0.0918853 0
M  V30 1443 C 147.264 -2.10869 -0.898168 0
M  V30 1444 C 148.277 -1.04521 -1.24817 0
M  V30 1445 O 149.466 -1.31977 -1.20184 0
M  V30 1446 C 146.566 -2.57083 -2.2082 0
M  V30 1447 C 145.739 -3.87229 -2.03402 0
M  V30 1448 C 144.798 -4.19324 -3.17889 0
M  V30 1449 O 143.824 -4.88598 -2.91994 0
M  V30 1450 N 145.026 -3.74471 -4.43567 0
M  V30 1451 H 147.791 -2.96439 -0.440943 0
M  V30 1452 H 145.352 -1.61631 -0.0933064 0
M  V30 1453 H 147.344 -2.75602 -2.96354 0
M  V30 1454 H 145.914 -1.76541 -2.57977 0
M  V30 1455 H 145.134 -3.7789 -1.12218 0
M  V30 1456 H 146.422 -4.72379 -1.89038 0
M  V30 1457 H 145.82 -3.18546 -4.67488 0
M  V30 1458 H 144.377 -3.98151 -5.16061 0
M  V30 1459 N 147.81 0.181792 -1.56548 0
M  V30 1460 C 149.221 0.745244 -1.71181 0
M  V30 1461 C 149.572 1.83262 -0.70068 0
M  V30 1462 O 148.697 2.15946 0.140154 0
M  V30 1463 C 149.292 1.35859 -3.10367 0
M  V30 1464 C 147.851 1.86898 -3.2672 0
M  V30 1465 C 146.998 0.743942 -2.67134 0
M  V30 1466 H 149.949 -0.0434661 -1.5864 0
M  V30 1467 H 149.97 2.22817 -3.08436 0
M  V30 1468 H 149.482 0.566948 -3.83937 0
M  V30 1469 H 147.583 2.68738 -2.5809 0
M  V30 1470 H 147.696 2.02162 -4.34359 0
M  V30 1471 H 146.06 1.16169 -2.26665 0
M  V30 1472 H 146.843 -0.035676 -3.43281 0
M  V30 1473 N 149.288 1.51039 0.449983 0
M  V30 1474 C 150.528 1.64732 1.21007 0
M  V30 1475 C 150.892 0.349865 1.88785 0
M  V30 1476 O 152.093 0.362431 2.66345 0
M  V30 1477 C 150.364 2.80902 2.20973 0
M  V30 1478 S 151.923 3.14851 3.05638 0
M  V30 1479 H 148.741 0.5805 0.410538 0
M  V30 1480 H 151.343 1.88901 0.503634 0
M  V30 1481 H 150.047 3.73627 1.69796 0
M  V30 1482 H 149.578 2.58882 2.96215 0
M  V30 1483 H 151.593 2.60306 4.22439 0
M  V30 1484 N 150.766 -0.704594 1.40972 0
M  V30 1485 C 152.043 -1.45847 1.30338 0
M  V30 1486 C 152.423 -2.10973 -0.0732344 0
M  V30 1487 O 151.771 -2.00997 -1.08685 0
M  V30 1488 C 151.981 -2.48525 2.45023 0
M  V30 1489 C 153.329 -3.1404 2.8577 0
M  V30 1490 O 154.353 -2.58848 2.44696 0
M  V30 1491 O 153.212 -4.13981 3.56766 0
M  V30 1492 H 150.306 -0.649092 0.512454 0
M  V30 1493 H 152.852 -0.735836 1.52917 0
M  V30 1494 H 151.624 -1.98994 3.36923 0
M  V30 1495 H 151.247 -3.2831 2.24272 0
M  V30 1496 N 152.244 -1.26651 -0.937939 0
M  V30 1497 C 153.521 -1.0313 -1.66204 0
M  V30 1498 C 153.901 0.437256 -2.06522 0
M  V30 1499 O 153.249 1.41831 -1.79154 0
M  V30 1500 C 153.459 -1.98314 -2.87181 0
M  V30 1501 C 154.807 -2.27107 -3.58758 0
M  V30 1502 O 155.831 -1.96205 -2.97291 0
M  V30 1503 O 154.69 -2.79736 -4.69479 0
M  V30 1504 H 151.784 -0.392384 -0.727986 0
M  V30 1505 H 154.33 -1.37874 -0.989382 0
M  V30 1506 H 153.102 -2.97399 -2.54302 0
M  V30 1507 H 152.725 -1.64068 -3.6217 0
M  V30 1508 N 153.722 1.14298 -1.08507 0
M  V30 1509 C 154.655 2.18447 -0.660004 0
M  V30 1510 C 155.633 1.59242 0.328749 0
M  V30 1511 O 156.817 1.87062 0.232367 0
M  V30 1512 C 153.944 3.38688 0.0290807 0
M  V30 1513 C 152.99 4.1646 -0.919982 0
M  V30 1514 S 153.823 4.77334 -2.42718 0
M  V30 1515 C 154.979 6.00931 -1.75024 0
M  V30 1516 H 155.212 2.54166 -1.54231 0
M  V30 1517 H 152.745 1.25446 -0.900149 0
M  V30 1518 H 154.703 4.08342 0.420378 0
M  V30 1519 H 153.364 3.01289 0.887895 0
M  V30 1520 H 152.557 5.02529 -0.384751 0
M  V30 1521 H 152.159 3.52414 -1.25223 0
M  V30 1522 H 154.451 6.69017 -1.06877 0
M  V30 1523 H 155.394 6.59044 -2.58971 0
M  V30 1524 H 155.802 5.51089 -1.22317 0
M  V30 1525 N 155.201 0.870884 1.31352 0
M  V30 1526 C 156.478 0.402907 1.91405 0
M  V30 1527 C 156.858 -1.11512 1.79244 0
M  V30 1528 O 156.206 -1.94411 1.2007 0
M  V30 1529 C 156.416 0.885301 3.37585 0
M  V30 1530 C 157.764 0.911971 4.14691 0
M  V30 1531 O 158.788 0.831016 3.46371 0
M  V30 1532 O 157.647 1.02927 5.3672 0
M  V30 1533 H 154.741 0.120698 0.818145 0
M  V30 1534 H 157.287 0.958857 1.40014 0
M  V30 1535 H 156.059 1.92889 3.40455 0
M  V30 1536 H 155.682 0.307714 3.96407 0
M  V30 1537 N 156.679 -1.44442 0.630414 0
M  V30 1538 C 157.919 -2.03934 0.137919 0
M  V30 1539 C 158.283 -1.48509 -1.21692 0
M  V30 1540 O 159.484 -1.99499 -1.80149 0
M  V30 1541 C 157.755 -3.57187 0.123373 0
M  V30 1542 S 159.314 -4.37741 -0.304604 0
M  V30 1543 H 156.132 -0.708401 0.0607353 0
M  V30 1544 H 158.734 -1.76835 0.833643 0
M  V30 1545 H 157.438 -3.95032 1.11256 0
M  V30 1546 H 156.969 -3.88895 -0.59362 0
M  V30 1547 H 158.984 -4.71403 -1.54897 0
M  V30 1548 N 158.157 -0.370918 -1.53173 0
M  V30 1549 C 159.087 0.464847 -2.28826 0
M  V30 1550 C 160.068 1.07936 -1.31468 0
M  V30 1551 O 161.253 1.0956 -1.60344 0
M  V30 1552 C 158.383 1.60196 -3.08147 0
M  V30 1553 C 157.337 1.11443 -4.13237 0
M  V30 1554 C 156.663 2.3422 -4.80672 0
M  V30 1555 C 157.963 0.195384 -5.21934 0
M  V30 1556 H 159.657 -0.166329 -2.98938 0
M  V30 1557 H 157.203 -0.0814359 -1.4377 0
M  V30 1558 H 159.156 2.19332 -3.59822 0
M  V30 1559 H 157.88 2.26045 -2.35735 0
M  V30 1560 H 156.539 0.545727 -3.62515 0
M  V30 1561 H 156.187 2.98537 -4.04827 0
M  V30 1562 H 155.887 2.02269 -5.51689 0
M  V30 1563 H 157.411 2.94032 -5.35143 0
M  V30 1564 H 158.825 0.694375 -5.69079 0
M  V30 1565 H 157.222 -0.0335027 -6.00091 0
M  V30 1566 H 158.292 -0.760961 -4.78892 0
M  V30 1567 N 159.635 1.57281 -0.100228 0
M  V30 1568 C 160.86 1.99302 0.573881 0
M  V30 1569 C 161.285 0.979059 1.60611 0
M  V30 1570 O 160.643 -0.0517803 1.81226 0
M  V30 1571 C 160.691 3.40274 1.19358 0
M  V30 1572 O 159.795 3.41676 2.30935 0
M  V30 1573 H 159.136 0.647944 0.145138 0
M  V30 1574 H 161.666 2.03779 -0.183156 0
M  V30 1575 H 161.676 3.78078 1.53365 0
M  V30 1576 H 160.351 4.13594 0.437385 0
M  V30 1577 H 158.928 3.15672 1.98509 0
M  V30 1578 N 161.113 -0.173488 1.56642 0
M  V30 1579 C 162.39 -0.917617 1.7274 0
M  V30 1580 C 162.77 -2.00484 0.661027 0
M  V30 1581 O 162.118 -2.26184 -0.32453 0
M  V30 1582 C 162.328 -1.48433 3.15862 0
M  V30 1583 C 163.676 -1.95809 3.76754 0
M  V30 1584 O 164.7 -1.58231 3.19126 0
M  V30 1585 O 163.559 -2.65024 4.77938 0
M  V30 1586 H 160.653 -0.431772 0.705338 0
M  V30 1587 H 163.199 -0.161487 1.6893 0
M  V30 1588 H 161.971 -0.701715 3.84957 0
M  V30 1589 H 161.594 -2.30471 3.23989 0
M  V30 1590 N 162.591 -1.51276 -0.441967 0
M  V30 1591 C 164.007 -1.39349 -0.778083 0
M  V30 1592 C 164.207 -0.472212 -1.95889 0
M  V30 1593 O 163.263 0.0743551 -2.5239 0
M  V30 1594 C 164.576 -2.81292 -1.0628 0
M  V30 1595 C 166.124 -2.9041 -1.16751 0
M  V30 1596 C 166.599 -4.33251 -1.48519 0
M  V30 1597 N 168.09 -4.36336 -1.55453 0
M  V30 1598 C 168.825 -5.43885 -1.81596 0
M  V30 1599 N 168.321 -6.61601 -2.05562 0
M  V30 1600 N 170.114 -5.3136 -1.8334 0
M  V30 1601 H 162.265 -2.09729 0.335774 0
M  V30 1602 H 164.528 -0.943925 0.0878028 0
M  V30 1603 H 164.234 -3.50678 -0.267905 0
M  V30 1604 H 164.108 -3.20334 -1.99163 0
M  V30 1605 H 166.495 -2.21225 -1.95304 0
M  V30 1606 H 166.576 -2.54871 -0.217801 0
M  V30 1607 H 166.22 -5.02984 -0.704958 0
M  V30 1608 H 166.15 -4.66299 -2.44689 0
M  V30 1609 H 168.641 -3.51466 -1.38853 0
M  V30 1610 H 168.954 -7.39361 -2.24867 0
M  V30 1611 H 167.299 -6.64725 -2.02894 0
M  V30 1612 H 170.49 -4.38382 -1.64132 0
M  V30 1613 H 170.663 -6.15258 -2.03377 0
M  V30 1614 N 164.069 0.697108 -1.41344 0
M  V30 1615 C 165.309 1.46939 -1.42085 0
M  V30 1616 C 165.673 1.9198 -0.0280397 0
M  V30 1617 O 166.874 2.6865 0.0897504 0
M  V30 1618 C 165.145 2.64985 -2.39828 0
M  V30 1619 S 166.704 3.54147 -2.59085 0
M  V30 1620 H 163.522 0.502146 -0.503359 0
M  V30 1621 H 166.124 0.813546 -1.77769 0
M  V30 1622 H 164.828 2.30098 -3.39828 0
M  V30 1623 H 164.359 3.35464 -2.05493 0
M  V30 1624 H 166.374 4.60137 -1.85711 0
M  V30 1625 N 165.547 1.27147 0.931209 0
M  V30 1626 C 166.494 1.09568 2.03134 0
M  V30 1627 C 167.464 -0.00222433 1.661 0
M  V30 1628 O 168.649 0.159439 1.90133 0
M  V30 1629 C 165.789 0.745231 3.36957 0
M  V30 1630 C 164.902 1.92041 3.86968 0
M  V30 1631 C 164.037 1.51216 5.09222 0
M  V30 1632 C 163.076 2.65504 5.5152 0
M  V30 1633 N 162.213 2.25291 6.64972 0
M  V30 1634 H 167.053 2.03708 2.17502 0
M  V30 1635 H 164.59 1.01411 1.06556 0
M  V30 1636 H 166.548 0.522878 4.1391 0
M  V30 1637 H 165.178 -0.159202 3.22407 0
M  V30 1638 H 164.23 2.25541 3.06326 0
M  V30 1639 H 165.542 2.77787 4.1429 0
M  V30 1640 H 164.696 1.25084 5.93666 0
M  V30 1641 H 163.435 0.625749 4.83669 0
M  V30 1642 H 162.44 2.92354 4.65628 0
M  V30 1643 H 163.665 3.54761 5.7907 0
M  V30 1644 H 161.611 1.39098 6.41083 0
M  V30 1645 H 161.528 3.04577 6.91931 0
M  V30 1646 H 162.796 2.02398 7.52765 0
M  V30 1647 N 167.025 -1.13721 1.09112 0
M  V30 1648 C 168.274 -1.84275 0.82009 0
M  V30 1649 C 168.587 -1.84253 -0.656509 0
M  V30 1650 O 169.793 -2.50668 -1.04296 0
M  V30 1651 C 168.249 -3.30825 1.41714 0
M  V30 1652 C 167.857 -3.39244 2.92605 0
M  V30 1653 C 169.601 -4.06443 1.22492 0
M  V30 1654 C 167.508 -4.80047 3.45411 0
M  V30 1655 H 166.438 -0.690387 0.30312 0
M  V30 1656 H 169.089 -1.28146 1.31343 0
M  V30 1657 H 167.471 -3.86737 0.851498 0
M  V30 1658 H 168.645 -2.93344 3.55367 0
M  V30 1659 H 166.96 -2.77088 3.10823 0
M  V30 1660 H 169.557 -5.10387 1.59402 0
M  V30 1661 H 169.9 -4.15972 0.165299 0
M  V30 1662 H 170.433 -3.56852 1.75788 0
M  V30 1663 H 167.172 -4.75709 4.50978 0
M  V30 1664 H 166.692 -5.26455 2.87411 0
M  V30 1665 H 168.371 -5.48957 3.42425 0
M  V30 1666 N 168.503 -0.877838 -1.30888 0
M  V30 1667 C 169.433 -0.35534 -2.3078 0
M  V30 1668 C 170.414 0.557994 -1.60687 0
M  V30 1669 O 171.599 0.473355 -1.88343 0
M  V30 1670 C 168.729 0.437221 -3.44537 0
M  V30 1671 C 167.683 -0.383715 -4.26276 0
M  V30 1672 C 167.009 0.535014 -5.32017 0
M  V30 1673 C 168.309 -1.62201 -4.96476 0
M  V30 1674 H 170.003 -1.19007 -2.74732 0
M  V30 1675 H 167.549 -0.573698 -1.32078 0
M  V30 1676 H 169.502 0.813334 -4.13477 0
M  V30 1677 H 168.226 1.30553 -2.99372 0
M  V30 1678 H 166.885 -0.741874 -3.59015 0
M  V30 1679 H 166.533 1.40083 -4.831 0
M  V30 1680 H 166.233 -0.0104211 -5.87599 0
M  V30 1681 H 167.757 0.907799 -6.03814 0
M  V30 1682 H 169.171 -1.31689 -5.5797 0
M  V30 1683 H 167.568 -2.10711 -5.61891 0
M  V30 1684 H 168.638 -2.37044 -4.23011 0
M  V30 1685 N 169.982 1.44106 -0.638065 0
M  V30 1686 C 170.914 2.28976 0.101205 0
M  V30 1687 C 171.927 1.4167 0.802088 0
M  V30 1688 O 173.116 1.65755 0.662375 0
M  V30 1689 C 170.216 3.18217 1.16581 0
M  V30 1690 C 169.389 4.33978 0.546066 0
M  V30 1691 C 168.448 5.04202 1.50554 0
M  V30 1692 O 167.474 5.59986 1.01999 0
M  V30 1693 N 168.676 5.06296 2.8398 0
M  V30 1694 H 171.441 2.93064 -0.627186 0
M  V30 1695 H 169.002 1.54629 -0.479731 0
M  V30 1696 H 170.994 3.62061 1.80815 0
M  V30 1697 H 169.564 2.55833 1.79634 0
M  V30 1698 H 168.784 3.93239 -0.275046 0
M  V30 1699 H 170.072 5.08675 0.112793 0
M  V30 1700 H 169.47 4.62319 3.26002 0
M  V30 1701 H 168.027 5.53907 3.43556 0
M  V30 1702 N 171.46 0.379036 1.52974 0
M  V30 1703 C 172.706 -0.206727 2.01744 0
M  V30 1704 C 173.039 -1.47314 1.26539 0
M  V30 1705 O 172.314 -1.91084 0.362903 0
M  V30 1706 C 172.597 -0.485066 3.56818 0
M  V30 1707 C 172.45 0.795919 4.42702 0
M  V30 1708 C 173.769 -1.28003 4.21074 0
M  V30 1709 H 170.888 -0.0736607 0.73331 0
M  V30 1710 H 173.53 0.506581 1.83122 0
M  V30 1711 H 171.68 -1.09272 3.72816 0
M  V30 1712 H 173.352 1.43307 4.38476 0
M  V30 1713 H 171.595 1.41344 4.10127 0
M  V30 1714 H 172.266 0.555947 5.49193 0
M  V30 1715 H 174.742 -0.765867 4.08991 0
M  V30 1716 H 173.618 -1.44352 5.29579 0
M  V30 1717 H 173.879 -2.29236 3.78026 0
M  V30 1718 N 172.938 -1.57226 0.108567 0
M  V30 1719 C 174.185 -1.94833 -0.551943 0
M  V30 1720 C 174.513 -0.991204 -1.67348 0
M  V30 1721 O 173.768 -0.0131878 -1.95696 0
M  V30 1722 C 174.067 -3.38911 -1.13463 0
M  V30 1723 C 173.733 -4.50696 -0.135509 0
M  V30 1724 C 172.395 -4.80998 0.139252 0
M  V30 1725 C 174.747 -5.18333 0.545957 0
M  V30 1726 C 172.075 -5.76259 1.10194 0
M  V30 1727 C 174.427 -6.14627 1.49721 0
M  V30 1728 C 173.091 -6.43327 1.78006 0
M  V30 1729 H 172.361 -0.712944 -0.20197 0
M  V30 1730 H 175.008 -1.90582 0.18726 0
M  V30 1731 H 173.313 -3.39805 -1.95037 0
M  V30 1732 H 175.01 -3.65317 -1.65362 0
M  V30 1733 H 171.6 -4.27087 -0.359846 0
M  V30 1734 H 175.784 -4.95087 0.346842 0
M  V30 1735 H 171.04 -5.96804 1.32795 0
M  V30 1736 H 175.214 -6.66126 2.03099 0
M  V30 1737 H 172.841 -7.1695 2.52759 0
M  V30 1738 N 174.416 0.165178 -1.56732 0
M  V30 1739 C 175.693 0.908443 -1.73224 0
M  V30 1740 C 176.073 2.0013 -0.67165 0
M  V30 1741 O 175.421 2.26353 0.31253 0
M  V30 1742 C 175.631 1.46756 -3.16644 0
M  V30 1743 C 176.979 1.93809 -3.77787 0
M  V30 1744 O 178.003 1.56537 -3.1996 0
M  V30 1745 O 176.862 2.62486 -4.79336 0
M  V30 1746 H 173.956 0.428025 -0.707618 0
M  V30 1747 H 176.502 0.152526 -1.69013 0
M  V30 1748 H 175.274 0.68129 -3.85323 0
M  V30 1749 H 174.897 2.28749 -3.25207 0
M  V30 1750 N 175.894 1.51508 0.433938 0
M  V30 1751 C 177.171 1.54888 1.19453 0
M  V30 1752 C 177.551 0.315154 2.08734 0
M  V30 1753 O 176.899 -0.699558 2.17528 0
M  V30 1754 C 177.109 2.86467 1.99342 0
M  V30 1755 C 178.457 3.38545 2.56267 0
M  V30 1756 O 179.481 2.88041 2.0955 0
M  V30 1757 O 178.34 4.26675 3.41483 0
M  V30 1758 H 175.434 0.622863 0.544032 0
M  V30 1759 H 177.98 1.63823 0.442732 0
M  V30 1760 H 176.752 3.67718 1.33788 0
M  V30 1761 H 176.375 2.8071 2.8158 0
M  V30 1762 N 177.372 -0.689602 1.41712 0
M  V30 1763 C 178.619 -1.44966 1.4139 0
M  V30 1764 C 178.947 -1.94484 0.025105 0
M  V30 1765 O 178.202 -1.70307 -0.964048 0
M  V30 1766 C 178.501 -2.67298 2.37247 0
M  V30 1767 C 178.167 -2.36405 3.83958 0
M  V30 1768 C 176.829 -2.27691 4.23923 0
M  V30 1769 C 179.181 -2.11043 4.76561 0
M  V30 1770 C 176.509 -1.91719 5.54492 0
M  V30 1771 C 178.861 -1.76578 6.07456 0
M  V30 1772 C 177.525 -1.66363 6.46436 0
M  V30 1773 H 176.795 -0.53047 0.517381 0
M  V30 1774 H 179.442 -0.787655 1.74552 0
M  V30 1775 H 177.747 -3.38461 1.9736 0
M  V30 1776 H 179.444 -3.25452 2.34269 0
M  V30 1777 H 176.034 -2.44085 3.52308 0
M  V30 1778 H 180.218 -2.16717 4.46483 0
M  V30 1779 H 175.474 -1.82367 5.83568 0
M  V30 1780 H 179.648 -1.55974 6.78708 0
M  V30 1781 H 177.275 -1.38258 7.47522 0
M  V30 1782 N 178.85 -1.27639 -0.924453 0
M  V30 1783 C 180.099 -1.13549 -1.66702 0
M  V30 1784 C 180.412 0.317487 -1.93006 0
M  V30 1785 O 181.618 0.579333 -2.65247 0
M  V30 1786 C 180.074 -1.98426 -3.00259 0
M  V30 1787 C 179.682 -3.484 -2.81641 0
M  V30 1788 C 181.426 -1.92993 -3.78092 0
M  V30 1789 C 179.333 -4.25464 -4.10773 0
M  V30 1790 H 178.263 -0.421351 -0.625283 0
M  V30 1791 H 180.914 -1.52085 -1.02676 0
M  V30 1792 H 179.296 -1.52736 -3.6536 0
M  V30 1793 H 180.47 -4.01973 -2.25287 0
M  V30 1794 H 178.785 -3.55245 -2.17232 0
M  V30 1795 H 181.382 -2.47844 -4.7379 0
M  V30 1796 H 181.725 -0.904281 -4.0636 0
M  V30 1797 H 182.258 -2.36595 -3.19793 0
M  V30 1798 H 178.997 -5.28566 -3.87683 0
M  V30 1799 H 178.517 -3.76667 -4.66779 0
M  V30 1800 H 180.196 -4.34812 -4.79111 0
M  V30 1801 N 180.328 1.1314 -1.09713 0
M  V30 1802 C 181.575 1.84484 -0.834987 0
M  V30 1803 C 181.903 1.83689 0.639418 0
M  V30 1804 O 181.158 1.2724 1.4869 0
M  V30 1805 C 181.457 3.32167 -1.3191 0
M  V30 1806 C 181.123 3.53139 -2.80363 0
M  V30 1807 C 179.785 3.58571 -3.20905 0
M  V30 1808 C 182.137 3.60866 -3.76065 0
M  V30 1809 C 179.465 3.69267 -4.55916 0
M  V30 1810 C 181.817 3.73089 -5.10869 0
M  V30 1811 C 180.481 3.76775 -5.50996 0
M  V30 1812 H 179.751 0.675073 -0.305544 0
M  V30 1813 H 182.398 1.33554 -1.37243 0
M  V30 1814 H 180.703 3.85469 -0.701517 0
M  V30 1815 H 182.4 3.85821 -1.09284 0
M  V30 1816 H 178.99 3.49569 -2.47991 0
M  V30 1817 H 183.174 3.55946 -3.45855 0
M  V30 1818 H 178.43 3.70388 -4.86438 0
M  V30 1819 H 182.604 3.78011 -5.84877 0
M  V30 1820 H 180.231 3.84815 -6.55608 0
M  V30 1821 N 181.806 0.884767 1.30421 0
M  V30 1822 C 183.055 0.499164 1.95426 0
M  V30 1823 C 183.368 -0.95645 1.70621 0
M  V30 1824 O 184.574 -1.44889 2.29607 0
M  V30 1825 C 183.03 0.84177 3.49917 0
M  V30 1826 C 182.638 2.31514 3.83543 0
M  V30 1827 C 184.382 0.525355 4.21237 0
M  V30 1828 C 182.289 2.59939 5.31212 0
M  V30 1829 H 181.219 0.182944 0.73147 0
M  V30 1830 H 183.87 1.07971 1.48373 0
M  V30 1831 H 182.252 0.190311 3.95542 0
M  V30 1832 H 183.426 3.0109 3.48829 0
M  V30 1833 H 181.741 2.59907 3.25326 0
M  V30 1834 H 184.338 0.714762 5.29901 0
M  V30 1835 H 184.681 -0.535222 4.12845 0
M  V30 1836 H 185.214 1.134 3.81294 0
M  V30 1837 H 181.953 3.64736 5.44654 0
M  V30 1838 H 181.473 1.94972 5.67227 0
M  V30 1839 H 183.152 2.45429 5.98643 0
M  V30 1840 N 183.284 -1.43765 0.645699 0
M  V30 1841 C 184.531 -2.01898 0.15604 0
M  V30 1842 C 184.859 -1.50887 -1.22733 0
M  V30 1843 O 184.114 -0.689271 -1.8316 0
M  V30 1844 C 184.413 -3.57238 0.107679 0
M  V30 1845 C 184.079 -4.27564 1.43178 0
M  V30 1846 C 182.741 -4.46492 1.7944 0
M  V30 1847 C 185.093 -4.67454 2.30513 0
M  V30 1848 C 182.421 -5.02573 3.02716 0
M  V30 1849 C 184.773 -5.24901 3.53074 0
M  V30 1850 C 183.437 -5.42046 3.89541 0
M  V30 1851 H 182.707 -0.738797 0.057099 0
M  V30 1852 H 185.354 -1.72341 0.834912 0
M  V30 1853 H 183.659 -3.86293 -0.654618 0
M  V30 1854 H 185.356 -3.99965 -0.287938 0
M  V30 1855 H 181.946 -4.13171 1.13963 0
M  V30 1856 H 186.13 -4.5253 2.0379 0
M  V30 1857 H 181.386 -5.14033 3.31028 0
M  V30 1858 H 185.56 -5.54758 4.20971 0
M  V30 1859 H 183.187 -5.85268 4.85145 0
M  V30 1860 N 184.763 -0.387143 -1.52771 0
M  V30 1861 C 186.01 0.195735 -2.01552 0
M  V30 1862 C 186.338 1.46995 -1.27369 0
M  V30 1863 O 185.593 1.92325 -0.361879 0
M  V30 1864 C 185.892 0.512209 -3.53711 0
M  V30 1865 C 185.558 -0.670202 -4.45891 0
M  V30 1866 C 184.22 -0.994586 -4.70809 0
M  V30 1867 C 186.572 -1.46134 -5.00294 0
M  V30 1868 C 183.9 -2.11169 -5.4738 0
M  V30 1869 C 186.252 -2.56903 -5.78086 0
M  V30 1870 C 184.916 -2.89852 -6.01284 0
M  V30 1871 H 184.186 0.0716246 -0.73753 0
M  V30 1872 H 186.833 -0.524046 -1.8419 0
M  V30 1873 H 185.138 1.31329 -3.69134 0
M  V30 1874 H 186.835 0.975804 -3.88946 0
M  V30 1875 H 183.425 -0.407366 -4.2666 0
M  V30 1876 H 187.609 -1.22397 -4.80971 0
M  V30 1877 H 182.865 -2.3707 -5.63567 0
M  V30 1878 H 187.039 -3.18608 -6.19243 0
M  V30 1879 H 184.666 -3.76533 -6.60399 0
M  V30 1880 N 186.241 1.57166 -0.116904 0
M  V30 1881 C 187.204 2.14039 0.819742 0
M  V30 1882 C 188.204 1.07477 1.19605 0
M  V30 1883 O 189.394 1.33263 1.1219 0
M  V30 1884 C 186.526 2.67891 2.10826 0
M  V30 1885 H 187.719 2.98128 0.325511 0
M  V30 1886 H 185.272 1.55739 0.132312 0
M  V30 1887 H 186.007 1.87384 2.64685 0
M  V30 1888 H 185.792 3.45823 1.84793 0
M  V30 1889 H 187.282 3.11809 2.77785 0
M  V30 1890 N 187.719 -0.156864 1.56817 0
M  V30 1891 C 188.652 -1.22316 1.9265 0
M  V30 1892 C 189.63 -1.42059 0.791076 0
M  V30 1893 O 190.814 -1.56831 1.04576 0
M  V30 1894 C 187.941 -2.58375 2.18998 0
M  V30 1895 C 186.987 -2.55284 3.41661 0
M  V30 1896 S 187.82 -2.02946 4.95553 0
M  V30 1897 C 188.976 -3.40753 5.25013 0
M  V30 1898 H 189.209 -0.917403 2.82791 0
M  V30 1899 H 186.742 -0.362059 1.50095 0
M  V30 1900 H 188.7 -3.36677 2.34859 0
M  V30 1901 H 187.361 -2.86145 1.29538 0
M  V30 1902 H 186.554 -3.55418 3.57343 0
M  V30 1903 H 186.156 -1.85086 3.24991 0
M  V30 1904 H 188.448 -4.36819 5.17876 0
M  V30 1905 H 189.391 -3.29933 6.26538 0
M  V30 1906 H 189.799 -3.37433 4.52548 0
M  V30 1907 N 189.197 -1.51736 -0.425897 0
M  V30 1908 C 190.107 -1.76738 -1.54275 0
M  V30 1909 C 191.123 -0.65211 -1.61318 0
M  V30 1910 O 192.299 -0.935654 -1.78346 0
M  V30 1911 C 189.364 -1.89755 -2.90162 0
M  V30 1912 C 188.425 -3.13633 -2.93143 0
M  V30 1913 C 187.658 -3.2602 -4.22548 0
M  V30 1914 O 187.881 -2.44067 -5.15546 0
M  V30 1915 O 186.815 -4.19071 -4.32046 0
M  V30 1916 H 190.641 -2.71502 -1.36089 0
M  V30 1917 H 188.226 -1.36376 -0.610069 0
M  V30 1918 H 190.108 -2.00236 -3.70788 0
M  V30 1919 H 188.783 -0.981785 -3.08452 0
M  V30 1920 H 187.69 -3.08622 -2.11431 0
M  V30 1921 H 189.023 -4.04936 -2.798 0
M  V30 1922 N 190.675 0.682077 -1.42076 0
M  V30 1923 C 191.608 1.80666 -1.3941 0
M  V30 1924 C 192.586 1.60518 -0.25939 0
M  V30 1925 O 193.77 1.83088 -0.448456 0
M  V30 1926 C 190.897 3.17556 -1.17796 0
M  V30 1927 C 189.943 3.56468 -2.34164 0
M  V30 1928 S 190.776 3.59729 -3.96681 0
M  V30 1929 C 191.932 4.99323 -3.77395 0
M  V30 1930 H 192.165 1.82652 -2.34575 0
M  V30 1931 H 189.698 0.852062 -1.2876 0
M  V30 1932 H 191.656 3.96575 -1.06012 0
M  V30 1933 H 190.317 3.13164 -0.242279 0
M  V30 1934 H 189.51 4.5595 -2.1477 0
M  V30 1935 H 189.112 2.84792 -2.42425 0
M  V30 1936 H 191.404 5.87202 -3.37935 0
M  V30 1937 H 192.347 5.23763 -4.76527 0
M  V30 1938 H 192.755 4.71498 -3.10403 0
M  V30 1939 N 192.153 1.28127 0.917671 0
M  V30 1940 C 193.399 1.15223 1.66888 0
M  V30 1941 C 193.732 -0.299293 1.9188 0
M  V30 1942 O 193.007 -1.21805 1.51637 0
M  V30 1943 C 193.29 1.94706 3.02922 0
M  V30 1944 C 193.143 3.47898 2.85109 0
M  V30 1945 C 194.462 1.75939 4.03402 0
M  V30 1946 H 191.581 0.419946 0.605652 0
M  V30 1947 H 194.223 1.57398 1.06423 0
M  V30 1948 H 192.373 1.58864 3.54534 0
M  V30 1949 H 194.045 3.93624 2.40537 0
M  V30 1950 H 192.288 3.7373 2.20246 0
M  V30 1951 H 192.959 3.98765 3.81694 0
M  V30 1952 H 195.435 2.07209 3.60837 0
M  V30 1953 H 194.311 2.33931 4.96556 0
M  V30 1954 H 194.572 0.709877 4.36364 0
M  V30 1955 N 193.631 -1.12557 1.10312 0
M  V30 1956 C 194.561 -2.20341 0.772798 0
M  V30 1957 C 195.542 -1.68198 -0.25365 0
M  V30 1958 O 196.727 -1.93831 -0.119699 0
M  V30 1959 C 193.857 -3.46709 0.202443 0
M  V30 1960 C 192.811 -4.11996 1.15943 0
M  V30 1961 C 192.137 -5.328 0.450345 0
M  V30 1962 C 193.437 -4.5828 2.50552 0
M  V30 1963 H 195.131 -2.48229 1.674 0
M  V30 1964 H 192.677 -1.19308 0.806326 0
M  V30 1965 H 194.63 -4.2138 -0.0407752 0
M  V30 1966 H 193.354 -3.18245 -0.734001 0
M  V30 1967 H 192.013 -3.39305 1.38808 0
M  V30 1968 H 191.661 -5.00602 -0.490531 0
M  V30 1969 H 191.361 -5.7743 1.08851 0
M  V30 1970 H 192.885 -6.10219 0.215642 0
M  V30 1971 H 194.299 -5.2433 2.31843 0
M  V30 1972 H 192.696 -5.13683 3.10242 0
M  V30 1973 H 193.766 -3.72329 3.10643 0
M  V30 1974 N 195.109 -0.891671 -1.2995 0
M  V30 1975 C 196.056 -0.361736 -2.27948 0
M  V30 1976 C 197.026 0.551761 -1.56668 0
M  V30 1977 O 198.211 0.478736 -1.84696 0
M  V30 1978 C 195.351 0.411825 -3.42634 0
M  V30 1979 C 194.464 -0.531651 -4.28716 0
M  V30 1980 C 193.599 0.258167 -5.30572 0
M  V30 1981 C 192.638 -0.680349 -6.08307 0
M  V30 1982 N 191.775 0.0745613 -7.0206 0
M  V30 1983 H 196.615 -1.20254 -2.72659 0
M  V30 1984 H 194.152 -0.604352 -1.34112 0
M  V30 1985 H 196.11 0.876304 -4.07893 0
M  V30 1986 H 194.74 1.21715 -2.98974 0
M  V30 1987 H 193.792 -1.11463 -3.63703 0
M  V30 1988 H 195.104 -1.25038 -4.82874 0
M  V30 1989 H 194.258 0.784204 -6.0161 0
M  V30 1990 H 192.997 1.01008 -4.77126 0
M  V30 1991 H 192.002 -1.21796 -5.3614 0
M  V30 1992 H 193.227 -1.43145 -6.63842 0
M  V30 1993 H 191.173 0.808883 -6.50994 0
M  V30 1994 H 191.09 -0.584409 -7.53738 0
M  V30 1995 H 192.358 0.581123 -7.77331 0
M  V30 1996 N 196.587 1.43421 -0.653314 0
M  V30 1997 C 197.52 2.2803 0.0879804 0
M  V30 1998 C 198.498 1.39833 0.82979 0
M  V30 1999 O 199.682 1.69275 0.829341 0
M  V30 2000 C 196.809 3.19247 1.13132 0
M  V30 2001 C 195.855 4.23704 0.487546 0
M  V30 2002 S 196.688 5.30377 -0.738961 0
M  V30 2003 C 197.844 6.25162 0.30384 0
M  V30 2004 H 198.077 2.90554 -0.629739 0
M  V30 2005 H 195.61 1.47934 -0.442156 0
M  V30 2006 H 197.568 3.72346 1.72827 0
M  V30 2007 H 196.229 2.55901 1.82136 0
M  V30 2008 H 195.422 4.87631 1.27407 0
M  V30 2009 H 195.024 3.73983 -0.0352915 0
M  V30 2010 H 197.316 6.67321 1.17 0
M  V30 2011 H 198.259 7.07463 -0.300402 0
M  V30 2012 H 198.667 5.60864 0.63969 0
M  V30 2013 N 198.065 0.39524 1.52563 0
M  V30 2014 C 199.311 -0.185318 2.01952 0
M  V30 2015 C 199.644 -1.45964 1.28095 0
M  V30 2016 O 198.919 -1.90689 0.38315 0
M  V30 2017 C 199.202 -0.447193 3.57312 0
M  V30 2018 C 199.055 0.842828 4.41833 0
M  V30 2019 C 200.374 -1.23529 4.22408 0
M  V30 2020 H 197.493 -0.0658788 0.73405 0
M  V30 2021 H 200.135 0.525975 1.82575 0
M  V30 2022 H 198.285 -1.05312 3.73954 0
M  V30 2023 H 199.957 1.4795 4.36931 0
M  V30 2024 H 198.2 1.45686 4.08605 0
M  V30 2025 H 198.871 0.614165 5.48573 0
M  V30 2026 H 201.347 -0.722445 4.0978 0
M  V30 2027 H 200.223 -1.38727 5.3108 0
M  V30 2028 H 200.484 -2.25213 3.80436 0
M  V30 2029 N 199.544 -1.57102 0.125237 0
M  V30 2030 C 200.507 -2.14471 -0.80838 0
M  V30 2031 C 201.507 -1.0811 -1.19033 0
M  V30 2032 O 202.697 -1.33856 -1.11482 0
M  V30 2033 C 199.829 -2.69005 -2.09402 0
M  V30 2034 H 201.022 -2.98297 -0.309696 0
M  V30 2035 H 198.575 -1.55807 -0.124051 0
M  V30 2036 H 199.31 -1.88785 -2.63687 0
M  V30 2037 H 199.095 -3.46799 -1.82957 0
M  V30 2038 H 200.585 -3.13278 -2.76128 0
M  V30 2039 N 201.022 0.148545 -1.56898 0
M  V30 2040 C 201.952 1.18524 -2.01182 0
M  V30 2041 C 202.933 1.4489 -0.891123 0
M  V30 2042 O 204.118 1.55836 -1.15882 0
M  V30 2043 C 201.248 2.51879 -2.39112 0
M  V30 2044 C 200.202 2.40038 -3.54353 0
M  V30 2045 C 199.528 3.78089 -3.78091 0
M  V30 2046 C 200.828 1.88577 -4.87069 0
M  V30 2047 H 202.522 0.817029 -2.88036 0
M  V30 2048 H 200.068 0.391575 -1.38574 0
M  V30 2049 H 202.021 3.24627 -2.68692 0
M  V30 2050 H 200.745 2.90532 -1.49193 0
M  V30 2051 H 199.404 1.69742 -3.24936 0
M  V30 2052 H 199.052 4.14175 -2.85426 0
M  V30 2053 H 198.752 3.71028 -4.55645 0
M  V30 2054 H 200.276 4.52387 -4.10095 0
M  V30 2055 H 201.69 2.51117 -5.15377 0
M  V30 2056 H 200.087 1.9241 -5.68417 0
M  V30 2057 H 201.157 0.84136 -4.77545 0
M  V30 2058 N 202.5 1.5196 0.417844 0
M  V30 2059 C 203.748 1.65263 1.16329 0
M  V30 2060 C 204.069 0.380634 1.91249 0
M  V30 2061 O 203.339 -0.604214 1.86349 0
M  V30 2062 H 201.919 0.60912 0.432414 0
M  V30 2063 H 204.581 1.88969 0.477162 0
M  V30 2064 H 203.677 2.4896 1.88217 0
M  V30 2065 N 203.978 -0.674533 1.42435 0
M  V30 2066 C 205.227 -1.43034 1.42212 0
M  V30 2067 C 205.54 -1.95555 0.0420788 0
M  V30 2068 O 206.746 -2.71374 -0.0827558 0
M  V30 2069 C 205.202 -2.58748 2.50155 0
M  V30 2070 C 204.81 -2.12925 3.94166 0
M  V30 2071 C 206.554 -3.36257 2.59098 0
M  V30 2072 C 204.461 -3.25723 4.93618 0
M  V30 2073 H 203.391 -0.537345 0.528939 0
M  V30 2074 H 206.042 -0.73024 1.68344 0
M  V30 2075 H 204.424 -3.31128 2.17188 0
M  V30 2076 H 205.598 -1.47697 4.36488 0
M  V30 2077 H 203.913 -1.48354 3.89076 0
M  V30 2078 H 206.51 -4.20264 3.30578 0
M  V30 2079 H 206.853 -3.82866 1.63461 0
M  V30 2080 H 207.386 -2.70947 2.9126 0
M  V30 2081 H 204.125 -2.84105 5.90732 0
M  V30 2082 H 203.645 -3.89732 4.55926 0
M  V30 2083 H 205.324 -3.91186 5.15347 0
M  V30 2084 N 205.456 -1.28612 -0.910864 0
M  V30 2085 C 206.703 -1.15934 -1.66029 0
M  V30 2086 C 207.031 0.291483 -1.92303 0
M  V30 2087 O 206.286 1.22816 -1.52364 0
M  V30 2088 C 206.585 -1.90624 -3.0232 0
M  V30 2089 C 206.251 -3.40405 -2.95695 0
M  V30 2090 C 204.913 -3.81255 -2.93595 0
M  V30 2091 C 207.265 -4.359 -2.85728 0
M  V30 2092 C 204.593 -5.15936 -2.79334 0
M  V30 2093 C 206.945 -5.70657 -2.73007 0
M  V30 2094 C 205.609 -6.10779 -2.69267 0
M  V30 2095 H 204.879 -0.424234 -0.607541 0
M  V30 2096 H 207.526 -1.5942 -1.06101 0
M  V30 2097 H 205.831 -1.39696 -3.6605 0
M  V30 2098 H 207.528 -1.78228 -3.59215 0
M  V30 2099 H 204.118 -3.07927 -2.98125 0
M  V30 2100 H 208.302 -4.053 -2.86436 0
M  V30 2101 H 203.558 -5.46146 -2.74835 0
M  V30 2102 H 207.732 -6.44311 -2.64264 0
M  V30 2103 H 205.359 -7.1509 -2.57974 0
M  V30 2104 N 206.934 1.1197 -1.10907 0
M  V30 2105 C 208.182 1.83225 -0.852819 0
M  V30 2106 C 208.503 1.84769 0.623341 0
M  V30 2107 O 207.773 1.3143 1.45269 0
M  V30 2108 H 206.353 0.67849 -0.312507 0
M  V30 2109 H 209.015 1.3556 -1.40033 0
M  V30 2110 H 208.111 2.87265 -1.22005 0
M  V30 2111 N 208.412 0.89855 1.29475 0
M  V30 2112 C 209.359 0.373819 2.27753 0
M  V30 2113 C 210.329 -0.543444 1.56958 0
M  V30 2114 O 211.514 -0.468934 1.84948 0
M  V30 2115 C 208.654 -0.393648 3.42848 0
M  V30 2116 C 207.767 0.554379 4.28428 0
M  V30 2117 C 206.902 -0.230026 5.30702 0
M  V30 2118 C 205.941 0.712599 6.07938 0
M  V30 2119 N 205.078 -0.0373283 7.0209 0
M  V30 2120 H 209.918 1.21699 2.72017 0
M  V30 2121 H 207.455 0.611456 1.33789 0
M  V30 2122 H 209.413 -0.85466 4.08352 0
M  V30 2123 H 208.043 -1.20128 2.99615 0
M  V30 2124 H 207.095 1.13391 3.63107 0
M  V30 2125 H 208.407 1.27597 4.82204 0
M  V30 2126 H 207.561 -0.752288 6.02018 0
M  V30 2127 H 206.3 -0.984758 4.77654 0
M  V30 2128 H 205.305 1.24637 5.35486 0
M  V30 2129 H 206.53 1.46664 6.63074 0
M  V30 2130 H 204.476 -0.774348 6.51414 0
M  V30 2131 H 204.393 0.624374 7.53417 0
M  V30 2132 H 205.661 -0.539891 7.77628 0
M  V30 2133 N 209.89 -1.43072 0.660911 0
M  V30 2134 C 210.837 -2.30785 -0.0259884 0
M  V30 2135 C 211.807 -1.45184 -0.806888 0
M  V30 2136 O 212.992 -1.74041 -0.781943 0
M  V30 2137 C 210.132 -3.30861 -0.981067 0
M  V30 2138 C 209.245 -4.31558 -0.195458 0
M  V30 2139 C 208.38 -5.18712 -1.14503 0
M  V30 2140 C 207.419 -6.11097 -0.350299 0
M  V30 2141 N 206.556 -6.90849 -1.25186 0
M  V30 2142 H 211.396 -2.88975 0.727846 0
M  V30 2143 H 208.933 -1.42353 0.370682 0
M  V30 2144 H 210.891 -3.87399 -1.54849 0
M  V30 2145 H 209.521 -2.74304 -1.70169 0
M  V30 2146 H 208.573 -3.77252 0.488374 0
M  V30 2147 H 209.885 -4.9701 0.422176 0
M  V30 2148 H 209.039 -5.79914 -1.78284 0
M  V30 2149 H 207.778 -4.53404 -1.79656 0
M  V30 2150 H 206.783 -5.48976 0.300808 0
M  V30 2151 H 208.008 -6.7845 0.296941 0
M  V30 2152 H 205.954 -6.28182 -1.89005 0
M  V30 2153 H 205.871 -7.52854 -0.688971 0
M  V30 2154 H 207.139 -7.5655 -1.87757 0
M  V30 2155 N 211.368 -0.403325 -1.52352 0
M  V30 2156 C 212.608 0.173946 -2.03659 0
M  V30 2157 C 212.972 1.42869 -1.28267 0
M  V30 2158 O 214.173 2.08403 -1.69769 0
M  V30 2159 C 212.444 0.421478 -3.54906 0
M  V30 2160 S 214.003 0.967027 -4.28012 0
M  V30 2161 H 210.821 0.0477461 -0.709395 0
M  V30 2162 H 213.423 -0.554906 -1.87459 0
M  V30 2163 H 212.127 -0.498616 -4.0736 0
M  V30 2164 H 211.658 1.17837 -3.75337 0
M  V30 2165 H 213.673 2.24812 -4.4235 0
M  V30 2166 N 212.846 1.57033 -0.133567 0
M  V30 2167 C 214.076 1.99754 0.527429 0
M  V30 2168 C 214.484 1.01245 1.59832 0
M  V30 2169 O 213.827 -0.000645496 1.837 0
M  V30 2170 C 213.889 3.38903 1.19939 0
M  V30 2171 C 213.553 4.56174 0.274709 0
M  V30 2172 C 214.55 5.17563 -0.492398 0
M  V30 2173 C 212.235 5.01972 0.18153 0
M  V30 2174 C 214.229 6.2315 -1.34027 0
M  V30 2175 C 211.916 6.07416 -0.669958 0
M  V30 2176 C 212.914 6.67874 -1.42947 0
M  V30 2177 O 212.602 7.71279 -2.2668 0
M  V30 2178 H 212.334 0.660702 0.142999 0
M  V30 2179 H 214.888 2.04207 -0.221099 0
M  V30 2180 H 213.118 3.31248 1.99528 0
M  V30 2181 H 214.807 3.65818 1.75875 0
M  V30 2182 H 215.573 4.83087 -0.430367 0
M  V30 2183 H 211.452 4.54652 0.762422 0
M  V30 2184 H 214.996 6.70268 -1.93357 0
M  V30 2185 H 210.893 6.41321 -0.73333 0
M  V30 2186 H 211.661 7.88441 -2.1978 0
M  V30 2187 N 214.325 -0.140222 1.56975 0
M  V30 2188 C 215.255 -1.17456 2.01808 0
M  V30 2189 C 216.236 -1.44415 0.898794 0
M  V30 2190 O 217.421 -1.5522 1.16707 0
M  V30 2191 C 214.551 -2.50607 2.40444 0
M  V30 2192 C 213.505 -2.38155 3.55621 0
M  V30 2193 C 212.831 -3.76078 3.80091 0
M  V30 2194 C 214.131 -1.85991 4.88062 0
M  V30 2195 H 215.825 -0.801743 2.88466 0
M  V30 2196 H 213.371 -0.38422 1.38779 0
M  V30 2197 H 215.324 -3.23197 2.7041 0
M  V30 2198 H 214.048 -2.89737 1.50732 0
M  V30 2199 H 212.707 -1.68016 3.25832 0
M  V30 2200 H 212.355 -4.12656 2.87618 0
M  V30 2201 H 212.055 -3.68606 4.57606 0
M  V30 2202 H 213.579 -4.50206 4.12488 0
M  V30 2203 H 214.993 -2.4838 5.16701 0
M  V30 2204 H 213.39 -1.89393 5.6943 0
M  V30 2205 H 214.46 -0.816023 4.77984 0
M  V30 2206 N 215.803 -1.52179 -0.40978 0
M  V30 2207 C 217.051 -1.65878 -1.15451 0
M  V30 2208 C 217.372 -0.390771 -1.91044 0
M  V30 2209 O 216.642 0.594323 -1.86667 0
M  V30 2210 H 215.222 -0.611405 -0.429177 0
M  V30 2211 H 217.884 -1.89219 -0.467134 0
M  V30 2212 H 216.98 -2.49954 -1.86894 0
M  V30 2213 N 217.281 0.66697 -1.42791 0
M  V30 2214 C 218.558 1.4234 -1.34159 0
M  V30 2215 C 218.938 2.11093 0.0172729 0
M  V30 2216 O 218.286 2.03808 1.03318 0
M  V30 2217 C 218.496 2.41942 -2.51526 0
M  V30 2218 C 219.844 3.06353 -2.93995 0
M  V30 2219 O 220.868 2.52269 -2.51473 0
M  V30 2220 O 219.727 4.04376 -3.67617 0
M  V30 2221 H 216.821 0.635277 -0.529483 0
M  V30 2222 H 219.367 0.695034 -1.54814 0
M  V30 2223 H 218.139 1.89991 -3.42081 0
M  V30 2224 H 217.762 3.22249 -2.32898 0
M  V30 2225 N 218.759 1.29093 0.90403 0
M  V30 2226 C 219.987 1.19689 1.68766 0
M  V30 2227 C 220.402 -0.243113 1.87228 0
M  V30 2228 O 219.759 -1.16326 1.40621 0
M  V30 2229 C 219.81 1.90144 3.07453 0
M  V30 2230 O 219.531 3.2852 2.89838 0
M  V30 2231 C 221.032 1.87162 4.01852 0
M  V30 2232 H 218.252 0.415035 0.527244 0
M  V30 2233 H 220.796 1.7039 1.13082 0
M  V30 2234 H 218.951 1.43289 3.59926 0
M  V30 2235 H 219.365 3.63944 3.77684 0
M  V30 2236 H 220.839 2.41032 4.96596 0
M  V30 2237 H 221.316 0.84617 4.30972 0
M  V30 2238 H 221.922 2.33741 3.5531 0
M  V30 2239 N 220.237 -1.11381 1.11499 0
M  V30 2240 C 221.483 -1.83597 0.875423 0
M  V30 2241 C 221.838 -1.83048 -0.592555 0
M  V30 2242 O 221.131 -1.27304 -1.43193 0
M  V30 2243 C 221.325 -3.30026 1.37177 0
M  V30 2244 C 221.154 -3.44837 2.88647 0
M  V30 2245 C 219.924 -3.57825 3.56776 0
M  V30 2246 C 222.122 -3.3907 3.86699 0
M  V30 2247 N 220.104 -3.61113 4.96458 0
M  V30 2248 C 221.475 -3.48986 5.12454 0
M  V30 2249 C 223.53 -3.22605 3.7925 0
M  V30 2250 C 222.233 -3.44135 6.31636 0
M  V30 2251 C 224.259 -3.19072 4.97943 0
M  V30 2252 C 223.621 -3.29559 6.22551 0
M  V30 2253 H 219.72 -0.687044 0.37349 0
M  V30 2254 H 222.304 -1.33265 1.41946 0
M  V30 2255 H 220.475 -3.78874 0.854919 0
M  V30 2256 H 222.207 -3.90153 1.07529 0
M  V30 2257 H 218.962 -3.60414 3.07244 0
M  V30 2258 H 219.386 -3.66394 5.69284 0
M  V30 2259 H 224.028 -3.13382 2.83816 0
M  V30 2260 H 221.746 -3.52126 7.27347 0
M  V30 2261 H 225.332 -3.07498 4.93899 0
M  V30 2262 H 224.212 -3.26815 7.12855 0
M  V30 2263 N 221.715 -0.905404 -1.28997 0
M  V30 2264 C 222.663 -0.377431 -2.29517 0
M  V30 2265 C 223.657 0.526461 -1.61012 0
M  V30 2266 O 224.863 0.40863 -1.753 0
M  V30 2267 H 221.238 -0.103437 -0.744852 0
M  V30 2268 H 223.209 -1.23848 -2.71485 0
M  V30 2269 C 221.958 0.374833 -3.45674 0
M  V30 2270 H 221.281 -0.311474 -3.98585 0
M  V30 2271 H 222.721 0.70903 -4.1803 0
M  V30 2272 C 221.18 1.57963 -2.97572 0
M  V30 2273 O 221.71 2.67886 -2.99333 0
M  V30 2274 N 219.916 1.42375 -2.53333 0
M  V30 2275 H 219.463 0.529466 -2.521 0
M  V30 2276 H 219.421 2.23117 -2.21509 0
M  V30 2277 N 223.193 1.4272 -0.668489 0
M  V30 2278 C 224.609 1.55992 -0.33745 0
M  V30 2279 C 224.809 1.64933 1.15756 0
M  V30 2280 O 223.865 1.61278 1.94282 0
M  V30 2281 C 225.178 2.81314 -1.06222 0
M  V30 2282 C 226.726 2.95078 -1.04394 0
M  V30 2283 C 227.201 4.23252 -1.74991 0
M  V30 2284 N 228.692 4.3015 -1.71829 0
M  V30 2285 C 229.427 5.28127 -2.23315 0
M  V30 2286 N 228.923 6.32293 -2.83156 0
M  V30 2287 N 230.716 5.19882 -2.13726 0
M  V30 2288 H 222.867 1.3516 -1.63846 0
M  V30 2289 H 225.13 0.650174 -0.689912 0
M  V30 2290 H 224.836 2.80823 -2.11734 0
M  V30 2291 H 224.71 3.72012 -0.62344 0
M  V30 2292 H 227.097 2.951 0.0028244 0
M  V30 2293 H 227.178 2.05627 -1.52155 0
M  V30 2294 H 226.822 4.2399 -2.79633 0
M  V30 2295 H 226.752 5.11626 -1.24685 0
M  V30 2296 H 229.243 3.55499 -1.28175 0
M  V30 2297 H 229.556 7.03398 -3.20079 0
M  V30 2298 H 227.901 6.32873 -2.87223 0
M  V30 2299 H 231.092 4.37423 -1.66669 0
M  V30 2300 H 231.265 5.96077 -2.54158 0
M  V30 2301 N 224.671 0.411399 1.52136 0
M  V30 2302 C 225.601 -0.404015 2.29978 0
M  V30 2303 C 226.582 -1.04412 1.34284 0
M  V30 2304 O 227.767 -1.0527 1.63192 0
M  V30 2305 C 224.897 -1.5197 3.12286 0
M  V30 2306 C 223.851 -1.00448 4.16046 0
M  V30 2307 C 223.177 -2.21393 4.86712 0
M  V30 2308 C 224.477 -0.0569336 5.22269 0
M  V30 2309 H 226.171 0.245529 2.98392 0
M  V30 2310 H 223.717 0.119525 1.43503 0
M  V30 2311 H 225.67 -2.09715 3.6551 0
M  V30 2312 H 224.394 -2.19716 2.41646 0
M  V30 2313 H 223.053 -0.449421 3.63835 0
M  V30 2314 H 222.701 -2.87699 4.12599 0
M  V30 2315 H 222.401 -1.87571 5.56858 0
M  V30 2316 H 223.925 -2.7974 5.4275 0
M  V30 2317 H 225.339 -0.54325 5.7072 0
M  V30 2318 H 223.736 0.192594 5.99791 0
M  V30 2319 H 224.806 0.887663 4.76706 0
M  V30 2320 N 226.149 -1.5696 0.141893 0
M  V30 2321 C 227.426 -1.87553 -0.555281 0
M  V30 2322 C 227.806 -1.04699 -1.83306 0
M  V30 2323 O 227.154 -0.132346 -2.28116 0
M  V30 2324 C 227.364 -3.39093 -0.825664 0
M  V30 2325 C 228.712 -4.08199 -1.16869 0
M  V30 2326 O 229.736 -3.44242 -0.915185 0
M  V30 2327 O 228.595 -5.21139 -1.6455 0
M  V30 2328 H 225.689 -0.777188 -0.282679 0
M  V30 2329 H 228.235 -1.68763 0.17812 0
M  V30 2330 H 227.007 -3.91221 0.0788633 0
M  V30 2331 H 226.63 -3.63393 -1.61343 0
M  V30 2332 N 227.627 0.131896 -1.57047 0
M  V30 2333 C 228.874 0.841932 -1.84168 0
M  V30 2334 C 229.202 1.8048 -0.725066 0
M  V30 2335 O 228.457 1.93618 0.284692 0
M  V30 2336 C 228.756 1.63703 -3.17704 0
M  V30 2337 C 228.422 0.81961 -4.43388 0
M  V30 2338 C 227.084 0.594148 -4.77518 0
M  V30 2339 C 229.436 0.248977 -5.20605 0
M  V30 2340 C 226.764 -0.212409 -5.86315 0
M  V30 2341 C 229.116 -0.544701 -6.30251 0
M  V30 2342 C 227.78 -0.780599 -6.6292 0
M  V30 2343 H 227.05 0.308085 -0.673917 0
M  V30 2344 H 229.697 0.104867 -1.91213 0
M  V30 2345 H 228.002 2.44464 -3.06177 0
M  V30 2346 H 229.699 2.19015 -3.35907 0
M  V30 2347 H 226.289 1.00542 -4.16641 0
M  V30 2348 H 230.473 0.410408 -4.946 0
M  V30 2349 H 225.729 -0.404524 -6.1006 0
M  V30 2350 H 229.903 -0.993922 -6.89271 0
M  V30 2351 H 227.53 -1.40742 -7.47058 0
M  V30 2352 N 229.106 1.52395 0.401703 0
M  V30 2353 C 230.353 1.66817 1.14796 0
M  V30 2354 C 230.681 0.401772 1.90305 0
M  V30 2355 O 229.936 -0.615487 1.85769 0
M  V30 2356 C 230.235 2.84578 2.16217 0
M  V30 2357 C 229.901 4.22513 1.5746 0
M  V30 2358 C 228.563 4.60029 1.41161 0
M  V30 2359 C 230.915 5.0844 1.14622 0
M  V30 2360 C 228.243 5.81144 0.80552 0
M  V30 2361 C 230.595 6.30167 0.55428 0
M  V30 2362 C 229.259 6.66426 0.378482 0
M  V30 2363 H 228.529 0.610428 0.420069 0
M  V30 2364 H 231.176 1.86512 0.434212 0
M  V30 2365 H 229.481 2.59248 2.93764 0
M  V30 2366 H 231.178 2.92933 2.73845 0
M  V30 2367 H 227.768 3.92953 1.71132 0
M  V30 2368 H 231.952 4.80034 1.26021 0
M  V30 2369 H 227.208 6.07855 0.657399 0
M  V30 2370 H 231.382 6.96071 0.213983 0
M  V30 2371 H 229.009 7.60143 -0.0932606 0
M  V30 2372 N 230.584 -0.659388 1.43143 0
M  V30 2373 C 231.833 -1.41518 1.43721 0
M  V30 2374 C 232.146 -1.95499 0.0628176 0
M  V30 2375 O 233.352 -2.71446 -0.0539683 0
M  V30 2376 C 231.808 -2.5608 2.52885 0
M  V30 2377 C 231.416 -2.08733 3.96402 0
M  V30 2378 C 233.16 -3.3349 2.62649 0
M  V30 2379 C 231.067 -3.20469 4.97045 0
M  V30 2380 H 229.997 -0.531705 0.534608 0
M  V30 2381 H 232.648 -0.712343 1.69109 0
M  V30 2382 H 231.03 -3.28805 2.20688 0
M  V30 2383 H 232.204 -1.43059 4.3803 0
M  V30 2384 H 230.519 -1.44219 3.90627 0
M  V30 2385 H 233.116 -4.16734 3.35017 0
M  V30 2386 H 233.459 -3.8111 1.67513 0
M  V30 2387 H 233.992 -2.67842 2.94118 0
M  V30 2388 H 230.731 -2.77824 5.93712 0
M  V30 2389 H 230.251 -3.84874 4.60034 0
M  V30 2390 H 231.93 -3.85698 5.19467 0
M  V30 2391 N 232.062 -1.29571 -0.897171 0
M  V30 2392 C 233.308 -1.17863 -1.65034 0
M  V30 2393 C 233.641 0.268729 -1.92332 0
M  V30 2394 O 232.916 1.19378 -1.53555 0
M  V30 2395 C 233.199 -1.995 -2.99786 0
M  V30 2396 C 233.052 -3.5239 -2.79538 0
M  V30 2397 C 234.371 -1.82335 -4.00552 0
M  V30 2398 H 231.49 -0.429528 -0.598895 0
M  V30 2399 H 234.132 -1.59072 -1.03905 0
M  V30 2400 H 232.282 -1.64485 -3.51962 0
M  V30 2401 H 233.954 -3.97401 -2.34244 0
M  V30 2402 H 232.197 -3.77187 -2.14273 0
M  V30 2403 H 232.868 -4.04787 -3.75302 0
M  V30 2404 H 235.344 -2.12924 -3.57495 0
M  V30 2405 H 234.22 -2.41801 -4.92771 0
M  V30 2406 H 234.481 -0.779209 -4.35179 0
M  V30 2407 N 233.54 1.10788 -1.12088 0
M  V30 2408 C 234.473 2.16237 -0.729168 0
M  V30 2409 C 235.451 1.60207 0.277921 0
M  V30 2410 O 236.635 1.87707 0.172737 0
M  V30 2411 C 233.762 3.38609 -0.0786848 0
M  V30 2412 C 232.808 4.13322 -1.05201 0
M  V30 2413 S 233.641 4.69371 -2.57781 0
M  V30 2414 C 234.797 5.95058 -1.94053 0
M  V30 2415 H 235.03 2.4913 -1.62239 0
M  V30 2416 H 232.563 1.22519 -0.939603 0
M  V30 2417 H 234.521 4.09473 0.290254 0
M  V30 2418 H 233.182 3.03962 0.791593 0
M  V30 2419 H 232.375 5.01051 -0.544433 0
M  V30 2420 H 231.977 3.48251 -1.36371 0
M  V30 2421 H 234.269 6.65278 -1.28107 0
M  V30 2422 H 235.212 6.50472 -2.79807 0
M  V30 2423 H 235.62 5.46918 -1.39787 0
M  V30 2424 N 235.018 0.912232 1.28515 0
M  V30 2425 C 235.981 0.404223 2.25607 0
M  V30 2426 C 236.981 -0.468602 1.53821 0
M  V30 2427 O 238.171 -0.271873 1.72065 0
M  V30 2428 C 235.303 -0.420653 3.38295 0
M  V30 2429 H 236.496 1.26188 2.7206 0
M  V30 2430 H 234.049 0.691495 1.40171 0
M  V30 2431 H 234.784 -1.29777 2.97201 0
M  V30 2432 H 234.569 0.204935 3.91564 0
M  V30 2433 H 236.059 -0.766971 4.10496 0
M  V30 2434 N 236.496 -1.42363 0.676048 0
M  V30 2435 C 237.744 -2.01123 0.198437 0
M  V30 2436 C 238.065 -1.53731 -1.19966 0
M  V30 2437 O 237.335 -0.759518 -1.80577 0
M  V30 2438 H 235.915 -0.743678 0.0703721 0
M  V30 2439 H 238.577 -1.74263 0.872837 0
M  V30 2440 H 237.673 -3.11454 0.200686 0
M  V30 2441 N 237.974 -0.419461 -1.51915 0
M  V30 2442 C 238.907 0.445751 -2.23804 0
M  V30 2443 C 239.885 1.03951 -1.25031 0
M  V30 2444 O 241.069 1.08541 -1.54114 0
M  V30 2445 C 238.196 1.61964 -2.97465 0
M  V30 2446 C 237.242 1.14828 -4.10751 0
M  V30 2447 S 238.075 0.104938 -5.35397 0
M  V30 2448 C 239.231 1.28391 -6.1259 0
M  V30 2449 H 239.464 -0.164627 -2.96844 0
M  V30 2450 H 236.997 -0.203833 -1.53049 0
M  V30 2451 H 238.955 2.29271 -3.40507 0
M  V30 2452 H 237.616 2.20139 -2.24048 0
M  V30 2453 H 236.809 2.02561 -4.61503 0
M  V30 2454 H 236.411 0.553712 -3.69878 0
M  V30 2455 H 238.703 2.20563 -6.40592 0
M  V30 2456 H 239.646 0.816724 -7.03374 0
M  V30 2457 H 240.054 1.51439 -5.43807 0
M  V30 2458 N 239.452 1.56882 -0.150215 0
M  V30 2459 C 240.698 1.96518 0.500834 0
M  V30 2460 C 241.031 1.03527 1.64304 0
M  V30 2461 O 240.306 0.0782751 1.94342 0
M  V30 2462 C 240.589 3.45822 1.00395 0
M  V30 2463 C 240.442 4.49591 -0.136983 0
M  V30 2464 C 241.761 3.97704 1.88467 0
M  V30 2465 H 238.88 0.714535 0.18058 0
M  V30 2466 H 241.522 1.88577 -0.232091 0
M  V30 2467 H 239.672 3.5272 1.62851 0
M  V30 2468 H 241.344 4.5477 -0.77343 0
M  V30 2469 H 239.587 4.26441 -0.795652 0
M  V30 2470 H 240.258 5.51402 0.256815 0
M  V30 2471 H 242.734 3.93304 1.35834 0
M  V30 2472 H 241.61 5.0263 2.20578 0
M  V30 2473 H 241.871 3.40252 2.82279 0
M  V30 2474 N 240.93 -0.123565 1.57115 0
M  V30 2475 C 241.84 -1.17074 2.033 0
M  V30 2476 C 242.856 -1.4561 0.952559 0
M  V30 2477 O 244.032 -1.56817 1.26374 0
M  V30 2478 C 241.097 -2.47857 2.42421 0
M  V30 2479 C 240.158 -2.26758 3.64526 0
M  V30 2480 C 239.391 -3.51305 4.01771 0
M  V30 2481 O 239.614 -4.5843 3.39409 0
M  V30 2482 O 238.548 -3.42578 4.94898 0
M  V30 2483 H 242.374 -0.808555 2.92739 0
M  V30 2484 H 239.959 -0.334027 1.45618 0
M  V30 2485 H 241.841 -3.2492 2.68338 0
M  V30 2486 H 240.516 -2.83558 1.5613 0
M  V30 2487 H 239.423 -1.47569 3.43765 0
M  V30 2488 H 240.756 -1.95963 4.51508 0
M  V30 2489 N 242.408 -1.52605 -0.393616 0
M  V30 2490 C 243.638 -1.71046 -1.15874 0
M  V30 2491 C 244.046 -0.426483 -1.84331 0
M  V30 2492 O 243.389 0.608513 -1.73329 0
M  V30 2493 C 243.451 -2.80118 -2.25332 0
M  V30 2494 C 243.115 -4.21381 -1.76881 0
M  V30 2495 C 244.112 -5.04697 -1.24808 0
M  V30 2496 C 241.797 -4.67683 -1.83244 0
M  V30 2497 C 243.791 -6.32393 -0.797387 0
M  V30 2498 C 241.478 -5.95364 -1.37787 0
M  V30 2499 C 242.476 -6.77549 -0.861208 0
M  V30 2500 O 242.164 -8.02837 -0.413252 0
M  V30 2501 H 241.896 -0.576155 -0.353583 0
M  V30 2502 H 244.45 -2.00018 -0.467123 0
M  V30 2503 H 242.68 -2.46557 -2.97904 0
M  V30 2504 H 244.369 -2.87006 -2.87023 0
M  V30 2505 H 245.135 -4.70111 -1.19252 0
M  V30 2506 H 241.014 -4.03805 -2.22401 0
M  V30 2507 H 244.558 -6.9649 -0.393437 0
M  V30 2508 H 240.455 -6.29455 -1.43026 0
M  V30 2509 H 241.223 -8.16749 -0.53515 0
M  V30 2510 N 243.887 0.651787 -1.4349 0
M  V30 2511 C 245.112 1.44434 -1.48841 0
M  V30 2512 C 245.537 1.8779 -0.107955 0
M  V30 2513 O 244.895 1.57464 0.898602 0
M  V30 2514 C 244.943 2.65458 -2.44059 0
M  V30 2515 O 244.047 3.64566 -1.92784 0
M  V30 2516 H 243.388 0.433005 -0.503391 0
M  V30 2517 H 245.918 0.797451 -1.88419 0
M  V30 2518 H 245.928 3.13255 -2.6141 0
M  V30 2519 H 244.603 2.33244 -3.4434 0
M  V30 2520 H 243.18 3.23716 -1.851 0
M  V30 2521 N 245.365 1.30045 0.890287 0
M  V30 2522 C 246.295 1.18541 2.01172 0
M  V30 2523 C 247.276 0.0773356 1.69924 0
M  V30 2524 O 248.461 0.25845 1.92473 0
M  V30 2525 C 245.591 0.870941 3.36202 0
M  V30 2526 C 244.545 1.93637 3.81692 0
M  V30 2527 C 243.871 1.475 5.13953 0
M  V30 2528 C 245.171 3.34666 4.00994 0
M  V30 2529 H 246.865 2.12359 2.11054 0
M  V30 2530 H 244.411 1.02238 1.01407 0
M  V30 2531 H 246.364 0.777141 4.14172 0
M  V30 2532 H 245.088 -0.102926 3.26438 0
M  V30 2533 H 243.747 2.01972 3.05946 0
M  V30 2534 H 243.395 0.489551 5.00612 0
M  V30 2535 H 243.095 2.1876 5.4536 0
M  V30 2536 H 244.619 1.39489 5.94454 0
M  V30 2537 H 246.033 3.2912 4.69417 0
M  V30 2538 H 244.43 4.03966 4.43769 0
M  V30 2539 H 245.5 3.76949 3.05021 0
M  V30 2540 N 246.843 -1.10192 1.12674 0
M  V30 2541 C 248.12 -1.78717 0.794965 0
M  V30 2542 C 248.5 -1.98628 -0.714853 0
M  V30 2543 O 247.848 -1.58135 -1.64941 0
M  V30 2544 C 248.058 -3.11546 1.5729 0
M  V30 2545 C 249.406 -3.86382 1.76052 0
M  V30 2546 O 250.43 -3.21274 1.53823 0
M  V30 2547 O 249.289 -5.03246 2.13087 0
M  V30 2548 H 246.383 -0.774702 0.289423 0
M  V30 2549 H 248.929 -1.16819 1.23091 0
M  V30 2550 H 247.701 -2.92489 2.59935 0
M  V30 2551 H 247.324 -3.81164 1.13137 0
M  V30 2552 N 248.321 -0.919034 -1.28029 0
M  V30 2553 C 249.251 -0.428581 -2.29533 0
M  V30 2554 C 250.232 0.50659 -1.62381 0
M  V30 2555 O 251.417 0.413195 -1.89753 0
M  V30 2556 C 248.547 0.327388 -3.45753 0
M  V30 2557 C 247.501 -0.519137 -4.2484 0
M  V30 2558 C 246.827 0.365486 -5.33449 0
M  V30 2559 C 248.127 -1.77914 -4.91064 0
M  V30 2560 H 249.821 -1.27687 -2.70807 0
M  V30 2561 H 247.367 -0.615428 -1.30186 0
M  V30 2562 H 249.32 0.681378 -4.15855 0
M  V30 2563 H 248.044 1.20963 -3.03374 0
M  V30 2564 H 246.703 -0.855717 -3.56473 0
M  V30 2565 H 246.351 1.24642 -4.87312 0
M  V30 2566 H 246.051 -0.197356 -5.87268 0
M  V30 2567 H 247.575 0.715241 -6.06396 0
M  V30 2568 H 248.989 -1.49374 -5.53498 0
M  V30 2569 H 247.386 -2.2848 -5.54903 0
M  V30 2570 H 248.456 -2.50382 -4.15255 0
M  V30 2571 N 249.799 1.42003 -0.683588 0
M  V30 2572 C 250.731 2.29183 0.0283068 0
M  V30 2573 C 251.744 1.4415 0.756611 0
M  V30 2574 O 252.933 1.67779 0.609306 0
M  V30 2575 C 250.033 3.21765 1.06398 0
M  V30 2576 C 249.206 4.35496 0.407723 0
M  V30 2577 C 248.265 5.08737 1.34437 0
M  V30 2578 O 247.291 5.62948 0.841318 0
M  V30 2579 N 248.493 5.15075 2.67728 0
M  V30 2580 H 251.258 2.9092 -0.720105 0
M  V30 2581 H 248.819 1.53025 -0.528682 0
M  V30 2582 H 250.811 3.6763 1.69204 0
M  V30 2583 H 249.381 2.61418 1.71404 0
M  V30 2584 H 248.601 3.92165 -0.400012 0
M  V30 2585 H 249.889 5.08776 -0.0490956 0
M  V30 2586 H 249.287 4.72457 3.11129 0
M  V30 2587 H 247.844 5.64556 3.2576 0
M  V30 2588 N 251.277 0.427512 1.51691 0
M  V30 2589 C 252.225 -0.403359 2.29076 0
M  V30 2590 C 253.219 -1.02962 1.34518 0
M  V30 2591 O 254.425 -0.965715 1.51901 0
M  V30 2592 H 250.8 -0.148879 0.737115 0
M  V30 2593 H 252.771 0.270295 2.97173 0
M  V30 2594 C 251.52 -1.49763 3.13794 0
M  V30 2595 H 250.843 -1.02508 3.86435 0
M  V30 2596 H 252.283 -2.05244 3.71014 0
M  V30 2597 C 250.742 -2.47536 2.28533 0
M  V30 2598 O 251.272 -3.51848 1.93819 0
M  V30 2599 N 249.478 -2.18187 1.91945 0
M  V30 2600 H 249.025 -1.33389 2.20375 0
M  V30 2601 H 248.983 -2.83848 1.35195 0
M  V30 2602 N 252.755 -1.56801 0.158532 0
M  V30 2603 C 254.004 -1.95665 -0.489702 0
M  V30 2604 C 254.317 -1.04654 -1.65248 0
M  V30 2605 O 255.523 -1.33146 -2.3661 0
M  V30 2606 C 253.979 -3.47874 -0.922582 0
M  V30 2607 C 253.587 -4.47489 0.213893 0
M  V30 2608 C 255.331 -3.95583 -1.53996 0
M  V30 2609 C 253.238 -5.90921 -0.237903 0
M  V30 2610 H 252.168 -0.730516 -0.186716 0
M  V30 2611 H 254.819 -1.81861 0.244722 0
M  V30 2612 H 253.201 -3.57051 -1.71261 0
M  V30 2613 H 254.375 -4.50017 0.991036 0
M  V30 2614 H 252.69 -4.09764 0.740407 0
M  V30 2615 H 255.287 -5.0019 -1.8898 0
M  V30 2616 H 255.63 -3.37789 -2.43319 0
M  V30 2617 H 256.163 -3.8937 -0.814611 0
M  V30 2618 H 252.902 -6.52559 0.620236 0
M  V30 2619 H 252.422 -5.91729 -0.980676 0
M  V30 2620 H 254.101 -6.43352 -0.686067 0
M  V30 2621 N 254.233 0.115231 -1.57178 0
M  V30 2622 C 255.181 1.16014 -2.01602 0
M  V30 2623 C 256.175 1.42653 -0.913587 0
M  V30 2624 O 257.381 1.42571 -1.09879 0
M  V30 2625 H 253.756 0.391252 -0.642204 0
M  V30 2626 H 255.727 0.758998 -2.88586 0
M  V30 2627 C 254.476 2.47767 -2.4394 0
M  V30 2628 H 253.799 2.28108 -3.28339 0
M  V30 2629 H 255.239 3.19432 -2.78818 0
M  V30 2630 C 253.698 3.10617 -1.30455 0
M  V30 2631 O 254.228 3.96846 -0.622585 0
M  V30 2632 N 252.434 2.70553 -1.06064 0
M  V30 2633 H 251.981 2.00527 -1.61699 0
M  V30 2634 H 251.939 3.12934 -0.303284 0
M  V30 2635 N 255.711 1.52812 0.385517 0
M  V30 2636 C 256.641 1.80808 1.47752 0
M  V30 2637 C 257.622 0.660318 1.5676 0
M  V30 2638 O 258.807 0.908246 1.71652 0
M  V30 2639 C 255.937 1.98008 2.85324 0
M  V30 2640 C 254.891 3.13709 2.91154 0
M  V30 2641 C 254.217 3.16169 4.31209 0
M  V30 2642 C 255.517 4.52709 2.60483 0
M  V30 2643 H 257.211 2.72253 1.24573 0
M  V30 2644 H 254.757 1.31003 0.597839 0
M  V30 2645 H 256.71 2.16176 3.61726 0
M  V30 2646 H 255.434 1.03255 3.09848 0
M  V30 2647 H 254.093 2.95329 2.17201 0
M  V30 2648 H 253.741 2.19092 4.52778 0
M  V30 2649 H 253.441 3.93894 4.36029 0
M  V30 2650 H 254.965 3.36496 5.09512 0
M  V30 2651 H 256.379 4.71173 3.26602 0
M  V30 2652 H 254.776 5.32528 2.76648 0
M  V30 2653 H 255.846 4.59186 1.55809 0
M  V30 2654 N 257.189 -0.644168 1.43834 0
M  V30 2655 C 258.414 -1.43642 1.49605 0
M  V30 2656 C 258.839 -1.8773 0.117913 0
M  V30 2657 O 258.197 -1.57938 -0.890239 0
M  V30 2658 C 258.245 -2.6416 2.45463 0
M  V30 2659 O 257.349 -3.63538 1.94714 0
M  V30 2660 H 256.69 -0.430329 0.50568 0
M  V30 2661 H 259.22 -0.787448 1.8884 0
M  V30 2662 H 259.23 -3.11864 2.63068 0
M  V30 2663 H 257.905 -2.31414 3.45572 0
M  V30 2664 H 256.482 -3.2273 1.86814 0
M  V30 2665 N 258.668 -1.30515 -0.883378 0
M  V30 2666 C 259.631 -1.1701 -1.97082 0
M  V30 2667 C 260.631 -0.10089 -1.60483 0
M  V30 2668 O 261.821 -0.349127 -1.70666 0
M  V30 2669 C 258.953 -0.793045 -3.31547 0
M  V30 2670 H 260.146 -2.13622 -2.10489 0
M  V30 2671 H 257.699 -1.13935 -1.06998 0
M  V30 2672 H 258.434 0.172499 -3.23841 0
M  V30 2673 H 258.219 -1.56576 -3.5948 0
M  V30 2674 H 259.709 -0.722073 -4.1131 0
M  V30 2675 N 260.146 1.09593 -1.13257 0
M  V30 2676 C 261.395 1.81105 -0.887917 0
M  V30 2677 C 261.708 1.86563 0.587672 0
M  V30 2678 O 262.914 2.54367 0.949204 0
M  V30 2679 C 261.37 3.25338 -1.53895 0
M  V30 2680 C 260.978 3.28151 -3.04994 0
M  V30 2681 C 262.722 4.01617 -1.37492 0
M  V30 2682 C 260.629 4.66897 -3.6299 0
M  V30 2683 H 259.559 0.678661 -0.328534 0
M  V30 2684 H 262.21 1.23183 -1.36008 0
M  V30 2685 H 260.592 3.8331 -0.994446 0
M  V30 2686 H 261.766 2.79953 -3.66009 0
M  V30 2687 H 260.081 2.65361 -3.20893 0
M  V30 2688 H 262.678 5.04119 -1.78235 0
M  V30 2689 H 263.021 4.15072 -0.31957 0
M  V30 2690 H 263.554 3.50082 -1.88912 0
M  V30 2691 H 260.293 4.58643 -4.68323 0
M  V30 2692 H 259.813 5.15426 -3.06752 0
M  V30 2693 H 261.492 5.3587 -3.62563 0
M  V30 2694 N 261.624 0.925811 1.2754 0
M  V30 2695 C 263.04 0.625767 1.46821 0
M  V30 2696 C 263.24 -0.825506 1.83814 0
M  V30 2697 O 262.296 -1.60356 1.95044 0
M  V30 2698 C 263.609 1.57402 2.56213 0
M  V30 2699 C 265.157 1.58204 2.70075 0
M  V30 2700 C 265.632 2.51721 3.82623 0
M  V30 2701 N 267.123 2.49917 3.89994 0
M  V30 2702 C 267.858 3.18968 4.76494 0
M  V30 2703 N 267.354 3.97391 5.67496 0
M  V30 2704 N 269.147 3.07996 4.70208 0
M  V30 2705 H 261.298 1.86409 1.01811 0
M  V30 2706 H 263.561 0.800213 0.508295 0
M  V30 2707 H 263.267 2.60925 2.35819 0
M  V30 2708 H 263.141 1.31428 3.53563 0
M  V30 2709 H 265.528 0.554124 2.89851 0
M  V30 2710 H 265.609 1.88226 1.73218 0
M  V30 2711 H 265.253 3.54622 3.63601 0
M  V30 2712 H 265.183 2.18996 4.78903 0
M  V30 2713 H 267.674 1.9296 3.24923 0
M  V30 2714 H 267.987 4.4707 6.30356 0
M  V30 2715 H 266.332 4.01495 5.67298 0
M  V30 2716 H 269.523 2.46223 3.9811 0
M  V30 2717 H 269.696 3.6208 5.37403 0
M  V30 2718 N 263.102 -1.41638 0.69111 0
M  V30 2719 C 264.33 -2.05628 0.22909 0
M  V30 2720 C 264.745 -1.51992 -1.11999 0
M  V30 2721 O 264.102 -0.666322 -1.69901 0
M  V30 2722 C 264.153 -3.61084 0.173283 0
M  V30 2723 O 263.874 -4.12735 1.46907 0
M  V30 2724 C 265.375 -4.42213 -0.310266 0
M  V30 2725 H 262.595 -0.662327 0.107534 0
M  V30 2726 H 265.139 -1.81489 0.942438 0
M  V30 2727 H 263.294 -3.84278 -0.490858 0
M  V30 2728 H 263.708 -5.06743 1.35322 0
M  V30 2729 H 265.182 -5.51194 -0.298196 0
M  V30 2730 H 265.659 -4.1799 -1.34838 0
M  V30 2731 H 266.265 -4.24074 0.322716 0
M  V30 2732 N 264.58 -0.43555 -1.51462 0
M  V30 2733 C 265.826 0.131709 -2.02372 0
M  V30 2734 C 266.159 1.42516 -1.3192 0
M  V30 2735 O 265.434 1.89606 -0.433573 0
M  V30 2736 C 265.717 0.352301 -3.58373 0
M  V30 2737 C 265.57 -0.959676 -4.39443 0
M  V30 2738 C 266.889 1.12286 -4.25535 0
M  V30 2739 H 264.008 0.0463936 -0.735538 0
M  V30 2740 H 266.65 -0.574197 -1.81116 0
M  V30 2741 H 264.8 0.9536 -3.76615 0
M  V30 2742 H 266.472 -1.59482 -4.32855 0
M  V30 2743 H 264.715 -1.56468 -4.04599 0
M  V30 2744 H 265.386 -0.759394 -5.46752 0
M  V30 2745 H 267.862 0.613545 -4.11552 0
M  V30 2746 H 266.738 1.24598 -5.34571 0
M  V30 2747 H 266.999 2.15048 -3.86273 0
M  V30 2748 N 266.058 1.56714 -0.166846 0
M  V30 2749 C 267.474 1.58473 0.189372 0
M  V30 2750 C 267.674 1.18201 1.63189 0
M  V30 2751 O 266.73 0.891528 2.36237 0
M  V30 2752 C 268.043 3.00573 -0.0873872 0
M  V30 2753 C 269.591 3.1299 -0.0252443 0
M  V30 2754 C 270.066 4.57174 -0.274934 0
M  V30 2755 N 271.557 4.62665 -0.222553 0
M  V30 2756 C 272.292 5.72072 -0.389985 0
M  V30 2757 N 271.788 6.90054 -0.616229 0
M  V30 2758 N 273.581 5.61153 -0.326202 0
M  V30 2759 H 265.732 1.8118 -1.10849 0
M  V30 2760 H 267.995 0.839525 -0.440342 0
M  V30 2761 H 267.701 3.34497 -1.0865 0
M  V30 2762 H 267.575 3.72019 0.623037 0
M  V30 2763 H 269.962 2.78895 0.96444 0
M  V30 2764 H 270.043 2.43989 -0.768309 0
M  V30 2765 H 269.687 4.91976 -1.26181 0
M  V30 2766 H 269.617 5.24328 0.48869 0
M  V30 2767 H 272.108 3.77863 -0.0531512 0
M  V30 2768 H 272.421 7.69311 -0.733559 0
M  V30 2769 H 270.766 6.91927 -0.652791 0
M  V30 2770 H 273.957 4.67859 -0.150072 0
M  V30 2771 H 274.13 6.46364 -0.460116 0
M  V30 2772 N 267.536 -0.106894 1.57237 0
M  V30 2773 C 268.782 -0.81373 1.85759 0
M  V30 2774 C 269.115 -1.78952 0.754315 0
M  V30 2775 O 268.39 -1.93029 -0.23879 0
M  V30 2776 C 268.673 -1.55293 3.24894 0
M  V30 2777 C 268.526 -0.595929 4.45835 0
M  V30 2778 C 269.845 -2.5063 3.61763 0
M  V30 2779 H 266.964 -0.294369 0.67566 0
M  V30 2780 H 269.606 -0.0776472 1.89841 0
M  V30 2781 H 267.756 -2.1804 3.21544 0
M  V30 2782 H 269.428 0.0236262 4.61294 0
M  V30 2783 H 267.671 0.0916191 4.33703 0
M  V30 2784 H 268.342 -1.15004 5.39887 0
M  V30 2785 H 270.818 -1.97982 3.65981 0
M  V30 2786 H 269.694 -2.99376 4.60071 0
M  V30 2787 H 269.955 -3.3385 2.89821 0
M  V30 2788 N 269.014 -1.53014 -0.377408 0
M  V30 2789 C 269.944 -1.81589 -1.46791 0
M  V30 2790 C 270.925 -0.668622 -1.56408 0
M  V30 2791 O 272.11 -0.917337 -1.71168 0
M  V30 2792 C 269.24 -1.99519 -2.8427 0
M  V30 2793 C 268.194 -3.15249 -2.89486 0
M  V30 2794 C 267.52 -3.18451 -4.29527 0
M  V30 2795 C 268.82 -4.54084 -2.58079 0
M  V30 2796 H 270.514 -2.7291 -1.23127 0
M  V30 2797 H 268.06 -1.31319 -0.590883 0
M  V30 2798 H 270.013 -2.18092 -3.60575 0
M  V30 2799 H 268.737 -1.04897 -3.09296 0
M  V30 2800 H 267.396 -2.96477 -2.15631 0
M  V30 2801 H 267.044 -2.2149 -4.5161 0
M  V30 2802 H 266.744 -3.962 -4.33934 0
M  V30 2803 H 268.268 -3.39193 -5.07721 0
M  V30 2804 H 269.682 -4.72899 -3.24098 0
M  V30 2805 H 268.079 -5.33987 -2.7382 0
M  V30 2806 H 269.149 -4.60006 -1.53372 0
M  V30 2807 N 270.492 0.636531 -1.44174 0
M  V30 2808 C 271.908 0.954104 -1.27941 0
M  V30 2809 C 272.108 2.0039 -0.211248 0
M  V30 2810 O 271.164 2.49236 0.404695 0
M  V30 2811 C 272.477 1.4225 -2.64925 0
M  V30 2812 C 274.025 1.53827 -2.72592 0
M  V30 2813 C 274.5 2.04053 -4.10032 0
M  V30 2814 N 275.991 2.11331 -4.12182 0
M  V30 2815 C 276.726 2.51352 -5.15374 0
M  V30 2816 N 276.222 2.90549 -6.2893 0
M  V30 2817 N 278.015 2.51438 -5.02728 0
M  V30 2818 H 270.166 -0.0578386 -2.12321 0
M  V30 2819 H 272.429 0.0367406 -0.947288 0
M  V30 2820 H 272.135 0.725466 -3.44136 0
M  V30 2821 H 272.009 2.39451 -2.9145 0
M  V30 2822 H 274.396 2.22628 -1.93702 0
M  V30 2823 H 274.477 0.550154 -2.49814 0
M  V30 2824 H 274.121 1.35848 -4.89395 0
M  V30 2825 H 274.051 3.03726 -4.30184 0
M  V30 2826 H 276.542 1.83745 -3.30222 0
M  V30 2827 H 276.855 3.19884 -7.03487 0
M  V30 2828 H 275.2 2.88313 -6.32377 0
M  V30 2829 H 278.391 2.20203 -4.13072 0
M  V30 2830 H 278.564 2.82304 -5.83274 0
M  V30 2831 N 271.97 1.30982 0.876444 0
M  V30 2832 C 273.381 1.18277 1.44456 0
M  V30 2833 C 273.732 -0.213265 1.95037 0
M  V30 2834 O 272.857 -1.11057 1.85729 0
M  V30 2835 C 273.452 2.1411 2.62569 0
M  V30 2836 C 272.011 2.05358 3.15444 0
M  V30 2837 C 271.158 2.03706 1.88146 0
M  V30 2838 H 274.109 1.43127 0.685584 0
M  V30 2839 H 274.13 1.72692 3.39054 0
M  V30 2840 H 273.642 3.15706 2.25724 0
M  V30 2841 H 271.743 1.06934 3.56926 0
M  V30 2842 H 271.856 2.94156 3.78166 0
M  V30 2843 H 270.22 1.48629 2.06837 0
M  V30 2844 H 271.003 3.07047 1.53547 0
M  V30 2845 N 273.449 -1.08991 1.13837 0
M  V30 2846 C 274.379 -2.17771 0.842507 0
M  V30 2847 C 275.36 -1.6892 -0.20001 0
M  V30 2848 O 276.545 -1.94113 -0.0579731 0
M  V30 2849 C 273.675 -3.4589 0.312644 0
M  V30 2850 C 272.629 -4.08099 1.28992 0
M  V30 2851 C 271.955 -5.31098 0.619623 0
M  V30 2852 C 273.255 -4.50077 2.65005 0
M  V30 2853 H 274.949 -2.42777 1.75213 0
M  V30 2854 H 272.495 -1.16682 0.843875 0
M  V30 2855 H 274.448 -4.21297 0.0933043 0
M  V30 2856 H 273.172 -3.20419 -0.632382 0
M  V30 2857 H 271.831 -3.34717 1.49533 0
M  V30 2858 H 271.479 -5.0191 -0.33102 0
M  V30 2859 H 271.179 -5.73674 1.27167 0
M  V30 2860 H 272.703 -6.09224 0.409669 0
M  V30 2861 H 274.117 -5.16688 2.48407 0
M  V30 2862 H 272.514 -5.03553 3.26427 0
M  V30 2863 H 273.584 -3.62257 3.22332 0
M  V30 2864 N 274.927 -0.932562 -1.27047 0
M  V30 2865 C 275.874 -0.434072 -2.26681 0
M  V30 2866 C 276.844 0.501639 -1.58344 0
M  V30 2867 O 278.029 0.419734 -1.86126 0
M  V30 2868 C 275.169 0.30261 -3.43771 0
M  V30 2869 C 274.282 -0.667774 -4.26808 0
M  V30 2870 C 273.417 0.0892393 -5.31125 0
M  V30 2871 C 272.456 -0.873532 -6.05835 0
M  V30 2872 N 271.593 -0.148832 -7.01942 0
M  V30 2873 H 276.433 -1.28868 -2.68695 0
M  V30 2874 H 273.97 -0.646713 -1.32121 0
M  V30 2875 H 275.928 0.746092 -4.10474 0
M  V30 2876 H 274.558 1.12142 -3.02695 0
M  V30 2877 H 273.61 -1.22978 -3.59973 0
M  V30 2878 H 274.922 -1.40337 -4.78651 0
M  V30 2879 H 274.076 0.592409 -6.03801 0
M  V30 2880 H 272.815 0.85777 -4.80097 0
M  V30 2881 H 271.82 -1.38791 -5.31994 0
M  V30 2882 H 273.045 -1.64193 -6.58952 0
M  V30 2883 H 270.991 0.601365 -6.53238 0
M  V30 2884 H 270.908 -0.82391 -7.51497 0
M  V30 2885 H 272.176 0.333527 -7.78786 0
M  V30 2886 N 276.405 1.4127 -0.698611 0
M  V30 2887 C 277.368 2.29158 -0.044132 0
M  V30 2888 C 278.368 1.44529 0.704841 0
M  V30 2889 O 279.558 1.65643 0.539276 0
M  V30 2890 C 276.69 3.27459 0.947809 0
M  V30 2891 H 277.883 2.88529 -0.817994 0
M  V30 2892 H 275.436 1.49307 -0.46228 0
M  V30 2893 H 276.171 2.73073 1.74933 0
M  V30 2894 H 275.956 3.8991 0.41385 0
M  V30 2895 H 277.446 3.93311 1.40344 0
M  V30 2896 N 277.883 0.443576 1.51229 0
M  V30 2897 C 279.132 -0.122332 2.01329 0
M  V30 2898 C 279.445 -1.43237 1.33201 0
M  V30 2899 O 280.651 -2.0816 1.74304 0
M  V30 2900 C 279.107 -0.268551 3.58897 0
M  V30 2901 C 278.715 1.03142 4.35965 0
M  V30 2902 C 280.459 -0.787894 4.17124 0
M  V30 2903 C 278.366 0.850504 5.85252 0
M  V30 2904 H 277.296 -0.0494929 0.752374 0
M  V30 2905 H 279.947 0.574289 1.74282 0
M  V30 2906 H 278.329 -1.02832 3.82415 0
M  V30 2907 H 279.503 1.80001 4.24189 0
M  V30 2908 H 277.818 1.47977 3.89219 0
M  V30 2909 H 280.415 -0.939841 5.26375 0
M  V30 2910 H 280.758 -1.77201 3.76703 0
M  V30 2911 H 281.291 -0.0862669 3.97706 0
M  V30 2912 H 278.03 1.80718 6.30096 0
M  V30 2913 H 277.55 0.121825 5.99676 0
M  V30 2914 H 279.229 0.506163 6.45017 0
M  V30 2915 N 279.361 -1.56624 0.175154 0
M  V30 2916 C 280.309 -2.19468 -0.770495 0
M  V30 2917 C 281.303 -1.15985 -1.23466 0
M  V30 2918 O 282.509 -1.34176 -1.19987 0
M  V30 2919 H 278.884 -0.703095 -0.266761 0
M  V30 2920 H 280.855 -2.97613 -0.216542 0
M  V30 2921 C 279.604 -2.85264 -1.98796 0
M  V30 2922 H 278.927 -3.64623 -1.63983 0
M  V30 2923 H 280.367 -3.327 -2.62843 0
M  V30 2924 C 278.826 -1.85239 -2.81404 0
M  V30 2925 O 279.356 -1.34024 -3.78682 0
M  V30 2926 N 277.562 -1.53911 -2.46495 0
M  V30 2927 H 277.109 -1.95751 -1.67449 0
M  V30 2928 H 277.067 -0.872382 -3.02054 0
M  V30 2929 N 280.839 0.0985539 -1.57292 0
M  V30 2930 C 282.255 0.45267 -1.53046 0
M  V30 2931 C 282.455 1.80713 -0.891342 0
M  V30 2932 O 281.511 2.4785 -0.482375 0
M  V30 2933 C 282.824 0.418341 -2.97776 0
M  V30 2934 C 284.372 0.500443 -3.08973 0
M  V30 2935 C 284.847 0.496297 -4.55303 0
M  V30 2936 N 286.338 0.557151 -4.59837 0
M  V30 2937 C 287.073 0.575726 -5.70502 0
M  V30 2938 N 286.569 0.550714 -6.90608 0
M  V30 2939 N 288.362 0.620277 -5.58667 0
M  V30 2940 H 280.513 -0.788673 -1.97215 0
M  V30 2941 H 282.776 -0.293188 -0.901524 0
M  V30 2942 H 282.482 -0.509659 -3.47988 0
M  V30 2943 H 282.356 1.2386 -3.56284 0
M  V30 2944 H 284.743 1.41886 -2.58751 0
M  V30 2945 H 284.824 -0.347894 -2.53423 0
M  V30 2946 H 284.468 -0.418162 -5.06176 0
M  V30 2947 H 284.398 1.3618 -5.08687 0
M  V30 2948 H 286.889 0.581816 -3.73394 0
M  V30 2949 H 287.202 0.568075 -7.70709 0
M  V30 2950 H 285.547 0.517816 -6.93068 0
M  V30 2951 H 288.738 0.637322 -4.63741 0
M  V30 2952 H 288.911 0.631283 -6.44918 0
M  V30 2953 N 282.317 1.53212 0.369288 0
M  V30 2954 C 283.563 1.69466 1.11397 0
M  V30 2955 C 283.896 0.443257 1.89074 0
M  V30 2956 O 283.171 -0.559386 1.86282 0
M  V30 2957 C 283.454 2.9422 2.07621 0
M  V30 2958 C 283.307 4.29508 1.33577 0
M  V30 2959 C 284.626 3.14565 3.07794 0
M  V30 2960 H 281.745 0.616667 0.403597 0
M  V30 2961 H 284.387 1.85845 0.395179 0
M  V30 2962 H 282.537 2.80387 2.68916 0
M  V30 2963 H 284.209 4.55147 0.750955 0
M  V30 2964 H 282.452 4.29088 0.637618 0
M  V30 2965 H 283.123 5.12926 2.03989 0
M  V30 2966 H 285.599 3.2756 2.56601 0
M  V30 2967 H 284.475 4.03297 3.72348 0
M  V30 2968 H 284.736 2.29675 3.77759 0
M  V30 2969 N 283.795 -0.628877 1.44509 0
M  V30 2970 C 285.206 -1.21054 1.42137 0
M  V30 2971 C 285.557 -1.95715 0.137881 0
M  V30 2972 O 284.682 -2.02554 -0.761645 0
M  V30 2973 C 285.277 -2.20189 2.57493 0
M  V30 2974 C 283.836 -2.73777 2.58308 0
M  V30 2975 C 282.983 -1.48813 2.33987 0
M  V30 2976 H 285.934 -0.41942 1.53057 0
M  V30 2977 H 285.955 -3.02833 2.30375 0
M  V30 2978 H 285.467 -1.6582 3.50892 0
M  V30 2979 H 283.568 -3.32142 1.68856 0
M  V30 2980 H 283.681 -3.19662 3.56865 0
M  V30 2981 H 282.045 -1.77024 1.83124 0
M  V30 2982 H 282.828 -0.963442 3.29504 0
M  V30 2983 N 285.273 -1.31445 -0.869486 0
M  V30 2984 C 286.498 -1.24256 -1.66058 0
M  V30 2985 C 286.923 0.188928 -1.87149 0
M  V30 2986 O 286.281 1.13522 -1.4136 0
M  V30 2987 C 286.329 -1.9924 -3.00559 0
M  V30 2988 O 285.433 -1.33007 -3.90362 0
M  V30 2989 H 284.774 -0.428973 -0.506831 0
M  V30 2990 H 287.304 -1.73521 -1.08404 0
M  V30 2991 H 287.314 -2.08854 -3.50491 0
M  V30 2992 H 285.989 -3.03342 -2.84528 0
M  V30 2993 H 284.566 -1.31848 -3.48813 0
M  V30 2994 N 286.751 1.08385 -1.14413 0
M  V30 2995 C 287.684 2.14642 -0.774871 0
M  V30 2996 C 288.662 1.60761 0.243876 0
M  V30 2997 O 289.846 1.88031 0.132883 0
M  V30 2998 C 286.973 3.38366 -0.150491 0
M  V30 2999 C 286.019 4.10997 -1.13945 0
M  V30 3000 S 286.852 4.63797 -2.67679 0
M  V30 3001 C 288.008 5.90808 -2.06631 0
M  V30 3002 H 288.241 2.45633 -1.67487 0
M  V30 3003 H 285.774 1.20498 -0.96538 0
M  V30 3004 H 287.732 4.09996 0.203334 0
M  V30 3005 H 286.393 3.05572 0.72694 0
M  V30 3006 H 285.586 4.99783 -0.65059 0
M  V30 3007 H 285.188 3.4528 -1.43727 0
M  V30 3008 H 287.48 6.62411 -1.4219 0
M  V30 3009 H 288.423 6.4439 -2.93542 0
M  V30 3010 H 288.831 5.4383 -1.51357 0
M  V30 3011 N 288.23 0.939286 1.26551 0
M  V30 3012 C 289.646 0.641304 1.46149 0
M  V30 3013 C 289.846 -0.805964 1.84679 0
M  V30 3014 O 288.902 -1.58278 1.96734 0
M  V30 3015 C 290.215 1.6011 2.54529 0
M  V30 3016 C 291.763 1.6106 2.68382 0
M  V30 3017 C 292.238 2.55765 3.79932 0
M  V30 3018 N 293.729 2.5404 3.87322 0
M  V30 3019 C 294.464 3.24004 4.73085 0
M  V30 3020 N 293.96 4.03388 5.63249 0
M  V30 3021 N 295.753 3.12965 4.66914 0
M  V30 3022 H 287.904 1.87478 0.998285 0
M  V30 3023 H 290.167 0.805559 0.499779 0
M  V30 3024 H 289.873 2.63412 2.33039 0
M  V30 3025 H 289.747 1.35171 3.52149 0
M  V30 3026 H 292.134 0.584835 2.89247 0
M  V30 3027 H 292.215 1.90053 1.71212 0
M  V30 3028 H 291.859 3.58458 3.5982 0
M  V30 3029 H 291.789 2.24063 4.76554 0
M  V30 3030 H 294.28 1.96396 3.22858 0
M  V30 3031 H 294.593 4.5373 6.25579 0
M  V30 3032 H 292.938 4.07489 5.63008 0
M  V30 3033 H 296.129 2.50432 3.95476 0
M  V30 3034 H 296.302 3.67759 5.33533 0
M  V30 3035 N 289.708 -1.40897 0.706093 0
M  V30 3036 C 290.957 -2.00284 0.238574 0
M  V30 3037 C 291.27 -1.56604 -1.17194 0
M  V30 3038 O 292.476 -2.08624 -1.73748 0
M  V30 3039 C 290.932 -3.57934 0.375623 0
M  V30 3040 C 290.54 -4.10591 1.79217 0
M  V30 3041 C 292.284 -4.24488 -0.0315857 0
M  V30 3042 C 290.191 -5.60712 1.88032 0
M  V30 3043 H 289.121 -0.749144 0.0854398 0
M  V30 3044 H 291.772 -1.61251 0.875813 0
M  V30 3045 H 290.154 -3.94622 -0.330042 0
M  V30 3046 H 291.328 -3.85301 2.52745 0
M  V30 3047 H 289.643 -3.56601 2.15 0
M  V30 3048 H 292.24 -5.34698 0.0136842 0
M  V30 3049 H 292.583 -4.02261 -1.072 0
M  V30 3050 H 293.116 -3.92873 0.624181 0
M  V30 3051 H 289.855 -5.87781 2.90161 0
M  V30 3052 H 289.375 -5.87896 1.18903 0
M  V30 3053 H 291.054 -6.25658 1.64805 0
M  V30 3054 N 291.186 -0.45159 -1.50991 0
M  V30 3055 C 292.116 0.342898 -2.30969 0
M  V30 3056 C 293.097 1.00815 -1.37005 0
M  V30 3057 O 294.282 1.00907 -1.65926 0
M  V30 3058 C 291.412 1.43637 -3.16205 0
M  V30 3059 C 290.366 0.893818 -4.18563 0
M  V30 3060 C 289.692 2.08411 -4.92411 0
M  V30 3061 C 290.992 -0.0815568 -5.22236 0
M  V30 3062 H 292.686 -0.324556 -2.97636 0
M  V30 3063 H 290.232 -0.157531 -1.43136 0
M  V30 3064 H 292.185 1.9995 -3.70942 0
M  V30 3065 H 290.909 2.13232 -2.47386 0
M  V30 3066 H 289.568 0.352798 -3.64898 0
M  V30 3067 H 289.216 2.76658 -4.20082 0
M  V30 3068 H 288.916 1.72741 -5.61636 0
M  V30 3069 H 290.44 2.65251 -5.49976 0
M  V30 3070 H 291.854 0.391742 -5.7196 0
M  V30 3071 H 290.251 -0.351551 -5.99069 0
M  V30 3072 H 291.321 -1.01374 -4.74185 0
M  V30 3073 N 292.664 1.56529 -0.183458 0
M  V30 3074 C 293.91 1.97537 0.459036 0
M  V30 3075 C 294.243 1.06989 1.62071 0
M  V30 3076 O 293.518 0.11948 1.94133 0
M  V30 3077 C 293.801 3.47874 0.930368 0
M  V30 3078 C 293.654 4.492 -0.232317 0
M  V30 3079 C 294.973 4.01612 1.79989 0
M  V30 3080 H 292.092 0.718204 0.165383 0
M  V30 3081 H 294.734 1.88042 -0.272038 0
M  V30 3082 H 292.884 3.56095 1.55333 0
M  V30 3083 H 294.556 4.53027 -0.86972 0
M  V30 3084 H 292.799 4.24657 -0.885928 0
M  V30 3085 H 293.47 5.51823 0.139796 0
M  V30 3086 H 295.946 3.96097 1.27461 0
M  V30 3087 H 294.822 5.07195 2.09867 0
M  V30 3088 H 295.083 3.46163 2.74998 0
M  V30 3089 N 294.142 -0.090211 1.57342 0
M  V30 3090 C 295.09 -1.12792 2.03422 0
M  V30 3091 C 296.084 -1.41182 0.936166 0
M  V30 3092 O 297.29 -1.40805 1.12133 0
M  V30 3093 H 293.665 -0.380986 0.648347 0
M  V30 3094 H 295.636 -0.71299 2.89757 0
M  V30 3095 C 294.385 -2.43855 2.47851 0
M  V30 3096 H 293.708 -2.22855 3.31927 0
M  V30 3097 H 295.148 -3.14955 2.83865 0
M  V30 3098 C 293.607 -3.08503 1.3538 0
M  V30 3099 O 294.137 -3.95805 0.685641 0
M  V30 3100 N 292.343 -2.68831 1.10355 0
M  V30 3101 H 291.89 -1.97929 1.64869 0
M  V30 3102 H 291.848 -3.12412 0.353031 0
M  V30 3103 N 295.62 -1.53406 -0.361157 0
M  V30 3104 C 296.55 -1.83136 -1.44857 0
M  V30 3105 C 297.531 -0.685174 -1.5569 0
M  V30 3106 O 298.716 -0.93544 -1.70186 0
M  V30 3107 C 295.846 -2.02522 -2.82138 0
M  V30 3108 C 294.8 -3.18302 -2.86126 0
M  V30 3109 C 294.126 -3.22989 -4.26125 0
M  V30 3110 C 295.426 -4.56796 -2.53248 0
M  V30 3111 H 297.12 -2.74201 -1.20226 0
M  V30 3112 H 294.666 -1.31938 -0.576922 0
M  V30 3113 H 296.619 -2.21904 -3.58241 0
M  V30 3114 H 295.343 -1.08172 -3.08166 0
M  V30 3115 H 294.002 -2.98747 -2.12475 0
M  V30 3116 H 293.65 -2.26267 -4.49235 0
M  V30 3117 H 293.35 -4.00781 -4.29708 0
M  V30 3118 H 294.874 -3.44559 -5.04094 0
M  V30 3119 H 296.288 -4.7631 -3.19064 0
M  V30 3120 H 294.685 -5.36862 -2.68141 0
M  V30 3121 H 295.755 -4.61606 -1.48484 0
M  V30 3122 N 297.098 0.621204 -1.44841 0
M  V30 3123 C 298.028 1.74366 -1.55303 0
M  V30 3124 C 299.009 1.65199 -0.405385 0
M  V30 3125 O 300.194 1.83807 -0.626787 0
M  V30 3126 C 297.324 3.12931 -1.50637 0
M  V30 3127 C 296.278 3.36896 -2.63979 0
M  V30 3128 C 295.604 4.75594 -2.44366 0
M  V30 3129 C 296.904 3.28483 -4.06074 0
M  V30 3130 H 298.598 1.65867 -2.49256 0
M  V30 3131 H 296.144 0.796558 -1.19962 0
M  V30 3132 H 298.097 3.9124 -1.56555 0
M  V30 3133 H 296.821 3.22237 -0.532057 0
M  V30 3134 H 295.48 2.60972 -2.57467 0
M  V30 3135 H 295.128 4.81616 -1.45105 0
M  V30 3136 H 294.828 4.92586 -3.20364 0
M  V30 3137 H 296.352 5.5612 -2.52117 0
M  V30 3138 H 297.766 3.96684 -4.13902 0
M  V30 3139 H 296.163 3.57008 -4.82354 0
M  V30 3140 H 297.233 2.26133 -4.28943 0
M  V30 3141 N 298.576 1.31904 0.862503 0
M  V30 3142 C 299.506 1.22782 1.98612 0
M  V30 3143 C 300.487 0.113362 1.69722 0
M  V30 3144 O 301.672 0.299218 1.91881 0
M  V30 3145 C 298.802 0.942058 3.34279 0
M  V30 3146 C 297.756 2.0169 3.77499 0
M  V30 3147 C 297.082 1.58369 5.10709 0
M  V30 3148 C 298.382 3.43096 3.93805 0
M  V30 3149 H 300.076 2.16788 2.06502 0
M  V30 3150 H 297.622 1.04366 0.992154 0
M  V30 3151 H 299.575 0.864818 4.1243 0
M  V30 3152 H 298.299 -0.0336603 3.26583 0
M  V30 3153 H 296.958 2.08416 3.01593 0
M  V30 3154 H 296.606 0.595628 4.99461 0
M  V30 3155 H 296.306 2.30279 5.40597 0
M  V30 3156 H 297.83 1.52067 5.91361 0
M  V30 3157 H 299.244 3.39003 4.62331 0
M  V30 3158 H 297.641 4.13288 4.35101 0
M  V30 3159 H 298.711 3.83334 2.96957 0
M  V30 3160 N 300.054 -1.07777 1.14986 0
M  V30 3161 C 301.331 -1.7699 0.832695 0
M  V30 3162 C 301.711 -2.001 -0.672561 0
M  V30 3163 O 301.059 -1.61598 -1.6155 0
M  V30 3164 C 301.269 -3.08139 1.63863 0
M  V30 3165 C 302.617 -3.8256 1.84208 0
M  V30 3166 O 303.641 -3.17939 1.60603 0
M  V30 3167 O 302.5 -4.98612 2.23714 0
M  V30 3168 H 299.594 -0.768389 0.305791 0
M  V30 3169 H 302.14 -1.14182 1.25541 0
M  V30 3170 H 300.912 -2.86909 2.6608 0
M  V30 3171 H 300.535 -3.78678 1.21197 0
M  V30 3172 N 301.532 -0.945985 -1.26051 0
M  V30 3173 C 302.76 -0.613025 -1.9761 0
M  V30 3174 C 303.175 0.813035 -1.70397 0
M  V30 3175 O 302.532 1.54274 -0.974979 0
M  V30 3176 C 302.583 -0.85159 -3.51326 0
M  V30 3177 O 302.304 -2.22157 -3.77595 0
M  V30 3178 C 303.805 -0.529831 -4.40122 0
M  V30 3179 H 301.025 -0.230593 -0.630133 0
M  V30 3180 H 303.569 -1.268 -1.60443 0
M  V30 3181 H 301.724 -0.243151 -3.86636 0
M  V30 3182 H 302.138 -2.2852 -4.721 0
M  V30 3183 H 303.612 -0.747348 -5.46917 0
M  V30 3184 H 304.089 0.535341 -4.35925 0
M  V30 3185 H 304.695 -1.11721 -4.10364 0
M  V30 3186 N 303.011 1.40521 -0.713556 0
M  V30 3187 C 303.941 2.33381 -0.0743864 0
M  V30 3188 C 304.922 1.52784 0.747735 0
M  V30 3189 O 306.107 1.81258 0.697071 0
M  V30 3190 C 303.237 3.36748 0.849598 0
M  V30 3191 C 302.191 4.27793 0.133247 0
M  V30 3192 C 301.517 5.21679 1.17281 0
M  V30 3193 C 302.817 5.12415 -1.01134 0
M  V30 3194 H 304.511 2.87081 -0.850007 0
M  V30 3195 H 302.057 1.38034 -0.410201 0
M  V30 3196 H 304.01 4.00648 1.30612 0
M  V30 3197 H 302.734 2.81439 1.65709 0
M  V30 3198 H 301.393 3.65342 -0.303426 0
M  V30 3199 H 301.041 4.62677 1.9733 0
M  V30 3200 H 300.741 5.83435 0.698397 0
M  V30 3201 H 302.265 5.88456 1.62947 0
M  V30 3202 H 303.679 5.69781 -0.634274 0
M  V30 3203 H 302.076 5.83203 -1.41399 0
M  V30 3204 H 303.146 4.48514 -1.84292 0
M  V30 3205 N 304.489 0.459591 1.5075 0
M  V30 3206 C 305.9 0.00171547 1.867 0
M  V30 3207 C 306.251 -1.39934 1.37525 0
M  V30 3208 O 305.376 -2.03523 0.735349 0
M  V30 3209 C 305.971 -0.00366298 3.388 0
M  V30 3210 C 304.53 -0.406026 3.74204 0
M  V30 3211 C 303.677 0.38673 2.7459 0
M  V30 3212 H 306.628 0.674413 1.43657 0
M  V30 3213 H 306.649 -0.808371 3.71814 0
M  V30 3214 H 306.161 1.01617 3.74561 0
M  V30 3215 H 304.262 -1.43063 3.4404 0
M  V30 3216 H 304.375 -0.115362 4.78961 0
M  V30 3217 H 302.739 -0.158019 2.54209 0
M  V30 3218 H 303.522 1.40585 3.13194 0
M  V30 3219 N 305.967 -1.56429 0.191757 0
M  V30 3220 C 306.9 -2.14829 -0.76967 0
M  V30 3221 C 307.878 -1.08405 -1.2119 0
M  V30 3222 O 309.062 -1.36498 -1.30002 0
M  V30 3223 C 306.189 -2.70446 -2.03903 0
M  V30 3224 C 305.235 -3.89428 -1.7392 0
M  V30 3225 S 306.068 -5.28048 -0.890265 0
M  V30 3226 C 307.224 -5.87085 -2.16984 0
M  V30 3227 H 307.457 -2.96042 -0.273204 0
M  V30 3228 H 304.99 -1.54383 -0.0231975 0
M  V30 3229 H 306.948 -3.03134 -2.76803 0
M  V30 3230 H 305.609 -1.89281 -2.50662 0
M  V30 3231 H 304.802 -4.26742 -2.68155 0
M  V30 3232 H 304.404 -3.57732 -1.09103 0
M  V30 3233 H 306.696 -6.01244 -3.12269 0
M  V30 3234 H 307.639 -6.83747 -1.84108 0
M  V30 3235 H 308.047 -5.15663 -2.29678 0
M  V30 3236 N 307.445 0.0818655 -1.57387 0
M  V30 3237 C 308.375 1.09885 -2.06028 0
M  V30 3238 C 309.356 1.4098 -0.951774 0
M  V30 3239 O 310.541 1.50781 -1.22387 0
M  V30 3240 C 307.671 2.4151 -2.4958 0
M  V30 3241 C 306.625 2.24792 -3.64215 0
M  V30 3242 C 305.951 3.61712 -3.93787 0
M  V30 3243 C 307.251 1.67749 -4.94629 0
M  V30 3244 H 308.945 0.694128 -2.91243 0
M  V30 3245 H 306.491 0.332448 -1.4011 0
M  V30 3246 H 308.444 3.12939 -2.82219 0
M  V30 3247 H 307.168 2.83943 -1.61381 0
M  V30 3248 H 305.827 1.55807 -3.31843 0
M  V30 3249 H 305.475 4.01697 -3.02735 0
M  V30 3250 H 305.175 3.51368 -4.70971 0
M  V30 3251 H 306.699 4.34587 -4.28913 0
M  V30 3252 H 308.113 2.29032 -5.25564 0
M  V30 3253 H 306.51 1.68128 -5.76067 0
M  V30 3254 H 307.58 0.638059 -4.80684 0
M  V30 3255 N 308.923 1.53595 0.353017 0
M  V30 3256 C 310.171 1.70049 1.09215 0
M  V30 3257 C 310.492 0.461406 1.89463 0
M  V30 3258 O 309.762 -0.524633 1.88744 0
M  V30 3259 H 308.342 0.626912 0.40619 0
M  V30 3260 H 311.004 1.90822 0.396585 0
M  V30 3261 H 310.1 2.56718 1.77488 0
M  V30 3262 N 310.401 -0.613514 1.45168 0
M  V30 3263 C 311.349 -1.74572 1.53712 0
M  V30 3264 C 312.343 -1.64426 0.407505 0
M  V30 3265 O 313.549 -1.70291 0.583176 0
M  V30 3266 H 309.924 -0.576641 0.48269 0
M  V30 3267 H 311.895 -1.64492 2.48968 0
M  V30 3268 C 310.644 -3.12943 1.51532 0
M  V30 3269 H 309.967 -3.21407 2.37776 0
M  V30 3270 H 311.407 -3.9201 1.61569 0
M  V30 3271 C 309.866 -3.36053 0.238798 0
M  V30 3272 O 310.396 -3.95837 -0.6838 0
M  V30 3273 N 308.602 -2.9028 0.136359 0
M  V30 3274 H 308.149 -2.41811 0.887999 0
M  V30 3275 H 308.107 -3.06116 -0.716944 0
M  V30 3276 N 311.879 -1.3236 -0.855495 0
M  V30 3277 C 313.125 -1.23054 -1.612 0
M  V30 3278 C 313.458 0.207404 -1.93089 0
M  V30 3279 O 312.733 1.14432 -1.57275 0
M  V30 3280 C 313.016 -2.08937 -2.93287 0
M  V30 3281 C 312.869 -3.61105 -2.68185 0
M  V30 3282 C 314.188 -1.94986 -3.94549 0
M  V30 3283 H 311.307 -0.448364 -0.584926 0
M  V30 3284 H 313.949 -1.62297 -0.987917 0
M  V30 3285 H 312.099 -1.75599 -3.46551 0
M  V30 3286 H 313.771 -4.04652 -2.21483 0
M  V30 3287 H 312.014 -3.83813 -2.02164 0
M  V30 3288 H 312.685 -4.16522 -3.62234 0
M  V30 3289 H 315.161 -2.24189 -3.5054 0
M  V30 3290 H 314.037 -2.57356 -4.84829 0
M  V30 3291 H 314.298 -0.917263 -4.3248 0
M  V30 3292 N 313.357 1.07166 -1.15556 0
M  V30 3293 C 314.287 2.16403 -0.877046 0
M  V30 3294 C 315.268 1.69217 0.173111 0
M  V30 3295 O 316.453 1.94181 0.027084 0
M  V30 3296 C 313.583 3.45349 -0.367632 0
M  V30 3297 C 312.537 4.05995 -1.35468 0
M  V30 3298 C 311.863 5.30045 -0.704038 0
M  V30 3299 C 313.163 4.45804 -2.72132 0
M  V30 3300 H 314.857 2.39959 -1.79053 0
M  V30 3301 H 312.403 1.15325 -0.862331 0
M  V30 3302 H 314.356 4.21095 -0.160317 0
M  V30 3303 H 313.08 3.21385 0.581326 0
M  V30 3304 H 311.739 3.32296 -1.54839 0
M  V30 3305 H 311.387 5.02373 0.251128 0
M  V30 3306 H 311.087 5.71579 -1.36277 0
M  V30 3307 H 312.611 6.08495 -0.50654 0
M  V30 3308 H 314.025 5.12671 -2.56595 0
M  V30 3309 H 312.422 4.98296 -3.34397 0
M  V30 3310 H 313.492 3.57083 -3.28054 0
M  V30 3311 N 314.835 0.952656 1.25548 0
M  V30 3312 C 315.765 0.489287 2.28316 0
M  V30 3313 C 316.746 -0.463359 1.63667 0
M  V30 3314 O 317.931 -0.36274 1.90782 0
M  V30 3315 C 315.061 -0.235603 3.465 0
M  V30 3316 C 314.015 0.631593 4.23314 0
M  V30 3317 C 313.341 -0.223923 5.34231 0
M  V30 3318 C 314.641 1.90871 4.86174 0
M  V30 3319 H 316.335 1.34822 2.67326 0
M  V30 3320 H 313.881 0.649728 1.28509 0
M  V30 3321 H 315.834 -0.570882 4.17515 0
M  V30 3322 H 314.558 -1.12877 3.06474 0
M  V30 3323 H 313.217 0.949929 3.54079 0
M  V30 3324 H 312.865 -1.11678 4.90446 0
M  V30 3325 H 312.565 0.35299 5.86539 0
M  V30 3326 H 314.089 -0.554214 6.0808 0
M  V30 3327 H 315.503 1.63997 5.49343 0
M  V30 3328 H 313.9 2.43112 5.4865 0
M  V30 3329 H 314.97 2.61304 4.08471 0
M  V30 3330 N 316.313 -1.40141 0.720998 0
M  V30 3331 C 317.243 -2.33339 0.0867621 0
M  V30 3332 C 318.224 -1.53178 -0.739622 0
M  V30 3333 O 319.409 -1.81625 -0.687449 0
M  V30 3334 C 316.539 -3.37194 -0.831728 0
M  V30 3335 C 315.493 -4.27857 -0.110558 0
M  V30 3336 C 314.819 -5.22294 -1.14513 0
M  V30 3337 C 316.119 -5.11872 1.0385 0
M  V30 3338 H 317.813 -2.86626 0.865219 0
M  V30 3339 H 315.359 -1.37814 0.417516 0
M  V30 3340 H 317.312 -4.01335 -1.28485 0
M  V30 3341 H 316.036 -2.82314 -1.64214 0
M  V30 3342 H 314.695 -3.65176 0.322797 0
M  V30 3343 H 314.343 -4.63717 -1.94874 0
M  V30 3344 H 314.043 -5.83797 -0.667446 0
M  V30 3345 H 315.567 -5.89312 -1.59824 0
M  V30 3346 H 316.981 -5.69436 0.664482 0
M  V30 3347 H 315.378 -5.82445 1.4449 0
M  V30 3348 H 316.448 -4.4753 1.86668 0
M  V30 3349 N 317.792 -0.46758 -1.50504 0
M  V30 3350 C 319.032 0.0874114 -2.04213 0
M  V30 3351 C 319.396 1.37301 -1.34211 0
M  V30 3352 O 320.597 2.01015 -1.78456 0
M  V30 3353 C 318.868 0.270571 -3.56374 0
M  V30 3354 S 320.427 0.784623 -4.31728 0
M  V30 3355 H 317.245 0.0176153 -0.710782 0
M  V30 3356 H 319.847 -0.633915 -1.84937 0
M  V30 3357 H 318.551 -0.670942 -4.04878 0
M  V30 3358 H 318.082 1.01811 -3.79997 0
M  V30 3359 H 320.097 2.05849 -4.51487 0
M  V30 3360 N 319.27 1.56325 -0.20005 0
M  V30 3361 C 320.517 1.97719 0.437411 0
M  V30 3362 C 320.845 1.08709 1.61284 0
M  V30 3363 O 320.1 0.127261 1.95286 0
M  V30 3364 C 320.399 3.4495 0.935103 0
M  V30 3365 C 320.065 4.5072 -0.12749 0
M  V30 3366 C 318.727 4.79368 -0.419451 0
M  V30 3367 C 321.079 5.14268 -0.847231 0
M  V30 3368 C 318.407 5.68854 -1.43604 0
M  V30 3369 C 320.759 6.04852 -1.85301 0
M  V30 3370 C 319.423 6.31855 -2.15211 0
M  V30 3371 H 318.693 0.723507 0.16006 0
M  V30 3372 H 321.34 1.89166 -0.298056 0
M  V30 3373 H 319.645 3.50599 1.74894 0
M  V30 3374 H 321.342 3.74337 1.43781 0
M  V30 3375 H 317.932 4.28458 0.11023 0
M  V30 3376 H 322.116 4.92222 -0.634901 0
M  V30 3377 H 317.372 5.88047 -1.67364 0
M  V30 3378 H 321.546 6.53152 -2.41591 0
M  V30 3379 H 319.173 7.00994 -2.94129 0
M  V30 3380 N 320.748 -0.0735177 1.57428 0
M  V30 3381 C 321.995 -0.772999 1.87166 0
M  V30 3382 C 322.323 -1.77665 0.791551 0
M  V30 3383 O 321.578 -1.94541 -0.212636 0
M  V30 3384 C 321.877 -1.51799 3.23561 0
M  V30 3385 C 321.543 -0.654484 4.46125 0
M  V30 3386 C 320.205 -0.416511 4.79394 0
M  V30 3387 C 322.557 -0.0555862 5.2117 0
M  V30 3388 C 319.885 0.429869 5.85123 0
M  V30 3389 C 322.237 0.778239 6.27795 0
M  V30 3390 C 320.901 1.0261 6.59566 0
M  V30 3391 H 320.171 -0.282861 0.684888 0
M  V30 3392 H 322.818 -0.0338272 1.9147 0
M  V30 3393 H 321.123 -2.32932 3.1504 0
M  V30 3394 H 322.82 -2.06397 3.43804 0
M  V30 3395 H 319.41 -0.850091 4.20085 0
M  V30 3396 H 323.594 -0.226558 4.95783 0
M  V30 3397 H 318.85 0.630665 6.08139 0
M  V30 3398 H 323.024 1.24906 6.85107 0
M  V30 3399 H 320.651 1.68371 7.4132 0
M  V30 3400 N 322.226 -1.5378 -0.344866 0
M  V30 3401 C 323.472 -1.71216 -1.08687 0
M  V30 3402 C 323.805 -0.473281 -1.88345 0
M  V30 3403 O 323.08 0.52968 -1.87149 0
M  V30 3404 C 323.363 -2.97486 -2.02914 0
M  V30 3405 C 323.216 -4.31579 -1.26727 0
M  V30 3406 C 324.535 -3.19422 -3.0275 0
M  V30 3407 H 321.654 -0.62301 -0.393735 0
M  V30 3408 H 324.296 -1.8645 -0.365563 0
M  V30 3409 H 322.446 -2.84629 -2.64421 0
M  V30 3410 H 324.118 -4.56284 -0.67845 0
M  V30 3411 H 322.361 -4.30049 -0.569273 0
M  V30 3412 H 323.032 -5.16106 -1.95803 0
M  V30 3413 H 325.508 -3.316 -2.51357 0
M  V30 3414 H 324.384 -4.09169 -3.65885 0
M  V30 3415 H 324.645 -2.35656 -3.74057 0
M  V30 3416 N 323.704 0.605807 -1.45491 0
M  V30 3417 C 324.951 1.36476 -1.49601 0
M  V30 3418 C 325.279 1.94007 -0.138452 0
M  V30 3419 O 324.534 1.75638 0.863114 0
M  V30 3420 C 324.833 2.53012 -2.52428 0
M  V30 3421 C 324.499 2.13617 -3.97087 0
M  V30 3422 C 323.161 2.02587 -4.36477 0
M  V30 3423 C 325.513 1.82899 -4.88055 0
M  V30 3424 C 322.841 1.59064 -5.64726 0
M  V30 3425 C 325.193 1.40861 -6.16718 0
M  V30 3426 C 323.857 1.28391 -6.55036 0
M  V30 3427 H 323.127 0.499402 -0.547429 0
M  V30 3428 H 325.774 0.684546 -1.78847 0
M  V30 3429 H 324.079 3.26379 -2.16758 0
M  V30 3430 H 325.776 3.1124 -2.52845 0
M  V30 3431 H 322.366 2.23129 -3.65939 0
M  V30 3432 H 326.55 1.90317 -4.58359 0
M  V30 3433 H 321.806 1.48034 -5.93208 0
M  V30 3434 H 325.98 1.16138 -6.86648 0
M  V30 3435 H 323.607 0.944403 -7.54311 0
M  V30 3436 N 325.182 1.32811 0.848464 0
M  V30 3437 C 326.429 1.23724 1.60308 0
M  V30 3438 C 326.757 -0.1994 1.93475 0
M  V30 3439 O 326.012 -1.15406 1.5805 0
M  V30 3440 C 326.311 2.04831 2.92881 0
M  V30 3441 C 325.977 3.54125 2.79117 0
M  V30 3442 C 324.639 3.94829 2.7507 0
M  V30 3443 C 326.991 4.49036 2.64606 0
M  V30 3444 C 324.319 5.28675 2.544 0
M  V30 3445 C 326.671 5.83033 2.4547 0
M  V30 3446 C 325.335 6.22931 2.39819 0
M  V30 3447 H 324.605 0.452737 0.586609 0
M  V30 3448 H 327.252 1.64301 0.983743 0
M  V30 3449 H 325.557 1.57001 3.58968 0
M  V30 3450 H 327.254 1.95164 3.50303 0
M  V30 3451 H 323.844 3.21801 2.83094 0
M  V30 3452 H 328.028 4.18505 2.66772 0
M  V30 3453 H 323.284 5.58637 2.48465 0
M  V30 3454 H 327.458 6.56186 2.33222 0
M  V30 3455 H 325.085 7.26584 2.23562 0
M  V30 3456 N 326.66 -1.06551 1.16123 0
M  V30 3457 C 327.909 -1.78687 0.935622 0
M  V30 3458 C 328.222 -1.88056 -0.538001 0
M  V30 3459 O 329.428 -2.56794 -0.88143 0
M  V30 3460 C 327.884 -3.21143 1.62466 0
M  V30 3461 C 327.492 -3.19949 3.13587 0
M  V30 3462 C 329.236 -3.9783 1.48092 0
M  V30 3463 C 327.143 -4.57108 3.75241 0
M  V30 3464 H 326.073 -0.669712 0.346412 0
M  V30 3465 H 328.724 -1.19534 1.39226 0
M  V30 3466 H 327.106 -3.80539 1.09572 0
M  V30 3467 H 328.28 -2.70151 3.73303 0
M  V30 3468 H 326.595 -2.5676 3.27816 0
M  V30 3469 H 329.192 -4.99217 1.91538 0
M  V30 3470 H 329.535 -4.14078 0.429507 0
M  V30 3471 H 330.068 -3.4495 1.98127 0
M  V30 3472 H 326.807 -4.46065 4.80319 0
M  V30 3473 H 326.327 -5.07111 3.20309 0
M  V30 3474 H 328.006 -5.26069 3.76644 0
M  V30 3475 N 328.138 -0.959301 -1.25041 0
M  V30 3476 C 329.385 -0.616611 -1.92884 0
M  V30 3477 C 329.713 0.847036 -1.75087 0
M  V30 3478 O 328.968 1.62374 -1.09239 0
M  V30 3479 C 329.267 -0.927136 -3.45165 0
M  V30 3480 C 328.933 -2.37757 -3.83122 0
M  V30 3481 C 327.595 -2.77402 -3.93194 0
M  V30 3482 C 329.947 -3.31929 -4.01836 0
M  V30 3483 C 327.275 -4.10277 -4.19392 0
M  V30 3484 C 329.627 -4.64423 -4.29528 0
M  V30 3485 C 328.291 -5.03857 -4.37818 0
M  V30 3486 H 327.561 -0.225634 -0.705812 0
M  V30 3487 H 330.208 -1.20921 -1.48493 0
M  V30 3488 H 328.513 -0.252195 -3.90987 0
M  V30 3489 H 330.21 -0.6405 -3.95852 0
M  V30 3490 H 326.8 -2.06013 -3.75841 0
M  V30 3491 H 330.984 -3.02488 -3.93465 0
M  V30 3492 H 326.24 -4.40467 -4.24027 0
M  V30 3493 H 330.414 -5.37369 -4.42953 0
M  V30 3494 H 328.041 -6.06843 -4.57871 0
M  V30 3495 N 329.616 1.39756 -0.72842 0
M  V30 3496 C 330.864 2.00248 -0.272946 0
M  V30 3497 C 331.185 1.58077 1.14178 0
M  V30 3498 O 330.455 0.826014 1.77634 0
M  V30 3499 H 329.035 0.740554 -0.0979247 0
M  V30 3500 H 331.697 1.70903 -0.936912 0
M  V30 3501 H 330.793 3.10495 -0.316142 0
M  V30 3502 N 331.094 0.475555 1.50254 0
M  V30 3503 C 332.343 -0.0795996 2.01543 0
M  V30 3504 C 332.656 -1.4038 1.36209 0
M  V30 3505 O 333.862 -2.04415 1.7868 0
M  V30 3506 C 332.318 -0.192363 3.59386 0
M  V30 3507 C 331.926 1.12367 4.33679 0
M  V30 3508 C 333.67 -0.699238 4.18701 0
M  V30 3509 C 331.577 0.974453 5.83317 0
M  V30 3510 H 330.507 -0.0335228 0.753254 0
M  V30 3511 H 333.158 0.611128 1.73025 0
M  V30 3512 H 331.54 -0.946974 3.84511 0
M  V30 3513 H 332.714 1.88958 4.20276 0
M  V30 3514 H 331.029 1.562 3.85993 0
M  V30 3515 H 333.626 -0.827978 5.28251 0
M  V30 3516 H 333.969 -1.69171 3.80377 0
M  V30 3517 H 334.502 -0.00188807 3.978 0
M  V30 3518 H 331.241 1.94042 6.26121 0
M  V30 3519 H 330.761 0.248998 5.99283 0
M  V30 3520 H 332.44 0.642867 6.43798 0
M  V30 3521 N 332.573 -1.56217 0.208337 0
M  V30 3522 C 333.822 -1.97124 -0.427204 0
M  V30 3523 C 334.135 -1.09859 -1.61835 0
M  V30 3524 O 335.341 -1.40606 -2.32255 0
M  V30 3525 C 333.797 -3.50633 -0.811442 0
M  V30 3526 C 333.405 -4.46582 0.35615 0
M  V30 3527 C 335.149 -4.00282 -1.41332 0
M  V30 3528 C 333.056 -5.91379 -0.0497852 0
M  V30 3529 H 331.986 -0.736086 -0.163381 0
M  V30 3530 H 334.637 -1.8099 0.302456 0
M  V30 3531 H 333.019 -3.62319 -1.59815 0
M  V30 3532 H 334.193 -4.46636 1.1337 0
M  V30 3533 H 332.508 -4.07202 0.870396 0
M  V30 3534 H 335.105 -5.0595 -1.72972 0
M  V30 3535 H 335.448 -3.45359 -2.32449 0
M  V30 3536 H 335.981 -3.91764 -0.690323 0
M  V30 3537 H 332.72 -6.50255 0.827529 0
M  V30 3538 H 332.24 -5.94549 -0.791926 0
M  V30 3539 H 333.919 -6.45209 -0.481042 0
M  V30 3540 N 334.051 0.0651679 -1.57465 0
M  V30 3541 C 335.299 0.761555 -1.87202 0
M  V30 3542 C 335.62 1.77778 -0.801243 0
M  V30 3543 O 334.89 1.95166 0.16937 0
M  V30 3544 H 333.47 0.284251 -0.690804 0
M  V30 3545 H 336.132 0.0396827 -1.9486 0
M  V30 3546 H 335.228 1.27365 -2.84929 0
M  V30 3547 N 335.529 1.53961 0.336706 0
M  V30 3548 C 336.775 1.7179 1.07777 0
M  V30 3549 C 337.108 0.483263 1.88091 0
M  V30 3550 O 336.383 -0.519747 1.87427 0
M  V30 3551 C 336.666 2.98558 2.01334 0
M  V30 3552 C 336.519 4.32245 1.24437 0
M  V30 3553 C 337.838 3.21023 3.01052 0
M  V30 3554 H 334.957 0.625089 0.390426 0
M  V30 3555 H 337.599 1.86641 0.35567 0
M  V30 3556 H 335.749 2.86028 2.62908 0
M  V30 3557 H 337.421 4.56637 0.654243 0
M  V30 3558 H 335.664 4.30344 0.546458 0
M  V30 3559 H 336.335 5.17137 1.93063 0
M  V30 3560 H 338.811 3.32929 2.49595 0
M  V30 3561 H 337.687 4.11104 3.6371 0
M  V30 3562 H 337.948 2.37637 3.72802 0
M  V30 3563 N 337.007 -0.598083 1.45811 0
M  V30 3564 C 337.939 -1.72231 1.51225 0
M  V30 3565 C 338.952 -1.57757 0.402059 0
M  V30 3566 O 340.141 -1.65464 0.669624 0
M  V30 3567 C 337.241 -3.10331 1.3619 0
M  V30 3568 C 336.414 -3.50955 2.61054 0
M  V30 3569 C 335.473 -4.68055 2.40439 0
M  V30 3570 O 334.499 -4.74691 3.14097 0
M  V30 3571 N 335.701 -5.61941 1.45612 0
M  V30 3572 H 338.466 -1.68046 2.48154 0
M  V30 3573 H 336.027 -0.783637 1.41671 0
M  V30 3574 H 338.019 -3.86439 1.20195 0
M  V30 3575 H 336.589 -3.0897 0.475015 0
M  V30 3576 H 335.809 -2.64711 2.92099 0
M  V30 3577 H 337.097 -3.74858 3.44034 0
M  V30 3578 H 336.495 -5.59301 0.848431 0
M  V30 3579 H 335.052 -6.37542 1.35585 0
M  V30 3580 N 338.485 -1.33259 -0.841409 0
M  V30 3581 C 339.415 -1.25926 -1.96634 0
M  V30 3582 C 340.396 -0.140349 -1.6952 0
M  V30 3583 O 341.581 -0.329707 -1.91381 0
M  V30 3584 C 338.711 -0.99512 -3.32738 0
M  V30 3585 C 337.665 -2.0767 -3.74242 0
M  V30 3586 C 336.991 -1.66474 -5.08125 0
M  V30 3587 C 338.291 -3.49318 -3.88297 0
M  V30 3588 H 339.985 -2.20046 -2.03027 0
M  V30 3589 H 337.531 -1.05931 -0.975425 0
M  V30 3590 H 339.484 -0.930323 -4.11002 0
M  V30 3591 H 338.208 -0.0183004 -3.26595 0
M  V30 3592 H 336.867 -2.13187 -2.98239 0
M  V30 3593 H 336.515 -0.675012 -4.9845 0
M  V30 3594 H 336.215 -2.3885 -5.36865 0
M  V30 3595 H 337.739 -1.61455 -5.88867 0
M  V30 3596 H 339.153 -3.46316 -4.56879 0
M  V30 3597 H 337.55 -4.20158 -4.28471 0
M  V30 3598 H 338.62 -3.8801 -2.9082 0
M  V30 3599 N 339.963 1.05934 -1.16686 0
M  V30 3600 C 341.209 1.79211 -0.962023 0
M  V30 3601 C 341.564 1.85667 0.504545 0
M  V30 3602 O 340.857 1.33991 1.36956 0
M  V30 3603 C 341.051 3.23105 -1.52767 0
M  V30 3604 C 340.88 3.30673 -3.04771 0
M  V30 3605 C 339.65 3.40395 -3.73442 0
M  V30 3606 C 341.848 3.20234 -4.02436 0
M  V30 3607 N 339.83 3.37015 -5.13122 0
M  V30 3608 C 341.201 3.24138 -5.28521 0
M  V30 3609 C 343.256 3.04143 -3.9421 0
M  V30 3610 C 341.959 3.13607 -6.47336 0
M  V30 3611 C 343.985 2.94951 -5.12599 0
M  V30 3612 C 343.347 2.99481 -6.37566 0
M  V30 3613 H 339.446 0.668442 -0.405844 0
M  V30 3614 H 342.03 1.26341 -1.48142 0
M  V30 3615 H 340.201 3.74364 -1.03471 0
M  V30 3616 H 341.933 3.84579 -1.26021 0
M  V30 3617 H 338.688 3.45344 -3.2409 0
M  V30 3618 H 339.112 3.38815 -5.86117 0
M  V30 3619 H 343.754 2.99484 -2.98445 0
M  V30 3620 H 341.472 3.17022 -7.43319 0
M  V30 3621 H 345.058 2.83583 -5.08008 0
M  V30 3622 H 343.938 2.92431 -7.27636 0
M  V30 3623 N 341.441 0.965919 1.2453 0
M  V30 3624 C 342.404 0.499547 2.2369 0
M  V30 3625 C 343.404 -0.40294 1.5567 0
M  V30 3626 O 344.594 -0.19865 1.73064 0
M  V30 3627 C 341.726 -0.276792 3.39774 0
M  V30 3628 H 342.919 1.37613 2.66463 0
M  V30 3629 H 340.472 0.750324 1.37112 0
M  V30 3630 H 341.207 -1.17055 3.02438 0
M  V30 3631 H 340.992 0.370826 3.90343 0
M  V30 3632 H 342.482 -0.592175 4.1338 0
M  V30 3633 N 342.919 -1.39368 0.735821 0
M  V30 3634 C 344.167 -2.00101 0.283562 0
M  V30 3635 C 344.488 -1.5868 -1.13338 0
M  V30 3636 O 343.758 -0.835423 -1.77193 0
M  V30 3637 H 342.338 -0.740024 0.101851 0
M  V30 3638 H 345 -1.70404 0.945962 0
M  V30 3639 H 344.096 -3.10323 0.332604 0
M  V30 3640 N 344.397 -0.483516 -1.5 0
M  V30 3641 C 345.327 0.293829 -2.31644 0
M  V30 3642 C 346.308 0.978864 -1.39112 0
M  V30 3643 O 347.493 0.973644 -1.68029 0
M  V30 3644 C 344.623 1.36897 -3.19181 0
M  V30 3645 C 343.577 0.804833 -4.20365 0
M  V30 3646 C 342.903 1.9792 -4.96721 0
M  V30 3647 C 344.203 -0.192313 -5.21946 0
M  V30 3648 H 345.897 -0.387616 -2.9688 0
M  V30 3649 H 343.443 -0.187856 -1.42769 0
M  V30 3650 H 345.396 1.92037 -3.751 0
M  V30 3651 H 344.12 2.07936 -2.51853 0
M  V30 3652 H 342.779 0.275319 -3.65565 0
M  V30 3653 H 342.427 2.67686 -4.25856 0
M  V30 3654 H 342.127 1.60789 -5.65173 0
M  V30 3655 H 343.651 2.53526 -5.55479 0
M  V30 3656 H 345.065 0.270333 -5.72662 0
M  V30 3657 H 343.462 -0.478543 -5.98189 0
M  V30 3658 H 344.532 -1.11409 -4.71928 0
M  V30 3659 N 345.875 1.56104 -0.216619 0
M  V30 3660 C 346.805 2.23063 0.690296 0
M  V30 3661 C 347.786 1.20072 1.20485 0
M  V30 3662 O 348.971 1.48643 1.24976 0
M  V30 3663 C 346.101 2.90672 1.90072 0
M  V30 3664 C 345.055 4.00092 1.5202 0
M  V30 3665 C 344.381 4.54972 2.80899 0
M  V30 3666 C 345.681 5.17398 0.71391 0
M  V30 3667 H 347.375 2.99109 0.132038 0
M  V30 3668 H 344.921 1.43866 0.0620664 0
M  V30 3669 H 346.874 3.36204 2.54057 0
M  V30 3670 H 345.598 2.12066 2.48386 0
M  V30 3671 H 344.257 3.55283 0.903839 0
M  V30 3672 H 343.905 3.73102 3.37348 0
M  V30 3673 H 343.605 5.28817 2.56176 0
M  V30 3674 H 345.129 5.0322 3.45836 0
M  V30 3675 H 346.543 5.59342 1.25735 0
M  V30 3676 H 344.94 5.97444 0.563951 0
M  V30 3677 H 346.01 4.84088 -0.280527 0
M  V30 3678 N 347.353 -0.0568162 1.57498 0
M  V30 3679 C 348.769 -0.411933 1.54192 0
M  V30 3680 C 348.969 -1.78287 0.938942 0
M  V30 3681 O 348.025 -2.46483 0.547919 0
M  V30 3682 C 349.338 -0.339244 2.9878 0
M  V30 3683 C 350.886 -0.418348 3.10192 0
M  V30 3684 C 351.361 -0.375407 4.56459 0
M  V30 3685 N 352.852 -0.435038 4.61153 0
M  V30 3686 C 353.587 -0.424265 5.71828 0
M  V30 3687 N 353.083 -0.367418 6.91825 0
M  V30 3688 N 354.876 -0.471938 5.60115 0
M  V30 3689 H 347.027 0.840684 1.95055 0
M  V30 3690 H 349.29 0.316987 0.893433 0
M  V30 3691 H 348.996 0.601742 3.46514 0
M  V30 3692 H 348.87 -1.14371 3.59443 0
M  V30 3693 H 351.257 -1.34976 2.62422 0
M  V30 3694 H 351.338 0.414962 2.52412 0
M  V30 3695 H 350.982 0.552219 5.04889 0
M  V30 3696 H 350.912 -1.22645 5.12119 0
M  V30 3697 H 353.403 -0.482612 3.74806 0
M  V30 3698 H 353.716 -0.363535 7.71944 0
M  V30 3699 H 352.061 -0.333879 6.94198 0
M  V30 3700 H 355.252 -0.514145 4.65268 0
M  V30 3701 H 355.425 -0.460073 6.46365 0
M  V30 3702 N 348.832 -1.54138 -0.328536 0
M  V30 3703 C 349.78 -1.83894 -1.42428 0
M  V30 3704 C 350.774 -0.710478 -1.53781 0
M  V30 3705 O 351.98 -0.894062 -1.56226 0
M  V30 3706 H 348.355 -0.582837 -0.475189 0
M  V30 3707 H 350.326 -2.75537 -1.14552 0
M  V30 3708 C 349.075 -2.07866 -2.78724 0
M  V30 3709 H 348.398 -2.94158 -2.7076 0
M  V30 3710 H 349.838 -2.32644 -3.54476 0
M  V30 3711 C 348.297 -0.868689 -3.25508 0
M  V30 3712 O 348.827 -0.0754908 -4.01629 0
M  V30 3713 N 347.033 -0.681711 -2.82491 0
M  V30 3714 H 346.58 -1.32838 -2.20708 0
M  V30 3715 H 346.538 0.126374 -3.14146 0
M  V30 3716 N 350.31 0.590341 -1.46126 0
M  V30 3717 C 351.726 0.912917 -1.30912 0
M  V30 3718 C 351.926 1.99616 -0.274893 0
M  V30 3719 O 350.982 2.50397 0.325197 0
M  V30 3720 C 352.295 1.3375 -2.69317 0
M  V30 3721 C 353.843 1.45077 -2.77348 0
M  V30 3722 C 354.318 1.90904 -4.16317 0
M  V30 3723 N 355.809 1.9811 -4.18696 0
M  V30 3724 C 356.544 2.34828 -5.23109 0
M  V30 3725 N 356.04 2.70393 -6.37856 0
M  V30 3726 N 357.833 2.35317 -5.10473 0
M  V30 3727 H 349.984 -0.125358 -2.1203 0
M  V30 3728 H 352.247 0.00658481 -0.947977 0
M  V30 3729 H 351.953 0.615614 -3.4627 0
M  V30 3730 H 351.827 2.30058 -2.9892 0
M  V30 3731 H 354.214 2.16353 -2.00687 0
M  V30 3732 H 354.295 0.4704 -2.51438 0
M  V30 3733 H 353.939 1.20209 -4.9347 0
M  V30 3734 H 353.869 2.89886 -4.39629 0
M  V30 3735 H 356.36 1.73146 -3.359 0
M  V30 3736 H 356.673 2.97341 -7.13308 0
M  V30 3737 H 355.018 2.68048 -6.41229 0
M  V30 3738 H 358.209 2.0695 -4.19868 0
M  V30 3739 H 358.382 2.63605 -5.9196 0
M  V30 3740 N 351.788 1.33704 0.83433 0
M  V30 3741 C 353.028 1.26754 1.60352 0
M  V30 3742 C 353.392 -0.163182 1.91305 0
M  V30 3743 O 354.593 -0.3567 2.66423 0
M  V30 3744 C 352.864 2.12262 2.8754 0
M  V30 3745 S 354.423 2.22549 3.78176 0
M  V30 3746 H 351.241 0.450879 0.549753 0
M  V30 3747 H 353.843 1.68788 0.986444 0
M  V30 3748 H 352.547 3.15238 2.62779 0
M  V30 3749 H 352.078 1.71082 3.54252 0
M  V30 3750 H 354.093 1.3899 4.76336 0
M  V30 3751 N 353.266 -1.05314 1.17247 0
M  V30 3752 C 354.513 -1.78293 0.960091 0
M  V30 3753 C 354.841 -1.87658 -0.51136 0
M  V30 3754 O 354.096 -1.3718 -1.39571 0
M  V30 3755 C 354.395 -3.2229 1.54479 0
M  V30 3756 C 354.061 -3.32987 3.04024 0
M  V30 3757 C 352.723 -3.35613 3.44844 0
M  V30 3758 C 355.075 -3.34102 4.00031 0
M  V30 3759 C 352.403 -3.36982 4.8027 0
M  V30 3760 C 354.755 -3.3701 5.35357 0
M  V30 3761 C 353.419 -3.37923 5.75642 0
M  V30 3762 H 352.689 -0.652422 0.351322 0
M  V30 3763 H 355.336 -1.23782 1.46117 0
M  V30 3764 H 353.641 -3.7972 0.965391 0
M  V30 3765 H 355.338 -3.77376 1.35603 0
M  V30 3766 H 351.928 -3.31655 2.71483 0
M  V30 3767 H 356.112 -3.31276 3.69554 0
M  V30 3768 H 351.368 -3.35999 5.10798 0
M  V30 3769 H 355.542 -3.36822 6.09528 0
M  V30 3770 H 353.169 -3.38738 6.80559 0
M  V30 3771 N 354.744 -0.972509 -1.24016 0
M  V30 3772 C 355.674 -0.525548 -2.27509 0
M  V30 3773 C 356.655 0.437262 -1.64384 0
M  V30 3774 O 357.84 0.332343 -1.91335 0
M  V30 3775 C 354.97 0.180448 -3.46831 0
M  V30 3776 C 353.924 -0.698859 -4.22256 0
M  V30 3777 C 353.25 0.138903 -5.3452 0
M  V30 3778 C 354.55 -1.98582 -4.83076 0
M  V30 3779 H 356.244 -1.39058 -2.65148 0
M  V30 3780 H 353.79 -0.67009 -1.27459 0
M  V30 3781 H 355.743 0.504387 -4.18371 0
M  V30 3782 H 354.467 1.07987 -3.08231 0
M  V30 3783 H 353.126 -1.00614 -3.52523 0
M  V30 3784 H 352.774 1.03862 -4.9216 0
M  V30 3785 H 352.474 -0.446259 -5.85903 0
M  V30 3786 H 353.998 0.457404 -6.08884 0
M  V30 3787 H 355.412 -1.72715 -5.46665 0
M  V30 3788 H 353.809 -2.5181 -5.44713 0
M  V30 3789 H 354.879 -2.67769 -4.04262 0
M  V30 3790 N 356.222 1.38976 -0.743202 0
M  V30 3791 C 357.132 2.3434 -0.110399 0
M  V30 3792 C 358.148 1.58741 0.712559 0
M  V30 3793 O 359.324 1.9099 0.639125 0
M  V30 3794 C 356.389 3.37812 0.780012 0
M  V30 3795 C 355.45 4.29263 -0.0561319 0
M  V30 3796 C 354.683 5.27793 0.791875 0
M  V30 3797 O 354.906 5.33043 2.03031 0
M  V30 3798 O 353.84 6.01512 0.216183 0
M  V30 3799 H 357.666 2.90129 -0.897714 0
M  V30 3800 H 355.251 1.40643 -0.503966 0
M  V30 3801 H 357.133 4.01194 1.28923 0
M  V30 3802 H 355.808 2.84395 1.546 0
M  V30 3803 H 354.715 3.69076 -0.611056 0
M  V30 3804 H 356.048 4.85907 -0.784531 0
M  V30 3805 N 357.7 0.491464 1.49741 0
M  V30 3806 C 358.61 -0.296835 2.32715 0
M  V30 3807 C 359.626 -0.976536 1.44013 0
M  V30 3808 O 360.802 -0.960023 1.77047 0
M  V30 3809 C 357.867 -1.35288 3.19215 0
M  V30 3810 C 356.928 -0.687632 4.23757 0
M  V30 3811 C 356.161 -1.69336 5.06123 0
M  V30 3812 O 356.384 -2.92219 4.89861 0
M  V30 3813 O 355.318 -1.25394 5.88693 0
M  V30 3814 H 359.144 0.382048 3.01287 0
M  V30 3815 H 356.729 0.252953 1.47243 0
M  V30 3816 H 358.611 -1.96411 3.72828 0
M  V30 3817 H 357.286 -2.01487 2.53347 0
M  V30 3818 H 356.193 -0.0369159 3.74082 0
M  V30 3819 H 357.526 -0.0682566 4.92153 0
M  V30 3820 N 359.178 -1.55987 0.224894 0
M  V30 3821 C 360.126 -2.21808 -0.700283 0
M  V30 3822 C 361.12 -1.19854 -1.19714 0
M  V30 3823 O 362.326 -1.37925 -1.15658 0
M  V30 3824 H 358.701 -0.711226 -0.244258 0
M  V30 3825 H 360.672 -2.98152 -0.121749 0
M  V30 3826 C 359.421 -2.91444 -1.8962 0
M  V30 3827 H 358.744 -3.69655 -1.52299 0
M  V30 3828 H 360.184 -3.40894 -2.52125 0
M  V30 3829 C 358.643 -1.94098 -2.75368 0
M  V30 3830 O 359.173 -1.46004 -3.74227 0
M  V30 3831 N 357.379 -1.61675 -2.41474 0
M  V30 3832 H 356.926 -2.00979 -1.61137 0
M  V30 3833 H 356.884 -0.968036 -2.99126 0
M  V30 3834 N 360.656 0.0484629 -1.57525 0
M  V30 3835 C 361.903 0.743125 -1.88372 0
M  V30 3836 C 362.231 1.76383 -0.819715 0
M  V30 3837 O 361.486 1.94855 0.181659 0
M  V30 3838 C 361.785 1.46632 -3.25935 0
M  V30 3839 C 361.451 0.583427 -4.4711 0
M  V30 3840 C 360.113 0.340191 -4.79996 0
M  V30 3841 C 362.465 -0.0273345 -5.21193 0
M  V30 3842 C 359.793 -0.522903 -5.84365 0
M  V30 3843 C 362.145 -0.878017 -6.26477 0
M  V30 3844 C 360.809 -1.1309 -6.5785 0
M  V30 3845 H 360.079 0.271929 -0.689301 0
M  V30 3846 H 362.726 0.00336166 -1.915 0
M  V30 3847 H 361.031 2.2789 -3.18706 0
M  V30 3848 H 362.728 2.00902 -3.47044 0
M  V30 3849 H 359.318 0.783151 -4.21384 0
M  V30 3850 H 363.502 0.147654 -4.9608 0
M  V30 3851 H 358.758 -0.727335 -6.07058 0
M  V30 3852 H 362.932 -1.35789 -6.83033 0
M  V30 3853 H 360.559 -1.80144 -7.38547 0
M  V30 3854 N 362.134 1.5431 0.320358 0
M  V30 3855 C 363.362 1.76636 1.07738 0
M  V30 3856 C 363.777 0.51649 1.81598 0
M  V30 3857 O 363.134 -0.512942 1.75143 0
M  V30 3858 C 363.185 2.96158 2.07299 0
M  V30 3859 O 362.906 4.16313 1.36438 0
M  V30 3860 C 364.407 3.3072 2.95193 0
M  V30 3861 H 361.627 0.589597 0.320339 0
M  V30 3862 H 364.171 2.01207 0.36551 0
M  V30 3863 H 362.326 2.73851 2.74016 0
M  V30 3864 H 362.74 4.83565 2.03138 0
M  V30 3865 H 364.214 4.17643 3.60941 0
M  V30 3866 H 364.691 2.48026 3.62463 0
M  V30 3867 H 365.297 3.55117 2.34034 0
M  V30 3868 N 363.613 -0.582584 1.46437 0
M  V30 3869 C 364.862 -1.337 1.5102 0
M  V30 3870 C 365.175 -1.94891 0.166359 0
M  V30 3871 O 366.381 -2.71351 0.0899954 0
M  V30 3872 C 364.837 -2.42315 2.66104 0
M  V30 3873 C 364.445 -1.87427 4.06909 0
M  V30 3874 C 366.189 -3.19099 2.79958 0
M  V30 3875 C 364.096 -2.93672 5.13333 0
M  V30 3876 H 363.026 -0.502619 0.562041 0
M  V30 3877 H 365.677 -0.621701 1.72647 0
M  V30 3878 H 364.059 -3.16645 2.37807 0
M  V30 3879 H 365.233 -1.19639 4.44998 0
M  V30 3880 H 363.548 -1.2331 3.97723 0
M  V30 3881 H 366.145 -3.9839 3.56636 0
M  V30 3882 H 366.488 -3.71695 1.87479 0
M  V30 3883 H 367.021 -2.51875 3.07902 0
M  V30 3884 H 363.76 -2.45962 6.07604 0
M  V30 3885 H 363.28 -3.59948 4.79789 0
M  V30 3886 H 364.959 -3.5762 5.39182 0
M  V30 3887 N 365.091 -1.34144 -0.827227 0
M  V30 3888 C 366.023 -1.21206 -1.9453 0
M  V30 3889 C 367.036 -0.140176 -1.62195 0
M  V30 3890 O 368.225 -0.391647 -1.7415 0
M  V30 3891 C 365.325 -0.839141 -3.28347 0
M  V30 3892 C 364.498 -2.0051 -3.88734 0
M  V30 3893 C 363.557 -1.61128 -5.00923 0
M  V30 3894 O 362.583 -2.32726 -5.19449 0
M  V30 3895 N 363.785 -0.522958 -5.7814 0
M  V30 3896 H 366.55 -2.17525 -2.06162 0
M  V30 3897 H 364.111 -1.27043 -1.00358 0
M  V30 3898 H 366.103 -0.557556 -4.00841 0
M  V30 3899 H 364.673 0.0337293 -3.12582 0
M  V30 3900 H 363.893 -2.45166 -3.08686 0
M  V30 3901 H 365.181 -2.78498 -4.25812 0
M  V30 3902 H 364.579 0.0723518 -5.65654 0
M  V30 3903 H 363.136 -0.301089 -6.51104 0
M  V30 3904 N 366.569 1.04691 -1.17803 0
M  V30 3905 C 367.817 1.7743 -0.967617 0
M  V30 3906 C 368.138 1.88359 0.504574 0
M  V30 3907 O 367.408 1.40402 1.36617 0
M  V30 3908 H 365.988 0.657242 -0.355024 0
M  V30 3909 H 368.65 1.2638 -1.48371 0
M  V30 3910 H 367.746 2.78924 -1.40027 0
M  V30 3911 N 368.047 0.979072 1.23499 0
M  V30 3912 C 369.324 0.563674 1.87302 0
M  V30 3913 C 369.704 -0.959199 1.88049 0
M  V30 3914 O 369.052 -1.83535 1.36114 0
M  V30 3915 C 369.262 1.16822 3.28867 0
M  V30 3916 C 370.61 1.26014 4.0547 0
M  V30 3917 O 371.634 1.12158 3.38082 0
M  V30 3918 O 370.493 1.48044 5.26066 0
M  V30 3919 H 367.587 0.189602 0.804972 0
M  V30 3920 H 370.133 1.07407 1.31384 0
M  V30 3921 H 368.905 2.21049 3.22883 0
M  V30 3922 H 368.528 0.642564 3.92373 0
M  V30 3923 N 369.525 -1.3858 0.750561 0
M  V30 3924 C 370.771 -2.00481 0.305825 0
M  V30 3925 C 371.104 -1.5944 -1.10872 0
M  V30 3926 O 370.379 -0.83052 -1.75877 0
M  V30 3927 C 370.662 -3.5758 0.425287 0
M  V30 3928 C 370.515 -4.08594 1.88072 0
M  V30 3929 C 371.834 -4.39719 -0.183122 0
M  V30 3930 H 368.953 -0.728348 0.112598 0
M  V30 3931 H 371.595 -1.64566 0.949638 0
M  V30 3932 H 369.745 -3.88306 -0.122828 0
M  V30 3933 H 371.417 -3.88523 2.48691 0
M  V30 3934 H 369.66 -3.61574 2.39681 0
M  V30 3935 H 370.331 -5.177 1.91548 0
M  V30 3936 H 372.807 -4.15128 0.284303 0
M  V30 3937 H 371.683 -5.48856 -0.0692757 0
M  V30 3938 H 371.944 -4.23434 -1.27106 0
M  V30 3939 N 371.003 -0.499398 -1.49478 0
M  V30 3940 C 371.966 0.268838 -2.27618 0
M  V30 3941 C 372.966 0.895383 -1.33565 0
M  V30 3942 O 374.156 0.760164 -1.56739 0
M  V30 3943 C 371.288 1.38559 -3.11471 0
M  V30 3944 H 372.481 -0.416812 -2.96989 0
M  V30 3945 H 370.034 -0.254313 -1.54217 0
M  V30 3946 H 370.769 2.10544 -2.46661 0
M  V30 3947 H 370.554 0.941797 -3.80621 0
M  V30 3948 H 372.044 1.92678 -3.70493 0
M  V30 3949 N 372.481 1.55866 -0.233164 0
M  V30 3950 C 373.411 2.23783 0.666599 0
M  V30 3951 C 374.392 1.21343 1.19205 0
M  V30 3952 O 375.577 1.4996 1.23392 0
M  V30 3953 C 372.707 2.92671 1.86978 0
M  V30 3954 C 371.661 4.01682 1.47768 0
M  V30 3955 C 370.987 4.57926 2.76058 0
M  V30 3956 C 372.287 5.18126 0.658993 0
M  V30 3957 H 373.981 2.99232 0.100306 0
M  V30 3958 H 371.527 1.43924 0.046804 0
M  V30 3959 H 373.48 3.3888 2.50476 0
M  V30 3960 H 372.204 2.14688 2.46123 0
M  V30 3961 H 370.863 3.56222 0.866106 0
M  V30 3962 H 370.511 3.76659 3.33372 0
M  V30 3963 H 370.211 5.31505 2.50552 0
M  V30 3964 H 371.735 5.06859 3.40479 0
M  V30 3965 H 373.149 5.60644 1.19795 0
M  V30 3966 H 371.546 5.98009 0.500552 0
M  V30 3967 H 372.616 4.83763 -0.331856 0
M  V30 3968 N 373.959 -0.0401083 1.57549 0
M  V30 3969 C 375.37 -0.588097 1.77196 0
M  V30 3970 C 375.721 -1.76209 0.862832 0
M  V30 3971 O 374.846 -2.16331 0.0548389 0
M  V30 3972 C 375.441 -1.07363 3.21339 0
M  V30 3973 C 374 -1.56723 3.42221 0
M  V30 3974 C 373.147 -0.50041 2.72747 0
M  V30 3975 H 376.098 0.186119 1.57605 0
M  V30 3976 H 376.119 -1.94143 3.27244 0
M  V30 3977 H 375.631 -0.218975 3.87482 0
M  V30 3978 H 373.732 -2.4441 2.81237 0
M  V30 3979 H 373.845 -1.62234 4.50796 0
M  V30 3980 H 372.209 -0.952894 2.36203 0
M  V30 3981 H 372.992 0.344599 3.41566 0
M  V30 3982 N 375.437 -1.54477 -0.31217 0
M  V30 3983 C 376.848 -1.64344 -0.885891 0
M  V30 3984 C 377.199 -0.54485 -1.88483 0
M  V30 3985 O 376.324 0.320387 -2.14015 0
M  V30 3986 C 376.919 -2.97908 -1.61357 0
M  V30 3987 C 375.478 -3.09933 -2.13585 0
M  V30 3988 C 374.625 -2.59971 -0.964897 0
M  V30 3989 H 377.576 -1.58448 -0.0894528 0
M  V30 3990 H 377.597 -2.88706 -2.47848 0
M  V30 3991 H 377.109 -3.77845 -0.886277 0
M  V30 3992 H 375.21 -2.34694 -2.89395 0
M  V30 3993 H 375.323 -4.15916 -2.37804 0
M  V30 3994 H 373.687 -2.16147 -1.34731 0
M  V30 3995 H 374.47 -3.42376 -0.251742 0
M  V30 3996 N 376.915 0.57481 -1.46744 0
M  V30 3997 C 378.145 1.35659 -1.55821 0
M  V30 3998 C 378.553 1.88129 -0.201036 0
M  V30 3999 O 377.896 1.64723 0.813134 0
M  V30 4000 C 377.958 2.57473 -2.50894 0
M  V30 4001 C 377.622 2.26415 -3.9697 0
M  V30 4002 C 378.619 1.84771 -4.85958 0
M  V30 4003 C 376.304 2.38316 -4.42166 0
M  V30 4004 C 378.298 1.55434 -6.18158 0
M  V30 4005 C 375.985 2.08591 -5.74398 0
M  V30 4006 C 376.983 1.67216 -6.62214 0
M  V30 4007 O 376.671 1.37859 -7.91991 0
M  V30 4008 H 376.403 0.420496 -0.529301 0
M  V30 4009 H 378.957 0.704967 -1.92923 0
M  V30 4010 H 377.187 3.25468 -2.08824 0
M  V30 4011 H 378.876 3.19546 -2.50291 0
M  V30 4012 H 379.642 1.75085 -4.52295 0
M  V30 4013 H 375.521 2.69483 -3.74032 0
M  V30 4014 H 379.065 1.23065 -6.86659 0
M  V30 4015 H 374.962 2.17905 -6.07608 0
M  V30 4016 H 375.73 1.51638 -8.04331 0
M  V30 4017 N 378.394 1.34581 0.820102 0
M  V30 4018 C 379.624 1.29991 1.6058 0
M  V30 4019 C 380.032 -0.127588 1.88769 0
M  V30 4020 O 379.375 -1.08595 1.48165 0
M  V30 4021 C 379.437 2.02548 2.9701 0
M  V30 4022 C 379.101 3.51794 2.91701 0
M  V30 4023 C 380.098 4.46647 2.66087 0
M  V30 4024 C 377.783 3.94249 3.11245 0
M  V30 4025 C 379.777 5.81929 2.60071 0
M  V30 4026 C 377.464 5.2963 3.04853 0
M  V30 4027 C 378.462 6.23282 2.793 0
M  V30 4028 O 378.15 7.56181 2.72847 0
M  V30 4029 H 377.882 0.448539 0.505756 0
M  V30 4030 H 380.436 1.77811 1.02822 0
M  V30 4031 H 378.666 1.49345 3.56697 0
M  V30 4032 H 380.355 1.91211 3.58041 0
M  V30 4033 H 381.121 4.15168 2.5072 0
M  V30 4034 H 377 3.21749 3.30149 0
M  V30 4035 H 380.544 6.54999 2.40046 0
M  V30 4036 H 376.441 5.60727 3.19774 0
M  V30 4037 H 377.209 7.6595 2.88553 0
M  V30 4038 N 379.872 -1.04064 1.18357 0
M  V30 4039 C 380.804 -2.12114 0.868358 0
M  V30 4040 C 381.817 -1.62247 -0.134045 0
M  V30 4041 O 383.006 -1.78253 0.0937933 0
M  V30 4042 C 380.106 -3.37773 0.276132 0
M  V30 4043 C 379.279 -4.16874 1.3242 0
M  V30 4044 C 378.338 -5.20861 0.747662 0
M  V30 4045 O 377.364 -5.51141 1.42239 0
M  V30 4046 N 378.566 -5.78715 -0.454823 0
M  V30 4047 H 381.331 -2.39748 1.79836 0
M  V30 4048 H 378.892 -1.20258 1.08396 0
M  V30 4049 H 380.884 -4.04513 -0.123133 0
M  V30 4050 H 379.454 -3.07581 -0.557895 0
M  V30 4051 H 378.674 -3.45456 1.89878 0
M  V30 4052 H 379.962 -4.66516 2.03078 0
M  V30 4053 H 379.36 -5.56415 -1.02073 0
M  V30 4054 H 377.917 -6.46921 -0.79601 0
M  V30 4055 N 381.35 -0.985608 -1.22978 0
M  V30 4056 C 382.761 -0.693593 -1.73338 0
M  V30 4057 C 383.112 0.789935 -1.79595 0
M  V30 4058 O 382.237 1.61771 -1.43733 0
M  V30 4059 C 382.832 -1.25235 -3.14804 0
M  V30 4060 C 381.391 -1.00987 -3.626 0
M  V30 4061 C 380.538 -1.37695 -2.40698 0
M  V30 4062 H 383.489 -1.15884 -1.08428 0
M  V30 4063 H 383.51 -0.627329 -3.75293 0
M  V30 4064 H 383.022 -2.33209 -3.10218 0
M  V30 4065 H 381.123 0.0535565 -3.72562 0
M  V30 4066 H 381.236 -1.66812 -4.49122 0
M  V30 4067 H 379.6 -0.795459 -2.4196 0
M  V30 4068 H 380.383 -2.46657 -2.38779 0
M  V30 4069 N 382.828 1.3818 -0.7579 0
M  V30 4070 C 383.738 2.3421 -0.135247 0
M  V30 4071 C 384.754 1.59487 0.695683 0
M  V30 4072 O 385.93 1.91657 0.618832 0
M  V30 4073 C 382.995 3.3862 0.744139 0
M  V30 4074 C 382.056 4.2918 -0.101658 0
M  V30 4075 C 381.289 5.28603 0.735851 0
M  V30 4076 O 381.512 5.35166 1.97366 0
M  V30 4077 O 380.446 6.01707 0.152372 0
M  V30 4078 H 384.272 2.8916 -0.928436 0
M  V30 4079 H 381.857 1.40101 -0.518855 0
M  V30 4080 H 383.739 4.02539 1.2466 0
M  V30 4081 H 382.414 2.86019 1.51575 0
M  V30 4082 H 381.321 3.68407 -0.650167 0
M  V30 4083 H 382.654 4.85048 -0.836024 0
M  V30 4084 N 384.306 0.507319 1.49211 0
M  V30 4085 C 385.216 -0.272136 2.33016 0
M  V30 4086 C 386.232 -0.961206 1.45041 0
M  V30 4087 O 387.408 -0.941191 1.78055 0
M  V30 4088 C 384.473 -1.31895 3.20631 0
M  V30 4089 C 383.534 -0.642648 4.24463 0
M  V30 4090 C 382.767 -1.63959 5.07891 0
M  V30 4091 O 382.99 -2.87007 4.92933 0
M  V30 4092 O 381.924 -1.19143 5.8999 0
M  V30 4093 H 385.75 0.413982 3.00865 0
M  V30 4094 H 383.335 0.268556 1.46966 0
M  V30 4095 H 385.217 -1.92446 3.7489 0
M  V30 4096 H 383.892 -1.98788 2.5547 0
M  V30 4097 H 382.799 0.00276252 3.741 0
M  V30 4098 H 384.132 -0.0160534 4.92197 0
M  V30 4099 N 385.784 -1.5574 0.241426 0
M  V30 4100 C 387.061 -1.90704 -0.434881 0
M  V30 4101 C 387.441 -1.16145 -1.76277 0
M  V30 4102 O 386.789 -0.277152 -2.26813 0
M  V30 4103 C 386.999 -3.43657 -0.608343 0
M  V30 4104 C 388.347 -4.14806 -0.906725 0
M  V30 4105 O 389.371 -3.49366 -0.694408 0
M  V30 4106 O 388.23 -5.30548 -1.31075 0
M  V30 4107 H 385.324 -0.793592 -0.23268 0
M  V30 4108 H 387.87 -1.67288 0.285086 0
M  V30 4109 H 386.642 -3.89927 0.327505 0
M  V30 4110 H 386.265 -3.72918 -1.37906 0
M  V30 4111 N 387.262 0.0317525 -1.57568 0
M  V30 4112 C 388.539 0.758366 -1.803 0
M  V30 4113 C 388.919 1.93718 -0.838845 0
M  V30 4114 O 388.267 2.28187 0.119571 0
M  V30 4115 C 388.477 1.19392 -3.27943 0
M  V30 4116 C 389.825 1.61094 -3.92854 0
M  V30 4117 O 390.849 1.28857 -3.32076 0
M  V30 4118 O 389.708 2.20918 -4.99858 0
M  V30 4119 H 386.802 0.366514 -0.741348 0
M  V30 4120 H 389.348 0.00873765 -1.69698 0
M  V30 4121 H 388.12 0.352275 -3.89711 0
M  V30 4122 H 387.743 2.00365 -3.43424 0
M  V30 4123 N 388.74 1.54641 0.303973 0
M  V30 4124 C 389.65 1.88439 1.39743 0
M  V30 4125 C 390.666 0.778239 1.55626 0
M  V30 4126 O 391.842 1.07442 1.70347 0
M  V30 4127 C 388.907 2.12212 2.74166 0
M  V30 4128 C 387.968 3.35936 2.67293 0
M  V30 4129 C 387.201 3.58566 3.95305 0
M  V30 4130 O 387.424 2.84263 4.9452 0
M  V30 4131 O 386.358 4.52078 3.97378 0
M  V30 4132 H 390.184 2.81458 1.14083 0
M  V30 4133 H 387.769 1.40793 0.499768 0
M  V30 4134 H 389.651 2.29067 3.53704 0
M  V30 4135 H 388.326 1.22379 2.99675 0
M  V30 4136 H 387.233 3.24448 1.86237 0
M  V30 4137 H 388.566 4.2589 2.46736 0
M  V30 4138 N 390.218 -0.567019 1.47046 0
M  V30 4139 C 391.151 -1.69016 1.53326 0
M  V30 4140 C 392.129 -1.57949 0.386126 0
M  V30 4141 O 393.313 -1.78945 0.592529 0
M  V30 4142 C 390.44 -3.07191 1.42658 0
M  V30 4143 C 389.486 -3.36733 2.6175 0
M  V30 4144 S 390.319 -3.27069 4.24012 0
M  V30 4145 C 391.475 -4.67755 4.1588 0
M  V30 4146 H 391.708 -1.63434 2.48348 0
M  V30 4147 H 389.241 -0.747048 1.35124 0
M  V30 4148 H 391.199 -3.86897 1.37191 0
M  V30 4149 H 389.86 -3.10249 0.490369 0
M  V30 4150 H 389.053 -4.37441 2.50323 0
M  V30 4151 H 388.655 -2.64627 2.64289 0
M  V30 4152 H 390.947 -5.58491 3.83529 0
M  V30 4153 H 391.89 -4.84239 5.16641 0
M  V30 4154 H 392.298 -4.45341 3.46889 0
M  V30 4155 N 391.696 -1.35014 -0.812953 0
M  V30 4156 C 393.107 -1.25035 -1.38648 0
M  V30 4157 C 393.458 0.119967 -1.95833 0
M  V30 4158 O 392.583 1.02069 -1.90816 0
M  V30 4159 C 393.178 -2.26394 -2.52054 0
M  V30 4160 C 391.737 -2.20175 -3.05287 0
M  V30 4161 C 390.884 -2.12451 -1.78213 0
M  V30 4162 H 393.835 -1.46235 -0.616516 0
M  V30 4163 H 393.856 -1.88672 -3.30429 0
M  V30 4164 H 393.368 -3.26116 -2.10404 0
M  V30 4165 H 391.469 -1.23841 -3.51417 0
M  V30 4166 H 391.582 -3.11863 -3.63701 0
M  V30 4167 H 389.946 -1.58328 -1.9951 0
M  V30 4168 H 390.729 -3.14024 -1.38723 0
M  V30 4169 N 393.175 1.03435 -1.18907 0
M  V30 4170 C 394.422 1.76743 -0.988334 0
M  V30 4171 C 394.75 1.88447 0.481441 0
M  V30 4172 O 394.005 1.39383 1.37371 0
M  V30 4173 C 394.304 3.19792 -1.59586 0
M  V30 4174 C 393.97 3.28108 -3.09283 0
M  V30 4175 C 392.632 3.30084 -3.5014 0
M  V30 4176 C 394.984 3.27696 -4.05296 0
M  V30 4177 C 392.312 3.29299 -4.85571 0
M  V30 4178 C 394.664 3.28451 -5.4065 0
M  V30 4179 C 393.328 3.28723 -5.80946 0
M  V30 4180 H 392.598 0.64675 -0.361657 0
M  V30 4181 H 395.245 1.21442 -1.48068 0
M  V30 4182 H 393.55 3.78136 -1.02568 0
M  V30 4183 H 395.247 3.75171 -1.41589 0
M  V30 4184 H 391.837 3.27294 -2.76725 0
M  V30 4185 H 396.021 3.25354 -3.74778 0
M  V30 4186 H 391.277 3.2783 -5.16079 0
M  V30 4187 H 395.451 3.27082 -6.14809 0
M  V30 4188 H 393.078 3.27868 -6.85862 0
M  V30 4189 N 394.653 0.992116 1.22453 0
M  V30 4190 C 395.902 0.662992 1.90492 0
M  V30 4191 C 396.215 -0.808407 1.78113 0
M  V30 4192 O 397.421 -1.24908 2.41061 0
M  V30 4193 C 395.877 1.1353 3.41524 0
M  V30 4194 C 395.485 2.63187 3.62542 0
M  V30 4195 C 397.229 0.880465 4.15269 0
M  V30 4196 C 395.136 3.04024 5.0727 0
M  V30 4197 H 394.066 0.244278 0.713333 0
M  V30 4198 H 396.717 1.20157 1.38688 0
M  V30 4199 H 395.099 0.52485 3.92506 0
M  V30 4200 H 396.273 3.2957 3.22056 0
M  V30 4201 H 394.588 2.86543 3.02129 0
M  V30 4202 H 397.185 1.16128 5.21937 0
M  V30 4203 H 397.528 -0.183408 4.15896 0
M  V30 4204 H 398.061 1.45307 3.70312 0
M  V30 4205 H 394.8 4.09584 5.11782 0
M  V30 4206 H 394.32 2.42343 5.48662 0
M  V30 4207 H 395.999 2.95282 5.75689 0
M  V30 4208 N 396.131 -1.37776 0.765217 0
M  V30 4209 C 397.371 -2.01691 0.331669 0
M  V30 4210 C 397.735 -1.59432 -1.06983 0
M  V30 4211 O 398.936 -2.15761 -1.60314 0
M  V30 4212 C 397.207 -3.54385 0.463261 0
M  V30 4213 S 398.766 -4.38652 0.114011 0
M  V30 4214 H 395.584 -0.699387 0.127979 0
M  V30 4215 H 398.186 -1.68084 0.998396 0
M  V30 4216 H 396.89 -3.82629 1.48401 0
M  V30 4217 H 396.421 -3.92783 -0.220246 0
M  V30 4218 H 398.436 -4.84021 -1.09261 0
M  V30 4219 N 397.609 -0.515225 -1.4894 0
M  V30 4220 C 398.834 0.022727 -2.07388 0
M  V30 4221 C 399.259 1.2876 -1.37122 0
M  V30 4222 O 398.617 1.76067 -0.432431 0
M  V30 4223 C 398.665 0.244869 -3.59768 0
M  V30 4224 O 397.769 1.31667 -3.90817 0
M  V30 4225 H 397.11 -0.0325506 -0.663202 0
M  V30 4226 H 399.64 -0.718918 -1.91553 0
M  V30 4227 H 399.65 0.47205 -4.0526 0
M  V30 4228 H 398.325 -0.679194 -4.10317 0
M  V30 4229 H 396.902 1.07331 -3.5712 0
M  V30 4230 N 399.087 1.5561 -0.249682 0
M  V30 4231 C 400.017 2.24477 0.642826 0
M  V30 4232 C 400.998 1.22601 1.17911 0
M  V30 4233 O 402.183 1.5126 1.21795 0
M  V30 4234 C 399.313 2.94638 1.83863 0
M  V30 4235 C 398.267 4.03227 1.435 0
M  V30 4236 C 397.593 4.60828 2.71186 0
M  V30 4237 C 398.893 5.18796 0.604002 0
M  V30 4238 H 400.587 2.99321 0.0685625 0
M  V30 4239 H 398.133 1.43965 0.0315363 0
M  V30 4240 H 400.086 3.41517 2.46868 0
M  V30 4241 H 398.81 2.17287 2.43832 0
M  V30 4242 H 397.469 3.57121 0.828275 0
M  V30 4243 H 397.117 3.80174 3.29358 0
M  V30 4244 H 396.817 5.34132 2.44901 0
M  V30 4245 H 398.341 5.10442 3.35084 0
M  V30 4246 H 399.755 5.61883 1.13842 0
M  V30 4247 H 398.152 5.98506 0.437097 0
M  V30 4248 H 399.222 4.83384 -0.383147 0
M  V30 4249 N 400.565 -0.0233959 1.57583 0
M  V30 4250 C 401.79 -0.728376 1.94189 0
M  V30 4251 C 402.215 -1.67793 0.850119 0
M  V30 4252 O 401.573 -1.80262 -0.19371 0
M  V30 4253 C 401.621 -1.45669 3.29868 0
M  V30 4254 O 400.725 -2.57013 3.22518 0
M  V30 4255 H 400.066 -0.195493 0.63457 0
M  V30 4256 H 402.596 0.0228214 2.04587 0
M  V30 4257 H 402.606 -1.82535 3.6489 0
M  V30 4258 H 401.281 -0.760314 4.08891 0
M  V30 4259 H 399.858 -2.22648 2.99136 0
M  V30 4260 N 402.043 -1.548 -0.295768 0
M  V30 4261 C 403.291 -1.73985 -1.02828 0
M  V30 4262 C 403.612 -0.531406 -1.87619 0
M  V30 4263 O 402.882 0.454221 -1.90561 0
M  V30 4264 H 401.462 -0.641556 -0.382642 0
M  V30 4265 H 404.124 -1.92163 -0.325489 0
M  V30 4266 H 403.22 -2.63129 -1.67838 0
M  V30 4267 N 403.521 0.559213 -1.47345 0
M  V30 4268 C 404.798 1.31997 -1.44348 0
M  V30 4269 C 405.178 2.1064 -0.139358 0
M  V30 4270 O 404.526 2.1091 0.879153 0
M  V30 4271 C 404.736 2.22618 -2.68779 0
M  V30 4272 C 406.084 2.83701 -3.1591 0
M  V30 4273 O 407.108 2.32921 -2.69493 0
M  V30 4274 O 405.967 3.75993 -3.966 0
M  V30 4275 H 403.061 0.594251 -0.575147 0
M  V30 4276 H 405.607 0.578282 -1.59543 0
M  V30 4277 H 404.379 1.64093 -3.55231 0
M  V30 4278 H 404.002 3.04085 -2.5616 0
M  V30 4279 N 404.999 1.35443 0.805782 0
M  V30 4280 C 405.947 1.28465 1.93906 0
M  V30 4281 C 406.941 0.17943 1.68447 0
M  V30 4282 O 408.147 0.345459 1.76654 0
M  V30 4283 H 404.522 0.399528 0.637088 0
M  V30 4284 H 406.493 2.24206 1.96912 0
M  V30 4285 C 405.242 1.07432 3.30687 0
M  V30 4286 H 404.565 1.91716 3.50835 0
M  V30 4287 H 406.005 1.06591 4.10383 0
M  V30 4288 C 404.464 -0.22179 3.36169 0
M  V30 4289 O 404.994 -1.21731 3.82811 0
M  V30 4290 N 403.2 -0.260841 2.89427 0
M  V30 4291 H 402.747 0.549884 2.51663 0
M  V30 4292 H 402.705 -1.12777 2.93477 0
M  V30 4293 N 406.477 -1.02803 1.19454 0
M  V30 4294 C 407.725 -1.75869 0.995722 0
M  V30 4295 C 408.046 -1.89138 -0.474543 0
M  V30 4296 O 407.316 -1.42558 -1.34366 0
M  V30 4297 H 405.896 -0.651511 0.365435 0
M  V30 4298 H 408.558 -1.24004 1.50363 0
M  V30 4299 H 407.654 -2.76661 1.44447 0
M  V30 4300 N 407.956 -0.998596 -1.21925 0
M  V30 4301 C 409.205 -0.673085 -1.90138 0
M  V30 4302 C 409.518 0.79895 -1.78539 0
M  V30 4303 O 410.724 1.23628 -2.4172 0
M  V30 4304 C 409.18 -1.15339 -3.40918 0
M  V30 4305 C 408.788 -2.65106 -3.61141 0
M  V30 4306 C 410.532 -0.902476 -4.14796 0
M  V30 4307 C 408.439 -3.0671 -5.05651 0
M  V30 4308 H 407.369 -0.248057 -0.712028 0
M  V30 4309 H 410.02 -1.20891 -1.38049 0
M  V30 4310 H 408.402 -0.545658 -3.92223 0
M  V30 4311 H 409.576 -3.31274 -3.20304 0
M  V30 4312 H 407.891 -2.88142 -3.00605 0
M  V30 4313 H 410.488 -1.18895 -5.21314 0
M  V30 4314 H 410.831 0.161349 -4.15987 0
M  V30 4315 H 411.364 -1.47269 -3.69536 0
M  V30 4316 H 408.103 -4.12292 -5.09603 0
M  V30 4317 H 407.623 -2.45249 -5.47369 0
M  V30 4318 H 409.302 -2.9833 -5.74115 0
M  V30 4319 N 409.434 1.37368 -0.772513 0
M  V30 4320 C 410.367 2.27956 -0.105593 0
M  V30 4321 C 411.345 1.46362 0.708295 0
M  V30 4322 O 412.529 1.75695 0.682895 0
M  V30 4323 C 409.656 3.27687 0.856686 0
M  V30 4324 C 408.702 4.26312 0.1267 0
M  V30 4325 S 409.535 5.22206 -1.1858 0
M  V30 4326 C 410.691 6.25488 -0.227081 0
M  V30 4327 H 410.924 2.84171 -0.87372 0
M  V30 4328 H 408.457 1.43654 -0.565939 0
M  V30 4329 H 410.415 3.85653 1.40648 0
M  V30 4330 H 409.076 2.70417 1.59793 0
M  V30 4331 H 408.269 4.96674 0.856212 0
M  V30 4332 H 407.871 3.72339 -0.352117 0
M  V30 4333 H 410.163 6.74836 0.600231 0
M  V30 4334 H 411.106 7.02371 -0.898899 0
M  V30 4335 H 411.514 5.64267 0.162053 0
M  V30 4336 N 410.912 0.523116 1.48665 0
M  V30 4337 C 412.16 -0.0134497 2.02096 0
M  V30 4338 C 412.481 -1.35418 1.40311 0
M  V30 4339 O 411.751 -1.87543 0.566074 0
M  V30 4340 H 410.331 -0.00795915 0.746958 0
M  V30 4341 H 412.993 0.685388 1.82451 0
M  V30 4342 H 412.089 -0.126849 3.11842 0
M  V30 4343 N 412.39 -1.55475 0.257931 0
M  V30 4344 C 413.63 -2.01112 -0.365129 0
M  V30 4345 C 413.994 -1.1423 -1.54323 0
M  V30 4346 O 415.195 -1.49371 -2.23477 0
M  V30 4347 C 413.466 -3.49353 -0.754117 0
M  V30 4348 S 415.025 -4.16992 -1.36614 0
M  V30 4349 H 411.843 -0.701737 -0.114397 0
M  V30 4350 H 414.445 -1.91855 0.375747 0
M  V30 4351 H 413.149 -4.10246 0.112441 0
M  V30 4352 H 412.68 -3.6256 -1.52689 0
M  V30 4353 H 414.695 -4.19191 -2.65505 0
M  V30 4354 N 413.868 0.0150385 -1.57593 0
M  V30 4355 C 414.818 1.01943 -2.0394 0
M  V30 4356 C 415.802 1.31209 -0.931286 0
M  V30 4357 O 416.994 1.30559 -1.19513 0
M  V30 4358 C 414.123 2.31621 -2.53391 0
M  V30 4359 C 413.209 2.05384 -3.7105 0
M  V30 4360 N 413.6 1.49253 -4.83278 0
M  V30 4361 C 411.898 2.35601 -3.78693 0
M  V30 4362 C 412.599 1.39143 -5.64813 0
M  V30 4363 N 411.575 1.87187 -5.10355 0
M  V30 4364 H 415.377 0.57969 -2.88126 0
M  V30 4365 H 412.891 0.221056 -1.60888 0
M  V30 4366 H 414.888 3.044 -2.84862 0
M  V30 4367 H 413.548 2.76261 -1.70616 0
M  V30 4368 H 414.559 1.17334 -5.04433 0
M  V30 4369 H 411.236 2.8322 -3.06746 0
M  V30 4370 H 412.626 0.961153 -6.6499 0
M  V30 4371 N 415.346 1.54954 0.287554 0
M  V30 4372 C 416.256 1.8991 1.37736 0
M  V30 4373 C 417.272 0.794701 1.54792 0
M  V30 4374 O 418.448 1.09243 1.69198 0
M  V30 4375 C 415.513 2.15108 2.71899 0
M  V30 4376 C 414.574 3.38752 2.63715 0
M  V30 4377 C 413.807 3.62739 3.91479 0
M  V30 4378 O 414.03 2.89492 4.91478 0
M  V30 4379 O 412.964 4.56267 3.92561 0
M  V30 4380 H 416.79 2.82652 1.11092 0
M  V30 4381 H 414.375 1.41315 0.484807 0
M  V30 4382 H 416.257 2.32806 3.51254 0
M  V30 4383 H 414.932 1.25551 2.9836 0
M  V30 4384 H 413.839 3.26405 1.82786 0
M  V30 4385 H 415.172 4.28483 2.42205 0
M  V30 4386 N 416.824 -0.551391 1.4764 0
M  V30 4387 C 418.073 -1.30467 1.53822 0
M  V30 4388 C 418.386 -1.94495 0.207661 0
M  V30 4389 O 419.592 -2.71099 0.147533 0
M  V30 4390 C 418.048 -2.36616 2.71184 0
M  V30 4391 C 417.656 -1.78754 4.10793 0
M  V30 4392 C 419.4 -3.13088 2.86663 0
M  V30 4393 C 417.307 -2.82717 5.19447 0
M  V30 4394 H 416.237 -0.490584 0.572576 0
M  V30 4395 H 418.888 -0.58494 1.73927 0
M  V30 4396 H 417.27 -3.11529 2.4447 0
M  V30 4397 H 418.444 -1.10173 4.47435 0
M  V30 4398 H 416.759 -1.14846 4.00249 0
M  V30 4399 H 419.356 -3.90736 3.65007 0
M  V30 4400 H 419.699 -3.67635 1.95321 0
M  V30 4401 H 420.232 -2.45288 3.13175 0
M  V30 4402 H 416.971 -2.33018 6.12685 0
M  V30 4403 H 416.491 -3.4969 4.87316 0
M  V30 4404 H 418.17 -3.46102 5.46646 0
M  V30 4405 N 418.302 -1.35869 -0.798587 0
M  V30 4406 C 419.713 -1.26498 -1.37314 0
M  V30 4407 C 420.064 0.0991899 -1.95949 0
M  V30 4408 O 419.189 1.0004 -1.91888 0
M  V30 4409 C 419.784 -2.29054 -2.49639 0
M  V30 4410 C 418.343 -2.234 -3.02935 0
M  V30 4411 C 417.49 -2.14329 -1.75949 0
M  V30 4412 H 420.441 -1.46881 -0.600971 0
M  V30 4413 H 420.462 -1.92166 -3.28409 0
M  V30 4414 H 419.974 -3.2833 -2.06933 0
M  V30 4415 H 418.075 -1.27562 -3.50084 0
M  V30 4416 H 418.188 -3.15703 -3.60372 0
M  V30 4417 H 416.552 -1.60435 -1.9782 0
M  V30 4418 H 417.335 -3.15477 -1.35384 0
M  V30 4419 N 419.78 1.02168 -1.19998 0
M  V30 4420 C 421.191 1.57135 -1.00825 0
M  V30 4421 C 421.542 1.91276 0.436818 0
M  V30 4422 O 420.667 1.71679 1.3174 0
M  V30 4423 C 421.262 2.85514 -1.82393 0
M  V30 4424 C 419.821 3.37027 -1.67601 0
M  V30 4425 C 418.968 2.10388 -1.80644 0
M  V30 4426 H 421.919 0.846106 -1.34264 0
M  V30 4427 H 421.94 3.56711 -1.32429 0
M  V30 4428 H 421.452 2.60634 -2.87561 0
M  V30 4429 H 419.553 3.66878 -0.650485 0
M  V30 4430 H 419.666 4.09572 -2.4857 0
M  V30 4431 H 418.03 2.22601 -1.23778 0
M  V30 4432 H 418.813 1.8794 -2.87286 0
M  V30 4433 N 421.258 1.00505 1.21394 0
M  V30 4434 C 422.188 0.585684 2.26035 0
M  V30 4435 C 423.169 -0.393525 1.65485 0
M  V30 4436 O 424.354 -0.281497 1.92149 0
M  V30 4437 C 421.484 -0.0884283 3.47187 0
M  V30 4438 C 420.438 0.810567 4.20254 0
M  V30 4439 C 419.764 0.00286382 5.347 0
M  V30 4440 C 421.064 2.1132 4.77641 0
M  V30 4441 H 422.758 1.46039 2.61368 0
M  V30 4442 H 420.304 0.703648 1.25638 0
M  V30 4443 H 422.257 -0.393286 4.19561 0
M  V30 4444 H 420.981 -0.997766 3.10986 0
M  V30 4445 H 419.64 1.09925 3.49731 0
M  V30 4446 H 419.288 -0.907765 4.94741 0
M  V30 4447 H 418.988 0.601444 5.84514 0
M  V30 4448 H 420.512 -0.295808 6.09883 0
M  V30 4449 H 421.926 1.87148 5.41893 0
M  V30 4450 H 420.323 2.66164 5.37845 0
M  V30 4451 H 421.393 2.78393 3.9702 0
M  V30 4452 N 422.737 -1.36956 0.779787 0
M  V30 4453 C 423.684 -2.30175 0.169697 0
M  V30 4454 C 424.654 -1.51501 -0.68094 0
M  V30 4455 O 425.839 -1.80042 -0.631629 0
M  V30 4456 C 422.979 -3.37985 -0.697131 0
M  V30 4457 C 422.092 -4.31661 0.170992 0
M  V30 4458 C 421.227 -5.2655 -0.701298 0
M  V30 4459 C 420.266 -6.11867 0.168869 0
M  V30 4460 N 419.403 -6.98973 -0.661855 0
M  V30 4461 H 424.243 -2.81767 0.970135 0
M  V30 4462 H 421.78 -1.38699 0.489994 0
M  V30 4463 H 423.738 -3.99128 -1.2146 0
M  V30 4464 H 422.368 -2.87739 -1.46309 0
M  V30 4465 H 421.42 -3.71756 0.80634 0
M  V30 4466 H 422.732 -4.91644 0.841875 0
M  V30 4467 H 421.886 -5.92937 -1.28494 0
M  V30 4468 H 420.625 -4.66998 -1.40584 0
M  V30 4469 H 419.63 -5.44452 0.764986 0
M  V30 4470 H 420.855 -6.73493 0.870863 0
M  V30 4471 H 418.801 -6.41941 -1.35086 0
M  V30 4472 H 418.718 -7.55984 -0.0484447 0
M  V30 4473 H 419.986 -7.6974 -1.22963 0
M  V30 4474 N 424.215 -0.530993 -1.48385 0
M  V30 4475 C 425.125 0.23503 -2.3342 0
M  V30 4476 C 426.141 0.93801 -1.46552 0
M  V30 4477 O 427.317 0.912745 -1.7953 0
M  V30 4478 C 424.382 1.26778 -3.22689 0
M  V30 4479 C 423.443 0.575038 -4.25431 0
M  V30 4480 C 422.676 1.55858 -5.10435 0
M  V30 4481 O 422.899 2.79129 -4.97437 0
M  V30 4482 O 421.833 1.09742 -5.91811 0
M  V30 4483 H 425.659 -0.461794 -3.00169 0
M  V30 4484 H 423.244 -0.291903 -1.46521 0
M  V30 4485 H 425.126 1.86457 -3.77904 0
M  V30 4486 H 423.801 1.94699 -2.586 0
M  V30 4487 H 422.708 -0.0622782 -3.74048 0
M  V30 4488 H 424.041 -0.062253 -4.92161 0
M  V30 4489 N 425.693 1.55336 -0.266172 0
M  V30 4490 C 426.625 2.19544 0.658247 0
M  V30 4491 C 427.638 1.17746 1.12427 0
M  V30 4492 O 428.827 1.44517 1.04772 0
M  V30 4493 C 425.927 2.80032 1.9088 0
M  V30 4494 C 425.1 4.07436 1.59106 0
M  V30 4495 C 424.159 4.52056 2.69317 0
M  V30 4496 O 423.185 5.18023 2.35883 0
M  V30 4497 N 424.387 4.21448 3.99201 0
M  V30 4498 H 427.152 2.99503 0.108754 0
M  V30 4499 H 424.713 1.61667 -0.0869059 0
M  V30 4500 H 426.705 3.06831 2.63888 0
M  V30 4501 H 425.275 2.04119 2.36758 0
M  V30 4502 H 424.495 3.88021 0.695243 0
M  V30 4503 H 425.783 4.90462 1.35367 0
M  V30 4504 H 425.181 3.68528 4.29189 0
M  V30 4505 H 423.738 4.53039 4.68614 0
M  V30 4506 N 427.171 -0.0066808 1.57599 0
M  V30 4507 C 428.419 -0.691552 1.899 0
M  V30 4508 C 428.74 -1.74682 0.866672 0
M  V30 4509 O 428.01 -1.95661 -0.0968189 0
M  V30 4510 H 426.59 -0.258416 0.700878 0
M  V30 4511 H 429.252 0.0326655 1.94873 0
M  V30 4512 H 428.348 -1.16702 2.8946 0
M  V30 4513 N 428.649 -1.55105 -0.279332 0
M  V30 4514 C 430.065 -1.46803 -0.626187 0
M  V30 4515 C 430.265 -0.676939 -1.89789 0
M  V30 4516 O 429.321 -0.19326 -2.51759 0
M  V30 4517 C 430.634 -2.90962 -0.759034 0
M  V30 4518 C 432.182 -3.01138 -0.853504 0
M  V30 4519 C 432.657 -4.46539 -1.01818 0
M  V30 4520 N 434.148 -4.50341 -1.08386 0
M  V30 4521 C 434.883 -5.60053 -1.22996 0
M  V30 4522 N 434.379 -6.79645 -1.34366 0
M  V30 4523 N 436.172 -5.47783 -1.26056 0
M  V30 4524 H 428.323 -2.04996 0.555921 0
M  V30 4525 H 430.586 -0.929325 0.187239 0
M  V30 4526 H 430.292 -3.51544 0.104852 0
M  V30 4527 H 430.166 -3.39619 -1.64131 0
M  V30 4528 H 432.553 -2.40658 -1.70786 0
M  V30 4529 H 432.634 -2.55745 0.0532466 0
M  V30 4530 H 432.278 -5.0762 -0.168504 0
M  V30 4531 H 432.208 -4.89583 -1.93948 0
M  V30 4532 H 434.699 -3.64191 -1.00864 0
M  V30 4533 H 435.012 -7.59012 -1.4533 0
M  V30 4534 H 433.357 -6.82469 -1.31382 0
M  V30 4535 H 436.548 -4.53294 -1.168 0
M  V30 4536 H 436.721 -6.33331 -1.37098 0
M  V30 4537 N 430.127 0.543554 -1.4793 0
M  V30 4538 C 431.037 1.67657 -1.64098 0
M  V30 4539 C 432.053 1.65934 -0.523622 0
M  V30 4540 O 433.229 1.85133 -0.792943 0
M  V30 4541 C 430.294 3.04146 -1.66421 0
M  V30 4542 C 429.355 3.16831 -2.89684 0
M  V30 4543 C 428.588 4.46809 -2.91886 0
M  V30 4544 O 428.811 5.33095 -2.02895 0
M  V30 4545 O 427.745 4.63573 -3.83906 0
M  V30 4546 H 431.571 1.56957 -2.59997 0
M  V30 4547 H 429.156 0.715116 -1.31173 0
M  V30 4548 H 431.038 3.85346 -1.70548 0
M  V30 4549 H 429.713 3.152 -0.736923 0
M  V30 4550 H 428.62 2.34977 -2.91095 0
M  V30 4551 H 429.953 3.10687 -3.81752 0
M  V30 4552 N 431.605 1.3629 0.791371 0
M  V30 4553 C 432.845 1.31792 1.56238 0
M  V30 4554 C 433.209 -0.102237 1.91728 0
M  V30 4555 O 434.41 -0.271759 2.67423 0
M  V30 4556 C 432.681 2.21303 2.80642 0
M  V30 4557 S 434.24 2.34468 3.70904 0
M  V30 4558 H 431.058 0.468141 0.535131 0
M  V30 4559 H 433.66 1.71841 0.932246 0
M  V30 4560 H 432.364 3.23439 2.52617 0
M  V30 4561 H 431.895 1.82266 3.4863 0
M  V30 4562 H 433.91 1.54074 4.71673 0
M  V30 4563 N 433.083 -1.0153 1.20538 0
M  V30 4564 C 434.323 -1.76689 1.02763 0
M  V30 4565 C 434.687 -1.87065 -0.432513 0
M  V30 4566 O 435.888 -2.58684 -0.730481 0
M  V30 4567 C 434.159 -3.14707 1.69393 0
M  V30 4568 S 435.718 -4.05886 1.66738 0
M  V30 4569 H 432.536 -0.608076 0.368463 0
M  V30 4570 H 435.138 -1.21558 1.53114 0
M  V30 4571 H 433.842 -3.04782 2.74838 0
M  V30 4572 H 433.373 -3.74913 1.19179 0
M  V30 4573 H 435.388 -4.91221 0.70117 0
M  V30 4574 N 434.561 -1.01147 -1.20859 0
M  V30 4575 C 435.491 -0.597663 -2.25722 0
M  V30 4576 C 436.472 0.384744 -1.65692 0
M  V30 4577 O 437.657 0.271303 -1.92296 0
M  V30 4578 C 434.787 0.0700149 -3.47229 0
M  V30 4579 C 433.741 -0.832843 -4.19819 0
M  V30 4580 C 433.067 -0.0312202 -5.34691 0
M  V30 4581 C 434.367 -2.1385 -4.76514 0
M  V30 4582 H 436.061 -1.47423 -2.60589 0
M  V30 4583 H 433.607 -0.710301 -1.25263 0
M  V30 4584 H 435.56 0.37103 -4.19763 0
M  V30 4585 H 434.284 0.981259 -3.11511 0
M  V30 4586 H 432.943 -1.11778 -3.49144 0
M  V30 4587 H 432.591 0.881515 -4.95215 0
M  V30 4588 H 432.291 -0.632434 -5.84187 0
M  V30 4589 H 433.815 0.26346 -6.10031 0
M  V30 4590 H 435.229 -1.9002 -5.40893 0
M  V30 4591 H 433.626 -2.69012 -5.36426 0
M  V30 4592 H 434.696 -2.80495 -3.95538 0
M  V30 4593 N 436.039 1.36541 -0.78704 0
M  V30 4594 C 437.264 2.0409 -0.369053 0
M  V30 4595 C 437.689 1.58957 1.00569 0
M  V30 4596 O 437.047 0.756926 1.64743 0
M  V30 4597 C 437.095 3.57924 -0.438466 0
M  V30 4598 O 436.199 4.08642 0.555479 0
M  V30 4599 H 435.54 0.645142 -0.157122 0
M  V30 4600 H 438.07 1.74545 -1.06749 0
M  V30 4601 H 438.08 4.06887 -0.301218 0
M  V30 4602 H 436.755 3.90127 -1.44132 0
M  V30 4603 H 435.332 3.70958 0.380088 0
M  V30 4604 N 437.518 0.538854 1.48102 0
M  V30 4605 C 438.465 -0.219042 2.29758 0
M  V30 4606 C 439.435 -0.925562 1.37922 0
M  V30 4607 O 440.62 -0.924855 1.66886 0
M  V30 4608 C 437.76 -1.25452 3.2149 0
M  V30 4609 C 436.873 -0.555943 4.28408 0
M  V30 4610 C 436.008 -1.57512 5.0731 0
M  V30 4611 C 435.047 -0.860498 6.06021 0
M  V30 4612 N 434.184 -1.82564 6.77949 0
M  V30 4613 H 439.024 0.483449 2.94052 0
M  V30 4614 H 436.561 0.250247 1.44956 0
M  V30 4615 H 438.519 -1.86727 3.7308 0
M  V30 4616 H 437.149 -1.92528 2.591 0
M  V30 4617 H 436.201 0.170938 3.80016 0
M  V30 4618 H 437.513 0.00474616 4.988 0
M  V30 4619 H 436.667 -2.26191 5.62959 0
M  V30 4620 H 435.406 -2.16972 4.36778 0
M  V30 4621 H 434.411 -0.159686 5.49568 0
M  V30 4622 H 435.636 -0.271897 6.78555 0
M  V30 4623 H 433.582 -2.40915 6.10161 0
M  V30 4624 H 433.499 -1.31662 7.44447 0
M  V30 4625 H 434.767 -2.50414 7.38182 0
M  V30 4626 N 438.996 -1.55193 0.274407 0
M  V30 4627 C 440.273 -1.91584 -0.394331 0
M  V30 4628 C 440.653 -1.19858 -1.73774 0
M  V30 4629 O 440.001 -0.3252 -2.26174 0
M  V30 4630 C 440.211 -3.4487 -0.535311 0
M  V30 4631 C 441.559 -4.16636 -0.818534 0
M  V30 4632 O 442.583 -3.5076 -0.620146 0
M  V30 4633 O 441.442 -5.33209 -1.19792 0
M  V30 4634 H 438.536 -0.798349 -0.215794 0
M  V30 4635 H 441.082 -1.66646 0.320507 0
M  V30 4636 H 439.854 -3.89145 0.410141 0
M  V30 4637 H 439.477 -3.75759 -1.29964 0
M  V30 4638 N 440.474 -0.00167713 -1.576 0
M  V30 4639 C 441.751 0.719951 -1.81868 0
M  V30 4640 C 442.131 1.91895 -0.879747 0
M  V30 4641 O 441.479 2.28389 0.0711423 0
M  V30 4642 C 441.689 1.12409 -3.30402 0
M  V30 4643 C 443.037 1.52724 -3.96182 0
M  V30 4644 O 444.061 1.21784 -3.34734 0
M  V30 4645 O 442.92 2.10265 -5.04431 0
M  V30 4646 H 440.014 0.350707 -0.748955 0
M  V30 4647 H 442.56 -0.0272597 -1.69678 0
M  V30 4648 H 441.332 0.269532 -3.90371 0
M  V30 4649 H 440.955 1.93035 -3.47596 0
M  V30 4650 N 441.952 1.55251 0.271103 0
M  V30 4651 C 443.198 1.76207 1.00394 0
M  V30 4652 C 443.531 0.562604 1.85872 0
M  V30 4653 O 442.806 -0.439785 1.89463 0
M  V30 4654 C 443.089 3.06828 1.8849 0
M  V30 4655 C 442.942 4.37134 1.05992 0
M  V30 4656 C 444.261 3.33503 2.87165 0
M  V30 4657 H 441.38 0.641086 0.363562 0
M  V30 4658 H 444.022 1.87982 0.276189 0
M  V30 4659 H 442.172 2.96921 2.5054 0
M  V30 4660 H 443.844 4.59001 0.459978 0
M  V30 4661 H 442.087 4.32275 0.363443 0
M  V30 4662 H 442.758 5.2486 1.70955 0
M  V30 4663 H 445.234 3.43215 2.3525 0
M  V30 4664 H 444.11 4.2616 3.45946 0
M  V30 4665 H 444.371 2.53235 3.62387 0
M  V30 4666 N 443.43 -0.535701 1.48216 0
M  V30 4667 C 444.66 -1.3148 1.59363 0
M  V30 4668 C 445.068 -1.8753 0.250844 0
M  V30 4669 O 444.411 -1.66821 -0.769174 0
M  V30 4670 C 444.473 -2.50731 2.57632 0
M  V30 4671 C 444.137 -2.15811 4.02833 0
M  V30 4672 C 445.134 -1.71822 4.90686 0
M  V30 4673 C 442.819 -2.26509 4.48329 0
M  V30 4674 C 444.813 -1.3899 6.22062 0
M  V30 4675 C 442.5 -1.93289 5.79726 0
M  V30 4676 C 443.498 -1.49599 6.66415 0
M  V30 4677 O 443.186 -1.16812 7.95368 0
M  V30 4678 H 442.918 -0.406315 0.540263 0
M  V30 4679 H 445.472 -0.653569 1.94725 0
M  V30 4680 H 443.702 -3.19817 2.1738 0
M  V30 4681 H 445.391 -3.12797 2.58675 0
M  V30 4682 H 446.157 -1.63031 4.56778 0
M  V30 4683 H 442.036 -2.59471 3.81045 0
M  V30 4684 H 445.58 -1.04816 6.89681 0
M  V30 4685 H 441.477 -2.01718 6.13172 0
M  V30 4686 H 442.245 -1.30259 8.08069 0
M  V30 4687 N 444.908 -1.36708 -0.784132 0
M  V30 4688 C 446.185 -1.21776 -1.53069 0
M  V30 4689 C 446.565 0.193876 -2.10208 0
M  V30 4690 O 445.913 1.20012 -1.94446 0
M  V30 4691 C 446.123 -2.30395 -2.62143 0
M  V30 4692 C 447.471 -2.67325 -3.29882 0
M  V30 4693 O 448.495 -2.29478 -2.7243 0
M  V30 4694 O 447.354 -3.32485 -4.33724 0
M  V30 4695 H 444.448 -0.474459 -0.677361 0
M  V30 4696 H 446.994 -1.48454 -0.82216 0
M  V30 4697 H 445.766 -3.2498 -2.17953 0
M  V30 4698 H 445.389 -2.05112 -3.40609 0
M  V30 4699 N 446.386 1.0089 -1.21074 0
M  V30 4700 C 447.633 1.74607 -1.0256 0
M  V30 4701 C 447.961 1.89426 0.44136 0
M  V30 4702 O 447.216 1.42266 1.34384 0
M  V30 4703 C 447.515 3.16335 -1.66334 0
M  V30 4704 C 447.181 3.21474 -3.16173 0
M  V30 4705 C 445.843 3.22583 -3.57062 0
M  V30 4706 C 448.195 3.19025 -4.12156 0
M  V30 4707 C 445.523 3.18925 -4.92446 0
M  V30 4708 C 447.875 3.16909 -5.47496 0
M  V30 4709 C 446.539 3.16326 -5.87787 0
M  V30 4710 H 445.809 0.638933 -0.375294 0
M  V30 4711 H 448.456 1.18274 -1.50611 0
M  V30 4712 H 446.761 3.75876 -1.10566 0
M  V30 4713 H 448.458 3.72083 -1.49516 0
M  V30 4714 H 445.048 3.2135 -2.83605 0
M  V30 4715 H 449.232 3.17332 -3.81595 0
M  V30 4716 H 444.488 3.16809 -5.22917 0
M  V30 4717 H 448.662 3.13968 -6.21609 0
M  V30 4718 H 446.289 3.13246 -6.92662 0
M  V30 4719 N 447.864 1.01787 1.20321 0
M  V30 4720 C 449.112 0.706538 1.89347 0
M  V30 4721 C 449.433 -0.766289 1.79313 0
M  V30 4722 O 448.703 -1.55126 1.19635 0
M  V30 4723 H 447.283 0.258348 0.700903 0
M  V30 4724 H 449.945 1.28974 1.46122 0
M  V30 4725 H 449.041 0.991066 2.95946 0
M  V30 4726 N 449.342 -1.36122 0.79427 0
M  V30 4727 C 450.305 -2.28309 0.201889 0
M  V30 4728 C 451.305 -1.49041 -0.603603 0
M  V30 4729 O 452.495 -1.68964 -0.423888 0
M  V30 4730 C 449.627 -3.3321 -0.719978 0
M  V30 4731 H 450.82 -2.82208 1.01481 0
M  V30 4732 H 448.373 -1.45768 0.564037 0
M  V30 4733 H 449.108 -2.84475 -1.55706 0
M  V30 4734 H 448.893 -3.91835 -0.144266 0
M  V30 4735 H 450.383 -4.02044 -1.12916 0
M  V30 4736 N 450.82 -0.546701 -1.47814 0
M  V30 4737 C 452.068 -0.0187037 -2.02091 0
M  V30 4738 C 452.389 1.33168 -1.42447 0
M  V30 4739 O 451.659 1.86619 -0.595839 0
M  V30 4740 H 450.239 -0.00392531 -0.74699 0
M  V30 4741 H 452.901 -0.714327 -1.81338 0
M  V30 4742 H 451.997 0.0772219 -3.12004 0
M  V30 4743 N 452.299 1.55045 -0.282633 0
M  V30 4744 C 453.715 1.59441 0.0712997 0
M  V30 4745 C 453.915 1.2998 1.53972 0
M  V30 4746 O 452.971 1.06431 2.28973 0
M  V30 4747 C 454.284 2.99097 -0.310104 0
M  V30 4748 C 455.832 3.1194 -0.257343 0
M  V30 4749 C 456.307 4.53875 -0.613297 0
M  V30 4750 N 457.798 4.5974 -0.565134 0
M  V30 4751 C 458.533 5.67603 -0.81326 0
M  V30 4752 N 458.029 6.83582 -1.1264 0
M  V30 4753 N 459.822 5.57187 -0.741553 0
M  V30 4754 H 451.973 1.72458 -1.23984 0
M  V30 4755 H 454.236 0.804549 -0.501403 0
M  V30 4756 H 453.942 3.25516 -1.33163 0
M  V30 4757 H 453.816 3.75616 0.345366 0
M  V30 4758 H 456.203 2.85281 0.754905 0
M  V30 4759 H 456.284 2.37618 -0.947178 0
M  V30 4760 H 455.928 4.81261 -1.62327 0
M  V30 4761 H 455.858 5.26508 0.09841 0
M  V30 4762 H 458.349 3.76427 -0.333294 0
M  V30 4763 H 458.662 7.6175 -1.30219 0
M  V30 4764 H 457.007 6.85179 -1.16425 0
M  V30 4765 H 460.198 4.65457 -0.496705 0
M  V30 4766 H 460.371 6.41171 -0.938306 0
M  V30 4767 N 453.777 0.010035 1.57597 0
M  V30 4768 C 454.709 -1.00649 2.05918 0
M  V30 4769 C 455.722 -1.30077 0.978964 0
M  V30 4770 O 456.911 -1.26878 1.25556 0
M  V30 4771 C 454.011 -2.33876 2.45265 0
M  V30 4772 C 453.184 -2.23242 3.7614 0
M  V30 4773 C 452.243 -3.39242 4.02245 0
M  V30 4774 O 451.269 -3.1698 4.72771 0
M  V30 4775 N 452.471 -4.6242 3.50924 0
M  V30 4776 H 455.236 -0.594333 2.93748 0
M  V30 4777 H 452.797 -0.17714 1.60928 0
M  V30 4778 H 454.789 -3.1027 2.59836 0
M  V30 4779 H 453.359 -2.66799 1.62902 0
M  V30 4780 H 452.579 -1.31696 3.71551 0
M  V30 4781 H 453.867 -2.13321 4.61922 0
M  V30 4782 H 453.265 -4.83404 2.93832 0
M  V30 4783 H 451.822 -5.36046 3.70807 0
M  V30 4784 N 455.255 -1.55392 -0.262866 0
M  V30 4785 C 456.532 -1.67204 -1.01499 0
M  V30 4786 C 456.912 -0.545186 -2.03939 0
M  V30 4787 O 456.26 0.453467 -2.23955 0
M  V30 4788 C 456.47 -3.06847 -1.6627 0
M  V30 4789 C 457.818 -3.64928 -2.17054 0
M  V30 4790 O 458.842 -3.09545 -1.76239 0
M  V30 4791 O 457.701 -4.61984 -2.91947 0
M  V30 4792 H 454.795 -0.679467 -0.471438 0
M  V30 4793 H 457.341 -1.67729 -0.257918 0
M  V30 4794 H 456.113 -3.80309 -0.920915 0
M  V30 4795 H 455.736 -3.10266 -2.48638 0
M  V30 4796 N 456.733 0.527833 -1.48498 0
M  V30 4797 C 457.663 1.64136 -1.66077 0
M  V30 4798 C 458.644 1.62286 -0.509625 0
M  V30 4799 O 459.829 1.79449 -0.742413 0
M  V30 4800 C 456.959 3.02717 -1.70234 0
M  V30 4801 C 455.913 3.19426 -2.8487 0
M  V30 4802 C 455.239 4.5909 -2.74118 0
M  V30 4803 C 456.539 3.01993 -4.26142 0
M  V30 4804 H 458.233 1.4968 -2.593 0
M  V30 4805 H 455.779 0.718654 -1.24785 0
M  V30 4806 H 457.732 3.80491 -1.8112 0
M  V30 4807 H 456.456 3.18201 -0.735911 0
M  V30 4808 H 455.115 2.4407 -2.73542 0
M  V30 4809 H 454.763 4.71413 -1.7544 0
M  V30 4810 H 454.463 4.71214 -3.51042 0
M  V30 4811 H 455.987 5.3896 -2.86974 0
M  V30 4812 H 457.401 3.69558 -4.38292 0
M  V30 4813 H 455.798 3.2561 -5.04082 0
M  V30 4814 H 456.868 1.98396 -4.42456 0
M  V30 4815 N 458.211 1.37122 0.776871 0
M  V30 4816 C 459.159 1.32549 1.91138 0
M  V30 4817 C 460.153 0.215119 1.68029 0
M  V30 4818 O 461.359 0.382852 1.75881 0
M  V30 4819 H 457.734 0.412952 0.62847 0
M  V30 4820 H 459.705 2.28332 1.92112 0
M  V30 4821 C 458.454 1.14422 3.28333 0
M  V30 4822 H 457.777 1.99115 3.46689 0
M  V30 4823 H 459.217 1.15272 4.0803 0
M  V30 4824 C 457.676 -0.150434 3.36564 0
M  V30 4825 O 458.206 -1.13584 3.85307 0
M  V30 4826 N 456.412 -0.19939 2.89915 0
M  V30 4827 H 455.959 0.603142 2.5044 0
M  V30 4828 H 455.917 -1.06526 2.95803 0
M  V30 4829 N 459.689 -1.00246 1.21608 0
M  V30 4830 C 460.652 -2.07233 0.979133 0
M  V30 4831 C 461.652 -1.6072 -0.0508219 0
M  V30 4832 O 462.842 -1.73196 0.186712 0
M  V30 4833 C 459.974 -3.37546 0.477016 0
M  V30 4834 H 461.167 -2.29687 1.92831 0
M  V30 4835 H 458.72 -1.17261 1.03342 0
M  V30 4836 H 459.455 -3.20773 -0.476966 0
M  V30 4837 H 459.24 -3.72638 1.21997 0
M  V30 4838 H 460.73 -4.16285 0.331181 0
M  V30 4839 N 461.167 -1.02423 -1.1978 0
M  V30 4840 C 462.392 -0.7373 -1.93852 0
M  V30 4841 C 462.817 0.696923 -1.74713 0
M  V30 4842 O 462.175 1.48056 -1.04638 0
M  V30 4843 C 462.223 -1.08783 -3.438 0
M  V30 4844 O 461.327 -0.20383 -4.11896 0
M  V30 4845 H 460.668 -0.27284 -0.605355 0
M  V30 4846 H 463.198 -1.36966 -1.51992 0
M  V30 4847 H 463.208 -1.04276 -3.9445 0
M  V30 4848 H 461.883 -2.13274 -3.57053 0
M  V30 4849 H 460.46 -0.307091 -3.71633 0
M  V30 4850 N 462.645 1.35699 -0.801477 0
M  V30 4851 C 463.893 1.9852 -0.37871 0
M  V30 4852 C 464.214 1.63907 1.05638 0
M  V30 4853 O 463.484 0.919013 1.73006 0
M  V30 4854 H 462.064 0.734322 -0.137042 0
M  V30 4855 H 464.726 1.65697 -1.02619 0
M  V30 4856 H 463.822 3.08382 -0.480284 0
M  V30 4857 N 464.123 0.554532 1.47522 0
M  V30 4858 C 465.053 -0.182974 2.32782 0
M  V30 4859 C 466.034 -0.911377 1.43624 0
M  V30 4860 O 467.219 -0.892366 1.72483 0
M  V30 4861 C 464.349 -1.21513 3.25349 0
M  V30 4862 C 463.303 -0.603355 4.23726 0
M  V30 4863 C 462.629 -1.73995 5.05598 0
M  V30 4864 C 463.929 0.441121 5.20434 0
M  V30 4865 H 465.623 0.52882 2.94693 0
M  V30 4866 H 463.169 0.255759 1.41711 0
M  V30 4867 H 465.122 -1.73922 3.83835 0
M  V30 4868 H 463.846 -1.95683 2.61487 0
M  V30 4869 H 462.505 -0.10059 3.66462 0
M  V30 4870 H 462.153 -2.47063 4.38143 0
M  V30 4871 H 461.853 -1.3364 5.72201 0
M  V30 4872 H 463.377 -2.26735 5.66942 0
M  V30 4873 H 464.791 0.00319931 5.733 0
M  V30 4874 H 463.188 0.763402 5.95224 0
M  V30 4875 H 464.258 1.33799 4.66075 0
M  V30 4876 N 465.601 -1.54893 0.290851 0
M  V30 4877 C 466.841 -2.01842 -0.322388 0
M  V30 4878 C 467.205 -1.17477 -1.51865 0
M  V30 4879 O 468.406 -1.54077 -2.20258 0
M  V30 4880 C 466.677 -3.50874 -0.679844 0
M  V30 4881 S 468.236 -4.19796 -1.27739 0
M  V30 4882 H 465.054 -0.704005 -0.0994866 0
M  V30 4883 H 467.656 -1.91015 0.416358 0
M  V30 4884 H 466.36 -4.09915 0.199435 0
M  V30 4885 H 465.891 -3.65717 -1.44964 0
M  V30 4886 H 467.906 -4.24729 -2.56554 0
M  V30 4887 N 467.08 -0.0183926 -1.57589 0
M  V30 4888 C 468.326 0.663543 -1.91638 0
M  V30 4889 C 468.659 1.72392 -0.894134 0
M  V30 4890 O 467.934 1.94316 0.0846449 0
M  V30 4891 C 468.217 1.28984 -3.36207 0
M  V30 4892 C 468.07 0.239761 -4.49161 0
M  V30 4893 C 469.389 2.2109 -3.80536 0
M  V30 4894 H 466.508 0.239746 -0.696915 0
M  V30 4895 H 469.15 -0.073456 -1.89858 0
M  V30 4896 H 467.3 1.91799 -3.37854 0
M  V30 4897 H 468.972 -0.390119 -4.59647 0
M  V30 4898 H 467.215 -0.435972 -4.31604 0
M  V30 4899 H 467.886 0.717383 -5.47319 0
M  V30 4900 H 470.362 1.68273 -3.80557 0
M  V30 4901 H 469.238 2.61869 -4.82406 0
M  V30 4902 H 469.499 3.09764 -3.15434 0
M  V30 4903 N 468.558 1.5553 0.254621 0
M  V30 4904 C 469.506 1.9048 1.33492 0
M  V30 4905 C 470.5 0.78304 1.50216 0
M  V30 4906 O 471.706 0.967582 1.51782 0
M  V30 4907 H 468.081 0.604846 0.44684 0
M  V30 4908 H 470.052 2.80688 1.01275 0
M  V30 4909 C 468.801 2.20928 2.68489 0
M  V30 4910 H 468.124 3.06742 2.56417 0
M  V30 4911 H 469.564 2.49291 3.42972 0
M  V30 4912 C 468.023 1.023 3.20993 0
M  V30 4913 O 468.553 0.267027 4.00811 0
M  V30 4914 N 466.759 0.815714 2.78917 0
M  V30 4915 H 466.306 1.43217 2.14119 0
M  V30 4916 H 466.264 0.0236532 3.14391 0
M  V30 4917 N 470.036 -0.519951 1.48776 0
M  V30 4918 C 471.282 -1.27456 1.58514 0
M  V30 4919 C 471.637 -1.90634 0.260057 0
M  V30 4920 O 470.93 -1.76815 -0.738036 0
M  V30 4921 C 471.124 -2.37864 2.6675 0
M  V30 4922 C 470.953 -1.85509 4.09654 0
M  V30 4923 C 469.723 -1.67661 4.76674 0
M  V30 4924 C 471.921 -1.37783 4.955 0
M  V30 4925 N 469.903 -1.10037 6.03958 0
M  V30 4926 C 471.274 -0.921714 6.1311 0
M  V30 4927 C 473.329 -1.26179 4.81646 0
M  V30 4928 C 472.032 -0.361057 7.18393 0
M  V30 4929 C 474.058 -0.715121 5.8706 0
M  V30 4930 C 473.42 -0.269132 7.03886 0
M  V30 4931 H 469.519 -0.457049 0.634531 0
M  V30 4932 H 472.103 -0.585073 1.85701 0
M  V30 4933 H 470.274 -3.04296 2.41367 0
M  V30 4934 H 472.006 -3.04901 2.66116 0
M  V30 4935 H 468.761 -1.91478 4.33166 0
M  V30 4936 H 469.185 -0.832067 6.71867 0
M  V30 4937 H 473.827 -1.59263 3.91657 0
M  V30 4938 H 471.545 -0.0179127 8.08098 0
M  V30 4939 H 475.131 -0.628376 5.78397 0
M  V30 4940 H 474.011 0.14729 7.84062 0
M  V30 4941 N 471.514 -1.37532 -0.769588 0
M  V30 4942 C 472.462 -1.33561 -1.90432 0
M  V30 4943 C 473.456 -0.224027 -1.67912 0
M  V30 4944 O 474.662 -0.392174 -1.75676 0
M  V30 4945 H 471.037 -0.416279 -0.626271 0
M  V30 4946 H 473.008 -2.29348 -1.90899 0
M  V30 4947 C 471.757 -1.16162 -3.27722 0
M  V30 4948 H 471.08 -2.00951 -3.45628 0
M  V30 4949 H 472.52 -1.17434 -4.07413 0
M  V30 4950 C 470.979 0.132583 -3.36639 0
M  V30 4951 O 471.509 1.11539 -3.85904 0
M  V30 4952 N 469.715 0.184013 -2.90017 0
M  V30 4953 H 469.262 -0.616415 -2.50116 0
M  V30 4954 H 469.22 1.04956 -2.96364 0
M  V30 4955 N 472.992 0.995999 -1.22138 0
M  V30 4956 C 474.408 1.25917 -0.980667 0
M  V30 4957 C 474.608 1.98819 0.327604 0
M  V30 4958 O 473.664 2.29587 1.05101 0
M  V30 4959 C 474.977 2.07399 -2.17729 0
M  V30 4960 C 476.525 2.20594 -2.22052 0
M  V30 4961 C 477 3.05462 -3.41258 0
M  V30 4962 N 478.491 3.13049 -3.41401 0
M  V30 4963 C 479.226 3.78997 -4.30289 0
M  V30 4964 N 478.722 4.46899 -5.2939 0
M  V30 4965 N 480.515 3.75728 -4.18073 0
M  V30 4966 H 472.666 0.507158 -2.06256 0
M  V30 4967 H 474.929 0.28658 -0.903646 0
M  V30 4968 H 474.635 1.61191 -3.12586 0
M  V30 4969 H 474.509 3.08154 -2.17534 0
M  V30 4970 H 476.896 2.66017 -1.27745 0
M  V30 4971 H 476.977 1.1928 -2.26287 0
M  V30 4972 H 476.621 2.60739 -4.35864 0
M  V30 4973 H 476.551 4.06911 -3.34262 0
M  V30 4974 H 479.042 2.64721 -2.69688 0
M  V30 4975 H 479.355 4.94952 -5.935 0
M  V30 4976 H 477.7 4.45657 -5.33306 0
M  V30 4977 H 480.891 3.2184 -3.39907 0
M  V30 4978 H 481.064 4.26845 -4.87553 0
M  V30 4979 N 474.47 1.03057 1.19235 0
M  V30 4980 C 475.7 0.746613 1.92638 0
M  V30 4981 C 476.108 -0.698708 1.75826 0
M  V30 4982 O 475.451 -1.487 1.07861 0
M  V30 4983 C 475.513 1.02024 3.44719 0
M  V30 4984 C 475.177 2.45745 3.85303 0
M  V30 4985 C 476.174 3.43887 3.8992 0
M  V30 4986 C 473.859 2.8019 4.16892 0
M  V30 4987 C 475.853 4.74529 4.2556 0
M  V30 4988 C 473.54 4.1104 4.52205 0
M  V30 4989 C 474.538 5.0802 4.56513 0
M  V30 4990 O 474.226 6.36527 4.91008 0
M  V30 4991 H 473.958 0.272401 0.618687 0
M  V30 4992 H 476.512 1.37853 1.52269 0
M  V30 4993 H 474.742 0.331184 3.85279 0
M  V30 4994 H 476.431 0.725677 3.9936 0
M  V30 4995 H 477.197 3.18614 3.65664 0
M  V30 4996 H 473.076 2.05382 4.12722 0
M  V30 4997 H 476.62 5.50222 4.28838 0
M  V30 4998 H 472.517 4.36086 4.7592 0
M  V30 4999 H 473.285 6.41025 5.08949 0
M  V30 5000 N 475.948 -1.35272 0.808662 0
M  V30 5001 C 477.178 -2.02652 0.401953 0
M  V30 5002 C 477.586 -1.6108 -0.992462 0
M  V30 5003 O 476.929 -0.804984 -1.65123 0
M  V30 5004 C 476.991 -3.57174 0.408246 0
M  V30 5005 C 476.655 -4.22019 1.75353 0
M  V30 5006 C 477.652 -4.43552 2.71215 0
M  V30 5007 C 475.337 -4.59093 2.03811 0
M  V30 5008 C 477.331 -5.01264 3.93717 0
M  V30 5009 C 475.018 -5.16519 3.26576 0
M  V30 5010 C 476.016 -5.37546 4.21347 0
M  V30 5011 O 475.704 -5.93761 5.41944 0
M  V30 5012 H 475.436 -0.656495 0.161216 0
M  V30 5013 H 477.99 -1.73829 1.0942 0
M  V30 5014 H 476.22 -3.85197 -0.340608 0
M  V30 5015 H 477.909 -4.05893 0.0235623 0
M  V30 5016 H 478.675 -4.15288 2.50522 0
M  V30 5017 H 474.554 -4.42039 1.30854 0
M  V30 5018 H 478.098 -5.17592 4.67701 0
M  V30 5019 H 473.995 -5.4421 3.47139 0
M  V30 5020 H 474.763 -6.1221 5.43269 0
M  V30 5021 N 477.426 -0.562348 -1.47226 0
M  V30 5022 C 478.374 0.195476 -2.31777 0
M  V30 5023 C 479.368 0.90433 -1.43242 0
M  V30 5024 O 480.574 0.825031 -1.59979 0
M  V30 5025 H 476.949 0.0819095 -0.747526 0
M  V30 5026 H 478.92 -0.536753 -2.93533 0
M  V30 5027 C 477.669 1.20902 -3.26003 0
M  V30 5028 H 476.992 0.672997 -3.94095 0
M  V30 5029 H 478.432 1.71006 -3.87986 0
M  V30 5030 C 476.891 2.25955 -2.49891 0
M  V30 5031 O 477.421 3.32969 -2.2471 0
M  V30 5032 N 475.627 2.00019 -2.1081 0
M  V30 5033 H 475.174 1.13006 -2.31489 0
M  V30 5034 H 475.132 2.70523 -1.60201 0
M  V30 5035 N 478.904 1.54736 -0.299062 0
M  V30 5036 C 480.15 2.00397 0.311244 0
M  V30 5037 C 480.483 1.18716 1.53688 0
M  V30 5038 O 479.758 0.263154 1.92712 0
M  V30 5039 C 480.041 3.53817 0.669761 0
M  V30 5040 C 479.894 4.46239 -0.564882 0
M  V30 5041 C 481.213 4.13856 1.49702 0
M  V30 5042 H 478.332 0.728493 0.111653 0
M  V30 5043 H 480.974 1.85506 -0.410774 0
M  V30 5044 H 479.124 3.66637 1.28491 0
M  V30 5045 H 480.796 4.45328 -1.20337 0
M  V30 5046 H 479.039 4.16916 -1.19849 0
M  V30 5047 H 479.71 5.5134 -0.269918 0
M  V30 5048 H 482.186 4.04461 0.977284 0
M  V30 5049 H 481.062 5.21365 1.71666 0
M  V30 5050 H 481.323 3.65608 2.48563 0
M  V30 5051 N 480.382 0.0267497 1.57577 0
M  V30 5052 C 481.622 -0.65659 1.93567 0
M  V30 5053 C 481.986 -1.69429 0.903213 0
M  V30 5054 O 483.187 -2.42994 1.14923 0
M  V30 5055 C 481.458 -1.25912 3.34486 0
M  V30 5056 S 483.017 -1.96386 3.924 0
M  V30 5057 H 479.835 -0.216237 0.67732 0
M  V30 5058 H 482.437 0.0898475 1.95293 0
M  V30 5059 H 481.141 -0.491405 4.07447 0
M  V30 5060 H 480.672 -2.04291 3.36198 0
M  V30 5061 H 482.687 -3.24202 3.75643 0
M  V30 5062 N 481.861 -1.55662 -0.24637 0
M  V30 5063 C 483.277 -1.48098 -0.594907 0
M  V30 5064 C 483.477 -0.717044 -1.8831 0
M  V30 5065 O 482.533 -0.246618 -2.51293 0
M  V30 5066 C 483.846 -2.92507 -0.697146 0
M  V30 5067 C 485.394 -3.02881 -0.789436 0
M  V30 5068 C 485.869 -4.48598 -0.923232 0
M  V30 5069 N 487.36 -4.52538 -0.988088 0
M  V30 5070 C 488.095 -5.62536 -1.11089 0
M  V30 5071 N 487.591 -6.82342 -1.19919 0
M  V30 5072 N 489.384 -5.50334 -1.14408 0
M  V30 5073 H 481.535 -2.0377 0.599278 0
M  V30 5074 H 483.798 -0.925145 0.20691 0
M  V30 5075 H 483.504 -3.51242 0.179396 0
M  V30 5076 H 483.378 -3.43024 -1.5689 0
M  V30 5077 H 485.765 -2.44226 -1.65643 0
M  V30 5078 H 485.846 -2.55574 0.107482 0
M  V30 5079 H 485.49 -5.07864 -0.0607927 0
M  V30 5080 H 485.42 -4.93587 -1.8352 0
M  V30 5081 H 487.911 -3.66248 -0.931167 0
M  V30 5082 H 488.224 -7.61924 -1.29197 0
M  V30 5083 H 486.569 -6.85102 -1.16876 0
M  V30 5084 H 489.76 -4.5567 -1.07158 0
M  V30 5085 H 489.933 -6.36096 -1.23634 0
M  V30 5086 N 483.339 0.512053 -1.4905 0
M  V30 5087 C 484.567 1.29116 -1.61669 0
M  V30 5088 C 484.982 1.86655 -0.283787 0
M  V30 5089 O 484.339 1.67293 0.729331 0
M  V30 5090 C 484.39 2.4293 -2.67707 0
M  V30 5091 O 484.111 1.87758 -3.95826 0
M  V30 5092 C 485.612 3.34476 -2.90931 0
M  V30 5093 H 482.832 0.392009 -0.544583 0
M  V30 5094 H 485.376 0.615881 -1.95006 0
M  V30 5095 H 483.531 3.06308 -2.37179 0
M  V30 5096 H 483.945 2.62393 -4.54148 0
M  V30 5097 H 485.419 4.10642 -3.68886 0
M  V30 5098 H 485.896 3.90801 -2.00427 0
M  V30 5099 H 486.502 2.76874 -3.22832 0
M  V30 5100 N 484.817 1.37938 0.762283 0
M  V30 5101 C 486.065 1.33404 1.51815 0
M  V30 5102 C 486.386 -0.0780975 1.94844 0
M  V30 5103 O 485.656 -1.02405 1.67003 0
M  V30 5104 H 484.236 0.490839 0.563104 0
M  V30 5105 H 486.898 1.72527 0.906669 0
M  V30 5106 H 485.994 1.97926 2.41313 0
M  V30 5107 N 486.295 -0.989507 1.22664 0
M  V30 5108 C 487.52 -1.77031 1.08051 0
M  V30 5109 C 487.945 -1.84535 -0.364483 0
M  V30 5110 O 487.303 -1.3003 -1.2634 0
M  V30 5111 C 487.351 -3.18 1.70024 0
M  V30 5112 O 486.455 -4.01161 0.956216 0
M  V30 5113 H 485.796 -0.545008 0.379292 0
M  V30 5114 H 488.326 -1.24277 1.62531 0
M  V30 5115 H 488.336 -3.68616 1.74888 0
M  V30 5116 H 487.011 -3.11853 2.75174 0
M  V30 5117 H 485.588 -3.59687 0.98384 0
M  V30 5118 N 487.773 -1.03688 -1.18687 0
M  V30 5119 C 488.736 -0.629115 -2.20397 0
M  V30 5120 C 489.736 0.311495 -1.57754 0
M  V30 5121 O 490.926 0.0974107 -1.73927 0
M  V30 5122 C 488.058 0.0782231 -3.4081 0
M  V30 5123 H 489.251 -1.52915 -2.57987 0
M  V30 5124 H 486.804 -0.828988 -1.32505 0
M  V30 5125 H 487.539 0.992233 -3.08748 0
M  V30 5126 H 487.324 -0.597776 -3.87517 0
M  V30 5127 H 488.814 0.350156 -4.16129 0
M  V30 5128 N 489.251 1.34841 -0.815825 0
M  V30 5129 C 490.199 2.31549 -0.220888 0
M  V30 5130 C 491.193 1.5707 0.634457 0
M  V30 5131 O 492.399 1.72125 0.526589 0
M  V30 5132 H 488.774 0.750153 -0.0526782 0
M  V30 5133 H 490.745 2.7926 -1.05149 0
M  V30 5134 C 489.494 3.42335 0.608427 0
M  V30 5135 H 488.817 3.9978 -0.0404121 0
M  V30 5136 H 490.257 4.12258 0.990931 0
M  V30 5137 C 488.716 2.86173 1.77782 0
M  V30 5138 O 489.246 2.80474 2.87571 0
M  V30 5139 N 487.452 2.43093 1.59229 0
M  V30 5140 H 486.999 2.47928 0.699237 0
M  V30 5141 H 486.957 2.05866 2.37627 0
M  V30 5142 N 490.729 0.570148 1.46925 0
M  V30 5143 C 492.14 0.1402 1.86173 0
M  V30 5144 C 492.491 -1.29347 1.47526 0
M  V30 5145 O 491.616 -1.97508 0.884292 0
M  V30 5146 C 492.211 0.247661 3.37894 0
M  V30 5147 C 490.77 -0.127332 3.76185 0
M  V30 5148 C 489.917 0.589349 2.70965 0
M  V30 5149 H 492.868 0.779117 1.38259 0
M  V30 5150 H 492.889 -0.530341 3.76786 0
M  V30 5151 H 492.401 1.29121 3.65991 0
M  V30 5152 H 490.502 -1.17149 3.53704 0
M  V30 5153 H 490.615 0.240238 4.78497 0
M  V30 5154 H 488.979 0.0309824 2.54681 0
M  V30 5155 H 489.762 1.6343 3.01903 0
M  V30 5156 N 492.207 -1.54576 0.307264 0
M  V30 5157 C 493.157 -2.20467 -0.581249 0
M  V30 5158 C 494.141 -1.17972 -1.09414 0
M  V30 5159 O 495.333 -1.43667 -1.03387 0
M  V30 5160 C 492.462 -2.95369 -1.74963 0
M  V30 5161 C 491.548 -4.05186 -1.25241 0
M  V30 5162 N 491.939 -5.03577 -0.47364 0
M  V30 5163 C 490.237 -4.18841 -1.53259 0
M  V30 5164 C 490.938 -5.81328 -0.208083 0
M  V30 5165 N 489.914 -5.37834 -0.789651 0
M  V30 5166 H 493.716 -2.93892 0.0212221 0
M  V30 5167 H 491.23 -1.62011 0.112325 0
M  V30 5168 H 493.227 -3.41046 -2.39777 0
M  V30 5169 H 491.887 -2.23461 -2.35574 0
M  V30 5170 H 492.898 -5.17766 -0.117963 0
M  V30 5171 H 489.575 -3.58141 -2.14573 0
M  V30 5172 H 490.965 -6.706 0.417793 0
M  V30 5173 N 493.685 -0.035106 -1.57561 0
M  V30 5174 C 494.632 0.94474 -2.10578 0
M  V30 5175 C 495.602 1.3192 -1.00927 0
M  V30 5176 O 496.787 1.41147 -1.28382 0
M  V30 5177 C 493.927 2.21982 -2.64231 0
M  V30 5178 C 493.04 1.90128 -3.87911 0
M  V30 5179 C 492.175 3.11975 -4.29936 0
M  V30 5180 C 491.214 2.75968 -5.46359 0
M  V30 5181 N 490.351 3.90459 -5.83512 0
M  V30 5182 H 495.191 0.485717 -2.94015 0
M  V30 5183 H 492.728 0.228143 -1.4532 0
M  V30 5184 H 494.686 2.96572 -2.9343 0
M  V30 5185 H 493.316 2.6549 -1.83616 0
M  V30 5186 H 492.368 1.05755 -3.65404 0
M  V30 5187 H 493.68 1.59613 -4.72573 0
M  V30 5188 H 492.834 3.9488 -4.60603 0
M  V30 5189 H 491.573 3.45657 -3.44053 0
M  V30 5190 H 490.578 1.91478 -5.1538 0
M  V30 5191 H 491.803 2.43497 -6.33945 0
M  V30 5192 H 489.749 4.23971 -5.00584 0
M  V30 5193 H 489.666 3.63588 -6.62827 0
M  V30 5194 H 490.934 4.7405 -6.18787 0
M  V30 5195 N 495.163 1.55791 0.238111 0
M  V30 5196 C 496.411 1.77681 0.963001 0
M  V30 5197 C 496.732 0.600674 1.85518 0
M  V30 5198 O 496.002 -0.383182 1.92116 0
M  V30 5199 H 494.582 0.655315 0.358568 0
M  V30 5200 H 497.244 1.93239 0.253945 0
M  V30 5201 H 496.34 2.69177 1.57956 0
M  V30 5202 N 496.642 -0.504142 1.49319 0
M  V30 5203 C 497.605 -1.5883 1.65244 0
M  V30 5204 C 498.605 -1.52009 0.524386 0
M  V30 5205 O 499.795 -1.55218 0.79077 0
M  V30 5206 C 496.927 -2.98481 1.64687 0
M  V30 5207 H 498.12 -1.4604 2.61939 0
M  V30 5208 H 495.673 -0.728144 1.38303 0
M  V30 5209 H 496.408 -3.16751 0.695644 0
M  V30 5210 H 496.193 -3.0484 2.46607 0
M  V30 5211 H 497.683 -3.77256 1.79075 0
M  V30 5212 N 498.12 -1.38341 -0.754957 0
M  V30 5213 C 499.369 -1.33791 -1.5094 0
M  V30 5214 C 499.682 0.0699267 -1.95475 0
M  V30 5215 O 500.888 0.237956 -2.70455 0
M  V30 5216 C 499.344 -2.34934 -2.72643 0
M  V30 5217 C 498.952 -3.81332 -2.35138 0
M  V30 5218 C 500.696 -2.39425 -3.50536 0
M  V30 5219 C 498.603 -4.74164 -3.53444 0
M  V30 5220 H 497.533 -0.497314 -0.566741 0
M  V30 5221 H 500.184 -1.63888 -0.825403 0
M  V30 5222 H 498.566 -1.97878 -3.43017 0
M  V30 5223 H 499.74 -4.27319 -1.7244 0
M  V30 5224 H 498.055 -3.79946 -1.70382 0
M  V30 5225 H 500.652 -3.0598 -4.38498 0
M  V30 5226 H 500.995 -1.41278 -3.91594 0
M  V30 5227 H 501.528 -2.75274 -2.87174 0
M  V30 5228 H 498.267 -5.73501 -3.17453 0
M  V30 5229 H 497.787 -4.3287 -4.15191 0
M  V30 5230 H 499.466 -4.92111 -4.20043 0
M  V30 5231 N 499.598 0.982988 -1.23187 0
M  V30 5232 C 500.546 2.09616 -1.00817 0
M  V30 5233 C 501.54 1.6932 0.0519995 0
M  V30 5234 O 502.746 1.79715 -0.101284 0
M  V30 5235 H 499.121 0.685628 -0.308899 0
M  V30 5236 H 501.092 2.25652 -1.95253 0
M  V30 5237 C 499.841 3.42249 -0.613243 0
M  V30 5238 H 499.164 3.73705 -1.42073 0
M  V30 5239 H 500.604 4.21086 -0.496208 0
M  V30 5240 C 499.063 3.30002 0.678233 0
M  V30 5241 O 499.593 3.6263 1.72807 0
M  V30 5242 N 497.799 2.83164 0.653165 0
M  V30 5243 H 497.346 2.56811 -0.201492 0
M  V30 5244 H 497.304 2.75352 1.51752 0
M  V30 5245 N 501.076 1.04316 1.18135 0
M  V30 5246 C 502.323 0.74802 1.88178 0
M  V30 5247 C 502.651 -0.72441 1.80506 0
M  V30 5248 O 501.906 -1.54463 1.20165 0
M  V30 5249 C 502.205 1.16271 3.37958 0
M  V30 5250 C 501.871 2.63585 3.65833 0
M  V30 5251 C 500.533 3.03829 3.73151 0
M  V30 5252 C 502.885 3.58822 3.78016 0
M  V30 5253 C 500.213 4.38194 3.90132 0
M  V30 5254 C 502.565 4.92909 3.96514 0
M  V30 5255 C 501.229 5.3282 4.02068 0
M  V30 5256 H 500.499 0.27372 0.688592 0
M  V30 5257 H 503.146 1.30863 1.39811 0
M  V30 5258 H 501.451 0.520938 3.88321 0
M  V30 5259 H 503.148 0.911672 3.90499 0
M  V30 5260 H 499.738 2.31414 3.60757 0
M  V30 5261 H 503.922 3.28875 3.71692 0
M  V30 5262 H 499.178 4.68631 3.92677 0
M  V30 5263 H 503.352 5.66606 4.04883 0
M  V30 5264 H 500.979 6.36943 4.14979 0
M  V30 5265 N 502.554 -1.34406 0.822964 0
M  V30 5266 C 503.831 -1.92733 0.333641 0
M  V30 5267 C 504.211 -1.75107 -1.17901 0
M  V30 5268 O 503.559 -1.12983 -1.98613 0
M  V30 5269 C 503.769 -3.40557 0.763023 0
M  V30 5270 C 505.117 -4.17709 0.761879 0
M  V30 5271 O 506.141 -3.49141 0.705606 0
M  V30 5272 O 505 -5.40082 0.835109 0
M  V30 5273 H 502.094 -0.821964 0.0911249 0
M  V30 5274 H 504.64 -1.4338 0.907757 0
M  V30 5275 H 503.412 -3.47187 1.8049 0
M  V30 5276 H 503.035 -3.97259 0.164605 0
M  V30 5277 N 504.032 -0.577932 -1.46621 0
M  V30 5278 C 504.98 0.170882 -2.31971 0
M  V30 5279 C 505.974 0.889086 -1.44193 0
M  V30 5280 O 507.18 0.808017 -1.60845 0
M  V30 5281 H 503.555 0.0739763 -0.748353 0
M  V30 5282 H 505.526 -0.567856 -2.92947 0
M  V30 5283 C 504.275 1.17438 -3.27267 0
M  V30 5284 H 503.598 0.63116 -3.94787 0
M  V30 5285 H 505.038 1.66882 -3.89778 0
M  V30 5286 C 503.497 2.23292 -2.52274 0
M  V30 5287 O 504.027 3.30567 -2.28229 0
M  V30 5288 N 502.233 1.97772 -2.12919 0
M  V30 5289 H 501.78 1.10545 -2.32675 0
M  V30 5290 H 501.738 2.68809 -1.63062 0
M  V30 5291 N 505.51 1.54411 -0.315457 0
M  V30 5292 C 506.759 1.99599 0.290395 0
M  V30 5293 C 507.072 1.20746 1.53882 0
M  V30 5294 O 508.278 1.56272 2.22017 0
M  V30 5295 C 506.734 3.5539 0.56797 0
M  V30 5296 C 506.342 4.43068 -0.662945 0
M  V30 5297 C 508.086 4.09067 1.13422 0
M  V30 5298 C 505.993 5.90317 -0.357722 0
M  V30 5299 H 504.923 0.745592 0.112286 0
M  V30 5300 H 507.574 1.78477 -0.426418 0
M  V30 5301 H 505.956 3.72468 1.34476 0
M  V30 5302 H 507.13 4.37765 -1.43869 0
M  V30 5303 H 505.445 4.00238 -1.14884 0
M  V30 5304 H 508.042 5.16663 1.37707 0
M  V30 5305 H 508.385 3.60552 2.08106 0
M  V30 5306 H 508.918 3.95589 0.418805 0
M  V30 5307 H 505.657 6.4301 -1.27351 0
M  V30 5308 H 505.177 5.98592 0.380472 0
M  V30 5309 H 506.856 6.4699 0.0354284 0
M  V30 5310 N 506.988 0.0434614 1.5754 0
M  V30 5311 C 508.236 -0.630786 1.92004 0
M  V30 5312 C 508.557 -1.71836 0.921807 0
M  V30 5313 O 507.827 -1.9587 -0.034522 0
M  V30 5314 H 506.407 -0.235988 0.708745 0
M  V30 5315 H 509.069 0.0946462 1.9467 0
M  V30 5316 H 508.165 -1.07434 2.93026 0
M  V30 5317 N 508.466 -1.55915 -0.229846 0
M  V30 5318 C 509.696 -1.82352 -0.971152 0
M  V30 5319 C 510.104 -0.619231 -1.7878 0
M  V30 5320 O 509.447 0.421597 -1.78797 0
M  V30 5321 C 509.509 -3.02399 -1.9441 0
M  V30 5322 C 509.173 -4.37739 -1.31277 0
M  V30 5323 C 510.17 -5.15074 -0.706757 0
M  V30 5324 C 507.855 -4.84454 -1.32702 0
M  V30 5325 C 509.849 -6.37281 -0.123413 0
M  V30 5326 C 507.536 -6.06605 -0.739831 0
M  V30 5327 C 508.534 -6.82858 -0.139071 0
M  V30 5328 O 508.222 -8.027 0.439007 0
M  V30 5329 H 507.954 -0.61035 -0.290601 0
M  V30 5330 H 510.508 -2.03839 -0.252746 0
M  V30 5331 H 508.738 -2.76709 -2.70128 0
M  V30 5332 H 510.427 -3.15779 -2.55026 0
M  V30 5333 H 511.193 -4.80093 -0.688131 0
M  V30 5334 H 507.072 -4.25081 -1.78402 0
M  V30 5335 H 510.616 -6.96741 0.346124 0
M  V30 5336 H 506.513 -6.4106 -0.755841 0
M  V30 5337 H 507.281 -8.17824 0.332521 0
M  V30 5338 N 509.944 0.496216 -1.49584 0
M  V30 5339 C 510.907 1.57952 -1.66084 0
M  V30 5340 C 511.907 1.51729 -0.53244 0
M  V30 5341 O 513.097 1.54796 -0.79899 0
M  V30 5342 C 510.229 2.97604 -1.66268 0
M  V30 5343 H 511.422 1.44649 -2.6271 0
M  V30 5344 H 508.975 0.7208 -1.38687 0
M  V30 5345 H 509.71 3.16378 -0.712432 0
M  V30 5346 H 509.495 3.03528 -2.4822 0
M  V30 5347 H 510.985 3.76301 -1.81073 0
M  V30 5348 N 511.423 1.38739 0.74761 0
M  V30 5349 C 512.669 1.3648 1.50814 0
M  V30 5350 C 513.024 -0.0431982 1.92351 0
M  V30 5351 O 512.317 -1.0071 1.62997 0
M  V30 5352 C 512.511 2.25992 2.7688 0
M  V30 5353 C 512.34 3.75354 2.47668 0
M  V30 5354 C 511.11 4.44348 2.40589 0
M  V30 5355 C 513.308 4.67642 2.14046 0
M  V30 5356 N 511.29 5.79114 2.03715 0
M  V30 5357 C 512.661 5.90965 1.87512 0
M  V30 5358 C 514.716 4.55787 2.00407 0
M  V30 5359 C 513.419 7.03759 1.48714 0
M  V30 5360 C 515.445 5.68491 1.63011 0
M  V30 5361 C 514.807 6.90879 1.37353 0
M  V30 5362 H 510.906 0.554695 0.551214 0
M  V30 5363 H 513.49 1.7418 0.870033 0
M  V30 5364 H 511.661 1.9047 3.3849 0
M  V30 5365 H 513.393 2.14815 3.42982 0
M  V30 5366 H 510.148 3.97634 2.57262 0
M  V30 5367 H 510.572 6.504 1.87906 0
M  V30 5368 H 515.214 3.61712 2.18916 0
M  V30 5369 H 512.932 7.97746 1.28945 0
M  V30 5370 H 516.518 5.613 1.53081 0
M  V30 5371 H 515.398 7.76609 1.08848 0
M  V30 5372 N 512.901 -0.976442 1.23707 0
M  V30 5373 C 514.15 -1.71254 1.06559 0
M  V30 5374 C 514.463 -1.91528 -0.397024 0
M  V30 5375 O 515.669 -2.62625 -0.688518 0
M  V30 5376 C 514.125 -3.08207 1.8584 0
M  V30 5377 C 513.733 -2.95806 3.36456 0
M  V30 5378 C 515.477 -3.85749 1.77194 0
M  V30 5379 C 513.384 -4.28015 4.08114 0
M  V30 5380 H 512.314 -0.642171 0.395136 0
M  V30 5381 H 514.965 -1.08877 1.4771 0
M  V30 5382 H 513.347 -3.71363 1.37498 0
M  V30 5383 H 514.521 -2.41716 3.92314 0
M  V30 5384 H 512.836 -2.31736 3.45959 0
M  V30 5385 H 515.433 -4.83633 2.28041 0
M  V30 5386 H 515.776 -4.09752 0.735477 0
M  V30 5387 H 516.309 -3.29303 2.23169 0
M  V30 5388 H 513.048 -4.09208 5.12083 0
M  V30 5389 H 512.568 -4.81955 3.57043 0
M  V30 5390 H 514.247 -4.96681 4.14629 0
M  V30 5391 N 514.379 -1.04941 -1.1758 0
M  V30 5392 C 515.625 -0.759112 -1.88057 0
M  V30 5393 C 515.958 0.711918 -1.8068 0
M  V30 5394 O 515.233 1.52035 -1.21308 0
M  V30 5395 C 515.516 -1.237 -3.38187 0
M  V30 5396 C 515.369 -2.77078 -3.54327 0
M  V30 5397 C 516.688 -0.834014 -4.32125 0
M  V30 5398 H 513.807 -0.277237 -0.682868 0
M  V30 5399 H 516.449 -1.30296 -1.38286 0
M  V30 5400 H 514.599 -0.774337 -3.80705 0
M  V30 5401 H 516.271 -3.31449 -3.20842 0
M  V30 5402 H 514.514 -3.16477 -2.96689 0
M  V30 5403 H 515.185 -3.05577 -4.59703 0
M  V30 5404 H 517.661 -1.23228 -3.97434 0
M  V30 5405 H 516.537 -1.19603 -5.35711 0
M  V30 5406 H 516.798 0.262195 -4.41322 0
M  V30 5407 N 515.857 1.33968 -0.830081 0
M  V30 5408 C 517.106 1.97323 -0.417928 0
M  V30 5409 C 517.419 1.6652 1.02618 0
M  V30 5410 O 518.625 2.2342 1.54259 0
M  V30 5411 C 517.081 3.53099 -0.696359 0
M  V30 5412 C 516.689 3.92788 -2.15457 0
M  V30 5413 C 518.433 4.23049 -0.350724 0
M  V30 5414 C 516.34 5.41506 -2.37751 0
M  V30 5415 H 515.27 0.738409 -0.152541 0
M  V30 5416 H 517.921 1.52711 -1.01744 0
M  V30 5417 H 516.303 3.95991 -0.0265904 0
M  V30 5418 H 517.477 3.6098 -2.86408 0
M  V30 5419 H 515.792 3.35795 -2.46232 0
M  V30 5420 H 518.389 5.32403 -0.495036 0
M  V30 5421 H 518.732 4.10279 0.705476 0
M  V30 5422 H 519.265 3.85657 -0.975362 0
M  V30 5423 H 516.004 5.5927 -3.41903 0
M  V30 5424 H 515.524 5.74804 -1.7135 0
M  V30 5425 H 517.203 6.0828 -2.20465 0
M  V30 5426 N 517.335 0.585699 1.46312 0
M  V30 5427 C 518.582 0.0724211 2.0237 0
M  V30 5428 C 518.91 -1.28868 1.45683 0
M  V30 5429 O 518.165 -1.85853 0.612945 0
M  V30 5430 C 518.464 -0.0401312 3.57377 0
M  V30 5431 C 518.13 1.25376 4.33119 0
M  V30 5432 C 516.792 1.60824 4.5353 0
M  V30 5433 C 519.144 2.10987 4.76586 0
M  V30 5434 C 516.472 2.81676 5.14661 0
M  V30 5435 C 518.824 3.31068 5.39052 0
M  V30 5436 C 517.488 3.66794 5.5769 0
M  V30 5437 H 516.758 0.0265007 0.740526 0
M  V30 5438 H 519.405 0.762935 1.75646 0
M  V30 5439 H 517.71 -0.813791 3.83255 0
M  V30 5440 H 519.407 -0.453078 3.98432 0
M  V30 5441 H 515.997 0.967808 4.1753 0
M  V30 5442 H 520.181 1.84904 4.60569 0
M  V30 5443 H 515.437 3.0949 5.27282 0
M  V30 5444 H 519.611 3.97672 5.71691 0
M  V30 5445 H 517.238 4.60529 6.04828 0
M  V30 5446 N 518.813 -1.54241 0.323641 0
M  V30 5447 C 519.745 -2.21836 -0.576311 0
M  V30 5448 C 520.758 -1.21837 -1.07979 0
M  V30 5449 O 521.947 -1.48306 -0.99336 0
M  V30 5450 C 519.047 -2.86923 -1.80356 0
M  V30 5451 C 518.22 -4.1306 -1.43875 0
M  V30 5452 C 517.279 -4.6174 -2.52353 0
M  V30 5453 O 516.305 -5.26421 -2.16494 0
M  V30 5454 N 517.507 -4.35974 -3.83284 0
M  V30 5455 H 520.272 -2.997 0.00247987 0
M  V30 5456 H 517.833 -1.61233 0.146848 0
M  V30 5457 H 519.825 -3.16414 -2.52318 0
M  V30 5458 H 518.395 -2.12765 -2.29019 0
M  V30 5459 H 517.615 -3.90334 -0.550752 0
M  V30 5460 H 518.903 -4.95148 -1.17071 0
M  V30 5461 H 518.301 -3.84203 -4.15216 0
M  V30 5462 H 516.858 -4.70119 -4.51477 0
M  V30 5463 N 520.291 -0.0518155 -1.57515 0
M  V30 5464 C 521.537 0.622745 -1.93002 0
M  V30 5465 C 521.87 1.70456 -0.930499 0
M  V30 5466 O 521.145 1.94452 0.0434086 0
M  V30 5467 C 521.428 1.21824 -3.38867 0
M  V30 5468 C 521.281 0.144434 -4.49568 0
M  V30 5469 C 522.6 2.12968 -3.8514 0
M  V30 5470 H 519.719 0.22491 -0.701844 0
M  V30 5471 H 522.361 -0.113711 -1.89659 0
M  V30 5472 H 520.511 1.8459 -3.41846 0
M  V30 5473 H 522.183 -0.48753 -4.58717 0
M  V30 5474 H 520.426 -0.527424 -4.30582 0
M  V30 5475 H 521.097 0.601127 -5.48717 0
M  V30 5476 H 523.573 1.60163 -3.8404 0
M  V30 5477 H 522.449 2.51578 -4.87852 0
M  V30 5478 H 522.71 3.03004 -3.21934 0
M  V30 5479 N 521.769 1.56035 0.221574 0
M  V30 5480 C 523.018 1.78245 0.944016 0
M  V30 5481 C 523.331 0.620371 1.85501 0
M  V30 5482 O 524.537 0.726103 2.6161 0
M  V30 5483 C 522.993 3.15659 1.7288 0
M  V30 5484 C 522.601 4.39591 0.863942 0
M  V30 5485 C 524.345 3.47195 2.44246 0
M  V30 5486 C 522.252 5.6803 1.64607 0
M  V30 5487 H 521.182 0.664547 0.356222 0
M  V30 5488 H 523.833 1.8243 0.197904 0
M  V30 5489 H 522.215 3.0565 2.51781 0
M  V30 5490 H 523.389 4.60655 0.115464 0
M  V30 5491 H 521.704 4.15572 0.262407 0
M  V30 5492 H 524.301 4.40381 3.03263 0
M  V30 5493 H 524.644 2.69693 3.1713 0
M  V30 5494 H 525.177 3.58533 1.72334 0
M  V30 5495 H 521.916 6.48425 0.960507 0
M  V30 5496 H 521.436 5.51027 2.36917 0
M  V30 5497 H 523.115 6.08203 2.20675 0
M  V30 5498 N 523.247 -0.488276 1.49845 0
M  V30 5499 C 524.475 -1.26527 1.63702 0
M  V30 5500 C 524.89 -1.8618 0.313447 0
M  V30 5501 O 524.247 -1.68432 -0.702624 0
M  V30 5502 C 524.298 -2.3864 2.71538 0
M  V30 5503 O 524.019 -1.81437 3.98763 0
M  V30 5504 C 525.52 -3.29805 2.96215 0
M  V30 5505 H 522.74 -0.383295 0.55075 0
M  V30 5506 H 525.284 -0.584779 1.95961 0
M  V30 5507 H 523.439 -3.02496 2.42023 0
M  V30 5508 H 523.853 -2.55135 4.58265 0
M  V30 5509 H 525.327 -4.04722 3.75372 0
M  V30 5510 H 525.804 -3.87563 2.06619 0
M  V30 5511 H 526.41 -2.71703 3.27196 0
M  V30 5512 N 524.725 -1.39134 -0.740242 0
M  V30 5513 C 525.655 -1.40165 -1.86751 0
M  V30 5514 C 526.636 -0.265708 -1.68012 0
M  V30 5515 O 527.821 -0.47076 -1.88408 0
M  V30 5516 C 524.951 -1.2392 -3.2444 0
M  V30 5517 C 523.905 -2.34858 -3.57807 0
M  V30 5518 C 523.231 -2.03707 -4.94376 0
M  V30 5519 C 524.531 -3.77159 -3.61315 0
M  V30 5520 H 526.225 -2.345 -1.86145 0
M  V30 5521 H 523.771 -1.12875 -0.89416 0
M  V30 5522 H 525.724 -1.23263 -4.02969 0
M  V30 5523 H 524.448 -0.26051 -3.25559 0
M  V30 5524 H 523.107 -2.34723 -2.81604 0
M  V30 5525 H 522.755 -1.04289 -4.9207 0
M  V30 5526 H 522.455 -2.78016 -5.17669 0
M  V30 5527 H 523.979 -2.04691 -5.75268 0
M  V30 5528 H 525.393 -3.79252 -4.29931 0
M  V30 5529 H 523.79 -4.50784 -3.96124 0
M  V30 5530 H 524.86 -4.08513 -2.61238 0
M  V30 5531 N 526.204 0.969867 -1.24223 0
M  V30 5532 C 527.114 2.09806 -1.0497 0
M  V30 5533 C 528.13 1.73998 0.00886455 0
M  V30 5534 O 529.306 2.00513 -0.188848 0
M  V30 5535 C 526.371 3.40467 -0.654452 0
M  V30 5536 C 525.432 3.90236 -1.78926 0
M  V30 5537 C 524.665 5.14662 -1.41277 0
M  V30 5538 O 524.888 5.69602 -0.301632 0
M  V30 5539 O 523.822 5.58761 -2.23763 0
M  V30 5540 H 527.648 2.28942 -1.99548 0
M  V30 5541 H 525.233 1.08197 -1.03023 0
M  V30 5542 H 527.115 4.19039 -0.445452 0
M  V30 5543 H 525.79 3.22636 0.262216 0
M  V30 5544 H 524.697 3.12735 -2.05299 0
M  V30 5545 H 526.03 4.1254 -2.68462 0
M  V30 5546 N 527.682 1.05563 1.17022 0
M  V30 5547 C 528.93 0.76642 1.87004 0
M  V30 5548 C 529.251 -0.708854 1.8166 0
M  V30 5549 O 528.521 -1.51242 1.2451 0
M  V30 5550 H 527.101 0.280516 0.692329 0
M  V30 5551 H 529.763 1.33557 1.41945 0
M  V30 5552 H 528.859 1.08472 2.92644 0
M  V30 5553 N 529.16 -1.33526 0.837174 0
M  V30 5554 C 530.406 -1.98541 0.44193 0
M  V30 5555 C 530.761 -1.65124 -0.987517 0
M  V30 5556 O 530.054 -0.919948 -1.6807 0
M  V30 5557 C 530.248 -3.52367 0.597675 0
M  V30 5558 C 530.077 -4.00731 2.04071 0
M  V30 5559 C 528.847 -4.28649 2.67559 0
M  V30 5560 C 531.045 -4.17073 3.00923 0
M  V30 5561 N 529.027 -4.63142 4.02955 0
M  V30 5562 C 530.398 -4.54905 4.21261 0
M  V30 5563 C 532.453 -3.99358 2.97351 0
M  V30 5564 C 531.156 -4.76874 5.38501 0
M  V30 5565 C 533.182 -4.22501 4.1382 0
M  V30 5566 C 532.544 -4.60634 5.32912 0
M  V30 5567 H 528.643 -0.753246 0.210105 0
M  V30 5568 H 531.227 -1.61674 1.08488 0
M  V30 5569 H 529.398 -3.88397 -0.0154658 0
M  V30 5570 H 531.13 -4.04326 0.17404 0
M  V30 5571 H 527.885 -4.20077 2.18706 0
M  V30 5572 H 528.309 -4.84601 4.72748 0
M  V30 5573 H 532.951 -3.68993 2.06408 0
M  V30 5574 H 530.669 -5.06101 6.2999 0
M  V30 5575 H 534.255 -4.10316 4.12471 0
M  V30 5576 H 533.135 -4.78187 6.21536 0
M  V30 5577 N 530.638 -0.59345 -1.46 0
M  V30 5578 C 531.884 -0.0832754 -2.02629 0
M  V30 5579 C 532.217 1.27749 -1.46266 0
M  V30 5580 O 531.492 1.8395 -0.631866 0
M  V30 5581 C 531.775 -0.0290756 -3.60088 0
M  V30 5582 C 531.628 -1.41951 -4.26814 0
M  V30 5583 C 532.947 0.666055 -4.35031 0
M  V30 5584 H 530.066 -0.031736 -0.736316 0
M  V30 5585 H 532.708 -0.762711 -1.74019 0
M  V30 5586 H 530.858 0.549532 -3.84594 0
M  V30 5587 H 532.53 -2.04411 -4.13538 0
M  V30 5588 H 530.773 -1.98422 -3.8576 0
M  V30 5589 H 531.444 -1.33395 -5.3564 0
M  V30 5590 H 533.92 0.174401 -4.15734 0
M  V30 5591 H 532.796 0.673041 -5.44758 0
M  V30 5592 H 533.057 1.72946 -4.06869 0
M  V30 5593 N 532.116 1.54067 -0.331816 0
M  V30 5594 C 533.026 2.28322 0.539104 0
M  V30 5595 C 534.042 1.32985 1.1221 0
M  V30 5596 O 535.218 1.6601 1.1403 0
M  V30 5597 C 532.283 3.03277 1.68 0
M  V30 5598 C 531.344 4.14216 1.12798 0
M  V30 5599 C 530.577 4.85588 2.2145 0
M  V30 5600 O 530.8 4.56536 3.41952 0
M  V30 5601 O 529.734 5.72309 1.86404 0
M  V30 5602 H 533.56 3.03632 -0.0641692 0
M  V30 5603 H 531.145 1.49083 -0.0972365 0
M  V30 5604 H 533.027 3.50189 2.34405 0
M  V30 5605 H 531.702 2.30834 2.2693 0
M  V30 5606 H 530.609 3.71635 0.428782 0
M  V30 5607 H 531.942 4.88727 0.583698 0
M  V30 5608 N 533.594 0.0601682 1.57485 0
M  V30 5609 C 534.843 -0.611101 1.9222 0
M  V30 5610 C 535.156 -1.71469 0.941159 0
M  V30 5611 O 536.362 -2.44473 1.18089 0
M  V30 5612 C 534.818 -1.13832 3.41424 0
M  V30 5613 C 534.426 -0.0663596 4.47951 0
M  V30 5614 C 536.17 -1.78432 3.85178 0
M  V30 5615 C 534.077 -0.606965 5.88277 0
M  V30 5616 H 533.007 -0.232033 0.71741 0
M  V30 5617 H 535.658 0.130518 1.83035 0
M  V30 5618 H 534.04 -1.93254 3.45643 0
M  V30 5619 H 535.214 0.707682 4.55333 0
M  V30 5620 H 533.529 0.482715 4.13593 0
M  V30 5621 H 536.126 -2.1989 4.87394 0
M  V30 5622 H 536.469 -2.63966 3.21913 0
M  V30 5623 H 537.002 -1.05651 3.83514 0
M  V30 5624 H 533.741 0.21095 6.5516 0
M  V30 5625 H 533.261 -1.34879 5.84438 0
M  V30 5626 H 534.94 -1.08704 6.37803 0
M  V30 5627 N 535.072 -1.5615 -0.213296 0
M  V30 5628 C 536.005 -1.88115 -1.29182 0
M  V30 5629 C 536.983 -0.739348 -1.44819 0
M  V30 5630 O 538.167 -0.988541 -1.605 0
M  V30 5631 C 535.294 -2.09541 -2.66102 0
M  V30 5632 C 534.34 -3.32236 -2.67436 0
M  V30 5633 S 535.173 -4.87915 -2.20679 0
M  V30 5634 C 536.329 -5.12387 -3.59458 0
M  V30 5635 H 536.562 -2.793 -1.01876 0
M  V30 5636 H 534.095 -1.48692 -0.415934 0
M  V30 5637 H 536.053 -2.22568 -3.44925 0
M  V30 5638 H 534.714 -1.19138 -2.90628 0
M  V30 5639 H 533.907 -3.44297 -3.6807 0
M  V30 5640 H 533.509 -3.18108 -1.96681 0
M  V30 5641 H 535.801 -5.01791 -4.55205 0
M  V30 5642 H 536.744 -6.14236 -3.52306 0
M  V30 5643 H 537.152 -4.40089 -3.53528 0
M  V30 5644 N 536.55 0.480323 -1.50102 0
M  V30 5645 C 537.78 1.25475 -1.64133 0
M  V30 5646 C 538.188 1.8647 -0.320272 0
M  V30 5647 O 537.531 1.69561 0.70673 0
M  V30 5648 C 537.593 2.40996 -2.6676 0
M  V30 5649 C 537.257 2.00711 -4.10565 0
M  V30 5650 C 538.254 1.53492 -4.96725 0
M  V30 5651 C 535.939 2.09714 -4.56427 0
M  V30 5652 C 537.933 1.15806 -6.26792 0
M  V30 5653 C 535.62 1.7164 -5.86501 0
M  V30 5654 C 536.618 1.24763 -6.71508 0
M  V30 5655 O 536.306 0.872122 -7.99155 0
M  V30 5656 H 536.038 0.385983 -0.554971 0
M  V30 5657 H 538.592 0.580848 -1.97016 0
M  V30 5658 H 536.822 3.11528 -2.291 0
M  V30 5659 H 538.511 3.02981 -2.70106 0
M  V30 5660 H 539.277 1.45966 -4.62514 0
M  V30 5661 H 535.156 2.4515 -3.90413 0
M  V30 5662 H 538.7 0.791465 -6.93096 0
M  V30 5663 H 534.597 1.78822 -6.20236 0
M  V30 5664 H 535.365 1.00178 -8.12346 0
M  V30 5665 N 538.028 1.39524 0.732853 0
M  V30 5666 C 539.258 1.3994 1.51988 0
M  V30 5667 C 539.666 -0.00727973 1.89199 0
M  V30 5668 O 539.009 -0.989521 1.54771 0
M  V30 5669 C 539.071 2.21026 2.83527 0
M  V30 5670 C 538.735 3.69633 2.68738 0
M  V30 5671 C 539.732 4.62665 2.37143 0
M  V30 5672 C 537.417 4.13244 2.85542 0
M  V30 5673 C 539.411 5.97291 2.22536 0
M  V30 5674 C 537.098 5.47945 2.70554 0
M  V30 5675 C 538.096 6.39783 2.39097 0
M  V30 5676 O 537.784 7.72002 2.24204 0
M  V30 5677 H 537.516 0.479795 0.476206 0
M  V30 5678 H 540.07 1.8399 0.913054 0
M  V30 5679 H 538.3 1.71728 3.46477 0
M  V30 5680 H 539.989 2.13594 3.45156 0
M  V30 5681 H 540.755 4.30272 2.2381 0
M  V30 5682 H 536.634 3.42094 3.09019 0
M  V30 5683 H 540.178 6.68939 1.97905 0
M  V30 5684 H 536.075 5.79928 2.83466 0
M  V30 5685 H 536.843 7.8275 2.39258 0
M  V30 5686 N 539.506 -0.963266 1.24736 0
M  V30 5687 C 540.752 -1.70933 1.09131 0
M  V30 5688 C 541.085 -1.90676 -0.368273 0
M  V30 5689 O 540.36 -1.47147 -1.27193 0
M  V30 5690 C 540.643 -3.09744 1.83658 0
M  V30 5691 C 540.496 -2.97465 3.37394 0
M  V30 5692 C 541.815 -4.09483 1.61282 0
M  V30 5693 H 538.934 -0.620398 0.397838 0
M  V30 5694 H 541.576 -1.12028 1.53459 0
M  V30 5695 H 539.726 -3.60031 1.4598 0
M  V30 5696 H 541.398 -2.54571 3.84696 0
M  V30 5697 H 539.641 -2.33576 3.65547 0
M  V30 5698 H 540.312 -3.95822 3.84745 0
M  V30 5699 H 542.788 -3.68073 1.94066 0
M  V30 5700 H 541.664 -5.04666 2.15878 0
M  V30 5701 H 541.925 -4.38639 0.552102 0
M  V30 5702 N 540.985 -1.06182 -1.16461 0
M  V30 5703 C 541.918 -0.615859 -2.19733 0
M  V30 5704 C 542.896 0.360766 -1.58547 0
M  V30 5705 O 544.08 0.270009 -1.86556 0
M  V30 5706 C 541.207 0.097312 -3.3856 0
M  V30 5707 C 540.253 -0.835889 -4.18229 0
M  V30 5708 S 541.086 -2.33052 -4.82128 0
M  V30 5709 C 542.242 -1.62881 -6.04335 0
M  V30 5710 H 542.475 -1.49079 -2.57221 0
M  V30 5711 H 540.008 -0.874692 -1.27234 0
M  V30 5712 H 541.966 0.502563 -4.07412 0
M  V30 5713 H 540.627 0.948418 -2.99439 0
M  V30 5714 H 539.82 -0.283426 -5.03202 0
M  V30 5715 H 539.422 -1.18097 -3.54865 0
M  V30 5716 H 541.714 -0.933764 -6.71034 0
M  V30 5717 H 542.657 -2.45641 -6.64128 0
M  V30 5718 H 543.065 -1.11189 -5.53441 0
M  V30 5719 N 542.463 1.3308 -0.844243 0
M  V30 5720 C 543.74 1.92178 -0.364261 0
M  V30 5721 C 544.12 1.76961 1.15101 0
M  V30 5722 O 543.468 1.16128 1.9679 0
M  V30 5723 C 543.678 3.393 -0.817106 0
M  V30 5724 C 545.026 4.16444 -0.828236 0
M  V30 5725 O 546.05 3.47975 -0.761062 0
M  V30 5726 O 544.909 5.38685 -0.920926 0
M  V30 5727 H 542.003 0.820411 -0.10419 0
M  V30 5728 H 544.549 1.41918 -0.930453 0
M  V30 5729 H 543.321 3.44272 -1.85991 0
M  V30 5730 H 542.944 3.96947 -0.227785 0
M  V30 5731 N 543.941 0.601185 1.45683 0
M  V30 5732 C 544.904 -0.111398 2.28929 0
M  V30 5733 C 545.904 -0.801246 1.39416 0
M  V30 5734 O 547.094 -0.650383 1.61603 0
M  V30 5735 C 544.226 -1.16773 3.20276 0
M  V30 5736 H 545.419 0.620412 2.93413 0
M  V30 5737 H 542.972 0.359946 1.52099 0
M  V30 5738 H 543.707 -1.93051 2.60579 0
M  V30 5739 H 543.492 -0.677358 3.86205 0
M  V30 5740 H 544.982 -1.66698 3.82886 0
M  V30 5741 N 545.419 -1.53889 0.339982 0
M  V30 5742 C 546.369 -2.2165 -0.534354 0
M  V30 5743 C 547.353 -1.20266 -1.06887 0
M  V30 5744 O 548.545 -1.45827 -1.00316 0
M  V30 5745 C 545.674 -2.99014 -1.68659 0
M  V30 5746 C 544.76 -4.07751 -1.16618 0
M  V30 5747 N 545.151 -5.04469 -0.366717 0
M  V30 5748 C 543.449 -4.21998 -1.4434 0
M  V30 5749 C 544.15 -5.81638 -0.0847275 0
M  V30 5750 N 543.126 -5.39388 -0.675391 0
M  V30 5751 H 546.928 -2.93781 0.0835562 0
M  V30 5752 H 544.442 -1.61736 0.146665 0
M  V30 5753 H 546.439 -3.46056 -2.32489 0
M  V30 5754 H 545.099 -2.28408 -2.30781 0
M  V30 5755 H 546.11 -5.17899 -0.00811038 0
M  V30 5756 H 542.787 -3.62612 -2.06928 0
M  V30 5757 H 544.177 -6.69563 0.559943 0
M  V30 5758 N 546.897 -0.0685191 -1.57451 0
M  V30 5759 C 548.122 0.613919 -1.98106 0
M  V30 5760 C 548.547 1.62551 -0.946501 0
M  V30 5761 O 547.905 1.81085 0.0882824 0
M  V30 5762 C 547.953 1.26189 -3.378 0
M  V30 5763 O 547.057 2.37773 -3.36954 0
M  V30 5764 H 546.398 0.158163 -0.644888 0
M  V30 5765 H 548.928 -0.142063 -2.04106 0
M  V30 5766 H 548.938 1.60951 -3.74912 0
M  V30 5767 H 547.613 0.520625 -4.12629 0
M  V30 5768 H 546.19 2.04829 -3.11608 0
M  V30 5769 N 548.375 1.56261 0.205012 0
M  V30 5770 C 549.622 1.8004 0.926927 0
M  V30 5771 C 549.95 0.640086 1.83666 0
M  V30 5772 O 549.205 -0.374702 1.92079 0
M  V30 5773 C 549.504 3.09722 1.78345 0
M  V30 5774 C 549.17 4.39082 1.02555 0
M  V30 5775 C 547.832 4.74226 0.816256 0
M  V30 5776 C 550.184 5.18877 0.491559 0
M  V30 5777 C 547.512 5.86668 0.0613287 0
M  V30 5778 C 549.864 6.32105 -0.250107 0
M  V30 5779 C 548.528 6.6584 -0.470508 0
M  V30 5780 H 547.798 0.658812 0.339187 0
M  V30 5781 H 550.445 1.90515 0.19395 0
M  V30 5782 H 548.75 2.9444 2.5848 0
M  V30 5783 H 550.447 3.25324 2.34446 0
M  V30 5784 H 547.037 4.11497 1.19868 0
M  V30 5785 H 551.221 4.92147 0.640684 0
M  V30 5786 H 546.477 6.11283 -0.119501 0
M  V30 5787 H 550.651 6.93157 -0.671307 0
M  V30 5788 H 548.278 7.5281 -1.05739 0
M  V30 5789 N 549.853 -0.472356 1.50355 0
M  V30 5790 C 551.083 -1.24603 1.64796 0
M  V30 5791 C 551.491 -1.86297 0.330156 0
M  V30 5792 O 550.834 -1.69934 -0.697728 0
M  V30 5793 C 550.896 -2.39578 2.68035 0
M  V30 5794 C 550.56 -1.98531 4.11624 0
M  V30 5795 C 551.557 -1.50856 4.97532 0
M  V30 5796 C 549.242 -2.0729 4.57532 0
M  V30 5797 C 551.236 -1.12481 6.27397 0
M  V30 5798 C 548.923 -1.68527 5.87403 0
M  V30 5799 C 549.921 -1.212 6.7216 0
M  V30 5800 O 549.609 -0.829728 7.99607 0
M  V30 5801 H 549.341 -0.383035 0.55701 0
M  V30 5802 H 551.895 -0.570392 1.97321 0
M  V30 5803 H 550.125 -3.10309 2.30749 0
M  V30 5804 H 551.814 -3.01544 2.71709 0
M  V30 5805 H 552.58 -1.43511 4.63281 0
M  V30 5806 H 548.459 -2.43076 3.91708 0
M  V30 5807 H 552.003 -0.754698 6.93506 0
M  V30 5808 H 547.9 -1.7553 6.21176 0
M  V30 5809 H 548.668 -0.958689 8.12866 0
M  V30 5810 N 551.331 -1.39911 -0.725443 0
M  V30 5811 C 552.279 -1.39552 -1.86086 0
M  V30 5812 C 553.273 -0.277334 -1.67114 0
M  V30 5813 O 554.479 -0.447865 -1.74339 0
M  V30 5814 H 550.854 -0.435993 -0.612711 0
M  V30 5815 H 552.825 -2.35305 -1.83505 0
M  V30 5816 C 551.574 -1.26529 -3.2386 0
M  V30 5817 H 550.897 -2.11845 -3.3906 0
M  V30 5818 H 552.337 -1.30336 -4.03471 0
M  V30 5819 C 550.796 0.0254168 -3.3689 0
M  V30 5820 O 551.326 0.992048 -3.89257 0
M  V30 5821 N 549.532 0.0916528 -2.90455 0
M  V30 5822 H 549.079 -0.695675 -2.48028 0
M  V30 5823 H 549.037 0.954745 -2.99553 0
M  V30 5824 N 552.809 0.956637 -1.25245 0
M  V30 5825 C 554.056 1.701 -1.09874 0
M  V30 5826 C 554.384 1.91128 0.36062 0
M  V30 5827 O 553.639 1.47837 1.28229 0
M  V30 5828 C 553.938 3.08996 -1.79601 0
M  V30 5829 C 553.604 3.07774 -3.29523 0
M  V30 5830 C 552.266 3.07149 -3.70423 0
M  V30 5831 C 554.618 3.01257 -4.25316 0
M  V30 5832 C 551.946 2.97752 -5.0553 0
M  V30 5833 C 554.298 2.93403 -5.60444 0
M  V30 5834 C 552.962 2.91111 -6.00675 0
M  V30 5835 H 552.232 0.62244 -0.402056 0
M  V30 5836 H 554.879 1.1178 -1.55491 0
M  V30 5837 H 553.184 3.70848 -1.26408 0
M  V30 5838 H 554.881 3.65407 -1.65162 0
M  V30 5839 H 551.471 3.09032 -2.9698 0
M  V30 5840 H 555.655 3.00861 -3.9471 0
M  V30 5841 H 550.911 2.94346 -5.35883 0
M  V30 5842 H 555.085 2.87321 -6.34366 0
M  V30 5843 H 552.712 2.83586 -7.05325 0
M  V30 5844 N 554.287 1.06798 1.15896 0
M  V30 5845 C 555.536 0.782796 1.8589 0
M  V30 5846 C 555.849 -0.693498 1.82893 0
M  V30 5847 O 557.055 -1.09325 2.48516 0
M  V30 5848 C 555.511 1.3502 3.33613 0
M  V30 5849 C 555.119 2.8571 3.45071 0
M  V30 5850 C 556.863 1.14278 4.08829 0
M  V30 5851 C 554.77 3.35669 4.86909 0
M  V30 5852 H 553.7 0.289149 0.696354 0
M  V30 5853 H 556.351 1.28734 1.30766 0
M  V30 5854 H 554.733 0.773407 3.88374 0
M  V30 5855 H 555.907 3.49385 3.00445 0
M  V30 5856 H 554.222 3.05178 2.83294 0
M  V30 5857 H 556.819 1.49087 5.13495 0
M  V30 5858 H 557.162 0.0814575 4.1622 0
M  V30 5859 H 557.695 1.68563 3.60321 0
M  V30 5860 H 554.434 4.41302 4.84698 0
M  V30 5861 H 553.954 2.76745 5.32139 0
M  V30 5862 H 555.633 3.31296 5.55745 0
M  V30 5863 N 555.766 -1.3263 0.851289 0
M  V30 5864 C 556.996 -2.01271 0.466222 0
M  V30 5865 C 557.404 -1.64156 -0.940714 0
M  V30 5866 O 556.747 -0.857109 -1.62479 0
M  V30 5867 C 556.809 -3.55695 0.521672 0
M  V30 5868 C 556.473 -4.16227 1.88691 0
M  V30 5869 C 557.47 -4.34699 2.85189 0
M  V30 5870 C 555.155 -4.52377 2.18313 0
M  V30 5871 C 557.149 -4.88484 4.09465 0
M  V30 5872 C 554.836 -5.05868 3.42843 0
M  V30 5873 C 555.834 -5.23869 4.38235 0
M  V30 5874 O 555.522 -5.76218 5.6056 0
M  V30 5875 H 555.254 -0.651034 0.18202 0
M  V30 5876 H 557.808 -1.7026 1.14894 0
M  V30 5877 H 556.038 -3.86086 -0.217888 0
M  V30 5878 H 557.727 -4.05613 0.152682 0
M  V30 5879 H 558.493 -4.07107 2.63607 0
M  V30 5880 H 554.372 -4.37652 1.44851 0
M  V30 5881 H 557.916 -5.02451 4.83931 0
M  V30 5882 H 553.813 -5.32891 3.64277 0
M  V30 5883 H 554.581 -5.94616 5.62471 0
M  V30 5884 N 557.244 -0.608902 -1.45362 0
M  V30 5885 C 558.491 -0.104607 -2.0223 0
M  V30 5886 C 558.819 1.26534 -1.47714 0
M  V30 5887 O 558.074 1.84855 -0.642435 0
M  V30 5888 C 558.373 -0.0167296 -3.57396 0
M  V30 5889 C 558.039 -1.32251 -4.31069 0
M  V30 5890 C 556.701 -1.68019 -4.50914 0
M  V30 5891 C 559.053 -2.18542 -4.73169 0
M  V30 5892 C 556.381 -2.89828 -5.10114 0
M  V30 5893 C 558.733 -3.39602 -5.33717 0
M  V30 5894 C 557.397 -3.7562 -5.51784 0
M  V30 5895 H 556.667 -0.0382785 -0.740011 0
M  V30 5896 H 559.314 -0.790782 -1.7441 0
M  V30 5897 H 557.619 0.752715 -3.84502 0
M  V30 5898 H 559.316 0.389634 -3.99103 0
M  V30 5899 H 555.906 -1.03411 -4.15938 0
M  V30 5900 H 560.09 -1.92208 -4.5757 0
M  V30 5901 H 555.346 -3.17839 -5.22291 0
M  V30 5902 H 559.52 -4.06716 -5.65292 0
M  V30 5903 H 557.147 -4.70093 -5.97425 0
M  V30 5904 N 558.722 1.53707 -0.348139 0
M  V30 5905 C 559.971 2.0017 0.247992 0
M  V30 5906 C 560.284 1.23983 1.51286 0
M  V30 5907 O 561.49 1.60946 2.18652 0
M  V30 5908 C 559.946 3.56515 0.492459 0
M  V30 5909 C 559.554 4.41562 -0.756777 0
M  V30 5910 C 561.298 4.11381 1.0472 0
M  V30 5911 C 559.205 5.89426 -0.482856 0
M  V30 5912 H 558.135 0.747806 0.0964452 0
M  V30 5913 H 560.786 1.77532 -0.464179 0
M  V30 5914 H 559.168 3.75236 1.26545 0
M  V30 5915 H 560.342 4.34615 -1.53122 0
M  V30 5916 H 558.657 3.97711 -1.23348 0
M  V30 5917 H 561.254 5.19468 1.26717 0
M  V30 5918 H 561.597 3.64885 2.00411 0
M  V30 5919 H 562.13 3.96389 0.334801 0
M  V30 5920 H 558.869 6.40164 -1.40962 0
M  V30 5921 H 558.389 5.99264 0.253416 0
M  V30 5922 H 560.068 6.4692 -0.101816 0
M  V30 5923 N 560.2 0.0768682 1.57412 0
M  V30 5924 C 561.13 -0.886026 2.16037 0
M  V30 5925 C 562.111 -1.30691 1.08876 0
M  V30 5926 O 563.296 -1.37705 1.36934 0
M  V30 5927 C 560.426 -2.1518 2.72608 0
M  V30 5928 C 559.38 -1.87015 3.8498 0
M  V30 5929 C 558.706 -3.20266 4.28175 0
M  V30 5930 C 560.006 -1.17143 5.08994 0
M  V30 5931 H 561.7 -0.397642 2.96748 0
M  V30 5932 H 559.246 -0.189823 1.42743 0
M  V30 5933 H 561.199 -2.82962 3.12266 0
M  V30 5934 H 559.923 -2.66269 1.89125 0
M  V30 5935 H 558.582 -1.21636 3.45833 0
M  V30 5936 H 558.23 -3.69207 3.41607 0
M  V30 5937 H 557.93 -3.0221 5.03927 0
M  V30 5938 H 559.454 -3.89237 4.70454 0
M  V30 5939 H 560.868 -1.75003 5.45937 0
M  V30 5940 H 559.265 -1.09328 5.90057 0
M  V30 5941 H 560.335 -0.151295 4.84664 0
M  V30 5942 N 561.678 -1.56367 -0.196722 0
M  V30 5943 C 562.608 -1.97442 -1.24655 0
M  V30 5944 C 563.589 -0.846147 -1.47561 0
M  V30 5945 O 564.774 -1.11035 -1.59326 0
M  V30 5946 C 561.904 -2.31253 -2.59112 0
M  V30 5947 C 560.858 -3.46804 -2.50821 0
M  V30 5948 C 560.184 -3.66286 -3.89536 0
M  V30 5949 C 561.484 -4.8104 -2.03465 0
M  V30 5950 H 563.178 -2.85388 -0.905216 0
M  V30 5951 H 560.724 -1.37304 -0.434002 0
M  V30 5952 H 562.677 -2.58583 -3.32736 0
M  V30 5953 H 561.401 -1.40188 -2.94983 0
M  V30 5954 H 560.06 -3.19563 -1.79653 0
M  V30 5955 H 559.708 -2.72555 -4.22756 0
M  V30 5956 H 559.408 -4.4402 -3.84864 0
M  V30 5957 H 560.932 -3.9599 -4.64784 0
M  V30 5958 H 562.346 -5.07411 -2.66846 0
M  V30 5959 H 560.743 -5.62232 -2.09798 0
M  V30 5960 H 561.813 -4.74732 -0.98781 0
M  V30 5961 N 563.156 0.464375 -1.50603 0
M  V30 5962 C 564.405 1.21277 -1.61167 0
M  V30 5963 C 564.718 1.92953 -0.320704 0
M  V30 5964 O 565.924 2.69778 -0.30534 0
M  V30 5965 C 564.38 2.20403 -2.84518 0
M  V30 5966 C 563.988 1.54499 -4.20516 0
M  V30 5967 C 565.732 2.95843 -3.0443 0
M  V30 5968 C 563.639 2.51951 -5.35047 0
M  V30 5969 H 562.569 0.456367 -0.600204 0
M  V30 5970 H 565.22 0.48254 -1.77042 0
M  V30 5971 H 563.602 2.96746 -2.62217 0
M  V30 5972 H 564.776 0.83899 -4.53098 0
M  V30 5973 H 563.091 0.913152 -4.06264 0
M  V30 5974 H 565.688 3.6879 -3.87167 0
M  V30 5975 H 566.031 3.55622 -2.16423 0
M  V30 5976 H 566.564 2.26611 -3.26944 0
M  V30 5977 H 563.303 1.96901 -6.25228 0
M  V30 5978 H 562.823 3.20683 -5.06875 0
M  V30 5979 H 564.502 3.13643 -5.65895 0
M  V30 5980 N 564.634 1.40294 0.718013 0
M  V30 5981 C 565.883 1.37746 1.4734 0
M  V30 5982 C 566.196 -0.0180754 1.95592 0
M  V30 5983 O 567.402 -0.166166 2.70991 0
M  V30 5984 C 565.858 2.4208 2.66318 0
M  V30 5985 C 565.466 3.87432 2.24945 0
M  V30 5986 C 567.21 2.48635 3.44065 0
M  V30 5987 C 565.117 4.83368 3.40748 0
M  V30 5988 H 564.047 0.512165 0.553356 0
M  V30 5989 H 566.698 1.66019 0.781661 0
M  V30 5990 H 565.08 2.06903 3.3765 0
M  V30 5991 H 566.254 4.3174 1.6105 0
M  V30 5992 H 564.569 3.8433 1.60249 0
M  V30 5993 H 567.166 3.17499 4.30231 0
M  V30 5994 H 567.509 1.51611 3.87711 0
M  V30 5995 H 568.042 2.82791 2.79775 0
M  V30 5996 H 564.781 5.81716 3.02136 0
M  V30 5997 H 564.301 4.43726 4.03568 0
M  V30 5998 H 565.98 5.03074 4.06848 0
M  V30 5999 N 566.112 -0.949982 1.2575 0
M  V30 6000 C 567.358 -1.69766 1.10938 0
M  V30 6001 C 567.691 -1.91056 -0.348028 0
M  V30 6002 O 566.966 -1.48488 -1.25625 0
M  V30 6003 C 567.249 -3.07779 1.86933 0
M  V30 6004 C 567.102 -2.9387 3.4053 0
M  V30 6005 C 568.421 -4.07749 1.65616 0
M  V30 6006 H 565.54 -0.616144 0.404396 0
M  V30 6007 H 568.182 -1.10394 1.54639 0
M  V30 6008 H 566.332 -3.58462 1.4979 0
M  V30 6009 H 568.004 -2.50476 3.87375 0
M  V30 6010 H 566.247 -2.29686 3.68004 0
M  V30 6011 H 566.918 -3.91719 3.88922 0
M  V30 6012 H 569.394 -3.65994 1.97959 0
M  V30 6013 H 568.27 -5.02348 2.21218 0
M  V30 6014 H 568.531 -4.38029 0.598595 0
M  V30 6015 N 567.59 -1.07411 -1.15328 0
M  V30 6016 C 568.838 -0.796073 -1.85761 0
M  V30 6017 C 569.159 0.679864 -1.82764 0
M  V30 6018 O 568.429 1.49242 -1.269 0
M  V30 6019 H 567.009 -0.291495 -0.687779 0
M  V30 6020 H 569.671 -1.35799 -1.39802 0
M  V30 6021 H 568.767 -1.13114 -2.90881 0
M  V30 6022 N 569.068 1.32177 -0.85831 0
M  V30 6023 C 570.293 2.01847 -0.476718 0
M  V30 6024 C 570.718 1.64065 0.920021 0
M  V30 6025 O 570.076 0.843189 1.60499 0
M  V30 6026 C 570.124 3.55097 -0.627578 0
M  V30 6027 O 569.228 4.11012 0.338086 0
M  V30 6028 H 568.569 0.635907 -0.191099 0
M  V30 6029 H 571.099 1.68641 -1.15851 0
M  V30 6030 H 571.109 4.04718 -0.516476 0
M  V30 6031 H 569.784 3.81938 -1.64609 0
M  V30 6032 H 568.361 3.72451 0.182917 0
M  V30 6033 N 570.547 0.616602 1.45037 0
M  V30 6034 C 571.794 0.115331 2.02171 0
M  V30 6035 C 572.122 -1.25748 1.48383 0
M  V30 6036 O 571.377 -1.84511 0.652229 0
M  V30 6037 C 571.676 0.0356829 3.57382 0
M  V30 6038 C 571.342 1.34535 4.30362 0
M  V30 6039 C 570.004 1.70408 4.50016 0
M  V30 6040 C 572.356 2.21049 4.72003 0
M  V30 6041 C 569.684 2.92529 5.0857 0
M  V30 6042 C 572.036 3.42427 5.31908 0
M  V30 6043 C 570.7 3.78541 5.49784 0
M  V30 6044 H 569.97 0.0422024 0.739797 0
M  V30 6045 H 572.617 0.80002 1.73988 0
M  V30 6046 H 570.922 -0.732314 3.84895 0
M  V30 6047 H 572.619 -0.368463 3.99304 0
M  V30 6048 H 569.209 1.05615 4.15383 0
M  V30 6049 H 573.393 1.94632 4.56544 0
M  V30 6050 H 568.649 3.20605 5.20598 0
M  V30 6051 H 572.823 4.09709 5.63127 0
M  V30 6052 H 570.45 4.73255 5.94923 0
M  V30 6053 N 572.025 -1.5352 0.356285 0
M  V30 6054 C 573.272 -2.01117 -0.236303 0
M  V30 6055 C 573.6 -1.24381 -1.49531 0
M  V30 6056 O 572.855 -0.323057 -1.93015 0
M  V30 6057 C 573.154 -3.52607 -0.583369 0
M  V30 6058 C 572.82 -4.47151 0.58023 0
M  V30 6059 C 571.482 -4.72718 0.899528 0
M  V30 6060 C 573.834 -5.03137 1.36024 0
M  V30 6061 C 571.162 -5.51523 2.00098 0
M  V30 6062 C 573.514 -5.83145 2.45204 0
M  V30 6063 C 572.178 -6.07001 2.77679 0
M  V30 6064 H 571.448 -0.735938 -0.0864695 0
M  V30 6065 H 574.095 -1.85209 0.48683 0
M  V30 6066 H 572.4 -3.66413 -1.38739 0
M  V30 6067 H 574.097 -3.86901 -1.05397 0
M  V30 6068 H 570.687 -4.27394 0.321322 0
M  V30 6069 H 574.871 -4.83339 1.12682 0
M  V30 6070 H 570.127 -5.68229 2.25668 0
M  V30 6071 H 574.301 -6.25537 3.06067 0
M  V30 6072 H 571.928 -6.67851 3.63151 0
M  V30 6073 N 573.503 -0.0852151 -1.57369 0
M  V30 6074 C 574.436 0.913608 -2.09113 0
M  V30 6075 C 575.414 1.28264 -0.999358 0
M  V30 6076 O 576.598 1.3896 -1.27367 0
M  V30 6077 C 573.725 2.21777 -2.55993 0
M  V30 6078 C 572.771 1.99932 -3.76735 0
M  V30 6079 S 573.604 1.24637 -5.20794 0
M  V30 6080 C 574.76 2.56304 -5.71016 0
M  V30 6081 H 574.993 0.473369 -2.93507 0
M  V30 6082 H 572.526 0.127856 -1.5387 0
M  V30 6083 H 574.484 2.96726 -2.83662 0
M  V30 6084 H 573.145 2.62923 -1.71843 0
M  V30 6085 H 572.338 2.96482 -4.07571 0
M  V30 6086 H 571.94 1.33116 -3.49509 0
M  V30 6087 H 574.232 3.5233 -5.78679 0
M  V30 6088 H 575.175 2.3006 -6.69685 0
M  V30 6089 H 575.583 2.64125 -4.98897 0
M  V30 6090 N 574.981 1.5647 0.188427 0
M  V30 6091 C 576.23 1.80207 0.905995 0
M  V30 6092 C 576.543 0.659579 1.84144 0
M  V30 6093 O 577.749 0.781431 2.60011 0
M  V30 6094 C 576.205 3.19255 1.66145 0
M  V30 6095 C 575.813 4.41324 0.770504 0
M  V30 6096 C 577.557 3.52298 2.36826 0
M  V30 6097 C 575.464 5.71394 1.52521 0
M  V30 6098 H 574.394 0.671953 0.342045 0
M  V30 6099 H 577.045 1.82808 0.159164 0
M  V30 6100 H 575.427 3.10922 2.45242 0
M  V30 6101 H 576.601 4.60797 0.0177261 0
M  V30 6102 H 574.916 4.16035 0.174199 0
M  V30 6103 H 577.513 4.46715 2.93854 0
M  V30 6104 H 577.856 2.76359 3.11338 0
M  V30 6105 H 578.389 3.62108 1.6469 0
M  V30 6106 H 575.128 6.50316 0.82275 0
M  V30 6107 H 574.648 5.55928 2.25175 0
M  V30 6108 H 576.327 6.12747 2.07725 0
M  V30 6109 N 576.459 -0.456382 1.50847 0
M  V30 6110 C 577.407 -1.57318 1.71329 0
M  V30 6111 C 578.401 -1.59187 0.579287 0
M  V30 6112 O 579.607 -1.6316 0.76018 0
M  V30 6113 H 575.982 -0.5223 0.541024 0
M  V30 6114 H 577.953 -1.3721 2.64983 0
M  V30 6115 C 576.702 -2.95142 1.83811 0
M  V30 6116 H 576.025 -2.94428 2.70467 0
M  V30 6117 H 577.465 -3.72702 2.02161 0
M  V30 6118 C 575.924 -3.31636 0.593224 0
M  V30 6119 O 576.454 -4.00852 -0.260898 0
M  V30 6120 N 574.66 -2.87205 0.442902 0
M  V30 6121 H 574.207 -2.31051 1.13901 0
M  V30 6122 H 574.165 -3.11986 -0.38884 0
M  V30 6123 N 577.937 -1.40673 -0.710563 0
M  V30 6124 C 578.867 -1.44095 -1.83736 0
M  V30 6125 C 579.848 -0.301286 -1.67411 0
M  V30 6126 O 581.033 -0.510618 -1.87367 0
M  V30 6127 C 578.163 -1.30773 -3.21738 0
M  V30 6128 C 577.117 -2.42395 -3.52745 0
M  V30 6129 C 576.443 -2.14147 -4.89944 0
M  V30 6130 C 577.743 -3.84738 -3.53234 0
M  V30 6131 H 579.437 -2.38396 -1.81129 0
M  V30 6132 H 576.983 -1.14746 -0.870017 0
M  V30 6133 H 578.936 -1.31783 -4.00264 0
M  V30 6134 H 577.66 -0.329507 -3.24934 0
M  V30 6135 H 576.319 -2.40643 -2.76562 0
M  V30 6136 H 575.967 -1.14703 -4.89747 0
M  V30 6137 H 575.667 -2.88934 -5.11655 0
M  V30 6138 H 577.191 -2.16848 -5.70797 0
M  V30 6139 H 578.605 -3.88286 -4.2179 0
M  V30 6140 H 577.002 -4.59085 -3.86473 0
M  V30 6141 H 578.072 -4.13962 -2.52514 0
M  V30 6142 N 579.415 0.9433 -1.26252 0
M  V30 6143 C 580.655 1.70397 -1.1289 0
M  V30 6144 C 581.019 1.89268 0.322713 0
M  V30 6145 O 582.22 2.62503 0.578418 0
M  V30 6146 C 580.491 3.04296 -1.87453 0
M  V30 6147 S 582.05 3.95475 -1.90119 0
M  V30 6148 H 578.868 0.585559 -0.403289 0
M  V30 6149 H 581.47 1.12424 -1.59941 0
M  V30 6150 H 580.174 2.8824 -2.9214 0
M  V30 6151 H 579.705 3.67327 -1.40835 0
M  V30 6152 H 581.72 4.86297 -0.986373 0
M  V30 6153 N 580.893 1.08022 1.14757 0
M  V30 6154 C 581.823 0.728248 2.21853 0
M  V30 6155 C 582.804 -0.287486 1.67653 0
M  V30 6156 O 583.989 -0.158727 1.9355 0
M  V30 6157 C 581.119 0.132549 3.47047 0
M  V30 6158 C 580.073 1.07619 4.14249 0
M  V30 6159 C 579.399 0.342907 5.33599 0
M  V30 6160 C 580.699 2.41268 4.63235 0
M  V30 6161 H 582.393 1.62365 2.51551 0
M  V30 6162 H 579.939 0.782125 1.20908 0
M  V30 6163 H 581.892 -0.125665 4.21213 0
M  V30 6164 H 580.616 -0.797971 3.16702 0
M  V30 6165 H 579.275 1.31944 3.42033 0
M  V30 6166 H 578.923 -0.59129 4.99513 0
M  V30 6167 H 578.623 0.971955 5.79506 0
M  V30 6168 H 580.147 0.0926538 6.1053 0
M  V30 6169 H 581.561 2.21232 5.28894 0
M  V30 6170 H 579.958 2.9983 5.19829 0
M  V30 6171 H 581.028 3.03079 3.78512 0
M  V30 6172 N 582.371 -1.3172 0.865308 0
M  V30 6173 C 583.617 -1.97168 0.474633 0
M  V30 6174 C 583.95 -1.68263 -0.969604 0
M  V30 6175 O 583.225 -0.976588 -1.68205 0
M  V30 6176 C 583.508 -3.52689 0.726808 0
M  V30 6177 C 583.361 -3.91185 2.22024 0
M  V30 6178 C 584.68 -4.39689 0.190201 0
M  V30 6179 H 581.799 -0.716185 0.17392 0
M  V30 6180 H 584.441 -1.55925 1.08569 0
M  V30 6181 H 582.591 -3.8795 0.206705 0
M  V30 6182 H 584.263 -3.66049 2.80724 0
M  V30 6183 H 582.506 -3.3996 2.69462 0
M  V30 6184 H 583.177 -4.99604 2.34735 0
M  V30 6185 H 585.653 -4.11225 0.635103 0
M  V30 6186 H 584.529 -5.47469 0.396132 0
M  V30 6187 H 584.79 -4.32683 -0.907625 0
M  V30 6188 N 583.85 -0.624285 -1.44708 0
M  V30 6189 C 585.096 -0.126237 -2.02407 0
M  V30 6190 C 585.428 1.24618 -1.48943 0
M  V30 6191 O 584.704 1.82569 -0.670742 0
M  V30 6192 C 584.986 -0.105449 -3.59946 0
M  V30 6193 C 584.84 -1.50972 -4.23707 0
M  V30 6194 C 586.159 0.573629 -4.36346 0
M  V30 6195 H 583.278 -0.0473472 -0.735478 0
M  V30 6196 H 585.92 -0.799452 -1.72362 0
M  V30 6197 H 584.07 0.46783 -3.85673 0
M  V30 6198 H 585.742 -2.13136 -4.0911 0
M  V30 6199 H 583.985 -2.0656 -3.81465 0
M  V30 6200 H 584.656 -1.44727 -5.32689 0
M  V30 6201 H 587.132 0.0861787 -4.16011 0
M  V30 6202 H 586.008 0.557338 -5.46063 0
M  V30 6203 H 586.269 1.64276 -4.10446 0
M  V30 6204 N 585.328 1.53329 -0.364422 0
M  V30 6205 C 586.577 2.00421 0.226747 0
M  V30 6206 C 586.89 1.25581 1.49963 0
M  V30 6207 O 588.096 1.63256 2.16933 0
M  V30 6208 C 586.552 3.57017 0.454618 0
M  V30 6209 C 586.16 4.40734 -0.803568 0
M  V30 6210 C 587.904 4.12468 1.00351 0
M  V30 6211 C 585.811 5.8888 -0.545345 0
M  V30 6212 H 584.741 0.748787 0.0885082 0
M  V30 6213 H 587.392 1.7703 -0.482983 0
M  V30 6214 H 585.774 3.76558 1.22558 0
M  V30 6215 H 586.948 4.32967 -1.57723 0
M  V30 6216 H 585.263 3.96381 -1.27559 0
M  V30 6217 H 587.86 5.20783 1.212 0
M  V30 6218 H 588.203 3.6699 1.9653 0
M  V30 6219 H 588.736 3.96721 0.29274 0
M  V30 6220 H 585.475 6.38633 -1.47743 0
M  V30 6221 H 584.995 5.99499 0.189842 0
M  V30 6222 H 586.674 6.46776 -0.170425 0
M  V30 6223 N 586.806 0.0935595 1.57322 0
M  V30 6224 C 587.769 -0.851426 2.12799 0
M  V30 6225 C 588.769 -1.21187 1.0569 0
M  V30 6226 O 589.959 -1.14156 1.31583 0
M  V30 6227 C 587.091 -2.14779 2.64731 0
M  V30 6228 H 588.284 -0.369733 2.97612 0
M  V30 6229 H 585.837 -0.155417 1.55525 0
M  V30 6230 H 586.572 -2.67437 1.83434 0
M  V30 6231 H 586.357 -1.89907 3.43042 0
M  V30 6232 H 587.847 -2.82383 3.07651 0
M  V30 6233 N 588.284 -1.56567 -0.180126 0
M  V30 6234 C 589.512 -1.85618 -0.913972 0
M  V30 6235 C 589.927 -0.677892 -1.7621 0
M  V30 6236 O 589.284 0.353171 -1.7905 0
M  V30 6237 C 589.335 -3.13619 -1.79793 0
M  V30 6238 O 589.056 -4.26906 -0.98402 0
M  V30 6239 C 590.557 -3.55954 -2.64219 0
M  V30 6240 H 587.777 -0.616043 -0.265954 0
M  V30 6241 H 590.321 -2.03681 -0.182872 0
M  V30 6242 H 588.476 -2.97409 -2.48247 0
M  V30 6243 H 588.89 -4.9989 -1.58776 0
M  V30 6244 H 590.364 -4.48444 -3.21873 0
M  V30 6245 H 590.841 -2.79653 -3.38661 0
M  V30 6246 H 591.447 -3.74746 -2.01111 0
M  V30 6247 N 589.762 0.448376 -1.51087 0
M  V30 6248 C 590.694 1.56146 -1.67783 0
M  V30 6249 C 591.707 1.52913 -0.55871 0
M  V30 6250 O 592.896 1.57889 -0.83267 0
M  V30 6251 C 589.996 2.95057 -1.66716 0
M  V30 6252 C 589.169 3.22915 -2.95033 0
M  V30 6253 C 588.228 4.41495 -2.86302 0
M  V30 6254 O 587.254 4.40688 -3.60254 0
M  V30 6255 N 588.456 5.44443 -2.014 0
M  V30 6256 H 591.221 1.42232 -2.638 0
M  V30 6257 H 588.782 0.637153 -1.48835 0
M  V30 6258 H 590.774 3.72388 -1.58458 0
M  V30 6259 H 589.344 3.02624 -0.783403 0
M  V30 6260 H 588.564 2.33985 -3.17245 0
M  V30 6261 H 589.852 3.38349 -3.79996 0
M  V30 6262 H 589.25 5.4793 -1.40674 0
M  V30 6263 H 587.807 6.2067 -1.99029 0
M  V30 6264 N 591.24 1.41047 0.703093 0
M  V30 6265 C 592.487 1.4 1.46309 0
M  V30 6266 C 592.815 0.00654574 1.94499 0
M  V30 6267 O 592.07 -0.980255 1.6938 0
M  V30 6268 C 592.369 2.34686 2.6955 0
M  V30 6269 C 592.035 3.81684 2.40058 0
M  V30 6270 C 590.697 4.21731 2.31725 0
M  V30 6271 C 593.049 4.74525 2.15581 0
M  V30 6272 C 590.377 5.52637 1.97001 0
M  V30 6273 C 592.729 6.05744 1.82366 0
M  V30 6274 C 591.393 6.44819 1.72524 0
M  V30 6275 H 590.663 0.512295 0.535382 0
M  V30 6276 H 593.31 1.73792 0.804275 0
M  V30 6277 H 591.615 1.94122 3.40329 0
M  V30 6278 H 593.312 2.31152 3.27673 0
M  V30 6279 H 589.902 3.49963 2.47435 0
M  V30 6280 H 594.086 4.44395 2.20968 0
M  V30 6281 H 589.342 5.81802 1.87928 0
M  V30 6282 H 593.516 6.77189 1.62444 0
M  V30 6283 H 591.143 7.46168 1.45385 0
M  V30 6284 N 592.718 -0.936591 1.26751 0
M  V30 6285 C 593.943 -1.72288 1.15462 0
M  V30 6286 C 594.368 -1.85915 -0.285887 0
M  V30 6287 O 593.726 -1.35272 -1.20711 0
M  V30 6288 C 593.774 -3.10503 1.83359 0
M  V30 6289 O 592.878 -3.96745 1.1255 0
M  V30 6290 H 592.219 -0.52843 0.402067 0
M  V30 6291 H 594.749 -1.17271 1.67656 0
M  V30 6292 H 594.759 -3.60867 1.90365 0
M  V30 6293 H 593.434 -2.99901 2.88153 0
M  V30 6294 H 592.011 -3.55191 1.13551 0
M  V30 6295 N 594.196 -1.08629 -1.14182 0
M  V30 6296 C 595.106 -0.730126 -2.22949 0
M  V30 6297 C 596.122 0.26436 -1.7198 0
M  V30 6298 O 597.298 0.107742 -2.01112 0
M  V30 6299 C 594.363 -0.147227 -3.46387 0
M  V30 6300 C 593.424 -1.19662 -4.12286 0
M  V30 6301 C 592.657 -0.641437 -5.29831 0
M  V30 6302 O 592.88 0.538351 -5.67854 0
M  V30 6303 O 591.814 -1.39257 -5.85569 0
M  V30 6304 H 595.64 -1.63753 -2.55771 0
M  V30 6305 H 593.225 -0.860118 -1.22157 0
M  V30 6306 H 595.107 0.174923 -4.21037 0
M  V30 6307 H 593.782 0.733304 -3.15285 0
M  V30 6308 H 592.689 -1.57133 -3.395 0
M  V30 6309 H 594.022 -2.0495 -4.475 0
M  V30 6310 N 595.674 1.31259 -0.872281 0
M  V30 6311 C 596.902 2.00795 -0.498907 0
M  V30 6312 C 597.317 1.65464 0.909238 0
M  V30 6313 O 596.674 0.885073 1.59602 0
M  V30 6314 C 596.725 3.55625 -0.649092 0
M  V30 6315 O 596.446 3.89692 -2.00179 0
M  V30 6316 C 597.947 4.42434 -0.277034 0
M  V30 6317 H 595.167 0.642299 -0.194145 0
M  V30 6318 H 597.711 1.67438 -1.17408 0
M  V30 6319 H 595.866 3.87394 -0.0214402 0
M  V30 6320 H 596.28 4.84407 -2.01122 0
M  V30 6321 H 597.754 5.50299 -0.433064 0
M  V30 6322 H 598.231 4.32146 0.783989 0
M  V30 6323 H 598.837 4.16086 -0.880483 0
M  V30 6324 N 597.152 0.631951 1.44375 0
M  V30 6325 C 598.099 -0.0724807 2.30686 0
M  V30 6326 C 599.069 -0.835975 1.43529 0
M  V30 6327 O 600.254 -0.816849 1.7243 0
M  V30 6328 C 597.394 -1.04753 3.28817 0
M  V30 6329 C 596.507 -0.282367 4.31076 0
M  V30 6330 C 595.642 -1.2493 5.163 0
M  V30 6331 C 594.681 -0.473349 6.10267 0
M  V30 6332 N 593.818 -1.39079 6.88187 0
M  V30 6333 H 598.658 0.669477 2.90383 0
M  V30 6334 H 596.195 0.341927 1.43071 0
M  V30 6335 H 598.153 -1.62623 3.842 0
M  V30 6336 H 596.783 -1.75661 2.70819 0
M  V30 6337 H 595.835 0.412268 3.78159 0
M  V30 6338 H 597.147 0.321955 4.9776 0
M  V30 6339 H 596.301 -1.89931 5.76204 0
M  V30 6340 H 595.04 -1.88755 4.49692 0
M  V30 6341 H 594.045 0.190142 5.49471 0
M  V30 6342 H 595.27 0.16019 6.78911 0
M  V30 6343 H 593.216 -2.01623 6.24247 0
M  V30 6344 H 593.133 -0.840513 7.51313 0
M  V30 6345 H 594.401 -2.02961 7.52613 0
M  V30 6346 N 598.631 -1.53133 0.372548 0
M  V30 6347 C 599.563 -2.23557 -0.505444 0
M  V30 6348 C 600.576 -1.25211 -1.04049 0
M  V30 6349 O 601.765 -1.51391 -0.945675 0
M  V30 6350 C 598.865 -2.92516 -1.71136 0
M  V30 6351 C 598.038 -4.17428 -1.30661 0
M  V30 6352 C 597.097 -4.69535 -2.37536 0
M  V30 6353 O 596.123 -5.33042 -1.99637 0
M  V30 6354 N 597.325 -4.47947 -3.6922 0
M  V30 6355 H 600.09 -2.9954 0.0978259 0
M  V30 6356 H 597.651 -1.60684 0.198068 0
M  V30 6357 H 599.643 -3.24281 -2.42124 0
M  V30 6358 H 598.213 -2.19944 -2.22134 0
M  V30 6359 H 597.433 -3.91888 -0.426292 0
M  V30 6360 H 598.721 -4.98622 -1.01259 0
M  V30 6361 H 598.119 -3.97219 -4.02783 0
M  V30 6362 H 596.676 -4.84245 -4.36292 0
M  V30 6363 N 600.109 -0.101901 -1.5727 0
M  V30 6364 C 601.525 0.254739 -1.57554 0
M  V30 6365 C 601.725 1.67937 -1.11352 0
M  V30 6366 O 600.781 2.39722 -0.793081 0
M  V30 6367 C 602.094 0.036975 -3.00677 0
M  V30 6368 C 603.642 0.104199 -3.12827 0
M  V30 6369 C 604.117 -0.0856565 -4.5792 0
M  V30 6370 N 605.608 -0.0310498 -4.6319 0
M  V30 6371 C 606.343 -0.153099 -5.73196 0
M  V30 6372 N 605.839 -0.330364 -6.92012 0
M  V30 6373 N 607.632 -0.0938854 -5.62022 0
M  V30 6374 H 599.783 -1.03263 -1.85609 0
M  V30 6375 H 602.046 -0.405251 -0.857016 0
M  V30 6376 H 601.752 -0.947254 -3.38703 0
M  V30 6377 H 601.626 0.776335 -3.69124 0
M  V30 6378 H 604.013 1.07894 -2.74669 0
M  V30 6379 H 604.094 -0.666762 -2.46957 0
M  V30 6380 H 603.738 -1.05729 -4.96773 0
M  V30 6381 H 603.668 0.705082 -5.21858 0
M  V30 6382 H 606.159 0.103141 -3.77759 0
M  V30 6383 H 606.472 -0.41482 -7.71686 0
M  V30 6384 H 604.817 -0.366119 -6.94035 0
M  V30 6385 H 608.008 0.0435168 -4.6808 0
M  V30 6386 H 608.181 -0.19245 -6.47714 0
M  V30 6387 N 601.587 1.56661 0.17182 0
M  V30 6388 C 602.497 1.99604 1.2327 0
M  V30 6389 C 603.513 0.907333 1.4847 0
M  V30 6390 O 604.689 1.21492 1.60629 0
M  V30 6391 C 601.754 2.34685 2.55194 0
M  V30 6392 C 600.815 3.57381 2.3786 0
M  V30 6393 C 600.048 3.90779 3.63494 0
M  V30 6394 O 600.271 3.25152 4.6865 0
M  V30 6395 O 599.205 4.84129 3.57634 0
M  V30 6396 H 603.031 2.90114 0.898192 0
M  V30 6397 H 600.616 1.44522 0.378647 0
M  V30 6398 H 602.498 2.5822 3.33017 0
M  V30 6399 H 601.173 1.47336 2.88225 0
M  V30 6400 H 600.08 3.39064 1.5807 0
M  V30 6401 H 601.413 4.45268 2.09754 0
M  V30 6402 N 603.065 -0.440357 1.51323 0
M  V30 6403 C 604.015 -1.53263 1.68803 0
M  V30 6404 C 604.999 -1.51494 0.542057 0
M  V30 6405 O 606.191 -1.57999 0.797839 0
M  V30 6406 C 603.32 -2.91479 1.8137 0
M  V30 6407 C 602.406 -2.98015 3.01742 0
M  V30 6408 N 602.797 -2.743 4.24962 0
M  V30 6409 C 601.095 -3.29173 3.00934 0
M  V30 6410 C 601.796 -2.86601 5.06197 0
M  V30 6411 N 600.772 -3.1814 4.40781 0
M  V30 6412 H 604.574 -1.33675 2.61741 0
M  V30 6413 H 602.088 -0.647616 1.48929 0
M  V30 6414 H 604.085 -3.70055 1.92002 0
M  V30 6415 H 602.745 -3.12089 0.896117 0
M  V30 6416 H 603.756 -2.49287 4.53957 0
M  V30 6417 H 600.433 -3.55577 2.18796 0
M  V30 6418 H 601.823 -2.72246 6.14274 0
M  V30 6419 N 604.543 -1.41418 -0.695603 0
M  V30 6420 C 605.959 -1.23887 -1.00619 0
M  V30 6421 C 606.159 -0.128206 -2.01092 0
M  V30 6422 O 605.215 0.507408 -2.47349 0
M  V30 6423 C 606.528 -2.58816 -1.53083 0
M  V30 6424 C 608.076 -2.65998 -1.64967 0
M  V30 6425 C 608.551 -4.01244 -2.20833 0
M  V30 6426 N 610.042 -4.0309 -2.28194 0
M  V30 6427 C 610.777 -5.04539 -2.72448 0
M  V30 6428 N 610.273 -6.16378 -3.16306 0
M  V30 6429 N 612.066 -4.91901 -2.72011 0
M  V30 6430 H 604.217 -2.12379 -0.0300061 0
M  V30 6431 H 606.48 -0.944958 -0.0758797 0
M  V30 6432 H 606.186 -3.40842 -0.867147 0
M  V30 6433 H 606.06 -2.81299 -2.51298 0
M  V30 6434 H 608.447 -1.84331 -2.30448 0
M  V30 6435 H 608.528 -2.47325 -0.652982 0
M  V30 6436 H 608.172 -4.83359 -1.55968 0
M  V30 6437 H 608.102 -4.17257 -3.21254 0
M  V30 6438 H 610.593 -3.22341 -1.97242 0
M  V30 6439 H 610.906 -6.89658 -3.487 0
M  V30 6440 H 609.251 -6.19914 -3.14215 0
M  V30 6441 H 612.442 -4.03613 -2.37095 0
M  V30 6442 H 612.615 -5.71102 -3.06181 0
M  V30 6443 N 606.021 0.929856 -1.27246 0
M  V30 6444 C 606.951 2.04722 -1.12299 0
M  V30 6445 C 607.932 1.70082 -0.0250464 0
M  V30 6446 O 609.117 1.93176 -0.199141 0
M  V30 6447 C 606.247 3.38721 -0.767145 0
M  V30 6448 C 605.201 3.87466 -1.81808 0
M  V30 6449 C 604.527 5.18246 -1.31626 0
M  V30 6450 C 605.827 4.11095 -3.22177 0
M  V30 6451 H 607.521 2.17485 -2.05769 0
M  V30 6452 H 605.067 1.04503 -0.990715 0
M  V30 6453 H 607.02 4.16366 -0.649413 0
M  V30 6454 H 605.744 3.25967 0.203259 0
M  V30 6455 H 604.403 3.12012 -1.92468 0
M  V30 6456 H 604.051 5.01881 -0.335378 0
M  V30 6457 H 603.751 5.51829 -2.01887 0
M  V30 6458 H 605.275 5.98462 -1.21143 0
M  V30 6459 H 606.689 4.79316 -3.1453 0
M  V30 6460 H 605.086 4.55982 -3.90129 0
M  V30 6461 H 606.156 3.16468 -3.67391 0
M  V30 6462 N 607.499 1.09233 1.13605 0
M  V30 6463 C 608.432 0.6739 2.18023 0
M  V30 6464 C 609.41 -0.318603 1.59448 0
M  V30 6465 O 610.594 -0.220452 1.87206 0
M  V30 6466 C 607.721 -0.00751458 3.38699 0
M  V30 6467 C 606.767 0.946481 4.15865 0
M  V30 6468 S 607.6 2.45753 4.75779 0
M  V30 6469 C 608.756 1.78846 5.99804 0
M  V30 6470 H 608.989 1.55846 2.53178 0
M  V30 6471 H 606.522 0.908118 1.2487 0
M  V30 6472 H 608.48 -0.394368 4.08601 0
M  V30 6473 H 607.141 -0.868693 3.01849 0
M  V30 6474 H 606.334 0.416742 5.02274 0
M  V30 6475 H 605.936 1.27464 3.51609 0
M  V30 6476 H 608.228 1.11135 6.68323 0
M  V30 6477 H 609.171 2.63163 6.57382 0
M  V30 6478 H 609.579 1.25823 5.50299 0
M  V30 6479 N 608.977 -1.30795 0.87923 0
M  V30 6480 C 609.907 -2.30742 0.357796 0
M  V30 6481 C 610.888 -1.60747 -0.556283 0
M  V30 6482 O 612.073 -1.88393 -0.47135 0
M  V30 6483 C 609.203 -3.44583 -0.433555 0
M  V30 6484 C 608.157 -4.26235 0.388251 0
M  V30 6485 C 607.483 -5.32073 -0.529352 0
M  V30 6486 C 608.783 -4.96303 1.62729 0
M  V30 6487 H 610.477 -2.74605 1.19299 0
M  V30 6488 H 608.023 -1.32017 0.575104 0
M  V30 6489 H 609.976 -4.13563 -0.808934 0
M  V30 6490 H 608.7 -2.99511 -1.30234 0
M  V30 6491 H 607.359 -3.58936 0.745695 0
M  V30 6492 H 607.007 -4.83249 -1.39569 0
M  V30 6493 H 606.707 -5.87598 0.0166741 0
M  V30 6494 H 608.231 -6.0391 -0.901373 0
M  V30 6495 H 609.645 -5.5783 1.32283 0
M  V30 6496 H 608.042 -5.61666 2.11309 0
M  V30 6497 H 609.112 -4.22758 2.37494 0
M  V30 6498 N 610.455 -0.639598 -1.44038 0
M  V30 6499 C 611.365 0.0612377 -2.3452 0
M  V30 6500 C 612.381 0.826717 -1.53106 0
M  V30 6501 O 613.557 0.777059 -1.85806 0
M  V30 6502 C 610.622 1.02492 -3.31204 0
M  V30 6503 C 609.683 0.25788 -4.28525 0
M  V30 6504 C 608.916 1.17566 -5.2059 0
M  V30 6505 O 609.139 2.41461 -5.16771 0
M  V30 6506 O 608.073 0.655407 -5.98321 0
M  V30 6507 H 611.899 -0.68318 -2.95916 0
M  V30 6508 H 609.484 -0.399784 -1.43952 0
M  V30 6509 H 611.366 1.57911 -3.90694 0
M  V30 6510 H 610.041 1.7498 -2.7233 0
M  V30 6511 H 608.948 -0.339566 -3.72556 0
M  V30 6512 H 610.281 -0.427154 -4.90343 0
M  V30 6513 N 611.933 1.52934 -0.380664 0
M  V30 6514 C 612.865 2.23822 0.493581 0
M  V30 6515 C 613.878 1.25761 1.03383 0
M  V30 6516 O 615.067 1.5189 0.937633 0
M  V30 6517 C 612.167 2.9342 1.69582 0
M  V30 6518 C 611.34 4.18115 1.28445 0
M  V30 6519 C 610.399 4.70788 2.35042 0
M  V30 6520 O 609.425 5.34093 1.96807 0
M  V30 6521 N 610.627 4.49899 3.66839 0
M  V30 6522 H 613.392 2.99484 -0.11371 0
M  V30 6523 H 610.953 1.60577 -0.206587 0
M  V30 6524 H 612.945 3.2556 2.40401 0
M  V30 6525 H 611.515 2.21119 2.20965 0
M  V30 6526 H 610.735 3.92109 0.405503 0
M  V30 6527 H 612.023 4.99152 0.986132 0
M  V30 6528 H 611.421 3.99349 4.0067 0
M  V30 6529 H 609.978 4.86551 4.33718 0
M  V30 6530 N 613.412 0.11024 1.57214 0
M  V30 6531 C 614.828 -0.24638 1.57687 0
M  V30 6532 C 615.028 -1.67344 1.12241 0
M  V30 6533 O 614.084 -2.39298 0.805783 0
M  V30 6534 C 615.397 -0.0210288 3.00693 0
M  V30 6535 C 616.945 -0.0876077 3.12877 0
M  V30 6536 C 617.42 0.10994 4.57868 0
M  V30 6537 N 618.911 0.0556135 4.63167 0
M  V30 6538 C 619.646 0.183495 5.73106 0
M  V30 6539 N 619.142 0.367058 6.91827 0
M  V30 6540 N 620.935 0.123689 5.61964 0
M  V30 6541 H 613.086 1.04246 1.85058 0
M  V30 6542 H 615.349 0.40979 0.854854 0
M  V30 6543 H 615.055 0.965203 3.38196 0
M  V30 6544 H 614.929 -0.756748 3.69531 0
M  V30 6545 H 617.316 -1.06436 2.75237 0
M  V30 6546 H 617.397 0.67985 2.466 0
M  V30 6547 H 617.041 1.08362 4.96206 0
M  V30 6548 H 616.971 -0.677397 5.22225 0
M  V30 6549 H 619.462 -0.0831062 3.77809 0
M  V30 6550 H 619.775 0.455739 7.71455 0
M  V30 6551 H 618.12 0.40292 6.93831 0
M  V30 6552 H 621.311 -0.0186928 4.68096 0
M  V30 6553 H 621.484 0.226797 6.47603 0
M  V30 6554 N 614.89 -1.56749 -0.16351 0
M  V30 6555 C 615.822 -1.93587 -1.22705 0
M  V30 6556 C 616.835 -0.829824 -1.40063 0
M  V30 6557 O 618.024 -1.10826 -1.39928 0
M  V30 6558 C 615.124 -2.1803 -2.59454 0
M  V30 6559 C 614.297 -3.4928 -2.63292 0
M  V30 6560 C 613.356 -3.62457 -3.8146 0
M  V30 6561 O 612.382 -4.35004 -3.67096 0
M  V30 6562 N 613.584 -2.97888 -4.9824 0
M  V30 6563 H 616.349 -2.8542 -0.914081 0
M  V30 6564 H 613.91 -1.58 -0.353214 0
M  V30 6565 H 615.902 -2.24102 -3.36987 0
M  V30 6566 H 614.472 -1.32543 -2.8311 0
M  V30 6567 H 613.692 -3.54795 -1.71796 0
M  V30 6568 H 614.98 -4.35632 -2.62873 0
M  V30 6569 H 614.378 -2.38833 -5.12811 0
M  V30 6570 H 612.935 -3.09545 -5.73607 0
M  V30 6571 N 616.368 0.432326 -1.51554 0
M  V30 6572 C 617.784 0.769195 -1.39841 0
M  V30 6573 C 617.984 1.95584 -0.484675 0
M  V30 6574 O 617.04 2.52433 0.0582829 0
M  V30 6575 C 618.353 1.04487 -2.81963 0
M  V30 6576 C 619.901 1.149 -2.91148 0
M  V30 6577 C 620.376 1.45758 -4.34187 0
M  V30 6578 N 621.867 1.52671 -4.37317 0
M  V30 6579 C 622.602 1.78129 -5.4503 0
M  V30 6580 N 622.098 2.01345 -6.62897 0
M  V30 6581 N 623.891 1.79953 -5.32516 0
M  V30 6582 H 616.042 -0.349122 -2.09511 0
M  V30 6583 H 618.305 -0.0938113 -0.943347 0
M  V30 6584 H 618.011 0.24557 -3.50842 0
M  V30 6585 H 617.885 1.97119 -3.21596 0
M  V30 6586 H 620.272 1.93891 -2.22464 0
M  V30 6587 H 620.353 0.201568 -2.55005 0
M  V30 6588 H 619.997 0.672917 -5.03423 0
M  V30 6589 H 619.927 2.41715 -4.67848 0
M  V30 6590 H 622.418 1.36612 -3.52343 0
M  V30 6591 H 622.731 2.20155 -7.40778 0
M  V30 6592 H 621.076 1.98657 -6.66003 0
M  V30 6593 H 624.267 1.61337 -4.39418 0
M  V30 6594 H 624.44 1.99455 -6.1654 0
M  V30 6595 N 617.846 1.41785 0.688094 0
M  V30 6596 C 619.076 1.44705 1.47459 0
M  V30 6597 C 619.484 0.052916 1.89126 0
M  V30 6598 O 618.827 -0.939781 1.57841 0
M  V30 6599 C 618.889 2.29935 2.76352 0
M  V30 6600 C 618.553 3.77996 2.56843 0
M  V30 6601 C 619.55 4.69976 2.22304 0
M  V30 6602 C 617.235 4.2212 2.7225 0
M  V30 6603 C 619.229 6.04068 2.03421 0
M  V30 6604 C 616.916 5.56275 2.52985 0
M  V30 6605 C 617.914 6.47065 2.18621 0
M  V30 6606 O 617.602 7.78744 1.9953 0
M  V30 6607 H 617.334 0.494703 0.460701 0
M  V30 6608 H 619.888 1.86802 0.854057 0
M  V30 6609 H 618.118 1.82664 3.40839 0
M  V30 6610 H 619.807 2.24467 3.38186 0
M  V30 6611 H 620.573 4.37175 2.10008 0
M  V30 6612 H 616.452 3.51752 2.97979 0
M  V30 6613 H 619.996 6.74897 1.76523 0
M  V30 6614 H 615.893 5.88653 2.64873 0
M  V30 6615 H 616.661 7.89966 2.14234 0
M  V30 6616 N 619.324 -0.923095 1.27737 0
M  V30 6617 C 620.254 -2.04124 1.13383 0
M  V30 6618 C 621.235 -1.70066 0.0340658 0
M  V30 6619 O 622.42 -1.93068 0.209383 0
M  V30 6620 C 619.55 -3.3831 0.785097 0
M  V30 6621 C 618.504 -3.86496 1.8386 0
M  V30 6622 C 617.83 -5.1754 1.34373 0
M  V30 6623 C 619.13 -4.09381 3.24353 0
M  V30 6624 H 620.824 -2.1639 2.06919 0
M  V30 6625 H 618.37 -1.03976 0.996243 0
M  V30 6626 H 620.323 -4.16016 0.671485 0
M  V30 6627 H 619.047 -3.2607 -0.185969 0
M  V30 6628 H 617.706 -3.10987 1.9412 0
M  V30 6629 H 617.354 -5.01696 0.361989 0
M  V30 6630 H 617.054 -5.50751 2.04811 0
M  V30 6631 H 618.578 -5.97811 1.24315 0
M  V30 6632 H 619.992 -4.77641 3.17067 0
M  V30 6633 H 618.389 -4.53906 3.92542 0
M  V30 6634 H 619.459 -3.14515 3.69064 0
M  V30 6635 N 620.802 -1.09834 -1.13024 0
M  V30 6636 C 622.027 -0.85909 -1.88771 0
M  V30 6637 C 622.452 0.584402 -1.78791 0
M  V30 6638 O 621.81 1.41101 -1.13842 0
M  V30 6639 C 621.858 -1.30427 -3.36186 0
M  V30 6640 O 620.962 -0.465368 -4.09766 0
M  V30 6641 H 620.303 -0.310786 -0.586778 0
M  V30 6642 H 622.833 -1.46355 -1.42973 0
M  V30 6643 H 622.843 -1.2915 -3.8702 0
M  V30 6644 H 621.518 -2.3555 -3.42767 0
M  V30 6645 H 620.095 -0.542814 -3.68928 0
M  V30 6646 N 622.28 1.30327 -0.886154 0
M  V30 6647 C 623.505 2.0079 -0.519425 0
M  V30 6648 C 623.93 1.65979 0.885013 0
M  V30 6649 O 623.288 0.877043 1.58675 0
M  V30 6650 C 623.336 3.53686 -0.702758 0
M  V30 6651 O 622.44 4.11637 0.250828 0
M  V30 6652 H 621.781 0.63171 -0.204544 0
M  V30 6653 H 624.311 1.66145 -1.19402 0
M  V30 6654 H 624.321 4.03531 -0.602207 0
M  V30 6655 H 622.996 3.78361 -1.72673 0
M  V30 6656 H 621.573 3.72755 0.103873 0
M  V30 6657 N 623.758 0.647228 1.43697 0
M  V30 6658 C 624.983 0.164083 2.0675 0
M  V30 6659 C 625.408 -1.15892 1.48158 0
M  V30 6660 O 624.766 -1.71459 0.589194 0
M  V30 6661 C 624.814 0.0800368 3.60511 0
M  V30 6662 O 623.918 -0.959453 4.01084 0
M  V30 6663 H 623.259 0.0921288 0.657578 0
M  V30 6664 H 625.789 0.88846 1.84303 0
M  V30 6665 H 625.799 -0.105263 4.07864 0
M  V30 6666 H 624.474 1.04586 4.02535 0
M  V30 6667 H 623.051 -0.747425 3.65333 0
M  V30 6668 N 625.236 -1.5273 0.388769 0
M  V30 6669 C 626.464 -2.05992 -0.193677 0
M  V30 6670 C 626.879 -1.26053 -1.40557 0
M  V30 6671 O 626.236 -0.307049 -1.79898 0
M  V30 6672 C 626.287 -3.57068 -0.564321 0
M  V30 6673 O 626.008 -4.3398 0.599422 0
M  V30 6674 C 627.509 -4.26674 -1.20269 0
M  V30 6675 H 624.729 -0.670358 -0.0293445 0
M  V30 6676 H 627.273 -1.96857 0.553844 0
M  V30 6677 H 625.428 -3.66277 -1.26174 0
M  V30 6678 H 625.842 -5.2367 0.294895 0
M  V30 6679 H 627.316 -5.33625 -1.4124 0
M  V30 6680 H 627.793 -3.81854 -2.16989 0
M  V30 6681 H 628.399 -4.2178 -0.546047 0
M  V30 6682 N 626.714 -0.118576 -1.57153 0
M  V30 6683 C 627.96 0.540326 -1.95469 0
M  V30 6684 C 628.293 1.66356 -1.00196 0
M  V30 6685 O 627.568 1.94461 -0.039104 0
M  V30 6686 C 627.851 1.07342 -3.43729 0
M  V30 6687 C 627.704 -0.0463732 -4.49776 0
M  V30 6688 C 629.023 1.96442 -3.93826 0
M  V30 6689 H 626.142 0.19494 -0.710751 0
M  V30 6690 H 628.784 -0.19405 -1.89006 0
M  V30 6691 H 626.934 1.69925 -3.49368 0
M  V30 6692 H 628.606 -0.681648 -4.56236 0
M  V30 6693 H 626.849 -0.709574 -4.27957 0
M  V30 6694 H 627.52 0.367856 -5.50773 0
M  V30 6695 H 629.996 1.43731 -3.90488 0
M  V30 6696 H 628.872 2.3066 -4.98084 0
M  V30 6697 H 629.133 2.89077 -3.34495 0
M  V30 6698 N 628.193 1.56834 0.155195 0
M  V30 6699 C 629.156 1.96748 1.17571 0
M  V30 6700 C 630.156 0.853006 1.3631 0
M  V30 6701 O 631.346 1.11978 1.33441 0
M  V30 6702 C 628.478 2.27631 2.53765 0
M  V30 6703 H 629.671 2.88085 0.833498 0
M  V30 6704 H 627.224 1.51141 0.398242 0
M  V30 6705 H 627.959 1.39059 2.92973 0
M  V30 6706 H 627.744 3.0888 2.41527 0
M  V30 6707 H 629.234 2.59377 3.27282 0
M  V30 6708 N 629.671 -0.424282 1.51781 0
M  V30 6709 C 630.896 -1.19928 1.6921 0
M  V30 6710 C 631.321 -1.8392 0.394355 0
M  V30 6711 O 630.679 -1.69371 -0.646778 0
M  V30 6712 C 630.727 -2.24937 2.81843 0
M  V30 6713 O 629.831 -3.3073 2.46356 0
M  V30 6714 H 629.172 -0.35078 0.563781 0
M  V30 6715 H 631.702 -0.499401 1.98412 0
M  V30 6716 H 631.712 -2.69512 3.06312 0
M  V30 6717 H 630.387 -1.77742 3.76006 0
M  V30 6718 H 628.964 -2.9154 2.32505 0
M  V30 6719 N 631.149 -1.42148 -0.680565 0
M  V30 6720 C 632.379 -1.45485 -1.46689 0
M  V30 6721 C 632.787 -0.0629451 -1.89095 0
M  V30 6722 O 632.13 0.931397 -1.58337 0
M  V30 6723 C 632.192 -2.31397 -2.75129 0
M  V30 6724 C 631.856 -3.79353 -2.54834 0
M  V30 6725 C 632.853 -4.71148 -2.19808 0
M  V30 6726 C 630.538 -4.23557 -2.70008 0
M  V30 6727 C 632.532 -6.05139 -2.00215 0
M  V30 6728 C 630.219 -5.57609 -2.50031 0
M  V30 6729 C 631.217 -6.48216 -2.15187 0
M  V30 6730 O 630.905 -7.79792 -1.95397 0
M  V30 6731 H 630.637 -0.497139 -0.458071 0
M  V30 6732 H 633.191 -1.87252 -0.844139 0
M  V30 6733 H 631.421 -1.84468 -3.39865 0
M  V30 6734 H 633.11 -2.26257 -3.36991 0
M  V30 6735 H 633.876 -4.38282 -2.07686 0
M  V30 6736 H 629.755 -3.53327 -2.96109 0
M  V30 6737 H 633.299 -6.75823 -1.72941 0
M  V30 6738 H 629.196 -5.9005 -2.61748 0
M  V30 6739 H 629.964 -7.91091 -2.10042 0
M  V30 6740 N 632.627 0.916307 -1.28225 0
M  V30 6741 C 633.59 1.99996 -1.11957 0
M  V30 6742 C 634.59 1.60688 -0.0600152 0
M  V30 6743 O 635.78 1.71499 -0.30558 0
M  V30 6744 C 632.912 3.33458 -0.708411 0
M  V30 6745 H 634.105 2.15858 -2.08196 0
M  V30 6746 H 631.658 1.09863 -1.11175 0
M  V30 6747 H 632.393 3.23297 0.254859 0
M  V30 6748 H 632.178 3.63349 -1.47377 0
M  V30 6749 H 633.668 4.13014 -0.617164 0
M  V30 6750 N 634.105 1.10431 1.1244 0
M  V30 6751 C 635.015 0.765502 2.21759 0
M  V30 6752 C 636.031 -0.236966 1.72379 0
M  V30 6753 O 637.207 -0.0757329 2.01258 0
M  V30 6754 C 634.272 0.202316 3.46109 0
M  V30 6755 C 633.333 1.26205 4.1033 0
M  V30 6756 C 632.566 0.725648 5.28744 0
M  V30 6757 O 632.789 -0.447942 5.68638 0
M  V30 6758 O 631.723 1.48555 5.83279 0
M  V30 6759 H 635.549 1.67801 2.53133 0
M  V30 6760 H 633.134 0.879443 1.20773 0
M  V30 6761 H 635.016 -0.107918 4.21262 0
M  V30 6762 H 633.691 -0.683052 3.16411 0
M  V30 6763 H 632.598 1.62514 3.36957 0
M  V30 6764 H 633.931 2.12044 4.44183 0
M  V30 6765 N 635.583 -1.29855 0.893053 0
M  V30 6766 C 636.994 -1.77946 0.564998 0
M  V30 6767 C 637.345 -1.73339 -0.919134 0
M  V30 6768 O 636.47 -1.3152 -1.71847 0
M  V30 6769 C 637.065 -3.23118 1.01883 0
M  V30 6770 C 635.624 -3.69013 0.742051 0
M  V30 6771 C 634.771 -2.50121 1.19727 0
M  V30 6772 H 637.722 -1.16611 1.07646 0
M  V30 6773 H 637.743 -3.78875 0.351249 0
M  V30 6774 H 637.255 -3.26439 2.09903 0
M  V30 6775 H 635.356 -3.71173 -0.325816 0
M  V30 6776 H 635.469 -4.60117 1.33527 0
M  V30 6777 H 633.833 -2.47128 0.616418 0
M  V30 6778 H 634.616 -2.56174 2.28538 0
M  V30 6779 N 637.061 -0.65484 -1.43351 0
M  V30 6780 C 638.309 -0.168559 -2.01396 0
M  V30 6781 C 638.63 1.22235 -1.51933 0
M  V30 6782 O 637.9 1.81685 -0.732627 0
M  V30 6783 H 636.48 -0.0593244 -0.744641 0
M  V30 6784 H 639.142 -0.846871 -1.75539 0
M  V30 6785 H 638.238 -0.154428 -3.11718 0
M  V30 6786 N 638.539 1.52521 -0.396863 0
M  V30 6787 C 639.816 1.94112 0.240842 0
M  V30 6788 C 640.196 1.33288 1.637 0
M  V30 6789 O 639.544 0.503901 2.22875 0
M  V30 6790 C 639.754 3.48033 0.259567 0
M  V30 6791 C 641.102 4.21822 0.484866 0
M  V30 6792 O 642.126 3.54579 0.339453 0
M  V30 6793 O 640.985 5.41042 0.770412 0
M  V30 6794 H 638.079 0.812973 0.151671 0
M  V30 6795 H 640.625 1.63572 -0.451918 0
M  V30 6796 H 639.397 3.84655 -0.718078 0
M  V30 6797 H 639.02 3.84899 0.996937 0
M  V30 6798 N 640.017 0.126909 1.57088 0
M  V30 6799 C 641.257 -0.53216 1.97351 0
M  V30 6800 C 641.621 -1.63342 1.00913 0
M  V30 6801 O 642.822 -2.35194 1.30144 0
M  V30 6802 C 641.093 -1.04385 3.41817 0
M  V30 6803 S 642.652 -1.71033 4.04095 0
M  V30 6804 H 639.47 -0.172724 0.689701 0
M  V30 6805 H 642.072 0.213865 1.94327 0
M  V30 6806 H 640.776 -0.231289 4.09748 0
M  V30 6807 H 640.307 -1.82496 3.48509 0
M  V30 6808 H 642.322 -2.99656 3.95501 0
M  V30 6809 N 641.495 -1.56914 -0.146875 0
M  V30 6810 C 642.725 -1.87243 -0.873126 0
M  V30 6811 C 643.133 -0.713127 -1.75246 0
M  V30 6812 O 642.476 0.326228 -1.8078 0
M  V30 6813 C 642.538 -3.12279 -1.78107 0
M  V30 6814 C 642.202 -4.44082 -1.07889 0
M  V30 6815 C 643.199 -5.18096 -0.432734 0
M  V30 6816 C 640.884 -4.90807 -1.06836 0
M  V30 6817 C 642.878 -6.37039 0.214569 0
M  V30 6818 C 640.565 -6.09674 -0.417243 0
M  V30 6819 C 641.563 -6.82636 0.223093 0
M  V30 6820 O 641.251 -7.99245 0.863884 0
M  V30 6821 H 640.983 -0.624896 -0.257839 0
M  V30 6822 H 643.537 -2.04892 -0.14434 0
M  V30 6823 H 641.767 -2.90639 -2.5508 0
M  V30 6824 H 643.456 -3.28854 -2.37929 0
M  V30 6825 H 644.222 -4.83066 -0.432677 0
M  V30 6826 H 640.101 -4.3394 -1.55618 0
M  V30 6827 H 643.645 -6.93927 0.714965 0
M  V30 6828 H 639.542 -6.44165 -0.414967 0
M  V30 6829 H 640.31 -8.14912 0.765564 0
M  V30 6830 N 642.974 0.416227 -1.52004 0
M  V30 6831 C 643.884 1.53147 -1.77717 0
M  V30 6832 C 644.9 1.609 -0.662368 0
M  V30 6833 O 646.076 1.77747 -0.946991 0
M  V30 6834 C 643.141 2.88948 -1.91598 0
M  V30 6835 C 642.202 2.9114 -3.15493 0
M  V30 6836 C 641.435 4.20464 -3.28703 0
M  V30 6837 O 641.658 5.13981 -2.47345 0
M  V30 6838 O 640.592 4.29368 -4.21813 0
M  V30 6839 H 644.418 1.34357 -2.72363 0
M  V30 6840 H 642.003 0.601373 -1.36762 0
M  V30 6841 H 643.885 3.69505 -2.02593 0
M  V30 6842 H 642.56 3.07821 -1.00141 0
M  V30 6843 H 641.467 2.09461 -3.09962 0
M  V30 6844 H 642.8 2.77216 -4.06709 0
M  V30 6845 N 644.452 1.42507 0.673017 0
M  V30 6846 C 645.362 1.4853 1.81593 0
M  V30 6847 C 646.378 0.373907 1.69935 0
M  V30 6848 O 647.554 0.625078 1.91454 0
M  V30 6849 C 644.619 1.387 3.17747 0
M  V30 6850 C 643.68 2.60346 3.41348 0
M  V30 6851 C 642.913 2.50975 4.71007 0
M  V30 6852 O 643.136 1.54659 5.49033 0
M  V30 6853 O 642.07 3.41138 4.95892 0
M  V30 6854 H 645.896 2.45001 1.79467 0
M  V30 6855 H 643.481 1.2429 0.82899 0
M  V30 6856 H 645.363 1.35586 3.98992 0
M  V30 6857 H 644.038 0.453555 3.20507 0
M  V30 6858 H 642.945 2.69034 2.59945 0
M  V30 6859 H 644.278 3.52595 3.43421 0
M  V30 6860 N 645.93 -0.909495 1.28709 0
M  V30 6861 C 647.179 -1.65365 1.15487 0
M  V30 6862 C 647.492 -1.93364 -0.294941 0
M  V30 6863 O 648.698 -2.65905 -0.548338 0
M  V30 6864 C 647.154 -2.97923 2.01916 0
M  V30 6865 C 646.762 -2.77556 3.51663 0
M  V30 6866 C 648.506 -3.75814 1.97393 0
M  V30 6867 C 646.413 -4.0578 4.30229 0
M  V30 6868 H 645.343 -0.620323 0.42862 0
M  V30 6869 H 647.994 -1.00894 1.53273 0
M  V30 6870 H 646.376 -3.63552 1.5699 0
M  V30 6871 H 647.55 -2.2058 4.04575 0
M  V30 6872 H 645.865 -2.13072 3.57756 0
M  V30 6873 H 648.462 -4.70866 2.53357 0
M  V30 6874 H 648.805 -4.05277 0.951643 0
M  V30 6875 H 649.338 -3.1701 2.40311 0
M  V30 6876 H 646.077 -3.81488 5.33055 0
M  V30 6877 H 645.597 -4.62351 3.82089 0
M  V30 6878 H 647.276 -4.74004 4.40374 0
M  V30 6879 N 647.408 -1.11026 -1.11852 0
M  V30 6880 C 648.655 -0.85646 -1.83497 0
M  V30 6881 C 648.983 0.617938 -1.84423 0
M  V30 6882 O 648.238 1.47194 -1.28966 0
M  V30 6883 C 648.537 -1.35777 -3.30604 0
M  V30 6884 C 648.203 -2.84465 -3.49843 0
M  V30 6885 C 646.865 -3.25068 -3.54802 0
M  V30 6886 C 649.217 -3.80251 -3.56453 0
M  V30 6887 C 646.545 -4.60194 -3.63921 0
M  V30 6888 C 648.897 -5.15188 -3.67102 0
M  V30 6889 C 647.561 -5.55356 -3.70319 0
M  V30 6890 H 646.831 -0.313401 -0.671462 0
M  V30 6891 H 649.478 -1.38792 -1.31943 0
M  V30 6892 H 647.783 -0.746455 -3.84624 0
M  V30 6893 H 649.48 -1.13779 -3.8452 0
M  V30 6894 H 646.07 -2.52054 -3.46651 0
M  V30 6895 H 650.254 -3.49986 -3.51886 0
M  V30 6896 H 645.51 -4.90728 -3.64686 0
M  V30 6897 H 649.684 -5.89248 -3.71159 0
M  V30 6898 H 647.311 -6.60054 -3.77138 0
M  V30 6899 N 648.886 1.2938 -0.899927 0
M  V30 6900 C 649.818 2.26737 -0.335139 0
M  V30 6901 C 650.831 1.54316 0.518681 0
M  V30 6902 O 652.02 1.75313 0.335803 0
M  V30 6903 C 649.12 3.34558 0.540774 0
M  V30 6904 C 648.293 4.36455 -0.287372 0
M  V30 6905 C 647.352 5.2361 0.52141 0
M  V30 6906 O 646.378 5.69167 -0.0611735 0
M  V30 6907 N 647.58 5.50985 1.82745 0
M  V30 6908 H 650.345 2.75838 -1.17191 0
M  V30 6909 H 647.906 1.42716 -0.764438 0
M  V30 6910 H 649.898 3.89794 1.08825 0
M  V30 6911 H 648.468 2.85272 1.27823 0
M  V30 6912 H 647.688 3.80875 -1.01626 0
M  V30 6913 H 648.976 5.01573 -0.854518 0
M  V30 6914 H 648.374 5.15781 2.32349 0
M  V30 6915 H 646.931 6.09036 2.32204 0
M  V30 6916 N 650.364 0.662433 1.43002 0
M  V30 6917 C 651.594 0.187343 2.05749 0
M  V30 6918 C 652.002 -1.15582 1.49791 0
M  V30 6919 O 651.345 -1.72651 0.627487 0
M  V30 6920 C 651.407 0.0316493 3.59486 0
M  V30 6921 C 651.071 1.30156 4.38073 0
M  V30 6922 C 652.068 2.23234 4.69535 0
M  V30 6923 C 649.753 1.54572 4.77926 0
M  V30 6924 C 651.747 3.39012 5.39768 0
M  V30 6925 C 649.434 2.70641 5.47902 0
M  V30 6926 C 650.432 3.62687 5.78746 0
M  V30 6927 O 650.12 4.76728 6.47291 0
M  V30 6928 H 649.852 0.0915214 0.669776 0
M  V30 6929 H 652.406 0.905982 1.8434 0
M  V30 6930 H 650.636 -0.742451 3.79506 0
M  V30 6931 H 652.325 -0.401977 4.03905 0
M  V30 6932 H 653.091 2.05616 4.39257 0
M  V30 6933 H 648.97 0.83804 4.53319 0
M  V30 6934 H 652.514 4.10877 5.63761 0
M  V30 6935 H 648.411 2.88189 5.77596 0
M  V30 6936 H 649.179 4.76113 6.65777 0
M  V30 6937 N 651.842 -1.52309 0.404946 0
M  V30 6938 C 653.088 -2.02065 -0.172455 0
M  V30 6939 C 653.421 -1.29022 -1.45145 0
M  V30 6940 O 652.696 -0.395284 -1.90441 0
M  V30 6941 C 652.979 -3.5759 -0.424433 0
M  V30 6942 C 652.832 -4.41287 0.870945 0
M  V30 6943 C 654.151 -4.23186 -1.20837 0
M  V30 6944 H 651.27 -0.734454 -0.0612035 0
M  V30 6945 H 653.912 -1.82236 0.53759 0
M  V30 6946 H 652.062 -3.74617 -1.02929 0
M  V30 6947 H 653.734 -4.3598 1.50729 0
M  V30 6948 H 651.977 -4.07669 1.48284 0
M  V30 6949 H 652.648 -5.48171 0.649083 0
M  V30 6950 H 655.124 -4.10232 -0.696338 0
M  V30 6951 H 654 -5.31953 -1.35343 0
M  V30 6952 H 654.261 -3.81862 -2.22786 0
M  V30 6953 N 653.32 -0.135238 -1.57019 0
M  V30 6954 C 654.56 0.521686 -1.9763 0
M  V30 6955 C 654.924 1.62804 -1.01778 0
M  V30 6956 O 656.125 2.345 -1.31389 0
M  V30 6957 C 654.396 1.0257 -3.42365 0
M  V30 6958 S 655.955 1.68888 -4.04997 0
M  V30 6959 H 652.773 0.169064 -0.690607 0
M  V30 6960 H 655.375 -0.224168 -1.94211 0
M  V30 6961 H 654.079 0.209556 -4.09865 0
M  V30 6962 H 653.61 1.80645 -3.49472 0
M  V30 6963 H 655.625 2.97554 -3.97084 0
M  V30 6964 N 654.798 1.5699 0.138552 0
M  V30 6965 C 655.748 1.9532 1.17619 0
M  V30 6966 C 656.732 0.825545 1.38107 0
M  V30 6967 O 657.924 1.08908 1.39528 0
M  V30 6968 C 655.053 2.34451 2.50774 0
M  V30 6969 C 654.139 3.53805 2.33844 0
M  V30 6970 N 654.53 4.70088 1.86685 0
M  V30 6971 C 652.828 3.59055 2.64567 0
M  V30 6972 C 653.529 5.52165 1.82998 0
M  V30 6973 N 652.505 4.94108 2.26624 0
M  V30 6974 H 656.307 2.82694 0.803809 0
M  V30 6975 H 653.821 1.5866 0.346519 0
M  V30 6976 H 655.818 2.60119 3.25797 0
M  V30 6977 H 654.478 1.48431 2.88788 0
M  V30 6978 H 655.489 4.93681 1.56523 0
M  V30 6979 H 652.166 2.83596 3.06398 0
M  V30 6980 H 653.556 6.55407 1.47957 0
M  V30 6981 N 656.276 -0.40816 1.52223 0
M  V30 6982 C 657.525 -1.15212 1.65557 0
M  V30 6983 C 657.838 -1.9163 0.392096 0
M  V30 6984 O 659.044 -2.68458 0.405256 0
M  V30 6985 C 657.5 -2.09691 2.92502 0
M  V30 6986 C 657.108 -1.38785 4.25961 0
M  V30 6987 C 658.852 -2.8434 3.152 0
M  V30 6988 C 656.759 -2.31919 5.44029 0
M  V30 6989 H 655.689 -0.433776 0.616729 0
M  V30 6990 H 658.34 -0.4165 1.78711 0
M  V30 6991 H 656.722 -2.8681 2.7305 0
M  V30 6992 H 657.896 -0.670248 4.55899 0
M  V30 6993 H 656.211 -0.761741 4.09373 0
M  V30 6994 H 658.808 -3.54166 4.00587 0
M  V30 6995 H 659.151 -3.47344 2.29473 0
M  V30 6996 H 659.684 -2.14321 3.35129 0
M  V30 6997 H 656.423 -1.7356 6.32105 0
M  V30 6998 H 655.943 -3.0165 5.18428 0
M  V30 6999 H 657.622 -2.92424 5.77146 0
M  V30 7000 N 657.755 -1.42862 -0.66545 0
M  V30 7001 C 658.685 -1.49867 -1.79059 0
M  V30 7002 C 659.666 -0.354394 -1.66367 0
M  V30 7003 O 660.851 -0.569969 -1.85647 0
M  V30 7004 C 657.981 -1.40943 -3.17415 0
M  V30 7005 C 656.935 -2.53495 -3.44854 0
M  V30 7006 C 656.261 -2.29626 -4.82883 0
M  V30 7007 C 657.561 -3.95781 -3.40815 0
M  V30 7008 H 659.255 -2.44037 -1.73453 0
M  V30 7009 H 656.801 -1.17456 -0.833071 0
M  V30 7010 H 658.754 -1.4445 -3.95869 0
M  V30 7011 H 657.478 -0.432716 -3.23721 0
M  V30 7012 H 656.137 -2.4932 -2.68766 0
M  V30 7013 H 655.785 -1.30226 -4.8585 0
M  V30 7014 H 655.485 -3.05065 -5.02204 0
M  V30 7015 H 657.009 -2.34897 -5.63609 0
M  V30 7016 H 658.423 -4.01508 -4.09224 0
M  V30 7017 H 656.82 -4.71148 -3.71672 0
M  V30 7018 H 657.89 -4.21786 -2.39216 0
M  V30 7019 N 659.233 0.902656 -1.29189 0
M  V30 7020 C 660.649 1.18296 -1.07137 0
M  V30 7021 C 660.849 2.00701 0.179223 0
M  V30 7022 O 659.905 2.3675 0.877812 0
M  V30 7023 C 661.218 1.90677 -2.32514 0
M  V30 7024 C 662.766 2.03515 -2.37804 0
M  V30 7025 C 663.241 2.79307 -3.62976 0
M  V30 7026 N 664.732 2.86862 -3.63681 0
M  V30 7027 C 665.467 3.46035 -4.57217 0
M  V30 7028 N 664.963 4.06399 -5.61081 0
M  V30 7029 N 666.756 3.43681 -4.44792 0
M  V30 7030 H 658.907 0.352765 -2.0945 0
M  V30 7031 H 661.17 0.21876 -0.922414 0
M  V30 7032 H 660.876 1.3756 -3.23682 0
M  V30 7033 H 660.75 2.91169 -2.39793 0
M  V30 7034 H 663.137 2.55809 -1.47125 0
M  V30 7035 H 663.218 1.02166 -2.34512 0
M  V30 7036 H 662.862 2.2769 -4.54004 0
M  V30 7037 H 662.792 3.80995 -3.63525 0
M  V30 7038 H 665.283 2.43987 -2.88581 0
M  V30 7039 H 665.596 4.49564 -6.2858 0
M  V30 7040 H 663.941 4.0487 -5.64894 0
M  V30 7041 H 667.132 2.9574 -3.62843 0
M  V30 7042 H 667.305 3.89503 -5.17872 0
M  V30 7043 N 660.711 1.11618 1.11262 0
M  V30 7044 C 661.658 0.7762 2.17356 0
M  V30 7045 C 662.628 -0.253152 1.6416 0
M  V30 7046 O 663.813 -0.129655 1.90359 0
M  V30 7047 C 660.953 0.227581 3.44349 0
M  V30 7048 C 660.066 1.31372 4.1154 0
M  V30 7049 C 659.201 0.72544 5.26223 0
M  V30 7050 C 658.24 1.7913 5.85302 0
M  V30 7051 N 657.377 1.22237 6.91377 0
M  V30 7052 H 662.217 1.68508 2.45783 0
M  V30 7053 H 659.754 0.841475 1.20655 0
M  V30 7054 H 661.712 -0.108483 4.17059 0
M  V30 7055 H 660.342 -0.644486 3.16301 0
M  V30 7056 H 659.394 1.7667 3.36885 0
M  V30 7057 H 660.706 2.12005 4.51504 0
M  V30 7058 H 659.86 0.339541 6.05749 0
M  V30 7059 H 658.599 -0.112188 4.87571 0
M  V30 7060 H 657.604 2.18648 5.04453 0
M  V30 7061 H 658.829 2.63199 6.26022 0
M  V30 7062 H 656.775 0.406423 6.5474 0
M  V30 7063 H 656.692 1.9654 7.30006 0
M  V30 7064 H 657.96 0.863426 7.74703 0
M  V30 7065 N 662.189 -1.289 0.906776 0
M  V30 7066 C 663.152 -2.25777 0.394656 0
M  V30 7067 C 664.152 -1.53621 -0.475119 0
M  V30 7068 O 665.342 -1.71949 -0.279165 0
M  V30 7069 C 662.474 -3.38113 -0.43499 0
M  V30 7070 H 663.667 -2.72592 1.25033 0
M  V30 7071 H 661.22 -1.40463 0.685547 0
M  V30 7072 H 661.955 -2.96648 -1.31036 0
M  V30 7073 H 661.74 -3.91647 0.188334 0
M  V30 7074 H 663.23 -4.10168 -0.784365 0
M  V30 7075 N 663.667 -0.670007 -1.42649 0
M  V30 7076 C 664.614 0.0112928 -2.30797 0
M  V30 7077 C 665.584 0.797627 -1.45695 0
M  V30 7078 O 666.769 0.770845 -1.74535 0
M  V30 7079 C 663.909 0.95998 -3.31479 0
M  V30 7080 C 663.022 0.167975 -4.31673 0
M  V30 7081 C 662.157 1.11198 -5.19431 0
M  V30 7082 C 661.196 0.311381 -6.11307 0
M  V30 7083 N 660.333 1.20784 -6.91633 0
M  V30 7084 H 665.173 -0.746231 -2.88505 0
M  V30 7085 H 662.71 -0.379739 -1.42114 0
M  V30 7086 H 664.668 1.52379 -3.88377 0
M  V30 7087 H 663.298 1.68419 -2.75382 0
M  V30 7088 H 662.35 -0.512385 -3.76933 0
M  V30 7089 H 663.662 -0.453814 -4.96731 0
M  V30 7090 H 662.816 1.74587 -5.81037 0
M  V30 7091 H 661.555 1.76766 -4.54538 0
M  V30 7092 H 660.56 -0.335758 -5.48774 0
M  V30 7093 H 661.785 -0.340135 -6.78248 0
M  V30 7094 H 659.731 1.85001 -6.29373 0
M  V30 7095 H 659.648 0.64102 -7.53277 0
M  V30 7096 H 660.916 1.82936 -7.5773 0
M  V30 7097 N 665.145 1.52092 -0.413018 0
M  V30 7098 C 666.561 1.59471 -0.0640836 0
M  V30 7099 C 666.761 1.42562 1.42402 0
M  V30 7100 O 665.817 1.25453 2.19129 0
M  V30 7101 C 667.13 2.95392 -0.562474 0
M  V30 7102 C 668.678 3.08637 -0.520788 0
M  V30 7103 C 669.153 4.47044 -0.995752 0
M  V30 7104 N 670.644 4.53296 -0.952732 0
M  V30 7105 C 671.379 5.58669 -1.29138 0
M  V30 7106 N 670.875 6.71576 -1.70168 0
M  V30 7107 N 672.668 5.48898 -1.2111 0
M  V30 7108 H 664.819 1.6133 -1.38153 0
M  V30 7109 H 667.082 0.75916 -0.567785 0
M  V30 7110 H 666.788 3.13059 -1.60271 0
M  V30 7111 H 666.662 3.77191 0.0257875 0
M  V30 7112 H 669.049 2.90652 0.510412 0
M  V30 7113 H 669.13 2.28735 -1.14515 0
M  V30 7114 H 668.774 4.65773 -2.0253 0
M  V30 7115 H 668.704 5.25448 -0.348162 0
M  V30 7116 H 671.195 3.72248 -0.651119 0
M  V30 7117 H 671.508 7.47973 -1.9431 0
M  V30 7118 H 669.853 6.72847 -1.74075 0
M  V30 7119 H 673.044 4.59573 -0.889396 0
M  V30 7120 H 673.217 6.30912 -1.47833 0
M  V30 7121 N 666.623 0.143563 1.56945 0
M  V30 7122 C 668.039 -0.212877 1.58174 0
M  V30 7123 C 668.239 -1.64926 1.15766 0
M  V30 7124 O 667.295 -2.37535 0.856361 0
M  V30 7125 C 668.608 0.0427573 3.0067 0
M  V30 7126 C 670.156 -0.0212221 3.12993 0
M  V30 7127 C 670.631 0.207036 4.57532 0
M  V30 7128 N 672.122 0.153845 4.62944 0
M  V30 7129 C 672.857 0.305018 5.72588 0
M  V30 7130 N 672.353 0.513722 6.90893 0
M  V30 7131 N 674.146 0.242862 5.61575 0
M  V30 7132 H 666.297 1.08148 1.82805 0
M  V30 7133 H 668.56 0.427831 0.84597 0
M  V30 7134 H 668.266 1.03672 3.36073 0
M  V30 7135 H 668.14 -0.678195 3.71053 0
M  V30 7136 H 670.527 -1.00574 2.77433 0
M  V30 7137 H 670.608 0.732004 2.45103 0
M  V30 7138 H 670.252 1.18863 4.93795 0
M  V30 7139 H 670.182 -0.566473 5.23544 0
M  V30 7140 H 672.673 -0.00294866 3.779 0
M  V30 7141 H 672.986 0.619273 7.70315 0
M  V30 7142 H 671.331 0.550001 6.9282 0
M  V30 7143 H 674.522 0.0806015 4.68031 0
M  V30 7144 H 674.695 0.364112 6.46976 0
M  V30 7145 N 668.101 -1.57061 -0.130224 0
M  V30 7146 C 669.064 -1.98593 -1.14426 0
M  V30 7147 C 670.064 -0.874584 -1.34936 0
M  V30 7148 O 671.254 -1.14086 -1.31643 0
M  V30 7149 C 668.386 -2.31639 -2.50112 0
M  V30 7150 H 669.579 -2.89374 -0.787561 0
M  V30 7151 H 667.132 -1.51756 -0.374146 0
M  V30 7152 H 667.867 -1.43703 -2.90723 0
M  V30 7153 H 667.652 -3.12684 -2.36583 0
M  V30 7154 H 669.142 -2.64551 -3.23114 0
M  V30 7155 N 669.579 0.400081 -1.52437 0
M  V30 7156 C 670.509 1.4947 -1.7939 0
M  V30 7157 C 671.49 1.57383 -0.645329 0
M  V30 7158 O 672.675 1.72511 -0.891826 0
M  V30 7159 C 669.805 2.87201 -1.95276 0
M  V30 7160 C 668.759 2.94134 -3.10917 0
M  V30 7161 C 668.085 4.34207 -3.1204 0
M  V30 7162 C 669.385 2.64791 -4.50203 0
M  V30 7163 H 671.079 1.27165 -2.71052 0
M  V30 7164 H 668.625 0.610312 -1.30427 0
M  V30 7165 H 670.578 3.63772 -2.12715 0
M  V30 7166 H 669.302 3.10819 -1.00294 0
M  V30 7167 H 667.961 2.20009 -2.93243 0
M  V30 7168 H 667.609 4.54848 -2.14761 0
M  V30 7169 H 667.309 4.39768 -3.89715 0
M  V30 7170 H 668.833 5.127 -3.31619 0
M  V30 7171 H 670.247 3.31083 -4.68035 0
M  V30 7172 H 668.644 2.81717 -5.29864 0
M  V30 7173 H 669.714 1.60184 -4.57678 0
M  V30 7174 N 671.057 1.43213 0.657864 0
M  V30 7175 C 672.305 1.44298 1.41501 0
M  V30 7176 C 672.626 0.0666478 1.94886 0
M  V30 7177 O 671.896 -0.897345 1.74139 0
M  V30 7178 H 670.476 0.531257 0.525143 0
M  V30 7179 H 673.138 1.78777 0.776195 0
M  V30 7180 H 672.234 2.1528 2.25966 0
M  V30 7181 N 672.536 -0.895792 1.29666 0
M  V30 7182 C 673.466 -2.01673 1.17688 0
M  V30 7183 C 674.447 -1.69955 0.0701317 0
M  V30 7184 O 675.632 -1.9258 0.250289 0
M  V30 7185 C 672.762 -3.36568 0.856681 0
M  V30 7186 C 671.716 -3.82509 1.92017 0
M  V30 7187 C 671.042 -5.14574 1.4532 0
M  V30 7188 C 672.342 -4.02409 3.32963 0
M  V30 7189 H 674.036 -2.11953 2.11463 0
M  V30 7190 H 671.582 -1.01839 1.01807 0
M  V30 7191 H 673.535 -4.14498 0.759577 0
M  V30 7192 H 672.259 -3.26391 -0.116763 0
M  V30 7193 H 670.918 -3.068 2.00673 0
M  V30 7194 H 670.566 -5.00815 0.468325 0
M  V30 7195 H 670.266 -5.46283 2.16447 0
M  V30 7196 H 671.79 -5.9504 1.36968 0
M  V30 7197 H 673.204 -4.70808 3.27127 0
M  V30 7198 H 671.601 -4.45478 4.02082 0
M  V30 7199 H 672.671 -3.06616 3.75652 0
M  V30 7200 N 674.014 -1.12206 -1.10668 0
M  V30 7201 C 675.244 -0.897332 -1.86095 0
M  V30 7202 C 675.652 0.556778 -1.80822 0
M  V30 7203 O 674.995 1.39658 -1.19337 0
M  V30 7204 C 675.057 -1.29095 -3.35522 0
M  V30 7205 C 674.721 -2.75586 -3.64556 0
M  V30 7206 C 675.718 -3.73785 -3.6136 0
M  V30 7207 C 673.403 -3.12432 -3.93309 0
M  V30 7208 C 675.397 -5.06845 -3.86506 0
M  V30 7209 C 673.084 -4.45675 -4.18111 0
M  V30 7210 C 674.082 -5.42691 -4.147 0
M  V30 7211 O 673.77 -6.73532 -4.38873 0
M  V30 7212 H 673.502 -0.320704 -0.595084 0
M  V30 7213 H 676.056 -1.49517 -1.40833 0
M  V30 7214 H 674.286 -0.636299 -3.81429 0
M  V30 7215 H 675.975 -1.04073 -3.92331 0
M  V30 7216 H 676.741 -3.46664 -3.39189 0
M  V30 7217 H 672.62 -2.3753 -3.95096 0
M  V30 7218 H 676.164 -5.82559 -3.83758 0
M  V30 7219 H 672.061 -4.72526 -4.39761 0
M  V30 7220 H 672.829 -6.79442 -4.564 0
M  V30 7221 N 675.492 1.28418 -0.913599 0
M  V30 7222 C 676.424 2.26368 -0.359169 0
M  V30 7223 C 677.437 1.54858 0.502285 0
M  V30 7224 O 678.626 1.75659 0.31719 0
M  V30 7225 C 675.726 3.35112 0.50526 0
M  V30 7226 C 674.899 4.36126 -0.333648 0
M  V30 7227 C 673.958 5.24134 0.465845 0
M  V30 7228 O 672.984 5.6907 -0.121538 0
M  V30 7229 N 674.186 5.52892 1.76891 0
M  V30 7230 H 676.951 2.74579 -1.2011 0
M  V30 7231 H 674.512 1.41898 -0.779532 0
M  V30 7232 H 676.504 3.90926 1.04684 0
M  V30 7233 H 675.074 2.86611 1.2479 0
M  V30 7234 H 674.294 3.79776 -1.0566 0
M  V30 7235 H 675.582 5.00638 -0.907669 0
M  V30 7236 H 674.98 5.18217 2.26865 0
M  V30 7237 H 673.537 6.11464 2.25732 0
M  V30 7238 N 676.97 0.677563 1.42291 0
M  V30 7239 C 677.933 0.0101085 2.29198 0
M  V30 7240 C 678.933 -0.726219 1.43467 0
M  V30 7241 O 680.123 -0.563807 1.64824 0
M  V30 7242 C 677.255 -0.996316 3.26016 0
M  V30 7243 H 678.448 0.775071 2.89711 0
M  V30 7244 H 676.001 0.440065 1.49977 0
M  V30 7245 H 676.736 -1.78967 2.70446 0
M  V30 7246 H 676.521 -0.471687 3.89253 0
M  V30 7247 H 678.011 -1.46167 3.91184 0
M  V30 7248 N 678.448 -1.51871 0.421078 0
M  V30 7249 C 679.378 -2.30231 -0.389363 0
M  V30 7250 C 680.359 -1.34946 -1.03555 0
M  V30 7251 O 681.544 -1.63859 -1.04229 0
M  V30 7252 C 678.674 -3.13247 -1.49979 0
M  V30 7253 C 677.628 -4.16677 -0.977966 0
M  V30 7254 C 676.954 -4.88112 -2.1829 0
M  V30 7255 C 678.254 -5.22295 -0.0236775 0
M  V30 7256 H 679.948 -2.98229 0.264524 0
M  V30 7257 H 677.494 -1.43424 0.12866 0
M  V30 7258 H 679.447 -3.66838 -2.07383 0
M  V30 7259 H 678.171 -2.4304 -2.18173 0
M  V30 7260 H 676.83 -3.64114 -0.426245 0
M  V30 7261 H 676.478 -4.14423 -2.85066 0
M  V30 7262 H 676.178 -5.58041 -1.84021 0
M  V30 7263 H 677.702 -5.44521 -2.76278 0
M  V30 7264 H 679.116 -5.71055 -0.506899 0
M  V30 7265 H 677.513 -5.99656 0.230782 0
M  V30 7266 H 678.583 -4.76131 0.917999 0
M  V30 7267 N 679.926 -0.151884 -1.56866 0
M  V30 7268 C 680.858 0.817008 -2.14144 0
M  V30 7269 C 681.871 1.20735 -1.0921 0
M  V30 7270 O 683.06 1.15058 -1.36469 0
M  V30 7271 C 680.16 2.10844 -2.65326 0
M  V30 7272 C 679.333 1.88471 -3.94712 0
M  V30 7273 C 678.392 3.01649 -4.31155 0
M  V30 7274 O 677.418 2.73127 -4.9939 0
M  V30 7275 N 678.62 4.28947 -3.91132 0
M  V30 7276 H 681.385 0.327448 -2.97906 0
M  V30 7277 H 678.946 0.0315313 -1.61869 0
M  V30 7278 H 680.938 2.85616 -2.86715 0
M  V30 7279 H 679.508 2.51049 -1.86262 0
M  V30 7280 H 678.728 0.977088 -3.81899 0
M  V30 7281 H 680.016 1.70866 -4.79252 0
M  V30 7282 H 679.414 4.54986 -3.36161 0
M  V30 7283 H 677.971 5.00484 -4.17563 0
M  V30 7284 N 681.404 1.57128 0.121893 0
M  V30 7285 C 682.629 1.89254 0.848385 0
M  V30 7286 C 683.054 0.743527 1.72781 0
M  V30 7287 O 682.412 -0.306056 1.78698 0
M  V30 7288 C 682.46 3.20113 1.66012 0
M  V30 7289 O 681.564 3.05815 2.76679 0
M  V30 7290 H 680.905 0.621103 0.234793 0
M  V30 7291 H 683.435 2.0433 0.10516 0
M  V30 7292 H 683.445 3.52761 2.04996 0
M  V30 7293 H 682.12 4.03336 1.01452 0
M  V30 7294 H 680.697 2.84627 2.40918 0
M  V30 7295 N 682.882 -0.391992 1.52647 0
M  V30 7296 C 684.298 -0.731848 1.41831 0
M  V30 7297 C 684.498 -1.9423 0.536361 0
M  V30 7298 O 683.554 -2.52499 0.00866571 0
M  V30 7299 C 684.867 -0.969743 2.84634 0
M  V30 7300 C 686.415 -1.0714 2.94092 0
M  V30 7301 C 686.89 -1.34195 4.37899 0
M  V30 7302 N 688.381 -1.41023 4.41211 0
M  V30 7303 C 689.116 -1.63616 5.49561 0
M  V30 7304 N 688.612 -1.83699 6.68002 0
M  V30 7305 N 690.405 -1.65771 5.371 0
M  V30 7306 H 682.556 0.404547 2.08512 0
M  V30 7307 H 684.819 0.11879 0.940528 0
M  V30 7308 H 684.525 -0.152465 3.51369 0
M  V30 7309 H 684.399 -1.88523 3.26709 0
M  V30 7310 H 686.786 -1.87925 2.27526 0
M  V30 7311 H 686.867 -0.133887 2.55449 0
M  V30 7312 H 686.511 -0.539207 5.0503 0
M  V30 7313 H 686.441 -2.29226 4.74092 0
M  V30 7314 H 688.932 -1.27223 3.55841 0
M  V30 7315 H 689.245 -2.00437 7.46354 0
M  V30 7316 H 687.59 -1.8093 6.71036 0
M  V30 7317 H 690.781 -1.4963 4.43541 0
M  V30 7318 H 690.954 -1.83038 6.21612 0
M  V30 7319 N 684.36 -1.4356 -0.65026 0
M  V30 7320 C 685.776 -1.27025 -0.966269 0
M  V30 7321 C 685.976 -0.192117 -2.00582 0
M  V30 7322 O 685.032 0.428459 -2.48838 0
M  V30 7323 C 686.345 -2.63556 -1.44772 0
M  V30 7324 C 687.893 -2.71111 -1.56421 0
M  V30 7325 C 688.368 -4.08067 -2.07956 0
M  V30 7326 N 689.859 -4.10146 -2.15254 0
M  V30 7327 C 690.594 -5.12952 -2.56258 0
M  V30 7328 N 690.09 -6.26129 -2.96537 0
M  V30 7329 N 691.883 -5.00306 -2.56224 0
M  V30 7330 H 684.034 -2.12367 0.0375758 0
M  V30 7331 H 686.297 -0.946894 -0.0457782 0
M  V30 7332 H 686.003 -3.43429 -0.758271 0
M  V30 7333 H 685.877 -2.89152 -2.42221 0
M  V30 7334 H 688.264 -1.91569 -2.24467 0
M  V30 7335 H 688.345 -2.49277 -0.573967 0
M  V30 7336 H 687.989 -4.88077 -1.40511 0
M  V30 7337 H 687.919 -4.27266 -3.07817 0
M  V30 7338 H 690.41 -3.28453 -1.86887 0
M  V30 7339 H 690.723 -7.00403 -3.26582 0
M  V30 7340 H 689.068 -6.29597 -2.94334 0
M  V30 7341 H 692.259 -4.10952 -2.24135 0
M  V30 7342 H 692.432 -5.80553 -2.87857 0
M  V30 7343 N 685.838 0.888903 -1.30139 0
M  V30 7344 C 686.77 1.99972 -1.11999 0
M  V30 7345 C 687.783 1.62673 -0.0643619 0
M  V30 7346 O 688.972 1.75788 -0.309983 0
M  V30 7347 C 686.072 3.31904 -0.685059 0
M  V30 7348 C 685.245 3.97665 -1.82158 0
M  V30 7349 C 684.304 5.07894 -1.37585 0
M  V30 7350 O 683.33 5.2974 -2.08241 0
M  V30 7351 N 684.532 5.7995 -0.252697 0
M  V30 7352 H 687.297 2.16085 -2.07671 0
M  V30 7353 H 684.858 1.06175 -1.22223 0
M  V30 7354 H 686.85 4.03005 -0.369964 0
M  V30 7355 H 685.42 3.12084 0.179507 0
M  V30 7356 H 684.64 3.19787 -2.305 0
M  V30 7357 H 685.928 4.3834 -2.58332 0
M  V30 7358 H 685.326 5.647 0.336141 0
M  V30 7359 H 683.883 6.518 0.00296813 0
M  V30 7360 N 687.317 1.12792 1.10072 0
M  V30 7361 C 688.28 0.802264 2.14701 0
M  V30 7362 C 689.28 -0.18515 1.59731 0
M  V30 7363 O 690.47 0.041109 1.74151 0
M  V30 7364 C 687.602 0.19285 3.40354 0
M  V30 7365 H 688.795 1.72932 2.45019 0
M  V30 7366 H 686.348 0.931662 1.25498 0
M  V30 7367 H 687.083 -0.743748 3.15656 0
M  V30 7368 H 686.868 0.903827 3.81541 0
M  V30 7369 H 688.358 -0.0183704 4.17596 0
M  V30 7370 N 688.795 -1.27931 0.920396 0
M  V30 7371 C 689.725 -2.29487 0.431024 0
M  V30 7372 C 690.706 -1.62435 -0.504861 0
M  V30 7373 O 691.891 -1.89797 -0.411176 0
M  V30 7374 C 689.021 -3.45788 -0.323709 0
M  V30 7375 C 687.975 -4.24784 0.523658 0
M  V30 7376 C 687.301 -5.33488 -0.359809 0
M  V30 7377 C 688.601 -4.90874 1.78437 0
M  V30 7378 H 690.295 -2.70671 1.27975 0
M  V30 7379 H 687.841 -1.30121 0.616813 0
M  V30 7380 H 689.794 -4.15927 -0.676952 0
M  V30 7381 H 688.518 -3.03502 -1.2064 0
M  V30 7382 H 687.177 -3.56382 0.85951 0
M  V30 7383 H 686.825 -4.87445 -1.24124 0
M  V30 7384 H 686.525 -5.87247 0.203605 0
M  V30 7385 H 688.049 -6.06472 -0.708787 0
M  V30 7386 H 689.463 -5.53339 1.49963 0
M  V30 7387 H 687.86 -5.54659 2.29071 0
M  V30 7388 H 688.93 -4.14988 2.50824 0
M  V30 7389 N 690.273 -0.685099 -1.4193 0
M  V30 7390 C 691.521 -0.21124 -2.00993 0
M  V30 7391 C 691.842 1.18985 -1.54491 0
M  V30 7392 O 691.112 1.8009 -0.771 0
M  V30 7393 H 689.692 -0.0751059 -0.743215 0
M  V30 7394 H 692.354 -0.883915 -1.73704 0
M  V30 7395 H 691.45 -0.220513 -3.1132 0
M  V30 7396 N 691.751 1.51645 -0.429126 0
M  V30 7397 C 693.162 1.86665 0.0359003 0
M  V30 7398 C 693.513 1.34677 1.42676 0
M  V30 7399 O 692.638 0.694195 2.04963 0
M  V30 7400 C 693.233 3.38724 0.0719221 0
M  V30 7401 C 691.792 3.7331 0.481336 0
M  V30 7402 C 690.939 2.75313 -0.331329 0
M  V30 7403 H 693.89 1.44987 -0.645333 0
M  V30 7404 H 693.911 3.7011 0.883118 0
M  V30 7405 H 693.423 3.76532 -0.940495 0
M  V30 7406 H 691.524 3.41088 1.49966 0
M  V30 7407 H 691.637 4.78631 0.211837 0
M  V30 7408 H 690.001 2.53839 0.209204 0
M  V30 7409 H 690.784 3.15963 -1.34247 0
M  V30 7410 N 693.229 0.160201 1.56784 0
M  V30 7411 C 694.139 -0.787167 2.21 0
M  V30 7412 C 695.155 -1.26167 1.19825 0
M  V30 7413 O 696.331 -1.31611 1.52448 0
M  V30 7414 C 693.396 -2.00364 2.8294 0
M  V30 7415 C 692.457 -1.5771 3.99282 0
M  V30 7416 C 691.69 -2.73558 4.58259 0
M  V30 7417 O 691.913 -3.90129 4.16119 0
M  V30 7418 O 690.847 -2.48271 5.48311 0
M  V30 7419 H 694.673 -0.270462 3.02493 0
M  V30 7420 H 692.258 -0.0674666 1.49248 0
M  V30 7421 H 694.14 -2.71529 3.22257 0
M  V30 7422 H 692.815 -2.50961 2.04451 0
M  V30 7423 H 691.722 -0.835274 3.64656 0
M  V30 7424 H 693.055 -1.11815 4.79331 0
M  V30 7425 N 694.707 -1.5719 -0.113559 0
M  V30 7426 C 695.67 -1.99796 -1.12314 0
M  V30 7427 C 696.67 -0.888847 -1.34001 0
M  V30 7428 O 697.86 -1.15476 -1.30426 0
M  V30 7429 C 694.992 -2.34279 -2.47641 0
M  V30 7430 H 696.185 -2.90193 -0.756825 0
M  V30 7431 H 693.738 -1.52144 -0.358029 0
M  V30 7432 H 694.473 -1.46778 -2.89183 0
M  V30 7433 H 694.258 -3.15175 -2.33253 0
M  V30 7434 H 695.748 -2.67963 -3.2029 0
M  V30 7435 N 696.185 0.383891 -1.52853 0
M  V30 7436 C 697.596 0.961591 -1.60032 0
M  V30 7437 C 697.947 1.90819 -0.456333 0
M  V30 7438 O 697.072 2.12288 0.419873 0
M  V30 7439 C 697.667 1.75078 -2.90057 0
M  V30 7440 C 696.226 2.2781 -2.99632 0
M  V30 7441 C 695.373 1.08512 -2.55187 0
M  V30 7442 H 698.324 0.163269 -1.57858 0
M  V30 7443 H 698.345 2.61046 -2.7683 0
M  V30 7444 H 697.857 1.06157 -3.73299 0
M  V30 7445 H 695.958 3.00028 -2.20939 0
M  V30 7446 H 696.071 2.56947 -4.0437 0
M  V30 7447 H 694.435 1.44667 -2.09627 0
M  V30 7448 H 695.218 0.41118 -3.40829 0
M  V30 7449 N 697.663 1.43903 0.642637 0
M  V30 7450 C 698.626 1.49538 1.73698 0
M  V30 7451 C 699.626 0.378776 1.56275 0
M  V30 7452 O 700.816 0.64095 1.6198 0
M  V30 7453 C 697.948 1.35821 3.12675 0
M  V30 7454 H 699.141 2.47008 1.70079 0
M  V30 7455 H 696.694 1.30824 0.85526 0
M  V30 7456 H 697.429 0.393994 3.21898 0
M  V30 7457 H 697.214 2.16776 3.26727 0
M  V30 7458 H 698.704 1.4272 3.92455 0
M  V30 7459 N 699.141 -0.881989 1.30609 0
M  V30 7460 C 700.552 -1.44956 1.17664 0
M  V30 7461 C 700.903 -1.94945 -0.221531 0
M  V30 7462 O 700.028 -1.85257 -1.11844 0
M  V30 7463 C 700.623 -2.63474 2.12995 0
M  V30 7464 C 699.182 -3.16312 2.04019 0
M  V30 7465 C 698.329 -1.89008 2.02907 0
M  V30 7466 H 701.28 -0.691645 1.42835 0
M  V30 7467 H 701.301 -3.39783 1.71253 0
M  V30 7468 H 700.813 -2.2706 3.14746 0
M  V30 7469 H 698.914 -3.57376 1.0542 0
M  V30 7470 H 699.027 -3.79409 2.9255 0
M  V30 7471 H 697.391 -2.07465 1.47751 0
M  V30 7472 H 698.174 -1.54848 3.06394 0
M  V30 7473 N 700.619 -1.13374 -1.09472 0
M  V30 7474 C 701.582 -0.813639 -2.14272 0
M  V30 7475 C 702.582 0.176677 -1.59826 0
M  V30 7476 O 703.772 -0.0503441 -1.74127 0
M  V30 7477 C 700.904 -0.210897 -3.40247 0
M  V30 7478 H 702.097 -1.74229 -2.44099 0
M  V30 7479 H 699.65 -0.938304 -1.25002 0
M  V30 7480 H 700.385 0.726998 -3.16046 0
M  V30 7481 H 700.17 -0.924048 -3.81056 0
M  V30 7482 H 701.66 -0.00377603 -4.176 0
M  V30 7483 N 702.098 1.27442 -0.927168 0
M  V30 7484 C 703.045 2.26863 -0.424459 0
M  V30 7485 C 704.015 1.5813 0.508346 0
M  V30 7486 O 705.2 1.85946 0.42762 0
M  V30 7487 C 702.34 3.43639 0.31718 0
M  V30 7488 C 701.453 4.27087 -0.649675 0
M  V30 7489 C 700.588 5.31082 0.111753 0
M  V30 7490 C 699.627 6.062 -0.847843 0
M  V30 7491 N 698.764 7.01999 -0.119074 0
M  V30 7492 H 703.604 2.69239 -1.27728 0
M  V30 7493 H 701.141 1.32394 -0.641106 0
M  V30 7494 H 703.099 4.10155 0.763486 0
M  V30 7495 H 701.729 3.02217 1.13424 0
M  V30 7496 H 700.781 3.60491 -1.21451 0
M  V30 7497 H 702.093 4.79242 -1.38307 0
M  V30 7498 H 701.247 6.03544 0.618 0
M  V30 7499 H 699.986 4.7973 0.878114 0
M  V30 7500 H 698.991 5.32577 -1.36534 0
M  V30 7501 H 700.216 6.59642 -1.61398 0
M  V30 7502 H 698.162 6.52977 0.629051 0
M  V30 7503 H 698.079 7.5184 -0.792046 0
M  V30 7504 H 699.347 7.78638 0.366537 0
M  V30 7505 N 703.576 0.692616 1.41565 0
M  V30 7506 C 704.987 0.297478 1.84315 0
M  V30 7507 C 705.338 -1.16379 1.57957 0
M  V30 7508 O 704.463 -1.89303 1.0485 0
M  V30 7509 C 705.058 0.533136 3.34579 0
M  V30 7510 C 703.617 0.191944 3.7591 0
M  V30 7511 C 702.764 0.816873 2.64995 0
M  V30 7512 H 705.715 0.893488 1.31158 0
M  V30 7513 H 705.736 -0.209105 3.79925 0
M  V30 7514 H 705.248 1.59674 3.53731 0
M  V30 7515 H 703.349 -0.867512 3.6236 0
M  V30 7516 H 703.462 0.644902 4.7474 0
M  V30 7517 H 701.826 0.246715 2.53502 0
M  V30 7518 H 702.609 1.88429 2.86966 0
M  V30 7519 N 705.054 -1.51416 0.437162 0
M  V30 7520 C 706.302 -2.01687 -0.129108 0
M  V30 7521 C 706.623 -1.32329 -1.43227 0
M  V30 7522 O 705.893 -0.457796 -1.90476 0
M  V30 7523 H 704.473 -0.745277 -0.0507023 0
M  V30 7524 H 707.135 -1.86075 0.579828 0
M  V30 7525 H 706.231 -3.10605 -0.305141 0
M  V30 7526 N 706.532 -0.168513 -1.56696 0
M  V30 7527 C 707.943 0.348694 -1.83415 0
M  V30 7528 C 708.294 1.63257 -1.0882 0
M  V30 7529 O 707.419 2.13707 -0.340333 0
M  V30 7530 C 708.014 0.639423 -3.32711 0
M  V30 7531 C 706.573 1.10108 -3.59935 0
M  V30 7532 C 705.72 0.135464 -2.76969 0
M  V30 7533 H 708.671 -0.392829 -1.53761 0
M  V30 7534 H 708.692 1.49179 -3.50037 0
M  V30 7535 H 708.204 -0.295173 -3.86976 0
M  V30 7536 H 706.305 2.05088 -3.11079 0
M  V30 7537 H 706.418 1.01218 -4.68286 0
M  V30 7538 H 704.782 0.632286 -2.46727 0
M  V30 7539 H 705.565 -0.793104 -3.34013 0
M  V30 7540 N 708.01 1.57248 0.105221 0
M  V30 7541 C 708.96 1.9777 1.1345 0
M  V30 7542 C 709.944 0.854654 1.36325 0
M  V30 7543 O 711.136 1.11844 1.37186 0
M  V30 7544 C 708.265 2.39717 2.45745 0
M  V30 7545 C 707.351 3.58686 2.26286 0
M  V30 7546 N 707.742 4.73942 1.76671 0
M  V30 7547 C 706.04 3.64586 2.56891 0
M  V30 7548 C 706.741 5.55923 1.71245 0
M  V30 7549 N 705.717 4.98803 2.16093 0
M  V30 7550 H 709.519 2.84336 0.743664 0
M  V30 7551 H 707.033 1.59359 0.312787 0
M  V30 7552 H 709.03 2.66971 3.20206 0
M  V30 7553 H 707.69 1.54523 2.85574 0
M  V30 7554 H 708.701 4.9689 1.46016 0
M  V30 7555 H 705.378 2.90031 3.00314 0
M  V30 7556 H 706.768 6.58398 1.34022 0
M  V30 7557 N 709.488 -0.375779 1.53054 0
M  V30 7558 C 710.451 -1.44254 1.7811 0
M  V30 7559 C 711.451 -1.47018 0.651328 0
M  V30 7560 O 712.641 -1.47957 0.919472 0
M  V30 7561 C 709.773 -2.8345 1.89391 0
M  V30 7562 H 710.966 -1.23316 2.73374 0
M  V30 7563 H 708.519 -0.608312 1.43977 0
M  V30 7564 H 709.254 -3.09716 0.961589 0
M  V30 7565 H 709.039 -2.82844 2.71555 0
M  V30 7566 H 710.529 -3.60722 2.10404 0
M  V30 7567 N 710.966 -1.44241 -0.634997 0
M  V30 7568 C 711.913 -1.5081 -1.74714 0
M  V30 7569 C 712.883 -0.356147 -1.62237 0
M  V30 7570 O 714.068 -0.565848 -1.82216 0
M  V30 7571 C 711.208 -1.45458 -3.12947 0
M  V30 7572 C 710.321 -2.70998 -3.36428 0
M  V30 7573 C 709.456 -2.57507 -4.64611 0
M  V30 7574 C 708.495 -3.78229 -4.81258 0
M  V30 7575 N 707.632 -3.63438 -6.00714 0
M  V30 7576 H 712.472 -2.45832 -1.68436 0
M  V30 7577 H 710.009 -1.2201 -0.821706 0
M  V30 7578 H 711.967 -1.40347 -3.92885 0
M  V30 7579 H 710.597 -0.540058 -3.1825 0
M  V30 7580 H 709.649 -2.86312 -2.50458 0
M  V30 7581 H 710.961 -3.60619 -3.44609 0
M  V30 7582 H 710.115 -2.50207 -5.52703 0
M  V30 7583 H 708.854 -1.65441 -4.58782 0
M  V30 7584 H 707.859 -3.85918 -3.91596 0
M  V30 7585 H 709.084 -4.71327 -4.88904 0
M  V30 7586 H 707.03 -2.7412 -5.95982 0
M  V30 7587 H 706.947 -4.46672 -6.09934 0
M  V30 7588 H 708.215 -3.60022 -6.91378 0
M  V30 7589 N 712.444 0.87505 -1.31075 0
M  V30 7590 C 713.354 2.01441 -1.20244 0
M  V30 7591 C 714.37 1.73584 -0.120227 0
M  V30 7592 O 715.546 1.98559 -0.337063 0
M  V30 7593 C 712.611 3.34675 -0.905199 0
M  V30 7594 C 711.672 3.75889 -2.0738 0
M  V30 7595 C 710.905 5.02764 -1.79064 0
M  V30 7596 O 711.128 5.65795 -0.723318 0
M  V30 7597 O 710.062 5.40623 -2.64594 0
M  V30 7598 H 713.888 2.13509 -2.1598 0
M  V30 7599 H 711.473 1.00257 -1.10765 0
M  V30 7600 H 713.355 4.1458 -0.755057 0
M  V30 7601 H 712.03 3.23692 0.0221695 0
M  V30 7602 H 710.937 2.96645 -2.27931 0
M  V30 7603 H 712.27 3.91489 -2.98324 0
M  V30 7604 N 713.922 1.13953 1.08869 0
M  V30 7605 C 715.333 0.916649 1.62648 0
M  V30 7606 C 715.684 -0.545589 1.88462 0
M  V30 7607 O 714.809 -1.41351 1.63856 0
M  V30 7608 C 715.404 1.65751 2.95486 0
M  V30 7609 C 713.963 1.48034 3.46068 0
M  V30 7610 C 713.11 1.68305 2.20383 0
M  V30 7611 H 716.061 1.292 0.921572 0
M  V30 7612 H 716.082 1.11794 3.63707 0
M  V30 7613 H 715.594 2.72171 2.76667 0
M  V30 7614 H 713.695 0.439416 3.7 0
M  V30 7615 H 713.808 2.24719 4.23129 0
M  V30 7616 H 712.172 1.10833 2.29321 0
M  V30 7617 H 712.955 2.76057 2.04077 0
M  V30 7618 N 715.4 -1.26948 0.933913 0
M  V30 7619 C 716.816 -1.46419 0.635103 0
M  V30 7620 C 717.016 -1.84336 -0.813785 0
M  V30 7621 O 716.072 -1.96061 -1.59111 0
M  V30 7622 C 717.385 -2.55206 1.5903 0
M  V30 7623 C 718.933 -2.69062 1.5992 0
M  V30 7624 C 719.408 -3.81013 2.54152 0
M  V30 7625 N 720.899 -3.88395 2.52395 0
M  V30 7626 C 721.634 -4.74454 3.21996 0
M  V30 7627 N 721.13 -5.64954 4.00997 0
M  V30 7628 N 722.923 -4.68237 3.10983 0
M  V30 7629 H 715.074 -1.00622 1.87053 0
M  V30 7630 H 717.337 -0.503189 0.803433 0
M  V30 7631 H 717.043 -2.34153 2.62422 0
M  V30 7632 H 716.917 -3.52719 1.33677 0
M  V30 7633 H 719.304 -2.89492 0.572569 0
M  V30 7634 H 719.385 -1.72016 1.89325 0
M  V30 7635 H 719.029 -3.61336 3.5693 0
M  V30 7636 H 718.959 -4.77499 2.22041 0
M  V30 7637 H 721.45 -3.23687 1.95025 0
M  V30 7638 H 721.763 -6.27496 4.51074 0
M  V30 7639 H 720.108 -5.6473 4.05099 0
M  V30 7640 H 723.299 -3.96535 2.48753 0
M  V30 7641 H 723.472 -5.35087 3.65494 0
M  V30 7642 N 716.879 -0.700114 -1.41195 0
M  V30 7643 C 717.829 -0.0144098 -2.27995 0
M  V30 7644 C 718.813 0.748249 -1.42443 0
M  V30 7645 O 720.005 0.622995 -1.65674 0
M  V30 7646 C 717.134 0.917938 -3.308 0
M  V30 7647 C 716.22 0.151286 -4.2383 0
M  V30 7648 N 716.611 -0.85732 -4.98481 0
M  V30 7649 C 714.909 0.386108 -4.44326 0
M  V30 7650 C 715.61 -1.31663 -5.66604 0
M  V30 7651 N 714.586 -0.641689 -5.39799 0
M  V30 7652 H 718.388 -0.787662 -2.83149 0
M  V30 7653 H 715.902 -0.531344 -1.53462 0
M  V30 7654 H 717.899 1.42437 -3.91813 0
M  V30 7655 H 716.559 1.69074 -2.77208 0
M  V30 7656 H 717.57 -1.2377 -5.02893 0
M  V30 7657 H 714.247 1.13644 -4.01735 0
M  V30 7658 H 715.637 -2.15384 -6.36443 0
M  V30 7659 N 718.357 1.51182 -0.445186 0
M  V30 7660 C 719.587 2.06269 0.116922 0
M  V30 7661 C 719.995 1.31188 1.36332 0
M  V30 7662 O 719.338 0.367067 1.79995 0
M  V30 7663 C 719.4 3.56051 0.496757 0
M  V30 7664 C 719.064 4.52441 -0.64394 0
M  V30 7665 C 720.061 4.97233 -1.5184 0
M  V30 7666 C 717.746 4.95447 -0.826905 0
M  V30 7667 C 719.74 5.83712 -2.56046 0
M  V30 7668 C 717.427 5.81714 -1.87222 0
M  V30 7669 C 718.425 6.25745 -2.73738 0
M  V30 7670 O 718.113 7.10298 -3.76474 0
M  V30 7671 H 717.845 0.675954 0.00785733 0
M  V30 7672 H 720.399 1.95648 -0.625371 0
M  V30 7673 H 718.629 3.64483 1.29187 0
M  V30 7674 H 720.318 3.93618 0.990928 0
M  V30 7675 H 721.084 4.64696 -1.38862 0
M  V30 7676 H 716.963 4.60712 -0.163052 0
M  V30 7677 H 720.507 6.18 -3.23607 0
M  V30 7678 H 716.404 6.13664 -2.00218 0
M  V30 7679 H 717.172 7.28493 -3.73149 0
M  V30 7680 N 719.835 0.176821 1.56605 0
M  V30 7681 C 720.785 -0.763718 2.14829 0
M  V30 7682 C 721.769 -1.18903 1.08401 0
M  V30 7683 O 722.961 -1.15048 1.3451 0
M  V30 7684 C 720.09 -1.99069 2.7969 0
M  V30 7685 C 719.176 -1.58711 3.93283 0
M  V30 7686 N 719.567 -0.893423 4.97847 0
M  V30 7687 C 717.865 -1.87774 4.04545 0
M  V30 7688 C 718.566 -0.693866 5.77547 0
M  V30 7689 N 717.542 -1.23699 5.29339 0
M  V30 7690 H 721.344 -0.224811 2.93039 0
M  V30 7691 H 718.858 -0.0236563 1.62383 0
M  V30 7692 H 720.855 -2.67478 3.19783 0
M  V30 7693 H 719.515 -2.53449 2.02962 0
M  V30 7694 H 720.526 -0.550868 5.14962 0
M  V30 7695 H 717.203 -2.43793 3.38927 0
M  V30 7696 H 718.593 -0.144899 6.71744 0
M  V30 7697 N 721.313 -1.57302 -0.09688 0
M  V30 7698 C 722.561 -1.8563 -0.799117 0
M  V30 7699 C 722.882 -0.765263 -1.79356 0
M  V30 7700 O 722.152 0.208657 -1.94786 0
M  V30 7701 H 720.732 -0.684937 -0.298111 0
M  V30 7702 H 723.394 -1.9474 -0.0789341 0
M  V30 7703 H 722.49 -2.82305 -1.3308 0
M  V30 7704 N 722.791 0.367657 -1.53252 0
M  V30 7705 C 723.738 1.45028 -1.79543 0
M  V30 7706 C 724.708 1.53288 -0.63969 0
M  V30 7707 O 725.893 1.69209 -0.881653 0
M  V30 7708 C 723.033 2.82 -1.98923 0
M  V30 7709 C 722.146 2.82722 -3.26638 0
M  V30 7710 C 721.281 4.11257 -3.36216 0
M  V30 7711 C 720.32 4.06113 -4.57972 0
M  V30 7712 N 719.457 5.26293 -4.64715 0
M  V30 7713 H 724.297 1.21908 -2.71923 0
M  V30 7714 H 721.834 0.591011 -1.34705 0
M  V30 7715 H 723.792 3.61568 -2.08146 0
M  V30 7716 H 722.422 3.03523 -1.09881 0
M  V30 7717 H 721.474 1.95399 -3.26379 0
M  V30 7718 H 722.786 2.74794 -4.16281 0
M  V30 7719 H 721.94 4.99239 -3.44739 0
M  V30 7720 H 720.679 4.21935 -2.44586 0
M  V30 7721 H 719.684 3.16517 -4.49552 0
M  V30 7722 H 720.909 3.97039 -5.50942 0
M  V30 7723 H 718.855 5.37561 -3.75985 0
M  V30 7724 H 718.772 5.20526 -5.4826 0
M  V30 7725 H 720.04 6.16113 -4.77519 0
M  V30 7726 N 724.269 1.44576 0.627338 0
M  V30 7727 C 725.497 1.51048 1.41394 0
M  V30 7728 C 725.912 0.136568 1.88305 0
M  V30 7729 O 725.269 -0.858251 1.6106 0
M  V30 7730 C 725.32 2.47837 2.63172 0
M  V30 7731 O 725.041 3.79887 2.18215 0
M  V30 7732 C 726.542 2.63811 3.56257 0
M  V30 7733 H 723.762 0.512171 0.4335 0
M  V30 7734 H 726.306 1.89576 0.766878 0
M  V30 7735 H 724.461 2.12433 3.23961 0
M  V30 7736 H 724.875 4.32177 2.97192 0
M  V30 7737 H 726.349 3.35554 4.38301 0
M  V30 7738 H 726.826 1.69169 4.05313 0
M  V30 7739 H 727.432 3.0013 3.01333 0
M  V30 7740 N 725.747 -0.868086 1.31537 0
M  V30 7741 C 726.694 -1.97548 1.19346 0
M  V30 7742 C 727.664 -1.65913 0.0787922 0
M  V30 7743 O 728.849 -1.89129 0.251985 0
M  V30 7744 C 725.989 -3.32922 0.908692 0
M  V30 7745 C 725.102 -3.77141 2.10687 0
M  V30 7746 C 724.237 -5.01241 1.75873 0
M  V30 7747 C 723.276 -5.37914 2.92088 0
M  V30 7748 N 722.413 -6.53192 2.57457 0
M  V30 7749 H 727.253 -2.07307 2.14074 0
M  V30 7750 H 724.79 -1.01483 1.06487 0
M  V30 7751 H 726.748 -4.10867 0.724138 0
M  V30 7752 H 725.378 -3.228 -0.0017611 0
M  V30 7753 H 724.43 -2.94961 2.40213 0
M  V30 7754 H 725.742 -4.00248 2.97663 0
M  V30 7755 H 724.896 -5.86858 1.53891 0
M  V30 7756 H 723.635 -4.80041 0.86091 0
M  V30 7757 H 722.64 -4.50814 3.14717 0
M  V30 7758 H 723.865 -5.61077 3.82582 0
M  V30 7759 H 721.811 -6.33536 1.702 0
M  V30 7760 H 721.728 -6.76252 3.37963 0
M  V30 7761 H 722.996 -7.41997 2.38873 0
M  V30 7762 N 727.225 -1.14528 -1.08264 0
M  V30 7763 C 728.473 -0.912599 -1.80322 0
M  V30 7764 C 728.794 0.562256 -1.86718 0
M  V30 7765 O 728.064 1.40869 -1.36135 0
M  V30 7766 H 726.644 -0.334645 -0.667849 0
M  V30 7767 H 729.306 -1.44415 -1.30883 0
M  V30 7768 H 728.402 -1.31384 -2.83098 0
M  V30 7769 N 728.703 1.26451 -0.940633 0
M  V30 7770 C 729.635 2.25556 -0.407104 0
M  V30 7771 C 730.648 1.55888 0.469324 0
M  V30 7772 O 731.837 1.76292 0.279858 0
M  V30 7773 C 728.937 3.36109 0.434064 0
M  V30 7774 C 728.11 4.3532 -0.426082 0
M  V30 7775 C 727.169 5.25004 0.354563 0
M  V30 7776 O 726.195 5.68684 -0.242219 0
M  V30 7777 N 727.397 5.5652 1.65123 0
M  V30 7778 H 730.162 2.7197 -1.25907 0
M  V30 7779 H 727.723 1.40212 -0.809456 0
M  V30 7780 H 729.715 3.93059 0.963684 0
M  V30 7781 H 728.285 2.89194 1.18683 0
M  V30 7782 H 727.505 3.77449 -1.13692 0
M  V30 7783 H 728.793 4.986 -1.01366 0
M  V30 7784 H 728.191 5.22912 2.15822 0
M  V30 7785 H 726.748 6.16115 2.12711 0
M  V30 7786 N 730.181 0.707592 1.40822 0
M  V30 7787 C 731.429 0.243189 2.00632 0
M  V30 7788 C 731.75 -1.16512 1.56365 0
M  V30 7789 O 731.02 -1.78841 0.799553 0
M  V30 7790 H 729.6 0.0869203 0.741926 0
M  V30 7791 H 732.262 0.911438 1.72275 0
M  V30 7792 H 731.358 0.270014 3.1093 0
M  V30 7793 N 731.66 -1.50943 0.453197 0
M  V30 7794 C 732.937 -1.94872 -0.168633 0
M  V30 7795 C 733.317 -1.39272 -1.5864 0
M  V30 7796 O 732.665 -0.586272 -2.20851 0
M  V30 7797 C 732.875 -3.48757 -0.130217 0
M  V30 7798 C 734.223 -4.23331 -0.327975 0
M  V30 7799 O 735.247 -3.55594 -0.207619 0
M  V30 7800 O 734.106 -5.43529 -0.569077 0
M  V30 7801 H 731.2 -0.818042 -0.121394 0
M  V30 7802 H 733.746 -1.61782 0.512316 0
M  V30 7803 H 732.518 -3.81725 0.860346 0
M  V30 7804 H 732.141 -3.88333 -0.853397 0
M  V30 7805 N 733.138 -0.185124 -1.56509 0
M  V30 7806 C 734.048 0.751908 -2.22224 0
M  V30 7807 C 735.064 1.24244 -1.21817 0
M  V30 7808 O 736.24 1.29169 -1.54523 0
M  V30 7809 C 733.305 1.95837 -2.86092 0
M  V30 7810 C 732.366 1.51337 -4.01741 0
M  V30 7811 C 731.599 2.66233 -4.62554 0
M  V30 7812 O 731.822 3.8346 -4.22273 0
M  V30 7813 O 730.756 2.39517 -5.52191 0
M  V30 7814 H 734.582 0.222304 -3.02885 0
M  V30 7815 H 732.167 0.0437141 -1.49336 0
M  V30 7816 H 734.049 2.66368 -3.26536 0
M  V30 7817 H 732.724 2.47677 -2.08417 0
M  V30 7818 H 731.631 0.777155 -3.65939 0
M  V30 7819 H 732.964 1.04175 -4.81049 0
M  V30 7820 N 734.616 1.57351 0.0885366 0
M  V30 7821 C 735.864 1.86051 0.789262 0
M  V30 7822 C 736.185 0.774763 1.78948 0
M  V30 7823 O 735.455 -0.198324 1.94894 0
M  V30 7824 H 734.035 0.686508 0.294475 0
M  V30 7825 H 736.697 1.94779 0.0686055 0
M  V30 7826 H 735.793 2.83007 1.31581 0
M  V30 7827 N 736.094 -0.359525 1.53444 0
M  V30 7828 C 737.51 -0.701599 1.43352 0
M  V30 7829 C 737.71 -1.93049 0.577439 0
M  V30 7830 O 736.766 -2.52423 0.0622224 0
M  V30 7831 C 738.079 -0.90915 2.86627 0
M  V30 7832 C 739.627 -1.00878 2.96298 0
M  V30 7833 C 740.102 -1.24876 4.40647 0
M  V30 7834 N 741.593 -1.31632 4.44103 0
M  V30 7835 C 742.328 -1.51922 5.52908 0
M  V30 7836 N 741.824 -1.69489 6.71748 0
M  V30 7837 N 743.617 -1.54341 5.40496 0
M  V30 7838 H 735.768 0.448685 2.07607 0
M  V30 7839 H 738.031 0.138713 0.937797 0
M  V30 7840 H 737.737 -0.0778997 3.51614 0
M  V30 7841 H 737.611 -1.81551 3.30634 0
M  V30 7842 H 739.998 -1.83057 2.31461 0
M  V30 7843 H 740.079 -0.0796721 2.55676 0
M  V30 7844 H 739.723 -0.431961 5.0606 0
M  V30 7845 H 739.653 -2.19118 4.78848 0
M  V30 7846 H 742.144 -1.19646 3.5846 0
M  V30 7847 H 742.457 -1.84561 7.50438 0
M  V30 7848 H 740.802 -1.66655 6.74723 0
M  V30 7849 H 743.993 -1.40188 4.46615 0
M  V30 7850 H 744.166 -1.69812 6.25354 0
M  V30 7851 N 737.572 -1.44907 -0.619662 0
M  V30 7852 C 738.522 -1.49085 -1.72504 0
M  V30 7853 C 739.506 -0.355372 -1.56926 0
M  V30 7854 O 740.698 -0.601441 -1.66468 0
M  V30 7855 C 737.827 -1.44889 -3.11227 0
M  V30 7856 C 736.913 -2.63593 -3.32234 0
M  V30 7857 N 737.304 -3.88775 -3.23555 0
M  V30 7858 C 735.602 -2.59033 -3.63067 0
M  V30 7859 C 736.303 -4.67932 -3.45564 0
M  V30 7860 N 735.279 -3.9919 -3.68983 0
M  V30 7861 H 739.081 -2.43706 -1.6427 0
M  V30 7862 H 736.595 -1.4003 -0.82252 0
M  V30 7863 H 738.592 -1.45966 -3.90512 0
M  V30 7864 H 737.252 -0.513143 -3.2062 0
M  V30 7865 H 738.263 -4.20574 -3.02221 0
M  V30 7866 H 734.94 -1.7431 -3.79371 0
M  V30 7867 H 736.33 -5.76952 -3.44349 0
M  V30 7868 N 739.05 0.861098 -1.31996 0
M  V30 7869 C 739.98 1.98482 -1.22993 0
M  V30 7870 C 740.961 1.6971 -0.115168 0
M  V30 7871 O 742.146 1.91849 -0.30126 0
M  V30 7872 C 739.276 3.34179 -0.945615 0
M  V30 7873 C 738.23 3.77284 -2.02091 0
M  V30 7874 C 737.556 5.1054 -1.58912 0
M  V30 7875 C 738.856 3.93439 -3.43515 0
M  V30 7876 H 740.55 2.06271 -2.17008 0
M  V30 7877 H 738.096 0.991043 -1.04472 0
M  V30 7878 H 740.049 4.12338 -0.869206 0
M  V30 7879 H 738.773 3.26586 0.0301849 0
M  V30 7880 H 737.432 3.01371 -2.08737 0
M  V30 7881 H 737.08 4.99397 -0.600942 0
M  V30 7882 H 736.78 5.40352 -2.30854 0
M  V30 7883 H 738.304 5.91199 -1.52696 0
M  V30 7884 H 739.718 4.6197 -3.39495 0
M  V30 7885 H 738.115 4.34661 -4.13751 0
M  V30 7886 H 739.185 2.96548 -3.8365 0
M  V30 7887 N 740.528 1.15101 1.07655 0
M  V30 7888 C 741.776 0.922149 1.79836 0
M  V30 7889 C 742.097 -0.552346 1.87014 0
M  V30 7890 O 741.367 -1.40145 1.3688 0
M  V30 7891 H 739.947 0.338182 0.666064 0
M  V30 7892 H 742.609 1.45107 1.30115 0
M  V30 7893 H 741.705 1.32883 2.82398 0
M  V30 7894 N 742.006 -1.2595 0.947325 0
M  V30 7895 C 743.231 -1.98083 0.614633 0
M  V30 7896 C 743.656 -1.70013 -0.804815 0
M  V30 7897 O 743.014 -0.95175 -1.54309 0
M  V30 7898 C 743.062 -3.4993 0.870706 0
M  V30 7899 O 742.166 -4.12364 -0.0541451 0
M  V30 7900 H 741.507 -0.621232 0.234451 0
M  V30 7901 H 744.037 -1.60259 1.27193 0
M  V30 7902 H 744.047 -4.00198 0.794051 0
M  V30 7903 H 742.722 -3.69691 1.90529 0
M  V30 7904 H 741.299 -3.72826 0.0740917 0
M  V30 7905 N 743.484 -0.715051 -1.40445 0
M  V30 7906 C 744.9 -0.388555 -1.54798 0
M  V30 7907 C 745.1 1.10271 -1.68649 0
M  V30 7908 O 744.156 1.88875 -1.67578 0
M  V30 7909 C 745.469 -1.15414 -2.77669 0
M  V30 7910 C 747.017 -1.14039 -2.91486 0
M  V30 7911 C 747.492 -1.88812 -4.1727 0
M  V30 7912 N 748.983 -1.85878 -4.24268 0
M  V30 7913 C 749.718 -2.40558 -5.20499 0
M  V30 7914 N 749.214 -3.03791 -6.22642 0
M  V30 7915 N 751.007 -2.30703 -5.12574 0
M  V30 7916 H 743.158 -1.68201 -1.297 0
M  V30 7917 H 745.421 -0.710915 -0.627139 0
M  V30 7918 H 745.127 -2.20853 -2.7371 0
M  V30 7919 H 745.001 -0.745412 -3.69761 0
M  V30 7920 H 747.388 -0.0941996 -2.9495 0
M  V30 7921 H 747.469 -1.58834 -2.00513 0
M  V30 7922 H 747.113 -2.93422 -4.14568 0
M  V30 7923 H 747.043 -1.41438 -5.0725 0
M  V30 7924 H 749.534 -1.39794 -3.51093 0
M  V30 7925 H 749.847 -3.43032 -6.92495 0
M  V30 7926 H 748.192 -3.07875 -6.23087 0
M  V30 7927 H 751.383 -1.80961 -4.31707 0
M  V30 7928 H 751.556 -2.73618 -5.87398 0
M  V30 7929 N 744.962 1.50701 -0.461195 0
M  V30 7930 C 745.912 2.25195 0.35653 0
M  V30 7931 C 746.896 1.2838 0.96992 0
M  V30 7932 O 748.088 1.53338 0.884108 0
M  V30 7933 C 745.217 3.11471 1.44364 0
M  V30 7934 C 744.303 4.15729 0.83847 0
M  V30 7935 N 744.694 5.05788 -0.0353198 0
M  V30 7936 C 742.992 4.32133 1.1035 0
M  V30 7937 C 743.693 5.80472 -0.37774 0
M  V30 7938 N 742.669 5.43049 0.24463 0
M  V30 7939 H 746.471 2.92188 -0.316746 0
M  V30 7940 H 743.985 1.60059 -0.274725 0
M  V30 7941 H 745.982 3.63436 2.04255 0
M  V30 7942 H 744.642 2.46025 2.11901 0
M  V30 7943 H 745.653 5.16326 -0.403465 0
M  V30 7944 H 742.33 3.77908 1.77458 0
M  V30 7945 H 743.72 6.62996 -1.09024 0
M  V30 7946 N 746.441 0.193421 1.56409 0
M  V30 7947 C 747.681 -0.447977 1.9943 0
M  V30 7948 C 748.045 -1.58915 1.07751 0
M  V30 7949 O 749.246 -2.29462 1.40002 0
M  V30 7950 C 747.517 -0.89793 3.45936 0
M  V30 7951 S 749.076 -1.5374 4.10986 0
M  V30 7952 H 745.894 -0.143316 0.696406 0
M  V30 7953 H 748.496 0.296093 1.93245 0
M  V30 7954 H 747.2 -0.0572927 4.1036 0
M  V30 7955 H 746.731 -1.67551 3.55936 0
M  V30 7956 H 748.746 -2.82612 4.07854 0
M  V30 7957 N 747.919 -1.57396 -0.0801906 0
M  V30 7958 C 748.851 -1.9982 -1.12271 0
M  V30 7959 C 749.864 -0.902902 -1.35468 0
M  V30 7960 O 751.053 -1.18088 -1.33856 0
M  V30 7961 C 748.153 -2.31476 -2.47532 0
M  V30 7962 C 747.326 -3.62745 -2.44407 0
M  V30 7963 C 746.385 -3.82168 -3.6171 0
M  V30 7964 O 745.411 -4.53852 -3.43522 0
M  V30 7965 N 746.613 -3.2388 -4.81749 0
M  V30 7966 H 749.378 -2.89864 -0.761501 0
M  V30 7967 H 746.939 -1.5965 -0.268965 0
M  V30 7968 H 748.931 -2.4165 -3.24634 0
M  V30 7969 H 747.501 -1.47364 -2.75686 0
M  V30 7970 H 746.721 -3.63403 -1.52747 0
M  V30 7971 H 748.009 -4.48954 -2.39412 0
M  V30 7972 H 747.407 -2.6568 -4.9943 0
M  V30 7973 H 745.964 -3.39515 -5.56392 0
M  V30 7974 N 749.397 0.351382 -1.53633 0
M  V30 7975 C 750.625 1.11275 -1.74429 0
M  V30 7976 C 751.04 1.82602 -0.479798 0
M  V30 7977 O 750.397 1.74074 0.548125 0
M  V30 7978 C 750.448 2.13223 -2.91921 0
M  V30 7979 O 750.169 1.44798 -4.13479 0
M  V30 7980 C 751.67 3.01797 -3.24706 0
M  V30 7981 H 748.89 0.332153 -0.583023 0
M  V30 7982 H 751.434 0.405974 -2.0043 0
M  V30 7983 H 749.589 2.79477 -2.68274 0
M  V30 7984 H 750.003 2.12839 -4.79374 0
M  V30 7985 H 751.477 3.69282 -4.10286 0
M  V30 7986 H 751.954 3.67387 -2.40673 0
M  V30 7987 H 752.56 2.41141 -3.5033 0
M  V30 7988 N 750.875 1.45233 0.611969 0
M  V30 7989 C 751.805 1.5641 1.73373 0
M  V30 7990 C 752.786 0.415896 1.64937 0
M  V30 7991 O 753.971 0.638478 1.83404 0
M  V30 7992 C 751.101 1.52627 3.11965 0
M  V30 7993 C 750.055 2.66119 3.35208 0
M  V30 7994 C 749.381 2.4739 4.74028 0
M  V30 7995 C 750.681 4.08157 3.25891 0
M  V30 7996 H 752.375 2.50307 1.64277 0
M  V30 7997 H 749.921 1.20467 0.788904 0
M  V30 7998 H 751.874 1.59043 3.90235 0
M  V30 7999 H 750.598 0.552564 3.21892 0
M  V30 8000 H 749.257 2.59123 2.59327 0
M  V30 8001 H 748.905 1.48168 4.80682 0
M  V30 8002 H 748.605 3.23494 4.90536 0
M  V30 8003 H 750.129 2.55653 5.54503 0
M  V30 8004 H 751.543 4.1642 3.9404 0
M  V30 8005 H 749.94 4.84617 3.5393 0
M  V30 8006 H 751.01 4.30374 2.23397 0
M  V30 8007 N 752.353 -0.854086 1.3245 0
M  V30 8008 C 753.303 -1.9508 1.18016 0
M  V30 8009 C 754.287 -1.60665 0.0869417 0
M  V30 8010 O 755.479 -1.74201 0.313505 0
M  V30 8011 C 752.608 -3.3113 0.905961 0
M  V30 8012 C 751.694 -3.71763 2.04091 0
M  V30 8013 N 752.085 -3.84218 3.28953 0
M  V30 8014 C 750.383 -4.01393 1.94421 0
M  V30 8015 C 751.084 -4.192 4.03294 0
M  V30 8016 N 750.06 -4.30749 3.31596 0
M  V30 8017 H 753.862 -2.02843 2.12678 0
M  V30 8018 H 751.376 -1.04588 1.24238 0
M  V30 8019 H 753.373 -4.09471 0.783508 0
M  V30 8020 H 752.033 -3.24684 -0.0322715 0
M  V30 8021 H 753.044 -3.68524 3.63883 0
M  V30 8022 H 749.721 -4.03246 1.08162 0
M  V30 8023 H 751.111 -4.36301 5.1097 0
M  V30 8024 N 753.831 -1.1567 -1.07043 0
M  V30 8025 C 755.079 -0.931673 -1.79344 0
M  V30 8026 C 755.4 0.542421 -1.87304 0
M  V30 8027 O 754.67 1.39418 -1.37621 0
M  V30 8028 H 753.25 -0.34171 -0.664262 0
M  V30 8029 H 755.912 -1.45795 -1.29344 0
M  V30 8030 H 755.008 -1.34379 -2.81689 0
M  V30 8031 N 755.309 1.25446 -0.953992 0
M  V30 8032 C 756.72 1.75047 -0.649255 0
M  V30 8033 C 757.071 1.77527 0.835385 0
M  V30 8034 O 756.196 1.39569 1.65377 0
M  V30 8035 C 756.791 3.17889 -1.17183 0
M  V30 8036 C 755.35 3.65052 -0.917267 0
M  V30 8037 C 754.497 2.44124 -1.31525 0
M  V30 8038 H 757.448 1.11342 -1.13087 0
M  V30 8039 H 757.469 3.76768 -0.531616 0
M  V30 8040 H 756.981 3.16052 -2.25239 0
M  V30 8041 H 755.082 3.72305 0.148354 0
M  V30 8042 H 755.195 4.53222 -1.55328 0
M  V30 8043 H 753.559 2.43906 -0.733624 0
M  V30 8044 H 754.342 2.44979 -2.405 0
M  V30 8045 N 756.787 0.722489 1.40064 0
M  V30 8046 C 757.75 0.0830209 2.2905 0
M  V30 8047 C 758.75 -0.680208 1.45705 0
M  V30 8048 O 759.94 -0.511084 1.66534 0
M  V30 8049 C 757.072 -0.892092 3.29021 0
M  V30 8050 H 758.265 0.866848 2.87099 0
M  V30 8051 H 755.818 0.487556 1.48501 0
M  V30 8052 H 756.553 -1.70273 2.76003 0
M  V30 8053 H 756.338 -0.34761 3.90556 0
M  V30 8054 H 757.828 -1.33648 3.95636 0
M  V30 8055 N 758.265 -1.50454 0.469181 0
M  V30 8056 C 759.49 -2.0722 -0.0864892 0
M  V30 8057 C 759.915 -1.33098 -1.32916 0
M  V30 8058 O 759.273 -0.378084 -1.77314 0
M  V30 8059 C 759.321 -3.58845 -0.355384 0
M  V30 8060 O 758.425 -3.86583 -1.43622 0
M  V30 8061 H 757.766 -0.663889 0.0121414 0
M  V30 8062 H 760.296 -1.93674 0.659674 0
M  V30 8063 H 760.306 -4.03617 -0.596447 0
M  V30 8064 H 758.981 -4.12211 0.552698 0
M  V30 8065 H 757.558 -3.5365 -1.18262 0
M  V30 8066 N 759.743 -0.201713 -1.56304 0
M  V30 8067 C 761.154 0.309711 -1.84113 0
M  V30 8068 C 761.505 1.60912 -1.12258 0
M  V30 8069 O 760.63 2.12937 -0.385587 0
M  V30 8070 C 761.225 0.568706 -3.33993 0
M  V30 8071 C 759.784 1.02448 -3.6219 0
M  V30 8072 C 758.931 0.0766842 -2.77194 0
M  V30 8073 H 761.882 -0.425356 -1.52893 0
M  V30 8074 H 761.903 1.41721 -3.53122 0
M  V30 8075 H 761.415 -0.37719 -3.86263 0
M  V30 8076 H 759.516 1.98443 -3.15359 0
M  V30 8077 H 759.629 0.912619 -4.70328 0
M  V30 8078 H 757.993 0.579809 -2.48013 0
M  V30 8079 H 758.776 -0.863774 -3.32256 0
M  V30 8080 N 761.222 1.57436 0.0718424 0
M  V30 8081 C 762.47 1.86878 0.769484 0
M  V30 8082 C 762.791 0.7937 1.78116 0
M  V30 8083 O 762.061 -0.177642 1.95093 0
M  V30 8084 H 760.641 0.689593 0.287177 0
M  V30 8085 H 763.303 1.94841 0.0479427 0
M  V30 8086 H 762.399 2.84387 1.28572 0
M  V30 8087 N 762.7 -0.34323 1.53817 0
M  V30 8088 C 763.648 -1.44176 1.82527 0
M  V30 8089 C 764.642 -1.54452 0.695772 0
M  V30 8090 O 765.848 -1.57072 0.879114 0
M  V30 8091 H 762.223 -0.480729 0.578277 0
M  V30 8092 H 764.194 -1.17176 2.74431 0
M  V30 8093 C 762.943 -2.80695 2.05197 0
M  V30 8094 H 762.266 -2.73554 2.91561 0
M  V30 8095 H 763.706 -3.56679 2.29251 0
M  V30 8096 C 762.165 -3.26322 0.837589 0
M  V30 8097 O 762.695 -4.01683 0.0371631 0
M  V30 8098 N 760.901 -2.83128 0.654724 0
M  V30 8099 H 760.448 -2.21965 1.30725 0
M  V30 8100 H 760.406 -3.14011 -0.156345 0
M  V30 8101 N 764.178 -1.45556 -0.604258 0
M  V30 8102 C 765.455 -1.40221 -1.36373 0
M  V30 8103 C 765.835 -0.0745195 -2.10968 0
M  V30 8104 O 765.183 0.943594 -2.08107 0
M  V30 8105 C 765.393 -2.61807 -2.30777 0
M  V30 8106 C 766.741 -3.07037 -2.93281 0
M  V30 8107 O 767.765 -2.62203 -2.41097 0
M  V30 8108 O 766.624 -3.8485 -3.88011 0
M  V30 8109 H 763.718 -0.556602 -0.611656 0
M  V30 8110 H 766.264 -1.57689 -0.627069 0
M  V30 8111 H 765.036 -3.50017 -1.74939 0
M  V30 8112 H 764.659 -2.46688 -3.11818 0
M  V30 8113 N 765.656 0.84705 -1.32902 0
M  V30 8114 C 766.606 1.94451 -1.19049 0
M  V30 8115 C 767.59 1.60617 -0.095461 0
M  V30 8116 O 768.782 1.74033 -0.322739 0
M  V30 8117 C 765.911 3.30645 -0.923509 0
M  V30 8118 C 764.997 3.70675 -2.0606 0
M  V30 8119 N 765.388 3.82468 -3.30986 0
M  V30 8120 C 763.686 4.00357 -1.96547 0
M  V30 8121 C 764.387 4.17056 -4.05511 0
M  V30 8122 N 763.363 4.28985 -3.33876 0
M  V30 8123 H 767.165 2.01713 -2.1375 0
M  V30 8124 H 764.679 1.03928 -1.24791 0
M  V30 8125 H 766.676 4.0905 -0.805212 0
M  V30 8126 H 765.336 3.24697 0.0150523 0
M  V30 8127 H 766.347 3.66589 -3.65832 0
M  V30 8128 H 763.024 4.02666 -1.10299 0
M  V30 8129 H 764.414 4.33585 -5.13277 0
M  V30 8130 N 767.134 1.16236 1.06428 0
M  V30 8131 C 768.359 0.967688 1.83441 0
M  V30 8132 C 768.784 -0.479167 1.81894 0
M  V30 8133 O 768.142 -1.34224 1.21875 0
M  V30 8134 C 768.19 1.49806 3.2801 0
M  V30 8135 O 767.294 0.703481 4.06356 0
M  V30 8136 H 766.635 0.344468 0.56766 0
M  V30 8137 H 769.165 1.54442 1.34197 0
M  V30 8138 H 769.175 1.51495 3.78831 0
M  V30 8139 H 767.85 2.55133 3.2845 0
M  V30 8140 H 766.427 0.756986 3.65136 0
M  V30 8141 N 768.612 -1.24939 0.960631 0
M  V30 8142 C 769.86 -1.92437 0.617441 0
M  V30 8143 C 770.181 -1.75543 -0.849101 0
M  V30 8144 O 769.451 -1.12269 -1.60538 0
M  V30 8145 H 768.031 -0.712192 0.225371 0
M  V30 8146 H 770.693 -1.5198 1.22017 0
M  V30 8147 H 769.789 -3.00247 0.851933 0
M  V30 8148 N 770.09 -0.729906 -1.39679 0
M  V30 8149 C 771.506 -0.404951 -1.54377 0
M  V30 8150 C 771.706 1.08476 -1.6981 0
M  V30 8151 O 770.762 1.87087 -1.69572 0
M  V30 8152 C 772.075 -1.18352 -2.76429 0
M  V30 8153 C 773.623 -1.17124 -2.9026 0
M  V30 8154 C 774.098 -1.93227 -4.15244 0
M  V30 8155 N 775.589 -1.90368 -4.22273 0
M  V30 8156 C 776.324 -2.46065 -5.17918 0
M  V30 8157 N 775.82 -3.10378 -6.19385 0
M  V30 8158 N 777.613 -2.36127 -5.10099 0
M  V30 8159 H 769.764 -1.69567 -1.27909 0
M  V30 8160 H 772.027 -0.717527 -0.619564 0
M  V30 8161 H 771.733 -2.23743 -2.71352 0
M  V30 8162 H 771.607 -0.784589 -3.6895 0
M  V30 8163 H 773.994 -0.125478 -2.94833 0
M  V30 8164 H 774.075 -1.60951 -1.98817 0
M  V30 8165 H 773.719 -2.97802 -4.11432 0
M  V30 8166 H 773.649 -1.4681 -5.05722 0
M  V30 8167 H 776.14 -1.4351 -3.4959 0
M  V30 8168 H 776.453 -3.50358 -6.88817 0
M  V30 8169 H 774.798 -3.14467 -6.19787 0
M  V30 8170 H 777.989 -1.85529 -4.29763 0
M  V30 8171 H 778.162 -2.79833 -5.84463 0
M  V30 8172 N 771.568 1.50203 -0.477153 0
M  V30 8173 C 772.478 2.32421 0.319027 0
M  V30 8174 C 773.494 1.43075 0.990233 0
M  V30 8175 O 774.67 1.76123 0.976873 0
M  V30 8176 C 771.735 3.17909 1.38328 0
M  V30 8177 C 770.796 4.23082 0.728036 0
M  V30 8178 C 770.029 5.04484 1.74158 0
M  V30 8179 O 770.252 4.8705 2.96881 0
M  V30 8180 O 769.186 5.8747 1.31006 0
M  V30 8181 H 773.012 3.01638 -0.353281 0
M  V30 8182 H 770.597 1.47478 -0.238891 0
M  V30 8183 H 772.479 3.70937 1.9996 0
M  V30 8184 H 771.154 2.51413 2.03895 0
M  V30 8185 H 770.061 3.7403 0.07261 0
M  V30 8186 H 771.394 4.92065 0.115216 0
M  V30 8187 N 773.046 0.209999 1.56195 0
M  V30 8188 C 773.976 -0.699746 2.22769 0
M  V30 8189 C 774.957 -1.20993 1.1956 0
M  V30 8190 O 776.142 -1.25605 1.48112 0
M  V30 8191 C 773.272 -1.91302 2.89863 0
M  V30 8192 C 772.226 -1.53715 3.99444 0
M  V30 8193 C 771.552 -2.82826 4.53777 0
M  V30 8194 C 772.852 -0.735836 5.17091 0
M  V30 8195 H 774.546 -0.144716 2.9905 0
M  V30 8196 H 772.092 -0.0681645 1.43839 0
M  V30 8197 H 774.045 -2.5548 3.35124 0
M  V30 8198 H 772.769 -2.49283 2.11011 0
M  V30 8199 H 771.428 -0.918892 3.54897 0
M  V30 8200 H 771.076 -3.38927 3.71669 0
M  V30 8201 H 770.776 -2.58415 5.27727 0
M  V30 8202 H 772.3 -3.47966 5.01749 0
M  V30 8203 H 773.714 -1.28105 5.58804 0
M  V30 8204 H 772.111 -0.589272 5.972 0
M  V30 8205 H 773.181 0.260004 4.84202 0
M  V30 8206 N 774.524 -1.57472 -0.0634922 0
M  V30 8207 C 775.764 -1.89491 -0.766312 0
M  V30 8208 C 776.128 -0.80475 -1.74321 0
M  V30 8209 O 777.329 -1.00825 -2.49174 0
M  V30 8210 C 775.6 -3.26731 -1.44851 0
M  V30 8211 S 777.159 -3.80516 -2.18525 0
M  V30 8212 H 773.977 -0.663832 -0.254653 0
M  V30 8213 H 776.579 -1.95488 -0.0220867 0
M  V30 8214 H 775.283 -4.03967 -0.723824 0
M  V30 8215 H 774.814 -3.23953 -2.232 0
M  V30 8216 H 776.829 -3.5647 -3.45172 0
M  V30 8217 N 776.003 0.335068 -1.53997 0
M  V30 8218 C 777.414 0.910191 -1.6301 0
M  V30 8219 C 777.765 1.89271 -0.516809 0
M  V30 8220 O 776.89 2.13516 0.352123 0
M  V30 8221 C 777.485 1.65761 -2.9548 0
M  V30 8222 C 776.044 2.18163 -3.06728 0
M  V30 8223 C 775.191 1.00338 -2.5851 0
M  V30 8224 H 778.142 0.112965 -1.58297 0
M  V30 8225 H 778.163 2.52107 -2.84995 0
M  V30 8226 H 777.675 0.94227 -3.76488 0
M  V30 8227 H 775.776 2.92847 -2.30372 0
M  V30 8228 H 775.889 2.43952 -4.1234 0
M  V30 8229 H 774.253 1.37925 -2.14124 0
M  V30 8230 H 775.036 0.30254 -3.41964 0
M  V30 8231 N 777.481 1.45874 0.596531 0
M  V30 8232 C 778.413 1.51408 1.7207 0
M  V30 8233 C 779.426 0.403738 1.57714 0
M  V30 8234 O 780.615 0.671384 1.65393 0
M  V30 8235 C 777.715 1.3652 3.10186 0
M  V30 8236 C 776.888 2.61428 3.50677 0
M  V30 8237 C 775.947 2.40937 4.67799 0
M  V30 8238 O 774.973 3.14602 4.74357 0
M  V30 8239 N 776.175 1.4621 5.61785 0
M  V30 8240 H 778.94 2.48333 1.67782 0
M  V30 8241 H 776.501 1.41755 0.782129 0
M  V30 8242 H 778.493 1.20606 3.86311 0
M  V30 8243 H 777.063 0.478302 3.08919 0
M  V30 8244 H 776.283 2.92381 2.644 0
M  V30 8245 H 777.571 3.44432 3.74491 0
M  V30 8246 H 776.969 0.854382 5.59211 0
M  V30 8247 H 775.526 1.36264 6.37397 0
M  V30 8248 N 778.959 -0.83999 1.33349 0
M  V30 8249 C 779.909 -1.93817 1.20079 0
M  V30 8250 C 780.893 -1.60564 0.103978 0
M  V30 8251 O 782.085 -1.73859 0.331964 0
M  V30 8252 C 779.214 -3.30151 0.941031 0
M  V30 8253 C 778.3 -3.69577 2.08023 0
M  V30 8254 N 778.691 -3.80707 3.3301 0
M  V30 8255 C 776.989 -3.99309 1.98667 0
M  V30 8256 C 777.69 -4.14899 4.07717 0
M  V30 8257 N 776.666 -4.27208 3.36146 0
M  V30 8258 H 780.468 -2.00576 2.14817 0
M  V30 8259 H 777.982 -1.03264 1.2534 0
M  V30 8260 H 779.979 -4.08617 0.826894 0
M  V30 8261 H 778.639 -3.247 0.00216738 0
M  V30 8262 H 779.65 -3.64644 3.67771 0
M  V30 8263 H 776.327 -4.02076 1.12433 0
M  V30 8264 H 777.717 -4.30857 5.15569 0
M  V30 8265 N 780.437 -1.16799 -1.0581 0
M  V30 8266 C 781.662 -0.977402 -1.82925 0
M  V30 8267 C 782.087 0.469514 -1.82146 0
M  V30 8268 O 781.445 1.33576 -1.22585 0
M  V30 8269 C 781.493 -1.51543 -3.27211 0
M  V30 8270 O 780.597 -0.725021 -4.05977 0
M  V30 8271 H 779.938 -0.347474 -0.565825 0
M  V30 8272 H 782.468 -1.55151 -1.33376 0
M  V30 8273 H 782.478 -1.53502 -3.78023 0
M  V30 8274 H 781.153 -2.56872 -3.27093 0
M  V30 8275 H 779.73 -0.77634 -3.64729 0
M  V30 8276 N 781.915 1.24427 -0.967243 0
M  V30 8277 C 783.326 1.74349 -0.667785 0
M  V30 8278 C 783.677 1.78403 0.816509 0
M  V30 8279 O 782.802 1.41315 1.63887 0
M  V30 8280 C 783.397 3.16628 -1.20548 0
M  V30 8281 C 781.956 3.64059 -0.955934 0
M  V30 8282 C 781.103 2.42715 -1.34106 0
M  V30 8283 H 784.054 1.10136 -1.14262 0
M  V30 8284 H 784.075 3.76183 -0.571547 0
M  V30 8285 H 783.587 3.13646 -2.28578 0
M  V30 8286 H 781.688 3.72441 0.108858 0
M  V30 8287 H 781.801 4.51549 -1.60126 0
M  V30 8288 H 780.165 2.43114 -0.759452 0
M  V30 8289 H 780.948 2.42414 -2.43085 0
M  V30 8290 N 783.393 0.737304 1.3929 0
M  V30 8291 C 784.323 0.113988 2.33222 0
M  V30 8292 C 785.304 -0.721695 1.54031 0
M  V30 8293 O 786.489 -0.666206 1.82415 0
M  V30 8294 C 783.619 -0.792319 3.38141 0
M  V30 8295 C 782.573 -0.0606178 4.27957 0
M  V30 8296 C 781.899 -1.08409 5.23595 0
M  V30 8297 C 783.199 1.09817 5.10625 0
M  V30 8298 H 784.893 0.898611 2.85596 0
M  V30 8299 H 782.439 0.433571 1.37318 0
M  V30 8300 H 784.392 -1.23793 4.02807 0
M  V30 8301 H 783.116 -1.60908 2.84211 0
M  V30 8302 H 781.775 0.365393 3.64775 0
M  V30 8303 H 781.423 -1.89449 4.6596 0
M  V30 8304 H 781.123 -0.599269 5.84536 0
M  V30 8305 H 782.647 -1.52936 5.91137 0
M  V30 8306 H 784.061 0.730892 5.68622 0
M  V30 8307 H 782.458 1.51278 5.80719 0
M  V30 8308 H 783.528 1.91878 4.45321 0
M  V30 8309 N 784.871 -1.49948 0.485112 0
M  V30 8310 C 786.148 -1.95186 -0.12726 0
M  V30 8311 C 786.528 -1.42605 -1.5565 0
M  V30 8312 O 785.876 -0.632986 -2.19558 0
M  V30 8313 C 786.086 -3.48955 -0.0562117 0
M  V30 8314 C 787.434 -4.23932 -0.238106 0
M  V30 8315 O 788.458 -3.55955 -0.132145 0
M  V30 8316 O 787.317 -5.44614 -0.453658 0
M  V30 8317 H 784.411 -0.820433 -0.104014 0
M  V30 8318 H 786.957 -1.60659 0.546517 0
M  V30 8319 H 785.729 -3.79814 0.941122 0
M  V30 8320 H 785.352 -3.90056 -0.770834 0
M  V30 8321 N 786.349 -0.21828 -1.56081 0
M  V30 8322 C 787.312 0.679633 -2.18892 0
M  V30 8323 C 788.312 1.12405 -1.14986 0
M  V30 8324 O 789.502 1.03339 -1.40238 0
M  V30 8325 C 786.634 1.93063 -2.80962 0
M  V30 8326 H 787.827 0.132066 -2.99609 0
M  V30 8327 H 785.38 0.0313374 -1.56269 0
M  V30 8328 H 786.115 2.52015 -2.04106 0
M  V30 8329 H 785.9 1.62046 -3.57048 0
M  V30 8330 H 787.39 2.57043 -3.29118 0
M  V30 8331 N 787.827 1.57504 0.0551401 0
M  V30 8332 C 789.055 1.92294 0.76358 0
M  V30 8333 C 789.47 0.815774 1.70266 0
M  V30 8334 O 788.827 -0.209772 1.8129 0
M  V30 8335 C 788.878 3.26914 1.54302 0
M  V30 8336 O 788.599 4.33375 0.641666 0
M  V30 8337 C 790.1 3.75825 2.35097 0
M  V30 8338 H 787.32 0.635229 0.216159 0
M  V30 8339 H 789.864 2.0449 0.0204385 0
M  V30 8340 H 788.019 3.16196 2.23828 0
M  V30 8341 H 788.433 5.10927 1.1855 0
M  V30 8342 H 789.907 4.72603 2.8522 0
M  V30 8343 H 790.384 3.0568 3.15367 0
M  V30 8344 H 790.99 3.89542 1.70696 0
M  V30 8345 N 789.305 -0.326896 1.54172 0
M  V30 8346 C 790.716 -0.901533 1.63491 0
M  V30 8347 C 791.067 -1.88994 0.52684 0
M  V30 8348 O 790.192 -2.137 -0.340794 0
M  V30 8349 C 790.787 -1.64192 2.96355 0
M  V30 8350 C 789.346 -2.16533 3.07881 0
M  V30 8351 C 788.493 -0.98966 2.59039 0
M  V30 8352 H 791.444 -0.104568 1.58355 0
M  V30 8353 H 791.465 -2.50592 2.86328 0
M  V30 8354 H 790.977 -0.922291 3.76982 0
M  V30 8355 H 789.078 -2.91622 2.31922 0
M  V30 8356 H 789.191 -2.41762 4.13628 0
M  V30 8357 H 787.555 -1.36787 2.14852 0
M  V30 8358 H 788.338 -0.284401 3.4212 0
M  V30 8359 N 790.784 -1.46188 -0.588786 0
M  V30 8360 C 791.734 -1.5271 -1.69303 0
M  V30 8361 C 792.718 -0.388578 -1.56137 0
M  V30 8362 O 793.91 -0.636616 -1.65155 0
M  V30 8363 C 791.039 -1.51457 -3.08084 0
M  V30 8364 C 790.125 -2.70581 -3.26568 0
M  V30 8365 N 790.516 -3.9555 -3.15236 0
M  V30 8366 C 788.814 -2.66676 -3.57491 0
M  V30 8367 C 789.515 -4.75157 -3.35561 0
M  V30 8368 N 788.491 -4.06927 -3.60432 0
M  V30 8369 H 792.293 -2.47136 -1.59063 0
M  V30 8370 H 789.807 -1.41743 -0.792632 0
M  V30 8371 H 791.804 -1.54216 -3.87328 0
M  V30 8372 H 790.464 -0.581036 -3.19459 0
M  V30 8373 H 791.475 -4.2689 -2.93232 0
M  V30 8374 H 788.152 -1.82317 -3.75588 0
M  V30 8375 H 789.542 -5.84126 -3.32034 0
M  V30 8376 N 792.262 0.832906 -1.33792 0
M  V30 8377 C 793.49 1.62048 -1.28639 0
M  V30 8378 C 793.905 1.88269 0.141522 0
M  V30 8379 O 793.262 1.46706 1.08553 0
M  V30 8380 C 793.313 2.96722 -2.0649 0
M  V30 8381 O 793.034 2.7165 -3.43712 0
M  V30 8382 C 794.535 3.91144 -2.08617 0
M  V30 8383 H 791.755 0.504032 -0.442937 0
M  V30 8384 H 794.299 1.03704 -1.76255 0
M  V30 8385 H 792.454 3.51652 -1.62541 0
M  V30 8386 H 792.868 3.57453 -3.83833 0
M  V30 8387 H 794.342 4.82837 -2.67531 0
M  V30 8388 H 794.819 4.25766 -1.07796 0
M  V30 8389 H 795.425 3.42152 -2.52611 0
M  V30 8390 N 793.74 1.17359 1.05189 0
M  V30 8391 C 794.67 0.91365 2.14883 0
M  V30 8392 C 795.651 -0.144365 1.69486 0
M  V30 8393 O 796.836 0.00587861 1.94199 0
M  V30 8394 C 793.966 0.426196 3.44675 0
M  V30 8395 C 792.92 1.4234 4.03638 0
M  V30 8396 C 792.246 0.793902 5.28773 0
M  V30 8397 C 793.546 2.7966 4.41121 0
M  V30 8398 H 795.24 1.831 2.36885 0
M  V30 8399 H 792.786 0.881781 1.13845 0
M  V30 8400 H 794.739 0.231767 4.20762 0
M  V30 8401 H 793.463 -0.526693 3.22325 0
M  V30 8402 H 792.122 1.60457 3.2962 0
M  V30 8403 H 791.77 -0.165824 5.02727 0
M  V30 8404 H 791.47 1.45959 5.69183 0
M  V30 8405 H 792.994 0.609747 6.07548 0
M  V30 8406 H 794.408 2.6526 5.08242 0
M  V30 8407 H 792.805 3.42807 4.92548 0
M  V30 8408 H 793.875 3.34068 3.51464 0
M  V30 8409 N 795.218 -1.23913 0.973828 0
M  V30 8410 C 796.464 -1.92436 0.640026 0
M  V30 8411 C 796.797 -1.75875 -0.823512 0
M  V30 8412 O 796.072 -1.11563 -1.59323 0
M  V30 8413 C 796.355 -3.4526 1.0231 0
M  V30 8414 C 796.208 -3.70961 2.54378 0
M  V30 8415 C 797.527 -4.36495 0.562155 0
M  V30 8416 H 794.646 -0.698868 0.233992 0
M  V30 8417 H 797.288 -1.46163 1.21393 0
M  V30 8418 H 795.438 -3.84802 0.534751 0
M  V30 8419 H 797.11 -3.40941 3.10737 0
M  V30 8420 H 795.353 -3.15899 2.97305 0
M  V30 8421 H 796.024 -4.77912 2.76232 0
M  V30 8422 H 798.5 -4.04363 0.981333 0
M  V30 8423 H 797.376 -5.42142 0.858689 0
M  V30 8424 H 797.637 -4.38818 -0.537659 0
M  V30 8425 N 796.696 -0.74468 -1.38897 0
M  V30 8426 C 797.628 -0.0713608 -2.29089 0
M  V30 8427 C 798.641 0.693224 -1.47303 0
M  V30 8428 O 799.83 0.535785 -1.70269 0
M  V30 8429 C 796.93 0.923078 -3.26087 0
M  V30 8430 C 796.103 0.217998 -4.36856 0
M  V30 8431 C 795.162 1.12192 -5.14101 0
M  V30 8432 O 794.188 0.595771 -5.66073 0
M  V30 8433 N 795.39 2.45082 -5.26227 0
M  V30 8434 H 798.155 -0.845906 -2.87514 0
M  V30 8435 H 795.716 -0.594712 -1.50581 0
M  V30 8436 H 797.708 1.53061 -3.74639 0
M  V30 8437 H 796.278 1.59876 -2.68623 0
M  V30 8438 H 795.498 -0.570134 -3.90055 0
M  V30 8439 H 796.786 -0.270248 -5.08082 0
M  V30 8440 H 796.184 2.90294 -4.85537 0
M  V30 8441 H 794.741 3.00907 -5.78185 0
M  V30 8442 N 798.174 1.49689 -0.493057 0
M  V30 8443 C 799.585 1.8665 -0.0433032 0
M  V30 8444 C 799.936 1.40607 1.36836 0
M  V30 8445 O 799.061 0.780503 2.01834 0
M  V30 8446 C 799.656 3.38724 -0.0718069 0
M  V30 8447 C 798.215 3.75015 0.32257 0
M  V30 8448 C 797.362 2.7366 -0.4478 0
M  V30 8449 H 800.313 1.42119 -0.706246 0
M  V30 8450 H 800.334 3.73522 0.725347 0
M  V30 8451 H 799.846 3.72204 -1.09935 0
M  V30 8452 H 797.947 3.47142 1.35364 0
M  V30 8453 H 798.06 4.79099 0.00864259 0
M  V30 8454 H 796.424 2.54498 0.101354 0
M  V30 8455 H 797.207 3.09985 -1.47527 0
M  V30 8456 N 799.652 0.226554 1.55963 0
M  V30 8457 C 800.901 -0.40417 1.97609 0
M  V30 8458 C 801.214 -1.60541 1.1174 0
M  V30 8459 O 802.42 -2.30598 1.43307 0
M  V30 8460 C 800.876 -0.770466 3.51556 0
M  V30 8461 C 800.484 0.408244 4.46136 0
M  V30 8462 C 802.228 -1.36651 4.01904 0
M  V30 8463 C 800.135 0.0192347 5.91397 0
M  V30 8464 H 799.065 -0.15478 0.737943 0
M  V30 8465 H 801.716 0.323558 1.80625 0
M  V30 8466 H 800.098 -1.55575 3.6416 0
M  V30 8467 H 801.272 1.18575 4.45283 0
M  V30 8468 H 799.587 0.917859 4.06158 0
M  V30 8469 H 802.184 -1.67055 5.07934 0
M  V30 8470 H 802.527 -2.28403 3.48049 0
M  V30 8471 H 803.06 -0.644556 3.92543 0
M  V30 8472 H 799.799 0.90336 6.49245 0
M  V30 8473 H 799.319 -0.722485 5.95433 0
M  V30 8474 H 800.998 -0.405711 6.45727 0
M  V30 8475 N 801.13 -1.57531 -0.0467866 0
M  V30 8476 C 802.541 -1.76945 -0.595603 0
M  V30 8477 C 802.892 -0.855354 -1.76573 0
M  V30 8478 O 802.017 -0.045668 -2.16352 0
M  V30 8479 C 802.612 -3.20881 -1.08725 0
M  V30 8480 C 801.171 -3.41553 -1.58172 0
M  V30 8481 C 800.318 -2.72533 -0.511968 0
M  V30 8482 H 803.269 -1.57682 0.179436 0
M  V30 8483 H 803.29 -3.26419 -1.95528 0
M  V30 8484 H 802.802 -3.87385 -0.235398 0
M  V30 8485 H 800.903 -2.80199 -2.456 0
M  V30 8486 H 801.016 -4.50104 -1.64143 0
M  V30 8487 H 799.38 -2.35797 -0.962899 0
M  V30 8488 H 800.163 -3.41709 0.330117 0
M  V30 8489 N 802.608 0.318715 -1.54344 0
M  V30 8490 C 803.571 1.37545 -1.83342 0
M  V30 8491 C 804.571 1.445 -0.705444 0
M  V30 8492 O 805.761 1.44443 -0.973752 0
M  V30 8493 C 802.893 2.76225 -1.99781 0
M  V30 8494 H 804.086 1.13084 -2.77762 0
M  V30 8495 H 801.639 0.554457 -1.46135 0
M  V30 8496 H 802.374 3.05934 -1.07588 0
M  V30 8497 H 802.159 2.7257 -2.81865 0
M  V30 8498 H 803.649 3.52664 -2.23647 0
M  V30 8499 N 804.086 1.46499 0.581025 0
M  V30 8500 C 805.314 1.5547 1.36517 0
M  V30 8501 C 805.729 0.196407 1.87776 0
M  V30 8502 O 805.086 -0.806577 1.63709 0
M  V30 8503 C 805.137 2.56084 2.55154 0
M  V30 8504 O 804.858 3.86637 2.06018 0
M  V30 8505 C 806.359 2.75011 3.47683 0
M  V30 8506 H 803.579 0.525703 0.416986 0
M  V30 8507 H 806.123 1.9192 0.706177 0
M  V30 8508 H 804.278 2.22633 3.17039 0
M  V30 8509 H 804.692 4.41413 2.83292 0
M  V30 8510 H 806.166 3.49329 4.27403 0
M  V30 8511 H 806.643 1.81978 3.99726 0
M  V30 8512 H 807.249 3.09565 2.91632 0
M  V30 8513 N 805.565 -0.825799 1.34232 0
M  V30 8514 C 806.495 -1.95151 1.28212 0
M  V30 8515 C 807.476 -1.69345 0.160123 0
M  V30 8516 O 808.661 -1.90983 0.352019 0
M  V30 8517 C 805.791 -3.31554 1.03388 0
M  V30 8518 C 804.745 -3.71793 2.12023 0
M  V30 8519 C 804.071 -5.06147 1.72392 0
M  V30 8520 C 805.371 -3.84193 3.53826 0
M  V30 8521 H 807.065 -2.00445 2.22401 0
M  V30 8522 H 804.611 -0.962996 1.07063 0
M  V30 8523 H 806.564 -4.09889 0.978225 0
M  V30 8524 H 805.288 -3.26551 0.0564142 0
M  V30 8525 H 803.947 -2.95731 2.16654 0
M  V30 8526 H 803.595 -4.97628 0.733137 0
M  V30 8527 H 803.295 -5.34041 2.451 0
M  V30 8528 H 804.819 -5.86943 1.68317 0
M  V30 8529 H 806.233 -4.52806 3.51624 0
M  V30 8530 H 804.63 -4.23538 4.2513 0
M  V30 8531 H 805.7 -2.86272 3.91377 0
M  V30 8532 N 807.043 -1.17915 -1.04565 0
M  V30 8533 C 808.006 -0.903787 -2.10628 0
M  V30 8534 C 809.006 0.10873 -1.60432 0
M  V30 8535 O 810.196 -0.124152 -1.73757 0
M  V30 8536 C 807.328 -0.355017 -3.39046 0
M  V30 8537 H 808.521 -1.84425 -2.3649 0
M  V30 8538 H 806.074 -0.990477 -1.2091 0
M  V30 8539 H 806.809 0.592297 -3.18845 0
M  V30 8540 H 806.594 -1.08484 -3.76794 0
M  V30 8541 H 808.084 -0.180891 -4.17208 0
M  V30 8542 N 808.521 1.23394 -0.980386 0
M  V30 8543 C 809.746 1.96384 -0.666935 0
M  V30 8544 C 810.171 1.72087 0.759456 0
M  V30 8545 O 809.529 0.992328 1.51732 0
M  V30 8546 C 809.577 3.47499 -0.963177 0
M  V30 8547 O 808.681 4.12363 -0.0552051 0
M  V30 8548 H 808.022 0.614797 -0.250839 0
M  V30 8549 H 810.552 1.56831 -1.31398 0
M  V30 8550 H 810.562 3.97953 -0.899877 0
M  V30 8551 H 809.237 3.6451 -2.00264 0
M  V30 8552 H 807.814 3.72499 -0.172914 0
M  V30 8553 N 809.999 0.752036 1.385 0
M  V30 8554 C 811.276 0.233075 1.94206 0
M  V30 8555 C 811.656 -1.26838 1.68746 0
M  V30 8556 O 811.004 -2.04214 1.02513 0
M  V30 8557 C 811.214 0.58509 3.44061 0
M  V30 8558 C 812.562 0.543871 4.21102 0
M  V30 8559 O 813.586 0.523291 3.52335 0
M  V30 8560 O 812.445 0.553436 5.4369 0
M  V30 8561 H 809.539 0.0483049 0.825588 0
M  V30 8562 H 812.085 0.832053 1.47902 0
M  V30 8563 H 810.857 1.62212 3.56094 0
M  V30 8564 H 810.48 -0.0419738 3.97578 0
M  V30 8565 N 811.477 -1.49425 0.500989 0
M  V30 8566 C 812.888 -1.86624 0.0532011 0
M  V30 8567 C 813.239 -1.41331 -1.36088 0
M  V30 8568 O 812.364 -0.791195 -2.01418 0
M  V30 8569 C 812.959 -3.38681 0.0897693 0
M  V30 8570 C 811.518 -3.75181 -0.302677 0
M  V30 8571 C 810.665 -2.73419 0.462307 0
M  V30 8572 H 813.616 -1.41743 0.713773 0
M  V30 8573 H 813.637 -3.73902 -0.705528 0
M  V30 8574 H 813.149 -3.71616 1.11907 0
M  V30 8575 H 811.25 -3.47855 -1.33521 0
M  V30 8576 H 811.363 -4.79097 0.0167653 0
M  V30 8577 H 809.727 -2.54548 -0.0878557 0
M  V30 8578 H 810.51 -3.09198 1.49169 0
M  V30 8579 N 812.955 -0.234822 -1.55841 0
M  V30 8580 C 813.918 0.656378 -2.196 0
M  V30 8581 C 814.918 1.11179 -1.16171 0
M  V30 8582 O 816.108 1.01845 -1.41326 0
M  V30 8583 C 813.24 1.90072 -2.82993 0
M  V30 8584 H 814.433 0.100281 -2.99732 0
M  V30 8585 H 811.986 0.0147613 -1.56293 0
M  V30 8586 H 812.721 2.49836 -2.06767 0
M  V30 8587 H 812.506 1.5825 -3.58747 0
M  V30 8588 H 813.996 2.53538 -3.31826 0
M  V30 8589 N 814.433 1.57553 0.0384317 0
M  V30 8590 C 815.658 1.93485 0.746872 0
M  V30 8591 C 816.083 0.834069 1.68597 0
M  V30 8592 O 815.441 -0.210902 1.80069 0
M  V30 8593 C 815.489 3.28463 1.4881 0
M  V30 8594 O 814.593 3.20051 2.60079 0
M  V30 8595 H 813.934 0.632675 0.201539 0
M  V30 8596 H 816.464 2.046 -0.00329815 0
M  V30 8597 H 816.474 3.63132 1.86009 0
M  V30 8598 H 815.149 4.08147 0.799297 0
M  V30 8599 H 813.726 2.96998 2.25492 0
M  V30 8600 N 815.911 -0.310526 1.54511 0
M  V30 8601 C 817.151 -1.05498 1.7507 0
M  V30 8602 C 817.515 -1.84814 0.520381 0
M  V30 8603 O 818.716 -2.61937 0.603547 0
M  V30 8604 C 816.987 -1.94466 2.99863 0
M  V30 8605 S 818.546 -2.75686 3.41383 0
M  V30 8606 H 815.364 -0.355951 0.615483 0
M  V30 8607 H 817.966 -0.329464 1.92704 0
M  V30 8608 H 816.67 -1.35055 3.87541 0
M  V30 8609 H 816.201 -2.71401 2.84789 0
M  V30 8610 H 818.216 -3.96971 2.97706 0
M  V30 8611 N 817.389 -1.46805 -0.573248 0
M  V30 8612 C 818.8 -1.46655 -1.15539 0
M  V30 8613 C 819.151 -0.2125 -1.95046 0
M  V30 8614 O 818.276 0.683759 -2.05314 0
M  V30 8615 C 818.871 -2.65711 -2.10198 0
M  V30 8616 C 817.43 -2.68572 -2.63716 0
M  V30 8617 C 816.577 -2.39498 -1.39772 0
M  V30 8618 H 819.528 -1.54547 -0.36068 0
M  V30 8619 H 819.549 -2.41768 -2.93817 0
M  V30 8620 H 819.061 -3.56967 -1.52303 0
M  V30 8621 H 817.162 -1.81414 -3.25453 0
M  V30 8622 H 817.275 -3.68809 -3.05805 0
M  V30 8623 H 815.639 -1.89749 -1.69904 0
M  V30 8624 H 816.422 -3.32942 -0.836943 0
M  V30 8625 N 818.867 0.818669 -1.34668 0
M  V30 8626 C 820.107 1.58862 -1.28617 0
M  V30 8627 C 820.471 1.91483 0.140845 0
M  V30 8628 O 821.672 2.66821 0.325583 0
M  V30 8629 C 819.943 2.85044 -2.15604 0
M  V30 8630 S 821.502 3.75553 -2.26948 0
M  V30 8631 H 818.32 0.544454 -0.457265 0
M  V30 8632 H 820.922 0.966679 -1.69928 0
M  V30 8633 H 819.626 2.59083 -3.18284 0
M  V30 8634 H 819.157 3.52231 -1.75205 0
M  V30 8635 H 821.172 4.74682 -1.44539 0
M  V30 8636 N 820.346 1.18468 1.03938 0
M  V30 8637 C 821.586 0.991823 1.78724 0
M  V30 8638 C 821.95 -0.470115 1.86156 0
M  V30 8639 O 823.151 -0.782451 2.5716 0
M  V30 8640 C 821.422 1.63018 3.18056 0
M  V30 8641 S 822.981 1.58527 4.09163 0
M  V30 8642 H 819.799 0.356137 0.615376 0
M  V30 8643 H 822.401 1.50634 1.24618 0
M  V30 8644 H 821.105 2.68642 3.10258 0
M  V30 8645 H 820.636 1.11601 3.77238 0
M  V30 8646 H 822.651 0.602059 4.92534 0
M  V30 8647 N 821.824 -1.22873 0.986916 0
M  V30 8648 C 822.756 -2.23889 0.490537 0
M  V30 8649 C 823.769 -1.57523 -0.411144 0
M  V30 8650 O 824.958 -1.7721 -0.214236 0
M  V30 8651 C 822.058 -3.37488 -0.30902 0
M  V30 8652 C 821.231 -4.33438 0.587354 0
M  V30 8653 C 820.29 -5.25958 -0.159467 0
M  V30 8654 O 819.316 -5.67394 0.453115 0
M  V30 8655 N 820.518 -5.62265 -1.44355 0
M  V30 8656 H 823.283 -2.67109 1.35914 0
M  V30 8657 H 820.844 -1.37111 0.860937 0
M  V30 8658 H 822.836 -3.96365 -0.817139 0
M  V30 8659 H 821.406 -2.934 -1.07868 0
M  V30 8660 H 820.626 -3.72969 1.27622 0
M  V30 8661 H 821.914 -4.94495 1.19801 0
M  V30 8662 H 821.312 -5.30562 -1.96266 0
M  V30 8663 H 819.869 -6.23585 -1.89698 0
M  V30 8664 N 823.302 -0.75937 -1.38099 0
M  V30 8665 C 824.252 -0.111098 -2.27729 0
M  V30 8666 C 825.236 0.687161 -1.45489 0
M  V30 8667 O 826.428 0.552167 -1.68167 0
M  V30 8668 C 823.557 0.776809 -3.34396 0
M  V30 8669 C 822.643 -0.0286108 -4.2409 0
M  V30 8670 N 823.034 -1.06797 -4.94397 0
M  V30 8671 C 821.332 0.197307 -4.45563 0
M  V30 8672 C 822.033 -1.55576 -5.6051 0
M  V30 8673 N 821.009 -0.870059 -5.36592 0
M  V30 8674 H 824.811 -0.907047 -2.79553 0
M  V30 8675 H 822.325 -0.595954 -1.5107 0
M  V30 8676 H 824.322 1.25691 -3.97502 0
M  V30 8677 H 822.982 1.57164 -2.84129 0
M  V30 8678 H 823.993 -1.44988 -4.97191 0
M  V30 8679 H 820.67 0.965028 -4.06194 0
M  V30 8680 H 822.06 -2.42184 -6.26735 0
M  V30 8681 N 824.78 1.49157 -0.508906 0
M  V30 8682 C 825.69 2.33045 0.269656 0
M  V30 8683 C 826.706 1.45143 0.959662 0
M  V30 8684 O 827.882 1.78155 0.939295 0
M  V30 8685 C 824.947 3.20772 1.31554 0
M  V30 8686 C 824.008 4.24531 0.638131 0
M  V30 8687 C 823.241 5.08065 1.63418 0
M  V30 8688 O 823.464 4.93238 2.86483 0
M  V30 8689 O 822.398 5.90117 1.18516 0
M  V30 8690 H 826.224 3.00821 -0.417183 0
M  V30 8691 H 823.809 1.46938 -0.270119 0
M  V30 8692 H 825.691 3.75095 1.92047 0
M  V30 8693 H 824.366 2.55681 1.98516 0
M  V30 8694 H 823.273 3.74099 -0.00674357 0
M  V30 8695 H 824.606 4.92199 0.0108155 0
M  V30 8696 N 826.258 0.243083 1.55714 0
M  V30 8697 C 827.535 -0.432851 1.90751 0
M  V30 8698 C 827.915 -1.76153 1.16333 0
M  V30 8699 O 827.263 -2.26783 0.279565 0
M  V30 8700 C 827.473 -0.604685 3.43722 0
M  V30 8701 C 828.821 -0.90231 4.14902 0
M  V30 8702 O 829.845 -0.690689 3.49439 0
M  V30 8703 O 828.704 -1.3051 5.30688 0
M  V30 8704 H 825.798 -0.231835 0.79384 0
M  V30 8705 H 828.344 0.286867 1.67258 0
M  V30 8706 H 827.116 0.331655 3.89892 0
M  V30 8707 H 826.739 -1.37509 3.73065 0
M  V30 8708 N 827.736 -1.57571 -0.0300757 0
M  V30 8709 C 828.984 -1.88852 -0.719666 0
M  V30 8710 C 829.305 -0.840645 -1.75949 0
M  V30 8711 O 828.575 0.125854 -1.95495 0
M  V30 8712 H 827.155 -0.696965 -0.268792 0
M  V30 8713 H 829.817 -1.949 0.00373285 0
M  V30 8714 H 828.913 -2.87695 -1.20987 0
M  V30 8715 N 829.214 0.302327 -1.54673 0
M  V30 8716 C 830.63 0.647911 -1.45857 0
M  V30 8717 C 830.83 1.90773 -0.64869 0
M  V30 8718 O 829.886 2.52018 -0.155865 0
M  V30 8719 C 831.199 0.802144 -2.89804 0
M  V30 8720 C 832.747 0.898114 -2.99838 0
M  V30 8721 C 833.222 1.08436 -4.44978 0
M  V30 8722 N 834.713 1.15059 -4.48682 0
M  V30 8723 C 835.448 1.31296 -5.58166 0
M  V30 8724 N 834.944 1.4444 -6.77576 0
M  V30 8725 N 836.737 1.34174 -5.45851 0
M  V30 8726 H 828.888 -0.525428 -2.05798 0
M  V30 8727 H 831.151 -0.173423 -0.932002 0
M  V30 8728 H 830.857 -0.0526531 -3.51661 0
M  V30 8729 H 830.731 1.69155 -3.37145 0
M  V30 8730 H 833.118 1.7434 -2.38096 0
M  V30 8731 H 833.199 -0.0152752 -2.55795 0
M  V30 8732 H 832.843 0.243843 -5.07314 0
M  V30 8733 H 832.773 2.01195 -4.8665 0
M  V30 8734 H 835.264 1.0626 -3.62653 0
M  V30 8735 H 835.577 1.56582 -7.56771 0
M  V30 8736 H 833.922 1.41499 -6.80443 0
M  V30 8737 H 837.113 1.23516 -4.5151 0
M  V30 8738 H 837.286 1.46485 -6.31226 0
M  V30 8739 N 830.692 1.47107 0.565454 0
M  V30 8740 C 832.108 1.32443 0.890566 0
M  V30 8741 C 832.308 0.308735 1.99121 0
M  V30 8742 O 831.364 -0.28265 2.50913 0
M  V30 8743 C 832.677 2.71548 1.2916 0
M  V30 8744 C 834.225 2.7977 1.40349 0
M  V30 8745 C 834.7 4.19497 1.83811 0
M  V30 8746 N 836.191 4.21998 1.90975 0
M  V30 8747 C 836.926 5.2702 2.25916 0
M  V30 8748 N 836.422 6.42353 2.59527 0
M  V30 8749 N 838.215 5.14393 2.26619 0
M  V30 8750 H 830.366 2.11786 -0.161328 0
M  V30 8751 H 832.629 0.947952 -0.00950631 0
M  V30 8752 H 832.335 3.47265 0.556753 0
M  V30 8753 H 832.209 3.02782 2.24951 0
M  V30 8754 H 834.596 2.0433 2.12916 0
M  V30 8755 H 834.677 2.522 0.427655 0
M  V30 8756 H 834.321 4.95439 1.11816 0
M  V30 8757 H 834.251 4.44486 2.82382 0
M  V30 8758 H 836.742 3.38791 1.6742 0
M  V30 8759 H 837.055 7.18252 2.85191 0
M  V30 8760 H 835.4 6.45687 2.57126 0
M  V30 8761 H 838.591 4.2332 1.99794 0
M  V30 8762 H 838.764 5.96349 2.5352 0
M  V30 8763 N 832.17 -0.811516 1.35101 0
M  V30 8764 C 833.581 -1.38515 1.25182 0
M  V30 8765 C 833.932 -1.95846 -0.117883 0
M  V30 8766 O 833.057 -1.90925 -1.01866 0
M  V30 8767 C 833.652 -2.51813 2.26662 0
M  V30 8768 C 832.211 -3.05052 2.20499 0
M  V30 8769 C 831.358 -1.77987 2.12641 0
M  V30 8770 H 834.309 -0.614959 1.46301 0
M  V30 8771 H 834.33 -3.30228 1.89023 0
M  V30 8772 H 833.842 -2.10057 3.2634 0
M  V30 8773 H 831.943 -3.51285 1.24215 0
M  V30 8774 H 832.056 -3.63368 3.1225 0
M  V30 8775 H 830.42 -1.99342 1.5854 0
M  V30 8776 H 831.203 -1.38389 3.14171 0
M  V30 8777 N 833.648 -1.19017 -1.03309 0
M  V30 8778 C 834.873 -1.01598 -1.80811 0
M  V30 8779 C 835.298 0.430773 -1.83101 0
M  V30 8780 O 834.656 1.30946 -1.25391 0
M  V30 8781 C 834.704 -1.5845 -3.23923 0
M  V30 8782 O 833.808 -0.810972 -4.04348 0
M  V30 8783 H 833.149 -0.359398 -0.558327 0
M  V30 8784 H 835.679 -1.57945 -1.30055 0
M  V30 8785 H 835.689 -1.61486 -3.74682 0
M  V30 8786 H 834.364 -2.63752 -3.21571 0
M  V30 8787 H 832.941 -0.85353 -3.63 0
M  V30 8788 N 835.127 1.22348 -0.993418 0
M  V30 8789 C 836.375 1.90733 -0.668246 0
M  V30 8790 C 836.696 1.77732 0.802261 0
M  V30 8791 O 835.966 1.16486 1.57505 0
M  V30 8792 H 834.546 0.705966 -0.244174 0
M  V30 8793 H 837.208 1.48691 -1.26004 0
M  V30 8794 H 836.304 2.97883 -0.931239 0
M  V30 8795 N 836.605 0.766683 1.37694 0
M  V30 8796 C 837.535 0.163432 2.32927 0
M  V30 8797 C 838.516 -0.688861 1.55527 0
M  V30 8798 O 839.701 -0.627363 1.83787 0
M  V30 8799 C 836.831 -0.720416 3.39746 0
M  V30 8800 C 835.785 0.0301718 4.27989 0
M  V30 8801 C 835.111 -0.972788 5.25776 0
M  V30 8802 C 836.411 1.20623 5.0818 0
M  V30 8803 H 838.105 0.958988 2.83626 0
M  V30 8804 H 835.651 0.462601 1.36367 0
M  V30 8805 H 837.604 -1.15221 4.05342 0
M  V30 8806 H 836.328 -1.54844 2.8756 0
M  V30 8807 H 834.987 0.442685 3.63917 0
M  V30 8808 H 834.635 -1.79522 4.69873 0
M  V30 8809 H 834.335 -0.475145 5.85676 0
M  V30 8810 H 835.859 -1.40362 5.94248 0
M  V30 8811 H 837.273 0.851341 5.66944 0
M  V30 8812 H 835.67 1.63561 5.7738 0
M  V30 8813 H 836.74 2.01281 4.41151 0
M  V30 8814 N 838.083 -1.48885 0.516809 0
M  V30 8815 C 839.331 -2.02088 -0.0220166 0
M  V30 8816 C 839.652 -1.39735 -1.36011 0
M  V30 8817 O 838.922 -0.558119 -1.87781 0
M  V30 8818 H 837.502 -0.746917 -0.0111255 0
M  V30 8819 H 840.164 -1.8274 0.677647 0
M  V30 8820 H 839.26 -3.11786 -0.140067 0
M  V30 8821 N 839.561 -0.251338 -1.55583 0
M  V30 8822 C 840.786 0.379136 -2.03905 0
M  V30 8823 C 841.211 1.50428 -1.12929 0
M  V30 8824 O 840.569 1.80882 -0.123114 0
M  V30 8825 C 840.617 0.86009 -3.50193 0
M  V30 8826 O 839.721 1.96932 -3.62342 0
M  V30 8827 H 839.062 0.0820183 -0.658915 0
M  V30 8828 H 841.592 -0.378692 -2.01065 0
M  V30 8829 H 841.602 1.16214 -3.91099 0
M  V30 8830 H 840.277 0.0367559 -4.15884 0
M  V30 8831 H 838.854 1.67163 -3.33333 0
M  V30 8832 N 841.039 1.57585 0.0217189 0
M  V30 8833 C 842.267 1.93871 0.722619 0
M  V30 8834 C 842.682 0.851706 1.68498 0
M  V30 8835 O 842.039 -0.17127 1.81695 0
M  V30 8836 C 842.09 3.30114 1.47333 0
M  V30 8837 O 841.811 4.34639 0.549597 0
M  V30 8838 C 843.312 3.80727 2.27072 0
M  V30 8839 H 840.532 0.639671 0.202637 0
M  V30 8840 H 843.076 2.04487 -0.0229414 0
M  V30 8841 H 841.231 3.20872 2.17071 0
M  V30 8842 H 841.645 5.13326 1.07686 0
M  V30 8843 H 843.119 4.78547 2.75131 0
M  V30 8844 H 843.596 3.12301 3.08812 0
M  V30 8845 H 844.202 3.93075 1.62395 0
M  V30 8846 N 842.517 -0.29412 1.54831 0
M  V30 8847 C 843.794 -1.04847 1.65126 0
M  V30 8848 C 844.174 -2.04996 0.503986 0
M  V30 8849 O 843.522 -2.22996 -0.498496 0
M  V30 8850 C 843.732 -1.72418 3.03435 0
M  V30 8851 C 845.08 -2.24362 3.60481 0
M  V30 8852 O 846.104 -1.8244 3.05932 0
M  V30 8853 O 844.963 -3.01196 4.56008 0
M  V30 8854 H 842.057 -0.485032 0.669831 0
M  V30 8855 H 844.603 -0.291659 1.67175 0
M  V30 8856 H 843.375 -0.997351 3.78376 0
M  V30 8857 H 842.998 -2.54839 3.05193 0
M  V30 8858 N 843.995 -1.47404 -0.557645 0
M  V30 8859 C 845.22 -1.57868 -1.34508 0
M  V30 8860 C 845.645 -0.229151 -1.86699 0
M  V30 8861 O 845.003 0.794908 -1.62944 0
M  V30 8862 C 845.051 -2.60712 -2.49122 0
M  V30 8863 O 844.155 -2.15952 -3.51338 0
M  V30 8864 H 843.496 -0.530335 -0.399551 0
M  V30 8865 H 846.026 -1.93181 -0.673954 0
M  V30 8866 H 846.036 -2.81118 -2.95697 0
M  V30 8867 H 844.711 -3.58701 -2.10491 0
M  V30 8868 H 843.288 -2.05644 -3.11071 0
M  V30 8869 N 845.473 0.80434 -1.35529 0
M  V30 8870 C 846.721 1.55845 -1.28673 0
M  V30 8871 C 847.042 1.94511 0.137976 0
M  V30 8872 O 846.312 1.63775 1.07492 0
M  V30 8873 H 844.892 0.577931 -0.473291 0
M  V30 8874 H 847.554 0.959293 -1.69657 0
M  V30 8875 H 846.65 2.47285 -1.90411 0
M  V30 8876 N 846.951 1.19563 1.02676 0
M  V30 8877 C 847.883 0.893054 2.11086 0
M  V30 8878 C 848.896 -0.115101 1.62393 0
M  V30 8879 O 850.085 0.11459 1.78132 0
M  V30 8880 C 847.185 0.315533 3.37428 0
M  V30 8881 C 846.358 1.37276 4.153 0
M  V30 8882 C 845.417 0.808398 5.19953 0
M  V30 8883 O 844.443 1.48661 5.49444 0
M  V30 8884 N 845.645 -0.387253 5.79207 0
M  V30 8885 H 848.41 1.82622 2.37633 0
M  V30 8886 H 845.971 1.09792 1.18984 0
M  V30 8887 H 847.963 -0.0759166 4.04629 0
M  V30 8888 H 846.533 -0.521961 3.08211 0
M  V30 8889 H 845.753 1.93897 3.43217 0
M  V30 8890 H 847.041 2.08509 4.64114 0
M  V30 8891 H 846.439 -0.955725 5.57568 0
M  V30 8892 H 844.996 -0.720457 6.47806 0
M  V30 8893 N 848.429 -1.21819 0.999893 0
M  V30 8894 C 849.339 -2.27691 0.565159 0
M  V30 8895 C 850.355 -1.69587 -0.389398 0
M  V30 8896 O 851.531 -1.99786 -0.254499 0
M  V30 8897 C 848.596 -3.46537 -0.106432 0
M  V30 8898 C 847.657 -4.19932 0.891964 0
M  V30 8899 C 846.89 -5.33103 0.252327 0
M  V30 8900 O 847.113 -5.62398 -0.952103 0
M  V30 8901 O 846.047 -5.94184 0.960698 0
M  V30 8902 H 849.873 -2.67059 1.44613 0
M  V30 8903 H 847.458 -1.28119 0.768499 0
M  V30 8904 H 849.34 -4.18631 -0.482301 0
M  V30 8905 H 848.015 -3.09079 -0.961865 0
M  V30 8906 H 846.922 -3.5008 1.3189 0
M  V30 8907 H 848.255 -4.61287 1.71682 0
M  V30 8908 N 849.908 -0.773975 -1.37286 0
M  V30 8909 C 851.156 -0.338636 -1.99243 0
M  V30 8910 C 851.477 1.08919 -1.61746 0
M  V30 8911 O 850.747 1.74822 -0.88397 0
M  V30 8912 H 849.327 -0.12222 -0.736934 0
M  V30 8913 H 851.989 -0.992595 -1.67731 0
M  V30 8914 H 851.085 -0.418055 -3.09287 0
M  V30 8915 N 851.386 1.48609 -0.524698 0
M  V30 8916 C 852.611 2.07398 0.00952139 0
M  V30 8917 C 853.036 1.37939 1.27884 0
M  V30 8918 O 852.394 0.443633 1.75788 0
M  V30 8919 C 852.442 3.59916 0.221956 0
M  V30 8920 O 851.546 3.91647 1.29175 0
M  V30 8921 H 850.887 0.662981 -0.0367729 0
M  V30 8922 H 853.417 1.91092 -0.7311 0
M  V30 8923 H 853.427 4.05552 0.446236 0
M  V30 8924 H 852.102 4.09876 -0.705306 0
M  V30 8925 H 850.679 3.57796 1.05055 0
M  V30 8926 N 852.864 0.259585 1.55447 0
M  V30 8927 C 854.112 -0.360893 1.98852 0
M  V30 8928 C 854.433 -1.57535 1.14924 0
M  V30 8929 O 853.703 -1.94485 0.235025 0
M  V30 8930 H 852.283 -0.136332 0.734454 0
M  V30 8931 H 854.945 0.361319 1.91522 0
M  V30 8932 H 854.041 -0.661388 3.05012 0
M  V30 8933 N 854.342 -1.57594 -0.0133615 0
M  V30 8934 C 855.567 -1.94649 -0.715996 0
M  V30 8935 C 855.992 -0.860786 -1.67249 0
M  V30 8936 O 855.35 0.182228 -1.80382 0
M  V30 8937 C 855.398 -3.30789 -1.43566 0
M  V30 8938 O 854.502 -3.24148 -2.54955 0
M  V30 8939 H 853.843 -0.635801 -0.191449 0
M  V30 8940 H 856.373 -2.04569 0.0358478 0
M  V30 8941 H 856.383 -3.66045 -1.80208 0
M  V30 8942 H 855.058 -4.09367 -0.734263 0
M  V30 8943 H 853.635 -3.00548 -2.20739 0
M  V30 8944 N 855.82 0.285905 -1.54985 0
M  V30 8945 C 857.068 1.01718 -1.74636 0
M  V30 8946 C 857.389 1.87277 -0.543342 0
M  V30 8947 O 856.659 1.90847 0.442078 0
M  V30 8948 H 855.239 0.378549 -0.643979 0
M  V30 8949 H 857.901 0.313247 -1.92366 0
M  V30 8950 H 856.997 1.66159 -2.64192 0
M  V30 8951 N 857.298 1.47698 0.54982 0
M  V30 8952 C 858.523 1.58579 1.33669 0
M  V30 8953 C 858.948 0.239049 1.86575 0
M  V30 8954 O 858.306 -0.786256 1.63364 0
M  V30 8955 C 858.354 2.62029 2.47736 0
M  V30 8956 O 857.458 2.17813 3.50188 0
M  V30 8957 H 856.799 0.532447 0.396732 0
M  V30 8958 H 859.329 1.93536 0.6637 0
M  V30 8959 H 859.339 2.82682 2.94202 0
M  V30 8960 H 858.014 3.59812 2.08586 0
M  V30 8961 H 856.591 2.07291 3.09976 0
M  V30 8962 N 858.776 -0.797141 1.35954 0
M  V30 8963 C 860.001 -1.59097 1.33053 0
M  V30 8964 C 860.426 -1.87897 -0.0874592 0
M  V30 8965 O 859.784 -1.47291 -1.05712 0
M  V30 8966 C 859.832 -2.89346 2.152 0
M  V30 8967 O 858.936 -3.826 1.5392 0
M  V30 8968 H 858.277 -0.482895 0.45575 0
M  V30 8969 H 860.807 -0.988633 1.79129 0
M  V30 8970 H 860.817 -3.38686 2.27499 0
M  V30 8971 H 859.492 -2.6771 3.18283 0
M  V30 8972 H 858.069 -3.41174 1.50516 0
M  V30 8973 N 860.254 -1.20106 -1.0204 0
M  V30 8974 C 861.217 -0.948261 -2.08664 0
M  V30 8975 C 862.217 0.0746753 -1.60627 0
M  V30 8976 O 863.407 -0.160981 -1.73455 0
M  V30 8977 C 860.539 -0.426854 -3.38217 0
M  V30 8978 H 861.732 -1.894 -2.32524 0
M  V30 8979 H 859.285 -1.0159 -1.18782 0
M  V30 8980 H 860.02 0.524532 -3.2003 0
M  V30 8981 H 859.805 -1.16451 -3.74408 0
M  V30 8982 H 861.295 -0.269346 -4.1673 0
M  V30 8983 N 861.732 1.21287 -1.00634 0
M  V30 8984 C 862.98 1.90013 -0.688438 0
M  V30 8985 C 863.301 1.78573 0.783365 0
M  V30 8986 O 862.571 1.1815 1.56261 0
M  V30 8987 H 861.151 0.703336 -0.251648 0
M  V30 8988 H 863.813 1.47346 -1.27574 0
M  V30 8989 H 862.909 2.96879 -0.962781 0
M  V30 8990 N 863.21 0.781244 1.36873 0
M  V30 8991 C 864.458 0.349198 1.9906 0
M  V30 8992 C 864.779 -1.0806 1.62321 0
M  V30 8993 O 864.049 -1.74351 0.893229 0
M  V30 8994 H 862.629 0.126126 0.736275 0
M  V30 8995 H 865.291 1.00148 1.67202 0
M  V30 8996 H 864.387 0.434451 3.09061 0
M  V30 8997 N 864.689 -1.48329 0.532571 0
M  V30 8998 C 865.599 -2.33445 -0.232546 0
M  V30 8999 C 866.615 -1.46651 -0.93645 0
M  V30 9000 O 867.791 -1.79627 -0.910834 0
M  V30 9001 C 864.856 -3.22824 -1.26434 0
M  V30 9002 C 863.917 -4.25492 -0.570511 0
M  V30 9003 C 863.15 -5.10601 -1.55315 0
M  V30 9004 O 863.373 -4.97733 -2.78599 0
M  V30 9005 O 862.307 -5.91927 -1.09112 0
M  V30 9006 H 866.133 -3.00119 0.464988 0
M  V30 9007 H 863.718 -1.46489 0.293462 0
M  V30 9008 H 865.6 -3.78103 -1.86055 0
M  V30 9009 H 864.275 -2.58807 -1.94424 0
M  V30 9010 H 863.182 -3.74041 0.0662587 0
M  V30 9011 H 864.515 -4.92154 0.0674904 0
M  V30 9012 N 866.167 -0.267825 -1.55308 0
M  V30 9013 C 867.444 0.402449 -1.91415 0
M  V30 9014 C 867.824 1.7428 -1.1912 0
M  V30 9015 O 867.172 2.2631 -0.315609 0
M  V30 9016 C 867.382 0.549926 -3.4464 0
M  V30 9017 C 868.73 0.836188 -4.16285 0
M  V30 9018 O 869.754 0.635009 -3.50494 0
M  V30 9019 O 868.613 1.22051 -5.32697 0
M  V30 9020 H 865.707 0.219177 -0.797427 0
M  V30 9021 H 868.253 -0.313439 -1.6678 0
M  V30 9022 H 867.025 -0.393641 -3.89315 0
M  V30 9023 H 866.648 1.31556 -3.75205 0
M  V30 9024 N 867.645 1.57599 0.00500368 0
M  V30 9025 C 868.555 2.11532 1.01446 0
M  V30 9026 C 869.571 1.05941 1.3803 0
M  V30 9027 O 870.747 1.37815 1.46864 0
M  V30 9028 C 867.812 2.60382 2.28915 0
M  V30 9029 C 866.873 3.80554 1.98689 0
M  V30 9030 C 866.106 4.27064 3.20081 0
M  V30 9031 O 866.329 3.72939 4.31593 0
M  V30 9032 O 865.263 5.1927 3.04371 0
M  V30 9033 H 869.089 2.97993 0.586011 0
M  V30 9034 H 866.674 1.47718 0.223519 0
M  V30 9035 H 868.556 2.92024 3.03809 0
M  V30 9036 H 867.231 1.77022 2.71007 0
M  V30 9037 H 866.138 3.53893 1.21286 0
M  V30 9038 H 867.471 4.64972 1.61437 0
M  V30 9039 N 869.123 -0.277682 1.55134 0
M  V30 9040 C 870.086 -1.32635 1.86924 0
M  V30 9041 C 871.086 -1.42578 0.743507 0
M  V30 9042 O 872.276 -1.4181 1.01171 0
M  V30 9043 C 869.408 -2.70832 2.07034 0
M  V30 9044 H 870.601 -1.0568 2.80663 0
M  V30 9045 H 868.154 -0.515517 1.47554 0
M  V30 9046 H 868.889 -3.02974 1.15661 0
M  V30 9047 H 868.674 -2.65001 2.88993 0
M  V30 9048 H 870.164 -3.46611 2.32918 0
M  V30 9049 N 870.601 -1.47988 -0.541979 0
M  V30 9050 C 871.878 -1.45878 -1.30303 0
M  V30 9051 C 872.258 -0.163931 -2.10463 0
M  V30 9052 O 871.606 0.854479 -2.11922 0
M  V30 9053 C 871.816 -2.71359 -2.19466 0
M  V30 9054 C 873.164 -3.19199 -2.79995 0
M  V30 9055 O 874.188 -2.72193 -2.2976 0
M  V30 9056 O 873.047 -4.00961 -3.71339 0
M  V30 9057 H 870.141 -0.582043 -0.587498 0
M  V30 9058 H 872.687 -1.60207 -0.559623 0
M  V30 9059 H 871.459 -3.57122 -1.59936 0
M  V30 9060 H 871.082 -2.59692 -3.01075 0
M  V30 9061 N 872.079 0.78992 -1.36375 0
M  V30 9062 C 873.327 1.54472 -1.30319 0
M  V30 9063 C 873.648 1.94647 0.117338 0
M  V30 9064 O 872.918 1.64906 1.05748 0
M  V30 9065 H 871.498 0.572879 -0.479394 0
M  V30 9066 H 874.16 0.941245 -1.70665 0
M  V30 9067 H 873.256 2.45252 -1.93024 0
M  V30 9068 N 873.557 1.20646 1.01402 0
M  V30 9069 C 874.834 0.927176 1.72229 0
M  V30 9070 C 875.214 -0.563382 2.03443 0
M  V30 9071 O 874.562 -1.52576 1.70096 0
M  V30 9072 C 874.772 1.80285 2.98828 0
M  V30 9073 C 876.12 2.04624 3.72041 0
M  V30 9074 O 877.144 1.77559 3.0879 0
M  V30 9075 O 876.003 2.50347 4.85787 0
M  V30 9076 H 873.097 0.346891 0.75073 0
M  V30 9077 H 875.643 1.31532 1.07227 0
M  V30 9078 H 874.415 2.81204 2.72102 0
M  V30 9079 H 874.038 1.41495 3.71571 0
M  V30 9080 N 875.035 -1.20752 1.01276 0
M  V30 9081 C 876.283 -1.89645 0.698505 0
M  V30 9082 C 876.604 -1.78986 -0.773883 0
M  V30 9083 O 875.874 -1.18977 -1.55632 0
M  V30 9084 H 874.454 -0.701992 0.255375 0
M  V30 9085 H 877.116 -1.46668 1.28353 0
M  V30 9086 H 876.212 -2.96364 0.978512 0
M  V30 9087 N 876.513 -0.788492 -1.36457 0
M  V30 9088 C 877.476 -0.192209 -2.28393 0
M  V30 9089 C 878.476 0.609916 -1.48784 0
M  V30 9090 O 879.666 0.431046 -1.68783 0
M  V30 9091 C 876.798 0.734096 -3.32902 0
M  V30 9092 H 877.991 -1.00284 -2.82636 0
M  V30 9093 H 875.544 -0.557852 -1.46006 0
M  V30 9094 H 876.279 1.5691 -2.83813 0
M  V30 9095 H 876.064 0.160875 -3.9177 0
M  V30 9096 H 877.554 1.1462 -4.01562 0
M  V30 9097 N 877.991 1.48044 -0.54043 0
M  V30 9098 C 879.407 1.58354 -0.199006 0
M  V30 9099 C 879.607 1.54118 1.29807 0
M  V30 9100 O 878.663 1.43573 2.07709 0
M  V30 9101 C 879.976 2.89563 -0.810797 0
M  V30 9102 C 881.524 3.03113 -0.780486 0
M  V30 9103 C 881.999 4.36997 -1.37104 0
M  V30 9104 N 883.49 4.43591 -1.33347 0
M  V30 9105 C 884.225 5.45714 -1.76021 0
M  V30 9106 N 883.721 6.54738 -2.26473 0
M  V30 9107 N 885.514 5.36659 -1.67194 0
M  V30 9108 H 877.665 1.49041 -1.51329 0
M  V30 9109 H 879.928 0.708309 -0.630081 0
M  V30 9110 H 879.634 2.9835 -1.86227 0
M  V30 9111 H 879.508 3.76053 -0.293977 0
M  V30 9112 H 881.895 2.93932 0.262246 0
M  V30 9113 H 881.976 2.18207 -1.33489 0
M  V30 9114 H 881.62 4.46932 -2.41276 0
M  V30 9115 H 881.55 5.20607 -0.792229 0
M  V30 9116 H 884.041 3.65391 -0.964259 0
M  V30 9117 H 884.354 7.28814 -2.57002 0
M  V30 9118 H 882.699 6.55673 -2.30473 0
M  V30 9119 H 885.89 4.50382 -1.27569 0
M  V30 9120 H 886.063 6.16113 -2.00771 0
M  V30 9121 N 879.47 0.276058 1.55163 0
M  V30 9122 C 880.695 -0.346648 2.04483 0
M  V30 9123 C 881.12 -1.48613 1.15308 0
M  V30 9124 O 880.478 -1.80663 0.151875 0
M  V30 9125 C 880.526 -0.804268 3.51517 0
M  V30 9126 O 879.63 -1.91143 3.65429 0
M  V30 9127 H 878.971 -0.0715251 0.660136 0
M  V30 9128 H 881.501 0.410631 2.00437 0
M  V30 9129 H 881.511 -1.09977 3.92898 0
M  V30 9130 H 880.186 0.0294123 4.1589 0
M  V30 9131 H 878.763 -1.61839 3.3595 0
M  V30 9132 N 880.948 -1.576 0.00335426 0
M  V30 9133 C 882.173 -1.95398 -0.695311 0
M  V30 9134 C 882.598 -0.878476 -1.66326 0
M  V30 9135 O 881.956 0.163086 -1.80565 0
M  V30 9136 C 882.004 -3.32293 -1.40049 0
M  V30 9137 O 881.108 -3.26834 -2.51502 0
M  V30 9138 H 880.449 -0.637796 -0.184694 0
M  V30 9139 H 882.979 -2.04519 0.057543 0
M  V30 9140 H 882.989 -3.67936 -1.76316 0
M  V30 9141 H 881.664 -4.10123 -0.690803 0
M  V30 9142 H 880.241 -3.02872 -2.17539 0
M  V30 9143 N 882.426 0.269451 -1.5528 0
M  V30 9144 C 883.336 1.35511 -1.91505 0
M  V30 9145 C 884.352 1.53854 -0.812712 0
M  V30 9146 O 885.528 1.67912 -1.1121 0
M  V30 9147 C 882.593 2.6937 -2.18267 0
M  V30 9148 C 881.654 2.59743 -3.41807 0
M  V30 9149 C 880.887 3.87219 -3.67283 0
M  V30 9150 O 881.11 4.88066 -2.95208 0
M  V30 9151 O 880.044 3.87209 -4.60818 0
M  V30 9152 H 883.87 1.07785 -2.8393 0
M  V30 9153 H 881.455 0.468282 -1.41871 0
M  V30 9154 H 883.337 3.48513 -2.36889 0
M  V30 9155 H 882.012 2.96874 -1.29024 0
M  V30 9156 H 880.919 1.78964 -3.28516 0
M  V30 9157 H 882.252 2.37188 -4.3128 0
M  V30 9158 N 883.904 1.48273 0.534124 0
M  V30 9159 C 885.181 1.46567 1.29528 0
M  V30 9160 C 885.561 0.17509 2.10373 0
M  V30 9161 O 884.909 -0.843228 2.12372 0
M  V30 9162 C 885.119 2.72519 2.18023 0
M  V30 9163 C 886.467 3.2068 2.78298 0
M  V30 9164 O 887.491 2.73408 2.28313 0
M  V30 9165 O 886.35 4.02924 3.69208 0
M  V30 9166 H 883.444 0.585151 0.584403 0
M  V30 9167 H 885.99 1.60502 0.551119 0
M  V30 9168 H 884.762 3.57965 1.5804 0
M  V30 9169 H 884.385 2.61285 2.99693 0
M  V30 9170 N 885.382 -0.782676 1.36792 0
M  V30 9171 C 886.63 -1.53778 1.31136 0
M  V30 9172 C 886.951 -1.94706 -0.107014 0
M  V30 9173 O 886.221 -1.65465 -1.04872 0
M  V30 9174 H 884.801 -0.570328 0.482426 0
M  V30 9175 H 887.463 -0.932181 1.71162 0
M  V30 9176 H 886.559 -2.44224 1.94321 0
M  V30 9177 N 886.86 -1.21182 -1.00761 0
M  V30 9178 C 887.823 -0.970339 -2.07646 0
M  V30 9179 C 888.823 0.0576345 -1.60697 0
M  V30 9180 O 890.013 -0.179369 -1.73274 0
M  V30 9181 C 887.145 -0.462703 -3.37745 0
M  V30 9182 H 888.338 -1.91856 -2.30502 0
M  V30 9183 H 885.891 -1.02844 -1.17698 0
M  V30 9184 H 886.626 0.490559 -3.20568 0
M  V30 9185 H 886.411 -1.20416 -3.73152 0
M  V30 9186 H 887.901 -0.313531 -4.16421 0
M  V30 9187 N 888.338 1.20213 -1.01915 0
M  V30 9188 C 889.563 1.94163 -0.729076 0
M  V30 9189 C 889.988 1.74416 0.704323 0
M  V30 9190 O 889.346 1.0401 1.48498 0
M  V30 9191 C 889.394 3.44258 -1.07324 0
M  V30 9192 O 888.498 4.11979 -0.186367 0
M  V30 9193 H 887.839 0.606506 -0.270272 0
M  V30 9194 H 890.369 1.52571 -1.3632 0
M  V30 9195 H 890.379 3.94888 -1.02603 0
M  V30 9196 H 889.054 3.57954 -2.11759 0
M  V30 9197 H 887.631 3.7176 -0.291334 0
M  V30 9198 N 889.816 0.795718 1.36037 0
M  V30 9199 C 891.041 0.38204 2.03851 0
M  V30 9200 C 891.466 -0.995553 1.59594 0
M  V30 9201 O 890.824 -1.64258 0.767401 0
M  V30 9202 C 890.872 0.461248 3.57638 0
M  V30 9203 O 889.976 -0.529448 4.08987 0
M  V30 9204 H 889.317 0.161227 0.644129 0
M  V30 9205 H 891.847 1.07858 1.73861 0
M  V30 9206 H 891.857 0.32712 4.06687 0
M  V30 9207 H 890.532 1.46613 3.89201 0
M  V30 9208 H 889.109 -0.35646 3.71192 0
M  V30 9209 N 891.294 -1.47756 0.548274 0
M  V30 9210 C 892.204 -2.33678 -0.207773 0
M  V30 9211 C 893.22 -1.47636 -0.920843 0
M  V30 9212 O 894.396 -1.80583 -0.89173 0
M  V30 9213 C 891.461 -3.24147 -1.23003 0
M  V30 9214 C 890.522 -4.26073 -0.52535 0
M  V30 9215 C 889.755 -5.12219 -1.4989 0
M  V30 9216 O 889.978 -5.0066 -2.73305 0
M  V30 9217 O 888.912 -5.93051 -1.02828 0
M  V30 9218 H 892.738 -2.99609 0.496794 0
M  V30 9219 H 890.323 -1.4617 0.308982 0
M  V30 9220 H 892.205 -3.80055 -1.82034 0
M  V30 9221 H 890.88 -2.60855 -1.91668 0
M  V30 9222 H 889.787 -3.7395 0.105927 0
M  V30 9223 H 891.12 -4.92054 0.119686 0
M  V30 9224 N 892.772 -0.284283 -1.55015 0
M  V30 9225 C 893.702 0.592663 -2.25853 0
M  V30 9226 C 894.683 1.15151 -1.25197 0
M  V30 9227 O 895.868 1.18395 -1.53936 0
M  V30 9228 C 892.998 1.77254 -2.98661 0
M  V30 9229 C 891.952 1.34482 -4.06323 0
M  V30 9230 C 891.278 2.60853 -4.66754 0
M  V30 9231 C 892.578 0.488288 -5.20013 0
M  V30 9232 H 894.272 0.00187041 -2.994 0
M  V30 9233 H 891.818 -0.000540402 -1.44 0
M  V30 9234 H 893.771 2.39199 -3.46932 0
M  V30 9235 H 892.495 2.38931 -2.22664 0
M  V30 9236 H 891.154 0.748519 -3.58877 0
M  V30 9237 H 890.802 3.20808 -3.87416 0
M  V30 9238 H 890.502 2.32942 -5.39455 0
M  V30 9239 H 892.026 3.23631 -5.1778 0
M  V30 9240 H 893.44 1.01298 -5.6428 0
M  V30 9241 H 891.837 0.303669 -5.99331 0
M  V30 9242 H 892.907 -0.490727 -4.8241 0
M  V30 9243 N 894.251 1.57596 -0.0117121 0
M  V30 9244 C 895.499 1.90694 0.669342 0
M  V30 9245 C 895.82 0.886999 1.73659 0
M  V30 9246 O 895.09 -0.0739779 1.9576 0
M  V30 9247 H 893.67 0.703846 0.250219 0
M  V30 9248 H 896.332 1.94821 -0.0554057 0
M  V30 9249 H 895.428 2.90802 1.13316 0
M  V30 9250 N 895.729 -0.261212 1.5542 0
M  V30 9251 C 896.676 -1.32315 1.89107 0
M  V30 9252 C 897.646 -1.48517 0.743767 0
M  V30 9253 O 898.831 -1.62733 0.996123 0
M  V30 9254 C 895.971 -2.67626 2.17877 0
M  V30 9255 C 895.084 -2.59549 3.45338 0
M  V30 9256 C 894.219 -3.87118 3.63748 0
M  V30 9257 C 893.258 -3.736 4.8486 0
M  V30 9258 N 892.395 -4.93029 4.99867 0
M  V30 9259 H 897.235 -1.02886 2.79675 0
M  V30 9260 H 894.772 -0.496812 1.38456 0
M  V30 9261 H 896.73 -3.4637 2.32559 0
M  V30 9262 H 895.36 -2.95232 1.30529 0
M  V30 9263 H 894.412 -1.72452 3.39064 0
M  V30 9264 H 895.724 -2.45465 4.34222 0
M  V30 9265 H 894.878 -4.74305 3.78312 0
M  V30 9266 H 893.617 -4.04084 2.73071 0
M  V30 9267 H 892.622 -2.84797 4.70288 0
M  V30 9268 H 893.847 -3.58143 5.76984 0
M  V30 9269 H 891.793 -5.10383 4.12123 0
M  V30 9270 H 891.71 -4.81521 5.82815 0
M  V30 9271 H 892.978 -5.81754 5.18828 0
M  V30 9272 N 897.207 -1.48554 -0.526253 0
M  V30 9273 C 898.117 -1.66044 -1.65731 0
M  V30 9274 C 899.133 -0.542951 -1.65312 0
M  V30 9275 O 900.309 -0.814495 -1.84195 0
M  V30 9276 C 897.374 -1.69959 -3.02184 0
M  V30 9277 C 896.435 -2.93362 -3.13428 0
M  V30 9278 C 895.668 -2.97081 -4.43372 0
M  V30 9279 O 895.891 -2.09103 -5.3069 0
M  V30 9280 O 894.825 -3.8929 -4.59061 0
M  V30 9281 H 898.651 -2.61811 -1.53912 0
M  V30 9282 H 896.236 -1.31999 -0.699759 0
M  V30 9283 H 898.118 -1.75033 -3.83329 0
M  V30 9284 H 896.793 -0.773658 -3.14319 0
M  V30 9285 H 895.7 -2.93818 -2.31564 0
M  V30 9286 H 897.033 -3.85352 -3.06211 0
M  V30 9287 N 898.685 0.775411 -1.37205 0
M  V30 9288 C 899.595 1.91967 -1.34855 0
M  V30 9289 C 900.611 1.72214 -0.248656 0
M  V30 9290 O 901.787 1.95512 -0.483421 0
M  V30 9291 C 898.852 3.27038 -1.15096 0
M  V30 9292 C 897.913 3.5947 -2.34691 0
M  V30 9293 C 897.146 4.88097 -2.15865 0
M  V30 9294 O 897.369 5.58871 -1.14102 0
M  V30 9295 O 896.303 5.19507 -3.03967 0
M  V30 9296 H 900.129 1.969 -2.31223 0
M  V30 9297 H 897.714 0.917647 -1.17897 0
M  V30 9298 H 899.596 4.07837 -1.0605 0
M  V30 9299 H 898.271 3.22965 -0.217999 0
M  V30 9300 H 897.178 2.7892 -2.49308 0
M  V30 9301 H 898.511 3.68282 -3.26541 0
M  V30 9302 N 900.163 1.21714 1.00117 0
M  V30 9303 C 901.073 0.99597 2.12409 0
M  V30 9304 C 902.089 -0.0531431 1.73919 0
M  V30 9305 O 903.265 0.137757 2.00928 0
M  V30 9306 C 900.33 0.567593 3.42022 0
M  V30 9307 C 899.391 1.68936 3.94663 0
M  V30 9308 C 898.624 1.28133 5.1809 0
M  V30 9309 O 898.847 0.156574 5.70185 0
M  V30 9310 O 897.781 2.0947 5.64275 0
M  V30 9311 H 901.607 1.93657 2.33946 0
M  V30 9312 H 899.192 1.00236 1.10784 0
M  V30 9313 H 901.074 0.338664 4.20037 0
M  V30 9314 H 899.749 -0.34424 3.21864 0
M  V30 9315 H 898.656 1.97274 3.17858 0
M  V30 9316 H 899.989 2.57876 4.19238 0
M  V30 9317 N 901.641 -1.19671 1.02551 0
M  V30 9318 C 902.551 -2.26441 0.613329 0
M  V30 9319 C 903.567 -1.70375 -0.353339 0
M  V30 9320 O 904.743 -2.0028 -0.212064 0
M  V30 9321 C 901.808 -3.46684 -0.0329028 0
M  V30 9322 C 900.869 -4.17945 0.980837 0
M  V30 9323 C 900.102 -5.32448 0.36535 0
M  V30 9324 O 900.325 -5.64291 -0.832596 0
M  V30 9325 O 899.259 -5.92012 1.08652 0
M  V30 9326 H 903.085 -2.63932 1.50246 0
M  V30 9327 H 900.67 -1.2646 0.795502 0
M  V30 9328 H 902.552 -4.1956 -0.393395 0
M  V30 9329 H 901.227 -3.1105 -0.896089 0
M  V30 9330 H 900.134 -3.47204 1.39286 0
M  V30 9331 H 901.467 -4.57542 1.81428 0
M  V30 9332 N 903.119 -0.802921 -1.35613 0
M  V30 9333 C 904.029 -0.212177 -2.33639 0
M  V30 9334 C 905.045 0.642871 -1.61689 0
M  V30 9335 O 906.221 0.555485 -1.93588 0
M  V30 9336 C 903.286 0.632406 -3.40883 0
M  V30 9337 C 902.347 -0.242708 -4.28613 0
M  V30 9338 C 901.58 0.56166 -5.30736 0
M  V30 9339 O 901.803 1.79664 -5.41366 0
M  V30 9340 O 900.737 -0.0455387 -6.01883 0
M  V30 9341 H 904.563 -1.023 -2.85952 0
M  V30 9342 H 902.148 -0.564636 -1.38319 0
M  V30 9343 H 904.03 1.11358 -4.0642 0
M  V30 9344 H 902.705 1.42089 -2.90848 0
M  V30 9345 H 901.612 -0.77094 -3.6607 0
M  V30 9346 H 902.945 -0.995046 -4.82037 0
M  V30 9347 N 904.597 1.47463 -0.556102 0
M  V30 9348 C 905.507 2.33785 0.195378 0
M  V30 9349 C 906.523 1.48123 0.913 0
M  V30 9350 O 907.699 1.81053 0.882141 0
M  V30 9351 C 904.764 3.24795 1.21282 0
M  V30 9352 C 903.825 4.26346 0.502747 0
M  V30 9353 C 903.058 5.13007 1.47172 0
M  V30 9354 O 903.281 5.02103 2.70646 0
M  V30 9355 O 902.215 5.93588 0.996814 0
M  V30 9356 H 906.041 2.99341 -0.512676 0
M  V30 9357 H 903.626 1.46004 -0.31673 0
M  V30 9358 H 905.508 3.81015 1.80016 0
M  V30 9359 H 904.183 2.61868 1.90282 0
M  V30 9360 H 903.09 3.73889 -0.125757 0
M  V30 9361 H 904.423 4.91984 -0.145779 0
M  V30 9362 N 906.075 0.2925 1.54862 0
M  V30 9363 C 907.007 -0.620889 2.2063 0
M  V30 9364 C 908.02 -1.10412 1.19637 0
M  V30 9365 O 909.209 -1.02304 1.46274 0
M  V30 9366 C 906.309 -1.861 2.83232 0
M  V30 9367 C 905.482 -1.52168 4.10078 0
M  V30 9368 C 904.541 -2.61605 4.56562 0
M  V30 9369 O 903.567 -2.27056 5.21952 0
M  V30 9370 N 904.769 -3.9199 4.28163 0
M  V30 9371 H 907.534 -0.0579028 2.99644 0
M  V30 9372 H 905.095 0.114333 1.61496 0
M  V30 9373 H 907.087 -2.58642 3.11266 0
M  V30 9374 H 905.657 -2.33259 2.08108 0
M  V30 9375 H 904.877 -0.629283 3.89145 0
M  V30 9376 H 906.165 -1.27023 4.92689 0
M  V30 9377 H 905.563 -4.22872 3.7576 0
M  V30 9378 H 904.12 -4.60857 4.60928 0
M  V30 9379 N 907.553 -1.57587 0.0200696 0
M  V30 9380 C 908.516 -2.08595 -0.949767 0
M  V30 9381 C 909.516 -0.999215 -1.25985 0
M  V30 9382 O 910.706 -1.26115 -1.2017 0
M  V30 9383 C 907.838 -2.54424 -2.26895 0
M  V30 9384 H 909.031 -2.95563 -0.508161 0
M  V30 9385 H 906.584 -1.54631 -0.227798 0
M  V30 9386 H 907.319 -1.70758 -2.75703 0
M  V30 9387 H 907.104 -3.3381 -2.05702 0
M  V30 9388 H 908.594 -2.94144 -2.96427 0
M  V30 9389 N 909.032 0.252966 -1.55557 0
M  V30 9390 C 910.309 1.00432 -1.67847 0
M  V30 9391 C 910.689 2.03587 -0.55816 0
M  V30 9392 O 910.037 2.24239 0.439197 0
M  V30 9393 C 910.247 1.64313 -3.079 0
M  V30 9394 C 911.595 2.14726 -3.66303 0
M  V30 9395 O 912.619 1.74264 -3.10661 0
M  V30 9396 O 911.478 2.89 -4.63833 0
M  V30 9397 H 908.572 0.467102 -0.682455 0
M  V30 9398 H 911.118 0.247233 -1.67889 0
M  V30 9399 H 909.89 0.896681 -3.80888 0
M  V30 9400 H 909.513 2.46657 -3.11843 0
M  V30 9401 N 910.51 1.48831 0.518367 0
M  V30 9402 C 911.758 1.57128 1.27103 0
M  V30 9403 C 912.079 0.252098 1.93364 0
M  V30 9404 O 911.349 -0.727281 1.819 0
M  V30 9405 H 909.929 0.578891 0.472116 0
M  V30 9406 H 912.591 1.85361 0.602262 0
M  V30 9407 H 911.687 2.35838 2.04418 0
M  V30 9408 N 911.988 -0.768124 1.37614 0
M  V30 9409 C 912.951 -1.86314 1.3349 0
M  V30 9410 C 913.951 -1.59025 0.23823 0
M  V30 9411 O 915.141 -1.6704 0.494288 0
M  V30 9412 C 912.273 -3.23519 1.07462 0
M  V30 9413 H 913.466 -1.91382 2.30896 0
M  V30 9414 H 911.019 -0.968267 1.22696 0
M  V30 9415 H 911.754 -3.24127 0.106028 0
M  V30 9416 H 911.539 -3.44719 1.86846 0
M  V30 9417 H 913.029 -4.03597 1.07236 0
M  V30 9418 N 913.466 -1.22244 -0.994698 0
M  V30 9419 C 914.712 -1.04746 -1.73655 0
M  V30 9420 C 915.045 0.41668 -1.89677 0
M  V30 9421 O 914.32 1.30897 -1.43862 0
M  V30 9422 C 914.603 -1.75716 -3.14318 0
M  V30 9423 C 914.456 -3.29714 -3.05955 0
M  V30 9424 C 915.775 -1.50809 -4.13455 0
M  V30 9425 H 912.894 -0.381921 -0.630322 0
M  V30 9426 H 915.536 -1.50559 -1.15897 0
M  V30 9427 H 913.686 -1.3677 -3.63629 0
M  V30 9428 H 915.358 -3.78093 -2.64279 0
M  V30 9429 H 913.601 -3.59484 -2.42804 0
M  V30 9430 H 914.272 -3.74547 -4.05485 0
M  V30 9431 H 916.748 -1.84636 -3.72892 0
M  V30 9432 H 915.624 -2.02964 -5.09997 0
M  V30 9433 H 915.885 -0.440292 -4.39902 0
M  V30 9434 N 914.944 1.19125 -1.03184 0
M  V30 9435 C 916.19 1.89428 -0.740857 0
M  V30 9436 C 916.545 1.78302 0.72291 0
M  V30 9437 O 915.838 1.16656 1.51994 0
M  V30 9438 C 916.032 3.39052 -1.13041 0
M  V30 9439 C 915.861 3.64739 -2.6305 0
M  V30 9440 C 914.631 3.82603 -3.30066 0
M  V30 9441 C 916.829 3.66052 -3.61262 0
M  V30 9442 N 914.811 3.95947 -4.69147 0
M  V30 9443 C 916.182 3.85003 -4.85976 0
M  V30 9444 C 918.237 3.49093 -3.55019 0
M  V30 9445 C 916.94 3.88753 -6.05197 0
M  V30 9446 C 918.966 3.54122 -4.73658 0
M  V30 9447 C 918.328 3.73561 -5.97187 0
M  V30 9448 H 914.427 0.71217 -0.323014 0
M  V30 9449 H 917.011 1.43146 -1.31974 0
M  V30 9450 H 915.182 3.8405 -0.579699 0
M  V30 9451 H 916.914 3.96887 -0.791369 0
M  V30 9452 H 913.669 3.81615 -2.80476 0
M  V30 9453 H 914.093 4.06461 -5.41404 0
M  V30 9454 H 918.735 3.33018 -2.60497 0
M  V30 9455 H 916.453 4.03619 -7.00084 0
M  V30 9456 H 920.039 3.42286 -4.70459 0
M  V30 9457 H 918.919 3.7733 -6.87453 0
M  V30 9458 N 916.422 0.810101 1.35185 0
M  V30 9459 C 917.352 0.237453 2.32289 0
M  V30 9460 C 918.333 -0.639032 1.5764 0
M  V30 9461 O 919.518 -0.568575 1.8569 0
M  V30 9462 C 916.648 -0.611964 3.41866 0
M  V30 9463 C 915.602 0.166318 4.27677 0
M  V30 9464 C 914.928 -0.805024 5.28605 0
M  V30 9465 C 916.228 1.36729 5.04086 0
M  V30 9466 H 917.922 1.04874 2.80432 0
M  V30 9467 H 915.468 0.505751 1.34826 0
M  V30 9468 H 917.421 -1.02267 4.08802 0
M  V30 9469 H 916.145 -1.45617 2.92341 0
M  V30 9470 H 914.804 0.558238 3.62325 0
M  V30 9471 H 914.452 -1.64483 4.75347 0
M  V30 9472 H 914.152 -0.288577 5.86891 0
M  V30 9473 H 915.676 -1.21386 5.98413 0
M  V30 9474 H 917.09 1.03128 5.63948 0
M  V30 9475 H 915.487 1.81848 5.71884 0
M  V30 9476 H 916.557 2.15214 4.34524 0
M  V30 9477 N 917.9 -1.47166 0.563914 0
M  V30 9478 C 919.14 -2.04351 0.0448121 0
M  V30 9479 C 919.504 -1.42808 -1.28336 0
M  V30 9480 O 920.705 -1.91079 -1.89056 0
M  V30 9481 C 918.976 -3.57378 -0.0395795 0
M  V30 9482 S 920.535 -4.35898 -0.503833 0
M  V30 9483 H 917.353 -0.710433 0.0283795 0
M  V30 9484 H 919.955 -1.80451 0.752166 0
M  V30 9485 H 918.659 -3.99693 0.931326 0
M  V30 9486 H 918.19 -3.85785 -0.770282 0
M  V30 9487 H 920.205 -4.63852 -1.76225 0
M  V30 9488 N 919.378 -0.300708 -1.54705 0
M  V30 9489 C 920.626 0.308044 -1.99739 0
M  V30 9490 C 920.947 1.54433 -1.19061 0
M  V30 9491 O 920.217 1.93794 -0.286507 0
M  V30 9492 H 918.797 0.116811 -0.73781 0
M  V30 9493 H 921.459 -0.41197 -1.90496 0
M  V30 9494 H 920.555 0.580287 -3.06658 0
M  V30 9495 N 920.856 1.57574 -0.0284266 0
M  V30 9496 C 922.133 1.83064 0.688979 0
M  V30 9497 C 922.513 0.91219 1.90374 0
M  V30 9498 O 921.861 -0.0323672 2.28477 0
M  V30 9499 C 922.071 3.32262 1.06785 0
M  V30 9500 C 923.419 3.98717 1.45978 0
M  V30 9501 O 924.443 3.36753 1.16085 0
M  V30 9502 O 923.302 5.07927 2.01673 0
M  V30 9503 H 920.396 0.7548 0.337944 0
M  V30 9504 H 922.942 1.69607 -0.0560555 0
M  V30 9505 H 921.714 3.90772 0.203235 0
M  V30 9506 H 921.337 3.50823 1.87107 0
M  V30 9507 N 922.334 -0.244713 1.55689 0
M  V30 9508 C 923.58 -0.973886 1.77886 0
M  V30 9509 C 923.913 -1.8489 0.594071 0
M  V30 9510 O 923.188 -1.90182 -0.407564 0
M  V30 9511 C 923.471 -1.83255 3.09983 0
M  V30 9512 C 923.324 -0.985571 4.3887 0
M  V30 9513 C 924.643 -2.81464 3.38329 0
M  V30 9514 H 921.762 -0.352629 0.647165 0
M  V30 9515 H 924.404 -0.244243 1.88424 0
M  V30 9516 H 922.554 -2.45464 3.01131 0
M  V30 9517 H 924.226 -0.382005 4.59716 0
M  V30 9518 H 922.469 -0.29002 4.32829 0
M  V30 9519 H 923.14 -1.62022 5.27686 0
M  V30 9520 H 925.616 -2.2939 3.47159 0
M  V30 9521 H 924.492 -3.38663 4.31971 0
M  V30 9522 H 924.753 -3.58037 2.59349 0
M  V30 9523 N 923.813 -1.49104 -0.510467 0
M  V30 9524 C 925.059 -1.59322 -1.26444 0
M  V30 9525 C 925.414 -0.27219 -1.90465 0
M  V30 9526 O 924.707 0.726762 -1.77281 0
M  V30 9527 C 924.901 -2.68259 -2.36161 0
M  V30 9528 C 924.73 -4.10827 -1.82897 0
M  V30 9529 C 923.5 -4.77732 -1.64623 0
M  V30 9530 C 925.698 -4.96367 -1.34625 0
M  V30 9531 N 923.68 -6.04646 -1.06189 0
M  V30 9532 C 925.051 -6.13685 -0.882656 0
M  V30 9533 C 927.106 -4.8244 -1.2311 0
M  V30 9534 C 925.809 -7.18609 -0.315306 0
M  V30 9535 C 927.835 -5.87504 -0.677726 0
M  V30 9536 C 927.197 -7.04043 -0.224308 0
M  V30 9537 H 923.296 -0.637429 -0.453 0
M  V30 9538 H 925.88 -1.8607 -0.573237 0
M  V30 9539 H 924.051 -2.433 -3.02753 0
M  V30 9540 H 925.783 -2.68052 -3.032 0
M  V30 9541 H 922.538 -4.34377 -1.88716 0
M  V30 9542 H 922.962 -6.72383 -0.78927 0
M  V30 9543 H 927.604 -3.92663 -1.56766 0
M  V30 9544 H 925.322 -8.08093 0.0335425 0
M  V30 9545 H 928.908 -5.78785 -0.591535 0
M  V30 9546 H 927.788 -7.83952 0.197212 0
M  V30 9547 N 925.291 0.760815 -1.38019 0
M  V30 9548 C 926.707 1.06289 -1.19058 0
M  V30 9549 C 926.907 2.01471 -0.0342603 0
M  V30 9550 O 925.963 2.44713 0.62224 0
M  V30 9551 C 927.276 1.6499 -2.51394 0
M  V30 9552 C 928.824 1.77196 -2.58013 0
M  V30 9553 C 929.299 2.3931 -3.90506 0
M  V30 9554 N 930.79 2.46749 -3.92007 0
M  V30 9555 C 931.525 2.95687 -4.91281 0
M  V30 9556 N 931.021 3.44715 -6.00952 0
M  V30 9557 N 932.814 2.94661 -4.78677 0
M  V30 9558 H 924.965 0.129045 -2.12008 0
M  V30 9559 H 927.228 0.119878 -0.94039 0
M  V30 9560 H 926.934 1.0252 -3.36426 0
M  V30 9561 H 926.808 2.64146 -2.6927 0
M  V30 9562 H 929.195 2.38796 -1.7338 0
M  V30 9563 H 929.276 0.767645 -2.4401 0
M  V30 9564 H 928.92 1.78346 -4.75558 0
M  V30 9565 H 928.85 3.40369 -4.01817 0
M  V30 9566 H 931.341 2.12064 -3.12789 0
M  V30 9567 H 931.654 3.80492 -6.72641 0
M  V30 9568 H 929.999 3.42791 -6.04582 0
M  V30 9569 H 933.19 2.55665 -3.92113 0
M  V30 9570 H 933.363 3.32489 -5.56197 0
M  V30 9571 N 926.769 1.22769 0.988202 0
M  V30 9572 C 927.679 1.01844 2.11341 0
M  V30 9573 C 928.695 -0.0346937 1.73965 0
M  V30 9574 O 929.871 0.159061 2.00771 0
M  V30 9575 C 926.936 0.603837 3.41401 0
M  V30 9576 C 925.997 1.73113 3.92849 0
M  V30 9577 C 925.23 1.33621 5.16702 0
M  V30 9578 O 925.453 0.217041 5.69987 0
M  V30 9579 O 924.387 2.15444 5.62021 0
M  V30 9580 H 928.213 1.96127 2.31879 0
M  V30 9581 H 925.798 1.01405 1.09715 0
M  V30 9582 H 927.68 0.383196 4.19654 0
M  V30 9583 H 926.355 -0.310082 3.22211 0
M  V30 9584 H 925.262 2.00634 3.15748 0
M  V30 9585 H 926.595 2.62308 4.1648 0
M  V30 9586 N 928.247 -1.18576 1.03814 0
M  V30 9587 C 929.475 -1.92437 0.759966 0
M  V30 9588 C 929.89 -1.76031 -0.682526 0
M  V30 9589 O 929.247 -1.08829 -1.46501 0
M  V30 9590 C 929.298 -3.43923 1.11351 0
M  V30 9591 O 929.019 -3.5981 2.49937 0
M  V30 9592 C 930.52 -4.34888 0.859472 0
M  V30 9593 H 927.74 -0.610998 0.277349 0
M  V30 9594 H 930.284 -1.50448 1.38512 0
M  V30 9595 H 928.439 -3.83711 0.533362 0
M  V30 9596 H 928.853 -4.53569 2.63393 0
M  V30 9597 H 930.327 -5.39744 1.15672 0
M  V30 9598 H 930.804 -4.38717 -0.205839 0
M  V30 9599 H 931.41 -4.00795 1.42279 0
M  V30 9600 N 929.725 -0.817259 -1.34754 0
M  V30 9601 C 931.141 -0.502309 -1.51489 0
M  V30 9602 C 931.341 0.974568 -1.76364 0
M  V30 9603 O 930.397 1.75924 -1.81127 0
M  V30 9604 C 931.71 -1.35693 -2.68343 0
M  V30 9605 C 933.258 -1.35347 -2.82224 0
M  V30 9606 C 933.733 -2.19244 -4.02114 0
M  V30 9607 N 935.224 -2.16837 -4.09311 0
M  V30 9608 C 935.959 -2.78505 -5.01221 0
M  V30 9609 N 935.455 -3.4914 -5.98392 0
M  V30 9610 N 937.248 -2.68089 -4.94049 0
M  V30 9611 H 929.399 -1.77359 -1.16866 0
M  V30 9612 H 931.662 -0.755476 -0.572678 0
M  V30 9613 H 931.368 -2.40548 -2.56573 0
M  V30 9614 H 931.242 -1.01764 -3.63213 0
M  V30 9615 H 933.629 -0.312727 -2.93438 0
M  V30 9616 H 933.71 -1.7327 -1.88179 0
M  V30 9617 H 933.354 -3.23365 -3.9166 0
M  V30 9618 H 933.284 -1.78675 -4.95361 0
M  V30 9619 H 935.775 -1.65452 -3.39756 0
M  V30 9620 H 936.088 -3.93455 -6.65141 0
M  V30 9621 H 934.433 -3.53246 -5.98533 0
M  V30 9622 H 937.624 -2.12485 -4.17094 0
M  V30 9623 H 937.797 -3.16436 -5.65484 0
M  V30 9624 N 931.203 1.46865 -0.571711 0
M  V30 9625 C 932.166 2.28658 0.157499 0
M  V30 9626 C 933.166 1.37773 0.829172 0
M  V30 9627 O 934.356 1.6026 0.682811 0
M  V30 9628 C 931.488 3.17859 1.23202 0
M  V30 9629 H 932.681 2.94603 -0.561171 0
M  V30 9630 H 930.234 1.52793 -0.329229 0
M  V30 9631 H 930.969 2.56637 1.98262 0
M  V30 9632 H 930.754 3.84762 0.755031 0
M  V30 9633 H 932.244 3.7945 1.74378 0
M  V30 9634 N 932.681 0.308908 1.54543 0
M  V30 9635 C 933.628 -0.563659 2.23811 0
M  V30 9636 C 934.598 -1.12332 1.22355 0
M  V30 9637 O 935.783 -1.16638 1.50997 0
M  V30 9638 C 932.923 -1.72585 2.98845 0
M  V30 9639 C 932.036 -1.19682 4.1509 0
M  V30 9640 C 931.171 -2.32351 4.77688 0
M  V30 9641 C 930.21 -1.76623 5.86064 0
M  V30 9642 N 929.347 -2.82896 6.42584 0
M  V30 9643 H 934.187 0.0336288 2.97981 0
M  V30 9644 H 931.724 0.0283666 1.47073 0
M  V30 9645 H 933.682 -2.40951 3.40586 0
M  V30 9646 H 932.312 -2.29464 2.27037 0
M  V30 9647 H 931.364 -0.405173 3.78236 0
M  V30 9648 H 932.676 -0.748923 4.93146 0
M  V30 9649 H 931.83 -3.0865 5.22322 0
M  V30 9650 H 930.569 -2.80472 3.98982 0
M  V30 9651 H 929.574 -0.988171 5.40847 0
M  V30 9652 H 930.799 -1.29398 6.66658 0
M  V30 9653 H 928.745 -3.30336 5.66758 0
M  V30 9654 H 928.662 -2.42626 7.16009 0
M  V30 9655 H 929.93 -3.59068 6.91875 0
M  V30 9656 N 934.159 -1.57557 0.0367827 0
M  V30 9657 C 935.089 -2.13712 -0.940719 0
M  V30 9658 C 936.07 -1.05515 -1.33419 0
M  V30 9659 O 937.255 -1.33385 -1.41146 0
M  V30 9660 C 934.385 -2.67043 -2.22048 0
M  V30 9661 C 933.339 -3.80096 -1.96752 0
M  V30 9662 C 932.665 -4.19886 -3.31059 0
M  V30 9663 C 933.965 -5.05848 -1.30058 0
M  V30 9664 H 935.659 -2.9564 -0.473033 0
M  V30 9665 H 933.205 -1.42214 -0.226089 0
M  V30 9666 H 935.158 -3.04964 -2.90818 0
M  V30 9667 H 933.882 -1.82287 -2.70996 0
M  V30 9668 H 932.541 -3.42625 -1.30398 0
M  V30 9669 H 932.189 -3.32101 -3.77781 0
M  V30 9670 H 931.889 -4.96073 -3.14937 0
M  V30 9671 H 933.413 -4.60395 -4.01084 0
M  V30 9672 H 934.827 -5.41306 -1.8884 0
M  V30 9673 H 933.224 -5.87084 -1.24309 0
M  V30 9674 H 934.294 -4.84122 -0.274591 0
M  V30 9675 N 935.637 0.236453 -1.55816 0
M  V30 9676 C 937.053 0.585465 -1.48474 0
M  V30 9677 C 937.253 1.8785 -0.72902 0
M  V30 9678 O 936.309 2.51131 -0.262614 0
M  V30 9679 C 937.622 0.678506 -2.92945 0
M  V30 9680 C 939.17 0.770135 -3.03378 0
M  V30 9681 C 939.645 0.894649 -4.49177 0
M  V30 9682 N 941.136 0.959253 -4.53158 0
M  V30 9683 C 941.871 1.07505 -5.63232 0
M  V30 9684 N 941.367 1.15572 -6.83092 0
M  V30 9685 N 943.16 1.10902 -5.51051 0
M  V30 9686 H 935.311 -0.612241 -2.03385 0
M  V30 9687 H 937.574 -0.212796 -0.923808 0
M  V30 9688 H 937.28 -0.201757 -3.51121 0
M  V30 9689 H 937.154 1.54703 -3.44016 0
M  V30 9690 H 939.541 1.64085 -2.45276 0
M  V30 9691 H 939.622 -0.123753 -2.555 0
M  V30 9692 H 939.266 0.0284537 -5.07892 0
M  V30 9693 H 939.196 1.80373 -4.94745 0
M  V30 9694 H 941.687 0.907827 -3.66834 0
M  V30 9695 H 942 1.24343 -7.62731 0
M  V30 9696 H 940.345 1.12511 -6.85833 0
M  V30 9697 H 943.536 1.04255 -4.56343 0
M  V30 9698 H 943.709 1.19581 -6.36871 0
M  V30 9699 N 937.115 1.49373 0.502552 0
M  V30 9700 C 938.363 1.58467 1.25429 0
M  V30 9701 C 938.684 0.272593 1.93085 0
M  V30 9702 O 937.954 -0.707947 1.82661 0
M  V30 9703 H 936.534 0.583866 0.46595 0
M  V30 9704 H 939.196 1.8599 0.582568 0
M  V30 9705 H 938.292 2.37993 2.01906 0
M  V30 9706 N 938.594 -0.753485 1.38421 0
M  V30 9707 C 939.843 -1.50797 1.33952 0
M  V30 9708 C 940.156 -1.95482 -0.0678464 0
M  V30 9709 O 941.362 -2.7048 -0.235078 0
M  V30 9710 C 939.818 -2.72393 2.35224 0
M  V30 9711 C 939.426 -2.34733 3.81582 0
M  V30 9712 C 941.17 -3.50281 2.39798 0
M  V30 9713 C 939.077 -3.52939 4.7454 0
M  V30 9714 H 938.007 -0.566211 0.497916 0
M  V30 9715 H 940.658 -0.823659 1.63976 0
M  V30 9716 H 939.04 -3.42806 1.98243 0
M  V30 9717 H 940.214 -1.71985 4.27502 0
M  V30 9718 H 938.529 -1.69978 3.80127 0
M  V30 9719 H 941.126 -4.38172 3.06447 0
M  V30 9720 H 941.469 -3.91444 1.41695 0
M  V30 9721 H 942.002 -2.86881 2.75579 0
M  V30 9722 H 938.741 -3.16843 5.73839 0
M  V30 9723 H 938.261 -4.1473 4.33312 0
M  V30 9724 H 939.94 -4.19519 4.92557 0
M  V30 9725 N 940.072 -1.23292 -0.981677 0
M  V30 9726 C 941.318 -1.06582 -1.72535 0
M  V30 9727 C 941.651 0.396538 -1.90108 0
M  V30 9728 O 940.926 1.29363 -1.45243 0
M  V30 9729 C 941.209 -1.7904 -3.12437 0
M  V30 9730 C 941.062 -3.32941 -3.02441 0
M  V30 9731 C 942.381 -1.55185 -4.11832 0
M  V30 9732 H 939.5 -0.388585 -0.626236 0
M  V30 9733 H 942.142 -1.51779 -1.14293 0
M  V30 9734 H 940.292 -1.40619 -3.62158 0
M  V30 9735 H 941.964 -3.80875 -2.60254 0
M  V30 9736 H 940.207 -3.62039 -2.38977 0
M  V30 9737 H 940.878 -3.78827 -4.0149 0
M  V30 9738 H 943.354 -1.88581 -3.70913 0
M  V30 9739 H 942.23 -2.08362 -5.07815 0
M  V30 9740 H 942.491 -0.486925 -4.3941 0
M  V30 9741 N 941.55 1.18024 -1.04442 0
M  V30 9742 C 942.827 1.8398 -0.664125 0
M  V30 9743 C 943.207 1.92961 0.856116 0
M  V30 9744 O 942.555 1.45839 1.75907 0
M  V30 9745 C 942.765 3.22069 -1.34433 0
M  V30 9746 C 944.113 3.98063 -1.47754 0
M  V30 9747 O 945.137 3.31523 -1.30274 0
M  V30 9748 O 943.996 5.17291 -1.76272 0
M  V30 9749 H 941.09 0.793543 -0.23285 0
M  V30 9750 H 943.636 1.25385 -1.14354 0
M  V30 9751 H 942.408 3.10458 -2.38184 0
M  V30 9752 H 942.031 3.88325 -0.853782 0
M  V30 9753 N 943.028 0.824394 1.34319 0
M  V30 9754 C 944.253 0.425194 2.02995 0
M  V30 9755 C 944.678 -0.961476 1.6167 0
M  V30 9756 O 944.036 -1.62593 0.80207 0
M  V30 9757 C 944.084 0.537004 3.56579 0
M  V30 9758 O 943.188 -0.442576 4.10018 0
M  V30 9759 H 942.529 0.174853 0.640564 0
M  V30 9760 H 945.059 1.11522 1.71534 0
M  V30 9761 H 945.069 0.413311 4.05901 0
M  V30 9762 H 943.744 1.54836 3.86004 0
M  V30 9763 H 942.321 -0.277644 3.71865 0
M  V30 9764 N 944.506 -1.46559 0.579492 0
M  V30 9765 C 945.453 -2.30275 -0.155598 0
M  V30 9766 C 946.423 -1.40422 -0.887175 0
M  V30 9767 O 947.608 -1.69373 -0.878481 0
M  V30 9768 C 944.748 -3.24827 -1.16539 0
M  V30 9769 C 943.861 -4.29778 -0.43759 0
M  V30 9770 C 942.996 -5.11461 -1.43462 0
M  V30 9771 C 942.035 -6.08164 -0.693048 0
M  V30 9772 N 941.172 -6.82726 -1.63799 0
M  V30 9773 H 946.012 -2.92607 0.564356 0
M  V30 9774 H 943.549 -1.44211 0.290126 0
M  V30 9775 H 945.507 -3.78088 -1.76368 0
M  V30 9776 H 944.137 -2.64311 -1.8531 0
M  V30 9777 H 943.189 -3.794 0.27567 0
M  V30 9778 H 944.501 -4.98597 0.142298 0
M  V30 9779 H 943.655 -5.68982 -2.1058 0
M  V30 9780 H 942.394 -4.42595 -2.04844 0
M  V30 9781 H 941.399 -5.49799 -0.00807093 0
M  V30 9782 H 942.624 -6.79047 -0.0846678 0
M  V30 9783 H 940.57 -6.16572 -2.23997 0
M  V30 9784 H 940.487 -7.47795 -1.11082 0
M  V30 9785 H 941.755 -7.44807 -2.29962 0
M  V30 9786 N 945.984 -0.3171 -1.54377 0
M  V30 9787 C 947.214 0.289138 -2.04567 0
M  V30 9788 C 947.622 1.46833 -1.19318 0
M  V30 9789 O 946.965 1.82436 -0.215141 0
M  V30 9790 C 947.027 0.792994 -3.50645 0
M  V30 9791 C 946.691 -0.263033 -4.56242 0
M  V30 9792 C 947.688 -1.09694 -5.08196 0
M  V30 9793 C 945.373 -0.409364 -5.00629 0
M  V30 9794 C 947.367 -2.06297 -6.03092 0
M  V30 9795 C 945.054 -1.37882 -5.95342 0
M  V30 9796 C 946.052 -2.20409 -6.46459 0
M  V30 9797 O 945.74 -3.15708 -7.39313 0
M  V30 9798 H 945.472 0.0644005 -0.672925 0
M  V30 9799 H 948.026 -0.459438 -2.00196 0
M  V30 9800 H 946.256 1.59237 -3.52392 0
M  V30 9801 H 947.945 1.31687 -3.83944 0
M  V30 9802 H 948.711 -0.994842 -4.74687 0
M  V30 9803 H 944.59 0.223091 -4.6046 0
M  V30 9804 H 948.134 -2.70751 -6.42915 0
M  V30 9805 H 944.031 -1.48158 -6.28267 0
M  V30 9806 H 944.799 -3.10873 -7.57166 0
M  V30 9807 N 947.462 1.57535 -0.0451378 0
M  V30 9808 C 948.709 1.92451 0.629987 0
M  V30 9809 C 949.037 0.92298 1.71206 0
M  V30 9810 O 948.292 -0.0656626 1.9559 0
M  V30 9811 C 948.591 3.34065 1.27024 0
M  V30 9812 C 948.257 4.49785 0.316971 0
M  V30 9813 C 946.919 4.81169 0.0546406 0
M  V30 9814 C 949.271 5.20111 -0.336693 0
M  V30 9815 C 946.599 5.8023 -0.86889 0
M  V30 9816 C 948.951 6.2016 -1.24838 0
M  V30 9817 C 947.615 6.49976 -1.51944 0
M  V30 9818 H 946.885 0.704228 0.230529 0
M  V30 9819 H 949.532 1.91182 -0.110328 0
M  V30 9820 H 947.837 3.31672 2.08568 0
M  V30 9821 H 949.534 3.58359 1.79945 0
M  V30 9822 H 946.124 4.2529 0.531614 0
M  V30 9823 H 950.308 4.96082 -0.147105 0
M  V30 9824 H 945.564 6.0167 -1.08643 0
M  V30 9825 H 949.738 6.73767 -1.76098 0
M  V30 9826 H 947.365 7.26551 -2.2367 0
M  V30 9827 N 948.94 -0.228186 1.55939 0
M  V30 9828 C 949.888 -1.30239 1.92719 0
M  V30 9829 C 950.882 -1.48865 0.808424 0
M  V30 9830 O 952.088 -1.50118 0.993204 0
M  V30 9831 H 948.463 -0.436509 0.612343 0
M  V30 9832 H 950.434 -0.964965 2.82367 0
M  V30 9833 C 949.183 -2.647 2.25453 0
M  V30 9834 H 948.506 -2.51173 3.1105 0
M  V30 9835 H 949.946 -3.38691 2.55077 0
M  V30 9836 C 948.405 -3.1921 1.07734 0
M  V30 9837 O 948.935 -4.00301 0.335019 0
M  V30 9838 N 947.141 -2.77492 0.862938 0
M  V30 9839 H 946.688 -2.11657 1.4683 0
M  V30 9840 H 946.646 -3.14306 0.0770119 0
M  V30 9841 N 950.418 -1.49637 -0.494624 0
M  V30 9842 C 951.834 -1.36541 -0.826361 0
M  V30 9843 C 952.034 -0.403386 -1.97421 0
M  V30 9844 O 951.09 0.162614 -2.51976 0
M  V30 9845 C 952.403 -2.77401 -1.16057 0
M  V30 9846 C 953.951 -2.86148 -1.26841 0
M  V30 9847 C 954.426 -4.27789 -1.63587 0
M  V30 9848 N 955.917 -4.3063 -1.70624 0
M  V30 9849 C 956.652 -5.37198 -2.00514 0
M  V30 9850 N 956.148 -6.54004 -2.28584 0
M  V30 9851 N 957.941 -5.2462 -2.01818 0
M  V30 9852 H 950.092 -2.10776 0.26219 0
M  V30 9853 H 952.355 -0.946419 0.0547235 0
M  V30 9854 H 952.061 -3.49526 -0.390434 0
M  V30 9855 H 951.935 -3.1317 -2.10249 0
M  V30 9856 H 954.322 -2.14256 -2.02925 0
M  V30 9857 H 954.403 -2.53953 -0.30684 0
M  V30 9858 H 954.047 -5.00209 -0.880507 0
M  V30 9859 H 953.977 -4.57453 -2.60854 0
M  V30 9860 H 956.468 -3.46393 -1.51065 0
M  V30 9861 H 956.781 -7.31041 -2.50598 0
M  V30 9862 H 955.126 -6.57219 -2.26027 0
M  V30 9863 H 958.317 -4.32371 -1.79369 0
M  V30 9864 H 958.49 -6.07765 -2.24778 0
M  V30 9865 N 951.896 0.746133 -1.38819 0
M  V30 9866 C 953.144 1.50247 -1.35167 0
M  V30 9867 C 953.465 1.94921 0.0553531 0
M  V30 9868 O 952.735 1.68187 1.00449 0
M  V30 9869 H 951.315 0.557337 -0.497377 0
M  V30 9870 H 953.977 0.886472 -1.73573 0
M  V30 9871 H 953.073 2.38986 -2.00728 0
M  V30 9872 N 953.375 1.23811 0.975125 0
M  V30 9873 C 954.624 1.06741 1.71141 0
M  V30 9874 C 954.937 -0.394986 1.9157 0
M  V30 9875 O 956.143 -0.685723 2.62698 0
M  V30 9876 C 954.599 1.86168 3.08009 0
M  V30 9877 C 954.207 3.36771 2.95448 0
M  V30 9878 C 955.951 1.77604 3.85561 0
M  V30 9879 C 953.858 4.0857 4.2758 0
M  V30 9880 H 952.788 0.395819 0.64175 0
M  V30 9881 H 955.439 1.47825 1.0872 0
M  V30 9882 H 953.821 1.37893 3.71216 0
M  V30 9883 H 954.995 3.92571 2.41298 0
M  V30 9884 H 953.31 3.46205 2.31368 0
M  V30 9885 H 955.907 2.28556 4.83391 0
M  V30 9886 H 956.25 0.739837 4.09673 0
M  V30 9887 H 956.783 2.23519 3.29065 0
M  V30 9888 H 953.522 5.12518 4.08663 0
M  V30 9889 H 953.042 3.57556 4.81574 0
M  V30 9890 H 954.721 4.15157 4.9624 0
M  V30 9891 N 954.853 -1.17469 1.05066 0
M  V30 9892 C 955.786 -2.2031 0.594863 0
M  V30 9893 C 956.764 -1.58196 -0.375878 0
M  V30 9894 O 957.948 -1.8629 -0.287798 0
M  V30 9895 C 955.075 -3.38452 -0.129614 0
M  V30 9896 C 954.121 -4.19007 0.795943 0
M  V30 9897 S 954.954 -4.8433 2.28441 0
M  V30 9898 C 956.11 -6.05862 1.57107 0
M  V30 9899 H 956.343 -2.58632 1.46618 0
M  V30 9900 H 953.876 -1.28063 0.862511 0
M  V30 9901 H 955.834 -4.06914 -0.541416 0
M  V30 9902 H 954.495 -2.98521 -0.976948 0
M  V30 9903 H 953.688 -5.0345 0.235396 0
M  V30 9904 H 953.29 -3.55976 1.14705 0
M  V30 9905 H 955.582 -6.71895 0.86969 0
M  V30 9906 H 956.525 -6.66442 2.39292 0
M  V30 9907 H 956.933 -5.54477 1.05903 0
M  V30 9908 N 956.331 -0.831506 -1.3388 0
M  V30 9909 C 957.264 -0.2046 -2.27281 0
M  V30 9910 C 958.242 0.643992 -1.49303 0
M  V30 9911 O 959.426 0.605863 -1.78498 0
M  V30 9912 C 956.553 0.713409 -3.31101 0
M  V30 9913 C 955.599 -0.0587654 -4.2646 0
M  V30 9914 S 956.432 -1.41172 -5.16557 0
M  V30 9915 C 957.588 -0.498807 -6.23909 0
M  V30 9916 H 957.821 -0.996442 -2.80104 0
M  V30 9917 H 955.354 -0.62786 -1.41058 0
M  V30 9918 H 957.312 1.23748 -3.91403 0
M  V30 9919 H 955.973 1.47885 -2.77108 0
M  V30 9920 H 955.166 0.639466 -4.99927 0
M  V30 9921 H 954.768 -0.513665 -3.70456 0
M  V30 9922 H 957.06 0.306268 -6.76807 0
M  V30 9923 H 958.003 -1.20342 -6.97799 0
M  V30 9924 H 958.411 -0.0834242 -5.64438 0
M  V30 9925 N 957.809 1.4625 -0.587256 0
M  V30 9926 C 958.772 2.28812 0.133238 0
M  V30 9927 C 959.772 1.38645 0.814513 0
M  V30 9928 O 960.962 1.60975 0.665774 0
M  V30 9929 C 958.094 3.19147 1.19824 0
M  V30 9930 H 959.287 2.93991 -0.592386 0
M  V30 9931 H 956.84 1.52435 -0.345416 0
M  V30 9932 H 957.575 2.58725 1.95529 0
M  V30 9933 H 957.36 3.85541 0.71418 0
M  V30 9934 H 958.85 3.81278 1.70344 0
M  V30 9935 N 959.287 0.325282 1.54207 0
M  V30 9936 C 960.536 -0.27768 1.99779 0
M  V30 9937 C 960.849 -1.5311 1.21723 0
M  V30 9938 O 962.055 -2.21017 1.57682 0
M  V30 9939 C 960.511 -0.545329 3.55745 0
M  V30 9940 C 960.119 0.691143 4.42637 0
M  V30 9941 C 961.863 -1.10815 4.09781 0
M  V30 9942 C 959.77 0.395302 5.90077 0
M  V30 9943 H 958.7 -0.107536 0.746292 0
M  V30 9944 H 961.351 0.437773 1.78202 0
M  V30 9945 H 959.733 -1.32101 3.73317 0
M  V30 9946 H 960.907 1.46653 4.3684 0
M  V30 9947 H 959.222 1.1743 3.99499 0
M  V30 9948 H 961.819 -1.34414 5.1753 0
M  V30 9949 H 962.162 -2.05806 3.6187 0
M  V30 9950 H 962.695 -0.393608 3.95848 0
M  V30 9951 H 959.434 1.31443 6.42186 0
M  V30 9952 H 958.954 -0.34235 5.98822 0
M  V30 9953 H 960.633 0.00576877 6.47 0
M  V30 9954 N 960.765 -1.57509 0.0534917 0
M  V30 9955 C 961.695 -2.14698 -0.917999 0
M  V30 9956 C 962.676 -1.06924 -1.32292 0
M  V30 9957 O 963.861 -1.34875 -1.39723 0
M  V30 9958 C 960.991 -2.69383 -2.19203 0
M  V30 9959 C 959.945 -3.82161 -1.9271 0
M  V30 9960 C 959.271 -4.23373 -3.26587 0
M  V30 9961 C 960.571 -5.07199 -1.24686 0
M  V30 9962 H 962.265 -2.96125 -0.44165 0
M  V30 9963 H 959.811 -1.42446 -0.210993 0
M  V30 9964 H 961.764 -3.08031 -2.87567 0
M  V30 9965 H 960.488 -1.85151 -2.69048 0
M  V30 9966 H 959.147 -3.43989 -1.26757 0
M  V30 9967 H 958.795 -3.36089 -3.74237 0
M  V30 9968 H 958.495 -4.99385 -3.09658 0
M  V30 9969 H 960.019 -4.64623 -3.96178 0
M  V30 9970 H 961.433 -5.43279 -1.83088 0
M  V30 9971 H 959.83 -5.88369 -1.18076 0
M  V30 9972 H 960.9 -4.84386 -0.223227 0
M  V30 9973 N 962.243 0.219913 -1.56058 0
M  V30 9974 C 963.489 0.945463 -1.79412 0
M  V30 9975 C 963.822 1.83922 -0.62341 0
M  V30 9976 O 963.097 1.90806 0.377256 0
M  V30 9977 C 963.38 1.783 -3.1286 0
M  V30 9978 C 963.233 0.915626 -4.40382 0
M  V30 9979 C 964.552 2.76045 -3.42764 0
M  V30 9980 H 961.671 0.342288 -0.652693 0
M  V30 9981 H 964.313 0.214235 -1.88788 0
M  V30 9982 H 962.463 2.40642 -3.04998 0
M  V30 9983 H 964.135 0.30882 -4.60265 0
M  V30 9984 H 962.378 0.221124 -4.33236 0
M  V30 9985 H 963.049 1.53607 -5.30197 0
M  V30 9986 H 965.525 2.23838 -3.50764 0
M  V30 9987 H 964.401 3.31748 -4.37304 0
M  V30 9988 H 964.662 3.53866 -2.65012 0
M  V30 9989 N 963.721 1.49897 0.486681 0
M  V30 9990 C 964.669 1.68125 1.60738 0
M  V30 9991 C 965.663 0.547097 1.60322 0
M  V30 9992 O 966.869 0.727153 1.64659 0
M  V30 9993 H 963.244 0.530391 0.533094 0
M  V30 9994 H 965.215 2.62165 1.42521 0
M  V30 9995 C 963.964 1.77827 2.98786 0
M  V30 9996 H 963.287 2.6448 2.99818 0
M  V30 9997 H 964.727 1.94611 3.76699 0
M  V30 9998 C 963.186 0.526287 3.32764 0
M  V30 9999 O 963.716 -0.341607 4.00245 0
M  V30 10000 N 961.922 0.384947 2.88039 0
M  V30 10001 H 961.469 1.09222 2.33299 0
M  V30 10002 H 961.427 -0.451618 3.11139 0
M  V30 10003 N 965.199 -0.738761 1.39212 0
M  V30 10004 C 966.427 -1.52801 1.39497 0
M  V30 10005 C 966.842 -1.88797 -0.0114917 0
M  V30 10006 O 966.199 -1.53835 -0.981887 0
M  V30 10007 C 966.25 -2.81793 2.2644 0
M  V30 10008 O 965.971 -2.47328 3.61608 0
M  V30 10009 C 967.472 -3.75844 2.35067 0
M  V30 10010 H 964.692 -0.472322 0.476606 0
M  V30 10011 H 967.236 -0.913153 1.8298 0
M  V30 10012 H 965.391 -3.3962 1.8638 0
M  V30 10013 H 965.805 -3.30162 4.07545 0
M  V30 10014 H 967.279 -4.6326 3.00157 0
M  V30 10015 H 967.756 -4.17329 1.3687 0
M  V30 10016 H 968.362 -3.23937 2.75581 0
M  V30 10017 N 966.677 -1.24326 -0.968545 0
M  V30 10018 C 967.923 -1.08406 -1.71394 0
M  V30 10019 C 968.256 0.376353 -1.90518 0
M  V30 10020 O 967.531 1.27816 -1.46606 0
M  V30 10021 C 967.814 -1.82344 -3.1052 0
M  V30 10022 C 967.667 -3.3613 -2.98893 0
M  V30 10023 C 968.986 -1.59545 -4.10163 0
M  V30 10024 H 966.105 -0.395205 -0.622079 0
M  V30 10025 H 968.747 -1.52983 -1.12677 0
M  V30 10026 H 966.897 -1.44452 -3.60646 0
M  V30 10027 H 968.569 -3.83614 -2.56199 0
M  V30 10028 H 966.812 -3.64553 -2.35124 0
M  V30 10029 H 967.483 -3.83064 -3.97449 0
M  V30 10030 H 969.959 -1.92504 -3.68892 0
M  V30 10031 H 968.835 -2.13736 -5.05577 0
M  V30 10032 H 969.096 -0.533503 -4.38869 0
M  V30 10033 N 968.156 1.1691 -1.05688 0
M  V30 10034 C 969.381 1.91745 -0.790478 0
M  V30 10035 C 969.806 1.76568 0.648478 0
M  V30 10036 O 969.164 1.08682 1.45114 0
M  V30 10037 C 969.212 3.4067 -1.18222 0
M  V30 10038 O 968.316 4.11177 -0.317341 0
M  V30 10039 H 967.657 0.5976 -0.28943 0
M  V30 10040 H 970.187 1.48157 -1.41105 0
M  V30 10041 H 970.197 3.91424 -1.15114 0
M  V30 10042 H 968.872 3.51036 -2.2304 0
M  V30 10043 H 967.449 3.70645 -0.409459 0
M  V30 10044 N 969.634 0.838594 1.33437 0
M  V30 10045 C 970.567 0.216651 2.27169 0
M  V30 10046 C 971.545 -0.636065 1.49643 0
M  V30 10047 O 972.729 -0.596388 1.78817 0
M  V30 10048 C 969.856 -0.69584 3.31475 0
M  V30 10049 C 968.902 0.0813808 4.26422 0
M  V30 10050 S 969.735 1.43909 5.15801 0
M  V30 10051 C 970.891 0.531887 6.23636 0
M  V30 10052 H 971.124 1.01128 2.79572 0
M  V30 10053 H 968.657 0.635332 1.40723 0
M  V30 10054 H 970.615 -1.21671 3.92054 0
M  V30 10055 H 969.276 -1.46413 2.77888 0
M  V30 10056 H 968.469 -0.612944 5.00259 0
M  V30 10057 H 968.071 0.533304 3.70178 0
M  V30 10058 H 970.363 -0.270371 6.7696 0
M  V30 10059 H 971.306 1.24041 6.97151 0
M  V30 10060 H 971.714 0.113357 5.64386 0
M  V30 10061 N 971.112 -1.45937 0.595003 0
M  V30 10062 C 972.36 -2.01921 0.0851368 0
M  V30 10063 C 972.681 -1.46748 -1.28413 0
M  V30 10064 O 971.951 -0.656873 -1.84559 0
M  V30 10065 H 970.531 -0.746457 0.0284826 0
M  V30 10066 H 973.193 -1.78891 0.773561 0
M  V30 10067 H 972.289 -3.1209 0.0254002 0
M  V30 10068 N 972.59 -0.333456 -1.54032 0
M  V30 10069 C 973.839 0.267081 -1.99924 0
M  V30 10070 C 974.152 1.52463 -1.22534 0
M  V30 10071 O 975.358 2.20178 -1.58852 0
M  V30 10072 C 973.814 0.526456 -3.56029 0
M  V30 10073 C 973.422 -0.714607 -4.42264 0
M  V30 10074 C 975.166 1.0864 -4.10363 0
M  V30 10075 C 973.073 -0.42659 -5.89859 0
M  V30 10076 H 972.003 0.103577 -0.746852 0
M  V30 10077 H 974.654 -0.447218 -1.77967 0
M  V30 10078 H 973.036 1.3012 -3.74012 0
M  V30 10079 H 974.21 -1.48968 -4.36056 0
M  V30 10080 H 972.525 -1.19547 -3.9887 0
M  V30 10081 H 975.122 1.31668 -5.18235 0
M  V30 10082 H 975.465 2.03884 -3.62956 0
M  V30 10083 H 975.998 0.37261 -3.96051 0
M  V30 10084 H 972.737 -1.34847 -6.4148 0
M  V30 10085 H 972.257 0.310588 -5.98995 0
M  V30 10086 H 973.936 -0.0400807 -6.46988 0
M  V30 10087 N 974.068 1.57479 -0.061844 0
M  V30 10088 C 974.978 2.15645 0.923826 0
M  V30 10089 C 975.994 1.117 1.33413 0
M  V30 10090 O 977.17 1.4392 1.40887 0
M  V30 10091 C 974.235 2.69857 2.17665 0
M  V30 10092 C 973.296 3.88638 1.8237 0
M  V30 10093 C 972.529 4.40256 3.01679 0
M  V30 10094 O 972.752 3.90908 4.15388 0
M  V30 10095 O 971.686 5.31713 2.82073 0
M  V30 10096 H 975.512 3.0021 0.459094 0
M  V30 10097 H 973.097 1.48534 0.160665 0
M  V30 10098 H 974.979 3.04647 2.9115 0
M  V30 10099 H 973.654 1.88357 2.63255 0
M  V30 10100 H 972.561 3.58719 1.06167 0
M  V30 10101 H 973.894 4.71401 1.4157 0
M  V30 10102 N 975.546 -0.211634 1.56173 0
M  V30 10103 C 976.496 -1.26602 1.8962 0
M  V30 10104 C 977.48 -1.41808 0.760222 0
M  V30 10105 O 978.672 -1.44456 1.02281 0
M  V30 10106 C 975.801 -2.61438 2.22497 0
M  V30 10107 C 974.887 -2.50094 3.42511 0
M  V30 10108 N 975.278 -2.0841 4.60868 0
M  V30 10109 C 973.576 -2.81028 3.46322 0
M  V30 10110 C 974.277 -2.08557 5.43028 0
M  V30 10111 N 973.253 -2.49427 4.82998 0
M  V30 10112 H 977.055 -0.934806 2.78637 0
M  V30 10113 H 974.569 -0.420154 1.56871 0
M  V30 10114 H 976.566 -3.37577 2.44638 0
M  V30 10115 H 975.226 -2.95397 1.34798 0
M  V30 10116 H 976.237 -1.79382 4.85842 0
M  V30 10117 H 972.914 -3.19294 2.68994 0
M  V30 10118 H 974.304 -1.7837 6.47791 0
M  V30 10119 N 977.024 -1.50153 -0.478725 0
M  V30 10120 C 977.974 -1.64848 -1.57509 0
M  V30 10121 C 978.958 -0.503327 -1.52825 0
M  V30 10122 O 980.15 -0.75737 -1.59978 0
M  V30 10123 C 977.279 -1.73893 -2.96 0
M  V30 10124 C 976.365 -2.9406 -3.05597 0
M  V30 10125 N 976.756 -4.17844 -2.85027 0
M  V30 10126 C 975.054 -2.92459 -3.36725 0
M  V30 10127 C 975.755 -4.98739 -2.9939 0
M  V30 10128 N 974.731 -4.32542 -3.29255 0
M  V30 10129 H 978.533 -2.58254 -1.40293 0
M  V30 10130 H 976.047 -1.47232 -0.685307 0
M  V30 10131 H 978.044 -1.82523 -3.74821 0
M  V30 10132 H 976.704 -0.816402 -3.14269 0
M  V30 10133 H 977.715 -4.47465 -2.60759 0
M  V30 10134 H 974.392 -2.09675 -3.6103 0
M  V30 10135 H 975.782 -6.07146 -2.8779 0
M  V30 10136 N 978.502 0.731368 -1.39602 0
M  V30 10137 C 979.412 1.87579 -1.40894 0
M  V30 10138 C 980.428 1.71336 -0.303319 0
M  V30 10139 O 981.604 1.93875 -0.545377 0
M  V30 10140 C 978.669 3.23211 -1.25442 0
M  V30 10141 C 977.73 3.51822 -2.46008 0
M  V30 10142 C 976.963 4.80982 -2.31284 0
M  V30 10143 O 977.186 5.54958 -1.31824 0
M  V30 10144 O 976.12 5.09574 -3.20341 0
M  V30 10145 H 979.946 1.89444 -2.3737 0
M  V30 10146 H 977.531 0.879675 -1.20756 0
M  V30 10147 H 979.413 4.04257 -1.18972 0
M  V30 10148 H 978.088 3.22108 -0.320637 0
M  V30 10149 H 976.995 2.70847 -2.58055 0
M  V30 10150 H 978.328 3.57707 -3.38093 0
M  V30 10151 N 979.98 1.24838 0.961938 0
M  V30 10152 C 980.912 1.00369 2.06055 0
M  V30 10153 C 981.925 -0.0288583 1.62774 0
M  V30 10154 O 983.114 0.208853 1.77274 0
M  V30 10155 C 980.214 0.493953 3.35281 0
M  V30 10156 C 979.387 1.59097 4.07439 0
M  V30 10157 C 978.446 1.08288 5.14937 0
M  V30 10158 O 977.472 1.77577 5.40791 0
M  V30 10159 N 978.674 -0.0796836 5.80445 0
M  V30 10160 H 981.439 1.94962 2.27618 0
M  V30 10161 H 979 1.15945 1.12997 0
M  V30 10162 H 980.992 0.138675 4.04462 0
M  V30 10163 H 979.562 -0.357851 3.10545 0
M  V30 10164 H 978.782 2.11817 3.32456 0
M  V30 10165 H 980.07 2.32817 4.52409 0
M  V30 10166 H 979.468 -0.658827 5.6185 0
M  V30 10167 H 978.025 -0.376057 6.50714 0
M  V30 10168 N 981.458 -1.16348 1.06306 0
M  V30 10169 C 982.869 -1.68491 0.80422 0
M  V30 10170 C 983.22 -1.84327 -0.672159 0
M  V30 10171 O 982.345 -1.53892 -1.52139 0
M  V30 10172 C 982.94 -3.06048 1.45328 0
M  V30 10173 C 981.499 -3.55311 1.24221 0
M  V30 10174 C 980.646 -2.31291 1.5297 0
M  V30 10175 H 983.597 -1.00708 1.22652 0
M  V30 10176 H 983.618 -3.70451 0.868674 0
M  V30 10177 H 983.13 -2.9449 2.52779 0
M  V30 10178 H 981.231 -3.72128 0.187447 0
M  V30 10179 H 981.344 -4.37397 1.95502 0
M  V30 10180 H 979.708 -2.3631 0.950241 0
M  V30 10181 H 980.491 -2.22331 2.6158 0
M  V30 10182 N 982.937 -0.845659 -1.3299 0
M  V30 10183 C 983.847 -0.2864 -2.32845 0
M  V30 10184 C 984.863 0.591105 -1.63652 0
M  V30 10185 O 986.039 0.493615 -1.95257 0
M  V30 10186 C 983.104 0.523636 -3.42723 0
M  V30 10187 C 982.165 -0.378945 -4.27624 0
M  V30 10188 C 981.398 0.392526 -5.32255 0
M  V30 10189 O 981.621 1.6235 -5.46808 0
M  V30 10190 O 980.555 -0.237 -6.01433 0
M  V30 10191 H 984.381 -1.11346 -2.82552 0
M  V30 10192 H 981.966 -0.608356 -1.36453 0
M  V30 10193 H 983.848 0.983718 -4.09757 0
M  V30 10194 H 982.523 1.32764 -2.95221 0
M  V30 10195 H 981.43 -0.887012 -3.63432 0
M  V30 10196 H 982.763 -1.1479 -4.78627 0
M  V30 10197 N 984.415 1.45619 -0.602734 0
M  V30 10198 C 985.325 2.34288 0.120902 0
M  V30 10199 C 986.341 1.50952 0.865414 0
M  V30 10200 O 987.517 1.83768 0.824094 0
M  V30 10201 C 984.582 3.28489 1.10888 0
M  V30 10202 C 983.643 4.2773 0.366853 0
M  V30 10203 C 982.876 5.17429 1.30776 0
M  V30 10204 O 983.099 5.10459 2.54535 0
M  V30 10205 O 982.033 5.96459 0.807464 0
M  V30 10206 H 985.859 2.97559 -0.60765 0
M  V30 10207 H 983.444 1.44922 -0.363019 0
M  V30 10208 H 985.326 3.86549 1.67803 0
M  V30 10209 H 984.001 2.67789 1.81854 0
M  V30 10210 H 982.908 3.73299 -0.244643 0
M  V30 10211 H 984.241 4.91271 -0.302226 0
M  V30 10212 N 985.893 0.34162 1.53853 0
M  V30 10213 C 986.823 -0.508431 2.27897 0
M  V30 10214 C 987.804 -1.10425 1.29384 0
M  V30 10215 O 988.989 -1.126 1.58224 0
M  V30 10216 C 986.119 -1.66048 3.05034 0
M  V30 10217 C 985.073 -1.19309 4.11035 0
M  V30 10218 C 984.399 -2.4335 4.76114 0
M  V30 10219 C 985.699 -0.294952 5.21467 0
M  V30 10220 H 987.393 0.109251 2.99201 0
M  V30 10221 H 984.939 0.0539847 1.43899 0
M  V30 10222 H 986.892 -2.26158 3.5557 0
M  V30 10223 H 985.616 -2.30503 2.31379 0
M  V30 10224 H 984.275 -0.614809 3.61408 0
M  V30 10225 H 983.923 -3.06208 3.99056 0
M  V30 10226 H 983.623 -2.1276 5.47729 0
M  V30 10227 H 985.147 -3.0419 5.29434 0
M  V30 10228 H 986.561 -0.80285 5.67651 0
M  V30 10229 H 984.958 -0.0810221 6.00045 0
M  V30 10230 H 986.028 0.669433 4.80257 0
M  V30 10231 N 987.371 -1.57444 0.0701946 0
M  V30 10232 C 988.599 -1.97754 -0.608358 0
M  V30 10233 C 989.014 -0.948496 -1.63245 0
M  V30 10234 O 988.371 0.065046 -1.82384 0
M  V30 10235 C 988.422 -3.38142 -1.27836 0
M  V30 10236 O 988.143 -4.37104 -0.295255 0
M  V30 10237 C 989.644 -3.93318 -2.04489 0
M  V30 10238 H 986.864 -0.650398 -0.164997 0
M  V30 10239 H 989.408 -2.04006 0.142124 0
M  V30 10240 H 987.563 -3.32982 -1.97994 0
M  V30 10241 H 987.977 -5.18732 -0.77574 0
M  V30 10242 H 989.451 -4.93774 -2.46762 0
M  V30 10243 H 989.928 -3.29774 -2.90079 0
M  V30 10244 H 990.534 -4.01875 -1.39201 0
M  V30 10245 N 988.849 0.203349 -1.56283 0
M  V30 10246 C 989.797 1.27157 -1.94766 0
M  V30 10247 C 990.791 1.4756 -0.832005 0
M  V30 10248 O 991.997 1.48519 -1.01696 0
M  V30 10249 H 988.372 0.426712 -0.61921 0
M  V30 10250 H 990.343 0.919921 -2.83866 0
M  V30 10251 C 989.092 2.6108 -2.29636 0
M  V30 10252 H 988.415 2.46193 -3.15006 0
M  V30 10253 H 989.855 3.34591 -2.60433 0
M  V30 10254 C 988.314 3.17456 -1.12799 0
M  V30 10255 O 988.844 3.99717 -0.398661 0
M  V30 10256 N 987.05 2.76084 -0.906975 0
M  V30 10257 H 986.597 2.09294 -1.50179 0
M  V30 10258 H 986.555 3.14143 -0.127005 0
M  V30 10259 N 990.327 1.50405 0.470755 0
M  V30 10260 C 991.576 1.60652 1.21959 0
M  V30 10261 C 991.889 0.312521 1.93087 0
M  V30 10262 O 993.095 0.293901 2.69905 0
M  V30 10263 C 991.551 2.83581 2.21607 0
M  V30 10264 C 991.159 4.19858 1.5628 0
M  V30 10265 C 992.903 3.03173 2.9713 0
M  V30 10266 C 990.81 5.33974 2.54217 0
M  V30 10267 H 989.74 0.598264 0.458907 0
M  V30 10268 H 992.391 1.76836 0.490041 0
M  V30 10269 H 990.773 2.60957 2.97855 0
M  V30 10270 H 991.947 4.52738 0.85819 0
M  V30 10271 H 990.262 4.05873 0.930366 0
M  V30 10272 H 992.859 3.856 3.70428 0
M  V30 10273 H 993.202 2.14914 3.56536 0
M  V30 10274 H 993.735 3.2598 2.27995 0
M  V30 10275 H 990.474 6.24388 1.99549 0
M  V30 10276 H 989.994 5.05511 3.22829 0
M  V30 10277 H 991.673 5.64561 3.16039 0
M  V30 10278 N 991.805 -0.723954 1.39988 0
M  V30 10279 C 992.735 -1.85103 1.42335 0
M  V30 10280 C 993.716 -1.6769 0.285297 0
M  V30 10281 O 994.901 -1.87846 0.492716 0
M  V30 10282 C 992.031 -3.22972 1.27697 0
M  V30 10283 C 990.985 -3.55041 2.39018 0
M  V30 10284 C 990.311 -4.91965 2.09462 0
M  V30 10285 C 991.611 -3.56889 3.8135 0
M  V30 10286 H 993.305 -1.83396 2.36656 0
M  V30 10287 H 990.851 -0.880926 1.13911 0
M  V30 10288 H 992.804 -4.01503 1.27958 0
M  V30 10289 H 991.528 -3.25233 0.298487 0
M  V30 10290 H 990.187 -2.78845 2.37993 0
M  V30 10291 H 989.835 -4.90819 1.10025 0
M  V30 10292 H 989.535 -5.14389 2.84038 0
M  V30 10293 H 991.059 -5.7284 2.11391 0
M  V30 10294 H 992.473 -4.25476 3.84243 0
M  V30 10295 H 990.87 -3.90836 4.55376 0
M  V30 10296 H 991.94 -2.56452 4.11534 0
M  V30 10297 N 993.283 -1.25346 -0.955304 0
M  V30 10298 C 994.193 -1.07412 -2.08566 0
M  V30 10299 C 995.209 -0.0114424 -1.73996 0
M  V30 10300 O 996.385 -0.212236 -2.00279 0
M  V30 10301 C 993.45 -0.694141 -3.3968 0
M  V30 10302 C 992.511 -1.83468 -3.88121 0
M  V30 10303 C 991.744 -1.47274 -5.12978 0
M  V30 10304 O 991.967 -0.368086 -5.69211 0
M  V30 10305 O 990.901 -2.30269 -5.56111 0
M  V30 10306 H 994.727 -2.02206 -2.26598 0
M  V30 10307 H 992.312 -1.04279 -1.06988 0
M  V30 10308 H 994.194 -0.494325 -4.18491 0
M  V30 10309 H 992.869 0.224545 -3.2292 0
M  V30 10310 H 991.776 -2.08935 -3.10318 0
M  V30 10311 H 993.109 -2.73258 -4.09379 0
M  V30 10312 N 994.761 1.15782 -1.06922 0
M  V30 10313 C 996.01 1.85807 -0.784774 0
M  V30 10314 C 996.323 1.82967 0.691551 0
M  V30 10315 O 997.529 2.48632 1.0906 0
M  V30 10316 C 995.985 3.33469 -1.35375 0
M  V30 10317 C 995.593 3.44766 -2.86077 0
M  V30 10318 C 997.337 4.08707 -1.14713 0
M  V30 10319 C 995.244 4.86551 -3.36187 0
M  V30 10320 H 994.174 0.696046 -0.28989 0
M  V30 10321 H 996.825 1.30629 -1.28873 0
M  V30 10322 H 995.207 3.88292 -0.77754 0
M  V30 10323 H 996.381 3.00073 -3.49704 0
M  V30 10324 H 994.696 2.82969 -3.05479 0
M  V30 10325 H 997.293 5.13336 -1.49633 0
M  V30 10326 H 997.636 4.16211 -0.0858868 0
M  V30 10327 H 998.169 3.60142 -1.68946 0
M  V30 10328 H 994.908 4.84229 -4.41818 0
M  V30 10329 H 994.428 5.31844 -2.77312 0
M  V30 10330 H 996.107 5.55392 -3.31887 0
M  V30 10331 N 996.239 0.8527 1.3254 0
M  V30 10332 C 997.479 0.461385 1.99125 0
M  V30 10333 C 997.843 -0.964507 1.66016 0
M  V30 10334 O 999.044 -1.46027 2.25676 0
M  V30 10335 C 997.315 0.69143 3.50648 0
M  V30 10336 S 998.874 0.397397 4.36997 0
M  V30 10337 H 995.692 0.172933 0.689649 0
M  V30 10338 H 998.294 1.10499 1.61277 0
M  V30 10339 H 996.998 1.72831 3.72233 0
M  V30 10340 H 996.529 0.0341812 3.93385 0
M  V30 10341 H 998.544 -0.777363 4.90073 0
M  V30 10342 N 997.718 -1.45297 0.610449 0
M  V30 10343 C 998.666 -2.32295 -0.119167 0
M  V30 10344 C 999.66 -1.46138 -0.856746 0
M  V30 10345 O 1000.87 -1.62605 -0.771988 0
M  V30 10346 H 997.241 -0.749815 -0.0572881 0
M  V30 10347 H 999.212 -2.91609 0.63297 0
M  V30 10348 C 997.961 -3.29802 -1.10119 0
M  V30 10349 H 997.284 -3.96095 -0.543063 0
M  V30 10350 H 998.724 -3.93398 -1.58158 0
M  V30 10351 C 997.183 -2.57185 -2.17617 0
M  V30 10352 O 997.713 -2.35535 -3.25401 0
M  V30 10353 N 995.919 -2.17272 -1.9298 0
M  V30 10354 H 995.466 -2.3508 -1.05334 0
M  V30 10355 H 995.424 -1.69009 -2.6511 0
M  V30 10356 N 999.196 -0.349774 -1.5367 0
M  V30 10357 C 1000.44 0.245189 -2.01312 0
M  V30 10358 C 1000.77 1.49702 -1.23705 0
M  V30 10359 O 1000.05 1.91742 -0.326371 0
M  V30 10360 C 1000.33 0.553071 -3.55827 0
M  V30 10361 C 1000.19 -0.71129 -4.4414 0
M  V30 10362 C 1001.5 1.36015 -4.18555 0
M  V30 10363 H 998.624 0.0876415 -0.73177 0
M  V30 10364 H 1001.27 -0.471543 -1.84056 0
M  V30 10365 H 999.416 1.16367 -3.70663 0
M  V30 10366 H 1001.09 -1.34913 -4.41131 0
M  V30 10367 H 999.331 -1.33491 -4.1275 0
M  V30 10368 H 1000 -0.45104 -5.50154 0
M  V30 10369 H 1002.48 0.843778 -4.07455 0
M  V30 10370 H 1001.35 1.54432 -5.26728 0
M  V30 10371 H 1001.61 2.36408 -3.73582 0
M  V30 10372 N 1000.67 1.57404 -0.0785433 0
M  V30 10373 C 1001.92 1.94031 0.589896 0
M  V30 10374 C 1002.25 0.959297 1.68852 0
M  V30 10375 O 1001.53 -0.0103978 1.94497 0
M  V30 10376 C 1001.81 3.40886 1.16055 0
M  V30 10377 C 1001.66 4.49748 0.0681072 0
M  V30 10378 C 1002.98 3.88699 2.06401 0
M  V30 10379 H 1000.1 0.70556 0.212965 0
M  V30 10380 H 1002.74 1.89439 -0.145886 0
M  V30 10381 H 1000.89 3.4493 1.78761 0
M  V30 10382 H 1002.57 4.57823 -0.565318 0
M  V30 10383 H 1000.81 4.29625 -0.600431 0
M  V30 10384 H 1001.48 5.49658 0.507906 0
M  V30 10385 H 1003.96 3.86703 1.53622 0
M  V30 10386 H 1002.83 4.92052 2.43261 0
M  V30 10387 H 1003.09 3.2703 2.97496 0
M  V30 10388 N 1002.15 -0.195058 1.56388 0
M  V30 10389 C 1003.4 -0.915444 1.80626 0
M  V30 10390 C 1003.73 -1.83255 0.651768 0
M  V30 10391 O 1002.98 -1.92314 -0.362464 0
M  V30 10392 C 1003.28 -1.7637 3.10851 0
M  V30 10393 C 1002.95 -0.997572 4.39726 0
M  V30 10394 C 1001.61 -0.786043 4.74737 0
M  V30 10395 C 1003.96 -0.45851 5.19179 0
M  V30 10396 C 1001.29 -0.023972 5.86695 0
M  V30 10397 C 1003.64 0.29035 6.31933 0
M  V30 10398 C 1002.3 0.512895 6.65527 0
M  V30 10399 H 1001.57 -0.334985 0.660959 0
M  V30 10400 H 1004.22 -0.181815 1.90635 0
M  V30 10401 H 1002.53 -2.566 2.9608 0
M  V30 10402 H 1004.22 -2.3237 3.26811 0
M  V30 10403 H 1000.81 -1.17245 4.12252 0
M  V30 10404 H 1005 -0.609334 4.92545 0
M  V30 10405 H 1000.25 0.158421 6.11195 0
M  V30 10406 H 1004.43 0.715429 6.92715 0
M  V30 10407 H 1002.05 1.10531 7.52122 0
M  V30 10408 N 1003.63 -1.50653 -0.462772 0
M  V30 10409 C 1004.86 -1.65826 -1.23731 0
M  V30 10410 C 1005.27 -0.345002 -1.85621 0
M  V30 10411 O 1004.63 0.673935 -1.69601 0
M  V30 10412 C 1004.68 -2.7555 -2.33997 0
M  V30 10413 O 1004.4 -4.01785 -1.74643 0
M  V30 10414 C 1005.9 -3.0177 -3.2473 0
M  V30 10415 H 1003.12 -0.557177 -0.373892 0
M  V30 10416 H 1005.67 -1.96925 -0.551434 0
M  V30 10417 H 1003.82 -2.47122 -2.98345 0
M  V30 10418 H 1004.24 -4.62529 -2.4732 0
M  V30 10419 H 1005.71 -3.82188 -3.98292 0
M  V30 10420 H 1006.19 -2.13167 -3.84001 0
M  V30 10421 H 1006.79 -3.31761 -2.66111 0
M  V30 10422 N 1005.11 0.71652 -1.4037 0
M  V30 10423 C 1006.33 1.51069 -1.42102 0
M  V30 10424 C 1006.76 1.88087 -0.0222387 0
M  V30 10425 O 1006.12 1.53204 0.969448 0
M  V30 10426 C 1006.16 2.76307 -2.31704 0
M  V30 10427 O 1005.27 3.72975 -1.75964 0
M  V30 10428 H 1004.61 0.455502 -0.483129 0
M  V30 10429 H 1007.14 0.882514 -1.84588 0
M  V30 10430 H 1007.15 3.24846 -2.46859 0
M  V30 10431 H 1005.82 2.48698 -3.3335 0
M  V30 10432 H 1004.4 3.31818 -1.70151 0
M  V30 10433 N 1006.59 1.25851 0.948643 0
M  V30 10434 C 1007.52 1.0108 2.04593 0
M  V30 10435 C 1008.5 -0.0619691 1.62482 0
M  V30 10436 O 1009.68 0.0789196 1.88335 0
M  V30 10437 C 1006.81 0.529174 3.34541 0
M  V30 10438 C 1005.85 1.59337 3.95618 0
M  V30 10439 S 1006.69 3.18026 4.30836 0
M  V30 10440 C 1007.84 2.71613 5.63895 0
M  V30 10441 H 1008.08 1.93988 2.2529 0
M  V30 10442 H 1005.61 1.09448 1.08906 0
M  V30 10443 H 1007.57 0.25795 4.09689 0
M  V30 10444 H 1006.23 -0.37951 3.11799 0
M  V30 10445 H 1005.42 1.20722 4.89328 0
M  V30 10446 H 1005.02 1.81559 3.26975 0
M  V30 10447 H 1007.32 2.15612 6.42275 0
M  V30 10448 H 1008.26 3.63986 6.07387 0
M  V30 10449 H 1008.67 2.11417 5.23415 0
M  V30 10450 N 1008.06 -1.15214 1.07534 0
M  V30 10451 C 1009.31 -1.86043 0.799629 0
M  V30 10452 C 1009.64 -1.82435 -0.674356 0
M  V30 10453 O 1008.89 -1.24379 -1.51091 0
M  V30 10454 C 1009.19 -3.34623 1.25547 0
M  V30 10455 C 1008.86 -3.58425 2.73573 0
M  V30 10456 C 1007.52 -3.6463 3.14004 0
M  V30 10457 C 1009.87 -3.67977 3.6911 0
M  V30 10458 C 1007.2 -3.779 4.48786 0
M  V30 10459 C 1009.55 -3.82771 5.03656 0
M  V30 10460 C 1008.22 -3.87222 5.43705 0
M  V30 10461 H 1007.49 -0.680781 0.292605 0
M  V30 10462 H 1010.13 -1.36149 1.34669 0
M  V30 10463 H 1008.44 -3.86737 0.627828 0
M  V30 10464 H 1010.14 -3.87836 1.01901 0
M  V30 10465 H 1006.73 -3.54238 2.41275 0
M  V30 10466 H 1010.91 -3.62482 3.39 0
M  V30 10467 H 1006.17 -3.79604 4.79281 0
M  V30 10468 H 1010.34 -3.89104 5.77556 0
M  V30 10469 H 1007.97 -3.97256 6.48145 0
M  V30 10470 N 1009.54 -0.859717 -1.32086 0
M  V30 10471 C 1010.51 -0.313005 -2.27053 0
M  V30 10472 C 1011.51 0.530191 -1.51808 0
M  V30 10473 O 1012.7 0.340972 -1.7083 0
M  V30 10474 C 1009.83 0.5566 -3.36325 0
M  V30 10475 H 1011.02 -1.15125 -2.76923 0
M  V30 10476 H 1008.57 -0.634463 -1.42843 0
M  V30 10477 H 1009.31 1.41645 -2.91731 0
M  V30 10478 H 1009.09 -0.0470197 -3.92072 0
M  V30 10479 H 1010.58 0.931725 -4.07073 0
M  V30 10480 N 1011.02 1.44971 -0.618145 0
M  V30 10481 C 1011.95 2.33357 0.0815955 0
M  V30 10482 C 1012.93 1.47451 0.848072 0
M  V30 10483 O 1014.12 1.762 0.816532 0
M  V30 10484 C 1011.25 3.30324 1.07253 0
M  V30 10485 C 1010.2 4.25948 0.418563 0
M  V30 10486 C 1009.53 5.12685 1.51849 0
M  V30 10487 C 1010.83 5.18024 -0.66697 0
M  V30 10488 H 1012.52 2.92115 -0.656442 0
M  V30 10489 H 1010.07 1.40465 -0.317129 0
M  V30 10490 H 1012.02 3.91033 1.57069 0
M  V30 10491 H 1010.74 2.69748 1.8413 0
M  V30 10492 H 1009.4 3.66553 -0.0588308 0
M  V30 10493 H 1009.05 4.4847 2.2778 0
M  V30 10494 H 1008.75 5.7747 1.08637 0
M  V30 10495 H 1010.27 5.76264 2.01871 0
M  V30 10496 H 1011.69 5.72744 -0.252448 0
M  V30 10497 H 1010.09 5.91343 -1.02146 0
M  V30 10498 H 1011.16 4.59817 -1.53936 0
M  V30 10499 N 1012.5 0.357919 1.53482 0
M  V30 10500 C 1013.41 -0.500273 2.29204 0
M  V30 10501 C 1014.42 -1.09936 1.3487 0
M  V30 10502 O 1015.6 -1.11195 1.67921 0
M  V30 10503 C 1012.67 -1.62828 3.06085 0
M  V30 10504 C 1011.73 -1.05751 4.16071 0
M  V30 10505 C 1010.96 -2.13176 4.89277 0
M  V30 10506 O 1011.18 -3.34153 4.62274 0
M  V30 10507 O 1010.12 -1.76663 5.7539 0
M  V30 10508 H 1013.94 0.115696 3.0348 0
M  V30 10509 H 1011.53 0.122527 1.48897 0
M  V30 10510 H 1013.41 -2.28427 3.54117 0
M  V30 10511 H 1012.08 -2.22979 2.34653 0
M  V30 10512 H 1010.99 -0.365642 3.72309 0
M  V30 10513 H 1012.32 -0.500661 4.89647 0
M  V30 10514 N 1013.98 -1.5736 0.0868897 0
M  V30 10515 C 1014.91 -2.09211 -0.911382 0
M  V30 10516 C 1015.89 -1.00072 -1.28157 0
M  V30 10517 O 1017.07 -1.27514 -1.38825 0
M  V30 10518 C 1014.2 -2.56229 -2.21504 0
M  V30 10519 C 1013.24 -3.76948 -1.99531 0
M  V30 10520 S 1014.08 -5.20926 -1.24083 0
M  V30 10521 C 1015.23 -5.71288 -2.55697 0
M  V30 10522 H 1015.47 -2.93557 -0.470245 0
M  V30 10523 H 1013 -1.53883 -0.126218 0
M  V30 10524 H 1014.96 -2.83978 -2.96424 0
M  V30 10525 H 1013.62 -1.72123 -2.6274 0
M  V30 10526 H 1012.81 -4.07887 -2.96048 0
M  V30 10527 H 1012.41 -3.4965 -1.32744 0
M  V30 10528 H 1014.71 -5.79054 -3.51714 0
M  V30 10529 H 1015.65 -6.6993 -2.29347 0
M  V30 10530 H 1016.06 -4.99178 -2.63594 0
M  V30 10531 N 1015.45 0.186762 -1.56489 0
M  V30 10532 C 1016.7 0.904077 -1.80303 0
M  V30 10533 C 1017.02 1.84073 -0.661538 0
M  V30 10534 O 1018.22 2.59928 -0.784197 0
M  V30 10535 C 1016.68 1.65806 -3.19432 0
M  V30 10536 C 1016.29 0.765807 -4.41406 0
M  V30 10537 C 1018.03 2.36451 -3.52549 0
M  V30 10538 C 1015.94 1.51913 -5.71556 0
M  V30 10539 H 1014.87 0.34133 -0.672317 0
M  V30 10540 H 1017.52 0.157218 -1.82825 0
M  V30 10541 H 1015.9 2.44911 -3.11183 0
M  V30 10542 H 1017.07 0.0128225 -4.60798 0
M  V30 10543 H 1015.39 0.169772 -4.16054 0
M  V30 10544 H 1017.99 2.93378 -4.47027 0
M  V30 10545 H 1018.33 3.11044 -2.7669 0
M  V30 10546 H 1018.86 1.64305 -3.62283 0
M  V30 10547 H 1015.6 0.815829 -6.50403 0
M  V30 10548 H 1015.12 2.24583 -5.56168 0
M  V30 10549 H 1016.8 2.07073 -6.12968 0
M  V30 10550 N 1016.93 1.50896 0.454776 0
M  V30 10551 C 1017.86 1.73885 1.5584 0
M  V30 10552 C 1018.84 0.588172 1.59607 0
M  V30 10553 O 1020.03 0.829054 1.75614 0
M  V30 10554 C 1017.16 1.84796 2.94054 0
M  V30 10555 C 1016.11 3.00111 3.05152 0
M  V30 10556 C 1015.44 2.96183 4.45174 0
M  V30 10557 C 1016.74 4.40365 2.80849 0
M  V30 10558 H 1018.43 2.66292 1.36854 0
M  V30 10559 H 1015.98 1.28142 0.656936 0
M  V30 10560 H 1017.93 1.99462 3.71204 0
M  V30 10561 H 1016.66 0.890235 3.14233 0
M  V30 10562 H 1015.31 2.85121 2.30438 0
M  V30 10563 H 1014.96 1.98224 4.62295 0
M  V30 10564 H 1014.66 3.73608 4.53532 0
M  V30 10565 H 1016.19 3.1292 5.24322 0
M  V30 10566 H 1017.6 4.55795 3.47741 0
M  V30 10567 H 1016 5.19363 3.00636 0
M  V30 10568 H 1017.07 4.51606 1.76579 0
M  V30 10569 N 1018.41 -0.709066 1.40748 0
M  V30 10570 C 1019.36 -1.82312 1.4153 0
M  V30 10571 C 1020.33 -1.63868 0.271392 0
M  V30 10572 O 1021.51 -1.8491 0.470431 0
M  V30 10573 C 1018.65 -3.2008 1.29006 0
M  V30 10574 C 1017.77 -3.50051 2.53156 0
M  V30 10575 C 1016.9 -4.7736 2.33025 0
M  V30 10576 C 1015.94 -5.00255 3.52719 0
M  V30 10577 N 1015.08 -6.18782 3.31743 0
M  V30 10578 H 1019.92 -1.80978 2.36751 0
M  V30 10579 H 1017.45 -0.883975 1.17577 0
M  V30 10580 H 1019.41 -3.99645 1.19749 0
M  V30 10581 H 1018.04 -3.20626 0.374014 0
M  V30 10582 H 1017.09 -2.64993 2.72916 0
M  V30 10583 H 1018.41 -3.62877 3.42231 0
M  V30 10584 H 1017.56 -5.64954 2.21159 0
M  V30 10585 H 1016.3 -4.66756 1.41386 0
M  V30 10586 H 1015.3 -4.11114 3.65055 0
M  V30 10587 H 1016.53 -5.12728 4.45295 0
M  V30 10588 H 1014.47 -6.09416 2.42791 0
M  V30 10589 H 1014.39 -6.32313 4.14386 0
M  V30 10590 H 1015.66 -7.09146 3.23623 0
M  V30 10591 N 1019.89 -1.26353 -0.941956 0
M  V30 10592 C 1020.82 -1.10341 -2.05784 0
M  V30 10593 C 1021.8 -0.00881565 -1.70098 0
M  V30 10594 O 1022.99 -0.180699 -1.93357 0
M  V30 10595 C 1020.12 -0.734788 -3.39438 0
M  V30 10596 C 1019.07 -1.78103 -3.89183 0
M  V30 10597 C 1018.4 -1.26675 -5.19478 0
M  V30 10598 C 1019.7 -3.1824 -4.14151 0
M  V30 10599 H 1021.39 -2.03684 -2.19438 0
M  V30 10600 H 1018.94 -0.980698 -1.05443 0
M  V30 10601 H 1020.89 -0.609653 -4.16967 0
M  V30 10602 H 1019.61 0.234354 -3.25758 0
M  V30 10603 H 1018.27 -1.89482 -3.13835 0
M  V30 10604 H 1017.92 -0.287472 -5.02178 0
M  V30 10605 H 1017.62 -1.96612 -5.53731 0
M  V30 10606 H 1019.14 -1.15427 -5.99591 0
M  V30 10607 H 1020.56 -3.09942 -4.82296 0
M  V30 10608 H 1018.95 -3.8576 -4.59684 0
M  V30 10609 H 1020.02 -3.64354 -3.19959 0
M  V30 10610 N 1021.37 1.14642 -1.08144 0
M  V30 10611 C 1022.33 2.17834 -0.712799 0
M  V30 10612 C 1023.33 1.58828 0.251041 0
M  V30 10613 O 1024.52 1.74173 0.0309381 0
M  V30 10614 C 1021.65 3.4086 -0.0519477 0
M  V30 10615 H 1022.85 2.51961 -1.62653 0
M  V30 10616 H 1020.4 1.29243 -0.878971 0
M  V30 10617 H 1021.13 3.12311 0.873636 0
M  V30 10618 H 1020.92 3.84952 -0.745286 0
M  V30 10619 H 1022.41 4.17163 0.191031 0
M  V30 10620 N 1022.85 0.866709 1.31628 0
M  V30 10621 C 1023.81 0.325041 2.26883 0
M  V30 10622 C 1024.81 -0.522133 1.52087 0
M  V30 10623 O 1026 -0.331908 1.71009 0
M  V30 10624 C 1023.13 -0.538756 3.36616 0
M  V30 10625 H 1024.32 1.16592 2.76308 0
M  V30 10626 H 1021.88 0.642029 1.42505 0
M  V30 10627 H 1022.61 -1.40096 2.92478 0
M  V30 10628 H 1022.4 0.0678115 3.92041 0
M  V30 10629 H 1023.89 -0.910123 4.07562 0
M  V30 10630 N 1024.32 -1.44642 0.625825 0
M  V30 10631 C 1025.57 -2.02094 0.128201 0
M  V30 10632 C 1025.9 -1.49181 -1.24801 0
M  V30 10633 O 1025.15 -0.663965 -1.84092 0
M  V30 10634 C 1025.45 -3.57352 0.0584381 0
M  V30 10635 C 1025.12 -4.29496 1.37272 0
M  V30 10636 C 1023.78 -4.48922 1.7327 0
M  V30 10637 C 1026.13 -4.70586 2.2405 0
M  V30 10638 C 1023.46 -5.06697 2.95762 0
M  V30 10639 C 1025.81 -5.29717 3.45807 0
M  V30 10640 C 1024.48 -5.47363 3.82034 0
M  V30 10641 H 1023.75 -0.739514 0.0469122 0
M  V30 10642 H 1026.39 -1.73475 0.811083 0
M  V30 10643 H 1024.7 -3.85354 -0.707791 0
M  V30 10644 H 1026.4 -3.9953 -0.34303 0
M  V30 10645 H 1022.99 -4.14702 1.08258 0
M  V30 10646 H 1027.17 -4.55295 1.97535 0
M  V30 10647 H 1022.43 -5.18546 3.23913 0
M  V30 10648 H 1026.6 -5.60507 4.13286 0
M  V30 10649 H 1024.23 -5.91898 4.77033 0
M  V30 10650 N 1025.8 -0.366053 -1.5329 0
M  V30 10651 C 1027.05 0.223051 -2.00865 0
M  V30 10652 C 1027.37 1.49244 -1.25504 0
M  V30 10653 O 1026.64 1.92404 -0.368444 0
M  V30 10654 H 1025.22 0.085413 -0.742101 0
M  V30 10655 H 1027.88 -0.492396 -1.88578 0
M  V30 10656 H 1026.98 0.449701 -3.08843 0
M  V30 10657 N 1027.28 1.57312 -0.0952337 0
M  V30 10658 C 1028.21 2.17056 0.860753 0
M  V30 10659 C 1029.19 1.10394 1.29411 0
M  V30 10660 O 1030.38 1.38532 1.36098 0
M  V30 10661 C 1027.51 2.751 2.11984 0
M  V30 10662 C 1026.46 3.87136 1.8251 0
M  V30 10663 C 1025.79 4.31883 3.15247 0
M  V30 10664 C 1027.09 5.10326 1.11194 0
M  V30 10665 H 1028.78 2.97192 0.362983 0
M  V30 10666 H 1026.33 1.42955 0.173151 0
M  V30 10667 H 1028.28 3.15547 2.79299 0
M  V30 10668 H 1027 1.92219 2.64044 0
M  V30 10669 H 1025.66 3.47229 1.17592 0
M  V30 10670 H 1025.31 3.45893 3.65195 0
M  V30 10671 H 1025.01 5.0742 2.96309 0
M  V30 10672 H 1026.53 4.74964 3.83721 0
M  V30 10673 H 1027.95 5.47942 1.6862 0
M  V30 10674 H 1026.34 5.91293 1.02435 0
M  V30 10675 H 1027.41 4.84807 0.0947227 0
M  V30 10676 N 1028.76 -0.17846 1.56586 0
M  V30 10677 C 1030 -0.896235 1.81587 0
M  V30 10678 C 1030.33 -1.82553 0.671168 0
M  V30 10679 O 1029.59 -1.92688 -0.342046 0
M  V30 10680 C 1029.89 -1.73063 3.12704 0
M  V30 10681 C 1029.55 -0.950877 4.4076 0
M  V30 10682 C 1028.21 -0.735647 4.75544 0
M  V30 10683 C 1030.57 -0.403419 5.19636 0
M  V30 10684 C 1027.89 0.0382562 5.86688 0
M  V30 10685 C 1030.25 0.357359 6.3159 0
M  V30 10686 C 1028.91 0.583455 6.64945 0
M  V30 10687 H 1028.18 -0.327956 0.664474 0
M  V30 10688 H 1030.83 -0.161586 1.90817 0
M  V30 10689 H 1029.13 -2.53446 2.98785 0
M  V30 10690 H 1030.83 -2.28891 3.29257 0
M  V30 10691 H 1027.42 -1.12866 4.13472 0
M  V30 10692 H 1031.6 -0.557059 4.93164 0
M  V30 10693 H 1026.86 0.223237 6.10992 0
M  V30 10694 H 1031.03 0.788861 6.91918 0
M  V30 10695 H 1028.66 1.18502 7.50907 0
M  V30 10696 N 1030.24 -1.51135 -0.446768 0
M  V30 10697 C 1031.51 -1.5387 -1.20762 0
M  V30 10698 C 1031.89 -0.297446 -2.08994 0
M  V30 10699 O 1031.24 0.717975 -2.16927 0
M  V30 10700 C 1031.45 -2.84767 -2.01764 0
M  V30 10701 C 1032.8 -3.3636 -2.59128 0
M  V30 10702 O 1033.82 -2.86254 -2.11984 0
M  V30 10703 O 1032.68 -4.23765 -3.45088 0
M  V30 10704 H 1029.78 -0.618228 -0.549293 0
M  V30 10705 H 1032.32 -1.63442 -0.456605 0
M  V30 10706 H 1031.09 -3.6657 -1.36901 0
M  V30 10707 H 1030.72 -2.78313 -2.8395 0
M  V30 10708 N 1031.71 0.701592 -1.41122 0
M  V30 10709 C 1032.94 1.48833 -1.43291 0
M  V30 10710 C 1033.35 1.89168 -0.0348668 0
M  V30 10711 O 1032.69 1.56937 0.9548 0
M  V30 10712 C 1032.76 2.78533 -2.27287 0
M  V30 10713 C 1032.42 2.60438 -3.75528 0
M  V30 10714 C 1033.42 2.26778 -4.67833 0
M  V30 10715 C 1031.1 2.76266 -4.19503 0
M  V30 10716 C 1033.1 2.09176 -6.021 0
M  V30 10717 C 1030.78 2.58281 -5.53836 0
M  V30 10718 C 1031.78 2.24786 -6.4495 0
M  V30 10719 O 1031.47 2.06952 -7.76805 0
M  V30 10720 H 1031.2 0.465401 -0.490284 0
M  V30 10721 H 1033.76 0.871843 -1.85979 0
M  V30 10722 H 1031.99 3.42566 -1.79403 0
M  V30 10723 H 1033.67 3.40312 -2.21229 0
M  V30 10724 H 1034.44 2.1417 -4.35151 0
M  V30 10725 H 1030.32 3.01322 -3.48893 0
M  V30 10726 H 1033.86 1.82955 -6.73181 0
M  V30 10727 H 1029.76 2.70478 -5.86099 0
M  V30 10728 H 1030.53 2.21762 -7.87886 0
M  V30 10729 N 1033.19 1.2685 0.935242 0
M  V30 10730 C 1034.12 1.1143 2.05196 0
M  V30 10731 C 1035.1 0.0178362 1.70091 0
M  V30 10732 O 1036.29 0.190951 1.93259 0
M  V30 10733 C 1033.42 0.752779 3.39044 0
M  V30 10734 C 1032.37 1.80164 3.88233 0
M  V30 10735 C 1031.7 1.29428 5.18799 0
M  V30 10736 C 1033 3.20431 4.12457 0
M  V30 10737 H 1034.69 2.04845 2.18355 0
M  V30 10738 H 1032.24 0.986276 1.04922 0
M  V30 10739 H 1034.19 0.631757 4.16637 0
M  V30 10740 H 1032.91 -0.217075 3.25878 0
M  V30 10741 H 1031.57 1.91144 3.12825 0
M  V30 10742 H 1031.22 0.3141 5.02018 0
M  V30 10743 H 1030.92 1.99546 5.5268 0
M  V30 10744 H 1032.45 1.18605 5.9897 0
M  V30 10745 H 1033.86 3.12495 4.80645 0
M  V30 10746 H 1032.26 3.88193 4.57631 0
M  V30 10747 H 1033.33 3.66046 3.18023 0
M  V30 10748 N 1034.67 -1.14067 1.0875 0
M  V30 10749 C 1036.09 -1.37173 0.815823 0
M  V30 10750 C 1036.29 -1.93175 -0.573215 0
M  V30 10751 O 1035.34 -2.14672 -1.32937 0
M  V30 10752 C 1036.66 -2.32955 1.90138 0
M  V30 10753 C 1038.2 -2.46586 1.9278 0
M  V30 10754 C 1038.68 -3.4567 3.0046 0
M  V30 10755 N 1040.17 -3.53216 2.99655 0
M  V30 10756 C 1040.9 -4.29743 3.79616 0
M  V30 10757 N 1040.4 -5.09484 4.69466 0
M  V30 10758 N 1042.19 -4.24975 3.67903 0
M  V30 10759 H 1034.34 -0.760648 1.98313 0
M  V30 10760 H 1036.61 -0.397135 0.860807 0
M  V30 10761 H 1036.31 -1.98949 2.90021 0
M  V30 10762 H 1036.19 -3.32897 1.77368 0
M  V30 10763 H 1038.57 -2.79882 0.935404 0
M  V30 10764 H 1038.66 -1.46593 2.09629 0
M  V30 10765 H 1038.3 -3.13106 3.99909 0
M  V30 10766 H 1038.23 -4.45452 2.80856 0
M  V30 10767 H 1040.72 -2.96314 2.34535 0
M  V30 10768 H 1041.03 -5.65163 5.27077 0
M  V30 10769 H 1039.38 -5.08741 4.73506 0
M  V30 10770 H 1042.57 -3.61751 2.97075 0
M  V30 10771 H 1042.74 -4.84364 4.30459 0
M  V30 10772 N 1036.15 -0.873678 -1.31166 0
M  V30 10773 C 1037.1 -0.321349 -2.3037 0
M  V30 10774 C 1038.09 0.565568 -1.5968 0
M  V30 10775 O 1039.3 0.451257 -1.74252 0
M  V30 10776 H 1035.67 -0.0852425 -0.747153 0
M  V30 10777 H 1037.64 -1.17191 -2.74425 0
M  V30 10778 C 1036.39 0.459016 -3.44657 0
M  V30 10779 H 1035.71 -0.214185 -3.99226 0
M  V30 10780 H 1037.15 0.810758 -4.16176 0
M  V30 10781 C 1035.61 1.65173 -2.93632 0
M  V30 10782 O 1036.14 2.75105 -2.92711 0
M  V30 10783 N 1034.35 1.4851 -2.49786 0
M  V30 10784 H 1033.9 0.590785 -2.50734 0
M  V30 10785 H 1033.85 2.28452 -2.16002 0
M  V30 10786 N 1037.63 1.44308 -0.633487 0
M  V30 10787 C 1039.04 1.85387 -0.221009 0
M  V30 10788 C 1039.39 1.5301 1.22811 0
M  V30 10789 O 1038.51 0.969325 1.93476 0
M  V30 10790 C 1039.11 3.36497 -0.394331 0
M  V30 10791 C 1037.67 3.76382 -0.0363405 0
M  V30 10792 C 1036.81 2.68146 -0.706598 0
M  V30 10793 H 1039.77 1.34741 -0.83849 0
M  V30 10794 H 1039.79 3.78735 0.366026 0
M  V30 10795 H 1039.3 3.60031 -1.44911 0
M  V30 10796 H 1037.4 3.58463 1.01661 0
M  V30 10797 H 1037.51 4.77 -0.448045 0
M  V30 10798 H 1035.88 2.54306 -0.14168 0
M  V30 10799 H 1036.66 2.94512 -1.76401 0
M  V30 10800 N 1039.1 0.374177 1.53094 0
M  V30 10801 C 1040.33 -0.213015 2.05499 0
M  V30 10802 C 1040.74 -1.42303 1.24686 0
M  V30 10803 O 1040.09 -1.81512 0.282702 0
M  V30 10804 C 1040.15 -0.662308 3.53346 0
M  V30 10805 C 1039.81 0.432183 4.54952 0
M  V30 10806 C 1040.81 1.2848 5.03775 0
M  V30 10807 C 1038.49 0.594887 4.98765 0
M  V30 10808 C 1040.49 2.28538 5.9502 0
M  V30 10809 C 1038.17 1.59882 5.89814 0
M  V30 10810 C 1039.17 2.4425 6.37833 0
M  V30 10811 O 1038.86 3.4293 7.27086 0
M  V30 10812 H 1038.59 -0.0393809 0.674852 0
M  V30 10813 H 1041.15 0.533423 1.98353 0
M  V30 10814 H 1039.38 -1.46049 3.5806 0
M  V30 10815 H 1041.07 -1.17347 3.88567 0
M  V30 10816 H 1041.83 1.17033 4.70668 0
M  V30 10817 H 1037.71 -0.0520401 4.60971 0
M  V30 10818 H 1041.25 2.94426 6.32423 0
M  V30 10819 H 1037.15 1.71373 6.22335 0
M  V30 10820 H 1037.92 3.3876 7.45107 0
M  V30 10821 N 1040.58 -1.57259 0.103575 0
M  V30 10822 C 1041.53 -2.15727 -0.869739 0
M  V30 10823 C 1042.52 -1.10236 -1.28625 0
M  V30 10824 O 1043.73 -1.28567 -1.25979 0
M  V30 10825 H 1040.11 -0.690204 -0.298535 0
M  V30 10826 H 1042.08 -2.96317 -0.351984 0
M  V30 10827 C 1040.83 -2.75905 -2.11593 0
M  V30 10828 H 1040.15 -3.56768 -1.80434 0
M  V30 10829 H 1041.59 -3.20373 -2.77736 0
M  V30 10830 C 1040.05 -1.72218 -2.89556 0
M  V30 10831 O 1040.58 -1.16623 -3.84398 0
M  V30 10832 N 1038.78 -1.42514 -2.53255 0
M  V30 10833 H 1038.33 -1.87914 -1.76198 0
M  V30 10834 H 1038.29 -0.733782 -3.05717 0
M  V30 10835 N 1042.06 0.170153 -1.56679 0
M  V30 10836 C 1043.31 0.884902 -1.81252 0
M  V30 10837 C 1043.62 1.83361 -0.681024 0
M  V30 10838 O 1044.83 2.59082 -0.811722 0
M  V30 10839 C 1043.28 1.62408 -3.21172 0
M  V30 10840 C 1042.89 0.718947 -4.42194 0
M  V30 10841 C 1044.64 2.32699 -3.55037 0
M  V30 10842 C 1042.54 1.45843 -5.73135 0
M  V30 10843 H 1041.47 0.33418 -0.675899 0
M  V30 10844 H 1044.12 0.137818 -1.82982 0
M  V30 10845 H 1042.51 2.41596 -3.13763 0
M  V30 10846 H 1043.68 -0.0360521 -4.60786 0
M  V30 10847 H 1042 0.125634 -4.1621 0
M  V30 10848 H 1044.59 2.88621 -4.50114 0
M  V30 10849 H 1044.94 3.08092 -2.79974 0
M  V30 10850 H 1045.47 1.60453 -3.64005 0
M  V30 10851 H 1042.21 0.746799 -6.51232 0
M  V30 10852 H 1041.73 2.18672 -5.58518 0
M  V30 10853 H 1043.41 2.0056 -6.1513 0
M  V30 10854 N 1043.54 1.5137 0.438746 0
M  V30 10855 C 1044.79 1.63969 1.1883 0
M  V30 10856 C 1045.11 0.355245 1.91228 0
M  V30 10857 O 1044.37 -0.660605 1.84213 0
M  V30 10858 C 1044.67 2.79221 2.23093 0
M  V30 10859 C 1044.33 4.18547 1.67717 0
M  V30 10860 C 1043 4.5645 1.52337 0
M  V30 10861 C 1045.35 5.05494 1.26986 0
M  V30 10862 C 1042.68 5.79007 0.946996 0
M  V30 10863 C 1045.03 6.28628 0.707785 0
M  V30 10864 C 1043.69 6.65305 0.540881 0
M  V30 10865 H 1042.96 0.600003 0.43483 0
M  V30 10866 H 1045.61 1.85398 0.479565 0
M  V30 10867 H 1043.91 2.52008 2.99999 0
M  V30 10868 H 1045.61 2.86168 2.80907 0
M  V30 10869 H 1042.2 3.88663 1.80663 0
M  V30 10870 H 1046.38 4.76818 1.37689 0
M  V30 10871 H 1041.64 6.06072 0.805432 0
M  V30 10872 H 1045.81 6.95342 0.38366 0
M  V30 10873 H 1043.44 7.60144 0.0921324 0
M  V30 10874 N 1045.02 -0.694098 1.41492 0
M  V30 10875 C 1046.29 -1.44875 1.31418 0
M  V30 10876 C 1046.67 -2.11022 -0.0575538 0
M  V30 10877 O 1046.02 -2.01799 -1.07188 0
M  V30 10878 C 1046.23 -2.46698 2.46863 0
M  V30 10879 C 1047.58 -3.11907 2.88095 0
M  V30 10880 O 1048.6 -2.57022 2.46613 0
M  V30 10881 O 1047.46 -4.11318 3.59833 0
M  V30 10882 H 1044.56 -0.645266 0.517263 0
M  V30 10883 H 1047.1 -0.724452 1.53459 0
M  V30 10884 H 1045.87 -1.96485 3.38392 0
M  V30 10885 H 1045.5 -3.26634 2.26706 0
M  V30 10886 N 1046.49 -1.27344 -0.928501 0
M  V30 10887 C 1047.72 -1.16557 -1.7155 0
M  V30 10888 C 1048.14 0.274044 -1.86093 0
M  V30 10889 O 1047.5 1.19847 -1.36038 0
M  V30 10890 C 1047.55 -1.85332 -3.09329 0
M  V30 10891 O 1046.65 -1.15074 -3.9602 0
M  V30 10892 H 1046 -0.405423 -0.525859 0
M  V30 10893 H 1048.53 -1.68399 -1.16202 0
M  V30 10894 H 1048.54 -1.92659 -3.59648 0
M  V30 10895 H 1047.21 -2.90056 -2.98061 0
M  V30 10896 H 1045.79 -1.1581 -3.54461 0
M  V30 10897 N 1047.97 1.13488 -1.09353 0
M  V30 10898 C 1049.22 1.841 -0.82401 0
M  V30 10899 C 1049.53 1.84393 0.652586 0
M  V30 10900 O 1050.74 2.5089 1.03762 0
M  V30 10901 C 1049.2 3.30523 -1.42418 0
M  V30 10902 C 1048.8 3.38621 -2.93326 0
M  V30 10903 C 1050.55 4.06182 -1.23356 0
M  V30 10904 C 1048.46 4.79311 -3.46432 0
M  V30 10905 H 1047.39 0.68974 -0.304589 0
M  V30 10906 H 1050.04 1.27866 -1.31615 0
M  V30 10907 H 1048.42 3.86555 -0.859727 0
M  V30 10908 H 1049.59 2.92587 -3.5599 0
M  V30 10909 H 1047.91 2.76426 -3.11412 0
M  V30 10910 H 1050.5 5.10047 -1.60488 0
M  V30 10911 H 1050.85 4.15936 -0.174152 0
M  V30 10912 H 1051.38 3.56477 -1.76547 0
M  V30 10913 H 1048.12 4.74748 -4.5199 0
M  V30 10914 H 1047.64 5.25842 -2.8853 0
M  V30 10915 H 1049.32 5.48227 -3.43593 0
M  V30 10916 N 1049.45 0.880621 1.30701 0
M  V30 10917 C 1050.7 0.492957 1.95583 0
M  V30 10918 C 1051.01 -0.961863 1.70316 0
M  V30 10919 O 1052.22 -1.45617 2.29146 0
M  V30 10920 C 1050.68 0.830656 3.50183 0
M  V30 10921 C 1050.28 2.30295 3.84276 0
M  V30 10922 C 1052.03 0.511979 4.21401 0
M  V30 10923 C 1049.93 2.58251 5.32034 0
M  V30 10924 H 1048.86 0.18062 0.732047 0
M  V30 10925 H 1051.52 1.075 1.48715 0
M  V30 10926 H 1049.9 0.177752 3.95601 0
M  V30 10927 H 1051.07 2.99981 3.49783 0
M  V30 10928 H 1049.39 2.58873 3.2615 0
M  V30 10929 H 1051.98 0.697935 5.30125 0
M  V30 10930 H 1052.33 -0.548327 4.12673 0
M  V30 10931 H 1052.86 1.12189 3.81652 0
M  V30 10932 H 1049.6 3.63005 5.45809 0
M  V30 10933 H 1049.12 1.9317 5.67843 0
M  V30 10934 H 1050.8 2.43527 5.99419 0
M  V30 10935 N 1050.93 -1.4397 0.641131 0
M  V30 10936 C 1052.18 -2.02246 0.14985 0
M  V30 10937 C 1052.51 -1.50387 -1.22871 0
M  V30 10938 O 1051.78 -0.692003 -1.81773 0
M  V30 10939 C 1052.07 -3.59798 0.147449 0
M  V30 10940 C 1051.92 -4.21916 1.55907 0
M  V30 10941 C 1053.24 -4.36985 -0.522667 0
M  V30 10942 H 1050.36 -0.734875 0.0559274 0
M  V30 10943 H 1053 -1.71418 0.819513 0
M  V30 10944 H 1051.15 -3.86193 -0.422789 0
M  V30 10945 H 1052.82 -4.06594 2.17896 0
M  V30 10946 H 1051.06 -3.79028 2.10998 0
M  V30 10947 H 1051.74 -5.30964 1.50934 0
M  V30 10948 H 1054.21 -4.16083 -0.0376226 0
M  V30 10949 H 1053.09 -5.46676 -0.493572 0
M  V30 10950 H 1053.35 -4.12335 -1.59475 0
M  V30 10951 N 1052.41 -0.382291 -1.52893 0
M  V30 10952 C 1053.66 0.203342 -2.00672 0
M  V30 10953 C 1053.97 1.48487 -1.27322 0
M  V30 10954 O 1055.18 2.15013 -1.65776 0
M  V30 10955 C 1053.63 0.412922 -3.57523 0
M  V30 10956 C 1053.24 -0.854949 -4.39767 0
M  V30 10957 C 1054.98 0.955301 -4.13611 0
M  V30 10958 C 1052.89 -0.614033 -5.88204 0
M  V30 10959 H 1051.82 0.0797635 -0.749769 0
M  V30 10960 H 1054.47 -0.50361 -1.76454 0
M  V30 10961 H 1052.85 1.18155 -3.77962 0
M  V30 10962 H 1054.03 -1.62765 -4.31096 0
M  V30 10963 H 1052.34 -1.32176 -3.94865 0
M  V30 10964 H 1054.94 1.15114 -5.22162 0
M  V30 10965 H 1055.28 1.92233 -3.69259 0
M  V30 10966 H 1055.82 0.24642 -3.97036 0
M  V30 10967 H 1052.55 -1.55187 -6.36865 0
M  V30 10968 H 1052.07 0.119865 -5.9968 0
M  V30 10969 H 1053.75 -0.245895 -6.46533 0
M  V30 10970 N 1053.89 1.57202 -0.111913 0
M  V30 10971 C 1055.13 1.94125 0.547573 0
M  V30 10972 C 1055.45 0.997026 1.68282 0
M  V30 10973 O 1056.65 1.26063 2.40459 0
M  V30 10974 C 1055.11 3.44982 1.02545 0
M  V30 10975 C 1054.72 4.47927 -0.0809529 0
M  V30 10976 C 1056.46 3.90837 1.65671 0
M  V30 10977 C 1054.37 5.89955 0.413224 0
M  V30 10978 H 1053.3 0.724651 0.208321 0
M  V30 10979 H 1055.95 1.82507 -0.190625 0
M  V30 10980 H 1054.33 3.5181 1.81785 0
M  V30 10981 H 1055.51 4.52761 -0.857003 0
M  V30 10982 H 1053.82 4.11782 -0.618434 0
M  V30 10983 H 1056.42 4.9436 2.03746 0
M  V30 10984 H 1056.76 3.30417 2.53239 0
M  V30 10985 H 1057.29 3.8678 0.929844 0
M  V30 10986 H 1054.03 6.54113 -0.426238 0
M  V30 10987 H 1053.55 5.88557 1.15591 0
M  V30 10988 H 1055.23 6.41032 0.876756 0
M  V30 10989 N 1055.36 -0.161842 1.56767 0
M  V30 10990 C 1056.59 -0.896274 1.87034 0
M  V30 10991 C 1057.01 -1.74617 0.699314 0
M  V30 10992 O 1056.37 -1.77861 -0.351435 0
M  V30 10993 C 1056.42 -1.74105 3.15784 0
M  V30 10994 O 1055.52 -2.84372 2.98674 0
M  V30 10995 H 1054.86 -0.250523 0.614926 0
M  V30 10996 H 1057.39 -0.157127 2.03996 0
M  V30 10997 H 1057.4 -2.13907 3.4743 0
M  V30 10998 H 1056.08 -1.11684 4.00624 0
M  V30 10999 H 1054.66 -2.48084 2.78404 0
M  V30 11000 N 1056.84 -1.516 -0.430713 0
M  V30 11001 C 1058.09 -1.63829 -1.17657 0
M  V30 11002 C 1058.4 -0.363605 -1.92191 0
M  V30 11003 O 1059.61 -0.365358 -2.6903 0
M  V30 11004 C 1058.07 -2.89357 -2.14011 0
M  V30 11005 C 1057.67 -4.23854 -1.45094 0
M  V30 11006 C 1059.42 -3.10944 -2.88988 0
M  V30 11007 C 1057.32 -5.40526 -2.3997 0
M  V30 11008 H 1056.25 -0.610221 -0.442884 0
M  V30 11009 H 1058.91 -1.78073 -0.442984 0
M  V30 11010 H 1057.29 -2.68762 -2.90832 0
M  V30 11011 H 1058.46 -4.54854 -0.737853 0
M  V30 11012 H 1056.78 -4.08197 -0.822429 0
M  V30 11013 H 1059.37 -3.95286 -3.60074 0
M  V30 11014 H 1059.72 -2.24291 -3.50712 0
M  V30 11015 H 1060.25 -3.3191 -2.19272 0
M  V30 11016 H 1056.99 -6.29459 -1.82925 0
M  V30 11017 H 1056.51 -5.13893 -3.09313 0
M  V30 11018 H 1058.19 -5.72741 -3.00959 0
M  V30 11019 N 1058.32 0.686584 -1.41858 0
M  V30 11020 C 1059.57 1.44738 -1.42908 0
M  V30 11021 C 1059.92 1.92357 -0.0404705 0
M  V30 11022 O 1059.21 1.67221 0.935287 0
M  V30 11023 C 1059.41 2.66793 -2.37816 0
M  V30 11024 C 1059.24 2.31114 -3.85767 0
M  V30 11025 C 1058.01 2.21043 -4.54388 0
M  V30 11026 C 1060.2 1.93512 -4.76505 0
M  V30 11027 N 1058.19 1.78344 -5.87424 0
M  V30 11028 C 1059.56 1.61642 -5.98558 0
M  V30 11029 C 1061.61 1.80401 -4.64069 0
M  V30 11030 C 1060.32 1.17977 -7.09559 0
M  V30 11031 C 1062.34 1.38141 -5.7504 0
M  V30 11032 C 1061.7 1.07186 -6.96197 0
M  V30 11033 H 1057.8 0.526577 -0.578136 0
M  V30 11034 H 1060.39 0.793483 -1.77797 0
M  V30 11035 H 1058.56 3.29889 -2.05007 0
M  V30 11036 H 1060.29 3.33318 -2.29524 0
M  V30 11037 H 1057.04 2.39731 -4.08443 0
M  V30 11038 H 1057.47 1.59451 -6.57955 0
M  V30 11039 H 1062.11 2.02983 -3.70888 0
M  V30 11040 H 1059.83 0.941397 -8.02598 0
M  V30 11041 H 1063.41 1.28533 -5.67425 0
M  V30 11042 H 1062.29 0.749804 -7.80607 0
M  V30 11043 N 1059.8 1.27835 0.921735 0
M  V30 11044 C 1060.71 1.12904 2.05645 0
M  V30 11045 C 1061.72 0.0575704 1.73905 0
M  V30 11046 O 1062.9 0.265261 1.99645 0
M  V30 11047 C 1059.96 0.783957 3.3772 0
M  V30 11048 C 1059.03 1.93694 3.8312 0
M  V30 11049 C 1058.26 1.60823 5.08893 0
M  V30 11050 O 1058.48 0.518873 5.68035 0
M  V30 11051 O 1057.42 2.44932 5.49811 0
M  V30 11052 H 1061.24 2.08143 2.21157 0
M  V30 11053 H 1058.83 1.07078 1.04185 0
M  V30 11054 H 1060.71 0.605107 4.17033 0
M  V30 11055 H 1059.38 -0.138849 3.23402 0
M  V30 11056 H 1058.29 2.17089 3.04669 0
M  V30 11057 H 1059.62 2.84016 4.0199 0
M  V30 11058 N 1061.28 -1.12907 1.09954 0
M  V30 11059 C 1062.52 -1.83661 0.833761 0
M  V30 11060 C 1062.84 -1.84736 -0.642798 0
M  V30 11061 O 1064.04 -2.51437 -1.0243 0
M  V30 11062 C 1062.5 -3.29763 1.44168 0
M  V30 11063 C 1062.11 -3.3706 2.95118 0
M  V30 11064 C 1063.85 -4.05522 1.25509 0
M  V30 11065 C 1061.76 -4.77467 3.48969 0
M  V30 11066 H 1060.69 -0.688115 0.308242 0
M  V30 11067 H 1063.34 -1.27166 1.32291 0
M  V30 11068 H 1061.72 -3.86094 0.880215 0
M  V30 11069 H 1062.9 -2.90695 3.57537 0
M  V30 11070 H 1061.21 -2.7477 3.12874 0
M  V30 11071 H 1063.81 -5.09188 1.63191 0
M  V30 11072 H 1064.15 -4.15837 0.196208 0
M  V30 11073 H 1064.68 -3.55536 1.78435 0
M  V30 11074 H 1061.42 -4.72344 4.54501 0
M  V30 11075 H 1060.94 -5.24305 2.91315 0
M  V30 11076 H 1062.62 -5.46397 3.46495 0
M  V30 11077 N 1062.75 -0.88754 -1.30232 0
M  V30 11078 C 1064 -0.508031 -1.96334 0
M  V30 11079 C 1064.33 0.940905 -1.69884 0
M  V30 11080 O 1063.61 1.66523 -1.005 0
M  V30 11081 C 1063.89 -0.786566 -3.51405 0
M  V30 11082 C 1063.74 -2.28632 -3.8736 0
M  V30 11083 C 1065.06 -0.264803 -4.39303 0
M  V30 11084 H 1062.18 -0.186051 -0.71313 0
M  V30 11085 H 1064.82 -1.112 -1.5406 0
M  V30 11086 H 1062.97 -0.272523 -3.87543 0
M  V30 11087 H 1064.65 -2.86896 -3.61231 0
M  V30 11088 H 1062.89 -2.75194 -3.35337 0
M  V30 11089 H 1063.56 -2.43181 -4.95547 0
M  V30 11090 H 1066.04 -0.704809 -4.10087 0
M  V30 11091 H 1064.91 -0.488998 -5.46717 0
M  V30 11092 H 1065.17 0.834055 -4.34161 0
M  V30 11093 N 1064.23 1.43628 -0.648757 0
M  V30 11094 C 1065.48 2.01465 -0.16002 0
M  V30 11095 C 1065.8 1.51413 1.22878 0
M  V30 11096 O 1065.07 0.724919 1.81994 0
M  V30 11097 H 1063.65 0.744885 -0.0561672 0
M  V30 11098 H 1066.31 1.75897 -0.839422 0
M  V30 11099 H 1065.41 3.1178 -0.141213 0
M  V30 11100 N 1065.71 0.390394 1.52688 0
M  V30 11101 C 1066.64 -0.479319 2.24132 0
M  V30 11102 C 1067.66 -1.0258 1.26416 0
M  V30 11103 O 1068.84 -0.927943 1.52484 0
M  V30 11104 C 1065.94 -1.67711 2.94493 0
M  V30 11105 C 1065.12 -1.2578 4.18925 0
M  V30 11106 C 1064.18 -2.3204 4.72275 0
M  V30 11107 O 1063.2 -1.93402 5.35336 0
M  V30 11108 N 1064.4 -3.63967 4.52226 0
M  V30 11109 H 1067.17 0.132777 2.99406 0
M  V30 11110 H 1064.73 0.216807 1.60442 0
M  V30 11111 H 1066.72 -2.38323 3.27084 0
M  V30 11112 H 1065.29 -2.19552 2.22521 0
M  V30 11113 H 1064.51 -0.380528 3.92359 0
M  V30 11114 H 1065.8 -0.954329 4.9977 0
M  V30 11115 H 1065.2 -3.98119 4.01892 0
M  V30 11116 H 1063.76 -4.30611 4.89303 0
M  V30 11117 N 1067.19 -1.57141 0.120249 0
M  V30 11118 C 1068.15 -2.14213 -0.815185 0
M  V30 11119 C 1069.15 -1.07731 -1.19376 0
M  V30 11120 O 1070.34 -1.33502 -1.11906 0
M  V30 11121 C 1067.47 -2.68339 -2.10255 0
M  V30 11122 H 1068.67 -2.98197 -0.319166 0
M  V30 11123 H 1066.22 -1.55767 -0.128997 0
M  V30 11124 H 1066.95 -1.87946 -2.64285 0
M  V30 11125 H 1066.74 -3.46216 -1.84057 0
M  V30 11126 H 1068.23 -3.124 -2.77121 0
M  V30 11127 N 1068.67 0.153526 -1.5685 0
M  V30 11128 C 1069.94 0.895545 -1.73895 0
M  V30 11129 C 1070.32 1.99625 -0.686504 0
M  V30 11130 O 1069.67 2.26579 0.2957 0
M  V30 11131 C 1069.88 1.44399 -3.17726 0
M  V30 11132 C 1071.23 1.90996 -3.79217 0
M  V30 11133 O 1072.25 1.54155 -3.21115 0
M  V30 11134 O 1071.11 2.58917 -4.81274 0
M  V30 11135 H 1068.21 0.422755 -0.710779 0
M  V30 11136 H 1070.75 0.139961 -1.69122 0
M  V30 11137 H 1069.52 0.652635 -3.85819 0
M  V30 11138 H 1069.15 2.26326 -3.26898 0
M  V30 11139 N 1070.14 1.51827 0.422667 0
M  V30 11140 C 1071.39 1.64893 1.16853 0
M  V30 11141 C 1071.71 0.37456 1.91369 0
M  V30 11142 O 1070.98 -0.610128 1.86157 0
M  V30 11143 H 1069.56 0.607744 0.434345 0
M  V30 11144 H 1072.23 1.88816 0.483159 0
M  V30 11145 H 1071.32 2.48361 1.89006 0
M  V30 11146 N 1071.62 -0.679052 1.4222 0
M  V30 11147 C 1072.87 -1.43627 1.42182 0
M  V30 11148 C 1073.19 -1.94964 0.0377095 0
M  V30 11149 O 1072.46 -1.72788 -0.923098 0
M  V30 11150 H 1071.04 -0.532972 0.523402 0
M  V30 11151 H 1073.7 -0.802649 1.77605 0
M  V30 11152 H 1072.8 -2.29137 2.11902 0
M  V30 11153 N 1073.1 -1.28322 -0.914942 0
M  V30 11154 C 1074.03 -1.14681 -2.03398 0
M  V30 11155 C 1075.01 -0.0448939 -1.70041 0
M  V30 11156 O 1076.2 -0.221672 -1.92931 0
M  V30 11157 C 1073.33 -0.806623 -3.37803 0
M  V30 11158 C 1072.28 -1.86318 -3.85318 0
M  V30 11159 C 1071.61 -1.37665 -5.16674 0
M  V30 11160 C 1072.91 -3.26953 -4.07307 0
M  V30 11161 H 1074.6 -2.08293 -2.15068 0
M  V30 11162 H 1072.15 -1.00284 -1.03339 0
M  V30 11163 H 1074.1 -0.69796 -4.1558 0
M  V30 11164 H 1072.82 0.165203 -3.26182 0
M  V30 11165 H 1071.48 -1.96096 -3.09745 0
M  V30 11166 H 1071.13 -0.393927 -5.01455 0
M  V30 11167 H 1070.83 -2.08313 -5.49435 0
M  V30 11168 H 1072.35 -1.28119 -5.97007 0
M  V30 11169 H 1073.77 -3.20102 -4.75613 0
M  V30 11170 H 1072.17 -3.95424 -4.51398 0
M  V30 11171 H 1073.24 -3.71059 -3.12159 0
M  V30 11172 N 1074.58 1.12322 -1.10551 0
M  V30 11173 C 1075.8 1.8822 -0.871093 0
M  V30 11174 C 1076.23 1.7916 0.573005 0
M  V30 11175 O 1075.59 1.14738 1.40374 0
M  V30 11176 C 1075.63 3.35349 -1.32565 0
M  V30 11177 O 1074.74 4.09461 -0.49145 0
M  V30 11178 H 1074.08 0.584787 -0.314516 0
M  V30 11179 H 1076.61 1.42039 -1.47262 0
M  V30 11180 H 1076.62 3.86189 -1.31612 0
M  V30 11181 H 1075.29 3.4126 -2.37728 0
M  V30 11182 H 1073.87 3.68575 -0.566294 0
M  V30 11183 N 1076.06 0.894434 1.2976 0
M  V30 11184 C 1077.3 0.518435 1.96061 0
M  V30 11185 C 1077.64 -0.931882 1.70381 0
M  V30 11186 O 1076.91 -1.65988 1.01381 0
M  V30 11187 C 1077.19 0.80519 3.50982 0
M  V30 11188 C 1077.05 2.30683 3.86142 0
M  V30 11189 C 1078.37 0.288096 4.39156 0
M  V30 11190 H 1075.48 0.18983 0.712133 0
M  V30 11191 H 1078.13 1.12016 1.53468 0
M  V30 11192 H 1076.28 0.293071 3.87393 0
M  V30 11193 H 1077.95 2.88808 3.59705 0
M  V30 11194 H 1076.19 2.76968 3.33873 0
M  V30 11195 H 1076.86 2.45805 4.94251 0
M  V30 11196 H 1079.34 0.726547 4.09708 0
M  V30 11197 H 1078.21 0.517985 5.4645 0
M  V30 11198 H 1078.48 -0.811018 4.34597 0
M  V30 11199 N 1077.53 -1.43282 0.656365 0
M  V30 11200 C 1078.46 -2.33492 -0.0196962 0
M  V30 11201 C 1079.45 -1.49647 -0.80868 0
M  V30 11202 O 1080.63 -1.78303 -0.769529 0
M  V30 11203 C 1077.76 -3.33052 -0.984574 0
M  V30 11204 C 1076.71 -4.26908 -0.305483 0
M  V30 11205 C 1076.04 -5.16531 -1.38202 0
M  V30 11206 C 1077.34 -5.16073 0.804081 0
M  V30 11207 H 1079.03 -2.90272 0.733661 0
M  V30 11208 H 1076.58 -1.39574 0.354259 0
M  V30 11209 H 1078.53 -3.9506 -1.46647 0
M  V30 11210 H 1077.26 -2.74535 -1.76913 0
M  V30 11211 H 1075.92 -3.66268 0.155995 0
M  V30 11212 H 1075.56 -4.54351 -2.1581 0
M  V30 11213 H 1075.26 -5.80148 -0.932878 0
M  V30 11214 H 1076.79 -5.81414 -1.86522 0
M  V30 11215 H 1078.2 -5.71873 0.404212 0
M  V30 11216 H 1076.6 -5.88427 1.17789 0
M  V30 11217 H 1077.67 -4.55574 1.66073 0
M  V30 11218 N 1079.01 -0.398486 -1.52479 0
M  V30 11219 C 1080.43 -0.0488635 -1.59525 0
M  V30 11220 C 1080.63 1.43756 -1.41197 0
M  V30 11221 O 1079.69 2.20317 -1.23357 0
M  V30 11222 C 1081 -0.534262 -2.95916 0
M  V30 11223 C 1082.55 -0.491314 -3.0912 0
M  V30 11224 C 1083.02 -0.953049 -4.47974 0
M  V30 11225 N 1084.51 -0.909434 -4.54184 0
M  V30 11226 C 1085.25 -1.23801 -5.59876 0
M  V30 11227 N 1084.74 -1.63752 -6.73169 0
M  V30 11228 N 1086.54 -1.15867 -5.50028 0
M  V30 11229 H 1078.69 -1.36608 -1.62641 0
M  V30 11230 H 1080.95 -0.560515 -0.764544 0
M  V30 11231 H 1080.66 -1.57277 -3.14574 0
M  V30 11232 H 1080.53 0.0617787 -3.77149 0
M  V30 11233 H 1082.92 0.538123 -2.90152 0
M  V30 11234 H 1083 -1.12327 -2.29818 0
M  V30 11235 H 1082.64 -1.98076 -4.67684 0
M  V30 11236 H 1082.57 -0.298007 -5.25756 0
M  V30 11237 H 1085.06 -0.615569 -3.72853 0
M  V30 11238 H 1085.38 -1.87163 -7.49793 0
M  V30 11239 H 1083.72 -1.67647 -6.74477 0
M  V30 11240 H 1086.91 -0.845502 -4.60401 0
M  V30 11241 H 1087.09 -1.41805 -6.32294 0
M  V30 11242 N 1080.49 1.57075 -0.12858 0
M  V30 11243 C 1081.72 1.99876 0.534544 0
M  V30 11244 C 1082.13 1.00843 1.59612 0
M  V30 11245 O 1081.49 0.00268947 1.825 0
M  V30 11246 C 1081.54 3.42654 1.15198 0
M  V30 11247 O 1081.26 4.37899 0.132823 0
M  V30 11248 C 1082.76 4.00637 1.8975 0
M  V30 11249 H 1079.98 0.656073 0.140744 0
M  V30 11250 H 1082.53 2.03337 -0.217742 0
M  V30 11251 H 1080.68 3.40101 1.85499 0
M  V30 11252 H 1081.1 5.21253 0.582682 0
M  V30 11253 H 1082.57 5.02592 2.28266 0
M  V30 11254 H 1083.05 3.40313 2.7764 0
M  V30 11255 H 1083.65 4.06764 1.2419 0
M  V30 11256 N 1081.97 -0.145205 1.5693 0
M  V30 11257 C 1083.22 -0.857516 1.83447 0
M  V30 11258 C 1083.54 -1.81088 0.709739 0
M  V30 11259 O 1082.8 -1.9337 -0.301097 0
M  V30 11260 C 1083.1 -1.66391 3.16305 0
M  V30 11261 C 1082.76 -0.857171 4.42678 0
M  V30 11262 C 1081.43 -0.634611 4.76997 0
M  V30 11263 C 1083.78 -0.293105 5.20375 0
M  V30 11264 C 1081.11 0.162693 5.86474 0
M  V30 11265 C 1083.46 0.491248 6.3069 0
M  V30 11266 C 1082.12 0.724368 6.63558 0
M  V30 11267 H 1081.39 -0.313787 0.671281 0
M  V30 11268 H 1084.04 -0.121074 1.91117 0
M  V30 11269 H 1082.34 -2.47051 3.04094 0
M  V30 11270 H 1084.04 -2.21855 3.34038 0
M  V30 11271 H 1080.63 -1.0407 4.15773 0
M  V30 11272 H 1084.82 -0.452326 4.94234 0
M  V30 11273 H 1080.07 0.352788 6.10381 0
M  V30 11274 H 1084.25 0.935449 6.90089 0
M  V30 11275 H 1081.87 1.34403 7.48224 0
M  V30 11276 N 1083.45 -1.52049 -0.414609 0
M  V30 11277 C 1084.86 -1.40729 -0.752822 0
M  V30 11278 C 1085.06 -0.507468 -1.95005 0
M  V30 11279 O 1084.12 0.0288189 -2.52484 0
M  V30 11280 C 1085.43 -2.83163 -1.01189 0
M  V30 11281 C 1086.98 -2.92469 -1.11494 0
M  V30 11282 C 1087.46 -4.35859 -1.4068 0
M  V30 11283 N 1088.95 -4.39069 -1.47557 0
M  V30 11284 C 1089.68 -5.47072 -1.71756 0
M  V30 11285 N 1089.18 -6.65201 -1.93595 0
M  V30 11286 N 1090.97 -5.3458 -1.73726 0
M  V30 11287 H 1083.12 -2.09089 0.373549 0
M  V30 11288 H 1085.38 -0.942188 0.104814 0
M  V30 11289 H 1085.09 -3.51104 -0.204609 0
M  V30 11290 H 1084.96 -3.23874 -1.93353 0
M  V30 11291 H 1087.35 -2.24711 -1.91282 0
M  V30 11292 H 1087.43 -2.55222 -0.171794 0
M  V30 11293 H 1087.08 -5.04174 -0.614119 0
M  V30 11294 H 1087.01 -4.70637 -2.36238 0
M  V30 11295 H 1089.5 -3.53913 -1.32491 0
M  V30 11296 H 1089.81 -7.43297 -2.11495 0
M  V30 11297 H 1088.16 -6.68276 -1.90871 0
M  V30 11298 H 1091.35 -4.41271 -1.56198 0
M  V30 11299 H 1091.52 -6.18826 -1.92246 0
M  V30 11300 N 1084.93 0.6715 -1.42579 0
M  V30 11301 C 1085.86 1.79693 -1.49107 0
M  V30 11302 C 1086.84 1.66516 -0.347338 0
M  V30 11303 O 1088.02 1.85887 -0.562094 0
M  V30 11304 C 1085.15 3.1801 -1.39596 0
M  V30 11305 C 1084.11 3.45926 -2.5203 0
M  V30 11306 C 1083.43 4.83852 -2.27577 0
M  V30 11307 C 1084.73 3.4249 -3.94333 0
M  V30 11308 H 1086.43 1.74486 -2.433 0
M  V30 11309 H 1083.97 0.838042 -1.17102 0
M  V30 11310 H 1085.92 3.96478 -1.42771 0
M  V30 11311 H 1084.65 3.23901 -0.418989 0
M  V30 11312 H 1083.31 2.6982 -2.48178 0
M  V30 11313 H 1082.96 4.86398 -1.28165 0
M  V30 11314 H 1082.66 5.03493 -3.02934 0
M  V30 11315 H 1084.18 5.646 -2.32506 0
M  V30 11316 H 1085.59 4.10922 -3.9977 0
M  V30 11317 H 1083.99 3.73666 -4.69568 0
M  V30 11318 H 1085.06 2.41002 -4.20768 0
M  V30 11319 N 1086.4 1.28806 0.908124 0
M  V30 11320 C 1087.33 1.15758 2.02787 0
M  V30 11321 C 1088.31 0.053911 1.70015 0
M  V30 11322 O 1089.5 0.231901 1.9281 0
M  V30 11323 C 1086.63 0.824526 3.37371 0
M  V30 11324 C 1085.58 1.88359 3.84324 0
M  V30 11325 C 1084.91 1.40404 5.15937 0
M  V30 11326 C 1086.21 3.29108 4.05568 0
M  V30 11327 H 1087.9 2.09431 2.13961 0
M  V30 11328 H 1085.45 1.00831 1.02806 0
M  V30 11329 H 1087.4 0.71999 4.15204 0
M  V30 11330 H 1086.13 -0.147902 3.26265 0
M  V30 11331 H 1084.79 1.97736 3.087 0
M  V30 11332 H 1084.43 0.420515 5.01239 0
M  V30 11333 H 1084.13 2.11224 5.48323 0
M  V30 11334 H 1085.66 1.31283 5.9632 0
M  V30 11335 H 1087.07 3.2262 4.73909 0
M  V30 11336 H 1085.47 3.97812 4.49294 0
M  V30 11337 H 1086.54 3.72709 3.10187 0
M  V30 11338 N 1087.88 -1.11734 1.11145 0
M  V30 11339 C 1089.3 -1.35412 0.844736 0
M  V30 11340 C 1089.5 -1.94347 -0.532111 0
M  V30 11341 O 1088.55 -2.17443 -1.28353 0
M  V30 11342 C 1089.87 -2.28869 1.95037 0
M  V30 11343 C 1091.41 -2.42442 1.97967 0
M  V30 11344 C 1091.89 -3.39219 3.07725 0
M  V30 11345 N 1093.38 -3.4678 3.07079 0
M  V30 11346 C 1094.12 -4.21595 3.88646 0
M  V30 11347 N 1093.61 -4.99411 4.80167 0
M  V30 11348 N 1095.4 -4.17075 3.76835 0
M  V30 11349 H 1087.56 -0.718412 1.99881 0
M  V30 11350 H 1089.82 -0.378787 0.869037 0
M  V30 11351 H 1089.52 -1.92752 2.94176 0
M  V30 11352 H 1089.4 -3.2906 1.84389 0
M  V30 11353 H 1091.79 -2.77835 0.994561 0
M  V30 11354 H 1091.87 -1.42113 2.12691 0
M  V30 11355 H 1091.51 -3.04553 4.0646 0
M  V30 11356 H 1091.44 -4.39394 2.90242 0
M  V30 11357 H 1093.93 -2.91272 2.40767 0
M  V30 11358 H 1094.24 -5.53856 5.38946 0
M  V30 11359 H 1092.59 -4.98582 4.84191 0
M  V30 11360 H 1095.78 -3.55369 3.04681 0
M  V30 11361 H 1095.95 -4.75125 4.40637 0
M  V30 11362 N 1089.36 -0.901303 -1.29284 0
M  V30 11363 C 1090.61 -0.528826 -1.95784 0
M  V30 11364 C 1090.94 0.922833 -1.70873 0
M  V30 11365 O 1090.21 1.65448 -1.0226 0
M  V30 11366 C 1090.5 -0.823793 -3.50551 0
M  V30 11367 C 1090.35 -2.32727 -3.84913 0
M  V30 11368 C 1091.67 -0.311382 -4.38997 0
M  V30 11369 H 1088.79 -0.193604 -0.711116 0
M  V30 11370 H 1091.43 -1.12828 -1.52872 0
M  V30 11371 H 1089.58 -0.313612 -3.87232 0
M  V30 11372 H 1091.25 -2.90712 -3.58168 0
M  V30 11373 H 1089.49 -2.78735 -3.32399 0
M  V30 11374 H 1090.17 -2.48423 -4.9294 0
M  V30 11375 H 1092.64 -0.748265 -4.09317 0
M  V30 11376 H 1091.52 -0.546957 -5.46168 0
M  V30 11377 H 1091.78 0.787959 -4.35021 0
M  V30 11378 N 1090.84 1.42931 -0.663954 0
M  V30 11379 C 1091.77 2.33499 0.00731327 0
M  V30 11380 C 1092.75 1.50074 0.800733 0
M  V30 11381 O 1093.93 1.78708 0.760062 0
M  V30 11382 C 1091.06 3.33569 0.966897 0
M  V30 11383 C 1090.02 4.27064 0.282839 0
M  V30 11384 C 1089.34 5.17257 1.35461 0
M  V30 11385 C 1090.64 5.1564 -0.831438 0
M  V30 11386 H 1092.34 2.89879 -0.749044 0
M  V30 11387 H 1089.88 1.39385 -0.361656 0
M  V30 11388 H 1091.84 3.95833 1.44549 0
M  V30 11389 H 1090.56 2.75469 1.75455 0
M  V30 11390 H 1089.22 3.6618 -0.175417 0
M  V30 11391 H 1088.87 4.5549 2.13397 0
M  V30 11392 H 1088.57 5.80634 0.902098 0
M  V30 11393 H 1090.09 5.82395 1.83436 0
M  V30 11394 H 1091.51 5.71651 -0.434534 0
M  V30 11395 H 1089.9 5.87794 -1.20908 0
M  V30 11396 H 1090.97 4.54687 -1.68487 0
M  V30 11397 N 1092.32 0.406567 1.52266 0
M  V30 11398 C 1093.26 -0.420182 2.26943 0
M  V30 11399 C 1094.23 -1.04323 1.29251 0
M  V30 11400 O 1095.42 -1.06799 1.5811 0
M  V30 11401 C 1092.56 -1.5323 3.09216 0
M  V30 11402 C 1091.67 -0.930419 4.21862 0
M  V30 11403 C 1090.81 -2.01502 4.91498 0
M  V30 11404 C 1089.84 -1.38994 5.9611 0
M  V30 11405 N 1088.98 -2.41458 6.59274 0
M  V30 11406 H 1093.82 0.223066 2.97164 0
M  V30 11407 H 1091.36 0.121842 1.46595 0
M  V30 11408 H 1093.32 -2.18803 3.5522 0
M  V30 11409 H 1091.95 -2.14561 2.41171 0
M  V30 11410 H 1091 -0.163809 3.80047 0
M  V30 11411 H 1092.31 -0.433785 4.9691 0
M  V30 11412 H 1091.46 -2.74807 5.40894 0
M  V30 11413 H 1090.2 -2.5453 4.16012 0
M  V30 11414 H 1089.21 -0.642213 5.46036 0
M  V30 11415 H 1090.43 -0.867386 6.73538 0
M  V30 11416 H 1088.38 -2.93623 5.86619 0
M  V30 11417 H 1088.3 -1.96599 7.2999 0
M  V30 11418 H 1089.56 -3.14341 7.13309 0
M  V30 11419 N 1093.79 -1.57004 0.136909 0
M  V30 11420 C 1094.72 -2.19262 -0.802902 0
M  V30 11421 C 1095.71 -1.13786 -1.26439 0
M  V30 11422 O 1096.89 -1.42091 -1.32377 0
M  V30 11423 C 1094.02 -2.80624 -2.04615 0
M  V30 11424 C 1092.97 -3.91839 -1.72181 0
M  V30 11425 C 1092.3 -4.4009 -3.03686 0
M  V30 11426 C 1093.6 -5.13095 -0.976249 0
M  V30 11427 H 1095.29 -2.98049 -0.28406 0
M  V30 11428 H 1092.84 -1.43364 -0.135189 0
M  V30 11429 H 1094.79 -3.22842 -2.70834 0
M  V30 11430 H 1093.52 -1.99153 -2.58855 0
M  V30 11431 H 1092.18 -3.50224 -1.08344 0
M  V30 11432 H 1091.82 -3.55454 -3.55896 0
M  V30 11433 H 1091.52 -5.15098 -2.82751 0
M  V30 11434 H 1093.05 -4.84971 -3.70993 0
M  V30 11435 H 1094.46 -5.5222 -1.54033 0
M  V30 11436 H 1092.86 -5.93801 -0.867214 0
M  V30 11437 H 1093.93 -4.84888 0.0338488 0
M  V30 11438 N 1095.27 0.136881 -1.57004 0
M  V30 11439 C 1096.52 0.849031 -1.84172 0
M  V30 11440 C 1096.85 1.80359 -0.720027 0
M  V30 11441 O 1096.13 1.92538 0.275584 0
M  V30 11442 C 1096.41 1.61465 -3.21871 0
M  V30 11443 C 1096.26 0.680902 -4.44616 0
M  V30 11444 C 1097.58 2.57488 -3.56914 0
M  V30 11445 H 1094.7 0.307209 -0.669919 0
M  V30 11446 H 1097.34 0.113862 -1.89659 0
M  V30 11447 H 1095.49 2.24137 -3.17325 0
M  V30 11448 H 1097.16 0.0644094 -4.61255 0
M  V30 11449 H 1095.41 -0.00883629 -4.33799 0
M  V30 11450 H 1096.08 1.25286 -5.37594 0
M  V30 11451 H 1098.55 2.0493 -3.62136 0
M  V30 11452 H 1097.43 3.08101 -4.54274 0
M  V30 11453 H 1097.69 3.39321 -2.83397 0
M  V30 11454 N 1096.75 1.52266 0.40654 0
M  V30 11455 C 1098.17 1.41127 0.745348 0
M  V30 11456 C 1098.37 0.517802 1.94733 0
M  V30 11457 O 1097.42 -0.0154286 2.52495 0
M  V30 11458 C 1098.74 2.83696 0.996859 0
M  V30 11459 C 1100.28 2.93056 1.09942 0
M  V30 11460 C 1100.76 4.36599 1.38367 0
M  V30 11461 N 1102.25 4.39845 1.45226 0
M  V30 11462 C 1102.98 5.47975 1.68852 0
M  V30 11463 N 1102.48 6.66219 1.90065 0
M  V30 11464 N 1104.27 5.35494 1.70888 0
M  V30 11465 H 1096.42 2.08888 -0.384632 0
M  V30 11466 H 1098.69 0.941619 -0.109809 0
M  V30 11467 H 1098.39 3.51208 0.185986 0
M  V30 11468 H 1098.27 3.24895 1.91632 0
M  V30 11469 H 1100.65 2.25723 1.90088 0
M  V30 11470 H 1100.74 2.5531 0.158256 0
M  V30 11471 H 1100.38 5.04492 0.587373 0
M  V30 11472 H 1100.31 4.71883 2.33739 0
M  V30 11473 H 1102.8 3.54611 1.30612 0
M  V30 11474 H 1103.11 7.44408 2.0755 0
M  V30 11475 H 1101.46 6.69279 1.87325 0
M  V30 11476 H 1104.65 4.42093 1.53856 0
M  V30 11477 H 1104.82 6.19837 1.88962 0
M  V30 11478 N 1098.23 -0.663929 1.42933 0
M  V30 11479 C 1099.48 -1.42393 1.43981 0
M  V30 11480 C 1099.8 -1.94407 0.0601802 0
M  V30 11481 O 1099.06 -1.72019 -0.933172 0
M  V30 11482 C 1099.36 -2.62976 2.4203 0
M  V30 11483 C 1099.02 -2.29441 3.88159 0
M  V30 11484 C 1097.69 -2.20007 4.27961 0
M  V30 11485 C 1100.04 -2.02413 4.8029 0
M  V30 11486 C 1097.37 -1.81686 5.57859 0
M  V30 11487 C 1099.72 -1.65592 6.10542 0
M  V30 11488 C 1098.38 -1.54676 6.49332 0
M  V30 11489 H 1097.65 -0.521051 0.526865 0
M  V30 11490 H 1100.3 -0.756042 1.75944 0
M  V30 11491 H 1098.6 -3.34847 2.03433 0
M  V30 11492 H 1100.3 -3.21174 2.40101 0
M  V30 11493 H 1096.89 -2.3769 3.56653 0
M  V30 11494 H 1101.07 -2.08628 4.5032 0
M  V30 11495 H 1096.33 -1.71812 5.86763 0
M  V30 11496 H 1100.5 -1.43707 6.81411 0
M  V30 11497 H 1098.13 -1.24752 7.49894 0
M  V30 11498 N 1099.71 -1.29285 -0.901281 0
M  V30 11499 C 1100.64 -1.08603 -2.007 0
M  V30 11500 C 1101.62 0.00162233 -1.626 0
M  V30 11501 O 1102.8 -0.148764 -1.87912 0
M  V30 11502 C 1099.93 -0.652972 -3.32346 0
M  V30 11503 C 1098.97 -1.73911 -3.89432 0
M  V30 11504 S 1099.81 -3.33797 -4.18736 0
M  V30 11505 C 1100.96 -2.92355 -5.53425 0
M  V30 11506 H 1101.2 -2.02216 -2.17936 0
M  V30 11507 H 1098.73 -1.13414 -1.04769 0
M  V30 11508 H 1100.69 -0.409825 -4.08449 0
M  V30 11509 H 1099.35 0.263527 -3.12993 0
M  V30 11510 H 1098.54 -1.388 -4.84511 0
M  V30 11511 H 1098.14 -1.93569 -3.20011 0
M  V30 11512 H 1100.44 -2.39301 -6.33831 0
M  V30 11513 H 1101.38 -3.86278 -5.9346 0
M  V30 11514 H 1101.79 -2.30697 -5.15208 0
M  V30 11515 N 1101.18 1.11143 -1.11736 0
M  V30 11516 C 1102.6 1.64462 -0.883693 0
M  V30 11517 C 1102.95 1.87324 0.583448 0
M  V30 11518 O 1102.07 1.60975 1.44623 0
M  V30 11519 C 1102.67 2.98765 -1.59764 0
M  V30 11520 C 1101.23 3.4898 -1.41032 0
M  V30 11521 C 1100.37 2.23729 -1.63831 0
M  V30 11522 H 1103.32 0.947415 -1.27317 0
M  V30 11523 H 1103.34 3.65885 -1.04443 0
M  V30 11524 H 1102.86 2.82094 -2.66542 0
M  V30 11525 H 1100.96 3.7081 -0.364781 0
M  V30 11526 H 1101.07 4.27571 -2.16148 0
M  V30 11527 H 1099.43 2.31507 -1.06191 0
M  V30 11528 H 1100.22 2.09597 -2.7189 0
M  V30 11529 N 1102.66 0.908147 1.28804 0
M  V30 11530 C 1103.63 0.397058 2.25735 0
M  V30 11531 C 1104.63 -0.473483 1.53671 0
M  V30 11532 O 1105.82 -0.277335 1.71978 0
M  V30 11533 C 1102.95 -0.431392 3.38159 0
M  V30 11534 H 1104.14 1.25323 2.72459 0
M  V30 11535 H 1101.69 0.687041 1.4039 0
M  V30 11536 H 1102.43 -1.3072 2.96787 0
M  V30 11537 H 1102.21 0.192502 3.91627 0
M  V30 11538 H 1103.7 -0.78 4.10251 0
M  V30 11539 N 1104.14 -1.42577 0.671525 0
M  V30 11540 C 1105.07 -2.33499 0.00506984 0
M  V30 11541 C 1106.05 -1.50497 -0.792763 0
M  V30 11542 O 1107.24 -1.79109 -0.750574 0
M  V30 11543 C 1104.37 -3.34077 -0.949194 0
M  V30 11544 C 1103.32 -4.27208 -0.260187 0
M  V30 11545 C 1102.65 -5.17968 -1.32716 0
M  V30 11546 C 1103.95 -5.15192 0.858772 0
M  V30 11547 H 1105.64 -2.89477 0.764407 0
M  V30 11548 H 1103.19 -1.39191 0.369043 0
M  V30 11549 H 1105.14 -3.96594 -1.42448 0
M  V30 11550 H 1103.86 -2.76396 -1.73991 0
M  V30 11551 H 1102.52 -3.66082 0.194834 0
M  V30 11552 H 1102.17 -4.56615 -2.10979 0
M  V30 11553 H 1101.87 -5.81104 -0.871293 0
M  V30 11554 H 1103.39 -5.83359 -1.80345 0
M  V30 11555 H 1104.81 -5.71412 0.464844 0
M  V30 11556 H 1103.21 -5.87144 1.24023 0
M  V30 11557 H 1104.28 -4.53787 1.70895 0
M  V30 11558 N 1105.62 -0.414636 -1.52048 0
M  V30 11559 C 1107.03 -0.0657806 -1.59464 0
M  V30 11560 C 1107.23 1.4225 -1.42713 0
M  V30 11561 O 1106.29 2.18996 -1.25687 0
M  V30 11562 C 1107.6 -0.565618 -2.95332 0
M  V30 11563 C 1109.15 -0.524072 -3.08581 0
M  V30 11564 C 1109.63 -1.00051 -4.46938 0
M  V30 11565 N 1111.12 -0.957555 -4.53194 0
M  V30 11566 C 1111.85 -1.29733 -5.58531 0
M  V30 11567 N 1111.35 -1.70883 -6.71395 0
M  V30 11568 N 1113.14 -1.21694 -5.48769 0
M  V30 11569 H 1105.29 -1.38325 -1.61183 0
M  V30 11570 H 1107.56 -0.568593 -0.758556 0
M  V30 11571 H 1107.26 -1.60604 -3.12888 0
M  V30 11572 H 1107.14 0.0217735 -3.77194 0
M  V30 11573 H 1109.52 0.507319 -2.90707 0
M  V30 11574 H 1109.6 -1.14759 -2.28613 0
M  V30 11575 H 1109.25 -2.03025 -4.65557 0
M  V30 11576 H 1109.18 -0.353754 -5.2541 0
M  V30 11577 H 1111.67 -0.65508 -3.72179 0
M  V30 11578 H 1111.98 -1.95105 -7.47766 0
M  V30 11579 H 1110.33 -1.74791 -6.72661 0
M  V30 11580 H 1113.52 -0.894286 -4.59478 0
M  V30 11581 H 1113.69 -1.48504 -6.30754 0
M  V30 11582 N 1107.1 1.56929 -0.145233 0
M  V30 11583 C 1108.51 1.58196 0.211194 0
M  V30 11584 C 1108.71 1.15941 1.64803 0
M  V30 11585 O 1107.77 0.858888 2.37443 0
M  V30 11586 C 1109.08 3.00665 -0.0459569 0
M  V30 11587 C 1110.63 3.12995 0.0178913 0
M  V30 11588 C 1111.1 4.5751 -0.211905 0
M  V30 11589 N 1112.6 4.62928 -0.158772 0
M  V30 11590 C 1113.33 5.72555 -0.311111 0
M  V30 11591 N 1112.83 6.90838 -0.521074 0
M  V30 11592 N 1114.62 5.61549 -0.248838 0
M  V30 11593 H 1106.77 1.8269 -1.08342 0
M  V30 11594 H 1109.03 0.845514 -0.428731 0
M  V30 11595 H 1108.74 3.35962 -1.0403 0
M  V30 11596 H 1108.61 3.71125 0.674246 0
M  V30 11597 H 1111 2.7754 1.00278 0
M  V30 11598 H 1111.08 2.45025 -0.734612 0
M  V30 11599 H 1110.73 4.93669 -1.19389 0
M  V30 11600 H 1110.66 5.23604 0.560901 0
M  V30 11601 H 1113.15 3.779 -0.00107283 0
M  V30 11602 H 1113.46 7.70248 -0.62747 0
M  V30 11603 H 1111.8 6.92761 -0.557374 0
M  V30 11604 H 1115 4.68022 -0.0855821 0
M  V30 11605 H 1115.17 6.46937 -0.370997 0
M  V30 11606 N 1108.58 -0.128553 1.57075 0
M  V30 11607 C 1109.51 -1.18362 1.96273 0
M  V30 11608 C 1110.52 -1.3818 0.860818 0
M  V30 11609 O 1111.71 -1.37424 1.13916 0
M  V30 11610 C 1108.81 -2.54533 2.23755 0
M  V30 11611 C 1107.98 -2.55446 3.55058 0
M  V30 11612 C 1107.04 -3.73291 3.70864 0
M  V30 11613 O 1106.07 -3.57315 4.43074 0
M  V30 11614 N 1107.27 -4.91481 3.08912 0
M  V30 11615 H 1110.03 -0.850276 2.87385 0
M  V30 11616 H 1107.6 -0.317931 1.58748 0
M  V30 11617 H 1109.59 -3.31912 2.31553 0
M  V30 11618 H 1108.16 -2.80087 1.38816 0
M  V30 11619 H 1107.38 -1.6385 3.58534 0
M  V30 11620 H 1108.67 -2.53104 4.4138 0
M  V30 11621 H 1108.06 -5.07364 2.50196 0
M  V30 11622 H 1106.62 -5.6657 3.22245 0
M  V30 11623 N 1110.05 -1.5248 -0.398459 0
M  V30 11624 C 1110.98 -1.79549 -1.49279 0
M  V30 11625 C 1111.96 -0.647004 -1.57315 0
M  V30 11626 O 1113.15 -0.893661 -1.72416 0
M  V30 11627 C 1110.28 -1.95582 -2.86993 0
M  V30 11628 C 1109.23 -3.1123 -2.93803 0
M  V30 11629 C 1108.56 -3.12501 -4.33874 0
M  V30 11630 C 1109.86 -4.50485 -2.64312 0
M  V30 11631 H 1111.55 -2.71187 -1.26877 0
M  V30 11632 H 1109.1 -1.30492 -0.608924 0
M  V30 11633 H 1111.05 -2.13102 -3.63546 0
M  V30 11634 H 1109.78 -1.00625 -3.10712 0
M  V30 11635 H 1108.44 -2.93477 -2.19697 0
M  V30 11636 H 1108.08 -2.15245 -4.54619 0
M  V30 11637 H 1107.78 -3.90183 -4.39353 0
M  V30 11638 H 1109.31 -3.32164 -5.12347 0
M  V30 11639 H 1110.72 -4.68387 -3.30585 0
M  V30 11640 H 1109.12 -5.30163 -2.81153 0
M  V30 11641 H 1110.19 -4.57848 -1.59696 0
M  V30 11642 N 1111.53 0.65634 -1.43283 0
M  V30 11643 C 1112.78 1.41837 -1.44949 0
M  V30 11644 C 1113.11 1.94065 -0.0723212 0
M  V30 11645 O 1112.39 1.72092 0.906346 0
M  V30 11646 C 1112.67 2.60206 -2.48927 0
M  V30 11647 C 1112.52 2.1349 -3.95907 0
M  V30 11648 C 1113.84 3.62421 -2.49678 0
M  V30 11649 H 1110.96 0.514398 -0.527792 0
M  V30 11650 H 1113.6 0.74435 -1.74813 0
M  V30 11651 H 1111.75 3.17708 -2.23592 0
M  V30 11652 H 1113.42 1.61012 -4.32288 0
M  V30 11653 H 1111.67 1.4489 -4.08888 0
M  V30 11654 H 1112.34 2.98596 -4.64268 0
M  V30 11655 H 1114.81 3.14671 -2.72252 0
M  V30 11656 H 1113.69 4.42798 -3.24378 0
M  V30 11657 H 1113.95 4.14802 -1.52944 0
M  V30 11658 N 1113.01 1.29761 0.894412 0
M  V30 11659 C 1114.26 1.18214 1.64782 0
M  V30 11660 C 1114.59 -0.264635 1.92388 0
M  V30 11661 O 1113.86 -1.19051 1.53809 0
M  V30 11662 C 1114.15 2.00138 2.99361 0
M  V30 11663 C 1114 3.52984 2.78787 0
M  V30 11664 C 1115.32 1.83187 4.00163 0
M  V30 11665 H 1112.44 0.430802 0.597979 0
M  V30 11666 H 1115.08 1.59292 1.03566 0
M  V30 11667 H 1113.23 1.65233 3.51611 0
M  V30 11668 H 1114.9 3.97898 2.33398 0
M  V30 11669 H 1113.14 3.77642 2.13469 0
M  V30 11670 H 1113.82 4.05585 3.7444 0
M  V30 11671 H 1116.29 2.13684 3.57041 0
M  V30 11672 H 1115.17 2.42849 4.92255 0
M  V30 11673 H 1115.43 0.788469 4.35012 0
M  V30 11674 N 1114.49 -1.10549 1.12324 0
M  V30 11675 C 1115.42 -2.18911 0.812416 0
M  V30 11676 C 1116.4 -1.68628 -0.22327 0
M  V30 11677 O 1117.58 -1.94015 -0.0847184 0
M  V30 11678 C 1114.71 -3.46288 0.264947 0
M  V30 11679 C 1113.67 -4.09838 1.23356 0
M  V30 11680 C 1112.99 -5.31901 0.546374 0
M  V30 11681 C 1114.29 -4.53686 2.58778 0
M  V30 11682 H 1115.99 -2.45169 1.71851 0
M  V30 11683 H 1113.53 -1.17834 0.827715 0
M  V30 11684 H 1115.49 -4.21385 0.0352364 0
M  V30 11685 H 1114.21 -3.19517 -0.676479 0
M  V30 11686 H 1112.87 -3.36746 1.44906 0
M  V30 11687 H 1112.52 -5.01406 -0.400157 0
M  V30 11688 H 1112.22 -5.75372 1.19249 0
M  V30 11689 H 1113.74 -6.09731 0.325673 0
M  V30 11690 H 1115.16 -5.20063 2.41263 0
M  V30 11691 H 1113.55 -5.08003 3.19457 0
M  V30 11692 H 1114.62 -3.66665 3.17309 0
M  V30 11693 N 1115.97 -0.914965 -1.28321 0
M  V30 11694 C 1116.9 -0.348729 -2.2552 0
M  V30 11695 C 1117.88 0.547737 -1.53097 0
M  V30 11696 O 1119.06 0.491119 -1.8199 0
M  V30 11697 C 1116.19 0.501397 -3.34968 0
M  V30 11698 C 1115.23 -0.329859 -4.25223 0
M  V30 11699 S 1116.07 -1.73737 -5.06533 0
M  V30 11700 C 1117.22 -0.89458 -6.19474 0
M  V30 11701 H 1117.46 -1.17256 -2.732 0
M  V30 11702 H 1114.99 -0.716297 -1.36779 0
M  V30 11703 H 1116.95 0.986061 -3.98481 0
M  V30 11704 H 1115.61 1.29962 -2.85952 0
M  V30 11705 H 1114.8 0.320236 -5.02982 0
M  V30 11706 H 1114.4 -0.748221 -3.66439 0
M  V30 11707 H 1116.69 -0.124776 -6.77385 0
M  V30 11708 H 1117.64 -1.64475 -6.88733 0
M  V30 11709 H 1118.05 -0.442217 -5.62765 0
M  V30 11710 N 1117.44 1.42219 -0.679077 0
M  V30 11711 C 1118.39 2.308 -0.00340316 0
M  V30 11712 C 1119.36 1.462 0.788334 0
M  V30 11713 O 1120.55 1.75023 0.759716 0
M  V30 11714 C 1117.69 3.32084 0.938854 0
M  V30 11715 C 1116.8 4.31772 0.140485 0
M  V30 11716 C 1115.93 5.20128 1.07888 0
M  V30 11717 C 1114.97 6.11493 0.27245 0
M  V30 11718 N 1114.11 6.92388 1.16378 0
M  V30 11719 H 1118.95 2.88024 -0.764587 0
M  V30 11720 H 1116.49 1.41869 -0.38878 0
M  V30 11721 H 1118.44 3.89339 1.49903 0
M  V30 11722 H 1117.07 2.76448 1.66662 0
M  V30 11723 H 1116.13 3.76599 -0.536376 0
M  V30 11724 H 1117.44 4.96432 -0.485433 0
M  V30 11725 H 1116.59 5.82137 1.70884 0
M  V30 11726 H 1115.33 4.55655 1.73868 0
M  V30 11727 H 1114.34 5.48549 -0.370693 0
M  V30 11728 H 1115.56 6.78017 -0.383315 0
M  V30 11729 H 1113.51 6.30538 1.8099 0
M  V30 11730 H 1113.42 7.5367 0.593043 0
M  V30 11731 H 1114.69 7.58879 1.78107 0
M  V30 11732 N 1118.92 0.422693 1.51826 0
M  V30 11733 C 1120.15 -0.147744 2.06372 0
M  V30 11734 C 1120.56 -1.37714 1.29152 0
M  V30 11735 O 1119.92 -1.7917 0.347046 0
M  V30 11736 C 1119.97 -0.484642 3.58237 0
M  V30 11737 O 1119.69 0.695944 4.32537 0
M  V30 11738 C 1121.19 -1.10734 4.29247 0
M  V30 11739 H 1118.41 -0.0144047 0.670845 0
M  V30 11740 H 1120.96 0.597558 1.95575 0
M  V30 11741 H 1119.11 -1.17984 3.68997 0
M  V30 11742 H 1119.53 0.411471 5.22884 0
M  V30 11743 H 1121 -1.29318 5.36639 0
M  V30 11744 H 1121.48 -2.08429 3.86593 0
M  V30 11745 H 1122.08 -0.451958 4.22892 0
M  V30 11746 N 1120.4 -1.5685 0.153553 0
M  V30 11747 C 1121.33 -2.12888 -0.821829 0
M  V30 11748 C 1122.31 -1.05418 -1.23798 0
M  V30 11749 O 1123.49 -1.33288 -1.33292 0
M  V30 11750 C 1120.62 -2.65394 -2.10438 0
M  V30 11751 C 1119.67 -3.85071 -1.83364 0
M  V30 11752 S 1120.5 -5.2572 -1.01877 0
M  V30 11753 C 1121.66 -5.81619 -2.31236 0
M  V30 11754 H 1121.89 -2.95288 -0.345314 0
M  V30 11755 H 1119.42 -1.5428 -0.0608377 0
M  V30 11756 H 1121.38 -2.96294 -2.84113 0
M  V30 11757 H 1120.04 -1.83112 -2.55204 0
M  V30 11758 H 1119.23 -4.20076 -2.78482 0
M  V30 11759 H 1118.84 -3.54965 -1.17794 0
M  V30 11760 H 1121.13 -5.9345 -3.26838 0
M  V30 11761 H 1122.07 -6.79054 -2.00727 0
M  V30 11762 H 1122.48 -5.09909 -2.42184 0
M  V30 11763 N 1121.88 0.120221 -1.57141 0
M  V30 11764 C 1123.15 0.858458 -1.75755 0
M  V30 11765 C 1123.53 1.98124 -0.728693 0
M  V30 11766 O 1122.88 2.27155 0.247573 0
M  V30 11767 C 1123.09 1.37627 -3.20718 0
M  V30 11768 C 1124.44 1.82909 -3.83183 0
M  V30 11769 O 1125.46 1.47309 -3.24312 0
M  V30 11770 O 1124.32 2.4865 -4.86657 0
M  V30 11771 H 1121.42 0.407583 -0.719587 0
M  V30 11772 H 1123.96 0.104057 -1.69381 0
M  V30 11773 H 1122.74 0.570651 -3.87117 0
M  V30 11774 H 1122.36 2.19341 -3.31625 0
M  V30 11775 N 1123.36 1.52689 0.390367 0
M  V30 11776 C 1124.3 1.78007 1.4972 0
M  V30 11777 C 1125.3 0.647948 1.56518 0
M  V30 11778 O 1126.5 0.830398 1.59701 0
M  V30 11779 H 1122.88 0.56322 0.498284 0
M  V30 11780 H 1124.85 2.70698 1.25559 0
M  V30 11781 C 1123.6 1.96469 2.86872 0
M  V30 11782 H 1122.92 2.83012 2.82391 0
M  V30 11783 H 1124.36 2.18174 3.6356 0
M  V30 11784 C 1122.82 0.736847 3.28743 0
M  V30 11785 O 1123.35 -0.0863743 4.01607 0
M  V30 11786 N 1121.56 0.56735 2.85008 0
M  V30 11787 H 1121.1 1.23838 2.2588 0
M  V30 11788 H 1121.06 -0.252831 3.13382 0
M  V30 11789 N 1124.83 -0.648732 1.43629 0
M  V30 11790 C 1126.08 -1.41066 1.45699 0
M  V30 11791 C 1126.41 -1.94024 0.082612 0
M  V30 11792 O 1125.69 -1.7257 -0.897207 0
M  V30 11793 C 1125.97 -2.58882 2.50304 0
M  V30 11794 C 1125.82 -2.11387 3.97033 0
M  V30 11795 C 1127.14 -3.61092 2.51597 0
M  V30 11796 H 1124.26 -0.511591 0.530512 0
M  V30 11797 H 1126.9 -0.735069 1.75205 0
M  V30 11798 H 1125.05 -3.16518 2.25274 0
M  V30 11799 H 1126.73 -1.58718 4.33136 0
M  V30 11800 H 1124.97 -1.4272 4.0965 0
M  V30 11801 H 1125.64 -2.96129 4.65845 0
M  V30 11802 H 1128.12 -3.13223 2.73917 0
M  V30 11803 H 1126.99 -4.41071 3.26722 0
M  V30 11804 H 1127.25 -4.13985 1.55141 0
M  V30 11805 N 1126.31 -1.30234 -0.887518 0
M  V30 11806 C 1127.28 -1.16384 -1.97452 0
M  V30 11807 C 1128.28 -0.0957942 -1.60514 0
M  V30 11808 O 1129.47 -0.343706 -1.70776 0
M  V30 11809 C 1126.6 -0.782514 -3.31797 0
M  V30 11810 H 1127.79 -2.12952 -2.11167 0
M  V30 11811 H 1125.34 -1.13594 -1.07359 0
M  V30 11812 H 1126.08 0.18278 -3.23785 0
M  V30 11813 H 1125.86 -1.55434 -3.59976 0
M  V30 11814 H 1127.35 -0.709011 -4.11537 0
M  V30 11815 N 1127.79 1.09952 -1.12909 0
M  V30 11816 C 1129.02 1.8579 -0.910483 0
M  V30 11817 C 1129.43 1.80898 0.540484 0
M  V30 11818 O 1128.79 1.20126 1.3739 0
M  V30 11819 C 1128.84 3.33987 -1.38329 0
M  V30 11820 O 1128.56 3.38811 -2.77739 0
M  V30 11821 C 1130.06 4.26683 -1.20234 0
M  V30 11822 H 1127.28 0.587026 -0.325025 0
M  V30 11823 H 1129.83 1.38965 -1.5003 0
M  V30 11824 H 1127.98 3.78259 -0.836592 0
M  V30 11825 H 1128.4 4.31204 -2.98603 0
M  V30 11826 H 1129.87 5.28846 -1.58197 0
M  V30 11827 H 1130.35 4.38966 -0.14344 0
M  V30 11828 H 1130.95 3.88221 -1.73679 0
M  V30 11829 N 1129.27 0.921757 1.27833 0
M  V30 11830 C 1130.52 0.559078 1.94629 0
M  V30 11831 C 1130.84 -0.898641 1.72495 0
M  V30 11832 O 1130.1 -1.65546 1.0437 0
M  V30 11833 C 1130.4 0.824259 3.47765 0
M  V30 11834 C 1130.06 2.26278 3.90011 0
M  V30 11835 C 1128.73 2.65607 4.01256 0
M  V30 11836 C 1131.08 3.19853 4.11513 0
M  V30 11837 C 1128.41 3.97646 4.31387 0
M  V30 11838 C 1130.76 4.51467 4.43126 0
M  V30 11839 C 1129.42 4.90637 4.52583 0
M  V30 11840 H 1128.69 0.204581 0.712199 0
M  V30 11841 H 1131.34 1.1646 1.52018 0
M  V30 11842 H 1129.64 0.136011 3.91564 0
M  V30 11843 H 1131.34 0.522701 3.97579 0
M  V30 11844 H 1127.93 1.94765 3.81791 0
M  V30 11845 H 1132.11 2.90674 4.02271 0
M  V30 11846 H 1127.37 4.27685 4.36916 0
M  V30 11847 H 1131.54 5.23982 4.58711 0
M  V30 11848 H 1129.17 5.92982 4.75685 0
M  V30 11849 N 1130.75 -1.41857 0.686609 0
M  V30 11850 C 1131.99 -2.03236 0.217839 0
M  V30 11851 C 1132.35 -1.5317 -1.15771 0
M  V30 11852 O 1133.55 -2.06415 -1.72181 0
M  V30 11853 C 1131.82 -3.56428 0.263443 0
M  V30 11854 S 1133.38 -4.386 -0.132595 0
M  V30 11855 H 1130.2 -0.705472 0.088487 0
M  V30 11856 H 1132.8 -1.73428 0.902393 0
M  V30 11857 H 1131.51 -3.90362 1.26672 0
M  V30 11858 H 1131.04 -3.90925 -0.440556 0
M  V30 11859 H 1133.05 -4.77119 -1.3628 0
M  V30 11860 N 1132.22 -0.430739 -1.51599 0
M  V30 11861 C 1133.16 0.429107 -2.24129 0
M  V30 11862 C 1134.14 1.03019 -1.25801 0
M  V30 11863 O 1135.32 1.07392 -1.54917 0
M  V30 11864 C 1132.45 1.59749 -2.9866 0
M  V30 11865 C 1131.49 1.11773 -4.11593 0
M  V30 11866 S 1132.33 0.0651468 -5.3546 0
M  V30 11867 C 1133.48 1.23835 -6.13527 0
M  V30 11868 H 1133.71 -0.186683 -2.96713 0
M  V30 11869 H 1131.25 -0.215201 -1.52893 0
M  V30 11870 H 1133.21 2.26735 -3.42201 0
M  V30 11871 H 1131.87 2.18468 -2.25678 0
M  V30 11872 H 1131.06 1.99125 -4.62996 0
M  V30 11873 H 1130.66 0.526209 -3.7028 0
M  V30 11874 H 1132.95 2.15796 -6.42214 0
M  V30 11875 H 1133.9 0.76443 -7.03962 0
M  V30 11876 H 1134.3 1.47393 -5.44918 0
M  V30 11877 N 1133.7 1.56767 -0.161869 0
M  V30 11878 C 1134.63 2.20511 0.767918 0
M  V30 11879 C 1135.61 1.15783 1.24612 0
M  V30 11880 O 1136.8 1.44179 1.301 0
M  V30 11881 C 1133.93 2.83844 2.00125 0
M  V30 11882 C 1132.88 3.94528 1.65926 0
M  V30 11883 C 1132.21 4.44866 2.96646 0
M  V30 11884 C 1133.51 5.14583 0.894497 0
M  V30 11885 H 1135.2 2.98464 0.236607 0
M  V30 11886 H 1132.75 1.43561 0.112363 0
M  V30 11887 H 1134.7 3.27109 2.65664 0
M  V30 11888 H 1133.43 2.03246 2.55654 0
M  V30 11889 H 1132.08 3.51904 1.02759 0
M  V30 11890 H 1131.73 3.61071 3.50196 0
M  V30 11891 H 1131.43 5.19531 2.74521 0
M  V30 11892 H 1132.96 4.90812 3.6323 0
M  V30 11893 H 1134.37 5.54601 1.45228 0
M  V30 11894 H 1132.77 5.95105 0.772636 0
M  V30 11895 H 1133.84 4.84773 -0.110986 0
M  V30 11896 N 1135.18 -0.111886 1.57202 0
M  V30 11897 C 1136.11 -1.13796 2.03894 0
M  V30 11898 C 1137.09 -1.4277 0.924696 0
M  V30 11899 O 1138.28 -1.53089 1.19488 0
M  V30 11900 C 1135.41 -2.46229 2.44925 0
M  V30 11901 C 1134.36 -2.31702 3.59859 0
M  V30 11902 C 1133.69 -3.69161 3.86813 0
M  V30 11903 C 1134.99 -1.77158 4.91337 0
M  V30 11904 H 1136.68 -0.749581 2.89865 0
M  V30 11905 H 1134.23 -0.359126 1.3945 0
M  V30 11906 H 1136.18 -3.18267 2.76195 0
M  V30 11907 H 1134.9 -2.86971 1.55933 0
M  V30 11908 H 1133.56 -1.62112 3.28809 0
M  V30 11909 H 1133.21 -4.07401 2.95015 0
M  V30 11910 H 1132.91 -3.60292 4.6418 0
M  V30 11911 H 1134.43 -4.42693 4.20542 0
M  V30 11912 H 1135.85 -2.3902 5.21097 0
M  V30 11913 H 1134.25 -1.79091 5.72753 0
M  V30 11914 H 1135.32 -0.729675 4.79379 0
M  V30 11915 N 1136.66 -1.52894 -0.382264 0
M  V30 11916 C 1137.59 -1.7291 -1.48921 0
M  V30 11917 C 1138.57 -0.577056 -1.52016 0
M  V30 11918 O 1139.75 -0.807667 -1.7032 0
M  V30 11919 C 1136.88 -1.79281 -2.87361 0
M  V30 11920 C 1135.93 -3.01099 -3.02063 0
M  V30 11921 S 1136.76 -4.60947 -2.72558 0
M  V30 11922 C 1137.92 -4.70144 -4.13178 0
M  V30 11923 H 1138.15 -2.66529 -1.31718 0
M  V30 11924 H 1135.68 -1.43271 -0.575563 0
M  V30 11925 H 1137.64 -1.83637 -3.67134 0
M  V30 11926 H 1136.3 -0.867428 -3.01885 0
M  V30 11927 H 1135.49 -3.02117 -4.03412 0
M  V30 11928 H 1135.1 -2.94769 -2.3019 0
M  V30 11929 H 1137.39 -4.49173 -5.07198 0
M  V30 11930 H 1138.33 -5.72166 -4.17172 0
M  V30 11931 H 1138.74 -3.98923 -3.99401 0
M  V30 11932 N 1138.14 0.641106 -1.43971 0
M  V30 11933 C 1139.07 1.76489 -1.52885 0
M  V30 11934 C 1140.05 1.65742 -0.38258 0
M  V30 11935 O 1141.23 1.84653 -0.601397 0
M  V30 11936 C 1138.36 3.14977 -1.4631 0
M  V30 11937 C 1137.32 3.40502 -2.59311 0
M  V30 11938 C 1136.64 4.78916 -2.37789 0
M  V30 11939 C 1137.94 3.34048 -4.01509 0
M  V30 11940 H 1139.64 1.69286 -2.46946 0
M  V30 11941 H 1137.18 0.813015 -1.18853 0
M  V30 11942 H 1139.14 3.9336 -1.51149 0
M  V30 11943 H 1137.86 3.2294 -0.487599 0
M  V30 11944 H 1136.52 2.64495 -2.53846 0
M  V30 11945 H 1136.17 4.8357 -1.38454 0
M  V30 11946 H 1135.87 4.96954 -3.13545 0
M  V30 11947 H 1137.39 5.59541 -2.4443 0
M  V30 11948 H 1138.81 4.0235 -4.08396 0
M  V30 11949 H 1137.2 3.63622 -4.77388 0
M  V30 11950 H 1138.27 2.32022 -4.25786 0
M  V30 11951 N 1139.62 1.30703 0.880598 0
M  V30 11952 C 1140.86 1.19778 1.63277 0
M  V30 11953 C 1141.19 -0.246521 1.92931 0
M  V30 11954 O 1140.45 -1.19226 1.55189 0
M  V30 11955 C 1140.74 1.97628 2.97789 0
M  V30 11956 C 1140.41 3.47213 2.87669 0
M  V30 11957 C 1139.07 3.88004 2.84617 0
M  V30 11958 C 1141.42 4.4245 2.75477 0
M  V30 11959 C 1138.75 5.22315 2.67216 0
M  V30 11960 C 1141.1 5.76874 2.59614 0
M  V30 11961 C 1139.77 6.16898 2.54939 0
M  V30 11962 H 1139.04 0.438298 0.597475 0
M  V30 11963 H 1141.69 1.61853 1.02352 0
M  V30 11964 H 1139.99 1.48201 3.6269 0
M  V30 11965 H 1141.69 1.86563 3.54958 0
M  V30 11966 H 1138.28 3.14802 2.90857 0
M  V30 11967 H 1142.46 4.11875 2.76899 0
M  V30 11968 H 1137.72 5.52412 2.62014 0
M  V30 11969 H 1141.89 6.50304 2.49155 0
M  V30 11970 H 1139.52 7.20916 2.41214 0
M  V30 11971 N 1141.09 -1.09351 1.1349 0
M  V30 11972 C 1142.34 -1.80915 0.89177 0
M  V30 11973 C 1142.66 -1.86688 -0.5837 0
M  V30 11974 O 1143.86 -2.54568 -0.943788 0
M  V30 11975 C 1142.32 -3.25009 1.54587 0
M  V30 11976 C 1141.93 -3.27501 3.05691 0
M  V30 11977 C 1143.67 -4.01323 1.38346 0
M  V30 11978 C 1141.58 -4.66123 3.63983 0
M  V30 11979 H 1140.51 -0.677961 0.329978 0
M  V30 11980 H 1143.16 -1.22893 1.3627 0
M  V30 11981 H 1141.54 -3.83098 1.0026 0
M  V30 11982 H 1142.71 -2.79174 3.66604 0
M  V30 11983 H 1141.03 -2.64677 3.21457 0
M  V30 11984 H 1143.63 -5.03739 1.79307 0
M  V30 11985 H 1143.97 -4.15003 0.328404 0
M  V30 11986 H 1144.5 -3.49679 1.89656 0
M  V30 11987 H 1141.24 -4.57646 4.69298 0
M  V30 11988 H 1140.76 -5.14772 3.07848 0
M  V30 11989 H 1142.44 -5.35097 3.63703 0
M  V30 11990 N 1142.57 -0.928524 -1.27343 0
M  V30 11991 C 1143.82 -0.569392 -1.9433 0
M  V30 11992 C 1144.15 0.889481 -1.7297 0
M  V30 11993 O 1143.4 1.6499 -1.05247 0
M  V30 11994 C 1143.7 -0.84269 -3.47323 0
M  V30 11995 C 1143.37 -2.28344 -3.88806 0
M  V30 11996 C 1142.03 -2.67731 -3.99842 0
M  V30 11997 C 1144.38 -3.22031 -4.09811 0
M  V30 11998 C 1141.71 -3.99928 -4.29272 0
M  V30 11999 C 1144.06 -4.5381 -4.40725 0
M  V30 12000 C 1142.72 -4.93031 -4.49975 0
M  V30 12001 H 1141.99 -0.208355 -0.711104 0
M  V30 12002 H 1144.64 -1.17264 -1.51398 0
M  V30 12003 H 1142.95 -0.156775 -3.91486 0
M  V30 12004 H 1144.64 -0.543779 -3.97296 0
M  V30 12005 H 1141.23 -1.96787 -3.80753 0
M  V30 12006 H 1145.42 -2.92803 -4.00724 0
M  V30 12007 H 1140.67 -4.29996 -4.34642 0
M  V30 12008 H 1144.85 -5.26407 -4.55926 0
M  V30 12009 H 1142.47 -5.95497 -4.72533 0
M  V30 12010 N 1144.05 1.41491 -0.694123 0
M  V30 12011 C 1145.3 2.00479 -0.221585 0
M  V30 12012 C 1145.61 1.55605 1.18518 0
M  V30 12013 O 1146.82 2.07143 1.7551 0
M  V30 12014 C 1145.27 3.5824 -0.345264 0
M  V30 12015 C 1144.88 4.12096 -1.7573 0
M  V30 12016 C 1146.63 4.24446 0.0675731 0
M  V30 12017 C 1144.53 5.62286 -1.83271 0
M  V30 12018 H 1143.46 0.749841 -0.0790854 0
M  V30 12019 H 1146.11 1.61987 -0.86211 0
M  V30 12020 H 1144.5 3.94328 0.363487 0
M  V30 12021 H 1145.67 3.8743 -2.49469 0
M  V30 12022 H 1143.98 3.58411 -2.11969 0
M  V30 12023 H 1146.58 5.34691 0.0316485 0
M  V30 12024 H 1146.92 4.01338 1.10606 0
M  V30 12025 H 1147.46 3.93388 -0.59085 0
M  V30 12026 H 1144.2 5.9022 -2.85168 0
M  V30 12027 H 1143.72 5.88883 -1.13914 0
M  V30 12028 H 1145.4 6.27033 -1.59494 0
M  V30 12029 N 1145.53 0.438773 1.51369 0
M  V30 12030 C 1146.77 -0.127213 2.021 0
M  V30 12031 C 1147.1 -1.42587 1.32284 0
M  V30 12032 O 1146.36 -1.90986 0.426949 0
M  V30 12033 C 1146.66 -0.39186 3.55245 0
M  V30 12034 C 1146.32 0.821158 4.4336 0
M  V30 12035 C 1144.98 1.15381 4.67162 0
M  V30 12036 C 1147.34 1.6303 4.95046 0
M  V30 12037 C 1144.66 2.29626 5.39897 0
M  V30 12038 C 1147.02 2.76376 5.69033 0
M  V30 12039 C 1145.68 3.10094 5.91099 0
M  V30 12040 H 1144.95 -0.0465505 0.739536 0
M  V30 12041 H 1147.6 0.586261 1.82305 0
M  V30 12042 H 1145.9 -1.18724 3.73379 0
M  V30 12043 H 1147.6 -0.843228 3.92034 0
M  V30 12044 H 1144.19 0.551946 4.25031 0
M  V30 12045 H 1148.37 1.38651 4.76539 0
M  V30 12046 H 1143.63 2.56062 5.55196 0
M  V30 12047 H 1147.8 3.39442 6.08072 0
M  V30 12048 H 1145.43 3.98731 6.47238 0
M  V30 12049 N 1147.01 -1.56678 0.170181 0
M  V30 12050 C 1148.23 -2.0166 -0.484543 0
M  V30 12051 C 1148.66 -1.04962 -1.56091 0
M  V30 12052 O 1148.01 -0.0289887 -1.81277 0
M  V30 12053 C 1148.06 -3.45252 -1.04084 0
M  V30 12054 O 1147.17 -3.51623 -2.15488 0
M  V30 12055 H 1146.51 -0.653765 -0.116135 0
M  V30 12056 H 1149.04 -2.02761 0.273737 0
M  V30 12057 H 1149.05 -3.84534 -1.36373 0
M  V30 12058 H 1147.72 -4.15131 -0.252738 0
M  V30 12059 H 1146.3 -3.242 -1.84252 0
M  V30 12060 N 1148.48 0.103547 -1.57259 0
M  V30 12061 C 1149.73 0.807231 -1.84842 0
M  V30 12062 C 1150.05 1.80308 -0.758181 0
M  V30 12063 O 1151.25 2.55406 -0.920877 0
M  V30 12064 C 1149.71 1.4864 -3.27771 0
M  V30 12065 C 1149.32 0.53075 -4.44845 0
M  V30 12066 C 1151.06 2.17431 -3.64587 0
M  V30 12067 C 1148.97 1.21403 -5.78805 0
M  V30 12068 H 1147.9 0.305212 -0.689465 0
M  V30 12069 H 1150.55 0.0600855 -1.83402 0
M  V30 12070 H 1148.93 2.28071 -3.23728 0
M  V30 12071 H 1150.1 -0.231455 -4.60218 0
M  V30 12072 H 1148.42 -0.0510078 -4.16369 0
M  V30 12073 H 1151.02 2.6927 -4.6195 0
M  V30 12074 H 1151.36 2.9594 -2.92789 0
M  V30 12075 H 1151.89 1.4487 -3.70483 0
M  V30 12076 H 1148.63 0.469918 -6.53813 0
M  V30 12077 H 1148.15 1.94787 -5.6729 0
M  V30 12078 H 1149.83 1.74289 -6.23083 0
M  V30 12079 N 1149.96 1.53094 0.37415 0
M  V30 12080 C 1150.89 1.81901 1.46404 0
M  V30 12081 C 1151.87 0.671949 1.56265 0
M  V30 12082 O 1153.06 0.920978 1.70973 0
M  V30 12083 C 1150.19 2.00123 2.83845 0
M  V30 12084 C 1149.14 3.15864 2.88814 0
M  V30 12085 C 1148.47 3.19364 4.28848 0
M  V30 12086 C 1149.77 4.54633 2.57112 0
M  V30 12087 H 1151.46 2.73172 1.22546 0
M  V30 12088 H 1149.01 1.31444 0.588087 0
M  V30 12089 H 1150.96 2.18859 3.6011 0
M  V30 12090 H 1149.68 1.05555 3.09072 0
M  V30 12091 H 1148.34 2.96935 2.15 0
M  V30 12092 H 1147.99 2.2245 4.51137 0
M  V30 12093 H 1147.69 3.97123 4.3309 0
M  V30 12094 H 1149.22 3.40273 5.06997 0
M  V30 12095 H 1150.63 4.73587 3.23091 0
M  V30 12096 H 1149.03 5.34569 2.72683 0
M  V30 12097 H 1150.1 4.60331 1.52392 0
M  V30 12098 N 1151.44 -0.633461 1.44309 0
M  V30 12099 C 1152.69 -1.39031 1.46679 0
M  V30 12100 C 1153.01 -1.94745 0.0997165 0
M  V30 12101 O 1152.28 -1.75637 -0.867659 0
M  V30 12102 H 1150.86 -0.516051 0.540093 0
M  V30 12103 H 1153.52 -0.745739 1.80069 0
M  V30 12104 H 1152.62 -2.2228 2.19085 0
M  V30 12105 N 1152.92 -1.31168 -0.873655 0
M  V30 12106 C 1153.85 -1.12836 -1.98351 0
M  V30 12107 C 1154.83 -0.0328679 -1.62567 0
M  V30 12108 O 1156.01 -0.18859 -1.87554 0
M  V30 12109 C 1153.14 -0.72332 -3.30886 0
M  V30 12110 C 1152.19 -1.82132 -3.85656 0
M  V30 12111 S 1153.02 -3.42604 -4.11562 0
M  V30 12112 C 1154.18 -3.04028 -5.471 0
M  V30 12113 H 1154.41 -2.06793 -2.13597 0
M  V30 12114 H 1151.94 -1.15611 -1.0234 0
M  V30 12115 H 1153.9 -0.496371 -4.07488 0
M  V30 12116 H 1152.56 0.197077 -3.13481 0
M  V30 12117 H 1151.75 -1.49046 -4.81458 0
M  V30 12118 H 1151.36 -2.00314 -3.15833 0
M  V30 12119 H 1153.65 -2.52692 -6.28612 0
M  V30 12120 H 1154.59 -3.9878 -5.85133 0
M  V30 12121 H 1155 -2.41574 -5.10198 0
M  V30 12122 N 1154.4 1.08748 -1.14068 0
M  V30 12123 C 1155.35 2.13762 -0.793087 0
M  V30 12124 C 1156.33 1.59442 0.216123 0
M  V30 12125 O 1157.52 1.7699 0.0189888 0
M  V30 12126 C 1154.65 3.42249 -0.268432 0
M  V30 12127 C 1153.74 4.03459 -1.30696 0
M  V30 12128 N 1154.13 4.39126 -2.51002 0
M  V30 12129 C 1152.43 4.30748 -1.15637 0
M  V30 12130 C 1153.13 4.87438 -3.17457 0
M  V30 12131 N 1152.1 4.85326 -2.44866 0
M  V30 12132 H 1155.91 2.39152 -1.70831 0
M  V30 12133 H 1153.42 1.26046 -1.02403 0
M  V30 12134 H 1155.42 4.169 -0.00113254 0
M  V30 12135 H 1154.08 3.18309 0.641032 0
M  V30 12136 H 1155.09 4.30266 -2.88256 0
M  V30 12137 H 1151.76 4.1638 -0.305636 0
M  V30 12138 H 1153.15 5.24443 -4.20011 0
M  V30 12139 N 1155.87 0.935264 1.26849 0
M  V30 12140 C 1157.12 0.575467 1.93317 0
M  V30 12141 C 1157.44 -0.88876 1.74242 0
M  V30 12142 O 1158.64 -1.35767 2.35116 0
M  V30 12143 C 1157.1 0.978433 3.46345 0
M  V30 12144 C 1156.71 2.46386 3.74163 0
M  V30 12145 C 1158.45 0.690249 4.18851 0
M  V30 12146 C 1156.36 2.80584 5.20602 0
M  V30 12147 H 1155.29 0.211506 0.723727 0
M  V30 12148 H 1157.94 1.1371 1.44022 0
M  V30 12149 H 1156.32 0.345379 3.94491 0
M  V30 12150 H 1157.49 3.14547 3.36745 0
M  V30 12151 H 1155.81 2.72473 3.14877 0
M  V30 12152 H 1158.41 0.922151 5.26688 0
M  V30 12153 H 1158.75 -0.372805 4.14627 0
M  V30 12154 H 1159.28 1.28275 3.76551 0
M  V30 12155 H 1156.02 3.85828 5.29921 0
M  V30 12156 H 1155.54 2.1708 5.59139 0
M  V30 12157 H 1157.22 2.68732 5.88551 0
M  V30 12158 N 1157.35 -1.41121 0.701616 0
M  V30 12159 C 1158.6 -2.0113 0.235147 0
M  V30 12160 C 1158.93 -1.55587 -1.16718 0
M  V30 12161 O 1158.18 -0.760615 -1.80314 0
M  V30 12162 C 1158.48 -3.5654 0.247781 0
M  V30 12163 C 1158.15 -4.21616 1.59846 0
M  V30 12164 C 1156.81 -4.39106 1.96822 0
M  V30 12165 C 1159.16 -4.58048 2.48679 0
M  V30 12166 C 1156.49 -4.90307 3.22205 0
M  V30 12167 C 1158.84 -5.10642 3.734 0
M  V30 12168 C 1157.51 -5.26343 4.10512 0
M  V30 12169 H 1156.78 -0.735987 0.0860462 0
M  V30 12170 H 1159.42 -1.68932 0.901898 0
M  V30 12171 H 1157.73 -3.88564 -0.502528 0
M  V30 12172 H 1159.42 -4.00787 -0.130766 0
M  V30 12173 H 1156.01 -4.08381 1.30088 0
M  V30 12174 H 1160.2 -4.44184 2.21391 0
M  V30 12175 H 1155.45 -5.00647 3.50945 0
M  V30 12176 H 1159.63 -5.37811 4.42416 0
M  V30 12177 H 1157.26 -5.65779 5.07738 0
M  V30 12178 N 1158.83 -0.446794 -1.51134 0
M  V30 12179 C 1160.08 0.116263 -2.01765 0
M  V30 12180 C 1160.4 1.42382 -1.33238 0
M  V30 12181 O 1159.67 1.9018 -0.469915 0
M  V30 12182 H 1158.25 0.0459558 -0.745585 0
M  V30 12183 H 1160.91 -0.591664 -1.85702 0
M  V30 12184 H 1160.01 0.285358 -3.10793 0
M  V30 12185 N 1160.31 1.56586 -0.178487 0
M  V30 12186 C 1161.55 1.98994 0.466987 0
M  V30 12187 C 1161.91 1.06229 1.59935 0
M  V30 12188 O 1163.11 1.37806 2.30788 0
M  V30 12189 C 1161.38 3.45064 0.930899 0
M  V30 12190 S 1162.94 4.095 1.57655 0
M  V30 12191 H 1159.76 0.695007 0.149955 0
M  V30 12192 H 1162.36 1.93519 -0.27764 0
M  V30 12193 H 1161.07 4.10287 0.0964476 0
M  V30 12194 H 1160.6 3.54321 1.70939 0
M  V30 12195 H 1162.61 4.05139 2.86491 0
M  V30 12196 N 1161.79 -0.095206 1.57312 0
M  V30 12197 C 1162.73 -1.11551 2.02052 0
M  V30 12198 C 1163.7 -1.39808 0.896818 0
M  V30 12199 O 1164.89 -1.51273 1.1628 0
M  V30 12200 C 1162.03 -2.43056 2.44985 0
M  V30 12201 C 1161.14 -2.21531 3.70875 0
M  V30 12202 C 1160.28 -3.46434 4.02687 0
M  V30 12203 C 1159.32 -3.2017 5.21687 0
M  V30 12204 N 1158.45 -4.37339 5.49253 0
M  V30 12205 H 1163.29 -0.727 2.88996 0
M  V30 12206 H 1160.83 -0.347441 1.42938 0
M  V30 12207 H 1162.79 -3.19803 2.67921 0
M  V30 12208 H 1161.42 -2.79754 1.61051 0
M  V30 12209 H 1160.47 -1.35587 3.55416 0
M  V30 12210 H 1161.78 -1.98116 4.57768 0
M  V30 12211 H 1160.94 -4.31589 4.26399 0
M  V30 12212 H 1159.67 -3.72904 3.14315 0
M  V30 12213 H 1158.68 -2.33409 4.97796 0
M  V30 12214 H 1159.9 -2.95047 6.11657 0
M  V30 12215 H 1157.85 -4.63885 4.6384 0
M  V30 12216 H 1157.77 -4.17114 6.30517 0
M  V30 12217 H 1159.04 -5.23559 5.775 0
M  V30 12218 N 1163.26 -1.53291 -0.366026 0
M  V30 12219 C 1164.51 -1.69451 -1.10872 0
M  V30 12220 C 1164.84 -0.446078 -1.89316 0
M  V30 12221 O 1164.09 0.571962 -1.87155 0
M  V30 12222 C 1164.39 -2.89547 -2.09517 0
M  V30 12223 C 1164.06 -4.26073 -1.47556 0
M  V30 12224 C 1162.72 -4.63199 -1.30386 0
M  V30 12225 C 1165.07 -5.10977 -1.02724 0
M  V30 12226 C 1162.4 -5.82866 -0.669666 0
M  V30 12227 C 1164.75 -6.31289 -0.407052 0
M  V30 12228 C 1163.42 -6.67128 -0.222839 0
M  V30 12229 H 1162.69 -0.620066 -0.405708 0
M  V30 12230 H 1165.33 -1.87475 -0.390563 0
M  V30 12231 H 1163.64 -2.66034 -2.87634 0
M  V30 12232 H 1165.34 -2.99245 -2.66933 0
M  V30 12233 H 1161.93 -3.9684 -1.61914 0
M  V30 12234 H 1166.11 -4.82844 -1.14783 0
M  V30 12235 H 1161.37 -6.09224 -0.515351 0
M  V30 12236 H 1165.54 -6.96381 -0.0514661 0
M  V30 12237 H 1163.17 -7.59718 0.270647 0
M  V30 12238 N 1164.74 0.6258 -1.44643 0
M  V30 12239 C 1165.97 1.41726 -1.51422 0
M  V30 12240 C 1166.39 1.87565 -0.14181 0
M  V30 12241 O 1165.75 1.59059 0.870054 0
M  V30 12242 C 1165.8 2.61012 -2.48807 0
M  V30 12243 O 1164.9 3.61029 -1.99328 0
M  V30 12244 H 1164.24 0.423855 -0.511119 0
M  V30 12245 H 1166.77 0.763336 -1.89827 0
M  V30 12246 H 1166.78 3.08489 -2.67018 0
M  V30 12247 H 1165.46 2.26995 -3.48491 0
M  V30 12248 H 1164.04 3.20325 -1.90909 0
M  V30 12249 N 1166.22 1.31629 0.866686 0
M  V30 12250 C 1167.15 1.22151 1.99001 0
M  V30 12251 C 1168.13 0.107972 1.69757 0
M  V30 12252 O 1169.32 0.293125 1.91975 0
M  V30 12253 C 1166.45 0.93144 3.34577 0
M  V30 12254 C 1165.4 2.0049 3.78137 0
M  V30 12255 C 1164.73 1.56747 5.11209 0
M  V30 12256 C 1166.03 3.41844 3.94892 0
M  V30 12257 H 1167.72 2.16132 2.0719 0
M  V30 12258 H 1165.27 1.04051 0.995463 0
M  V30 12259 H 1167.22 0.851719 4.12703 0
M  V30 12260 H 1165.94 -0.0440289 3.2657 0
M  V30 12261 H 1164.6 2.07457 3.02253 0
M  V30 12262 H 1164.25 0.579767 4.99648 0
M  V30 12263 H 1163.95 2.28562 5.41326 0
M  V30 12264 H 1165.47 1.50188 5.91841 0
M  V30 12265 H 1166.89 3.37534 4.63405 0
M  V30 12266 H 1165.29 4.11905 4.36411 0
M  V30 12267 H 1166.36 3.82389 2.98172 0
M  V30 12268 N 1167.7 -1.08142 1.14644 0
M  V30 12269 C 1169.12 -1.32656 0.887388 0
M  V30 12270 C 1169.32 -1.95942 -0.470012 0
M  V30 12271 O 1168.37 -2.21417 -1.21371 0
M  V30 12272 C 1169.68 -2.22549 2.02219 0
M  V30 12273 C 1171.23 -2.36021 2.0558 0
M  V30 12274 C 1171.71 -3.29257 3.18361 0
M  V30 12275 N 1173.2 -3.36835 3.17957 0
M  V30 12276 C 1173.93 -4.09017 4.01862 0
M  V30 12277 N 1173.43 -4.83882 4.95812 0
M  V30 12278 N 1175.22 -4.04875 3.89913 0
M  V30 12279 H 1167.37 -0.654457 2.02066 0
M  V30 12280 H 1169.64 -0.350947 0.880648 0
M  V30 12281 H 1169.34 -1.83296 3.00159 0
M  V30 12282 H 1169.22 -3.23027 1.94765 0
M  V30 12283 H 1171.6 -2.74531 1.08245 0
M  V30 12284 H 1171.68 -1.35275 2.17105 0
M  V30 12285 H 1171.33 -2.91468 4.15944 0
M  V30 12286 H 1171.26 -4.29938 3.04074 0
M  V30 12287 H 1173.75 -2.83465 2.49912 0
M  V30 12288 H 1174.06 -5.3643 5.56294 0
M  V30 12289 H 1172.41 -4.82926 4.99808 0
M  V30 12290 H 1175.6 -3.45496 3.15833 0
M  V30 12291 H 1175.77 -4.60866 4.55529 0
M  V30 12292 N 1169.18 -0.941978 -1.26351 0
M  V30 12293 C 1170.41 -0.606748 -1.97803 0
M  V30 12294 C 1170.82 0.818441 -1.70138 0
M  V30 12295 O 1170.18 1.54583 -0.970076 0
M  V30 12296 C 1170.23 -0.840431 -3.51595 0
M  V30 12297 O 1169.95 -2.20957 -3.78299 0
M  V30 12298 C 1171.45 -0.515855 -4.40288 0
M  V30 12299 H 1168.67 -0.228591 -0.630862 0
M  V30 12300 H 1171.21 -1.2629 -1.60845 0
M  V30 12301 H 1169.37 -0.230875 -3.86711 0
M  V30 12302 H 1169.78 -2.2702 -4.72824 0
M  V30 12303 H 1171.26 -0.72998 -5.47152 0
M  V30 12304 H 1171.73 0.549178 -4.35753 0
M  V30 12305 H 1172.34 -1.10417 -4.10717 0
M  V30 12306 N 1170.66 1.40747 -0.709091 0
M  V30 12307 C 1171.93 1.94831 -0.173246 0
M  V30 12308 C 1172.31 1.64766 1.31967 0
M  V30 12309 O 1171.66 0.961853 2.07269 0
M  V30 12310 C 1171.87 3.45697 -0.479013 0
M  V30 12311 C 1173.22 4.22576 -0.414122 0
M  V30 12312 O 1174.24 3.53778 -0.414699 0
M  V30 12313 O 1173.1 5.45135 -0.385986 0
M  V30 12314 H 1170.2 0.826683 -0.0228947 0
M  V30 12315 H 1172.74 1.50391 -0.786178 0
M  V30 12316 H 1171.51 3.60914 -1.51185 0
M  V30 12317 H 1171.14 3.97261 0.164211 0
M  V30 12318 N 1172.13 0.454803 1.50895 0
M  V30 12319 C 1173.36 -0.103936 2.06639 0
M  V30 12320 C 1173.78 -1.34943 1.32044 0
M  V30 12321 O 1173.13 -1.78393 0.384972 0
M  V30 12322 C 1173.18 -0.408546 3.59184 0
M  V30 12323 O 1172.91 0.787535 4.30963 0
M  V30 12324 C 1174.41 -1.01605 4.31499 0
M  V30 12325 H 1171.63 -0.000171839 0.671 0
M  V30 12326 H 1174.17 0.638907 1.94263 0
M  V30 12327 H 1172.33 -1.1013 3.71416 0
M  V30 12328 H 1172.74 0.52229 5.21893 0
M  V30 12329 H 1174.21 -1.17906 5.39261 0
M  V30 12330 H 1174.69 -2.00182 3.90927 0
M  V30 12331 H 1175.3 -0.362155 4.23755 0
M  V30 12332 N 1173.61 -1.56489 0.186789 0
M  V30 12333 C 1174.86 -1.96952 -0.453261 0
M  V30 12334 C 1175.18 -1.07451 -1.62725 0
M  V30 12335 O 1174.45 -0.144046 -1.9537 0
M  V30 12336 H 1173.03 -0.727295 -0.170445 0
M  V30 12337 H 1175.69 -1.92999 0.271584 0
M  V30 12338 H 1174.79 -3.01594 -0.802951 0
M  V30 12339 N 1175.09 0.086862 -1.5736 0
M  V30 12340 C 1176.37 0.820984 -1.77537 0
M  V30 12341 C 1176.75 1.96534 -0.770554 0
M  V30 12342 O 1176.09 2.27629 0.199334 0
M  V30 12343 C 1176.3 1.30793 -3.23565 0
M  V30 12344 C 1177.65 1.7474 -3.86977 0
M  V30 12345 O 1178.68 1.40396 -3.27364 0
M  V30 12346 O 1177.54 2.38271 -4.91822 0
M  V30 12347 H 1174.63 0.392228 -0.72807 0
M  V30 12348 H 1177.18 0.0681051 -1.69563 0
M  V30 12349 H 1175.95 0.488409 -3.8824 0
M  V30 12350 H 1175.57 2.12258 -3.36203 0
M  V30 12351 N 1176.57 1.53483 0.357892 0
M  V30 12352 C 1177.8 1.73956 1.12013 0
M  V30 12353 C 1178.21 0.472053 1.82803 0
M  V30 12354 O 1177.57 -0.555499 1.7384 0
M  V30 12355 C 1177.62 2.91015 2.14459 0
M  V30 12356 O 1177.34 4.12862 1.4655 0
M  V30 12357 C 1178.84 3.23423 3.0317 0
M  V30 12358 H 1176.06 0.58161 0.334621 0
M  V30 12359 H 1178.6 2.00256 0.414467 0
M  V30 12360 H 1176.76 2.67087 2.80612 0
M  V30 12361 H 1177.17 4.78468 2.14869 0
M  V30 12362 H 1178.65 4.08717 3.71018 0
M  V30 12363 H 1179.12 2.39114 3.68404 0
M  V30 12364 H 1179.73 3.49305 2.42624 0
M  V30 12365 N 1178.05 -0.61812 1.44973 0
M  V30 12366 C 1179.29 -1.37944 1.48658 0
M  V30 12367 C 1179.62 -1.93805 0.123749 0
M  V30 12368 O 1178.9 -1.74434 -0.860401 0
M  V30 12369 C 1179.18 -2.53515 2.55739 0
M  V30 12370 C 1179.04 -2.02918 4.01428 0
M  V30 12371 C 1180.35 -3.55674 2.59199 0
M  V30 12372 H 1177.47 -0.500223 0.541244 0
M  V30 12373 H 1180.12 -0.69774 1.76725 0
M  V30 12374 H 1178.27 -3.11669 2.31937 0
M  V30 12375 H 1179.94 -1.49494 4.36405 0
M  V30 12376 H 1178.18 -1.33999 4.12586 0
M  V30 12377 H 1178.85 -2.86181 4.72021 0
M  V30 12378 H 1181.33 -3.07343 2.80499 0
M  V30 12379 H 1180.2 -4.34042 3.36004 0
M  V30 12380 H 1180.46 -4.10601 1.63888 0
M  V30 12381 N 1179.52 -1.32087 -0.859693 0
M  V30 12382 C 1180.93 -1.20107 -1.42938 0
M  V30 12383 C 1181.29 0.188411 -1.95293 0
M  V30 12384 O 1180.41 1.08683 -1.87128 0
M  V30 12385 C 1181.01 -2.17436 -2.59821 0
M  V30 12386 C 1179.56 -2.09359 -3.12803 0
M  V30 12387 C 1178.71 -2.06086 -1.85537 0
M  V30 12388 H 1181.66 -1.43989 -0.667302 0
M  V30 12389 H 1181.68 -1.76996 -3.36828 0
M  V30 12390 H 1181.2 -3.18555 -2.21685 0
M  V30 12391 H 1179.3 -1.1147 -3.55535 0
M  V30 12392 H 1179.41 -2.98947 -3.74389 0
M  V30 12393 H 1177.77 -1.51251 -2.04928 0
M  V30 12394 H 1178.56 -3.08978 -1.49625 0
M  V30 12395 N 1181 1.07532 -1.15215 0
M  V30 12396 C 1182.28 1.76813 -0.83646 0
M  V30 12397 C 1182.66 2.00242 0.6683 0
M  V30 12398 O 1182.01 1.61941 1.61206 0
M  V30 12399 C 1182.22 3.0779 -1.64519 0
M  V30 12400 C 1183.56 3.82168 -1.85022 0
M  V30 12401 O 1184.59 3.17596 -1.61279 0
M  V30 12402 O 1183.45 4.98135 -2.24775 0
M  V30 12403 H 1180.54 0.767736 -0.307426 0
M  V30 12404 H 1183.09 1.13914 -1.25784 0
M  V30 12405 H 1181.86 2.86342 -2.6669 0
M  V30 12406 H 1181.48 3.78419 -1.22002 0
M  V30 12407 N 1182.48 0.948665 1.2585 0
M  V30 12408 C 1183.9 0.652147 1.45668 0
M  V30 12409 C 1184.1 -0.792217 1.85273 0
M  V30 12410 O 1183.15 -1.56812 1.97905 0
M  V30 12411 C 1184.47 1.61998 2.53332 0
M  V30 12412 C 1186.01 1.6305 2.67178 0
M  V30 12413 C 1186.49 2.58582 3.78021 0
M  V30 12414 N 1187.98 2.56911 3.85423 0
M  V30 12415 C 1188.71 3.27511 4.70664 0
M  V30 12416 N 1188.21 4.07563 5.60236 0
M  V30 12417 N 1190 3.16427 4.64576 0
M  V30 12418 H 1182.15 1.88215 0.984325 0
M  V30 12419 H 1184.42 0.809251 0.493778 0
M  V30 12420 H 1184.12 2.65137 2.31075 0
M  V30 12421 H 1184 1.37784 3.51134 0
M  V30 12422 H 1186.38 0.606315 2.88804 0
M  V30 12423 H 1186.47 1.9132 1.69795 0
M  V30 12424 H 1186.11 3.61122 3.57146 0
M  V30 12425 H 1186.04 2.27598 4.74875 0
M  V30 12426 H 1188.53 1.9879 3.21389 0
M  V30 12427 H 1188.84 4.58367 6.22189 0
M  V30 12428 H 1187.19 4.11662 5.59964 0
M  V30 12429 H 1190.38 2.53364 3.93604 0
M  V30 12430 H 1190.55 3.71714 5.30785 0
M  V30 12431 N 1183.96 -1.40369 0.716545 0
M  V30 12432 C 1184.91 -2.3071 0.0645944 0
M  V30 12433 C 1185.88 -1.48239 -0.749294 0
M  V30 12434 O 1187.06 -1.76975 -0.713045 0
M  V30 12435 C 1184.2 -3.34456 -0.850478 0
M  V30 12436 C 1183.31 -4.31992 -0.0259594 0
M  V30 12437 C 1182.45 -5.22806 -0.940599 0
M  V30 12438 C 1181.49 -6.12001 -0.110228 0
M  V30 12439 N 1180.62 -6.9523 -0.979796 0
M  V30 12440 H 1185.46 -2.85896 0.840682 0
M  V30 12441 H 1183 -1.40789 0.426258 0
M  V30 12442 H 1184.96 -3.93177 -1.39528 0
M  V30 12443 H 1183.59 -2.8077 -1.59274 0
M  V30 12444 H 1182.64 -3.75045 0.636036 0
M  V30 12445 H 1183.95 -4.94971 0.616883 0
M  V30 12446 H 1183.11 -5.86463 -1.5539 0
M  V30 12447 H 1181.85 -4.60104 -1.61726 0
M  V30 12448 H 1180.85 -5.47373 0.516001 0
M  V30 12449 H 1182.08 -6.76763 0.562944 0
M  V30 12450 H 1180.02 -6.35115 -1.64209 0
M  V30 12451 H 1179.94 -7.54978 -0.393012 0
M  V30 12452 H 1181.21 -7.63335 -1.57924 0
M  V30 12453 N 1185.44 -0.462799 -1.50652 0
M  V30 12454 C 1186.38 0.349784 -2.29955 0
M  V30 12455 C 1187.38 0.997947 -1.36885 0
M  V30 12456 O 1188.58 0.93 -1.54114 0
M  V30 12457 H 1184.96 0.131635 -0.740389 0
M  V30 12458 H 1186.93 -0.33958 -2.96461 0
M  V30 12459 C 1185.68 1.42398 -3.17204 0
M  V30 12460 H 1185 0.934611 -3.88722 0
M  V30 12461 H 1186.44 1.96528 -3.75703 0
M  V30 12462 C 1184.9 2.42135 -2.34248 0
M  V30 12463 O 1185.43 3.47229 -2.01978 0
M  V30 12464 N 1183.64 2.13647 -1.96985 0
M  V30 12465 H 1183.18 1.28209 -2.23428 0
M  V30 12466 H 1183.14 2.80615 -1.41783 0
M  V30 12467 N 1186.91 1.56388 -0.195085 0
M  V30 12468 C 1188.16 1.9758 0.443686 0
M  V30 12469 C 1188.49 1.08196 1.61629 0
M  V30 12470 O 1187.74 0.121061 1.95325 0
M  V30 12471 C 1188.04 3.44651 0.946051 0
M  V30 12472 C 1187.71 4.50758 -0.11318 0
M  V30 12473 C 1186.37 4.79499 -0.404229 0
M  V30 12474 C 1188.72 5.14534 -0.830899 0
M  V30 12475 C 1186.05 5.69307 -1.41797 0
M  V30 12476 C 1188.4 6.05438 -1.83379 0
M  V30 12477 C 1187.07 6.32535 -2.13204 0
M  V30 12478 H 1186.34 0.722995 0.162356 0
M  V30 12479 H 1188.98 1.8926 -0.292049 0
M  V30 12480 H 1187.29 3.50042 1.76006 0
M  V30 12481 H 1188.99 3.73878 1.44969 0
M  V30 12482 H 1185.58 4.28421 0.123833 0
M  V30 12483 H 1189.76 4.92421 -0.61927 0
M  V30 12484 H 1185.02 5.88575 -1.65496 0
M  V30 12485 H 1189.19 6.53915 -2.39516 0
M  V30 12486 H 1186.82 7.01924 -2.91902 0
M  V30 12487 N 1188.39 -0.0785156 1.57404 0
M  V30 12488 C 1189.67 -0.811557 1.77969 0
M  V30 12489 C 1190.05 -1.96123 0.780966 0
M  V30 12490 O 1189.4 -2.27731 -0.18726 0
M  V30 12491 C 1189.61 -1.29075 3.24254 0
M  V30 12492 C 1190.96 -1.72685 3.87898 0
M  V30 12493 O 1191.98 -1.38658 3.28104 0
M  V30 12494 O 1190.84 -2.3566 4.93079 0
M  V30 12495 H 1187.93 -0.388361 0.73014 0
M  V30 12496 H 1190.48 -0.0591118 1.69597 0
M  V30 12497 H 1189.25 -0.467813 3.88494 0
M  V30 12498 H 1188.87 -2.10472 3.37324 0
M  V30 12499 N 1189.87 -1.5367 -0.349747 0
M  V30 12500 C 1191.1 -1.74858 -1.11532 0
M  V30 12501 C 1191.52 -0.483591 -1.81777 0
M  V30 12502 O 1190.88 0.563399 -1.72324 0
M  V30 12503 C 1190.93 -2.92479 -2.10923 0
M  V30 12504 O 1190.03 -2.62194 -3.18321 0
M  V30 12505 H 1189.37 -0.580219 -0.322865 0
M  V30 12506 H 1191.9 -2.00611 -0.402033 0
M  V30 12507 H 1191.91 -3.19093 -2.54252 0
M  V30 12508 H 1190.59 -3.84228 -1.59191 0
M  V30 12509 H 1189.16 -2.46448 -2.79853 0
M  V30 12510 N 1191.35 0.610423 -1.45298 0
M  V30 12511 C 1192.28 1.73207 -1.56594 0
M  V30 12512 C 1193.26 1.64893 -0.417651 0
M  V30 12513 O 1194.44 1.83336 -0.64043 0
M  V30 12514 C 1191.57 3.11803 -1.52959 0
M  V30 12515 C 1190.53 3.34925 -2.66475 0
M  V30 12516 C 1189.85 4.73764 -2.47894 0
M  V30 12517 C 1191.15 3.25456 -4.08504 0
M  V30 12518 H 1192.85 1.6401 -2.50482 0
M  V30 12519 H 1190.39 0.787621 -1.20551 0
M  V30 12520 H 1192.35 3.90065 -1.59458 0
M  V30 12521 H 1191.07 3.21833 -0.55599 0
M  V30 12522 H 1189.73 2.59051 -2.59399 0
M  V30 12523 H 1189.38 4.80524 -1.4868 0
M  V30 12524 H 1189.08 4.90191 -3.24016 0
M  V30 12525 H 1190.6 5.54231 -2.56243 0
M  V30 12526 H 1192.02 3.93597 -4.16839 0
M  V30 12527 H 1190.41 3.53414 -4.84994 0
M  V30 12528 H 1191.48 2.22939 -4.30612 0
M  V30 12529 N 1192.83 1.32541 0.852676 0
M  V30 12530 C 1193.76 1.24254 1.97694 0
M  V30 12531 C 1194.74 0.125971 1.69633 0
M  V30 12532 O 1195.92 0.31347 1.91653 0
M  V30 12533 C 1193.05 0.966874 3.3357 0
M  V30 12534 C 1192.01 2.0449 3.75989 0
M  V30 12535 C 1191.33 1.6216 5.09518 0
M  V30 12536 C 1192.63 3.46013 3.91244 0
M  V30 12537 H 1194.33 2.18317 2.04886 0
M  V30 12538 H 1191.87 1.05101 0.984371 0
M  V30 12539 H 1193.83 0.895444 4.11776 0
M  V30 12540 H 1192.55 -0.0093893 3.26599 0
M  V30 12541 H 1191.21 2.10651 3.00036 0
M  V30 12542 H 1190.86 0.632729 4.99005 0
M  V30 12543 H 1190.56 2.3429 5.38871 0
M  V30 12544 H 1192.08 1.56457 5.90215 0
M  V30 12545 H 1193.49 3.4243 4.59799 0
M  V30 12546 H 1191.89 4.1651 4.32017 0
M  V30 12547 H 1192.96 3.8553 2.941 0
M  V30 12548 N 1194.3 -1.0692 1.15784 0
M  V30 12549 C 1195.55 -1.8002 0.946795 0
M  V30 12550 C 1195.91 -1.85232 -0.520268 0
M  V30 12551 O 1195.2 -1.32825 -1.38087 0
M  V30 12552 C 1195.39 -3.24389 1.50022 0
M  V30 12553 C 1195.22 -3.33245 3.01957 0
M  V30 12554 C 1193.99 -3.43549 3.70543 0
M  V30 12555 C 1196.19 -3.23634 3.99707 0
M  V30 12556 N 1194.17 -3.41354 5.10246 0
M  V30 12557 C 1195.54 -3.28608 5.25754 0
M  V30 12558 C 1197.6 -3.07475 3.91617 0
M  V30 12559 C 1196.3 -3.19084 6.44653 0
M  V30 12560 C 1198.33 -2.99286 5.1008 0
M  V30 12561 C 1197.69 -3.04876 6.35004 0
M  V30 12562 H 1193.79 -0.671859 0.400162 0
M  V30 12563 H 1196.37 -1.27592 1.47066 0
M  V30 12564 H 1194.54 -3.75228 1.00293 0
M  V30 12565 H 1196.27 -3.85633 1.22756 0
M  V30 12566 H 1193.03 -3.48079 3.21151 0
M  V30 12567 H 1193.45 -3.43772 5.83223 0
M  V30 12568 H 1198.1 -3.02004 2.95895 0
M  V30 12569 H 1195.81 -3.23313 7.40604 0
M  V30 12570 H 1199.4 -2.8788 5.05585 0
M  V30 12571 H 1198.28 -2.9859 7.2513 0
M  V30 12572 N 1195.78 -0.955326 -1.25345 0
M  V30 12573 C 1196.75 -0.480564 -2.24105 0
M  V30 12574 C 1197.75 0.416123 -1.55322 0
M  V30 12575 O 1198.94 0.213315 -1.72889 0
M  V30 12576 C 1196.07 0.305589 -3.39528 0
M  V30 12577 H 1197.26 -1.35349 -2.6762 0
M  V30 12578 H 1194.81 -0.738673 -1.37744 0
M  V30 12579 H 1195.55 1.19615 -3.01434 0
M  V30 12580 H 1195.33 -0.337719 -3.90643 0
M  V30 12581 H 1196.82 0.627201 -4.12863 0
M  V30 12582 N 1197.26 1.39987 -0.723979 0
M  V30 12583 C 1198.51 1.99964 -0.26406 0
M  V30 12584 C 1198.82 1.58084 1.1519 0
M  V30 12585 O 1200.03 2.10819 1.71077 0
M  V30 12586 C 1198.49 3.57427 -0.421174 0
M  V30 12587 C 1198.09 4.08276 -1.84432 0
M  V30 12588 C 1199.84 4.24494 -0.0224734 0
M  V30 12589 C 1197.74 5.58272 -1.95157 0
M  V30 12590 H 1196.67 0.747995 -0.0949728 0
M  V30 12591 H 1199.33 1.60122 -0.896276 0
M  V30 12592 H 1197.71 3.95011 0.279762 0
M  V30 12593 H 1198.88 3.82051 -2.57631 0
M  V30 12594 H 1197.2 3.53834 -2.19523 0
M  V30 12595 H 1199.79 5.34637 -0.0817744 0
M  V30 12596 H 1200.14 4.03593 1.02069 0
M  V30 12597 H 1200.67 3.92046 -0.67416 0
M  V30 12598 H 1197.41 5.84038 -2.97623 0
M  V30 12599 H 1196.93 5.86335 -1.2638 0
M  V30 12600 H 1198.61 6.23509 -1.72759 0
M  V30 12601 N 1198.74 0.470782 1.50404 0
M  V30 12602 C 1199.99 -0.0844409 2.02624 0
M  V30 12603 C 1200.32 -1.39398 1.3521 0
M  V30 12604 O 1199.59 -1.88542 0.477707 0
M  V30 12605 C 1199.88 -0.268563 3.59097 0
M  V30 12606 C 1199.73 1.06198 4.37084 0
M  V30 12607 C 1201.05 -1.02324 4.28039 0
M  V30 12608 H 1198.17 -0.0292141 0.736421 0
M  V30 12609 H 1200.81 0.616312 1.79726 0
M  V30 12610 H 1198.96 -0.865441 3.78738 0
M  V30 12611 H 1200.63 1.69541 4.29015 0
M  V30 12612 H 1198.87 1.65868 4.00837 0
M  V30 12613 H 1199.55 0.886795 5.4483 0
M  V30 12614 H 1202.02 -0.517325 4.12872 0
M  V30 12615 H 1200.9 -1.12087 5.37334 0
M  V30 12616 H 1201.16 -2.05974 3.91187 0
M  V30 12617 N 1200.22 -1.56282 0.203376 0
M  V30 12618 C 1201.45 -2.02198 -0.438572 0
M  V30 12619 C 1201.86 -1.08343 -1.54619 0
M  V30 12620 O 1201.22 -0.0897594 -1.82279 0
M  V30 12621 C 1201.27 -3.4776 -0.987184 0
M  V30 12622 O 1200.99 -4.38034 0.0762552 0
M  V30 12623 C 1202.49 -4.09234 -1.70419 0
M  V30 12624 H 1199.71 -0.662041 -0.109282 0
M  V30 12625 H 1202.25 -2.02067 0.314509 0
M  V30 12626 H 1200.41 -3.48564 -1.69061 0
M  V30 12627 H 1200.82 -5.2344 -0.333322 0
M  V30 12628 H 1202.3 -5.1291 -2.04027 0
M  V30 12629 H 1202.77 -3.53172 -2.61087 0
M  V30 12630 H 1203.38 -4.12226 -1.04641 0
M  V30 12631 N 1201.7 0.070167 -1.57444 0
M  V30 12632 C 1202.94 0.770153 -1.87607 0
M  V30 12633 C 1203.27 1.77143 -0.795875 0
M  V30 12634 O 1202.55 1.93533 0.193674 0
M  V30 12635 C 1202.83 1.47668 -3.2843 0
M  V30 12636 C 1202.69 0.491712 -4.47104 0
M  V30 12637 C 1204 2.42118 -3.67514 0
M  V30 12638 H 1201.12 0.278519 -0.682346 0
M  V30 12639 H 1203.77 0.0333184 -1.89971 0
M  V30 12640 H 1201.92 2.10476 -3.26546 0
M  V30 12641 H 1203.59 -0.131283 -4.61113 0
M  V30 12642 H 1201.83 -0.192817 -4.33371 0
M  V30 12643 H 1202.5 1.02372 -5.42424 0
M  V30 12644 H 1204.98 1.89387 -3.70502 0
M  V30 12645 H 1203.85 2.88556 -4.66933 0
M  V30 12646 H 1204.11 3.26995 -2.97534 0
M  V30 12647 N 1203.17 1.53854 0.341593 0
M  V30 12648 C 1204.42 1.71194 1.08162 0
M  V30 12649 C 1204.75 0.47614 1.88582 0
M  V30 12650 O 1204 -0.542115 1.88041 0
M  V30 12651 C 1204.3 2.92844 2.04884 0
M  V30 12652 C 1203.97 4.28366 1.40759 0
M  V30 12653 C 1202.63 4.65214 1.23 0
M  V30 12654 C 1204.98 5.12546 0.945819 0
M  V30 12655 C 1202.31 5.83857 0.576852 0
M  V30 12656 C 1204.66 6.31857 0.306568 0
M  V30 12657 C 1203.33 6.67398 0.116677 0
M  V30 12658 H 1202.6 0.626442 0.395792 0
M  V30 12659 H 1205.24 1.88073 0.360688 0
M  V30 12660 H 1203.55 2.70576 2.83365 0
M  V30 12661 H 1205.25 3.03454 2.62139 0
M  V30 12662 H 1201.84 3.99366 1.5558 0
M  V30 12663 H 1206.02 4.84609 1.07087 0
M  V30 12664 H 1201.28 6.09967 0.418363 0
M  V30 12665 H 1205.45 6.96375 -0.0593285 0
M  V30 12666 H 1203.08 7.59191 -0.391477 0
M  V30 12667 N 1204.65 -0.602709 1.4562 0
M  V30 12668 C 1205.58 -1.7271 1.50678 0
M  V30 12669 C 1206.6 -1.57884 0.397048 0
M  V30 12670 O 1207.79 -1.65676 0.664367 0
M  V30 12671 C 1204.89 -3.10762 1.35204 0
M  V30 12672 C 1204.06 -3.51782 2.59939 0
M  V30 12673 C 1203.12 -4.68816 2.38952 0
M  V30 12674 O 1202.14 -4.75686 3.12588 0
M  V30 12675 N 1203.35 -5.624 1.43827 0
M  V30 12676 H 1206.11 -1.68833 2.47619 0
M  V30 12677 H 1203.67 -0.788131 1.41422 0
M  V30 12678 H 1205.66 -3.86819 1.18967 0
M  V30 12679 H 1204.23 -3.09119 0.465203 0
M  V30 12680 H 1203.45 -2.65637 2.91257 0
M  V30 12681 H 1204.74 -3.75948 3.42842 0
M  V30 12682 H 1204.14 -5.59568 0.830669 0
M  V30 12683 H 1202.7 -6.37969 1.33561 0
M  V30 12684 N 1206.13 -1.32992 -0.845635 0
M  V30 12685 C 1207.38 -1.23415 -1.59536 0
M  V30 12686 C 1207.69 0.200278 -1.94572 0
M  V30 12687 O 1208.9 0.417993 -2.68263 0
M  V30 12688 C 1207.35 -2.16207 -2.8772 0
M  V30 12689 C 1206.96 -3.64782 -2.60073 0
M  V30 12690 C 1208.71 -2.15488 -3.65739 0
M  V30 12691 C 1206.61 -4.49508 -3.84313 0
M  V30 12692 H 1205.54 -0.458366 -0.598679 0
M  V30 12693 H 1208.19 -1.58012 -0.932981 0
M  V30 12694 H 1206.58 -1.74535 -3.55462 0
M  V30 12695 H 1207.75 -4.14852 -2.00585 0
M  V30 12696 H 1206.06 -3.67723 -1.95369 0
M  V30 12697 H 1208.66 -2.76021 -4.57948 0
M  V30 12698 H 1209 -1.14818 -4.00153 0
M  V30 12699 H 1209.54 -2.55487 -3.04912 0
M  V30 12700 H 1206.28 -5.51027 -3.55035 0
M  V30 12701 H 1205.8 -4.04185 -4.43165 0
M  V30 12702 H 1207.48 -4.62969 -4.51961 0
M  V30 12703 N 1207.61 1.06304 -1.1635 0
M  V30 12704 C 1208.54 2.15745 -0.893103 0
M  V30 12705 C 1209.52 1.69341 0.160531 0
M  V30 12706 O 1210.7 1.94196 0.0126526 0
M  V30 12707 C 1207.83 3.45066 -0.393287 0
M  V30 12708 C 1206.79 4.04978 -1.38482 0
M  V30 12709 C 1206.11 5.29507 -0.743409 0
M  V30 12710 C 1207.41 4.4377 -2.75438 0
M  V30 12711 H 1209.11 2.38622 -1.80831 0
M  V30 12712 H 1206.65 1.14681 -0.870878 0
M  V30 12713 H 1208.61 4.20964 -0.191607 0
M  V30 12714 H 1207.33 3.21808 0.557426 0
M  V30 12715 H 1205.99 3.31136 -1.57304 0
M  V30 12716 H 1205.64 5.02545 0.213787 0
M  V30 12717 H 1205.34 5.7055 -1.40521 0
M  V30 12718 H 1206.86 6.08102 -0.551746 0
M  V30 12719 H 1208.28 5.1075 -2.60398 0
M  V30 12720 H 1206.67 4.95797 -3.38091 0
M  V30 12721 H 1207.74 3.54636 -3.30699 0
M  V30 12722 N 1209.09 0.96196 1.24836 0
M  V30 12723 C 1210.31 0.63814 1.96813 0
M  V30 12724 C 1210.73 -0.79127 1.71419 0
M  V30 12725 O 1210.09 -1.5302 0.994546 0
M  V30 12726 C 1210.14 0.89626 3.50213 0
M  V30 12727 O 1209.86 2.26947 3.74735 0
M  V30 12728 C 1211.36 0.585836 4.39412 0
M  V30 12729 H 1208.58 0.238598 0.627146 0
M  V30 12730 H 1211.12 1.28833 1.58815 0
M  V30 12731 H 1209.28 0.292368 3.86295 0
M  V30 12732 H 1209.69 2.34514 4.69152 0
M  V30 12733 H 1211.17 0.816935 5.45921 0
M  V30 12734 H 1211.64 -0.479784 4.36572 0
M  V30 12735 H 1212.25 1.16938 4.08908 0
M  V30 12736 N 1210.56 -1.39601 0.731392 0
M  V30 12737 C 1211.5 -2.29147 0.0494974 0
M  V30 12738 C 1212.51 -1.46635 -0.707248 0
M  V30 12739 O 1213.7 -1.6975 -0.552008 0
M  V30 12740 C 1210.8 -3.25191 -0.954152 0
M  V30 12741 C 1209.97 -4.36629 -0.259674 0
M  V30 12742 C 1209.03 -5.13007 -1.17092 0
M  V30 12743 O 1208.06 -5.65479 -0.64976 0
M  V30 12744 N 1209.26 -5.23865 -2.50092 0
M  V30 12745 H 1212.02 -2.88308 0.818433 0
M  V30 12746 H 1209.58 -1.51142 0.580316 0
M  V30 12747 H 1211.58 -3.73161 -1.56629 0
M  V30 12748 H 1210.15 -2.67085 -1.62432 0
M  V30 12749 H 1209.37 -3.90582 0.532888 0
M  V30 12750 H 1210.65 -5.08317 0.221753 0
M  V30 12751 H 1210.05 -4.82745 -2.94913 0
M  V30 12752 H 1208.61 -5.75288 -3.0641 0
M  V30 12753 N 1212.04 -0.478751 -1.50152 0
M  V30 12754 C 1212.95 0.316554 -2.32455 0
M  V30 12755 C 1213.97 0.98871 -1.4318 0
M  V30 12756 O 1215.14 0.974998 -1.76226 0
M  V30 12757 C 1212.21 1.3799 -3.18056 0
M  V30 12758 C 1211.27 0.723534 -4.23159 0
M  V30 12759 C 1210.5 1.73621 -5.0467 0
M  V30 12760 O 1210.73 2.96362 -4.87366 0
M  V30 12761 O 1209.66 1.30381 -5.87609 0
M  V30 12762 H 1213.49 -0.356491 -3.016 0
M  V30 12763 H 1211.07 -0.24046 -1.47452 0
M  V30 12764 H 1212.95 1.99565 -3.71149 0
M  V30 12765 H 1211.63 2.03627 -2.5163 0
M  V30 12766 H 1210.54 0.0686296 -3.74037 0
M  V30 12767 H 1211.87 0.109979 -4.92077 0
M  V30 12768 N 1213.52 1.56172 -0.211661 0
M  V30 12769 C 1214.8 1.8984 0.471195 0
M  V30 12770 C 1215.18 1.1276 1.78461 0
M  V30 12771 O 1214.53 0.233817 2.27301 0
M  V30 12772 C 1214.74 3.42434 0.673814 0
M  V30 12773 C 1216.08 4.13 0.985719 0
M  V30 12774 O 1217.11 3.47977 0.760953 0
M  V30 12775 O 1215.97 5.2795 1.41176 0
M  V30 12776 H 1213.06 0.789008 0.247782 0
M  V30 12777 H 1215.61 1.67802 -0.25311 0
M  V30 12778 H 1214.38 3.90481 -0.253034 0
M  V30 12779 H 1214 3.70218 1.44997 0
M  V30 12780 N 1215 -0.0618163 1.57479 0
M  V30 12781 C 1216.24 -0.754894 1.88873 0
M  V30 12782 C 1216.6 -1.74679 0.806539 0
M  V30 12783 O 1215.89 -1.90672 -0.188301 0
M  V30 12784 C 1216.09 -1.4939 3.2468 0
M  V30 12785 C 1215.92 -0.575088 4.46008 0
M  V30 12786 C 1214.69 -0.208295 5.04871 0
M  V30 12787 C 1216.88 0.132502 5.14129 0
M  V30 12788 N 1214.87 0.715201 6.0972 0
M  V30 12789 C 1216.24 0.912821 6.13243 0
M  V30 12790 C 1218.29 0.20292 4.97486 0
M  V30 12791 C 1216.99 1.75703 6.97511 0
M  V30 12792 C 1219.02 1.03414 5.82288 0
M  V30 12793 C 1218.38 1.80248 6.80948 0
M  V30 12794 H 1214.48 -0.251354 0.740503 0
M  V30 12795 H 1217.07 -0.0160307 1.94693 0
M  V30 12796 H 1215.24 -2.20343 3.1985 0
M  V30 12797 H 1216.97 -2.13678 3.43691 0
M  V30 12798 H 1213.72 -0.563353 4.70237 0
M  V30 12799 H 1214.15 1.17049 6.66805 0
M  V30 12800 H 1218.79 -0.376779 4.21118 0
M  V30 12801 H 1216.51 2.34766 7.73247 0
M  V30 12802 H 1220.09 1.09173 5.71465 0
M  V30 12803 H 1218.97 2.43529 7.45428 0
M  V30 12804 N 1216.48 -1.54033 -0.333429 0
M  V30 12805 C 1217.42 -1.83441 -1.43011 0
M  V30 12806 C 1218.42 -0.705592 -1.54006 0
M  V30 12807 O 1219.62 -0.889098 -1.56509 0
M  V30 12808 H 1216 -0.581326 -0.477037 0
M  V30 12809 H 1217.97 -2.75172 -1.15426 0
M  V30 12810 C 1216.72 -2.0698 -2.79382 0
M  V30 12811 H 1216.04 -2.93297 -2.71692 0
M  V30 12812 H 1217.48 -2.31517 -3.55212 0
M  V30 12813 C 1215.94 -0.85835 -3.25782 0
M  V30 12814 O 1216.47 -0.062739 -4.01651 0
M  V30 12815 N 1214.68 -0.672738 -2.82706 0
M  V30 12816 H 1214.22 -1.32136 -2.21128 0
M  V30 12817 H 1214.18 0.136347 -3.14104 0
M  V30 12818 N 1217.95 0.594978 -1.45938 0
M  V30 12819 C 1219.2 1.35561 -1.50834 0
M  V30 12820 C 1219.53 1.93584 -0.154566 0
M  V30 12821 O 1218.81 1.75781 0.832541 0
M  V30 12822 C 1219.09 2.49414 -2.5974 0
M  V30 12823 C 1218.94 1.96506 -4.04605 0
M  V30 12824 C 1220.26 3.51505 -2.64825 0
M  V30 12825 H 1217.38 0.491549 -0.549134 0
M  V30 12826 H 1220.02 0.669536 -1.77812 0
M  V30 12827 H 1218.17 3.07939 -2.36866 0
M  V30 12828 H 1219.85 1.42533 -4.38728 0
M  V30 12829 H 1218.09 1.27418 -4.14665 0
M  V30 12830 H 1218.76 2.78636 -4.76515 0
M  V30 12831 H 1221.24 3.02841 -2.85353 0
M  V30 12832 H 1220.11 4.28641 -3.42867 0
M  V30 12833 H 1220.37 4.07942 -1.70399 0
M  V30 12834 N 1219.43 1.33438 0.838571 0
M  V30 12835 C 1220.68 1.25097 1.5962 0
M  V30 12836 C 1221.01 -0.182798 1.93338 0
M  V30 12837 O 1220.29 -1.1242 1.5872 0
M  V30 12838 C 1220.57 2.12655 2.90603 0
M  V30 12839 C 1220.42 3.64491 2.63565 0
M  V30 12840 C 1221.74 1.99994 3.92033 0
M  V30 12841 H 1218.86 0.455776 0.579169 0
M  V30 12842 H 1221.5 1.63542 0.967169 0
M  V30 12843 H 1219.65 1.79998 3.44286 0
M  V30 12844 H 1221.32 4.0744 2.16312 0
M  V30 12845 H 1219.57 3.86356 1.9726 0
M  V30 12846 H 1220.24 4.21101 3.569 0
M  V30 12847 H 1222.71 2.28635 3.47657 0
M  V30 12848 H 1221.59 2.63509 4.81512 0
M  V30 12849 H 1221.85 0.972263 4.31277 0
M  V30 12850 N 1220.91 -1.05686 1.16912 0
M  V30 12851 C 1221.84 -2.15268 0.904532 0
M  V30 12852 C 1222.82 -1.69424 -0.151548 0
M  V30 12853 O 1224.01 -1.942 -0.00235371 0
M  V30 12854 C 1221.14 -3.44853 0.411581 0
M  V30 12855 C 1220.09 -4.04237 1.40628 0
M  V30 12856 C 1219.42 -5.29105 0.771479 0
M  V30 12857 C 1220.72 -4.42303 2.77787 0
M  V30 12858 H 1222.41 -2.37659 1.82094 0
M  V30 12859 H 1219.96 -1.14217 0.876947 0
M  V30 12860 H 1221.91 -4.20857 0.213929 0
M  V30 12861 H 1220.63 -3.22099 -0.540352 0
M  V30 12862 H 1219.29 -3.30297 1.59058 0
M  V30 12863 H 1218.94 -5.02652 -0.187133 0
M  V30 12864 H 1218.64 -5.69797 1.43545 0
M  V30 12865 H 1220.16 -6.07801 0.583988 0
M  V30 12866 H 1221.58 -5.09362 2.63103 0
M  V30 12867 H 1219.98 -4.93997 3.40716 0
M  V30 12868 H 1221.05 -3.52877 3.32575 0
M  V30 12869 N 1222.39 -0.968567 -1.24324 0
M  V30 12870 C 1223.62 -0.647628 -1.96187 0
M  V30 12871 C 1224.03 0.787267 -1.72043 0
M  V30 12872 O 1223.37 1.53996 -1.00155 0
M  V30 12873 C 1223.43 -0.843517 -3.49464 0
M  V30 12874 C 1223.1 -2.25822 -3.97308 0
M  V30 12875 C 1224.09 -3.23602 -4.06913 0
M  V30 12876 C 1221.78 -2.58614 -4.30609 0
M  V30 12877 C 1223.77 -4.5226 -4.49154 0
M  V30 12878 C 1221.46 -3.87499 -4.72534 0
M  V30 12879 C 1222.46 -4.84134 -4.81771 0
M  V30 12880 O 1222.14 -6.10719 -5.2276 0
M  V30 12881 H 1221.88 -0.240568 -0.631746 0
M  V30 12882 H 1224.43 -1.29926 -1.59086 0
M  V30 12883 H 1222.66 -0.134716 -3.86465 0
M  V30 12884 H 1224.35 -0.521533 -4.02536 0
M  V30 12885 H 1225.12 -2.99596 -3.81402 0
M  V30 12886 H 1220.99 -1.84116 -4.22637 0
M  V30 12887 H 1224.54 -5.27689 -4.56279 0
M  V30 12888 H 1220.44 -4.11305 -4.97492 0
M  V30 12889 H 1221.2 -6.14298 -5.40906 0
M  V30 12890 N 1223.87 1.39211 -0.738786 0
M  V30 12891 C 1224.81 2.32424 -0.0904601 0
M  V30 12892 C 1225.81 1.53258 0.721694 0
M  V30 12893 O 1227.01 1.68895 0.622454 0
M  V30 12894 H 1223.39 0.751927 -0.010453 0
M  V30 12895 H 1225.36 2.84726 -0.892945 0
M  V30 12896 C 1224.11 3.38377 0.799783 0
M  V30 12897 H 1223.43 3.99375 0.18424 0
M  V30 12898 H 1224.87 4.0604 1.22096 0
M  V30 12899 C 1223.33 2.75734 1.93578 0
M  V30 12900 O 1223.86 2.63876 3.02874 0
M  V30 12901 N 1222.07 2.33764 1.72634 0
M  V30 12902 H 1221.61 2.43609 0.837413 0
M  V30 12903 H 1221.57 1.92191 2.48817 0
M  V30 12904 N 1225.34 0.486708 1.49896 0
M  V30 12905 C 1226.59 -0.0627279 2.02003 0
M  V30 12906 C 1226.91 -1.38799 1.36967 0
M  V30 12907 O 1226.18 -1.88868 0.520173 0
M  V30 12908 H 1224.76 -0.0261718 0.746541 0
M  V30 12909 H 1227.43 0.640692 1.84068 0
M  V30 12910 H 1226.52 -0.202856 3.1144 0
M  V30 12911 N 1226.82 -1.56058 0.219941 0
M  V30 12912 C 1227.76 -2.16182 -0.730796 0
M  V30 12913 C 1228.73 -1.10574 -1.19215 0
M  V30 12914 O 1229.92 -1.38821 -1.27518 0
M  V30 12915 C 1227.05 -2.7408 -1.98992 0
M  V30 12916 C 1226.09 -3.92502 -1.66867 0
M  V30 12917 S 1226.92 -5.29568 -0.794875 0
M  V30 12918 C 1228.08 -5.90903 -2.0636 0
M  V30 12919 H 1228.31 -2.96487 -0.219762 0
M  V30 12920 H 1225.85 -1.54399 0.00465254 0
M  V30 12921 H 1227.8 -3.08078 -2.7129 0
M  V30 12922 H 1226.47 -1.93771 -2.47207 0
M  V30 12923 H 1225.66 -4.31509 -2.60414 0
M  V30 12924 H 1225.26 -3.59642 -1.02633 0
M  V30 12925 H 1227.55 -6.06778 -3.01374 0
M  V30 12926 H 1228.5 -6.86957 -1.71745 0
M  V30 12927 H 1228.9 -5.19722 -2.2034 0
M  V30 12928 N 1228.3 0.053464 -1.57509 0
M  V30 12929 C 1229.26 1.04604 -2.03938 0
M  V30 12930 C 1230.26 1.30509 -0.939357 0
M  V30 12931 O 1231.45 1.25922 -1.20371 0
M  V30 12932 C 1228.59 2.38516 -2.43563 0
M  V30 12933 H 1229.78 0.645484 -2.92871 0
M  V30 12934 H 1227.33 0.299683 -1.534 0
M  V30 12935 H 1228.07 2.83368 -1.57712 0
M  V30 12936 H 1227.85 2.2105 -3.23851 0
M  V30 12937 H 1229.34 3.09826 -2.79996 0
M  V30 12938 N 1229.78 1.54207 0.325255 0
M  V30 12939 C 1231 1.7661 1.08736 0
M  V30 12940 C 1231.43 0.512449 1.80985 0
M  V30 12941 O 1230.79 -0.535913 1.73198 0
M  V30 12942 C 1230.84 2.95797 2.06243 0
M  V30 12943 O 1229.94 2.67225 3.14109 0
M  V30 12944 H 1229.28 0.585282 0.313593 0
M  V30 12945 H 1231.81 2.01225 0.370066 0
M  V30 12946 H 1231.82 3.23097 2.49143 0
M  V30 12947 H 1230.5 3.86712 1.53058 0
M  V30 12948 H 1229.07 2.50869 2.75897 0
M  V30 12949 N 1231.26 -0.58723 1.46251 0
M  V30 12950 C 1232.49 -1.37174 1.5489 0
M  V30 12951 C 1232.9 -1.87857 0.188445 0
M  V30 12952 O 1232.26 -1.63365 -0.813509 0
M  V30 12953 C 1232.31 -2.56237 2.55 0
M  V30 12954 O 1232.03 -2.07655 3.8576 0
M  V30 12955 C 1233.53 -3.48846 2.73535 0
M  V30 12956 H 1230.75 -0.419211 0.523931 0
M  V30 12957 H 1233.29 -0.714307 1.91619 0
M  V30 12958 H 1231.45 -3.1798 2.21287 0
M  V30 12959 H 1231.86 -2.85161 4.40208 0
M  V30 12960 H 1233.34 -4.2888 3.47514 0
M  V30 12961 H 1233.81 -4.00493 1.80282 0
M  V30 12962 H 1234.42 -2.92942 3.08326 0
M  V30 12963 N 1232.74 -1.33881 -0.831482 0
M  V30 12964 C 1233.96 -1.28961 -1.62431 0
M  V30 12965 C 1234.39 0.135249 -1.87613 0
M  V30 12966 O 1233.74 1.09426 -1.44553 0
M  V30 12967 C 1233.79 -2.07767 -2.94729 0
M  V30 12968 O 1232.9 -1.44133 -3.86393 0
M  V30 12969 H 1232.24 -0.443313 -0.494337 0
M  V30 12970 H 1234.77 -1.76555 -1.0339 0
M  V30 12971 H 1234.78 -2.18806 -3.44366 0
M  V30 12972 H 1233.45 -3.11367 -2.75724 0
M  V30 12973 H 1232.03 -1.41784 -3.44894 0
M  V30 12974 N 1234.21 1.05064 -1.1747 0
M  V30 12975 C 1235.62 1.59547 -0.969628 0
M  V30 12976 C 1235.98 1.90153 0.483332 0
M  V30 12977 O 1235.1 1.68415 1.35887 0
M  V30 12978 C 1235.7 2.89877 -1.75377 0
M  V30 12979 C 1234.25 3.41013 -1.59332 0
M  V30 12980 C 1233.4 2.1473 -1.7546 0
M  V30 12981 H 1236.35 0.878595 -1.3216 0
M  V30 12982 H 1236.37 3.59834 -1.23691 0
M  V30 12983 H 1235.89 2.67569 -2.8112 0
M  V30 12984 H 1233.99 3.68355 -0.560827 0
M  V30 12985 H 1234.1 4.15512 -2.38509 0
M  V30 12986 H 1232.46 2.25553 -1.18313 0
M  V30 12987 H 1233.25 1.9489 -2.82618 0
M  V30 12988 N 1235.69 0.975146 1.23809 0
M  V30 12989 C 1236.94 0.651686 1.92677 0
M  V30 12990 C 1237.29 -0.805298 1.74736 0
M  V30 12991 O 1236.59 -1.5727 1.09438 0
M  V30 12992 C 1236.78 0.971016 3.43956 0
M  V30 12993 C 1236.61 2.45749 3.76613 0
M  V30 12994 C 1235.38 3.11859 3.97583 0
M  V30 12995 C 1237.58 3.43793 3.82506 0
M  V30 12996 N 1235.56 4.50166 4.17401 0
M  V30 12997 C 1236.93 4.67487 4.07254 0
M  V30 12998 C 1238.98 3.38347 3.65274 0
M  V30 12999 C 1237.69 5.86404 4.16561 0
M  V30 13000 C 1239.71 4.56623 3.75831 0
M  V30 13001 C 1239.08 5.7911 4.01012 0
M  V30 13002 H 1235.17 0.289441 0.726463 0
M  V30 13003 H 1237.76 1.25153 1.49147 0
M  V30 13004 H 1235.93 0.399915 3.86336 0
M  V30 13005 H 1237.66 0.605367 4.00147 0
M  V30 13006 H 1234.42 2.62369 3.94283 0
M  V30 13007 H 1234.84 5.21854 4.31274 0
M  V30 13008 H 1239.48 2.44679 3.44807 0
M  V30 13009 H 1237.2 6.80493 4.35838 0
M  V30 13010 H 1240.79 4.53979 3.6386 0
M  V30 13011 H 1239.67 6.69103 4.08988 0
M  V30 13012 N 1237.17 -1.38817 0.746158 0
M  V30 13013 C 1238.13 -2.28876 0.121886 0
M  V30 13014 C 1239.13 -1.46838 -0.655379 0
M  V30 13015 O 1240.32 -1.67377 -0.482744 0
M  V30 13016 C 1237.45 -3.30487 -0.836118 0
M  V30 13017 H 1238.65 -2.85586 0.915453 0
M  V30 13018 H 1236.2 -1.47652 0.512691 0
M  V30 13019 H 1236.94 -2.78853 -1.65563 0
M  V30 13020 H 1236.72 -3.9109 -0.281271 0
M  V30 13021 H 1238.21 -3.97848 -1.26914 0
M  V30 13022 N 1238.65 -0.49465 -1.49636 0
M  V30 13023 C 1239.87 0.051305 -2.07337 0
M  V30 13024 C 1240.3 1.30637 -1.35335 0
M  V30 13025 O 1239.66 1.76647 -0.408126 0
M  V30 13026 C 1239.7 0.294425 -3.59396 0
M  V30 13027 O 1238.81 1.3704 -3.88965 0
M  V30 13028 H 1238.15 -0.023408 -0.663587 0
M  V30 13029 H 1240.68 -0.692451 -1.92526 0
M  V30 13030 H 1240.69 0.527854 -4.04571 0
M  V30 13031 H 1239.36 -0.622583 -4.11214 0
M  V30 13032 H 1237.94 1.12242 -3.55607 0
M  V30 13033 N 1240.13 1.55939 -0.228214 0
M  V30 13034 C 1241.06 2.2357 0.6737 0
M  V30 13035 C 1242.04 1.20964 1.1959 0
M  V30 13036 O 1243.22 1.49568 1.23867 0
M  V30 13037 C 1240.35 2.92076 1.87906 0
M  V30 13038 C 1239.31 4.01211 1.49043 0
M  V30 13039 C 1238.63 4.57047 2.77511 0
M  V30 13040 C 1239.93 5.17914 0.67544 0
M  V30 13041 H 1241.63 2.99199 0.109806 0
M  V30 13042 H 1239.17 1.43908 0.0513732 0
M  V30 13043 H 1241.12 3.38083 2.51551 0
M  V30 13044 H 1239.85 2.13906 2.46803 0
M  V30 13045 H 1238.51 3.55945 0.877411 0
M  V30 13046 H 1238.16 3.75599 3.34566 0
M  V30 13047 H 1237.86 5.30707 2.52239 0
M  V30 13048 H 1239.38 5.05776 3.42087 0
M  V30 13049 H 1240.79 5.60261 1.21575 0
M  V30 13050 H 1239.19 5.97847 0.519536 0
M  V30 13051 H 1240.26 4.83866 -0.316495 0
M  V30 13052 N 1241.6 -0.0451101 1.57535 0
M  V30 13053 C 1242.83 -0.750231 1.92497 0
M  V30 13054 C 1243.24 -1.70268 0.824946 0
M  V30 13055 O 1242.59 -1.82511 -0.208656 0
M  V30 13056 C 1242.65 -1.57543 3.23141 0
M  V30 13057 C 1242.31 -0.789495 4.50129 0
M  V30 13058 C 1243.31 -0.0968367 5.1981 0
M  V30 13059 C 1240.99 -0.748776 4.96688 0
M  V30 13060 C 1242.99 0.626018 6.34318 0
M  V30 13061 C 1240.67 -0.0221652 6.11096 0
M  V30 13062 C 1241.67 0.664006 6.79765 0
M  V30 13063 O 1241.36 1.37885 7.91987 0
M  V30 13064 H 1241.09 -0.216895 0.64026 0
M  V30 13065 H 1243.65 -0.011558 2.05397 0
M  V30 13066 H 1241.88 -2.35754 3.06524 0
M  V30 13067 H 1243.57 -2.16168 3.4355 0
M  V30 13068 H 1244.33 -0.119429 4.84853 0
M  V30 13069 H 1240.21 -1.27235 4.43094 0
M  V30 13070 H 1243.75 1.16215 6.87852 0
M  V30 13071 H 1239.65 0.00240707 6.455 0
M  V30 13072 H 1240.42 1.29087 8.08257 0
M  V30 13073 N 1243.08 -1.54377 -0.317073 0
M  V30 13074 C 1244.33 -1.72893 -1.05424 0
M  V30 13075 C 1244.66 -0.506082 -1.87801 0
M  V30 13076 O 1243.91 0.51213 -1.8888 0
M  V30 13077 C 1244.21 -2.96066 -2.00199 0
M  V30 13078 C 1243.88 -4.30551 -1.33927 0
M  V30 13079 C 1242.54 -4.67112 -1.15584 0
M  V30 13080 C 1244.89 -5.13986 -0.864158 0
M  V30 13081 C 1242.22 -5.84701 -0.483892 0
M  V30 13082 C 1244.57 -6.32264 -0.206006 0
M  V30 13083 C 1243.24 -6.67499 -0.0104849 0
M  V30 13084 H 1242.51 -0.63266 -0.385776 0
M  V30 13085 H 1245.15 -1.88623 -0.330722 0
M  V30 13086 H 1243.46 -2.7505 -2.79024 0
M  V30 13087 H 1245.15 -3.07586 -2.57278 0
M  V30 13088 H 1241.74 -4.0179 -1.49207 0
M  V30 13089 H 1245.93 -4.86252 -0.993635 0
M  V30 13090 H 1241.18 -6.10555 -0.32127 0
M  V30 13091 H 1245.36 -6.96192 0.170108 0
M  V30 13092 H 1242.99 -7.58472 0.512209 0
M  V30 13093 N 1244.56 0.579466 -1.4656 0
M  V30 13094 C 1245.81 1.33954 -1.52264 0
M  V30 13095 C 1246.14 1.93409 -0.175089 0
M  V30 13096 O 1245.41 1.76654 0.81385 0
M  V30 13097 C 1245.7 2.46645 -2.6237 0
M  V30 13098 C 1245.55 1.92204 -4.06667 0
M  V30 13099 C 1246.87 3.48676 -2.68538 0
M  V30 13100 H 1243.99 0.485697 -0.554317 0
M  V30 13101 H 1246.63 0.650639 -1.78512 0
M  V30 13102 H 1244.78 3.0541 -2.40119 0
M  V30 13103 H 1246.45 1.37871 -4.40215 0
M  V30 13104 H 1244.7 1.23012 -4.15993 0
M  V30 13105 H 1245.37 2.73566 -4.79443 0
M  V30 13106 H 1247.84 2.99798 -2.88549 0
M  V30 13107 H 1246.72 4.24981 -3.47394 0
M  V30 13108 H 1246.98 4.06112 -1.74716 0
M  V30 13109 N 1246.04 1.3432 0.824371 0
M  V30 13110 C 1247 1.25672 1.91675 0
M  V30 13111 C 1248 0.172269 1.59875 0
M  V30 13112 O 1249.19 0.424794 1.68941 0
M  V30 13113 C 1246.32 0.939928 3.27686 0
M  V30 13114 H 1247.52 2.22785 2.00766 0
M  V30 13115 H 1245.07 1.18587 1.01817 0
M  V30 13116 H 1245.8 -0.0280898 3.24288 0
M  V30 13117 H 1245.59 1.72432 3.5215 0
M  V30 13118 H 1247.08 0.904553 4.07686 0
M  V30 13119 N 1247.52 -1.0444 1.18026 0
M  V30 13120 C 1248.45 -2.14297 0.927314 0
M  V30 13121 C 1249.43 -1.69575 -0.13357 0
M  V30 13122 O 1250.61 -1.94191 0.0182439 0
M  V30 13123 C 1247.74 -3.44397 0.448134 0
M  V30 13124 C 1246.7 -4.02723 1.44907 0
M  V30 13125 C 1246.02 -5.28257 0.827555 0
M  V30 13126 C 1247.32 -4.39331 2.82463 0
M  V30 13127 H 1249.02 -2.35715 1.84605 0
M  V30 13128 H 1246.56 -1.13281 0.889012 0
M  V30 13129 H 1248.52 -4.20606 0.258554 0
M  V30 13130 H 1247.24 -3.22654 -0.506159 0
M  V30 13131 H 1245.9 -3.28591 1.62552 0
M  V30 13132 H 1245.55 -5.02822 -0.13381 0
M  V30 13133 H 1245.25 -5.68242 1.49581 0
M  V30 13134 H 1246.77 -6.07147 0.64842 0
M  V30 13135 H 1248.18 -5.06543 2.68491 0
M  V30 13136 H 1246.58 -4.90355 3.45936 0
M  V30 13137 H 1247.65 -3.4933 3.36299 0
M  V30 13138 N 1248.99 -0.981699 -1.2329 0
M  V30 13139 C 1249.93 -0.467781 -2.23354 0
M  V30 13140 C 1250.91 0.465814 -1.55785 0
M  V30 13141 O 1252.09 0.393959 -1.84337 0
M  V30 13142 C 1249.22 0.323133 -3.37155 0
M  V30 13143 C 1248.26 -0.554796 -4.22876 0
M  V30 13144 S 1249.1 -2.00343 -4.96612 0
M  V30 13145 C 1250.25 -1.22169 -6.13861 0
M  V30 13146 H 1250.48 -1.31573 -2.66601 0
M  V30 13147 H 1248.02 -0.787793 -1.3279 0
M  V30 13148 H 1249.98 0.773448 -4.03148 0
M  V30 13149 H 1248.64 1.14622 -2.92439 0
M  V30 13150 H 1247.83 0.0531667 -5.03972 0
M  V30 13151 H 1247.43 -0.94141 -3.61958 0
M  V30 13152 H 1249.72 -0.483668 -6.75771 0
M  V30 13153 H 1250.67 -2.00752 -6.79046 0
M  V30 13154 H 1251.07 -0.739905 -5.5963 0
M  V30 13155 N 1250.47 1.3842 -0.753509 0
M  V30 13156 C 1251.7 2.04403 -0.320449 0
M  V30 13157 C 1252.12 1.5683 1.05118 0
M  V30 13158 O 1251.47 0.741335 1.66765 0
M  V30 13159 C 1251.52 3.59954 -0.333937 0
M  V30 13160 O 1251.24 4.05782 -1.65144 0
M  V30 13161 C 1252.75 4.43156 0.112997 0
M  V30 13162 H 1249.97 0.656881 -0.136927 0
M  V30 13163 H 1252.51 1.77112 -1.02234 0
M  V30 13164 H 1250.66 3.86083 0.319215 0
M  V30 13165 H 1251.08 5.00213 -1.57757 0
M  V30 13166 H 1252.55 5.51975 0.0523995 0
M  V30 13167 H 1253.03 4.23581 1.16087 0
M  V30 13168 H 1253.64 4.22216 -0.511278 0
M  V30 13169 N 1251.95 0.502579 1.49372 0
M  V30 13170 C 1253.2 -0.041381 2.02458 0
M  V30 13171 C 1253.53 -1.36848 1.38213 0
M  V30 13172 O 1252.78 -1.89003 0.507568 0
M  V30 13173 C 1253.08 -0.240835 3.56588 0
M  V30 13174 C 1252.75 1.00846 4.39478 0
M  V30 13175 C 1251.41 1.35091 4.61848 0
M  V30 13176 C 1253.76 1.8388 4.87686 0
M  V30 13177 C 1251.09 2.52318 5.29672 0
M  V30 13178 C 1253.44 3.00262 5.56799 0
M  V30 13179 C 1252.1 3.34885 5.77415 0
M  V30 13180 H 1251.37 -0.0151424 0.740845 0
M  V30 13181 H 1254.02 0.663056 1.79655 0
M  V30 13182 H 1252.33 -1.02781 3.78078 0
M  V30 13183 H 1254.02 -0.676194 3.95258 0
M  V30 13184 H 1250.61 0.731719 4.22308 0
M  V30 13185 H 1254.8 1.58738 4.7023 0
M  V30 13186 H 1250.05 2.79379 5.43836 0
M  V30 13187 H 1254.23 3.64927 5.93128 0
M  V30 13188 H 1251.85 4.25824 6.29744 0
M  V30 13189 N 1253.43 -1.55816 0.23648 0
M  V30 13190 C 1254.68 -1.98294 -0.390373 0
M  V30 13191 C 1255 -1.12573 -1.59224 0
M  V30 13192 O 1254.27 -0.206128 -1.94813 0
M  V30 13193 H 1252.85 -0.732349 -0.14722 0
M  V30 13194 H 1255.51 -1.92037 0.332848 0
M  V30 13195 H 1254.61 -3.03996 -0.706595 0
M  V30 13196 N 1254.91 0.036755 -1.57557 0
M  V30 13197 C 1255.85 1.05823 -2.07133 0
M  V30 13198 C 1256.85 1.37923 -0.983546 0
M  V30 13199 O 1258.05 1.36918 -1.16848 0
M  V30 13200 H 1254.43 0.358761 -0.660905 0
M  V30 13201 H 1256.4 0.614232 -2.9201 0
M  V30 13202 C 1255.15 2.35302 -2.55985 0
M  V30 13203 H 1254.47 2.11461 -3.393 0
M  V30 13204 H 1255.91 3.05139 -2.94391 0
M  V30 13205 C 1254.37 3.0373 -1.45773 0
M  V30 13206 O 1254.9 3.9325 -0.819587 0
M  V30 13207 N 1253.11 2.64931 -1.19416 0
M  V30 13208 H 1252.65 1.92219 -1.71492 0
M  V30 13209 H 1252.61 3.11033 -0.458865 0
M  V30 13210 N 1256.39 1.54543 0.308881 0
M  V30 13211 C 1257.62 1.77174 1.06268 0
M  V30 13212 C 1258.02 0.527461 1.81699 0
M  V30 13213 O 1257.37 -0.512027 1.7642 0
M  V30 13214 C 1257.43 2.92115 2.09545 0
M  V30 13215 C 1257.09 4.30492 1.5338 0
M  V30 13216 C 1258.09 5.1081 0.967923 0
M  V30 13217 C 1255.77 4.77074 1.5718 0
M  V30 13218 C 1257.77 6.35827 0.447517 0
M  V30 13219 C 1255.46 6.02055 1.04753 0
M  V30 13220 C 1256.45 6.81266 0.486345 0
M  V30 13221 O 1256.14 8.03894 -0.0300055 0
M  V30 13222 H 1255.87 0.594773 0.321281 0
M  V30 13223 H 1258.43 2.02289 0.356136 0
M  V30 13224 H 1256.66 2.62606 2.83857 0
M  V30 13225 H 1258.35 3.02394 2.70763 0
M  V30 13226 H 1259.11 4.7597 0.931523 0
M  V30 13227 H 1254.99 4.15453 1.998 0
M  V30 13228 H 1258.54 6.97599 0.00884212 0
M  V30 13229 H 1254.43 6.36383 1.08105 0
M  V30 13230 H 1255.2 8.18457 0.0840381 0
M  V30 13231 N 1257.86 -0.571685 1.46866 0
M  V30 13232 C 1259.11 -1.33145 1.52972 0
M  V30 13233 C 1259.44 -1.93314 0.185344 0
M  V30 13234 O 1258.72 -1.77083 -0.80447 0
M  V30 13235 C 1259 -2.4525 2.63675 0
M  V30 13236 C 1258.85 -1.90044 4.0768 0
M  V30 13237 C 1260.17 -3.47247 2.70384 0
M  V30 13238 H 1257.29 -0.482751 0.556885 0
M  V30 13239 H 1259.93 -0.641163 1.78855 0
M  V30 13240 H 1258.08 -3.04132 2.41735 0
M  V30 13241 H 1259.76 -1.35535 4.4094 0
M  V30 13242 H 1258 -1.20805 4.1664 0
M  V30 13243 H 1258.67 -2.71019 4.80887 0
M  V30 13244 H 1261.15 -2.98263 2.90135 0
M  V30 13245 H 1260.02 -4.23132 3.49643 0
M  V30 13246 H 1260.28 -4.05179 1.76868 0
M  V30 13247 N 1259.34 -1.34755 -0.817236 0
M  V30 13248 C 1260.27 -1.29452 -1.94331 0
M  V30 13249 C 1261.25 -0.170902 -1.69239 0
M  V30 13250 O 1262.44 -0.364173 -1.90755 0
M  V30 13251 C 1259.57 -1.05497 -3.30889 0
M  V30 13252 C 1258.52 -2.14386 -3.70436 0
M  V30 13253 C 1257.85 -1.75612 -5.05039 0
M  V30 13254 C 1259.15 -3.56265 -3.81933 0
M  V30 13255 H 1260.84 -2.23672 -1.99025 0
M  V30 13256 H 1258.39 -1.07674 -0.956159 0
M  V30 13257 H 1260.34 -1.0043 -4.09257 0
M  V30 13258 H 1259.06 -0.0772059 -3.26509 0
M  V30 13259 H 1257.72 -2.18532 -2.94345 0
M  V30 13260 H 1257.37 -0.764809 -4.97152 0
M  V30 13261 H 1257.07 -2.48495 -5.3247 0
M  V30 13262 H 1258.6 -1.72051 -5.85859 0
M  V30 13263 H 1260.01 -3.545 -4.50558 0
M  V30 13264 H 1258.41 -4.27818 -4.20822 0
M  V30 13265 H 1259.48 -3.93192 -2.83775 0
M  V30 13266 N 1260.82 1.03812 -1.18578 0
M  V30 13267 C 1262.07 1.77056 -0.982718 0
M  V30 13268 C 1262.39 1.88294 0.487421 0
M  V30 13269 O 1261.65 1.38946 1.37813 0
M  V30 13270 C 1261.95 3.20297 -1.5857 0
M  V30 13271 C 1261.61 3.29088 -3.0824 0
M  V30 13272 C 1260.28 3.31194 -3.4909 0
M  V30 13273 C 1262.63 3.28981 -4.04253 0
M  V30 13274 C 1259.96 3.30839 -4.84523 0
M  V30 13275 C 1262.31 3.30166 -5.39605 0
M  V30 13276 C 1260.97 3.30565 -5.79899 0
M  V30 13277 H 1260.24 0.647895 -0.359602 0
M  V30 13278 H 1262.89 1.21911 -1.47682 0
M  V30 13279 H 1261.19 3.7846 -1.01367 0
M  V30 13280 H 1262.89 3.75619 -1.40398 0
M  V30 13281 H 1259.48 3.28171 -2.75685 0
M  V30 13282 H 1263.67 3.26543 -3.73743 0
M  V30 13283 H 1258.92 3.29467 -5.15035 0
M  V30 13284 H 1263.1 3.29033 -6.13767 0
M  V30 13285 H 1260.72 3.30044 -6.84818 0
M  V30 13286 N 1262.3 0.988223 1.22768 0
M  V30 13287 C 1263.25 0.527454 2.26541 0
M  V30 13288 C 1264.24 -0.419506 1.64123 0
M  V30 13289 O 1265.45 -0.292539 1.77607 0
M  V30 13290 H 1261.82 0.152165 0.736444 0
M  V30 13291 H 1263.79 1.41422 2.62759 0
M  V30 13292 C 1262.54 -0.146845 3.4739 0
M  V30 13293 H 1261.86 0.572752 3.95676 0
M  V30 13294 H 1263.3 -0.432768 4.21786 0
M  V30 13295 C 1261.76 -1.38065 3.0731 0
M  V30 13296 O 1262.29 -2.47634 3.16291 0
M  V30 13297 N 1260.5 -1.25418 2.62143 0
M  V30 13298 H 1260.05 -0.362641 2.55035 0
M  V30 13299 H 1260 -2.08077 2.35694 0
M  V30 13300 N 1263.78 -1.38018 0.760839 0
M  V30 13301 C 1264.71 -2.32995 0.153557 0
M  V30 13302 C 1265.69 -1.55234 -0.695448 0
M  V30 13303 O 1266.87 -1.8352 -0.635148 0
M  V30 13304 C 1264 -3.39437 -0.734811 0
M  V30 13305 C 1262.96 -4.27998 0.0120287 0
M  V30 13306 C 1262.28 -5.25359 -0.995067 0
M  V30 13307 C 1263.58 -5.08687 1.18468 0
M  V30 13308 H 1265.28 -2.8403 0.946956 0
M  V30 13309 H 1262.82 -1.36562 0.456816 0
M  V30 13310 H 1264.77 -4.0485 -1.16938 0
M  V30 13311 H 1263.5 -2.86901 -1.56061 0
M  V30 13312 H 1262.16 -3.64102 0.427254 0
M  V30 13313 H 1261.81 -4.69108 -1.81512 0
M  V30 13314 H 1261.51 -5.85469 -0.499969 0
M  V30 13315 H 1263.03 -5.93648 -1.4288 0
M  V30 13316 H 1264.44 -5.67299 0.8273 0
M  V30 13317 H 1262.84 -5.78068 1.61112 0
M  V30 13318 H 1263.91 -4.42 1.99409 0
M  V30 13319 N 1265.25 -0.510493 -1.49103 0
M  V30 13320 C 1266.18 0.251999 -2.32136 0
M  V30 13321 C 1267.16 0.953613 -1.40855 0
M  V30 13322 O 1268.35 0.943178 -1.69758 0
M  V30 13323 C 1265.48 1.31118 -3.21598 0
M  V30 13324 C 1264.43 0.72888 -4.21748 0
M  V30 13325 C 1263.76 1.88928 -5.0021 0
M  V30 13326 C 1265.06 -0.286425 -5.21514 0
M  V30 13327 H 1266.75 -0.441102 -2.96133 0
M  V30 13328 H 1264.3 -0.213577 -1.42407 0
M  V30 13329 H 1266.25 1.8524 -3.78503 0
M  V30 13330 H 1264.98 2.0336 -2.55563 0
M  V30 13331 H 1263.64 0.209336 -3.66002 0
M  V30 13332 H 1263.28 2.59961 -4.30615 0
M  V30 13333 H 1262.98 1.50568 -5.67981 0
M  V30 13334 H 1264.51 2.43465 -5.59962 0
M  V30 13335 H 1265.92 0.166997 -5.73057 0
M  V30 13336 H 1264.32 -0.586361 -5.97228 0
M  V30 13337 H 1265.39 -1.19904 -4.69842 0
M  V30 13338 N 1266.73 1.55688 -0.24474 0
M  V30 13339 C 1267.98 1.99186 0.381167 0
M  V30 13340 C 1268.31 1.13266 1.57748 0
M  V30 13341 O 1267.59 0.195568 1.93514 0
M  V30 13342 C 1267.87 3.51257 0.793142 0
M  V30 13343 C 1267.72 4.47942 -0.408409 0
M  V30 13344 C 1269.04 4.08365 1.64091 0
M  V30 13345 H 1266.16 0.724141 0.137073 0
M  V30 13346 H 1268.8 1.8683 -0.345619 0
M  V30 13347 H 1266.95 3.61917 1.4124 0
M  V30 13348 H 1268.62 4.49265 -1.04682 0
M  V30 13349 H 1266.87 4.20854 -1.05189 0
M  V30 13350 H 1267.54 5.51946 -0.0768531 0
M  V30 13351 H 1270.01 4.00794 1.1182 0
M  V30 13352 H 1268.89 5.1504 1.89802 0
M  V30 13353 H 1269.15 3.56687 2.61202 0
M  V30 13354 N 1268.21 -0.0283989 1.57574 0
M  V30 13355 C 1269.17 -1.01346 2.05576 0
M  V30 13356 C 1270.17 -1.28999 0.960001 0
M  V30 13357 O 1271.36 -1.23991 1.2236 0
M  V30 13358 C 1268.49 -2.34611 2.47327 0
M  V30 13359 H 1269.69 -0.598809 2.93861 0
M  V30 13360 H 1267.24 -0.27524 1.53857 0
M  V30 13361 H 1267.98 -2.80823 1.622 0
M  V30 13362 H 1267.76 -2.1587 3.27326 0
M  V30 13363 H 1269.25 -3.05332 2.84889 0
M  V30 13364 N 1269.69 -1.54705 -0.300681 0
M  V30 13365 C 1270.94 -1.73211 -1.03349 0
M  V30 13366 C 1271.25 -0.52518 -1.88418 0
M  V30 13367 O 1272.46 -0.592049 -2.64966 0
M  V30 13368 C 1270.91 -3.06453 -1.88717 0
M  V30 13369 C 1270.52 -4.34625 -1.0865 0
M  V30 13370 C 1272.26 -3.34317 -2.61595 0
M  V30 13371 C 1270.17 -5.58919 -1.93297 0
M  V30 13372 H 1269.1 -0.64556 -0.389574 0
M  V30 13373 H 1271.75 -1.81186 -0.290472 0
M  V30 13374 H 1270.13 -2.92443 -2.67008 0
M  V30 13375 H 1271.31 -4.59471 -0.349707 0
M  V30 13376 H 1269.62 -4.13699 -0.473521 0
M  V30 13377 H 1272.22 -4.2438 -3.25278 0
M  V30 13378 H 1272.56 -2.53207 -3.30442 0
M  V30 13379 H 1273.1 -3.493 -1.90354 0
M  V30 13380 H 1269.83 -6.42697 -1.2892 0
M  V30 13381 H 1269.35 -5.38258 -2.64647 0
M  V30 13382 H 1271.03 -5.96187 -2.51336 0
M  V30 13383 N 1271.17 0.563888 -1.47167 0
M  V30 13384 C 1272.1 1.68137 -1.62025 0
M  V30 13385 C 1273.08 1.63481 -0.469899 0
M  V30 13386 O 1274.26 1.81206 -0.698432 0
M  V30 13387 C 1271.39 3.06779 -1.62801 0
M  V30 13388 C 1270.35 3.26278 -2.76996 0
M  V30 13389 C 1269.67 4.65638 -2.62841 0
M  V30 13390 C 1270.97 3.12295 -4.18651 0
M  V30 13391 H 1272.67 1.55958 -2.55573 0
M  V30 13392 H 1270.21 0.74887 -1.22996 0
M  V30 13393 H 1272.17 3.84795 -1.71787 0
M  V30 13394 H 1270.89 3.19901 -0.658097 0
M  V30 13395 H 1269.55 2.50668 -2.67509 0
M  V30 13396 H 1269.2 4.75551 -1.63892 0
M  V30 13397 H 1268.9 4.79635 -3.39447 0
M  V30 13398 H 1270.42 5.45798 -2.73746 0
M  V30 13399 H 1271.83 3.80136 -4.2915 0
M  V30 13400 H 1270.23 3.37805 -4.95992 0
M  V30 13401 H 1271.3 2.09126 -4.37486 0
M  V30 13402 N 1272.64 1.35187 0.810078 0
M  V30 13403 C 1273.89 1.28454 1.56931 0
M  V30 13404 C 1274.22 -0.141747 1.93682 0
M  V30 13405 O 1273.5 -1.09028 1.61069 0
M  V30 13406 C 1273.78 2.18771 2.86027 0
M  V30 13407 C 1273.63 3.69999 2.55774 0
M  V30 13408 C 1274.95 2.08265 3.87703 0
M  V30 13409 H 1272.07 0.467959 0.569371 0
M  V30 13410 H 1274.71 1.65556 0.932262 0
M  V30 13411 H 1272.86 1.8726 3.40391 0
M  V30 13412 H 1274.54 4.11936 2.07621 0
M  V30 13413 H 1272.78 3.90453 1.89021 0
M  V30 13414 H 1273.45 4.28577 3.47888 0
M  V30 13415 H 1275.93 2.35958 3.42729 0
M  V30 13416 H 1274.8 2.73663 4.75815 0
M  V30 13417 H 1275.06 1.06352 4.29117 0
M  V30 13418 N 1274.12 -1.03182 1.19127 0
M  V30 13419 C 1275.03 -2.14875 0.94159 0
M  V30 13420 C 1276.05 -1.73727 -0.0973872 0
M  V30 13421 O 1277.22 -2.01214 0.0865775 0
M  V30 13422 C 1274.29 -3.43356 0.480366 0
M  V30 13423 C 1273.35 -3.98835 1.58838 0
M  V30 13424 C 1272.58 -5.21183 1.14907 0
M  V30 13425 O 1272.81 -5.70399 0.0114141 0
M  V30 13426 O 1271.74 -5.69423 1.95042 0
M  V30 13427 H 1275.57 -2.38799 1.8764 0
M  V30 13428 H 1273.15 -1.13299 0.973841 0
M  V30 13429 H 1275.03 -4.20763 0.231658 0
M  V30 13430 H 1273.71 -3.20884 -0.426041 0
M  V30 13431 H 1272.62 -3.22776 1.8912 0
M  V30 13432 H 1273.95 -4.25665 2.47123 0
M  V30 13433 N 1275.6 -0.99472 -1.22242 0
M  V30 13434 C 1276.85 -0.670275 -1.90661 0
M  V30 13435 C 1277.17 0.800369 -1.77818 0
M  V30 13436 O 1276.44 1.57381 -1.16653 0
M  V30 13437 H 1275.02 -0.244925 -0.705706 0
M  V30 13438 H 1277.68 -1.26162 -1.48557 0
M  V30 13439 H 1276.78 -0.934408 -2.97784 0
M  V30 13440 N 1277.08 1.37613 -0.768148 0
M  V30 13441 C 1278.33 1.99779 -0.330841 0
M  V30 13442 C 1278.65 1.60978 1.09162 0
M  V30 13443 O 1277.91 0.845778 1.7648 0
M  V30 13444 C 1278.21 3.54952 -0.417608 0
M  V30 13445 C 1277.87 4.13509 -1.7978 0
M  V30 13446 C 1276.54 4.29216 -2.17549 0
M  V30 13447 C 1278.89 4.45662 -2.7025 0
M  V30 13448 C 1276.22 4.74376 -3.45231 0
M  V30 13449 C 1278.57 4.92245 -3.97338 0
M  V30 13450 C 1277.23 5.06157 -4.35157 0
M  V30 13451 H 1276.5 0.731044 -0.121063 0
M  V30 13452 H 1279.15 1.64437 -0.98147 0
M  V30 13453 H 1277.45 3.90519 0.316567 0
M  V30 13454 H 1279.15 4.00954 -0.0606037 0
M  V30 13455 H 1275.74 4.01709 -1.49425 0
M  V30 13456 H 1279.92 4.33116 -2.42332 0
M  V30 13457 H 1275.18 4.83333 -3.74431 0
M  V30 13458 H 1279.35 5.16091 -4.67572 0
M  V30 13459 H 1276.98 5.4091 -5.34154 0
M  V30 13460 N 1278.56 0.518393 1.4883 0
M  V30 13461 C 1279.49 -0.287642 2.27388 0
M  V30 13462 C 1280.5 -0.914974 1.34655 0
M  V30 13463 O 1281.69 -0.795373 1.598 0
M  V30 13464 C 1278.79 -1.42149 3.07647 0
M  V30 13465 C 1277.96 -0.898238 4.28078 0
M  V30 13466 C 1277.02 -1.91179 4.90242 0
M  V30 13467 O 1276.05 -1.47337 5.498 0
M  V30 13468 N 1277.25 -3.24331 4.81445 0
M  V30 13469 H 1280.02 0.386047 2.97203 0
M  V30 13470 H 1277.58 0.352002 1.58027 0
M  V30 13471 H 1279.57 -2.09745 3.46106 0
M  V30 13472 H 1278.14 -1.99903 2.40328 0
M  V30 13473 H 1277.36 -0.0466326 3.94172 0
M  V30 13474 H 1278.65 -0.527338 5.0606 0
M  V30 13475 H 1278.04 -3.62627 4.34187 0
M  V30 13476 H 1276.6 -3.87593 5.24037 0
M  V30 13477 N 1280.03 -1.55556 0.252993 0
M  V30 13478 C 1281 -2.20351 -0.630705 0
M  V30 13479 C 1282 -1.17461 -1.09816 0
M  V30 13480 O 1283.19 -1.42505 -1.00189 0
M  V30 13481 C 1280.32 -2.85192 -1.86757 0
M  V30 13482 H 1281.51 -2.99829 -0.0652939 0
M  V30 13483 H 1279.07 -1.563 0.00347982 0
M  V30 13484 H 1279.8 -2.09669 -2.47406 0
M  V30 13485 H 1279.59 -3.60569 -1.54053 0
M  V30 13486 H 1281.08 -3.34762 -2.49648 0
M  V30 13487 N 1281.51 0.0200419 -1.57587 0
M  V30 13488 C 1282.42 1.0346 -2.10555 0
M  V30 13489 C 1283.44 1.39035 -1.0462 0
M  V30 13490 O 1284.61 1.48172 -1.36407 0
M  V30 13491 C 1281.68 2.31389 -2.58186 0
M  V30 13492 C 1280.74 2.02311 -3.7864 0
M  V30 13493 C 1279.97 3.24141 -4.23991 0
M  V30 13494 O 1280.2 4.35132 -3.68803 0
M  V30 13495 O 1279.13 3.09312 -5.16342 0
M  V30 13496 H 1282.96 0.614419 -2.9742 0
M  V30 13497 H 1280.54 0.237604 -1.47498 0
M  V30 13498 H 1282.42 3.06582 -2.89112 0
M  V30 13499 H 1281.1 2.72684 -1.74428 0
M  V30 13500 H 1280.01 1.24658 -3.5272 0
M  V30 13501 H 1281.34 1.65866 -4.6341 0
M  V30 13502 N 1282.99 1.54862 0.292472 0
M  V30 13503 C 1284.24 1.74203 1.02458 0
M  V30 13504 C 1284.56 0.535398 1.87506 0
M  V30 13505 O 1283.83 -0.450164 1.90658 0
M  V30 13506 H 1282.41 0.642369 0.381276 0
M  V30 13507 H 1285.07 1.92232 0.321398 0
M  V30 13508 H 1284.17 2.63486 1.67277 0
M  V30 13509 N 1284.47 -0.556076 1.47464 0
M  V30 13510 C 1285.75 -1.31689 1.44628 0
M  V30 13511 C 1286.13 -2.10609 0.143841 0
M  V30 13512 O 1285.47 -2.11097 -0.874662 0
M  V30 13513 C 1285.68 -2.22045 2.69253 0
M  V30 13514 C 1287.03 -2.83028 3.16513 0
M  V30 13515 O 1288.06 -2.32346 2.69988 0
M  V30 13516 O 1286.91 -3.75148 3.97399 0
M  V30 13517 H 1284.01 -0.593026 0.576411 0
M  V30 13518 H 1286.55 -0.574885 1.59666 0
M  V30 13519 H 1285.33 -1.63337 3.5558 0
M  V30 13520 H 1284.95 -3.03539 2.56807 0
M  V30 13521 N 1285.95 -1.35615 -0.802897 0
M  V30 13522 C 1286.91 -1.28705 -1.89651 0
M  V30 13523 C 1287.91 -0.197681 -1.5958 0
M  V30 13524 O 1289.1 -0.451618 -1.68244 0
M  V30 13525 C 1286.23 -0.991941 -3.26149 0
M  V30 13526 H 1287.43 -2.25951 -1.97196 0
M  V30 13527 H 1284.98 -1.20192 -0.999179 0
M  V30 13528 H 1285.71 -0.0235051 -3.24291 0
M  V30 13529 H 1285.5 -1.78013 -3.49362 0
M  V30 13530 H 1286.99 -0.969298 -4.06195 0
M  V30 13531 N 1287.43 1.02549 -1.19673 0
M  V30 13532 C 1288.37 2.13015 -0.934209 0
M  V30 13533 C 1289.37 1.69035 0.111208 0
M  V30 13534 O 1290.57 1.79959 -0.0383449 0
M  V30 13535 H 1286.95 0.696015 -0.284722 0
M  V30 13536 H 1288.92 2.32346 -1.87238 0
M  V30 13537 C 1287.67 3.44185 -0.493124 0
M  V30 13538 H 1286.99 3.78447 -1.28911 0
M  V30 13539 H 1288.43 4.22565 -0.348577 0
M  V30 13540 C 1286.89 3.27427 0.793277 0
M  V30 13541 O 1287.42 3.56362 1.85388 0
M  V30 13542 N 1285.63 2.80706 0.751837 0
M  V30 13543 H 1285.17 2.57359 -0.111517 0
M  V30 13544 H 1285.13 2.69874 1.61292 0
M  V30 13545 N 1288.9 1.00119 1.21713 0
M  V30 13546 C 1290.32 0.713343 1.42771 0
M  V30 13547 C 1290.52 -0.712923 1.88467 0
M  V30 13548 O 1289.58 -1.48277 2.04378 0
M  V30 13549 C 1290.89 1.72596 2.46234 0
M  V30 13550 C 1292.44 1.74235 2.60022 0
M  V30 13551 C 1292.91 2.74382 3.66713 0
M  V30 13552 N 1294.4 2.73027 3.7418 0
M  V30 13553 C 1295.14 3.47178 4.56349 0
M  V30 13554 N 1294.63 4.30958 5.42446 0
M  V30 13555 N 1296.43 3.35846 4.50737 0
M  V30 13556 H 1288.58 1.9222 0.903611 0
M  V30 13557 H 1290.84 0.829466 0.459011 0
M  V30 13558 H 1290.55 2.74699 2.19621 0
M  V30 13559 H 1290.42 1.52553 3.44975 0
M  V30 13560 H 1292.81 0.728261 2.85973 0
M  V30 13561 H 1292.89 1.98349 1.61528 0
M  V30 13562 H 1292.53 3.75945 3.41508 0
M  V30 13563 H 1292.46 2.47534 4.64795 0
M  V30 13564 H 1294.95 2.12242 3.12669 0
M  V30 13565 H 1295.27 4.84344 6.02189 0
M  V30 13566 H 1293.61 4.35042 5.42 0
M  V30 13567 H 1296.8 2.6983 3.82504 0
M  V30 13568 H 1296.98 3.93892 5.14541 0
M  V30 13569 N 1290.38 -1.37203 0.775435 0
M  V30 13570 C 1291.61 -2.04396 0.351737 0
M  V30 13571 C 1292.03 -1.58099 -1.01913 0
M  V30 13572 O 1291.39 -0.742932 -1.65379 0
M  V30 13573 C 1291.44 -3.58283 0.408105 0
M  V30 13574 O 1290.54 -4.08156 -0.590104 0
M  V30 13575 H 1289.88 -0.646451 0.151647 0
M  V30 13576 H 1292.41 -1.75443 1.05265 0
M  V30 13577 H 1292.42 -4.07127 0.266711 0
M  V30 13578 H 1291.1 -3.91335 1.40819 0
M  V30 13579 H 1289.67 -3.70622 -0.411524 0
M  V30 13580 N 1291.86 -0.526279 -1.48553 0
M  V30 13581 C 1293.09 0.00522012 -2.06599 0
M  V30 13582 C 1293.5 1.29039 -1.38368 0
M  V30 13583 O 1292.84 1.77747 -0.463854 0
M  V30 13584 C 1292.9 0.303512 -3.58216 0
M  V30 13585 C 1292.57 -0.887635 -4.48297 0
M  V30 13586 C 1293.56 -1.78504 -4.88295 0
M  V30 13587 C 1291.25 -1.09359 -4.90251 0
M  V30 13588 C 1293.24 -2.87233 -5.69013 0
M  V30 13589 C 1290.93 -2.18402 -5.7074 0
M  V30 13590 C 1291.93 -3.07172 -6.10028 0
M  V30 13591 O 1291.62 -4.14329 -6.88902 0
M  V30 13592 H 1291.35 -0.0287033 -0.67539 0
M  V30 13593 H 1293.9 -0.730244 -1.91981 0
M  V30 13594 H 1292.13 1.0929 -3.70935 0
M  V30 13595 H 1293.82 0.776647 -3.98401 0
M  V30 13596 H 1294.59 -1.63785 -4.56508 0
M  V30 13597 H 1290.47 -0.411922 -4.59156 0
M  V30 13598 H 1294.01 -3.56549 -5.99599 0
M  V30 13599 H 1289.91 -2.33106 -6.0194 0
M  V30 13600 H 1290.67 -4.11993 -7.07251 0
M  V30 13601 N 1293.34 1.5542 -0.261239 0
M  V30 13602 C 1294.56 2.04142 0.366144 0
M  V30 13603 C 1294.99 1.13884 1.49706 0
M  V30 13604 O 1294.35 0.134629 1.80799 0
M  V30 13605 C 1294.39 3.50733 0.837774 0
M  V30 13606 O 1293.5 3.63588 1.94621 0
M  V30 13607 H 1292.84 0.659424 0.077821 0
M  V30 13608 H 1295.37 2.0082 -0.391487 0
M  V30 13609 H 1295.38 3.91831 1.13721 0
M  V30 13610 H 1294.05 4.15899 0.0102742 0
M  V30 13611 H 1292.63 3.34391 1.65037 0
M  V30 13612 N 1294.82 -0.0116844 1.57596 0
M  V30 13613 C 1296.09 -0.735344 1.81251 0
M  V30 13614 C 1296.47 -1.92634 0.863446 0
M  V30 13615 O 1295.82 -2.28321 -0.0905028 0
M  V30 13616 C 1296.03 -1.15206 3.29437 0
M  V30 13617 C 1297.38 -1.56078 3.94873 0
M  V30 13618 O 1298.4 -1.24618 3.3369 0
M  V30 13619 O 1297.26 -2.14534 5.0263 0
M  V30 13620 H 1294.36 -0.357044 0.745955 0
M  V30 13621 H 1296.9 0.0128733 1.69695 0
M  V30 13622 H 1295.67 -0.302619 3.90128 0
M  V30 13623 H 1295.3 -1.95975 3.45947 0
M  V30 13624 N 1296.29 -1.55015 -0.284256 0
M  V30 13625 C 1297.2 -1.90203 -1.37332 0
M  V30 13626 C 1298.22 -0.797994 -1.54622 0
M  V30 13627 O 1299.4 -1.09602 -1.68965 0
M  V30 13628 C 1296.46 -2.15687 -2.71441 0
M  V30 13629 C 1295.52 -3.39313 -2.62993 0
M  V30 13630 C 1294.75 -3.63571 -3.90707 0
M  V30 13631 O 1294.98 -2.90538 -4.9086 0
M  V30 13632 O 1293.91 -4.57102 -3.91589 0
M  V30 13633 H 1297.74 -2.82888 -1.1049 0
M  V30 13634 H 1295.32 -1.41418 -0.481798 0
M  V30 13635 H 1297.2 -2.33553 -3.50758 0
M  V30 13636 H 1295.88 -1.26185 -2.98092 0
M  V30 13637 H 1294.79 -3.26793 -1.82091 0
M  V30 13638 H 1296.12 -4.28997 -2.41293 0
M  V30 13639 N 1297.77 0.548248 -1.47757 0
M  V30 13640 C 1299.05 1.3092 -1.45325 0
M  V30 13641 C 1299.43 2.1053 -0.155008 0
M  V30 13642 O 1298.78 2.11558 0.863455 0
M  V30 13643 C 1298.99 2.20614 -2.70426 0
M  V30 13644 C 1300.33 2.81345 -3.18009 0
M  V30 13645 O 1301.36 2.30911 -2.71216 0
M  V30 13646 O 1300.22 3.73036 -3.99383 0
M  V30 13647 H 1297.31 0.58996 -0.579548 0
M  V30 13648 H 1299.86 0.56641 -1.59968 0
M  V30 13649 H 1298.63 1.61449 -3.56441 0
M  V30 13650 H 1298.25 3.02173 -2.58413 0
M  V30 13651 N 1299.25 1.36039 0.795694 0
M  V30 13652 C 1300.18 1.25713 1.91648 0
M  V30 13653 C 1301.19 0.177993 1.61824 0
M  V30 13654 O 1302.38 0.432186 1.73189 0
M  V30 13655 C 1299.48 0.915546 3.26299 0
M  V30 13656 C 1298.66 2.09528 3.83949 0
M  V30 13657 C 1297.72 1.72775 4.97026 0
M  V30 13658 O 1296.74 2.44786 5.13876 0
M  V30 13659 N 1297.94 0.65775 5.76762 0
M  V30 13660 H 1300.71 2.22277 2.01029 0
M  V30 13661 H 1298.27 1.2935 0.973657 0
M  V30 13662 H 1300.26 0.650958 3.9943 0
M  V30 13663 H 1298.83 0.0392343 3.12575 0
M  V30 13664 H 1298.05 2.52304 3.0288 0
M  V30 13665 H 1299.34 2.88361 4.19196 0
M  V30 13666 H 1298.74 0.0596875 5.65669 0
M  V30 13667 H 1297.29 0.45297 6.50224 0
M  V30 13668 N 1300.73 -1.01913 1.20215 0
M  V30 13669 C 1301.95 -1.79613 1.03702 0
M  V30 13670 C 1302.38 -1.83591 -0.409374 0
M  V30 13671 O 1301.74 -1.26911 -1.29473 0
M  V30 13672 C 1301.78 -3.22052 1.62219 0
M  V30 13673 O 1300.89 -4.03374 0.858106 0
M  V30 13674 H 1300.23 -0.554095 0.365889 0
M  V30 13675 H 1302.76 -1.28203 1.59452 0
M  V30 13676 H 1302.77 -3.72772 1.65847 0
M  V30 13677 H 1301.44 -3.18471 2.67487 0
M  V30 13678 H 1300.02 -3.6198 0.895835 0
M  V30 13679 N 1302.21 -1.00763 -1.2118 0
M  V30 13680 C 1303.43 -0.710515 -1.9485 0
M  V30 13681 C 1303.86 0.720934 -1.73736 0
M  V30 13682 O 1303.21 1.49484 -1.02588 0
M  V30 13683 C 1303.26 -1.04035 -3.45267 0
M  V30 13684 O 1302.37 -0.147047 -4.12138 0
M  V30 13685 H 1301.71 -0.264472 -0.609057 0
M  V30 13686 H 1304.24 -1.34858 -1.53865 0
M  V30 13687 H 1304.25 -0.9883 -3.95849 0
M  V30 13688 H 1302.92 -2.08334 -3.59958 0
M  V30 13689 H 1301.5 -0.255847 -3.72021 0
M  V30 13690 N 1303.68 1.3679 -0.7827 0
M  V30 13691 C 1304.91 2.04206 -0.362571 0
M  V30 13692 C 1305.33 1.58637 1.01074 0
M  V30 13693 O 1304.69 0.751692 1.64983 0
M  V30 13694 C 1304.74 3.58062 -0.4271 0
M  V30 13695 O 1303.84 4.08463 0.56845 0
M  V30 13696 H 1303.19 0.645638 -0.155073 0
M  V30 13697 H 1305.72 1.74883 -1.06194 0
M  V30 13698 H 1305.73 4.0698 -0.288298 0
M  V30 13699 H 1304.4 3.90582 -1.42893 0
M  V30 13700 H 1302.98 3.70835 0.391863 0
M  V30 13701 N 1305.16 0.53415 1.48272 0
M  V30 13702 C 1306.11 -0.239672 2.31362 0
M  V30 13703 C 1307.1 -0.931501 1.4149 0
M  V30 13704 O 1308.31 -0.855411 1.58375 0
M  V30 13705 H 1304.69 -0.09616 0.745827 0
M  V30 13706 H 1306.66 0.480638 2.94504 0
M  V30 13707 C 1305.41 -1.27102 3.23636 0
M  V30 13708 H 1304.73 -0.748082 3.92739 0
M  V30 13709 H 1306.17 -1.78379 3.84652 0
M  V30 13710 C 1304.63 -2.30683 2.45534 0
M  V30 13711 O 1305.16 -3.37197 2.18314 0
M  V30 13712 N 1303.36 -2.04006 2.06954 0
M  V30 13713 H 1302.91 -1.17403 2.29291 0
M  V30 13714 H 1302.87 -2.73531 1.5501 0
M  V30 13715 N 1306.64 -1.55279 0.269478 0
M  V30 13716 C 1307.89 -1.98649 -0.349522 0
M  V30 13717 C 1308.2 -1.16125 -1.57399 0
M  V30 13718 O 1309.41 -1.49612 -2.26558 0
M  V30 13719 C 1307.86 -3.53547 -0.673224 0
M  V30 13720 C 1307.47 -4.44841 0.531119 0
M  V30 13721 C 1309.22 -4.05519 -1.25516 0
M  V30 13722 C 1307.12 -5.91119 0.182317 0
M  V30 13723 H 1306.05 -0.74193 -0.13437 0
M  V30 13724 H 1308.7 -1.79664 0.373246 0
M  V30 13725 H 1307.09 -3.68311 -1.45474 0
M  V30 13726 H 1308.26 -4.41843 1.3081 0
M  V30 13727 H 1306.58 -4.03472 1.02952 0
M  V30 13728 H 1309.17 -5.12347 -1.52984 0
M  V30 13729 H 1309.52 -3.54215 -2.18718 0
M  V30 13730 H 1310.05 -3.94172 -0.536059 0
M  V30 13731 H 1306.79 -6.46507 1.08206 0
M  V30 13732 H 1306.31 -5.97199 -0.558008 0
M  V30 13733 H 1307.99 -6.466 -0.227484 0
M  V30 13734 N 1308.12 0.00332656 -1.576 0
M  V30 13735 C 1309.03 1.01221 -2.1164 0
M  V30 13736 C 1310.04 1.37918 -1.06088 0
M  V30 13737 O 1311.22 1.46717 -1.37971 0
M  V30 13738 C 1308.29 2.28638 -2.60626 0
M  V30 13739 C 1307.35 1.98284 -3.80765 0
M  V30 13740 C 1306.58 3.19626 -4.27405 0
M  V30 13741 O 1306.8 4.31196 -3.73398 0
M  V30 13742 O 1305.74 3.03819 -5.19594 0
M  V30 13743 H 1309.56 0.582839 -2.98055 0
M  V30 13744 H 1307.15 0.221947 -1.47742 0
M  V30 13745 H 1309.03 3.03498 -2.92347 0
M  V30 13746 H 1307.7 2.70819 -1.7731 0
M  V30 13747 H 1306.61 1.2091 -3.54022 0
M  V30 13748 H 1307.94 1.60942 -4.65144 0
M  V30 13749 N 1309.6 1.55164 0.276031 0
M  V30 13750 C 1310.51 1.90928 1.36321 0
M  V30 13751 C 1311.52 0.806183 1.54197 0
M  V30 13752 O 1312.7 1.10497 1.68382 0
M  V30 13753 C 1309.76 2.17123 2.70293 0
M  V30 13754 C 1308.82 3.40703 2.6119 0
M  V30 13755 C 1308.06 3.65638 3.88773 0
M  V30 13756 O 1308.28 2.93137 4.89313 0
M  V30 13757 O 1307.21 4.59172 3.89159 0
M  V30 13758 H 1311.04 2.8347 1.08988 0
M  V30 13759 H 1308.63 1.41672 0.474292 0
M  V30 13760 H 1310.51 2.3541 3.49514 0
M  V30 13761 H 1309.18 1.27765 2.97419 0
M  V30 13762 H 1308.09 3.27754 1.80355 0
M  V30 13763 H 1309.42 4.30271 2.39014 0
M  V30 13764 N 1311.07 -0.540404 1.48045 0
M  V30 13765 C 1312.32 -1.29678 1.55531 0
M  V30 13766 C 1312.65 -1.93197 0.224725 0
M  V30 13767 O 1311.9 -1.79308 -0.784028 0
M  V30 13768 C 1312.2 -2.41517 2.63447 0
M  V30 13769 C 1311.87 -1.95719 4.06208 0
M  V30 13770 C 1310.53 -1.82946 4.45067 0
M  V30 13771 C 1312.88 -1.6098 4.95717 0
M  V30 13772 C 1310.21 -1.33753 5.7125 0
M  V30 13773 C 1312.56 -1.13253 6.2238 0
M  V30 13774 C 1311.23 -0.990886 6.60104 0
M  V30 13775 H 1310.5 -0.474525 0.569129 0
M  V30 13776 H 1313.14 -0.604209 1.81718 0
M  V30 13777 H 1311.45 -3.16401 2.3108 0
M  V30 13778 H 1313.15 -2.9967 2.66457 0
M  V30 13779 H 1309.74 -2.06609 3.75514 0
M  V30 13780 H 1313.92 -1.69713 4.66381 0
M  V30 13781 H 1309.18 -1.21465 5.99213 0
M  V30 13782 H 1313.35 -0.854401 6.91139 0
M  V30 13783 H 1310.98 -0.607497 7.57769 0
M  V30 13784 N 1312.55 -1.36459 -0.788468 0
M  V30 13785 C 1313.83 -1.21289 -1.53455 0
M  V30 13786 C 1314.21 0.200549 -2.10145 0
M  V30 13787 O 1313.56 1.20629 -1.94064 0
M  V30 13788 C 1313.77 -2.29562 -2.62873 0
M  V30 13789 C 1315.12 -2.66277 -3.30729 0
M  V30 13790 O 1316.14 -2.28612 -2.73157 0
M  V30 13791 O 1315 -3.31106 -4.34777 0
M  V30 13792 H 1312.09 -0.472306 -0.678864 0
M  V30 13793 H 1314.64 -1.48192 -0.826869 0
M  V30 13794 H 1313.41 -3.24286 -2.18984 0
M  V30 13795 H 1313.03 -2.0403 -3.41259 0
M  V30 13796 N 1314.03 1.01274 -1.20754 0
M  V30 13797 C 1314.98 2.09894 -0.959852 0
M  V30 13798 C 1315.95 1.65726 0.111351 0
M  V30 13799 O 1317.13 1.90769 -0.0341721 0
M  V30 13800 C 1314.27 3.41126 -0.52223 0
M  V30 13801 C 1313.39 3.98749 -1.66202 0
M  V30 13802 C 1312.52 5.18057 -1.17432 0
M  V30 13803 C 1311.56 5.67772 -2.28694 0
M  V30 13804 N 1310.7 6.78338 -1.81114 0
M  V30 13805 H 1315.54 2.30416 -1.88977 0
M  V30 13806 H 1313.07 1.12989 -0.941906 0
M  V30 13807 H 1315.03 4.16451 -0.249799 0
M  V30 13808 H 1313.66 3.20665 0.370688 0
M  V30 13809 H 1312.71 3.20483 -2.04927 0
M  V30 13810 H 1314.03 4.31646 -2.49967 0
M  V30 13811 H 1313.18 6.00601 -0.858086 0
M  V30 13812 H 1311.92 4.86735 -0.306614 0
M  V30 13813 H 1310.92 4.8383 -2.61129 0
M  V30 13814 H 1312.15 6.01127 -3.15948 0
M  V30 13815 H 1310.09 6.48837 -0.966761 0
M  V30 13816 H 1310.01 7.10448 -2.58457 0
M  V30 13817 H 1311.28 7.64437 -1.52502 0
M  V30 13818 N 1315.51 1.01404 1.20644 0
M  V30 13819 C 1316.44 0.602465 2.25594 0
M  V30 13820 C 1317.42 -0.381216 1.65773 0
M  V30 13821 O 1318.61 -0.267209 1.92353 0
M  V30 13822 C 1315.74 -0.0626245 3.47244 0
M  V30 13823 C 1314.69 0.841776 4.1964 0
M  V30 13824 C 1314.02 0.0426002 5.34683 0
M  V30 13825 C 1315.32 2.14864 4.76058 0
M  V30 13826 H 1317.01 1.47977 2.60275 0
M  V30 13827 H 1314.56 0.712966 1.25111 0
M  V30 13828 H 1316.51 -0.362095 4.19841 0
M  V30 13829 H 1315.23 -0.974627 3.11719 0
M  V30 13830 H 1313.89 1.12521 3.48905 0
M  V30 13831 H 1313.54 -0.870973 4.95402 0
M  V30 13832 H 1313.24 0.644866 5.84051 0
M  V30 13833 H 1314.76 -0.250476 6.10086 0
M  V30 13834 H 1316.18 1.9117 5.40488 0
M  V30 13835 H 1314.57 2.70153 5.35852 0
M  V30 13836 H 1315.64 2.81336 3.9494 0
M  V30 13837 N 1316.99 -1.36373 0.789944 0
M  V30 13838 C 1317.92 -2.2873 0.146642 0
M  V30 13839 C 1318.93 -1.49503 -0.644419 0
M  V30 13840 O 1320.12 -1.71939 -0.479515 0
M  V30 13841 C 1317.22 -3.28945 -0.815369 0
M  V30 13842 C 1316.39 -4.37337 -0.0742515 0
M  V30 13843 C 1315.45 -5.17511 -0.952284 0
M  V30 13844 O 1314.48 -5.67726 -0.409336 0
M  V30 13845 N 1315.68 -5.34001 -2.27648 0
M  V30 13846 H 1318.45 -2.84578 0.939978 0
M  V30 13847 H 1316.01 -1.48545 0.643898 0
M  V30 13848 H 1318 -3.79469 -1.40661 0
M  V30 13849 H 1316.57 -2.73734 -1.50958 0
M  V30 13850 H 1315.79 -3.8797 0.698068 0
M  V30 13851 H 1317.08 -5.06919 0.437148 0
M  V30 13852 H 1316.48 -4.94819 -2.74173 0
M  V30 13853 H 1315.03 -5.87766 -2.81735 0
M  V30 13854 N 1318.47 -0.542005 -1.47987 0
M  V30 13855 C 1319.38 0.217677 -2.33588 0
M  V30 13856 C 1320.39 0.927093 -1.47245 0
M  V30 13857 O 1321.57 0.899378 -1.80203 0
M  V30 13858 C 1318.63 1.24376 -3.23622 0
M  V30 13859 C 1317.69 0.543407 -4.25847 0
M  V30 13860 C 1316.93 1.5206 -5.11579 0
M  V30 13861 O 1317.15 2.75425 -4.99497 0
M  V30 13862 O 1316.08 1.05341 -5.9261 0
M  V30 13863 H 1319.91 -0.484089 -2.99817 0
M  V30 13864 H 1317.49 -0.302783 -1.463 0
M  V30 13865 H 1319.38 1.83644 -3.7928 0
M  V30 13866 H 1318.05 1.92772 -2.6004 0
M  V30 13867 H 1316.96 -0.090074 -3.73992 0
M  V30 13868 H 1318.29 -0.0988264 -4.92101 0
M  V30 13869 N 1319.94 1.55134 -0.277709 0
M  V30 13870 C 1321.19 1.99259 0.337662 0
M  V30 13871 C 1321.51 1.16755 1.56183 0
M  V30 13872 O 1320.78 0.257707 1.94198 0
M  V30 13873 H 1319.36 0.735995 0.127751 0
M  V30 13874 H 1322.02 1.91087 -0.383646 0
M  V30 13875 H 1321.12 3.05763 0.625747 0
M  V30 13876 N 1321.42 0.00503138 1.57599 0
M  V30 13877 C 1322.35 -0.983586 2.11773 0
M  V30 13878 C 1323.33 -1.35518 1.02805 0
M  V30 13879 O 1324.52 -1.43804 1.30514 0
M  V30 13880 C 1321.65 -2.27383 2.62515 0
M  V30 13881 C 1320.6 -2.0437 3.76054 0
M  V30 13882 C 1319.93 -3.39451 4.1313 0
M  V30 13883 C 1321.23 -1.40223 5.03125 0
M  V30 13884 H 1322.92 -0.532501 2.94627 0
M  V30 13885 H 1320.47 -0.254696 1.4173 0
M  V30 13886 H 1322.42 -2.96903 2.99043 0
M  V30 13887 H 1321.14 -2.74614 1.7679 0
M  V30 13888 H 1319.8 -1.37275 3.39928 0
M  V30 13889 H 1319.45 -3.84395 3.24422 0
M  V30 13890 H 1319.15 -3.24868 4.89627 0
M  V30 13891 H 1320.68 -4.10279 4.52221 0
M  V30 13892 H 1322.09 -1.99708 5.37392 0
M  V30 13893 H 1320.49 -1.36112 5.8446 0
M  V30 13894 H 1321.56 -0.372073 4.8347 0
M  V30 13895 N 1322.9 -1.55308 -0.267798 0
M  V30 13896 C 1324.18 -1.66881 -1.02029 0
M  V30 13897 C 1324.56 -0.538708 -2.04111 0
M  V30 13898 O 1323.9 0.460575 -2.2381 0
M  V30 13899 C 1324.11 -3.06318 -1.67243 0
M  V30 13900 C 1325.46 -3.64237 -2.18212 0
M  V30 13901 O 1326.49 -3.08984 -1.77221 0
M  V30 13902 O 1325.35 -4.61055 -2.93413 0
M  V30 13903 H 1322.44 -0.677967 -0.473593 0
M  V30 13904 H 1324.99 -1.67646 -0.263242 0
M  V30 13905 H 1323.76 -3.80015 -0.932985 0
M  V30 13906 H 1323.38 -3.09475 -2.49622 0
M  V30 13907 N 1324.38 0.532545 -1.4833 0
M  V30 13908 C 1325.6 1.31809 -1.60129 0
M  V30 13909 C 1326.03 1.86283 -0.260807 0
M  V30 13910 O 1325.39 1.6427 0.767137 0
M  V30 13911 C 1325.43 2.44661 -2.64903 0
M  V30 13912 O 1324.54 3.47622 -2.21885 0
M  V30 13913 H 1323.88 0.390492 -0.53704 0
M  V30 13914 H 1326.41 0.641068 -1.94297 0
M  V30 13915 H 1326.42 2.90883 -2.86096 0
M  V30 13916 H 1325.09 2.04373 -3.62222 0
M  V30 13917 H 1323.67 3.07536 -2.10894 0
M  V30 13918 N 1325.86 1.36875 0.78122 0
M  V30 13919 C 1327.08 1.349 1.57533 0
M  V30 13920 C 1327.51 -0.0655249 1.87986 0
M  V30 13921 O 1326.86 -1.03986 1.48515 0
M  V30 13922 C 1326.91 2.18562 2.86815 0
M  V30 13923 O 1326.02 1.58374 3.80777 0
M  V30 13924 H 1325.36 0.461355 0.477543 0
M  V30 13925 H 1327.89 1.80271 0.96766 0
M  V30 13926 H 1327.9 2.31436 3.36008 0
M  V30 13927 H 1326.57 3.21385 2.63978 0
M  V30 13928 H 1325.15 1.54487 3.39394 0
M  V30 13929 N 1327.33 -1.00632 1.21289 0
M  V30 13930 C 1328.58 -1.74044 1.02728 0
M  V30 13931 C 1328.9 -1.89963 -0.440351 0
M  V30 13932 O 1328.17 -1.44958 -1.31772 0
M  V30 13933 H 1326.75 -0.644813 0.377127 0
M  V30 13934 H 1329.41 -1.21272 1.52575 0
M  V30 13935 H 1328.51 -2.74011 1.49413 0
M  V30 13936 N 1328.81 -1.02043 -1.20104 0
M  V30 13937 C 1330.09 -0.626922 -1.85281 0
M  V30 13938 C 1330.47 0.894819 -1.91197 0
M  V30 13939 O 1329.82 1.7881 -1.42265 0
M  V30 13940 C 1330.03 -1.27917 -3.24713 0
M  V30 13941 C 1331.37 -1.39704 -4.00959 0
M  V30 13942 O 1332.4 -1.23568 -3.3408 0
M  V30 13943 O 1331.26 -1.65814 -5.20738 0
M  V30 13944 H 1328.35 -0.216815 -0.798073 0
M  V30 13945 H 1330.9 -1.11804 -1.27663 0
M  V30 13946 H 1329.67 -2.3188 -3.15194 0
M  V30 13947 H 1329.29 -0.775371 -3.89966 0
M  V30 13948 N 1330.29 1.35952 -0.797165 0
M  V30 13949 C 1331.7 1.81554 -0.435311 0
M  V30 13950 C 1332.05 1.66266 1.04164 0
M  V30 13951 O 1331.18 1.18796 1.80877 0
M  V30 13952 C 1331.77 3.29619 -0.783358 0
M  V30 13953 C 1330.33 3.73401 -0.47423 0
M  V30 13954 C 1329.48 2.58098 -1.01394 0
M  V30 13955 H 1332.43 1.24064 -0.989638 0
M  V30 13956 H 1332.45 3.80421 -0.0773381 0
M  V30 13957 H 1331.96 3.40715 -1.85836 0
M  V30 13958 H 1330.06 3.6786 0.592418 0
M  V30 13959 H 1330.18 4.68542 -1.00026 0
M  V30 13960 H 1328.54 2.50927 -0.436747 0
M  V30 13961 H 1329.32 2.71976 -2.09485 0
M  V30 13962 N 1331.77 0.549846 1.47697 0
M  V30 13963 C 1332.72 -0.201961 2.29915 0
M  V30 13964 C 1333.69 -0.915287 1.38606 0
M  V30 13965 O 1334.87 -0.912427 1.67569 0
M  V30 13966 C 1332.01 -1.2306 3.22413 0
M  V30 13967 C 1331.12 -0.524091 4.28809 0
M  V30 13968 C 1330.26 -1.53738 5.08466 0
M  V30 13969 C 1329.3 -0.815437 6.06644 0
M  V30 13970 N 1328.43 -1.77521 6.79287 0
M  V30 13971 H 1333.27 0.505289 2.93685 0
M  V30 13972 H 1330.81 0.261012 1.44766 0
M  V30 13973 H 1332.77 -1.83949 3.74458 0
M  V30 13974 H 1331.4 -1.90597 2.60523 0
M  V30 13975 H 1330.45 0.199174 3.79878 0
M  V30 13976 H 1331.76 0.0418145 4.98782 0
M  V30 13977 H 1330.92 -2.22001 5.64624 0
M  V30 13978 H 1329.66 -2.1372 4.38378 0
M  V30 13979 H 1328.66 -0.11884 5.49672 0
M  V30 13980 H 1329.89 -0.221462 6.78739 0
M  V30 13981 H 1327.83 -2.36374 6.11934 0
M  V30 13982 H 1327.75 -1.26126 7.45405 0
M  V30 13983 H 1329.02 -2.44921 7.40023 0
M  V30 13984 N 1333.25 -1.54984 0.285932 0
M  V30 13985 C 1334.18 -2.25916 -0.590259 0
M  V30 13986 C 1335.16 -1.25319 -1.15018 0
M  V30 13987 O 1336.34 -1.54062 -1.18231 0
M  V30 13988 C 1333.47 -2.98849 -1.76936 0
M  V30 13989 C 1332.43 -4.06466 -1.3405 0
M  V30 13990 C 1331.75 -4.67032 -2.60356 0
M  V30 13991 C 1333.05 -5.20064 -0.482754 0
M  V30 13992 H 1334.75 -2.994 0.00131571 0
M  V30 13993 H 1332.29 -1.44 0.00207281 0
M  V30 13994 H 1334.25 -3.47186 -2.3883 0
M  V30 13995 H 1332.97 -2.22918 -2.38694 0
M  V30 13996 H 1331.63 -3.58957 -0.7447 0
M  V30 13997 H 1331.28 -3.87757 -3.20396 0
M  V30 13998 H 1330.98 -5.39703 -2.32368 0
M  V30 13999 H 1332.5 -5.18124 -3.23079 0
M  V30 14000 H 1333.91 -5.64387 -1.00697 0
M  V30 14001 H 1332.31 -5.99363 -0.297291 0
M  V30 14002 H 1333.38 -4.82358 0.495861 0
M  V30 14003 N 1334.72 -0.0133892 -1.57594 0
M  V30 14004 C 1335.96 0.672977 -1.93004 0
M  V30 14005 C 1336.33 1.70188 -0.888816 0
M  V30 14006 O 1337.53 2.4396 -1.12859 0
M  V30 14007 C 1335.8 1.28743 -3.33407 0
M  V30 14008 S 1337.36 1.99706 -3.90721 0
M  V30 14009 H 1334.18 0.221972 -0.675462 0
M  V30 14010 H 1336.78 -0.0732871 -1.95363 0
M  V30 14011 H 1335.48 0.525931 -4.07016 0
M  V30 14012 H 1335.01 2.07134 -3.34454 0
M  V30 14013 H 1337.03 3.27375 -3.72881 0
M  V30 14014 N 1336.2 1.55448 0.259558 0
M  V30 14015 C 1337.61 1.67256 0.8296 0
M  V30 14016 C 1337.96 0.60851 1.86525 0
M  V30 14017 O 1337.09 -0.247563 2.14979 0
M  V30 14018 C 1337.68 3.03213 1.51152 0
M  V30 14019 C 1336.24 3.17004 2.02943 0
M  V30 14020 C 1335.39 2.63096 0.876103 0
M  V30 14021 H 1338.34 1.5866 0.0356218 0
M  V30 14022 H 1338.36 2.96952 2.37906 0
M  V30 14023 H 1337.87 3.80635 0.75752 0
M  V30 14024 H 1335.98 2.44381 2.81263 0
M  V30 14025 H 1336.09 4.23748 2.2355 0
M  V30 14026 H 1334.45 2.20596 1.27317 0
M  V30 14027 H 1335.24 3.43033 0.13539 0
M  V30 14028 N 1337.68 -0.524672 1.4861 0
M  V30 14029 C 1338.93 -1.27671 1.5615 0
M  V30 14030 C 1339.24 -1.94088 0.242709 0
M  V30 14031 O 1340.45 -2.70789 0.196407 0
M  V30 14032 C 1338.9 -2.31686 2.75408 0
M  V30 14033 C 1338.51 -1.71315 4.13951 0
M  V30 14034 C 1340.26 -3.07867 2.92264 0
M  V30 14035 C 1338.16 -2.73302 5.24462 0
M  V30 14036 H 1337.09 -0.480177 0.581332 0
M  V30 14037 H 1339.74 -0.553473 1.74954 0
M  V30 14038 H 1338.13 -3.07069 2.50049 0
M  V30 14039 H 1339.3 -1.02085 4.4935 0
M  V30 14040 H 1337.62 -1.07608 4.02255 0
M  V30 14041 H 1340.21 -3.84088 3.71995 0
M  V30 14042 H 1340.56 -3.64052 2.01921 0
M  V30 14043 H 1341.09 -2.39599 3.17549 0
M  V30 14044 H 1337.83 -2.21929 6.16788 0
M  V30 14045 H 1337.35 -3.40843 4.93544 0
M  V30 14046 H 1339.03 -3.36186 5.528 0
M  V30 14047 N 1339.16 -1.37287 -0.77395 0
M  V30 14048 C 1340.57 -1.28954 -1.3501 0
M  V30 14049 C 1340.92 0.0638301 -1.96096 0
M  V30 14050 O 1340.05 0.965624 -1.93661 0
M  V30 14051 C 1340.64 -2.3352 -2.45467 0
M  V30 14052 C 1339.2 -2.28828 -2.98856 0
M  V30 14053 C 1338.35 -2.17468 -1.72055 0
M  V30 14054 H 1341.3 -1.47941 -0.57438 0
M  V30 14055 H 1341.32 -1.98058 -3.24889 0
M  V30 14056 H 1340.83 -3.32009 -2.00977 0
M  V30 14057 H 1338.93 -1.33855 -3.47726 0
M  V30 14058 H 1339.04 -3.22152 -3.54619 0
M  V30 14059 H 1337.41 -1.63977 -1.94894 0
M  V30 14060 H 1338.19 -3.17868 -1.29672 0
M  V30 14061 N 1340.64 0.999871 -1.21821 0
M  V30 14062 C 1341.57 2.08597 -0.925334 0
M  V30 14063 C 1342.55 1.62087 0.129103 0
M  V30 14064 O 1343.73 1.885 -0.000975316 0
M  V30 14065 C 1340.86 3.36443 -0.390388 0
M  V30 14066 C 1339.9 4.01869 -1.42842 0
M  V30 14067 S 1340.74 4.43618 -2.99938 0
M  V30 14068 C 1341.89 5.74644 -2.48064 0
M  V30 14069 H 1342.13 2.33119 -1.84507 0
M  V30 14070 H 1339.66 1.13339 -1.04851 0
M  V30 14071 H 1341.62 4.10405 -0.0883221 0
M  V30 14072 H 1340.28 3.09963 0.508115 0
M  V30 14073 H 1339.47 4.93902 -1.00385 0
M  V30 14074 H 1339.07 3.34202 -1.67883 0
M  V30 14075 H 1341.37 6.50642 -1.88869 0
M  V30 14076 H 1342.31 6.21919 -3.3856 0
M  V30 14077 H 1342.72 5.31709 -1.89593 0
M  V30 14078 N 1342.11 1.02678 1.19562 0
M  V30 14079 C 1343.34 0.741569 1.93154 0
M  V30 14080 C 1343.76 -0.699292 1.75372 0
M  V30 14081 O 1343.11 -1.47533 1.07426 0
M  V30 14082 C 1343.17 1.08064 3.4497 0
M  V30 14083 O 1342.89 2.46492 3.62179 0
M  V30 14084 C 1344.39 0.817935 4.35689 0
M  V30 14085 H 1341.61 0.271506 0.613617 0
M  V30 14086 H 1344.15 1.3707 1.51763 0
M  V30 14087 H 1342.31 0.496723 3.84202 0
M  V30 14088 H 1342.72 2.59053 4.56061 0
M  V30 14089 H 1344.19 1.10517 5.40823 0
M  V30 14090 H 1344.67 -0.247693 4.38501 0
M  V30 14091 H 1345.28 1.38449 4.02134 0
M  V30 14092 N 1343.59 -1.35528 0.804364 0
M  V30 14093 C 1345 -1.81321 0.444933 0
M  V30 14094 C 1345.35 -1.66816 -1.03281 0
M  V30 14095 O 1344.48 -1.19753 -1.80245 0
M  V30 14096 C 1345.07 -3.29199 0.800827 0
M  V30 14097 C 1343.63 -3.73144 0.494026 0
M  V30 14098 C 1342.78 -2.57557 1.02761 0
M  V30 14099 H 1345.73 -1.23537 0.996203 0
M  V30 14100 H 1345.75 -3.80375 0.0975117 0
M  V30 14101 H 1345.26 -3.39725 1.8764 0
M  V30 14102 H 1343.37 -3.68169 -0.572901 0
M  V30 14103 H 1343.48 -4.68005 1.0251 0
M  V30 14104 H 1341.84 -2.50692 0.450048 0
M  V30 14105 H 1342.63 -2.70861 2.10925 0
M  V30 14106 N 1345.07 -0.557671 -1.47404 0
M  V30 14107 C 1346.02 0.202834 -2.31714 0
M  V30 14108 C 1347.01 0.908873 -1.42954 0
M  V30 14109 O 1348.22 0.830106 -1.59716 0
M  V30 14110 H 1344.59 0.0842824 -0.747262 0
M  V30 14111 H 1346.57 -0.527431 -2.93702 0
M  V30 14112 C 1345.31 1.21937 -3.25617 0
M  V30 14113 H 1344.64 0.685506 -3.93879 0
M  V30 14114 H 1346.08 1.72237 -3.87441 0
M  V30 14115 C 1344.54 2.26748 -2.49173 0
M  V30 14116 O 1345.07 3.33681 -2.23651 0
M  V30 14117 N 1343.27 2.00687 -2.10174 0
M  V30 14118 H 1342.82 1.13741 -2.3113 0
M  V30 14119 H 1342.78 2.71031 -1.59342 0
M  V30 14120 N 1346.55 1.54831 -0.294147 0
M  V30 14121 C 1347.8 1.99606 0.316509 0
M  V30 14122 C 1348.12 1.18405 1.54936 0
M  V30 14123 O 1347.39 0.278289 1.93913 0
M  V30 14124 H 1345.97 0.737309 0.119938 0
M  V30 14125 H 1348.63 1.90669 -0.403891 0
M  V30 14126 H 1347.73 3.06409 0.593282 0
M  V30 14127 N 1348.03 0.0217466 1.57585 0
M  V30 14128 C 1348.98 -0.971557 2.06264 0
M  V30 14129 C 1349.96 -1.29 0.961656 0
M  V30 14130 O 1351.15 -1.27734 1.22527 0
M  V30 14131 C 1348.28 -2.25643 2.58728 0
M  V30 14132 C 1347.37 -1.96668 3.75743 0
M  V30 14133 N 1347.76 -1.37933 4.86629 0
M  V30 14134 C 1346.06 -2.26698 3.84088 0
M  V30 14135 C 1346.76 -1.25923 5.67907 0
M  V30 14136 N 1345.73 -1.75224 5.14585 0
M  V30 14137 H 1349.54 -0.512285 2.89401 0
M  V30 14138 H 1347.05 -0.183446 1.61361 0
M  V30 14139 H 1349.05 -2.97668 2.91889 0
M  V30 14140 H 1347.71 -2.72204 1.77018 0
M  V30 14141 H 1348.72 -1.05529 5.07034 0
M  V30 14142 H 1345.4 -2.75983 3.13272 0
M  V30 14143 H 1346.79 -0.805687 6.67052 0
M  V30 14144 N 1349.51 -1.55583 -0.251311 0
M  V30 14145 C 1350.44 -1.9296 -1.31486 0
M  V30 14146 C 1351.42 -0.794001 -1.50431 0
M  V30 14147 O 1352.6 -1.05393 -1.63113 0
M  V30 14148 C 1349.73 -2.22046 -2.67045 0
M  V30 14149 C 1348.69 -3.37816 -2.62801 0
M  V30 14150 C 1348.01 -3.52433 -4.02113 0
M  V30 14151 C 1349.31 -4.73626 -2.20171 0
M  V30 14152 H 1351.01 -2.82046 -1.00451 0
M  V30 14153 H 1348.55 -1.35702 -0.481775 0
M  V30 14154 H 1350.5 -2.46783 -3.41579 0
M  V30 14155 H 1349.23 -1.29782 -2.99707 0
M  V30 14156 H 1347.89 -3.13081 -1.90724 0
M  V30 14157 H 1347.54 -2.57597 -4.32034 0
M  V30 14158 H 1347.24 -4.30283 -4.00163 0
M  V30 14159 H 1348.76 -3.79486 -4.78354 0
M  V30 14160 H 1350.17 -4.97764 -2.84436 0
M  V30 14161 H 1348.57 -5.54547 -2.29341 0
M  V30 14162 H 1349.64 -4.70985 -1.1533 0
M  V30 14163 N 1350.98 0.516783 -1.48886 0
M  V30 14164 C 1352.26 1.27808 -1.48069 0
M  V30 14165 C 1352.64 2.10154 -0.19963 0
M  V30 14166 O 1351.99 2.13342 0.818386 0
M  V30 14167 C 1352.2 2.14828 -2.75045 0
M  V30 14168 C 1353.55 2.74536 -3.23906 0
M  V30 14169 O 1354.57 2.25107 -2.76053 0
M  V30 14170 O 1353.43 3.6448 -4.07206 0
M  V30 14171 H 1350.52 0.577535 -0.591931 0
M  V30 14172 H 1353.07 0.532351 -1.61134 0
M  V30 14173 H 1351.84 1.53852 -3.59785 0
M  V30 14174 H 1351.46 2.96624 -2.64764 0
M  V30 14175 N 1352.46 1.37696 0.766659 0
M  V30 14176 C 1353.87 1.29668 1.34324 0
M  V30 14177 C 1354.22 -0.0534297 1.96127 0
M  V30 14178 O 1353.35 -0.95534 1.94171 0
M  V30 14179 C 1353.94 2.34818 2.44225 0
M  V30 14180 C 1352.5 2.3041 2.97638 0
M  V30 14181 C 1351.65 2.18378 1.70899 0
M  V30 14182 H 1354.6 1.48244 0.566526 0
M  V30 14183 H 1354.62 1.99778 3.23835 0
M  V30 14184 H 1354.13 3.3307 1.99214 0
M  V30 14185 H 1352.23 1.35698 3.47011 0
M  V30 14186 H 1352.35 3.24028 3.52906 0
M  V30 14187 H 1350.71 1.65008 1.94021 0
M  V30 14188 H 1351.49 3.18551 1.27985 0
M  V30 14189 N 1353.94 -0.993397 1.22349 0
M  V30 14190 C 1355.16 -1.77373 1.07488 0
M  V30 14191 C 1355.59 -1.84418 -0.37034 0
M  V30 14192 O 1354.95 -1.29629 -1.26752 0
M  V30 14193 C 1355 -3.18538 1.69014 0
M  V30 14194 O 1354.1 -4.01463 0.943474 0
M  V30 14195 H 1353.44 -0.546209 0.37756 0
M  V30 14196 H 1355.97 -1.24792 1.62136 0
M  V30 14197 H 1355.98 -3.6917 1.73717 0
M  V30 14198 H 1354.66 -3.12725 2.74182 0
M  V30 14199 H 1353.23 -3.59998 0.972415 0
M  V30 14200 N 1355.42 -1.03311 -1.19015 0
M  V30 14201 C 1356.35 -0.638279 -2.24607 0
M  V30 14202 C 1357.33 0.354795 -1.66359 0
M  V30 14203 O 1358.51 0.236574 -1.92754 0
M  V30 14204 C 1355.64 0.00737316 -3.47299 0
M  V30 14205 C 1354.6 -0.908431 -4.18248 0
M  V30 14206 C 1353.92 -0.127658 -5.34548 0
M  V30 14207 C 1355.22 -2.2241 -4.72579 0
M  V30 14208 H 1356.92 -1.52099 -2.57888 0
M  V30 14209 H 1354.46 -0.732779 -1.23961 0
M  V30 14210 H 1356.42 0.295256 -4.20364 0
M  V30 14211 H 1355.14 0.924912 -3.1323 0
M  V30 14212 H 1353.8 -1.18058 -3.47071 0
M  V30 14213 H 1353.45 0.792048 -4.96725 0
M  V30 14214 H 1353.15 -0.737702 -5.82951 0
M  V30 14215 H 1354.67 0.153385 -6.10407 0
M  V30 14216 H 1356.09 -1.99745 -5.37378 0
M  V30 14217 H 1354.48 -2.78644 -5.31486 0
M  V30 14218 H 1355.55 -2.87584 -3.90415 0
M  V30 14219 N 1356.9 1.35099 -0.81154 0
M  V30 14220 C 1358.31 1.81082 -0.454543 0
M  V30 14221 C 1358.66 1.67361 1.02395 0
M  V30 14222 O 1357.78 1.20707 1.79607 0
M  V30 14223 C 1358.38 3.2877 -0.818274 0
M  V30 14224 C 1356.94 3.72877 -0.513808 0
M  V30 14225 C 1356.08 2.57008 -1.04125 0
M  V30 14226 H 1359.03 1.23007 -1.00274 0
M  V30 14227 H 1359.06 3.80318 -0.117683 0
M  V30 14228 H 1358.57 3.38725 -1.89439 0
M  V30 14229 H 1356.67 3.68468 0.553368 0
M  V30 14230 H 1356.78 4.67455 -1.0499 0
M  V30 14231 H 1355.15 2.5045 -0.463337 0
M  V30 14232 H 1355.93 2.69738 -2.12358 0
M  V30 14233 N 1358.37 0.56548 1.47106 0
M  V30 14234 C 1359.3 -0.16567 2.32912 0
M  V30 14235 C 1360.28 -0.900678 1.44298 0
M  V30 14236 O 1361.47 -0.879523 1.73142 0
M  V30 14237 C 1358.6 -1.19092 3.26243 0
M  V30 14238 C 1357.55 -0.571849 4.24163 0
M  V30 14239 C 1356.88 -1.70233 5.06878 0
M  V30 14240 C 1358.18 0.479785 5.20092 0
M  V30 14241 H 1359.87 0.550705 2.94292 0
M  V30 14242 H 1357.42 0.266284 1.41517 0
M  V30 14243 H 1359.37 -1.71064 3.85117 0
M  V30 14244 H 1358.1 -1.93734 2.62934 0
M  V30 14245 H 1356.76 -0.073353 3.66527 0
M  V30 14246 H 1356.4 -2.438 4.39967 0
M  V30 14247 H 1356.1 -1.29384 5.73178 0
M  V30 14248 H 1357.63 -2.22515 5.68612 0
M  V30 14249 H 1359.04 0.0458042 5.73282 0
M  V30 14250 H 1357.44 0.807615 5.94641 0
M  V30 14251 H 1358.51 1.37259 4.65068 0
M  V30 14252 N 1359.85 -1.54672 0.302354 0
M  V30 14253 C 1361.1 -1.99771 -0.305919 0
M  V30 14254 C 1361.42 -1.19225 -1.54306 0
M  V30 14255 O 1360.69 -0.288569 -1.93763 0
M  V30 14256 H 1359.27 -0.737934 -0.116026 0
M  V30 14257 H 1361.93 -1.90452 0.413997 0
M  V30 14258 H 1361.03 -3.06719 -0.577024 0
M  V30 14259 N 1361.33 -0.0301034 -1.57571 0
M  V30 14260 C 1362.58 0.647042 -1.91462 0
M  V30 14261 C 1362.9 1.72612 -0.907206 0
M  V30 14262 O 1362.17 1.95833 0.0511268 0
M  V30 14263 H 1360.75 0.241988 -0.706718 0
M  V30 14264 H 1363.41 -0.0781385 -1.94743 0
M  V30 14265 H 1362.51 1.09915 -2.92105 0
M  V30 14266 N 1362.81 1.55714 0.243056 0
M  V30 14267 C 1363.76 1.87031 1.30397 0
M  V30 14268 C 1364.74 0.731497 1.43311 0
M  V30 14269 O 1365.93 0.9935 1.46487 0
M  V30 14270 C 1363.06 2.17185 2.65868 0
M  V30 14271 C 1362.15 3.37403 2.56944 0
M  V30 14272 N 1362.54 4.56575 2.17653 0
M  V30 14273 C 1360.84 3.4059 2.87949 0
M  V30 14274 C 1361.54 5.38715 2.19455 0
M  V30 14275 N 1360.52 4.77875 2.59108 0
M  V30 14276 H 1364.32 2.76697 0.990755 0
M  V30 14277 H 1361.83 1.55992 0.451675 0
M  V30 14278 H 1363.83 2.37787 3.42437 0
M  V30 14279 H 1362.49 1.28819 2.98053 0
M  V30 14280 H 1363.5 4.82129 1.89134 0
M  V30 14281 H 1360.18 2.62506 3.24648 0
M  V30 14282 H 1361.57 6.44066 1.91385 0
M  V30 14283 N 1364.29 -0.50888 1.49158 0
M  V30 14284 C 1365.22 -1.62008 1.68154 0
M  V30 14285 C 1366.2 -1.61624 0.53025 0
M  V30 14286 O 1367.38 -1.78489 0.765205 0
M  V30 14287 C 1364.51 -3.00525 1.74075 0
M  V30 14288 C 1363.47 -3.15773 2.88915 0
M  V30 14289 C 1362.79 -4.55562 2.79942 0
M  V30 14290 C 1364.09 -2.96542 4.29953 0
M  V30 14291 H 1365.79 -1.46365 2.61185 0
M  V30 14292 H 1363.33 -0.702705 1.2569 0
M  V30 14293 H 1365.29 -3.78154 1.8595 0
M  V30 14294 H 1364.01 -3.17238 0.776373 0
M  V30 14295 H 1362.67 -2.40567 2.76628 0
M  V30 14296 H 1362.32 -4.6914 1.81429 0
M  V30 14297 H 1362.02 -4.66706 3.57015 0
M  V30 14298 H 1363.54 -5.35262 2.93814 0
M  V30 14299 H 1364.95 -3.63947 4.42963 0
M  V30 14300 H 1363.35 -3.19164 5.08187 0
M  V30 14301 H 1364.42 -1.92745 4.44946 0
M  V30 14302 N 1365.76 -1.381 -0.759346 0
M  V30 14303 C 1367.01 -1.33727 -1.5153 0
M  V30 14304 C 1367.33 0.0739504 -1.9486 0
M  V30 14305 O 1366.6 1.02049 -1.67221 0
M  V30 14306 H 1365.18 -0.492037 -0.562058 0
M  V30 14307 H 1367.85 -1.72719 -0.902995 0
M  V30 14308 H 1366.94 -1.98439 -2.40891 0
M  V30 14309 N 1367.24 0.986894 -1.22875 0
M  V30 14310 C 1368.65 1.54182 -1.05284 0
M  V30 14311 C 1369 1.92448 0.381856 0
M  V30 14312 O 1368.13 1.75381 1.26769 0
M  V30 14313 C 1368.72 2.80173 -1.90496 0
M  V30 14314 C 1367.28 3.32088 -1.77185 0
M  V30 14315 C 1366.43 2.05128 -1.86596 0
M  V30 14316 H 1369.38 0.807304 -1.36632 0
M  V30 14317 H 1369.4 3.52772 -1.42591 0
M  V30 14318 H 1368.91 2.52291 -2.94908 0
M  V30 14319 H 1367.02 3.64864 -0.755295 0
M  V30 14320 H 1367.13 4.02285 -2.60199 0
M  V30 14321 H 1365.49 2.18964 -1.30103 0
M  V30 14322 H 1366.28 1.79635 -2.92551 0
M  V30 14323 N 1368.72 1.0394 1.18466 0
M  V30 14324 C 1369.68 0.633804 2.20262 0
M  V30 14325 C 1370.68 -0.308136 1.5782 0
M  V30 14326 O 1371.87 -0.0937087 1.73948 0
M  V30 14327 C 1369.01 -0.0709693 3.40826 0
M  V30 14328 H 1370.2 1.53463 2.57661 0
M  V30 14329 H 1367.75 0.831806 1.32328 0
M  V30 14330 H 1368.49 -0.985659 3.08958 0
M  V30 14331 H 1368.27 0.606023 3.87388 0
M  V30 14332 H 1369.76 -0.341298 4.16203 0
M  V30 14333 N 1370.2 -1.34667 0.818693 0
M  V30 14334 C 1371.45 -1.98022 0.40396 0
M  V30 14335 C 1371.77 -1.65239 -1.03542 0
M  V30 14336 O 1371.04 -0.94097 -1.71821 0
M  V30 14337 H 1369.62 -0.732517 0.146382 0
M  V30 14338 H 1372.28 -1.64377 1.0472 0
M  V30 14339 H 1371.38 -3.07746 0.519516 0
M  V30 14340 N 1371.68 -0.573274 -1.46804 0
M  V30 14341 C 1372.64 0.155066 -2.28675 0
M  V30 14342 C 1373.64 0.827706 -1.37861 0
M  V30 14343 O 1374.83 0.681105 -1.60333 0
M  V30 14344 C 1371.96 1.22864 -3.1799 0
M  V30 14345 H 1373.15 -0.564305 -2.94543 0
M  V30 14346 H 1370.71 -0.330855 -1.52758 0
M  V30 14347 H 1371.44 1.97989 -2.56848 0
M  V30 14348 H 1371.23 0.750936 -3.84842 0
M  V30 14349 H 1372.72 1.73974 -3.79635 0
M  V30 14350 N 1373.15 1.5451 -0.310553 0
M  V30 14351 C 1374.12 2.2254 0.548489 0
M  V30 14352 C 1375.12 1.21456 1.05381 0
M  V30 14353 O 1376.31 1.46126 0.948311 0
M  V30 14354 C 1373.44 2.91927 1.76043 0
M  V30 14355 H 1374.63 2.99865 -0.0460306 0
M  V30 14356 H 1372.19 1.56179 -0.061487 0
M  V30 14357 H 1372.92 2.18706 2.39454 0
M  V30 14358 H 1372.71 3.66038 1.40564 0
M  V30 14359 H 1374.2 3.43797 2.37051 0
M  V30 14360 N 1374.63 0.0384594 1.57553 0
M  V30 14361 C 1375.88 -0.636879 1.91803 0
M  V30 14362 C 1376.2 -1.72128 0.916347 0
M  V30 14363 O 1375.47 -1.95858 -0.0407405 0
M  V30 14364 H 1374.05 -0.238237 0.707992 0
M  V30 14365 H 1376.71 0.0884651 1.94699 0
M  V30 14366 H 1375.81 -1.08364 2.92683 0
M  V30 14367 N 1376.11 -1.55841 -0.234795 0
M  V30 14368 C 1377.52 -1.68555 -0.802886 0
M  V30 14369 C 1377.87 -0.638107 -1.85533 0
M  V30 14370 O 1377 0.21333 -2.15346 0
M  V30 14371 C 1377.59 -3.0558 -1.46309 0
M  V30 14372 C 1376.15 -3.20192 -1.97874 0
M  V30 14373 C 1375.3 -2.64457 -0.834136 0
M  V30 14374 H 1378.25 -1.58697 -0.0103759 0
M  V30 14375 H 1378.27 -3.007 -2.33152 0
M  V30 14376 H 1377.78 -3.81792 -0.696868 0
M  V30 14377 H 1375.88 -2.48825 -2.77339 0
M  V30 14378 H 1376 -4.27251 -2.1678 0
M  V30 14379 H 1374.36 -2.22593 -1.23791 0
M  V30 14380 H 1375.14 -3.43205 -0.0807988 0
M  V30 14381 N 1377.59 0.500963 -1.49426 0
M  V30 14382 C 1378.55 1.58478 -1.65582 0
M  V30 14383 C 1379.55 1.51897 -0.52762 0
M  V30 14384 O 1380.74 1.55049 -0.794071 0
M  V30 14385 C 1377.87 2.9813 -1.65322 0
M  V30 14386 H 1379.07 1.45483 -2.6225 0
M  V30 14387 H 1376.62 0.725199 -1.38458 0
M  V30 14388 H 1377.36 3.16602 -0.702384 0
M  V30 14389 H 1377.14 3.04315 -2.47255 0
M  V30 14390 H 1378.63 3.76874 -1.79878 0
M  V30 14391 N 1379.07 1.38501 0.752011 0
M  V30 14392 C 1380.48 1.31086 1.32941 0
M  V30 14393 C 1380.83 -0.0326248 1.96173 0
M  V30 14394 O 1379.95 -0.934692 1.95173 0
M  V30 14395 C 1380.55 2.37395 2.41721 0
M  V30 14396 C 1379.11 2.33553 2.95177 0
M  V30 14397 C 1378.26 2.20178 1.68573 0
M  V30 14398 H 1381.21 1.48836 0.550771 0
M  V30 14399 H 1381.23 2.03202 3.21697 0
M  V30 14400 H 1380.74 3.35164 1.9567 0
M  V30 14401 H 1378.84 1.39371 3.45553 0
M  V30 14402 H 1378.95 3.27753 3.49449 0
M  V30 14403 H 1377.32 1.67057 1.9226 0
M  V30 14404 H 1378.1 3.19891 1.24599 0
M  V30 14405 N 1380.55 -0.980364 1.23396 0
M  V30 14406 C 1381.96 -1.24658 0.996622 0
M  V30 14407 C 1382.16 -1.9922 -0.302259 0
M  V30 14408 O 1381.22 -2.30906 -1.02169 0
M  V30 14409 C 1382.53 -2.0461 2.20353 0
M  V30 14410 C 1384.08 -2.17749 2.24843 0
M  V30 14411 C 1384.55 -3.01091 3.4512 0
M  V30 14412 N 1386.04 -3.08676 3.4536 0
M  V30 14413 C 1386.78 -3.73487 4.3508 0
M  V30 14414 N 1386.28 -4.40121 5.35038 0
M  V30 14415 N 1388.07 -3.70373 4.22824 0
M  V30 14416 H 1380.22 -0.480851 2.06885 0
M  V30 14417 H 1382.48 -0.275049 0.907222 0
M  V30 14418 H 1382.19 -1.57197 3.14614 0
M  V30 14419 H 1382.06 -3.05359 2.21441 0
M  V30 14420 H 1384.45 -2.64369 1.31122 0
M  V30 14421 H 1384.53 -1.16388 2.27788 0
M  V30 14422 H 1384.17 -2.55168 4.39149 0
M  V30 14423 H 1384.1 -4.02621 3.39417 0
M  V30 14424 H 1386.6 -2.61265 2.73037 0
M  V30 14425 H 1386.91 -4.87354 5.99755 0
M  V30 14426 H 1385.25 -4.38829 5.38938 0
M  V30 14427 H 1388.44 -3.17486 3.43977 0
M  V30 14428 H 1388.62 -4.20601 4.92949 0
M  V30 14429 N 1382.02 -1.04567 -1.17913 0
M  V30 14430 C 1382.95 -0.662066 -2.23917 0
M  V30 14431 C 1383.93 0.33713 -1.66726 0
M  V30 14432 O 1385.12 0.216116 -1.92994 0
M  V30 14433 C 1382.25 -0.029463 -3.47288 0
M  V30 14434 C 1381.2 -0.95274 -4.17261 0
M  V30 14435 C 1380.53 -0.184347 -5.34382 0
M  V30 14436 C 1381.83 -2.2741 -4.70194 0
M  V30 14437 H 1383.52 -1.54826 -2.5626 0
M  V30 14438 H 1381.07 -0.745886 -1.23177 0
M  V30 14439 H 1383.02 0.250654 -4.20654 0
M  V30 14440 H 1381.75 0.891638 -3.14193 0
M  V30 14441 H 1380.41 -1.21732 -3.45799 0
M  V30 14442 H 1380.05 0.73932 -4.97537 0
M  V30 14443 H 1379.75 -0.79949 -5.82136 0
M  V30 14444 H 1381.28 0.0886344 -6.10536 0
M  V30 14445 H 1382.69 -2.05433 -5.35229 0
M  V30 14446 H 1381.09 -2.84265 -5.28501 0
M  V30 14447 H 1382.16 -2.91708 -3.87342 0
M  V30 14448 N 1383.5 1.34231 -0.825823 0
M  V30 14449 C 1384.73 2.02949 -0.427354 0
M  V30 14450 C 1385.15 1.61772 0.959755 0
M  V30 14451 O 1384.51 0.803799 1.62508 0
M  V30 14452 C 1384.56 3.56522 -0.540799 0
M  V30 14453 O 1383.66 4.10065 0.438213 0
M  V30 14454 H 1383 0.640378 -0.175535 0
M  V30 14455 H 1385.53 1.71416 -1.11704 0
M  V30 14456 H 1385.54 4.05857 -0.41763 0
M  V30 14457 H 1384.22 3.85839 -1.55246 0
M  V30 14458 H 1382.79 3.71894 0.273687 0
M  V30 14459 N 1384.98 0.581051 1.46498 0
M  V30 14460 C 1385.91 -0.140957 2.33074 0
M  V30 14461 C 1386.89 -0.885323 1.45245 0
M  V30 14462 O 1388.08 -0.86111 1.74065 0
M  V30 14463 C 1385.21 -1.15625 3.27488 0
M  V30 14464 C 1384.16 -0.526829 4.24745 0
M  V30 14465 C 1383.49 -1.64847 5.08655 0
M  V30 14466 C 1384.79 0.53492 5.19554 0
M  V30 14467 H 1386.48 0.581888 2.93691 0
M  V30 14468 H 1384.03 0.281278 1.41226 0
M  V30 14469 H 1385.98 -1.6697 3.8691 0
M  V30 14470 H 1384.7 -1.90935 2.64974 0
M  V30 14471 H 1383.36 -0.0344738 3.66584 0
M  V30 14472 H 1383.01 -2.3912 4.42528 0
M  V30 14473 H 1382.71 -1.23298 5.74518 0
M  V30 14474 H 1384.23 -2.16472 5.7094 0
M  V30 14475 H 1385.65 0.106606 5.73201 0
M  V30 14476 H 1384.04 0.870639 5.93751 0
M  V30 14477 H 1385.11 1.42184 4.63586 0
M  V30 14478 N 1386.46 -1.54343 0.318742 0
M  V30 14479 C 1387.39 -2.21652 -0.583351 0
M  V30 14480 C 1388.4 -1.21494 -1.08366 0
M  V30 14481 O 1389.59 -1.4799 -0.998064 0
M  V30 14482 C 1386.69 -2.86349 -1.81266 0
M  V30 14483 C 1385.86 -4.12601 -1.45186 0
M  V30 14484 C 1384.92 -4.60937 -2.53818 0
M  V30 14485 O 1383.95 -5.25731 -2.18164 0
M  V30 14486 N 1385.15 -4.34755 -3.84667 0
M  V30 14487 H 1387.92 -2.99699 -0.00703539 0
M  V30 14488 H 1385.48 -1.61278 0.141728 0
M  V30 14489 H 1387.47 -3.15611 -2.53321 0
M  V30 14490 H 1386.04 -2.12037 -2.29693 0
M  V30 14491 H 1385.26 -3.90157 -0.563143 0
M  V30 14492 H 1386.55 -4.94774 -1.18642 0
M  V30 14493 H 1385.95 -3.82883 -4.16434 0
M  V30 14494 H 1384.5 -4.68683 -4.52967 0
M  V30 14495 N 1387.94 -0.0468143 -1.5753 0
M  V30 14496 C 1389.35 0.489509 -1.80169 0
M  V30 14497 C 1389.7 1.71184 -0.958669 0
M  V30 14498 O 1388.82 2.15699 -0.174025 0
M  V30 14499 C 1389.42 0.894838 -3.26769 0
M  V30 14500 C 1387.98 1.37617 -3.50341 0
M  V30 14501 C 1387.12 0.349275 -2.75092 0
M  V30 14502 H 1390.07 -0.272728 -1.56339 0
M  V30 14503 H 1390.1 1.75805 -3.3745 0
M  V30 14504 H 1389.61 0.00501096 -3.881 0
M  V30 14505 H 1387.71 2.28533 -2.94285 0
M  V30 14506 H 1387.82 1.37133 -4.59055 0
M  V30 14507 H 1386.19 0.821219 -2.41098 0
M  V30 14508 H 1386.97 -0.532391 -3.39147 0
M  V30 14509 N 1389.41 1.55964 0.226527 0
M  V30 14510 C 1390.69 1.69528 0.975689 0
M  V30 14511 C 1391.07 0.592635 2.02611 0
M  V30 14512 O 1390.42 -0.401073 2.24953 0
M  V30 14513 C 1390.63 3.10644 1.59063 0
M  V30 14514 C 1391.98 3.69895 2.08478 0
M  V30 14515 O 1393 3.13574 1.68966 0
M  V30 14516 O 1391.86 4.68672 2.81085 0
M  V30 14517 H 1388.95 0.690285 0.455451 0
M  V30 14518 H 1391.5 1.68285 0.218702 0
M  V30 14519 H 1390.27 3.82355 0.831903 0
M  V30 14520 H 1389.9 3.15984 2.41329 0
M  V30 14521 N 1390.89 -0.493031 1.4969 0
M  V30 14522 C 1392.3 -1.0744 1.52688 0
M  V30 14523 C 1392.65 -1.93612 0.317652 0
M  V30 14524 O 1391.78 -2.0871 -0.571745 0
M  V30 14525 C 1392.37 -1.95523 2.76688 0
M  V30 14526 C 1390.93 -2.48808 2.82438 0
M  V30 14527 C 1390.08 -1.26617 2.46705 0
M  V30 14528 H 1393.03 -0.276589 1.56271 0
M  V30 14529 H 1393.05 -2.80315 2.57301 0
M  V30 14530 H 1392.56 -1.32779 3.6468 0
M  V30 14531 H 1390.67 -3.15168 1.98746 0
M  V30 14532 H 1390.78 -2.85416 3.84805 0
M  V30 14533 H 1389.14 -1.59396 1.98658 0
M  V30 14534 H 1389.93 -0.655695 3.3698 0
M  V30 14535 N 1392.37 -1.38898 -0.744656 0
M  V30 14536 C 1393.3 -1.31228 -1.86693 0
M  V30 14537 C 1394.28 -0.187667 -1.61513 0
M  V30 14538 O 1395.47 -0.366497 -1.84903 0
M  V30 14539 C 1392.59 -1.03541 -3.22486 0
M  V30 14540 C 1391.64 -2.18061 -3.6654 0
M  V30 14541 S 1392.47 -3.80271 -3.77033 0
M  V30 14542 C 1393.63 -3.5479 -5.15631 0
M  V30 14543 H 1393.86 -2.26211 -1.92914 0
M  V30 14544 H 1391.39 -1.24839 -0.908544 0
M  V30 14545 H 1393.35 -0.882504 -4.00902 0
M  V30 14546 H 1392.01 -0.102611 -3.13932 0
M  V30 14547 H 1391.21 -1.94257 -4.65059 0
M  V30 14548 H 1390.81 -2.29505 -2.95302 0
M  V30 14549 H 1393.1 -3.11457 -6.01665 0
M  V30 14550 H 1394.04 -4.52735 -5.4446 0
M  V30 14551 H 1394.45 -2.89103 -4.8485 0
M  V30 14552 N 1393.85 0.973806 -1.23914 0
M  V30 14553 C 1394.78 2.08526 -1.05068 0
M  V30 14554 C 1395.76 1.70065 0.0344761 0
M  V30 14555 O 1396.94 1.93755 -0.131432 0
M  V30 14556 C 1394.07 3.41198 -0.648165 0
M  V30 14557 C 1393.03 3.9359 -1.6814 0
M  V30 14558 C 1392.35 5.22534 -1.13414 0
M  V30 14559 C 1393.65 4.22116 -3.07597 0
M  V30 14560 H 1395.35 2.24551 -1.98034 0
M  V30 14561 H 1392.89 1.07905 -0.953546 0
M  V30 14562 H 1394.85 4.18383 -0.50334 0
M  V30 14563 H 1393.57 3.25056 0.317182 0
M  V30 14564 H 1392.23 3.18555 -1.81434 0
M  V30 14565 H 1391.88 5.02747 -0.159578 0
M  V30 14566 H 1391.58 5.58555 -1.82456 0
M  V30 14567 H 1393.1 6.02334 -1.0013 0
M  V30 14568 H 1394.52 4.90027 -2.97567 0
M  V30 14569 H 1392.91 4.69352 -3.73937 0
M  V30 14570 H 1393.98 3.29128 -3.56094 0
M  V30 14571 N 1395.33 1.05191 1.17357 0
M  V30 14572 C 1396.57 0.763113 1.87895 0
M  V30 14573 C 1396.91 -0.708071 1.80831 0
M  V30 14574 O 1396.18 -1.51777 1.21631 0
M  V30 14575 C 1396.46 1.2442 3.37923 0
M  V30 14576 C 1396.32 2.77832 3.53737 0
M  V30 14577 C 1397.64 0.843209 4.31947 0
M  V30 14578 H 1394.75 0.27869 0.682276 0
M  V30 14579 H 1397.4 1.3059 1.38008 0
M  V30 14580 H 1395.55 0.782438 3.80539 0
M  V30 14581 H 1397.22 3.32131 3.20135 0
M  V30 14582 H 1395.46 3.17108 2.96015 0
M  V30 14583 H 1396.13 3.06555 4.59052 0
M  V30 14584 H 1398.61 1.24073 3.97171 0
M  V30 14585 H 1397.48 1.20743 5.35455 0
M  V30 14586 H 1397.75 -0.252802 4.41377 0
M  V30 14587 N 1396.8 -1.33791 0.83293 0
M  V30 14588 C 1397.77 -2.27637 0.267196 0
M  V30 14589 C 1398.77 -1.50709 -0.560669 0
M  V30 14590 O 1399.96 -1.70109 -0.375321 0
M  V30 14591 C 1397.09 -3.35136 -0.624248 0
M  V30 14592 H 1398.28 -2.79186 1.09522 0
M  V30 14593 H 1395.84 -1.44093 0.605554 0
M  V30 14594 H 1396.57 -2.88818 -1.47494 0
M  V30 14595 H 1396.36 -3.92087 -0.0319827 0
M  V30 14596 H 1397.85 -4.05113 -1.01355 0
M  V30 14597 N 1398.28 -0.588812 -1.46187 0
M  V30 14598 C 1399.21 0.128595 -2.33146 0
M  V30 14599 C 1400.19 0.877608 -1.45712 0
M  V30 14600 O 1401.38 0.851866 -1.74519 0
M  V30 14601 C 1398.51 1.13886 -3.28096 0
M  V30 14602 C 1397.46 0.504296 -4.25019 0
M  V30 14603 C 1396.79 1.62147 -5.09522 0
M  V30 14604 C 1398.09 -0.562466 -5.19263 0
M  V30 14605 H 1399.78 -0.597455 -2.93378 0
M  V30 14606 H 1397.33 -0.288764 -1.41075 0
M  V30 14607 H 1399.28 1.64916 -3.8779 0
M  V30 14608 H 1398.01 1.89527 -2.65983 0
M  V30 14609 H 1396.66 0.0150325 -3.66597 0
M  V30 14610 H 1396.31 2.36769 -4.4379 0
M  V30 14611 H 1396.01 1.20249 -5.75164 0
M  V30 14612 H 1397.54 2.13441 -5.7208 0
M  V30 14613 H 1398.95 -0.137003 -5.73136 0
M  V30 14614 H 1397.35 -0.902115 -5.93281 0
M  V30 14615 H 1398.42 -1.4464 -4.62825 0
M  V30 14616 N 1399.76 1.54172 -0.326923 0
M  V30 14617 C 1401.01 2.00233 0.274098 0
M  V30 14618 C 1401.33 1.21665 1.5239 0
M  V30 14619 O 1400.6 0.319359 1.93279 0
M  V30 14620 H 1399.18 0.739687 0.104271 0
M  V30 14621 H 1401.84 1.8977 -0.444244 0
M  V30 14622 H 1400.94 3.07599 0.528154 0
M  V30 14623 N 1401.24 0.0551678 1.57503 0
M  V30 14624 C 1402.46 -0.630692 1.97578 0
M  V30 14625 C 1402.89 -1.63348 0.932686 0
M  V30 14626 O 1402.25 -1.81004 -0.103632 0
M  V30 14627 C 1402.29 -1.29049 3.36718 0
M  V30 14628 O 1401.4 -2.40621 3.34926 0
M  V30 14629 H 1400.74 -0.163625 0.643524 0
M  V30 14630 H 1403.27 0.124753 2.04219 0
M  V30 14631 H 1403.28 -1.64124 3.73534 0
M  V30 14632 H 1401.95 -0.55559 4.12172 0
M  V30 14633 H 1400.53 -2.07463 3.0986 0
M  V30 14634 N 1402.72 -1.56081 -0.218252 0
M  V30 14635 C 1404.13 -1.49147 -0.568098 0
M  V30 14636 C 1404.33 -0.750893 -1.86986 0
M  V30 14637 O 1403.39 -0.291904 -2.50807 0
M  V30 14638 C 1404.7 -2.93717 -0.644272 0
M  V30 14639 C 1406.25 -3.04256 -0.734677 0
M  V30 14640 C 1406.72 -4.50191 -0.842167 0
M  V30 14641 N 1408.22 -4.54247 -0.906302 0
M  V30 14642 C 1408.95 -5.64448 -1.00924 0
M  V30 14643 N 1408.45 -6.84394 -1.07592 0
M  V30 14644 N 1410.24 -5.52308 -1.04463 0
M  V30 14645 H 1402.39 -2.02656 0.635935 0
M  V30 14646 H 1404.65 -0.921262 0.223563 0
M  V30 14647 H 1404.36 -3.50861 0.242721 0
M  V30 14648 H 1404.23 -3.45798 -1.50678 0
M  V30 14649 H 1406.62 -2.47174 -1.61211 0
M  V30 14650 H 1406.7 -2.55339 0.153563 0
M  V30 14651 H 1406.35 -5.07891 0.0308214 0
M  V30 14652 H 1406.28 -4.96817 -1.74587 0
M  V30 14653 H 1408.77 -3.67868 -0.864954 0
M  V30 14654 H 1409.08 -7.6413 -1.15433 0
M  V30 14655 H 1407.42 -6.87099 -1.045 0
M  V30 14656 H 1410.62 -4.57528 -0.989218 0
M  V30 14657 H 1410.79 -6.38223 -1.1214 0
M  V30 14658 N 1404.2 0.485086 -1.49949 0
M  V30 14659 C 1405.14 1.5848 -1.67788 0
M  V30 14660 C 1406.11 1.57776 -0.519216 0
M  V30 14661 O 1407.3 1.75521 -0.748141 0
M  V30 14662 C 1404.44 2.9654 -1.76516 0
M  V30 14663 C 1403.55 3.07139 -3.03792 0
M  V30 14664 C 1402.69 4.36029 -3.03401 0
M  V30 14665 C 1401.72 4.40318 -4.2519 0
M  V30 14666 N 1400.86 5.60659 -4.22618 0
M  V30 14667 H 1405.7 1.42575 -2.6168 0
M  V30 14668 H 1403.24 0.693426 -1.29731 0
M  V30 14669 H 1405.2 3.76583 -1.79557 0
M  V30 14670 H 1403.83 3.11112 -0.860764 0
M  V30 14671 H 1402.88 2.20057 -3.10289 0
M  V30 14672 H 1404.19 3.06167 -3.9378 0
M  V30 14673 H 1403.34 5.24407 -3.05094 0
M  V30 14674 H 1402.08 4.39588 -2.11219 0
M  V30 14675 H 1401.09 3.50339 -4.23725 0
M  V30 14676 H 1402.31 4.38461 -5.18583 0
M  V30 14677 H 1400.26 5.6503 -3.33282 0
M  V30 14678 H 1400.18 5.61371 -5.06359 0
M  V30 14679 H 1401.44 6.51201 -4.28436 0
M  V30 14680 N 1405.67 1.39291 0.737279 0
M  V30 14681 C 1406.9 1.39844 1.53162 0
M  V30 14682 C 1407.32 -0.00568546 1.88099 0
M  V30 14683 O 1406.68 -0.992085 1.51748 0
M  V30 14684 C 1406.73 2.27577 2.79716 0
M  V30 14685 O 1405.83 1.70408 3.75546 0
M  V30 14686 H 1405.17 0.476314 0.462624 0
M  V30 14687 H 1407.7 1.83258 0.909819 0
M  V30 14688 H 1407.71 2.42009 3.28475 0
M  V30 14689 H 1406.39 3.29621 2.53619 0
M  V30 14690 H 1404.97 1.65206 3.34307 0
M  V30 14691 N 1407.15 -0.967221 1.24429 0
M  V30 14692 C 1408.38 -1.75053 1.11226 0
M  V30 14693 C 1408.8 -1.85162 -0.331139 0
M  V30 14694 O 1408.16 -1.32288 -1.23974 0
M  V30 14695 C 1408.21 -3.14882 1.75733 0
M  V30 14696 O 1407.31 -3.99371 1.02842 0
M  V30 14697 H 1406.65 -0.538078 0.389061 0
M  V30 14698 H 1409.18 -1.21325 1.64746 0
M  V30 14699 H 1409.19 -3.65402 1.81509 0
M  V30 14700 H 1407.87 -3.06839 2.80754 0
M  V30 14701 H 1406.44 -3.57854 1.04856 0
M  V30 14702 N 1408.63 -1.05812 -1.16797 0
M  V30 14703 C 1409.88 -0.773066 -1.87487 0
M  V30 14704 C 1410.21 0.698471 -1.81204 0
M  V30 14705 O 1409.48 1.51129 -1.22434 0
M  V30 14706 C 1409.77 -1.2621 -3.37258 0
M  V30 14707 C 1409.62 -2.79704 -3.52258 0
M  V30 14708 C 1410.94 -0.866104 -4.31494 0
M  V30 14709 H 1408.06 -0.282304 -0.680789 0
M  V30 14710 H 1410.7 -1.3132 -1.37314 0
M  V30 14711 H 1408.85 -0.802608 -3.80119 0
M  V30 14712 H 1410.52 -3.33824 -3.1837 0
M  V30 14713 H 1408.76 -3.18673 -2.94329 0
M  V30 14714 H 1409.44 -3.08985 -4.57419 0
M  V30 14715 H 1411.91 -1.26178 -3.96508 0
M  V30 14716 H 1410.79 -1.23581 -5.34807 0
M  V30 14717 H 1411.05 0.229391 -4.41504 0
M  V30 14718 N 1410.11 1.33347 -0.840014 0
M  V30 14719 C 1411.04 2.27146 -0.219068 0
M  V30 14720 C 1412.02 1.4971 0.634472 0
M  V30 14721 O 1413.2 1.7888 0.594485 0
M  V30 14722 C 1410.33 3.31549 0.692312 0
M  V30 14723 C 1409.38 4.26413 -0.0859186 0
M  V30 14724 S 1410.21 5.15647 -1.44458 0
M  V30 14725 C 1411.36 6.23579 -0.538524 0
M  V30 14726 H 1411.6 2.79464 -1.01426 0
M  V30 14727 H 1409.13 1.40655 -0.636829 0
M  V30 14728 H 1411.09 3.92183 1.21254 0
M  V30 14729 H 1409.75 2.78044 1.46117 0
M  V30 14730 H 1408.94 5.00324 0.60762 0
M  V30 14731 H 1408.54 3.70121 -0.537243 0
M  V30 14732 H 1410.84 6.76989 0.263167 0
M  V30 14733 H 1411.78 6.97019 -1.24782 0
M  V30 14734 H 1412.19 5.64374 -0.119363 0
M  V30 14735 N 1411.59 0.596556 1.45873 0
M  V30 14736 C 1412.81 0.0916466 2.07197 0
M  V30 14737 C 1413.24 -1.21004 1.44012 0
M  V30 14738 O 1412.59 -1.73415 0.528844 0
M  V30 14739 C 1412.64 -0.0461457 3.6057 0
M  V30 14740 O 1411.75 -1.09919 3.97481 0
M  V30 14741 H 1411.09 0.0690655 0.660398 0
M  V30 14742 H 1413.62 0.823434 1.87299 0
M  V30 14743 H 1413.63 -0.2479 4.07246 0
M  V30 14744 H 1412.3 0.904381 4.05948 0
M  V30 14745 H 1410.88 -0.874788 3.62494 0
M  V30 14746 N 1413.06 -1.53996 0.335095 0
M  V30 14747 C 1413.99 -2.2768 -0.518087 0
M  V30 14748 C 1414.97 -1.28915 -1.10972 0
M  V30 14749 O 1416.16 -1.57745 -1.1327 0
M  V30 14750 C 1413.29 -3.04327 -1.67339 0
M  V30 14751 C 1412.24 -4.10525 -1.2105 0
M  V30 14752 C 1411.57 -4.75078 -2.45366 0
M  V30 14753 C 1412.87 -5.21337 -0.317055 0
M  V30 14754 H 1414.56 -2.99244 0.0965669 0
M  V30 14755 H 1412.11 -1.4392 0.0478842 0
M  V30 14756 H 1414.06 -3.54608 -2.27664 0
M  V30 14757 H 1412.79 -2.30399 -2.31481 0
M  V30 14758 H 1411.45 -3.61144 -0.630124 0
M  V30 14759 H 1411.09 -3.97754 -3.07897 0
M  V30 14760 H 1410.79 -5.46822 -2.1508 0
M  V30 14761 H 1412.32 -5.2814 -3.06432 0
M  V30 14762 H 1413.73 -5.67305 -0.826905 0
M  V30 14763 H 1412.13 -6.00006 -0.106458 0
M  V30 14764 H 1413.2 -4.80536 0.649068 0
M  V30 14765 N 1414.54 -0.0635198 -1.57472 0
M  V30 14766 C 1415.79 0.606285 -1.92792 0
M  V30 14767 C 1416.11 1.70648 -0.943615 0
M  V30 14768 O 1415.38 1.95898 0.00957612 0
M  V30 14769 H 1413.96 0.226943 -0.711692 0
M  V30 14770 H 1416.62 -0.119429 -1.94534 0
M  V30 14771 H 1415.72 1.03694 -2.9437 0
M  V30 14772 N 1416.02 1.56195 0.209972 0
M  V30 14773 C 1417.44 1.49446 0.56018 0
M  V30 14774 C 1417.64 0.760799 1.86585 0
M  V30 14775 O 1416.69 0.305201 2.50649 0
M  V30 14776 C 1418 2.94054 0.628687 0
M  V30 14777 C 1419.55 3.04641 0.718531 0
M  V30 14778 C 1420.03 4.50631 0.81828 0
M  V30 14779 N 1421.52 4.54721 0.8822 0
M  V30 14780 C 1422.25 5.64976 0.979292 0
M  V30 14781 N 1421.75 6.84955 1.03961 0
M  V30 14782 N 1423.54 5.52854 1.01533 0
M  V30 14783 H 1415.69 2.02316 -0.646674 0
M  V30 14784 H 1417.96 0.920063 -0.228446 0
M  V30 14785 H 1417.66 3.50728 -0.261324 0
M  V30 14786 H 1417.54 3.46592 1.48842 0
M  V30 14787 H 1419.92 2.48026 1.59898 0
M  V30 14788 H 1420 2.55254 -0.167102 0
M  V30 14789 H 1419.65 5.07867 -0.0577557 0
M  V30 14790 H 1419.58 4.97736 1.7195 0
M  V30 14791 H 1422.07 3.68322 0.845433 0
M  V30 14792 H 1422.38 7.64732 1.11379 0
M  V30 14793 H 1420.73 6.87643 1.00854 0
M  V30 14794 H 1423.92 4.58046 0.96494 0
M  V30 14795 H 1424.09 6.38809 1.08754 0
M  V30 14796 N 1417.5 -0.477127 1.50204 0
M  V30 14797 C 1418.43 -1.59442 1.63259 0
M  V30 14798 C 1419.41 -1.55327 0.480864 0
M  V30 14799 O 1420.59 -1.75038 0.699578 0
M  V30 14800 C 1417.72 -2.98009 1.6096 0
M  V30 14801 C 1416.77 -3.20301 2.8162 0
M  V30 14802 S 1417.6 -3.00849 4.43001 0
M  V30 14803 C 1418.75 -4.41769 4.43386 0
M  V30 14804 H 1418.99 -1.48128 2.5777 0
M  V30 14805 H 1416.52 -0.66403 1.39392 0
M  V30 14806 H 1418.48 -3.779 1.60319 0
M  V30 14807 H 1417.14 -3.06718 0.676948 0
M  V30 14808 H 1416.33 -4.21515 2.76299 0
M  V30 14809 H 1415.93 -2.48173 2.79797 0
M  V30 14810 H 1418.23 -5.34294 4.16576 0
M  V30 14811 H 1419.17 -4.52135 5.44958 0
M  V30 14812 H 1419.58 -4.23565 3.73166 0
M  V30 14813 N 1418.98 -1.3968 -0.729882 0
M  V30 14814 C 1420.2 -1.40654 -1.52418 0
M  V30 14815 C 1420.63 -0.00428997 -1.881 0
M  V30 14816 O 1419.98 0.984023 -1.52272 0
M  V30 14817 C 1420.03 -2.29057 -2.78506 0
M  V30 14818 O 1419.14 -1.72397 -3.74637 0
M  V30 14819 H 1418.48 -0.478761 -0.460091 0
M  V30 14820 H 1421.01 -1.83738 -0.900087 0
M  V30 14821 H 1421.02 -2.43748 -3.27187 0
M  V30 14822 H 1419.69 -3.30961 -2.51868 0
M  V30 14823 H 1418.27 -1.66977 -3.33426 0
M  V30 14824 N 1420.45 0.960609 -1.2494 0
M  V30 14825 C 1421.68 1.73676 -1.11894 0
M  V30 14826 C 1422.09 1.86288 0.330648 0
M  V30 14827 O 1421.44 1.35575 1.23957 0
M  V30 14828 C 1421.5 3.17142 -1.69297 0
M  V30 14829 C 1421.16 3.27978 -3.18244 0
M  V30 14830 C 1422.16 3.12754 -4.15308 0
M  V30 14831 C 1419.84 3.51991 -3.5834 0
M  V30 14832 C 1421.84 3.21379 -5.50449 0
M  V30 14833 C 1419.52 3.60253 -4.9362 0
M  V30 14834 C 1420.52 3.44961 -5.89484 0
M  V30 14835 O 1420.21 3.52893 -7.22303 0
M  V30 14836 H 1419.94 0.551226 -0.391313 0
M  V30 14837 H 1422.5 1.21418 -1.65671 0
M  V30 14838 H 1420.73 3.70736 -1.09961 0
M  V30 14839 H 1422.42 3.76592 -1.51437 0
M  V30 14840 H 1423.18 2.94079 -3.85672 0
M  V30 14841 H 1419.06 3.62957 -2.84224 0
M  V30 14842 H 1422.6 3.0936 -6.25254 0
M  V30 14843 H 1418.5 3.78444 -5.22925 0
M  V30 14844 H 1419.27 3.69563 -7.30319 0
M  V30 14845 N 1421.93 1.0643 1.16234 0
M  V30 14846 C 1423.21 0.695256 1.82827 0
M  V30 14847 C 1423.59 -0.823242 1.94386 0
M  V30 14848 O 1422.94 -1.73406 1.48804 0
M  V30 14849 C 1423.15 1.3988 3.19741 0
M  V30 14850 C 1424.5 1.54489 3.95498 0
M  V30 14851 O 1425.52 1.35882 3.29264 0
M  V30 14852 O 1424.38 1.85027 5.14225 0
M  V30 14853 H 1421.47 0.246285 0.789476 0
M  V30 14854 H 1424.02 1.16466 1.23426 0
M  V30 14855 H 1422.79 2.43419 3.06371 0
M  V30 14856 H 1422.41 0.91957 3.8682 0
M  V30 14857 N 1423.41 -1.329 0.847073 0
M  V30 14858 C 1424.34 -2.27903 0.243522 0
M  V30 14859 C 1425.36 -1.52101 -0.58043 0
M  V30 14860 O 1426.54 -1.73818 -0.406158 0
M  V30 14861 C 1423.64 -3.32107 -0.675118 0
M  V30 14862 C 1422.82 -4.37258 0.111305 0
M  V30 14863 C 1421.88 -5.21085 -0.731933 0
M  V30 14864 O 1420.9 -5.68951 -0.168176 0
M  V30 14865 N 1422.1 -5.43175 -2.04794 0
M  V30 14866 H 1424.87 -2.80335 1.05983 0
M  V30 14867 H 1422.43 -1.4568 0.706322 0
M  V30 14868 H 1424.42 -3.85093 -1.2444 0
M  V30 14869 H 1422.99 -2.79891 -1.39212 0
M  V30 14870 H 1422.21 -3.8466 0.861991 0
M  V30 14871 H 1423.5 -5.04608 0.651756 0
M  V30 14872 H 1422.9 -5.06002 -2.5294 0
M  V30 14873 H 1421.46 -5.99186 -2.56552 0
M  V30 14874 N 1424.89 -0.604284 -1.45555 0
M  V30 14875 C 1426.3 -0.267665 -1.57339 0
M  V30 14876 C 1426.5 1.22984 -1.59616 0
M  V30 14877 O 1425.56 2.0127 -1.52468 0
M  V30 14878 C 1426.87 -0.935923 -2.85764 0
M  V30 14879 C 1428.42 -0.911531 -2.99433 0
M  V30 14880 C 1428.9 -1.55974 -4.30623 0
M  V30 14881 N 1430.39 -1.52507 -4.37374 0
M  V30 14882 C 1431.12 -1.9958 -5.37546 0
M  V30 14883 N 1430.62 -2.54724 -6.44273 0
M  V30 14884 N 1432.41 -1.90368 -5.28882 0
M  V30 14885 H 1424.56 -1.57666 -1.42321 0
M  V30 14886 H 1426.83 -0.66028 -0.680245 0
M  V30 14887 H 1426.53 -1.99022 -2.89971 0
M  V30 14888 H 1426.41 -0.457194 -3.74419 0
M  V30 14889 H 1428.79 0.134206 -2.94795 0
M  V30 14890 H 1428.87 -1.42849 -2.12197 0
M  V30 14891 H 1428.52 -2.60479 -4.3602 0
M  V30 14892 H 1428.45 -1.01782 -5.1667 0
M  V30 14893 H 1430.94 -1.12221 -3.60853 0
M  V30 14894 H 1431.25 -2.88445 -7.16951 0
M  V30 14895 H 1429.6 -2.58761 -6.45033 0
M  V30 14896 H 1432.79 -1.47029 -4.4441 0
M  V30 14897 H 1432.96 -2.27367 -6.06802 0
M  V30 14898 N 1426.37 1.53816 -0.343257 0
M  V30 14899 C 1427.59 2.05796 0.257418 0
M  V30 14900 C 1428.02 1.2166 1.43459 0
M  V30 14901 O 1427.37 0.230278 1.79832 0
M  V30 14902 C 1427.42 3.54681 0.65068 0
M  V30 14903 O 1426.53 3.73394 1.75074 0
M  V30 14904 H 1425.87 0.662622 0.042757 0
M  V30 14905 H 1428.4 1.98462 -0.497386 0
M  V30 14906 H 1428.41 3.97308 0.927914 0
M  V30 14907 H 1427.08 4.15368 -0.210199 0
M  V30 14908 H 1425.66 3.42669 1.4708 0
M  V30 14909 N 1427.84 0.0718701 1.57436 0
M  V30 14910 C 1428.77 -0.89288 2.15754 0
M  V30 14911 C 1429.76 -1.31036 1.0846 0
M  V30 14912 O 1430.94 -1.38139 1.36496 0
M  V30 14913 C 1428.07 -2.16044 2.71923 0
M  V30 14914 C 1427.02 -1.88236 3.84384 0
M  V30 14915 C 1426.35 -3.21624 4.27156 0
M  V30 14916 C 1427.65 -1.18758 5.0862 0
M  V30 14917 H 1429.34 -0.407061 2.9662 0
M  V30 14918 H 1426.89 -0.194354 1.42682 0
M  V30 14919 H 1428.84 -2.83952 3.11366 0
M  V30 14920 H 1427.57 -2.66868 1.88279 0
M  V30 14921 H 1426.23 -1.22734 3.45445 0
M  V30 14922 H 1425.87 -3.70289 3.40433 0
M  V30 14923 H 1425.57 -3.03809 5.02965 0
M  V30 14924 H 1427.1 -3.90729 4.69215 0
M  V30 14925 H 1428.51 -1.76735 5.45378 0
M  V30 14926 H 1426.91 -1.11201 5.89707 0
M  V30 14927 H 1427.98 -0.166682 4.84613 0
M  V30 14928 N 1429.32 -1.56304 -0.201686 0
M  V30 14929 C 1430.55 -1.84692 -0.943583 0
M  V30 14930 C 1430.97 -0.654649 -1.7634 0
M  V30 14931 O 1430.33 0.396586 -1.76909 0
M  V30 14932 C 1430.38 -3.11251 -1.82085 0
M  V30 14933 O 1429.48 -2.9134 -2.91881 0
M  V30 14934 H 1428.82 -0.608351 -0.266092 0
M  V30 14935 H 1431.35 -2.0353 -0.208992 0
M  V30 14936 H 1431.36 -3.41874 -2.2268 0
M  V30 14937 H 1430.04 -3.97652 -1.21844 0
M  V30 14938 H 1428.62 -2.72 -2.55089 0
M  V30 14939 N 1430.8 0.469154 -1.50455 0
M  V30 14940 C 1432.03 1.24899 -1.65575 0
M  V30 14941 C 1432.45 1.85009 -0.339581 0
M  V30 14942 O 1431.81 1.67376 0.696774 0
M  V30 14943 C 1431.86 2.33205 -2.75041 0
M  V30 14944 O 1430.96 3.37898 -2.36429 0
M  V30 14945 H 1430.3 0.367362 -0.553119 0
M  V30 14946 H 1432.83 0.558083 -1.96842 0
M  V30 14947 H 1432.84 2.78487 -2.98176 0
M  V30 14948 H 1431.52 1.88826 -3.70564 0
M  V30 14949 H 1430.09 2.98314 -2.23748 0
M  V30 14950 N 1432.28 1.40065 0.722464 0
M  V30 14951 C 1433.5 1.4146 1.5167 0
M  V30 14952 C 1433.93 0.0142653 1.88095 0
M  V30 14953 O 1433.29 -0.975934 1.52791 0
M  V30 14954 C 1433.33 2.30531 2.77287 0
M  V30 14955 O 1432.44 1.74382 3.73717 0
M  V30 14956 H 1431.78 0.481194 0.457546 0
M  V30 14957 H 1434.31 1.84213 0.890331 0
M  V30 14958 H 1434.32 2.45479 3.25889 0
M  V30 14959 H 1432.99 3.32292 2.50109 0
M  V30 14960 H 1431.57 1.68743 3.32536 0
M  V30 14961 N 1433.76 -0.95397 1.25448 0
M  V30 14962 C 1435.17 -1.22516 1.02284 0
M  V30 14963 C 1435.37 -1.99816 -0.259933 0
M  V30 14964 O 1434.43 -2.33022 -0.972479 0
M  V30 14965 C 1435.74 -1.9989 2.24643 0
M  V30 14966 C 1437.29 -2.1293 2.29412 0
M  V30 14967 C 1437.77 -2.93703 3.51429 0
M  V30 14968 N 1439.26 -3.01281 3.51829 0
M  V30 14969 C 1439.99 -3.64174 4.42905 0
M  V30 14970 N 1439.49 -4.28673 5.44253 0
M  V30 14971 N 1441.28 -3.61321 4.30585 0
M  V30 14972 H 1433.43 -0.436859 2.07859 0
M  V30 14973 H 1435.69 -0.255744 0.912852 0
M  V30 14974 H 1435.4 -1.50489 3.17877 0
M  V30 14975 H 1435.27 -3.00593 2.27868 0
M  V30 14976 H 1437.66 -2.61528 1.367 0
M  V30 14977 H 1437.74 -1.1153 2.30206 0
M  V30 14978 H 1437.39 -2.45795 4.44463 0
M  V30 14979 H 1437.32 -3.95331 3.47881 0
M  V30 14980 H 1439.81 -2.55414 2.78517 0
M  V30 14981 H 1440.12 -4.74522 6.09958 0
M  V30 14982 H 1438.47 -4.27299 5.48125 0
M  V30 14983 H 1441.66 -3.10118 3.50634 0
M  V30 14984 H 1441.83 -4.1005 5.0176 0
M  V30 14985 N 1435.24 -1.07045 -1.15668 0
M  V30 14986 C 1436.46 -0.812802 -1.9081 0
M  V30 14987 C 1436.89 0.627827 -1.77313 0
M  V30 14988 O 1436.24 1.43836 -1.10368 0
M  V30 14989 C 1436.29 -1.2219 -3.39267 0
M  V30 14990 O 1435.4 -0.365305 -4.10779 0
M  V30 14991 H 1434.74 -0.296385 -0.594182 0
M  V30 14992 H 1437.27 -1.42825 -1.465 0
M  V30 14993 H 1437.28 -1.19674 -3.90054 0
M  V30 14994 H 1435.95 -2.27121 -3.48409 0
M  V30 14995 H 1434.53 -0.452687 -3.70142 0
M  V30 14996 N 1436.71 1.32449 -0.85411 0
M  V30 14997 C 1437.94 2.01997 -0.470307 0
M  V30 14998 C 1438.36 1.63772 0.925225 0
M  V30 14999 O 1437.72 0.838089 1.60766 0
M  V30 15000 C 1437.77 3.55294 -0.616301 0
M  V30 15001 O 1436.87 4.10902 0.351133 0
M  V30 15002 H 1436.21 0.63651 -0.189079 0
M  V30 15003 H 1438.74 1.69008 -1.15315 0
M  V30 15004 H 1438.75 4.0488 -0.503624 0
M  V30 15005 H 1437.43 3.82459 -1.63396 0
M  V30 15006 H 1436.01 3.72391 0.194741 0
M  V30 15007 N 1438.19 0.611994 1.45232 0
M  V30 15008 C 1439.42 0.115242 2.06278 0
M  V30 15009 C 1439.83 -1.20752 1.45656 0
M  V30 15010 O 1439.17 -1.7474 0.566697 0
M  V30 15011 C 1439.23 -0.0941449 3.59377 0
M  V30 15012 C 1438.9 1.1475 4.42359 0
M  V30 15013 C 1439.9 2.06669 4.77058 0
M  V30 15014 C 1437.58 1.37756 4.83041 0
M  V30 15015 C 1439.57 3.19919 5.51299 0
M  V30 15016 C 1437.26 2.51306 5.57035 0
M  V30 15017 C 1438.26 3.42216 5.91082 0
M  V30 15018 O 1437.95 4.5379 6.63574 0
M  V30 15019 H 1437.68 0.0680317 0.672568 0
M  V30 15020 H 1440.23 0.840932 1.87397 0
M  V30 15021 H 1438.46 -0.874775 3.76676 0
M  V30 15022 H 1440.15 -0.543047 4.02251 0
M  V30 15023 H 1440.92 1.90122 4.46182 0
M  V30 15024 H 1436.8 0.678922 4.55973 0
M  V30 15025 H 1440.34 3.90901 5.77791 0
M  V30 15026 H 1436.24 2.67804 5.87325 0
M  V30 15027 H 1437.01 4.52527 6.82027 0
M  V30 15028 N 1439.67 -1.53632 0.351409 0
M  V30 15029 C 1440.9 -2.0516 -0.243498 0
M  V30 15030 C 1441.31 -1.22559 -1.44138 0
M  V30 15031 O 1440.65 -0.255726 -1.81911 0
M  V30 15032 C 1440.71 -3.52324 -0.71469 0
M  V30 15033 C 1440.38 -4.55543 0.364598 0
M  V30 15034 C 1441.37 -5.05626 1.20987 0
M  V30 15035 C 1439.06 -4.99593 0.520779 0
M  V30 15036 C 1441.05 -5.98347 2.1968 0
M  V30 15037 C 1438.74 -5.92123 1.51109 0
M  V30 15038 C 1439.74 -6.41389 2.34754 0
M  V30 15039 O 1439.43 -7.32097 3.32098 0
M  V30 15040 H 1439.16 -0.674193 -0.0493948 0
M  V30 15041 H 1441.71 -1.99123 0.503919 0
M  V30 15042 H 1439.94 -3.55852 -1.51348 0
M  V30 15043 H 1441.63 -3.86783 -1.23102 0
M  V30 15044 H 1442.4 -4.72353 1.10033 0
M  V30 15045 H 1438.28 -4.60843 -0.120466 0
M  V30 15046 H 1441.82 -6.36724 2.85005 0
M  V30 15047 H 1437.72 -6.24811 1.62116 0
M  V30 15048 H 1438.48 -7.50053 3.27662 0
M  V30 15049 N 1441.15 -0.0802183 -1.57396 0
M  V30 15050 C 1442.4 0.585802 -1.93424 0
M  V30 15051 C 1442.72 1.69638 -0.961662 0
M  V30 15052 O 1441.99 1.95897 -0.011202 0
M  V30 15053 H 1440.57 0.219382 -0.714059 0
M  V30 15054 H 1443.23 -0.140055 -1.94396 0
M  V30 15055 H 1442.32 1.00566 -2.95454 0
M  V30 15056 N 1442.63 1.56409 0.193394 0
M  V30 15057 C 1444.04 1.70624 0.757915 0
M  V30 15058 C 1444.39 0.687074 1.83776 0
M  V30 15059 O 1443.51 -0.15616 2.15836 0
M  V30 15060 C 1444.11 3.09352 1.38156 0
M  V30 15061 C 1442.67 3.25326 1.89315 0
M  V30 15062 C 1441.81 2.66576 0.763727 0
M  V30 15063 H 1444.76 1.58668 -0.0317034 0
M  V30 15064 H 1444.79 3.06776 2.25098 0
M  V30 15065 H 1444.3 3.83506 0.595398 0
M  V30 15066 H 1442.4 2.5609 2.70644 0
M  V30 15067 H 1442.51 4.32848 2.05376 0
M  V30 15068 H 1440.88 2.25797 1.17846 0
M  V30 15069 H 1441.66 3.43298 -0.0102243 0
M  V30 15070 N 1444.1 -0.461169 1.50702 0
M  V30 15071 C 1445.35 -1.21137 1.63393 0
M  V30 15072 C 1445.7 -1.89467 0.334664 0
M  V30 15073 O 1445 -1.79575 -0.668083 0
M  V30 15074 C 1445.19 -2.27213 2.75879 0
M  V30 15075 C 1445.02 -1.69291 4.16618 0
M  V30 15076 C 1443.79 -1.48827 4.82886 0
M  V30 15077 C 1445.99 -1.18233 5.00525 0
M  V30 15078 N 1443.97 -0.862524 6.07811 0
M  V30 15079 C 1445.34 -0.680412 6.16255 0
M  V30 15080 C 1447.4 -1.07182 4.86227 0
M  V30 15081 C 1446.1 -0.0788727 7.19257 0
M  V30 15082 C 1448.13 -0.484201 5.89415 0
M  V30 15083 C 1447.49 0.00728753 7.044 0
M  V30 15084 H 1443.59 -0.431797 0.651978 0
M  V30 15085 H 1446.17 -0.511751 1.87854 0
M  V30 15086 H 1444.34 -2.94591 2.53122 0
M  V30 15087 H 1446.07 -2.94223 2.77875 0
M  V30 15088 H 1442.83 -1.74332 4.40347 0
M  V30 15089 H 1443.25 -0.567778 6.74615 0
M  V30 15090 H 1447.89 -1.43771 3.97605 0
M  V30 15091 H 1445.61 0.299208 8.07546 0
M  V30 15092 H 1449.2 -0.400923 5.80417 0
M  V30 15093 H 1448.08 0.454852 7.8288 0
M  V30 15094 N 1445.58 -1.40446 -0.715026 0
M  V30 15095 C 1446.83 -1.3848 -1.47199 0
M  V30 15096 C 1447.15 0.0119198 -1.94996 0
M  V30 15097 O 1446.42 0.966772 -1.70383 0
M  V30 15098 H 1445 -0.509669 -0.54612 0
M  V30 15099 H 1447.66 -1.75505 -0.847588 0
M  V30 15100 H 1446.76 -2.06002 -2.34456 0
M  V30 15101 N 1447.06 0.947303 -1.25952 0
M  V30 15102 C 1448.48 1.21972 -1.02932 0
M  V30 15103 C 1448.68 1.99951 0.249333 0
M  V30 15104 O 1447.73 2.33534 0.960108 0
M  V30 15105 C 1449.04 1.98695 -2.257 0
M  V30 15106 C 1450.59 2.11711 -2.30538 0
M  V30 15107 C 1451.07 2.91835 -3.52982 0
M  V30 15108 N 1452.56 2.99411 -3.53422 0
M  V30 15109 C 1453.29 3.6182 -4.4483 0
M  V30 15110 N 1452.79 4.25781 -5.46519 0
M  V30 15111 N 1454.58 3.59033 -4.32495 0
M  V30 15112 H 1446.73 0.42583 -2.08088 0
M  V30 15113 H 1449 0.250899 -0.914196 0
M  V30 15114 H 1448.7 1.48801 -3.18671 0
M  V30 15115 H 1448.58 2.9938 -2.29459 0
M  V30 15116 H 1450.96 2.608 -1.38085 0
M  V30 15117 H 1451.04 1.10308 -2.30794 0
M  V30 15118 H 1450.69 2.43435 -4.4576 0
M  V30 15119 H 1450.62 3.9348 -3.49973 0
M  V30 15120 H 1453.11 2.53934 -2.79868 0
M  V30 15121 H 1453.42 4.71281 -6.12466 0
M  V30 15122 H 1451.77 4.24386 -5.50383 0
M  V30 15123 H 1454.96 3.08254 -3.52274 0
M  V30 15124 H 1455.13 4.07384 -5.03927 0
M  V30 15125 N 1448.54 1.07657 1.15099 0
M  V30 15126 C 1449.76 0.82291 1.90376 0
M  V30 15127 C 1450.19 -0.618415 1.77644 0
M  V30 15128 O 1449.55 -1.43248 1.11129 0
M  V30 15129 C 1449.59 1.23988 3.38614 0
M  V30 15130 O 1448.7 0.387085 4.10579 0
M  V30 15131 H 1448.04 0.299532 0.592602 0
M  V30 15132 H 1450.57 1.436 1.4574 0
M  V30 15133 H 1450.58 1.21741 3.89414 0
M  V30 15134 H 1449.25 2.28966 3.472 0
M  V30 15135 H 1447.83 0.472311 3.69897 0
M  V30 15136 N 1450.02 -1.31994 0.861122 0
M  V30 15137 C 1450.98 -2.27019 0.315421 0
M  V30 15138 C 1451.98 -1.51864 -0.528575 0
M  V30 15139 O 1453.17 -1.70867 -0.339154 0
M  V30 15140 C 1450.3 -3.36384 -0.553021 0
M  V30 15141 H 1451.49 -2.768 1.1542 0
M  V30 15142 H 1449.05 -1.42776 0.635982 0
M  V30 15143 H 1449.78 -2.91882 -1.41335 0
M  V30 15144 H 1449.57 -3.92067 0.0511919 0
M  V30 15145 H 1451.06 -4.07172 -0.927392 0
M  V30 15146 N 1451.49 -0.619688 -1.44906 0
M  V30 15147 C 1452.46 0.0822364 -2.29052 0
M  V30 15148 C 1453.46 0.783427 -1.40425 0
M  V30 15149 O 1454.65 0.629751 -1.62419 0
M  V30 15150 C 1451.78 1.12685 -3.21737 0
M  V30 15151 H 1452.97 -0.657726 -2.92599 0
M  V30 15152 H 1450.53 -0.379286 -1.51628 0
M  V30 15153 H 1451.26 1.89717 -2.63017 0
M  V30 15154 H 1451.05 0.628122 -3.87036 0
M  V30 15155 H 1452.54 1.61808 -3.84978 0
M  V30 15156 N 1452.97 1.53444 -0.359552 0
M  V30 15157 C 1454.22 2.02152 0.224969 0
M  V30 15158 C 1454.57 1.24236 1.46912 0
M  V30 15159 O 1453.87 0.325976 1.88807 0
M  V30 15160 C 1454.06 3.5273 0.575863 0
M  V30 15161 C 1453.89 4.45226 -0.63273 0
M  V30 15162 C 1452.66 4.92204 -1.14296 0
M  V30 15163 C 1454.86 4.92058 -1.49611 0
M  V30 15164 N 1452.84 5.68692 -2.31221 0
M  V30 15165 C 1454.21 5.66829 -2.51208 0
M  V30 15166 C 1456.27 4.74141 -1.51969 0
M  V30 15167 C 1454.97 6.25587 -3.55012 0
M  V30 15168 C 1456.99 5.33761 -2.54663 0
M  V30 15169 C 1456.36 6.08412 -3.54984 0
M  V30 15170 H 1452.46 0.780693 0.0451987 0
M  V30 15171 H 1455.04 1.88097 -0.502735 0
M  V30 15172 H 1453.21 3.66958 1.27265 0
M  V30 15173 H 1454.94 3.88166 1.14495 0
M  V30 15174 H 1451.7 4.6827 -0.70853 0
M  V30 15175 H 1452.12 6.116 -2.90301 0
M  V30 15176 H 1456.76 4.15956 -0.757639 0
M  V30 15177 H 1454.48 6.82871 -4.32102 0
M  V30 15178 H 1458.07 5.21795 -2.57334 0
M  V30 15179 H 1456.95 6.53724 -4.33145 0
M  V30 15180 N 1454.45 0.0885642 1.57351 0
M  V30 15181 C 1455.41 -0.858178 2.12528 0
M  V30 15182 C 1456.41 -1.21522 1.05304 0
M  V30 15183 O 1457.6 -1.14573 1.3122 0
M  V30 15184 C 1454.74 -2.15619 2.64048 0
M  V30 15185 H 1455.93 -0.37918 2.97493 0
M  V30 15186 H 1453.48 -0.160354 1.55475 0
M  V30 15187 H 1454.22 -2.68018 1.82584 0
M  V30 15188 H 1454 -1.90995 3.42437 0
M  V30 15189 H 1455.49 -2.83359 3.06753 0
M  V30 15190 N 1455.93 -1.56509 -0.185096 0
M  V30 15191 C 1457.15 -1.85683 -0.923941 0
M  V30 15192 C 1457.58 -0.673315 -1.75636 0
M  V30 15193 O 1456.94 0.3778 -1.7732 0
M  V30 15194 C 1456.98 -3.13165 -1.78774 0
M  V30 15195 O 1456.09 -2.9442 -2.88775 0
M  V30 15196 H 1455.43 -0.611139 -0.259624 0
M  V30 15197 H 1457.96 -2.0374 -0.187393 0
M  V30 15198 H 1457.97 -3.44216 -2.19042 0
M  V30 15199 H 1456.64 -3.98922 -1.17619 0
M  V30 15200 H 1455.22 -2.7469 -2.5219 0
M  V30 15201 N 1457.41 0.45317 -1.50944 0
M  V30 15202 C 1458.82 0.788393 -1.38768 0
M  V30 15203 C 1459.02 1.96233 -0.457676 0
M  V30 15204 O 1458.08 2.52328 0.0930651 0
M  V30 15205 C 1459.39 1.08363 -2.80496 0
M  V30 15206 C 1460.94 1.18901 -2.89537 0
M  V30 15207 C 1461.41 1.51727 -4.32138 0
M  V30 15208 N 1462.91 1.58683 -4.35171 0
M  V30 15209 C 1463.64 1.85623 -5.42523 0
M  V30 15210 N 1463.14 2.10462 -6.60059 0
M  V30 15211 N 1464.93 1.87274 -5.29986 0
M  V30 15212 H 1457.08 -0.320216 -2.09972 0
M  V30 15213 H 1459.34 -0.0808021 -0.94455 0
M  V30 15214 H 1459.05 0.293897 -3.5047 0
M  V30 15215 H 1458.92 2.01532 -3.18849 0
M  V30 15216 H 1461.31 1.96939 -2.19771 0
M  V30 15217 H 1461.39 0.236691 -2.54703 0
M  V30 15218 H 1461.04 0.74223 -5.02447 0
M  V30 15219 H 1460.97 2.48139 -4.64472 0
M  V30 15220 H 1463.46 1.41455 -3.50427 0
M  V30 15221 H 1463.77 2.30343 -7.37673 0
M  V30 15222 H 1462.11 2.07817 -6.63202 0
M  V30 15223 H 1465.31 1.67377 -4.37153 0
M  V30 15224 H 1465.48 2.07933 -6.13733 0
M  V30 15225 N 1458.88 1.40823 0.707568 0
M  V30 15226 C 1460.3 1.23029 1.01666 0
M  V30 15227 C 1460.5 0.111152 2.01193 0
M  V30 15228 O 1459.56 -0.52836 2.4691 0
M  V30 15229 C 1460.87 2.57509 1.55272 0
M  V30 15230 C 1462.42 2.6459 1.67216 0
M  V30 15231 C 1462.89 3.99357 2.24227 0
M  V30 15232 N 1464.38 4.01141 2.31603 0
M  V30 15233 C 1465.12 5.02211 2.76715 0
M  V30 15234 N 1464.61 6.13674 3.21521 0
M  V30 15235 N 1466.41 4.89577 2.76172 0
M  V30 15236 H 1458.56 2.12346 0.0480107 0
M  V30 15237 H 1460.82 0.944281 0.0838885 0
M  V30 15238 H 1460.53 3.40095 0.896012 0
M  V30 15239 H 1460.4 2.79158 2.53674 0
M  V30 15240 H 1462.79 1.8237 2.32002 0
M  V30 15241 H 1462.87 2.46763 0.673927 0
M  V30 15242 H 1462.51 4.8202 1.6006 0
M  V30 15243 H 1462.44 4.14518 3.2478 0
M  V30 15244 H 1464.93 3.20657 1.99968 0
M  V30 15245 H 1465.25 6.86677 3.54534 0
M  V30 15246 H 1463.59 6.17228 3.1946 0
M  V30 15247 H 1466.78 4.01588 2.40509 0
M  V30 15248 H 1466.96 5.68485 3.11012 0
M  V30 15249 N 1460.36 -0.94061 1.26453 0
M  V30 15250 C 1461.59 -1.72654 1.14914 0
M  V30 15251 C 1462.01 -1.85823 -0.291789 0
M  V30 15252 O 1461.37 -1.34888 -1.2114 0
M  V30 15253 C 1461.42 -3.11083 1.82372 0
M  V30 15254 O 1460.52 -3.971 1.1129 0
M  V30 15255 H 1459.86 -0.529704 0.400387 0
M  V30 15256 H 1462.39 -1.17803 1.67283 0
M  V30 15257 H 1462.4 -3.6147 1.89219 0
M  V30 15258 H 1461.08 -3.00815 2.87199 0
M  V30 15259 H 1459.66 -3.5555 1.12423 0
M  V30 15260 N 1461.84 -1.08266 -1.14527 0
M  V30 15261 C 1463.07 -0.832994 -1.89937 0
M  V30 15262 C 1463.49 0.608985 -1.77969 0
M  V30 15263 O 1462.85 1.42657 -1.11887 0
M  V30 15264 C 1462.9 -1.25782 -3.37952 0
M  V30 15265 O 1462 -0.408853 -4.10368 0
M  V30 15266 H 1461.34 -0.30267 -0.591005 0
M  V30 15267 H 1463.87 -1.44371 -1.44977 0
M  V30 15268 H 1463.88 -1.23804 -3.88763 0
M  V30 15269 H 1462.56 -2.30804 -3.4598 0
M  V30 15270 H 1461.13 -0.49192 -3.69641 0
M  V30 15271 N 1463.32 1.31536 -0.86811 0
M  V30 15272 C 1464.57 1.97456 -0.488147 0
M  V30 15273 C 1464.92 1.67384 0.948709 0
M  V30 15274 O 1464.21 0.958924 1.65877 0
M  V30 15275 C 1464.41 3.50876 -0.679752 0
M  V30 15276 C 1464.24 3.95859 -2.13368 0
M  V30 15277 C 1463.01 4.22288 -2.77491 0
M  V30 15278 C 1465.2 4.09936 -3.10575 0
M  V30 15279 N 1463.19 4.53611 -4.13655 0
M  V30 15280 C 1464.56 4.44949 -4.31764 0
M  V30 15281 C 1466.61 3.92309 -3.06591 0
M  V30 15282 C 1465.32 4.64176 -5.49485 0
M  V30 15283 C 1467.34 4.12728 -4.23568 0
M  V30 15284 C 1466.7 4.48071 -5.43518 0
M  V30 15285 H 1462.8 0.748137 -0.227628 0
M  V30 15286 H 1465.39 1.59098 -1.12232 0
M  V30 15287 H 1463.56 3.88327 -0.0751875 0
M  V30 15288 H 1465.29 4.03809 -0.26836 0
M  V30 15289 H 1462.04 4.14858 -2.28451 0
M  V30 15290 H 1462.47 4.73435 -4.8393 0
M  V30 15291 H 1467.11 3.64075 -2.14964 0
M  V30 15292 H 1464.83 4.91259 -6.41631 0
M  V30 15293 H 1468.41 4.00577 -4.21935 0
M  V30 15294 H 1467.29 4.6355 -6.32527 0
M  V30 15295 N 1464.8 0.627364 1.44575 0
M  V30 15296 C 1465.75 -0.0920488 2.32418 0
M  V30 15297 C 1466.74 -0.839633 1.47128 0
M  V30 15298 O 1467.95 -0.752958 1.63495 0
M  V30 15299 H 1464.32 -0.0485336 0.750432 0
M  V30 15300 H 1466.29 0.666959 2.90851 0
M  V30 15301 C 1465.04 -1.06262 3.31064 0
M  V30 15302 H 1464.36 -0.4968 3.96701 0
M  V30 15303 H 1465.8 -1.53556 3.95217 0
M  V30 15304 C 1464.26 -2.14601 2.59707 0
M  V30 15305 O 1464.79 -3.2263 2.39317 0
M  V30 15306 N 1463 -1.90431 2.19509 0
M  V30 15307 H 1462.55 -1.02584 2.36293 0
M  V30 15308 H 1462.5 -2.6312 1.72091 0
M  V30 15309 N 1466.28 -1.53251 0.367684 0
M  V30 15310 C 1467.5 -2.0618 -0.224645 0
M  V30 15311 C 1467.93 -1.23927 -1.41505 0
M  V30 15312 O 1467.28 -0.258858 -1.79443 0
M  V30 15313 C 1467.33 -3.55671 -0.594171 0
M  V30 15314 O 1466.44 -3.76132 -1.69112 0
M  V30 15315 H 1465.78 -0.663218 -0.0322099 0
M  V30 15316 H 1468.31 -1.97646 0.528897 0
M  V30 15317 H 1468.32 -3.98734 -0.864589 0
M  V30 15318 H 1466.99 -4.14982 0.276254 0
M  V30 15319 H 1465.57 -3.44965 -1.41609 0
M  V30 15320 N 1467.75 -0.0969077 -1.57302 0
M  V30 15321 C 1468.68 0.858443 -2.17147 0
M  V30 15322 C 1469.66 1.29294 -1.10531 0
M  V30 15323 O 1470.85 1.3595 -1.38676 0
M  V30 15324 C 1467.98 2.11691 -2.75326 0
M  V30 15325 C 1466.93 1.82097 -3.8733 0
M  V30 15326 C 1466.26 3.14787 -4.32219 0
M  V30 15327 C 1467.56 1.10651 -5.10444 0
M  V30 15328 H 1469.25 0.35982 -2.9723 0
M  V30 15329 H 1466.8 0.17163 -1.42974 0
M  V30 15330 H 1468.75 2.78963 -3.15844 0
M  V30 15331 H 1467.48 2.63839 -1.925 0
M  V30 15332 H 1466.14 1.17222 -3.47354 0
M  V30 15333 H 1465.78 3.64826 -3.46281 0
M  V30 15334 H 1465.48 2.95769 -5.07735 0
M  V30 15335 H 1467.01 3.83215 -4.75372 0
M  V30 15336 H 1468.42 1.68036 -5.48121 0
M  V30 15337 H 1466.82 1.01805 -5.91401 0
M  V30 15338 H 1467.89 0.0895634 -4.84817 0
M  V30 15339 N 1469.23 1.56605 0.176793 0
M  V30 15340 C 1470.18 1.95985 1.21896 0
M  V30 15341 C 1471.15 0.822983 1.44278 0
M  V30 15342 O 1472.33 1.08266 1.57109 0
M  V30 15343 C 1469.47 2.32029 2.55454 0
M  V30 15344 C 1468.59 3.58867 2.40497 0
M  V30 15345 C 1467.72 3.84148 3.66884 0
M  V30 15346 C 1466.76 5.04352 3.46837 0
M  V30 15347 N 1465.9 5.25794 4.6528 0
M  V30 15348 H 1470.74 2.84829 0.876137 0
M  V30 15349 H 1468.27 1.4094 0.421221 0
M  V30 15350 H 1470.23 2.50947 3.33289 0
M  V30 15351 H 1468.86 1.46301 2.87743 0
M  V30 15352 H 1467.91 3.47893 1.53866 0
M  V30 15353 H 1469.23 4.46859 2.21627 0
M  V30 15354 H 1468.38 4.03404 4.53155 0
M  V30 15355 H 1467.12 2.9452 3.88727 0
M  V30 15356 H 1466.12 4.84999 2.58952 0
M  V30 15357 H 1467.35 5.95505 3.26421 0
M  V30 15358 H 1465.3 4.39117 4.87352 0
M  V30 15359 H 1465.21 6.07999 4.49303 0
M  V30 15360 H 1466.48 5.49524 5.5285 0
M  V30 15361 N 1470.71 -0.445159 1.51182 0
M  V30 15362 C 1471.66 -1.53798 1.68316 0
M  V30 15363 C 1472.64 -1.51666 0.537244 0
M  V30 15364 O 1473.84 -1.58251 0.792818 0
M  V30 15365 C 1470.96 -2.92053 1.80444 0
M  V30 15366 C 1470.05 -2.98971 3.00794 0
M  V30 15367 N 1470.44 -2.75648 4.24089 0
M  V30 15368 C 1468.74 -3.30127 2.99887 0
M  V30 15369 C 1469.44 -2.88206 5.05284 0
M  V30 15370 N 1468.42 -3.19538 4.39769 0
M  V30 15371 H 1472.22 -1.34506 2.61315 0
M  V30 15372 H 1469.73 -0.652341 1.48722 0
M  V30 15373 H 1471.73 -3.70663 1.90827 0
M  V30 15374 H 1470.39 -3.12372 0.886204 0
M  V30 15375 H 1471.4 -2.50727 4.53163 0
M  V30 15376 H 1468.08 -3.5627 2.17665 0
M  V30 15377 H 1469.47 -2.74194 6.13406 0
M  V30 15378 N 1472.19 -1.41197 -0.700089 0
M  V30 15379 C 1473.13 -1.42688 -1.81407 0
M  V30 15380 C 1474.1 -0.28182 -1.63692 0
M  V30 15381 O 1475.29 -0.482196 -1.84606 0
M  V30 15382 C 1472.43 -1.31041 -3.19252 0
M  V30 15383 C 1471.54 -2.5538 -3.48432 0
M  V30 15384 C 1470.68 -2.3606 -4.75867 0
M  V30 15385 C 1469.72 -3.55898 -4.97999 0
M  V30 15386 N 1468.85 -3.35676 -6.16657 0
M  V30 15387 H 1473.69 -2.37898 -1.79467 0
M  V30 15388 H 1471.23 -1.18137 -0.87647 0
M  V30 15389 H 1473.19 -1.22292 -3.98874 0
M  V30 15390 H 1471.82 -0.394422 -3.20381 0
M  V30 15391 H 1470.87 -2.74598 -2.6325 0
M  V30 15392 H 1472.18 -3.44535 -3.6069 0
M  V30 15393 H 1471.34 -2.24752 -5.63535 0
M  V30 15394 H 1470.08 -1.44355 -4.65846 0
M  V30 15395 H 1469.08 -3.67665 -4.08781 0
M  V30 15396 H 1470.31 -4.4855 -5.09882 0
M  V30 15397 H 1468.25 -2.46667 -6.07858 0
M  V30 15398 H 1468.17 -4.18404 -6.29662 0
M  V30 15399 H 1469.44 -3.28132 -7.07071 0
M  V30 15400 N 1473.67 0.933891 -1.2695 0
M  V30 15401 C 1475.08 1.49578 -1.11728 0
M  V30 15402 C 1475.43 1.93895 0.299889 0
M  V30 15403 O 1474.55 1.806 1.19216 0
M  V30 15404 C 1475.15 2.71841 -2.02208 0
M  V30 15405 C 1473.71 3.24274 -1.9111 0
M  V30 15406 C 1472.85 1.97029 -1.95128 0
M  V30 15407 H 1475.8 0.748628 -1.39933 0
M  V30 15408 H 1475.83 3.46407 -1.57425 0
M  V30 15409 H 1475.34 2.39556 -3.05343 0
M  V30 15410 H 1473.44 3.61333 -0.909367 0
M  V30 15411 H 1473.55 3.90887 -2.77027 0
M  V30 15412 H 1471.92 2.13249 -1.39273 0
M  V30 15413 H 1472.7 1.67066 -2.99907 0
M  V30 15414 N 1475.14 1.08871 1.13951 0
M  V30 15415 C 1476.55 0.841552 1.66658 0
M  V30 15416 C 1476.91 -0.630932 1.85779 0
M  V30 15417 O 1476.03 -1.48673 1.57243 0
M  V30 15418 C 1476.63 1.52109 3.02735 0
M  V30 15419 C 1475.18 1.32105 3.52456 0
M  V30 15420 C 1474.33 1.58084 2.27826 0
M  V30 15421 H 1477.28 1.24865 0.97951 0
M  V30 15422 H 1477.3 0.950978 3.68425 0
M  V30 15423 H 1476.82 2.59276 2.88786 0
M  V30 15424 H 1474.92 0.270294 3.71618 0
M  V30 15425 H 1475.03 2.05197 4.32933 0
M  V30 15426 H 1473.39 1.00264 2.34135 0
M  V30 15427 H 1474.18 2.66467 2.16449 0
M  V30 15428 N 1476.62 -1.31073 0.875073 0
M  V30 15429 C 1477.85 -2.01223 0.502383 0
M  V30 15430 C 1478.27 -1.65223 -0.899053 0
M  V30 15431 O 1477.63 -0.863559 -1.59412 0
M  V30 15432 C 1477.68 -3.54269 0.672747 0
M  V30 15433 O 1476.78 -4.11409 -0.285718 0
M  V30 15434 H 1476.12 -0.633422 0.199181 0
M  V30 15435 H 1478.65 -1.67152 1.17989 0
M  V30 15436 H 1478.66 -4.04027 0.567973 0
M  V30 15437 H 1477.34 -3.79811 1.69459 0
M  V30 15438 H 1475.91 -3.72654 -0.135472 0
M  V30 15439 N 1478.1 -0.635022 -1.4424 0
M  V30 15440 C 1479.06 0.0579377 -2.29127 0
M  V30 15441 C 1480.06 0.768489 -1.41248 0
M  V30 15442 O 1481.25 0.612489 -1.63077 0
M  V30 15443 C 1478.39 1.09266 -3.22914 0
M  V30 15444 H 1479.58 -0.688723 -2.91885 0
M  V30 15445 H 1477.13 -0.395347 -1.51217 0
M  V30 15446 H 1477.87 1.86917 -2.65014 0
M  V30 15447 H 1477.65 0.587036 -3.87681 0
M  V30 15448 H 1479.14 1.57716 -3.86672 0
M  V30 15449 N 1479.58 1.53054 -0.375806 0
M  V30 15450 C 1480.49 2.29772 0.47349 0
M  V30 15451 C 1481.5 1.36144 1.08355 0
M  V30 15452 O 1482.68 1.69208 1.09228 0
M  V30 15453 C 1479.75 3.07964 1.59245 0
M  V30 15454 C 1478.81 4.17277 1.00888 0
M  V30 15455 C 1478.04 4.91731 2.07451 0
M  V30 15456 O 1478.26 4.66143 3.28736 0
M  V30 15457 O 1477.2 5.77413 1.69936 0
M  V30 15458 H 1481.02 3.03324 -0.151105 0
M  V30 15459 H 1478.61 1.48744 -0.139895 0
M  V30 15460 H 1480.49 3.56759 2.24279 0
M  V30 15461 H 1479.16 2.37239 2.20226 0
M  V30 15462 H 1478.07 3.7271 0.322167 0
M  V30 15463 H 1479.4 4.90198 0.443483 0
M  V30 15464 N 1481.06 0.105248 1.57248 0
M  V30 15465 C 1482.01 -0.860855 2.11124 0
M  V30 15466 C 1482.99 -1.23721 1.02868 0
M  V30 15467 O 1484.18 -1.2106 1.29126 0
M  V30 15468 C 1481.31 -2.11612 2.70325 0
M  V30 15469 C 1480.4 -1.76474 3.85639 0
M  V30 15470 N 1480.79 -1.11944 4.93257 0
M  V30 15471 C 1479.09 -2.0602 3.95565 0
M  V30 15472 C 1479.79 -0.956421 5.73783 0
M  V30 15473 N 1478.76 -1.47701 5.23149 0
M  V30 15474 H 1482.57 -0.35816 2.91709 0
M  V30 15475 H 1480.08 -0.0976543 1.62106 0
M  V30 15476 H 1482.08 -2.81778 3.07257 0
M  V30 15477 H 1480.74 -2.62438 1.91198 0
M  V30 15478 H 1481.75 -0.785042 5.11916 0
M  V30 15479 H 1478.42 -2.58989 3.27461 0
M  V30 15480 H 1479.81 -0.450964 6.70385 0
M  V30 15481 N 1482.53 -1.56697 -0.168486 0
M  V30 15482 C 1483.44 -1.99866 -1.22845 0
M  V30 15483 C 1484.46 -0.910491 -1.48277 0
M  V30 15484 O 1485.64 -1.21834 -1.6037 0
M  V30 15485 C 1482.7 -2.35227 -2.54694 0
M  V30 15486 C 1481.76 -3.57886 -2.37099 0
M  V30 15487 C 1481 -3.91551 -3.62661 0
M  V30 15488 O 1481.22 -3.26148 -4.67957 0
M  V30 15489 O 1480.15 -4.8489 -3.56603 0
M  V30 15490 H 1483.98 -2.90305 -0.892015 0
M  V30 15491 H 1481.56 -1.44602 -0.375571 0
M  V30 15492 H 1483.45 -2.58928 -3.32467 0
M  V30 15493 H 1482.12 -1.4795 -2.87911 0
M  V30 15494 H 1481.03 -3.394 -1.57348 0
M  V30 15495 H 1482.36 -4.45714 -2.08806 0
M  V30 15496 N 1484.01 0.437135 -1.51416 0
M  V30 15497 C 1485.24 1.21359 -1.68187 0
M  V30 15498 C 1485.66 1.84247 -0.378748 0
M  V30 15499 O 1485.02 1.68816 0.661115 0
M  V30 15500 C 1485.07 2.27319 -2.79926 0
M  V30 15501 O 1484.17 3.32807 -2.43543 0
M  V30 15502 H 1483.51 0.355547 -0.560787 0
M  V30 15503 H 1486.04 0.516204 -1.97981 0
M  V30 15504 H 1486.05 2.721 -3.04016 0
M  V30 15505 H 1484.73 1.80923 -3.74486 0
M  V30 15506 H 1483.31 2.93501 -2.30025 0
M  V30 15507 N 1485.49 1.41566 0.692592 0
M  V30 15508 C 1486.42 1.46423 1.81886 0
M  V30 15509 C 1487.4 0.32258 1.67013 0
M  V30 15510 O 1488.59 0.534437 1.86701 0
M  V30 15511 C 1485.72 1.3486 3.20047 0
M  V30 15512 C 1484.67 2.46867 3.49629 0
M  V30 15513 C 1484 2.20369 4.87177 0
M  V30 15514 C 1485.3 3.89205 3.48306 0
M  V30 15515 H 1486.99 2.40683 1.78079 0
M  V30 15516 H 1484.54 1.15845 0.855334 0
M  V30 15517 H 1486.49 1.36869 3.98553 0
M  V30 15518 H 1485.21 0.370859 3.24488 0
M  V30 15519 H 1483.87 2.44146 2.73475 0
M  V30 15520 H 1483.52 1.20931 4.88247 0
M  V30 15521 H 1483.22 2.95426 5.07934 0
M  V30 15522 H 1484.74 2.24099 5.6799 0
M  V30 15523 H 1486.16 3.93626 4.16811 0
M  V30 15524 H 1484.56 4.63969 3.80595 0
M  V30 15525 H 1485.63 4.17144 2.47222 0
M  V30 15526 N 1486.97 -0.927146 1.27443 0
M  V30 15527 C 1487.9 -2.04483 1.12735 0
M  V30 15528 C 1488.88 -1.70076 0.0286662 0
M  V30 15529 O 1490.06 -1.93133 0.203252 0
M  V30 15530 C 1487.19 -3.38557 0.774352 0
M  V30 15531 C 1486.15 -3.87078 1.82632 0
M  V30 15532 C 1485.47 -5.17964 1.32729 0
M  V30 15533 C 1486.77 -4.10409 3.23051 0
M  V30 15534 H 1488.47 -2.17046 2.06231 0
M  V30 15535 H 1486.01 -1.04292 0.992937 0
M  V30 15536 H 1487.97 -4.16227 0.658273 0
M  V30 15537 H 1486.69 -3.26009 -0.196321 0
M  V30 15538 H 1485.35 -3.11602 1.93132 0
M  V30 15539 H 1485 -5.01808 0.346059 0
M  V30 15540 H 1484.7 -5.51398 2.03061 0
M  V30 15541 H 1486.22 -5.98203 1.22416 0
M  V30 15542 H 1487.64 -4.78646 3.15549 0
M  V30 15543 H 1486.03 -4.5515 3.91099 0
M  V30 15544 H 1487.1 -3.15685 3.68064 0
M  V30 15545 N 1488.45 -1.09474 -1.13372 0
M  V30 15546 C 1489.67 -0.853093 -1.89043 0
M  V30 15547 C 1490.1 0.590075 -1.78605 0
M  V30 15548 O 1489.45 1.41462 -1.13394 0
M  V30 15549 C 1489.5 -1.29359 -3.36599 0
M  V30 15550 O 1488.61 -0.452355 -4.09912 0
M  V30 15551 H 1487.95 -0.308922 -0.587761 0
M  V30 15552 H 1490.48 -1.459 -1.43437 0
M  V30 15553 H 1490.49 -1.27921 -3.87428 0
M  V30 15554 H 1489.16 -2.3446 -3.43513 0
M  V30 15555 H 1487.74 -0.531098 -3.69099 0
M  V30 15556 N 1489.92 1.30607 -0.882012 0
M  V30 15557 C 1490.89 2.26489 -0.351498 0
M  V30 15558 C 1491.89 1.52686 0.504348 0
M  V30 15559 O 1493.08 1.71385 0.311928 0
M  V30 15560 C 1490.21 3.37222 0.499435 0
M  V30 15561 H 1491.4 2.74929 -1.19809 0
M  V30 15562 H 1488.96 1.41746 -0.658616 0
M  V30 15563 H 1489.69 2.94093 1.36673 0
M  V30 15564 H 1489.48 3.91936 -0.11356 0
M  V30 15565 H 1490.97 4.08596 0.862497 0
M  V30 15566 N 1491.4 0.642663 1.43901 0
M  V30 15567 C 1492.31 -0.0562462 2.34533 0
M  V30 15568 C 1493.33 -0.823457 1.53281 0
M  V30 15569 O 1494.5 -0.773103 1.85971 0
M  V30 15570 C 1491.57 -1.01787 3.31422 0
M  V30 15571 C 1490.63 -0.248759 4.28579 0
M  V30 15572 C 1489.86 -1.16458 5.20839 0
M  V30 15573 O 1490.09 -2.40361 5.17284 0
M  V30 15574 O 1489.02 -0.642671 5.98459 0
M  V30 15575 H 1492.85 0.689476 2.9577 0
M  V30 15576 H 1490.43 0.402847 1.43866 0
M  V30 15577 H 1492.31 -1.5708 3.91029 0
M  V30 15578 H 1490.99 -1.744 2.72702 0
M  V30 15579 H 1489.9 0.347495 3.72483 0
M  V30 15580 H 1491.23 0.437589 4.90251 0
M  V30 15581 N 1492.88 -1.52852 0.383918 0
M  V30 15582 C 1494.3 -1.59565 0.0336391 0
M  V30 15583 C 1494.5 -1.39819 -1.45097 0
M  V30 15584 O 1493.55 -1.21249 -2.21484 0
M  V30 15585 C 1494.87 -2.96412 0.506001 0
M  V30 15586 C 1496.41 -3.09575 0.461794 0
M  V30 15587 C 1496.89 -4.48863 0.910259 0
M  V30 15588 N 1498.38 -4.55032 0.866053 0
M  V30 15589 C 1499.12 -5.61032 1.18453 0
M  V30 15590 N 1498.61 -6.74701 1.57321 0
M  V30 15591 N 1500.4 -5.51109 1.10613 0
M  V30 15592 H 1492.56 -1.63937 1.3505 0
M  V30 15593 H 1494.82 -0.769857 0.553194 0
M  V30 15594 H 1494.52 -3.16061 1.54268 0
M  V30 15595 H 1494.4 -3.77073 -0.0977643 0
M  V30 15596 H 1496.79 -2.89625 -0.565786 0
M  V30 15597 H 1496.87 -2.30879 1.10129 0
M  V30 15598 H 1496.51 -4.69553 1.93604 0
M  V30 15599 H 1496.44 -5.26017 0.247825 0
M  V30 15600 H 1498.93 -3.73423 0.579962 0
M  V30 15601 H 1499.24 -7.51545 1.8 0
M  V30 15602 H 1497.59 -6.76046 1.61203 0
M  V30 15603 H 1500.78 -4.61187 0.801531 0
M  V30 15604 H 1500.95 -6.33618 1.35766 0
M  V30 15605 N 1494.36 -0.113586 -1.5719 0
M  V30 15606 C 1495.61 0.544642 -1.94623 0
M  V30 15607 C 1495.93 1.6756 -0.997428 0
M  V30 15608 O 1495.2 1.95829 -0.0527521 0
M  V30 15609 H 1493.78 0.204186 -0.718552 0
M  V30 15610 H 1496.44 -0.181258 -1.94055 0
M  V30 15611 H 1495.54 0.942765 -2.9752 0
M  V30 15612 N 1495.84 1.56784 0.160173 0
M  V30 15613 C 1497.09 1.8226 0.873253 0
M  V30 15614 C 1497.41 0.692384 1.82294 0
M  V30 15615 O 1496.68 -0.286961 1.93787 0
M  V30 15616 H 1495.26 0.672371 0.325463 0
M  V30 15617 H 1497.92 1.94264 0.157325 0
M  V30 15618 H 1497.01 2.76714 1.44345 0
M  V30 15619 N 1497.32 -0.429099 1.51646 0
M  V30 15620 C 1498.56 -1.17551 1.64396 0
M  V30 15621 C 1498.88 -1.91526 0.366444 0
M  V30 15622 O 1498.15 -1.85896 -0.618013 0
M  V30 15623 H 1496.73 -0.436918 0.605898 0
M  V30 15624 H 1499.4 -0.491159 1.8861 0
M  V30 15625 H 1498.49 -1.90057 2.47557 0
M  V30 15626 N 1498.79 -1.41931 -0.685074 0
M  V30 15627 C 1499.76 -1.44315 -1.78061 0
M  V30 15628 C 1500.76 -0.332215 -1.57331 0
M  V30 15629 O 1501.95 -0.59258 -1.63811 0
M  V30 15630 C 1499.08 -1.26479 -3.16569 0
M  V30 15631 H 1500.27 -2.4185 -1.77337 0
M  V30 15632 H 1497.82 -1.28228 -0.893721 0
M  V30 15633 H 1498.56 -0.298259 -3.22926 0
M  V30 15634 H 1498.34 -2.06981 -3.33018 0
M  V30 15635 H 1499.83 -1.31006 -3.96519 0
M  V30 15636 N 1500.27 0.920374 -1.27933 0
M  V30 15637 C 1501.69 1.19761 -1.05496 0
M  V30 15638 C 1501.89 2.00435 0.206864 0
M  V30 15639 O 1500.94 2.35518 0.910356 0
M  V30 15640 C 1502.26 1.93863 -2.29864 0
M  V30 15641 C 1503.8 2.06773 -2.34976 0
M  V30 15642 C 1504.28 2.84282 -3.59093 0
M  V30 15643 N 1505.77 2.91847 -3.59694 0
M  V30 15644 C 1506.51 3.52303 -4.52404 0
M  V30 15645 N 1506 4.14092 -5.55427 0
M  V30 15646 N 1507.79 3.49778 -4.40013 0
M  V30 15647 H 1499.95 0.381596 -2.08944 0
M  V30 15648 H 1502.21 0.231451 -0.919312 0
M  V30 15649 H 1501.91 1.42008 -3.21756 0
M  V30 15650 H 1501.79 2.94446 -2.35757 0
M  V30 15651 H 1504.18 2.57812 -1.43586 0
M  V30 15652 H 1504.26 1.05388 -2.33082 0
M  V30 15653 H 1503.9 2.33925 -4.50823 0
M  V30 15654 H 1503.83 3.85968 -3.5824 0
M  V30 15655 H 1506.32 2.4794 -2.85191 0
M  V30 15656 H 1506.63 4.58183 -6.22325 0
M  V30 15657 H 1504.98 4.12616 -5.59261 0
M  V30 15658 H 1508.17 3.00712 -3.58733 0
M  V30 15659 H 1508.34 3.96603 -5.12455 0
M  V30 15660 N 1501.75 1.10074 1.1279 0
M  V30 15661 C 1503 0.842118 1.84489 0
M  V30 15662 C 1503.33 -0.630737 1.83672 0
M  V30 15663 O 1502.6 -1.46481 1.27959 0
M  V30 15664 C 1502.89 1.3864 3.32342 0
M  V30 15665 C 1502.74 2.92585 3.41635 0
M  V30 15666 C 1504.06 1.02565 4.27982 0
M  V30 15667 H 1501.18 0.307376 0.669842 0
M  V30 15668 H 1503.82 1.36326 1.32345 0
M  V30 15669 H 1501.97 0.943134 3.76878 0
M  V30 15670 H 1503.64 3.4541 3.0576 0
M  V30 15671 H 1501.88 3.29378 2.82299 0
M  V30 15672 H 1502.56 3.25749 4.45636 0
M  V30 15673 H 1505.03 1.40807 3.91552 0
M  V30 15674 H 1503.91 1.43345 5.29852 0
M  V30 15675 H 1504.17 -0.0653712 4.42052 0
M  V30 15676 N 1503.23 -1.30138 0.888926 0
M  V30 15677 C 1504.47 -1.97776 0.516122 0
M  V30 15678 C 1504.83 -1.68613 -0.918358 0
M  V30 15679 O 1506.03 -2.29617 -1.39748 0
M  V30 15680 C 1504.3 -3.48608 0.787866 0
M  V30 15681 S 1505.86 -4.35735 0.517757 0
M  V30 15682 H 1502.68 -0.684617 0.191885 0
M  V30 15683 H 1505.28 -1.58168 1.14904 0
M  V30 15684 H 1503.99 -3.67326 1.8303 0
M  V30 15685 H 1503.52 -3.93141 0.142652 0
M  V30 15686 H 1505.53 -4.9203 -0.64192 0
M  V30 15687 N 1504.71 -0.650285 -1.43559 0
M  V30 15688 C 1505.62 0.0438076 -2.34559 0
M  V30 15689 C 1506.63 0.815316 -1.53716 0
M  V30 15690 O 1507.81 0.76323 -1.86378 0
M  V30 15691 C 1504.87 1.00028 -3.31957 0
M  V30 15692 C 1503.93 0.226027 -4.28705 0
M  V30 15693 C 1503.17 1.13694 -5.21449 0
M  V30 15694 O 1503.39 2.37614 -5.18551 0
M  V30 15695 O 1502.32 0.610924 -5.98792 0
M  V30 15696 H 1506.15 -0.705152 -2.954 0
M  V30 15697 H 1503.73 -0.410471 -1.43651 0
M  V30 15698 H 1505.62 1.55004 -3.91857 0
M  V30 15699 H 1504.29 1.72952 -2.73623 0
M  V30 15700 H 1503.2 -0.367244 -3.72293 0
M  V30 15701 H 1504.53 -0.463582 -4.90012 0
M  V30 15702 N 1506.18 1.52647 -0.392018 0
M  V30 15703 C 1507.43 2.01912 0.18958 0
M  V30 15704 C 1507.76 1.27786 1.46234 0
M  V30 15705 O 1507.04 0.379124 1.90769 0
M  V30 15706 C 1507.32 3.57217 0.454734 0
M  V30 15707 C 1507.17 4.4201 -0.833501 0
M  V30 15708 C 1508.49 4.22146 1.24421 0
M  V30 15709 H 1505.61 0.733909 0.0674281 0
M  V30 15710 H 1508.25 1.82685 -0.52212 0
M  V30 15711 H 1506.4 3.73731 1.06101 0
M  V30 15712 H 1508.08 4.37242 -1.47027 0
M  V30 15713 H 1506.32 4.08912 -1.44823 0
M  V30 15714 H 1506.99 5.48701 -0.602585 0
M  V30 15715 H 1509.47 4.09627 0.731093 0
M  V30 15716 H 1508.34 5.30786 1.39848 0
M  V30 15717 H 1508.6 3.7996 2.26016 0
M  V30 15718 N 1507.66 0.121921 1.57128 0
M  V30 15719 C 1508.63 -0.812905 2.143 0
M  V30 15720 C 1509.63 -1.19261 1.07858 0
M  V30 15721 O 1510.82 -1.11764 1.33621 0
M  V30 15722 C 1507.95 -2.09969 2.68562 0
M  V30 15723 H 1509.14 -0.315992 2.98231 0
M  V30 15724 H 1506.69 -0.12734 1.5578 0
M  V30 15725 H 1507.43 -2.64085 1.88228 0
M  V30 15726 H 1507.21 -1.83688 3.46412 0
M  V30 15727 H 1508.7 -2.76788 3.12695 0
M  V30 15728 N 1509.14 -1.56867 -0.151857 0
M  V30 15729 C 1510.1 -1.96997 -1.17152 0
M  V30 15730 C 1511.1 -0.855905 -1.36128 0
M  V30 15731 O 1512.29 -1.12261 -1.33203 0
M  V30 15732 C 1509.43 -2.28171 -2.5328 0
M  V30 15733 H 1510.62 -2.88261 -0.827365 0
M  V30 15734 H 1508.17 -1.51226 -0.395024 0
M  V30 15735 H 1508.91 -1.39683 -2.92676 0
M  V30 15736 H 1508.69 -3.09394 -2.40869 0
M  V30 15737 H 1510.18 -2.60073 -3.26729 0
M  V30 15738 N 1510.62 0.421051 -1.51871 0
M  V30 15739 C 1511.9 1.18133 -1.55897 0
M  V30 15740 C 1512.28 2.08459 -0.332876 0
M  V30 15741 O 1511.62 2.18114 0.681052 0
M  V30 15742 C 1511.83 1.96902 -2.88151 0
M  V30 15743 C 1513.18 2.53382 -3.4071 0
M  V30 15744 O 1514.21 2.07095 -2.89811 0
M  V30 15745 O 1513.06 3.37846 -4.29561 0
M  V30 15746 H 1510.16 0.538721 -0.627462 0
M  V30 15747 H 1512.7 0.428798 -1.64193 0
M  V30 15748 H 1511.48 1.30659 -3.68841 0
M  V30 15749 H 1511.1 2.79185 -2.83093 0
M  V30 15750 N 1512.1 1.42293 0.677538 0
M  V30 15751 C 1513.01 1.47953 1.82063 0
M  V30 15752 C 1514.02 0.36851 1.70053 0
M  V30 15753 O 1515.2 0.618996 1.91652 0
M  V30 15754 C 1512.26 1.3769 3.18186 0
M  V30 15755 C 1511.32 2.59261 3.42173 0
M  V30 15756 C 1510.56 2.49478 4.71801 0
M  V30 15757 O 1510.78 1.52915 5.49521 0
M  V30 15758 O 1509.71 3.39562 4.96972 0
M  V30 15759 H 1513.54 2.4443 1.80244 0
M  V30 15760 H 1511.13 1.24027 0.832932 0
M  V30 15761 H 1513.01 1.34319 3.9942 0
M  V30 15762 H 1511.68 0.443377 3.20649 0
M  V30 15763 H 1510.59 2.68207 2.60798 0
M  V30 15764 H 1511.92 3.51503 3.44538 0
M  V30 15765 N 1513.57 -0.913576 1.28419 0
M  V30 15766 C 1514.82 -1.65944 1.15355 0
M  V30 15767 C 1515.14 -1.92706 -0.298228 0
M  V30 15768 O 1514.41 -1.54333 -1.20657 0
M  V30 15769 H 1512.99 -0.615063 0.423919 0
M  V30 15770 H 1515.66 -1.0962 1.6115 0
M  V30 15771 H 1514.75 -2.62173 1.69327 0
M  V30 15772 N 1515.05 -1.1067 -1.12204 0
M  V30 15773 C 1516.46 -0.867959 -1.65298 0
M  V30 15774 C 1516.81 0.601297 -1.86759 0
M  V30 15775 O 1515.94 1.46153 -1.59588 0
M  V30 15776 C 1516.53 -1.56906 -3.00276 0
M  V30 15777 C 1515.09 -1.37696 -3.5031 0
M  V30 15778 C 1514.24 -1.61688 -2.25282 0
M  V30 15779 H 1517.19 -1.26408 -0.959521 0
M  V30 15780 H 1517.21 -1.00947 -3.66865 0
M  V30 15781 H 1516.72 -2.63838 -2.84625 0
M  V30 15782 H 1514.83 -0.329381 -3.71141 0
M  V30 15783 H 1514.94 -2.12058 -4.29614 0
M  V30 15784 H 1513.3 -1.03977 -2.3251 0
M  V30 15785 H 1514.09 -2.69877 -2.12182 0
M  V30 15786 N 1516.53 1.29665 -0.895815 0
M  V30 15787 C 1517.94 1.77825 -0.568784 0
M  V30 15788 C 1518.29 1.73534 0.915443 0
M  V30 15789 O 1517.42 1.31885 1.71567 0
M  V30 15790 C 1518.01 3.22901 -1.0257 0
M  V30 15791 C 1516.57 3.68854 -0.749903 0
M  V30 15792 C 1515.72 2.49866 -1.20259 0
M  V30 15793 H 1518.67 1.16381 -1.07894 0
M  V30 15794 H 1518.69 3.788 -0.359312 0
M  V30 15795 H 1518.2 3.25991 -2.10597 0
M  V30 15796 H 1516.3 3.71241 0.317916 0
M  V30 15797 H 1516.42 4.59831 -1.34506 0
M  V30 15798 H 1514.78 2.46997 -0.621676 0
M  V30 15799 H 1515.56 2.55687 -2.29083 0
M  V30 15800 N 1518.01 0.657889 1.43212 0
M  V30 15801 C 1519.42 0.325876 1.56238 0
M  V30 15802 C 1519.62 -1.16975 1.6407 0
M  V30 15803 O 1518.68 -1.95473 1.59833 0
M  V30 15804 C 1519.99 1.04134 2.82093 0
M  V30 15805 C 1521.54 1.02204 2.95844 0
M  V30 15806 C 1522.02 1.71849 4.24537 0
M  V30 15807 N 1523.51 1.68635 4.31412 0
M  V30 15808 C 1524.24 2.19393 5.29768 0
M  V30 15809 N 1523.74 2.7846 6.34375 0
M  V30 15810 N 1525.53 2.09866 5.21452 0
M  V30 15811 H 1517.68 1.62839 1.36371 0
M  V30 15812 H 1519.95 0.685072 0.655271 0
M  V30 15813 H 1519.65 2.09647 2.82385 0
M  V30 15814 H 1519.53 0.595842 3.72464 0
M  V30 15815 H 1521.91 -0.0247029 2.9509 0
M  V30 15816 H 1521.99 1.50627 2.06749 0
M  V30 15817 H 1521.64 2.76482 4.26052 0
M  V30 15818 H 1521.57 1.20888 5.12536 0
M  V30 15819 H 1524.06 1.25536 3.56439 0
M  V30 15820 H 1524.37 3.14855 7.05752 0
M  V30 15821 H 1522.72 2.82523 6.34985 0
M  V30 15822 H 1525.91 1.63422 4.38647 0
M  V30 15823 H 1526.08 2.49732 5.97945 0
M  V30 15824 N 1519.49 -1.52437 0.400108 0
M  V30 15825 C 1520.45 -2.2536 -0.417808 0
M  V30 15826 C 1521.45 -1.27393 -0.981204 0
M  V30 15827 O 1522.64 -1.51406 -0.861503 0
M  V30 15828 C 1519.77 -3.01695 -1.58724 0
M  V30 15829 H 1520.96 -2.99086 0.220782 0
M  V30 15830 H 1518.52 -1.55555 0.152439 0
M  V30 15831 H 1519.25 -2.32295 -2.26295 0
M  V30 15832 H 1519.04 -3.73611 -1.18984 0
M  V30 15833 H 1520.53 -3.57033 -2.16604 0
M  V30 15834 N 1520.96 -0.130252 -1.57061 0
M  V30 15835 C 1521.93 0.801529 -2.14728 0
M  V30 15836 C 1522.93 1.18687 -1.08489 0
M  V30 15837 O 1524.12 1.11054 -1.34211 0
M  V30 15838 C 1521.25 2.08542 -2.69672 0
M  V30 15839 H 1522.44 0.300172 -2.98394 0
M  V30 15840 H 1520 0.119077 -1.55846 0
M  V30 15841 H 1520.73 2.63083 -1.89625 0
M  V30 15842 H 1520.52 1.81849 -3.47381 0
M  V30 15843 H 1522.01 2.75126 -3.14158 0
M  V30 15844 N 1522.44 1.56945 0.143535 0
M  V30 15845 C 1523.85 1.72949 0.703249 0
M  V30 15846 C 1524.21 0.745193 1.81497 0
M  V30 15847 O 1523.33 -0.0874144 2.16223 0
M  V30 15848 C 1523.93 3.1359 1.28244 0
M  V30 15849 C 1522.48 3.31184 1.78869 0
M  V30 15850 C 1521.63 2.6887 0.678531 0
M  V30 15851 H 1524.58 1.58487 -0.0821664 0
M  V30 15852 H 1524.6 3.13782 2.15224 0
M  V30 15853 H 1524.12 3.85206 0.473087 0
M  V30 15854 H 1522.22 2.64571 2.6236 0
M  V30 15855 H 1522.33 4.39163 1.91502 0
M  V30 15856 H 1520.69 2.29432 1.10603 0
M  V30 15857 H 1521.48 3.43092 -0.119437 0
M  V30 15858 N 1523.92 -0.412991 1.52093 0
M  V30 15859 C 1524.85 -1.50986 1.78117 0
M  V30 15860 C 1525.83 -1.57925 0.631963 0
M  V30 15861 O 1527.02 -1.73261 0.877168 0
M  V30 15862 C 1524.15 -2.88846 1.92835 0
M  V30 15863 C 1523.1 -2.96759 3.08412 0
M  V30 15864 C 1522.43 -4.36837 3.08347 0
M  V30 15865 C 1523.73 -2.68599 4.47942 0
M  V30 15866 H 1525.42 -1.29459 2.69964 0
M  V30 15867 H 1522.97 -0.621348 1.29905 0
M  V30 15868 H 1524.92 -3.65563 2.09623 0
M  V30 15869 H 1523.64 -3.11658 0.976553 0
M  V30 15870 H 1522.3 -2.22487 2.91368 0
M  V30 15871 H 1521.95 -4.56652 2.10897 0
M  V30 15872 H 1521.65 -4.43056 3.85973 0
M  V30 15873 H 1523.18 -5.15493 3.2726 0
M  V30 15874 H 1524.59 -3.35039 4.65212 0
M  V30 15875 H 1522.99 -2.86199 5.27456 0
M  V30 15876 H 1524.06 -1.64058 4.56304 0
M  V30 15877 N 1525.4 -1.4265 -0.669982 0
M  V30 15878 C 1526.35 -1.42958 -1.77615 0
M  V30 15879 C 1527.33 -0.30025 -1.58074 0
M  V30 15880 O 1528.53 -0.54283 -1.68471 0
M  V30 15881 C 1525.65 -1.33911 -3.16106 0
M  V30 15882 C 1524.74 -2.51808 -3.41253 0
M  V30 15883 N 1525.13 -3.77216 -3.36959 0
M  V30 15884 C 1523.43 -2.46172 -3.71908 0
M  V30 15885 C 1524.13 -4.55555 -3.61724 0
M  V30 15886 N 1523.11 -3.86036 -3.82724 0
M  V30 15887 H 1526.91 -2.3781 -1.72696 0
M  V30 15888 H 1524.42 -1.37066 -0.871009 0
M  V30 15889 H 1526.42 -1.32214 -3.9538 0
M  V30 15890 H 1525.08 -0.400652 -3.22219 0
M  V30 15891 H 1526.09 -4.09743 -3.16751 0
M  V30 15892 H 1522.77 -1.6093 -3.85237 0
M  V30 15893 H 1524.16 -5.6455 -3.64325 0
M  V30 15894 N 1526.88 0.906753 -1.28902 0
M  V30 15895 C 1528.11 1.69019 -1.19333 0
M  V30 15896 C 1528.52 1.87176 0.247065 0
M  V30 15897 O 1527.88 1.40376 1.16623 0
M  V30 15898 C 1527.93 3.07854 -1.89495 0
M  V30 15899 O 1527.65 2.90531 -3.27908 0
M  V30 15900 C 1529.15 4.02246 -1.86314 0
M  V30 15901 H 1526.37 0.528119 -0.413922 0
M  V30 15902 H 1528.91 1.13441 -1.70151 0
M  V30 15903 H 1527.07 3.60228 -1.42529 0
M  V30 15904 H 1527.48 3.78451 -3.63146 0
M  V30 15905 H 1528.96 4.97104 -2.39983 0
M  V30 15906 H 1529.43 4.31149 -0.837071 0
M  V30 15907 H 1530.04 3.55803 -2.3299 0
M  V30 15908 N 1528.36 1.11264 1.11616 0
M  V30 15909 C 1529.77 0.876713 1.64835 0
M  V30 15910 C 1530.12 -0.591384 1.87075 0
M  V30 15911 O 1529.24 -1.45304 1.60361 0
M  V30 15912 C 1529.84 1.58496 2.9944 0
M  V30 15913 C 1528.4 1.39551 3.49575 0
M  V30 15914 C 1527.54 1.62881 2.24422 0
M  V30 15915 H 1530.49 1.26915 0.952804 0
M  V30 15916 H 1530.52 1.02891 3.66325 0
M  V30 15917 H 1530.03 2.65344 2.83221 0
M  V30 15918 H 1528.13 0.349059 3.70961 0
M  V30 15919 H 1528.24 2.14334 4.28483 0
M  V30 15920 H 1526.61 1.05208 2.31955 0
M  V30 15921 H 1527.39 2.70999 2.10748 0
M  V30 15922 N 1529.83 -1.29188 0.902679 0
M  V30 15923 C 1530.78 -2.25236 0.353959 0
M  V30 15924 C 1531.77 -1.52002 -0.527659 0
M  V30 15925 O 1532.96 -1.73107 -0.369189 0
M  V30 15926 C 1530.09 -3.40785 -0.414803 0
M  V30 15927 C 1529.17 -4.21353 0.481904 0
M  V30 15928 N 1529.57 -4.80143 1.59048 0
M  V30 15929 C 1527.86 -4.45119 0.280241 0
M  V30 15930 C 1528.56 -5.40661 2.14616 0
M  V30 15931 N 1527.54 -5.24213 1.43882 0
M  V30 15932 H 1531.34 -2.68252 1.20076 0
M  V30 15933 H 1528.86 -1.43832 0.754069 0
M  V30 15934 H 1530.85 -4.08662 -0.824674 0
M  V30 15935 H 1529.51 -2.99305 -1.25883 0
M  V30 15936 H 1530.52 -4.78838 1.97319 0
M  V30 15937 H 1527.2 -4.14184 -0.525174 0
M  V30 15938 H 1528.59 -5.97246 3.07809 0
M  V30 15939 N 1531.31 -0.665475 -1.42861 0
M  V30 15940 C 1532.27 0.00932351 -2.29198 0
M  V30 15941 C 1533.27 0.738356 -1.42846 0
M  V30 15942 O 1534.46 0.57776 -1.6434 0
M  V30 15943 C 1531.6 1.02392 -3.25159 0
M  V30 15944 H 1532.79 -0.750481 -2.90358 0
M  V30 15945 H 1530.34 -0.427334 -1.50345 0
M  V30 15946 H 1531.08 1.81254 -2.68919 0
M  V30 15947 H 1530.86 0.504671 -3.88839 0
M  V30 15948 H 1532.35 1.49479 -3.89931 0
M  V30 15949 N 1532.79 1.52222 -0.408187 0
M  V30 15950 C 1533.74 2.2381 0.435101 0
M  V30 15951 C 1534.72 1.24908 1.01424 0
M  V30 15952 O 1535.92 1.50151 0.937216 0
M  V30 15953 C 1533.04 3.06229 1.55173 0
M  V30 15954 C 1532.13 4.12541 0.98341 0
M  V30 15955 N 1532.52 5.05602 0.141664 0
M  V30 15956 C 1530.82 4.28008 1.25401 0
M  V30 15957 C 1531.52 5.81438 -0.174417 0
M  V30 15958 N 1530.5 5.41861 0.434479 0
M  V30 15959 H 1534.3 2.93117 -0.214323 0
M  V30 15960 H 1531.81 1.60923 -0.218556 0
M  V30 15961 H 1533.81 3.56067 2.16845 0
M  V30 15962 H 1532.47 2.3846 2.20379 0
M  V30 15963 H 1533.48 5.17422 -0.222569 0
M  V30 15964 H 1530.16 3.71468 1.90572 0
M  V30 15965 H 1531.55 6.66404 -0.857609 0
M  V30 15966 N 1534.27 0.138579 1.5699 0
M  V30 15967 C 1535.22 -0.815878 2.12902 0
M  V30 15968 C 1536.2 -1.21511 1.0547 0
M  V30 15969 O 1537.39 -1.18294 1.31665 0
M  V30 15970 C 1534.52 -2.0583 2.74752 0
M  V30 15971 C 1533.61 -1.68255 3.89296 0
M  V30 15972 N 1534 -1.01456 4.9552 0
M  V30 15973 C 1532.3 -1.97583 3.99846 0
M  V30 15974 C 1533 -0.834498 5.75683 0
M  V30 15975 N 1531.97 -1.36571 5.26165 0
M  V30 15976 H 1535.78 -0.296204 2.92404 0
M  V30 15977 H 1533.29 -0.0632473 1.62277 0
M  V30 15978 H 1535.29 -2.75197 3.13165 0
M  V30 15979 H 1533.95 -2.58323 1.96721 0
M  V30 15980 H 1534.96 -0.67628 5.13466 0
M  V30 15981 H 1531.64 -2.51985 3.32881 0
M  V30 15982 H 1533.03 -0.308664 6.71191 0
M  V30 15983 N 1535.75 -1.57019 -0.13521 0
M  V30 15984 C 1536.99 -1.83178 -0.844308 0
M  V30 15985 C 1537.31 -0.7217 -1.81799 0
M  V30 15986 O 1538.51 -0.869232 -2.57209 0
M  V30 15987 C 1536.97 -3.2471 -1.55214 0
M  V30 15988 C 1536.58 -4.43685 -0.620268 0
M  V30 15989 C 1538.32 -3.60133 -2.24732 0
M  V30 15990 C 1536.23 -5.76242 -1.3304 0
M  V30 15991 H 1535.16 -0.683175 -0.319041 0
M  V30 15992 H 1537.81 -1.83243 -0.0970242 0
M  V30 15993 H 1536.19 -3.19067 -2.34547 0
M  V30 15994 H 1537.37 -4.60591 0.138685 0
M  V30 15995 H 1535.68 -4.16387 -0.0328906 0
M  V30 15996 H 1538.28 -4.56431 -2.78522 0
M  V30 15997 H 1538.62 -2.86767 -3.01779 0
M  V30 15998 H 1539.15 -3.67489 -1.52305 0
M  V30 15999 H 1535.89 -6.52734 -0.60155 0
M  V30 16000 H 1535.41 -5.63251 -2.06176 0
M  V30 16001 H 1537.09 -6.19445 -1.86808 0
M  V30 16002 N 1537.22 0.404919 -1.52309 0
M  V30 16003 C 1538.17 1.49281 -1.72334 0
M  V30 16004 C 1539.16 1.50188 -0.577267 0
M  V30 16005 O 1540.35 1.56093 -0.834497 0
M  V30 16006 C 1537.48 2.87166 -1.88123 0
M  V30 16007 C 1536.57 2.90891 -3.08615 0
M  V30 16008 N 1536.96 2.64307 -4.31249 0
M  V30 16009 C 1535.25 3.2206 -3.08535 0
M  V30 16010 C 1535.96 2.74708 -5.12748 0
M  V30 16011 N 1534.93 3.07766 -4.48086 0
M  V30 16012 H 1538.73 1.2753 -2.64789 0
M  V30 16013 H 1536.25 0.61268 -1.50399 0
M  V30 16014 H 1538.24 3.65473 -2.00587 0
M  V30 16015 H 1536.9 3.09913 -0.968712 0
M  V30 16016 H 1537.92 2.38624 -4.59651 0
M  V30 16017 H 1534.59 3.50373 -2.27035 0
M  V30 16018 H 1535.98 2.57835 -6.2046 0
M  V30 16019 N 1538.7 1.43003 0.662408 0
M  V30 16020 C 1539.65 1.43898 1.76854 0
M  V30 16021 C 1540.64 0.308629 1.57912 0
M  V30 16022 O 1541.83 0.551757 1.6818 0
M  V30 16023 C 1538.96 1.35585 3.15391 0
M  V30 16024 C 1538.04 2.53614 3.39913 0
M  V30 16025 N 1538.43 3.78998 3.34954 0
M  V30 16026 C 1536.73 2.48141 3.70597 0
M  V30 16027 C 1537.43 4.57467 3.59303 0
M  V30 16028 N 1536.41 3.8806 3.80671 0
M  V30 16029 H 1540.21 2.38722 1.71432 0
M  V30 16030 H 1537.73 1.37526 0.863728 0
M  V30 16031 H 1539.72 1.34308 3.94673 0
M  V30 16032 H 1538.38 0.417735 3.22002 0
M  V30 16033 H 1539.39 4.11417 3.14574 0
M  V30 16034 H 1536.07 1.62971 3.84379 0
M  V30 16035 H 1537.46 5.66475 3.61326 0
M  V30 16036 N 1540.18 -0.899904 1.29381 0
M  V30 16037 C 1541.43 -1.64712 1.17109 0
M  V30 16038 C 1541.75 -1.93011 -0.277772 0
M  V30 16039 O 1541.02 -1.55604 -1.19013 0
M  V30 16040 H 1539.6 -0.610532 0.430418 0
M  V30 16041 H 1542.26 -1.07905 1.62304 0
M  V30 16042 H 1541.36 -2.60362 1.72098 0
M  V30 16043 N 1541.66 -1.11854 -1.11024 0
M  V30 16044 C 1543.07 -0.885443 -1.64368 0
M  V30 16045 C 1543.42 0.581455 -1.87386 0
M  V30 16046 O 1542.55 1.44452 -1.61129 0
M  V30 16047 C 1543.14 -1.60082 -2.98595 0
M  V30 16048 C 1541.7 -1.41403 -3.4883 0
M  V30 16049 C 1540.85 -1.64069 -2.23555 0
M  V30 16050 H 1543.8 -1.27418 -0.94606 0
M  V30 16051 H 1543.82 -1.04832 -3.65774 0
M  V30 16052 H 1543.33 -2.66842 -2.8181 0
M  V30 16053 H 1541.43 -0.368727 -3.70771 0
M  V30 16054 H 1541.54 -2.16603 -4.27341 0
M  V30 16055 H 1539.91 -1.06437 -2.31394 0
M  V30 16056 H 1540.69 -2.72112 -2.09308 0
M  V30 16057 N 1543.14 1.28707 -0.909517 0
M  V30 16058 C 1544.09 2.25045 -0.365899 0
M  V30 16059 C 1545.07 1.5228 0.51959 0
M  V30 16060 O 1546.26 1.733 0.360004 0
M  V30 16061 C 1543.39 3.41 0.396725 0
M  V30 16062 C 1542.48 4.21092 -0.504243 0
M  V30 16063 N 1542.87 4.79293 -1.61592 0
M  V30 16064 C 1541.17 4.44964 -0.303843 0
M  V30 16065 C 1541.87 5.39516 -2.17481 0
M  V30 16066 N 1540.84 5.23442 -1.4666 0
M  V30 16067 H 1544.65 2.67611 -1.21497 0
M  V30 16068 H 1542.16 1.4343 -0.761686 0
M  V30 16069 H 1544.16 4.09094 0.80299 0
M  V30 16070 H 1542.82 2.99969 1.24294 0
M  V30 16071 H 1543.83 4.77785 -1.99856 0
M  V30 16072 H 1540.5 4.14456 0.503201 0
M  V30 16073 H 1541.89 5.95606 -3.10972 0
M  V30 16074 N 1544.61 0.673042 1.42506 0
M  V30 16075 C 1545.54 0.00755467 2.33499 0
M  V30 16076 C 1546.53 -0.791161 1.50581 0
M  V30 16077 O 1547.71 -0.748668 1.79189 0
M  V30 16078 C 1544.84 -0.945638 3.34178 0
M  V30 16079 C 1543.79 -0.25564 4.27236 0
M  V30 16080 C 1543.12 -1.32165 5.18109 0
M  V30 16081 C 1544.42 0.864254 5.151 0
M  V30 16082 H 1546.11 0.767487 2.89396 0
M  V30 16083 H 1543.66 0.370524 1.39151 0
M  V30 16084 H 1545.61 -1.42026 3.96745 0
M  V30 16085 H 1544.34 -1.73697 2.76581 0
M  V30 16086 H 1543 0.19873 3.66061 0
M  V30 16087 H 1542.64 -2.10492 4.56839 0
M  V30 16088 H 1542.34 -0.865109 5.81197 0
M  V30 16089 H 1543.87 -1.79724 5.83551 0
M  V30 16090 H 1545.28 0.470924 5.71363 0
M  V30 16091 H 1543.68 1.24648 5.87012 0
M  V30 16092 H 1544.75 1.71378 4.53605 0
M  V30 16093 N 1546.09 -1.52004 0.416254 0
M  V30 16094 C 1547.06 -2.2579 -0.393882 0
M  V30 16095 C 1548.06 -1.28427 -0.967637 0
M  V30 16096 O 1549.25 -1.52311 -0.845396 0
M  V30 16097 C 1546.38 -3.03361 -1.55515 0
M  V30 16098 H 1547.57 -2.98835 0.252492 0
M  V30 16099 H 1545.12 -1.55384 0.168929 0
M  V30 16100 H 1545.86 -2.34682 -2.23818 0
M  V30 16101 H 1545.64 -3.74852 -1.15015 0
M  V30 16102 H 1547.13 -3.5931 -2.12805 0
M  V30 16103 N 1547.57 -0.146903 -1.56914 0
M  V30 16104 C 1548.52 0.804576 -2.13332 0
M  V30 16105 C 1549.5 1.2095 -1.06112 0
M  V30 16106 O 1550.7 1.17594 -1.3229 0
M  V30 16107 C 1547.83 2.0437 -2.7584 0
M  V30 16108 C 1546.91 1.66188 -3.90183 0
M  V30 16109 N 1547.3 0.988267 -4.96051 0
M  V30 16110 C 1545.6 1.9546 -4.00888 0
M  V30 16111 C 1546.3 0.803957 -5.76118 0
M  V30 16112 N 1545.28 1.33779 -5.26882 0
M  V30 16113 H 1549.08 0.280693 -2.92557 0
M  V30 16114 H 1546.59 0.0546404 -1.62308 0
M  V30 16115 H 1548.59 2.73532 -3.1462 0
M  V30 16116 H 1547.25 2.57276 -1.98089 0
M  V30 16117 H 1548.26 0.64904 -5.13817 0
M  V30 16118 H 1544.94 2.50216 -3.34213 0
M  V30 16119 H 1546.33 0.273065 -6.71345 0
M  V30 16120 N 1549.05 1.57088 0.126881 0
M  V30 16121 C 1550.46 1.52205 0.480175 0
M  V30 16122 C 1550.66 0.858634 1.8229 0
M  V30 16123 O 1549.72 0.437636 2.48679 0
M  V30 16124 C 1551.03 2.96974 0.471931 0
M  V30 16125 C 1552.58 3.08021 0.556037 0
M  V30 16126 C 1553.06 4.54335 0.57826 0
M  V30 16127 N 1554.55 4.58758 0.639922 0
M  V30 16128 C 1555.28 5.69372 0.678434 0
M  V30 16129 N 1554.78 6.89503 0.67507 0
M  V30 16130 N 1556.57 5.57459 0.720845 0
M  V30 16131 H 1548.72 1.98604 -0.753008 0
M  V30 16132 H 1550.99 0.90666 -0.276895 0
M  V30 16133 H 1550.69 3.48849 -0.44687 0
M  V30 16134 H 1550.57 3.53994 1.3026 0
M  V30 16135 H 1552.95 2.56153 1.46526 0
M  V30 16136 H 1553.03 2.54009 -0.302171 0
M  V30 16137 H 1552.68 5.06847 -0.326884 0
M  V30 16138 H 1552.61 5.06151 1.45324 0
M  V30 16139 H 1555.1 3.72285 0.649005 0
M  V30 16140 H 1555.41 7.6956 0.706862 0
M  V30 16141 H 1553.76 6.92023 0.64262 0
M  V30 16142 H 1556.95 4.62517 0.720783 0
M  V30 16143 H 1557.12 6.43675 0.747392 0
M  V30 16144 N 1550.53 -0.396836 1.52522 0
M  V30 16145 C 1551.48 -1.48365 1.73123 0
M  V30 16146 C 1552.46 -1.4988 0.585224 0
M  V30 16147 O 1553.65 -1.55649 0.842763 0
M  V30 16148 C 1550.78 -2.86165 1.89644 0
M  V30 16149 C 1549.87 -2.8925 3.10153 0
M  V30 16150 N 1550.26 -2.62017 4.32644 0
M  V30 16151 C 1548.56 -3.20419 3.10238 0
M  V30 16152 C 1549.26 -2.71985 5.14197 0
M  V30 16153 N 1548.23 -3.05385 4.49712 0
M  V30 16154 H 1552.04 -1.26124 2.65462 0
M  V30 16155 H 1549.55 -0.604696 1.50722 0
M  V30 16156 H 1551.55 -3.64404 2.02522 0
M  V30 16157 H 1550.21 -3.09395 0.985134 0
M  V30 16158 H 1551.22 -2.36183 4.6091 0
M  V30 16159 H 1547.89 -3.49164 2.2889 0
M  V30 16160 H 1549.28 -2.54541 6.21819 0
M  V30 16161 N 1552.01 -1.43353 -0.654814 0
M  V30 16162 C 1553.42 -1.26718 -0.970297 0
M  V30 16163 C 1553.62 -0.185747 -2.00642 0
M  V30 16164 O 1552.68 0.436357 -2.48701 0
M  V30 16165 C 1553.99 -2.63095 -1.45608 0
M  V30 16166 C 1555.54 -2.70613 -1.57281 0
M  V30 16167 C 1556.01 -4.07404 -2.0925 0
M  V30 16168 N 1557.5 -4.09461 -2.16555 0
M  V30 16169 C 1558.24 -5.12135 -2.57885 0
M  V30 16170 N 1557.74 -6.25185 -2.98523 0
M  V30 16171 N 1559.53 -4.9949 -2.57811 0
M  V30 16172 H 1551.68 -2.12378 0.0308331 0
M  V30 16173 H 1553.94 -0.946744 -0.0487843 0
M  V30 16174 H 1553.65 -3.43186 -0.769171 0
M  V30 16175 H 1553.52 -2.88381 -2.43138 0
M  V30 16176 H 1555.91 -1.90855 -2.25074 0
M  V30 16177 H 1555.99 -2.49094 -0.581879 0
M  V30 16178 H 1555.63 -4.87628 -1.4206 0
M  V30 16179 H 1555.56 -4.26287 -3.09172 0
M  V30 16180 H 1558.06 -3.27858 -1.87929 0
M  V30 16181 H 1558.37 -6.99362 -3.28804 0
M  V30 16182 H 1556.71 -6.28659 -2.96332 0
M  V30 16183 H 1559.9 -4.10238 -2.25438 0
M  V30 16184 H 1560.08 -5.79637 -2.89699 0
M  V30 16185 N 1553.48 0.89303 -1.29857 0
M  V30 16186 C 1554.43 1.98497 -1.12173 0
M  V30 16187 C 1555.42 1.60852 -0.039207 0
M  V30 16188 O 1556.61 1.75055 -0.261652 0
M  V30 16189 C 1553.74 3.33674 -0.807259 0
M  V30 16190 C 1552.82 3.77658 -1.92965 0
M  V30 16191 N 1553.22 3.93814 -3.17402 0
M  V30 16192 C 1551.51 4.06988 -1.82419 0
M  V30 16193 C 1552.21 4.30988 -3.90671 0
M  V30 16194 N 1551.19 4.40403 -3.18662 0
M  V30 16195 H 1554.99 2.09068 -2.06562 0
M  V30 16196 H 1552.51 1.0823 -1.21078 0
M  V30 16197 H 1554.5 4.11617 -0.661603 0
M  V30 16198 H 1553.16 3.24445 0.128646 0
M  V30 16199 H 1554.17 3.79164 -3.52782 0
M  V30 16200 H 1550.85 4.06279 -0.961436 0
M  V30 16201 H 1552.24 4.51278 -4.97793 0
M  V30 16202 N 1554.96 1.12442 1.10429 0
M  V30 16203 C 1555.91 0.761266 2.14916 0
M  V30 16204 C 1556.9 -0.239768 1.59103 0
M  V30 16205 O 1558.09 -0.045261 1.76942 0
M  V30 16206 C 1555.22 0.217596 3.4261 0
M  V30 16207 C 1554.3 1.24692 4.05355 0
M  V30 16208 N 1554.69 2.44456 4.42804 0
M  V30 16209 C 1552.99 1.09229 4.32418 0
M  V30 16210 C 1553.69 3.10186 4.92097 0
M  V30 16211 N 1552.67 2.37634 4.88908 0
M  V30 16212 H 1556.47 1.67262 2.41662 0
M  V30 16213 H 1553.98 1.0052 1.27552 0
M  V30 16214 H 1555.98 -0.0607568 4.16856 0
M  V30 16215 H 1554.64 -0.688215 3.17323 0
M  V30 16216 H 1555.65 2.81837 4.34498 0
M  V30 16217 H 1552.33 0.24379 4.16788 0
M  V30 16218 H 1553.72 4.12179 5.3062 0
M  V30 16219 N 1556.44 -1.28223 0.91633 0
M  V30 16220 C 1557.86 -1.47281 0.614864 0
M  V30 16221 C 1558.06 -1.83197 -0.839111 0
M  V30 16222 O 1557.11 -1.9385 -1.61798 0
M  V30 16223 C 1558.42 -2.57373 1.55498 0
M  V30 16224 C 1559.97 -2.71241 1.56197 0
M  V30 16225 C 1560.45 -3.84479 2.48877 0
M  V30 16226 N 1561.94 -3.91837 2.47019 0
M  V30 16227 C 1562.67 -4.78846 3.15427 0
M  V30 16228 N 1562.17 -5.70427 3.93173 0
M  V30 16229 N 1563.96 -4.72478 3.04501 0
M  V30 16230 H 1556.11 -1.03191 1.85649 0
M  V30 16231 H 1558.38 -0.514213 0.796422 0
M  V30 16232 H 1558.08 -2.37747 2.5917 0
M  V30 16233 H 1557.96 -3.54527 1.28803 0
M  V30 16234 H 1560.34 -2.90254 0.532619 0
M  V30 16235 H 1560.42 -1.74609 1.86937 0
M  V30 16236 H 1560.07 -3.6622 3.51916 0
M  V30 16237 H 1560 -4.80514 2.15439 0
M  V30 16238 H 1562.49 -3.26344 1.90546 0
M  V30 16239 H 1562.8 -6.33653 4.42384 0
M  V30 16240 H 1561.15 -5.70259 3.97278 0
M  V30 16241 H 1564.34 -3.99925 2.43265 0
M  V30 16242 H 1564.51 -5.40073 3.58086 0
M  V30 16243 N 1557.92 -0.68059 -1.42147 0
M  V30 16244 C 1559.33 -0.350691 -1.55699 0
M  V30 16245 C 1559.53 1.1435 -1.6591 0
M  V30 16246 O 1558.59 1.92905 -1.62923 0
M  V30 16247 C 1559.9 -1.08608 -2.80401 0
M  V30 16248 C 1561.45 -1.06897 -2.9418 0
M  V30 16249 C 1561.93 -1.78581 -4.2175 0
M  V30 16250 N 1563.42 -1.75477 -4.28675 0
M  V30 16251 C 1564.15 -2.27794 -5.26211 0
M  V30 16252 N 1563.65 -2.88518 -6.29865 0
M  V30 16253 N 1565.44 -2.18135 -5.18048 0
M  V30 16254 H 1557.59 -1.64988 -1.33763 0
M  V30 16255 H 1559.85 -0.695411 -0.644289 0
M  V30 16256 H 1559.56 -2.14113 -2.79014 0
M  V30 16257 H 1559.43 -0.655022 -3.71469 0
M  V30 16258 H 1561.82 -0.0222464 -2.95092 0
M  V30 16259 H 1561.9 -1.53897 -2.04327 0
M  V30 16260 H 1561.55 -2.83225 -4.21599 0
M  V30 16261 H 1561.48 -1.29027 -5.10548 0
M  V30 16262 H 1563.97 -1.31191 -3.54397 0
M  V30 16263 H 1564.28 -3.26043 -7.00654 0
M  V30 16264 H 1562.63 -2.92589 -6.3041 0
M  V30 16265 H 1565.82 -1.7038 -4.35991 0
M  V30 16266 H 1565.99 -2.59213 -5.93896 0
M  V30 16267 N 1559.4 1.51781 -0.424309 0
M  V30 16268 C 1560.62 2.06387 0.145548 0
M  V30 16269 C 1561.04 1.29299 1.37576 0
M  V30 16270 O 1560.4 0.348952 1.79133 0
M  V30 16271 C 1560.45 3.58288 0.48083 0
M  V30 16272 O 1560.17 4.32463 -0.700546 0
M  V30 16273 C 1561.67 4.29364 1.10278 0
M  V30 16274 H 1558.89 0.67086 0.0136908 0
M  V30 16275 H 1561.43 1.95511 -0.599639 0
M  V30 16276 H 1559.59 3.69122 1.17591 0
M  V30 16277 H 1560 5.22839 -0.417035 0
M  V30 16278 H 1561.48 5.36776 1.28747 0
M  V30 16279 H 1561.95 3.86815 2.08017 0
M  V30 16280 H 1562.56 4.2294 0.447458 0
M  V30 16281 N 1560.87 0.155222 1.56834 0
M  V30 16282 C 1561.8 -0.777258 2.20184 0
M  V30 16283 C 1562.78 -1.25102 1.15254 0
M  V30 16284 O 1563.97 -1.3071 1.43627 0
M  V30 16285 C 1561.1 -2.01326 2.82993 0
M  V30 16286 C 1560.05 -1.67596 3.93822 0
M  V30 16287 C 1559.38 -2.98529 4.43604 0
M  V30 16288 C 1560.68 -0.916302 5.142 0
M  V30 16289 H 1562.37 -0.249257 2.98361 0
M  V30 16290 H 1559.92 -0.118448 1.43512 0
M  V30 16291 H 1561.87 -2.67048 3.2598 0
M  V30 16292 H 1560.6 -2.56513 2.0216 0
M  V30 16293 H 1559.26 -1.0425 3.51465 0
M  V30 16294 H 1558.9 -3.51723 3.59583 0
M  V30 16295 H 1558.6 -2.76721 5.18362 0
M  V30 16296 H 1560.13 -3.65308 4.89267 0
M  V30 16297 H 1561.54 -1.47577 5.5398 0
M  V30 16298 H 1559.94 -0.797856 5.94772 0
M  V30 16299 H 1561.01 0.0904351 4.84816 0
M  V30 16300 N 1562.35 -1.57153 -0.118549 0
M  V30 16301 C 1563.58 -1.89434 -0.844355 0
M  V30 16302 C 1564 -0.747203 -1.72622 0
M  V30 16303 O 1563.36 0.302252 -1.78763 0
M  V30 16304 C 1563.41 -3.20466 -1.65331 0
M  V30 16305 O 1562.51 -3.06403 -2.76027 0
M  V30 16306 H 1561.85 -0.621601 -0.23347 0
M  V30 16307 H 1564.38 -2.04351 -0.100811 0
M  V30 16308 H 1564.39 -3.53197 -2.04245 0
M  V30 16309 H 1563.07 -4.03551 -1.00594 0
M  V30 16310 H 1561.64 -2.85139 -2.40312 0
M  V30 16311 N 1563.83 0.388742 -1.5273 0
M  V30 16312 C 1564.76 1.48133 -1.80496 0
M  V30 16313 C 1565.74 1.56899 -0.657008 0
M  V30 16314 O 1566.93 1.71844 -0.904621 0
M  V30 16315 C 1564.06 2.85742 -1.97405 0
M  V30 16316 C 1563.01 2.91815 -3.13094 0
M  V30 16317 C 1562.34 4.31876 -3.15258 0
M  V30 16318 C 1563.64 2.61438 -4.52159 0
M  V30 16319 H 1565.33 1.25147 -2.7199 0
M  V30 16320 H 1562.88 0.600603 -1.30877 0
M  V30 16321 H 1564.83 3.62182 -2.15412 0
M  V30 16322 H 1563.55 3.10065 -1.02601 0
M  V30 16323 H 1562.21 2.17824 -2.9487 0
M  V30 16324 H 1561.86 4.53239 -2.18135 0
M  V30 16325 H 1561.56 4.3686 -3.92972 0
M  V30 16326 H 1563.08 5.10221 -3.3542 0
M  V30 16327 H 1564.5 3.27596 -4.70483 0
M  V30 16328 H 1562.89 2.77771 -5.31943 0
M  V30 16329 H 1563.96 1.56778 -4.58856 0
M  V30 16330 N 1565.31 1.43698 0.647203 0
M  V30 16331 C 1566.58 1.3611 1.40476 0
M  V30 16332 C 1566.96 0.0118567 2.11097 0
M  V30 16333 O 1566.31 -1.00496 2.05214 0
M  V30 16334 C 1566.52 2.5484 2.38448 0
M  V30 16335 C 1567.87 2.98195 3.02267 0
M  V30 16336 O 1568.89 2.5493 2.48775 0
M  V30 16337 O 1567.75 3.73162 3.99265 0
M  V30 16338 H 1564.85 0.538198 0.62791 0
M  V30 16339 H 1567.39 1.55758 0.673606 0
M  V30 16340 H 1566.17 3.4467 1.85253 0
M  V30 16341 H 1565.79 2.37323 3.19004 0
M  V30 16342 N 1566.79 -0.886131 1.30328 0
M  V30 16343 C 1567.73 -2.01312 1.16516 0
M  V30 16344 C 1568.73 -1.69223 0.0773431 0
M  V30 16345 O 1569.93 -1.78418 0.238111 0
M  V30 16346 H 1566.31 -0.66006 0.360312 0
M  V30 16347 H 1568.28 -2.10097 2.11901 0
M  V30 16348 C 1567.03 -3.36573 0.872592 0
M  V30 16349 H 1566.35 -3.61775 1.70172 0
M  V30 16350 H 1567.79 -4.16073 0.816049 0
M  V30 16351 C 1566.25 -3.34215 -0.424465 0
M  V30 16352 O 1566.78 -3.74758 -1.44634 0
M  V30 16353 N 1564.99 -2.87323 -0.435207 0
M  V30 16354 H 1564.53 -2.54525 0.396851 0
M  V30 16355 H 1564.49 -2.86128 -1.303 0
M  V30 16356 N 1568.26 -1.13026 -1.09832 0
M  V30 16357 C 1569.68 -0.867598 -1.33959 0
M  V30 16358 C 1569.88 0.499047 -1.95222 0
M  V30 16359 O 1568.94 1.24644 -2.19591 0
M  V30 16360 C 1570.25 -1.98893 -2.25526 0
M  V30 16361 C 1571.8 -2.02054 -2.39047 0
M  V30 16362 C 1572.27 -3.13438 -3.33947 0
M  V30 16363 N 1573.76 -3.12921 -3.41518 0
M  V30 16364 C 1574.5 -3.95746 -4.14937 0
M  V30 16365 N 1573.99 -4.88574 -4.91189 0
M  V30 16366 N 1575.79 -3.8386 -4.10619 0
M  V30 16367 H 1567.94 -2.01072 -0.684382 0
M  V30 16368 H 1570.2 -0.875341 -0.363982 0
M  V30 16369 H 1569.91 -2.97405 -1.87731 0
M  V30 16370 H 1569.78 -1.89948 -3.25883 0
M  V30 16371 H 1572.17 -1.04158 -2.76107 0
M  V30 16372 H 1572.25 -2.15072 -1.38483 0
M  V30 16373 H 1571.89 -4.11571 -2.9761 0
M  V30 16374 H 1571.82 -2.97658 -4.34405 0
M  V30 16375 H 1574.31 -2.45677 -2.87144 0
M  V30 16376 H 1574.63 -5.48269 -5.44629 0
M  V30 16377 H 1572.97 -4.92583 -4.90292 0
M  V30 16378 H 1576.16 -3.10669 -3.50146 0
M  V30 16379 H 1576.34 -4.48637 -4.67577 0
M  V30 16380 N 1569.74 1.27735 -0.923117 0
M  V30 16381 C 1571.02 1.89626 -0.479724 0
M  V30 16382 C 1571.4 1.83592 1.04197 0
M  V30 16383 O 1570.75 1.27808 1.89413 0
M  V30 16384 C 1570.96 3.33742 -1.02064 0
M  V30 16385 C 1572.31 4.10678 -1.07837 0
M  V30 16386 O 1573.33 3.4274 -0.969943 0
M  V30 16387 O 1572.19 5.32135 -1.24476 0
M  V30 16388 H 1569.28 0.812615 -0.153575 0
M  V30 16389 H 1571.83 1.36036 -1.01451 0
M  V30 16390 H 1570.6 3.32404 -2.06454 0
M  V30 16391 H 1570.22 3.94845 -0.467234 0
M  V30 16392 N 1571.22 0.688118 1.41784 0
M  V30 16393 C 1572.45 0.223231 2.06195 0
M  V30 16394 C 1572.87 -1.11601 1.51416 0
M  V30 16395 O 1572.23 -1.69701 0.638059 0
M  V30 16396 C 1572.28 0.183257 3.60134 0
M  V30 16397 O 1571.38 -0.844186 4.03667 0
M  V30 16398 H 1570.72 0.110925 0.654669 0
M  V30 16399 H 1573.25 0.940882 1.81683 0
M  V30 16400 H 1573.26 0.0115951 4.07998 0
M  V30 16401 H 1571.94 1.16072 3.99375 0
M  V30 16402 H 1570.51 -0.642484 3.67323 0
M  V30 16403 N 1572.7 -1.51554 0.432352 0
M  V30 16404 C 1573.94 -2.02344 -0.13598 0
M  V30 16405 C 1574.28 -1.31619 -1.42794 0
M  V30 16406 O 1573.55 -0.42957 -1.89697 0
M  V30 16407 C 1573.84 -3.58297 -0.359865 0
M  V30 16408 C 1573.69 -4.39645 0.950399 0
M  V30 16409 C 1575.01 -4.25297 -1.13184 0
M  V30 16410 H 1572.13 -0.735439 -0.0479461 0
M  V30 16411 H 1574.77 -1.81237 0.570373 0
M  V30 16412 H 1572.92 -3.76413 -0.961547 0
M  V30 16413 H 1574.59 -4.3319 1.58568 0
M  V30 16414 H 1572.83 -4.04928 1.55614 0
M  V30 16415 H 1573.5 -5.46911 0.747852 0
M  V30 16416 H 1575.98 -4.11421 -0.622231 0
M  V30 16417 H 1574.86 -5.34307 -1.25726 0
M  V30 16418 H 1575.12 -3.85818 -2.15862 0
M  V30 16419 N 1574.18 -0.163538 -1.56749 0
M  V30 16420 C 1575.45 0.529349 -1.88301 0
M  V30 16421 C 1575.83 1.81844 -1.07219 0
M  V30 16422 O 1575.18 2.27912 -0.16381 0
M  V30 16423 C 1575.39 0.778796 -3.402 0
M  V30 16424 C 1576.74 1.11225 -4.09773 0
M  V30 16425 O 1577.76 0.867598 -3.45472 0
M  V30 16426 O 1576.62 1.57344 -5.2336 0
M  V30 16427 H 1573.72 0.271928 -0.781015 0
M  V30 16428 H 1576.26 -0.20139 -1.68501 0
M  V30 16429 H 1575.03 -0.132839 -3.91074 0
M  V30 16430 H 1574.66 1.56313 -3.65584 0
M  V30 16431 N 1575.65 1.57214 0.110213 0
M  V30 16432 C 1576.58 2.04015 1.13579 0
M  V30 16433 C 1577.57 0.926215 1.42672 0
M  V30 16434 O 1578.75 1.19651 1.52962 0
M  V30 16435 C 1575.88 2.45187 2.45969 0
M  V30 16436 C 1574.83 3.60105 2.31319 0
M  V30 16437 C 1574.16 3.87205 3.68749 0
M  V30 16438 C 1575.46 4.91526 1.76635 0
M  V30 16439 H 1577.15 2.89944 0.746496 0
M  V30 16440 H 1574.7 1.39488 0.357642 0
M  V30 16441 H 1576.65 2.76534 3.17973 0
M  V30 16442 H 1575.38 1.56238 2.86805 0
M  V30 16443 H 1574.04 3.28981 1.61762 0
M  V30 16444 H 1573.68 2.95448 4.07087 0
M  V30 16445 H 1573.38 4.64563 3.59798 0
M  V30 16446 H 1574.91 4.21013 4.42245 0
M  V30 16447 H 1576.32 5.21351 2.38465 0
M  V30 16448 H 1574.72 5.72944 1.78482 0
M  V30 16449 H 1575.79 4.79456 0.724573 0
M  V30 16450 N 1577.13 -0.380637 1.52934 0
M  V30 16451 C 1578.1 -1.44819 1.77652 0
M  V30 16452 C 1579.1 -1.47224 0.646657 0
M  V30 16453 O 1580.29 -1.48248 0.91477 0
M  V30 16454 C 1577.42 -2.8405 1.8849 0
M  V30 16455 H 1578.61 -1.24183 2.72981 0
M  V30 16456 H 1576.16 -0.61288 1.43783 0
M  V30 16457 H 1576.9 -3.1002 0.951751 0
M  V30 16458 H 1576.68 -2.83704 2.70655 0
M  V30 16459 H 1578.17 -3.61388 2.09257 0
M  V30 16460 N 1578.61 -1.44039 -0.639573 0
M  V30 16461 C 1579.52 -1.52728 -1.78077 0
M  V30 16462 C 1580.54 -0.413467 -1.69016 0
M  V30 16463 O 1581.71 -0.669592 -1.89943 0
M  V30 16464 C 1578.78 -1.46078 -3.14424 0
M  V30 16465 C 1577.84 -2.68242 -3.35179 0
M  V30 16466 C 1577.07 -2.61899 -4.65021 0
M  V30 16467 O 1577.29 -1.67431 -5.45273 0
M  V30 16468 O 1576.23 -3.52619 -4.87795 0
M  V30 16469 H 1580.05 -2.49122 -1.737 0
M  V30 16470 H 1577.64 -1.26191 -0.799755 0
M  V30 16471 H 1579.52 -1.44861 -3.95719 0
M  V30 16472 H 1578.2 -0.528236 -3.19361 0
M  V30 16473 H 1577.1 -2.75028 -2.53595 0
M  V30 16474 H 1578.44 -3.60514 -3.35098 0
M  V30 16475 N 1580.09 0.879207 -1.30796 0
M  V30 16476 C 1581.02 2.00158 -1.20246 0
M  V30 16477 C 1582 1.69852 -0.091769 0
M  V30 16478 O 1583.18 1.92246 -0.274792 0
M  V30 16479 C 1580.31 3.3545 -0.899472 0
M  V30 16480 C 1579.27 3.80033 -1.96873 0
M  V30 16481 C 1578.59 5.12681 -1.51861 0
M  V30 16482 C 1579.89 3.98136 -3.38061 0
M  V30 16483 H 1581.59 2.09242 -2.14145 0
M  V30 16484 H 1579.13 1.00535 -1.03096 0
M  V30 16485 H 1581.09 4.13497 -0.812299 0
M  V30 16486 H 1579.81 3.26513 0.075189 0
M  V30 16487 H 1578.47 3.04219 -2.04564 0
M  V30 16488 H 1578.12 5.00178 -0.532063 0
M  V30 16489 H 1577.82 5.43482 -2.23386 0
M  V30 16490 H 1579.34 5.93247 -1.44534 0
M  V30 16491 H 1580.76 4.66604 -3.33096 0
M  V30 16492 H 1579.15 4.40321 -4.07722 0
M  V30 16493 H 1580.22 3.01807 -3.79526 0
M  V30 16494 N 1581.57 1.13606 1.09231 0
M  V30 16495 C 1582.81 0.900386 1.81717 0
M  V30 16496 C 1583.15 -0.571984 1.85586 0
M  V30 16497 O 1582.42 -1.42336 1.32554 0
M  V30 16498 C 1582.7 1.49143 3.27763 0
M  V30 16499 C 1582.56 3.03306 3.32153 0
M  V30 16500 C 1583.88 1.16129 4.24502 0
M  V30 16501 H 1581 0.328531 0.659724 0
M  V30 16502 H 1583.64 1.40467 1.27941 0
M  V30 16503 H 1581.79 1.06256 3.73687 0
M  V30 16504 H 1583.46 3.54963 2.94617 0
M  V30 16505 H 1581.7 3.38192 2.71677 0
M  V30 16506 H 1582.37 3.39761 4.35047 0
M  V30 16507 H 1584.85 1.53193 3.86874 0
M  V30 16508 H 1583.73 1.60129 5.25024 0
M  V30 16509 H 1583.99 0.0752973 4.42036 0
M  V30 16510 N 1583.05 -1.27244 0.929878 0
M  V30 16511 C 1584.46 -1.76254 0.615732 0
M  V30 16512 C 1584.81 -1.759 -0.869111 0
M  V30 16513 O 1583.93 -1.36388 -1.6801 0
M  V30 16514 C 1584.53 -3.20068 1.11095 0
M  V30 16515 C 1583.09 -3.66736 0.847435 0
M  V30 16516 C 1582.23 -2.4659 1.26842 0
M  V30 16517 H 1585.18 -1.1348 1.10942 0
M  V30 16518 H 1585.21 -3.77714 0.459618 0
M  V30 16519 H 1584.72 -3.20293 2.19166 0
M  V30 16520 H 1582.82 -3.71954 -0.219376 0
M  V30 16521 H 1582.93 -4.56104 1.4665 0
M  V30 16522 H 1581.3 -2.45261 0.686944 0
M  V30 16523 H 1582.08 -2.49524 2.35781 0
M  V30 16524 N 1584.52 -0.695628 -1.41417 0
M  V30 16525 C 1585.49 -0.0392949 -2.29166 0
M  V30 16526 C 1586.49 0.70789 -1.4438 0
M  V30 16527 O 1587.68 0.542771 -1.65528 0
M  V30 16528 C 1584.81 0.954719 -3.27258 0
M  V30 16529 H 1586 -0.811902 -2.88701 0
M  V30 16530 H 1583.55 -0.459128 -1.49405 0
M  V30 16531 H 1584.29 1.75509 -2.72703 0
M  V30 16532 H 1584.07 0.422079 -3.89822 0
M  V30 16533 H 1585.56 1.41174 -3.93014 0
M  V30 16534 N 1586 1.51322 -0.440383 0
M  V30 16535 C 1587.25 2.02413 0.125248 0
M  V30 16536 C 1587.58 1.32374 1.42094 0
M  V30 16537 O 1586.86 0.439624 1.89467 0
M  V30 16538 C 1587.14 3.58483 0.340858 0
M  V30 16539 C 1586.99 4.39134 -0.973701 0
M  V30 16540 C 1588.31 4.25891 1.10927 0
M  V30 16541 H 1585.43 0.735683 0.0440452 0
M  V30 16542 H 1588.07 1.80932 -0.579976 0
M  V30 16543 H 1586.22 3.76917 0.941572 0
M  V30 16544 H 1587.89 4.32343 -1.60863 0
M  V30 16545 H 1586.14 4.04097 -1.57759 0
M  V30 16546 H 1586.81 5.46506 -0.776845 0
M  V30 16547 H 1589.28 4.11746 0.600403 0
M  V30 16548 H 1588.16 5.34967 1.2289 0
M  V30 16549 H 1588.42 3.86958 2.13813 0
M  V30 16550 N 1587.48 0.171848 1.5666 0
M  V30 16551 C 1588.73 -0.472034 1.9651 0
M  V30 16552 C 1589.05 -1.63743 1.05893 0
M  V30 16553 O 1588.32 -1.95498 0.125396 0
M  V30 16554 H 1586.9 -0.177377 0.725635 0
M  V30 16555 H 1589.56 0.253155 1.93249 0
M  V30 16556 H 1588.66 -0.831693 3.00814 0
M  V30 16557 N 1588.96 -1.5727 -0.101874 0
M  V30 16558 C 1589.92 -2.00625 -1.10826 0
M  V30 16559 C 1590.92 -0.89878 -1.33336 0
M  V30 16560 O 1592.11 -1.16442 -1.29564 0
M  V30 16561 C 1589.24 -2.36113 -2.45893 0
M  V30 16562 H 1590.44 -2.90748 -0.735238 0
M  V30 16563 H 1587.99 -1.52406 -0.346713 0
M  V30 16564 H 1588.72 -1.48923 -2.88084 0
M  V30 16565 H 1588.51 -3.169 -2.30904 0
M  V30 16566 H 1590 -2.70336 -3.1829 0
M  V30 16567 N 1590.44 0.372521 -1.53134 0
M  V30 16568 C 1591.39 1.45592 -1.75462 0
M  V30 16569 C 1592.37 1.4893 -0.608994 0
M  V30 16570 O 1593.56 1.54288 -0.867419 0
M  V30 16571 C 1590.69 2.83111 -1.94172 0
M  V30 16572 C 1589.78 2.84279 -3.14716 0
M  V30 16573 N 1590.17 2.551 -4.36758 0
M  V30 16574 C 1588.47 3.15443 -3.15297 0
M  V30 16575 C 1589.17 2.6377 -5.18459 0
M  V30 16576 N 1588.14 2.98192 -4.54513 0
M  V30 16577 H 1591.94 1.21885 -2.67435 0
M  V30 16578 H 1589.46 0.58064 -1.51665 0
M  V30 16579 H 1591.46 3.61136 -2.08294 0
M  V30 16580 H 1590.12 3.07788 -1.03423 0
M  V30 16581 H 1591.13 2.2882 -4.64609 0
M  V30 16582 H 1587.8 3.45479 -2.34416 0
M  V30 16583 H 1589.19 2.44616 -6.2579 0
M  V30 16584 N 1591.91 1.44376 0.631925 0
M  V30 16585 C 1593.32 1.41881 1.21353 0
M  V30 16586 C 1593.68 0.13375 1.95744 0
M  V30 16587 O 1592.8 -0.765919 2.02392 0
M  V30 16588 C 1593.4 2.57027 2.20732 0
M  V30 16589 C 1591.95 2.5773 2.74322 0
M  V30 16590 C 1591.1 2.33672 1.49307 0
M  V30 16591 H 1594.05 1.52968 0.42265 0
M  V30 16592 H 1594.07 2.29735 3.03319 0
M  V30 16593 H 1593.59 3.50541 1.66561 0
M  V30 16594 H 1591.69 1.68155 3.32498 0
M  V30 16595 H 1591.8 3.5619 3.20415 0
M  V30 16596 H 1590.16 1.8275 1.7741 0
M  V30 16597 H 1590.95 3.293 0.970395 0
M  V30 16598 N 1593.39 -0.872258 1.31261 0
M  V30 16599 C 1594.81 -1.15763 1.09868 0
M  V30 16600 C 1595.01 -2.01065 -0.132331 0
M  V30 16601 O 1594.06 -2.38735 -0.822317 0
M  V30 16602 C 1595.38 -1.85199 2.36901 0
M  V30 16603 C 1596.92 -1.9791 2.42489 0
M  V30 16604 C 1597.4 -2.70759 3.69396 0
M  V30 16605 N 1598.89 -2.78296 3.70278 0
M  V30 16606 C 1599.63 -3.3527 4.65168 0
M  V30 16607 N 1599.12 -3.93193 5.70413 0
M  V30 16608 N 1600.91 -3.33206 4.52692 0
M  V30 16609 H 1593.07 -0.303784 2.10216 0
M  V30 16610 H 1595.33 -0.197172 0.927269 0
M  V30 16611 H 1595.03 -1.29968 3.26804 0
M  V30 16612 H 1594.91 -2.85493 2.46523 0
M  V30 16613 H 1597.3 -2.52305 1.53056 0
M  V30 16614 H 1597.38 -0.966644 2.36833 0
M  V30 16615 H 1597.02 -2.17031 4.59195 0
M  V30 16616 H 1596.95 -3.72407 3.72318 0
M  V30 16617 H 1599.44 -2.37185 2.94197 0
M  V30 16618 H 1599.75 -4.34771 6.38901 0
M  V30 16619 H 1598.1 -3.91575 5.7419 0
M  V30 16620 H 1601.29 -2.87191 3.69647 0
M  V30 16621 H 1601.46 -3.7731 5.26822 0
M  V30 16622 N 1594.87 -1.14184 -1.08627 0
M  V30 16623 C 1595.83 -0.82954 -2.13662 0
M  V30 16624 C 1596.83 0.164794 -1.59953 0
M  V30 16625 O 1598.02 -0.0632831 -1.74085 0
M  V30 16626 C 1595.15 -0.236176 -3.40081 0
M  V30 16627 H 1596.35 -1.76038 -2.42797 0
M  V30 16628 H 1593.9 -0.947568 -1.24301 0
M  V30 16629 H 1594.64 0.70349 -3.16578 0
M  V30 16630 H 1594.42 -0.952341 -3.80359 0
M  V30 16631 H 1595.91 -0.03481 -4.17585 0
M  V30 16632 N 1596.35 1.26749 -0.936613 0
M  V30 16633 C 1597.31 2.24794 -0.447243 0
M  V30 16634 C 1598.31 1.54688 0.439135 0
M  V30 16635 O 1599.5 1.72553 0.238957 0
M  V30 16636 C 1596.63 3.39036 0.355958 0
M  V30 16637 H 1597.83 2.696 -1.31361 0
M  V30 16638 H 1595.38 1.38825 -0.718143 0
M  V30 16639 H 1596.11 2.99625 1.24077 0
M  V30 16640 H 1595.9 3.91101 -0.279691 0
M  V30 16641 H 1597.39 4.11887 0.688421 0
M  V30 16642 N 1597.83 0.703118 1.41046 0
M  V30 16643 C 1599.07 0.246419 2.01902 0
M  V30 16644 C 1599.43 -1.14368 1.54719 0
M  V30 16645 O 1598.72 -1.76232 0.751848 0
M  V30 16646 C 1598.91 0.251575 3.56513 0
M  V30 16647 C 1598.74 1.64063 4.18704 0
M  V30 16648 C 1597.51 2.2453 4.52675 0
M  V30 16649 C 1599.71 2.58863 4.44404 0
M  V30 16650 N 1597.69 3.55922 5.00193 0
M  V30 16651 C 1599.06 3.74943 4.93779 0
M  V30 16652 C 1601.12 2.57033 4.26425 0
M  V30 16653 C 1599.82 4.89486 5.27064 0
M  V30 16654 C 1601.85 3.70694 4.60804 0
M  V30 16655 C 1601.21 4.85505 5.10357 0
M  V30 16656 H 1597.31 0.135728 0.770131 0
M  V30 16657 H 1599.89 0.922227 1.71473 0
M  V30 16658 H 1598.06 -0.393749 3.86399 0
M  V30 16659 H 1599.8 -0.220661 4.04098 0
M  V30 16660 H 1596.55 1.76744 4.39384 0
M  V30 16661 H 1596.98 4.23292 5.28349 0
M  V30 16662 H 1601.62 1.69481 3.87345 0
M  V30 16663 H 1599.34 5.77692 5.65064 0
M  V30 16664 H 1602.92 3.70539 4.48545 0
M  V30 16665 H 1601.8 5.71998 5.36459 0
M  V30 16666 N 1599.3 -1.51086 0.448402 0
M  V30 16667 C 1600.72 -1.59278 0.101286 0
M  V30 16668 C 1600.92 -1.45847 -1.39036 0
M  V30 16669 O 1599.98 -1.30534 -2.16142 0
M  V30 16670 C 1601.29 -2.93999 0.631264 0
M  V30 16671 C 1602.84 -3.07337 0.59268 0
M  V30 16672 C 1603.31 -4.44599 1.09982 0
M  V30 16673 N 1604.8 -4.50949 1.05827 0
M  V30 16674 C 1605.54 -5.55503 1.42142 0
M  V30 16675 N 1605.03 -6.67422 1.85796 0
M  V30 16676 N 1606.83 -5.45922 1.33888 0
M  V30 16677 H 1598.98 -1.58062 1.41881 0
M  V30 16678 H 1601.24 -0.745702 0.585349 0
M  V30 16679 H 1600.95 -3.09233 1.67534 0
M  V30 16680 H 1600.82 -3.77149 0.0622533 0
M  V30 16681 H 1603.21 -2.91764 -0.442437 0
M  V30 16682 H 1603.29 -2.26 1.19823 0
M  V30 16683 H 1602.93 -4.60919 2.13345 0
M  V30 16684 H 1602.86 -5.24492 0.470703 0
M  V30 16685 H 1605.35 -3.70627 0.737822 0
M  V30 16686 H 1605.67 -7.43234 2.11714 0
M  V30 16687 H 1604.01 -6.68601 1.89731 0
M  V30 16688 H 1607.2 -4.57372 0.996415 0
M  V30 16689 H 1607.38 -6.2729 1.62517 0
M  V30 16690 N 1600.78 -0.180154 -1.56567 0
M  V30 16691 C 1601.75 0.732809 -2.17169 0
M  V30 16692 C 1602.75 1.15176 -1.1221 0
M  V30 16693 O 1603.94 1.06728 -1.37677 0
M  V30 16694 C 1601.07 1.99857 -2.7617 0
M  V30 16695 H 1602.26 0.205088 -2.99198 0
M  V30 16696 H 1599.81 0.0694351 -1.56146 0
M  V30 16697 H 1600.55 2.56917 -1.97899 0
M  V30 16698 H 1600.33 1.70705 -3.5299 0
M  V30 16699 H 1601.82 2.64992 -3.22752 0
M  V30 16700 N 1602.26 1.57322 0.0935319 0
M  V30 16701 C 1603.22 2.0121 1.0976 0
M  V30 16702 C 1604.22 0.905839 1.32858 0
M  V30 16703 O 1605.41 1.17128 1.28945 0
M  V30 16704 C 1602.55 2.37414 2.44638 0
M  V30 16705 H 1603.74 2.91134 0.719809 0
M  V30 16706 H 1601.29 1.52588 0.338625 0
M  V30 16707 H 1602.03 1.50449 2.8729 0
M  V30 16708 H 1601.81 3.1812 2.2922 0
M  V30 16709 H 1603.3 2.7202 3.16851 0
M  V30 16710 N 1603.74 -0.364395 1.53329 0
M  V30 16711 C 1604.99 -1.10473 1.69234 0
M  V30 16712 C 1605.31 -1.89799 0.447347 0
M  V30 16713 O 1604.58 -1.8835 -0.538612 0
M  V30 16714 H 1603.16 -0.410826 0.623884 0
M  V30 16715 H 1605.82 -0.410721 1.90523 0
M  V30 16716 H 1604.92 -1.79387 2.55396 0
M  V30 16717 N 1605.22 -1.44709 -0.62426 0
M  V30 16718 C 1606.63 -1.42523 -1.20599 0
M  V30 16719 C 1606.98 -0.144129 -1.9567 0
M  V30 16720 O 1606.1 0.755175 -2.02796 0
M  V30 16721 C 1606.7 -2.58194 -2.19365 0
M  V30 16722 C 1605.26 -2.59181 -2.72951 0
M  V30 16723 C 1604.4 -2.34461 -1.48065 0
M  V30 16724 H 1607.36 -1.5319 -0.414532 0
M  V30 16725 H 1607.38 -2.3134 -3.02096 0
M  V30 16726 H 1606.89 -3.5142 -1.64699 0
M  V30 16727 H 1604.99 -1.69916 -3.31601 0
M  V30 16728 H 1605.1 -3.57884 -3.18521 0
M  V30 16729 H 1603.47 -1.83688 -1.76439 0
M  V30 16730 H 1604.25 -3.2981 -0.952918 0
M  V30 16731 N 1606.69 0.865285 -1.31722 0
M  V30 16732 C 1607.66 1.95449 -1.19718 0
M  V30 16733 C 1608.66 1.60329 -0.123025 0
M  V30 16734 O 1609.85 1.70168 -0.372643 0
M  V30 16735 C 1606.98 3.30421 -0.838718 0
M  V30 16736 H 1608.17 2.07522 -2.16506 0
M  V30 16737 H 1605.73 1.05416 -1.154 0
M  V30 16738 H 1606.46 3.24048 0.127797 0
M  V30 16739 H 1606.25 3.57286 -1.61522 0
M  V30 16740 H 1607.74 4.10274 -0.77876 0
M  V30 16741 N 1608.17 1.14759 1.0802 0
M  V30 16742 C 1609.58 0.928711 1.61963 0
M  V30 16743 C 1609.93 -0.531568 1.88862 0
M  V30 16744 O 1609.06 -1.40129 1.64902 0
M  V30 16745 C 1609.65 1.67943 2.94246 0
M  V30 16746 C 1608.21 1.50602 3.44958 0
M  V30 16747 C 1607.36 1.69938 2.19126 0
M  V30 16748 H 1610.31 1.29882 0.911945 0
M  V30 16749 H 1610.33 1.14493 3.62866 0
M  V30 16750 H 1609.84 2.7422 2.74636 0
M  V30 16751 H 1607.95 0.466901 3.69663 0
M  V30 16752 H 1608.06 2.27857 4.21447 0
M  V30 16753 H 1606.42 1.12534 2.28491 0
M  V30 16754 H 1607.21 2.77566 2.0202 0
M  V30 16755 N 1609.65 -1.26251 0.943322 0
M  V30 16756 C 1610.9 -1.9327 0.590863 0
M  V30 16757 C 1611.22 -1.74356 -0.873212 0
M  V30 16758 O 1610.49 -1.10046 -1.6207 0
M  V30 16759 H 1609.07 -0.71523 0.215535 0
M  V30 16760 H 1611.73 -1.53647 1.19911 0
M  V30 16761 H 1610.83 -3.01393 0.810475 0
M  V30 16762 N 1611.13 -0.710588 -1.40671 0
M  V30 16763 C 1612.08 -0.031353 -2.27978 0
M  V30 16764 C 1613.06 0.737643 -1.42995 0
M  V30 16765 O 1614.26 0.610666 -1.66132 0
M  V30 16766 C 1611.38 0.893329 -3.31473 0
M  V30 16767 C 1610.47 0.119785 -4.23931 0
M  V30 16768 N 1610.86 -0.894341 -4.9783 0
M  V30 16769 C 1609.16 0.353077 -4.446 0
M  V30 16770 C 1609.86 -1.3587 -5.6561 0
M  V30 16771 N 1608.84 -0.681786 -5.39308 0
M  V30 16772 H 1612.64 -0.808683 -2.82555 0
M  V30 16773 H 1610.15 -0.542734 -1.53063 0
M  V30 16774 H 1612.15 1.39521 -3.92861 0
M  V30 16775 H 1610.81 1.67009 -2.78457 0
M  V30 16776 H 1611.82 -1.27504 -5.01959 0
M  V30 16777 H 1608.5 1.10655 -4.02569 0
M  V30 16778 H 1609.89 -2.20108 -6.34825 0
M  V30 16779 N 1612.61 1.50847 -0.456408 0
M  V30 16780 C 1613.52 2.31959 0.351027 0
M  V30 16781 C 1614.53 1.41697 1.00986 0
M  V30 16782 O 1615.71 1.7476 1.00105 0
M  V30 16783 C 1612.77 3.15973 1.42696 0
M  V30 16784 C 1611.84 4.22038 0.786272 0
M  V30 16785 C 1611.07 5.02036 1.81094 0
M  V30 16786 O 1611.29 4.82913 3.03564 0
M  V30 16787 O 1610.23 5.85609 1.3909 0
M  V30 16788 H 1614.05 3.02096 -0.311678 0
M  V30 16789 H 1611.64 1.47793 -0.218544 0
M  V30 16790 H 1613.52 3.68146 2.05053 0
M  V30 16791 H 1612.19 2.48579 2.0734 0
M  V30 16792 H 1611.1 3.73894 0.124148 0
M  V30 16793 H 1612.43 4.9186 0.183016 0
M  V30 16794 N 1614.09 0.188454 1.56469 0
M  V30 16795 C 1615.36 -0.499324 1.89119 0
M  V30 16796 C 1615.74 -1.80116 1.10098 0
M  V30 16797 O 1615.09 -2.27623 0.200048 0
M  V30 16798 C 1615.3 -0.724574 3.41396 0
M  V30 16799 C 1616.65 -1.04692 4.11491 0
M  V30 16800 O 1617.67 -0.812526 3.46809 0
M  V30 16801 O 1616.53 -1.48998 5.25797 0
M  V30 16802 H 1613.63 -0.259468 0.785242 0
M  V30 16803 H 1616.17 0.228172 1.68159 0
M  V30 16804 H 1614.94 0.195039 3.90814 0
M  V30 16805 H 1614.57 -1.50477 3.68025 0
M  V30 16806 N 1615.56 -1.5737 -0.0851874 0
M  V30 16807 C 1616.8 -1.88417 -0.792354 0
M  V30 16808 C 1617.17 -0.78065 -1.75413 0
M  V30 16809 O 1618.37 -0.973819 -2.5054 0
M  V30 16810 C 1616.64 -3.24703 -1.4934 0
M  V30 16811 S 1618.2 -3.77468 -2.23748 0
M  V30 16812 H 1615.02 -0.66026 -0.263777 0
M  V30 16813 H 1617.62 -1.95439 -0.0490248 0
M  V30 16814 H 1616.32 -4.02931 -0.779426 0
M  V30 16815 H 1615.85 -3.20846 -2.27643 0
M  V30 16816 H 1617.87 -3.51679 -3.50052 0
M  V30 16817 N 1617.04 0.356258 -1.53521 0
M  V30 16818 C 1617.99 1.45718 -1.81298 0
M  V30 16819 C 1618.98 1.55036 -0.682652 0
M  V30 16820 O 1620.19 1.57812 -0.865766 0
M  V30 16821 H 1616.56 0.485614 -0.57418 0
M  V30 16822 H 1618.54 1.19498 -2.73428 0
M  V30 16823 C 1617.28 2.82424 -2.0281 0
M  V30 16824 H 1616.61 2.76016 -2.89232 0
M  V30 16825 H 1618.05 3.5861 -2.26218 0
M  V30 16826 C 1616.51 3.2702 -0.809893 0
M  V30 16827 O 1617.04 4.017 -0.00310668 0
M  V30 16828 N 1615.24 2.83673 -0.630696 0
M  V30 16829 H 1614.79 2.23066 -1.28839 0
M  V30 16830 H 1614.75 3.13867 0.182961 0
M  V30 16831 N 1618.52 1.45038 0.616577 0
M  V30 16832 C 1619.77 1.48292 1.3731 0
M  V30 16833 C 1620.09 0.122437 1.94615 0
M  V30 16834 O 1619.36 -0.847103 1.76638 0
M  V30 16835 H 1617.94 0.546079 0.509712 0
M  V30 16836 H 1620.6 1.80927 0.724673 0
M  V30 16837 H 1619.7 2.21664 2.19708 0
M  V30 16838 N 1620 -0.858287 1.32179 0
M  V30 16839 C 1621.41 -1.14591 1.1109 0
M  V30 16840 C 1621.61 -2.01194 -0.110998 0
M  V30 16841 O 1620.67 -2.39593 -0.79695 0
M  V30 16842 C 1621.98 -1.82675 2.38852 0
M  V30 16843 C 1623.53 -1.95326 2.44574 0
M  V30 16844 C 1624.01 -2.66826 3.72247 0
M  V30 16845 N 1625.5 -2.74353 3.73208 0
M  V30 16846 C 1626.23 -3.30317 4.68698 0
M  V30 16847 N 1625.73 -3.87121 5.74552 0
M  V30 16848 N 1627.52 -3.28386 4.562 0
M  V30 16849 H 1619.67 -0.281471 2.10527 0
M  V30 16850 H 1621.93 -0.187326 0.929308 0
M  V30 16851 H 1621.64 -1.26495 3.28165 0
M  V30 16852 H 1621.51 -2.82862 2.49537 0
M  V30 16853 H 1623.9 -2.50668 1.55723 0
M  V30 16854 H 1623.98 -0.94147 2.37844 0
M  V30 16855 H 1623.63 -2.12149 4.61471 0
M  V30 16856 H 1623.56 -3.68437 3.76247 0
M  V30 16857 H 1626.05 -2.34051 2.96696 0
M  V30 16858 H 1626.36 -4.2797 6.43476 0
M  V30 16859 H 1624.71 -3.85463 5.78311 0
M  V30 16860 H 1627.9 -2.83254 3.72672 0
M  V30 16861 H 1628.07 -3.71701 5.30794 0
M  V30 16862 N 1621.48 -1.1533 -1.07409 0
M  V30 16863 C 1622.41 -0.793078 -2.13976 0
M  V30 16864 C 1623.39 0.23021 -1.60962 0
M  V30 16865 O 1624.57 0.116904 -1.88137 0
M  V30 16866 C 1621.7 -0.179232 -3.38225 0
M  V30 16867 C 1620.74 -1.17432 -4.10015 0
M  V30 16868 S 1621.58 -2.7161 -4.61506 0
M  V30 16869 C 1622.73 -2.11643 -5.89031 0
M  V30 16870 H 1622.97 -1.69568 -2.44201 0
M  V30 16871 H 1620.5 -0.975582 -1.19674 0
M  V30 16872 H 1622.46 0.168494 -4.10154 0
M  V30 16873 H 1621.12 0.700954 -3.06179 0
M  V30 16874 H 1620.31 -0.693027 -4.99213 0
M  V30 16875 H 1619.91 -1.46655 -3.44047 0
M  V30 16876 H 1622.2 -1.47812 -6.61179 0
M  V30 16877 H 1623.15 -2.99006 -6.41873 0
M  V30 16878 H 1623.56 -1.55971 -5.42525 0
M  V30 16879 N 1622.95 1.25748 -0.950004 0
M  V30 16880 C 1624.36 1.75253 -0.643694 0
M  V30 16881 C 1624.72 1.77261 0.841017 0
M  V30 16882 O 1623.84 1.39043 1.65819 0
M  V30 16883 C 1624.44 3.1826 -1.16173 0
M  V30 16884 C 1622.99 3.65342 -0.905672 0
M  V30 16885 C 1622.14 2.4454 -1.30749 0
M  V30 16886 H 1625.09 1.117 -1.12733 0
M  V30 16887 H 1625.11 3.76935 -0.519651 0
M  V30 16888 H 1624.63 3.16766 -2.24234 0
M  V30 16889 H 1622.73 3.72256 0.160174 0
M  V30 16890 H 1622.84 4.53713 -1.53888 0
M  V30 16891 H 1621.2 2.44138 -0.725876 0
M  V30 16892 H 1621.99 2.45741 -2.39721 0
M  V30 16893 N 1624.43 0.718038 1.40292 0
M  V30 16894 C 1625.66 0.266918 2.05675 0
M  V30 16895 C 1626.08 -1.08364 1.53749 0
M  V30 16896 O 1625.44 -1.6831 0.673912 0
M  V30 16897 C 1625.49 0.259606 3.59664 0
M  V30 16898 O 1624.59 -0.758372 4.05367 0
M  V30 16899 H 1623.93 0.124786 0.652169 0
M  V30 16900 H 1626.46 0.979207 1.79646 0
M  V30 16901 H 1626.47 0.098135 4.07882 0
M  V30 16902 H 1625.15 1.24517 3.96823 0
M  V30 16903 H 1623.72 -0.564425 3.68604 0
M  V30 16904 N 1625.91 -1.50602 0.464402 0
M  V30 16905 C 1627.16 -2.01478 -0.0945398 0
M  V30 16906 C 1627.47 -1.35165 -1.41386 0
M  V30 16907 O 1628.68 -1.7716 -2.05735 0
M  V30 16908 C 1627.13 -3.59233 -0.219003 0
M  V30 16909 C 1626.74 -4.345 1.09148 0
M  V30 16910 C 1628.49 -4.18172 -0.730262 0
M  V30 16911 C 1626.39 -5.84023 0.931179 0
M  V30 16912 H 1625.32 -0.752985 -0.0391065 0
M  V30 16913 H 1627.97 -1.73473 0.598283 0
M  V30 16914 H 1626.36 -3.83798 -0.975455 0
M  V30 16915 H 1627.53 -4.21665 1.85837 0
M  V30 16916 H 1625.85 -3.8714 1.53334 0
M  V30 16917 H 1628.44 -5.27622 -0.867119 0
M  V30 16918 H 1628.79 -3.79113 -1.71986 0
M  V30 16919 H 1629.32 -3.97788 -0.0313808 0
M  V30 16920 H 1626.06 -6.27543 1.89395 0
M  V30 16921 H 1625.58 -5.99451 0.20456 0
M  V30 16922 H 1627.26 -6.44257 0.595118 0
M  V30 16923 N 1627.39 -0.19675 -1.56367 0
M  V30 16924 C 1628.35 0.709734 -2.17934 0
M  V30 16925 C 1629.35 1.13979 -1.13426 0
M  V30 16926 O 1630.54 1.05261 -1.38801 0
M  V30 16927 C 1627.67 1.96917 -2.78274 0
M  V30 16928 H 1628.87 0.173342 -2.99399 0
M  V30 16929 H 1626.42 0.0528698 -1.56211 0
M  V30 16930 H 1627.15 2.54804 -2.00613 0
M  V30 16931 H 1626.94 1.66951 -3.54781 0
M  V30 16932 H 1628.43 2.61554 -3.25545 0
M  V30 16933 N 1628.87 1.57413 0.0768405 0
M  V30 16934 C 1629.81 2.0334 1.09185 0
M  V30 16935 C 1630.78 0.913073 1.38752 0
M  V30 16936 O 1631.97 1.18038 1.49906 0
M  V30 16937 C 1629.11 2.47805 2.40181 0
M  V30 16938 C 1628.22 3.73435 2.17188 0
M  V30 16939 C 1627.36 4.06703 3.41711 0
M  V30 16940 C 1626.4 5.25388 3.1406 0
M  V30 16941 N 1625.53 5.54319 4.309 0
M  V30 16942 H 1630.37 2.89825 0.693223 0
M  V30 16943 H 1627.91 1.43334 0.330736 0
M  V30 16944 H 1629.87 2.71635 3.16655 0
M  V30 16945 H 1628.5 1.64305 2.77856 0
M  V30 16946 H 1627.55 3.56974 1.3143 0
M  V30 16947 H 1628.86 4.60049 1.9276 0
M  V30 16948 H 1628.02 4.31407 4.26583 0
M  V30 16949 H 1626.75 3.18646 3.6921 0
M  V30 16950 H 1625.76 5.00486 2.27583 0
M  V30 16951 H 1626.98 6.15059 2.87888 0
M  V30 16952 H 1624.93 4.69222 4.5844 0
M  V30 16953 H 1624.85 6.35342 4.09727 0
M  V30 16954 H 1626.12 5.83571 5.16783 0
M  V30 16955 N 1630.34 -0.348112 1.53707 0
M  V30 16956 C 1631.62 -1.1056 1.61356 0
M  V30 16957 C 1632 -2.06633 0.431955 0
M  V30 16958 O 1631.35 -2.21115 -0.576211 0
M  V30 16959 C 1631.56 -1.82929 2.97217 0
M  V30 16960 C 1632.91 -2.36837 3.52411 0
M  V30 16961 O 1633.93 -1.93032 2.99361 0
M  V30 16962 O 1632.79 -3.16966 4.45191 0
M  V30 16963 H 1629.88 -0.50817 0.652451 0
M  V30 16964 H 1632.43 -0.349971 1.66052 0
M  V30 16965 H 1631.2 -1.12912 3.74655 0
M  V30 16966 H 1630.83 -2.65361 2.9609 0
M  V30 16967 N 1631.82 -1.45363 -0.608876 0
M  V30 16968 C 1633.07 -1.49534 -1.36995 0
M  V30 16969 C 1633.4 -0.136087 -1.93723 0
M  V30 16970 O 1632.68 0.849276 -1.74979 0
M  V30 16971 C 1632.96 -2.57348 -2.51881 0
M  V30 16972 C 1632.81 -4.02712 -2.00358 0
M  V30 16973 C 1634.13 -2.61459 -3.54016 0
M  V30 16974 H 1631.25 -0.544419 -0.496767 0
M  V30 16975 H 1633.89 -1.77165 -0.686473 0
M  V30 16976 H 1632.04 -2.33917 -3.10185 0
M  V30 16977 H 1633.71 -4.37348 -1.46713 0
M  V30 16978 H 1631.96 -4.1343 -1.31369 0
M  V30 16979 H 1632.63 -4.73834 -2.8317 0
M  V30 16980 H 1635.1 -2.8245 -3.0555 0
M  V30 16981 H 1633.98 -3.38761 -4.31894 0
M  V30 16982 H 1634.24 -1.66499 -4.09549 0
M  V30 16983 N 1633.3 0.851265 -1.32632 0
M  V30 16984 C 1634.55 1.60569 -1.23385 0
M  V30 16985 C 1634.88 1.93433 0.203484 0
M  V30 16986 O 1634.13 1.57806 1.1574 0
M  V30 16987 C 1634.43 2.93312 -2.04212 0
M  V30 16988 C 1634.1 2.79864 -3.53535 0
M  V30 16989 C 1632.76 2.75903 -3.94247 0
M  V30 16990 C 1635.11 2.65553 -4.48476 0
M  V30 16991 C 1632.44 2.55515 -5.28137 0
M  V30 16992 C 1634.79 2.467 -5.82514 0
M  V30 16993 C 1633.45 2.41134 -6.22423 0
M  V30 16994 H 1632.72 0.587563 -0.451498 0
M  V30 16995 H 1635.37 0.987209 -1.64093 0
M  V30 16996 H 1633.68 3.59298 -1.56243 0
M  V30 16997 H 1635.37 3.50714 -1.94424 0
M  V30 16998 H 1631.96 2.83773 -3.21202 0
M  V30 16999 H 1636.15 2.67655 -4.17941 0
M  V30 17000 H 1631.4 2.49644 -5.58111 0
M  V30 17001 H 1635.58 2.34607 -6.55692 0
M  V30 17002 H 1633.2 2.25095 -7.2611 0
M  V30 17003 N 1634.78 1.15898 1.06796 0
M  V30 17004 C 1636.01 0.961372 1.83208 0
M  V30 17005 C 1636.42 -0.490392 1.8232 0
M  V30 17006 O 1635.78 -1.34025 1.2387 0
M  V30 17007 C 1635.83 1.47486 3.30045 0
M  V30 17008 O 1635.55 2.86976 3.31023 0
M  V30 17009 C 1637.05 1.31955 4.23205 0
M  V30 17010 H 1634.27 0.34109 0.57784 0
M  V30 17011 H 1636.82 1.53805 1.34775 0
M  V30 17012 H 1634.97 0.940586 3.75808 0
M  V30 17013 H 1635.38 3.1038 4.22805 0
M  V30 17014 H 1636.86 1.72721 5.24282 0
M  V30 17015 H 1637.34 0.264439 4.38403 0
M  V30 17016 H 1637.94 1.84319 3.83284 0
M  V30 17017 N 1636.26 -1.25243 0.956659 0
M  V30 17018 C 1637.2 -2.25811 0.477292 0
M  V30 17019 C 1638.17 -1.59273 -0.471301 0
M  V30 17020 O 1639.36 -1.86894 -0.384105 0
M  V30 17021 C 1636.5 -3.44286 -0.236891 0
M  V30 17022 C 1635.61 -4.25454 0.749177 0
M  V30 17023 C 1634.75 -5.31199 0.012228 0
M  V30 17024 C 1633.79 -6.04056 0.989094 0
M  V30 17025 N 1632.92 -7.0153 0.282883 0
M  V30 17026 H 1637.76 -2.66185 1.33977 0
M  V30 17027 H 1635.3 -1.30862 0.671832 0
M  V30 17028 H 1637.26 -4.11825 -0.66755 0
M  V30 17029 H 1635.89 -3.04781 -1.06339 0
M  V30 17030 H 1634.94 -3.57558 1.29831 0
M  V30 17031 H 1636.25 -4.75883 1.49454 0
M  V30 17032 H 1635.41 -6.04822 -0.476968 0
M  V30 17033 H 1634.14 -4.81648 -0.76591 0
M  V30 17034 H 1633.15 -5.29245 1.48927 0
M  V30 17035 H 1634.37 -6.55695 1.76749 0
M  V30 17036 H 1632.32 -6.54267 -0.476479 0
M  V30 17037 H 1632.24 -7.49786 0.967304 0
M  V30 17038 H 1633.51 -7.79281 -0.184709 0
M  V30 17039 N 1637.73 -0.725468 -1.3991 0
M  V30 17040 C 1638.67 -0.0282009 -2.28183 0
M  V30 17041 C 1639.65 0.757539 -1.43875 0
M  V30 17042 O 1640.83 0.742105 -1.73277 0
M  V30 17043 C 1637.96 0.967357 -3.24592 0
M  V30 17044 C 1637 0.271249 -4.25637 0
M  V30 17045 S 1637.84 -1.00796 -5.25928 0
M  V30 17046 C 1638.99 -0.0147605 -6.25898 0
M  V30 17047 H 1639.22 -0.776815 -2.86972 0
M  V30 17048 H 1636.76 -0.516881 -1.45491 0
M  V30 17049 H 1638.72 1.5365 -3.8066 0
M  V30 17050 H 1637.38 1.68874 -2.6484 0
M  V30 17051 H 1636.57 1.02421 -4.93483 0
M  V30 17052 H 1636.17 -0.225603 -3.73319 0
M  V30 17053 H 1638.46 0.828816 -6.72411 0
M  V30 17054 H 1639.41 -0.66011 -7.05016 0
M  V30 17055 H 1639.81 0.353381 -5.63393 0
M  V30 17056 N 1639.21 1.50354 -0.472382 0
M  V30 17057 C 1640.46 2.01934 0.0820006 0
M  V30 17058 C 1640.78 1.35636 1.401 0
M  V30 17059 O 1640.05 0.502127 1.89355 0
M  V30 17060 H 1638.63 0.746258 0.0332943 0
M  V30 17061 H 1641.29 1.84671 -0.623099 0
M  V30 17062 H 1640.39 3.11232 0.232565 0
M  V30 17063 N 1640.69 0.205039 1.56261 0
M  V30 17064 C 1641.97 -0.479238 1.89638 0
M  V30 17065 C 1642.35 -1.78938 1.12002 0
M  V30 17066 O 1641.7 -2.27398 0.224179 0
M  V30 17067 C 1641.91 -0.688324 3.42145 0
M  V30 17068 C 1643.25 -1.00322 4.12578 0
M  V30 17069 O 1644.28 -0.775697 3.47651 0
M  V30 17070 O 1643.14 -1.43412 5.27347 0
M  V30 17071 H 1640.23 -0.251125 0.78795 0
M  V30 17072 H 1642.78 0.245994 1.67908 0
M  V30 17073 H 1641.55 0.236479 3.90585 0
M  V30 17074 H 1641.17 -1.46565 3.696 0
M  V30 17075 N 1642.17 -1.57451 -0.0684915 0
M  V30 17076 C 1643.59 -1.53883 -0.423354 0
M  V30 17077 C 1643.79 -0.925698 -1.78978 0
M  V30 17078 O 1642.84 -0.529629 -2.46883 0
M  V30 17079 C 1644.15 -2.98521 -0.361386 0
M  V30 17080 C 1645.7 -3.09873 -0.441334 0
M  V30 17081 C 1646.18 -4.56168 -0.409239 0
M  V30 17082 N 1647.67 -4.60817 -0.469216 0
M  V30 17083 C 1648.4 -5.71498 -0.466648 0
M  V30 17084 N 1647.9 -6.91534 -0.4187 0
M  V30 17085 N 1649.69 -5.5975 -0.513452 0
M  V30 17086 H 1641.84 -1.95672 0.8262 0
M  V30 17087 H 1644.11 -0.895759 0.310354 0
M  V30 17088 H 1643.81 -3.46951 0.576035 0
M  V30 17089 H 1643.69 -3.58585 -1.17032 0
M  V30 17090 H 1646.07 -2.61414 -1.36918 0
M  V30 17091 H 1646.15 -2.52712 0.396237 0
M  V30 17092 H 1645.8 -5.05285 0.514772 0
M  V30 17093 H 1645.73 -5.11195 -1.26439 0
M  V30 17094 H 1648.22 -3.74438 -0.510387 0
M  V30 17095 H 1648.53 -7.71654 -0.420757 0
M  V30 17096 H 1646.88 -6.93931 -0.385338 0
M  V30 17097 H 1650.07 -4.64874 -0.548626 0
M  V30 17098 H 1650.24 -6.46006 -0.507982 0
M  V30 17099 N 1643.65 0.339955 -1.5389 0
M  V30 17100 C 1644.9 1.07766 -1.7097 0
M  V30 17101 C 1645.22 1.89064 -0.477486 0
M  V30 17102 O 1644.49 1.89183 0.508579 0
M  V30 17103 H 1643.07 0.400849 -0.630341 0
M  V30 17104 H 1645.73 0.380359 -1.91153 0
M  V30 17105 H 1644.82 1.75301 -2.58217 0
M  V30 17106 N 1645.13 1.45684 0.601159 0
M  V30 17107 C 1646.4 1.4051 1.36074 0
M  V30 17108 C 1646.78 0.0790095 2.10952 0
M  V30 17109 O 1646.13 -0.939162 2.08307 0
M  V30 17110 C 1646.34 2.62297 2.3022 0
M  V30 17111 C 1647.69 3.0766 2.92627 0
M  V30 17112 O 1648.71 2.62716 2.40539 0
M  V30 17113 O 1647.57 3.85675 3.87191 0
M  V30 17114 H 1644.67 0.557902 0.61047 0
M  V30 17115 H 1647.21 1.57822 0.623712 0
M  V30 17116 H 1645.98 3.50389 1.74194 0
M  V30 17117 H 1645.61 2.47351 3.11293 0
M  V30 17118 N 1646.6 -0.84422 1.33082 0
M  V30 17119 C 1648.02 -1.13406 1.12299 0
M  V30 17120 C 1648.22 -2.013 -0.0896529 0
M  V30 17121 O 1647.28 -2.40425 -0.771493 0
M  V30 17122 C 1648.59 -1.80132 2.40776 0
M  V30 17123 C 1650.14 -1.92721 2.46632 0
M  V30 17124 C 1650.61 -2.62863 3.75056 0
M  V30 17125 N 1652.1 -2.70379 3.76097 0
M  V30 17126 C 1652.84 -3.25328 4.72175 0
M  V30 17127 N 1652.33 -3.81005 5.78625 0
M  V30 17128 N 1654.13 -3.23529 4.59658 0
M  V30 17129 H 1646.28 -0.259126 2.10813 0
M  V30 17130 H 1648.54 -0.177459 0.931242 0
M  V30 17131 H 1648.25 -1.23007 3.29488 0
M  V30 17132 H 1648.12 -2.802 2.52523 0
M  V30 17133 H 1650.51 -2.49002 1.58373 0
M  V30 17134 H 1650.59 -0.916191 2.3883 0
M  V30 17135 H 1650.23 -2.07242 4.63695 0
M  V30 17136 H 1650.16 -3.64425 3.80134 0
M  V30 17137 H 1652.65 -2.30891 2.99162 0
M  V30 17138 H 1652.97 -4.21121 6.47979 0
M  V30 17139 H 1651.31 -3.79308 5.82366 0
M  V30 17140 H 1654.5 -2.79286 3.75656 0
M  V30 17141 H 1654.68 -3.66051 5.34706 0
M  V30 17142 N 1648.08 -1.16463 -1.0618 0
M  V30 17143 C 1649.33 -0.944975 -1.78647 0
M  V30 17144 C 1649.65 0.528486 -1.87702 0
M  V30 17145 O 1648.92 1.38391 -1.38653 0
M  V30 17146 H 1647.5 -0.346637 -0.661704 0
M  V30 17147 H 1650.16 -1.46752 -1.28257 0
M  V30 17148 H 1649.26 -1.36469 -2.80683 0
M  V30 17149 N 1649.56 1.24734 -0.963288 0
M  V30 17150 C 1650.47 2.29268 -0.497316 0
M  V30 17151 C 1651.49 1.68356 0.439572 0
M  V30 17152 O 1652.66 1.98942 0.313697 0
M  V30 17153 C 1649.73 3.46068 0.209261 0
M  V30 17154 C 1648.79 4.22394 -0.766907 0
M  V30 17155 C 1648.02 5.33617 -0.0939542 0
M  V30 17156 O 1648.24 5.59323 1.11864 0
M  V30 17157 O 1647.18 5.96774 -0.78388 0
M  V30 17158 H 1651 2.71235 -1.36622 0
M  V30 17159 H 1648.59 1.30344 -0.730126 0
M  V30 17160 H 1650.47 4.17015 0.606367 0
M  V30 17161 H 1649.15 3.06087 1.0532 0
M  V30 17162 H 1648.05 3.53841 -1.21439 0
M  V30 17163 H 1649.39 4.66181 -1.57912 0
M  V30 17164 N 1651.04 0.732878 1.39523 0
M  V30 17165 C 1652.31 0.20629 1.94509 0
M  V30 17166 C 1652.69 -1.29152 1.66982 0
M  V30 17167 O 1652.04 -2.05607 0.996895 0
M  V30 17168 C 1652.25 0.537619 3.44834 0
M  V30 17169 C 1653.6 0.485787 4.21812 0
M  V30 17170 O 1654.62 0.474686 3.53023 0
M  V30 17171 O 1653.48 0.478457 5.44402 0
M  V30 17172 H 1650.58 0.0369228 0.826175 0
M  V30 17173 H 1653.12 0.811591 1.49035 0
M  V30 17174 H 1651.9 1.57289 3.58296 0
M  V30 17175 H 1651.52 -0.0967601 3.97482 0
M  V30 17176 N 1652.52 -1.50101 0.480349 0
M  V30 17177 C 1653.43 -2.32488 -0.31408 0
M  V30 17178 C 1654.44 -1.43285 -0.987186 0
M  V30 17179 O 1655.62 -1.7633 -0.973123 0
M  V30 17180 C 1652.68 -3.18203 -1.37651 0
M  V30 17181 C 1651.74 -4.23236 -0.71903 0
M  V30 17182 C 1650.98 -5.04854 -1.73084 0
M  V30 17183 O 1651.2 -4.87681 -2.95843 0
M  V30 17184 O 1650.13 -5.87748 -1.29755 0
M  V30 17185 H 1653.96 -3.01562 0.3597 0
M  V30 17186 H 1651.54 -1.47427 0.242029 0
M  V30 17187 H 1653.43 -3.71362 -1.9917 0
M  V30 17188 H 1652.1 -2.51846 -2.0336 0
M  V30 17189 H 1651.01 -3.74044 -0.0646492 0
M  V30 17190 H 1652.34 -4.92089 -0.104743 0
M  V30 17191 N 1653.99 -0.213323 -1.5615 0
M  V30 17192 C 1654.9 0.711703 -2.23544 0
M  V30 17193 C 1655.92 1.22027 -1.24038 0
M  V30 17194 O 1657.1 1.26361 -1.56828 0
M  V30 17195 C 1654.16 1.90645 -2.89578 0
M  V30 17196 C 1653.22 1.44066 -4.04405 0
M  V30 17197 C 1652.45 2.57846 -4.6728 0
M  V30 17198 O 1652.68 3.75781 -4.29121 0
M  V30 17199 O 1651.61 2.29518 -5.56422 0
M  V30 17200 H 1655.44 0.167635 -3.03237 0
M  V30 17201 H 1653.02 0.016771 -1.49391 0
M  V30 17202 H 1654.9 2.60435 -3.31288 0
M  V30 17203 H 1653.58 2.43877 -2.12851 0
M  V30 17204 H 1652.49 0.711024 -3.67281 0
M  V30 17205 H 1653.82 0.954809 -4.8285 0
M  V30 17206 N 1655.47 1.57485 0.0601405 0
M  V30 17207 C 1656.38 2.07853 1.08785 0
M  V30 17208 C 1657.4 1.01047 1.41653 0
M  V30 17209 O 1658.57 1.32592 1.51596 0
M  V30 17210 C 1655.64 2.52214 2.37885 0
M  V30 17211 C 1654.7 3.73369 2.11882 0
M  V30 17212 C 1653.93 4.15604 3.34827 0
M  V30 17213 O 1654.16 3.5761 4.44377 0
M  V30 17214 O 1653.09 5.08303 3.22353 0
M  V30 17215 H 1656.92 2.9576 0.689912 0
M  V30 17216 H 1654.5 1.46846 0.275065 0
M  V30 17217 H 1656.38 2.81216 3.1384 0
M  V30 17218 H 1655.06 1.67432 2.77035 0
M  V30 17219 H 1653.97 3.49433 1.33594 0
M  V30 17220 H 1655.3 4.59039 1.77606 0
M  V30 17221 N 1656.95 -0.331789 1.54068 0
M  V30 17222 C 1658.2 -1.06818 1.71093 0
M  V30 17223 C 1658.51 -1.89438 0.487111 0
M  V30 17224 O 1659.72 -2.66105 0.538544 0
M  V30 17225 C 1658.17 -1.94853 3.02589 0
M  V30 17226 C 1657.78 -1.17384 4.32348 0
M  V30 17227 C 1659.53 -2.68278 3.28979 0
M  V30 17228 C 1657.43 -2.04518 5.54911 0
M  V30 17229 H 1656.36 -0.402501 0.63758 0
M  V30 17230 H 1659.01 -0.326918 1.80564 0
M  V30 17231 H 1657.4 -2.72845 2.87004 0
M  V30 17232 H 1658.57 -0.442208 4.58673 0
M  V30 17233 H 1656.89 -0.556775 4.12661 0
M  V30 17234 H 1659.48 -3.33762 4.1774 0
M  V30 17235 H 1659.83 -3.35476 2.46498 0
M  V30 17236 H 1660.36 -1.97353 3.45394 0
M  V30 17237 H 1657.1 -1.41842 6.3997 0
M  V30 17238 H 1656.62 -2.75438 5.32817 0
M  V30 17239 H 1658.3 -2.63297 5.91002 0
M  V30 17240 N 1658.43 -1.46001 -0.593424 0
M  V30 17241 C 1659.71 -1.4123 -1.35327 0
M  V30 17242 C 1660.09 -0.0901956 -2.10907 0
M  V30 17243 O 1659.43 0.928102 -2.08803 0
M  V30 17244 C 1659.64 -2.63515 -2.28825 0
M  V30 17245 C 1660.99 -3.09208 -2.90991 0
M  V30 17246 O 1662.02 -2.63988 -2.39142 0
M  V30 17247 O 1660.87 -3.87723 -3.8514 0
M  V30 17248 H 1657.97 -0.561132 -0.607503 0
M  V30 17249 H 1660.51 -1.58151 -0.615333 0
M  V30 17250 H 1659.29 -3.51308 -1.72333 0
M  V30 17251 H 1658.91 -2.48999 -3.09976 0
M  V30 17252 N 1659.91 0.83715 -1.33527 0
M  V30 17253 C 1661.14 1.6222 -1.27938 0
M  V30 17254 C 1661.54 1.88592 0.151584 0
M  V30 17255 O 1660.89 1.46772 1.1047 0
M  V30 17256 C 1660.95 2.99561 -1.98754 0
M  V30 17257 C 1660.61 2.96152 -3.48056 0
M  V30 17258 C 1661.61 2.71745 -4.43227 0
M  V30 17259 C 1659.3 3.16233 -3.90259 0
M  V30 17260 C 1661.29 2.67451 -5.78575 0
M  V30 17261 C 1658.98 3.11564 -5.2571 0
M  V30 17262 C 1659.97 2.87204 -6.1968 0
M  V30 17263 O 1659.66 2.82441 -7.5265 0
M  V30 17264 H 1659.39 0.511419 -0.442071 0
M  V30 17265 H 1661.95 1.05075 -1.76489 0
M  V30 17266 H 1660.18 3.58568 -1.44797 0
M  V30 17267 H 1661.87 3.60444 -1.86642 0
M  V30 17268 H 1662.63 2.5598 -4.11946 0
M  V30 17269 H 1658.51 3.34214 -3.17525 0
M  V30 17270 H 1662.06 2.48356 -6.51893 0
M  V30 17271 H 1657.95 3.26879 -5.56615 0
M  V30 17272 H 1658.72 2.98271 -7.62218 0
M  V30 17273 N 1661.38 1.17024 1.05561 0
M  V30 17274 C 1662.61 0.98075 1.82178 0
M  V30 17275 C 1663.03 -0.471027 1.8283 0
M  V30 17276 O 1662.38 -1.32703 1.25284 0
M  V30 17277 C 1662.44 1.50979 3.28463 0
M  V30 17278 O 1662.16 2.90471 3.27961 0
M  V30 17279 C 1663.66 1.36436 4.21782 0
M  V30 17280 H 1660.88 0.3472 0.574189 0
M  V30 17281 H 1663.42 1.55226 1.33136 0
M  V30 17282 H 1661.58 0.980393 3.74789 0
M  V30 17283 H 1661.99 3.14847 4.19489 0
M  V30 17284 H 1663.46 1.78272 5.2242 0
M  V30 17285 H 1663.94 0.310922 4.38098 0
M  V30 17286 H 1664.55 1.88374 3.81308 0
M  V30 17287 N 1662.86 -1.24221 0.969889 0
M  V30 17288 C 1663.79 -2.27619 0.520745 0
M  V30 17289 C 1664.77 -1.64291 -0.440731 0
M  V30 17290 O 1665.96 -1.91265 -0.336381 0
M  V30 17291 C 1663.09 -3.46792 -0.187768 0
M  V30 17292 C 1662.04 -4.22402 0.689945 0
M  V30 17293 C 1661.37 -5.34489 -0.150186 0
M  V30 17294 C 1662.67 -4.83494 1.97562 0
M  V30 17295 H 1664.36 -2.65441 1.38498 0
M  V30 17296 H 1661.91 -1.276 0.667398 0
M  V30 17297 H 1663.86 -4.18263 -0.513216 0
M  V30 17298 H 1662.59 -3.08002 -1.08637 0
M  V30 17299 H 1661.24 -3.52734 0.998696 0
M  V30 17300 H 1660.89 -4.9194 -1.049 0
M  V30 17301 H 1660.59 -5.85996 0.433891 0
M  V30 17302 H 1662.12 -6.08786 -0.470255 0
M  V30 17303 H 1663.53 -5.47028 1.71561 0
M  V30 17304 H 1661.93 -5.45243 2.5066 0
M  V30 17305 H 1663 -4.04826 2.66915 0
M  V30 17306 N 1664.34 -0.740267 -1.39132 0
M  V30 17307 C 1665.58 -0.295271 -2.02256 0
M  V30 17308 C 1665.94 1.09839 -1.57478 0
M  V30 17309 O 1667.15 1.64176 -2.12838 0
M  V30 17310 C 1665.42 -0.399327 -3.55162 0
M  V30 17311 S 1666.98 -0.0349493 -4.38786 0
M  V30 17312 H 1663.79 -0.115356 -0.70158 0
M  V30 17313 H 1666.4 -0.967946 -1.69856 0
M  V30 17314 H 1665.1 -1.41482 -3.85241 0
M  V30 17315 H 1664.63 0.290988 -3.92322 0
M  V30 17316 H 1666.65 1.17965 -4.81974 0
M  V30 17317 N 1665.82 1.49844 -0.488302 0
M  V30 17318 C 1667.07 2.02409 0.0606981 0
M  V30 17319 C 1667.39 1.36901 1.38161 0
M  V30 17320 O 1666.65 0.48951 1.89479 0
M  V30 17321 C 1666.95 3.56342 0.274851 0
M  V30 17322 C 1666.61 4.4042 -0.966481 0
M  V30 17323 C 1665.28 4.63116 -1.30678 0
M  V30 17324 C 1667.63 4.89418 -1.79218 0
M  V30 17325 C 1664.96 5.32055 -2.47253 0
M  V30 17326 C 1667.31 5.59639 -2.94935 0
M  V30 17327 C 1665.97 5.80584 -3.2936 0
M  V30 17328 H 1665.24 0.740667 0.022211 0
M  V30 17329 H 1667.89 1.80279 -0.645882 0
M  V30 17330 H 1666.19 3.7708 1.06384 0
M  V30 17331 H 1667.89 3.94594 0.71388 0
M  V30 17332 H 1664.48 4.22987 -0.691388 0
M  V30 17333 H 1668.66 4.71723 -1.54244 0
M  V30 17334 H 1663.92 5.46477 -2.74177 0
M  V30 17335 H 1668.09 5.96583 -3.59251 0
M  V30 17336 H 1665.72 6.33779 -4.19795 0
M  V30 17337 N 1667.3 0.221601 1.56034 0
M  V30 17338 C 1668.71 -0.133783 1.59038 0
M  V30 17339 C 1668.91 -1.58952 1.23841 0
M  V30 17340 O 1667.97 -2.32972 0.973677 0
M  V30 17341 C 1669.28 0.192549 3.00083 0
M  V30 17342 C 1670.83 0.134791 3.1271 0
M  V30 17343 C 1671.3 0.434799 4.55931 0
M  V30 17344 N 1672.8 0.384372 4.61602 0
M  V30 17345 C 1673.53 0.59 5.70357 0
M  V30 17346 N 1673.03 0.857405 6.87474 0
M  V30 17347 N 1674.82 0.522433 5.59667 0
M  V30 17348 H 1666.97 1.17124 1.77189 0
M  V30 17349 H 1669.23 0.46946 0.823597 0
M  V30 17350 H 1668.94 1.20292 3.30488 0
M  V30 17351 H 1668.81 -0.49243 3.73972 0
M  V30 17352 H 1671.2 -0.866221 2.821 0
M  V30 17353 H 1671.28 0.853247 2.4115 0
M  V30 17354 H 1670.93 1.43325 4.87258 0
M  V30 17355 H 1670.86 -0.304849 5.25717 0
M  V30 17356 H 1673.35 0.185389 3.77445 0
M  V30 17357 H 1673.66 1.00241 7.66271 0
M  V30 17358 H 1672 0.894599 6.89218 0
M  V30 17359 H 1675.2 0.313754 4.67047 0
M  V30 17360 H 1675.37 0.686094 6.44358 0
M  V30 17361 N 1668.77 -1.57515 -0.0517878 0
M  V30 17362 C 1670.02 -1.88493 -0.748206 0
M  V30 17363 C 1670.35 -0.816494 -1.76202 0
M  V30 17364 O 1669.63 0.171075 -1.93746 0
M  V30 17365 C 1669.91 -3.30131 -1.43825 0
M  V30 17366 C 1669.76 -4.47648 -0.4395 0
M  V30 17367 C 1671.08 -3.70315 -2.37813 0
M  V30 17368 H 1668.2 -0.68555 -0.270537 0
M  V30 17369 H 1670.84 -1.89997 -0.0111457 0
M  V30 17370 H 1668.99 -3.2898 -2.06651 0
M  V30 17371 H 1670.67 -4.60929 0.185088 0
M  V30 17372 H 1668.91 -4.33117 0.243381 0
M  V30 17373 H 1669.58 -5.43582 -0.96035 0
M  V30 17374 H 1672.06 -3.72687 -1.8505 0
M  V30 17375 H 1670.93 -4.70269 -2.83087 0
M  V30 17376 H 1671.19 -3.0133 -3.23501 0
M  V30 17377 N 1670.25 0.323614 -1.54242 0
M  V30 17378 C 1671.67 0.66795 -1.4495 0
M  V30 17379 C 1671.87 1.91649 -0.622338 0
M  V30 17380 O 1670.93 2.52209 -0.121119 0
M  V30 17381 C 1672.24 0.842006 -2.88671 0
M  V30 17382 C 1673.79 0.93935 -2.98572 0
M  V30 17383 C 1674.26 1.14557 -4.43442 0
M  V30 17384 N 1675.75 1.21231 -4.47054 0
M  V30 17385 C 1676.49 1.38976 -5.56303 0
M  V30 17386 N 1675.98 1.53764 -6.75521 0
M  V30 17387 N 1677.78 1.41684 -5.4395 0
M  V30 17388 H 1669.93 -0.497017 -2.06503 0
M  V30 17389 H 1672.19 -0.160563 -0.934304 0
M  V30 17390 H 1671.9 -0.00418568 -3.517 0
M  V30 17391 H 1671.77 1.73785 -3.34782 0
M  V30 17392 H 1674.16 1.77605 -2.35671 0
M  V30 17393 H 1674.24 0.0199775 -2.55792 0
M  V30 17394 H 1673.88 0.313732 -5.0693 0
M  V30 17395 H 1673.81 2.07882 -4.83831 0
M  V30 17396 H 1676.3 1.11247 -3.61154 0
M  V30 17397 H 1676.62 1.66996 -7.54541 0
M  V30 17398 H 1674.96 1.50862 -6.78429 0
M  V30 17399 H 1678.15 1.29726 -4.49765 0
M  V30 17400 H 1678.33 1.5517 -6.29147 0
M  V30 17401 N 1671.73 1.46313 0.585673 0
M  V30 17402 C 1672.68 1.56653 1.69495 0
M  V30 17403 C 1673.65 0.411007 1.60935 0
M  V30 17404 O 1674.83 0.627369 1.80191 0
M  V30 17405 C 1671.97 1.55996 3.0783 0
M  V30 17406 C 1671.09 2.82261 3.27036 0
M  V30 17407 C 1670.22 2.73129 4.55603 0
M  V30 17408 C 1669.26 3.94346 4.68143 0
M  V30 17409 N 1668.4 3.83617 5.88032 0
M  V30 17410 H 1673.24 2.51407 1.59995 0
M  V30 17411 H 1670.77 1.24729 0.779821 0
M  V30 17412 H 1672.73 1.53602 3.87895 0
M  V30 17413 H 1671.36 0.647766 3.16234 0
M  V30 17414 H 1670.41 2.94648 2.40596 0
M  V30 17415 H 1671.73 3.72107 3.32171 0
M  V30 17416 H 1670.88 2.68823 5.43893 0
M  V30 17417 H 1669.62 1.80917 4.52902 0
M  V30 17418 H 1668.62 3.98987 3.78272 0
M  V30 17419 H 1669.85 4.8765 4.72625 0
M  V30 17420 H 1667.8 2.9419 5.86334 0
M  V30 17421 H 1667.71 4.67117 5.94422 0
M  V30 17422 H 1668.98 3.83281 6.7876 0
M  V30 17423 N 1673.21 -0.830057 1.33969 0
M  V30 17424 C 1674.14 -1.94534 1.19297 0
M  V30 17425 C 1675.12 -1.62371 0.0862986 0
M  V30 17426 O 1676.3 -1.86833 0.250152 0
M  V30 17427 C 1673.43 -3.28329 0.831718 0
M  V30 17428 C 1672.48 -3.79459 1.94713 0
M  V30 17429 S 1673.31 -4.00075 3.5595 0
M  V30 17430 C 1674.47 -5.36808 3.21851 0
M  V30 17431 H 1674.7 -2.06683 2.13704 0
M  V30 17432 H 1672.23 -0.984833 1.18913 0
M  V30 17433 H 1674.19 -4.05636 0.630076 0
M  V30 17434 H 1672.85 -3.1396 -0.0939047 0
M  V30 17435 H 1672.04 -4.76297 1.64795 0
M  V30 17436 H 1671.65 -3.09076 2.10589 0
M  V30 17437 H 1673.94 -6.19964 2.73223 0
M  V30 17438 H 1674.88 -5.71705 4.17802 0
M  V30 17439 H 1675.29 -5.0198 2.58217 0
M  V30 17440 N 1674.69 -1.17582 -1.04939 0
M  V30 17441 C 1675.94 -0.960189 -1.77379 0
M  V30 17442 C 1676.25 0.512001 -1.8878 0
M  V30 17443 O 1677.46 0.845912 -2.57986 0
M  V30 17444 C 1675.91 -1.66882 -3.18871 0
M  V30 17445 C 1675.52 -3.17972 -3.15591 0
M  V30 17446 C 1677.26 -1.53567 -3.95749 0
M  V30 17447 C 1675.17 -3.81513 -4.51887 0
M  V30 17448 H 1674.1 -0.35562 -0.664869 0
M  V30 17449 H 1676.75 -1.40863 -1.17601 0
M  V30 17450 H 1675.13 -1.14813 -3.78991 0
M  V30 17451 H 1676.31 -3.76995 -2.64974 0
M  V30 17452 H 1674.62 -3.31328 -2.52212 0
M  V30 17453 H 1677.22 -1.98408 -4.96526 0
M  V30 17454 H 1677.56 -0.486603 -4.13446 0
M  V30 17455 H 1678.1 -2.02868 -3.42183 0
M  V30 17456 H 1674.83 -4.86428 -4.39395 0
M  V30 17457 H 1674.35 -3.27276 -5.02643 0
M  V30 17458 H 1676.03 -3.83867 -5.20822 0
M  V30 17459 N 1676.17 1.23705 -0.976463 0
M  V30 17460 C 1677.44 1.87421 -0.559719 0
M  V30 17461 C 1677.82 1.87847 0.963166 0
M  V30 17462 O 1677.17 1.35726 1.83822 0
M  V30 17463 C 1677.38 3.29113 -1.16128 0
M  V30 17464 C 1678.73 4.05735 -1.25158 0
M  V30 17465 O 1679.75 3.38317 -1.11444 0
M  V30 17466 O 1678.61 5.26377 -1.46933 0
M  V30 17467 H 1675.71 0.80537 -0.187903 0
M  V30 17468 H 1678.25 1.31611 -1.07129 0
M  V30 17469 H 1677.02 3.23348 -2.20367 0
M  V30 17470 H 1676.65 3.92508 -0.63428 0
M  V30 17471 N 1677.64 0.747635 1.38738 0
M  V30 17472 C 1678.89 0.301593 2.00545 0
M  V30 17473 C 1679.22 -1.11208 1.59205 0
M  V30 17474 O 1678.5 -1.76052 0.826806 0
M  V30 17475 C 1678.78 0.417739 3.57669 0
M  V30 17476 C 1678.63 1.87209 4.0899 0
M  V30 17477 C 1679.95 -0.192403 4.39679 0
M  V30 17478 H 1677.07 0.11106 0.728584 0
M  V30 17479 H 1679.71 0.946162 1.64766 0
M  V30 17480 H 1677.86 -0.131024 3.88279 0
M  V30 17481 H 1679.54 2.4787 3.89048 0
M  V30 17482 H 1677.78 2.38917 3.62079 0
M  V30 17483 H 1678.45 1.90455 5.18103 0
M  V30 17484 H 1680.93 0.27554 4.15187 0
M  V30 17485 H 1679.8 -0.0808605 5.4884 0
M  V30 17486 H 1680.06 -1.28 4.23165 0
M  V30 17487 N 1679.12 -1.49583 0.496242 0
M  V30 17488 C 1680.35 -2.06547 -0.0468437 0
M  V30 17489 C 1680.76 -1.3574 -1.31801 0
M  V30 17490 O 1680.1 -0.427948 -1.78646 0
M  V30 17491 C 1680.16 -3.57532 -0.375622 0
M  V30 17492 C 1679.83 -4.49994 0.797134 0
M  V30 17493 C 1680.83 -4.91793 1.6863 0
M  V30 17494 C 1678.51 -4.92355 0.99459 0
M  V30 17495 C 1680.5 -5.74685 2.7571 0
M  V30 17496 C 1678.19 -5.75024 2.06859 0
M  V30 17497 C 1679.19 -6.16093 2.94819 0
M  V30 17498 O 1678.88 -6.9711 4.00366 0
M  V30 17499 H 1678.61 -0.675832 0.0150901 0
M  V30 17500 H 1681.16 -1.93413 0.691416 0
M  V30 17501 H 1679.39 -3.68658 -1.16741 0
M  V30 17502 H 1681.08 -3.96755 -0.856757 0
M  V30 17503 H 1681.85 -4.59715 1.54554 0
M  V30 17504 H 1677.73 -4.59893 0.31933 0
M  V30 17505 H 1681.27 -6.06661 3.44396 0
M  V30 17506 H 1677.17 -6.06514 2.20931 0
M  V30 17507 H 1677.94 -7.15408 3.9766 0
M  V30 17508 N 1680.6 -0.229873 -1.55915 0
M  V30 17509 C 1681.55 0.676809 -2.20653 0
M  V30 17510 C 1682.52 1.18412 -1.16481 0
M  V30 17511 O 1683.7 1.2417 -1.44867 0
M  V30 17512 C 1680.84 1.87567 -2.89677 0
M  V30 17513 C 1679.95 1.40648 -4.08463 0
M  V30 17514 C 1679.09 2.56356 -4.65247 0
M  V30 17515 C 1678.13 2.06215 -5.76318 0
M  V30 17516 N 1677.27 3.15226 -6.27357 0
M  V30 17517 H 1682.11 0.118035 -2.97766 0
M  V30 17518 H 1679.64 0.0465042 -1.47026 0
M  V30 17519 H 1681.6 2.57968 -3.27884 0
M  V30 17520 H 1680.23 2.40719 -2.15067 0
M  V30 17521 H 1679.28 0.597104 -3.75684 0
M  V30 17522 H 1680.59 0.998877 -4.88696 0
M  V30 17523 H 1679.75 3.34827 -5.05941 0
M  V30 17524 H 1678.49 3.0041 -3.84194 0
M  V30 17525 H 1677.49 1.26209 -5.35118 0
M  V30 17526 H 1678.72 1.63151 -6.59211 0
M  V30 17527 H 1676.66 3.58746 -5.49215 0
M  V30 17528 H 1676.58 2.78744 -7.02736 0
M  V30 17529 H 1677.85 3.93807 -6.72708 0
M  V30 17530 N 1682.08 1.5754 0.0434337 0
M  V30 17531 C 1683.49 1.77071 0.591836 0
M  V30 17532 C 1683.84 0.85911 1.76391 0
M  V30 17533 O 1682.96 0.0502725 2.16342 0
M  V30 17534 C 1683.56 3.21111 1.08041 0
M  V30 17535 C 1682.12 3.41889 1.57445 0
M  V30 17536 C 1681.27 2.72641 0.506166 0
M  V30 17537 H 1684.22 1.57644 -0.182792 0
M  V30 17538 H 1684.24 3.26834 1.94833 0
M  V30 17539 H 1683.75 3.87435 0.227153 0
M  V30 17540 H 1681.85 2.80721 2.45003 0
M  V30 17541 H 1681.96 4.50452 1.63185 0
M  V30 17542 H 1680.33 2.36002 0.957878 0
M  V30 17543 H 1681.11 3.41638 -0.337389 0
M  V30 17544 N 1683.56 -0.31543 1.54411 0
M  V30 17545 C 1684.83 -1.07113 1.63665 0
M  V30 17546 C 1685.21 -2.05671 0.475688 0
M  V30 17547 O 1684.56 -2.22288 -0.52918 0
M  V30 17548 C 1684.77 -1.76584 3.0103 0
M  V30 17549 C 1686.12 -2.29309 3.57355 0
M  V30 17550 O 1687.14 -1.86638 3.03388 0
M  V30 17551 O 1686 -3.07452 4.51814 0
M  V30 17552 H 1683.1 -0.494217 0.663083 0
M  V30 17553 H 1685.64 -0.31467 1.66757 0
M  V30 17554 H 1684.41 -1.0494 3.76966 0
M  V30 17555 H 1684.04 -2.5902 3.01653 0
M  V30 17556 N 1685.03 -1.46622 -0.577906 0
M  V30 17557 C 1686.28 -1.53392 -1.33575 0
M  V30 17558 C 1686.64 -0.185083 -1.91508 0
M  V30 17559 O 1685.93 0.806821 -1.73784 0
M  V30 17560 C 1686.12 -2.57215 -2.48144 0
M  V30 17561 C 1685.95 -4.02062 -2.01435 0
M  V30 17562 C 1684.72 -4.69731 -1.86229 0
M  V30 17563 C 1686.92 -4.89714 -1.57112 0
M  V30 17564 N 1684.9 -5.99177 -1.33642 0
M  V30 17565 C 1686.27 -6.09023 -1.16149 0
M  V30 17566 C 1688.33 -4.76327 -1.44974 0
M  V30 17567 C 1687.03 -7.16424 -0.642558 0
M  V30 17568 C 1689.06 -5.83804 -0.944837 0
M  V30 17569 C 1688.42 -7.02288 -0.545014 0
M  V30 17570 H 1684.52 -0.616116 -0.481586 0
M  V30 17571 H 1687.1 -1.83264 -0.657462 0
M  V30 17572 H 1685.27 -2.29246 -3.1353 0
M  V30 17573 H 1687 -2.53952 -3.15104 0
M  V30 17574 H 1683.76 -4.25323 -2.08321 0
M  V30 17575 H 1684.18 -6.68087 -1.09496 0
M  V30 17576 H 1688.83 -3.85109 -1.74503 0
M  V30 17577 H 1686.54 -8.07406 -0.334864 0
M  V30 17578 H 1690.13 -5.75487 -0.854761 0
M  V30 17579 H 1689.01 -7.84036 -0.16036 0
M  V30 17580 N 1686.51 0.822941 -1.34408 0
M  V30 17581 C 1687.75 1.59269 -1.28112 0
M  V30 17582 C 1688.12 1.91437 0.146924 0
M  V30 17583 O 1689.32 2.66716 0.334053 0
M  V30 17584 C 1687.59 2.85727 -2.14698 0
M  V30 17585 S 1689.15 3.76272 -2.25754 0
M  V30 17586 H 1685.97 0.545903 -0.455534 0
M  V30 17587 H 1688.57 0.972069 -1.6962 0
M  V30 17588 H 1687.27 2.60092 -3.17459 0
M  V30 17589 H 1686.8 3.52786 -1.74086 0
M  V30 17590 H 1688.82 4.75138 -1.43031 0
M  V30 17591 N 1687.99 1.18137 1.04314 0
M  V30 17592 C 1688.9 0.921044 2.15764 0
M  V30 17593 C 1689.92 -0.11396 1.73626 0
M  V30 17594 O 1691.09 0.0673733 2.01287 0
M  V30 17595 C 1688.16 0.447581 3.43799 0
M  V30 17596 C 1687.22 1.55025 4.00332 0
M  V30 17597 C 1686.45 1.09928 5.22256 0
M  V30 17598 O 1686.67 -0.0430152 5.70384 0
M  V30 17599 O 1685.61 1.896 5.71258 0
M  V30 17600 H 1689.43 1.85353 2.40579 0
M  V30 17601 H 1687.02 0.962985 1.14223 0
M  V30 17602 H 1688.9 0.191497 4.20965 0
M  V30 17603 H 1687.58 -0.456641 3.20463 0
M  V30 17604 H 1686.48 1.86032 3.24566 0
M  V30 17605 H 1687.82 2.4305 4.28004 0
M  V30 17606 N 1689.47 -1.23186 0.98301 0
M  V30 17607 C 1690.71 -1.91955 0.65431 0
M  V30 17608 C 1691.05 -1.76482 -0.810419 0
M  V30 17609 O 1690.32 -1.12744 -1.5849 0
M  V30 17610 C 1690.61 -3.4449 1.04873 0
M  V30 17611 C 1690.46 -3.6906 2.57128 0
M  V30 17612 C 1691.78 -4.36065 0.594578 0
M  V30 17613 H 1688.9 -0.69711 0.239179 0
M  V30 17614 H 1691.54 -1.45257 1.22476 0
M  V30 17615 H 1689.69 -3.84394 0.563333 0
M  V30 17616 H 1691.36 -3.38622 3.13262 0
M  V30 17617 H 1689.6 -3.13681 2.99644 0
M  V30 17618 H 1690.27 -4.75846 2.79776 0
M  V30 17619 H 1692.75 -4.03622 1.01136 0
M  V30 17620 H 1691.63 -5.41489 0.898955 0
M  V30 17621 H 1691.89 -4.39206 -0.505033 0
M  V30 17622 N 1690.95 -0.754982 -1.38339 0
M  V30 17623 C 1692.36 -0.43273 -1.53622 0
M  V30 17624 C 1692.56 1.05395 -1.71739 0
M  V30 17625 O 1691.62 1.83998 -1.72919 0
M  V30 17626 C 1692.93 -1.23319 -2.7425 0
M  V30 17627 C 1694.48 -1.22341 -2.881 0
M  V30 17628 C 1694.95 -2.00686 -4.11691 0
M  V30 17629 N 1696.45 -1.97953 -4.1877 0
M  V30 17630 C 1697.18 -2.55367 -5.13396 0
M  V30 17631 N 1696.68 -3.215 -6.13685 0
M  V30 17632 N 1698.47 -2.45289 -5.05757 0
M  V30 17633 H 1690.62 -1.71847 -1.2483 0
M  V30 17634 H 1692.88 -0.728585 -0.606521 0
M  V30 17635 H 1692.59 -2.28602 -2.67272 0
M  V30 17636 H 1692.46 -0.851009 -3.67475 0
M  V30 17637 H 1694.85 -0.178637 -2.94559 0
M  V30 17638 H 1694.93 -1.64511 -1.95882 0
M  V30 17639 H 1694.58 -3.05175 -4.05994 0
M  V30 17640 H 1694.51 -1.55908 -5.02991 0
M  V30 17641 H 1697 -1.49792 -3.46945 0
M  V30 17642 H 1697.31 -3.62725 -6.82386 0
M  V30 17643 H 1695.65 -3.25595 -6.14014 0
M  V30 17644 H 1698.85 -1.93251 -4.26347 0
M  V30 17645 H 1699.02 -2.9033 -5.79321 0
M  V30 17646 N 1692.42 1.49318 -0.504168 0
M  V30 17647 C 1693.33 2.32958 0.277053 0
M  V30 17648 C 1694.35 1.44838 0.964266 0
M  V30 17649 O 1695.53 1.77856 0.944947 0
M  V30 17650 C 1692.59 3.20352 1.32572 0
M  V30 17651 C 1691.65 4.24326 0.651606 0
M  V30 17652 C 1690.89 5.07544 1.65031 0
M  V30 17653 O 1691.11 4.92326 2.88047 0
M  V30 17654 O 1690.04 5.89737 1.20388 0
M  V30 17655 H 1693.87 3.00952 -0.40763 0
M  V30 17656 H 1691.45 1.47023 -0.265453 0
M  V30 17657 H 1693.34 3.74483 1.93237 0
M  V30 17658 H 1692.01 2.5505 1.99327 0
M  V30 17659 H 1690.92 3.741 0.00513384 0
M  V30 17660 H 1692.25 4.92193 0.0264424 0
M  V30 17661 N 1693.9 0.238138 1.5579 0
M  V30 17662 C 1695.18 -0.438905 1.90612 0
M  V30 17663 C 1695.56 -1.76522 1.15773 0
M  V30 17664 O 1694.91 -2.26871 0.272363 0
M  V30 17665 C 1695.12 -0.615595 3.43528 0
M  V30 17666 C 1696.47 -0.915478 4.14613 0
M  V30 17667 O 1697.49 -0.70178 3.49218 0
M  V30 17668 O 1696.35 -1.32194 5.30271 0
M  V30 17669 H 1693.44 -0.234355 0.7931 0
M  V30 17670 H 1695.99 0.281555 1.67348 0
M  V30 17671 H 1694.76 0.319274 3.89995 0
M  V30 17672 H 1694.38 -1.38692 3.72626 0
M  V30 17673 N 1695.38 -1.57561 -0.0350783 0
M  V30 17674 C 1696.63 -1.90127 -0.722727 0
M  V30 17675 C 1696.98 -0.836071 -1.73285 0
M  V30 17676 O 1696.27 0.155911 -1.90965 0
M  V30 17677 C 1696.47 -3.27169 -1.43858 0
M  V30 17678 C 1696.3 -4.4692 -0.499303 0
M  V30 17679 C 1695.07 -5.05151 -0.122572 0
M  V30 17680 C 1697.27 -5.1383 0.219747 0
M  V30 17681 N 1695.25 -6.08418 0.818587 0
M  V30 17682 C 1696.62 -6.11606 1.01678 0
M  V30 17683 C 1698.67 -4.9707 0.287329 0
M  V30 17684 C 1697.38 -6.94428 1.87517 0
M  V30 17685 C 1699.4 -5.80449 1.13282 0
M  V30 17686 C 1698.76 -6.77791 1.9178 0
M  V30 17687 H 1694.86 -0.744663 -0.238749 0
M  V30 17688 H 1697.45 -1.94693 0.0170172 0
M  V30 17689 H 1695.62 -3.23543 -2.14882 0
M  V30 17690 H 1697.35 -3.47269 -2.07814 0
M  V30 17691 H 1694.11 -4.71126 -0.483458 0
M  V30 17692 H 1694.53 -6.64722 1.2835 0
M  V30 17693 H 1699.17 -4.21697 -0.305248 0
M  V30 17694 H 1696.89 -7.69151 2.47857 0
M  V30 17695 H 1700.48 -5.6953 1.18857 0
M  V30 17696 H 1699.36 -7.41187 2.56147 0
M  V30 17697 N 1696.86 0.307236 -1.54576 0
M  V30 17698 C 1698.08 1.06668 -1.77867 0
M  V30 17699 C 1698.51 1.80375 -0.533536 0
M  V30 17700 O 1697.87 1.73812 0.515663 0
M  V30 17701 C 1697.91 2.02777 -2.98184 0
M  V30 17702 O 1697.02 3.10969 -2.70872 0
M  V30 17703 H 1696.36 0.306741 -0.588902 0
M  V30 17704 H 1698.89 0.346557 -2.01644 0
M  V30 17705 H 1698.9 2.45355 -3.25983 0
M  V30 17706 H 1697.57 1.48534 -3.88472 0
M  V30 17707 H 1696.15 2.7295 -2.54072 0
M  V30 17708 N 1698.34 1.46926 0.570122 0
M  V30 17709 C 1699.58 1.53113 1.32982 0
M  V30 17710 C 1699.92 0.187401 1.93294 0
M  V30 17711 O 1699.19 -0.802585 1.77169 0
M  V30 17712 C 1699.47 2.63936 2.44969 0
M  V30 17713 C 1699.33 4.07882 1.8961 0
M  V30 17714 C 1700.65 2.70753 3.46959 0
M  V30 17715 H 1697.76 0.557398 0.482158 0
M  V30 17716 H 1700.41 1.78923 0.639259 0
M  V30 17717 H 1698.56 2.42059 3.03874 0
M  V30 17718 H 1700.23 4.41084 1.35066 0
M  V30 17719 H 1698.47 4.16768 1.20361 0
M  V30 17720 H 1699.14 4.81175 2.70508 0
M  V30 17721 H 1701.62 2.90452 2.97954 0
M  V30 17722 H 1700.49 3.50093 4.2276 0
M  V30 17723 H 1700.76 1.77299 4.04991 0
M  V30 17724 N 1699.82 -0.815801 1.34842 0
M  V30 17725 C 1701.05 -1.60164 1.30503 0
M  V30 17726 C 1701.45 -1.88809 -0.121561 0
M  V30 17727 O 1700.8 -1.48511 -1.08121 0
M  V30 17728 C 1700.86 -2.96361 2.03495 0
M  V30 17729 C 1700.52 -2.90577 3.52724 0
M  V30 17730 C 1701.52 -2.6466 4.47495 0
M  V30 17731 C 1699.2 -3.09985 3.9524 0
M  V30 17732 C 1701.2 -2.58212 5.82757 0
M  V30 17733 C 1698.89 -3.03161 5.306 0
M  V30 17734 C 1699.88 -2.77309 6.2417 0
M  V30 17735 O 1699.57 -2.70431 7.57048 0
M  V30 17736 H 1699.3 -0.504321 0.450151 0
M  V30 17737 H 1701.86 -1.02254 1.78139 0
M  V30 17738 H 1700.09 -3.56219 1.50483 0
M  V30 17739 H 1701.78 -3.57429 1.92353 0
M  V30 17740 H 1702.54 -2.49394 4.15966 0
M  V30 17741 H 1698.42 -3.2912 3.22801 0
M  V30 17742 H 1701.97 -2.37954 6.55762 0
M  V30 17743 H 1697.86 -3.17982 5.61745 0
M  V30 17744 H 1698.63 -2.86107 7.66867 0
M  V30 17745 N 1701.29 -1.18689 -1.03686 0
M  V30 17746 C 1702.22 -0.94094 -2.13702 0
M  V30 17747 C 1703.2 0.12277 -1.69656 0
M  V30 17748 O 1704.39 -0.0306085 -1.94176 0
M  V30 17749 C 1701.52 -0.470054 -3.44104 0
M  V30 17750 C 1700.47 -1.47468 -4.01792 0
M  V30 17751 C 1699.8 -0.861174 -5.2772 0
M  V30 17752 C 1701.1 -2.85254 -4.37524 0
M  V30 17753 H 1702.79 -1.86102 -2.34534 0
M  V30 17754 H 1700.34 -0.896207 -1.12713 0
M  V30 17755 H 1702.29 -0.28533 -4.20433 0
M  V30 17756 H 1701.02 0.485604 -3.2297 0
M  V30 17757 H 1699.68 -1.64641 -3.2755 0
M  V30 17758 H 1699.32 0.10179 -5.02897 0
M  V30 17759 H 1699.02 -1.53196 -5.67278 0
M  V30 17760 H 1700.55 -0.687066 -6.06722 0
M  V30 17761 H 1701.96 -2.71711 -5.04823 0
M  V30 17762 H 1700.36 -3.49051 -4.88143 0
M  V30 17763 H 1701.43 -3.38516 -3.47181 0
M  V30 17764 N 1702.77 1.22662 -0.989529 0
M  V30 17765 C 1704.02 1.91322 -0.663497 0
M  V30 17766 C 1704.35 1.77102 0.804057 0
M  V30 17767 O 1703.6 1.13169 1.5966 0
M  V30 17768 C 1703.9 3.428 -1.01109 0
M  V30 17769 C 1703.57 3.77206 -2.47035 0
M  V30 17770 C 1702.23 3.86308 -2.86914 0
M  V30 17771 C 1704.58 3.93617 -3.41636 0
M  V30 17772 C 1701.91 4.09255 -4.20389 0
M  V30 17773 C 1704.26 4.18067 -4.74766 0
M  V30 17774 C 1702.92 4.25392 -5.14391 0
M  V30 17775 H 1702.19 0.700095 -0.242791 0
M  V30 17776 H 1704.84 1.45498 -1.24509 0
M  V30 17777 H 1703.15 3.90256 -0.347533 0
M  V30 17778 H 1704.84 3.94171 -0.736909 0
M  V30 17779 H 1701.43 3.70702 -2.15123 0
M  V30 17780 H 1705.62 3.85966 -3.12 0
M  V30 17781 H 1700.87 4.13152 -4.50683 0
M  V30 17782 H 1705.05 4.29708 -5.48018 0
M  V30 17783 H 1702.67 4.42926 -6.17835 0
M  V30 17784 N 1704.25 0.762308 1.37937 0
M  V30 17785 C 1705.47 0.332217 2.04722 0
M  V30 17786 C 1705.9 -1.03417 1.57119 0
M  V30 17787 O 1705.26 -1.6608 0.727117 0
M  V30 17788 C 1705.31 0.373899 3.58656 0
M  V30 17789 O 1704.41 -0.629024 4.07575 0
M  V30 17790 H 1703.75 0.145471 0.647869 0
M  V30 17791 H 1706.28 1.03586 1.7644 0
M  V30 17792 H 1706.29 0.22785 4.07363 0
M  V30 17793 H 1704.97 1.37079 3.92661 0
M  V30 17794 H 1703.54 -0.446871 3.70213 0
M  V30 17795 N 1705.73 -1.49049 0.51208 0
M  V30 17796 C 1707.14 -1.86579 0.0670687 0
M  V30 17797 C 1707.49 -1.42339 -1.35034 0
M  V30 17798 O 1706.61 -0.806142 -2.00824 0
M  V30 17799 C 1707.21 -3.38605 0.114936 0
M  V30 17800 C 1705.77 -3.75396 -0.274787 0
M  V30 17801 C 1704.92 -2.73068 0.482613 0
M  V30 17802 H 1707.87 -1.41208 0.724287 0
M  V30 17803 H 1707.89 -3.74416 -0.677722 0
M  V30 17804 H 1707.4 -3.70774 1.14666 0
M  V30 17805 H 1705.5 -3.48837 -1.30933 0
M  V30 17806 H 1705.61 -4.79071 0.0523691 0
M  V30 17807 H 1703.98 -2.54607 -0.0689364 0
M  V30 17808 H 1704.76 -3.08081 1.51463 0
M  V30 17809 N 1707.21 -0.246397 -1.55662 0
M  V30 17810 C 1708.12 0.664125 -2.25003 0
M  V30 17811 C 1709.13 1.19368 -1.26598 0
M  V30 17812 O 1710.31 1.23006 -1.59473 0
M  V30 17813 C 1707.37 1.8446 -2.93557 0
M  V30 17814 C 1706.43 1.35456 -4.0737 0
M  V30 17815 C 1705.67 2.47877 -4.72645 0
M  V30 17816 O 1705.89 3.66594 -4.36995 0
M  V30 17817 O 1704.82 2.17663 -5.61165 0
M  V30 17818 H 1708.65 0.103277 -3.03524 0
M  V30 17819 H 1706.23 -0.0149207 -1.49393 0
M  V30 17820 H 1708.12 2.53349 -3.36737 0
M  V30 17821 H 1706.79 2.39308 -2.17976 0
M  V30 17822 H 1705.7 0.632958 -3.68706 0
M  V30 17823 H 1707.03 0.852175 -4.84767 0
M  V30 17824 N 1708.68 1.57577 0.026722 0
M  V30 17825 C 1709.63 2.07803 1.04502 0
M  V30 17826 C 1710.63 0.992308 1.37294 0
M  V30 17827 O 1711.83 1.17717 1.36171 0
M  V30 17828 H 1708.21 0.663176 0.354545 0
M  V30 17829 H 1710.18 2.92395 0.595626 0
M  V30 17830 C 1708.93 2.57478 2.33667 0
M  V30 17831 H 1708.25 3.40639 2.09296 0
M  V30 17832 H 1709.69 2.96328 3.03258 0
M  V30 17833 C 1708.15 1.47704 3.02796 0
M  V30 17834 O 1708.68 0.844611 3.9272 0
M  V30 17835 N 1706.88 1.211 2.64165 0
M  V30 17836 H 1706.43 1.72713 1.91123 0
M  V30 17837 H 1706.39 0.47866 3.10735 0
M  V30 17838 N 1710.16 -0.299034 1.54737 0
M  V30 17839 C 1711.58 -0.644805 1.45995 0
M  V30 17840 C 1711.78 -1.90634 0.652749 0
M  V30 17841 O 1710.83 -2.51985 0.161228 0
M  V30 17842 C 1712.15 -0.795974 2.89974 0
M  V30 17843 C 1713.69 -0.891731 3.00029 0
M  V30 17844 C 1714.17 -1.07488 4.45208 0
M  V30 17845 N 1715.66 -1.14104 4.48926 0
M  V30 17846 C 1716.4 -1.30108 5.58444 0
M  V30 17847 N 1715.89 -1.42998 6.77882 0
M  V30 17848 N 1717.68 -1.33012 5.46136 0
M  V30 17849 H 1709.84 0.529806 2.05686 0
M  V30 17850 H 1712.1 0.175406 0.931631 0
M  V30 17851 H 1711.8 0.0601375 3.51649 0
M  V30 17852 H 1711.68 -1.68437 3.37504 0
M  V30 17853 H 1714.07 -1.73833 2.38466 0
M  V30 17854 H 1714.15 0.0207194 2.55792 0
M  V30 17855 H 1713.79 -0.233045 5.07365 0
M  V30 17856 H 1713.72 -2.00159 4.87077 0
M  V30 17857 H 1716.21 -1.05488 3.62878 0
M  V30 17858 H 1716.52 -1.5497 7.57102 0
M  V30 17859 H 1714.87 -1.4005 6.80743 0
M  V30 17860 H 1718.06 -1.22555 4.51772 0
M  V30 17861 H 1718.23 -1.45141 6.31536 0
M  V30 17862 N 1711.64 -1.47227 -0.562322 0
M  V30 17863 C 1712.89 -1.53589 -1.31972 0
M  V30 17864 C 1713.21 -0.196019 -1.9351 0
M  V30 17865 O 1712.47 0.81056 -1.78125 0
M  V30 17866 C 1712.77 -2.59832 -2.45402 0
M  V30 17867 C 1712.43 -4.03258 -2.01728 0
M  V30 17868 C 1711.1 -4.42302 -1.89533 0
M  V30 17869 C 1713.45 -4.93272 -1.68321 0
M  V30 17870 C 1710.78 -5.69202 -1.42219 0
M  V30 17871 C 1713.13 -6.2063 -1.2248 0
M  V30 17872 C 1711.79 -6.58561 -1.08877 0
M  V30 17873 H 1711.06 -0.562022 -0.482921 0
M  V30 17874 H 1713.71 -1.80801 -0.631119 0
M  V30 17875 H 1712.01 -2.26357 -3.19796 0
M  V30 17876 H 1713.71 -2.61979 -3.03592 0
M  V30 17877 H 1710.3 -3.72406 -2.1216 0
M  V30 17878 H 1714.49 -4.6381 -1.76618 0
M  V30 17879 H 1709.74 -5.97344 -1.30347 0
M  V30 17880 H 1713.92 -6.89794 -0.956907 0
M  V30 17881 H 1711.54 -7.56783 -0.719922 0
M  V30 17882 N 1713.12 0.808639 -1.35273 0
M  V30 17883 C 1714.53 1.10389 -1.15267 0
M  V30 17884 C 1714.73 2.01467 0.0362501 0
M  V30 17885 O 1713.79 2.42386 0.707477 0
M  V30 17886 C 1715.1 1.73685 -2.45467 0
M  V30 17887 C 1716.65 1.86115 -2.51655 0
M  V30 17888 C 1717.13 2.52826 -3.81894 0
M  V30 17889 N 1718.62 2.60313 -3.83134 0
M  V30 17890 C 1719.35 3.12694 -4.80635 0
M  V30 17891 N 1718.85 3.6553 -5.88523 0
M  V30 17892 N 1720.64 3.11228 -4.68074 0
M  V30 17893 H 1712.79 0.203141 -2.11426 0
M  V30 17894 H 1715.05 0.152706 -0.93562 0
M  V30 17895 H 1714.76 1.14228 -3.32633 0
M  V30 17896 H 1714.63 2.73406 -2.59864 0
M  V30 17897 H 1717.02 2.44715 -1.64919 0
M  V30 17898 H 1717.1 0.852547 -2.41175 0
M  V30 17899 H 1716.75 1.94875 -4.69027 0
M  V30 17900 H 1716.68 3.54219 -3.89662 0
M  V30 17901 H 1719.17 2.22878 -3.05178 0
M  V30 17902 H 1719.48 4.03793 -6.58917 0
M  V30 17903 H 1717.83 3.63734 -5.92218 0
M  V30 17904 H 1721.02 2.69228 -3.82928 0
M  V30 17905 H 1721.19 3.51745 -5.44224 0
M  V30 17906 N 1714.6 1.19237 1.03055 0
M  V30 17907 C 1715.84 0.995444 1.76688 0
M  V30 17908 C 1716.18 -0.472805 1.88357 0
M  V30 17909 O 1715.45 -1.3511 1.39913 0
M  V30 17910 C 1715.73 1.66308 3.19396 0
M  V30 17911 C 1715.59 3.20486 3.15609 0
M  V30 17912 C 1716.91 1.38468 4.17749 0
M  V30 17913 H 1714.02 0.36304 0.641382 0
M  V30 17914 H 1716.67 1.47052 1.20315 0
M  V30 17915 H 1714.82 1.25915 3.67529 0
M  V30 17916 H 1716.49 3.70081 2.75387 0
M  V30 17917 H 1714.73 3.52118 2.53369 0
M  V30 17918 H 1715.4 3.62345 4.16426 0
M  V30 17919 H 1717.88 1.73485 3.78209 0
M  V30 17920 H 1716.75 1.87735 5.15797 0
M  V30 17921 H 1717.02 0.309505 4.41015 0
M  V30 17922 N 1716.07 -1.22136 0.99602 0
M  V30 17923 C 1717 -2.26463 0.568909 0
M  V30 17924 C 1717.99 -1.65189 -0.405783 0
M  V30 17925 O 1719.17 -1.91935 -0.295735 0
M  V30 17926 C 1716.3 -3.47112 -0.114166 0
M  V30 17927 C 1715.25 -4.20844 0.779387 0
M  V30 17928 C 1714.58 -5.34687 -0.0367787 0
M  V30 17929 C 1715.88 -4.79195 2.07773 0
M  V30 17930 H 1717.57 -2.62443 1.44097 0
M  V30 17931 H 1715.12 -1.26156 0.694314 0
M  V30 17932 H 1717.07 -4.19258 -0.424381 0
M  V30 17933 H 1715.8 -3.10238 -1.02079 0
M  V30 17934 H 1714.46 -3.50537 1.07329 0
M  V30 17935 H 1714.1 -4.94054 -0.94442 0
M  V30 17936 H 1713.8 -5.84944 0.558092 0
M  V30 17937 H 1715.33 -6.09647 -0.341016 0
M  V30 17938 H 1716.74 -5.43266 1.83126 0
M  V30 17939 H 1715.14 -5.39803 2.62169 0
M  V30 17940 H 1716.21 -3.99073 2.75442 0
M  V30 17941 N 1717.55 -0.769612 -1.37531 0
M  V30 17942 C 1718.79 -0.338106 -2.01584 0
M  V30 17943 C 1719.16 1.06474 -1.59773 0
M  V30 17944 O 1720.36 1.59624 -2.16272 0
M  V30 17945 C 1718.63 -0.474572 -3.54235 0
M  V30 17946 S 1720.19 -0.128014 -4.38613 0
M  V30 17947 H 1717.01 -0.130211 -0.698975 0
M  V30 17948 H 1719.61 -1.00376 -1.67765 0
M  V30 17949 H 1718.31 -1.49622 -3.82154 0
M  V30 17950 H 1717.84 0.207706 -3.92851 0
M  V30 17951 H 1719.86 1.07715 -4.84368 0
M  V30 17952 N 1719.03 1.48775 -0.519977 0
M  V30 17953 C 1719.96 2.27418 0.285222 0
M  V30 17954 C 1720.98 1.34753 0.91354 0
M  V30 17955 O 1722.16 1.59885 0.793672 0
M  V30 17956 C 1719.26 3.07799 1.41821 0
M  V30 17957 C 1718.44 4.28173 0.893682 0
M  V30 17958 C 1717.5 4.90445 1.90658 0
M  V30 17959 O 1716.52 5.49957 1.46751 0
M  V30 17960 N 1717.72 4.8179 3.23819 0
M  V30 17961 H 1720.49 2.97162 -0.38921 0
M  V30 17962 H 1718.05 1.5799 -0.353684 0
M  V30 17963 H 1720.04 3.46329 2.09377 0
M  V30 17964 H 1718.61 2.4054 1.99648 0
M  V30 17965 H 1717.83 3.94177 0.0424379 0
M  V30 17966 H 1719.12 5.06116 0.521952 0
M  V30 17967 H 1718.52 4.34573 3.62164 0
M  V30 17968 H 1717.08 5.2445 3.87035 0
M  V30 17969 N 1720.51 0.254649 1.55529 0
M  V30 17970 C 1721.74 -0.371856 2.03531 0
M  V30 17971 C 1722.15 -1.50974 1.13368 0
M  V30 17972 O 1721.51 -1.81885 0.14964 0
M  V30 17973 C 1721.56 -0.872314 3.50818 0
M  V30 17974 O 1721.28 0.22023 4.37546 0
M  V30 17975 C 1722.78 -1.56872 4.14616 0
M  V30 17976 H 1720 -0.0874565 0.665276 0
M  V30 17977 H 1722.55 0.380774 2.00924 0
M  V30 17978 H 1720.7 -1.5751 3.53934 0
M  V30 17979 H 1721.11 -0.161046 5.24253 0
M  V30 17980 H 1722.59 -1.87053 5.19341 0
M  V30 17981 H 1723.07 -2.49334 3.61565 0
M  V30 17982 H 1723.67 -0.910314 4.15444 0
M  V30 17983 N 1721.99 -1.57589 -0.0183649 0
M  V30 17984 C 1723.24 -1.88937 -0.706105 0
M  V30 17985 C 1723.55 -0.854565 -1.75945 0
M  V30 17986 O 1724.75 -1.05763 -2.50053 0
M  V30 17987 C 1723.21 -3.35329 -1.307 0
M  V30 17988 C 1722.82 -4.47064 -0.289444 0
M  V30 17989 C 1724.56 -3.75811 -1.97399 0
M  V30 17990 C 1722.47 -5.84523 -0.899288 0
M  V30 17991 H 1721.4 -0.704959 -0.267486 0
M  V30 17992 H 1724.05 -1.83458 0.0391685 0
M  V30 17993 H 1722.43 -3.35586 -2.10233 0
M  V30 17994 H 1723.61 -4.58294 0.479958 0
M  V30 17995 H 1721.92 -4.15484 0.276066 0
M  V30 17996 H 1724.52 -4.75834 -2.43898 0
M  V30 17997 H 1724.86 -3.08362 -2.79676 0
M  V30 17998 H 1725.39 -3.77774 -1.24626 0
M  V30 17999 H 1722.13 -6.55398 -0.11571 0
M  V30 18000 H 1721.65 -5.76993 -1.63828 0
M  V30 18001 H 1723.33 -6.31595 -1.40344 0
M  V30 18002 N 1723.46 0.290824 -1.54893 0
M  V30 18003 C 1724.71 1.02244 -1.73865 0
M  V30 18004 C 1725.03 1.88079 -0.537166 0
M  V30 18005 O 1726.23 2.64584 -0.608908 0
M  V30 18006 C 1724.69 1.86762 -3.07649 0
M  V30 18007 C 1724.3 1.0588 -4.35308 0
M  V30 18008 C 1726.04 2.59461 -3.35976 0
M  V30 18009 C 1723.95 1.89734 -5.60138 0
M  V30 18010 H 1722.88 0.385455 -0.648028 0
M  V30 18011 H 1725.53 0.27893 -1.81368 0
M  V30 18012 H 1723.91 2.6514 -2.94137 0
M  V30 18013 H 1725.08 0.320443 -4.59684 0
M  V30 18014 H 1723.4 0.447169 -4.13992 0
M  V30 18015 H 1726 3.22569 -4.26442 0
M  V30 18016 H 1726.34 3.28823 -2.55306 0
M  V30 18017 H 1726.87 1.88126 -3.50505 0
M  V30 18018 H 1723.61 1.24825 -6.43505 0
M  V30 18019 H 1723.13 2.61215 -5.39932 0
M  V30 18020 H 1724.81 2.47535 -5.97775 0
M  V30 18021 N 1724.94 1.47523 0.554506 0
M  V30 18022 C 1725.91 1.59761 1.64345 0
M  V30 18023 C 1726.91 0.472516 1.53701 0
M  V30 18024 O 1728.1 0.737659 1.57811 0
M  V30 18025 C 1725.23 1.54467 3.03896 0
M  V30 18026 H 1726.42 2.56834 1.54842 0
M  V30 18027 H 1723.97 1.35753 0.774643 0
M  V30 18028 H 1724.71 0.587789 3.18929 0
M  V30 18029 H 1724.49 2.36123 3.13031 0
M  V30 18030 H 1725.98 1.66174 3.83113 0
M  V30 18031 N 1726.42 -0.801453 1.357 0
M  V30 18032 C 1727.37 -1.90299 1.2558 0
M  V30 18033 C 1728.35 -1.602 0.149922 0
M  V30 18034 O 1729.55 -1.72837 0.381622 0
M  V30 18035 C 1726.68 -3.2732 1.0352 0
M  V30 18036 C 1725.76 -3.63468 2.18522 0
M  V30 18037 N 1726.15 -3.71014 3.43777 0
M  V30 18038 C 1724.45 -3.93455 2.10022 0
M  V30 18039 C 1725.15 -4.03052 4.19433 0
M  V30 18040 N 1724.13 -4.17405 3.48244 0
M  V30 18041 H 1727.93 -1.94341 2.20474 0
M  V30 18042 H 1725.44 -0.996323 1.28247 0
M  V30 18043 H 1727.44 -4.06081 0.943586 0
M  V30 18044 H 1726.1 -3.24561 0.095163 0
M  V30 18045 H 1727.11 -3.53961 3.78064 0
M  V30 18046 H 1723.79 -3.98691 1.23903 0
M  V30 18047 H 1725.18 -4.15914 5.27698 0
M  V30 18048 N 1727.9 -1.19782 -1.02421 0
M  V30 18049 C 1728.85 -0.93978 -2.108 0
M  V30 18050 C 1729.82 0.12716 -1.65613 0
M  V30 18051 O 1731 -0.0159669 -1.90793 0
M  V30 18052 C 1728.14 -0.489656 -3.41609 0
M  V30 18053 C 1727.25 -1.62389 -4.00317 0
M  V30 18054 C 1726.39 -1.12483 -5.19154 0
M  V30 18055 C 1725.43 -2.23266 -5.69929 0
M  V30 18056 N 1724.56 -1.74633 -6.80035 0
M  V30 18057 H 1729.4 -1.8677 -2.32209 0
M  V30 18058 H 1726.94 -0.931082 -1.13883 0
M  V30 18059 H 1728.9 -0.210049 -4.16671 0
M  V30 18060 H 1727.53 0.40127 -3.20296 0
M  V30 18061 H 1726.58 -2.0186 -3.22423 0
M  V30 18062 H 1727.89 -2.45836 -4.34011 0
M  V30 18063 H 1727.05 -0.800737 -6.01393 0
M  V30 18064 H 1725.79 -0.260155 -4.87006 0
M  V30 18065 H 1724.79 -2.56501 -4.863 0
M  V30 18066 H 1726.02 -3.10197 -6.04115 0
M  V30 18067 H 1723.96 -0.904804 -6.4973 0
M  V30 18068 H 1723.88 -2.51666 -7.12882 0
M  V30 18069 H 1725.15 -1.45201 -7.65857 0
M  V30 18070 N 1729.38 1.21606 -1.00248 0
M  V30 18071 C 1730.31 2.26159 -0.580911 0
M  V30 18072 C 1731.29 1.65402 0.397017 0
M  V30 18073 O 1732.47 1.92089 0.285552 0
M  V30 18074 C 1729.6 3.47168 0.0957564 0
M  V30 18075 C 1728.56 4.20425 -0.801695 0
M  V30 18076 C 1727.88 5.34699 0.00842241 0
M  V30 18077 C 1729.18 4.78086 -2.10311 0
M  V30 18078 H 1730.88 2.61675 -1.45487 0
M  V30 18079 H 1728.42 1.25786 -0.700995 0
M  V30 18080 H 1730.38 4.19477 0.402141 0
M  V30 18081 H 1729.1 3.10775 1.00433 0
M  V30 18082 H 1727.76 3.49963 -1.09187 0
M  V30 18083 H 1727.41 4.94548 0.918206 0
M  V30 18084 H 1727.11 5.84639 -0.589105 0
M  V30 18085 H 1728.63 6.09819 0.30868 0
M  V30 18086 H 1730.05 5.42287 -1.86004 0
M  V30 18087 H 1728.44 5.38405 -2.65028 0
M  V30 18088 H 1729.51 3.97607 -2.77555 0
M  V30 18089 N 1730.86 0.776895 1.37121 0
M  V30 18090 C 1732.1 0.343555 1.99564 0
M  V30 18091 C 1732.43 -1.08134 1.6167 0
M  V30 18092 O 1731.69 -1.75938 0.856998 0
M  V30 18093 C 1731.98 0.440201 3.54679 0
M  V30 18094 C 1731.65 1.82409 4.12356 0
M  V30 18095 C 1730.31 2.20277 4.27822 0
M  V30 18096 C 1732.66 2.73082 4.43932 0
M  V30 18097 C 1729.99 3.48244 4.72168 0
M  V30 18098 C 1732.34 4.00465 4.89705 0
M  V30 18099 C 1731.01 4.38371 5.03376 0
M  V30 18100 H 1730.28 0.125716 0.730258 0
M  V30 18101 H 1732.93 0.991921 1.63808 0
M  V30 18102 H 1731.23 -0.291695 3.90713 0
M  V30 18103 H 1732.93 0.0861328 4.00907 0
M  V30 18104 H 1729.52 1.5198 4.0075 0
M  V30 18105 H 1733.7 2.45085 4.31564 0
M  V30 18106 H 1728.96 3.77501 4.80939 0
M  V30 18107 H 1733.13 4.70849 5.13103 0
M  V30 18108 H 1730.76 5.37587 5.37498 0
M  V30 18109 N 1732.33 -1.48497 0.527859 0
M  V30 18110 C 1733.61 -1.9547 -0.0713049 0
M  V30 18111 C 1733.99 -1.47005 -1.51502 0
M  V30 18112 O 1733.34 -0.695609 -2.17655 0
M  V30 18113 C 1733.55 -3.48973 0.0437547 0
M  V30 18114 C 1734.9 -4.2444 -0.116591 0
M  V30 18115 O 1735.92 -3.56187 -0.0301431 0
M  V30 18116 O 1734.78 -5.4569 -0.297491 0
M  V30 18117 H 1731.87 -0.823075 -0.080474 0
M  V30 18118 H 1734.42 -1.59028 0.592307 0
M  V30 18119 H 1733.19 -3.76963 1.04952 0
M  V30 18120 H 1732.81 -3.92104 -0.658803 0
M  V30 18121 N 1733.81 -0.262893 -1.55392 0
M  V30 18122 C 1735.04 0.360534 -2.0343 0
M  V30 18123 C 1735.45 1.50917 -1.14108 0
M  V30 18124 O 1734.79 1.83077 -0.15118 0
M  V30 18125 C 1734.85 0.91519 -3.47656 0
M  V30 18126 C 1734.52 -0.103245 -4.56883 0
M  V30 18127 C 1735.52 -0.918464 -5.11723 0
M  V30 18128 C 1733.2 -0.233956 -5.01755 0
M  V30 18129 C 1735.19 -1.8507 -6.09941 0
M  V30 18130 C 1732.88 -1.16968 -5.99801 0
M  V30 18131 C 1733.88 -1.97656 -6.53774 0
M  V30 18132 O 1733.57 -2.89648 -7.49906 0
M  V30 18133 H 1733.3 0.0879049 -0.67026 0
M  V30 18134 H 1735.85 -0.389114 -2.01681 0
M  V30 18135 H 1734.08 1.71469 -3.46605 0
M  V30 18136 H 1735.77 1.4504 -3.79102 0
M  V30 18137 H 1736.54 -0.828152 -4.77877 0
M  V30 18138 H 1732.42 0.384057 -4.59397 0
M  V30 18139 H 1735.96 -2.48091 -6.51994 0
M  V30 18140 H 1731.86 -1.26085 -6.33066 0
M  V30 18141 H 1732.63 -2.84191 -7.67579 0
M  V30 18142 N 1735.29 1.57597 0.0100073 0
M  V30 18143 C 1736.54 1.90411 0.697968 0
M  V30 18144 C 1736.87 0.862924 1.73975 0
M  V30 18145 O 1736.14 -0.119646 1.94132 0
M  V30 18146 C 1736.43 3.33828 1.35022 0
M  V30 18147 C 1736.28 4.48656 0.320659 0
M  V30 18148 C 1737.6 3.7649 2.27911 0
M  V30 18149 H 1734.72 0.692482 0.252266 0
M  V30 18150 H 1737.36 1.89959 -0.0392325 0
M  V30 18151 H 1735.51 3.34343 1.97856 0
M  V30 18152 H 1737.18 4.60276 -0.30723 0
M  V30 18153 H 1735.42 4.32319 -0.358128 0
M  V30 18154 H 1736.1 5.45937 0.815891 0
M  V30 18155 H 1738.57 3.77463 1.75104 0
M  V30 18156 H 1737.45 4.77609 2.70519 0
M  V30 18157 H 1737.71 3.09801 3.15398 0
M  V30 18158 N 1736.77 -0.282606 1.55045 0
M  V30 18159 C 1738.01 -1.01698 1.75458 0
M  V30 18160 C 1738.35 -1.86284 0.548808 0
M  V30 18161 O 1737.62 -1.89131 -0.45382 0
M  V30 18162 C 1737.9 -1.90759 3.05423 0
M  V30 18163 C 1737.76 -1.0923 4.36336 0
M  V30 18164 C 1739.08 -2.8963 3.31364 0
M  V30 18165 H 1736.2 -0.368305 0.638373 0
M  V30 18166 H 1738.84 -0.290118 1.87772 0
M  V30 18167 H 1736.99 -2.52734 2.95055 0
M  V30 18168 H 1738.66 -0.493996 4.58647 0
M  V30 18169 H 1736.9 -0.395481 4.31994 0
M  V30 18170 H 1737.57 -1.74842 5.23578 0
M  V30 18171 H 1740.05 -2.37788 3.41462 0
M  V30 18172 H 1738.93 -3.49096 4.23584 0
M  V30 18173 H 1739.19 -3.64255 2.50541 0
M  V30 18174 N 1738.25 -1.47815 -0.546675 0
M  V30 18175 C 1739.18 -1.63976 -1.66235 0
M  V30 18176 C 1740.16 -0.488945 -1.62921 0
M  V30 18177 O 1741.34 -0.719532 -1.80378 0
M  V30 18178 C 1738.47 -1.6637 -3.04858 0
M  V30 18179 C 1737.43 -2.80785 -3.23023 0
M  V30 18180 C 1736.75 -2.68257 -4.62539 0
M  V30 18181 C 1738.05 -4.22267 -3.07388 0
M  V30 18182 H 1739.75 -2.57375 -1.52965 0
M  V30 18183 H 1737.29 -1.23861 -0.734465 0
M  V30 18184 H 1739.24 -1.76266 -3.82764 0
M  V30 18185 H 1737.97 -0.695386 -3.19111 0
M  V30 18186 H 1736.63 -2.70417 -2.47529 0
M  V30 18187 H 1736.28 -1.69431 -4.73606 0
M  V30 18188 H 1735.98 -3.45022 -4.75641 0
M  V30 18189 H 1737.5 -2.80097 -5.42566 0
M  V30 18190 H 1738.91 -4.33557 -3.75102 0
M  V30 18191 H 1737.31 -4.999 -3.31994 0
M  V30 18192 H 1738.38 -4.39897 -2.04006 0
M  V30 18193 N 1739.72 0.794246 -1.36123 0
M  V30 18194 C 1740.69 1.88828 -1.2991 0
M  V30 18195 C 1741.69 1.59451 -0.207839 0
M  V30 18196 O 1742.88 1.67953 -0.462321 0
M  V30 18197 C 1740.01 3.25511 -1.01269 0
M  V30 18198 H 1741.2 1.95753 -2.27202 0
M  V30 18199 H 1738.75 0.991505 -1.20826 0
M  V30 18200 H 1739.49 3.2427 -0.0441535 0
M  V30 18201 H 1739.27 3.48221 -1.80234 0
M  V30 18202 H 1740.76 4.0557 -0.995142 0
M  V30 18203 N 1741.2 1.20323 1.01785 0
M  V30 18204 C 1742.45 1.01263 1.75363 0
M  V30 18205 C 1742.78 -0.455392 1.89094 0
M  V30 18206 O 1742.03 -1.35435 1.41266 0
M  V30 18207 C 1742.33 1.63984 3.1756 0
M  V30 18208 C 1742 3.13781 3.23809 0
M  V30 18209 C 1740.66 3.54661 3.25222 0
M  V30 18210 C 1743.01 4.09779 3.22072 0
M  V30 18211 C 1740.34 4.90068 3.22568 0
M  V30 18212 C 1742.69 5.45131 3.20959 0
M  V30 18213 C 1741.35 5.85426 3.20675 0
M  V30 18214 H 1740.62 0.370547 0.641698 0
M  V30 18215 H 1743.27 1.4973 1.19387 0
M  V30 18216 H 1741.58 1.07776 3.76685 0
M  V30 18217 H 1743.27 1.46753 3.73182 0
M  V30 18218 H 1739.86 2.81215 3.23444 0
M  V30 18219 H 1744.05 3.79231 3.20152 0
M  V30 18220 H 1739.3 5.20553 3.20678 0
M  V30 18221 H 1743.48 6.19264 3.18568 0
M  V30 18222 H 1741.1 6.90321 3.18373 0
M  V30 18223 N 1742.68 -1.21073 1.00892 0
M  V30 18224 C 1743.93 -1.89559 0.689214 0
M  V30 18225 C 1744.24 -1.79211 -0.783753 0
M  V30 18226 O 1745.45 -2.42761 -1.2157 0
M  V30 18227 C 1743.9 -3.39925 1.18232 0
M  V30 18228 C 1743.51 -3.58876 2.68164 0
M  V30 18229 C 1745.26 -4.14014 0.937683 0
M  V30 18230 C 1743.16 -5.03027 3.10995 0
M  V30 18231 H 1742.09 -0.709895 0.254098 0
M  V30 18232 H 1744.74 -1.37017 1.2206 0
M  V30 18233 H 1743.13 -3.91745 0.578961 0
M  V30 18234 H 1744.3 -3.17478 3.33983 0
M  V30 18235 H 1742.61 -2.98146 2.90685 0
M  V30 18236 H 1745.21 -5.20285 1.23319 0
M  V30 18237 H 1745.55 -4.16109 -0.126003 0
M  V30 18238 H 1746.09 -3.68271 1.50403 0
M  V30 18239 H 1742.83 -5.06082 4.16607 0
M  V30 18240 H 1742.35 -5.45266 2.49891 0
M  V30 18241 H 1744.03 -5.7156 3.03197 0
M  V30 18242 N 1744.16 -0.784156 -1.36707 0
M  V30 18243 C 1745.41 -0.354133 -1.99379 0
M  V30 18244 C 1745.73 1.07276 -1.62241 0
M  V30 18245 O 1744.99 1.75481 -0.866317 0
M  V30 18246 C 1745.29 -0.459004 -3.5444 0
M  V30 18247 C 1744.95 -1.84594 -4.11383 0
M  V30 18248 C 1743.62 -2.22543 -4.26648 0
M  V30 18249 C 1745.97 -2.75433 -4.42477 0
M  V30 18250 C 1743.3 -3.50744 -4.70315 0
M  V30 18251 C 1745.65 -4.03056 -4.87574 0
M  V30 18252 C 1744.31 -4.41034 -5.01044 0
M  V30 18253 H 1743.58 -0.129586 -0.729581 0
M  V30 18254 H 1746.23 -1.00059 -1.6328 0
M  V30 18255 H 1744.53 0.27097 -3.90862 0
M  V30 18256 H 1746.23 -0.107393 -4.00856 0
M  V30 18257 H 1742.82 -1.54103 -3.99938 0
M  V30 18258 H 1747 -2.4737 -4.30258 0
M  V30 18259 H 1742.26 -3.80047 -4.78931 0
M  V30 18260 H 1746.43 -4.73563 -5.10599 0
M  V30 18261 H 1744.06 -5.4043 -5.34639 0
M  V30 18262 N 1745.64 1.48215 -0.535727 0
M  V30 18263 C 1746.57 2.3253 0.212562 0
M  V30 18264 C 1747.55 1.42454 0.929568 0
M  V30 18265 O 1748.73 1.71334 0.914228 0
M  V30 18266 C 1745.86 3.23777 1.25641 0
M  V30 18267 C 1744.82 4.22924 0.657191 0
M  V30 18268 C 1744.14 5.03345 1.80411 0
M  V30 18269 C 1745.44 5.20953 -0.374902 0
M  V30 18270 H 1747.14 2.95341 -0.491301 0
M  V30 18271 H 1744.68 1.42024 -0.237718 0
M  V30 18272 H 1746.64 3.81592 1.78789 0
M  V30 18273 H 1745.36 2.58978 1.98993 0
M  V30 18274 H 1744.02 3.66304 0.147184 0
M  V30 18275 H 1743.67 4.34965 2.52615 0
M  V30 18276 H 1743.37 5.70455 1.40906 0
M  V30 18277 H 1744.89 5.64013 2.33926 0
M  V30 18278 H 1746.3 5.73258 0.0697072 0
M  V30 18279 H 1744.7 5.96147 -0.687646 0
M  V30 18280 H 1745.77 4.67739 -1.27861 0
M  V30 18281 N 1747.11 0.27113 1.5525 0
M  V30 18282 C 1748.06 -0.634087 2.2379 0
M  V30 18283 C 1749.06 -1.16101 1.23357 0
M  V30 18284 O 1750.26 -1.1151 1.413 0
M  V30 18285 H 1746.64 -0.223023 0.718168 0
M  V30 18286 H 1748.61 -0.0331304 2.98382 0
M  V30 18287 C 1747.36 -1.80879 2.96948 0
M  V30 18288 H 1746.68 -1.41252 3.74016 0
M  V30 18289 H 1748.12 -2.41888 3.48233 0
M  V30 18290 C 1746.58 -2.69481 2.02192 0
M  V30 18291 O 1747.11 -3.69725 1.57056 0
M  V30 18292 N 1745.32 -2.36565 1.68776 0
M  V30 18293 H 1744.86 -1.55096 2.05677 0
M  V30 18294 H 1744.82 -2.96119 1.05646 0
M  V30 18295 N 1748.59 -1.576 -0.00164943 0
M  V30 18296 C 1749.83 -1.92353 -0.691364 0
M  V30 18297 C 1750.2 -0.872536 -1.71029 0
M  V30 18298 O 1751.4 -1.10526 -2.45026 0
M  V30 18299 C 1749.67 -3.32163 -1.31918 0
M  V30 18300 S 1751.23 -3.88798 -2.03425 0
M  V30 18301 H 1748.05 -0.673314 -0.228407 0
M  V30 18302 H 1750.65 -1.95424 0.0546418 0
M  V30 18303 H 1749.35 -4.06496 -0.564746 0
M  V30 18304 H 1748.88 -3.32462 -2.10316 0
M  V30 18305 H 1750.9 -3.6974 -3.30918 0
M  V30 18306 N 1750.07 0.274379 -1.55193 0
M  V30 18307 C 1751.32 1.00394 -1.7494 0
M  V30 18308 C 1751.63 1.87499 -0.557084 0
M  V30 18309 O 1752.84 2.63923 -0.636936 0
M  V30 18310 C 1751.29 1.83489 -3.09612 0
M  V30 18311 C 1750.9 1.01257 -4.36407 0
M  V30 18312 C 1752.65 2.55883 -3.38709 0
M  V30 18313 C 1750.55 1.83782 -5.62119 0
M  V30 18314 H 1749.48 0.378561 -0.65208 0
M  V30 18315 H 1752.13 0.259678 -1.81653 0
M  V30 18316 H 1750.52 2.62005 -2.96933 0
M  V30 18317 H 1751.69 0.27167 -4.59998 0
M  V30 18318 H 1750.01 0.403235 -4.14443 0
M  V30 18319 H 1752.6 3.18028 -4.2984 0
M  V30 18320 H 1752.95 3.26096 -2.58779 0
M  V30 18321 H 1753.48 1.84398 -3.5248 0
M  V30 18322 H 1750.22 1.17992 -6.44793 0
M  V30 18323 H 1749.74 2.55473 -5.42673 0
M  V30 18324 H 1751.42 2.41181 -6.00367 0
M  V30 18325 N 1751.55 1.48103 0.538828 0
M  V30 18326 C 1752.78 1.59316 1.32008 0
M  V30 18327 C 1753.19 0.250107 1.87136 0
M  V30 18328 O 1752.55 -0.759358 1.65952 0
M  V30 18329 C 1752.6 2.63287 2.47714 0
M  V30 18330 O 1752.32 3.92379 1.9486 0
M  V30 18331 C 1753.82 2.84856 3.39664 0
M  V30 18332 H 1751.04 0.53743 0.401758 0
M  V30 18333 H 1753.59 1.93864 0.65092 0
M  V30 18334 H 1751.74 2.31621 3.10532 0
M  V30 18335 H 1752.15 4.49346 2.70534 0
M  V30 18336 H 1753.63 3.61426 4.17223 0
M  V30 18337 H 1754.11 1.93352 3.9435 0
M  V30 18338 H 1754.71 3.17791 2.82647 0
M  V30 18339 N 1753.03 -0.787016 1.36542 0
M  V30 18340 C 1754.28 -1.54019 1.30234 0
M  V30 18341 C 1754.59 -1.95259 -0.115496 0
M  V30 18342 O 1755.79 -2.69827 -0.300966 0
M  V30 18343 C 1754.25 -2.78048 2.28512 0
M  V30 18344 C 1753.86 -2.43968 3.75744 0
M  V30 18345 C 1755.6 -3.56025 2.31185 0
M  V30 18346 C 1753.51 -3.64406 4.65792 0
M  V30 18347 H 1752.44 -0.578185 0.483961 0
M  V30 18348 H 1755.09 -0.8634 1.61919 0
M  V30 18349 H 1753.47 -3.47538 1.89824 0
M  V30 18350 H 1754.65 -1.82359 4.23181 0
M  V30 18351 H 1752.96 -1.79197 3.75869 0
M  V30 18352 H 1755.56 -4.45514 2.9567 0
M  V30 18353 H 1755.9 -3.94783 1.32107 0
M  V30 18354 H 1756.43 -2.93516 2.68502 0
M  V30 18355 H 1753.17 -3.30742 5.65942 0
M  V30 18356 H 1752.69 -4.25173 4.2307 0
M  V30 18357 H 1754.37 -4.31406 4.82181 0
M  V30 18358 N 1754.5 -1.20861 -1.01145 0
M  V30 18359 C 1755.47 -0.963742 -2.07954 0
M  V30 18360 C 1756.47 0.0627362 -1.60678 0
M  V30 18361 O 1757.66 -0.173867 -1.7333 0
M  V30 18362 C 1754.79 -0.451977 -3.3789 0
M  V30 18363 H 1755.98 -1.91123 -2.3111 0
M  V30 18364 H 1753.54 -1.0247 -1.18024 0
M  V30 18365 H 1754.27 0.500735 -3.20411 0
M  V30 18366 H 1754.06 -1.19231 -3.73532 0
M  V30 18367 H 1755.55 -0.300308 -4.16519 0
M  V30 18368 N 1755.98 1.20536 -1.01532 0
M  V30 18369 C 1756.91 2.2553 -0.604866 0
M  V30 18370 C 1757.89 1.65814 0.379452 0
M  V30 18371 O 1759.08 1.92381 0.265162 0
M  V30 18372 C 1756.21 3.4725 0.0589292 0
M  V30 18373 C 1755.16 4.19551 -0.846241 0
M  V30 18374 C 1754.49 5.34678 -0.0482901 0
M  V30 18375 C 1755.79 4.75829 -2.1537 0
M  V30 18376 H 1757.48 2.60117 -1.48254 0
M  V30 18377 H 1755.03 1.25035 -0.714297 0
M  V30 18378 H 1756.98 4.1988 0.357627 0
M  V30 18379 H 1755.71 3.11822 0.97131 0
M  V30 18380 H 1754.36 3.48785 -1.12892 0
M  V30 18381 H 1754.01 4.95494 0.8657 0
M  V30 18382 H 1753.71 5.83982 -0.651081 0
M  V30 18383 H 1755.24 6.10112 0.243983 0
M  V30 18384 H 1756.65 5.40284 -1.91745 0
M  V30 18385 H 1755.05 5.35564 -2.70723 0
M  V30 18386 H 1756.12 3.94641 -2.81756 0
M  V30 18387 N 1757.46 0.791395 1.36289 0
M  V30 18388 C 1758.37 0.192362 2.3381 0
M  V30 18389 C 1759.39 -0.656556 1.61138 0
M  V30 18390 O 1760.56 -0.571877 1.9311 0
M  V30 18391 C 1757.63 -0.661283 3.40335 0
M  V30 18392 C 1756.69 0.206361 4.28804 0
M  V30 18393 C 1755.92 -0.606636 5.30241 0
M  V30 18394 O 1756.14 -1.84247 5.39823 0
M  V30 18395 O 1755.08 -0.00549116 6.019 0
M  V30 18396 H 1758.9 0.998723 2.86809 0
M  V30 18397 H 1756.49 0.552889 1.38793 0
M  V30 18398 H 1758.37 -1.148 4.05461 0
M  V30 18399 H 1757.05 -1.4455 2.89632 0
M  V30 18400 H 1755.95 0.739877 3.66711 0
M  V30 18401 H 1757.29 0.954142 4.82863 0
M  V30 18402 N 1758.94 -1.47929 0.54358 0
M  V30 18403 C 1760.36 -1.58312 0.202376 0
M  V30 18404 C 1760.56 -1.54394 -1.29479 0
M  V30 18405 O 1759.61 -1.44015 -2.07403 0
M  V30 18406 C 1760.92 -2.89389 0.816958 0
M  V30 18407 C 1762.47 -3.02946 0.786935 0
M  V30 18408 C 1762.95 -4.36704 1.38034 0
M  V30 18409 N 1764.44 -4.43306 1.34291 0
M  V30 18410 C 1765.17 -5.45339 1.77182 0
M  V30 18411 N 1764.67 -6.54255 2.27866 0
M  V30 18412 N 1766.46 -5.36302 1.68336 0
M  V30 18413 H 1758.61 -1.48719 1.51646 0
M  V30 18414 H 1760.88 -0.706966 0.631587 0
M  V30 18415 H 1760.58 -2.97953 1.86861 0
M  V30 18416 H 1760.46 -3.75989 0.30198 0
M  V30 18417 H 1762.84 -2.93988 -0.25599 0
M  V30 18418 H 1762.92 -2.17923 1.33953 0
M  V30 18419 H 1762.57 -4.46418 2.42226 0
M  V30 18420 H 1762.5 -5.20437 0.803308 0
M  V30 18421 H 1764.99 -3.65185 0.972033 0
M  V30 18422 H 1765.3 -7.28265 2.58552 0
M  V30 18423 H 1763.65 -6.55181 2.31868 0
M  V30 18424 H 1766.84 -4.50109 1.28527 0
M  V30 18425 H 1767.01 -6.15684 2.02082 0
M  V30 18426 N 1760.42 -0.27936 -1.55104 0
M  V30 18427 C 1761.83 0.217569 -1.85428 0
M  V30 18428 C 1762.18 1.55117 -1.20138 0
M  V30 18429 O 1761.3 2.10751 -0.491229 0
M  V30 18430 C 1761.9 0.401547 -3.36412 0
M  V30 18431 C 1760.46 0.842706 -3.66845 0
M  V30 18432 C 1759.61 -0.0615565 -2.77232 0
M  V30 18433 H 1762.56 -0.501025 -1.50584 0
M  V30 18434 H 1762.58 1.23946 -3.59747 0
M  V30 18435 H 1762.09 -0.569224 -3.83903 0
M  V30 18436 H 1760.19 1.8248 -3.24857 0
M  V30 18437 H 1760.3 0.677088 -4.74291 0
M  V30 18438 H 1758.67 0.455486 -2.50594 0
M  V30 18439 H 1759.45 -1.02829 -3.27538 0
M  V30 18440 N 1761.9 1.57599 -0.0067085 0
M  V30 18441 C 1762.83 2.05706 1.01084 0
M  V30 18442 C 1763.84 0.976216 1.30284 0
M  V30 18443 O 1765.03 1.25288 1.27142 0
M  V30 18444 C 1762.13 2.44771 2.34393 0
M  V30 18445 C 1761.3 3.75668 2.24036 0
M  V30 18446 C 1760.36 4.01528 3.4009 0
M  V30 18447 O 1759.39 4.72101 3.17977 0
M  V30 18448 N 1760.59 3.49947 4.6316 0
M  V30 18449 H 1763.35 2.93622 0.600532 0
M  V30 18450 H 1760.92 1.6089 0.180536 0
M  V30 18451 H 1762.91 2.5918 3.10818 0
M  V30 18452 H 1761.48 1.62339 2.67142 0
M  V30 18453 H 1760.7 3.71272 1.3248 0
M  V30 18454 H 1761.99 4.6147 2.14295 0
M  V30 18455 H 1761.38 2.92811 4.84023 0
M  V30 18456 H 1759.94 3.69675 5.36828 0
M  V30 18457 N 1763.37 -0.266145 1.55336 0
M  V30 18458 C 1764.62 -0.994648 1.7547 0
M  V30 18459 C 1764.94 -1.87201 0.56702 0
M  V30 18460 O 1766.14 -2.63582 0.650924 0
M  V30 18461 C 1764.6 -1.81844 3.10581 0
M  V30 18462 C 1764.21 -0.989413 4.36938 0
M  V30 18463 C 1765.95 -2.54084 3.40061 0
M  V30 18464 C 1763.86 -1.80799 5.63086 0
M  V30 18465 H 1762.79 -0.375097 0.654078 0
M  V30 18466 H 1765.44 -0.25004 1.81788 0
M  V30 18467 H 1763.82 -2.60427 2.98318 0
M  V30 18468 H 1764.99 -0.247271 4.60136 0
M  V30 18469 H 1763.31 -0.38125 4.14651 0
M  V30 18470 H 1765.91 -3.15744 4.3152 0
M  V30 18471 H 1766.25 -3.2472 2.60505 0
M  V30 18472 H 1766.78 -1.82526 3.53453 0
M  V30 18473 H 1763.52 -1.14571 6.4541 0
M  V30 18474 H 1763.04 -2.52592 5.4402 0
M  V30 18475 H 1764.72 -2.37994 6.01638 0
M  V30 18476 N 1764.85 -1.48386 -0.530967 0
M  V30 18477 C 1765.76 -1.65516 -1.66257 0
M  V30 18478 C 1766.78 -0.5377 -1.65483 0
M  V30 18479 O 1767.95 -0.808642 -1.84453 0
M  V30 18480 C 1765.02 -1.68999 -3.02722 0
M  V30 18481 C 1764.08 -2.92365 -3.14358 0
M  V30 18482 C 1763.31 -2.95672 -4.44313 0
M  V30 18483 O 1763.54 -2.07417 -5.31352 0
M  V30 18484 O 1762.47 -3.87831 -4.60294 0
M  V30 18485 H 1766.3 -2.61321 -1.54742 0
M  V30 18486 H 1763.88 -1.31776 -0.703946 0
M  V30 18487 H 1765.76 -1.73816 -3.83883 0
M  V30 18488 H 1764.44 -0.763675 -3.14563 0
M  V30 18489 H 1763.34 -2.93081 -2.32496 0
M  V30 18490 H 1764.68 -3.84378 -3.07433 0
M  V30 18491 N 1766.33 0.779763 -1.36958 0
M  V30 18492 C 1767.29 1.87439 -1.31906 0
M  V30 18493 C 1768.29 1.59222 -0.224739 0
M  V30 18494 O 1769.48 1.67453 -0.480109 0
M  V30 18495 C 1766.61 3.24419 -1.04716 0
M  V30 18496 H 1767.81 1.93333 -2.29265 0
M  V30 18497 H 1765.36 0.978634 -1.21871 0
M  V30 18498 H 1766.1 3.24205 -0.0785442 0
M  V30 18499 H 1765.88 3.4629 -1.83917 0
M  V30 18500 H 1767.37 4.04491 -1.0381 0
M  V30 18501 N 1767.81 1.21396 1.00503 0
M  V30 18502 C 1769.06 1.02913 1.73935 0
M  V30 18503 C 1769.38 -0.438329 1.9001 0
M  V30 18504 O 1768.65 -1.31618 1.45098 0
M  V30 18505 H 1767.23 0.377813 0.644412 0
M  V30 18506 H 1769.89 1.52704 1.21109 0
M  V30 18507 H 1768.98 1.49705 2.73852 0
M  V30 18508 N 1769.29 -1.19996 1.0217 0
M  V30 18509 C 1770.51 -1.94007 0.733207 0
M  V30 18510 C 1770.94 -1.74565 -0.70061 0
M  V30 18511 O 1770.29 -1.04326 -1.48276 0
M  V30 18512 C 1770.34 -3.44029 1.08057 0
M  V30 18513 O 1769.45 -4.11938 0.195135 0
M  V30 18514 H 1768.79 -0.605929 0.271562 0
M  V30 18515 H 1771.32 -1.5228 1.36645 0
M  V30 18516 H 1771.33 -3.94669 1.03443 0
M  V30 18517 H 1770 -3.57502 2.1252 0
M  V30 18518 H 1768.58 -3.71697 0.299246 0
M  V30 18519 N 1770.76 -0.798611 -1.35867 0
M  V30 18520 C 1771.99 -0.387479 -2.03239 0
M  V30 18521 C 1772.41 0.999052 -1.60201 0
M  V30 18522 O 1771.76 1.64237 -0.795763 0
M  V30 18523 C 1771.81 -0.452101 -3.58662 0
M  V30 18524 O 1771.54 -1.78396 -4.00133 0
M  V30 18525 C 1773.04 -0.0327638 -4.43288 0
M  V30 18526 H 1770.26 -0.15845 -0.652024 0
M  V30 18527 H 1772.8 -1.08002 -1.73655 0
M  V30 18528 H 1770.96 0.192107 -3.86923 0
M  V30 18529 H 1771.37 -1.74118 -4.94756 0
M  V30 18530 H 1772.84 -0.129106 -5.51849 0
M  V30 18531 H 1773.32 1.02098 -4.27168 0
M  V30 18532 H 1773.93 -0.649817 -4.20306 0
M  V30 18533 N 1772.24 1.47639 -0.551417 0
M  V30 18534 C 1773.15 2.33722 0.202799 0
M  V30 18535 C 1774.17 1.47832 0.917699 0
M  V30 18536 O 1775.34 1.80772 0.887885 0
M  V30 18537 C 1772.41 3.24408 1.22313 0
M  V30 18538 C 1771.47 4.26184 0.51628 0
M  V30 18539 C 1770.7 5.12537 1.488 0
M  V30 18540 O 1770.93 5.01241 2.72238 0
M  V30 18541 O 1769.86 5.93269 1.01566 0
M  V30 18542 H 1773.69 2.99503 -0.50317 0
M  V30 18543 H 1771.27 1.46104 -0.312093 0
M  V30 18544 H 1773.15 3.80441 1.81225 0
M  V30 18545 H 1771.83 2.61262 1.91112 0
M  V30 18546 H 1770.73 3.73927 -0.113886 0
M  V30 18547 H 1772.07 4.92028 -0.130158 0
M  V30 18548 N 1773.72 0.287581 1.54954 0
M  V30 18549 C 1775.14 -0.0662092 1.59463 0
M  V30 18550 C 1775.34 -1.53556 1.30471 0
M  V30 18551 O 1774.39 -2.28632 1.07161 0
M  V30 18552 C 1775.71 0.319651 2.98996 0
M  V30 18553 C 1777.25 0.2673 3.11857 0
M  V30 18554 C 1777.73 0.627784 4.53677 0
M  V30 18555 N 1779.22 0.579808 4.59557 0
M  V30 18556 C 1779.95 0.831377 5.67341 0
M  V30 18557 N 1779.45 1.14821 6.83219 0
M  V30 18558 N 1781.24 0.759337 5.56947 0
M  V30 18559 H 1773.39 1.24534 1.72062 0
M  V30 18560 H 1775.66 0.503969 0.802944 0
M  V30 18561 H 1775.36 1.34201 3.25089 0
M  V30 18562 H 1775.24 -0.333373 3.75724 0
M  V30 18563 H 1777.62 -0.745794 2.8552 0
M  V30 18564 H 1777.71 0.954759 2.37314 0
M  V30 18565 H 1777.35 1.63862 4.80741 0
M  V30 18566 H 1777.28 -0.0816007 5.26537 0
M  V30 18567 H 1779.77 0.34531 3.76319 0
M  V30 18568 H 1780.08 1.32651 7.6133 0
M  V30 18569 H 1778.43 1.18612 6.84804 0
M  V30 18570 H 1781.62 0.511563 4.65296 0
M  V30 18571 H 1781.79 0.95877 6.40868 0
M  V30 18572 N 1775.2 -1.57593 0.0150662 0
M  V30 18573 C 1776.45 -1.90392 -0.66587 0
M  V30 18574 C 1776.76 -0.891694 -1.74092 0
M  V30 18575 O 1777.97 -1.11043 -2.47753 0
M  V30 18576 C 1776.42 -3.38026 -1.23558 0
M  V30 18577 C 1776.03 -4.47577 -0.19455 0
M  V30 18578 C 1777.77 -3.79913 -1.89384 0
M  V30 18579 C 1775.68 -5.86299 -0.7751 0
M  V30 18580 H 1774.61 -0.710474 -0.252473 0
M  V30 18581 H 1777.26 -1.83334 0.0780739 0
M  V30 18582 H 1775.64 -3.3997 -2.03068 0
M  V30 18583 H 1776.82 -4.57172 0.577061 0
M  V30 18584 H 1775.13 -4.14805 0.364134 0
M  V30 18585 H 1777.73 -4.809 -2.3375 0
M  V30 18586 H 1778.07 -3.14225 -2.73072 0
M  V30 18587 H 1778.61 -3.80333 -1.16585 0
M  V30 18588 H 1775.35 -6.55496 0.0233354 0
M  V30 18589 H 1774.87 -5.80338 -1.51552 0
M  V30 18590 H 1776.54 -6.3443 -1.26915 0
M  V30 18591 N 1776.68 0.257904 -1.55475 0
M  V30 18592 C 1777.92 0.98747 -1.76792 0
M  V30 18593 C 1778.25 1.85732 -0.577411 0
M  V30 18594 O 1777.51 1.90698 0.439647 0
M  V30 18595 C 1777.81 1.8875 -3.03494 0
M  V30 18596 C 1777.47 1.17391 -4.35351 0
M  V30 18597 C 1776.13 0.976662 -4.71184 0
M  V30 18598 C 1778.49 0.667299 -5.16911 0
M  V30 18599 C 1775.81 0.260314 -5.86122 0
M  V30 18600 C 1778.17 -0.0355283 -6.3259 0
M  V30 18601 C 1776.83 -0.244359 -6.67053 0
M  V30 18602 H 1776.1 0.361341 -0.646926 0
M  V30 18603 H 1778.75 0.258469 -1.89748 0
M  V30 18604 H 1777.05 2.6832 -2.85502 0
M  V30 18605 H 1778.75 2.45348 -3.17184 0
M  V30 18606 H 1775.34 1.33758 -4.07194 0
M  V30 18607 H 1779.52 0.807271 -4.89691 0
M  V30 18608 H 1774.78 0.0879391 -6.11337 0
M  V30 18609 H 1778.95 -0.435775 -6.95035 0
M  V30 18610 H 1776.58 -0.801403 -7.55964 0
M  V30 18611 N 1778.15 1.48666 0.52309 0
M  V30 18612 C 1779.08 1.666 1.63605 0
M  V30 18613 C 1780.07 0.514803 1.62123 0
M  V30 18614 O 1781.25 0.748138 1.79211 0
M  V30 18615 C 1778.38 1.71199 3.02172 0
M  V30 18616 C 1777.33 2.85888 3.18515 0
M  V30 18617 C 1776.66 2.75582 4.58213 0
M  V30 18618 C 1777.96 4.27104 3.00631 0
M  V30 18619 H 1779.65 2.59776 1.48851 0
M  V30 18620 H 1777.2 1.25014 0.714667 0
M  V30 18621 H 1779.15 1.82333 3.79911 0
M  V30 18622 H 1777.88 0.746066 3.17964 0
M  V30 18623 H 1776.54 2.7432 2.43195 0
M  V30 18624 H 1776.18 1.76944 4.7085 0
M  V30 18625 H 1775.88 3.52545 4.70091 0
M  V30 18626 H 1777.41 2.88693 5.38041 0
M  V30 18627 H 1778.82 4.3947 3.68157 0
M  V30 18628 H 1777.22 5.05119 3.23999 0
M  V30 18629 H 1778.29 4.43087 1.96982 0
M  V30 18630 N 1779.63 -0.772489 1.37369 0
M  V30 18631 C 1780.86 -1.56158 1.35729 0
M  V30 18632 C 1781.28 -1.88712 -0.0575274 0
M  V30 18633 O 1780.63 -1.51395 -1.01911 0
M  V30 18634 C 1780.68 -2.87231 2.19501 0
M  V30 18635 O 1780.4 -2.56072 3.5547 0
M  V30 18636 C 1781.91 -3.81464 2.25831 0
M  V30 18637 H 1779.13 -0.483803 0.464947 0
M  V30 18638 H 1781.67 -0.957502 1.80699 0
M  V30 18639 H 1779.82 -3.44063 1.78042 0
M  V30 18640 H 1780.24 -3.40002 3.99373 0
M  V30 18641 H 1781.71 -4.70442 2.8877 0
M  V30 18642 H 1782.19 -4.20542 1.26653 0
M  V30 18643 H 1782.8 -3.30561 2.67599 0
M  V30 18644 N 1781.11 -1.21927 -0.998575 0
M  V30 18645 C 1782.36 -1.04194 -1.73987 0
M  V30 18646 C 1782.69 0.4227 -1.89544 0
M  V30 18647 O 1781.96 1.31353 -1.43446 0
M  V30 18648 C 1782.25 -1.74717 -3.14874 0
M  V30 18649 C 1782.1 -3.28741 -3.07001 0
M  V30 18650 C 1783.42 -1.49495 -4.13931 0
M  V30 18651 H 1780.54 -0.379918 -0.631531 0
M  V30 18652 H 1783.18 -1.5019 -1.16374 0
M  V30 18653 H 1781.33 -1.35615 -3.64062 0
M  V30 18654 H 1783 -3.77252 -2.65478 0
M  V30 18655 H 1781.25 -3.58711 -2.43944 0
M  V30 18656 H 1781.92 -3.73258 -4.06672 0
M  V30 18657 H 1784.39 -1.83451 -3.73477 0
M  V30 18658 H 1783.27 -2.01344 -5.10639 0
M  V30 18659 H 1783.53 -0.426324 -4.4004 0
M  V30 18660 N 1782.59 1.19452 -1.02805 0
M  V30 18661 C 1783.81 1.93616 -0.743485 0
M  V30 18662 C 1784.24 1.74934 0.691342 0
M  V30 18663 O 1783.6 1.05111 1.47721 0
M  V30 18664 C 1783.64 3.43451 -1.0988 0
M  V30 18665 O 1782.75 4.11829 -0.216978 0
M  V30 18666 H 1782.09 0.60448 -0.274771 0
M  V30 18667 H 1784.62 1.51554 -1.37451 0
M  V30 18668 H 1784.63 3.94115 -1.05535 0
M  V30 18669 H 1783.3 3.5637 -2.14413 0
M  V30 18670 H 1781.88 3.71533 -0.318954 0
M  V30 18671 N 1784.07 0.805805 1.35442 0
M  V30 18672 C 1785.01 0.203715 2.31706 0
M  V30 18673 C 1786.01 -0.646084 1.56595 0
M  V30 18674 O 1787.21 -0.539336 1.7173 0
M  V30 18675 H 1783.59 0.0471152 0.750523 0
M  V30 18676 H 1785.56 1.03076 2.80032 0
M  V30 18677 C 1784.31 -0.633791 3.41875 0
M  V30 18678 H 1783.63 0.0107715 3.99799 0
M  V30 18679 H 1785.07 -1.02147 4.11512 0
M  V30 18680 C 1783.53 -1.79899 2.84847 0
M  V30 18681 O 1784.06 -2.89643 2.78334 0
M  V30 18682 N 1782.27 -1.61027 2.41906 0
M  V30 18683 H 1781.81 -0.717599 2.47403 0
M  V30 18684 H 1781.77 -2.39147 2.04099 0
M  V30 18685 N 1785.54 -1.47344 0.559239 0
M  V30 18686 C 1786.77 -2.0656 0.040802 0
M  V30 18687 C 1787.18 -1.41208 -1.25925 0
M  V30 18688 O 1786.53 -0.503333 -1.7667 0
M  V30 18689 C 1786.59 -3.58804 -0.223642 0
M  V30 18690 C 1786.25 -4.46208 0.987275 0
M  V30 18691 C 1787.25 -4.84198 1.89336 0
M  V30 18692 C 1784.93 -4.87693 1.20252 0
M  V30 18693 C 1786.93 -5.62474 2.99837 0
M  V30 18694 C 1784.61 -5.65733 2.31061 0
M  V30 18695 C 1785.61 -6.03034 3.20684 0
M  V30 18696 O 1785.3 -6.79502 4.29572 0
M  V30 18697 H 1785.03 -0.674583 0.0437408 0
M  V30 18698 H 1787.59 -1.90306 0.772827 0
M  V30 18699 H 1785.82 -3.73277 -1.01 0
M  V30 18700 H 1787.51 -4.00032 -0.687709 0
M  V30 18701 H 1788.27 -4.52746 1.73913 0
M  V30 18702 H 1784.15 -4.58124 0.514098 0
M  V30 18703 H 1787.69 -5.91508 3.69817 0
M  V30 18704 H 1783.59 -5.96598 2.46456 0
M  V30 18705 H 1784.36 -6.97898 4.27645 0
M  V30 18706 N 1787.02 -0.295795 -1.54799 0
M  V30 18707 C 1788.27 0.315754 -1.99213 0
M  V30 18708 C 1788.58 1.55405 -1.18779 0
M  V30 18709 O 1789.79 2.23986 -1.53436 0
M  V30 18710 C 1788.25 0.613119 -3.54639 0
M  V30 18711 C 1787.85 -0.606546 -4.43875 0
M  V30 18712 C 1789.6 1.18615 -4.07591 0
M  V30 18713 C 1787.51 -0.282622 -5.90724 0
M  V30 18714 H 1786.44 0.121758 -0.744104 0
M  V30 18715 H 1789.09 -0.403686 -1.79005 0
M  V30 18716 H 1787.47 1.39202 -3.70728 0
M  V30 18717 H 1788.64 -1.3829 -4.39559 0
M  V30 18718 H 1786.96 -1.09785 -4.01667 0
M  V30 18719 H 1789.55 1.44266 -5.1487 0
M  V30 18720 H 1789.9 2.12674 -3.57876 0
M  V30 18721 H 1790.43 0.469078 -3.95025 0
M  V30 18722 H 1787.17 -1.19164 -6.44578 0
M  V30 18723 H 1786.69 0.456564 -5.9806 0
M  V30 18724 H 1788.37 0.117703 -6.46893 0
M  V30 18725 N 1788.5 1.57583 -0.0234236 0
M  V30 18726 C 1789.75 1.91565 0.656449 0
M  V30 18727 C 1790.08 0.899298 1.72461 0
M  V30 18728 O 1789.33 -0.0926107 1.95481 0
M  V30 18729 C 1789.63 3.32283 1.31616 0
M  V30 18730 C 1789.3 4.49305 0.378925 0
M  V30 18731 C 1787.96 4.81048 0.120945 0
M  V30 18732 C 1790.31 5.20526 -0.264985 0
M  V30 18733 C 1787.64 5.81373 -0.788846 0
M  V30 18734 C 1789.99 6.21821 -1.1628 0
M  V30 18735 C 1788.65 6.52009 -1.42972 0
M  V30 18736 H 1787.92 0.700985 0.240212 0
M  V30 18737 H 1790.57 1.91316 -0.0839711 0
M  V30 18738 H 1788.88 3.28766 2.13119 0
M  V30 18739 H 1790.57 3.55845 1.84866 0
M  V30 18740 H 1787.16 4.24517 0.590173 0
M  V30 18741 H 1791.35 4.96238 -0.0787258 0
M  V30 18742 H 1786.6 6.0311 -1.00341 0
M  V30 18743 H 1790.78 6.7613 -1.66796 0
M  V30 18744 H 1788.4 7.29564 -2.13636 0
M  V30 18745 N 1789.98 -0.249655 1.5561 0
M  V30 18746 C 1791.21 -0.995707 1.81365 0
M  V30 18747 C 1791.62 -1.79054 0.598767 0
M  V30 18748 O 1790.98 -1.773 -0.432538 0
M  V30 18749 C 1791.03 -1.93577 3.05303 0
M  V30 18750 O 1790.75 -1.17311 4.22102 0
M  V30 18751 C 1792.25 -2.79804 3.43838 0
M  V30 18752 H 1789.47 -0.293118 0.603591 0
M  V30 18753 H 1792.02 -0.273374 2.02665 0
M  V30 18754 H 1790.17 -2.61242 2.86062 0
M  V30 18755 H 1790.59 -1.80875 4.92326 0
M  V30 18756 H 1792.06 -3.4152 4.33668 0
M  V30 18757 H 1792.54 -3.50776 2.64298 0
M  V30 18758 H 1793.14 -2.17596 3.6542 0
M  V30 18759 N 1791.46 -1.48941 -0.515198 0
M  V30 18760 C 1792.42 -1.64062 -1.60051 0
M  V30 18761 C 1793.42 -0.513101 -1.52394 0
M  V30 18762 O 1794.61 -0.77924 -1.558 0
M  V30 18763 C 1791.74 -1.6247 -2.99694 0
M  V30 18764 H 1792.94 -2.60849 -1.47978 0
M  V30 18765 H 1790.49 -1.37759 -0.738378 0
M  V30 18766 H 1791.22 -0.672141 -3.17258 0
M  V30 18767 H 1791.01 -2.4434 -3.0666 0
M  V30 18768 H 1792.5 -1.76273 -3.78573 0
M  V30 18769 N 1792.94 0.765193 -1.37777 0
M  V30 18770 C 1794.18 1.51928 -1.32668 0
M  V30 18771 C 1794.5 1.95418 0.0844172 0
M  V30 18772 O 1795.7 2.70271 0.258001 0
M  V30 18773 C 1794.16 2.74377 -2.32906 0
M  V30 18774 C 1793.77 2.37959 -3.79578 0
M  V30 18775 C 1795.51 3.52302 -2.3682 0
M  V30 18776 C 1793.42 3.5695 -4.7153 0
M  V30 18777 H 1792.35 0.570412 -0.493098 0
M  V30 18778 H 1795 0.837531 -1.63272 0
M  V30 18779 H 1793.38 3.44474 -1.95329 0
M  V30 18780 H 1794.56 1.75603 -4.26028 0
M  V30 18781 H 1792.87 1.73194 -3.78672 0
M  V30 18782 H 1795.47 4.40754 -3.02721 0
M  V30 18783 H 1795.81 3.92631 -1.38371 0
M  V30 18784 H 1796.34 2.89207 -2.73137 0
M  V30 18785 H 1793.08 3.21697 -5.71132 0
M  V30 18786 H 1792.6 4.18388 -4.2978 0
M  V30 18787 H 1794.28 4.2368 -4.88983 0
M  V30 18788 N 1794.41 1.22455 0.992094 0
M  V30 18789 C 1795.66 1.0496 1.73175 0
M  V30 18790 C 1795.99 -0.41518 1.90017 0
M  V30 18791 O 1795.24 -1.32408 1.44107 0
M  V30 18792 C 1795.54 1.70683 3.1401 0
M  V30 18793 C 1795.21 3.20579 3.1708 0
M  V30 18794 C 1793.87 3.6148 3.17626 0
M  V30 18795 C 1796.22 4.16519 3.13308 0
M  V30 18796 C 1793.55 4.968 3.121 0
M  V30 18797 C 1795.9 5.51816 3.09324 0
M  V30 18798 C 1794.57 5.92096 3.08185 0
M  V30 18799 H 1793.84 0.384075 0.633694 0
M  V30 18800 H 1796.48 1.52228 1.16184 0
M  V30 18801 H 1794.79 1.15742 3.74314 0
M  V30 18802 H 1796.49 1.54636 3.69985 0
M  V30 18803 H 1793.08 2.88012 3.17406 0
M  V30 18804 H 1797.26 3.85937 3.12036 0
M  V30 18805 H 1792.52 5.27238 3.09564 0
M  V30 18806 H 1796.69 6.25882 3.0536 0
M  V30 18807 H 1794.32 6.96919 3.03658 0
M  V30 18808 N 1795.89 -1.18905 1.03437 0
M  V30 18809 C 1797.14 -1.89007 0.735135 0
M  V30 18810 C 1797.47 -1.7976 -0.734838 0
M  V30 18811 O 1796.75 -1.19365 -1.53565 0
M  V30 18812 C 1797.03 -3.39732 1.1939 0
M  V30 18813 C 1796.88 -3.57822 2.7255 0
M  V30 18814 C 1798.2 -4.33151 0.778993 0
M  V30 18815 H 1795.32 -0.686338 0.26853 0
M  V30 18816 H 1797.96 -1.39932 1.28527 0
M  V30 18817 H 1796.11 -3.81659 0.725861 0
M  V30 18818 H 1797.78 -3.25031 3.27342 0
M  V30 18819 H 1796.03 -3.0069 3.12679 0
M  V30 18820 H 1796.7 -4.63552 2.99706 0
M  V30 18821 H 1799.17 -3.98969 1.18164 0
M  V30 18822 H 1798.05 -5.37189 1.12781 0
M  V30 18823 H 1798.31 -4.40953 -0.318296 0
M  V30 18824 N 1797.37 -0.812977 -1.35013 0
M  V30 18825 C 1798.62 -0.395562 -1.98191 0
M  V30 18826 C 1798.94 1.04242 -1.64799 0
M  V30 18827 O 1798.21 1.72219 -0.933678 0
M  V30 18828 H 1796.79 -0.143276 -0.733131 0
M  V30 18829 H 1799.45 -1.04023 -1.64819 0
M  V30 18830 H 1798.55 -0.506466 -3.07963 0
M  V30 18831 N 1798.85 1.47045 -0.567045 0
M  V30 18832 C 1799.76 2.33924 0.177998 0
M  V30 18833 C 1800.77 1.48797 0.901967 0
M  V30 18834 O 1801.95 1.81704 0.868662 0
M  V30 18835 C 1799.01 3.25687 1.18865 0
M  V30 18836 C 1798.08 4.26708 0.471049 0
M  V30 18837 C 1797.31 5.14087 1.43355 0
M  V30 18838 O 1797.53 5.041 2.66907 0
M  V30 18839 O 1796.47 5.94313 0.952674 0
M  V30 18840 H 1800.29 2.98952 -0.534907 0
M  V30 18841 H 1797.88 1.45765 -0.327571 0
M  V30 18842 H 1799.76 3.82342 1.7718 0
M  V30 18843 H 1798.43 2.63274 1.8833 0
M  V30 18844 H 1797.34 3.73785 -0.153539 0
M  V30 18845 H 1798.67 4.91862 -0.182337 0
M  V30 18846 N 1800.33 0.304 1.5464 0
M  V30 18847 C 1801.26 -0.612836 2.19817 0
M  V30 18848 C 1802.24 -1.13062 1.16858 0
M  V30 18849 O 1803.42 -1.19826 1.45513 0
M  V30 18850 C 1800.55 -1.83881 2.84439 0
M  V30 18851 C 1799.59 -1.454 4.0095 0
M  V30 18852 S 1800.43 -0.507373 5.33091 0
M  V30 18853 C 1801.58 -1.74107 6.01197 0
M  V30 18854 H 1801.82 -0.0591286 2.97241 0
M  V30 18855 H 1799.35 0.0881302 1.54148 0
M  V30 18856 H 1801.31 -2.54235 3.22296 0
M  V30 18857 H 1799.97 -2.36369 2.06854 0
M  V30 18858 H 1799.16 -2.36702 4.44959 0
M  V30 18859 H 1798.76 -0.83037 3.64665 0
M  V30 18860 H 1801.05 -2.68124 6.22186 0
M  V30 18861 H 1802 -1.3435 6.95238 0
M  V30 18862 H 1802.41 -1.91916 5.30875 0
M  V30 18863 N 1801.8 -1.57568 0.0317802 0
M  V30 18864 C 1803.03 -1.96212 -0.656401 0
M  V30 18865 C 1803.45 -0.908406 -1.6551 0
M  V30 18866 O 1802.8 0.109502 -1.82171 0
M  V30 18867 C 1802.85 -3.34924 -1.36044 0
M  V30 18868 O 1802.58 -4.36254 -0.401757 0
M  V30 18869 C 1804.08 -3.88215 -2.14019 0
M  V30 18870 H 1801.3 -0.646181 -0.180808 0
M  V30 18871 H 1803.84 -2.04291 0.0923341 0
M  V30 18872 H 1802 -3.28055 -2.06055 0
M  V30 18873 H 1802.41 -5.16686 -0.902005 0
M  V30 18874 H 1803.88 -4.87609 -2.5873 0
M  V30 18875 H 1804.36 -3.22602 -2.98034 0
M  V30 18876 H 1804.97 -3.98361 -1.4896 0
M  V30 18877 N 1803.28 0.241399 -1.5574 0
M  V30 18878 C 1804.21 1.30255 -1.93793 0
M  V30 18879 C 1805.19 1.49923 -0.803563 0
M  V30 18880 O 1806.38 1.62439 -1.06429 0
M  V30 18881 C 1803.51 2.65625 -2.23742 0
M  V30 18882 C 1802.46 2.60645 -3.39483 0
M  V30 18883 C 1801.79 3.99861 -3.54986 0
M  V30 18884 C 1803.09 2.17151 -4.75019 0
M  V30 18885 H 1804.78 0.986532 -2.8268 0
M  V30 18886 H 1802.33 0.473125 -1.36006 0
M  V30 18887 H 1804.28 3.40001 -2.48953 0
M  V30 18888 H 1803.01 2.98874 -1.31688 0
M  V30 18889 H 1801.66 1.88727 -3.14289 0
M  V30 18890 H 1801.31 4.30385 -2.60342 0
M  V30 18891 H 1801.01 3.97415 -4.32822 0
M  V30 18892 H 1802.54 4.75928 -3.82524 0
M  V30 18893 H 1803.95 2.8126 -4.99565 0
M  V30 18894 H 1802.35 2.25805 -5.55996 0
M  V30 18895 H 1803.42 1.12329 -4.7171 0
M  V30 18896 N 1804.76 1.49212 0.507292 0
M  V30 18897 C 1805.71 1.65417 1.60953 0
M  V30 18898 C 1806.68 0.495737 1.5853 0
M  V30 18899 O 1807.86 0.722002 1.76612 0
M  V30 18900 C 1805 1.72095 2.99128 0
M  V30 18901 C 1804.12 2.99199 3.11615 0
M  V30 18902 C 1803.25 2.96895 4.40485 0
M  V30 18903 C 1802.29 4.18607 4.46581 0
M  V30 18904 N 1801.43 4.14248 5.66871 0
M  V30 18905 H 1806.27 2.59535 1.46444 0
M  V30 18906 H 1803.8 1.28687 0.712609 0
M  V30 18907 H 1805.76 1.73947 3.79207 0
M  V30 18908 H 1804.39 0.814484 3.12356 0
M  V30 18909 H 1803.44 3.06988 2.24639 0
M  V30 18910 H 1804.76 3.89192 3.11979 0
M  V30 18911 H 1803.91 2.97275 5.28878 0
M  V30 18912 H 1802.65 2.0467 4.42675 0
M  V30 18913 H 1801.65 4.18477 3.56591 0
M  V30 18914 H 1802.88 5.12017 4.46112 0
M  V30 18915 H 1800.82 3.24857 5.69916 0
M  V30 18916 H 1800.74 4.97969 5.68826 0
M  V30 18917 H 1802.01 4.18722 6.57489 0
M  V30 18918 N 1806.24 -0.757876 1.38181 0
M  V30 18919 C 1807.48 -1.51912 1.34352 0
M  V30 18920 C 1807.82 -1.94082 -0.0677003 0
M  V30 18921 O 1807.09 -1.65114 -1.02799 0
M  V30 18922 C 1807.38 -2.77466 2.29531 0
M  V30 18923 C 1807.23 -2.41462 3.79495 0
M  V30 18924 C 1808.55 -3.79469 2.22915 0
M  V30 18925 H 1805.67 -0.551091 0.489355 0
M  V30 18926 H 1808.31 -0.868376 1.68995 0
M  V30 18927 H 1806.46 -3.32994 2.00119 0
M  V30 18928 H 1808.13 -1.91742 4.19562 0
M  V30 18929 H 1806.37 -1.73976 3.97385 0
M  V30 18930 H 1807.04 -3.31272 4.41546 0
M  V30 18931 H 1809.52 -3.33471 2.48871 0
M  V30 18932 H 1808.4 -4.6502 2.91629 0
M  V30 18933 H 1808.66 -4.24744 1.22658 0
M  V30 18934 N 1807.72 -1.22979 -0.985586 0
M  V30 18935 C 1808.96 -1.06033 -1.72872 0
M  V30 18936 C 1809.3 0.402572 -1.89982 0
M  V30 18937 O 1808.57 1.29824 -1.44831 0
M  V30 18938 C 1808.85 -1.78047 -3.13004 0
M  V30 18939 C 1808.71 -3.31979 -3.03497 0
M  V30 18940 C 1810.03 -1.53877 -4.12323 0
M  V30 18941 H 1807.14 -0.386594 -0.627466 0
M  V30 18942 H 1809.79 -1.51416 -1.14775 0
M  V30 18943 H 1807.94 -1.39469 -3.62603 0
M  V30 18944 H 1809.61 -3.80047 -2.61462 0
M  V30 18945 H 1807.85 -3.61279 -2.40125 0
M  V30 18946 H 1808.52 -3.7755 -4.02691 0
M  V30 18947 H 1811 -1.87402 -3.7151 0
M  V30 18948 H 1809.87 -2.06749 -5.08474 0
M  V30 18949 H 1810.14 -0.472972 -4.39563 0
M  V30 18950 N 1809.19 1.18355 -1.04066 0
M  V30 18951 C 1810.42 1.92816 -0.763979 0
M  V30 18952 C 1810.84 1.75658 0.672749 0
M  V30 18953 O 1810.2 1.06671 1.46598 0
M  V30 18954 C 1810.25 3.42267 -1.13516 0
M  V30 18955 O 1809.35 4.11576 -0.260646 0
M  V30 18956 H 1808.7 0.601532 -0.281167 0
M  V30 18957 H 1811.23 1.50087 -1.3905 0
M  V30 18958 H 1811.24 3.92973 -1.09709 0
M  V30 18959 H 1809.91 3.54076 -2.18181 0
M  V30 18960 H 1808.49 3.71174 -0.358342 0
M  V30 18961 N 1810.67 0.820125 1.3458 0
M  V30 18962 C 1811.6 0.254709 2.32107 0
M  V30 18963 C 1812.58 -0.6273 1.58111 0
M  V30 18964 O 1813.77 -0.554759 1.86108 0
M  V30 18965 C 1810.9 -0.586541 3.42311 0
M  V30 18966 C 1809.85 0.198096 4.27541 0
M  V30 18967 C 1809.18 -0.765718 5.29189 0
M  V30 18968 C 1810.48 1.40472 5.03056 0
M  V30 18969 H 1812.17 1.06955 2.79644 0
M  V30 18970 H 1809.72 0.515756 1.34447 0
M  V30 18971 H 1811.67 -0.992259 4.09551 0
M  V30 18972 H 1810.4 -1.4344 2.93415 0
M  V30 18973 H 1809.05 0.585149 3.619 0
M  V30 18974 H 1808.7 -1.60946 4.76556 0
M  V30 18975 H 1808.4 -0.244954 5.87089 0
M  V30 18976 H 1809.93 -1.16935 5.99298 0
M  V30 18977 H 1811.34 1.07316 5.63166 0
M  V30 18978 H 1809.74 1.86092 5.70517 0
M  V30 18979 H 1810.81 2.18437 4.32913 0
M  V30 18980 N 1812.15 -1.46743 0.574835 0
M  V30 18981 C 1813.4 -2.02019 0.057302 0
M  V30 18982 C 1813.72 -1.44965 -1.30423 0
M  V30 18983 O 1812.99 -0.631377 -1.85447 0
M  V30 18984 H 1811.57 -0.746778 0.018193 0
M  V30 18985 H 1814.23 -1.7994 0.748834 0
M  V30 18986 H 1813.33 -3.12095 -0.0176114 0
M  V30 18987 N 1813.63 -0.312197 -1.54477 0
M  V30 18988 C 1814.56 0.551829 -2.26886 0
M  V30 18989 C 1815.54 1.12874 -1.27254 0
M  V30 18990 O 1816.72 1.15599 -1.56046 0
M  V30 18991 C 1813.85 1.71839 -3.01809 0
M  V30 18992 C 1812.81 1.27131 -4.08683 0
M  V30 18993 C 1812.13 2.52392 -4.71384 0
M  V30 18994 C 1813.43 0.394413 -5.20809 0
M  V30 18995 H 1815.13 -0.0521331 -2.99355 0
M  V30 18996 H 1812.67 -0.0265138 -1.43976 0
M  V30 18997 H 1814.63 2.32903 -3.5119 0
M  V30 18998 H 1813.35 2.34876 -2.26938 0
M  V30 18999 H 1812.01 0.683666 -3.60169 0
M  V30 19000 H 1811.66 3.13768 -3.93139 0
M  V30 19001 H 1811.36 2.23174 -5.43569 0
M  V30 19002 H 1812.88 3.14239 -5.23533 0
M  V30 19003 H 1814.3 0.911031 -5.66015 0
M  V30 19004 H 1812.69 0.195517 -5.99781 0
M  V30 19005 H 1813.76 -0.577661 -4.81447 0
M  V30 19006 N 1815.11 1.57549 -0.040136 0
M  V30 19007 C 1816.34 1.96272 0.645049 0
M  V30 19008 C 1816.74 0.915804 1.65559 0
M  V30 19009 O 1816.09 -0.109666 1.83372 0
M  V30 19010 C 1816.15 3.31187 1.3984 0
M  V30 19011 C 1815.81 4.53739 0.544953 0
M  V30 19012 C 1816.81 5.19573 -0.184369 0
M  V30 19013 C 1814.5 5.0001 0.479119 0
M  V30 19014 C 1816.49 6.30006 -0.968081 0
M  V30 19015 C 1814.18 6.10322 -0.30829 0
M  V30 19016 C 1815.17 6.7518 -1.03059 0
M  V30 19017 O 1814.86 7.83373 -1.80507 0
M  V30 19018 H 1814.59 0.651051 0.181958 0
M  V30 19019 H 1817.15 2.05159 -0.0995179 0
M  V30 19020 H 1815.38 3.18823 2.18835 0
M  V30 19021 H 1817.07 3.54735 1.97276 0
M  V30 19022 H 1817.83 4.84789 -0.142908 0
M  V30 19023 H 1813.71 4.49325 1.0309 0
M  V30 19024 H 1817.26 6.80562 -1.53237 0
M  V30 19025 H 1813.15 6.44543 -0.351428 0
M  V30 19026 H 1813.92 8.00094 -1.72601 0
M  V30 19027 N 1816.58 -0.233136 1.55866 0
M  V30 19028 C 1817.83 -0.959219 1.7834 0
M  V30 19029 C 1818.16 -1.84789 0.606886 0
M  V30 19030 O 1817.41 -1.91373 -0.409253 0
M  V30 19031 C 1817.71 -1.83897 3.06458 0
M  V30 19032 C 1817.38 -1.1045 4.37163 0
M  V30 19033 C 1816.04 -0.901577 4.72679 0
M  V30 19034 C 1818.39 -0.584979 5.17907 0
M  V30 19035 C 1815.72 -0.167034 5.86462 0
M  V30 19036 C 1818.07 0.136163 6.32453 0
M  V30 19037 C 1816.74 0.35045 6.66579 0
M  V30 19038 H 1816.01 -0.351003 0.652593 0
M  V30 19039 H 1818.65 -0.228249 1.90135 0
M  V30 19040 H 1816.96 -2.63744 2.89735 0
M  V30 19041 H 1818.66 -2.4027 3.21047 0
M  V30 19042 H 1815.25 -1.27263 4.0927 0
M  V30 19043 H 1819.43 -0.729263 4.90913 0
M  V30 19044 H 1814.69 0.00933042 6.11399 0
M  V30 19045 H 1818.86 0.546294 6.94254 0
M  V30 19046 H 1816.49 0.921569 7.54593 0
M  V30 19047 N 1818.06 -1.49479 -0.499372 0
M  V30 19048 C 1819.31 -1.58734 -1.25092 0
M  V30 19049 C 1819.63 -0.276701 -1.93027 0
M  V30 19050 O 1818.9 0.704058 -1.82811 0
M  V30 19051 H 1817.48 -0.584857 -0.464706 0
M  V30 19052 H 1820.14 -1.86113 -0.578608 0
M  V30 19053 H 1819.24 -2.38422 -2.01399 0
M  V30 19054 N 1819.54 0.750537 -1.38581 0
M  V30 19055 C 1820.45 1.89503 -1.38296 0
M  V30 19056 C 1821.47 1.71738 -0.279678 0
M  V30 19057 O 1822.64 1.94608 -0.518607 0
M  V30 19058 C 1819.71 3.24909 -1.20976 0
M  V30 19059 C 1818.77 3.55178 -2.41136 0
M  V30 19060 C 1818 4.84124 -2.24633 0
M  V30 19061 O 1818.23 5.56722 -1.24164 0
M  V30 19062 O 1817.16 5.1394 -3.13288 0
M  V30 19063 H 1820.99 1.92698 -2.34737 0
M  V30 19064 H 1818.57 0.896233 -1.19533 0
M  V30 19065 H 1820.45 4.05858 -1.13389 0
M  V30 19066 H 1819.13 3.22519 -0.276217 0
M  V30 19067 H 1818.03 2.74378 -2.54298 0
M  V30 19068 H 1819.37 3.62332 -3.33131 0
M  V30 19069 N 1821.02 1.235 0.979051 0
M  V30 19070 C 1821.95 0.975198 2.07419 0
M  V30 19071 C 1822.96 -0.0512875 1.62719 0
M  V30 19072 O 1824.15 0.184403 1.77545 0
M  V30 19073 C 1821.25 0.447701 3.3593 0
M  V30 19074 C 1820.43 1.53467 4.09593 0
M  V30 19075 C 1819.49 1.01181 5.16381 0
M  V30 19076 O 1818.51 1.70108 5.43187 0
M  V30 19077 N 1819.71 -0.159667 5.8028 0
M  V30 19078 H 1822.48 1.91806 2.30283 0
M  V30 19079 H 1820.04 1.14377 1.14584 0
M  V30 19080 H 1822.03 0.0829228 4.04615 0
M  V30 19081 H 1820.6 -0.400613 3.10022 0
M  V30 19082 H 1819.82 2.07215 3.35344 0
M  V30 19083 H 1821.11 2.2656 4.55574 0
M  V30 19084 H 1820.51 -0.736193 5.60889 0
M  V30 19085 H 1819.06 -0.465696 6.50134 0
M  V30 19086 N 1822.5 -1.17802 1.04693 0
M  V30 19087 C 1823.46 -2.19854 0.647816 0
M  V30 19088 C 1824.46 -1.58013 -0.298081 0
M  V30 19089 O 1825.65 -1.74004 -0.0826309 0
M  V30 19090 C 1822.78 -3.40864 -0.0492661 0
M  V30 19091 H 1823.98 -2.56678 1.55101 0
M  V30 19092 H 1821.53 -1.31796 0.840215 0
M  V30 19093 H 1822.26 -3.0958 -0.965967 0
M  V30 19094 H 1822.05 -3.86995 0.630677 0
M  V30 19095 H 1823.54 -4.16412 -0.31479 0
M  V30 19096 N 1823.98 -0.827251 -1.34143 0
M  V30 19097 C 1825.21 -0.429878 -2.02078 0
M  V30 19098 C 1825.61 0.970141 -1.62434 0
M  V30 19099 O 1824.96 1.63997 -0.827692 0
M  V30 19100 C 1825.02 -0.457493 -3.56577 0
M  V30 19101 C 1824.68 -1.8116 -4.19559 0
M  V30 19102 C 1825.68 -2.7731 -4.39767 0
M  V30 19103 C 1823.36 -2.10126 -4.56237 0
M  V30 19104 C 1825.36 -4.00596 -4.95784 0
M  V30 19105 C 1823.05 -3.33672 -5.11963 0
M  V30 19106 C 1824.04 -4.28724 -5.31681 0
M  V30 19107 O 1823.73 -5.50086 -5.86226 0
M  V30 19108 H 1823.46 -0.170259 -0.654208 0
M  V30 19109 H 1826.02 -1.11808 -1.72303 0
M  V30 19110 H 1824.25 0.287424 -3.8563 0
M  V30 19111 H 1825.94 -0.0795677 -4.05822 0
M  V30 19112 H 1826.7 -2.56228 -4.11791 0
M  V30 19113 H 1822.58 -1.36941 -4.40191 0
M  V30 19114 H 1826.13 -4.74798 -5.11089 0
M  V30 19115 H 1822.02 -3.54615 -5.39369 0
M  V30 19116 H 1822.79 -5.51665 -6.04655 0
M  V30 19117 N 1825.45 1.46436 -0.582609 0
M  V30 19118 C 1826.38 2.33089 0.138477 0
M  V30 19119 C 1827.36 1.45339 0.883777 0
M  V30 19120 O 1828.55 1.74156 0.859257 0
M  V30 19121 C 1825.68 3.27611 1.15276 0
M  V30 19122 C 1824.63 4.24801 0.522308 0
M  V30 19123 C 1823.96 5.0883 1.64306 0
M  V30 19124 C 1825.26 5.19496 -0.540449 0
M  V30 19125 H 1826.95 2.93629 -0.585013 0
M  V30 19126 H 1824.5 1.41196 -0.282781 0
M  V30 19127 H 1826.45 3.87087 1.66558 0
M  V30 19128 H 1825.18 2.65177 1.90653 0
M  V30 19129 H 1823.84 3.66587 0.0305728 0
M  V30 19130 H 1823.48 4.42782 2.38649 0
M  V30 19131 H 1823.18 5.74649 1.22686 0
M  V30 19132 H 1824.71 5.7117 2.15864 0
M  V30 19133 H 1826.12 5.73189 -0.112706 0
M  V30 19134 H 1824.52 5.93658 -0.876957 0
M  V30 19135 H 1825.59 4.63434 -1.42677 0
M  V30 19136 N 1826.93 0.320385 1.54309 0
M  V30 19137 C 1828.35 -0.0323699 1.59567 0
M  V30 19138 C 1828.55 -1.50754 1.33699 0
M  V30 19139 O 1827.6 -2.26308 1.11987 0
M  V30 19140 C 1828.92 0.383001 2.98251 0
M  V30 19141 C 1830.46 0.33339 3.11219 0
M  V30 19142 C 1830.94 0.723874 4.52243 0
M  V30 19143 N 1832.43 0.677156 4.58224 0
M  V30 19144 C 1833.17 0.951531 5.6545 0
M  V30 19145 N 1832.66 1.29288 6.8063 0
M  V30 19146 N 1834.45 0.877303 5.55211 0
M  V30 19147 H 1826.61 1.28155 1.69381 0
M  V30 19148 H 1828.87 0.520887 0.792074 0
M  V30 19149 H 1828.57 1.41067 3.22169 0
M  V30 19150 H 1828.45 -0.253601 3.76347 0
M  V30 19151 H 1830.84 -0.685063 2.87038 0
M  V30 19152 H 1830.92 1.00488 2.35236 0
M  V30 19153 H 1830.56 1.74023 4.77157 0
M  V30 19154 H 1830.49 0.0301039 5.26591 0
M  V30 19155 H 1832.98 0.425055 3.75502 0
M  V30 19156 H 1833.29 1.4877 7.58345 0
M  V30 19157 H 1831.64 1.33111 6.82134 0
M  V30 19158 H 1834.83 0.610144 4.64107 0
M  V30 19159 H 1835 1.09449 6.3869 0
M  V30 19160 N 1828.41 -1.57525 0.0484906 0
M  V30 19161 C 1829.63 -1.97309 -0.639062 0
M  V30 19162 C 1830.06 -0.925753 -1.63742 0
M  V30 19163 O 1829.42 0.111304 -1.80958 0
M  V30 19164 C 1829.47 -3.36168 -1.30475 0
M  V30 19165 O 1828.57 -3.33903 -2.42038 0
M  V30 19166 H 1827.91 -0.642824 -0.166351 0
M  V30 19167 H 1830.44 -2.0427 0.116095 0
M  V30 19168 H 1830.45 -3.72835 -1.65705 0
M  V30 19169 H 1829.13 -4.11933 -0.573057 0
M  V30 19170 H 1827.7 -3.08978 -2.08775 0
M  V30 19171 N 1829.89 0.224867 -1.55988 0
M  V30 19172 C 1831.11 0.970897 -1.83271 0
M  V30 19173 C 1831.54 1.77293 -0.628399 0
M  V30 19174 O 1830.9 1.76301 0.422804 0
M  V30 19175 C 1830.94 1.86686 -3.08514 0
M  V30 19176 O 1830.05 2.96174 -2.86975 0
M  V30 19177 H 1829.39 0.275093 -0.604334 0
M  V30 19178 H 1831.92 0.239183 -2.03197 0
M  V30 19179 H 1831.93 2.27731 -3.3853 0
M  V30 19180 H 1830.6 1.27733 -3.95799 0
M  V30 19181 H 1829.18 2.59099 -2.68183 0
M  V30 19182 N 1831.37 1.49742 0.491438 0
M  V30 19183 C 1832.61 1.60919 1.24405 0
M  V30 19184 C 1832.97 0.296423 1.90103 0
M  V30 19185 O 1832.26 -0.704127 1.78193 0
M  V30 19186 C 1832.45 2.71245 2.32725 0
M  V30 19187 C 1832.28 4.13123 1.77651 0
M  V30 19188 C 1831.05 4.79789 1.58526 0
M  V30 19189 C 1833.25 4.98042 1.28293 0
M  V30 19190 N 1831.23 6.05949 0.984807 0
M  V30 19191 C 1832.6 6.14759 0.804435 0
M  V30 19192 C 1834.66 4.83969 1.16956 0
M  V30 19193 C 1833.36 7.18952 0.223769 0
M  V30 19194 C 1835.39 5.88319 0.602855 0
M  V30 19195 C 1834.75 7.04271 0.134633 0
M  V30 19196 H 1830.85 0.643146 0.444845 0
M  V30 19197 H 1833.43 1.86785 0.549495 0
M  V30 19198 H 1831.6 2.47136 2.99631 0
M  V30 19199 H 1833.34 2.71891 2.99762 0
M  V30 19200 H 1830.09 4.36745 1.83169 0
M  V30 19201 H 1830.51 6.73334 0.703581 0
M  V30 19202 H 1835.16 3.94628 1.51753 0
M  V30 19203 H 1832.87 8.07985 -0.136447 0
M  V30 19204 H 1836.46 5.79491 0.517781 0
M  V30 19205 H 1835.34 7.83637 -0.297028 0
M  V30 19206 N 1832.84 -0.743177 1.38977 0
M  V30 19207 C 1833.79 -1.87846 1.37174 0
M  V30 19208 C 1834.79 -1.67454 0.256059 0
M  V30 19209 O 1835.99 -1.74895 0.425658 0
M  V30 19210 H 1832.37 -0.618206 0.428166 0
M  V30 19211 H 1834.34 -1.86483 2.32952 0
M  V30 19212 C 1833.09 -3.25443 1.22401 0
M  V30 19213 H 1832.41 -3.41727 2.07516 0
M  V30 19214 H 1833.85 -4.05095 1.25195 0
M  V30 19215 C 1832.31 -3.36831 -0.0682569 0
M  V30 19216 O 1832.84 -3.87964 -1.04147 0
M  V30 19217 N 1831.05 -2.90315 -0.128582 0
M  V30 19218 H 1830.59 -2.48893 0.664077 0
M  V30 19219 H 1830.55 -2.98315 -0.992762 0
M  V30 19220 N 1834.32 -1.24018 -0.972487 0
M  V30 19221 C 1835.57 -1.07861 -1.71738 0
M  V30 19222 C 1835.9 0.382399 -1.90398 0
M  V30 19223 O 1835.18 1.2828 -1.462 0
M  V30 19224 C 1835.46 -1.81357 -3.11098 0
M  V30 19225 C 1835.31 -3.35179 -2.99959 0
M  V30 19226 C 1836.63 -1.58242 -4.10667 0
M  V30 19227 H 1833.75 -0.393228 -0.623331 0
M  V30 19228 H 1836.39 -1.52625 -1.13162 0
M  V30 19229 H 1834.54 -1.43307 -3.61103 0
M  V30 19230 H 1836.21 -3.82798 -2.57416 0
M  V30 19231 H 1834.46 -3.63805 -2.3628 0
M  V30 19232 H 1835.13 -3.818 -3.98664 0
M  V30 19233 H 1837.6 -1.91332 -3.69501 0
M  V30 19234 H 1836.48 -2.1213 -5.06253 0
M  V30 19235 H 1836.74 -0.519567 -4.39036 0
M  V30 19236 N 1835.8 1.17245 -1.05316 0
M  V30 19237 C 1836.73 2.23491 -0.67631 0
M  V30 19238 C 1837.71 1.66937 0.326507 0
M  V30 19239 O 1838.9 1.93127 0.203823 0
M  V30 19240 C 1836.03 3.47262 -0.0515755 0
M  V30 19241 C 1834.98 4.16646 -0.97929 0
M  V30 19242 C 1834.31 5.34254 -0.218369 0
M  V30 19243 C 1835.61 4.68736 -2.30399 0
M  V30 19244 H 1837.3 2.55269 -1.56455 0
M  V30 19245 H 1834.85 1.22699 -0.753714 0
M  V30 19246 H 1836.8 4.20805 0.223865 0
M  V30 19247 H 1835.52 3.14755 0.871614 0
M  V30 19248 H 1834.18 3.45017 -1.23931 0
M  V30 19249 H 1833.83 4.97998 0.707624 0
M  V30 19250 H 1833.53 5.81615 -0.83654 0
M  V30 19251 H 1835.05 6.1058 0.0497574 0
M  V30 19252 H 1836.47 5.3391 -2.08837 0
M  V30 19253 H 1834.87 5.2668 -2.87625 0
M  V30 19254 H 1835.94 3.85477 -2.94169 0
M  V30 19255 N 1837.28 0.834353 1.33702 0
M  V30 19256 C 1838.56 0.350003 1.92443 0
M  V30 19257 C 1838.94 -1.1641 1.76102 0
M  V30 19258 O 1838.28 -1.97646 1.14666 0
M  V30 19259 C 1838.49 0.791928 3.39896 0
M  V30 19260 C 1839.84 0.797338 4.17046 0
M  V30 19261 O 1840.87 0.735242 3.48529 0
M  V30 19262 O 1839.72 0.880963 5.39353 0
M  V30 19263 H 1836.82 0.0981048 0.82116 0
M  V30 19264 H 1839.36 0.919905 1.42604 0
M  V30 19265 H 1838.14 1.83433 3.45641 0
M  V30 19266 H 1837.76 0.198349 3.97105 0
M  V30 19267 N 1838.76 -1.46125 0.590367 0
M  V30 19268 C 1840 -2.01947 0.0787256 0
M  V30 19269 C 1840.33 -1.4634 -1.28878 0
M  V30 19270 O 1839.6 -0.651011 -1.84767 0
M  V30 19271 H 1838.18 -0.746543 0.0261125 0
M  V30 19272 H 1840.84 -1.79136 0.767877 0
M  V30 19273 H 1839.93 -3.12096 0.0154914 0
M  V30 19274 N 1840.23 -0.328564 -1.54137 0
M  V30 19275 C 1841.48 0.272505 -2.00658 0
M  V30 19276 C 1841.81 1.51748 -1.21666 0
M  V30 19277 O 1841.06 1.93566 -0.288224 0
M  V30 19278 C 1841.36 0.646813 -3.51498 0
M  V30 19279 C 1841.03 -0.499561 -4.48124 0
M  V30 19280 C 1839.69 -0.8142 -4.74262 0
M  V30 19281 C 1842.04 -1.26936 -5.05506 0
M  V30 19282 C 1839.37 -1.90127 -5.55039 0
M  V30 19283 C 1841.72 -2.34656 -5.87469 0
M  V30 19284 C 1840.39 -2.66696 -6.11906 0
M  V30 19285 H 1839.66 0.0997168 -0.73426 0
M  V30 19286 H 1842.3 -0.453377 -1.86056 0
M  V30 19287 H 1840.61 1.45319 -3.63854 0
M  V30 19288 H 1842.31 1.12352 -3.84939 0
M  V30 19289 H 1838.9 -0.244255 -4.27903 0
M  V30 19290 H 1843.08 -1.03954 -4.85291 0
M  V30 19291 H 1838.34 -2.15392 -5.72203 0
M  V30 19292 H 1842.51 -2.94745 -6.3095 0
M  V30 19293 H 1840.14 -3.51058 -6.74287 0
M  V30 19294 N 1841.71 1.57497 -0.0568439 0
M  V30 19295 C 1842.64 2.14892 0.913427 0
M  V30 19296 C 1843.62 1.07205 1.32065 0
M  V30 19297 O 1844.81 1.35172 1.39435 0
M  V30 19298 C 1841.94 2.69849 2.18629 0
M  V30 19299 C 1840.89 3.8257 1.91896 0
M  V30 19300 C 1840.22 4.24068 3.25685 0
M  V30 19301 C 1841.52 5.07463 1.23606 0
M  V30 19302 H 1843.21 2.96218 0.435347 0
M  V30 19303 H 1840.76 1.4249 0.20796 0
M  V30 19304 H 1842.71 3.08643 2.86911 0
M  V30 19305 H 1841.44 1.85723 2.68653 0
M  V30 19306 H 1840.09 3.44258 1.26024 0
M  V30 19307 H 1839.74 3.36884 3.73521 0
M  V30 19308 H 1839.44 5.00043 3.08594 0
M  V30 19309 H 1840.97 4.65466 3.95189 0
M  V30 19310 H 1842.38 5.43667 1.81931 0
M  V30 19311 H 1840.78 5.88619 1.16823 0
M  V30 19312 H 1841.85 4.84432 0.212918 0
M  V30 19313 N 1843.19 -0.216591 1.56105 0
M  V30 19314 C 1844.44 -0.941642 1.79613 0
M  V30 19315 C 1844.77 -1.83789 0.627323 0
M  V30 19316 O 1844.04 -1.90886 -0.373195 0
M  V30 19317 C 1844.33 -1.77634 3.13238 0
M  V30 19318 C 1844.18 -0.906251 4.40576 0
M  V30 19319 C 1845.5 -2.75315 3.4335 0
M  V30 19320 H 1842.62 -0.340898 0.65342 0
M  V30 19321 H 1845.26 -0.210217 1.88833 0
M  V30 19322 H 1843.41 -2.39993 3.05509 0
M  V30 19323 H 1845.08 -0.299023 4.6033 0
M  V30 19324 H 1843.33 -0.211902 4.33282 0
M  V30 19325 H 1844 -1.52478 5.30523 0
M  V30 19326 H 1846.47 -2.23091 3.5124 0
M  V30 19327 H 1845.35 -3.30816 4.38009 0
M  V30 19328 H 1845.61 -3.53301 2.65765 0
M  V30 19329 N 1844.67 -1.5 -0.48349 0
M  V30 19330 C 1845.92 -1.60369 -1.23645 0
M  V30 19331 C 1846.24 -0.298319 -1.92199 0
M  V30 19332 O 1845.5 0.715001 -1.82171 0
M  V30 19333 C 1845.8 -2.72475 -2.31283 0
M  V30 19334 C 1845.46 -4.13384 -1.80068 0
M  V30 19335 C 1844.13 -4.51727 -1.65821 0
M  V30 19336 C 1846.48 -5.01501 -1.41937 0
M  V30 19337 C 1843.81 -5.7594 -1.11847 0
M  V30 19338 C 1846.16 -6.2625 -0.894093 0
M  V30 19339 C 1844.82 -6.63406 -0.738151 0
M  V30 19340 H 1844.09 -0.58683 -0.452451 0
M  V30 19341 H 1846.74 -1.83893 -0.534393 0
M  V30 19342 H 1845.04 -2.42991 -3.07348 0
M  V30 19343 H 1846.74 -2.77703 -2.89278 0
M  V30 19344 H 1843.33 -3.83128 -1.92122 0
M  V30 19345 H 1847.51 -4.7252 -1.51784 0
M  V30 19346 H 1842.77 -6.03413 -0.985001 0
M  V30 19347 H 1846.94 -6.93897 -0.589916 0
M  V30 19348 H 1844.57 -7.59536 -0.317755 0
M  V30 19349 N 1846.15 0.735796 -1.39369 0
M  V30 19350 C 1847.39 1.49756 -1.36752 0
M  V30 19351 C 1847.73 1.94165 0.036815 0
M  V30 19352 O 1847 1.66728 1.00159 0
M  V30 19353 C 1847.28 2.73779 -2.33916 0
M  V30 19354 C 1847.14 2.35394 -3.83288 0
M  V30 19355 C 1848.46 3.75875 -2.28924 0
M  V30 19356 H 1845.57 0.543236 -0.49806 0
M  V30 19357 H 1848.22 0.841381 -1.70355 0
M  V30 19358 H 1846.37 3.29768 -2.05391 0
M  V30 19359 H 1848.04 1.85043 -4.2256 0
M  V30 19360 H 1846.28 1.67632 -4.00102 0
M  V30 19361 H 1846.95 3.24206 -4.4676 0
M  V30 19362 H 1849.43 3.29469 -2.54144 0
M  V30 19363 H 1848.3 4.60321 -2.98991 0
M  V30 19364 H 1848.57 4.22739 -1.29399 0
M  V30 19365 N 1847.63 1.24532 0.965897 0
M  V30 19366 C 1848.85 1.11412 1.74934 0
M  V30 19367 C 1849.28 -0.329168 1.85197 0
M  V30 19368 O 1848.63 -1.23833 1.3242 0
M  V30 19369 C 1848.68 1.76068 3.14694 0
M  V30 19370 O 1847.79 1.03267 3.99261 0
M  V30 19371 H 1847.13 0.389633 0.537663 0
M  V30 19372 H 1849.66 1.64875 1.2115 0
M  V30 19373 H 1849.67 1.81897 3.65209 0
M  V30 19374 H 1848.34 2.8108 3.0654 0
M  V30 19375 H 1846.92 1.05236 3.57743 0
M  V30 19376 N 1849.1 -1.16685 1.05936 0
M  V30 19377 C 1850.35 -1.86466 0.768993 0
M  V30 19378 C 1850.67 -1.82374 -0.707038 0
M  V30 19379 O 1851.87 -2.47699 -1.11164 0
M  V30 19380 C 1850.33 -3.34605 1.32543 0
M  V30 19381 C 1849.94 -3.47179 2.83144 0
M  V30 19382 C 1851.68 -4.09665 1.11244 0
M  V30 19383 C 1849.59 -4.89384 3.3205 0
M  V30 19384 H 1848.52 -0.698479 0.283978 0
M  V30 19385 H 1851.17 -1.31717 1.27761 0
M  V30 19386 H 1849.55 -3.88937 0.744592 0
M  V30 19387 H 1850.72 -3.03027 3.47148 0
M  V30 19388 H 1849.04 -2.85549 3.03069 0
M  V30 19389 H 1851.64 -5.14586 1.45276 0
M  V30 19390 H 1851.98 -4.16269 0.0505969 0
M  V30 19391 H 1852.51 -3.61561 1.65887 0
M  V30 19392 H 1849.25 -4.87957 4.37697 0
M  V30 19393 H 1848.77 -5.34176 2.72793 0
M  V30 19394 H 1850.45 -5.58186 3.27166 0
M  V30 19395 N 1850.58 -0.841432 -1.33258 0
M  V30 19396 C 1851.83 -0.434677 -1.96961 0
M  V30 19397 C 1852.14 1.012 -1.67386 0
M  V30 19398 O 1853.35 1.52356 -2.24722 0
M  V30 19399 C 1851.81 -0.726332 -3.52495 0
M  V30 19400 C 1851.41 -2.18786 -3.90943 0
M  V30 19401 C 1853.16 -0.386652 -4.22735 0
M  V30 19402 C 1851.06 -2.42343 -5.39466 0
M  V30 19403 H 1849.99 -0.158809 -0.737086 0
M  V30 19404 H 1852.65 -1.03037 -1.51841 0
M  V30 19405 H 1851.03 -0.0602315 -3.95954 0
M  V30 19406 H 1852.2 -2.89465 -3.58534 0
M  V30 19407 H 1850.52 -2.49076 -3.33691 0
M  V30 19408 H 1853.11 -0.540249 -5.31964 0
M  V30 19409 H 1853.46 0.670595 -4.10863 0
M  V30 19410 H 1853.99 -1.00809 -3.84815 0
M  V30 19411 H 1850.73 -3.46642 -5.56345 0
M  V30 19412 H 1850.25 -1.76227 -5.73327 0
M  V30 19413 H 1851.93 -2.25625 -6.06385 0
M  V30 19414 N 1852.06 1.4581 -0.598108 0
M  V30 19415 C 1853.34 1.95588 -0.0220376 0
M  V30 19416 C 1853.72 1.54066 1.44316 0
M  V30 19417 O 1853.06 0.798663 2.14088 0
M  V30 19418 C 1853.27 3.48366 -0.210204 0
M  V30 19419 C 1854.62 4.24513 -0.0860474 0
M  V30 19420 O 1855.65 3.55925 -0.139833 0
M  V30 19421 O 1854.51 5.46488 0.0367961 0
M  V30 19422 H 1851.6 0.825977 0.0411123 0
M  V30 19423 H 1854.15 1.56021 -0.667506 0
M  V30 19424 H 1852.92 3.71526 -1.22818 0
M  V30 19425 H 1852.54 3.94801 0.470974 0
M  V30 19426 N 1853.54 0.336733 1.53961 0
M  V30 19427 C 1854.79 -0.262826 1.9998 0
M  V30 19428 C 1855.1 -1.52201 1.22858 0
M  V30 19429 O 1856.31 -2.19839 1.5932 0
M  V30 19430 C 1854.76 -0.518877 3.5614 0
M  V30 19431 C 1854.37 0.724019 4.42111 0
M  V30 19432 C 1856.11 -1.07767 4.10593 0
M  V30 19433 C 1854.02 0.439143 5.89767 0
M  V30 19434 H 1852.95 -0.101987 0.747071 0
M  V30 19435 H 1855.6 0.451004 1.77871 0
M  V30 19436 H 1853.98 -1.29323 3.74288 0
M  V30 19437 H 1855.16 1.49896 4.35738 0
M  V30 19438 H 1853.47 1.20396 3.98615 0
M  V30 19439 H 1856.07 -1.30564 5.18514 0
M  V30 19440 H 1856.41 -2.03111 3.63389 0
M  V30 19441 H 1856.95 -0.36418 3.96129 0
M  V30 19442 H 1853.68 1.36212 6.41192 0
M  V30 19443 H 1853.2 -0.297839 5.9906 0
M  V30 19444 H 1854.88 0.0538506 6.46978 0
M  V30 19445 N 1855.02 -1.57465 0.0651956 0
M  V30 19446 C 1856.26 -1.93524 -0.606325 0
M  V30 19447 C 1856.59 -0.944947 -1.6966 0
M  V30 19448 O 1855.87 0.0268871 -1.94481 0
M  V30 19449 C 1856.15 -3.3989 -1.18941 0
M  V30 19450 C 1856.01 -4.49675 -0.106235 0
M  V30 19451 C 1857.32 -3.86935 -2.09689 0
M  V30 19452 H 1854.44 -0.703729 -0.218939 0
M  V30 19453 H 1857.09 -1.89556 0.12982 0
M  V30 19454 H 1855.24 -3.43402 -1.81679 0
M  V30 19455 H 1856.91 -4.58286 0.526483 0
M  V30 19456 H 1855.15 -4.30118 0.563985 0
M  V30 19457 H 1855.82 -5.49208 -0.554488 0
M  V30 19458 H 1858.3 -3.85387 -1.56895 0
M  V30 19459 H 1857.17 -4.89972 -2.47424 0
M  V30 19460 H 1857.43 -3.24496 -3.00258 0
M  V30 19461 N 1856.49 0.20831 -1.56217 0
M  V30 19462 C 1857.74 0.932104 -1.8011 0
M  V30 19463 C 1858.07 1.83453 -0.637061 0
M  V30 19464 O 1857.35 1.91081 0.363066 0
M  V30 19465 C 1857.63 1.7597 -3.14176 0
M  V30 19466 C 1857.48 0.882874 -4.4105 0
M  V30 19467 C 1858.8 2.7349 -3.44806 0
M  V30 19468 H 1855.92 0.337428 -0.655218 0
M  V30 19469 H 1858.56 0.2002 -1.88942 0
M  V30 19470 H 1856.71 2.38369 -3.06778 0
M  V30 19471 H 1858.39 0.274607 -4.60482 0
M  V30 19472 H 1856.63 0.188921 -4.33388 0
M  V30 19473 H 1857.3 1.49662 -5.31324 0
M  V30 19474 H 1859.78 2.21225 -3.52418 0
M  V30 19475 H 1858.65 3.28489 -4.39757 0
M  V30 19476 H 1858.91 3.51887 -2.67635 0
M  V30 19477 N 1857.97 1.50255 0.475528 0
M  V30 19478 C 1859.2 1.65044 1.25599 0
M  V30 19479 C 1859.62 0.331736 1.85152 0
M  V30 19480 O 1858.98 -0.703863 1.67079 0
M  V30 19481 C 1859.03 2.7405 2.34369 0
M  V30 19482 O 1858.13 2.34994 3.38897 0
M  V30 19483 H 1857.47 0.551557 0.369704 0
M  V30 19484 H 1860 1.96603 0.566422 0
M  V30 19485 H 1860.01 2.96993 2.79749 0
M  V30 19486 H 1858.69 3.6976 1.90395 0
M  V30 19487 H 1857.26 2.22481 2.9926 0
M  V30 19488 N 1859.45 -0.728395 1.39758 0
M  V30 19489 C 1860.38 -1.85554 1.41747 0
M  V30 19490 C 1861.36 -1.6778 0.279972 0
M  V30 19491 O 1862.55 -1.88001 0.48675 0
M  V30 19492 C 1859.68 -3.23375 1.26671 0
M  V30 19493 C 1858.63 -3.55799 2.37889 0
M  V30 19494 C 1857.96 -4.92628 2.07899 0
M  V30 19495 C 1859.26 -3.58098 3.80215 0
M  V30 19496 H 1860.95 -1.84146 2.36073 0
M  V30 19497 H 1858.5 -0.884539 1.13631 0
M  V30 19498 H 1860.45 -4.01907 1.26682 0
M  V30 19499 H 1859.17 -3.25326 0.288159 0
M  V30 19500 H 1857.83 -2.796 2.37107 0
M  V30 19501 H 1857.48 -4.91166 1.08466 0
M  V30 19502 H 1857.18 -5.15288 2.82404 0
M  V30 19503 H 1858.7 -5.73509 2.09571 0
M  V30 19504 H 1860.12 -4.26694 3.82891 0
M  V30 19505 H 1858.51 -3.9228 4.54133 0
M  V30 19506 H 1859.58 -2.57758 4.10718 0
M  V30 19507 N 1860.93 -1.25042 -0.959279 0
M  V30 19508 C 1861.89 -1.05107 -2.03679 0
M  V30 19509 C 1862.89 -0.0054691 -1.60799 0
M  V30 19510 O 1864.08 -0.247225 -1.72437 0
M  V30 19511 C 1861.21 -0.594881 -3.35669 0
M  V30 19512 H 1862.41 -2.00753 -2.22796 0
M  V30 19513 H 1859.96 -1.07384 -1.13571 0
M  V30 19514 H 1860.69 0.364387 -3.22246 0
M  V30 19515 H 1860.48 -1.34966 -3.68139 0
M  V30 19516 H 1861.97 -0.476698 -4.1487 0
M  V30 19517 N 1862.41 1.16121 -1.06553 0
M  V30 19518 C 1863.63 1.91152 -0.804706 0
M  V30 19519 C 1864.06 1.77045 0.635338 0
M  V30 19520 O 1863.41 1.09757 1.44302 0
M  V30 19521 C 1863.46 3.39782 -1.20751 0
M  V30 19522 O 1862.57 4.1093 -0.347889 0
M  V30 19523 H 1861.91 0.595433 -0.293863 0
M  V30 19524 H 1864.44 1.47104 -1.42203 0
M  V30 19525 H 1864.45 3.90558 -1.1802 0
M  V30 19526 H 1863.12 3.49369 -2.25642 0
M  V30 19527 H 1861.7 3.70331 -0.436993 0
M  V30 19528 N 1863.88 0.848487 1.3281 0
M  V30 19529 C 1864.85 0.293744 2.2731 0
M  V30 19530 C 1865.85 -0.543043 1.51353 0
M  V30 19531 O 1867.04 -0.355443 1.70535 0
M  V30 19532 C 1864.17 -0.585094 3.35841 0
M  V30 19533 H 1865.36 1.12773 2.77889 0
M  V30 19534 H 1862.92 0.622329 1.43376 0
M  V30 19535 H 1863.65 -1.44114 2.9052 0
M  V30 19536 H 1863.44 0.0137777 3.92098 0
M  V30 19537 H 1864.93 -0.966203 4.06269 0
M  V30 19538 N 1865.36 -1.4549 0.605832 0
M  V30 19539 C 1866.61 -2.01852 0.10014 0
M  V30 19540 C 1866.93 -1.47699 -1.27319 0
M  V30 19541 O 1866.2 -0.670571 -1.84066 0
M  V30 19542 H 1864.78 -0.746225 0.0340291 0
M  V30 19543 H 1867.44 -1.78311 0.786834 0
M  V30 19544 H 1866.54 -3.12062 0.0485925 0
M  V30 19545 N 1866.84 -0.344893 -1.5378 0
M  V30 19546 C 1868.09 0.250711 -2.00539 0
M  V30 19547 C 1868.41 1.5096 -1.23435 0
M  V30 19548 O 1867.68 1.92893 -0.341893 0
M  V30 19549 H 1866.26 0.0956318 -0.740853 0
M  V30 19550 H 1868.92 -0.466361 -1.89238 0
M  V30 19551 H 1868.02 0.49222 -3.08194 0
M  V30 19552 N 1868.32 1.57428 -0.0735454 0
M  V30 19553 C 1869.28 2.11699 0.878419 0
M  V30 19554 C 1870.28 1.0414 1.22521 0
M  V30 19555 O 1871.47 1.30121 1.1582 0
M  V30 19556 C 1868.6 2.61979 2.18129 0
M  V30 19557 H 1869.8 2.97118 0.40755 0
M  V30 19558 H 1867.35 1.55315 0.175183 0
M  V30 19559 H 1868.08 1.80018 2.69748 0
M  V30 19560 H 1867.87 3.40599 1.94254 0
M  V30 19561 H 1869.36 3.04035 2.86273 0
M  V30 19562 N 1869.8 -0.200022 1.56326 0
M  V30 19563 C 1870.74 -1.24792 1.94154 0
M  V30 19564 C 1871.71 -1.45484 0.801474 0
M  V30 19565 O 1872.9 -1.58699 1.05921 0
M  V30 19566 C 1870.04 -2.5887 2.28211 0
M  V30 19567 C 1869.15 -2.45798 3.55257 0
M  V30 19568 C 1868.29 -3.72546 3.78659 0
M  V30 19569 C 1867.33 -3.54286 4.99147 0
M  V30 19570 N 1866.46 -4.73034 5.18829 0
M  V30 19571 H 1871.3 -0.918324 2.83497 0
M  V30 19572 H 1868.84 -0.442097 1.40299 0
M  V30 19573 H 1870.8 -3.36977 2.45972 0
M  V30 19574 H 1869.43 -2.89883 1.42014 0
M  V30 19575 H 1868.48 -1.59013 3.4557 0
M  V30 19576 H 1869.79 -2.28236 4.4352 0
M  V30 19577 H 1868.95 -4.59094 3.96633 0
M  V30 19578 H 1867.68 -3.93057 2.88717 0
M  V30 19579 H 1866.69 -2.66123 4.81102 0
M  V30 19580 H 1867.91 -3.35225 5.90594 0
M  V30 19581 H 1865.86 -4.93818 4.31834 0
M  V30 19582 H 1865.78 -4.58279 6.01262 0
M  V30 19583 H 1867.05 -5.60947 5.41257 0
M  V30 19584 N 1871.27 -1.50505 -0.467553 0
M  V30 19585 C 1872.52 -1.60911 -1.21617 0
M  V30 19586 C 1872.84 -0.31663 -1.9302 0
M  V30 19587 O 1874.04 -0.299645 -2.69841 0
M  V30 19588 C 1872.5 -2.84052 -2.21003 0
M  V30 19589 C 1872.11 -4.20189 -1.55386 0
M  V30 19590 C 1873.85 -3.03805 -2.96484 0
M  V30 19591 C 1871.76 -5.34514 -2.5308 0
M  V30 19592 H 1870.69 -0.59924 -0.457633 0
M  V30 19593 H 1873.34 -1.7694 -0.486276 0
M  V30 19594 H 1871.72 -2.6159 -2.97299 0
M  V30 19595 H 1872.89 -4.5292 -0.848552 0
M  V30 19596 H 1871.21 -4.0607 -0.921725 0
M  V30 19597 H 1873.81 -3.86387 -3.69606 0
M  V30 19598 H 1874.15 -2.15672 -3.56078 0
M  V30 19599 H 1874.68 -3.26465 -2.27301 0
M  V30 19600 H 1871.42 -6.24811 -1.9822 0
M  V30 19601 H 1870.94 -5.06197 -3.21752 0
M  V30 19602 H 1872.62 -5.65232 -3.14836 0
M  V30 19603 N 1872.75 0.720973 -1.40142 0
M  V30 19604 C 1873.68 1.84799 -1.42729 0
M  V30 19605 C 1874.66 1.67629 -0.288866 0
M  V30 19606 O 1875.85 1.8774 -0.496713 0
M  V30 19607 C 1872.98 3.22699 -1.28385 0
M  V30 19608 C 1871.93 3.54532 -2.39773 0
M  V30 19609 C 1871.26 4.91518 -2.10509 0
M  V30 19610 C 1872.56 3.56077 -3.82108 0
M  V30 19611 H 1874.25 1.82892 -2.37046 0
M  V30 19612 H 1871.8 0.8785 -1.14098 0
M  V30 19613 H 1873.75 4.0123 -1.28812 0
M  V30 19614 H 1872.48 3.25169 -0.305408 0
M  V30 19615 H 1871.13 2.78338 -2.38586 0
M  V30 19616 H 1870.78 4.90584 -1.11069 0
M  V30 19617 H 1870.48 5.13783 -2.85132 0
M  V30 19618 H 1872.01 5.72389 -2.1261 0
M  V30 19619 H 1873.42 4.24657 -3.85148 0
M  V30 19620 H 1871.82 3.89866 -4.56207 0
M  V30 19621 H 1872.89 2.55576 -4.12079 0
M  V30 19622 N 1874.23 1.25549 0.952634 0
M  V30 19623 C 1875.48 1.10198 1.69413 0
M  V30 19624 C 1875.8 -0.357345 1.91698 0
M  V30 19625 O 1875.07 -1.25345 1.5055 0
M  V30 19626 H 1873.65 0.404804 0.627808 0
M  V30 19627 H 1876.31 1.57703 1.14524 0
M  V30 19628 H 1875.41 1.61185 2.67256 0
M  V30 19629 N 1875.71 -1.15554 1.07168 0
M  V30 19630 C 1876.95 -1.86572 0.794894 0
M  V30 19631 C 1877.29 -1.82007 -0.677276 0
M  V30 19632 O 1876.56 -1.2419 -1.4969 0
M  V30 19633 C 1876.85 -3.35762 1.30137 0
M  V30 19634 C 1876.7 -3.4897 2.83796 0
M  V30 19635 C 1878.02 -4.30453 0.916402 0
M  V30 19636 H 1875.14 -0.677448 0.29023 0
M  V30 19637 H 1877.78 -1.35772 1.32914 0
M  V30 19638 H 1875.93 -3.79156 0.846915 0
M  V30 19639 H 1877.6 -3.14452 3.37517 0
M  V30 19640 H 1875.84 -2.9059 3.22087 0
M  V30 19641 H 1876.51 -4.53782 3.14302 0
M  V30 19642 H 1878.99 -3.95008 1.30797 0
M  V30 19643 H 1877.87 -5.33329 1.29814 0
M  V30 19644 H 1878.13 -4.41742 -0.17785 0
M  V30 19645 N 1877.19 -0.855519 -1.32358 0
M  V30 19646 C 1878.12 -0.316159 -2.3135 0
M  V30 19647 C 1879.1 0.585159 -1.59718 0
M  V30 19648 O 1880.28 0.505221 -1.87513 0
M  V30 19649 C 1877.41 0.495577 -3.43746 0
M  V30 19650 C 1876.37 -0.311382 -4.26866 0
M  V30 19651 C 1875.69 0.625144 -5.31033 0
M  V30 19652 C 1876.99 -1.5376 -4.99154 0
M  V30 19653 H 1878.69 -1.14331 -2.7671 0
M  V30 19654 H 1876.23 -0.551221 -1.33032 0
M  V30 19655 H 1878.19 0.883325 -4.12038 0
M  V30 19656 H 1876.91 1.3561 -2.97115 0
M  V30 19657 H 1875.57 -0.680895 -3.60221 0
M  V30 19658 H 1875.22 1.48254 -4.80656 0
M  V30 19659 H 1874.92 0.0892112 -5.87532 0
M  V30 19660 H 1876.44 1.01005 -6.02188 0
M  V30 19661 H 1877.86 -1.2221 -5.60123 0
M  V30 19662 H 1876.25 -2.01153 -5.65382 0
M  V30 19663 H 1877.32 -2.29838 -4.26969 0
M  V30 19664 N 1878.67 1.45167 -0.61354 0
M  V30 19665 C 1880.08 1.57166 -0.277678 0
M  V30 19666 C 1880.28 1.60395 1.21965 0
M  V30 19667 O 1879.34 1.53747 2.00295 0
M  V30 19668 C 1880.65 2.85162 -0.9541 0
M  V30 19669 C 1882.2 2.98847 -0.930579 0
M  V30 19670 C 1882.67 4.29621 -1.58712 0
M  V30 19671 N 1884.16 4.36394 -1.55289 0
M  V30 19672 C 1884.9 5.36264 -2.02999 0
M  V30 19673 N 1884.4 6.42638 -2.58821 0
M  V30 19674 N 1886.19 5.27659 -1.93732 0
M  V30 19675 H 1878.34 1.41314 -1.58569 0
M  V30 19676 H 1880.6 0.676027 -0.664598 0
M  V30 19677 H 1880.31 2.88698 -2.00864 0
M  V30 19678 H 1880.18 3.7412 -0.481025 0
M  V30 19679 H 1882.57 2.94874 0.115433 0
M  V30 19680 H 1882.65 2.11283 -1.44198 0
M  V30 19681 H 1882.29 4.34352 -2.6325 0
M  V30 19682 H 1882.22 5.16011 -1.0507 0
M  V30 19683 H 1884.72 3.60131 -1.14516 0
M  V30 19684 H 1885.03 7.151 -2.93004 0
M  V30 19685 H 1883.37 6.43372 -2.62863 0
M  V30 19686 H 1886.56 4.43465 -1.49856 0
M  V30 19687 H 1886.74 6.05341 -2.31227 0
M  V30 19688 N 1880.14 0.353044 1.53595 0
M  V30 19689 C 1881.39 -0.240904 2.01364 0
M  V30 19690 C 1881.72 -1.49438 1.24023 0
M  V30 19691 O 1881 -1.91672 0.330451 0
M  V30 19692 C 1881.28 -0.545497 3.55944 0
M  V30 19693 C 1881.13 0.720742 4.43988 0
M  V30 19694 C 1882.45 -1.35124 4.18843 0
M  V30 19695 H 1879.57 -0.0860838 0.731955 0
M  V30 19696 H 1882.21 0.475459 1.83955 0
M  V30 19697 H 1880.36 -1.15578 3.7091 0
M  V30 19698 H 1882.04 1.35852 4.40842 0
M  V30 19699 H 1880.28 1.34369 4.12465 0
M  V30 19700 H 1880.95 0.462749 5.50057 0
M  V30 19701 H 1883.43 -0.835104 4.07634 0
M  V30 19702 H 1882.3 -1.53311 5.27055 0
M  V30 19703 H 1882.56 -2.35612 3.74085 0
M  V30 19704 N 1881.62 -1.57387 0.0818932 0
M  V30 19705 C 1882.55 -2.16318 -0.879124 0
M  V30 19706 C 1883.53 -1.09293 -1.30342 0
M  V30 19707 O 1884.72 -1.37373 -1.37267 0
M  V30 19708 C 1881.85 -2.73293 -2.14308 0
M  V30 19709 C 1880.8 -3.85575 -1.85785 0
M  V30 19710 C 1880.13 -4.29195 -3.18897 0
M  V30 19711 C 1881.43 -5.09365 -1.15517 0
M  V30 19712 H 1883.12 -2.96873 -0.388166 0
M  V30 19713 H 1880.67 -1.42803 -0.185265 0
M  V30 19714 H 1882.62 -3.13168 -2.81964 0
M  V30 19715 H 1881.34 -1.89974 -2.65664 0
M  V30 19716 H 1880 -3.46219 -1.20532 0
M  V30 19717 H 1879.65 -3.42784 -3.68114 0
M  V30 19718 H 1879.35 -5.04889 -3.006 0
M  V30 19719 H 1880.88 -4.71694 -3.87734 0
M  V30 19720 H 1882.29 -5.46493 -1.73259 0
M  V30 19721 H 1880.69 -5.90403 -1.07444 0
M  V30 19722 H 1881.76 -4.8471 -0.135822 0
M  V30 19723 N 1883.1 0.191729 -1.56429 0
M  V30 19724 C 1884.52 0.542701 -1.5009 0
M  V30 19725 C 1884.72 1.85685 -0.782522 0
M  V30 19726 O 1883.77 2.50275 -0.334432 0
M  V30 19727 C 1885.08 0.594326 -2.94768 0
M  V30 19728 C 1886.63 0.682929 -3.05459 0
M  V30 19729 C 1887.11 0.765634 -4.51555 0
M  V30 19730 N 1888.6 0.829072 -4.5572 0
M  V30 19731 C 1889.33 0.91329 -5.6608 0
M  V30 19732 N 1888.83 0.959603 -6.86122 0
M  V30 19733 N 1890.62 0.950739 -5.54001 0
M  V30 19734 H 1882.77 -0.670241 -2.01548 0
M  V30 19735 H 1885.04 -0.239168 -0.917335 0
M  V30 19736 H 1884.74 -0.302238 -3.50399 0
M  V30 19737 H 1884.62 1.44787 -3.48305 0
M  V30 19738 H 1887 1.56992 -2.49875 0
M  V30 19739 H 1887.08 -0.19688 -2.55041 0
M  V30 19740 H 1886.73 -0.117022 -5.07765 0
M  V30 19741 H 1886.66 1.66129 -4.99709 0
M  V30 19742 H 1889.15 0.802391 -3.69283 0
M  V30 19743 H 1889.46 1.02447 -7.65979 0
M  V30 19744 H 1887.81 0.928223 -6.88774 0
M  V30 19745 H 1891 0.911418 -4.59141 0
M  V30 19746 H 1891.17 1.01291 -6.40034 0
M  V30 19747 N 1884.58 1.50751 0.459565 0
M  V30 19748 C 1885.51 1.73389 1.56392 0
M  V30 19749 C 1886.49 0.583101 1.59793 0
M  V30 19750 O 1887.67 0.823474 1.75876 0
M  V30 19751 C 1884.8 1.83861 2.94639 0
M  V30 19752 C 1883.76 2.9914 3.06103 0
M  V30 19753 C 1883.08 2.94768 4.46112 0
M  V30 19754 C 1884.38 4.39471 2.82246 0
M  V30 19755 H 1886.08 2.65856 1.37699 0
M  V30 19756 H 1883.62 1.27933 0.661001 0
M  V30 19757 H 1885.58 1.98283 3.71836 0
M  V30 19758 H 1884.3 0.880254 3.14514 0
M  V30 19759 H 1882.96 2.84388 2.31342 0
M  V30 19760 H 1882.61 1.96755 4.62922 0
M  V30 19761 H 1882.31 3.72166 4.54716 0
M  V30 19762 H 1883.83 3.11254 5.25313 0
M  V30 19763 H 1885.25 4.54689 3.49186 0
M  V30 19764 H 1883.64 5.18406 3.02283 0
M  V30 19765 H 1884.71 4.51043 1.78012 0
M  V30 19766 N 1886.06 -0.713531 1.40522 0
M  V30 19767 C 1886.99 -1.8404 1.43707 0
M  V30 19768 C 1887.97 -1.67474 0.297751 0
M  V30 19769 O 1889.15 -1.87474 0.506662 0
M  V30 19770 C 1886.28 -3.22014 1.30094 0
M  V30 19771 C 1885.24 -3.53255 2.4165 0
M  V30 19772 C 1884.56 -4.90395 2.13113 0
M  V30 19773 C 1885.86 -3.54045 3.83991 0
M  V30 19774 H 1887.56 -1.81632 2.38013 0
M  V30 19775 H 1885.1 -0.872437 1.14562 0
M  V30 19776 H 1887.05 -4.00541 1.30938 0
M  V30 19777 H 1885.78 -3.25002 0.322648 0
M  V30 19778 H 1884.44 -2.77069 2.40059 0
M  V30 19779 H 1884.09 -4.89988 1.13669 0
M  V30 19780 H 1883.79 -5.12264 2.87853 0
M  V30 19781 H 1885.31 -5.71254 2.15642 0
M  V30 19782 H 1886.72 -4.22609 3.87395 0
M  V30 19783 H 1885.12 -3.87441 4.58268 0
M  V30 19784 H 1886.19 -2.53387 4.13428 0
M  V30 19785 N 1887.53 -1.26053 -0.945962 0
M  V30 19786 C 1888.95 -1.03062 -1.21862 0
M  V30 19787 C 1889.15 0.247205 -1.99978 0
M  V30 19788 O 1888.21 0.957622 -2.33636 0
M  V30 19789 C 1889.52 -2.25912 -1.98455 0
M  V30 19790 C 1891.07 -2.30763 -2.11465 0
M  V30 19791 C 1891.54 -3.53292 -2.91459 0
M  V30 19792 N 1893.03 -3.53741 -2.99035 0
M  V30 19793 C 1893.77 -4.45215 -3.61347 0
M  V30 19794 N 1893.26 -5.46971 -4.25199 0
M  V30 19795 N 1895.06 -4.32877 -3.58572 0
M  V30 19796 H 1887.21 -2.08133 -0.423615 0
M  V30 19797 H 1889.47 -0.914462 -0.249926 0
M  V30 19798 H 1889.18 -3.18829 -1.48462 0
M  V30 19799 H 1889.05 -2.29777 -2.99136 0
M  V30 19800 H 1891.44 -1.38363 -2.60653 0
M  V30 19801 H 1891.52 -2.30911 -1.10062 0
M  V30 19802 H 1891.16 -4.46019 -2.4296 0
M  V30 19803 H 1891.09 -3.50391 -3.93108 0
M  V30 19804 H 1893.58 -2.80138 -2.53636 0
M  V30 19805 H 1893.9 -6.12967 -4.70629 0
M  V30 19806 H 1892.24 -5.50834 -4.238 0
M  V30 19807 H 1895.43 -3.52602 -3.07879 0
M  V30 19808 H 1895.61 -5.0436 -4.06847 0
M  V30 19809 N 1889.01 1.14984 -1.07779 0
M  V30 19810 C 1890.24 1.89747 -0.824844 0
M  V30 19811 C 1890.65 1.78246 0.622385 0
M  V30 19812 O 1890.01 1.13739 1.42723 0
M  V30 19813 C 1890.06 3.39946 -1.2296 0
M  V30 19814 O 1889.78 3.5112 -2.62005 0
M  V30 19815 C 1891.28 4.31721 -1.00658 0
M  V30 19816 H 1888.5 0.601232 -0.297928 0
M  V30 19817 H 1891.05 1.4566 -1.43539 0
M  V30 19818 H 1889.2 3.81679 -0.663292 0
M  V30 19819 H 1889.62 4.44367 -2.78636 0
M  V30 19820 H 1891.09 5.35507 -1.33925 0
M  V30 19821 H 1891.57 4.39163 0.0568131 0
M  V30 19822 H 1892.17 3.95735 -1.55801 0
M  V30 19823 N 1890.49 0.862526 1.31902 0
M  V30 19824 C 1891.42 0.328423 2.31179 0
M  V30 19825 C 1892.4 -0.57668 1.60026 0
M  V30 19826 O 1893.59 -0.49527 1.87778 0
M  V30 19827 C 1890.72 -0.47734 3.44004 0
M  V30 19828 C 1889.67 0.334015 4.26695 0
M  V30 19829 C 1889 -0.596973 5.31357 0
M  V30 19830 C 1890.3 1.56405 4.98332 0
M  V30 19831 H 1891.99 1.15797 2.761 0
M  V30 19832 H 1889.54 0.558268 1.32738 0
M  V30 19833 H 1891.49 -0.861461 4.12501 0
M  V30 19834 H 1890.21 -1.34033 2.9783 0
M  V30 19835 H 1888.87 0.699989 3.59855 0
M  V30 19836 H 1888.52 -1.45703 4.81435 0
M  V30 19837 H 1888.22 -0.0580517 5.87571 0
M  V30 19838 H 1889.74 -0.978099 6.02715 0
M  V30 19839 H 1891.16 1.25178 5.59467 0
M  V30 19840 H 1889.55 2.04149 5.64308 0
M  V30 19841 H 1890.62 2.32099 4.25744 0
M  V30 19842 N 1891.97 -1.4484 0.62123 0
M  V30 19843 C 1893.38 -1.57016 0.286009 0
M  V30 19844 C 1893.58 -1.6104 -1.21113 0
M  V30 19845 O 1892.64 -1.54807 -1.99477 0
M  V30 19846 C 1893.95 -2.84652 0.969209 0
M  V30 19847 C 1895.5 -2.98349 0.946414 0
M  V30 19848 C 1895.98 -4.28773 1.60989 0
M  V30 19849 N 1897.47 -4.35564 1.57601 0
M  V30 19850 C 1898.2 -5.3518 2.0584 0
M  V30 19851 N 1897.7 -6.41256 2.62226 0
M  V30 19852 N 1899.49 -5.26625 1.96527 0
M  V30 19853 H 1891.64 -1.40471 1.59316 0
M  V30 19854 H 1893.91 -0.672493 0.668174 0
M  V30 19855 H 1893.61 -2.87629 2.02392 0
M  V30 19856 H 1893.49 -3.7386 0.500859 0
M  V30 19857 H 1895.87 -2.94931 -0.0997935 0
M  V30 19858 H 1895.95 -2.10516 1.45316 0
M  V30 19859 H 1895.6 -4.3295 2.65549 0
M  V30 19860 H 1895.53 -5.15447 1.07805 0
M  V30 19861 H 1898.02 -3.59519 1.16424 0
M  V30 19862 H 1898.33 -7.13536 2.96792 0
M  V30 19863 H 1896.68 -6.41969 2.66272 0
M  V30 19864 H 1899.87 -4.42664 1.52206 0
M  V30 19865 H 1900.04 -6.04107 2.34434 0
M  V30 19866 N 1893.45 -0.361184 -1.53405 0
M  V30 19867 C 1894.86 0.118972 -1.86321 0
M  V30 19868 C 1895.21 1.48531 -1.28191 0
M  V30 19869 O 1894.33 2.07851 -0.602253 0
M  V30 19870 C 1894.93 0.222658 -3.38068 0
M  V30 19871 C 1893.49 0.647065 -3.70796 0
M  V30 19872 C 1892.63 -0.208424 -2.76516 0
M  V30 19873 H 1895.59 -0.580142 -1.47716 0
M  V30 19874 H 1895.61 1.04702 -3.65811 0
M  V30 19875 H 1895.12 -0.771922 -3.80346 0
M  V30 19876 H 1893.22 1.65003 -3.34073 0
M  V30 19877 H 1893.33 0.424724 -4.77214 0
M  V30 19878 H 1891.7 0.322011 -2.52656 0
M  V30 19879 H 1892.48 -1.20046 -3.21627 0
M  V30 19880 N 1894.92 1.57341 -0.0902386 0
M  V30 19881 C 1895.85 2.16782 0.86764 0
M  V30 19882 C 1896.84 1.09982 1.29761 0
M  V30 19883 O 1898.02 1.38099 1.36537 0
M  V30 19884 C 1895.15 2.74426 2.12856 0
M  V30 19885 C 1894.1 3.86555 1.83738 0
M  V30 19886 C 1893.43 4.3088 3.16617 0
M  V30 19887 C 1894.73 5.09971 1.12814 0
M  V30 19888 H 1896.42 2.97075 0.372417 0
M  V30 19889 H 1893.97 1.42899 0.177689 0
M  V30 19890 H 1895.92 3.14659 2.80299 0
M  V30 19891 H 1894.65 1.9138 2.64653 0
M  V30 19892 H 1893.31 3.46853 1.18694 0
M  V30 19893 H 1892.95 3.44732 3.66291 0
M  V30 19894 H 1892.65 5.06477 2.97918 0
M  V30 19895 H 1894.18 4.73743 3.85227 0
M  V30 19896 H 1895.59 5.47404 1.70358 0
M  V30 19897 H 1893.99 5.90965 1.04311 0
M  V30 19898 H 1895.06 4.84775 0.110114 0
M  V30 19899 N 1896.4 -0.183431 1.56529 0
M  V30 19900 C 1897.82 -0.534734 1.50375 0
M  V30 19901 C 1898.02 -1.85267 0.792359 0
M  V30 19902 O 1897.07 -2.50095 0.3477 0
M  V30 19903 C 1898.39 -0.578686 2.95079 0
M  V30 19904 C 1899.94 -0.66672 3.05817 0
M  V30 19905 C 1900.41 -0.741676 4.51955 0
M  V30 19906 N 1901.9 -0.804892 4.56153 0
M  V30 19907 C 1902.64 -0.883257 5.66556 0
M  V30 19908 N 1902.13 -0.923203 6.86621 0
M  V30 19909 N 1903.93 -0.921346 5.54498 0
M  V30 19910 H 1896.08 0.68092 2.0119 0
M  V30 19911 H 1898.34 0.244029 0.916053 0
M  V30 19912 H 1898.05 0.320816 3.50234 0
M  V30 19913 H 1897.92 -1.42937 3.49068 0
M  V30 19914 H 1900.31 -1.55665 2.50704 0
M  V30 19915 H 1900.39 0.210402 2.54933 0
M  V30 19916 H 1900.03 0.143948 5.07696 0
M  V30 19917 H 1899.96 -1.63477 5.00583 0
M  V30 19918 H 1902.45 -0.782796 3.69704 0
M  V30 19919 H 1902.77 -0.983835 7.66512 0
M  V30 19920 H 1901.11 -0.891683 6.89256 0
M  V30 19921 H 1904.3 -0.887056 4.59618 0
M  V30 19922 H 1904.47 -0.978957 6.40563 0
M  V30 19923 N 1897.88 -1.50992 -0.451564 0
M  V30 19924 C 1899.13 -1.63197 -1.20394 0
M  V30 19925 C 1899.46 -0.340409 -1.91193 0
M  V30 19926 O 1898.73 0.65926 -1.82986 0
M  V30 19927 C 1899.02 -2.82567 -2.23221 0
M  V30 19928 C 1898.87 -4.2166 -1.56598 0
M  V30 19929 C 1900.19 -2.97468 -3.24347 0
M  V30 19930 H 1897.31 -0.59395 -0.43634 0
M  V30 19931 H 1899.95 -1.83437 -0.495056 0
M  V30 19932 H 1898.1 -2.65441 -2.83678 0
M  V30 19933 H 1899.77 -4.50422 -0.995877 0
M  V30 19934 H 1898.02 -4.25015 -0.86862 0
M  V30 19935 H 1898.69 -5.0115 -2.31415 0
M  V30 19936 H 1901.16 -3.13211 -2.73931 0
M  V30 19937 H 1900.04 -3.82581 -3.93603 0
M  V30 19938 H 1900.3 -2.08921 -3.89621 0
M  V30 19939 N 1899.36 0.706069 -1.40899 0
M  V30 19940 C 1900.61 1.46164 -1.38993 0
M  V30 19941 C 1900.92 1.956 0.00145788 0
M  V30 19942 O 1902.13 2.71122 0.143137 0
M  V30 19943 C 1900.58 2.64252 -2.44334 0
M  V30 19944 C 1900.19 2.21646 -3.89329 0
M  V30 19945 C 1901.93 3.41941 -2.51549 0
M  V30 19946 C 1899.84 3.36629 -4.86245 0
M  V30 19947 H 1898.77 0.548985 -0.516847 0
M  V30 19948 H 1901.42 0.767528 -1.66677 0
M  V30 19949 H 1899.8 3.3588 -2.09764 0
M  V30 19950 H 1900.98 1.57376 -4.33093 0
M  V30 19951 H 1899.29 1.56978 -3.85677 0
M  V30 19952 H 1901.89 4.27518 -3.21142 0
M  V30 19953 H 1902.23 3.86409 -1.54899 0
M  V30 19954 H 1902.77 2.77363 -2.85158 0
M  V30 19955 H 1899.51 2.97183 -5.84262 0
M  V30 19956 H 1899.03 3.99784 -4.47139 0
M  V30 19957 H 1900.7 4.02559 -5.06513 0
M  V30 19958 N 1900.84 1.26553 0.939264 0
M  V30 19959 C 1902.06 1.15098 1.72532 0
M  V30 19960 C 1902.49 -0.289811 1.85854 0
M  V30 19961 O 1901.84 -1.20997 1.35017 0
M  V30 19962 C 1901.89 1.82703 3.10889 0
M  V30 19963 O 1901 1.11712 3.96981 0
M  V30 19964 H 1900.34 0.40095 0.529278 0
M  V30 19965 H 1902.87 1.67408 1.17625 0
M  V30 19966 H 1902.88 1.89603 3.61268 0
M  V30 19967 H 1901.55 2.87519 3.00509 0
M  V30 19968 H 1900.13 1.12801 3.5543 0
M  V30 19969 N 1902.31 -1.14411 1.08387 0
M  V30 19970 C 1903.73 -1.37432 0.811464 0
M  V30 19971 C 1903.93 -1.92992 -0.579345 0
M  V30 19972 O 1902.99 -2.14249 -1.33618 0
M  V30 19973 C 1904.3 -2.33557 1.89398 0
M  V30 19974 C 1905.85 -2.47197 1.91996 0
M  V30 19975 C 1906.32 -3.46622 2.99361 0
M  V30 19976 N 1907.81 -3.54165 2.98532 0
M  V30 19977 C 1908.55 -4.30946 3.78249 0
M  V30 19978 N 1908.04 -5.10972 4.67846 0
M  V30 19979 N 1909.84 -4.26141 3.66552 0
M  V30 19980 H 1901.99 -0.76694 1.9807 0
M  V30 19981 H 1904.25 -0.399866 0.859541 0
M  V30 19982 H 1903.96 -1.99868 2.89388 0
M  V30 19983 H 1903.83 -3.33459 1.7631 0
M  V30 19984 H 1906.22 -2.80178 0.926513 0
M  V30 19985 H 1906.3 -1.47258 2.09162 0
M  V30 19986 H 1905.94 -3.14374 3.98913 0
M  V30 19987 H 1905.87 -4.46341 2.7944 0
M  V30 19988 H 1908.36 -2.97057 2.33593 0
M  V30 19989 H 1908.68 -5.66834 5.2528 0
M  V30 19990 H 1907.02 -5.10241 4.71889 0
M  V30 19991 H 1910.21 -3.62693 2.95925 0
M  V30 19992 H 1910.39 -4.85729 4.28919 0
M  V30 19993 N 1903.79 -0.869509 -1.31443 0
M  V30 19994 C 1904.76 -0.329869 -2.26814 0
M  V30 19995 C 1905.76 0.518895 -1.52198 0
M  V30 19996 O 1906.95 0.328267 -1.71079 0
M  V30 19997 C 1904.08 0.53159 -3.3673 0
M  V30 19998 H 1905.27 -1.1718 -2.7606 0
M  V30 19999 H 1902.82 -0.645061 -1.42368 0
M  V30 20000 H 1903.56 1.39473 -2.92776 0
M  V30 20001 H 1903.34 -0.0761553 -3.92026 0
M  V30 20002 H 1904.83 0.901447 -4.07754 0
M  V30 20003 N 1905.27 1.44508 -0.628902 0
M  V30 20004 C 1906.68 1.85457 -0.215122 0
M  V30 20005 C 1907.03 1.52619 1.23296 0
M  V30 20006 O 1906.16 0.963178 1.93783 0
M  V30 20007 C 1906.75 3.36621 -0.383645 0
M  V30 20008 C 1905.31 3.76392 -0.0243904 0
M  V30 20009 C 1904.46 2.68369 -0.698081 0
M  V30 20010 H 1907.41 1.35006 -0.834208 0
M  V30 20011 H 1907.43 3.78617 0.378049 0
M  V30 20012 H 1906.94 3.6049 -1.43767 0
M  V30 20013 H 1905.04 3.58139 1.02798 0
M  V30 20014 H 1905.16 4.7714 -0.432898 0
M  V30 20015 H 1903.52 2.54349 -0.133605 0
M  V30 20016 H 1904.3 2.95071 -1.75465 0
M  V30 20017 N 1906.75 0.369315 1.53212 0
M  V30 20018 C 1908 -0.218776 2.00912 0
M  V30 20019 C 1908.32 -1.48977 1.25821 0
M  V30 20020 O 1907.59 -1.92325 0.372538 0
M  V30 20021 H 1906.17 -0.0838334 0.742281 0
M  V30 20022 H 1908.83 0.496408 1.88472 0
M  V30 20023 H 1907.93 -0.443127 3.08938 0
M  V30 20024 N 1908.23 -1.57291 0.0985816 0
M  V30 20025 C 1909.16 -2.17239 -0.856131 0
M  V30 20026 C 1910.14 -1.10669 -1.29176 0
M  V30 20027 O 1911.32 -1.38821 -1.35803 0
M  V30 20028 C 1908.45 -2.75551 -2.11398 0
M  V30 20029 C 1907.41 -3.87524 -1.81685 0
M  V30 20030 C 1906.73 -4.32553 -3.14327 0
M  V30 20031 C 1908.03 -5.10562 -1.10108 0
M  V30 20032 H 1909.73 -2.97268 -0.356657 0
M  V30 20033 H 1907.27 -1.42992 -0.170108 0
M  V30 20034 H 1909.23 -3.16141 -2.78627 0
M  V30 20035 H 1907.95 -1.92781 -2.63634 0
M  V30 20036 H 1906.61 -3.47478 -1.16853 0
M  V30 20037 H 1906.26 -3.46669 -3.64458 0
M  V30 20038 H 1905.96 -5.08049 -2.95228 0
M  V30 20039 H 1907.48 -4.7578 -3.82709 0
M  V30 20040 H 1908.9 -5.483 -1.67453 0
M  V30 20041 H 1907.29 -5.91509 -1.01176 0
M  V30 20042 H 1908.36 -4.84827 -0.0844041 0
M  V30 20043 N 1909.71 0.175127 -1.56624 0
M  V30 20044 C 1910.65 1.21687 -1.96114 0
M  V30 20045 C 1911.62 1.44191 -0.824518 0
M  V30 20046 O 1912.81 1.56994 -1.08433 0
M  V30 20047 C 1909.95 2.55207 -2.323 0
M  V30 20048 C 1909.06 2.40115 -3.59122 0
M  V30 20049 C 1908.2 3.66475 -3.84538 0
M  V30 20050 C 1907.23 3.463 -5.04721 0
M  V30 20051 N 1906.37 4.6472 -5.26288 0
M  V30 20052 H 1911.21 0.873106 -2.84923 0
M  V30 20053 H 1908.75 0.419721 -1.40985 0
M  V30 20054 H 1910.71 3.33022 -2.51302 0
M  V30 20055 H 1909.34 2.87587 -1.46607 0
M  V30 20056 H 1908.39 1.53496 -3.48056 0
M  V30 20057 H 1909.7 2.21151 -4.47095 0
M  V30 20058 H 1908.85 4.52726 -4.03886 0
M  V30 20059 H 1907.59 3.88414 -2.94934 0
M  V30 20060 H 1906.6 2.58435 -4.85274 0
M  V30 20061 H 1907.82 3.25787 -5.95852 0
M  V30 20062 H 1905.77 4.86885 -4.39635 0
M  V30 20063 H 1905.69 4.48656 -6.08477 0
M  V30 20064 H 1906.95 5.52265 -5.50112 0
M  V30 20065 N 1911.18 1.5123 0.44355 0
M  V30 20066 C 1912.11 1.75038 1.54544 0
M  V30 20067 C 1913.09 0.600017 1.59166 0
M  V30 20068 O 1914.28 0.842082 1.74993 0
M  V30 20069 C 1911.41 1.86976 2.92673 0
M  V30 20070 C 1910.36 3.0237 3.02913 0
M  V30 20071 C 1909.69 2.99483 4.4296 0
M  V30 20072 C 1910.99 4.4244 2.77569 0
M  V30 20073 H 1912.68 2.67301 1.34872 0
M  V30 20074 H 1910.23 1.28627 0.647395 0
M  V30 20075 H 1912.18 2.02215 3.69712 0
M  V30 20076 H 1910.91 0.913563 3.13563 0
M  V30 20077 H 1909.57 2.86826 2.28312 0
M  V30 20078 H 1909.21 2.01654 4.60809 0
M  V30 20079 H 1908.91 3.76968 4.50743 0
M  V30 20080 H 1910.44 3.16808 5.21982 0
M  V30 20081 H 1911.85 4.58367 3.44344 0
M  V30 20082 H 1910.25 5.21583 2.96768 0
M  V30 20083 H 1911.32 4.52906 1.73218 0
M  V30 20084 N 1912.66 -0.698586 1.41271 0
M  V30 20085 C 1913.91 -1.46077 1.40674 0
M  V30 20086 C 1914.24 -1.94194 0.0146774 0
M  V30 20087 O 1913.52 -1.69325 -0.957036 0
M  V30 20088 C 1913.8 -2.67481 2.41093 0
M  V30 20089 C 1913.65 -2.25149 3.89394 0
M  V30 20090 C 1914.97 -3.69673 2.38809 0
M  V30 20091 H 1912.09 -0.529839 0.512288 0
M  V30 20092 H 1914.73 -0.795918 1.72526 0
M  V30 20093 H 1912.88 -3.24206 2.14062 0
M  V30 20094 H 1914.55 -1.73775 4.27317 0
M  V30 20095 H 1912.8 -1.56965 4.04406 0
M  V30 20096 H 1913.47 -3.12247 4.55199 0
M  V30 20097 H 1915.94 -3.22615 2.6279 0
M  V30 20098 H 1914.82 -4.52232 3.1109 0
M  V30 20099 H 1915.08 -4.1916 1.40562 0
M  V30 20100 N 1914.14 -1.27049 -0.93254 0
M  V30 20101 C 1915.39 -1.1327 -1.68219 0
M  V30 20102 C 1915.72 0.321632 -1.91518 0
M  V30 20103 O 1914.99 1.23564 -1.50207 0
M  V30 20104 C 1915.28 -1.91162 -3.0517 0
M  V30 20105 C 1915.13 -3.44552 -2.89143 0
M  V30 20106 C 1916.45 -1.71227 -4.05425 0
M  V30 20107 H 1913.57 -0.412859 -0.610505 0
M  V30 20108 H 1916.21 -1.56148 -1.08249 0
M  V30 20109 H 1914.36 -1.54722 -3.56361 0
M  V30 20110 H 1916.03 -3.90794 -2.45107 0
M  V30 20111 H 1914.27 -3.71138 -2.24586 0
M  V30 20112 H 1914.95 -3.9429 -3.86315 0
M  V30 20113 H 1917.42 -2.0299 -3.63227 0
M  V30 20114 H 1916.3 -2.28129 -4.99248 0
M  V30 20115 H 1916.56 -0.65898 -4.37161 0
M  V30 20116 N 1915.62 1.13835 -1.08993 0
M  V30 20117 C 1916.53 2.22715 -0.73724 0
M  V30 20118 C 1917.54 1.72064 0.258869 0
M  V30 20119 O 1918.72 2.01145 0.101321 0
M  V30 20120 C 1915.78 3.46338 -0.158285 0
M  V30 20121 C 1914.85 4.11902 -1.20977 0
M  V30 20122 C 1914.08 5.29624 -0.658349 0
M  V30 20123 O 1914.3 5.68023 0.520219 0
M  V30 20124 O 1913.24 5.85121 -1.41126 0
M  V30 20125 H 1917.06 2.55247 -1.64568 0
M  V30 20126 H 1914.65 1.21882 -0.864013 0
M  V30 20127 H 1916.53 4.2109 0.161481 0
M  V30 20128 H 1915.2 3.15517 0.723235 0
M  V30 20129 H 1914.11 3.38996 -1.58216 0
M  V30 20130 H 1915.44 4.46843 -2.06378 0
M  V30 20131 N 1917.1 0.876467 1.3098 0
M  V30 20132 C 1918.32 0.505315 2.00634 0
M  V30 20133 C 1918.74 -0.903951 1.65753 0
M  V30 20134 O 1918.1 -1.59318 0.890164 0
M  V30 20135 C 1918.15 0.660442 3.55416 0
M  V30 20136 O 1917.87 2.01422 3.89051 0
M  V30 20137 C 1919.37 0.291158 4.42343 0
M  V30 20138 H 1916.59 0.196195 0.641676 0
M  V30 20139 H 1919.13 1.17942 1.67062 0
M  V30 20140 H 1917.29 0.0338076 3.87385 0
M  V30 20141 H 1917.7 2.02668 4.83762 0
M  V30 20142 H 1919.18 0.450631 5.50158 0
M  V30 20143 H 1919.65 -0.770188 4.32394 0
M  V30 20144 H 1920.26 0.893762 4.15803 0
M  V30 20145 N 1918.57 -1.44173 0.636557 0
M  V30 20146 C 1919.5 -2.33442 -0.0518719 0
M  V30 20147 C 1920.48 -1.48519 -0.829226 0
M  V30 20148 O 1921.67 -1.77225 -0.794028 0
M  V30 20149 C 1918.8 -3.31663 -1.03038 0
M  V30 20150 C 1917.75 -4.26447 -0.364286 0
M  V30 20151 C 1917.08 -5.14577 -1.45308 0
M  V30 20152 C 1918.38 -5.17133 0.732884 0
M  V30 20153 H 1920.07 -2.91255 0.693589 0
M  V30 20154 H 1917.62 -1.40049 0.33499 0
M  V30 20155 H 1919.57 -3.93002 -1.52077 0
M  V30 20156 H 1918.3 -2.72071 -1.80679 0
M  V30 20157 H 1916.96 -3.66448 0.105505 0
M  V30 20158 H 1916.6 -4.51334 -2.22051 0
M  V30 20159 H 1916.3 -5.78807 -1.01274 0
M  V30 20160 H 1917.83 -5.78788 -1.94517 0
M  V30 20161 H 1919.24 -5.72376 0.325363 0
M  V30 20162 H 1917.64 -5.89994 1.09669 0
M  V30 20163 H 1918.71 -4.5782 1.59779 0
M  V30 20164 N 1920.05 -0.377435 -1.53014 0
M  V30 20165 C 1921.3 0.209712 -2.00607 0
M  V30 20166 C 1921.61 1.48891 -1.2685 0
M  V30 20167 O 1922.82 2.15538 -1.65093 0
M  V30 20168 C 1921.28 0.424271 -3.5739 0
M  V30 20169 C 1920.88 -0.840982 -4.40036 0
M  V30 20170 C 1922.63 0.968428 -4.13306 0
M  V30 20171 C 1920.53 -0.595355 -5.88396 0
M  V30 20172 H 1919.46 0.0821436 -0.749512 0
M  V30 20173 H 1922.12 -0.498005 -1.76613 0
M  V30 20174 H 1920.5 1.19354 -3.77585 0
M  V30 20175 H 1921.67 -1.61396 -4.31611 0
M  V30 20176 H 1919.99 -1.30922 -3.95283 0
M  V30 20177 H 1922.58 1.16771 -5.21794 0
M  V30 20178 H 1922.93 1.93405 -3.68647 0
M  V30 20179 H 1923.46 0.259025 -3.96956 0
M  V30 20180 H 1920.2 -1.53164 -6.37355 0
M  V30 20181 H 1919.72 0.138904 -5.99639 0
M  V30 20182 H 1921.4 -0.225366 -6.46607 0
M  V30 20183 N 1921.53 1.57237 -0.106922 0
M  V30 20184 C 1922.76 1.99545 0.565392 0
M  V30 20185 C 1923.18 0.985887 1.60193 0
M  V30 20186 O 1922.54 -0.0440657 1.81246 0
M  V30 20187 C 1922.59 3.40779 1.17908 0
M  V30 20188 O 1921.69 3.42656 2.29479 0
M  V30 20189 H 1921.03 0.648556 0.142379 0
M  V30 20190 H 1923.56 2.03699 -0.191829 0
M  V30 20191 H 1923.57 3.78728 1.51754 0
M  V30 20192 H 1922.25 4.13776 0.419776 0
M  V30 20193 H 1920.82 3.16514 1.97164 0
M  V30 20194 N 1923.01 -0.166818 1.56715 0
M  V30 20195 C 1924.23 -0.902208 1.86748 0
M  V30 20196 C 1924.66 -1.74838 0.693767 0
M  V30 20197 O 1924.02 -1.77749 -0.35708 0
M  V30 20198 C 1924.06 -1.75107 3.1523 0
M  V30 20199 O 1923.17 -2.85319 2.9777 0
M  V30 20200 H 1922.51 -0.252474 0.614128 0
M  V30 20201 H 1925.04 -0.163603 2.03945 0
M  V30 20202 H 1925.05 -2.15009 3.46749 0
M  V30 20203 H 1923.72 -1.12955 4.00267 0
M  V30 20204 H 1922.3 -2.48967 2.77615 0
M  V30 20205 N 1924.49 -1.51463 -0.435524 0
M  V30 20206 C 1925.42 -1.75856 -1.53613 0
M  V30 20207 C 1926.4 -0.608449 -1.58846 0
M  V30 20208 O 1927.58 -0.85135 -1.74544 0
M  V30 20209 C 1924.71 -1.88525 -2.91677 0
M  V30 20210 C 1923.67 -3.03972 -3.01305 0
M  V30 20211 C 1922.99 -3.01828 -4.41366 0
M  V30 20212 C 1924.29 -4.43905 -2.75219 0
M  V30 20213 H 1925.99 -2.68013 -1.33452 0
M  V30 20214 H 1923.53 -1.28968 -0.640564 0
M  V30 20215 H 1925.49 -2.04173 -3.68634 0
M  V30 20216 H 1924.21 -0.930179 -3.13074 0
M  V30 20217 H 1922.87 -2.88033 -2.26788 0
M  V30 20218 H 1922.52 -2.04095 -4.59733 0
M  V30 20219 H 1922.22 -3.79353 -4.48737 0
M  V30 20220 H 1923.74 -3.19572 -5.20294 0
M  V30 20221 H 1925.15 -4.60187 -3.41908 0
M  V30 20222 H 1923.55 -5.2315 -2.93998 0
M  V30 20223 H 1924.62 -4.53818 -1.70814 0
M  V30 20224 N 1925.96 0.691085 -1.4164 0
M  V30 20225 C 1926.91 1.80495 -1.43841 0
M  V30 20226 C 1927.88 1.63509 -0.292237 0
M  V30 20227 O 1929.07 1.84296 -0.493941 0
M  V30 20228 C 1926.21 3.18412 -1.33072 0
M  V30 20229 C 1925.32 3.46799 -2.57594 0
M  V30 20230 C 1924.45 4.74354 -2.39085 0
M  V30 20231 C 1923.49 4.95723 -3.59061 0
M  V30 20232 N 1922.63 6.14507 -3.39596 0
M  V30 20233 H 1927.47 1.77949 -2.39036 0
M  V30 20234 H 1925.01 0.86893 -1.18693 0
M  V30 20235 H 1926.97 3.98087 -1.24829 0
M  V30 20236 H 1925.6 3.20124 -0.414814 0
M  V30 20237 H 1924.65 2.61496 -2.76268 0
M  V30 20238 H 1925.96 3.58489 -3.46824 0
M  V30 20239 H 1925.11 5.62092 -2.28336 0
M  V30 20240 H 1923.85 4.64918 -1.47319 0
M  V30 20241 H 1922.86 4.06432 -3.70261 0
M  V30 20242 H 1924.08 5.07015 -4.51788 0
M  V30 20243 H 1922.03 6.06275 -2.50532 0
M  V30 20244 H 1921.95 6.26985 -4.22405 0
M  V30 20245 H 1923.21 7.04968 -3.32627 0
M  V30 20246 N 1927.44 1.27542 0.925789 0
M  V30 20247 C 1928.85 1.12679 1.48864 0
M  V30 20248 C 1929.2 -0.287536 1.94082 0
M  V30 20249 O 1928.33 -1.18064 1.81356 0
M  V30 20250 C 1928.92 2.03934 2.70548 0
M  V30 20251 C 1927.48 1.93171 3.23051 0
M  V30 20252 C 1926.63 1.96378 1.95783 0
M  V30 20253 H 1929.58 1.40407 0.739703 0
M  V30 20254 H 1929.6 1.59628 3.45397 0
M  V30 20255 H 1929.11 3.06863 2.37607 0
M  V30 20256 H 1927.22 0.932356 3.60746 0
M  V30 20257 H 1927.33 2.7951 3.89115 0
M  V30 20258 H 1925.69 1.40628 2.12358 0
M  V30 20259 H 1926.48 3.00964 1.65153 0
M  V30 20260 N 1928.92 -1.13255 1.09595 0
M  V30 20261 C 1930.17 -1.83925 0.827926 0
M  V30 20262 C 1930.48 -1.84531 -0.64866 0
M  V30 20263 O 1931.69 -2.5111 -1.03228 0
M  V30 20264 C 1930.14 -3.30219 1.43121 0
M  V30 20265 C 1929.75 -3.37996 2.94046 0
M  V30 20266 C 1931.5 -4.05918 1.24221 0
M  V30 20267 C 1929.4 -4.78572 3.47451 0
M  V30 20268 H 1928.33 -0.689091 0.306056 0
M  V30 20269 H 1930.98 -1.27586 1.31887 0
M  V30 20270 H 1929.37 -3.86371 0.867952 0
M  V30 20271 H 1930.54 -2.91829 3.56612 0
M  V30 20272 H 1928.86 -2.75762 3.12 0
M  V30 20273 H 1931.45 -5.09704 1.61573 0
M  V30 20274 H 1931.8 -4.15898 0.183004 0
M  V30 20275 H 1932.33 -3.561 1.77306 0
M  V30 20276 H 1929.07 -4.73785 4.52999 0
M  V30 20277 H 1928.59 -5.25227 2.89649 0
M  V30 20278 H 1930.27 -5.47495 3.44759 0
M  V30 20279 N 1930.4 -0.883401 -1.30514 0
M  V30 20280 C 1931.65 -0.500062 -1.95816 0
M  V30 20281 C 1931.97 0.953596 -1.70093 0
M  V30 20282 O 1931.24 1.67027 -1.02365 0
M  V30 20283 H 1929.82 -0.181936 -0.724506 0
M  V30 20284 H 1932.48 -1.12613 -1.59073 0
M  V30 20285 H 1931.58 -0.668998 -3.04846 0
M  V30 20286 N 1931.88 1.43833 -0.644194 0
M  V30 20287 C 1932.82 2.32509 0.0649184 0
M  V30 20288 C 1933.82 1.48097 0.822405 0
M  V30 20289 O 1935.02 1.64362 0.733827 0
M  V30 20290 H 1931.4 0.750948 0.0397724 0
M  V30 20291 H 1933.37 2.90053 -0.700857 0
M  V30 20292 C 1932.12 3.32282 1.02391 0
M  V30 20293 H 1931.44 3.97254 0.45047 0
M  V30 20294 H 1932.88 3.96982 1.48933 0
M  V30 20295 C 1931.34 2.62194 2.11556 0
M  V30 20296 O 1931.87 2.43066 3.19815 0
M  V30 20297 N 1930.08 2.21717 1.87856 0
M  V30 20298 H 1929.62 2.37474 0.998189 0
M  V30 20299 H 1929.58 1.7515 2.61093 0
M  V30 20300 N 1933.35 0.385544 1.52811 0
M  V30 20301 C 1934.6 -0.19907 2.00715 0
M  V30 20302 C 1934.92 -1.48216 1.27638 0
M  V30 20303 O 1936.12 -2.14659 1.66234 0
M  V30 20304 C 1934.58 -0.405311 3.5761 0
M  V30 20305 C 1934.19 0.864306 4.39584 0
M  V30 20306 C 1935.93 -0.946495 4.13814 0
M  V30 20307 C 1933.84 0.626551 5.88072 0
M  V30 20308 H 1932.77 -0.0781676 0.749937 0
M  V30 20309 H 1935.42 0.507365 1.76346 0
M  V30 20310 H 1933.8 -1.1735 3.78213 0
M  V30 20311 H 1934.97 1.63683 4.30749 0
M  V30 20312 H 1933.29 1.33017 3.94583 0
M  V30 20313 H 1935.89 -1.14002 5.22406 0
M  V30 20314 H 1936.23 -1.91447 3.69667 0
M  V30 20315 H 1936.76 -0.23797 3.97088 0
M  V30 20316 H 1933.5 1.56542 6.36534 0
M  V30 20317 H 1933.02 -0.107102 5.99704 0
M  V30 20318 H 1934.7 0.259654 6.46479 0
M  V30 20319 N 1934.83 -1.57178 0.115259 0
M  V30 20320 C 1936.08 -1.95355 -0.54445 0
M  V30 20321 C 1936.41 -0.998445 -1.66567 0
M  V30 20322 O 1935.69 -0.0349993 -1.94469 0
M  V30 20323 C 1935.97 -3.43502 -1.08067 0
M  V30 20324 C 1935.82 -4.49785 0.0368794 0
M  V30 20325 C 1937.14 -3.9341 -1.97273 0
M  V30 20326 H 1934.26 -0.710338 -0.19644 0
M  V30 20327 H 1936.9 -1.89047 0.19006 0
M  V30 20328 H 1935.05 -3.49008 -1.70662 0
M  V30 20329 H 1936.72 -4.56379 0.672017 0
M  V30 20330 H 1934.97 -4.28106 0.700539 0
M  V30 20331 H 1935.64 -5.50694 -0.379481 0
M  V30 20332 H 1938.11 -3.90184 -1.44555 0
M  V30 20333 H 1936.99 -4.97596 -2.31711 0
M  V30 20334 H 1937.25 -3.33884 -2.89782 0
M  V30 20335 N 1936.31 0.158505 -1.56801 0
M  V30 20336 C 1937.24 1.19799 -2.00426 0
M  V30 20337 C 1938.22 1.45453 -0.881905 0
M  V30 20338 O 1939.41 1.56569 -1.1489 0
M  V30 20339 C 1936.54 2.53392 -2.37508 0
M  V30 20340 C 1935.49 2.42283 -3.52822 0
M  V30 20341 C 1934.82 3.80482 -3.75683 0
M  V30 20342 C 1936.12 1.91666 -4.85862 0
M  V30 20343 H 1937.81 0.835303 -2.87512 0
M  V30 20344 H 1935.36 0.400366 -1.38322 0
M  V30 20345 H 1937.31 3.26326 -2.66625 0
M  V30 20346 H 1936.03 2.91474 -1.47345 0
M  V30 20347 H 1934.69 1.71801 -3.23852 0
M  V30 20348 H 1934.34 4.15979 -2.8279 0
M  V30 20349 H 1934.04 3.73913 -4.5328 0
M  V30 20350 H 1935.57 4.54982 -4.07214 0
M  V30 20351 H 1936.98 2.54384 -5.13772 0
M  V30 20352 H 1935.38 1.96016 -5.67184 0
M  V30 20353 H 1936.45 0.871666 -4.77001 0
M  V30 20354 N 1937.79 1.51692 0.427485 0
M  V30 20355 C 1939.04 1.64079 1.17308 0
M  V30 20356 C 1939.35 0.367695 1.92113 0
M  V30 20357 O 1940.56 0.371083 2.68952 0
M  V30 20358 C 1939.01 2.89812 2.13394 0
M  V30 20359 C 1938.62 4.24161 1.44191 0
M  V30 20360 C 1940.37 3.11559 2.88325 0
M  V30 20361 C 1938.27 5.41036 2.38819 0
M  V30 20362 H 1937.2 0.611162 0.441584 0
M  V30 20363 H 1939.85 1.78167 0.439193 0
M  V30 20364 H 1938.24 2.6938 2.90259 0
M  V30 20365 H 1939.41 4.5501 0.72817 0
M  V30 20366 H 1937.72 4.08371 0.813739 0
M  V30 20367 H 1940.32 3.96051 3.59232 0
M  V30 20368 H 1940.66 2.25037 3.50234 0
M  V30 20369 H 1941.2 3.32376 2.18565 0
M  V30 20370 H 1937.94 6.29847 1.81585 0
M  V30 20371 H 1937.46 5.1455 3.08218 0
M  V30 20372 H 1939.14 5.73381 2.9974 0
M  V30 20373 N 1939.27 -0.683564 1.42004 0
M  V30 20374 C 1940.51 -1.45574 1.43483 0
M  V30 20375 C 1940.87 -1.91944 0.0463913 0
M  V30 20376 O 1942.07 -2.68724 -0.0640638 0
M  V30 20377 C 1940.34 -2.62681 2.4235 0
M  V30 20378 S 1941.9 -3.51654 2.62459 0
M  V30 20379 H 1938.72 -0.497311 0.508136 0
M  V30 20380 H 1941.32 -0.796514 1.78538 0
M  V30 20381 H 1940.03 -2.26839 3.42012 0
M  V30 20382 H 1939.56 -3.33485 2.0869 0
M  V30 20383 H 1941.57 -4.58341 1.90101 0
M  V30 20384 N 1940.75 -1.28031 -0.919012 0
M  V30 20385 C 1941.99 -1.16124 -1.6821 0
M  V30 20386 C 1942.35 0.286502 -1.8985 0
M  V30 20387 O 1943.55 0.528171 -2.6356 0
M  V30 20388 C 1941.82 -1.93232 -3.0066 0
M  V30 20389 S 1943.38 -1.97638 -3.91771 0
M  V30 20390 H 1940.2 -0.4144 -0.577749 0
M  V30 20391 H 1942.8 -1.62059 -1.09349 0
M  V30 20392 H 1941.5 -2.97593 -2.82607 0
M  V30 20393 H 1941.04 -1.47825 -3.6457 0
M  V30 20394 H 1943.05 -1.07908 -4.84325 0
M  V30 20395 N 1942.22 1.12672 -1.10194 0
M  V30 20396 C 1943.19 2.16513 -0.751974 0
M  V30 20397 C 1944.19 1.59255 0.222352 0
M  V30 20398 O 1945.38 1.742 -0.000482744 0
M  V30 20399 C 1942.51 3.40711 -0.113421 0
M  V30 20400 H 1943.7 2.48986 -1.67171 0
M  V30 20401 H 1941.25 1.27637 -0.90214 0
M  V30 20402 H 1941.99 3.13836 0.817162 0
M  V30 20403 H 1941.77 3.83545 -0.814599 0
M  V30 20404 H 1943.26 4.1744 0.115756 0
M  V30 20405 N 1943.7 0.89031 1.30043 0
M  V30 20406 C 1944.95 0.51145 1.95935 0
M  V30 20407 C 1945.28 -0.940438 1.70253 0
M  V30 20408 O 1944.53 -1.68041 1.00302 0
M  V30 20409 C 1944.83 0.739209 3.49672 0
M  V30 20410 C 1944.5 2.167 3.95413 0
M  V30 20411 C 1943.16 2.55743 4.07614 0
M  V30 20412 C 1945.51 3.09723 4.19191 0
M  V30 20413 C 1942.84 3.87008 4.40955 0
M  V30 20414 C 1945.19 4.40527 4.54003 0
M  V30 20415 C 1943.85 4.79455 4.64413 0
M  V30 20416 H 1943.12 0.187153 0.716976 0
M  V30 20417 H 1945.77 1.12718 1.54812 0
M  V30 20418 H 1944.08 0.0404857 3.91779 0
M  V30 20419 H 1945.77 0.425594 3.98735 0
M  V30 20420 H 1942.36 1.85396 3.86427 0
M  V30 20421 H 1946.55 2.80778 4.0924 0
M  V30 20422 H 1941.8 4.16903 4.47216 0
M  V30 20423 H 1945.98 5.1264 4.71352 0
M  V30 20424 H 1943.6 5.81206 4.90003 0
M  V30 20425 N 1945.18 -1.43489 0.651812 0
M  V30 20426 C 1946.43 -2.0183 0.164632 0
M  V30 20427 C 1946.75 -1.51408 -1.2209 0
M  V30 20428 O 1946.01 -0.697062 -1.82865 0
M  V30 20429 C 1946.31 -3.57189 0.122885 0
M  V30 20430 C 1945.97 -4.2695 1.44997 0
M  V30 20431 C 1944.64 -4.45724 1.81339 0
M  V30 20432 C 1946.99 -4.66468 2.32501 0
M  V30 20433 C 1944.32 -5.0128 3.04853 0
M  V30 20434 C 1946.67 -5.23393 3.55306 0
M  V30 20435 C 1945.33 -5.40383 3.91845 0
M  V30 20436 H 1944.6 -0.738547 0.0602433 0
M  V30 20437 H 1947.25 -1.71984 0.842241 0
M  V30 20438 H 1945.55 -3.86568 -0.638169 0
M  V30 20439 H 1947.25 -4.00084 -0.270911 0
M  V30 20440 H 1943.84 -4.12682 1.15721 0
M  V30 20441 H 1948.03 -4.51658 2.05715 0
M  V30 20442 H 1943.28 -5.1262 3.33213 0
M  V30 20443 H 1947.46 -5.52961 4.23329 0
M  V30 20444 H 1945.08 -5.83197 4.87632 0
M  V30 20445 N 1946.66 -0.393643 -1.52605 0
M  V30 20446 C 1947.91 0.188423 -2.00818 0
M  V30 20447 C 1948.22 1.47537 -1.28422 0
M  V30 20448 O 1949.43 2.13775 -1.6737 0
M  V30 20449 C 1947.88 0.386341 -3.5782 0
M  V30 20450 C 1947.49 -0.887606 -4.39119 0
M  V30 20451 C 1949.23 0.924537 -4.1431 0
M  V30 20452 C 1947.14 -0.657729 -5.87731 0
M  V30 20453 H 1946.07 0.0741894 -0.750341 0
M  V30 20454 H 1948.72 -0.516709 -1.76075 0
M  V30 20455 H 1947.1 1.15343 -3.7883 0
M  V30 20456 H 1948.28 -1.65965 -4.29875 0
M  V30 20457 H 1946.59 -1.35107 -3.93872 0
M  V30 20458 H 1949.19 1.1123 -5.23003 0
M  V30 20459 H 1949.53 1.89484 -3.70677 0
M  V30 20460 H 1950.07 0.216908 -3.97208 0
M  V30 20461 H 1946.8 -1.59915 -6.35694 0
M  V30 20462 H 1946.32 0.0752963 -5.99753 0
M  V30 20463 H 1948 -0.293935 -6.46332 0
M  V30 20464 N 1948.14 1.57115 -0.123593 0
M  V30 20465 C 1949.38 1.94527 0.533131 0
M  V30 20466 C 1949.7 1.0095 1.67536 0
M  V30 20467 O 1950.9 1.27846 2.39515 0
M  V30 20468 C 1949.36 3.45735 0.999783 0
M  V30 20469 C 1948.97 4.47854 -0.114238 0
M  V30 20470 C 1950.71 3.92057 1.62762 0
M  V30 20471 C 1948.62 5.90245 0.36937 0
M  V30 20472 H 1947.55 0.726179 0.20293 0
M  V30 20473 H 1950.2 1.8236 -0.204183 0
M  V30 20474 H 1948.58 3.53151 1.79166 0
M  V30 20475 H 1949.76 4.52111 -0.890627 0
M  V30 20476 H 1948.07 4.11311 -0.649019 0
M  V30 20477 H 1950.67 4.9586 2.00067 0
M  V30 20478 H 1951.01 3.3229 2.50777 0
M  V30 20479 H 1951.54 3.8746 0.901074 0
M  V30 20480 H 1948.28 6.53778 -0.474837 0
M  V30 20481 H 1947.8 5.89399 1.11214 0
M  V30 20482 H 1949.48 6.41666 0.829093 0
M  V30 20483 N 1949.61 -0.150187 1.56883 0
M  V30 20484 C 1950.86 -0.863336 1.83174 0
M  V30 20485 C 1951.19 -1.81313 0.703986 0
M  V30 20486 O 1950.44 -1.93273 -0.307235 0
M  V30 20487 C 1950.74 -1.67394 3.15775 0
M  V30 20488 C 1950.41 -0.871221 4.42403 0
M  V30 20489 C 1949.07 -0.649752 4.76793 0
M  V30 20490 C 1951.42 -0.309625 5.2028 0
M  V30 20491 C 1948.75 0.144072 5.86523 0
M  V30 20492 C 1951.1 0.471222 6.30843 0
M  V30 20493 C 1949.77 0.703297 6.63785 0
M  V30 20494 H 1949.04 -0.315917 0.670282 0
M  V30 20495 H 1951.68 -0.127141 1.91077 0
M  V30 20496 H 1949.99 -2.48015 3.03308 0
M  V30 20497 H 1951.69 -2.22915 3.33332 0
M  V30 20498 H 1948.28 -1.0539 4.15441 0
M  V30 20499 H 1952.46 -0.468015 4.94088 0
M  V30 20500 H 1947.72 0.333407 6.1049 0
M  V30 20501 H 1951.89 0.913535 6.90382 0
M  V30 20502 H 1949.52 1.32027 7.48647 0
M  V30 20503 N 1951.09 -1.51916 -0.419434 0
M  V30 20504 C 1952.34 -1.65142 -1.16502 0
M  V30 20505 C 1952.66 -0.378632 -1.91289 0
M  V30 20506 O 1951.93 0.606164 -1.86286 0
M  V30 20507 H 1950.51 -0.608667 -0.433051 0
M  V30 20508 H 1953.17 -1.88919 -0.47914 0
M  V30 20509 H 1952.27 -2.48762 -1.88477 0
M  V30 20510 N 1952.57 0.676023 -1.42365 0
M  V30 20511 C 1953.82 1.43183 -1.42062 0
M  V30 20512 C 1954.13 1.95559 -0.0400321 0
M  V30 20513 O 1955.34 2.71365 0.0855959 0
M  V30 20514 C 1953.79 2.5901 -2.49884 0
M  V30 20515 C 1953.4 2.13338 -3.93943 0
M  V30 20516 C 1955.15 3.36528 -2.58746 0
M  V30 20517 C 1953.05 3.2624 -4.93276 0
M  V30 20518 H 1951.98 0.537899 -0.528376 0
M  V30 20519 H 1954.63 0.732001 -1.68268 0
M  V30 20520 H 1953.02 3.31355 -2.16841 0
M  V30 20521 H 1954.19 1.48154 -4.36334 0
M  V30 20522 H 1952.51 1.48761 -3.8892 0
M  V30 20523 H 1955.1 4.2061 -3.30138 0
M  V30 20524 H 1955.45 3.83036 -1.63061 0
M  V30 20525 H 1955.98 2.71252 -2.90977 0
M  V30 20526 H 1952.72 2.84724 -5.90434 0
M  V30 20527 H 1952.24 3.90209 -4.55518 0
M  V30 20528 H 1953.92 3.91725 -5.14938 0
M  V30 20529 N 1954.05 1.28517 0.912209 0
M  V30 20530 C 1954.98 1.15113 2.03153 0
M  V30 20531 C 1955.96 0.0485128 1.70031 0
M  V30 20532 O 1957.14 0.225778 1.92883 0
M  V30 20533 C 1954.27 0.81381 3.37631 0
M  V30 20534 C 1953.23 1.87137 3.8492 0
M  V30 20535 C 1952.55 1.38765 5.1638 0
M  V30 20536 C 1953.85 3.27819 4.06611 0
M  V30 20537 H 1955.55 2.0875 2.14625 0
M  V30 20538 H 1953.09 1.00504 1.03126 0
M  V30 20539 H 1955.05 0.706804 4.1543 0
M  V30 20540 H 1953.77 -0.15826 3.26216 0
M  V30 20541 H 1952.43 1.96755 3.09327 0
M  V30 20542 H 1952.08 0.404598 5.0137 0
M  V30 20543 H 1951.78 2.09482 5.48991 0
M  V30 20544 H 1953.3 1.29389 5.96733 0
M  V30 20545 H 1954.72 3.21114 4.7493 0
M  V30 20546 H 1953.11 3.96384 4.50555 0
M  V30 20547 H 1954.18 3.71723 3.11368 0
M  V30 20548 N 1955.53 -1.12086 1.1079 0
M  V30 20549 C 1956.77 -1.83314 0.850901 0
M  V30 20550 C 1957.1 -1.84703 -0.625275 0
M  V30 20551 O 1956.37 -1.31277 -1.45406 0
M  V30 20552 H 1954.95 -0.678817 0.311797 0
M  V30 20553 H 1957.61 -1.35707 1.39891 0
M  V30 20554 H 1956.7 -2.87393 1.21704 0
M  V30 20555 N 1957 -0.897194 -1.29569 0
M  V30 20556 C 1958.25 -0.522607 -1.95951 0
M  V30 20557 C 1958.58 0.928254 -1.70579 0
M  V30 20558 O 1957.86 1.65772 -1.01734 0
M  V30 20559 C 1958.14 -0.812659 -3.5081 0
M  V30 20560 C 1957.99 -2.31504 -3.8565 0
M  V30 20561 C 1959.31 -0.297442 -4.39094 0
M  V30 20562 H 1956.43 -0.191346 -0.711727 0
M  V30 20563 H 1959.07 -1.12342 -1.5323 0
M  V30 20564 H 1957.22 -0.301316 -3.8733 0
M  V30 20565 H 1958.9 -2.89573 -3.59089 0
M  V30 20566 H 1957.14 -2.77678 -3.33283 0
M  V30 20567 H 1957.81 -2.46857 -4.93726 0
M  V30 20568 H 1960.29 -0.735265 -4.09552 0
M  V30 20569 H 1959.16 -0.529614 -5.46339 0
M  V30 20570 H 1959.42 0.801767 -4.34769 0
M  V30 20571 N 1958.48 1.43142 -0.659413 0
M  V30 20572 C 1959.41 2.29102 0.0671619 0
M  V30 20573 C 1960.43 1.42846 0.780943 0
M  V30 20574 O 1961.62 1.66722 0.637666 0
M  V30 20575 C 1958.72 3.19915 1.11838 0
M  V30 20576 C 1957.89 4.34742 0.481505 0
M  V30 20577 C 1956.95 5.06384 1.43043 0
M  V30 20578 O 1955.97 5.61441 0.936648 0
M  V30 20579 N 1957.18 5.10461 2.76423 0
M  V30 20580 H 1959.94 2.92099 -0.670674 0
M  V30 20581 H 1957.5 1.53899 -0.50266 0
M  V30 20582 H 1959.49 3.64708 1.75413 0
M  V30 20583 H 1958.06 2.58474 1.75812 0
M  V30 20584 H 1957.28 3.92787 -0.333461 0
M  V30 20585 H 1958.57 5.08786 0.0371775 0
M  V30 20586 H 1957.97 4.67114 3.19095 0
M  V30 20587 H 1956.53 5.58952 3.35285 0
M  V30 20588 N 1959.96 0.40173 1.52394 0
M  V30 20589 C 1960.89 -0.41861 2.29717 0
M  V30 20590 C 1961.87 -1.05263 1.33618 0
M  V30 20591 O 1963.06 -1.06304 1.62521 0
M  V30 20592 C 1960.19 -1.5395 3.11314 0
M  V30 20593 C 1959.14 -1.03088 4.154 0
M  V30 20594 C 1958.47 -2.2448 4.85297 0
M  V30 20595 C 1959.77 -0.0900956 5.22222 0
M  V30 20596 H 1961.46 0.226577 2.98541 0
M  V30 20597 H 1959.01 0.110411 1.43576 0
M  V30 20598 H 1960.96 -2.12031 3.64171 0
M  V30 20599 H 1959.68 -2.21246 2.40246 0
M  V30 20600 H 1958.34 -0.472515 3.63542 0
M  V30 20601 H 1957.99 -2.90313 4.10764 0
M  V30 20602 H 1957.69 -1.91103 5.55656 0
M  V30 20603 H 1959.21 -2.83181 5.40963 0
M  V30 20604 H 1960.63 -0.579479 5.70364 0
M  V30 20605 H 1959.03 0.154505 5.99901 0
M  V30 20606 H 1960.1 0.857375 4.7726 0
M  V30 20607 N 1961.44 -1.57047 0.131923 0
M  V30 20608 C 1962.69 -1.95632 -0.522925 0
M  V30 20609 C 1963.01 -1.01597 -1.65856 0
M  V30 20610 O 1962.27 -0.0422719 -1.95654 0
M  V30 20611 C 1962.57 -3.4056 -1.08413 0
M  V30 20612 C 1962.23 -4.50848 -0.0685085 0
M  V30 20613 C 1960.9 -4.80738 0.210726 0
M  V30 20614 C 1963.25 -5.17464 0.622935 0
M  V30 20615 C 1960.58 -5.74557 1.18747 0
M  V30 20616 C 1962.93 -6.12334 1.58839 0
M  V30 20617 C 1961.59 -6.40611 1.87548 0
M  V30 20618 H 1960.86 -0.715867 -0.191352 0
M  V30 20619 H 1963.51 -1.90283 0.215565 0
M  V30 20620 H 1961.81 -3.42667 -1.89965 0
M  V30 20621 H 1963.51 -3.67734 -1.59914 0
M  V30 20622 H 1960.1 -4.27574 -0.29633 0
M  V30 20623 H 1964.28 -4.94516 0.420386 0
M  V30 20624 H 1959.54 -5.94765 1.4165 0
M  V30 20625 H 1963.71 -6.63034 2.12977 0
M  V30 20626 H 1961.34 -7.13114 2.63387 0
M  V30 20627 N 1962.92 0.141865 -1.5696 0
M  V30 20628 C 1963.86 1.175 -1.98651 0
M  V30 20629 C 1964.83 1.42409 -0.854918 0
M  V30 20630 O 1966.02 1.54658 -1.11738 0
M  V30 20631 C 1963.16 2.50222 -2.37661 0
M  V30 20632 C 1962.27 2.32443 -3.64135 0
M  V30 20633 C 1961.41 3.58236 -3.92225 0
M  V30 20634 C 1960.45 3.35516 -5.11952 0
M  V30 20635 N 1959.58 4.53452 -5.36027 0
M  V30 20636 H 1964.42 0.812473 -2.8671 0
M  V30 20637 H 1961.96 0.389721 -1.41844 0
M  V30 20638 H 1963.92 3.27616 -2.58309 0
M  V30 20639 H 1962.55 2.84412 -1.52675 0
M  V30 20640 H 1961.6 1.46078 -3.51234 0
M  V30 20641 H 1962.91 2.11618 -4.51685 0
M  V30 20642 H 1962.07 4.44057 -4.13399 0
M  V30 20643 H 1960.8 3.8207 -3.03106 0
M  V30 20644 H 1959.81 2.48084 -4.90647 0
M  V30 20645 H 1961.03 3.13075 -6.02628 0
M  V30 20646 H 1958.98 4.7745 -4.49864 0
M  V30 20647 H 1958.9 4.35648 -6.17856 0
M  V30 20648 H 1960.17 5.40472 -5.61703 0
M  V30 20649 N 1964.39 1.52136 0.411372 0
M  V30 20650 C 1965.64 1.65757 1.15624 0
M  V30 20651 C 1965.96 0.388771 1.91085 0
M  V30 20652 O 1965.23 -0.596276 1.86605 0
M  V30 20653 H 1963.81 0.610955 0.429817 0
M  V30 20654 H 1966.48 1.8917 0.469114 0
M  V30 20655 H 1965.57 2.49759 1.87155 0
M  V30 20656 N 1965.87 -0.668464 1.42721 0
M  V30 20657 C 1966.82 -1.78184 1.46694 0
M  V30 20658 C 1967.79 -1.63023 0.318213 0
M  V30 20659 O 1968.98 -1.83486 0.523198 0
M  V30 20660 C 1966.12 -3.16254 1.3812 0
M  V30 20661 C 1965.23 -3.42657 2.63078 0
M  V30 20662 C 1964.36 -4.7049 2.46602 0
M  V30 20663 C 1963.4 -4.89948 3.66902 0
M  V30 20664 N 1962.54 -6.09027 3.49329 0
M  V30 20665 H 1967.38 -1.74123 2.41837 0
M  V30 20666 H 1964.92 -0.849937 1.2006 0
M  V30 20667 H 1966.87 -3.96051 1.31146 0
M  V30 20668 H 1965.5 -3.19423 0.46569 0
M  V30 20669 H 1964.56 -2.57068 2.80393 0
M  V30 20670 H 1965.87 -3.52926 3.52484 0
M  V30 20671 H 1965.02 -5.58388 2.37249 0
M  V30 20672 H 1963.76 -4.62515 1.54696 0
M  V30 20673 H 1962.77 -4.0049 3.7668 0
M  V30 20674 H 1963.99 -4.99764 4.59797 0
M  V30 20675 H 1961.94 -6.02213 2.60146 0
M  V30 20676 H 1961.85 -6.20186 4.32326 0
M  V30 20677 H 1963.12 -6.99587 3.438 0
M  V30 20678 N 1967.35 -1.28999 -0.905381 0
M  V30 20679 C 1968.6 -1.1664 -1.65534 0
M  V30 20680 C 1968.93 0.283294 -1.92426 0
M  V30 20681 O 1968.18 1.22166 -1.52885 0
M  V30 20682 C 1968.48 -1.91909 -3.01506 0
M  V30 20683 C 1968.15 -3.4166 -2.94243 0
M  V30 20684 C 1966.81 -3.82501 -2.91969 0
M  V30 20685 C 1969.16 -4.37112 -2.8387 0
M  V30 20686 C 1966.49 -5.1712 -2.77135 0
M  V30 20687 C 1968.84 -5.71814 -2.70576 0
M  V30 20688 C 1967.5 -6.1192 -2.66665 0
M  V30 20689 H 1966.77 -0.426816 -0.60573 0
M  V30 20690 H 1969.42 -1.5987 -1.05422 0
M  V30 20691 H 1967.73 -1.41252 -3.65452 0
M  V30 20692 H 1969.42 -1.79756 -3.58453 0
M  V30 20693 H 1966.01 -3.09194 -2.96812 0
M  V30 20694 H 1970.2 -4.06516 -2.84708 0
M  V30 20695 H 1965.45 -5.47311 -2.72508 0
M  V30 20696 H 1969.63 -6.45431 -2.61519 0
M  V30 20697 H 1967.25 -7.16182 -2.54928 0
M  V30 20698 N 1968.83 1.11497 -1.11383 0
M  V30 20699 C 1970.06 1.86756 -0.88351 0
M  V30 20700 C 1970.47 1.80404 0.570169 0
M  V30 20701 O 1969.81 1.18298 1.40539 0
M  V30 20702 C 1969.87 3.3647 -1.26603 0
M  V30 20703 C 1969.54 3.6659 -2.72876 0
M  V30 20704 C 1970.53 3.64121 -3.71095 0
M  V30 20705 C 1968.22 3.95614 -3.09507 0
M  V30 20706 C 1970.21 3.90253 -5.03966 0
M  V30 20707 C 1967.9 4.21404 -4.42563 0
M  V30 20708 C 1968.9 4.18712 -5.39601 0
M  V30 20709 O 1968.59 4.43855 -6.7026 0
M  V30 20710 H 1968.32 0.597446 -0.316283 0
M  V30 20711 H 1970.87 1.41938 -1.48469 0
M  V30 20712 H 1969.1 3.8189 -0.608003 0
M  V30 20713 H 1970.79 3.93092 -1.01162 0
M  V30 20714 H 1971.56 3.41749 -3.4414 0
M  V30 20715 H 1967.44 3.96846 -2.34594 0
M  V30 20716 H 1970.98 3.88067 -5.79698 0
M  V30 20717 H 1966.88 4.43252 -4.69252 0
M  V30 20718 H 1967.64 4.61425 -6.76039 0
M  V30 20719 N 1970.31 0.904053 1.29092 0
M  V30 20720 C 1971.26 0.356356 2.25198 0
M  V30 20721 C 1972.24 -0.526041 1.52058 0
M  V30 20722 O 1973.43 -0.367347 1.73146 0
M  V30 20723 C 1970.56 -0.411177 3.40829 0
M  V30 20724 C 1969.65 0.486388 4.21302 0
M  V30 20725 N 1970.04 1.59559 4.79974 0
M  V30 20726 C 1968.34 0.284978 4.45089 0
M  V30 20727 C 1969.04 2.15192 5.40433 0
M  V30 20728 N 1968.01 1.4444 5.24059 0
M  V30 20729 H 1971.82 1.20361 2.68124 0
M  V30 20730 H 1969.33 0.755599 1.43751 0
M  V30 20731 H 1971.33 -0.820324 4.0875 0
M  V30 20732 H 1969.99 -1.25564 2.99439 0
M  V30 20733 H 1971 1.97828 4.78628 0
M  V30 20734 H 1967.68 -0.520766 4.14239 0
M  V30 20735 H 1969.07 3.08444 5.96919 0
M  V30 20736 N 1971.79 -1.4279 0.666995 0
M  V30 20737 C 1973.03 -2.03517 0.189811 0
M  V30 20738 C 1973.39 -1.5156 -1.17871 0
M  V30 20739 O 1974.59 -2.04022 -1.7501 0
M  V30 20740 C 1972.86 -3.56757 0.214298 0
M  V30 20741 S 1974.42 -4.38375 -0.193026 0
M  V30 20742 H 1971.24 -0.706625 0.0787564 0
M  V30 20743 H 1973.84 -1.74655 0.878407 0
M  V30 20744 H 1972.54 -3.92071 1.2128 0
M  V30 20745 H 1972.08 -3.90281 -0.494388 0
M  V30 20746 H 1974.09 -4.75195 -1.42842 0
M  V30 20747 N 1973.26 -0.409806 -1.52179 0
M  V30 20748 C 1974.19 0.406421 -2.29936 0
M  V30 20749 C 1975.17 1.04553 -1.34174 0
M  V30 20750 O 1976.36 1.05441 -1.63082 0
M  V30 20751 C 1973.49 1.52297 -3.12127 0
M  V30 20752 C 1972.44 1.00883 -4.15941 0
M  V30 20753 C 1971.77 2.21903 -4.8648 0
M  V30 20754 C 1973.07 0.0623996 -5.22263 0
M  V30 20755 H 1974.76 -0.242406 -2.98417 0
M  V30 20756 H 1972.31 -0.118023 -1.43516 0
M  V30 20757 H 1974.26 2.10097 -3.65291 0
M  V30 20758 H 1972.99 2.19968 -2.41416 0
M  V30 20759 H 1971.65 0.453228 -3.63788 0
M  V30 20760 H 1971.29 2.88131 -4.12298 0
M  V30 20761 H 1970.99 1.88153 -5.56662 0
M  V30 20762 H 1972.52 2.80308 -5.42457 0
M  V30 20763 H 1973.93 0.549223 -5.70663 0
M  V30 20764 H 1972.33 -0.186317 -5.99811 0
M  V30 20765 H 1973.4 -0.882673 -4.76799 0
M  V30 20766 N 1974.74 1.56975 -0.14025 0
M  V30 20767 C 1975.99 1.95519 0.51153 0
M  V30 20768 C 1976.31 1.02572 1.65843 0
M  V30 20769 O 1975.58 0.0859828 1.95711 0
M  V30 20770 H 1974.16 0.721914 0.191961 0
M  V30 20771 H 1976.82 1.9372 -0.214169 0
M  V30 20772 H 1975.92 2.99078 0.892131 0
M  V30 20773 N 1976.22 -0.133539 1.57033 0
M  V30 20774 C 1977.47 -0.845109 1.84352 0
M  V30 20775 C 1977.8 -1.80205 0.723864 0
M  V30 20776 O 1977.07 -1.92596 -0.271485 0
M  V30 20777 C 1977.36 -1.6078 3.22214 0
M  V30 20778 C 1977.21 -0.671438 4.4476 0
M  V30 20779 C 1978.53 -2.56728 3.57462 0
M  V30 20780 H 1975.65 -0.305783 0.670571 0
M  V30 20781 H 1978.29 -0.109825 1.89682 0
M  V30 20782 H 1976.44 -2.23461 3.17801 0
M  V30 20783 H 1978.11 -0.0545922 4.61268 0
M  V30 20784 H 1976.35 0.018069 4.33796 0
M  V30 20785 H 1977.03 -1.24142 5.37859 0
M  V30 20786 H 1979.5 -2.04159 3.62572 0
M  V30 20787 H 1978.38 -3.07133 4.54929 0
M  V30 20788 H 1978.64 -3.38717 2.84119 0
M  V30 20789 N 1977.7 -1.52352 -0.403298 0
M  V30 20790 C 1978.97 -1.57265 -1.16305 0
M  V30 20791 C 1979.35 -0.357181 -2.08056 0
M  V30 20792 O 1978.7 0.655551 -2.18894 0
M  V30 20793 C 1978.91 -2.90429 -1.93525 0
M  V30 20794 C 1980.26 -3.43643 -2.49388 0
M  V30 20795 O 1981.28 -2.92208 -2.03699 0
M  V30 20796 O 1980.14 -4.33474 -3.32809 0
M  V30 20797 H 1977.24 -0.633707 -0.531361 0
M  V30 20798 H 1979.78 -1.64682 -0.409607 0
M  V30 20799 H 1978.56 -3.70341 -1.26346 0
M  V30 20800 H 1978.18 -2.86331 -2.75862 0
M  V30 20801 N 1979.18 0.660885 -1.43074 0
M  V30 20802 C 1980.4 1.44878 -1.47709 0
M  V30 20803 C 1980.82 1.88573 -0.092615 0
M  V30 20804 O 1980.18 1.59015 0.89558 0
M  V30 20805 C 1980.23 2.6888 -2.41632 0
M  V30 20806 O 1979.95 2.27015 -3.74694 0
M  V30 20807 C 1981.45 3.62312 -2.5543 0
M  V30 20808 H 1978.67 0.445326 -0.501922 0
M  V30 20809 H 1981.21 0.810882 -1.87736 0
M  V30 20810 H 1979.37 3.28827 -2.0482 0
M  V30 20811 H 1979.78 3.07191 -4.25128 0
M  V30 20812 H 1981.26 4.46007 -3.25241 0
M  V30 20813 H 1981.73 4.09148 -1.59671 0
M  V30 20814 H 1982.34 3.08251 -2.93021 0
M  V30 20815 N 1980.65 1.29477 0.898527 0
M  V30 20816 C 1982.07 1.07514 1.17953 0
M  V30 20817 C 1982.27 -0.172814 2.00758 0
M  V30 20818 O 1981.33 -0.87025 2.37029 0
M  V30 20819 C 1982.64 2.33121 1.89934 0
M  V30 20820 C 1984.19 2.38452 2.02755 0
M  V30 20821 C 1984.66 3.63866 2.78146 0
M  V30 20822 N 1986.15 3.64595 2.857 0
M  V30 20823 C 1986.89 4.58319 3.44574 0
M  V30 20824 N 1986.38 5.62376 4.04605 0
M  V30 20825 N 1988.18 4.45887 3.42259 0
M  V30 20826 H 1980.33 2.09562 0.346076 0
M  V30 20827 H 1982.59 0.923108 0.215814 0
M  V30 20828 H 1982.3 3.2412 1.36526 0
M  V30 20829 H 1982.17 2.40721 2.90402 0
M  V30 20830 H 1984.56 1.47941 2.55338 0
M  V30 20831 H 1984.64 2.34837 1.01416 0
M  V30 20832 H 1984.28 4.54729 2.26239 0
M  V30 20833 H 1984.21 3.6474 3.79832 0
M  V30 20834 H 1986.7 2.89358 2.43064 0
M  V30 20835 H 1987.02 6.30012 4.47555 0
M  V30 20836 H 1985.36 5.66184 4.03064 0
M  V30 20837 H 1988.55 3.63786 2.9458 0
M  V30 20838 H 1988.73 5.19113 3.87848 0
M  V30 20839 N 1982.13 -1.10905 1.11972 0
M  V30 20840 C 1983.08 -2.19193 0.778293 0
M  V30 20841 C 1984.07 -1.67794 -0.232717 0
M  V30 20842 O 1985.28 -1.79768 -0.0914242 0
M  V30 20843 H 1981.66 -0.714722 0.23383 0
M  V30 20844 H 1983.63 -2.45233 1.7001 0
M  V30 20845 C 1982.38 -3.46844 0.24384 0
M  V30 20846 H 1981.7 -3.86752 1.01307 0
M  V30 20847 H 1983.14 -4.23978 0.0431918 0
M  V30 20848 C 1981.6 -3.2086 -1.02714 0
M  V30 20849 O 1982.13 -3.42078 -2.10584 0
M  V30 20850 N 1980.33 -2.74559 -0.952145 0
M  V30 20851 H 1979.88 -2.57493 -0.0742122 0
M  V30 20852 H 1979.84 -2.57551 -1.80319 0
M  V30 20853 N 1983.61 -0.910886 -1.2861 0
M  V30 20854 C 1984.86 -0.53847 -1.94379 0
M  V30 20855 C 1985.17 0.92185 -1.72515 0
M  V30 20856 O 1986.38 1.40229 -2.32482 0
M  V30 20857 C 1984.83 -0.91216 -3.48149 0
M  V30 20858 C 1984.44 -2.39201 -3.78796 0
M  V30 20859 C 1986.19 -0.610192 -4.20092 0
M  V30 20860 C 1984.09 -2.70598 -5.25862 0
M  V30 20861 H 1983.02 -0.197657 -0.727632 0
M  V30 20862 H 1985.67 -1.10941 -1.46165 0
M  V30 20863 H 1984.06 -0.270034 -3.95078 0
M  V30 20864 H 1985.23 -3.08063 -3.42686 0
M  V30 20865 H 1983.55 -2.66414 -3.20019 0
M  V30 20866 H 1986.14 -0.821472 -5.28352 0
M  V30 20867 H 1986.49 0.451862 -4.1384 0
M  V30 20868 H 1987.02 -1.21066 -3.7893 0
M  V30 20869 H 1983.76 -3.75645 -5.37188 0
M  V30 20870 H 1983.28 -2.0637 -5.6318 0
M  V30 20871 H 1984.96 -2.57451 -5.93572 0
M  V30 20872 N 1985.09 1.42434 -0.674558 0
M  V30 20873 C 1986.32 2.05881 -0.205113 0
M  V30 20874 C 1986.73 1.50677 1.13763 0
M  V30 20875 O 1986.09 0.646479 1.70666 0
M  V30 20876 C 1986.14 3.61262 -0.131194 0
M  V30 20877 O 1985.86 4.14419 -1.42087 0
M  V30 20878 C 1987.36 4.41821 0.361775 0
M  V30 20879 H 1984.58 0.663535 -0.0998083 0
M  V30 20880 H 1987.13 1.82575 -0.921226 0
M  V30 20881 H 1985.28 3.8368 0.535604 0
M  V30 20882 H 1985.69 5.08285 -1.29407 0
M  V30 20883 H 1987.17 5.50809 0.362405 0
M  V30 20884 H 1987.65 4.1639 1.39699 0
M  V30 20885 H 1988.25 4.24421 -0.273278 0
M  V30 20886 N 1986.57 0.417871 1.51959 0
M  V30 20887 C 1987.51 -0.417897 2.28815 0
M  V30 20888 C 1988.51 -1.03814 1.33862 0
M  V30 20889 O 1989.71 -0.975341 1.51285 0
M  V30 20890 H 1986.09 -0.153557 0.736155 0
M  V30 20891 H 1988.06 0.25142 2.97339 0
M  V30 20892 C 1986.81 -1.51752 3.12836 0
M  V30 20893 H 1986.13 -1.0496 3.85776 0
M  V30 20894 H 1987.57 -2.07595 3.69703 0
M  V30 20895 C 1986.03 -2.48983 2.26957 0
M  V30 20896 O 1986.56 -3.53072 1.91581 0
M  V30 20897 N 1984.77 -2.19401 1.90556 0
M  V30 20898 H 1984.31 -1.34786 2.19524 0
M  V30 20899 H 1984.27 -2.84701 1.3339 0
M  V30 20900 N 1988.04 -1.56898 0.148573 0
M  V30 20901 C 1989.46 -1.58241 -0.207826 0
M  V30 20902 C 1989.66 -1.16291 -1.64556 0
M  V30 20903 O 1988.72 -0.863939 -2.3726 0
M  V30 20904 C 1990.03 -3.00654 0.0523559 0
M  V30 20905 C 1991.58 -3.12998 -0.0112297 0
M  V30 20906 C 1992.05 -4.57463 0.221641 0
M  V30 20907 N 1993.54 -4.62893 0.168624 0
M  V30 20908 C 1994.28 -5.72488 0.323296 0
M  V30 20909 N 1993.77 -6.90725 0.535776 0
M  V30 20910 N 1995.57 -5.61495 0.26079 0
M  V30 20911 H 1987.72 -1.82459 1.08731 0
M  V30 20912 H 1989.98 -0.8446 0.430529 0
M  V30 20913 H 1989.69 -3.3574 1.04745 0
M  V30 20914 H 1989.56 -3.71268 -0.666346 0
M  V30 20915 H 1991.95 -2.77752 -0.996873 0
M  V30 20916 H 1992.03 -2.44868 0.739826 0
M  V30 20917 H 1991.67 -4.93413 1.20439 0
M  V30 20918 H 1991.6 -5.23722 -0.549756 0
M  V30 20919 H 1994.09 -3.77899 0.00911581 0
M  V30 20920 H 1994.41 -7.70113 0.643862 0
M  V30 20921 H 1992.75 -6.92641 0.572117 0
M  V30 20922 H 1995.94 -4.68002 0.095543 0
M  V30 20923 H 1996.12 -6.46857 0.384765 0
M  V30 20924 N 1989.52 0.125209 -1.57102 0
M  V30 20925 C 1990.75 0.852378 -1.89075 0
M  V30 20926 C 1991.17 1.72938 -0.739878 0
M  V30 20927 O 1990.53 1.78633 0.309828 0
M  V30 20928 C 1990.58 1.66688 -3.19762 0
M  V30 20929 O 1989.68 2.77324 -3.0523 0
M  V30 20930 H 1989.02 0.236103 -0.620606 0
M  V30 20931 H 1991.55 0.109473 -2.04307 0
M  V30 20932 H 1991.56 2.0574 -3.52328 0
M  V30 20933 H 1990.24 1.02303 -4.03121 0
M  V30 20934 H 1988.82 2.41519 -2.84118 0
M  V30 20935 N 1991 1.52564 0.395213 0
M  V30 20936 C 1992.28 1.5788 1.1547 0
M  V30 20937 C 1992.66 0.36821 2.07864 0
M  V30 20938 O 1992.01 -0.643933 2.19239 0
M  V30 20939 C 1992.22 2.91451 1.91982 0
M  V30 20940 C 1993.56 3.44961 2.47562 0
M  V30 20941 O 1994.59 2.93284 2.02146 0
M  V30 20942 O 1993.45 4.35233 3.30506 0
M  V30 20943 H 1990.54 0.636516 0.527993 0
M  V30 20944 H 1993.09 1.64897 0.400867 0
M  V30 20945 H 1991.86 3.71006 1.2438 0
M  V30 20946 H 1991.48 2.8779 2.7434 0
M  V30 20947 N 1992.48 -0.653289 1.43422 0
M  V30 20948 C 1993.72 -1.42498 1.46539 0
M  V30 20949 C 1994.08 -1.91802 0.087095 0
M  V30 20950 O 1995.28 -2.68799 -0.00704917 0
M  V30 20951 C 1993.55 -2.57481 2.47868 0
M  V30 20952 S 1995.11 -3.46008 2.69859 0
M  V30 20953 H 1991.93 -0.486421 0.518571 0
M  V30 20954 H 1994.53 -0.758465 1.80188 0
M  V30 20955 H 1993.24 -2.19533 3.46747 0
M  V30 20956 H 1992.77 -3.28983 2.15717 0
M  V30 20957 H 1994.78 -4.54205 1.9978 0
M  V30 20958 N 1993.96 -1.29952 -0.891648 0
M  V30 20959 C 1994.89 -1.10092 -1.99887 0
M  V30 20960 C 1995.87 -0.0104614 -1.62597 0
M  V30 20961 O 1997.05 -0.162725 -1.87796 0
M  V30 20962 C 1994.18 -0.677652 -3.31852 0
M  V30 20963 C 1993.22 -1.768 -3.88129 0
M  V30 20964 S 1994.06 -3.36899 -4.16244 0
M  V30 20965 C 1995.21 -2.96459 -5.51237 0
M  V30 20966 H 1995.45 -2.0383 -2.16427 0
M  V30 20967 H 1992.98 -1.1419 -1.03923 0
M  V30 20968 H 1994.94 -0.440168 -4.08133 0
M  V30 20969 H 1993.6 0.240259 -3.1318 0
M  V30 20970 H 1992.79 -1.42397 -4.83466 0
M  V30 20971 H 1992.39 -1.95942 -3.18564 0
M  V30 20972 H 1994.69 -2.44005 -6.32035 0
M  V30 20973 H 1995.63 -3.90678 -5.90573 0
M  V30 20974 H 1996.04 -2.3452 -5.13479 0
M  V30 20975 N 1995.44 1.1031 -1.12559 0
M  V30 20976 C 1996.4 2.14869 -0.79773 0
M  V30 20977 C 1997.4 1.59691 0.188521 0
M  V30 20978 O 1998.59 1.7416 -0.037433 0
M  V30 20979 C 1995.72 3.40394 -0.185665 0
M  V30 20980 H 1996.91 2.45384 -1.72415 0
M  V30 20981 H 1994.47 1.25694 -0.929011 0
M  V30 20982 H 1995.2 3.15499 0.750409 0
M  V30 20983 H 1994.99 3.81731 -0.895771 0
M  V30 20984 H 1996.48 4.17591 0.0271848 0
M  V30 20985 N 1996.91 0.917694 1.28125 0
M  V30 20986 C 1997.88 0.413823 2.25433 0
M  V30 20987 C 1998.88 -0.46205 1.54019 0
M  V30 20988 O 2000.07 -0.264546 1.7218 0
M  V30 20989 C 1997.2 -0.406249 3.38471 0
M  V30 20990 H 1998.39 1.27345 2.7152 0
M  V30 20991 H 1995.94 0.697455 1.39876 0
M  V30 20992 H 1996.68 -1.28511 2.97751 0
M  V30 20993 H 1996.46 0.221601 3.91473 0
M  V30 20994 H 1997.95 -0.749491 4.10819 0
M  V30 20995 N 1998.39 -1.42074 0.682102 0
M  V30 20996 C 1999.34 -2.326 -0.00324978 0
M  V30 20997 C 2000.33 -1.50226 -0.782851 0
M  V30 20998 O 2001.54 -1.6625 -0.689991 0
M  V30 20999 H 1997.91 -0.751738 -0.0198484 0
M  V30 21000 H 1999.89 -2.88093 0.777513 0
M  V30 21001 C 1998.63 -3.3488 -0.935455 0
M  V30 21002 H 1997.96 -3.98309 -0.344986 0
M  V30 21003 H 1999.4 -4.00791 -1.38355 0
M  V30 21004 C 1997.86 -2.67711 -2.0453 0
M  V30 21005 O 1998.39 -2.5146 -3.13258 0
M  V30 21006 N 1996.59 -2.2662 -1.81912 0
M  V30 21007 H 1996.14 -2.40037 -0.934876 0
M  V30 21008 H 1996.1 -1.82011 -2.56358 0
M  V30 21009 N 1999.87 -0.425924 -1.51735 0
M  V30 21010 C 2001.1 0.143143 -2.06104 0
M  V30 21011 C 2001.51 1.37989 -1.29444 0
M  V30 21012 O 2000.85 1.80448 -0.344147 0
M  V30 21013 C 2000.91 0.541996 -3.55391 0
M  V30 21014 C 2000.58 -0.586352 -4.53223 0
M  V30 21015 C 2001.57 -1.45505 -4.99124 0
M  V30 21016 C 1999.26 -0.763832 -4.96458 0
M  V30 21017 C 2001.25 -2.48602 -5.86921 0
M  V30 21018 C 1998.94 -1.79809 -5.84048 0
M  V30 21019 C 1999.94 -2.65758 -6.29175 0
M  V30 21020 O 1999.63 -3.67411 -7.15028 0
M  V30 21021 H 1999.36 0.0164528 -0.6758 0
M  V30 21022 H 2001.91 -0.60044 -1.96428 0
M  V30 21023 H 2000.14 1.33811 -3.6281 0
M  V30 21024 H 2001.83 1.0409 -3.92326 0
M  V30 21025 H 2002.6 -1.32941 -4.66424 0
M  V30 21026 H 1998.48 -0.10445 -4.60882 0
M  V30 21027 H 2002.02 -3.15721 -6.22066 0
M  V30 21028 H 1997.92 -1.92397 -6.1616 0
M  V30 21029 H 1998.68 -3.63855 -7.33179 0
M  V30 21030 N 2001.35 1.56817 -0.156891 0
M  V30 21031 C 2002.76 1.58349 0.199431 0
M  V30 21032 C 2002.96 1.17163 1.63937 0
M  V30 21033 O 2002.02 0.87651 2.36799 0
M  V30 21034 C 2003.33 3.00622 -0.0682996 0
M  V30 21035 C 2004.88 3.13 -0.00536951 0
M  V30 21036 C 2005.36 4.57339 -0.245899 0
M  V30 21037 N 2006.85 4.62797 -0.19317 0
M  V30 21038 C 2007.58 5.72308 -0.353652 0
M  V30 21039 N 2007.08 6.90431 -0.5724 0
M  V30 21040 N 2008.87 5.61349 -0.290563 0
M  V30 21041 H 2001.02 1.8188 -1.09697 0
M  V30 21042 H 2003.28 0.842304 -0.435002 0
M  V30 21043 H 2002.99 3.3518 -1.06524 0
M  V30 21044 H 2002.86 3.71616 0.646647 0
M  V30 21045 H 2005.25 2.78277 0.98213 0
M  V30 21046 H 2005.33 2.44472 -0.752801 0
M  V30 21047 H 2004.98 4.92768 -1.23054 0
M  V30 21048 H 2004.91 5.24007 0.521974 0
M  V30 21049 H 2007.4 3.77889 -0.0291566 0
M  V30 21050 H 2007.71 7.69761 -0.684694 0
M  V30 21051 H 2006.06 6.92328 -0.608841 0
M  V30 21052 H 2009.25 4.67945 -0.120361 0
M  V30 21053 H 2009.42 6.46644 -0.419064 0
M  V30 21054 N 2002.83 -0.116876 1.57166 0
M  V30 21055 C 2004.07 -0.820513 1.86116 0
M  V30 21056 C 2004.43 -1.77394 0.744929 0
M  V30 21057 O 2003.72 -1.89897 -0.254897 0
M  V30 21058 C 2003.91 -1.60659 3.19255 0
M  V30 21059 C 2003.74 -0.730782 4.43723 0
M  V30 21060 C 2002.51 -0.384808 5.03833 0
M  V30 21061 C 2004.71 -0.0474598 5.14278 0
M  V30 21062 N 2002.69 0.501438 6.11849 0
M  V30 21063 C 2004.06 0.697704 6.16062 0
M  V30 21064 C 2006.12 0.0287378 4.97892 0
M  V30 21065 C 2004.82 1.51191 7.03231 0
M  V30 21066 C 2006.85 0.829778 5.8555 0
M  V30 21067 C 2006.21 1.56313 6.86837 0
M  V30 21068 H 2002.31 -0.277109 0.731256 0
M  V30 21069 H 2004.89 -0.084139 1.94518 0
M  V30 21070 H 2003.06 -2.31398 3.11944 0
M  V30 21071 H 2004.8 -2.25572 3.36005 0
M  V30 21072 H 2001.55 -0.727532 4.67979 0
M  V30 21073 H 2001.97 0.936473 6.70492 0
M  V30 21074 H 2006.62 -0.523887 4.19542 0
M  V30 21075 H 2004.33 2.07569 7.80987 0
M  V30 21076 H 2007.92 0.891123 5.74935 0
M  V30 21077 H 2006.8 2.173 7.53492 0
M  V30 21078 N 2004.3 -1.52772 -0.387116 0
M  V30 21079 C 2005.55 -1.68156 -1.13364 0
M  V30 21080 C 2005.88 -0.421195 -1.89577 0
M  V30 21081 O 2005.16 0.581056 -1.85618 0
M  V30 21082 C 2005.44 -2.91781 -2.11036 0
M  V30 21083 C 2005.29 -4.27922 -1.38573 0
M  V30 21084 C 2006.61 -3.10957 -3.11438 0
M  V30 21085 H 2003.73 -0.611922 -0.410755 0
M  V30 21086 H 2006.37 -1.85372 -0.416809 0
M  V30 21087 H 2004.52 -2.77234 -2.72165 0
M  V30 21088 H 2006.2 -4.54241 -0.803941 0
M  V30 21089 H 2004.44 -4.28316 -0.687576 0
M  V30 21090 H 2005.11 -5.10514 -2.09952 0
M  V30 21091 H 2007.59 -3.24547 -2.604 0
M  V30 21092 H 2006.46 -3.9893 -3.77022 0
M  V30 21093 H 2006.72 -2.25258 -3.80409 0
M  V30 21094 N 2005.78 0.645673 -1.43767 0
M  V30 21095 C 2006.73 1.75163 -1.45952 0
M  V30 21096 C 2007.72 1.57541 -0.327037 0
M  V30 21097 O 2008.91 1.67525 -0.571347 0
M  V30 21098 C 2006.04 3.13787 -1.39257 0
M  V30 21099 C 2005.12 3.3693 -2.57564 0
M  V30 21100 N 2005.51 3.30508 -3.82881 0
M  V30 21101 C 2003.81 3.67676 -2.52449 0
M  V30 21102 C 2004.51 3.5394 -4.61629 0
M  V30 21103 N 2003.49 3.76116 -3.92476 0
M  V30 21104 H 2007.29 1.68634 -2.40707 0
M  V30 21105 H 2004.8 0.847619 -1.38525 0
M  V30 21106 H 2006.8 3.93079 -1.38905 0
M  V30 21107 H 2005.46 3.21492 -0.455285 0
M  V30 21108 H 2006.47 3.09751 -4.1506 0
M  V30 21109 H 2003.15 3.8245 -1.67445 0
M  V30 21110 H 2004.54 3.5469 -5.70653 0
M  V30 21111 N 2007.26 1.30423 0.884744 0
M  V30 21112 C 2008.21 1.13434 1.97779 0
M  V30 21113 C 2009.19 0.0494483 1.60824 0
M  V30 21114 O 2010.39 0.272793 1.74885 0
M  V30 21115 C 2007.51 0.828489 3.33153 0
M  V30 21116 C 2006.6 1.95365 3.76422 0
M  V30 21117 N 2006.99 3.19903 3.91785 0
M  V30 21118 C 2005.29 1.85007 4.05818 0
M  V30 21119 C 2005.99 3.93408 4.28492 0
M  V30 21120 N 2004.97 3.2146 4.38366 0
M  V30 21121 H 2008.77 2.07889 2.07748 0
M  V30 21122 H 2006.28 1.21765 1.07457 0
M  V30 21123 H 2008.28 0.687799 4.11187 0
M  V30 21124 H 2006.94 -0.107985 3.2452 0
M  V30 21125 H 2007.95 3.55189 3.7691 0
M  V30 21126 H 2004.63 0.987286 4.05659 0
M  V30 21127 H 2006.02 5.00656 4.48099 0
M  V30 21128 N 2008.74 -1.09711 1.13142 0
M  V30 21129 C 2009.68 -2.16265 0.806118 0
M  V30 21130 C 2010.65 -1.64493 -0.230476 0
M  V30 21131 O 2011.84 -1.9052 -0.103375 0
M  V30 21132 C 2008.98 -3.44002 0.275075 0
M  V30 21133 C 2008.09 -4.09688 1.37038 0
M  V30 21134 C 2007.23 -5.25172 0.797983 0
M  V30 21135 C 2006.27 -5.82775 1.87189 0
M  V30 21136 N 2005.4 -6.89625 1.31766 0
M  V30 21137 H 2010.24 -2.43434 1.71883 0
M  V30 21138 H 2007.78 -1.19482 0.858044 0
M  V30 21139 H 2009.74 -4.17169 -0.0509244 0
M  V30 21140 H 2008.37 -3.1716 -0.600779 0
M  V30 21141 H 2007.42 -3.34415 1.81302 0
M  V30 21142 H 2008.73 -4.48535 2.18215 0
M  V30 21143 H 2007.89 -6.05223 0.423093 0
M  V30 21144 H 2006.63 -4.87679 -0.0448997 0
M  V30 21145 H 2005.63 -5.01388 2.25588 0
M  V30 21146 H 2006.86 -6.2233 2.71812 0
M  V30 21147 H 2004.8 -6.54117 0.496729 0
M  V30 21148 H 2004.72 -7.27224 2.06594 0
M  V30 21149 H 2005.99 -7.73438 0.970242 0
M  V30 21150 N 2010.22 -0.924476 -1.27637 0
M  V30 21151 C 2011.45 -0.57859 -1.98333 0
M  V30 21152 C 2011.85 0.846979 -1.69183 0
M  V30 21153 O 2011.2 1.57405 -0.94706 0
M  V30 21154 C 2011.26 -0.720732 -3.52201 0
M  V30 21155 C 2010.92 -2.11783 -4.04966 0
M  V30 21156 C 2011.92 -3.09167 -4.17986 0
M  V30 21157 C 2009.61 -2.4339 -4.39393 0
M  V30 21158 C 2011.6 -4.36269 -4.64702 0
M  V30 21159 C 2009.29 -3.70729 -4.85802 0
M  V30 21160 C 2010.28 -4.66982 -4.98415 0
M  V30 21161 O 2009.97 -5.92055 -5.43807 0
M  V30 21162 H 2009.7 -0.218317 -0.639776 0
M  V30 21163 H 2012.26 -1.24281 -1.63534 0
M  V30 21164 H 2010.49 0.000580874 -3.867 0
M  V30 21165 H 2012.18 -0.380377 -4.04114 0
M  V30 21166 H 2012.94 -2.86068 -3.9165 0
M  V30 21167 H 2008.82 -1.69216 -4.2882 0
M  V30 21168 H 2012.37 -5.11402 -4.74462 0
M  V30 21169 H 2008.26 -3.93647 -5.11578 0
M  V30 21170 H 2009.03 -5.94997 -5.62068 0
M  V30 21171 N 2011.69 1.41711 -0.689627 0
M  V30 21172 C 2012.64 2.32598 -0.0090856 0
M  V30 21173 C 2013.64 1.50639 0.774873 0
M  V30 21174 O 2014.84 1.66614 0.681165 0
M  V30 21175 H 2011.22 0.751833 0.0158614 0
M  V30 21176 H 2013.19 2.87676 -0.79278 0
M  V30 21177 C 2011.94 3.35371 0.917683 0
M  V30 21178 H 2011.26 3.98486 0.323858 0
M  V30 21179 H 2012.7 4.0152 1.36228 0
M  V30 21180 C 2011.16 2.68792 2.03107 0
M  V30 21181 O 2011.69 2.53118 3.1192 0
M  V30 21182 N 2009.9 2.27581 1.80708 0
M  V30 21183 H 2009.44 2.4053 0.922133 0
M  V30 21184 H 2009.4 1.83368 2.55389 0
M  V30 21185 N 2013.17 0.433965 1.51507 0
M  V30 21186 C 2014.42 -0.133629 2.02059 0
M  V30 21187 C 2014.75 -1.43006 1.31831 0
M  V30 21188 O 2014 -1.91121 0.420883 0
M  V30 21189 C 2014.3 -0.403136 3.55119 0
M  V30 21190 C 2013.97 0.807078 4.43618 0
M  V30 21191 C 2012.63 1.13897 4.67526 0
M  V30 21192 C 2014.98 1.61458 4.95561 0
M  V30 21193 C 2012.31 2.27911 5.40623 0
M  V30 21194 C 2014.66 2.74568 5.69908 0
M  V30 21195 C 2013.33 3.08215 5.92081 0
M  V30 21196 H 2012.6 -0.0488983 0.739385 0
M  V30 21197 H 2015.24 0.58047 1.82491 0
M  V30 21198 H 2013.55 -1.19909 3.73 0
M  V30 21199 H 2015.24 -0.85567 3.91764 0
M  V30 21200 H 2011.83 0.538448 4.25204 0
M  V30 21201 H 2016.02 1.37137 4.76977 0
M  V30 21202 H 2011.27 2.54298 5.56006 0
M  V30 21203 H 2015.45 3.3751 6.09147 0
M  V30 21204 H 2013.08 3.96674 6.48501 0
M  V30 21205 N 2014.65 -1.56732 0.165206 0
M  V30 21206 C 2015.93 -1.88357 -0.527344 0
M  V30 21207 C 2016.31 -1.07412 -1.8173 0
M  V30 21208 O 2015.66 -0.166236 -2.27895 0
M  V30 21209 C 2015.87 -3.40282 -0.775175 0
M  V30 21210 C 2017.21 -4.09891 -1.10789 0
M  V30 21211 O 2018.24 -3.45565 -0.863921 0
M  V30 21212 O 2017.1 -5.23527 -1.56787 0
M  V30 21213 H 2014.19 -0.781304 -0.271096 0
M  V30 21214 H 2016.74 -1.68479 0.203183 0
M  V30 21215 H 2015.51 -3.9106 0.137 0
M  V30 21216 H 2015.13 -3.65751 -1.55924 0
M  V30 21217 N 2016.13 0.10854 -1.57226 0
M  V30 21218 C 2017.08 1.15155 -2.02094 0
M  V30 21219 C 2018.07 1.42263 -0.919651 0
M  V30 21220 O 2019.28 1.42102 -1.10485 0
M  V30 21221 H 2015.65 0.388515 -0.643863 0
M  V30 21222 H 2017.62 0.746707 -2.88906 0
M  V30 21223 C 2016.37 2.46727 -2.44992 0
M  V30 21224 H 2015.69 2.26708 -3.29307 0
M  V30 21225 H 2017.13 3.18242 -2.80175 0
M  V30 21226 C 2015.59 3.10059 -1.31776 0
M  V30 21227 O 2016.12 3.96577 -0.639471 0
M  V30 21228 N 2014.33 2.70099 -1.07215 0
M  V30 21229 H 2013.88 1.99837 -1.62552 0
M  V30 21230 H 2013.83 3.12802 -0.316602 0
M  V30 21231 N 2017.61 1.52975 0.379009 0
M  V30 21232 C 2018.54 1.81436 1.46981 0
M  V30 21233 C 2019.52 0.666985 1.56478 0
M  V30 21234 O 2020.7 0.915545 1.71264 0
M  V30 21235 C 2017.83 1.99221 2.84479 0
M  V30 21236 C 2016.79 3.14946 2.89816 0
M  V30 21237 C 2016.11 3.18001 4.2986 0
M  V30 21238 C 2017.41 4.53814 2.58554 0
M  V30 21239 H 2019.11 2.72781 1.23413 0
M  V30 21240 H 2016.65 1.31257 0.592257 0
M  V30 21241 H 2018.61 2.17714 3.60803 0
M  V30 21242 H 2017.33 1.04573 3.09406 0
M  V30 21243 H 2015.99 2.96251 2.15942 0
M  V30 21244 H 2015.64 2.21017 4.51841 0
M  V30 21245 H 2015.34 3.95746 4.34349 0
M  V30 21246 H 2016.86 3.38662 5.08075 0
M  V30 21247 H 2018.27 4.72559 3.24593 0
M  V30 21248 H 2016.67 5.33701 2.74379 0
M  V30 21249 H 2017.74 4.59845 1.53853 0
M  V30 21250 N 2019.08 -0.63804 1.44107 0
M  V30 21251 C 2020.33 -1.39496 1.46237 0
M  V30 21252 C 2020.65 -1.94776 0.093533 0
M  V30 21253 O 2019.92 -1.75361 -0.873231 0
M  V30 21254 H 2018.5 -0.517763 0.538452 0
M  V30 21255 H 2021.17 -0.751452 1.79831 0
M  V30 21256 H 2020.26 -2.22974 2.18378 0
M  V30 21257 N 2020.56 -1.3089 -0.877815 0
M  V30 21258 C 2021.49 -1.13694 -1.99013 0
M  V30 21259 C 2022.51 -0.0781797 -1.62612 0
M  V30 21260 O 2023.7 -0.324906 -1.75518 0
M  V30 21261 C 2020.8 -0.713232 -3.3131 0
M  V30 21262 C 2019.97 -1.8553 -3.96103 0
M  V30 21263 C 2019.03 -1.41895 -5.06707 0
M  V30 21264 O 2018.05 -2.12734 -5.27952 0
M  V30 21265 N 2019.26 -0.301958 -5.79714 0
M  V30 21266 H 2022.02 -2.09499 -2.14313 0
M  V30 21267 H 2019.58 -1.2312 -1.05133 0
M  V30 21268 H 2021.57 -0.404189 -4.02677 0
M  V30 21269 H 2020.14 0.152987 -3.12225 0
M  V30 21270 H 2019.36 -2.33208 -3.17817 0
M  V30 21271 H 2020.65 -2.62046 -4.3613 0
M  V30 21272 H 2020.05 0.288154 -5.64966 0
M  V30 21273 H 2018.61 -0.0524068 -6.51779 0
M  V30 21274 N 2022.04 1.0911 -1.13723 0
M  V30 21275 C 2023 2.14011 -0.820475 0
M  V30 21276 C 2024 1.59882 0.171573 0
M  V30 21277 O 2025.19 1.7411 -0.0559029 0
M  V30 21278 C 2022.33 3.40178 -0.221758 0
M  V30 21279 H 2023.52 2.43541 -1.75007 0
M  V30 21280 H 2021.07 1.24702 -0.94229 0
M  V30 21281 H 2021.81 3.16277 0.716904 0
M  V30 21282 H 2021.59 3.80759 -0.936208 0
M  V30 21283 H 2023.08 4.17596 -0.0171079 0
M  V30 21284 N 2023.52 0.931232 1.27145 0
M  V30 21285 C 2024.45 0.450505 2.29113 0
M  V30 21286 C 2025.43 -0.491043 1.62858 0
M  V30 21287 O 2026.61 -0.395036 1.9014 0
M  V30 21288 C 2023.74 -0.29432 3.46051 0
M  V30 21289 C 2022.7 0.559727 4.24324 0
M  V30 21290 C 2022.02 -0.314473 5.33774 0
M  V30 21291 C 2023.32 1.826 4.89341 0
M  V30 21292 H 2025.02 1.3027 2.69574 0
M  V30 21293 H 2022.56 0.627845 1.29592 0
M  V30 21294 H 2024.52 -0.641592 4.16487 0
M  V30 21295 H 2023.24 -1.18057 3.04516 0
M  V30 21296 H 2021.9 0.889756 3.55639 0
M  V30 21297 H 2021.55 -1.19978 4.88482 0
M  V30 21298 H 2021.25 0.253489 5.87053 0
M  V30 21299 H 2022.77 -0.657238 6.07053 0
M  V30 21300 H 2024.19 1.54659 5.52045 0
M  V30 21301 H 2022.58 2.33775 5.52693 0
M  V30 21302 H 2023.65 2.5434 4.12842 0
M  V30 21303 N 2025 -1.41343 0.697132 0
M  V30 21304 C 2025.93 -2.28193 -0.017778 0
M  V30 21305 C 2026.91 -1.4232 -0.786373 0
M  V30 21306 O 2028.09 -1.71747 -0.776865 0
M  V30 21307 C 2025.22 -3.22577 -1.03256 0
M  V30 21308 C 2024.27 -4.25004 -0.356949 0
M  V30 21309 S 2025.1 -5.27852 0.901798 0
M  V30 21310 C 2026.25 -6.25801 -0.111346 0
M  V30 21311 H 2026.49 -2.88479 0.718839 0
M  V30 21312 H 2024.02 -1.46503 0.487463 0
M  V30 21313 H 2025.98 -3.77487 -1.61288 0
M  V30 21314 H 2024.64 -2.61384 -1.74176 0
M  V30 21315 H 2023.83 -4.9132 -1.12343 0
M  V30 21316 H 2023.43 -3.73698 0.150343 0
M  V30 21317 H 2025.73 -6.70605 -0.964122 0
M  V30 21318 H 2026.67 -7.06203 0.517933 0
M  V30 21319 H 2027.08 -5.62566 -0.466819 0
M  V30 21320 N 2026.48 -0.441993 -1.51275 0
M  V30 21321 C 2027.7 0.123815 -2.0703 0
M  V30 21322 C 2028.13 1.35293 -1.30681 0
M  V30 21323 O 2027.48 1.77966 -0.346072 0
M  V30 21324 C 2027.53 0.419988 -3.58146 0
M  V30 21325 O 2026.64 1.50565 -3.83932 0
M  V30 21326 H 2025.98 -0.00017643 -0.664 0
M  V30 21327 H 2028.51 -0.624668 -1.94831 0
M  V30 21328 H 2028.52 0.66908 -4.02476 0
M  V30 21329 H 2027.19 -0.478329 -4.1314 0
M  V30 21330 H 2025.77 1.24615 -3.51462 0
M  V30 21331 N 2027.95 1.56642 -0.173515 0
M  V30 21332 C 2028.88 2.21076 0.751509 0
M  V30 21333 C 2029.86 1.16706 1.23749 0
M  V30 21334 O 2031.05 1.45142 1.29025 0
M  V30 21335 C 2028.18 2.85323 1.9801 0
M  V30 21336 C 2027.13 3.95751 1.62989 0
M  V30 21337 C 2026.46 4.47058 2.93332 0
M  V30 21338 C 2027.76 5.15234 0.856231 0
M  V30 21339 H 2029.45 2.98631 0.21442 0
M  V30 21340 H 2027 1.4364 0.101692 0
M  V30 21341 H 2028.95 3.29075 2.63226 0
M  V30 21342 H 2027.68 2.0514 2.54136 0
M  V30 21343 H 2026.34 3.52658 1.00141 0
M  V30 21344 H 2025.98 3.63663 3.47503 0
M  V30 21345 H 2025.68 5.21556 2.70652 0
M  V30 21346 H 2027.21 4.93497 3.59573 0
M  V30 21347 H 2028.62 5.55665 1.41102 0
M  V30 21348 H 2027.02 5.95663 0.728389 0
M  V30 21349 H 2028.09 4.84677 -0.147009 0
M  V30 21350 N 2029.43 -0.1002 1.57281 0
M  V30 21351 C 2030.68 -0.804623 1.85828 0
M  V30 21352 C 2031.01 -1.78981 0.761313 0
M  V30 21353 O 2030.26 -1.94153 -0.245591 0
M  V30 21354 C 2030.56 -1.57263 3.20941 0
M  V30 21355 C 2030.23 -0.730033 4.44951 0
M  V30 21356 C 2028.89 -0.497735 4.78619 0
M  V30 21357 C 2031.24 -0.143946 5.21001 0
M  V30 21358 C 2028.57 0.330597 5.85768 0
M  V30 21359 C 2030.92 0.671681 6.29024 0
M  V30 21360 C 2029.58 0.914119 6.61211 0
M  V30 21361 H 2028.85 -0.294433 0.679993 0
M  V30 21362 H 2031.5 -0.0662872 1.91385 0
M  V30 21363 H 2029.81 -2.3824 3.11045 0
M  V30 21364 H 2031.5 -2.12197 3.40255 0
M  V30 21365 H 2028.09 -0.921196 4.18583 0
M  V30 21366 H 2032.28 -0.310588 4.95327 0
M  V30 21367 H 2027.53 0.527461 6.09121 0
M  V30 21368 H 2031.71 1.13271 6.87126 0
M  V30 21369 H 2029.33 1.55777 7.44068 0
M  V30 21370 N 2030.91 -1.53174 -0.370891 0
M  V30 21371 C 2032.16 -1.69349 -1.11574 0
M  V30 21372 C 2032.49 -0.441278 -1.8912 0
M  V30 21373 O 2031.76 0.561336 -1.86224 0
M  V30 21374 C 2032.05 -2.94003 -2.07929 0
M  V30 21375 C 2031.9 -4.29368 -1.34027 0
M  V30 21376 C 2033.22 -3.14243 -3.08123 0
M  V30 21377 H 2030.34 -0.616245 -0.404242 0
M  V30 21378 H 2032.98 -1.85803 -0.397124 0
M  V30 21379 H 2031.13 -2.80105 -2.69209 0
M  V30 21380 H 2032.8 -4.55068 -0.755718 0
M  V30 21381 H 2031.04 -4.29021 -0.642108 0
M  V30 21382 H 2031.72 -5.12712 -2.04525 0
M  V30 21383 H 2034.19 -3.27291 -2.56943 0
M  V30 21384 H 2033.07 -4.02907 -3.7277 0
M  V30 21385 H 2033.33 -2.2928 -3.77999 0
M  V30 21386 N 2032.39 0.630389 -1.44443 0
M  V30 21387 C 2033.32 1.75348 -1.54192 0
M  V30 21388 C 2034.3 1.65453 -0.394887 0
M  V30 21389 O 2035.48 1.84201 -0.615103 0
M  V30 21390 C 2032.61 3.13881 -1.48647 0
M  V30 21391 C 2031.57 3.38566 -2.61835 0
M  V30 21392 C 2030.89 4.77136 -2.41341 0
M  V30 21393 C 2032.19 3.31055 -4.0398 0
M  V30 21394 H 2033.89 1.67446 -2.48198 0
M  V30 21395 H 2031.43 0.804159 -1.19454 0
M  V30 21396 H 2033.39 3.92226 -1.54068 0
M  V30 21397 H 2032.11 3.22568 -0.511585 0
M  V30 21398 H 2030.77 2.62602 -2.55805 0
M  V30 21399 H 2030.42 4.82527 -1.42043 0
M  V30 21400 H 2030.12 4.9461 -3.1723 0
M  V30 21401 H 2031.64 5.57709 -2.48581 0
M  V30 21402 H 2033.06 3.99304 -4.11375 0
M  V30 21403 H 2031.45 3.60064 -4.80077 0
M  V30 21404 H 2032.52 2.28852 -4.27498 0
M  V30 21405 N 2033.87 1.31354 0.870861 0
M  V30 21406 C 2034.83 1.18889 1.95954 0
M  V30 21407 C 2035.83 0.116227 1.60379 0
M  V30 21408 O 2037.02 0.365426 1.70324 0
M  V30 21409 C 2034.15 0.824704 3.30774 0
M  V30 21410 H 2035.34 2.15624 2.08438 0
M  V30 21411 H 2032.9 1.14952 1.05904 0
M  V30 21412 H 2033.63 -0.141533 3.23991 0
M  V30 21413 H 2033.42 1.60006 3.57967 0
M  V30 21414 H 2034.91 0.761361 4.10601 0
M  V30 21415 N 2035.34 -1.08505 1.143 0
M  V30 21416 C 2036.57 -1.85155 0.934475 0
M  V30 21417 C 2036.99 -1.81002 -0.511866 0
M  V30 21418 O 2036.35 -1.19437 -1.36398 0
M  V30 21419 C 2036.4 -3.30656 1.43871 0
M  V30 21420 O 2035.5 -4.07557 0.630143 0
M  V30 21421 H 2034.84 -0.573775 0.334183 0
M  V30 21422 H 2037.37 -1.36959 1.51998 0
M  V30 21423 H 2037.38 -3.815 1.44644 0
M  V30 21424 H 2036.06 -3.32995 2.49173 0
M  V30 21425 H 2034.64 -3.66441 0.691067 0
M  V30 21426 N 2036.82 -0.937962 -1.26649 0
M  V30 21427 C 2037.77 -0.443717 -2.26495 0
M  V30 21428 C 2038.74 0.494894 -1.58556 0
M  V30 21429 O 2039.92 0.411807 -1.86303 0
M  V30 21430 C 2037.06 0.287974 -3.43896 0
M  V30 21431 C 2036.18 -0.685936 -4.2652 0
M  V30 21432 C 2035.31 0.0666303 -5.31158 0
M  V30 21433 C 2034.35 -0.899313 -6.05457 0
M  V30 21434 N 2033.49 -0.17871 -7.01873 0
M  V30 21435 H 2038.33 -1.3001 -2.68144 0
M  V30 21436 H 2035.86 -0.652331 -1.31845 0
M  V30 21437 H 2037.82 0.728613 -4.10788 0
M  V30 21438 H 2036.45 1.10852 -3.03169 0
M  V30 21439 H 2035.5 -1.24509 -3.59446 0
M  V30 21440 H 2036.82 -1.42373 -4.7805 0
M  V30 21441 H 2035.97 0.566702 -6.04047 0
M  V30 21442 H 2034.71 0.837326 -4.80458 0
M  V30 21443 H 2033.71 -1.41054 -5.31398 0
M  V30 21444 H 2034.94 -1.66996 -6.58247 0
M  V30 21445 H 2032.89 0.573553 -6.53488 0
M  V30 21446 H 2032.8 -0.855891 -7.51139 0
M  V30 21447 H 2034.07 0.300374 -7.78921 0
M  V30 21448 N 2038.3 1.40971 -0.704618 0
M  V30 21449 C 2039.58 1.94885 -0.167059 0
M  V30 21450 C 2039.96 1.64346 1.3249 0
M  V30 21451 O 2039.3 0.955268 2.07574 0
M  V30 21452 C 2039.51 3.45847 -0.468035 0
M  V30 21453 C 2040.86 4.22705 -0.400704 0
M  V30 21454 O 2041.89 3.53908 -0.403464 0
M  V30 21455 O 2040.75 5.45255 -0.368676 0
M  V30 21456 H 2037.84 0.826752 -0.0202699 0
M  V30 21457 H 2040.39 1.50639 -0.7814 0
M  V30 21458 H 2039.16 3.61392 -1.50038 0
M  V30 21459 H 2038.78 3.97207 0.176823 0
M  V30 21460 N 2039.78 0.45001 1.51039 0
M  V30 21461 C 2041.03 -0.111969 2.0179 0
M  V30 21462 C 2041.35 -1.42098 1.33541 0
M  V30 21463 O 2040.62 -1.9008 0.473962 0
M  V30 21464 H 2039.2 -0.0443688 0.745681 0
M  V30 21465 H 2041.86 0.595615 1.85576 0
M  V30 21466 H 2040.96 -0.278742 3.10853 0
M  V30 21467 N 2041.26 -1.56548 0.18182 0
M  V30 21468 C 2042.5 -1.98256 -0.454541 0
M  V30 21469 C 2042.86 -1.06631 -1.60148 0
M  V30 21470 O 2042.15 -0.108046 -1.91295 0
M  V30 21471 C 2042.34 -3.43837 -0.975236 0
M  V30 21472 C 2042.17 -4.49541 0.11972 0
M  V30 21473 C 2040.94 -5.02042 0.572914 0
M  V30 21474 C 2043.14 -5.05933 0.923913 0
M  V30 21475 N 2041.12 -5.91392 1.64708 0
M  V30 21476 C 2042.49 -5.91826 1.84777 0
M  V30 21477 C 2044.55 -4.88403 0.967818 0
M  V30 21478 C 2043.25 -6.62063 2.81185 0
M  V30 21479 C 2045.28 -5.5937 1.91989 0
M  V30 21480 C 2044.64 -6.44998 2.83121 0
M  V30 21481 H 2040.74 -0.770411 -0.13413 0
M  V30 21482 H 2043.32 -1.92611 0.284458 0
M  V30 21483 H 2041.49 -3.50008 -1.68372 0
M  V30 21484 H 2043.23 -3.72536 -1.5811 0
M  V30 21485 H 2039.98 -4.73299 0.168686 0
M  V30 21486 H 2040.41 -6.40772 2.18496 0
M  V30 21487 H 2045.05 -4.2189 0.277265 0
M  V30 21488 H 2042.77 -7.27783 3.51223 0
M  V30 21489 H 2046.35 -5.47788 1.9601 0
M  V30 21490 H 2045.23 -6.98946 3.55591 0
M  V30 21491 N 2042.73 0.0918577 -1.57332 0
M  V30 21492 C 2043.98 0.795934 -1.86528 0
M  V30 21493 C 2044.31 1.78222 -0.771388 0
M  V30 21494 O 2043.59 1.93248 0.220326 0
M  V30 21495 C 2043.87 1.5218 -3.26364 0
M  V30 21496 C 2043.72 0.553281 -4.46384 0
M  V30 21497 C 2045.04 2.4716 -3.64143 0
M  V30 21498 H 2042.16 0.287896 -0.678443 0
M  V30 21499 H 2044.8 0.0594952 -1.89907 0
M  V30 21500 H 2042.95 2.14956 -3.23614 0
M  V30 21501 H 2044.63 -0.0677239 -4.6125 0
M  V30 21502 H 2042.87 -0.133076 -4.33596 0
M  V30 21503 H 2043.54 1.09838 -5.40962 0
M  V30 21504 H 2046.02 1.94474 -3.67857 0
M  V30 21505 H 2044.89 2.94964 -4.62912 0
M  V30 21506 H 2045.15 3.31065 -2.92999 0
M  V30 21507 N 2044.21 1.53368 0.362763 0
M  V30 21508 C 2045.16 1.80679 1.46485 0
M  V30 21509 C 2046.15 0.676074 1.55324 0
M  V30 21510 O 2047.36 0.859068 1.58177 0
M  V30 21511 H 2043.74 0.572116 0.488044 0
M  V30 21512 H 2045.71 2.72919 1.20656 0
M  V30 21513 C 2044.46 2.01611 2.83281 0
M  V30 21514 H 2043.78 2.88059 2.7724 0
M  V30 21515 H 2045.22 2.24696 3.59566 0
M  V30 21516 C 2043.68 0.796023 3.27361 0
M  V30 21517 O 2044.21 -0.0139218 4.01698 0
M  V30 21518 N 2042.41 0.618665 2.83938 0
M  V30 21519 H 2041.96 1.27892 2.2361 0
M  V30 21520 H 2041.92 -0.196265 3.13787 0
M  V30 21521 N 2045.69 -0.62272 1.44776 0
M  V30 21522 C 2046.94 -1.37812 1.47278 0
M  V30 21523 C 2047.25 -1.95276 0.112585 0
M  V30 21524 O 2048.46 -2.71496 0.0151784 0
M  V30 21525 C 2046.91 -2.49557 2.59325 0
M  V30 21526 C 2046.52 -1.9857 4.01589 0
M  V30 21527 C 2048.27 -3.26693 2.71057 0
M  V30 21528 C 2046.17 -3.07707 5.05045 0
M  V30 21529 H 2045.1 -0.517918 0.547976 0
M  V30 21530 H 2047.75 -0.669045 1.70868 0
M  V30 21531 H 2046.14 -3.23078 2.2899 0
M  V30 21532 H 2047.31 -1.31858 4.41532 0
M  V30 21533 H 2045.63 -1.34224 3.94174 0
M  V30 21534 H 2048.22 -4.08067 3.45521 0
M  V30 21535 H 2048.57 -3.76721 1.77164 0
M  V30 21536 H 2049.1 -2.60265 3.00844 0
M  V30 21537 H 2045.84 -2.62614 6.00595 0
M  V30 21538 H 2045.36 -3.73034 4.69687 0
M  V30 21539 H 2047.04 -3.72343 5.29121 0
M  V30 21540 N 2047.17 -1.31814 -0.863883 0
M  V30 21541 C 2048.1 -1.14307 -1.97507 0
M  V30 21542 C 2049.08 -0.0449482 -1.62538 0
M  V30 21543 O 2050.26 -0.202523 -1.87409 0
M  V30 21544 C 2047.39 -0.74789 -3.3034 0
M  V30 21545 C 2046.44 -1.84993 -3.84291 0
M  V30 21546 S 2047.27 -3.45653 -4.09004 0
M  V30 21547 C 2048.43 -3.08085 -5.44825 0
M  V30 21548 H 2048.66 -2.08375 -2.12054 0
M  V30 21549 H 2046.19 -1.16369 -1.01478 0
M  V30 21550 H 2048.15 -0.52664 -4.07108 0
M  V30 21551 H 2046.81 0.173775 -3.13619 0
M  V30 21552 H 2046 -1.5262 -4.80337 0
M  V30 21553 H 2045.61 -2.02655 -3.14336 0
M  V30 21554 H 2047.9 -2.57356 -6.26717 0
M  V30 21555 H 2048.84 -4.03117 -5.82153 0
M  V30 21556 H 2049.25 -2.45359 -5.08389 0
M  V30 21557 N 2048.65 1.07897 -1.14873 0
M  V30 21558 C 2049.88 1.8385 -0.942478 0
M  V30 21559 C 2050.28 1.82127 0.512486 0
M  V30 21560 O 2049.63 1.22709 1.36705 0
M  V30 21561 C 2049.69 3.32272 -1.37244 0
M  V30 21562 C 2049.35 3.57723 -2.844 0
M  V30 21563 C 2050.35 3.52131 -3.82492 0
M  V30 21564 C 2048.04 3.85567 -3.21937 0
M  V30 21565 C 2050.03 3.74022 -5.16126 0
M  V30 21566 C 2047.72 4.07111 -4.55745 0
M  V30 21567 C 2048.71 4.01333 -5.52649 0
M  V30 21568 O 2048.4 4.22306 -6.84042 0
M  V30 21569 H 2048.13 0.587081 -0.33513 0
M  V30 21570 H 2050.69 1.37142 -1.52909 0
M  V30 21571 H 2048.92 3.79763 -0.72919 0
M  V30 21572 H 2050.61 3.89674 -1.13617 0
M  V30 21573 H 2051.37 3.30628 -3.54838 0
M  V30 21574 H 2047.25 3.89182 -2.471 0
M  V30 21575 H 2050.8 3.69428 -5.91751 0
M  V30 21576 H 2046.69 4.28099 -4.83117 0
M  V30 21577 H 2047.46 4.39684 -6.90377 0
M  V30 21578 N 2050.12 0.944665 1.2615 0
M  V30 21579 C 2051.07 0.44787 2.28247 0
M  V30 21580 C 2052.07 -0.476672 1.62555 0
M  V30 21581 O 2053.27 -0.3545 1.76475 0
M  V30 21582 H 2049.65 0.126306 0.741317 0
M  V30 21583 H 2051.62 1.32142 2.67546 0
M  V30 21584 C 2050.37 -0.268298 3.46663 0
M  V30 21585 H 2049.69 0.433964 3.97438 0
M  V30 21586 H 2051.13 -0.580074 4.20013 0
M  V30 21587 C 2049.59 -1.48732 3.02292 0
M  V30 21588 O 2050.12 -2.58549 3.07434 0
M  V30 21589 N 2048.33 -1.34513 2.57594 0
M  V30 21590 H 2047.87 -0.451649 2.5361 0
M  V30 21591 H 2047.83 -2.16196 2.28269 0
M  V30 21592 N 2051.6 -1.40596 0.712085 0
M  V30 21593 C 2052.85 -2.00553 0.249593 0
M  V30 21594 C 2053.17 -1.56736 -1.16012 0
M  V30 21595 O 2052.44 -0.805259 -1.78584 0
M  V30 21596 H 2051.02 -0.741644 0.0892885 0
M  V30 21597 H 2053.68 -1.71984 0.916933 0
M  V30 21598 H 2052.78 -3.10842 0.279939 0
M  V30 21599 N 2053.08 -0.458013 -1.50798 0
M  V30 21600 C 2054.01 0.333063 -2.31112 0
M  V30 21601 C 2054.99 1.00231 -1.37433 0
M  V30 21602 O 2056.18 1.00199 -1.66354 0
M  V30 21603 C 2053.31 1.4229 -3.16814 0
M  V30 21604 C 2052.26 0.875993 -4.1894 0
M  V30 21605 C 2051.59 2.06313 -4.93294 0
M  V30 21606 C 2052.89 -0.103786 -5.22197 0
M  V30 21607 H 2054.58 -0.337222 -2.97495 0
M  V30 21608 H 2052.13 -0.163622 -1.43067 0
M  V30 21609 H 2054.08 1.98369 -3.7179 0
M  V30 21610 H 2052.8 2.12177 -2.48291 0
M  V30 21611 H 2051.46 0.337263 -3.65045 0
M  V30 21612 H 2051.11 2.74868 -4.21256 0
M  V30 21613 H 2050.81 1.70348 -5.62366 0
M  V30 21614 H 2052.33 2.62908 -5.511 0
M  V30 21615 H 2053.75 0.367392 -5.72122 0
M  V30 21616 H 2052.15 -0.377048 -5.98914 0
M  V30 21617 H 2053.22 -1.03392 -4.73749 0
M  V30 21618 N 2054.56 1.56449 -0.190119 0
M  V30 21619 C 2055.84 1.89172 0.497312 0
M  V30 21620 C 2056.22 1.1029 1.79998 0
M  V30 21621 O 2055.56 0.202471 2.27601 0
M  V30 21622 C 2055.77 3.41472 0.720941 0
M  V30 21623 C 2057.12 4.11602 1.04254 0
M  V30 21624 O 2058.15 3.46895 0.808835 0
M  V30 21625 O 2057.01 5.25955 1.48438 0
M  V30 21626 H 2054.1 0.785518 0.258632 0
M  V30 21627 H 2056.65 1.68135 -0.229961 0
M  V30 21628 H 2055.42 3.90793 -0.199197 0
M  V30 21629 H 2055.04 3.68185 1.50085 0
M  V30 21630 N 2056.04 -0.0835127 1.57379 0
M  V30 21631 C 2057 -1.08477 2.01905 0
M  V30 21632 C 2058 -1.32278 0.91428 0
M  V30 21633 O 2059.19 -1.28196 1.17947 0
M  V30 21634 C 2056.32 -2.43121 2.38967 0
M  V30 21635 H 2057.52 -0.701256 2.91586 0
M  V30 21636 H 2055.07 -0.328903 1.528 0
M  V30 21637 H 2055.8 -2.86326 1.52275 0
M  V30 21638 H 2055.59 -2.2719 3.19573 0
M  V30 21639 H 2057.08 -3.15113 2.74032 0
M  V30 21640 N 2057.52 -1.53558 -0.354624 0
M  V30 21641 C 2058.76 -1.70523 -1.09772 0
M  V30 21642 C 2059.09 -0.461312 -1.88641 0
M  V30 21643 O 2058.37 0.541553 -1.86809 0
M  V30 21644 C 2058.65 -2.96191 -2.04799 0
M  V30 21645 C 2058.51 -4.30765 -1.29465 0
M  V30 21646 C 2059.82 -3.17493 -3.04772 0
M  V30 21647 H 2056.94 -0.620497 -0.397683 0
M  V30 21648 H 2059.59 -1.86214 -0.377395 0
M  V30 21649 H 2057.74 -2.82944 -2.66223 0
M  V30 21650 H 2059.41 -4.55844 -0.707409 0
M  V30 21651 H 2057.65 -4.29678 -0.596569 0
M  V30 21652 H 2058.32 -5.14852 -1.99076 0
M  V30 21653 H 2060.8 -3.29998 -2.53458 0
M  V30 21654 H 2059.67 -4.06838 -3.68476 0
M  V30 21655 H 2059.93 -2.33276 -3.75546 0
M  V30 21656 N 2058.99 0.615033 -1.45104 0
M  V30 21657 C 2059.96 1.7081 -1.52828 0
M  V30 21658 C 2060.96 1.55523 -0.408557 0
M  V30 21659 O 2062.15 1.60726 -0.671773 0
M  V30 21660 C 2059.28 3.10023 -1.41768 0
M  V30 21661 H 2060.47 1.6533 -2.50212 0
M  V30 21662 H 2058.02 0.830115 -1.32434 0
M  V30 21663 H 2058.76 3.21086 -0.455409 0
M  V30 21664 H 2058.54 3.22527 -2.22977 0
M  V30 21665 H 2060.03 3.89657 -1.5019 0
M  V30 21666 N 2060.47 1.3227 0.85688 0
M  V30 21667 C 2061.72 1.22885 1.61329 0
M  V30 21668 C 2062.05 -0.209425 1.93067 0
M  V30 21669 O 2061.33 -1.14596 1.57156 0
M  V30 21670 C 2061.61 2.0863 2.93506 0
M  V30 21671 C 2061.46 3.60824 2.68563 0
M  V30 21672 C 2062.78 1.94573 3.94752 0
M  V30 21673 H 2059.9 0.447751 0.585395 0
M  V30 21674 H 2062.54 1.62193 0.989615 0
M  V30 21675 H 2060.69 1.75236 3.46734 0
M  V30 21676 H 2062.36 4.0442 2.21906 0
M  V30 21677 H 2060.61 3.83601 2.02566 0
M  V30 21678 H 2061.28 4.16143 3.6267 0
M  V30 21679 H 2063.75 2.23822 3.50775 0
M  V30 21680 H 2062.63 2.56848 4.85098 0
M  V30 21681 H 2062.89 0.912736 4.32575 0
M  V30 21682 N 2061.95 -1.07287 1.15444 0
M  V30 21683 C 2063.23 -1.76634 0.840221 0
M  V30 21684 C 2063.61 -2.00384 -0.664037 0
M  V30 21685 O 2062.95 -1.62284 -1.60861 0
M  V30 21686 C 2063.16 -3.07439 1.65174 0
M  V30 21687 C 2064.51 -3.81773 1.85835 0
M  V30 21688 O 2065.54 -3.17252 1.61955 0
M  V30 21689 O 2064.4 -4.97656 2.25834 0
M  V30 21690 H 2061.49 -0.76708 0.309059 0
M  V30 21691 H 2064.04 -1.13646 1.26026 0
M  V30 21692 H 2062.81 -2.85774 2.67299 0
M  V30 21693 H 2062.43 -3.78159 1.22807 0
M  V30 21694 N 2063.43 -0.951342 -1.25647 0
M  V30 21695 C 2064.36 -0.426252 -2.25202 0
M  V30 21696 C 2065.37 0.456064 -1.56281 0
M  V30 21697 O 2066.56 0.264871 -1.76524 0
M  V30 21698 C 2063.66 0.405493 -3.36465 0
M  V30 21699 C 2062.83 -0.46305 -4.34942 0
M  V30 21700 C 2061.89 0.309948 -5.25286 0
M  V30 21701 O 2060.92 -0.290524 -5.68458 0
M  V30 21702 N 2062.12 1.60389 -5.57903 0
M  V30 21703 H 2064.89 -1.28213 -2.7089 0
M  V30 21704 H 2062.45 -0.821338 -1.39519 0
M  V30 21705 H 2064.44 0.930256 -3.93863 0
M  V30 21706 H 2063.01 1.16222 -2.90192 0
M  V30 21707 H 2062.23 -1.16894 -3.7647 0
M  V30 21708 H 2063.52 -1.05598 -4.97721 0
M  V30 21709 H 2062.92 2.11372 -5.24727 0
M  V30 21710 H 2061.47 2.07469 -6.179 0
M  V30 21711 N 2064.91 1.40216 -0.719531 0
M  V30 21712 C 2065.84 2.2918 -0.0300683 0
M  V30 21713 C 2066.85 1.4603 0.719654 0
M  V30 21714 O 2068.04 1.69276 0.56638 0
M  V30 21715 C 2065.14 3.2437 0.981688 0
M  V30 21716 C 2064.31 4.36393 0.296683 0
M  V30 21717 C 2063.37 5.11996 1.21437 0
M  V30 21718 O 2062.4 5.64908 0.697679 0
M  V30 21719 N 2063.6 5.21726 2.54524 0
M  V30 21720 H 2066.36 2.88992 -0.79396 0
M  V30 21721 H 2063.93 1.51629 -0.567481 0
M  V30 21722 H 2065.92 3.7182 1.59787 0
M  V30 21723 H 2064.49 2.65699 1.64691 0
M  V30 21724 H 2063.71 3.91019 -0.499755 0
M  V30 21725 H 2065 5.08486 -0.17865 0
M  V30 21726 H 2064.39 4.80227 2.98996 0
M  V30 21727 H 2062.95 5.72669 3.11277 0
M  V30 21728 N 2066.38 0.466004 1.50553 0
M  V30 21729 C 2067.79 0.00966264 1.86697 0
M  V30 21730 C 2068.15 -1.39347 1.38119 0
M  V30 21731 O 2067.27 -2.03208 0.744006 0
M  V30 21732 C 2067.87 0.0107586 3.38798 0
M  V30 21733 C 2066.42 -0.390094 3.74373 0
M  V30 21734 C 2065.57 0.398415 2.74423 0
M  V30 21735 H 2068.52 0.680522 1.43369 0
M  V30 21736 H 2068.54 -0.792537 3.72155 0
M  V30 21737 H 2068.06 1.0321 3.74125 0
M  V30 21738 H 2066.16 -1.41598 3.44646 0
M  V30 21739 H 2066.27 -0.0949729 4.79006 0
M  V30 21740 H 2064.63 -0.147197 2.54274 0
M  V30 21741 H 2065.42 1.41917 3.12593 0
M  V30 21742 N 2067.86 -1.56346 0.198413 0
M  V30 21743 C 2069.11 -1.97966 -0.440131 0
M  V30 21744 C 2069.44 -1.08533 -1.61041 0
M  V30 21745 O 2068.72 -0.138034 -1.9401 0
M  V30 21746 C 2069 -3.48747 -0.897069 0
M  V30 21747 C 2068.85 -4.48957 0.275249 0
M  V30 21748 C 2070.17 -4.03314 -1.76141 0
M  V30 21749 H 2067.29 -0.719752 -0.15851 0
M  V30 21750 H 2069.93 -1.87774 0.290003 0
M  V30 21751 H 2068.08 -3.57564 -1.51921 0
M  V30 21752 H 2069.75 -4.52175 0.912988 0
M  V30 21753 H 2068 -4.23791 0.926484 0
M  V30 21754 H 2068.67 -5.51931 -0.0870366 0
M  V30 21755 H 2071.14 -3.97297 -1.23669 0
M  V30 21756 H 2070.02 -5.09178 -2.05009 0
M  V30 21757 H 2070.28 -3.48776 -2.71676 0
M  V30 21758 N 2069.34 0.0751653 -1.57421 0
M  V30 21759 C 2070.57 0.787972 -1.91308 0
M  V30 21760 C 2070.98 1.7129 -0.794055 0
M  V30 21761 O 2070.34 1.81009 0.23281 0
M  V30 21762 C 2070.39 1.58447 -3.24926 0
M  V30 21763 O 2070.11 0.696727 -4.32524 0
M  V30 21764 C 2071.61 2.39857 -3.72805 0
M  V30 21765 H 2068.83 0.22422 -0.632429 0
M  V30 21766 H 2071.38 0.0464417 -2.04447 0
M  V30 21767 H 2069.53 2.27831 -3.13324 0
M  V30 21768 H 2069.95 1.25038 -5.09378 0
M  V30 21769 H 2071.42 2.91207 -4.68938 0
M  V30 21770 H 2071.9 3.19229 -3.01645 0
M  V30 21771 H 2072.5 1.75636 -3.8734 0
M  V30 21772 N 2070.82 1.53744 0.346476 0
M  V30 21773 C 2071.77 1.82222 1.44561 0
M  V30 21774 C 2072.76 0.69251 1.54598 0
M  V30 21775 O 2073.97 0.875797 1.57257 0
M  V30 21776 H 2070.34 0.577261 0.481948 0
M  V30 21777 H 2072.31 2.74183 1.17755 0
M  V30 21778 C 2071.06 2.04604 2.81127 0
M  V30 21779 H 2070.38 2.90983 2.74169 0
M  V30 21780 H 2071.82 2.28497 3.57162 0
M  V30 21781 C 2070.28 0.830699 3.26498 0
M  V30 21782 O 2070.81 0.0286844 4.0169 0
M  V30 21783 N 2069.02 0.648746 2.83266 0
M  V30 21784 H 2068.57 1.30257 2.22241 0
M  V30 21785 H 2068.52 -0.162972 3.13977 0
M  V30 21786 N 2072.3 -0.607329 1.45428 0
M  V30 21787 C 2073.25 -1.71232 1.50545 0
M  V30 21788 C 2074.23 -1.56619 0.368691 0
M  V30 21789 O 2075.42 -1.65951 0.615562 0
M  V30 21790 C 2072.55 -3.09985 1.47527 0
M  V30 21791 C 2071.64 -3.29983 2.66406 0
M  V30 21792 N 2072.03 -3.20241 3.91509 0
M  V30 21793 C 2070.33 -3.60853 2.62108 0
M  V30 21794 C 2071.03 -3.41576 4.70851 0
M  V30 21795 N 2070 -3.65578 4.0231 0
M  V30 21796 H 2073.81 -1.62193 2.45093 0
M  V30 21797 H 2071.32 -0.810594 1.40724 0
M  V30 21798 H 2073.32 -3.89258 1.49278 0
M  V30 21799 H 2071.98 -3.20172 0.540363 0
M  V30 21800 H 2072.99 -2.98637 4.23127 0
M  V30 21801 H 2069.66 -3.77876 1.77526 0
M  V30 21802 H 2071.05 -3.39435 5.79856 0
M  V30 21803 N 2073.77 -1.32722 -0.849853 0
M  V30 21804 C 2074.72 -1.22024 -1.98023 0
M  V30 21805 C 2075.72 -0.12398 -1.68946 0
M  V30 21806 O 2076.92 -0.287223 -1.77694 0
M  V30 21807 H 2073.3 -0.378378 -0.649873 0
M  V30 21808 H 2075.27 -2.17614 -2.04173 0
M  V30 21809 C 2074.02 -0.965076 -3.34038 0
M  V30 21810 H 2073.34 -1.80084 -3.56945 0
M  V30 21811 H 2074.78 -0.93048 -4.13664 0
M  V30 21812 C 2073.24 0.332137 -3.35259 0
M  V30 21813 O 2073.77 1.34244 -3.78604 0
M  V30 21814 N 2071.98 0.355806 -2.88414 0
M  V30 21815 H 2071.52 -0.46689 -2.53334 0
M  V30 21816 H 2071.48 1.2236 -2.89613 0
M  V30 21817 N 2075.25 1.06673 -1.16011 0
M  V30 21818 C 2076.66 1.60868 -0.947549 0
M  V30 21819 C 2077.01 1.89469 0.509491 0
M  V30 21820 O 2076.14 1.66526 1.38195 0
M  V30 21821 C 2076.73 2.92266 -1.71365 0
M  V30 21822 C 2075.29 3.43177 -1.54618 0
M  V30 21823 C 2074.44 2.17128 -1.72484 0
M  V30 21824 H 2077.39 0.896725 -1.30937 0
M  V30 21825 H 2077.41 3.61505 -1.1872 0
M  V30 21826 H 2076.92 2.71417 -2.77406 0
M  V30 21827 H 2075.03 3.69093 -0.51001 0
M  V30 21828 H 2075.14 4.1876 -2.3276 0
M  V30 21829 H 2073.5 2.27162 -1.15193 0
M  V30 21830 H 2074.29 1.98766 -2.79905 0
M  V30 21831 N 2076.73 0.957992 1.25141 0
M  V30 21832 C 2077.98 0.625071 1.93557 0
M  V30 21833 C 2078.33 -0.829302 1.7361 0
M  V30 21834 O 2077.62 -1.58763 1.07261 0
M  V30 21835 C 2077.82 0.923523 3.45262 0
M  V30 21836 C 2077.65 2.40536 3.79964 0
M  V30 21837 C 2076.42 3.0635 4.01843 0
M  V30 21838 C 2078.62 3.38489 3.87207 0
M  V30 21839 N 2076.6 4.44371 4.23565 0
M  V30 21840 C 2077.97 4.6183 4.13658 0
M  V30 21841 C 2080.02 3.33281 3.69903 0
M  V30 21842 C 2078.73 5.80608 4.24603 0
M  V30 21843 C 2080.75 4.514 3.82088 0
M  V30 21844 C 2080.11 5.73529 4.08954 0
M  V30 21845 H 2076.21 0.279402 0.730383 0
M  V30 21846 H 2078.8 1.23086 1.50857 0
M  V30 21847 H 2076.97 0.346636 3.8685 0
M  V30 21848 H 2078.7 0.550165 4.00943 0
M  V30 21849 H 2075.46 2.5691 3.97862 0
M  V30 21850 H 2075.88 5.15861 4.38425 0
M  V30 21851 H 2080.52 2.39904 3.48146 0
M  V30 21852 H 2078.24 6.74422 4.45174 0
M  V30 21853 H 2081.83 4.48922 3.70082 0
M  V30 21854 H 2080.71 6.63403 4.1817 0
M  V30 21855 N 2078.21 -1.39832 0.726957 0
M  V30 21856 C 2079.14 -2.28179 0.0306291 0
M  V30 21857 C 2080.12 -1.43956 -0.756008 0
M  V30 21858 O 2081.3 -1.73356 -0.74026 0
M  V30 21859 C 2078.43 -3.24695 -0.963903 0
M  V30 21860 C 2077.48 -4.25665 -0.266719 0
M  V30 21861 S 2078.31 -5.2582 1.01356 0
M  V30 21862 C 2079.47 -6.25896 0.0214211 0
M  V30 21863 H 2079.7 -2.86889 0.779868 0
M  V30 21864 H 2077.23 -1.45436 0.518429 0
M  V30 21865 H 2079.19 -3.80823 -1.53245 0
M  V30 21866 H 2077.85 -2.6502 -1.68592 0
M  V30 21867 H 2077.04 -4.93592 -1.01896 0
M  V30 21868 H 2076.65 -3.73295 0.229576 0
M  V30 21869 H 2078.94 -6.72499 -0.82166 0
M  V30 21870 H 2079.88 -7.04946 0.667612 0
M  V30 21871 H 2080.29 -5.6343 -0.347386 0
M  V30 21872 N 2079.69 -0.473982 -1.50304 0
M  V30 21873 C 2080.62 0.308532 -2.31453 0
M  V30 21874 C 2081.6 0.987678 -1.38488 0
M  V30 21875 O 2082.78 0.984294 -1.67408 0
M  V30 21876 C 2079.91 1.38921 -3.18305 0
M  V30 21877 C 2078.87 0.831509 -4.19845 0
M  V30 21878 C 2078.19 2.0107 -4.95454 0
M  V30 21879 C 2079.49 -0.159166 -5.22057 0
M  V30 21880 H 2081.19 -0.368757 -2.9712 0
M  V30 21881 H 2078.73 -0.178787 -1.42886 0
M  V30 21882 H 2080.69 1.94415 -3.73873 0
M  V30 21883 H 2079.41 2.09531 -2.50528 0
M  V30 21884 H 2078.07 0.298526 -3.65383 0
M  V30 21885 H 2077.72 2.70384 -4.24148 0
M  V30 21886 H 2077.42 1.64374 -5.64141 0
M  V30 21887 H 2078.94 2.57048 -5.53858 0
M  V30 21888 H 2080.35 0.306691 -5.72479 0
M  V30 21889 H 2078.75 -0.440549 -5.98481 0
M  V30 21890 H 2079.82 -1.08411 -4.72626 0
M  V30 21891 N 2081.16 1.56239 -0.206702 0
M  V30 21892 C 2082.09 2.2262 0.704446 0
M  V30 21893 C 2083.08 1.19305 1.21245 0
M  V30 21894 O 2084.26 1.47846 1.25917 0
M  V30 21895 C 2081.39 2.89459 1.91913 0
M  V30 21896 C 2080.34 3.99119 1.54558 0
M  V30 21897 C 2079.67 4.53179 2.83783 0
M  V30 21898 C 2080.97 5.16934 0.746749 0
M  V30 21899 H 2082.66 2.99019 0.151028 0
M  V30 21900 H 2080.21 1.43824 0.0712004 0
M  V30 21901 H 2082.16 3.34584 2.56186 0
M  V30 21902 H 2080.89 2.10484 2.49728 0
M  V30 21903 H 2079.55 3.54702 0.926381 0
M  V30 21904 H 2079.19 3.70952 3.39711 0
M  V30 21905 H 2078.89 5.2718 2.59528 0
M  V30 21906 H 2080.42 5.01013 3.49024 0
M  V30 21907 H 2081.83 5.58532 1.29284 0
M  V30 21908 H 2080.23 5.97074 0.601876 0
M  V30 21909 H 2081.3 4.84256 -0.249783 0
M  V30 21910 N 2082.64 -0.0668159 1.57458 0
M  V30 21911 C 2083.87 -0.776687 1.91445 0
M  V30 21912 C 2084.28 -1.71389 0.801403 0
M  V30 21913 O 2083.62 -1.82206 -0.233788 0
M  V30 21914 C 2083.69 -1.61981 3.2094 0
M  V30 21915 C 2083.35 -0.851453 4.48998 0
M  V30 21916 C 2084.35 -0.168463 5.19627 0
M  V30 21917 C 2082.03 -0.817153 4.95609 0
M  V30 21918 C 2084.03 0.538543 6.35121 0
M  V30 21919 C 2081.71 -0.106378 6.11007 0
M  V30 21920 C 2082.71 0.570265 6.80615 0
M  V30 21921 O 2082.4 1.26958 7.93812 0
M  V30 21922 H 2082.13 -0.225698 0.63721 0
M  V30 21923 H 2084.68 -0.0398627 2.05361 0
M  V30 21924 H 2082.91 -2.39956 3.03246 0
M  V30 21925 H 2084.6 -2.20882 3.40538 0
M  V30 21926 H 2085.37 -0.186236 4.84642 0
M  V30 21927 H 2081.25 -1.33329 4.41299 0
M  V30 21928 H 2084.79 1.06725 6.89388 0
M  V30 21929 H 2080.69 -0.0865497 6.45442 0
M  V30 21930 H 2081.46 1.17936 8.09959 0
M  V30 21931 N 2084.12 -1.53926 -0.338317 0
M  V30 21932 C 2085.37 -1.71424 -1.07797 0
M  V30 21933 C 2085.7 -0.480153 -1.8848 0
M  V30 21934 O 2084.95 0.538111 -1.88156 0
M  V30 21935 C 2085.25 -2.93279 -2.0426 0
M  V30 21936 C 2084.92 -4.28665 -1.39847 0
M  V30 21937 C 2083.58 -4.65475 -1.2201 0
M  V30 21938 C 2085.93 -5.12746 -0.934908 0
M  V30 21939 C 2083.26 -5.83979 -0.564424 0
M  V30 21940 C 2085.61 -6.31921 -0.293119 0
M  V30 21941 C 2084.27 -6.67421 -0.102472 0
M  V30 21942 H 2083.54 -0.627283 -0.394458 0
M  V30 21943 H 2086.19 -1.88149 -0.356684 0
M  V30 21944 H 2084.5 -2.71179 -2.82788 0
M  V30 21945 H 2086.19 -3.04011 -2.61492 0
M  V30 21946 H 2082.78 -3.99696 -1.54729 0
M  V30 21947 H 2086.97 -4.84836 -1.06055 0
M  V30 21948 H 2082.22 -6.10055 -0.40538 0
M  V30 21949 H 2086.4 -6.96361 0.0741496 0
M  V30 21950 H 2084.02 -7.59106 0.407635 0
M  V30 21951 N 2085.6 0.599608 -1.45748 0
M  V30 21952 C 2086.85 1.35451 -1.49452 0
M  V30 21953 C 2087.16 1.95072 -0.143637 0
M  V30 21954 O 2088.37 2.71437 -0.0583691 0
M  V30 21955 C 2086.82 2.454 -2.63262 0
M  V30 21956 C 2086.43 1.92156 -4.04698 0
M  V30 21957 C 2088.18 3.22339 -2.7622 0
M  V30 21958 C 2086.08 2.99633 -5.09876 0
M  V30 21959 H 2085.01 0.509134 -0.556146 0
M  V30 21960 H 2087.66 0.641777 -1.71911 0
M  V30 21961 H 2086.05 3.19395 -2.34101 0
M  V30 21962 H 2087.22 1.24817 -4.43574 0
M  V30 21963 H 2085.53 1.27937 -3.96259 0
M  V30 21964 H 2088.13 4.02519 -3.5197 0
M  V30 21965 H 2088.47 3.73854 -1.83135 0
M  V30 21966 H 2089.01 2.55446 -3.04946 0
M  V30 21967 H 2085.75 2.53026 -6.04697 0
M  V30 21968 H 2085.27 3.65514 -4.75562 0
M  V30 21969 H 2086.95 3.63878 -5.34978 0
M  V30 21970 N 2087.08 1.33171 0.842803 0
M  V30 21971 C 2088.3 1.27579 1.63519 0
M  V30 21972 C 2088.73 -0.151151 1.87492 0
M  V30 21973 O 2088.09 -1.10648 1.4362 0
M  V30 21974 C 2088.13 2.05261 2.9648 0
M  V30 21975 O 2087.24 1.40852 3.87601 0
M  V30 21976 H 2086.58 0.439106 0.498078 0
M  V30 21977 H 2089.11 1.75672 1.04883 0
M  V30 21978 H 2089.12 2.15879 3.46209 0
M  V30 21979 H 2087.79 3.09018 2.78354 0
M  V30 21980 H 2086.37 1.38855 3.46083 0
M  V30 21981 N 2088.56 -1.06056 1.16576 0
M  V30 21982 C 2089.8 -1.78899 0.94875 0
M  V30 21983 C 2090.13 -1.87329 -0.523266 0
M  V30 21984 O 2089.39 -1.36291 -1.40439 0
M  V30 21985 C 2089.68 -3.23265 1.52429 0
M  V30 21986 C 2089.35 -3.34911 3.01904 0
M  V30 21987 C 2088.01 -3.37796 3.42706 0
M  V30 21988 C 2090.36 -3.36636 3.97902 0
M  V30 21989 C 2087.69 -3.40025 4.78121 0
M  V30 21990 C 2090.04 -3.40403 5.33206 0
M  V30 21991 C 2088.71 -3.41572 5.73485 0
M  V30 21992 H 2087.98 -0.654639 0.347172 0
M  V30 21993 H 2090.63 -1.24708 1.45328 0
M  V30 21994 H 2088.93 -3.80326 0.94126 0
M  V30 21995 H 2090.63 -3.7823 1.33204 0
M  V30 21996 H 2087.22 -3.33372 2.69372 0
M  V30 21997 H 2091.4 -3.33615 3.67443 0
M  V30 21998 H 2086.66 -3.39236 5.08654 0
M  V30 21999 H 2090.83 -3.40686 6.07377 0
M  V30 22000 H 2088.46 -3.43052 6.78395 0
M  V30 22001 N 2090.03 -0.964615 -1.24631 0
M  V30 22002 C 2090.96 -0.511091 -2.27838 0
M  V30 22003 C 2091.94 0.447692 -1.64103 0
M  V30 22004 O 2093.13 0.344485 -1.9112 0
M  V30 22005 C 2090.26 0.202467 -3.46709 0
M  V30 22006 C 2089.21 -0.672032 -4.22691 0
M  V30 22007 C 2088.54 0.172842 -5.34421 0
M  V30 22008 C 2089.84 -1.9551 -4.84327 0
M  V30 22009 H 2091.53 -1.37371 -2.66025 0
M  V30 22010 H 2089.08 -0.661983 -1.27882 0
M  V30 22011 H 2091.03 0.530942 -4.18042 0
M  V30 22012 H 2089.76 1.09942 -3.07539 0
M  V30 22013 H 2088.42 -0.983734 -3.53155 0
M  V30 22014 H 2088.06 1.06985 -4.91491 0
M  V30 22015 H 2087.76 -0.409046 -5.86175 0
M  V30 22016 H 2089.29 0.496057 -6.08582 0
M  V30 22017 H 2090.7 -1.69241 -5.4775 0
M  V30 22018 H 2089.1 -2.48346 -5.46301 0
M  V30 22019 H 2090.17 -2.65197 -4.05954 0
M  V30 22020 N 2091.51 1.39445 -0.734362 0
M  V30 22021 C 2092.44 2.33245 -0.109065 0
M  V30 22022 C 2093.42 1.53878 0.724945 0
M  V30 22023 O 2094.61 1.82274 0.670055 0
M  V30 22024 C 2091.74 3.37973 0.799454 0
M  V30 22025 C 2090.69 4.27943 0.0696508 0
M  V30 22026 C 2090.02 5.23365 1.09514 0
M  V30 22027 C 2091.32 5.10855 -1.08738 0
M  V30 22028 H 2093.01 2.85786 -0.892581 0
M  V30 22029 H 2090.56 1.37409 -0.430672 0
M  V30 22030 H 2092.51 4.02545 1.24643 0
M  V30 22031 H 2091.23 2.83871 1.61508 0
M  V30 22032 H 2089.89 3.64851 -0.357693 0
M  V30 22033 H 2089.54 4.65559 1.90432 0
M  V30 22034 H 2089.24 5.84408 0.611606 0
M  V30 22035 H 2090.77 5.90813 1.54183 0
M  V30 22036 H 2092.18 5.68775 -0.718888 0
M  V30 22037 H 2090.58 5.81038 -1.50051 0
M  V30 22038 H 2091.65 4.45725 -1.90937 0
M  V30 22039 N 2092.99 0.481946 1.5005 0
M  V30 22040 C 2094.24 -0.0710199 2.01575 0
M  V30 22041 C 2094.55 -1.39798 1.36806 0
M  V30 22042 O 2095.76 -2.03653 1.79549 0
M  V30 22043 C 2094.21 -0.177064 3.59464 0
M  V30 22044 C 2093.82 1.14212 4.33197 0
M  V30 22045 C 2095.57 -0.681409 4.18995 0
M  V30 22046 C 2093.47 0.999274 5.82897 0
M  V30 22047 H 2092.4 -0.0303162 0.75339 0
M  V30 22048 H 2095.05 0.618487 1.72763 0
M  V30 22049 H 2093.44 -0.930598 3.8491 0
M  V30 22050 H 2094.61 1.90745 4.19467 0
M  V30 22051 H 2092.92 1.57841 3.85325 0
M  V30 22052 H 2095.52 -0.805484 5.28598 0
M  V30 22053 H 2095.86 -1.6755 3.81094 0
M  V30 22054 H 2096.4 0.015045 3.97797 0
M  V30 22055 H 2093.14 1.96706 6.2529 0
M  V30 22056 H 2092.66 0.274505 5.99172 0
M  V30 22057 H 2094.34 0.670265 6.43519 0
M  V30 22058 N 2094.47 -1.56127 0.214985 0
M  V30 22059 C 2095.71 -1.98422 -0.41911 0
M  V30 22060 C 2096.05 -1.10235 -1.59881 0
M  V30 22061 O 2095.32 -0.158603 -1.93852 0
M  V30 22062 C 2095.6 -3.49679 -0.86003 0
M  V30 22063 C 2095.46 -4.4864 0.322851 0
M  V30 22064 C 2096.78 -4.0516 -1.71854 0
M  V30 22065 H 2093.9 -0.721393 -0.150867 0
M  V30 22066 H 2096.54 -1.87456 0.309902 0
M  V30 22067 H 2094.69 -3.59155 -1.48121 0
M  V30 22068 H 2096.36 -4.51181 0.960896 0
M  V30 22069 H 2094.6 -4.22784 0.97138 0
M  V30 22070 H 2095.27 -5.51993 -0.028492 0
M  V30 22071 H 2097.75 -3.98587 -1.19448 0
M  V30 22072 H 2096.63 -5.11324 -1.99596 0
M  V30 22073 H 2096.89 -3.51638 -2.67962 0
M  V30 22074 N 2095.95 0.0584645 -1.57492 0
M  V30 22075 C 2097.17 0.771417 -1.9252 0
M  V30 22076 C 2097.6 1.69644 -0.812561 0
M  V30 22077 O 2096.95 1.79786 0.233784 0
M  V30 22078 C 2097 1.52975 -3.26544 0
M  V30 22079 O 2096.11 2.64128 -3.16718 0
M  V30 22080 H 2095.45 0.209569 -0.630061 0
M  V30 22081 H 2097.98 0.022721 -2.04587 0
M  V30 22082 H 2097.99 1.90612 -3.60737 0
M  V30 22083 H 2096.66 0.851136 -4.07098 0
M  V30 22084 H 2095.24 2.29251 -2.94106 0
M  V30 22085 N 2097.42 1.54103 0.330149 0
M  V30 22086 C 2098.67 1.71993 1.06886 0
M  V30 22087 C 2099 0.490142 1.88223 0
M  V30 22088 O 2098.25 -0.528125 1.88439 0
M  V30 22089 C 2098.55 2.94358 2.02702 0
M  V30 22090 C 2098.22 4.294 1.37572 0
M  V30 22091 C 2096.88 4.66116 1.1954 0
M  V30 22092 C 2099.23 5.13235 0.907703 0
M  V30 22093 C 2096.56 5.8427 0.533447 0
M  V30 22094 C 2098.91 6.32067 0.259603 0
M  V30 22095 C 2097.58 6.67466 0.0670758 0
M  V30 22096 H 2096.85 0.629366 0.391125 0
M  V30 22097 H 2099.49 1.88335 0.346701 0
M  V30 22098 H 2097.8 2.72675 2.81346 0
M  V30 22099 H 2099.5 3.05394 2.59877 0
M  V30 22100 H 2096.09 4.00511 1.52608 0
M  V30 22101 H 2100.27 4.85392 1.03482 0
M  V30 22102 H 2095.53 6.10261 0.373022 0
M  V30 22103 H 2099.7 6.96311 -0.111078 0
M  V30 22104 H 2097.33 7.58879 -0.447886 0
M  V30 22105 N 2098.9 -0.59187 1.46064 0
M  V30 22106 C 2100.15 -1.3504 1.50899 0
M  V30 22107 C 2100.48 -1.93865 0.156992 0
M  V30 22108 O 2099.73 -1.76455 -0.846284 0
M  V30 22109 C 2100.03 -2.50587 2.54835 0
M  V30 22110 C 2099.7 -2.09811 3.99111 0
M  V30 22111 C 2098.36 -1.98406 4.38393 0
M  V30 22112 C 2100.71 -1.78225 4.89781 0
M  V30 22113 C 2098.04 -1.53658 5.66221 0
M  V30 22114 C 2100.39 -1.34959 6.18036 0
M  V30 22115 C 2099.06 -1.22123 6.56233 0
M  V30 22116 H 2098.33 -0.494146 0.552178 0
M  V30 22117 H 2100.97 -0.667418 1.79493 0
M  V30 22118 H 2099.28 -3.24292 2.19868 0
M  V30 22119 H 2100.97 -3.08809 2.55809 0
M  V30 22120 H 2097.56 -2.1962 3.68056 0
M  V30 22121 H 2101.75 -1.85927 4.60158 0
M  V30 22122 H 2097 -1.42356 5.94596 0
M  V30 22123 H 2101.18 -1.09569 6.87726 0
M  V30 22124 H 2098.81 -0.872249 7.55179 0
M  V30 22125 N 2100.38 -1.33616 -0.835729 0
M  V30 22126 C 2101.63 -1.25436 -1.59354 0
M  V30 22127 C 2101.96 0.178683 -1.93376 0
M  V30 22128 O 2101.23 1.12082 -1.58959 0
M  V30 22129 C 2101.52 -2.13273 -2.9015 0
M  V30 22130 C 2101.37 -3.65051 -2.62789 0
M  V30 22131 C 2102.69 -2.00828 -3.91607 0
M  V30 22132 H 2099.81 -0.457008 -0.578198 0
M  V30 22133 H 2102.45 -1.63747 -0.963686 0
M  V30 22134 H 2100.6 -1.8073 -3.43902 0
M  V30 22135 H 2102.27 -4.07899 -2.15444 0
M  V30 22136 H 2100.52 -3.86775 -1.96437 0
M  V30 22137 H 2101.19 -4.2186 -3.56003 0
M  V30 22138 H 2103.66 -2.29375 -3.47169 0
M  V30 22139 H 2102.54 -2.64533 -4.8095 0
M  V30 22140 H 2102.8 -0.98144 -4.31069 0
M  V30 22141 N 2101.86 1.05436 -1.17136 0
M  V30 22142 C 2102.79 2.15075 -0.909112 0
M  V30 22143 C 2103.77 1.69455 0.147942 0
M  V30 22144 O 2104.95 1.942 -0.00177952 0
M  V30 22145 C 2102.08 3.44764 -0.41892 0
M  V30 22146 C 2101.04 4.03937 -1.41488 0
M  V30 22147 C 2100.36 5.2894 -0.782739 0
M  V30 22148 C 2101.66 4.4171 -2.78728 0
M  V30 22149 H 2103.36 2.37271 -1.826 0
M  V30 22150 H 2100.9 1.14031 -0.879376 0
M  V30 22151 H 2102.86 4.2081 -0.222885 0
M  V30 22152 H 2101.58 3.22213 0.533496 0
M  V30 22153 H 2100.24 3.29958 -1.59761 0
M  V30 22154 H 2099.89 5.0269 0.176435 0
M  V30 22155 H 2099.59 5.6949 -1.44758 0
M  V30 22156 H 2101.11 6.07675 -0.596922 0
M  V30 22157 H 2102.53 5.08801 -2.64187 0
M  V30 22158 H 2100.92 4.93271 -3.41766 0
M  V30 22159 H 2101.99 3.52168 -3.33325 0
M  V30 22160 N 2103.34 0.971211 1.24118 0
M  V30 22161 C 2104.28 0.496184 2.27246 0
M  V30 22162 C 2105.28 -0.442084 1.6353 0
M  V30 22163 O 2106.48 -0.316987 1.77187 0
M  V30 22164 H 2102.86 0.142002 0.738471 0
M  V30 22165 H 2104.83 1.37788 2.64683 0
M  V30 22166 C 2103.58 -0.194705 3.47154 0
M  V30 22167 H 2102.9 0.518169 3.96428 0
M  V30 22168 H 2104.34 -0.490853 4.21149 0
M  V30 22169 C 2102.8 -1.42287 3.05379 0
M  V30 22170 O 2103.33 -2.5197 3.12849 0
M  V30 22171 N 2101.54 -1.29018 2.60389 0
M  V30 22172 H 2101.08 -0.397753 2.54511 0
M  V30 22173 H 2101.04 -2.11305 2.32804 0
M  V30 22174 N 2104.81 -1.39054 0.741747 0
M  V30 22175 C 2105.75 -2.28134 0.0548289 0
M  V30 22176 C 2106.73 -1.4475 -0.740697 0
M  V30 22177 O 2107.91 -1.74132 -0.721832 0
M  V30 22178 C 2105.04 -3.25699 -0.92941 0
M  V30 22179 C 2104.08 -4.25924 -0.221557 0
M  V30 22180 S 2104.92 -5.24716 1.06927 0
M  V30 22181 C 2106.07 -6.25838 0.0878046 0
M  V30 22182 H 2106.3 -2.86046 0.810253 0
M  V30 22183 H 2103.84 -1.44878 0.533825 0
M  V30 22184 H 2105.8 -3.82427 -1.49197 0
M  V30 22185 H 2104.46 -2.66793 -1.65772 0
M  V30 22186 H 2103.65 -4.94645 -0.966549 0
M  V30 22187 H 2103.25 -3.7303 0.269156 0
M  V30 22188 H 2105.54 -6.73333 -0.750286 0
M  V30 22189 H 2106.49 -7.04198 0.742344 0
M  V30 22190 H 2106.89 -5.63767 -0.287607 0
M  V30 22191 N 2106.29 -0.489897 -1.49792 0
M  V30 22192 C 2107.54 0.0585441 -2.02415 0
M  V30 22193 C 2107.87 1.38015 -1.37048 0
M  V30 22194 O 2107.12 1.89427 -0.491526 0
M  V30 22195 C 2107.42 0.271059 -3.56371 0
M  V30 22196 C 2107.09 -0.971168 -4.40317 0
M  V30 22197 C 2105.75 -1.31171 -4.62977 0
M  V30 22198 C 2108.1 -1.79739 -4.89227 0
M  V30 22199 C 2105.43 -2.47819 -5.31792 0
M  V30 22200 C 2107.78 -2.95531 -5.59325 0
M  V30 22201 C 2106.45 -3.29978 -5.80234 0
M  V30 22202 H 2105.72 0.0214228 -0.74069 0
M  V30 22203 H 2108.36 -0.6478 -1.8021 0
M  V30 22204 H 2106.67 1.05983 -3.77193 0
M  V30 22205 H 2108.36 0.70968 -3.9467 0
M  V30 22206 H 2104.95 -0.695889 -4.22913 0
M  V30 22207 H 2109.14 -1.54746 -4.71559 0
M  V30 22208 H 2104.39 -2.74759 -5.46185 0
M  V30 22209 H 2108.57 -3.59885 -5.96201 0
M  V30 22210 H 2106.2 -4.2047 -6.33332 0
M  V30 22211 N 2107.77 1.56011 -0.223262 0
M  V30 22212 C 2109.02 1.98642 0.408581 0
M  V30 22213 C 2109.35 1.11082 1.59294 0
M  V30 22214 O 2108.62 0.168881 1.93765 0
M  V30 22215 C 2108.91 3.5013 0.841473 0
M  V30 22216 C 2108.76 4.48462 -0.346639 0
M  V30 22217 C 2110.08 4.06065 1.69703 0
M  V30 22218 H 2107.2 0.722183 0.147039 0
M  V30 22219 H 2109.84 1.87289 -0.319839 0
M  V30 22220 H 2107.99 3.59936 1.46214 0
M  V30 22221 H 2109.66 4.50665 -0.98481 0
M  V30 22222 H 2107.91 4.22263 -0.993788 0
M  V30 22223 H 2108.58 5.52 -0.00078187 0
M  V30 22224 H 2111.05 3.99215 1.17332 0
M  V30 22225 H 2109.93 5.12376 1.96882 0
M  V30 22226 H 2110.19 3.53054 2.66093 0
M  V30 22227 N 2109.25 -0.0501116 1.5752 0
M  V30 22228 C 2110.5 -0.743624 1.87922 0
M  V30 22229 C 2110.82 -1.77004 0.818202 0
M  V30 22230 O 2110.09 -1.95319 -0.150705 0
M  V30 22231 H 2108.67 -0.277634 0.69349 0
M  V30 22232 H 2111.33 -0.0210527 1.94889 0
M  V30 22233 H 2110.43 -1.24635 2.86134 0
M  V30 22234 N 2110.73 -1.54276 -0.321972 0
M  V30 22235 C 2111.97 -1.72813 -1.0613 0
M  V30 22236 C 2112.31 -0.501222 -1.8762 0
M  V30 22237 O 2111.58 0.501806 -1.87915 0
M  V30 22238 C 2111.86 -3.00469 -1.9847 0
M  V30 22239 C 2111.72 -4.33415 -1.20299 0
M  V30 22240 C 2113.04 -3.23886 -2.97969 0
M  V30 22241 H 2110.15 -0.628793 -0.384432 0
M  V30 22242 H 2112.8 -1.86973 -0.337811 0
M  V30 22243 H 2110.95 -2.88528 -2.60161 0
M  V30 22244 H 2112.62 -4.57242 -0.610559 0
M  V30 22245 H 2110.86 -4.30847 -0.505293 0
M  V30 22246 H 2111.53 -5.18959 -1.8811 0
M  V30 22247 H 2114.01 -3.353 -2.46401 0
M  V30 22248 H 2112.88 -4.14562 -3.59763 0
M  V30 22249 H 2113.15 -2.4119 -3.70513 0
M  V30 22250 N 2112.2 0.584116 -1.46376 0
M  V30 22251 C 2113.45 1.34437 -1.51837 0
M  V30 22252 C 2113.78 1.93464 -0.168948 0
M  V30 22253 O 2113.06 1.76395 0.819455 0
M  V30 22254 C 2113.34 2.47477 -2.61586 0
M  V30 22255 C 2113.19 1.93494 -4.06054 0
M  V30 22256 C 2114.51 3.49527 -2.6743 0
M  V30 22257 H 2111.63 0.487455 -0.552772 0
M  V30 22258 H 2114.27 0.656303 -1.78305 0
M  V30 22259 H 2112.42 3.0617 -2.39148 0
M  V30 22260 H 2114.1 1.39268 -4.39775 0
M  V30 22261 H 2112.34 1.24333 -4.15601 0
M  V30 22262 H 2113.01 2.75087 -4.78572 0
M  V30 22263 H 2115.49 3.00712 -2.87596 0
M  V30 22264 H 2114.36 4.26082 -3.46043 0
M  V30 22265 H 2114.62 4.06664 -1.73426 0
M  V30 22266 N 2113.68 1.34058 0.828631 0
M  V30 22267 C 2114.93 1.2628 1.58686 0
M  V30 22268 C 2115.26 -0.168425 1.93468 0
M  V30 22269 O 2114.54 -1.11237 1.59551 0
M  V30 22270 C 2114.82 2.14808 2.89015 0
M  V30 22271 C 2114.67 3.66439 2.60849 0
M  V30 22272 C 2115.99 2.02902 3.90536 0
M  V30 22273 H 2113.11 0.460068 0.575766 0
M  V30 22274 H 2115.75 1.64256 0.954988 0
M  V30 22275 H 2113.9 1.82551 3.42939 0
M  V30 22276 H 2115.58 4.09036 2.13278 0
M  V30 22277 H 2113.82 3.87811 1.94384 0
M  V30 22278 H 2114.49 4.23742 3.53761 0
M  V30 22279 H 2116.97 2.31212 3.45948 0
M  V30 22280 H 2115.84 2.6708 4.79541 0
M  V30 22281 H 2116.1 1.00429 4.30542 0
M  V30 22282 N 2115.16 -1.04814 1.17694 0
M  V30 22283 C 2116.07 -2.16152 0.911889 0
M  V30 22284 C 2117.09 -1.73577 -0.121319 0
M  V30 22285 O 2118.26 -2.01314 0.0588399 0
M  V30 22286 C 2115.33 -3.43985 0.433003 0
M  V30 22287 C 2114.39 -4.00986 1.53326 0
M  V30 22288 C 2113.62 -5.22717 1.07713 0
M  V30 22289 O 2113.85 -5.7036 -0.0671938 0
M  V30 22290 O 2112.78 -5.72056 1.87176 0
M  V30 22291 H 2116.61 -2.41362 1.84331 0
M  V30 22292 H 2114.19 -1.1463 0.958135 0
M  V30 22293 H 2116.07 -4.21042 0.17365 0
M  V30 22294 H 2114.75 -3.20266 -0.470221 0
M  V30 22295 H 2113.65 -3.25352 1.84654 0
M  V30 22296 H 2114.99 -4.2903 2.41234 0
M  V30 22297 N 2116.64 -0.977779 -1.23601 0
M  V30 22298 C 2117.59 -0.508228 -2.2698 0
M  V30 22299 C 2118.58 0.433405 -1.63762 0
M  V30 22300 O 2119.79 0.307586 -1.77352 0
M  V30 22301 H 2116.16 -0.145916 -0.737708 0
M  V30 22302 H 2118.13 -1.39189 -2.63949 0
M  V30 22303 C 2116.88 0.176292 -3.47253 0
M  V30 22304 H 2116.21 -0.539185 -3.96147 0
M  V30 22305 H 2117.65 0.468511 -4.21404 0
M  V30 22306 C 2116.1 1.40665 -3.06129 0
M  V30 22307 O 2116.63 2.50307 -3.1418 0
M  V30 22308 N 2114.84 1.27636 -2.6107 0
M  V30 22309 H 2114.39 0.38425 -2.54718 0
M  V30 22310 H 2114.35 2.10067 -2.33921 0
M  V30 22311 N 2118.12 1.38658 -0.749111 0
M  V30 22312 C 2119.36 2.00216 -0.303277 0
M  V30 22313 C 2119.69 1.59459 1.1137 0
M  V30 22314 O 2118.95 0.821377 1.77628 0
M  V30 22315 C 2119.25 3.55494 -0.368653 0
M  V30 22316 C 2118.91 4.15948 -1.74064 0
M  V30 22317 C 2117.57 4.32173 -2.11613 0
M  V30 22318 C 2119.93 4.49344 -2.64083 0
M  V30 22319 C 2117.25 4.79088 -3.38661 0
M  V30 22320 C 2119.61 4.97674 -3.90517 0
M  V30 22321 C 2118.27 5.12106 -4.2814 0
M  V30 22322 H 2117.54 0.732643 -0.110977 0
M  V30 22323 H 2120.19 1.65774 -0.958716 0
M  V30 22324 H 2118.49 3.90046 0.370354 0
M  V30 22325 H 2120.19 4.01 -0.00534235 0
M  V30 22326 H 2116.78 4.0373 -1.43875 0
M  V30 22327 H 2120.96 4.36414 -2.3634 0
M  V30 22328 H 2116.22 4.88447 -3.67735 0
M  V30 22329 H 2120.39 5.22485 -4.60415 0
M  V30 22330 H 2118.02 5.4822 -5.26649 0
M  V30 22331 N 2119.6 0.497834 1.49531 0
M  V30 22332 C 2120.55 -0.301469 2.25998 0
M  V30 22333 C 2121.53 -0.938302 1.30708 0
M  V30 22334 O 2122.72 -0.846425 1.5545 0
M  V30 22335 C 2119.85 -1.3672 3.14901 0
M  V30 22336 C 2118.94 -0.73677 4.17651 0
M  V30 22337 N 2119.33 0.158737 5.05551 0
M  V30 22338 C 2117.63 -0.997712 4.34697 0
M  V30 22339 C 2118.33 0.519281 5.79378 0
M  V30 22340 N 2117.3 -0.112036 5.43485 0
M  V30 22341 H 2121.1 0.387954 2.91328 0
M  V30 22342 H 2118.62 0.313703 1.59341 0
M  V30 22343 H 2120.62 -1.95325 3.68312 0
M  V30 22344 H 2119.28 -2.05834 2.51123 0
M  V30 22345 H 2120.29 0.529344 5.15188 0
M  V30 22346 H 2116.96 -1.68183 3.82126 0
M  V30 22347 H 2118.35 1.25171 6.60138 0
M  V30 22348 N 2121.07 -1.5589 0.231532 0
M  V30 22349 C 2122.02 -2.20725 -0.674461 0
M  V30 22350 C 2122.99 -1.16607 -1.18288 0
M  V30 22351 O 2124.18 -1.44999 -1.24016 0
M  V30 22352 C 2121.32 -2.89876 -1.87259 0
M  V30 22353 C 2120.43 -4.08613 -1.40213 0
M  V30 22354 C 2119.56 -4.6552 -2.55861 0
M  V30 22355 C 2118.6 -5.76537 -2.05601 0
M  V30 22356 N 2117.74 -6.27692 -3.14558 0
M  V30 22357 H 2122.58 -2.97779 -0.114866 0
M  V30 22358 H 2120.12 -1.47031 -0.0449395 0
M  V30 22359 H 2122.07 -3.28159 -2.57619 0
M  V30 22360 H 2120.7 -2.15324 -2.4049 0
M  V30 22361 H 2119.76 -3.75748 -0.593106 0
M  V30 22362 H 2121.07 -4.88802 -0.993676 0
M  V30 22363 H 2120.22 -5.06297 -3.34288 0
M  V30 22364 H 2118.96 -3.84514 -3.00001 0
M  V30 22365 H 2117.97 -5.35252 -1.25639 0
M  V30 22366 H 2119.19 -6.59384 -1.62449 0
M  V30 22367 H 2117.14 -5.49597 -3.58161 0
M  V30 22368 H 2117.05 -7.03032 -2.77996 0
M  V30 22369 H 2118.32 -6.73127 -3.93091 0
M  V30 22370 N 2122.55 0.0417572 -1.57545 0
M  V30 22371 C 2123.79 0.740092 -1.90531 0
M  V30 22372 C 2124.16 1.73194 -0.828727 0
M  V30 22373 O 2125.36 2.47759 -1.04254 0
M  V30 22374 C 2123.63 1.40329 -3.28698 0
M  V30 22375 S 2125.19 2.13254 -3.83495 0
M  V30 22376 H 2122 0.245468 -0.667283 0
M  V30 22377 H 2124.61 -0.00488991 -1.95499 0
M  V30 22378 H 2123.31 0.668013 -4.04927 0
M  V30 22379 H 2122.84 2.18709 -3.27002 0
M  V30 22380 H 2124.86 3.4022 -3.61199 0
M  V30 22381 N 2124.03 1.54445 0.313786 0
M  V30 22382 C 2125.45 1.45373 0.658707 0
M  V30 22383 C 2125.65 0.634528 1.91248 0
M  V30 22384 O 2124.7 0.137176 2.52127 0
M  V30 22385 C 2126.01 2.89201 0.823608 0
M  V30 22386 C 2127.56 2.99164 0.92032 0
M  V30 22387 C 2128.04 4.44162 1.11732 0
M  V30 22388 N 2129.53 4.47817 1.18382 0
M  V30 22389 C 2130.26 5.57177 1.35431 0
M  V30 22390 N 2129.76 6.76486 1.4946 0
M  V30 22391 N 2131.55 5.44842 1.38217 0
M  V30 22392 H 2123.7 2.06182 -0.510155 0
M  V30 22393 H 2125.97 0.933263 -0.166508 0
M  V30 22394 H 2125.67 3.5169 -0.0265797 0
M  V30 22395 H 2125.55 3.35881 1.7165 0
M  V30 22396 H 2127.93 2.36797 1.761 0
M  V30 22397 H 2128.01 2.558 0.00368975 0
M  V30 22398 H 2127.66 5.0712 0.281448 0
M  V30 22399 H 2127.59 4.85145 2.04797 0
M  V30 22400 H 2130.08 3.61855 1.08945 0
M  V30 22401 H 2130.39 7.55589 1.62188 0
M  V30 22402 H 2128.74 6.79376 1.46539 0
M  V30 22403 H 2131.93 4.50582 1.2686 0
M  V30 22404 H 2132.1 6.30122 1.51161 0
M  V30 22405 N 2125.51 -0.576345 1.46683 0
M  V30 22406 C 2126.44 -1.69965 1.53768 0
M  V30 22407 C 2127.45 -1.57142 0.425462 0
M  V30 22408 O 2128.64 -1.6445 0.694142 0
M  V30 22409 C 2125.74 -3.08273 1.40788 0
M  V30 22410 C 2124.91 -3.47036 2.66242 0
M  V30 22411 C 2123.97 -4.6443 2.47369 0
M  V30 22412 O 2123 -4.69971 3.21117 0
M  V30 22413 N 2124.2 -5.59714 1.53948 0
M  V30 22414 H 2126.97 -1.6434 2.50624 0
M  V30 22415 H 2124.53 -0.762495 1.4282 0
M  V30 22416 H 2126.52 -3.8461 1.25925 0
M  V30 22417 H 2125.09 -3.0823 0.520883 0
M  V30 22418 H 2124.31 -2.6034 2.96001 0
M  V30 22419 H 2125.6 -3.69703 3.49567 0
M  V30 22420 H 2125 -5.57979 0.931464 0
M  V30 22421 H 2123.55 -6.35456 1.45046 0
M  V30 22422 N 2126.99 -1.34495 -0.82151 0
M  V30 22423 C 2127.94 -1.22742 -1.92142 0
M  V30 22424 C 2128.92 -0.126123 -1.60405 0
M  V30 22425 O 2130.11 -0.355922 -1.73385 0
M  V30 22426 C 2127.24 -0.986497 -3.28821 0
M  V30 22427 C 2126.33 -2.13102 -3.66672 0
M  V30 22428 N 2126.72 -3.38231 -3.76076 0
M  V30 22429 C 2125.02 -2.04158 -3.96529 0
M  V30 22430 C 2125.72 -4.13403 -4.09234 0
M  V30 22431 N 2124.69 -3.42009 -4.22529 0
M  V30 22432 H 2128.49 -2.17564 -1.97593 0
M  V30 22433 H 2126.01 -1.26753 -1.01525 0
M  V30 22434 H 2128.01 -0.883199 -4.07437 0
M  V30 22435 H 2126.67 -0.0469712 -3.24666 0
M  V30 22436 H 2127.68 -3.72767 -3.59534 0
M  V30 22437 H 2124.35 -1.17971 -4.00486 0
M  V30 22438 H 2125.74 -5.21465 -4.23702 0
M  V30 22439 N 2128.46 1.04188 -1.18248 0
M  V30 22440 C 2129.4 2.12204 -0.866138 0
M  V30 22441 C 2130.41 1.62233 0.135743 0
M  V30 22442 O 2131.6 1.78263 -0.0919276 0
M  V30 22443 C 2128.7 3.37802 -0.272597 0
M  V30 22444 C 2127.87 4.17012 -1.31983 0
M  V30 22445 C 2126.93 5.20939 -0.74221 0
M  V30 22446 O 2125.96 5.5129 -1.41662 0
M  V30 22447 N 2127.16 5.78668 0.460879 0
M  V30 22448 H 2129.92 2.39936 -1.79585 0
M  V30 22449 H 2127.48 1.20371 -1.0827 0
M  V30 22450 H 2129.48 4.045 0.127367 0
M  V30 22451 H 2128.05 3.07523 0.561114 0
M  V30 22452 H 2127.27 3.45655 -1.89516 0
M  V30 22453 H 2128.55 4.66728 -2.0259 0
M  V30 22454 H 2127.95 5.56308 1.02655 0
M  V30 22455 H 2126.51 6.46837 0.80278 0
M  V30 22456 N 2129.94 0.98432 1.23081 0
M  V30 22457 C 2130.85 0.536158 2.28391 0
M  V30 22458 C 2131.87 -0.410933 1.69078 0
M  V30 22459 O 2133.04 -0.279885 1.99446 0
M  V30 22460 C 2130.11 -0.150493 3.46373 0
M  V30 22461 C 2129.17 0.83849 4.21032 0
M  V30 22462 C 2128.4 0.184512 5.33381 0
M  V30 22463 O 2128.63 -1.02355 5.61141 0
M  V30 22464 O 2127.56 0.885058 5.95357 0
M  V30 22465 H 2131.39 1.41206 2.68877 0
M  V30 22466 H 2128.97 0.752144 1.29086 0
M  V30 22467 H 2130.85 -0.535499 4.17984 0
M  V30 22468 H 2129.53 -1.00109 3.07831 0
M  V30 22469 H 2128.44 1.27427 3.51729 0
M  V30 22470 H 2129.77 1.65802 4.63433 0
M  V30 22471 N 2131.42 -1.38259 0.756453 0
M  V30 22472 C 2132.38 -2.28779 0.138891 0
M  V30 22473 C 2133.38 -1.47321 -0.644449 0
M  V30 22474 O 2134.57 -1.67732 -0.470292 0
M  V30 22475 C 2131.71 -3.311 -0.811535 0
M  V30 22476 H 2132.9 -2.84898 0.936651 0
M  V30 22477 H 2130.45 -1.47267 0.52365 0
M  V30 22478 H 2131.19 -2.80076 -1.63487 0
M  V30 22479 H 2130.97 -3.91288 -0.252199 0
M  V30 22480 H 2132.46 -3.9878 -1.23953 0
M  V30 22481 N 2132.9 -0.505757 -1.49264 0
M  V30 22482 C 2133.81 0.274574 -2.32988 0
M  V30 22483 C 2134.82 0.962724 -1.4494 0
M  V30 22484 O 2136 0.943054 -1.77956 0
M  V30 22485 C 2133.07 1.32231 -3.20493 0
M  V30 22486 C 2132.13 0.64709 -4.24395 0
M  V30 22487 C 2131.36 1.6449 -5.07719 0
M  V30 22488 O 2131.58 2.87523 -4.92632 0
M  V30 22489 O 2130.52 1.19761 -5.89865 0
M  V30 22490 H 2134.34 -0.410833 -3.00908 0
M  V30 22491 H 2131.93 -0.267017 -1.46994 0
M  V30 22492 H 2133.81 1.92838 -3.74689 0
M  V30 22493 H 2132.48 1.99056 -2.55262 0
M  V30 22494 H 2131.39 0.00115278 -3.741 0
M  V30 22495 H 2132.72 0.0212046 -4.92195 0
M  V30 22496 N 2134.38 1.55765 -0.239796 0
M  V30 22497 C 2135.29 2.2472 0.673658 0
M  V30 22498 C 2136.3 1.26091 1.19904 0
M  V30 22499 O 2137.48 1.5895 1.23681 0
M  V30 22500 C 2134.54 2.92772 1.85702 0
M  V30 22501 C 2133.6 4.06792 1.37182 0
M  V30 22502 C 2132.84 4.7159 2.49878 0
M  V30 22503 O 2133.06 4.35437 3.68443 0
M  V30 22504 O 2131.99 5.60237 2.2004 0
M  V30 22505 H 2135.82 3.03478 0.116142 0
M  V30 22506 H 2133.41 1.49398 -0.00858773 0
M  V30 22507 H 2135.29 3.3566 2.54774 0
M  V30 22508 H 2133.96 2.1696 2.40229 0
M  V30 22509 H 2132.87 3.68435 0.648582 0
M  V30 22510 H 2134.2 4.84401 0.872717 0
M  V30 22511 N 2135.85 -0.0334016 1.57565 0
M  V30 22512 C 2136.82 -1.01998 2.05253 0
M  V30 22513 C 2137.82 -1.29303 0.955901 0
M  V30 22514 O 2139.01 -1.24379 1.21965 0
M  V30 22515 C 2136.14 -2.35395 2.4658 0
M  V30 22516 H 2137.33 -0.608136 2.93669 0
M  V30 22517 H 2134.89 -0.280124 1.53769 0
M  V30 22518 H 2135.62 -2.81337 1.61307 0
M  V30 22519 H 2135.41 -2.16908 3.26639 0
M  V30 22520 H 2136.9 -3.06235 2.83918 0
M  V30 22521 N 2137.33 -1.54609 -0.305591 0
M  V30 22522 C 2138.75 -1.4572 -0.650988 0
M  V30 22523 C 2138.95 -0.644662 -1.90909 0
M  V30 22524 O 2138 -0.150545 -2.52051 0
M  V30 22525 C 2139.32 -2.89634 -0.808259 0
M  V30 22526 C 2140.87 -2.99648 -0.904441 0
M  V30 22527 C 2141.34 -4.44748 -1.09375 0
M  V30 22528 N 2142.83 -4.48438 -1.16006 0
M  V30 22529 C 2143.57 -5.57887 -1.32474 0
M  V30 22530 N 2143.06 -6.77269 -1.4587 0
M  V30 22531 N 2144.86 -5.45567 -1.35326 0
M  V30 22532 H 2137.01 -2.05909 0.521082 0
M  V30 22533 H 2139.27 -0.932366 0.171455 0
M  V30 22534 H 2138.98 -3.51671 0.0452303 0
M  V30 22535 H 2138.85 -3.36787 -1.69866 0
M  V30 22536 H 2141.24 -2.37727 -1.74842 0
M  V30 22537 H 2141.32 -2.55798 0.00987599 0
M  V30 22538 H 2140.96 -5.07262 -0.25455 0
M  V30 22539 H 2140.89 -4.86224 -2.02222 0
M  V30 22540 H 2143.38 -3.62428 -1.07025 0
M  V30 22541 H 2143.7 -7.56439 -1.58179 0
M  V30 22542 H 2142.04 -6.80143 -1.42934 0
M  V30 22543 H 2145.23 -4.51248 -1.24469 0
M  V30 22544 H 2145.4 -6.30915 -1.47817 0
M  V30 22545 N 2138.81 0.568558 -1.46987 0
M  V30 22546 C 2140.23 0.893359 -1.32254 0
M  V30 22547 C 2140.43 1.99185 -0.304531 0
M  V30 22548 O 2139.48 2.50853 0.287946 0
M  V30 22549 C 2140.8 1.29733 -2.71275 0
M  V30 22550 C 2142.34 1.40939 -2.79473 0
M  V30 22551 C 2142.82 1.84696 -4.19108 0
M  V30 22552 N 2144.31 1.91866 -4.21594 0
M  V30 22553 C 2145.04 2.27028 -5.26542 0
M  V30 22554 N 2144.54 2.60882 -6.41804 0
M  V30 22555 N 2146.33 2.27704 -5.13914 0
M  V30 22556 H 2138.48 -0.156857 -2.1182 0
M  V30 22557 H 2140.75 -0.00750539 -0.94797 0
M  V30 22558 H 2140.45 0.564082 -3.47147 0
M  V30 22559 H 2140.33 2.2559 -3.02306 0
M  V30 22560 H 2142.71 2.13347 -2.0388 0
M  V30 22561 H 2142.8 0.432977 -2.52109 0
M  V30 22562 H 2142.44 1.12862 -4.95202 0
M  V30 22563 H 2142.37 2.8332 -4.43889 0
M  V30 22564 H 2144.86 1.68135 -3.38436 0
M  V30 22565 H 2145.17 2.86707 -7.17648 0
M  V30 22566 H 2143.52 2.58488 -6.45142 0
M  V30 22567 H 2146.71 2.00687 -4.22898 0
M  V30 22568 H 2146.88 2.54778 -5.95812 0
M  V30 22569 N 2140.29 1.34929 0.814366 0
M  V30 22570 C 2141.7 1.14798 1.10877 0
M  V30 22571 C 2141.9 -0.0447901 2.0145 0
M  V30 22572 O 2140.96 -0.717746 2.42084 0
M  V30 22573 C 2142.27 2.44729 1.74724 0
M  V30 22574 C 2143.82 2.50864 1.8718 0
M  V30 22575 C 2144.3 3.80819 2.54443 0
M  V30 22576 N 2145.79 3.82027 2.61935 0
M  V30 22577 C 2146.52 4.79305 3.14729 0
M  V30 22578 N 2146.02 5.86969 3.68021 0
M  V30 22579 N 2147.81 4.6675 3.1321 0
M  V30 22580 H 2139.96 2.11338 0.212102 0
M  V30 22581 H 2142.23 0.934964 0.156671 0
M  V30 22582 H 2141.93 3.32146 1.15637 0
M  V30 22583 H 2141.81 2.58702 2.74505 0
M  V30 22584 H 2144.19 1.6388 2.45412 0
M  V30 22585 H 2144.27 2.40811 0.862763 0
M  V30 22586 H 2143.92 4.68196 1.96862 0
M  V30 22587 H 2143.85 3.88157 3.55867 0
M  V30 22588 H 2146.34 3.04231 2.2417 0
M  V30 22589 H 2146.65 6.57199 4.06582 0
M  V30 22590 H 2145 5.90671 3.66241 0
M  V30 22591 H 2148.19 3.81784 2.70849 0
M  V30 22592 H 2148.36 5.42728 3.54049 0
M  V30 22593 N 2141.77 -1.0356 1.18799 0
M  V30 22594 C 2142.68 -2.15173 0.934763 0
M  V30 22595 C 2143.69 -1.73695 -0.102902 0
M  V30 22596 O 2144.87 -2.0124 0.0801886 0
M  V30 22597 C 2141.93 -3.43507 0.469463 0
M  V30 22598 C 2140.99 -3.99337 1.57571 0
M  V30 22599 C 2140.23 -5.21546 1.13251 0
M  V30 22600 O 2140.45 -5.704 -0.0066957 0
M  V30 22601 O 2139.38 -5.70039 1.93233 0
M  V30 22602 H 2143.21 -2.39393 1.86881 0
M  V30 22603 H 2140.8 -1.13608 0.970239 0
M  V30 22604 H 2142.68 -4.20834 0.218298 0
M  V30 22605 H 2141.35 -3.20747 -0.436226 0
M  V30 22606 H 2140.26 -3.23375 1.88095 0
M  V30 22607 H 2141.59 -4.26448 2.45771 0
M  V30 22608 N 2143.25 -0.990834 -1.22557 0
M  V30 22609 C 2144.16 -0.548263 -2.28104 0
M  V30 22610 C 2145.17 0.401961 -1.69293 0
M  V30 22611 O 2146.35 0.269304 -1.99591 0
M  V30 22612 C 2143.41 0.132121 -3.46448 0
M  V30 22613 C 2142.47 -0.860806 -4.20581 0
M  V30 22614 C 2141.71 -0.212796 -5.33276 0
M  V30 22615 O 2141.93 0.993773 -5.61676 0
M  V30 22616 O 2140.86 -0.916619 -5.9488 0
M  V30 22617 H 2144.69 -1.4263 -2.68124 0
M  V30 22618 H 2142.27 -0.758979 -1.28685 0
M  V30 22619 H 2144.16 0.513325 -4.18262 0
M  V30 22620 H 2142.83 0.984754 -3.08357 0
M  V30 22621 H 2141.74 -1.2929 -3.51048 0
M  V30 22622 H 2143.07 -1.68257 -4.62548 0
M  V30 22623 N 2144.72 1.37856 -0.763775 0
M  V30 22624 C 2145.67 2.30357 -0.142863 0
M  V30 22625 C 2146.64 1.50697 0.698548 0
M  V30 22626 O 2147.83 1.79294 0.652566 0
M  V30 22627 C 2144.97 3.3715 0.736468 0
M  V30 22628 C 2144.08 4.31831 -0.12068 0
M  V30 22629 C 2143.21 5.25697 0.762609 0
M  V30 22630 C 2142.25 6.12022 -0.0975572 0
M  V30 22631 N 2141.39 6.98155 0.74326 0
M  V30 22632 H 2146.23 2.82878 -0.937235 0
M  V30 22633 H 2143.77 1.39261 -0.473798 0
M  V30 22634 H 2145.72 3.97686 1.26102 0
M  V30 22635 H 2144.35 2.86014 1.49652 0
M  V30 22636 H 2143.41 3.7267 -0.762965 0
M  V30 22637 H 2144.72 4.92592 -0.784528 0
M  V30 22638 H 2143.87 5.91399 1.35395 0
M  V30 22639 H 2142.61 4.65328 1.46016 0
M  V30 22640 H 2141.62 5.45306 -0.70149 0
M  V30 22641 H 2142.84 6.74462 -0.792323 0
M  V30 22642 H 2140.79 6.40323 1.42558 0
M  V30 22643 H 2140.7 7.55877 0.136535 0
M  V30 22644 H 2141.97 7.68255 1.31925 0
M  V30 22645 N 2146.2 0.513665 1.48994 0
M  V30 22646 C 2147.62 0.170439 1.58687 0
M  V30 22647 C 2147.82 -1.32564 1.51754 0
M  V30 22648 O 2146.87 -2.10262 1.39807 0
M  V30 22649 C 2148.19 0.758488 2.90977 0
M  V30 22650 C 2149.73 0.725739 3.0447 0
M  V30 22651 C 2150.21 1.29207 4.39397 0
M  V30 22652 N 2151.7 1.25333 4.45922 0
M  V30 22653 C 2152.44 1.66159 5.48798 0
M  V30 22654 N 2151.93 2.14638 6.58713 0
M  V30 22655 N 2153.72 1.57496 5.39584 0
M  V30 22656 H 2145.88 1.48619 1.51744 0
M  V30 22657 H 2148.14 0.617216 0.719548 0
M  V30 22658 H 2147.84 1.8082 3.01657 0
M  V30 22659 H 2147.72 0.226166 3.76521 0
M  V30 22660 H 2150.11 -0.315169 2.93412 0
M  V30 22661 H 2150.19 1.29535 2.20577 0
M  V30 22662 H 2149.83 2.33183 4.51207 0
M  V30 22663 H 2149.76 0.69829 5.2195 0
M  V30 22664 H 2152.25 0.89826 3.67069 0
M  V30 22665 H 2152.56 2.43827 7.33327 0
M  V30 22666 H 2150.91 2.18621 6.5972 0
M  V30 22667 H 2154.1 1.19432 4.52608 0
M  V30 22668 H 2154.27 1.89636 6.19631 0
M  V30 22669 N 2147.68 -1.55636 0.248053 0
M  V30 22670 C 2148.61 -2.2441 -0.645175 0
M  V30 22671 C 2149.59 -1.22477 -1.18039 0
M  V30 22672 O 2150.78 -1.51133 -1.21953 0
M  V30 22673 C 2147.91 -2.94446 -1.84171 0
M  V30 22674 C 2146.86 -4.03076 -1.43922 0
M  V30 22675 C 2146.19 -4.60544 -2.71668 0
M  V30 22676 C 2147.49 -5.18732 -0.609431 0
M  V30 22677 H 2149.18 -2.99314 -0.0716951 0
M  V30 22678 H 2146.73 -1.43962 -0.033043 0
M  V30 22679 H 2148.68 -3.41259 -2.47225 0
M  V30 22680 H 2147.4 -2.17031 -2.44059 0
M  V30 22681 H 2146.06 -3.57034 -0.832012 0
M  V30 22682 H 2145.71 -3.79829 -3.29756 0
M  V30 22683 H 2145.41 -5.33876 -2.4546 0
M  V30 22684 H 2146.93 -5.10091 -3.35618 0
M  V30 22685 H 2148.35 -5.61764 -1.1443 0
M  V30 22686 H 2146.74 -5.9846 -0.443361 0
M  V30 22687 H 2147.81 -4.83424 0.378087 0
M  V30 22688 N 2149.16 0.0250451 -1.5758 0
M  V30 22689 C 2150.57 0.380756 -1.54992 0
M  V30 22690 C 2150.77 1.76357 -0.974703 0
M  V30 22691 O 2149.83 2.45328 -0.597511 0
M  V30 22692 C 2151.14 0.278925 -2.99404 0
M  V30 22693 C 2152.69 0.355712 -3.10972 0
M  V30 22694 C 2153.17 0.283285 -4.57123 0
M  V30 22695 N 2154.66 0.341957 -4.61936 0
M  V30 22696 C 2155.39 0.308868 -5.72568 0
M  V30 22697 N 2154.89 0.227836 -6.92425 0
M  V30 22698 N 2156.68 0.358894 -5.60953 0
M  V30 22699 H 2148.83 -0.879846 -1.9332 0
M  V30 22700 H 2151.09 -0.334939 -0.88686 0
M  V30 22701 H 2150.8 -0.671495 -3.4523 0
M  V30 22702 H 2150.67 1.07099 -3.61676 0
M  V30 22703 H 2153.06 1.29657 -2.65091 0
M  V30 22704 H 2153.14 -0.465777 -2.51524 0
M  V30 22705 H 2152.79 -0.653918 -5.03673 0
M  V30 22706 H 2152.72 1.12293 -5.14488 0
M  V30 22707 H 2155.21 0.406934 -3.75703 0
M  V30 22708 H 2155.52 0.207798 -7.72521 0
M  V30 22709 H 2153.87 0.193826 -6.9473 0
M  V30 22710 H 2157.06 0.420219 -4.6621 0
M  V30 22711 H 2157.23 0.329639 -6.47161 0
M  V30 22712 N 2150.64 1.54769 0.297388 0
M  V30 22713 C 2152.05 1.46063 0.643251 0
M  V30 22714 C 2152.25 0.654777 1.90565 0
M  V30 22715 O 2151.31 0.16391 2.51967 0
M  V30 22716 C 2152.62 2.90058 0.792888 0
M  V30 22717 C 2154.17 3.00123 0.888538 0
M  V30 22718 C 2154.64 4.45322 1.07014 0
M  V30 22719 N 2156.13 4.49047 1.13626 0
M  V30 22720 C 2156.87 5.58582 1.29514 0
M  V30 22721 N 2156.37 6.78033 1.42276 0
M  V30 22722 N 2158.16 5.46277 1.32431 0
M  V30 22723 H 2150.31 2.0563 -0.531995 0
M  V30 22724 H 2152.57 0.931444 -0.176397 0
M  V30 22725 H 2152.28 3.51642 -0.0638796 0
M  V30 22726 H 2152.15 3.37683 1.68077 0
M  V30 22727 H 2154.54 2.38651 1.73579 0
M  V30 22728 H 2154.62 2.55789 -0.0234414 0
M  V30 22729 H 2154.26 5.0739 0.227645 0
M  V30 22730 H 2154.19 4.8729 1.9964 0
M  V30 22731 H 2156.69 3.62991 1.05101 0
M  V30 22732 H 2157 7.57267 1.54165 0
M  V30 22733 H 2155.34 6.80892 1.39325 0
M  V30 22734 H 2158.53 4.51902 1.22074 0
M  V30 22735 H 2158.71 6.3169 1.44469 0
M  V30 22736 N 2152.11 -0.560755 1.47286 0
M  V30 22737 C 2153.04 -1.67792 1.62383 0
M  V30 22738 C 2154.02 -1.6338 0.473377 0
M  V30 22739 O 2155.21 -1.81057 0.702288 0
M  V30 22740 C 2152.34 -3.06431 1.63454 0
M  V30 22741 C 2151.29 -3.25688 2.7769 0
M  V30 22742 C 2150.62 -4.65078 2.63831 0
M  V30 22743 C 2151.92 -3.11404 4.19315 0
M  V30 22744 H 2153.61 -1.55414 2.55904 0
M  V30 22745 H 2151.16 -0.746251 1.23155 0
M  V30 22746 H 2153.11 -3.84428 1.72606 0
M  V30 22747 H 2151.84 -3.1976 0.664904 0
M  V30 22748 H 2150.5 -2.50098 2.68042 0
M  V30 22749 H 2150.14 -4.75201 1.64904 0
M  V30 22750 H 2149.84 -4.78911 3.40467 0
M  V30 22751 H 2151.37 -5.45214 2.74907 0
M  V30 22752 H 2152.78 -3.79222 4.29958 0
M  V30 22753 H 2151.18 -3.36749 4.9671 0
M  V30 22754 H 2152.25 -2.08195 4.3793 0
M  V30 22755 N 2153.59 -1.35359 -0.807199 0
M  V30 22756 C 2154.5 -1.30342 -1.9506 0
M  V30 22757 C 2155.52 -0.208425 -1.72747 0
M  V30 22758 O 2156.69 -0.437692 -1.96586 0
M  V30 22759 C 2153.76 -1.07437 -3.29633 0
M  V30 22760 C 2152.82 -2.26243 -3.64846 0
M  V30 22761 C 2152.05 -2.04423 -4.92998 0
M  V30 22762 O 2152.28 -1.01037 -5.6138 0
M  V30 22763 O 2151.21 -2.91769 -5.26455 0
M  V30 22764 H 2155.04 -2.26568 -2.02239 0
M  V30 22765 H 2152.62 -1.15724 -0.944893 0
M  V30 22766 H 2154.5 -0.9651 -4.102 0
M  V30 22767 H 2153.18 -0.142618 -3.23386 0
M  V30 22768 H 2152.08 -2.42735 -2.84659 0
M  V30 22769 H 2153.42 -3.17864 -3.75797 0
M  V30 22770 N 2155.07 1.02928 -1.19346 0
M  V30 22771 C 2156.02 2.11197 -0.930836 0
M  V30 22772 C 2156.99 1.65557 0.13418 0
M  V30 22773 O 2158.17 1.90798 -0.00787889 0
M  V30 22774 C 2155.31 3.41813 -0.47517 0
M  V30 22775 C 2154.42 4.01002 -1.60691 0
M  V30 22776 C 2153.56 5.19626 -1.10282 0
M  V30 22777 C 2152.6 5.7087 -2.20848 0
M  V30 22778 N 2151.74 6.80769 -1.71749 0
M  V30 22779 H 2156.58 2.32999 -1.85784 0
M  V30 22780 H 2154.11 1.14276 -0.926246 0
M  V30 22781 H 2156.07 4.16756 -0.192384 0
M  V30 22782 H 2154.7 3.20123 0.414844 0
M  V30 22783 H 2153.75 3.23276 -2.00491 0
M  V30 22784 H 2155.06 4.3505 -2.43994 0
M  V30 22785 H 2154.22 6.01727 -0.775236 0
M  V30 22786 H 2152.96 4.87112 -0.239508 0
M  V30 22787 H 2151.96 4.87383 -2.54437 0
M  V30 22788 H 2153.19 6.05424 -3.07633 0
M  V30 22789 H 2151.13 6.50108 -0.877253 0
M  V30 22790 H 2151.05 7.13942 -2.48642 0
M  V30 22791 H 2152.32 7.66466 -1.41953 0
M  V30 22792 N 2156.55 0.997319 1.2203 0
M  V30 22793 C 2157.49 0.551276 2.2412 0
M  V30 22794 C 2158.46 -0.418681 1.60737 0
M  V30 22795 O 2159.65 -0.322451 1.88056 0
M  V30 22796 C 2156.79 -0.123569 3.44879 0
M  V30 22797 C 2155.9 0.888653 4.22761 0
M  V30 22798 C 2155.04 0.186868 5.30871 0
M  V30 22799 C 2154.08 1.18716 6.00477 0
M  V30 22800 N 2153.21 0.513378 7.00221 0
M  V30 22801 H 2158.05 1.42656 2.61636 0
M  V30 22802 H 2155.59 0.714493 1.28582 0
M  V30 22803 H 2157.55 -0.53179 4.13797 0
M  V30 22804 H 2156.18 -0.962614 3.08113 0
M  V30 22805 H 2155.23 1.41517 3.53096 0
M  V30 22806 H 2156.54 1.65019 4.70712 0
M  V30 22807 H 2155.7 -0.277858 6.06063 0
M  V30 22808 H 2154.44 -0.60714 4.83906 0
M  V30 22809 H 2153.44 1.66247 5.24063 0
M  V30 22810 H 2154.67 1.98212 6.4953 0
M  V30 22811 H 2152.61 -0.261113 6.5548 0
M  V30 22812 H 2152.53 1.21329 7.462 0
M  V30 22813 H 2153.8 0.0716018 7.79467 0
M  V30 22814 N 2158.03 -1.37449 0.771075 0
M  V30 22815 C 2159.44 -1.53106 0.450629 0
M  V30 22816 C 2159.64 -1.72957 -1.03384 0
M  V30 22817 O 2158.7 -1.75055 -1.81967 0
M  V30 22818 C 2160.01 -2.72792 1.26511 0
M  V30 22819 C 2161.56 -2.86653 1.25695 0
M  V30 22820 C 2162.03 -4.09321 2.05477 0
M  V30 22821 N 2163.53 -4.16432 2.02827 0
M  V30 22822 C 2164.26 -5.10381 2.61341 0
M  V30 22823 N 2163.76 -6.09892 3.2864 0
M  V30 22824 N 2165.55 -5.02859 2.51175 0
M  V30 22825 H 2157.7 -1.22815 1.73292 0
M  V30 22826 H 2159.96 -0.597977 0.735614 0
M  V30 22827 H 2159.67 -2.64586 2.31705 0
M  V30 22828 H 2159.54 -3.66457 0.893837 0
M  V30 22829 H 2161.93 -2.9433 0.213001 0
M  V30 22830 H 2162.01 -1.93949 1.66786 0
M  V30 22831 H 2161.66 -4.02404 3.09892 0
M  V30 22832 H 2161.59 -5.01137 1.61768 0
M  V30 22833 H 2164.08 -3.45173 1.53831 0
M  V30 22834 H 2164.39 -6.78106 3.70664 0
M  V30 22835 H 2162.73 -6.10172 3.32738 0
M  V30 22836 H 2165.93 -4.24063 1.98213 0
M  V30 22837 H 2166.1 -5.75893 2.97071 0
M  V30 22838 N 2159.5 -0.52156 -1.4872 0
M  V30 22839 C 2160.92 -0.178852 -1.58595 0
M  V30 22840 C 2161.12 1.31757 -1.52455 0
M  V30 22841 O 2160.18 2.09518 -1.4092 0
M  V30 22842 C 2161.49 -0.773908 -2.9057 0
M  V30 22843 C 2163.04 -0.741876 -3.04081 0
M  V30 22844 C 2163.51 -1.31536 -4.38705 0
M  V30 22845 N 2165 -1.27696 -4.45251 0
M  V30 22846 C 2165.74 -1.69067 -5.47909 0
M  V30 22847 N 2165.23 -2.18128 -6.57565 0
M  V30 22848 N 2167.03 -1.60356 -5.38742 0
M  V30 22849 H 2159.18 -1.49422 -1.50953 0
M  V30 22850 H 2161.44 -0.621023 -0.716264 0
M  V30 22851 H 2161.15 -1.82417 -3.00694 0
M  V30 22852 H 2161.02 -0.246131 -3.76396 0
M  V30 22853 H 2163.41 0.299604 -2.93575 0
M  V30 22854 H 2163.49 -1.30703 -2.19887 0
M  V30 22855 H 2163.13 -2.35572 -4.49964 0
M  V30 22856 H 2163.06 -0.72596 -5.21572 0
M  V30 22857 H 2165.55 -0.917714 -3.66588 0
M  V30 22858 H 2165.87 -2.47712 -7.32023 0
M  V30 22859 H 2164.21 -2.22116 -6.58551 0
M  V30 22860 H 2167.4 -1.21831 -4.51968 0
M  V30 22861 H 2167.58 -1.92919 -6.18616 0
M  V30 22862 N 2160.98 1.55502 -0.256304 0
M  V30 22863 C 2161.93 2.2177 0.63926 0
M  V30 22864 C 2162.9 1.18474 1.16418 0
M  V30 22865 O 2164.08 1.46954 1.21693 0
M  V30 22866 C 2161.22 2.92819 1.82623 0
M  V30 22867 C 2160.34 4.10791 1.33695 0
M  V30 22868 C 2159.47 4.69531 2.48423 0
M  V30 22869 C 2158.51 5.79735 1.96403 0
M  V30 22870 N 2157.65 6.32617 3.04533 0
M  V30 22871 H 2162.49 2.97924 0.0674772 0
M  V30 22872 H 2160.03 1.47084 0.0215424 0
M  V30 22873 H 2161.98 3.32216 2.52366 0
M  V30 22874 H 2160.61 2.19122 2.37034 0
M  V30 22875 H 2159.67 3.76644 0.533253 0
M  V30 22876 H 2160.98 4.90321 0.915786 0
M  V30 22877 H 2160.13 5.11551 3.26191 0
M  V30 22878 H 2158.87 3.89238 2.93845 0
M  V30 22879 H 2157.88 5.37183 1.17108 0
M  V30 22880 H 2159.1 6.61885 1.51939 0
M  V30 22881 H 2157.05 5.55225 3.49372 0
M  V30 22882 H 2156.96 7.07366 2.66776 0
M  V30 22883 H 2158.23 6.79295 3.82332 0
M  V30 22884 N 2162.46 -0.0166879 1.57591 0
M  V30 22885 C 2163.42 -0.998156 2.06324 0
M  V30 22886 C 2164.42 -1.28282 0.969561 0
M  V30 22887 O 2165.61 -1.23078 1.23278 0
M  V30 22888 C 2162.75 -2.32767 2.49063 0
M  V30 22889 H 2163.94 -0.576954 2.94298 0
M  V30 22890 H 2161.49 -0.263799 1.54058 0
M  V30 22891 H 2162.23 -2.7961 1.64282 0
M  V30 22892 H 2162.01 -2.13431 3.28922 0
M  V30 22893 H 2163.5 -3.03207 2.87151 0
M  V30 22894 N 2163.94 -1.54924 -0.289176 0
M  V30 22895 C 2164.87 -1.8308 -1.37892 0
M  V30 22896 C 2165.88 -0.714368 -1.4629 0
M  V30 22897 O 2167.07 -0.992012 -1.48396 0
M  V30 22898 C 2164.17 -1.96434 -2.76165 0
M  V30 22899 C 2163.35 -3.26949 -2.90557 0
M  V30 22900 C 2162.4 -3.3057 -4.09402 0
M  V30 22901 O 2161.43 -4.04038 -4.00926 0
M  V30 22902 N 2162.63 -2.56808 -5.20605 0
M  V30 22903 H 2165.4 -2.77135 -1.1409 0
M  V30 22904 H 2162.96 -1.54643 -0.479271 0
M  V30 22905 H 2164.95 -1.96244 -3.53935 0
M  V30 22906 H 2163.52 -1.0932 -2.92862 0
M  V30 22907 H 2162.74 -3.39813 -1.99802 0
M  V30 22908 H 2164.03 -4.13054 -2.97092 0
M  V30 22909 H 2163.43 -1.96772 -5.30375 0
M  V30 22910 H 2161.98 -2.6236 -5.96666 0
M  V30 22911 N 2165.42 0.552936 -1.47582 0
M  V30 22912 C 2166.83 0.879282 -1.33195 0
M  V30 22913 C 2167.03 1.98851 -0.32564 0
M  V30 22914 O 2166.09 2.51144 0.261323 0
M  V30 22915 C 2167.4 1.26848 -2.72635 0
M  V30 22916 C 2168.95 1.37967 -2.80952 0
M  V30 22917 C 2169.42 1.8024 -4.21043 0
M  V30 22918 N 2170.92 1.87383 -4.23606 0
M  V30 22919 C 2171.65 2.2143 -5.2892 0
M  V30 22920 N 2171.15 2.54061 -6.44535 0
M  V30 22921 N 2172.94 2.2224 -5.163 0
M  V30 22922 H 2165.09 -0.179315 -2.11642 0
M  V30 22923 H 2167.35 -0.0175595 -0.947837 0
M  V30 22924 H 2167.06 0.52723 -3.47726 0
M  V30 22925 H 2166.93 2.22371 -3.04682 0
M  V30 22926 H 2169.32 2.11172 -2.06132 0
M  V30 22927 H 2169.4 0.406213 -2.52554 0
M  V30 22928 H 2169.05 1.07603 -4.96371 0
M  V30 22929 H 2168.98 2.78596 -4.46869 0
M  V30 22930 H 2171.47 1.64536 -3.40201 0
M  V30 22931 H 2171.78 2.79079 -7.20649 0
M  V30 22932 H 2170.12 2.51631 -6.47848 0
M  V30 22933 H 2173.32 1.9619 -4.25002 0
M  V30 22934 H 2173.49 2.48444 -5.98481 0
M  V30 22935 N 2166.89 1.35785 0.800009 0
M  V30 22936 C 2167.82 1.31917 1.92666 0
M  V30 22937 C 2168.81 0.19244 1.69008 0
M  V30 22938 O 2169.99 0.388435 1.90276 0
M  V30 22939 C 2167.12 1.09703 3.29519 0
M  V30 22940 C 2166.07 2.19086 3.67675 0
M  V30 22941 C 2165.4 1.82029 5.02762 0
M  V30 22942 C 2166.7 3.611 3.77365 0
M  V30 22943 H 2168.39 2.26189 1.96161 0
M  V30 22944 H 2165.94 1.08882 0.94237 0
M  V30 22945 H 2167.89 1.05634 4.07945 0
M  V30 22946 H 2166.62 0.118779 3.26384 0
M  V30 22947 H 2165.28 2.22263 2.91539 0
M  V30 22948 H 2164.92 0.828056 4.96137 0
M  V30 22949 H 2164.62 2.55256 5.29262 0
M  V30 22950 H 2166.15 1.79497 5.83621 0
M  V30 22951 H 2167.56 3.60209 4.46007 0
M  V30 22952 H 2165.96 4.33143 4.1534 0
M  V30 22953 H 2167.03 3.96774 2.78744 0
M  V30 22954 N 2168.37 -1.02294 1.19891 0
M  V30 22955 C 2169.78 -1.5724 1.0066 0
M  V30 22956 C 2170.13 -1.9123 -0.43882 0
M  V30 22957 O 2169.26 -1.71541 -1.31919 0
M  V30 22958 C 2169.85 -2.85704 1.82094 0
M  V30 22959 C 2168.41 -3.37202 1.67248 0
M  V30 22960 C 2167.56 -2.10577 1.80424 0
M  V30 22961 H 2170.51 -0.84751 1.34175 0
M  V30 22962 H 2170.53 -3.56849 1.32056 0
M  V30 22963 H 2170.04 -2.60935 2.87289 0
M  V30 22964 H 2168.15 -3.66946 0.646645 0
M  V30 22965 H 2168.26 -4.09832 2.48142 0
M  V30 22966 H 2166.62 -2.2273 1.23545 0
M  V30 22967 H 2167.41 -1.88241 2.87089 0
M  V30 22968 N 2169.85 -1.00378 -1.21499 0
M  V30 22969 C 2171.08 -0.703551 -1.94252 0
M  V30 22970 C 2171.49 0.73767 -1.74227 0
M  V30 22971 O 2170.83 1.51064 -1.04525 0
M  V30 22972 C 2170.89 -0.94326 -3.46905 0
M  V30 22973 C 2170.56 -2.37108 -3.90677 0
M  V30 22974 C 2171.55 -3.35123 -3.97478 0
M  V30 22975 C 2169.24 -2.70841 -4.23025 0
M  V30 22976 C 2171.23 -4.64939 -4.36017 0
M  V30 22977 C 2168.92 -4.00873 -4.61242 0
M  V30 22978 C 2169.92 -4.97734 -4.67708 0
M  V30 22979 O 2169.61 -6.25441 -5.05054 0
M  V30 22980 H 2169.34 -0.258563 -0.624597 0
M  V30 22981 H 2171.89 -1.34429 -1.55299 0
M  V30 22982 H 2170.12 -0.245347 -3.85921 0
M  V30 22983 H 2171.81 -0.636609 -4.00877 0
M  V30 22984 H 2172.58 -3.10397 -3.72665 0
M  V30 22985 H 2168.46 -1.96145 -4.17191 0
M  V30 22986 H 2172 -5.4054 -4.40978 0
M  V30 22987 H 2167.9 -4.25385 -4.85508 0
M  V30 22988 H 2168.67 -6.29538 -5.23091 0
M  V30 22989 N 2171.33 1.37038 -0.778354 0
M  V30 22990 C 2172.56 2.03497 -0.356748 0
M  V30 22991 C 2172.97 1.58831 1.02807 0
M  V30 22992 O 2172.31 0.768031 1.66874 0
M  V30 22993 C 2172.37 3.57995 -0.328646 0
M  V30 22994 C 2172.04 4.25818 -1.65916 0
M  V30 22995 C 2173.03 4.49479 -2.61276 0
M  V30 22996 C 2170.72 4.63516 -1.93542 0
M  V30 22997 C 2172.71 5.09903 -3.82463 0
M  V30 22998 C 2170.4 5.2366 -3.14998 0
M  V30 22999 C 2171.4 5.46791 -4.09278 0
M  V30 23000 O 2171.08 6.05676 -5.28594 0
M  V30 23001 H 2170.82 0.659921 -0.146563 0
M  V30 23002 H 2173.37 1.76221 -1.05523 0
M  V30 23003 H 2171.6 3.84343 0.42626 0
M  V30 23004 H 2173.29 4.05845 0.0667865 0
M  V30 23005 H 2174.06 4.20761 -2.41216 0
M  V30 23006 H 2169.93 4.44842 -1.20983 0
M  V30 23007 H 2173.48 5.27874 -4.56064 0
M  V30 23008 H 2169.38 5.51802 -3.3494 0
M  V30 23009 H 2170.14 6.2415 -5.29508 0
M  V30 23010 N 2172.81 0.529439 1.48441 0
M  V30 23011 C 2173.77 -0.222884 2.28114 0
M  V30 23012 C 2174.77 -0.868268 1.35343 0
M  V30 23013 O 2175.96 -0.728402 1.5824 0
M  V30 23014 C 2173.09 -1.3225 3.14202 0
M  V30 23015 H 2174.29 0.476616 2.96088 0
M  V30 23016 H 2171.84 0.28536 1.53673 0
M  V30 23017 H 2172.57 -2.05527 2.50857 0
M  V30 23018 H 2172.36 -0.864853 3.82443 0
M  V30 23019 H 2173.85 -1.85168 3.74303 0
M  V30 23020 N 2174.29 -1.55364 0.264547 0
M  V30 23021 C 2175.51 -2.03764 -0.358889 0
M  V30 23022 C 2175.93 -1.14327 -1.50249 0
M  V30 23023 O 2175.29 -0.161219 -1.81787 0
M  V30 23024 C 2175.34 -3.51366 -0.849959 0
M  V30 23025 O 2175.06 -4.37397 0.248086 0
M  V30 23026 C 2176.56 -4.15606 -1.54229 0
M  V30 23027 H 2173.78 -0.66582 -0.0832187 0
M  V30 23028 H 2176.32 -2.00677 0.39356 0
M  V30 23029 H 2174.48 -3.5493 -1.55253 0
M  V30 23030 H 2174.89 -5.24345 -0.127661 0
M  V30 23031 H 2176.37 -5.20522 -1.83742 0
M  V30 23032 H 2176.84 -3.63145 -2.47027 0
M  V30 23033 H 2177.45 -4.16015 -0.883843 0
M  V30 23034 N 2175.76 0.00833021 -1.57598 0
M  V30 23035 C 2176.99 0.705099 -1.94196 0
M  V30 23036 C 2177.4 1.68297 -0.864461 0
M  V30 23037 O 2176.74 1.82948 0.166002 0
M  V30 23038 C 2176.81 1.49958 -3.2673 0
M  V30 23039 C 2176.47 0.684223 -4.51849 0
M  V30 23040 C 2177.47 -0.0245096 -5.19894 0
M  V30 23041 C 2175.15 0.632648 -4.983 0
M  V30 23042 C 2177.15 -0.773893 -6.32684 0
M  V30 23043 C 2174.83 -0.120466 -6.10981 0
M  V30 23044 C 2175.83 -0.822478 -6.7803 0
M  V30 23045 O 2175.52 -1.56332 -7.88553 0
M  V30 23046 H 2175.25 0.201893 -0.645148 0
M  V30 23047 H 2177.81 -0.0363833 -2.05368 0
M  V30 23048 H 2176.04 2.28536 -3.11943 0
M  V30 23049 H 2177.72 2.08091 -3.48501 0
M  V30 23050 H 2178.49 0.0062356 -4.85 0
M  V30 23051 H 2174.37 1.16859 -4.45943 0
M  V30 23052 H 2177.91 -1.32237 -6.84952 0
M  V30 23053 H 2173.81 -0.153062 -6.45319 0
M  V30 23054 H 2174.58 -1.47916 -8.05024 0
M  V30 23055 N 2177.24 1.55075 0.280956 0
M  V30 23056 C 2178.48 1.77053 1.02135 0
M  V30 23057 C 2178.85 0.555587 1.83786 0
M  V30 23058 O 2180.05 0.65347 2.60736 0
M  V30 23059 C 2178.32 3.03523 1.88703 0
M  V30 23060 S 2179.88 3.46587 2.69115 0
M  V30 23061 H 2176.69 0.62217 0.34413 0
M  V30 23062 H 2179.3 1.93298 0.292595 0
M  V30 23063 H 2178 3.9005 1.27628 0
M  V30 23064 H 2177.53 2.89921 2.65912 0
M  V30 23065 H 2179.55 3.05234 3.91212 0
M  V30 23066 N 2178.72 -0.545102 1.47873 0
M  V30 23067 C 2179.67 -1.64692 1.57672 0
M  V30 23068 C 2180.65 -1.54914 0.434787 0
M  V30 23069 O 2181.85 -1.63191 0.685394 0
M  V30 23070 C 2178.97 -3.03449 1.60542 0
M  V30 23071 C 2178.06 -3.18386 2.80162 0
M  V30 23072 N 2178.45 -3.03347 4.0474 0
M  V30 23073 C 2176.75 -3.49412 2.77178 0
M  V30 23074 C 2177.45 -3.21298 4.84915 0
M  V30 23075 N 2176.43 -3.48186 4.17454 0
M  V30 23076 H 2180.23 -1.51652 2.51752 0
M  V30 23077 H 2177.74 -0.750179 1.44035 0
M  V30 23078 H 2179.74 -3.82576 1.65654 0
M  V30 23079 H 2178.4 -3.17592 0.675673 0
M  V30 23080 H 2179.41 -2.80422 4.35412 0
M  V30 23081 H 2176.09 -3.70007 1.93394 0
M  V30 23082 H 2177.48 -3.14536 5.93731 0
M  V30 23083 N 2180.2 -1.36208 -0.792797 0
M  V30 23084 C 2181.43 -1.33396 -1.58155 0
M  V30 23085 C 2181.84 0.0855356 -1.88606 0
M  V30 23086 O 2181.2 1.04147 -1.49865 0
M  V30 23087 C 2181.25 -2.15213 -2.90458 0
M  V30 23088 O 2180.97 -3.51629 -2.61321 0
M  V30 23089 C 2182.47 -2.20144 -3.84775 0
M  V30 23090 H 2179.69 -0.457713 -0.490652 0
M  V30 23091 H 2182.23 -1.79258 -0.984222 0
M  V30 23092 H 2180.39 -1.72915 -3.46669 0
M  V30 23093 H 2180.8 -3.94282 -3.45893 0
M  V30 23094 H 2182.28 -2.81755 -4.74677 0
M  V30 23095 H 2182.75 -1.20396 -4.22376 0
M  V30 23096 H 2183.36 -2.62663 -3.34497 0
M  V30 23097 N 2181.68 1.01656 -1.20431 0
M  V30 23098 C 2183.09 1.27562 -0.959176 0
M  V30 23099 C 2183.29 1.98235 0.361268 0
M  V30 23100 O 2182.35 2.27772 1.08979 0
M  V30 23101 C 2183.66 2.11061 -2.14181 0
M  V30 23102 C 2185.21 2.24327 -2.1828 0
M  V30 23103 C 2185.68 3.11204 -3.3603 0
M  V30 23104 N 2187.17 3.18793 -3.36044 0
M  V30 23105 C 2187.91 3.86239 -4.23801 0
M  V30 23106 N 2187.41 4.55811 -5.21736 0
M  V30 23107 N 2189.2 3.82763 -4.11642 0
M  V30 23108 H 2181.35 0.542057 -2.05367 0
M  V30 23109 H 2183.61 0.30186 -0.898657 0
M  V30 23110 H 2183.32 1.66468 -3.09808 0
M  V30 23111 H 2183.19 3.11798 -2.12278 0
M  V30 23112 H 2185.58 2.68145 -1.23216 0
M  V30 23113 H 2185.66 1.23099 -2.24232 0
M  V30 23114 H 2185.3 2.68092 -4.3138 0
M  V30 23115 H 2185.23 4.1252 -3.27315 0
M  V30 23116 H 2187.73 2.69255 -2.6516 0
M  V30 23117 H 2188.04 5.04944 -5.85023 0
M  V30 23118 H 2186.38 4.54635 -5.25673 0
M  V30 23119 H 2189.57 3.27557 -3.34401 0
M  V30 23120 H 2189.75 4.3505 -4.80245 0
M  V30 23121 N 2183.15 1.01021 1.20965 0
M  V30 23122 C 2184.08 0.5953 2.25784 0
M  V30 23123 C 2185.06 -0.386477 1.65651 0
M  V30 23124 O 2186.25 -0.273315 1.92267 0
M  V30 23125 C 2183.38 -0.0736489 3.47222 0
M  V30 23126 C 2182.33 0.828449 4.19906 0
M  V30 23127 C 2181.66 0.0256242 5.34694 0
M  V30 23128 C 2182.96 2.13351 4.76737 0
M  V30 23129 H 2184.65 1.4715 2.60744 0
M  V30 23130 H 2182.2 0.70899 1.25337 0
M  V30 23131 H 2184.15 -0.375423 4.19724 0
M  V30 23132 H 2182.88 -0.984519 3.11408 0
M  V30 23133 H 2181.54 1.11413 3.4926 0
M  V30 23134 H 2181.18 -0.886697 4.95123 0
M  V30 23135 H 2180.88 0.626319 5.84253 0
M  V30 23136 H 2182.41 -0.269844 6.10003 0
M  V30 23137 H 2183.82 1.89453 5.41092 0
M  V30 23138 H 2182.22 2.68451 5.36707 0
M  V30 23139 H 2183.29 2.80081 3.95832 0
M  V30 23140 N 2184.63 -1.36623 0.78561 0
M  V30 23141 C 2185.56 -2.3268 0.195557 0
M  V30 23142 C 2186.54 -1.56463 -0.667335 0
M  V30 23143 O 2187.73 -1.84636 -0.601943 0
M  V30 23144 C 2184.86 -3.40708 -0.673467 0
M  V30 23145 C 2183.81 -4.27907 0.0892255 0
M  V30 23146 C 2183.14 -5.27069 -0.900146 0
M  V30 23147 C 2184.44 -5.06468 1.27624 0
M  V30 23148 H 2186.13 -2.82276 0.998033 0
M  V30 23149 H 2183.68 -1.35716 0.481373 0
M  V30 23150 H 2185.63 -4.06893 -1.09617 0
M  V30 23151 H 2184.35 -2.8967 -1.50861 0
M  V30 23152 H 2183.01 -3.63272 0.492858 0
M  V30 23153 H 2182.66 -4.72306 -1.73022 0
M  V30 23154 H 2182.36 -5.86276 -0.394285 0
M  V30 23155 H 2183.89 -5.96128 -1.32149 0
M  V30 23156 H 2185.3 -5.65715 0.92949 0
M  V30 23157 H 2183.7 -5.75068 1.71513 0
M  V30 23158 H 2184.77 -4.38332 2.07349 0
M  V30 23159 N 2186.11 -0.537304 -1.48158 0
M  V30 23160 C 2187.36 -0.00384223 -2.017 0
M  V30 23161 C 2187.67 1.34625 -1.419 0
M  V30 23162 O 2188.88 1.96849 -1.86983 0
M  V30 23163 C 2187.33 0.0435291 -3.59874 0
M  V30 23164 C 2186.94 -1.30211 -4.2866 0
M  V30 23165 C 2188.69 0.525433 -4.21236 0
M  V30 23166 C 2186.59 -1.21492 -5.78786 0
M  V30 23167 H 2185.52 0.00233368 -0.753996 0
M  V30 23168 H 2188.17 -0.682181 -1.70348 0
M  V30 23169 H 2186.56 0.7871 -3.88099 0
M  V30 23170 H 2187.73 -2.06182 -4.12099 0
M  V30 23171 H 2186.04 -1.72034 -3.79201 0
M  V30 23172 H 2188.64 0.608744 -5.31223 0
M  V30 23173 H 2188.98 1.5329 -3.8705 0
M  V30 23174 H 2189.52 -0.162674 -3.97467 0
M  V30 23175 H 2186.26 -2.19778 -6.17558 0
M  V30 23176 H 2185.78 -0.496694 -5.9774 0
M  V30 23177 H 2187.46 -0.908641 -6.40588 0
M  V30 23178 N 2187.59 1.55221 -0.272782 0
M  V30 23179 C 2188.54 2.19118 0.630176 0
M  V30 23180 C 2189.52 1.15507 1.12013 0
M  V30 23181 O 2190.71 1.4133 1.06559 0
M  V30 23182 C 2187.84 2.91401 1.81494 0
M  V30 23183 C 2186.93 4.02298 1.34228 0
M  V30 23184 N 2187.32 5.02399 0.585608 0
M  V30 23185 C 2185.62 4.15326 1.62543 0
M  V30 23186 C 2186.32 5.80721 0.337422 0
M  V30 23187 N 2185.3 5.35943 0.909166 0
M  V30 23188 H 2189.1 2.93867 0.0441972 0
M  V30 23189 H 2186.61 1.62221 -0.076237 0
M  V30 23190 H 2188.61 3.35625 2.47309 0
M  V30 23191 H 2187.27 2.18163 2.40489 0
M  V30 23192 H 2188.28 5.17375 0.233177 0
M  V30 23193 H 2184.96 3.53276 2.22491 0
M  V30 23194 H 2186.35 6.71364 -0.268428 0
M  V30 23195 N 2189.07 2.77022e-05 1.576 0
M  V30 23196 C 2190.29 -0.699433 1.9525 0
M  V30 23197 C 2190.72 -1.66511 0.874964 0
M  V30 23198 O 2190.07 -1.8053 -0.166897 0
M  V30 23199 C 2190.12 -1.4075 3.31996 0
M  V30 23200 O 2189.23 -2.52192 3.26302 0
M  V30 23201 H 2188.57 -0.18604 0.637405 0
M  V30 23202 H 2191.1 0.053226 2.04531 0
M  V30 23203 H 2191.11 -1.77092 3.67563 0
M  V30 23204 H 2189.78 -0.699458 4.09976 0
M  V30 23205 H 2188.36 -2.18177 3.02412 0
M  V30 23206 N 2190.54 -1.55222 -0.272728 0
M  V30 23207 C 2191.48 -1.83048 -1.36266 0
M  V30 23208 C 2192.46 -0.683547 -1.47534 0
M  V30 23209 O 2193.64 -0.926574 -1.64155 0
M  V30 23210 C 2190.77 -1.99234 -2.73904 0
M  V30 23211 C 2189.81 -3.21788 -2.79919 0
M  V30 23212 S 2190.65 -4.79138 -2.39137 0
M  V30 23213 C 2191.8 -4.98297 -3.78749 0
M  V30 23214 H 2192.03 -2.75209 -1.1246 0
M  V30 23215 H 2189.57 -1.46997 -0.472372 0
M  V30 23216 H 2191.53 -2.09244 -3.53167 0
M  V30 23217 H 2190.19 -1.07961 -2.94963 0
M  V30 23218 H 2189.38 -3.30001 -3.8094 0
M  V30 23219 H 2188.98 -3.1037 -2.08677 0
M  V30 23220 H 2191.27 -4.84055 -4.74022 0
M  V30 23221 H 2192.22 -6.00345 -3.75488 0
M  V30 23222 H 2192.62 -4.26277 -3.70065 0
M  V30 23223 N 2192.02 0.537252 -1.4816 0
M  V30 23224 C 2193.26 1.30403 -1.57399 0
M  V30 23225 C 2193.63 1.90504 -0.239236 0
M  V30 23226 O 2194.83 2.68005 -0.206575 0
M  V30 23227 C 2193.1 2.3697 -2.67545 0
M  V30 23228 S 2194.66 3.23469 -2.96501 0
M  V30 23229 H 2191.48 0.443674 -0.555584 0
M  V30 23230 H 2194.08 0.61288 -1.85645 0
M  V30 23231 H 2192.78 1.91285 -3.63096 0
M  V30 23232 H 2192.31 3.10801 -2.41177 0
M  V30 23233 H 2194.33 4.36893 -2.35242 0
M  V30 23234 N 2193.5 1.36626 0.785562 0
M  V30 23235 C 2194.73 1.34233 1.57446 0
M  V30 23236 C 2195.14 -0.0755322 1.88649 0
M  V30 23237 O 2194.5 -1.03351 1.50416 0
M  V30 23238 C 2194.55 2.1675 2.89312 0
M  V30 23239 O 2194.27 3.5301 2.59452 0
M  V30 23240 C 2195.77 2.22181 3.83602 0
M  V30 23241 H 2192.99 0.460309 0.488218 0
M  V30 23242 H 2195.54 1.79777 0.974701 0
M  V30 23243 H 2193.69 1.74751 3.45747 0
M  V30 23244 H 2194.11 3.96111 3.43797 0
M  V30 23245 H 2195.58 2.84268 4.73176 0
M  V30 23246 H 2196.06 1.22634 4.21732 0
M  V30 23247 H 2196.66 2.64433 3.331 0
M  V30 23248 N 2194.98 -1.01016 1.20969 0
M  V30 23249 C 2196.2 -1.78837 1.05034 0
M  V30 23250 C 2196.63 -1.8389 -0.39572 0
M  V30 23251 O 2195.99 -1.2787 -1.28527 0
M  V30 23252 C 2196.03 -3.20837 1.64608 0
M  V30 23253 O 2195.14 -4.02725 0.888059 0
M  V30 23254 H 2194.48 -0.55136 0.369997 0
M  V30 23255 H 2197.01 -1.27015 1.60401 0
M  V30 23256 H 2197.02 -3.71529 1.68613 0
M  V30 23257 H 2195.69 -3.16474 2.69846 0
M  V30 23258 H 2194.27 -3.61304 0.922711 0
M  V30 23259 N 2196.46 -1.01661 -1.20428 0
M  V30 23260 C 2197.41 -0.557662 -2.21075 0
M  V30 23261 C 2198.39 0.387001 -1.56177 0
M  V30 23262 O 2199.58 0.209965 -1.7575 0
M  V30 23263 C 2196.71 0.102647 -3.43147 0
M  V30 23264 C 2195.8 -0.863725 -4.15212 0
M  V30 23265 N 2196.19 -2.02125 -4.63659 0
M  V30 23266 C 2194.49 -0.684549 -4.40715 0
M  V30 23267 C 2195.19 -2.62975 -5.18863 0
M  V30 23268 N 2194.16 -1.91036 -5.08927 0
M  V30 23269 H 2197.97 -1.44012 -2.56198 0
M  V30 23270 H 2195.48 -0.881955 -1.36365 0
M  V30 23271 H 2197.48 0.448981 -4.14475 0
M  V30 23272 H 2196.14 0.980949 -3.09528 0
M  V30 23273 H 2197.15 -2.40118 -4.58873 0
M  V30 23274 H 2193.82 0.145697 -4.17246 0
M  V30 23275 H 2195.21 -3.60934 -5.66724 0
M  V30 23276 N 2197.93 1.36205 -0.792844 0
M  V30 23277 C 2199.16 2.03107 -0.378311 0
M  V30 23278 C 2199.57 1.59913 1.01117 0
M  V30 23279 O 2198.92 0.785687 1.6605 0
M  V30 23280 C 2198.98 3.57626 -0.366598 0
M  V30 23281 C 2198.64 4.24034 -1.70424 0
M  V30 23282 C 2199.64 4.46682 -2.66028 0
M  V30 23283 C 2197.32 4.61437 -1.98447 0
M  V30 23284 C 2199.32 5.05818 -3.87849 0
M  V30 23285 C 2197 5.20289 -3.20534 0
M  V30 23286 C 2198 5.4242 -4.15054 0
M  V30 23287 O 2197.69 6.00035 -5.34988 0
M  V30 23288 H 2197.42 0.658329 -0.153555 0
M  V30 23289 H 2199.98 1.75092 -1.07387 0
M  V30 23290 H 2198.21 3.84774 0.385471 0
M  V30 23291 H 2199.9 4.05893 0.0237374 0
M  V30 23292 H 2200.66 4.18179 -2.45666 0
M  V30 23293 H 2196.54 4.43534 -1.25694 0
M  V30 23294 H 2200.08 5.23007 -4.61637 0
M  V30 23295 H 2195.98 5.48219 -3.40774 0
M  V30 23296 H 2196.75 6.18499 -5.36098 0
M  V30 23297 N 2199.41 0.545154 1.47871 0
M  V30 23298 C 2200.34 -0.197752 2.32661 0
M  V30 23299 C 2201.32 -0.920479 1.43043 0
M  V30 23300 O 2202.51 -0.9033 1.71913 0
M  V30 23301 C 2199.64 -1.23576 3.24571 0
M  V30 23302 C 2198.59 -0.630249 4.23334 0
M  V30 23303 C 2197.92 -1.77202 5.04483 0
M  V30 23304 C 2199.22 0.408065 5.20703 0
M  V30 23305 H 2200.91 0.510097 2.95023 0
M  V30 23306 H 2198.46 0.246756 1.4187 0
M  V30 23307 H 2200.41 -1.76355 3.82723 0
M  V30 23308 H 2199.14 -1.9734 2.6024 0
M  V30 23309 H 2197.79 -0.123857 3.66391 0
M  V30 23310 H 2197.44 -2.4984 4.36565 0
M  V30 23311 H 2197.14 -1.37271 5.71341 0
M  V30 23312 H 2198.67 -2.3033 5.65491 0
M  V30 23313 H 2200.08 -0.0332043 5.7329 0
M  V30 23314 H 2198.48 0.725591 5.95697 0
M  V30 23315 H 2199.55 1.30837 4.66915 0
M  V30 23316 N 2200.89 -1.55074 0.28101 0
M  V30 23317 C 2202.17 -1.9175 -0.386173 0
M  V30 23318 C 2202.55 -1.20597 -1.73262 0
M  V30 23319 O 2201.9 -0.334824 -2.26034 0
M  V30 23320 C 2202.11 -3.45095 -0.520626 0
M  V30 23321 C 2203.45 -4.1698 -0.800792 0
M  V30 23322 O 2204.48 -3.51021 -0.605209 0
M  V30 23323 O 2203.34 -5.33714 -1.17521 0
M  V30 23324 H 2200.43 -0.799261 -0.212394 0
M  V30 23325 H 2202.98 -1.66508 0.327597 0
M  V30 23326 H 2201.75 -3.88967 0.426702 0
M  V30 23327 H 2201.37 -3.76309 -1.28364 0
M  V30 23328 N 2202.37 -0.00838561 -1.57598 0
M  V30 23329 C 2203.62 0.673935 -1.90108 0
M  V30 23330 C 2203.93 1.74469 -0.884306 0
M  V30 23331 O 2205.14 2.48222 -1.09992 0
M  V30 23332 C 2203.59 1.24989 -3.37499 0
M  V30 23333 C 2203.2 0.213522 -4.47491 0
M  V30 23334 C 2204.95 1.90992 -3.79107 0
M  V30 23335 C 2202.85 0.799947 -5.85965 0
M  V30 23336 H 2201.78 0.255482 -0.709398 0
M  V30 23337 H 2204.43 -0.0703015 -1.83365 0
M  V30 23338 H 2202.82 2.04507 -3.39106 0
M  V30 23339 H 2203.99 -0.557676 -4.57413 0
M  V30 23340 H 2202.3 -0.346547 -4.14955 0
M  V30 23341 H 2204.9 2.35787 -4.79905 0
M  V30 23342 H 2205.24 2.74401 -3.13065 0
M  V30 23343 H 2205.78 1.18196 -3.79835 0
M  V30 23344 H 2202.52 0.00445186 -6.555 0
M  V30 23345 H 2202.04 1.54011 -5.7969 0
M  V30 23346 H 2203.72 1.29604 -6.33886 0
M  V30 23347 N 2203.85 1.55365 0.264492 0
M  V30 23348 C 2205.09 1.76371 0.994955 0
M  V30 23349 C 2205.42 0.569533 1.85975 0
M  V30 23350 O 2204.68 -0.447727 1.9051 0
M  V30 23351 C 2204.98 3.02691 1.90035 0
M  V30 23352 C 2204.64 4.34849 1.19236 0
M  V30 23353 C 2203.3 4.70766 0.996627 0
M  V30 23354 C 2205.66 5.16623 0.689206 0
M  V30 23355 C 2202.98 5.86007 0.285158 0
M  V30 23356 C 2205.34 6.32599 -0.00871199 0
M  V30 23357 C 2204 6.6715 -0.21608 0
M  V30 23358 H 2203.27 0.645389 0.36408 0
M  V30 23359 H 2205.92 1.89636 0.26651 0
M  V30 23360 H 2204.22 2.84362 2.69528 0
M  V30 23361 H 2205.92 3.16141 2.4669 0
M  V30 23362 H 2202.51 4.06623 1.35483 0
M  V30 23363 H 2206.69 4.89344 0.828022 0
M  V30 23364 H 2201.95 6.11294 0.113853 0
M  V30 23365 H 2206.12 6.95214 -0.406308 0
M  V30 23366 H 2203.75 7.56297 -0.76935 0
M  V30 23367 N 2205.33 -0.529387 1.48443 0
M  V30 23368 C 2206.57 -1.28166 1.55744 0
M  V30 23369 C 2206.89 -1.94164 0.236545 0
M  V30 23370 O 2208.09 -2.7085 0.187809 0
M  V30 23371 C 2206.55 -2.3256 2.74671 0
M  V30 23372 C 2206.16 -1.72628 4.13405 0
M  V30 23373 C 2207.9 -3.08793 2.91285 0
M  V30 23374 C 2205.81 -2.74965 5.23591 0
M  V30 23375 H 2204.74 -0.48202 0.579804 0
M  V30 23376 H 2207.39 -0.559025 1.74777 0
M  V30 23377 H 2205.77 -3.07862 2.49073 0
M  V30 23378 H 2206.95 -1.03511 4.49024 0
M  V30 23379 H 2205.26 -1.08885 4.01912 0
M  V30 23380 H 2207.86 -3.85267 3.70774 0
M  V30 23381 H 2208.2 -3.64691 2.00764 0
M  V30 23382 H 2208.73 -2.40606 3.16786 0
M  V30 23383 H 2205.47 -2.23887 6.1608 0
M  V30 23384 H 2204.99 -3.42409 4.9246 0
M  V30 23385 H 2206.67 -3.37939 5.5173 0
M  V30 23386 N 2206.8 -1.37041 -0.778305 0
M  V30 23387 C 2208.03 -1.35066 -1.56731 0
M  V30 23388 C 2208.45 0.0655266 -1.88686 0
M  V30 23389 O 2207.8 1.02552 -1.50962 0
M  V30 23390 C 2207.85 -2.18281 -2.88159 0
M  V30 23391 O 2207.58 -3.54381 -2.57577 0
M  V30 23392 C 2209.08 -2.24212 -3.82418 0
M  V30 23393 H 2206.3 -0.462891 -0.48577 0
M  V30 23394 H 2208.84 -1.80292 -0.965154 0
M  V30 23395 H 2207 -1.76582 -3.44815 0
M  V30 23396 H 2207.41 -3.97928 -3.41692 0
M  V30 23397 H 2208.88 -2.86774 -4.71662 0
M  V30 23398 H 2209.36 -1.24869 -4.21075 0
M  V30 23399 H 2209.97 -2.66196 -3.31693 0
M  V30 23400 N 2208.28 1.00373 -1.21503 0
M  V30 23401 C 2209.53 1.74169 -1.03302 0
M  V30 23402 C 2209.86 1.89612 0.433293 0
M  V30 23403 O 2209.11 1.42837 1.33777 0
M  V30 23404 C 2209.41 3.15624 -1.67679 0
M  V30 23405 C 2209.08 3.20125 -3.17539 0
M  V30 23406 C 2207.74 3.2106 -3.58432 0
M  V30 23407 C 2210.09 3.17268 -4.1351 0
M  V30 23408 C 2207.42 3.16826 -4.938 0
M  V30 23409 C 2209.77 3.14575 -5.4884 0
M  V30 23410 C 2208.43 3.13821 -5.89129 0
M  V30 23411 H 2207.7 0.63733 -0.378011 0
M  V30 23412 H 2210.35 1.17632 -1.51113 0
M  V30 23413 H 2208.66 3.75402 -1.12165 0
M  V30 23414 H 2210.35 3.71444 -1.51098 0
M  V30 23415 H 2206.94 3.2014 -2.84971 0
M  V30 23416 H 2211.13 3.15704 -3.82942 0
M  V30 23417 H 2206.38 3.14581 -5.2426 0
M  V30 23418 H 2210.56 3.11319 -6.22939 0
M  V30 23419 H 2208.18 3.10294 -6.93989 0
M  V30 23420 N 2209.76 1.02298 1.19887 0
M  V30 23421 C 2211.01 0.71129 1.88742 0
M  V30 23422 C 2211.32 -0.762785 1.80114 0
M  V30 23423 O 2212.53 -1.18729 2.44163 0
M  V30 23424 C 2210.98 1.22191 3.38522 0
M  V30 23425 C 2210.59 2.72334 3.55722 0
M  V30 23426 C 2212.34 0.985936 4.12892 0
M  V30 23427 C 2210.24 3.16844 4.99363 0
M  V30 23428 H 2209.17 0.262365 0.706881 0
M  V30 23429 H 2211.82 1.2365 1.35583 0
M  V30 23430 H 2210.21 0.62464 3.91043 0
M  V30 23431 H 2211.38 3.37665 3.13558 0
M  V30 23432 H 2209.69 2.94145 2.94733 0
M  V30 23433 H 2212.29 1.29383 5.1881 0
M  V30 23434 H 2212.63 -0.0774323 4.16228 0
M  V30 23435 H 2213.17 1.5469 3.66491 0
M  V30 23436 H 2209.91 4.22485 5.01186 0
M  V30 23437 H 2209.43 2.56237 5.42312 0
M  V30 23438 H 2211.11 3.09847 5.67982 0
M  V30 23439 N 2211.24 -1.35782 0.800057 0
M  V30 23440 C 2212.49 -1.98204 0.373905 0
M  V30 23441 C 2212.8 -1.64194 -1.06299 0
M  V30 23442 O 2214.01 -2.19931 -1.59194 0
M  V30 23443 C 2212.46 -3.54561 0.617594 0
M  V30 23444 C 2212.07 -3.97486 2.06661 0
M  V30 23445 C 2213.81 -4.23725 0.256476 0
M  V30 23446 C 2211.72 -5.46663 2.25639 0
M  V30 23447 H 2210.65 -0.741621 0.136068 0
M  V30 23448 H 2213.3 -1.54937 0.983193 0
M  V30 23449 H 2211.68 -3.95952 -0.0615552 0
M  V30 23450 H 2212.86 -3.67266 2.78303 0
M  V30 23451 H 2211.17 -3.41193 2.38697 0
M  V30 23452 H 2213.77 -5.33373 0.376412 0
M  V30 23453 H 2214.11 -4.08607 -0.796621 0
M  V30 23454 H 2214.65 -3.87733 0.889282 0
M  V30 23455 H 2211.38 -5.66741 3.2937 0
M  V30 23456 H 2210.9 -5.78475 1.58514 0
M  V30 23457 H 2212.58 -6.13036 2.06872 0
M  V30 23458 N 2212.72 -0.552988 -1.4758 0
M  V30 23459 C 2213.96 -0.0296604 -2.04378 0
M  V30 23460 C 2214.32 1.29391 -1.41852 0
M  V30 23461 O 2215.52 1.90467 -1.89673 0
M  V30 23462 C 2213.79 0.0660743 -3.57339 0
M  V30 23463 S 2215.35 0.536137 -4.35512 0
M  V30 23464 H 2212.17 -0.0231116 -0.710624 0
M  V30 23465 H 2214.77 -0.738766 -1.81004 0
M  V30 23466 H 2213.47 -0.901667 -4.00372 0
M  V30 23467 H 2213.01 0.798863 -3.85204 0
M  V30 23468 H 2215.02 1.7966 -4.62533 0
M  V30 23469 N 2214.19 1.54923 -0.28923 0
M  V30 23470 C 2215.12 2.26041 0.58545 0
M  V30 23471 C 2216.1 1.25564 1.14751 0
M  V30 23472 O 2217.29 1.54313 1.17903 0
M  V30 23473 C 2214.42 2.99225 1.763 0
M  V30 23474 C 2213.37 4.06751 1.33184 0
M  V30 23475 C 2212.7 4.67585 2.59362 0
M  V30 23476 C 2214 5.20166 0.471684 0
M  V30 23477 H 2215.69 2.99399 -0.00768794 0
M  V30 23478 H 2213.24 1.43999 -0.0051376 0
M  V30 23479 H 2215.19 3.47694 2.38091 0
M  V30 23480 H 2213.92 2.23426 2.38219 0
M  V30 23481 H 2212.58 3.59114 0.737058 0
M  V30 23482 H 2212.22 3.88438 3.1957 0
M  V30 23483 H 2211.92 5.40196 2.31219 0
M  V30 23484 H 2213.45 5.1881 3.21976 0
M  V30 23485 H 2214.86 5.646 0.994956 0
M  V30 23486 H 2213.26 5.99425 0.284534 0
M  V30 23487 H 2214.33 4.82251 -0.506126 0
M  V30 23488 N 2215.67 0.0167433 1.57591 0
M  V30 23489 C 2216.62 -0.987316 2.10606 0
M  V30 23490 C 2217.61 -1.34505 1.02979 0
M  V30 23491 O 2218.82 -1.32873 1.21428 0
M  V30 23492 H 2215.19 -0.336122 0.672701 0
M  V30 23493 H 2217.17 -0.514766 2.93926 0
M  V30 23494 C 2215.91 -2.26478 2.63824 0
M  V30 23495 H 2215.24 -1.99823 3.46282 0
M  V30 23496 H 2216.68 -2.94971 3.04578 0
M  V30 23497 C 2215.14 -2.98607 1.55998 0
M  V30 23498 O 2215.67 -3.90242 0.95259 0
M  V30 23499 N 2213.87 -2.60725 1.28339 0
M  V30 23500 H 2213.42 -1.86288 1.77918 0
M  V30 23501 H 2213.38 -3.09297 0.564169 0
M  V30 23502 N 2217.15 -1.55503 -0.256249 0
M  V30 23503 C 2218.4 -1.77159 -0.987048 0
M  V30 23504 C 2218.73 -0.580347 -1.85326 0
M  V30 23505 O 2218 0.421653 -1.89875 0
M  V30 23506 C 2218.29 -3.08616 -1.85548 0
M  V30 23507 C 2218.14 -4.38127 -1.01808 0
M  V30 23508 C 2219.46 -3.36233 -2.83964 0
M  V30 23509 H 2216.58 -0.644533 -0.357417 0
M  V30 23510 H 2219.22 -1.88237 -0.258206 0
M  V30 23511 H 2217.37 -2.99302 -2.4769 0
M  V30 23512 H 2219.04 -4.5942 -0.416078 0
M  V30 23513 H 2217.29 -4.32603 -0.322102 0
M  V30 23514 H 2217.96 -5.26471 -1.6593 0
M  V30 23515 H 2220.43 -3.45449 -2.31958 0
M  V30 23516 H 2219.31 -4.29448 -3.41856 0
M  V30 23517 H 2219.57 -2.56687 -3.5995 0
M  V30 23518 N 2218.63 0.521507 -1.48721 0
M  V30 23519 C 2219.87 1.27876 -1.57403 0
M  V30 23520 C 2220.21 1.92573 -0.25085 0
M  V30 23521 O 2219.48 1.79712 0.743902 0
M  V30 23522 C 2219.77 2.36159 -2.71847 0
M  V30 23523 C 2219.62 1.76098 -4.13896 0
M  V30 23524 C 2220.94 3.3787 -2.82014 0
M  V30 23525 H 2218.06 0.463571 -0.572949 0
M  V30 23526 H 2220.7 0.580088 -1.80928 0
M  V30 23527 H 2218.85 2.95752 -2.51919 0
M  V30 23528 H 2220.52 1.20491 -4.45286 0
M  V30 23529 H 2218.76 1.06594 -4.205 0
M  V30 23530 H 2219.43 2.54541 -4.89809 0
M  V30 23531 H 2221.91 2.88244 -3.00091 0
M  V30 23532 H 2220.79 4.11021 -3.63803 0
M  V30 23533 H 2221.05 3.98943 -1.90518 0
M  V30 23534 N 2220.11 1.37452 0.771027 0
M  V30 23535 C 2221.33 1.35895 1.56013 0
M  V30 23536 C 2221.75 -0.0555192 1.88718 0
M  V30 23537 O 2221.11 -1.0175 1.51503 0
M  V30 23538 C 2221.16 2.19806 2.86997 0
M  V30 23539 O 2220.88 3.55742 2.55694 0
M  V30 23540 C 2222.38 2.26237 3.81224 0
M  V30 23541 H 2219.6 0.465461 0.483308 0
M  V30 23542 H 2222.14 1.80801 0.955579 0
M  V30 23543 H 2220.3 1.78408 3.43874 0
M  V30 23544 H 2220.71 3.99735 3.39577 0
M  V30 23545 H 2222.19 2.89271 4.70134 0
M  V30 23546 H 2222.66 1.271 4.20407 0
M  V30 23547 H 2223.27 2.67951 3.30276 0
M  V30 23548 N 2221.58 -0.997276 1.22033 0
M  V30 23549 C 2222.52 -2.084 0.929771 0
M  V30 23550 C 2223.5 -1.62114 -0.125653 0
M  V30 23551 O 2224.68 -1.88499 0.00498723 0
M  V30 23552 C 2221.81 -3.36359 0.397548 0
M  V30 23553 C 2220.85 -4.01564 1.43697 0
M  V30 23554 S 2221.69 -4.42979 3.00882 0
M  V30 23555 C 2222.84 -5.74114 2.49286 0
M  V30 23556 H 2223.07 -2.32726 1.85002 0
M  V30 23557 H 2220.61 -1.13115 1.05092 0
M  V30 23558 H 2222.57 -4.10385 0.0970567 0
M  V30 23559 H 2221.23 -3.1007 -0.501517 0
M  V30 23560 H 2220.42 -4.93687 1.01436 0
M  V30 23561 H 2220.02 -3.33844 1.68594 0
M  V30 23562 H 2222.31 -6.50238 1.90254 0
M  V30 23563 H 2223.26 -6.21197 3.39882 0
M  V30 23564 H 2223.66 -5.31305 1.90724 0
M  V30 23565 N 2223.06 -1.02932 -1.19343 0
M  V30 23566 C 2224.29 -0.745545 -1.93537 0
M  V30 23567 C 2224.71 0.68948 -1.75008 0
M  V30 23568 O 2224.07 1.47609 -1.05268 0
M  V30 23569 C 2224.12 -1.10245 -3.43334 0
M  V30 23570 O 2223.22 -0.221361 -4.11805 0
M  V30 23571 H 2222.56 -0.275415 -0.604188 0
M  V30 23572 H 2225.09 -1.37612 -1.51407 0
M  V30 23573 H 2225.1 -1.05954 -3.94002 0
M  V30 23574 H 2223.78 -2.14792 -3.56142 0
M  V30 23575 H 2222.36 -0.322907 -3.71499 0
M  V30 23576 N 2224.54 1.35356 -0.807246 0
M  V30 23577 C 2225.47 2.32339 -0.23255 0
M  V30 23578 C 2226.45 1.57505 0.642358 0
M  V30 23579 O 2227.64 1.8557 0.572493 0
M  V30 23580 C 2224.77 3.41736 0.619178 0
M  V30 23581 C 2223.72 4.27711 -0.157291 0
M  V30 23582 C 2223.05 5.28434 0.81618 0
M  V30 23583 C 2224.35 5.04373 -1.35665 0
M  V30 23584 H 2226.04 2.80652 -1.04281 0
M  V30 23585 H 2223.59 1.34933 -0.502904 0
M  V30 23586 H 2225.54 4.08586 1.03129 0
M  V30 23587 H 2224.26 2.92033 1.46233 0
M  V30 23588 H 2222.92 3.62442 -0.550589 0
M  V30 23589 H 2222.57 4.74998 1.65486 0
M  V30 23590 H 2222.27 5.86829 0.300964 0
M  V30 23591 H 2223.79 5.98155 1.22649 0
M  V30 23592 H 2225.21 5.64165 -1.01937 0
M  V30 23593 H 2223.61 5.72267 -1.8064 0
M  V30 23594 H 2224.68 4.34977 -2.14296 0
M  V30 23595 N 2226.02 0.560807 1.47284 0
M  V30 23596 C 2226.93 -0.187913 2.33846 0
M  V30 23597 C 2227.94 -0.908267 1.48413 0
M  V30 23598 O 2229.12 -0.876357 1.81334 0
M  V30 23599 C 2226.19 -1.20245 3.2518 0
M  V30 23600 C 2225.25 -0.489133 4.26504 0
M  V30 23601 C 2224.48 -1.45533 5.13474 0
M  V30 23602 O 2224.7 -2.69041 5.02964 0
M  V30 23603 O 2223.64 -0.977859 5.93904 0
M  V30 23604 H 2227.46 0.52223 2.99176 0
M  V30 23605 H 2225.05 0.321389 1.45902 0
M  V30 23606 H 2226.93 -1.78799 3.81587 0
M  V30 23607 H 2225.6 -1.89445 2.62474 0
M  V30 23608 H 2224.51 0.137693 3.73847 0
M  V30 23609 H 2225.84 0.161485 4.91935 0
M  V30 23610 N 2227.5 -1.54768 0.297442 0
M  V30 23611 C 2228.45 -2.20093 -0.595236 0
M  V30 23612 C 2229.43 -1.17275 -1.10161 0
M  V30 23613 O 2230.62 -1.43007 -1.04297 0
M  V30 23614 C 2227.75 -2.94252 -1.76835 0
M  V30 23615 C 2226.84 -4.04382 -1.27811 0
M  V30 23616 N 2227.23 -5.03267 -0.505606 0
M  V30 23617 C 2225.53 -4.17859 -1.55915 0
M  V30 23618 C 2226.23 -5.81184 -0.244992 0
M  V30 23619 N 2225.2 -5.37322 -0.823787 0
M  V30 23620 H 2229.01 -2.939 0.00256003 0
M  V30 23621 H 2226.52 -1.62079 0.102035 0
M  V30 23622 H 2228.52 -3.39517 -2.41938 0
M  V30 23623 H 2227.18 -2.21961 -2.36988 0
M  V30 23624 H 2228.19 -5.1768 -0.150837 0
M  V30 23625 H 2224.86 -3.56771 -2.16842 0
M  V30 23626 H 2226.25 -6.70852 0.375202 0
M  V30 23627 N 2228.97 -0.0251005 -1.5758 0
M  V30 23628 C 2230.2 0.663748 -1.95647 0
M  V30 23629 C 2230.61 1.66425 -0.899965 0
M  V30 23630 O 2229.96 1.83259 0.127159 0
M  V30 23631 C 2230.02 1.42994 -3.29838 0
M  V30 23632 C 2229.68 0.588225 -4.53199 0
M  V30 23633 C 2230.68 -0.134781 -5.19725 0
M  V30 23634 C 2228.36 0.526809 -4.9953 0
M  V30 23635 C 2230.36 -0.907921 -6.30901 0
M  V30 23636 C 2228.04 -0.250037 -6.10588 0
M  V30 23637 C 2229.04 -0.966113 -6.76133 0
M  V30 23638 O 2228.73 -1.73023 -7.85059 0
M  V30 23639 H 2228.46 0.188163 -0.649285 0
M  V30 23640 H 2231.02 -0.0799366 -2.05244 0
M  V30 23641 H 2229.25 2.21868 -3.1672 0
M  V30 23642 H 2230.94 2.00652 -3.52837 0
M  V30 23643 H 2231.7 -0.0966414 -4.84904 0
M  V30 23644 H 2227.58 1.07373 -4.48321 0
M  V30 23645 H 2231.12 -1.46736 -6.81993 0
M  V30 23646 H 2227.02 -0.289909 -6.44849 0
M  V30 23647 H 2227.79 -1.64958 -8.01705 0
M  V30 23648 N 2230.45 1.55637 0.247999 0
M  V30 23649 C 2231.4 1.91047 1.3268 0
M  V30 23650 C 2232.39 0.789427 1.49881 0
M  V30 23651 O 2233.6 0.974034 1.51369 0
M  V30 23652 H 2229.98 0.606742 0.444261 0
M  V30 23653 H 2231.95 2.81117 1.0008 0
M  V30 23654 C 2230.7 2.22069 2.67546 0
M  V30 23655 H 2230.02 3.0783 2.55109 0
M  V30 23656 H 2231.46 2.50749 3.41908 0
M  V30 23657 C 2229.92 1.03666 3.20554 0
M  V30 23658 O 2230.45 0.284086 4.00694 0
M  V30 23659 N 2228.65 0.827579 2.78567 0
M  V30 23660 H 2228.2 1.44127 2.13507 0
M  V30 23661 H 2228.16 0.0370356 3.14378 0
M  V30 23662 N 2231.93 -0.513613 1.48996 0
M  V30 23663 C 2232.86 -1.6329 1.60839 0
M  V30 23664 C 2233.88 -1.55196 0.491728 0
M  V30 23665 O 2235.07 -1.61358 0.763266 0
M  V30 23666 C 2232.17 -3.02024 1.53736 0
M  V30 23667 C 2231.34 -3.35432 2.80721 0
M  V30 23668 C 2230.4 -4.5352 2.66845 0
M  V30 23669 O 2229.42 -4.55928 3.40761 0
M  V30 23670 N 2230.63 -5.52681 1.77549 0
M  V30 23671 H 2233.39 -1.53562 2.57369 0
M  V30 23672 H 2230.95 -0.701234 1.45926 0
M  V30 23673 H 2232.94 -3.78923 1.42125 0
M  V30 23674 H 2231.51 -3.05743 0.651145 0
M  V30 23675 H 2230.73 -2.47551 3.06777 0
M  V30 23676 H 2232.02 -3.54544 3.64933 0
M  V30 23677 H 2231.42 -5.53526 1.16728 0
M  V30 23678 H 2229.98 -6.28733 1.71867 0
M  V30 23679 N 2233.41 -1.37859 -0.763727 0
M  V30 23680 C 2234.82 -1.29954 -1.34048 0
M  V30 23681 C 2235.17 0.0492554 -1.96138 0
M  V30 23682 O 2234.3 0.951205 -1.94373 0
M  V30 23683 C 2234.89 -2.35338 -2.43725 0
M  V30 23684 C 2233.45 -2.31043 -2.97147 0
M  V30 23685 C 2232.6 -2.18741 -1.70434 0
M  V30 23686 H 2235.55 -1.48364 -0.56337 0
M  V30 23687 H 2235.57 -2.00467 -3.23409 0
M  V30 23688 H 2235.08 -3.33493 -1.98505 0
M  V30 23689 H 2233.18 -1.36436 -3.46722 0
M  V30 23690 H 2233.3 -3.24778 -3.52215 0
M  V30 23691 H 2231.66 -1.65421 -1.9367 0
M  V30 23692 H 2232.44 -3.18823 -1.27306 0
M  V30 23693 N 2234.89 0.990791 -1.22561 0
M  V30 23694 C 2236.12 1.76609 -1.07782 0
M  V30 23695 C 2236.53 1.85109 0.371481 0
M  V30 23696 O 2235.89 1.32276 1.25735 0
M  V30 23697 C 2235.94 3.19819 -1.68518 0
M  V30 23698 O 2235.66 3.11775 -3.07779 0
M  V30 23699 C 2237.16 4.13788 -1.59042 0
M  V30 23700 H 2234.38 0.554576 -0.377738 0
M  V30 23701 H 2236.92 1.24548 -1.62197 0
M  V30 23702 H 2235.08 3.6894 -1.18161 0
M  V30 23703 H 2235.49 4.01852 -3.37069 0
M  V30 23704 H 2236.97 5.12017 -2.06259 0
M  V30 23705 H 2237.44 4.35776 -0.547349 0
M  V30 23706 H 2238.05 3.70564 -2.08715 0
M  V30 23707 N 2236.37 1.03564 1.18795 0
M  V30 23708 C 2237.59 0.755798 1.93138 0
M  V30 23709 C 2238.02 -0.680189 1.75371 0
M  V30 23710 O 2237.37 -1.47049 1.06049 0
M  V30 23711 C 2237.42 1.12064 3.42745 0
M  V30 23712 O 2236.53 0.243197 4.11682 0
M  V30 23713 H 2235.87 0.278615 0.602719 0
M  V30 23714 H 2238.4 1.38413 1.50675 0
M  V30 23715 H 2238.41 1.08042 3.93435 0
M  V30 23716 H 2237.08 2.16678 3.54998 0
M  V30 23717 H 2235.66 0.342604 3.71323 0
M  V30 23718 N 2237.84 -1.34926 0.814413 0
M  V30 23719 C 2238.77 -2.32213 0.244868 0
M  V30 23720 C 2239.75 -1.57843 -0.633996 0
M  V30 23721 O 2240.94 -1.85871 -0.562644 0
M  V30 23722 C 2238.07 -3.4206 -0.601046 0
M  V30 23723 C 2237.02 -4.27621 0.179971 0
M  V30 23724 C 2236.35 -5.2886 -0.788144 0
M  V30 23725 C 2237.65 -5.03647 1.38338 0
M  V30 23726 H 2239.34 -2.80095 1.05768 0
M  V30 23727 H 2236.89 -1.34664 0.510052 0
M  V30 23728 H 2238.84 -4.09127 -1.00961 0
M  V30 23729 H 2237.57 -2.92805 -1.44683 0
M  V30 23730 H 2236.23 -3.62145 0.569803 0
M  V30 23731 H 2235.87 -4.75869 -1.62964 0
M  V30 23732 H 2235.57 -5.8698 -0.269839 0
M  V30 23733 H 2237.1 -5.98797 -1.19475 0
M  V30 23734 H 2238.51 -5.63616 1.04928 0
M  V30 23735 H 2236.91 -5.71301 1.83672 0
M  V30 23736 H 2237.98 -4.33835 2.166 0
M  V30 23737 N 2239.32 -0.56861 -1.46985 0
M  V30 23738 C 2240.23 0.175509 -2.33943 0
M  V30 23739 C 2241.25 0.900383 -1.48893 0
M  V30 23740 O 2242.42 0.866728 -1.81796 0
M  V30 23741 C 2239.49 1.18518 -3.25813 0
M  V30 23742 C 2238.55 0.466507 -4.26758 0
M  V30 23743 C 2237.78 1.42808 -5.14239 0
M  V30 23744 O 2238.01 2.6637 -5.04384 0
M  V30 23745 O 2236.94 0.946349 -5.94414 0
M  V30 23746 H 2240.77 -0.538089 -2.98895 0
M  V30 23747 H 2238.35 -0.329122 -1.4573 0
M  V30 23748 H 2240.23 1.76773 -3.8253 0
M  V30 23749 H 2238.91 1.8805 -2.63475 0
M  V30 23750 H 2237.81 -0.157517 -3.73768 0
M  V30 23751 H 2239.15 -0.187571 -4.91842 0
M  V30 23752 N 2240.8 1.54608 -0.305646 0
M  V30 23753 C 2242.03 2.04643 0.304739 0
M  V30 23754 C 2242.44 1.18271 1.47165 0
M  V30 23755 O 2241.8 0.209359 1.81295 0
M  V30 23756 C 2241.85 3.53496 0.756502 0
M  V30 23757 O 2241.57 4.36585 -0.363967 0
M  V30 23758 C 2243.07 4.19549 1.43156 0
M  V30 23759 H 2240.29 0.667792 0.0655364 0
M  V30 23760 H 2242.84 1.99563 -0.446627 0
M  V30 23761 H 2240.99 3.58921 1.45788 0
M  V30 23762 H 2241.41 5.24499 -0.0114043 0
M  V30 23763 H 2242.88 5.2521 1.69877 0
M  V30 23764 H 2243.36 3.69567 2.37312 0
M  V30 23765 H 2243.96 4.18212 0.773233 0
M  V30 23766 N 2242.28 0.033457 1.57564 0
M  V30 23767 C 2243.24 -0.932011 2.09395 0
M  V30 23768 C 2244.24 -1.25132 1.00988 0
M  V30 23769 O 2245.43 -1.19094 1.27131 0
M  V30 23770 C 2242.56 -2.24725 2.56342 0
M  V30 23771 H 2243.76 -0.483033 2.95984 0
M  V30 23772 H 2241.31 -0.214653 1.54819 0
M  V30 23773 H 2242.04 -2.74242 1.73095 0
M  V30 23774 H 2241.83 -2.02859 3.35545 0
M  V30 23775 H 2243.32 -2.93918 2.96651 0
M  V30 23776 N 2243.76 -1.55766 -0.239741 0
M  V30 23777 C 2244.69 -1.93932 -1.30049 0
M  V30 23778 C 2245.67 -0.805158 -1.49837 0
M  V30 23779 O 2246.85 -1.06602 -1.62326 0
M  V30 23780 C 2243.98 -2.24024 -2.65387 0
M  V30 23781 C 2242.94 -3.3976 -2.60283 0
M  V30 23782 C 2242.26 -3.55412 -3.99483 0
M  V30 23783 C 2243.56 -4.7525 -2.16645 0
M  V30 23784 H 2245.26 -2.82785 -0.983523 0
M  V30 23785 H 2242.8 -1.36056 -0.471677 0
M  V30 23786 H 2244.75 -2.49314 -3.39736 0
M  V30 23787 H 2243.48 -1.32006 -2.98734 0
M  V30 23788 H 2242.14 -3.1449 -1.88392 0
M  V30 23789 H 2241.79 -2.608 -4.30107 0
M  V30 23790 H 2241.49 -4.33245 -3.96954 0
M  V30 23791 H 2243.01 -3.8303 -4.75521 0
M  V30 23792 H 2244.42 -4.99864 -2.80729 0
M  V30 23793 H 2242.82 -5.56236 -2.25213 0
M  V30 23794 H 2243.89 -4.71829 -1.11827 0
M  V30 23795 N 2245.23 0.505704 -1.49266 0
M  V30 23796 C 2246.18 1.60777 -1.65588 0
M  V30 23797 C 2247.15 1.58477 -0.497424 0
M  V30 23798 O 2248.34 1.76535 -0.723881 0
M  V30 23799 C 2245.48 2.98945 -1.72413 0
M  V30 23800 C 2244.59 3.11296 -2.99531 0
M  V30 23801 C 2243.72 4.40168 -2.97364 0
M  V30 23802 C 2242.76 4.46136 -4.19082 0
M  V30 23803 N 2241.9 5.6643 -4.14851 0
M  V30 23804 H 2246.74 1.46167 -2.5969 0
M  V30 23805 H 2244.28 0.711239 -1.28763 0
M  V30 23806 H 2246.23 3.79022 -1.74351 0
M  V30 23807 H 2244.86 3.12269 -0.817807 0
M  V30 23808 H 2243.92 2.24312 -3.07226 0
M  V30 23809 H 2245.23 3.11565 -3.89524 0
M  V30 23810 H 2244.38 5.28562 -2.97838 0
M  V30 23811 H 2243.12 4.42457 -2.05141 0
M  V30 23812 H 2242.13 3.56145 -4.18856 0
M  V30 23813 H 2243.35 4.45566 -5.12491 0
M  V30 23814 H 2241.3 5.6957 -3.25463 0
M  V30 23815 H 2241.21 5.68296 -4.98574 0
M  V30 23816 H 2242.48 6.57043 -4.19422 0
M  V30 23817 N 2246.71 1.38262 0.756405 0
M  V30 23818 C 2247.94 1.37343 1.54339 0
M  V30 23819 C 2248.35 -0.0393584 1.89159 0
M  V30 23820 O 2247.69 -1.01562 1.53071 0
M  V30 23821 C 2247.76 2.16187 2.87234 0
M  V30 23822 C 2247.42 3.65024 2.74967 0
M  V30 23823 C 2248.42 4.58578 2.44954 0
M  V30 23824 C 2246.1 4.08344 2.92508 0
M  V30 23825 C 2248.1 5.93432 2.32632 0
M  V30 23826 C 2245.78 5.43279 2.79806 0
M  V30 23827 C 2246.78 6.35637 2.4991 0
M  V30 23828 O 2246.47 7.6809 2.37262 0
M  V30 23829 H 2246.2 0.471652 0.484273 0
M  V30 23830 H 2248.75 1.82416 0.94412 0
M  V30 23831 H 2246.98 1.65828 3.49339 0
M  V30 23832 H 2248.67 2.07711 3.48728 0
M  V30 23833 H 2249.44 4.26416 2.31073 0
M  V30 23834 H 2245.32 3.36805 3.14775 0
M  V30 23835 H 2248.86 6.65487 2.09219 0
M  V30 23836 H 2244.76 5.75039 2.93259 0
M  V30 23837 H 2245.53 7.78581 2.52495 0
M  V30 23838 N 2248.19 -0.984277 1.23084 0
M  V30 23839 C 2249.43 -1.74015 1.07229 0
M  V30 23840 C 2249.79 -1.88106 -0.384733 0
M  V30 23841 O 2251 -2.6046 -0.664365 0
M  V30 23842 C 2249.27 -3.10291 1.77353 0
M  V30 23843 S 2250.83 -4.01508 1.77021 0
M  V30 23844 H 2247.64 -0.598495 0.383829 0
M  V30 23845 H 2250.25 -1.17619 1.5616 0
M  V30 23846 H 2248.95 -2.97684 2.82511 0
M  V30 23847 H 2248.48 -3.71756 1.28688 0
M  V30 23848 H 2250.5 -4.89276 0.826042 0
M  V30 23849 N 2249.67 -1.04192 -1.18244 0
M  V30 23850 C 2250.62 -0.627831 -2.23967 0
M  V30 23851 C 2251.61 0.345989 -1.65829 0
M  V30 23852 O 2252.82 0.213143 -1.78734 0
M  V30 23853 H 2249.19 -0.184815 -0.728936 0
M  V30 23854 H 2251.16 -1.52985 -2.56199 0
M  V30 23855 C 2249.91 -0.00802703 -3.47699 0
M  V30 23856 H 2249.23 -0.748416 -3.92732 0
M  V30 23857 H 2250.67 0.244476 -4.23295 0
M  V30 23858 C 2249.13 1.2424 -3.13155 0
M  V30 23859 O 2249.66 2.33301 -3.27007 0
M  V30 23860 N 2247.87 1.13618 -2.67469 0
M  V30 23861 H 2247.42 0.248689 -2.56397 0
M  V30 23862 H 2247.37 1.97372 -2.44727 0
M  V30 23863 N 2251.15 1.34492 -0.821557 0
M  V30 23864 C 2252.38 2.02259 -0.421308 0
M  V30 23865 C 2252.78 1.62022 0.977018 0
M  V30 23866 O 2252.13 0.820732 1.64346 0
M  V30 23867 C 2252.19 3.56768 -0.442373 0
M  V30 23868 C 2251.85 4.20324 -1.7938 0
M  V30 23869 C 2252.85 4.40939 -2.75443 0
M  V30 23870 C 2250.54 4.57124 -2.0819 0
M  V30 23871 C 2252.53 4.97477 -3.98491 0
M  V30 23872 C 2250.22 5.13373 -3.31498 0
M  V30 23873 C 2251.21 5.33494 -4.26466 0
M  V30 23874 O 2250.9 5.88553 -5.47596 0
M  V30 23875 H 2250.63 0.654924 -0.167484 0
M  V30 23876 H 2253.19 1.72775 -1.11076 0
M  V30 23877 H 2251.42 3.85505 0.303769 0
M  V30 23878 H 2253.11 4.05852 -0.0623638 0
M  V30 23879 H 2253.87 4.12874 -2.5448 0
M  V30 23880 H 2249.75 4.40768 -1.35074 0
M  V30 23881 H 2253.3 5.13098 -4.72627 0
M  V30 23882 H 2249.19 5.40867 -3.52325 0
M  V30 23883 H 2249.96 6.06988 -5.49097 0
M  V30 23884 N 2252.62 0.576397 1.46681 0
M  V30 23885 C 2253.56 -0.208691 2.27244 0
M  V30 23886 C 2254.54 -0.902722 1.35239 0
M  V30 23887 O 2255.72 -0.917875 1.64643 0
M  V30 23888 C 2252.85 -1.2989 3.12804 0
M  V30 23889 C 2251.89 -0.711383 4.20525 0
M  V30 23890 S 2252.73 0.456875 5.33547 0
M  V30 23891 C 2253.88 -0.634689 6.22674 0
M  V30 23892 H 2254.11 0.474889 2.93483 0
M  V30 23893 H 2251.65 0.363144 1.50069 0
M  V30 23894 H 2253.61 -1.92314 3.62664 0
M  V30 23895 H 2252.27 -1.9544 2.4589 0
M  V30 23896 H 2251.46 -1.53067 4.80194 0
M  V30 23897 H 2251.06 -0.162933 3.73645 0
M  V30 23898 H 2253.35 -1.52197 6.60184 0
M  V30 23899 H 2254.3 -0.0749066 7.0806 0
M  V30 23900 H 2254.7 -0.935994 5.56686 0
M  V30 23901 N 2254.1 -1.54444 0.313841 0
M  V30 23902 C 2255.35 -2.00389 -0.29164 0
M  V30 23903 C 2255.68 -1.20213 -1.52902 0
M  V30 23904 O 2254.93 -0.269741 -1.93832 0
M  V30 23905 C 2255.23 -3.50865 -0.680324 0
M  V30 23906 C 2254.9 -4.4858 0.456778 0
M  V30 23907 C 2253.56 -4.75017 0.768908 0
M  V30 23908 C 2255.91 -5.06695 1.22107 0
M  V30 23909 C 2253.24 -5.56828 1.84822 0
M  V30 23910 C 2255.59 -5.89681 2.2904 0
M  V30 23911 C 2254.26 -6.14423 2.60845 0
M  V30 23912 H 2253.53 -0.733275 -0.106719 0
M  V30 23913 H 2256.17 -1.8648 0.435603 0
M  V30 23914 H 2254.48 -3.6245 -1.48785 0
M  V30 23915 H 2256.17 -3.8385 -1.1602 0
M  V30 23916 H 2252.76 -4.28117 0.203413 0
M  V30 23917 H 2256.95 -4.86261 0.993182 0
M  V30 23918 H 2252.2 -5.74232 2.09922 0
M  V30 23919 H 2256.38 -6.33734 2.88711 0
M  V30 23920 H 2254.01 -6.77606 3.44608 0
M  V30 23921 N 2255.58 -0.0418125 -1.57545 0
M  V30 23922 C 2256.81 0.643894 -1.96626 0
M  V30 23923 C 2257.22 1.64928 -0.918926 0
M  V30 23924 O 2256.58 1.82237 0.0979003 0
M  V30 23925 C 2256.63 1.33908 -3.35784 0
M  V30 23926 O 2256.35 0.373971 -4.36501 0
M  V30 23927 C 2257.85 2.11543 -3.8957 0
M  V30 23928 H 2255.07 0.17669 -0.647319 0
M  V30 23929 H 2257.62 -0.10534 -2.04229 0
M  V30 23930 H 2255.77 2.03962 -3.2936 0
M  V30 23931 H 2256.19 0.869088 -5.1725 0
M  V30 23932 H 2257.66 2.5562 -4.89247 0
M  V30 23933 H 2258.14 2.95974 -3.24493 0
M  V30 23934 H 2258.74 1.4642 -3.99301 0
M  V30 23935 N 2257.06 1.55891 0.231477 0
M  V30 23936 C 2258.29 1.82515 0.974473 0
M  V30 23937 C 2258.7 0.619622 1.78343 0
M  V30 23938 O 2258.06 -0.411817 1.77793 0
M  V30 23939 C 2258.11 3.07542 1.90001 0
M  V30 23940 O 2257.83 4.23442 1.12377 0
M  V30 23941 C 2259.33 3.4708 2.75773 0
M  V30 23942 H 2256.55 0.606971 0.286054 0
M  V30 23943 H 2259.1 2.0297 0.249703 0
M  V30 23944 H 2257.25 2.89091 2.57886 0
M  V30 23945 H 2257.66 4.94403 1.75117 0
M  V30 23946 H 2259.14 4.37625 3.36435 0
M  V30 23947 H 2259.62 2.68373 3.47667 0
M  V30 23948 H 2260.22 3.67935 2.13317 0
M  V30 23949 N 2258.54 -0.497781 1.49532 0
M  V30 23950 C 2259.78 -1.25355 1.59417 0
M  V30 23951 C 2260.12 -1.9215 0.281455 0
M  V30 23952 O 2259.39 -1.80873 -0.715217 0
M  V30 23953 C 2259.67 -2.31805 2.7557 0
M  V30 23954 C 2259.53 -1.69491 4.16645 0
M  V30 23955 C 2260.85 -3.33341 2.87353 0
M  V30 23956 H 2257.96 -0.454398 0.580252 0
M  V30 23957 H 2260.61 -0.55123 1.81828 0
M  V30 23958 H 2258.76 -2.91707 2.56592 0
M  V30 23959 H 2260.43 -1.13391 4.47147 0
M  V30 23960 H 2258.67 -0.998904 4.22143 0
M  V30 23961 H 2259.34 -2.46717 4.93796 0
M  V30 23962 H 2261.82 -2.83433 3.04639 0
M  V30 23963 H 2260.69 -4.05181 3.70296 0
M  V30 23964 H 2260.96 -3.95861 1.96841 0
M  V30 23965 N 2260.01 -1.38661 -0.749062 0
M  V30 23966 C 2261.26 -1.35116 -1.5083 0
M  V30 23967 C 2261.59 0.0573707 -1.94415 0
M  V30 23968 O 2260.84 1.03538 -1.66067 0
M  V30 23969 C 2261.14 -2.25702 -2.77116 0
M  V30 23970 C 2260.81 -3.7359 -2.52471 0
M  V30 23971 C 2259.47 -4.13888 -2.45458 0
M  V30 23972 C 2261.82 -4.67185 -2.31057 0
M  V30 23973 C 2259.15 -5.45865 -2.15054 0
M  V30 23974 C 2261.5 -5.99424 -2.02173 0
M  V30 23975 C 2260.17 -6.38802 -1.9362 0
M  V30 23976 H 2259.44 -0.494426 -0.551927 0
M  V30 23977 H 2262.08 -1.71055 -0.860949 0
M  V30 23978 H 2260.39 -1.82833 -3.46524 0
M  V30 23979 H 2262.09 -2.2026 -3.35092 0
M  V30 23980 H 2258.68 -3.41643 -2.58801 0
M  V30 23981 H 2262.86 -4.36894 -2.35451 0
M  V30 23982 H 2258.12 -5.75312 -2.06944 0
M  V30 23983 H 2262.29 -6.71485 -1.84609 0
M  V30 23984 H 2259.92 -7.40988 -1.69826 0
M  V30 23985 N 2261.49 0.977736 -1.23605 0
M  V30 23986 C 2262.74 1.72193 -1.07132 0
M  V30 23987 C 2263.07 1.90234 0.390467 0
M  V30 23988 O 2262.35 1.45655 1.28899 0
M  V30 23989 C 2262.63 3.11864 -1.80037 0
M  V30 23990 C 2262.48 3.01377 -3.33904 0
M  V30 23991 C 2263.8 4.11334 -1.56499 0
M  V30 23992 H 2260.92 0.624992 -0.390582 0
M  V30 23993 H 2263.56 1.13808 -1.52144 0
M  V30 23994 H 2261.71 3.61707 -1.41775 0
M  V30 23995 H 2263.39 2.59036 -3.81704 0
M  V30 23996 H 2261.63 2.3782 -3.628 0
M  V30 23997 H 2262.3 4.00278 -3.80107 0
M  V30 23998 H 2264.78 3.70309 -1.89764 0
M  V30 23999 H 2263.65 5.07148 -2.09982 0
M  V30 24000 H 2263.91 4.39253 -0.500951 0
M  V30 24001 N 2262.97 1.04818 1.1769 0
M  V30 24002 C 2263.9 0.66683 2.23776 0
M  V30 24003 C 2264.88 -0.333581 1.66797 0
M  V30 24004 O 2266.07 -0.212008 1.93039 0
M  V30 24005 C 2263.2 0.0368544 3.4728 0
M  V30 24006 C 2262.15 0.961619 4.17057 0
M  V30 24007 C 2261.48 0.19572 5.34342 0
M  V30 24008 C 2262.78 2.2841 4.69709 0
M  V30 24009 H 2264.47 1.55371 2.5593 0
M  V30 24010 H 2262.02 0.748506 1.23018 0
M  V30 24011 H 2263.97 -0.241701 4.20706 0
M  V30 24012 H 2262.69 -0.884949 3.14382 0
M  V30 24013 H 2261.35 1.22468 3.45539 0
M  V30 24014 H 2261 -0.728729 4.97693 0
M  V30 24015 H 2260.7 0.811878 5.81964 0
M  V30 24016 H 2262.23 -0.0756399 6.10553 0
M  V30 24017 H 2263.64 2.06572 5.34791 0
M  V30 24018 H 2262.04 2.8539 5.27895 0
M  V30 24019 H 2263.11 2.92532 3.86721 0
M  V30 24020 N 2264.45 -1.34055 0.828678 0
M  V30 24021 C 2265.36 -2.33191 0.256766 0
M  V30 24022 C 2266.38 -1.62887 -0.611869 0
M  V30 24023 O 2267.55 -1.94614 -0.518406 0
M  V30 24024 C 2264.62 -3.42029 -0.567178 0
M  V30 24025 C 2263.68 -4.28072 0.324534 0
M  V30 24026 C 2262.91 -5.31712 -0.460181 0
M  V30 24027 O 2263.13 -5.44699 -1.6929 0
M  V30 24028 O 2262.07 -6.01686 0.160497 0
M  V30 24029 H 2265.89 -2.83945 1.07744 0
M  V30 24030 H 2263.48 -1.37216 0.590954 0
M  V30 24031 H 2265.36 -4.08473 -1.03575 0
M  V30 24032 H 2264.04 -2.93509 -1.36508 0
M  V30 24033 H 2262.94 -3.64531 0.840723 0
M  V30 24034 H 2264.28 -4.80048 1.08694 0
M  V30 24035 N 2265.93 -0.584167 -1.46374 0
M  V30 24036 C 2266.89 0.138068 -2.28784 0
M  V30 24037 C 2267.89 0.817438 -1.38472 0
M  V30 24038 O 2269.08 0.669171 -1.60835 0
M  V30 24039 C 2266.21 1.20497 -3.18894 0
M  V30 24040 H 2267.41 -0.586179 -2.94116 0
M  V30 24041 H 2264.96 -0.342198 -1.52508 0
M  V30 24042 H 2265.69 1.96075 -2.58312 0
M  V30 24043 H 2265.48 0.722316 -3.85389 0
M  V30 24044 H 2266.97 1.71148 -3.80917 0
M  V30 24045 N 2267.41 1.54275 -0.322027 0
M  V30 24046 C 2268.65 2.00838 0.281425 0
M  V30 24047 C 2268.98 1.20987 1.51907 0
M  V30 24048 O 2268.26 0.291767 1.92299 0
M  V30 24049 C 2268.54 3.54773 0.6171 0
M  V30 24050 C 2268.4 4.4535 -0.631143 0
M  V30 24051 C 2269.71 4.16036 1.43535 0
M  V30 24052 H 2266.83 0.730072 0.100813 0
M  V30 24053 H 2269.48 1.84875 -0.4383 0
M  V30 24054 H 2267.63 3.68506 1.23027 0
M  V30 24055 H 2269.3 4.4349 -1.26942 0
M  V30 24056 H 2267.54 4.15088 -1.26032 0
M  V30 24057 H 2268.21 5.50878 -0.351832 0
M  V30 24058 H 2270.69 4.05868 0.917063 0
M  V30 24059 H 2269.56 5.23859 1.63898 0
M  V30 24060 H 2269.82 3.69262 2.43101 0
M  V30 24061 N 2268.88 0.0501669 1.5752 0
M  V30 24062 C 2269.81 -0.922529 2.14503 0
M  V30 24063 C 2270.79 -1.32518 1.06644 0
M  V30 24064 O 2271.98 -1.40007 1.34579 0
M  V30 24065 C 2269.11 -2.19771 2.6892 0
M  V30 24066 C 2268.06 -1.93516 3.81753 0
M  V30 24067 C 2267.39 -3.2748 4.22683 0
M  V30 24068 C 2268.69 -1.25756 5.06935 0
M  V30 24069 H 2270.38 -0.4479 2.96031 0
M  V30 24070 H 2267.93 -0.213999 1.42401 0
M  V30 24071 H 2269.88 -2.88216 3.07424 0
M  V30 24072 H 2268.61 -2.69438 1.84583 0
M  V30 24073 H 2267.27 -1.27483 3.4372 0
M  V30 24074 H 2266.91 -3.74946 3.35298 0
M  V30 24075 H 2266.61 -3.10711 4.98731 0
M  V30 24076 H 2268.14 -3.97158 4.63786 0
M  V30 24077 H 2269.55 -1.84234 5.42891 0
M  V30 24078 H 2267.95 -1.19317 5.88119 0
M  V30 24079 H 2269.02 -0.233451 4.84338 0
M  V30 24080 N 2270.36 -1.56011 -0.223207 0
M  V30 24081 C 2271.31 -1.9228 -1.2766 0
M  V30 24082 C 2272.28 -0.779789 -1.46658 0
M  V30 24083 O 2273.46 -1.03554 -1.60254 0
M  V30 24084 C 2270.6 -2.24343 -2.6223 0
M  V30 24085 C 2269.72 -3.51569 -2.51045 0
M  V30 24086 C 2268.85 -3.73087 -3.78126 0
M  V30 24087 C 2267.89 -4.93833 -3.61657 0
M  V30 24088 N 2267.03 -5.11749 -4.80684 0
M  V30 24089 H 2271.87 -2.82103 -0.960308 0
M  V30 24090 H 2269.4 -1.39628 -0.462876 0
M  V30 24091 H 2271.36 -2.40942 -3.40592 0
M  V30 24092 H 2269.99 -1.37695 -2.91959 0
M  V30 24093 H 2269.04 -3.43172 -1.64126 0
M  V30 24094 H 2270.36 -4.40083 -2.34795 0
M  V30 24095 H 2269.51 -3.89774 -4.64931 0
M  V30 24096 H 2268.25 -2.82851 -3.97299 0
M  V30 24097 H 2267.25 -4.77098 -2.73236 0
M  V30 24098 H 2268.48 -5.85552 -3.43956 0
M  V30 24099 H 2266.43 -4.24455 -5.00174 0
M  V30 24100 H 2266.34 -5.94393 -4.67155 0
M  V30 24101 H 2267.61 -5.3287 -5.6892 0
M  V30 24102 N 2271.84 0.489844 -1.49794 0
M  V30 24103 C 2272.77 1.59853 -1.70203 0
M  V30 24104 C 2273.75 1.60936 -0.550789 0
M  V30 24105 O 2274.94 1.775 -0.787872 0
M  V30 24106 C 2272.07 2.98284 -1.77888 0
M  V30 24107 C 2271.02 3.12068 -2.92912 0
M  V30 24108 C 2270.35 4.5196 -2.8572 0
M  V30 24109 C 2271.65 2.91043 -4.33695 0
M  V30 24110 H 2273.34 1.43027 -2.63028 0
M  V30 24111 H 2270.89 0.686642 -1.26575 0
M  V30 24112 H 2272.84 3.75755 -1.90751 0
M  V30 24113 H 2271.56 3.16224 -0.816708 0
M  V30 24114 H 2270.22 2.37024 -2.79669 0
M  V30 24115 H 2269.87 4.66792 -1.87388 0
M  V30 24116 H 2269.57 4.62122 -3.62929 0
M  V30 24117 H 2271.09 5.31477 -3.00607 0
M  V30 24118 H 2272.51 3.58276 -4.47561 0
M  V30 24119 H 2270.9 3.12666 -5.12211 0
M  V30 24120 H 2271.97 1.87063 -4.47365 0
M  V30 24121 N 2273.32 1.39056 0.741698 0
M  V30 24122 C 2274.56 1.36116 1.50334 0
M  V30 24123 C 2274.9 -0.0450455 1.94148 0
M  V30 24124 O 2274.17 -1.00865 1.66302 0
M  V30 24125 C 2274.45 2.32754 2.74768 0
M  V30 24126 C 2274.31 3.82287 2.37017 0
M  V30 24127 C 2275.63 2.27328 3.76842 0
M  V30 24128 H 2272.75 0.495753 0.545342 0
M  V30 24129 H 2275.39 1.69997 0.848595 0
M  V30 24130 H 2273.54 2.03991 3.30635 0
M  V30 24131 H 2275.21 4.21771 1.86833 0
M  V30 24132 H 2273.45 3.99388 1.69327 0
M  V30 24133 H 2274.12 4.45382 3.26097 0
M  V30 24134 H 2276.6 2.52745 3.30543 0
M  V30 24135 H 2275.48 2.97037 4.61585 0
M  V30 24136 H 2275.74 1.27606 4.23284 0
M  V30 24137 N 2274.8 -0.971167 1.24121 0
M  V30 24138 C 2275.76 -2.04673 1.03159 0
M  V30 24139 C 2276.76 -1.60797 -0.00987496 0
M  V30 24140 O 2277.95 -1.72665 0.23076 0
M  V30 24141 C 2275.08 -3.36222 0.562824 0
M  V30 24142 H 2276.27 -2.24702 1.98618 0
M  V30 24143 H 2273.83 -1.14591 1.06295 0
M  V30 24144 H 2274.56 -3.21884 -0.39512 0
M  V30 24145 H 2274.35 -3.6941 1.31447 0
M  V30 24146 H 2275.84 -4.15306 0.437088 0
M  V30 24147 N 2276.27 -1.05441 -1.17133 0
M  V30 24148 C 2277.52 -0.765975 -1.87454 0
M  V30 24149 C 2277.85 0.707121 -1.81191 0
M  V30 24150 O 2277.1 1.53307 -1.21636 0
M  V30 24151 C 2277.4 -1.19497 -3.36831 0
M  V30 24152 C 2277.07 -2.6707 -3.63297 0
M  V30 24153 C 2275.73 -3.07382 -3.70229 0
M  V30 24154 C 2278.08 -3.6242 -3.74568 0
M  V30 24155 C 2275.41 -4.41903 -3.85926 0
M  V30 24156 C 2277.76 -4.96677 -3.91784 0
M  V30 24157 C 2276.43 -5.3664 -3.96956 0
M  V30 24158 H 2275.7 -0.28029 -0.685943 0
M  V30 24159 H 2278.34 -1.32194 -1.38553 0
M  V30 24160 H 2276.65 -0.558037 -3.87806 0
M  V30 24161 H 2278.35 -0.948961 -3.8961 0
M  V30 24162 H 2274.94 -2.34853 -3.58528 0
M  V30 24163 H 2279.12 -3.32413 -3.68531 0
M  V30 24164 H 2274.38 -4.72363 -3.88179 0
M  V30 24165 H 2278.55 -5.70451 -3.99448 0
M  V30 24166 H 2276.18 -6.40881 -4.08871 0
M  V30 24167 N 2277.75 1.33613 -0.835776 0
M  V30 24168 C 2279 1.97491 -0.429144 0
M  V30 24169 C 2279.32 1.66544 1.0143 0
M  V30 24170 O 2278.59 0.962774 1.70609 0
M  V30 24171 H 2277.17 0.730594 -0.155699 0
M  V30 24172 H 2279.83 1.6303 -1.06805 0
M  V30 24173 H 2278.93 3.07059 -0.558664 0
M  V30 24174 N 2279.23 0.591922 1.46062 0
M  V30 24175 C 2280.16 -0.123632 2.33172 0
M  V30 24176 C 2281.14 -0.874505 1.45899 0
M  V30 24177 O 2282.33 -0.84815 1.747 0
M  V30 24178 C 2279.46 -1.13188 3.28338 0
M  V30 24179 C 2278.41 -0.495249 4.25125 0
M  V30 24180 C 2277.74 -1.61063 5.09866 0
M  V30 24181 C 2279.04 0.573516 5.19142 0
M  V30 24182 H 2280.73 0.603698 2.9325 0
M  V30 24183 H 2278.28 0.291766 1.41013 0
M  V30 24184 H 2280.23 -1.6409 3.8814 0
M  V30 24185 H 2278.95 -1.8896 2.66386 0
M  V30 24186 H 2277.61 -0.00723008 3.66599 0
M  V30 24187 H 2277.26 -2.35824 4.44293 0
M  V30 24188 H 2276.96 -1.19025 5.75419 0
M  V30 24189 H 2278.48 -2.12223 5.72533 0
M  V30 24190 H 2279.9 0.149201 5.73106 0
M  V30 24191 H 2278.3 0.91474 5.93087 0
M  V30 24192 H 2279.37 1.45625 4.62516 0
M  V30 24193 N 2280.71 -1.54102 0.330204 0
M  V30 24194 C 2282.12 -1.59585 -0.022209 0
M  V30 24195 C 2282.32 -1.34656 -1.499 0
M  V30 24196 O 2281.38 -1.13425 -2.2559 0
M  V30 24197 C 2282.69 -2.98001 0.401984 0
M  V30 24198 C 2284.24 -3.11001 0.353199 0
M  V30 24199 C 2284.72 -4.51773 0.752656 0
M  V30 24200 N 2286.21 -4.57783 0.706319 0
M  V30 24201 C 2286.94 -5.64832 0.987516 0
M  V30 24202 N 2286.44 -6.79792 1.33619 0
M  V30 24203 N 2288.23 -5.54642 0.912638 0
M  V30 24204 H 2280.38 -1.68562 1.29231 0
M  V30 24205 H 2282.65 -0.788741 0.52592 0
M  V30 24206 H 2282.35 -3.21265 1.43115 0
M  V30 24207 H 2282.23 -3.765 -0.229633 0
M  V30 24208 H 2284.61 -2.87469 -0.666772 0
M  V30 24209 H 2284.69 -2.34591 1.01984 0
M  V30 24210 H 2284.34 -4.76039 1.77057 0
M  V30 24211 H 2284.27 -5.26562 0.0636335 0
M  V30 24212 H 2286.76 -3.75224 0.448956 0
M  V30 24213 H 2287.07 -7.57383 1.53595 0
M  V30 24214 H 2285.42 -6.81272 1.37451 0
M  V30 24215 H 2288.61 -4.63709 0.639683 0
M  V30 24216 H 2288.78 -6.3798 1.13514 0
M  V30 24217 N 2282.19 -0.0585199 -1.57491 0
M  V30 24218 C 2283.6 0.298063 -1.56792 0
M  V30 24219 C 2283.8 1.70942 -1.06682 0
M  V30 24220 O 2282.86 2.41816 -0.726714 0
M  V30 24221 C 2284.17 0.119826 -3.00461 0
M  V30 24222 C 2285.72 0.190373 -3.12421 0
M  V30 24223 C 2286.19 0.0405762 -4.57982 0
M  V30 24224 N 2287.69 0.0966144 -4.63099 0
M  V30 24225 C 2288.42 0.00492864 -5.734 0
M  V30 24226 N 2287.92 -0.139524 -6.92659 0
M  V30 24227 N 2289.71 0.0610403 -5.62067 0
M  V30 24228 H 2281.86 -0.981084 -1.88384 0
M  V30 24229 H 2284.12 -0.381478 -0.867858 0
M  V30 24230 H 2283.83 -0.85355 -3.41185 0
M  V30 24231 H 2283.7 0.877769 -3.66845 0
M  V30 24232 H 2286.09 1.15423 -2.71591 0
M  V30 24233 H 2286.17 -0.598449 -2.48701 0
M  V30 24234 H 2285.82 -0.919985 -4.99498 0
M  V30 24235 H 2285.75 0.848636 -5.19717 0
M  V30 24236 H 2288.24 0.20721 -3.77331 0
M  V30 24237 H 2288.55 -0.20199 -7.72536 0
M  V30 24238 H 2286.89 -0.174708 -6.9478 0
M  V30 24239 H 2290.09 0.1725 -4.67782 0
M  V30 24240 H 2290.26 -0.0138701 -6.47999 0
M  V30 24241 N 2283.66 1.56128 0.21493 0
M  V30 24242 C 2284.91 1.79448 0.93834 0
M  V30 24243 C 2285.24 0.628411 1.84069 0
M  V30 24244 O 2284.49 -0.386891 1.91838 0
M  V30 24245 C 2284.79 3.08583 1.80308 0
M  V30 24246 C 2284.46 4.38422 1.05341 0
M  V30 24247 C 2283.12 4.73699 0.846352 0
M  V30 24248 C 2285.47 5.18554 0.524497 0
M  V30 24249 C 2282.8 5.86617 0.0985799 0
M  V30 24250 C 2285.15 6.32251 -0.209964 0
M  V30 24251 C 2283.82 6.66125 -0.428219 0
M  V30 24252 H 2283.09 0.656645 0.343363 0
M  V30 24253 H 2285.73 1.90388 0.206044 0
M  V30 24254 H 2284.04 2.92793 2.60345 0
M  V30 24255 H 2285.74 3.23829 2.36507 0
M  V30 24256 H 2282.33 4.10727 1.22478 0
M  V30 24257 H 2286.51 4.91731 0.671922 0
M  V30 24258 H 2281.77 6.11347 -0.0806828 0
M  V30 24259 H 2285.94 6.93569 -0.627279 0
M  V30 24260 H 2283.57 7.53466 -1.00957 0
M  V30 24261 N 2285.14 -0.481893 1.50052 0
M  V30 24262 C 2286.39 -1.23475 1.605 0
M  V30 24263 C 2286.72 -1.92167 0.300364 0
M  V30 24264 O 2285.97 -1.82247 -0.713062 0
M  V30 24265 C 2286.27 -2.30993 2.72721 0
M  V30 24266 C 2285.94 -1.79628 4.13575 0
M  V30 24267 C 2284.6 -1.6534 4.51903 0
M  V30 24268 C 2286.95 -1.41403 5.01652 0
M  V30 24269 C 2284.28 -1.11234 5.76059 0
M  V30 24270 C 2286.63 -0.887428 6.26345 0
M  V30 24271 C 2285.3 -0.731091 6.63484 0
M  V30 24272 H 2284.57 -0.451826 0.587311 0
M  V30 24273 H 2287.21 -0.532435 1.83949 0
M  V30 24274 H 2285.52 -3.07089 2.43317 0
M  V30 24275 H 2287.21 -2.88983 2.78011 0
M  V30 24276 H 2283.8 -1.91714 3.83332 0
M  V30 24277 H 2287.99 -1.51281 4.72681 0
M  V30 24278 H 2283.24 -0.978579 6.03518 0
M  V30 24279 H 2287.42 -0.582532 6.93959 0
M  V30 24280 H 2285.05 -0.309672 7.59569 0
M  V30 24281 N 2286.62 -1.39448 -0.734313 0
M  V30 24282 C 2287.57 -1.38222 -1.84833 0
M  V30 24283 C 2288.54 -0.241819 -1.6433 0
M  V30 24284 O 2289.72 -0.437035 -1.85727 0
M  V30 24285 C 2286.86 -1.23217 -3.22353 0
M  V30 24286 C 2285.98 -2.46808 -3.54556 0
M  V30 24287 C 2285.11 -2.24386 -4.81482 0
M  V30 24288 C 2284.15 -3.43648 -5.0653 0
M  V30 24289 N 2283.29 -3.20539 -6.24659 0
M  V30 24290 H 2288.13 -2.33451 -1.85215 0
M  V30 24291 H 2285.66 -1.15965 -0.905018 0
M  V30 24292 H 2287.62 -1.12529 -4.01738 0
M  V30 24293 H 2286.25 -0.316178 -3.21248 0
M  V30 24294 H 2285.3 -2.68096 -2.69868 0
M  V30 24295 H 2286.62 -3.35636 -3.68985 0
M  V30 24296 H 2285.77 -2.10943 -5.68848 0
M  V30 24297 H 2284.51 -1.32952 -4.69228 0
M  V30 24298 H 2283.51 -3.57588 -4.17625 0
M  V30 24299 H 2284.74 -4.35983 -5.20668 0
M  V30 24300 H 2282.68 -2.31771 -6.13692 0
M  V30 24301 H 2282.6 -4.02925 -6.39678 0
M  V30 24302 H 2283.87 -3.10792 -7.14863 0
M  V30 24303 N 2288.1 0.964571 -1.24635 0
M  V30 24304 C 2289.38 1.68352 -0.995839 0
M  V30 24305 C 2289.76 2.05549 0.480927 0
M  V30 24306 O 2289.1 1.76108 1.45596 0
M  V30 24307 C 2289.31 2.91319 -1.92182 0
M  V30 24308 C 2290.66 3.63491 -2.19453 0
M  V30 24309 O 2291.69 3.01382 -1.89861 0
M  V30 24310 O 2290.54 4.75302 -2.69723 0
M  V30 24311 H 2287.64 0.736139 -0.376867 0
M  V30 24312 H 2290.18 1.01838 -1.35746 0
M  V30 24313 H 2288.96 2.60548 -2.91943 0
M  V30 24314 H 2288.58 3.65566 -1.56356 0
M  V30 24315 N 2289.58 1.0606 1.16572 0
M  V30 24316 C 2290.99 0.78361 1.39039 0
M  V30 24317 C 2291.19 -0.618111 1.91785 0
M  V30 24318 O 2290.25 -1.37907 2.11513 0
M  V30 24319 C 2291.56 1.84654 2.37326 0
M  V30 24320 C 2293.11 1.86977 2.51015 0
M  V30 24321 C 2293.58 2.92317 3.52583 0
M  V30 24322 N 2295.08 2.91336 3.60108 0
M  V30 24323 C 2295.81 3.6949 4.3848 0
M  V30 24324 N 2295.31 4.57456 5.20294 0
M  V30 24325 N 2297.1 3.57892 4.33439 0
M  V30 24326 H 2289.25 1.96485 0.806691 0
M  V30 24327 H 2291.51 0.851311 0.417102 0
M  V30 24328 H 2291.22 2.85303 2.05658 0
M  V30 24329 H 2291.09 1.69556 3.36943 0
M  V30 24330 H 2293.48 0.869876 2.81988 0
M  V30 24331 H 2293.56 2.06153 1.51442 0
M  V30 24332 H 2293.21 3.92498 3.22348 0
M  V30 24333 H 2293.14 2.70391 4.51881 0
M  V30 24334 H 2295.63 2.27561 3.01703 0
M  V30 24335 H 2295.94 5.13753 5.77302 0
M  V30 24336 H 2294.28 4.61513 5.19645 0
M  V30 24337 H 2297.48 2.88557 3.68581 0
M  V30 24338 H 2297.65 4.19046 4.94272 0
M  V30 24339 N 2291.06 -1.33168 0.84285 0
M  V30 24340 C 2292.3 -1.98351 0.450377 0
M  V30 24341 C 2292.66 -1.65543 -0.980479 0
M  V30 24342 O 2291.95 -0.927094 -1.67677 0
M  V30 24343 C 2292.14 -3.5211 0.612669 0
M  V30 24344 C 2291.97 -3.99858 2.05775 0
M  V30 24345 C 2290.74 -4.27506 2.69382 0
M  V30 24346 C 2292.94 -4.15788 3.02696 0
M  V30 24347 N 2290.92 -4.61422 4.04923 0
M  V30 24348 C 2292.29 -4.53108 4.23194 0
M  V30 24349 C 2294.35 -3.98089 2.99048 0
M  V30 24350 C 2293.05 -4.74577 5.40526 0
M  V30 24351 C 2295.08 -4.20736 4.15614 0
M  V30 24352 C 2294.44 -4.58361 5.34868 0
M  V30 24353 H 2290.54 -0.752345 0.213309 0
M  V30 24354 H 2293.12 -1.61211 1.09175 0
M  V30 24355 H 2291.29 -3.884 0.00106709 0
M  V30 24356 H 2293.03 -4.04248 0.19125 0
M  V30 24357 H 2289.78 -4.19142 2.20492 0
M  V30 24358 H 2290.2 -4.82584 4.74807 0
M  V30 24359 H 2294.85 -3.68111 2.07977 0
M  V30 24360 H 2292.56 -5.03414 6.32139 0
M  V30 24361 H 2296.15 -4.08556 4.14214 0
M  V30 24362 H 2295.03 -4.75537 6.23566 0
M  V30 24363 N 2292.53 -0.599659 -1.45746 0
M  V30 24364 C 2293.48 0.136386 -2.322 0
M  V30 24365 C 2294.48 0.867557 -1.45498 0
M  V30 24366 O 2295.68 0.784022 -1.62028 0
M  V30 24367 H 2292.06 0.0628457 -0.749369 0
M  V30 24368 H 2294.03 -0.611333 -2.92071 0
M  V30 24369 C 2292.78 1.12561 -3.28976 0
M  V30 24370 H 2292.1 0.572414 -3.95681 0
M  V30 24371 H 2293.54 1.6107 -3.92215 0
M  V30 24372 C 2292 2.19518 -2.55565 0
M  V30 24373 O 2292.53 3.27139 -2.33116 0
M  V30 24374 N 2290.73 1.94586 -2.15835 0
M  V30 24375 H 2290.28 1.07074 -2.34292 0
M  V30 24376 H 2290.24 2.66356 -1.67039 0
M  V30 24377 N 2294.01 1.53925 -0.338371 0
M  V30 24378 C 2294.94 2.22377 0.555078 0
M  V30 24379 C 2295.96 1.22864 1.0681 0
M  V30 24380 O 2297.15 1.49249 0.979137 0
M  V30 24381 C 2294.25 2.88635 1.77604 0
M  V30 24382 C 2293.42 4.14417 1.3992 0
M  V30 24383 C 2292.48 4.64132 2.47928 0
M  V30 24384 O 2291.5 5.28466 2.11452 0
M  V30 24385 N 2292.71 4.39618 3.79099 0
M  V30 24386 H 2295.47 2.99684 -0.0311305 0
M  V30 24387 H 2293.03 1.61085 -0.162254 0
M  V30 24388 H 2295.02 3.18811 2.49282 0
M  V30 24389 H 2293.59 2.14945 2.26975 0
M  V30 24390 H 2292.81 3.90842 0.513412 0
M  V30 24391 H 2294.1 4.96245 1.12332 0
M  V30 24392 H 2293.5 3.88155 4.11524 0
M  V30 24393 H 2292.06 4.74414 4.46962 0
M  V30 24394 N 2295.49 0.0668712 1.57458 0
M  V30 24395 C 2296.42 -0.899726 2.1547 0
M  V30 24396 C 2297.4 -1.31379 1.08044 0
M  V30 24397 O 2298.59 -1.38572 1.36057 0
M  V30 24398 C 2295.72 -2.16907 2.71236 0
M  V30 24399 C 2294.67 -1.89456 3.83784 0
M  V30 24400 C 2294 -3.22978 4.26133 0
M  V30 24401 C 2295.3 -1.20372 5.0824 0
M  V30 24402 H 2296.99 -0.416477 2.96489 0
M  V30 24403 H 2294.54 -0.198883 1.4262 0
M  V30 24404 H 2296.49 -2.84939 3.10463 0
M  V30 24405 H 2295.21 -2.67465 1.8743 0
M  V30 24406 H 2293.87 -1.2383 3.45053 0
M  V30 24407 H 2293.52 -3.71368 3.39256 0
M  V30 24408 H 2293.22 -3.05404 5.01998 0
M  V30 24409 H 2294.74 -3.92217 4.67973 0
M  V30 24410 H 2296.16 -1.78466 5.44814 0
M  V30 24411 H 2294.55 -1.13073 5.89351 0
M  V30 24412 H 2295.62 -0.182068 4.84558 0
M  V30 24413 N 2296.97 -1.56239 -0.206647 0
M  V30 24414 C 2298.24 -1.70757 -0.954021 0
M  V30 24415 C 2298.62 -0.618388 -2.01839 0
M  V30 24416 O 2297.97 0.372394 -2.25445 0
M  V30 24417 C 2298.18 -3.12645 -1.55094 0
M  V30 24418 C 2299.53 -3.7252 -2.0375 0
M  V30 24419 O 2300.55 -3.15701 -1.64959 0
M  V30 24420 O 2299.41 -4.72213 -2.75094 0
M  V30 24421 H 2296.51 -0.696029 -0.446624 0
M  V30 24422 H 2299.05 -1.6855 -0.197254 0
M  V30 24423 H 2297.83 -3.83383 -0.783145 0
M  V30 24424 H 2297.45 -3.19032 -2.37285 0
M  V30 24425 N 2298.45 0.473929 -1.50305 0
M  V30 24426 C 2299.38 1.58039 -1.71889 0
M  V30 24427 C 2300.36 1.60343 -0.567827 0
M  V30 24428 O 2301.54 1.76654 -0.806654 0
M  V30 24429 C 2298.67 2.9638 -1.81041 0
M  V30 24430 C 2297.63 3.08943 -2.96206 0
M  V30 24431 C 2296.95 4.48904 -2.90498 0
M  V30 24432 C 2298.25 2.86427 -4.36757 0
M  V30 24433 H 2299.95 1.4023 -2.6453 0
M  V30 24434 H 2297.49 0.673178 -1.27296 0
M  V30 24435 H 2299.44 3.73711 -1.94726 0
M  V30 24436 H 2298.17 3.1534 -0.850202 0
M  V30 24437 H 2296.83 2.34045 -2.82168 0
M  V30 24438 H 2296.48 4.64778 -1.92329 0
M  V30 24439 H 2296.18 4.58246 -3.6781 0
M  V30 24440 H 2297.7 5.28259 -3.06227 0
M  V30 24441 H 2299.11 3.53509 -4.51336 0
M  V30 24442 H 2297.51 3.07216 -5.15498 0
M  V30 24443 H 2298.58 1.82308 -4.49324 0
M  V30 24444 N 2299.92 1.39835 0.726907 0
M  V30 24445 C 2300.89 1.38966 1.82267 0
M  V30 24446 C 2301.89 0.285362 1.58248 0
M  V30 24447 O 2303.08 0.543689 1.65498 0
M  V30 24448 C 2300.21 1.17025 3.20184 0
M  V30 24449 H 2301.4 2.36479 1.84439 0
M  V30 24450 H 2298.95 1.25518 0.931393 0
M  V30 24451 H 2299.69 0.202261 3.23669 0
M  V30 24452 H 2299.47 1.97003 3.39016 0
M  V30 24453 H 2300.96 1.19177 4.00233 0
M  V30 24454 N 2301.4 -0.957948 1.25144 0
M  V30 24455 C 2302.65 -1.69652 1.09093 0
M  V30 24456 C 2302.96 -1.92097 -0.368514 0
M  V30 24457 O 2304.17 -2.63619 -0.649409 0
M  V30 24458 C 2302.63 -3.05411 1.904 0
M  V30 24459 C 2302.23 -2.90773 3.40815 0
M  V30 24460 C 2303.98 -3.83073 1.82908 0
M  V30 24461 C 2301.88 -4.21902 4.14431 0
M  V30 24462 H 2300.81 -0.636228 0.404636 0
M  V30 24463 H 2303.47 -1.06669 1.49311 0
M  V30 24464 H 2301.85 -3.69278 1.43002 0
M  V30 24465 H 2303.02 -2.35858 3.95863 0
M  V30 24466 H 2301.34 -2.26568 3.49365 0
M  V30 24467 H 2303.93 -4.80191 2.35204 0
M  V30 24468 H 2304.28 -4.08613 0.796296 0
M  V30 24469 H 2304.81 -3.2595 2.28038 0
M  V30 24470 H 2301.55 -4.01552 5.18109 0
M  V30 24471 H 2301.07 -4.76595 3.64167 0
M  V30 24472 H 2302.75 -4.90464 4.21965 0
M  V30 24473 N 2302.88 -1.06677 -1.16008 0
M  V30 24474 C 2304.13 -0.786978 -1.86908 0
M  V30 24475 C 2304.46 0.684986 -1.81718 0
M  V30 24476 O 2303.73 1.50215 -1.23554 0
M  V30 24477 C 2304.02 -1.28713 -3.36311 0
M  V30 24478 C 2303.87 -2.82314 -3.5017 0
M  V30 24479 C 2305.19 -0.898147 -4.30838 0
M  V30 24480 H 2302.31 -0.287355 -0.678672 0
M  V30 24481 H 2304.95 -1.32337 -1.36334 0
M  V30 24482 H 2303.1 -0.830835 -3.79512 0
M  V30 24483 H 2304.77 -3.36181 -3.1588 0
M  V30 24484 H 2303.01 -3.20852 -2.91953 0
M  V30 24485 H 2303.69 -3.12376 -4.5511 0
M  V30 24486 H 2306.16 -1.29121 -3.95559 0
M  V30 24487 H 2305.04 -1.27552 -5.33874 0
M  V30 24488 H 2305.3 0.196574 -4.41663 0
M  V30 24489 N 2304.36 1.32719 -0.8499 0
M  V30 24490 C 2305.29 2.31482 -0.306349 0
M  V30 24491 C 2306.27 1.59469 0.591924 0
M  V30 24492 O 2307.45 1.87297 0.513166 0
M  V30 24493 C 2304.58 3.43533 0.510144 0
M  V30 24494 C 2303.54 4.26994 -0.293284 0
M  V30 24495 C 2302.86 5.30763 0.647649 0
M  V30 24496 C 2304.16 4.99802 -1.51643 0
M  V30 24497 H 2305.86 2.77193 -1.13157 0
M  V30 24498 H 2303.4 1.33265 -0.545577 0
M  V30 24499 H 2305.36 4.1166 0.900783 0
M  V30 24500 H 2304.08 2.96538 1.36869 0
M  V30 24501 H 2302.74 3.60507 -0.665619 0
M  V30 24502 H 2302.39 4.80023 1.5029 0
M  V30 24503 H 2302.09 5.87489 0.114116 0
M  V30 24504 H 2303.61 6.01754 1.03557 0
M  V30 24505 H 2305.03 5.60636 -1.19834 0
M  V30 24506 H 2303.42 5.6623 -1.98755 0
M  V30 24507 H 2304.49 4.27939 -2.28026 0
M  V30 24508 N 2305.84 0.60738 1.45426 0
M  V30 24509 C 2306.77 -0.0988942 2.3329 0
M  V30 24510 C 2307.75 -0.858981 1.46818 0
M  V30 24511 O 2308.93 -0.829573 1.7559 0
M  V30 24512 C 2306.06 -1.09699 3.2952 0
M  V30 24513 C 2305.02 -0.450131 4.25626 0
M  V30 24514 C 2304.34 -1.55646 5.11545 0
M  V30 24515 C 2305.64 0.628546 5.18504 0
M  V30 24516 H 2307.34 0.634767 2.92594 0
M  V30 24517 H 2304.88 0.306706 1.40696 0
M  V30 24518 H 2306.84 -1.59964 3.89858 0
M  V30 24519 H 2305.56 -1.86124 2.68375 0
M  V30 24520 H 2304.22 0.0316531 3.66586 0
M  V30 24521 H 2303.87 -2.31099 4.46769 0
M  V30 24522 H 2303.57 -1.12915 5.76649 0
M  V30 24523 H 2305.09 -2.06138 5.74752 0
M  V30 24524 H 2306.5 0.209978 5.72915 0
M  V30 24525 H 2304.9 0.977593 5.92084 0
M  V30 24526 H 2305.97 1.50522 4.60946 0
M  V30 24527 N 2307.31 -1.53743 0.34653 0
M  V30 24528 C 2308.54 -2.05851 -0.253038 0
M  V30 24529 C 2308.96 -1.21965 -1.432 0
M  V30 24530 O 2308.32 -0.234104 -1.79782 0
M  V30 24531 C 2308.37 -3.54819 -0.64313 0
M  V30 24532 O 2307.47 -3.73765 -1.74279 0
M  V30 24533 H 2306.82 -0.662711 -0.0413466 0
M  V30 24534 H 2309.35 -1.98356 0.501609 0
M  V30 24535 H 2309.36 -3.97505 -0.919456 0
M  V30 24536 H 2308.03 -4.15323 0.219039 0
M  V30 24537 H 2306.61 -3.42981 -1.4635 0
M  V30 24538 N 2308.79 -0.0752207 -1.5742 0
M  V30 24539 C 2310.04 0.593991 -1.93906 0
M  V30 24540 C 2310.37 1.69055 -0.955731 0
M  V30 24541 O 2309.65 1.94495 0.0145031 0
M  V30 24542 C 2309.93 1.16774 -3.4064 0
M  V30 24543 C 2309.78 0.0776002 -4.49733 0
M  V30 24544 C 2311.1 2.07221 -3.88262 0
M  V30 24545 H 2308.22 0.214454 -0.705109 0
M  V30 24546 H 2310.86 -0.141887 -1.89469 0
M  V30 24547 H 2309.01 1.79488 -3.44552 0
M  V30 24548 H 2310.68 -0.555653 -4.57941 0
M  V30 24549 H 2308.93 -0.591361 -4.2975 0
M  V30 24550 H 2309.6 0.519507 -5.4955 0
M  V30 24551 H 2312.07 1.54438 -3.86378 0
M  V30 24552 H 2310.95 2.44299 -4.91537 0
M  V30 24553 H 2311.21 2.98185 -3.26402 0
M  V30 24554 N 2310.27 1.56347 0.198358 0
M  V30 24555 C 2311.2 1.89341 1.27378 0
M  V30 24556 C 2312.18 0.753159 1.44105 0
M  V30 24557 O 2313.37 1.00384 1.59547 0
M  V30 24558 C 2310.49 2.12075 2.64087 0
M  V30 24559 C 2309.54 3.34777 2.64247 0
M  V30 24560 S 2310.37 4.90002 2.16005 0
M  V30 24561 C 2311.53 5.158 3.54544 0
M  V30 24562 H 2311.76 2.80261 0.992008 0
M  V30 24563 H 2309.29 1.49083 0.4017 0
M  V30 24564 H 2311.25 2.25856 3.42782 0
M  V30 24565 H 2309.91 1.21911 2.89476 0
M  V30 24566 H 2309.11 3.478 3.64761 0
M  V30 24567 H 2308.71 3.19973 1.93631 0
M  V30 24568 H 2311 5.0612 4.50387 0
M  V30 24569 H 2311.94 6.17576 3.46418 0
M  V30 24570 H 2312.35 4.43448 3.49305 0
M  V30 24571 N 2311.75 -0.465951 1.50554 0
M  V30 24572 C 2313 -1.21525 1.61481 0
M  V30 24573 C 2313.32 -1.92363 0.31963 0
M  V30 24574 O 2312.59 -1.84334 -0.663161 0
M  V30 24575 H 2311.17 -0.451563 0.595063 0
M  V30 24576 H 2313.83 -0.537007 1.87356 0
M  V30 24577 H 2312.93 -1.96038 2.42849 0
M  V30 24578 N 2313.23 -1.40218 -0.719481 0
M  V30 24579 C 2314.48 -1.37592 -1.47484 0
M  V30 24580 C 2314.79 0.0201224 -1.9559 0
M  V30 24581 O 2315.99 0.169002 -2.70973 0
M  V30 24582 C 2314.45 -2.41801 -2.66571 0
M  V30 24583 C 2314.06 -3.87196 -2.25351 0
M  V30 24584 C 2315.8 -2.48275 -3.44325 0
M  V30 24585 C 2313.71 -4.83011 -3.41254 0
M  V30 24586 H 2312.64 -0.511585 -0.553892 0
M  V30 24587 H 2315.29 -1.65937 -0.783398 0
M  V30 24588 H 2313.67 -2.06549 -3.37866 0
M  V30 24589 H 2314.85 -4.31571 -1.61501 0
M  V30 24590 H 2313.16 -3.84162 -1.60651 0
M  V30 24591 H 2315.76 -3.17048 -4.30563 0
M  V30 24592 H 2316.1 -1.51205 -3.8787 0
M  V30 24593 H 2316.63 -2.82498 -2.80071 0
M  V30 24594 H 2313.37 -5.814 -3.02745 0
M  V30 24595 H 2312.89 -4.43304 -4.04032 0
M  V30 24596 H 2314.57 -5.02648 -4.07374 0
M  V30 24597 N 2314.7 0.951297 -1.25651 0
M  V30 24598 C 2315.93 1.7309 -1.13346 0
M  V30 24599 C 2316.35 1.86197 0.312401 0
M  V30 24600 O 2315.7 1.36209 1.21463 0
M  V30 24601 C 2315.76 3.14295 -1.78607 0
M  V30 24602 O 2315.48 3.01825 -3.17542 0
M  V30 24603 C 2316.98 4.08519 -1.72126 0
M  V30 24604 H 2314.2 0.542278 -0.395191 0
M  V30 24605 H 2316.74 1.19325 -1.66078 0
M  V30 24606 H 2314.9 3.64994 -1.29839 0
M  V30 24607 H 2315.31 3.90925 -3.49683 0
M  V30 24608 H 2316.78 5.05196 -2.22444 0
M  V30 24609 H 2317.26 4.33814 -0.685711 0
M  V30 24610 H 2317.87 3.63737 -2.20399 0
M  V30 24611 N 2316.18 1.07291 1.1544 0
M  V30 24612 C 2317.11 0.714146 2.22311 0
M  V30 24613 C 2318.09 -0.298126 1.67467 0
M  V30 24614 O 2319.28 -0.171014 1.93446 0
M  V30 24615 C 2316.41 0.110509 3.47124 0
M  V30 24616 C 2315.36 1.04987 4.14924 0
M  V30 24617 C 2314.69 0.309018 5.33806 0
M  V30 24618 C 2315.99 2.38322 4.64758 0
M  V30 24619 H 2317.68 1.60765 2.52577 0
M  V30 24620 H 2315.23 0.774431 1.21402 0
M  V30 24621 H 2317.18 -0.152408 4.21124 0
M  V30 24622 H 2315.91 -0.818065 3.16189 0
M  V30 24623 H 2314.56 1.2977 3.42864 0
M  V30 24624 H 2314.21 -0.622997 4.99127 0
M  V30 24625 H 2313.91 0.935138 5.80111 0
M  V30 24626 H 2315.44 0.0538844 6.10576 0
M  V30 24627 H 2316.85 2.17869 5.30289 0
M  V30 24628 H 2315.25 2.96523 5.21722 0
M  V30 24629 H 2316.32 3.00669 3.80429 0
M  V30 24630 N 2317.66 -1.32267 0.856927 0
M  V30 24631 C 2318.57 -2.32594 0.306172 0
M  V30 24632 C 2319.59 -1.64148 -0.57718 0
M  V30 24633 O 2320.76 -1.9567 -0.477009 0
M  V30 24634 C 2317.83 -3.43155 -0.4945 0
M  V30 24635 C 2316.89 -4.27287 0.415261 0
M  V30 24636 C 2316.12 -5.32569 -0.347293 0
M  V30 24637 O 2316.34 -5.48167 -1.57698 0
M  V30 24638 O 2315.28 -6.0121 0.288087 0
M  V30 24639 H 2319.1 -2.81596 1.13742 0
M  V30 24640 H 2316.69 -1.35931 0.619926 0
M  V30 24641 H 2318.57 -4.10578 -0.948871 0
M  V30 24642 H 2317.25 -2.96338 -1.30251 0
M  V30 24643 H 2316.15 -3.62665 0.917856 0
M  V30 24644 H 2317.49 -4.77635 1.18852 0
M  V30 24645 N 2319.14 -0.615084 -1.45102 0
M  V30 24646 C 2320.05 0.100993 -2.34383 0
M  V30 24647 C 2321.06 0.852559 -1.51682 0
M  V30 24648 O 2322.24 0.808452 -1.84461 0
M  V30 24649 C 2319.31 1.08093 -3.29419 0
M  V30 24650 C 2318.37 0.330502 -4.28026 0
M  V30 24651 C 2317.6 1.26376 -5.18522 0
M  V30 24652 O 2317.82 2.50189 -5.12603 0
M  V30 24653 O 2316.76 0.756761 -5.97124 0
M  V30 24654 H 2320.58 -0.632907 -2.97032 0
M  V30 24655 H 2318.17 -0.375319 -1.44609 0
M  V30 24656 H 2320.05 1.64513 -3.87961 0
M  V30 24657 H 2318.72 1.79573 -2.69324 0
M  V30 24658 H 2317.63 -0.276349 -3.73078 0
M  V30 24659 H 2318.96 -0.343952 -4.90997 0
M  V30 24660 N 2320.62 1.53557 -0.354678 0
M  V30 24661 C 2321.87 2.00273 0.239469 0
M  V30 24662 C 2322.18 1.24626 1.50757 0
M  V30 24663 O 2323.39 1.61875 2.17965 0
M  V30 24664 C 2321.84 3.56721 0.477279 0
M  V30 24665 C 2321.45 4.41236 -0.775566 0
M  V30 24666 C 2323.19 4.11823 1.02968 0
M  V30 24667 C 2321.1 5.89215 -0.507942 0
M  V30 24668 H 2320.03 0.74821 0.0932611 0
M  V30 24669 H 2322.68 1.77333 -0.471732 0
M  V30 24670 H 2321.06 3.75772 1.24946 0
M  V30 24671 H 2322.24 4.33959 -1.54971 0
M  V30 24672 H 2320.55 3.97183 -1.2504 0
M  V30 24673 H 2323.15 5.20003 1.24504 0
M  V30 24674 H 2323.49 3.65735 1.98856 0
M  V30 24675 H 2324.03 3.96528 0.317925 0
M  V30 24676 H 2320.76 6.39558 -1.43685 0
M  V30 24677 H 2320.28 5.99367 0.227906 0
M  V30 24678 H 2321.96 6.46871 -0.129352 0
M  V30 24679 N 2322.1 0.083568 1.57378 0
M  V30 24680 C 2323.01 -0.893982 2.16899 0
M  V30 24681 C 2324.02 -1.31859 1.13531 0
M  V30 24682 O 2325.2 -1.38887 1.4585 0
M  V30 24683 C 2322.26 -2.13921 2.72835 0
M  V30 24684 C 2321.32 -1.7699 3.91118 0
M  V30 24685 C 2320.56 -2.95576 4.44377 0
M  V30 24686 O 2320.78 -4.09954 3.96603 0
M  V30 24687 O 2319.71 -2.7471 5.35554 0
M  V30 24688 H 2323.54 -0.417626 3.00815 0
M  V30 24689 H 2321.12 -0.140155 1.48741 0
M  V30 24690 H 2323.01 -2.86919 3.08635 0
M  V30 24691 H 2321.68 -2.60631 1.91972 0
M  V30 24692 H 2320.59 -1.01208 3.6015 0
M  V30 24693 H 2321.92 -1.35052 4.73309 0
M  V30 24694 N 2323.57 -1.5645 -0.190064 0
M  V30 24695 C 2324.82 -1.80112 -0.907881 0
M  V30 24696 C 2325.14 -0.657651 -1.84213 0
M  V30 24697 O 2326.34 -0.778709 -2.60093 0
M  V30 24698 C 2324.8 -3.19081 -1.66479 0
M  V30 24699 C 2324.41 -4.41244 -0.775122 0
M  V30 24700 C 2326.15 -3.52049 -2.37195 0
M  V30 24701 C 2324.06 -5.71234 -1.53119 0
M  V30 24702 H 2322.99 -0.671595 -0.342748 0
M  V30 24703 H 2325.64 -1.82792 -0.161077 0
M  V30 24704 H 2324.02 -3.10665 -2.45567 0
M  V30 24705 H 2325.19 -4.60794 -0.0225488 0
M  V30 24706 H 2323.51 -4.16017 -0.178553 0
M  V30 24707 H 2326.11 -4.46407 -2.94321 0
M  V30 24708 H 2326.45 -2.76033 -3.11627 0
M  V30 24709 H 2326.98 -3.61935 -1.65069 0
M  V30 24710 H 2323.72 -6.5023 -0.829556 0
M  V30 24711 H 2323.24 -5.55692 -2.25757 0
M  V30 24712 H 2324.92 -6.1253 -2.08366 0
M  V30 24713 N 2325.05 0.45796 -1.50799 0
M  V30 24714 C 2326 1.57497 -1.71165 0
M  V30 24715 C 2326.99 1.59248 -0.57762 0
M  V30 24716 O 2328.2 1.6324 -0.758472 0
M  V30 24717 H 2324.57 0.522866 -0.540477 0
M  V30 24718 H 2326.55 1.37487 -2.64839 0
M  V30 24719 C 2325.29 2.95334 -1.83502 0
M  V30 24720 H 2324.62 2.94711 -2.70158 0
M  V30 24721 H 2326.06 3.72913 -2.01771 0
M  V30 24722 C 2324.52 3.31698 -0.589752 0
M  V30 24723 O 2325.05 4.00824 0.265093 0
M  V30 24724 N 2323.25 2.87251 -0.439896 0
M  V30 24725 H 2322.8 2.3117 -1.13659 0
M  V30 24726 H 2322.76 3.11945 0.392105 0
M  V30 24727 N 2326.53 1.40598 0.712035 0
M  V30 24728 C 2327.49 1.40891 1.80783 0
M  V30 24729 C 2328.49 0.30213 1.57936 0
M  V30 24730 O 2329.68 0.561211 1.64912 0
M  V30 24731 C 2326.81 1.20414 3.18925 0
M  V30 24732 H 2328.01 2.38422 1.8192 0
M  V30 24733 H 2325.56 1.26499 0.918028 0
M  V30 24734 H 2326.3 0.236579 3.23436 0
M  V30 24735 H 2326.08 2.00588 3.36908 0
M  V30 24736 H 2327.57 1.23415 3.98947 0
M  V30 24737 N 2328.01 -0.94462 1.26153 0
M  V30 24738 C 2328.97 -2.02438 1.07477 0
M  V30 24739 C 2329.97 -1.60782 0.0242347 0
M  V30 24740 O 2331.16 -1.72136 0.267333 0
M  V30 24741 C 2328.29 -3.34952 0.634015 0
M  V30 24742 H 2329.49 -2.20438 2.0334 0
M  V30 24743 H 2327.04 -1.1231 1.08702 0
M  V30 24744 H 2327.77 -3.2265 -0.326754 0
M  V30 24745 H 2327.56 -3.66539 1.39253 0
M  V30 24746 H 2329.05 -4.14286 0.525083 0
M  V30 24747 N 2329.49 -1.07901 -1.1487 0
M  V30 24748 C 2330.42 -0.725926 -2.21929 0
M  V30 24749 C 2331.4 0.289241 -1.67623 0
M  V30 24750 O 2332.58 0.160753 -1.93534 0
M  V30 24751 C 2329.71 -0.128917 -3.47061 0
M  V30 24752 C 2328.67 -1.07186 -4.14361 0
M  V30 24753 C 2327.99 -0.337322 -5.33635 0
M  V30 24754 C 2329.29 -2.40783 -4.63488 0
M  V30 24755 H 2330.99 -1.62102 -2.51721 0
M  V30 24756 H 2328.53 -0.780859 -1.2099 0
M  V30 24757 H 2330.48 0.130073 -4.21199 0
M  V30 24758 H 2329.21 0.801285 -3.16618 0
M  V30 24759 H 2327.87 -1.31586 -3.42171 0
M  V30 24760 H 2327.52 0.596518 -4.9945 0
M  V30 24761 H 2327.22 -0.96589 -5.79607 0
M  V30 24762 H 2328.74 -0.086264 -6.10539 0
M  V30 24763 H 2330.15 -2.20678 -5.29126 0
M  V30 24764 H 2328.55 -2.99285 -5.20143 0
M  V30 24765 H 2329.62 -3.02683 -3.78829 0
M  V30 24766 N 2330.96 1.31811 -0.863929 0
M  V30 24767 C 2332.37 1.79159 -0.525252 0
M  V30 24768 C 2332.73 1.7125 0.957488 0
M  V30 24769 O 2331.85 1.27662 1.74732 0
M  V30 24770 C 2332.45 3.25306 -0.946657 0
M  V30 24771 C 2331 3.70573 -0.659733 0
M  V30 24772 C 2330.15 2.52724 -1.14131 0
M  V30 24773 H 2333.1 1.18978 -1.05024 0
M  V30 24774 H 2333.12 3.79563 -0.266833 0
M  V30 24775 H 2332.64 3.3103 -2.02585 0
M  V30 24776 H 2330.74 3.70356 0.40835 0
M  V30 24777 H 2330.85 4.62975 -1.23253 0
M  V30 24778 H 2329.21 2.48439 -0.561259 0
M  V30 24779 H 2330 2.61198 -2.2278 0
M  V30 24780 N 2332.44 0.62277 1.44773 0
M  V30 24781 C 2333.69 0.121432 2.01334 0
M  V30 24782 C 2334 -1.26123 1.49507 0
M  V30 24783 O 2335.21 -1.85612 1.98142 0
M  V30 24784 C 2333.67 0.166362 3.59515 0
M  V30 24785 C 2333.27 1.54981 4.20339 0
M  V30 24786 C 2335.02 -0.278946 4.23583 0
M  V30 24787 C 2332.92 1.55031 5.70718 0
M  V30 24788 H 2331.85 0.0416304 0.75285 0
M  V30 24789 H 2334.51 0.780338 1.66081 0
M  V30 24790 H 2332.89 -0.559488 3.92028 0
M  V30 24791 H 2334.06 2.29858 3.99377 0
M  V30 24792 H 2332.38 1.93849 3.68526 0
M  V30 24793 H 2334.97 -0.29799 5.33869 0
M  V30 24794 H 2335.32 -1.30464 3.95329 0
M  V30 24795 H 2335.85 0.394132 3.95843 0
M  V30 24796 H 2332.59 2.55409 6.03694 0
M  V30 24797 H 2332.11 0.844349 5.93827 0
M  V30 24798 H 2333.79 1.28058 6.342 0
M  V30 24799 N 2333.92 -1.53367 0.362817 0
M  V30 24800 C 2334.87 -2.2716 -0.500115 0
M  V30 24801 C 2335.86 -1.30032 -1.08573 0
M  V30 24802 O 2337.07 -1.4767 -1.02925 0
M  V30 24803 H 2333.44 -0.730141 -0.179996 0
M  V30 24804 H 2335.41 -2.98052 0.144063 0
M  V30 24805 C 2334.16 -3.07162 -1.62931 0
M  V30 24806 H 2333.49 -3.81742 -1.18799 0
M  V30 24807 H 2334.93 -3.61979 -2.20788 0
M  V30 24808 C 2333.38 -2.17833 -2.57003 0
M  V30 24809 O 2333.91 -1.78727 -3.59749 0
M  V30 24810 N 2332.12 -1.82522 -2.26128 0
M  V30 24811 H 2331.67 -2.14522 -1.42612 0
M  V30 24812 H 2331.63 -1.23039 -2.89325 0
M  V30 24813 N 2335.4 -0.091913 -1.57332 0
M  V30 24814 C 2336.81 0.437707 -1.81497 0
M  V30 24815 C 2337.16 1.68368 -1.0073 0
M  V30 24816 O 2336.29 2.15112 -0.235732 0
M  V30 24817 C 2336.88 0.800881 -3.29198 0
M  V30 24818 C 2335.44 1.27526 -3.54138 0
M  V30 24819 C 2334.59 0.270344 -2.75979 0
M  V30 24820 H 2337.54 -0.317393 -1.55494 0
M  V30 24821 H 2337.56 1.66068 -3.42347 0
M  V30 24822 H 2337.07 -0.106146 -3.87955 0
M  V30 24823 H 2335.17 2.20011 -3.00709 0
M  V30 24824 H 2335.28 1.23929 -4.62794 0
M  V30 24825 H 2333.65 0.75183 -2.43351 0
M  V30 24826 H 2334.43 -0.629307 -3.37483 0
M  V30 24827 N 2336.88 1.56548 0.181765 0
M  V30 24828 C 2338.1 1.85523 0.915914 0
M  V30 24829 C 2338.52 0.676047 1.76281 0
M  V30 24830 O 2337.88 -0.355045 1.79013 0
M  V30 24831 C 2337.93 3.13431 1.80121 0
M  V30 24832 O 2337.65 4.26803 0.988487 0
M  V30 24833 C 2339.15 3.55678 2.64591 0
M  V30 24834 H 2336.37 0.615765 0.266599 0
M  V30 24835 H 2338.91 2.03661 0.185004 0
M  V30 24836 H 2337.07 2.97149 2.48558 0
M  V30 24837 H 2337.48 4.99724 1.59299 0
M  V30 24838 H 2338.96 4.48107 3.22342 0
M  V30 24839 H 2339.43 2.79298 3.38953 0
M  V30 24840 H 2340.04 3.74535 2.01503 0
M  V30 24841 N 2338.35 -0.449957 1.5104 0
M  V30 24842 C 2339.6 -1.19731 1.62319 0
M  V30 24843 C 2339.92 -1.92638 0.339135 0
M  V30 24844 O 2341.12 -2.69473 0.331116 0
M  V30 24845 C 2339.58 -2.17673 2.86612 0
M  V30 24846 C 2339.19 -1.50472 4.21974 0
M  V30 24847 C 2340.93 -2.92919 3.07244 0
M  V30 24848 C 2338.84 -2.46824 5.37431 0
M  V30 24849 H 2337.77 -0.450608 0.60454 0
M  V30 24850 H 2340.42 -0.465593 1.77495 0
M  V30 24851 H 2338.8 -2.94226 2.65042 0
M  V30 24852 H 2339.97 -0.795636 4.53879 0
M  V30 24853 H 2338.29 -0.874273 4.07118 0
M  V30 24854 H 2340.89 -3.65072 3.90675 0
M  V30 24855 H 2341.23 -3.53536 2.19813 0
M  V30 24856 H 2341.76 -2.23475 3.29095 0
M  V30 24857 H 2338.5 -1.90915 6.27082 0
M  V30 24858 H 2338.02 -3.15823 5.09918 0
M  V30 24859 H 2339.7 -3.08218 5.68868 0
M  V30 24860 N 2339.83 -1.40974 -0.704569 0
M  V30 24861 C 2341.08 -1.39148 -1.46016 0
M  V30 24862 C 2341.39 -0.000623636 -1.956 0
M  V30 24863 O 2342.6 0.140252 -2.71138 0
M  V30 24864 C 2341.06 -2.44615 -2.63992 0
M  V30 24865 C 2340.66 -3.89565 -2.21231 0
M  V30 24866 C 2342.41 -2.51913 -3.41673 0
M  V30 24867 C 2340.32 -4.86603 -3.36112 0
M  V30 24868 H 2339.25 -0.517431 -0.548435 0
M  V30 24869 H 2341.9 -1.66759 -0.765754 0
M  V30 24870 H 2340.28 -2.10121 -3.35656 0
M  V30 24871 H 2341.45 -4.3326 -1.56915 0
M  V30 24872 H 2339.77 -3.85844 -1.56567 0
M  V30 24873 H 2342.36 -3.21597 -4.27176 0
M  V30 24874 H 2342.71 -1.5531 -3.86244 0
M  V30 24875 H 2343.24 -2.85453 -2.77059 0
M  V30 24876 H 2339.98 -5.84578 -2.96562 0
M  V30 24877 H 2339.5 -4.47564 -3.99307 0
M  V30 24878 H 2341.18 -5.06941 -4.0202 0
M  V30 24879 N 2341.31 0.937917 -1.26653 0
M  V30 24880 C 2342.73 1.21203 -1.03836 0
M  V30 24881 C 2342.93 2.00131 0.234467 0
M  V30 24882 O 2341.98 2.34241 0.942726 0
M  V30 24883 C 2343.3 1.97013 -2.27171 0
M  V30 24884 C 2344.84 2.09992 -2.32105 0
M  V30 24885 C 2345.32 2.89204 -3.55141 0
M  V30 24886 N 2346.81 2.96776 -3.55638 0
M  V30 24887 C 2347.54 3.58505 -4.47506 0
M  V30 24888 N 2347.04 4.21707 -5.49668 0
M  V30 24889 N 2348.83 3.55809 -4.35151 0
M  V30 24890 H 2340.98 0.410354 -2.08398 0
M  V30 24891 H 2343.25 0.244098 -0.916035 0
M  V30 24892 H 2342.95 1.46428 -3.19768 0
M  V30 24893 H 2342.83 2.97667 -2.31677 0
M  V30 24894 H 2345.21 2.59766 -1.4002 0
M  V30 24895 H 2345.3 1.0859 -2.31607 0
M  V30 24896 H 2344.94 2.40115 -4.47557 0
M  V30 24897 H 2344.87 3.90869 -3.52887 0
M  V30 24898 H 2347.36 2.51847 -2.81747 0
M  V30 24899 H 2347.67 4.66716 -6.15951 0
M  V30 24900 H 2346.02 4.20284 -5.53522 0
M  V30 24901 H 2349.21 3.05628 -3.54555 0
M  V30 24902 H 2349.38 4.03627 -5.06941 0
M  V30 24903 N 2342.79 1.08509 1.14296 0
M  V30 24904 C 2344.04 0.810338 1.84706 0
M  V30 24905 C 2344.35 -0.666238 1.83904 0
M  V30 24906 O 2345.56 -1.05619 2.50114 0
M  V30 24907 C 2344.01 1.39963 3.31569 0
M  V30 24908 C 2343.62 2.90807 3.40786 0
M  V30 24909 C 2345.36 1.20342 4.07085 0
M  V30 24910 C 2343.27 3.42869 4.81866 0
M  V30 24911 H 2342.2 0.299466 0.69198 0
M  V30 24912 H 2344.85 1.30663 1.28838 0
M  V30 24913 H 2343.23 0.831045 3.87182 0
M  V30 24914 H 2344.41 3.53811 2.95219 0
M  V30 24915 H 2342.72 3.09355 2.78727 0
M  V30 24916 H 2345.32 1.56702 5.11223 0
M  V30 24917 H 2345.66 0.14331 4.16053 0
M  V30 24918 H 2346.2 1.739 3.57776 0
M  V30 24919 H 2342.94 4.48457 4.78086 0
M  V30 24920 H 2342.46 2.84624 5.27967 0
M  V30 24921 H 2344.13 3.39519 5.50759 0
M  V30 24922 N 2344.27 -1.31351 0.870907 0
M  V30 24923 C 2345.2 -2.26573 0.272023 0
M  V30 24924 C 2346.18 -1.5115 -0.599358 0
M  V30 24925 O 2347.36 -1.80219 -0.552574 0
M  V30 24926 C 2344.49 -3.33074 -0.614743 0
M  V30 24927 C 2343.53 -4.26097 0.185417 0
M  V30 24928 S 2344.37 -5.12135 1.56453 0
M  V30 24929 C 2345.52 -6.22152 0.683916 0
M  V30 24930 H 2345.76 -2.77021 1.07921 0
M  V30 24931 H 2343.29 -1.3913 0.669484 0
M  V30 24932 H 2345.25 -3.94907 -1.12067 0
M  V30 24933 H 2343.91 -2.81379 -1.39588 0
M  V30 24934 H 2343.1 -5.01606 -0.490683 0
M  V30 24935 H 2342.7 -3.68766 0.62348 0
M  V30 24936 H 2345 -6.77418 -0.105091 0
M  V30 24937 H 2345.94 -6.93916 1.41016 0
M  V30 24938 H 2346.35 -5.63941 0.251051 0
M  V30 24939 N 2345.74 -0.630439 -1.44441 0
M  V30 24940 C 2347.16 -0.296001 -1.56831 0
M  V30 24941 C 2347.36 1.20085 -1.61808 0
M  V30 24942 O 2346.42 1.98487 -1.56074 0
M  V30 24943 C 2347.73 -0.987314 -2.84029 0
M  V30 24944 C 2349.28 -0.965392 -2.9774 0
M  V30 24945 C 2349.75 -1.63716 -4.2774 0
M  V30 24946 N 2351.24 -1.60371 -4.34552 0
M  V30 24947 C 2351.98 -2.09244 -5.33858 0
M  V30 24948 N 2351.47 -2.66304 -6.39573 0
M  V30 24949 N 2353.27 -1.99877 -5.25363 0
M  V30 24950 H 2345.42 -1.60207 -1.39454 0
M  V30 24951 H 2347.68 -0.672443 -0.668225 0
M  V30 24952 H 2347.39 -2.0422 -2.86334 0
M  V30 24953 H 2347.26 -0.524654 -3.73533 0
M  V30 24954 H 2349.65 0.0810121 -2.94989 0
M  V30 24955 H 2349.73 -1.46654 -2.09586 0
M  V30 24956 H 2349.37 -2.68301 -4.31251 0
M  V30 24957 H 2349.3 -1.11085 -5.1475 0
M  V30 24958 H 2351.79 -1.18711 -3.5877 0
M  V30 24959 H 2352.11 -3.0133 -7.11632 0
M  V30 24960 H 2350.45 -2.70354 -6.40261 0
M  V30 24961 H 2353.64 -1.55021 -4.41686 0
M  V30 24962 H 2353.82 -2.38275 -6.02602 0
M  V30 24963 N 2347.22 1.53172 -0.370945 0
M  V30 24964 C 2348.47 2.01632 0.217388 0
M  V30 24965 C 2348.8 1.25759 1.47981 0
M  V30 24966 O 2348.08 0.352798 1.91274 0
M  V30 24967 C 2348.36 3.56557 0.503919 0
M  V30 24968 C 2348.21 4.43117 -0.772508 0
M  V30 24969 C 2349.53 4.20392 1.30226 0
M  V30 24970 H 2346.65 0.73291 0.0775357 0
M  V30 24971 H 2349.29 1.83387 -0.496895 0
M  V30 24972 H 2347.44 3.72233 1.11241 0
M  V30 24973 H 2349.11 4.39227 -1.40987 0
M  V30 24974 H 2347.36 4.10869 -1.39174 0
M  V30 24975 H 2348.03 5.49479 -0.526911 0
M  V30 24976 H 2350.5 4.08581 0.787474 0
M  V30 24977 H 2349.38 5.28808 1.47149 0
M  V30 24978 H 2349.64 3.76809 2.31231 0
M  V30 24979 N 2348.7 0.100255 1.57281 0
M  V30 24980 C 2349.63 -0.853819 2.1733 0
M  V30 24981 C 2350.61 -1.29058 1.10806 0
M  V30 24982 O 2351.8 -1.35655 1.38966 0
M  V30 24983 C 2348.93 -2.11104 2.75776 0
M  V30 24984 C 2347.88 -1.81273 3.87717 0
M  V30 24985 C 2347.21 -3.13867 4.32888 0
M  V30 24986 C 2348.51 -1.09565 5.10679 0
M  V30 24987 H 2350.2 -0.353493 2.97306 0
M  V30 24988 H 2347.75 -0.168587 1.4301 0
M  V30 24989 H 2349.7 -2.7829 3.16437 0
M  V30 24990 H 2348.42 -2.63429 1.93061 0
M  V30 24991 H 2347.08 -1.16483 3.47602 0
M  V30 24992 H 2346.73 -3.64089 3.47057 0
M  V30 24993 H 2346.43 -2.94687 5.08363 0
M  V30 24994 H 2347.95 -3.82202 4.76187 0
M  V30 24995 H 2349.37 -1.66869 5.48477 0
M  V30 24996 H 2347.77 -1.00546 5.91617 0
M  V30 24997 H 2348.84 -0.0792447 4.84835 0
M  V30 24998 N 2350.18 -1.56643 -0.17346 0
M  V30 24999 C 2351.6 -1.50713 -0.525148 0
M  V30 25000 C 2351.8 -0.804139 -1.84759 0
M  V30 25001 O 2350.85 -0.363618 -2.49868 0
M  V30 25002 C 2352.16 -2.95442 -0.559885 0
M  V30 25003 C 2353.71 -3.06235 -0.647234 0
M  V30 25004 C 2354.19 -4.52418 -0.712884 0
M  V30 25005 N 2355.68 -4.56656 -0.775831 0
M  V30 25006 C 2356.41 -5.67107 -0.847164 0
M  V30 25007 N 2355.91 -6.87195 -0.879464 0
M  V30 25008 N 2357.7 -5.55073 -0.88602 0
M  V30 25009 H 2349.85 -2.00752 0.693717 0
M  V30 25010 H 2352.12 -0.914481 0.249857 0
M  V30 25011 H 2351.82 -3.50022 0.34311 0
M  V30 25012 H 2351.7 -3.49971 -1.40712 0
M  V30 25013 H 2354.08 -2.5169 -1.54066 0
M  V30 25014 H 2354.16 -2.54794 0.226631 0
M  V30 25015 H 2353.81 -5.07594 0.176273 0
M  V30 25016 H 2353.74 -5.01613 -1.60286 0
M  V30 25017 H 2356.23 -3.70194 -0.759239 0
M  V30 25018 H 2356.54 -7.67123 -0.935009 0
M  V30 25019 H 2354.89 -6.8981 -0.847777 0
M  V30 25020 H 2358.08 -4.60174 -0.857772 0
M  V30 25021 H 2358.25 -6.41173 -0.93815 0
M  V30 25022 N 2351.66 0.44194 -1.51277 0
M  V30 25023 C 2352.91 1.18868 -1.62952 0
M  V30 25024 C 2353.22 1.92455 -0.349346 0
M  V30 25025 O 2354.43 2.69294 -0.345403 0
M  V30 25026 C 2352.88 2.1615 -2.87762 0
M  V30 25027 C 2352.49 1.48232 -4.22766 0
M  V30 25028 C 2354.23 2.91285 -3.08793 0
M  V30 25029 C 2352.14 2.43971 -5.38732 0
M  V30 25030 H 2351.07 0.447396 -0.606921 0
M  V30 25031 H 2353.72 0.456174 -1.77739 0
M  V30 25032 H 2352.1 2.92816 -2.66598 0
M  V30 25033 H 2353.28 0.771555 -4.54295 0
M  V30 25034 H 2351.59 0.85267 -4.07576 0
M  V30 25035 H 2354.19 3.62995 -3.92605 0
M  V30 25036 H 2354.53 3.52366 -2.21685 0
M  V30 25037 H 2355.07 2.21727 -3.30276 0
M  V30 25038 H 2351.8 1.87586 -6.28086 0
M  V30 25039 H 2351.32 3.13114 -5.11585 0
M  V30 25040 H 2353 3.05197 -5.70494 0
M  V30 25041 N 2353.14 1.41345 0.697083 0
M  V30 25042 C 2354.1 1.42801 1.79278 0
M  V30 25043 C 2355.1 0.318865 1.57607 0
M  V30 25044 O 2356.29 0.578671 1.64308 0
M  V30 25045 C 2353.42 1.2379 3.1763 0
M  V30 25046 H 2354.61 2.40338 1.79381 0
M  V30 25047 H 2352.17 1.27465 0.90456 0
M  V30 25048 H 2352.9 0.270871 3.23167 0
M  V30 25049 H 2352.69 2.0415 3.34761 0
M  V30 25050 H 2354.18 1.2764 3.97615 0
M  V30 25051 N 2354.61 -0.931187 1.27148 0
M  V30 25052 C 2356.03 -1.20651 1.04477 0
M  V30 25053 C 2356.23 -2.00253 -0.22385 0
M  V30 25054 O 2355.29 -2.34738 -0.93029 0
M  V30 25055 C 2356.6 -1.95805 2.28212 0
M  V30 25056 C 2358.15 -2.08758 2.33215 0
M  V30 25057 C 2358.62 -2.87316 3.5667 0
M  V30 25058 N 2360.11 -2.94886 3.57206 0
M  V30 25059 C 2360.85 -3.56126 4.49401 0
M  V30 25060 N 2360.34 -4.18786 5.51896 0
M  V30 25061 N 2362.14 -3.53496 4.37032 0
M  V30 25062 H 2354.29 -0.399296 2.08613 0
M  V30 25063 H 2356.55 -0.239237 0.917317 0
M  V30 25064 H 2356.26 -1.44731 3.2054 0
M  V30 25065 H 2356.13 -2.96434 2.33253 0
M  V30 25066 H 2358.52 -2.5902 1.41395 0
M  V30 25067 H 2358.6 -1.0736 2.3218 0
M  V30 25068 H 2358.24 -2.37738 4.48824 0
M  V30 25069 H 2358.17 -3.88992 3.54955 0
M  V30 25070 H 2360.66 -2.50349 2.83079 0
M  V30 25071 H 2360.98 -4.63443 6.18418 0
M  V30 25072 H 2359.32 -4.17343 5.55743 0
M  V30 25073 H 2362.51 -3.03743 3.56171 0
M  V30 25074 H 2362.69 -4.00933 5.09074 0
M  V30 25075 N 2356.09 -1.09114 -1.13719 0
M  V30 25076 C 2357.34 -0.826447 -1.85196 0
M  V30 25077 C 2357.67 0.646287 -1.8313 0
M  V30 25078 O 2356.95 1.47561 -1.26712 0
M  V30 25079 C 2357.23 -1.35818 -3.33505 0
M  V30 25080 C 2357.08 -2.89678 -3.44103 0
M  V30 25081 C 2358.4 -0.989332 -4.28836 0
M  V30 25082 H 2355.52 -0.301686 -0.672424 0
M  V30 25083 H 2358.16 -1.35199 -1.33496 0
M  V30 25084 H 2356.31 -0.911148 -3.77664 0
M  V30 25085 H 2357.98 -3.42806 -3.08678 0
M  V30 25086 H 2356.23 -3.26972 -2.85082 0
M  V30 25087 H 2356.9 -3.21959 -4.48382 0
M  V30 25088 H 2359.37 -1.37482 -3.92731 0
M  V30 25089 H 2358.25 -1.38848 -5.31049 0
M  V30 25090 H 2358.51 0.102846 -4.4198 0
M  V30 25091 N 2357.57 1.30887 -0.877861 0
M  V30 25092 C 2358.5 2.3078 -0.355381 0
M  V30 25093 C 2359.48 1.60688 0.557965 0
M  V30 25094 O 2360.67 1.88344 0.473322 0
M  V30 25095 C 2357.8 3.44538 0.437161 0
M  V30 25096 C 2356.75 4.26276 -0.38379 0
M  V30 25097 C 2356.08 5.32018 0.534921 0
M  V30 25098 C 2357.38 4.96473 -1.6221 0
M  V30 25099 H 2359.07 2.7473 -1.19012 0
M  V30 25100 H 2356.62 1.32077 -0.573722 0
M  V30 25101 H 2358.57 4.13478 0.813261 0
M  V30 25102 H 2357.29 2.99374 1.30548 0
M  V30 25103 H 2355.95 3.59014 -0.741938 0
M  V30 25104 H 2355.6 4.83103 1.40074 0
M  V30 25105 H 2355.3 5.87599 -0.0105244 0
M  V30 25106 H 2356.82 6.03816 0.907693 0
M  V30 25107 H 2358.24 5.57968 -1.31699 0
M  V30 25108 H 2356.63 5.61887 -2.10721 0
M  V30 25109 H 2357.7 4.23006 -2.37052 0
M  V30 25110 N 2359.05 0.638091 1.44105 0
M  V30 25111 C 2359.99 -0.0626605 2.30715 0
M  V30 25112 C 2360.96 -0.829858 1.43884 0
M  V30 25113 O 2362.15 -0.809502 1.72776 0
M  V30 25114 C 2359.29 -1.03352 3.2926 0
M  V30 25115 C 2358.4 -0.264015 4.31192 0
M  V30 25116 C 2357.54 -1.22732 5.16827 0
M  V30 25117 C 2356.58 -0.447368 6.10463 0
M  V30 25118 N 2355.71 -1.36149 6.88773 0
M  V30 25119 H 2360.55 0.681832 2.90095 0
M  V30 25120 H 2358.09 0.348013 1.42924 0
M  V30 25121 H 2360.05 -1.60986 3.84889 0
M  V30 25122 H 2358.68 -1.74506 2.71565 0
M  V30 25123 H 2357.73 0.428361 3.7798 0
M  V30 25124 H 2359.04 0.34314 4.97618 0
M  V30 25125 H 2358.2 -1.87477 5.77007 0
M  V30 25126 H 2356.94 -1.86839 4.50491 0
M  V30 25127 H 2355.94 0.213529 5.49385 0
M  V30 25128 H 2357.17 0.189087 6.78837 0
M  V30 25129 H 2355.11 -1.98964 6.25099 0
M  V30 25130 H 2355.03 -0.808524 7.51664 0
M  V30 25131 H 2356.3 -1.99756 7.53471 0
M  V30 25132 N 2360.53 -1.52973 0.379063 0
M  V30 25133 C 2361.46 -2.2907 -0.452665 0
M  V30 25134 C 2362.44 -1.32041 -1.07235 0
M  V30 25135 O 2363.62 -1.60925 -1.08705 0
M  V30 25136 C 2360.75 -3.08995 -1.58554 0
M  V30 25137 C 2359.71 -4.13824 -1.09243 0
M  V30 25138 C 2359.03 -4.81911 -2.31659 0
M  V30 25139 C 2360.33 -5.22031 -0.16761 0
M  V30 25140 H 2362.03 -2.98845 0.182233 0
M  V30 25141 H 2359.57 -1.43724 0.0890845 0
M  V30 25142 H 2361.52 -3.60983 -2.17414 0
M  V30 25143 H 2360.25 -2.36935 -2.24788 0
M  V30 25144 H 2358.91 -3.62801 -0.526431 0
M  V30 25145 H 2358.56 -4.06409 -2.96379 0
M  V30 25146 H 2358.26 -5.52758 -1.9933 0
M  V30 25147 H 2359.78 -5.367 -2.9118 0
M  V30 25148 H 2361.19 -5.69441 -0.664086 0
M  V30 25149 H 2359.59 -6.00064 0.065432 0
M  V30 25150 H 2360.66 -4.7848 0.786431 0
M  V30 25151 N 2362 -0.108595 -1.57225 0
M  V30 25152 C 2362.93 0.842282 -2.17779 0
M  V30 25153 C 2363.91 1.28469 -1.11489 0
M  V30 25154 O 2365.1 1.34916 -1.39683 0
M  V30 25155 C 2362.23 2.09639 -2.76891 0
M  V30 25156 C 2361.18 1.79214 -3.88673 0
M  V30 25157 C 2360.51 3.11567 -4.34546 0
M  V30 25158 C 2361.81 1.06855 -5.11253 0
M  V30 25159 H 2363.5 0.337721 -2.97489 0
M  V30 25160 H 2361.05 0.161 -1.43097 0
M  V30 25161 H 2363 2.76608 -3.17909 0
M  V30 25162 H 2361.73 2.62401 -1.94456 0
M  V30 25163 H 2360.39 1.14638 -3.48215 0
M  V30 25164 H 2360.03 3.62243 -3.48983 0
M  V30 25165 H 2359.73 2.91987 -5.09919 0
M  V30 25166 H 2361.26 3.79672 -4.78207 0
M  V30 25167 H 2362.67 1.63958 -5.49355 0
M  V30 25168 H 2361.07 0.974074 -5.92142 0
M  V30 25169 H 2362.14 0.0535316 -4.8487 0
M  V30 25170 N 2363.48 1.56732 0.16515 0
M  V30 25171 C 2364.43 1.96885 1.20436 0
M  V30 25172 C 2365.4 0.833683 1.43663 0
M  V30 25173 O 2366.58 1.0943 1.563 0
M  V30 25174 C 2363.72 2.33921 2.53723 0
M  V30 25175 C 2362.84 3.60644 2.37823 0
M  V30 25176 C 2361.97 3.86864 3.64019 0
M  V30 25177 C 2361.01 5.06915 3.43079 0
M  V30 25178 N 2360.15 5.29237 4.6136 0
M  V30 25179 H 2364.99 2.85473 0.854946 0
M  V30 25180 H 2362.52 1.41249 0.410735 0
M  V30 25181 H 2364.48 2.53417 3.31415 0
M  V30 25182 H 2363.11 1.48436 2.86647 0
M  V30 25183 H 2362.16 3.49027 1.51276 0
M  V30 25184 H 2363.48 4.48494 2.183 0
M  V30 25185 H 2362.63 4.06761 4.50145 0
M  V30 25186 H 2361.37 2.97401 3.86528 0
M  V30 25187 H 2360.37 4.8691 2.5534 0
M  V30 25188 H 2361.6 5.97914 3.21986 0
M  V30 25189 H 2359.55 4.42726 4.84076 0
M  V30 25190 H 2359.46 6.11321 4.44772 0
M  V30 25191 H 2360.73 5.53618 5.48751 0
M  V30 25192 N 2364.96 -0.433911 1.51509 0
M  V30 25193 C 2365.89 -1.54701 1.67758 0
M  V30 25194 C 2366.87 -1.53886 0.525154 0
M  V30 25195 O 2368.05 -1.72962 0.749423 0
M  V30 25196 C 2365.18 -2.93277 1.69429 0
M  V30 25197 C 2364.23 -3.12103 2.90678 0
M  V30 25198 S 2365.06 -2.88038 4.51436 0
M  V30 25199 C 2366.22 -4.28889 4.55856 0
M  V30 25200 H 2366.45 -1.40684 2.61907 0
M  V30 25201 H 2363.98 -0.623835 1.41236 0
M  V30 25202 H 2365.94 -3.73153 1.71077 0
M  V30 25203 H 2364.6 -3.04654 0.764517 0
M  V30 25204 H 2363.8 -4.13429 2.88258 0
M  V30 25205 H 2363.4 -2.40057 2.8679 0
M  V30 25206 H 2365.69 -5.22144 4.31708 0
M  V30 25207 H 2366.63 -4.36342 5.57684 0
M  V30 25208 H 2367.04 -4.12704 3.85144 0
M  V30 25209 N 2366.44 -1.41713 -0.689577 0
M  V30 25210 C 2367.4 -1.43749 -1.78518 0
M  V30 25211 C 2368.4 -0.327218 -1.57435 0
M  V30 25212 O 2369.59 -0.587377 -1.63999 0
M  V30 25213 C 2366.72 -1.25473 -3.16969 0
M  V30 25214 H 2367.92 -2.41286 -1.78104 0
M  V30 25215 H 2365.47 -1.27943 -0.897787 0
M  V30 25216 H 2366.2 -0.288005 -3.23019 0
M  V30 25217 H 2365.99 -2.05923 -3.33674 0
M  V30 25218 H 2367.48 -1.29747 -3.96933 0
M  V30 25219 N 2367.92 0.924431 -1.2764 0
M  V30 25220 C 2369.14 1.70647 -1.16992 0
M  V30 25221 C 2369.56 1.86818 0.272836 0
M  V30 25222 O 2368.92 1.38755 1.18546 0
M  V30 25223 C 2368.97 3.10436 -1.85234 0
M  V30 25224 O 2368.69 2.95022 -3.23873 0
M  V30 25225 C 2370.19 4.04776 -1.80753 0
M  V30 25226 H 2367.41 0.533773 -0.406604 0
M  V30 25227 H 2369.95 1.15775 -1.68571 0
M  V30 25228 H 2368.11 3.62158 -1.37551 0
M  V30 25229 H 2368.52 3.8342 -3.57896 0
M  V30 25230 H 2370 5.00364 -2.3311 0
M  V30 25231 H 2370.47 4.32262 -0.777575 0
M  V30 25232 H 2371.08 3.5898 -2.28065 0
M  V30 25233 N 2369.39 1.09715 1.13139 0
M  V30 25234 C 2370.64 0.83337 1.84118 0
M  V30 25235 C 2370.96 -0.642871 1.84098 0
M  V30 25236 O 2370.23 -1.46653 1.29884 0
M  V30 25237 H 2368.81 0.305305 0.681761 0
M  V30 25238 H 2371.48 1.3859 1.37036 0
M  V30 25239 H 2370.57 1.18956 2.88541 0
M  V30 25240 N 2370.87 -1.30419 0.88479 0
M  V30 25241 C 2371.81 -2.26272 0.296039 0
M  V30 25242 C 2372.78 -1.51778 -0.583293 0
M  V30 25243 O 2373.97 -1.80795 -0.533428 0
M  V30 25244 C 2371.09 -3.33708 -0.579381 0
M  V30 25245 C 2370.14 -4.25876 0.2306 0
M  V30 25246 S 2370.97 -5.10447 1.61876 0
M  V30 25247 C 2372.13 -6.21392 0.749865 0
M  V30 25248 H 2372.36 -2.7586 1.10853 0
M  V30 25249 H 2369.9 -1.38413 0.684203 0
M  V30 25250 H 2371.85 -3.96073 -1.07873 0
M  V30 25251 H 2370.51 -2.82843 -1.36596 0
M  V30 25252 H 2369.71 -5.02098 -0.437453 0
M  V30 25253 H 2369.31 -3.68084 0.662557 0
M  V30 25254 H 2371.6 -6.77492 -0.0332357 0
M  V30 25255 H 2372.54 -6.92382 1.48368 0
M  V30 25256 H 2372.95 -5.63643 0.31085 0
M  V30 25257 N 2372.35 -0.645724 -1.43764 0
M  V30 25258 C 2373.77 -0.312618 -1.56508 0
M  V30 25259 C 2373.97 1.18362 -1.63072 0
M  V30 25260 O 2373.02 1.96821 -1.5817 0
M  V30 25261 C 2374.34 -1.01738 -2.82966 0
M  V30 25262 C 2375.88 -0.996917 -2.96699 0
M  V30 25263 C 2376.36 -1.68243 -4.25979 0
M  V30 25264 N 2377.85 -1.64971 -4.32826 0
M  V30 25265 C 2378.58 -2.14894 -5.31609 0
M  V30 25266 N 2378.08 -2.73072 -6.36713 0
M  V30 25267 N 2379.87 -2.05437 -5.23213 0
M  V30 25268 H 2372.02 -1.61677 -1.37747 0
M  V30 25269 H 2374.29 -0.679492 -0.661055 0
M  V30 25270 H 2373.99 -2.07245 -2.84152 0
M  V30 25271 H 2373.87 -0.564243 -3.72956 0
M  V30 25272 H 2376.25 0.04972 -2.95058 0
M  V30 25273 H 2376.34 -1.48868 -2.08019 0
M  V30 25274 H 2375.98 -2.7286 -4.28381 0
M  V30 25275 H 2375.91 -1.16538 -5.13543 0
M  V30 25276 H 2378.4 -1.2251 -3.57491 0
M  V30 25277 H 2378.71 -3.08861 -7.08396 0
M  V30 25278 H 2377.06 -2.7713 -6.37357 0
M  V30 25279 H 2380.25 -1.59697 -4.40016 0
M  V30 25280 H 2380.42 -2.44653 -6.00041 0
M  V30 25281 N 2373.83 1.5277 -0.38717 0
M  V30 25282 C 2374.79 2.24997 0.436899 0
M  V30 25283 C 2375.79 1.26557 0.991969 0
M  V30 25284 O 2376.98 1.5067 0.874308 0
M  V30 25285 C 2374.11 3.00338 1.61276 0
M  V30 25286 H 2375.31 2.99263 -0.195417 0
M  V30 25287 H 2372.86 1.55679 -0.139246 0
M  V30 25288 H 2373.59 2.30368 2.28256 0
M  V30 25289 H 2373.38 3.72589 1.22147 0
M  V30 25290 H 2374.87 3.55184 2.19623 0
M  V30 25291 N 2375.31 0.116931 1.57166 0
M  V30 25292 C 2376.24 -0.83072 2.18223 0
M  V30 25293 C 2377.22 -1.27875 1.12169 0
M  V30 25294 O 2378.4 -1.34173 1.40396 0
M  V30 25295 C 2375.53 -2.08168 2.77999 0
M  V30 25296 C 2374.49 -1.7715 3.89618 0
M  V30 25297 C 2373.81 -3.09258 4.36192 0
M  V30 25298 C 2375.11 -1.04142 5.11812 0
M  V30 25299 H 2376.81 -0.32194 2.97664 0
M  V30 25300 H 2374.35 -0.153409 1.43181 0
M  V30 25301 H 2376.31 -2.74918 3.19371 0
M  V30 25302 H 2375.03 -2.61366 1.95845 0
M  V30 25303 H 2373.69 -1.1279 3.48818 0
M  V30 25304 H 2373.34 -3.60387 3.50899 0
M  V30 25305 H 2373.04 -2.89279 5.1146 0
M  V30 25306 H 2374.56 -3.7713 4.80214 0
M  V30 25307 H 2375.97 -1.61043 5.50216 0
M  V30 25308 H 2374.37 -0.942657 5.9265 0
M  V30 25309 H 2375.44 -0.027817 4.84892 0
M  V30 25310 N 2376.78 -1.56818 -0.156836 0
M  V30 25311 C 2377.71 -2.00553 -1.19586 0
M  V30 25312 C 2378.7 -0.883452 -1.45359 0
M  V30 25313 O 2379.88 -1.15057 -1.56447 0
M  V30 25314 C 2377.01 -2.37777 -2.53139 0
M  V30 25315 C 2375.96 -3.53079 -2.41907 0
M  V30 25316 C 2375.29 -3.76088 -3.80082 0
M  V30 25317 C 2376.59 -4.86065 -1.91149 0
M  V30 25318 H 2378.28 -2.87601 -0.832243 0
M  V30 25319 H 2375.83 -1.38365 -0.398894 0
M  V30 25320 H 2377.78 -2.66972 -3.26042 0
M  V30 25321 H 2376.51 -1.47655 -2.91317 0
M  V30 25322 H 2375.17 -3.24034 -1.71457 0
M  V30 25323 H 2374.81 -2.83233 -4.15678 0
M  V30 25324 H 2374.51 -4.53677 -3.73431 0
M  V30 25325 H 2376.04 -4.07698 -4.54549 0
M  V30 25326 H 2377.45 -5.14042 -2.53837 0
M  V30 25327 H 2375.85 -5.67392 -1.95412 0
M  V30 25328 H 2376.92 -4.77094 -0.866589 0
M  V30 25329 N 2378.26 0.425871 -1.51737 0
M  V30 25330 C 2379.54 1.18627 -1.55522 0
M  V30 25331 C 2379.92 2.08564 -0.326256 0
M  V30 25332 O 2379.27 2.17897 0.687974 0
M  V30 25333 C 2379.48 1.97815 -2.87524 0
M  V30 25334 C 2380.83 2.54462 -3.39903 0
M  V30 25335 O 2381.85 2.08014 -2.89152 0
M  V30 25336 O 2380.71 3.39208 -4.28486 0
M  V30 25337 H 2377.8 0.54071 -0.625749 0
M  V30 25338 H 2380.35 0.434009 -1.64056 0
M  V30 25339 H 2379.12 1.3183 -3.68425 0
M  V30 25340 H 2378.74 2.80083 -2.82205 0
M  V30 25341 N 2379.74 1.42077 0.682052 0
M  V30 25342 C 2380.97 1.45542 1.47055 0
M  V30 25343 C 2381.38 0.064611 1.88689 0
M  V30 25344 O 2380.74 -0.919087 1.57668 0
M  V30 25345 C 2380.79 2.37613 2.72437 0
M  V30 25346 O 2380.51 3.71283 2.32552 0
M  V30 25347 C 2382.01 2.50024 3.66064 0
M  V30 25348 H 2379.23 0.495255 0.452728 0
M  V30 25349 H 2381.78 1.86512 0.838662 0
M  V30 25350 H 2379.93 1.99916 3.31832 0
M  V30 25351 H 2380.35 4.20521 3.13468 0
M  V30 25352 H 2381.82 3.18584 4.50786 0
M  V30 25353 H 2382.3 1.53579 4.11473 0
M  V30 25354 H 2382.9 2.88413 3.12567 0
M  V30 25355 N 2381.22 -0.917649 1.28129 0
M  V30 25356 C 2382.47 -1.66886 1.15226 0
M  V30 25357 C 2382.8 -1.9188 -0.299259 0
M  V30 25358 O 2382.07 -1.51639 -1.21803 0
M  V30 25359 C 2382.36 -3.02919 1.94711 0
M  V30 25360 C 2382.21 -2.85102 3.47903 0
M  V30 25361 C 2383.53 -4.03399 1.75946 0
M  V30 25362 H 2380.65 -0.605645 0.419956 0
M  V30 25363 H 2383.29 -1.0642 1.574 0
M  V30 25364 H 2381.44 -3.54531 1.58871 0
M  V30 25365 H 2383.11 -2.4053 3.93628 0
M  V30 25366 H 2381.35 -2.2024 3.73734 0
M  V30 25367 H 2382.03 -3.81687 3.98772 0
M  V30 25368 H 2384.5 -3.60834 2.07216 0
M  V30 25369 H 2383.38 -4.96552 2.3394 0
M  V30 25370 H 2383.64 -4.36362 0.709953 0
M  V30 25371 N 2382.7 -1.10314 -1.12555 0
M  V30 25372 C 2383.94 -0.846043 -1.84309 0
M  V30 25373 C 2384.28 0.626827 -1.83806 0
M  V30 25374 O 2383.55 1.46209 -1.2827 0
M  V30 25375 C 2383.83 -1.39347 -3.32046 0
M  V30 25376 C 2383.69 -2.93311 -3.41011 0
M  V30 25377 C 2385.01 -1.03476 -4.27762 0
M  V30 25378 H 2382.13 -0.308801 -0.669187 0
M  V30 25379 H 2384.77 -1.36607 -1.32055 0
M  V30 25380 H 2382.92 -0.951153 -3.76677 0
M  V30 25381 H 2384.59 -3.4606 -3.05025 0
M  V30 25382 H 2382.83 -3.29978 -2.81598 0
M  V30 25383 H 2383.5 -3.26696 -4.44942 0
M  V30 25384 H 2385.98 -1.4164 -3.91251 0
M  V30 25385 H 2384.86 -1.44472 -5.29546 0
M  V30 25386 H 2385.12 0.0559627 -4.42065 0
M  V30 25387 N 2384.18 1.29948 -0.891694 0
M  V30 25388 C 2385.11 2.26945 -0.320735 0
M  V30 25389 C 2386.12 1.53984 0.52847 0
M  V30 25390 O 2387.31 1.75096 0.346928 0
M  V30 25391 C 2384.41 3.34208 0.562007 0
M  V30 25392 C 2383.58 4.36629 -0.259652 0
M  V30 25393 C 2382.64 5.23269 0.554648 0
M  V30 25394 O 2381.67 5.69194 -0.0250312 0
M  V30 25395 N 2382.87 5.49814 1.8624 0
M  V30 25396 H 2385.63 2.76576 -1.15437 0
M  V30 25397 H 2383.2 1.43199 -0.755361 0
M  V30 25398 H 2385.19 3.89095 1.11297 0
M  V30 25399 H 2383.76 2.84454 1.29632 0
M  V30 25400 H 2382.98 3.81513 -0.992053 0
M  V30 25401 H 2384.27 5.02105 -0.822652 0
M  V30 25402 H 2383.66 5.14296 2.35619 0
M  V30 25403 H 2382.22 6.07549 2.36067 0
M  V30 25404 N 2385.65 0.653339 1.4342 0
M  V30 25405 C 2386.62 -0.0287548 2.29182 0
M  V30 25406 C 2387.62 -0.75044 1.42215 0
M  V30 25407 O 2388.81 -0.591672 1.63844 0
M  V30 25408 C 2385.94 -1.05145 3.2428 0
M  V30 25409 H 2387.13 0.725838 2.90984 0
M  V30 25410 H 2384.68 0.414572 1.50702 0
M  V30 25411 H 2385.42 -1.83527 2.67373 0
M  V30 25412 H 2385.2 -0.537619 3.88397 0
M  V30 25413 H 2386.69 -1.52779 3.88649 0
M  V30 25414 N 2387.13 -1.52563 0.395266 0
M  V30 25415 C 2388.06 -2.29538 -0.428344 0
M  V30 25416 C 2389.04 -1.33171 -1.05828 0
M  V30 25417 O 2390.23 -1.62069 -1.06992 0
M  V30 25418 C 2387.36 -3.10659 -1.55268 0
M  V30 25419 C 2386.31 -4.14959 -1.04848 0
M  V30 25420 C 2385.64 -4.84341 -2.26535 0
M  V30 25421 C 2386.94 -5.22179 -0.112232 0
M  V30 25422 H 2388.63 -2.98635 0.213919 0
M  V30 25423 H 2386.18 -1.43622 0.104323 0
M  V30 25424 H 2388.13 -3.63269 -2.13573 0
M  V30 25425 H 2386.85 -2.39306 -2.22262 0
M  V30 25426 H 2385.51 -3.63339 -0.487921 0
M  V30 25427 H 2385.16 -4.0953 -2.92052 0
M  V30 25428 H 2384.86 -5.54841 -1.93457 0
M  V30 25429 H 2386.39 -5.39758 -2.85471 0
M  V30 25430 H 2387.8 -5.70113 -0.603652 0
M  V30 25431 H 2386.2 -5.99961 0.129073 0
M  V30 25432 H 2387.27 -4.77619 0.837136 0
M  V30 25433 N 2388.61 -0.125265 -1.57101 0
M  V30 25434 C 2390.02 0.39911 -1.82384 0
M  V30 25435 C 2390.37 1.66194 -1.04279 0
M  V30 25436 O 2389.5 2.14564 -0.281307 0
M  V30 25437 C 2390.09 0.730873 -3.30823 0
M  V30 25438 C 2388.65 1.19986 -3.56764 0
M  V30 25439 C 2387.8 0.211744 -2.7649 0
M  V30 25440 H 2390.75 -0.350304 -1.54786 0
M  V30 25441 H 2390.77 1.58769 -3.45793 0
M  V30 25442 H 2390.28 -0.188413 -3.87642 0
M  V30 25443 H 2388.38 2.13583 -3.05308 0
M  V30 25444 H 2388.5 1.14085 -4.65319 0
M  V30 25445 H 2386.86 0.700042 -2.44891 0
M  V30 25446 H 2387.64 -0.70075 -3.36072 0
M  V30 25447 N 2390.09 1.56899 0.148518 0
M  V30 25448 C 2391.02 1.94752 1.20849 0
M  V30 25449 C 2392.03 0.843176 1.39264 0
M  V30 25450 O 2393.22 1.12159 1.38862 0
M  V30 25451 C 2390.32 2.205 2.57358 0
M  V30 25452 C 2389.49 3.51781 2.59941 0
M  V30 25453 C 2388.55 3.66087 3.77977 0
M  V30 25454 O 2387.58 4.38494 3.62921 0
M  V30 25455 N 2388.78 3.02637 4.95369 0
M  V30 25456 H 2391.55 2.86281 0.886754 0
M  V30 25457 H 2389.11 1.5833 0.338094 0
M  V30 25458 H 2391.1 2.27313 3.34829 0
M  V30 25459 H 2389.67 1.35243 2.8183 0
M  V30 25460 H 2388.89 3.56422 1.68396 0
M  V30 25461 H 2390.18 4.38125 2.58696 0
M  V30 25462 H 2389.58 2.43724 5.10505 0
M  V30 25463 H 2388.13 3.15014 5.70622 0
M  V30 25464 N 2391.57 -0.417818 1.51961 0
M  V30 25465 C 2392.81 -1.16729 1.65838 0
M  V30 25466 C 2393.14 -1.90388 0.382914 0
M  V30 25467 O 2392.42 -1.8441 -0.618335 0
M  V30 25468 C 2392.7 -2.16871 2.8747 0
M  V30 25469 C 2392.56 -1.47167 4.25043 0
M  V30 25470 C 2393.87 -3.1764 3.04619 0
M  V30 25471 H 2390.99 -0.423001 0.603522 0
M  V30 25472 H 2393.64 -0.454072 1.84494 0
M  V30 25473 H 2391.79 -2.77695 2.71694 0
M  V30 25474 H 2393.46 -0.895297 4.52529 0
M  V30 25475 H 2391.7 -0.773731 4.26844 0
M  V30 25476 H 2392.37 -2.20195 5.0618 0
M  V30 25477 H 2394.85 -2.66886 3.19235 0
M  V30 25478 H 2393.72 -3.84983 3.91253 0
M  V30 25479 H 2393.98 -3.84871 2.17548 0
M  V30 25480 N 2393.04 -1.42436 -0.674508 0
M  V30 25481 C 2394.29 -1.42639 -1.43173 0
M  V30 25482 C 2394.61 -0.0439335 -1.94951 0
M  V30 25483 O 2393.88 0.917577 -1.73082 0
M  V30 25484 H 2392.46 -0.525101 -0.531298 0
M  V30 25485 H 2395.12 -1.7786 -0.796975 0
M  V30 25486 H 2394.22 -2.12633 -2.2846 0
M  V30 25487 N 2394.52 0.910841 -1.28614 0
M  V30 25488 C 2395.47 2.03499 -1.12653 0
M  V30 25489 C 2396.46 1.6934 -0.0450352 0
M  V30 25490 O 2397.67 1.7884 -0.204019 0
M  V30 25491 H 2394.04 0.666816 -0.34765 0
M  V30 25492 H 2396.02 2.14102 -2.07853 0
M  V30 25493 C 2394.76 3.38177 -0.808203 0
M  V30 25494 H 2394.09 3.64957 -1.63237 0
M  V30 25495 H 2395.53 4.17554 -0.736499 0
M  V30 25496 C 2393.99 3.33344 0.488168 0
M  V30 25497 O 2394.52 3.7193 1.5176 0
M  V30 25498 N 2392.72 2.8644 0.489959 0
M  V30 25499 H 2392.27 2.55236 -0.348206 0
M  V30 25500 H 2392.23 2.83589 1.35736 0
M  V30 25501 N 2396 1.10909 1.11969 0
M  V30 25502 C 2396.93 0.784511 2.19927 0
M  V30 25503 C 2397.91 -0.244697 1.68331 0
M  V30 25504 O 2399.1 -0.109384 1.93892 0
M  V30 25505 C 2396.23 0.220888 3.46597 0
M  V30 25506 C 2395.18 1.18134 4.11374 0
M  V30 25507 C 2394.51 0.478688 5.32553 0
M  V30 25508 C 2395.81 2.52987 4.56941 0
M  V30 25509 H 2397.5 1.68719 2.47334 0
M  V30 25510 H 2395.05 0.812663 1.18877 0
M  V30 25511 H 2397 -0.0183538 4.21396 0
M  V30 25512 H 2395.72 -0.717057 3.18631 0
M  V30 25513 H 2394.38 1.40612 3.38561 0
M  V30 25514 H 2394.03 -0.463888 5.00856 0
M  V30 25515 H 2393.73 1.11922 5.76842 0
M  V30 25516 H 2395.25 0.248107 6.10096 0
M  V30 25517 H 2396.67 2.3463 5.23089 0
M  V30 25518 H 2395.07 3.12971 5.12025 0
M  V30 25519 H 2396.14 3.1262 3.70671 0
M  V30 25520 N 2397.48 -1.29474 0.898573 0
M  V30 25521 C 2398.73 -1.95219 0.522881 0
M  V30 25522 C 2399.05 -1.71194 -0.93368 0
M  V30 25523 O 2398.32 -1.04308 -1.65821 0
M  V30 25524 H 2396.9 -0.722333 0.190379 0
M  V30 25525 H 2399.56 -1.57748 1.14462 0
M  V30 25526 H 2398.66 -3.04044 0.704529 0
M  V30 25527 N 2398.96 -0.660936 -1.43071 0
M  V30 25528 C 2399.89 0.0122419 -2.33497 0
M  V30 25529 C 2400.87 0.803899 -1.49905 0
M  V30 25530 O 2402.05 0.763833 -1.78548 0
M  V30 25531 C 2399.18 0.973936 -3.33364 0
M  V30 25532 C 2398.14 0.291852 -4.27004 0
M  V30 25533 C 2397.46 1.36553 -5.16969 0
M  V30 25534 C 2398.76 -0.820552 -5.15814 0
M  V30 25535 H 2400.46 -0.742924 -2.90036 0
M  V30 25536 H 2398 -0.358713 -1.39461 0
M  V30 25537 H 2399.96 1.45385 -3.95527 0
M  V30 25538 H 2398.68 1.76036 -2.75098 0
M  V30 25539 H 2397.34 -0.167687 -3.66216 0
M  V30 25540 H 2396.99 2.14358 -4.55038 0
M  V30 25541 H 2396.69 0.914352 -5.80442 0
M  V30 25542 H 2398.21 1.84665 -5.82006 0
M  V30 25543 H 2399.62 -0.422467 -5.71741 0
M  V30 25544 H 2398.02 -1.19667 -5.88048 0
M  V30 25545 H 2399.09 -1.67526 -4.55042 0
M  V30 25546 N 2400.43 1.52351 -0.403352 0
M  V30 25547 C 2401.36 2.29761 0.416165 0
M  V30 25548 C 2402.35 1.3373 1.0512 0
M  V30 25549 O 2403.53 1.62634 1.06131 0
M  V30 25550 C 2400.66 3.11478 1.53619 0
M  V30 25551 C 2399.61 4.15509 1.02645 0
M  V30 25552 C 2398.94 4.85535 2.23963 0
M  V30 25553 C 2400.24 5.22232 0.0845382 0
M  V30 25554 H 2401.93 2.98517 -0.229754 0
M  V30 25555 H 2399.48 1.43564 -0.111938 0
M  V30 25556 H 2401.43 3.64397 2.11644 0
M  V30 25557 H 2400.16 2.40481 2.2099 0
M  V30 25558 H 2398.82 3.63592 0.468646 0
M  V30 25559 H 2398.46 4.11073 2.89876 0
M  V30 25560 H 2398.16 5.55859 1.90511 0
M  V30 25561 H 2399.69 5.41264 2.82605 0
M  V30 25562 H 2401.1 5.70425 0.573409 0
M  V30 25563 H 2399.5 5.99884 -0.160889 0
M  V30 25564 H 2400.57 4.77168 -0.862454 0
M  V30 25565 N 2401.91 0.133594 1.57033 0
M  V30 25566 C 2403.16 -0.520843 1.95687 0
M  V30 25567 C 2403.49 -1.65748 1.01773 0
M  V30 25568 O 2402.74 -1.9565 0.0443539 0
M  V30 25569 C 2403.04 -1.08051 3.40676 0
M  V30 25570 C 2402.71 -0.0637107 4.50855 0
M  V30 25571 C 2401.37 0.215841 4.80716 0
M  V30 25572 C 2403.72 0.628441 5.17397 0
M  V30 25573 C 2401.05 1.19358 5.74431 0
M  V30 25574 C 2403.4 1.59491 6.12165 0
M  V30 25575 C 2402.07 1.8823 6.40411 0
M  V30 25576 H 2401.34 -0.19059 0.71607 0
M  V30 25577 H 2403.98 0.21759 1.9026 0
M  V30 25578 H 2402.29 -1.896 3.42869 0
M  V30 25579 H 2403.98 -1.59522 3.67904 0
M  V30 25580 H 2400.57 -0.29178 4.27606 0
M  V30 25581 H 2404.76 0.425649 4.94471 0
M  V30 25582 H 2400.01 1.42283 5.94614 0
M  V30 25583 H 2404.19 2.13683 6.62807 0
M  V30 25584 H 2401.82 2.64145 7.12833 0
M  V30 25585 N 2403.39 -1.56975 -0.140195 0
M  V30 25586 C 2404.32 -1.93938 -1.20263 0
M  V30 25587 C 2405.3 -0.806124 -1.4121 0
M  V30 25588 O 2406.49 -1.06236 -1.55712 0
M  V30 25589 C 2403.61 -2.21731 -2.56034 0
M  V30 25590 C 2402.66 -3.44354 -2.5164 0
M  V30 25591 S 2403.49 -4.97682 -1.9767 0
M  V30 25592 C 2404.65 -5.28603 -3.35156 0
M  V30 25593 H 2404.88 -2.8375 -0.887308 0
M  V30 25594 H 2402.41 -1.50471 -0.346092 0
M  V30 25595 H 2404.37 -2.38422 -3.34163 0
M  V30 25596 H 2403.03 -1.32571 -2.84752 0
M  V30 25597 H 2402.23 -3.61099 -3.51602 0
M  V30 25598 H 2401.83 -3.26939 -1.81622 0
M  V30 25599 H 2404.12 -5.22487 -4.31293 0
M  V30 25600 H 2405.06 -6.30008 -3.23258 0
M  V30 25601 H 2405.47 -4.56107 -3.32606 0
M  V30 25602 N 2404.87 0.409753 -1.5218 0
M  V30 25603 C 2405.8 1.50606 -1.78438 0
M  V30 25604 C 2406.78 1.5779 -0.635323 0
M  V30 25605 O 2407.96 1.73074 -0.880853 0
M  V30 25606 C 2405.09 2.88435 -1.93449 0
M  V30 25607 C 2404.05 2.96102 -3.09043 0
M  V30 25608 C 2403.37 4.36179 -3.09276 0
M  V30 25609 C 2404.67 2.67645 -4.48513 0
M  V30 25610 H 2406.37 1.28884 -2.70239 0
M  V30 25611 H 2403.91 0.618582 -1.30037 0
M  V30 25612 H 2405.87 3.65116 -2.10401 0
M  V30 25613 H 2404.59 3.1145 -0.983184 0
M  V30 25614 H 2403.25 2.21866 -2.9184 0
M  V30 25615 H 2402.9 4.56202 -2.11869 0
M  V30 25616 H 2402.6 4.42234 -3.86915 0
M  V30 25617 H 2404.12 5.14795 -3.28357 0
M  V30 25618 H 2405.54 3.34048 -4.65924 0
M  V30 25619 H 2403.93 2.85076 -5.28064 0
M  V30 25620 H 2405 1.63087 -4.56652 0
M  V30 25621 N 2406.35 1.42792 0.666944 0
M  V30 25622 C 2407.28 1.4968 1.79216 0
M  V30 25623 C 2408.26 0.352652 1.66404 0
M  V30 25624 O 2409.44 0.568026 1.85707 0
M  V30 25625 C 2406.57 1.40611 3.17562 0
M  V30 25626 C 2405.53 2.53133 3.45119 0
M  V30 25627 C 2404.85 2.2912 4.83123 0
M  V30 25628 C 2406.15 3.95424 3.41229 0
M  V30 25629 H 2407.85 2.43856 1.73709 0
M  V30 25630 H 2405.39 1.17369 0.834299 0
M  V30 25631 H 2407.35 1.44036 3.9602 0
M  V30 25632 H 2406.07 0.429327 3.23766 0
M  V30 25633 H 2404.73 2.49039 2.69027 0
M  V30 25634 H 2404.38 1.29717 4.85986 0
M  V30 25635 H 2404.08 3.0454 5.02523 0
M  V30 25636 H 2405.6 2.34307 5.63855 0
M  V30 25637 H 2407.01 4.0108 4.09644 0
M  V30 25638 H 2405.41 4.70758 3.72165 0
M  V30 25639 H 2406.48 4.21536 2.39657 0
M  V30 25640 N 2407.82 -0.904008 1.29095 0
M  V30 25641 C 2409.07 -1.65409 1.16816 0
M  V30 25642 C 2409.4 -1.92456 -0.281247 0
M  V30 25643 O 2408.65 -1.53015 -1.22003 0
M  V30 25644 C 2408.95 -3.01301 1.9223 0
M  V30 25645 C 2408.62 -2.93879 3.41973 0
M  V30 25646 C 2407.28 -2.91562 3.82812 0
M  V30 25647 C 2409.63 -2.83405 4.37414 0
M  V30 25648 C 2406.96 -2.76584 5.17415 0
M  V30 25649 C 2409.31 -2.69967 5.72102 0
M  V30 25650 C 2407.98 -2.66013 6.12203 0
M  V30 25651 H 2407.25 -0.605276 0.427461 0
M  V30 25652 H 2409.89 -1.05252 1.59982 0
M  V30 25653 H 2408.2 -3.65301 1.41641 0
M  V30 25654 H 2409.9 -3.58262 1.80137 0
M  V30 25655 H 2406.49 -2.96483 3.09509 0
M  V30 25656 H 2410.67 -2.84275 4.06818 0
M  V30 25657 H 2405.93 -2.71925 5.47601 0
M  V30 25658 H 2410.1 -2.60832 6.45708 0
M  V30 25659 H 2407.73 -2.54165 7.16452 0
M  V30 25660 N 2409.3 -1.11501 -1.11379 0
M  V30 25661 C 2410.55 -0.864264 -1.8313 0
M  V30 25662 C 2410.88 0.610082 -1.84684 0
M  V30 25663 O 2410.13 1.46644 -1.29592 0
M  V30 25664 C 2410.43 -1.37183 -3.30023 0
M  V30 25665 C 2410.1 -2.85952 -3.48629 0
M  V30 25666 C 2408.76 -3.26575 -3.53415 0
M  V30 25667 C 2411.11 -3.81765 -3.54831 0
M  V30 25668 C 2408.44 -4.61739 -3.61959 0
M  V30 25669 C 2410.79 -5.16746 -3.64906 0
M  V30 25670 C 2409.46 -5.56927 -3.67952 0
M  V30 25671 H 2408.73 -0.316256 -0.670122 0
M  V30 25672 H 2411.37 -1.39353 -1.31351 0
M  V30 25673 H 2409.68 -0.76282 -3.84302 0
M  V30 25674 H 2411.37 -1.15415 -3.84032 0
M  V30 25675 H 2407.96 -2.53527 -3.45575 0
M  V30 25676 H 2412.15 -3.51481 -3.50393 0
M  V30 25677 H 2407.4 -4.92276 -3.62594 0
M  V30 25678 H 2411.58 -5.90823 -3.68648 0
M  V30 25679 H 2409.21 -6.61653 -3.74325 0
M  V30 25680 N 2410.78 1.28995 -0.905426 0
M  V30 25681 C 2412.03 1.94606 -0.530225 0
M  V30 25682 C 2412.34 1.72122 0.929155 0
M  V30 25683 O 2413.55 2.31886 1.41214 0
M  V30 25684 C 2412.01 3.48532 -0.897394 0
M  V30 25685 C 2411.61 3.79807 -2.37593 0
M  V30 25686 C 2413.36 4.20346 -0.592378 0
M  V30 25687 C 2411.26 5.27004 -2.68366 0
M  V30 25688 H 2410.19 0.728463 -0.19457 0
M  V30 25689 H 2412.85 1.46634 -1.10321 0
M  V30 25690 H 2411.23 3.95189 -0.253283 0
M  V30 25691 H 2412.4 3.43989 -3.06608 0
M  V30 25692 H 2410.72 3.21146 -2.65055 0
M  V30 25693 H 2413.31 5.28696 -0.799068 0
M  V30 25694 H 2413.66 4.13645 0.469401 0
M  V30 25695 H 2414.19 3.7944 -1.19458 0
M  V30 25696 H 2410.93 5.38775 -3.73365 0
M  V30 25697 H 2410.45 5.64049 -2.03981 0
M  V30 25698 H 2412.13 5.94658 -2.54933 0
M  V30 25699 N 2412.26 0.668514 1.42719 0
M  V30 25700 C 2413.49 0.196099 2.05667 0
M  V30 25701 C 2413.9 -1.14944 1.50282 0
M  V30 25702 O 2413.24 -1.72382 0.63483 0
M  V30 25703 C 2413.3 0.0469511 3.59469 0
M  V30 25704 C 2412.97 1.3202 4.37515 0
M  V30 25705 C 2413.96 2.2523 4.6858 0
M  V30 25706 C 2411.65 1.56605 4.77263 0
M  V30 25707 C 2413.64 3.41307 5.3832 0
M  V30 25708 C 2411.33 2.72971 5.46745 0
M  V30 25709 C 2412.33 3.65147 5.77197 0
M  V30 25710 O 2412.02 4.79479 6.45256 0
M  V30 25711 H 2411.75 0.0943716 0.66938 0
M  V30 25712 H 2414.3 0.913821 1.83952 0
M  V30 25713 H 2412.53 -0.72629 3.79818 0
M  V30 25714 H 2414.22 -0.384781 4.04072 0
M  V30 25715 H 2414.99 2.07484 4.38378 0
M  V30 25716 H 2410.87 0.857328 4.52958 0
M  V30 25717 H 2414.41 4.13273 5.62007 0
M  V30 25718 H 2410.31 2.90645 5.76364 0
M  V30 25719 H 2411.07 4.78942 6.63744 0
M  V30 25720 N 2413.74 -1.52135 0.411426 0
M  V30 25721 C 2414.7 -2.25664 -0.401049 0
M  V30 25722 C 2415.7 -1.28119 -0.97171 0
M  V30 25723 O 2416.89 -1.52042 -0.850227 0
M  V30 25724 C 2414.02 -3.02866 -1.56477 0
M  V30 25725 H 2415.22 -2.98914 0.243003 0
M  V30 25726 H 2412.77 -1.55437 0.163995 0
M  V30 25727 H 2413.5 -2.33971 -2.24562 0
M  V30 25728 H 2413.29 -3.74485 -1.16204 0
M  V30 25729 H 2414.78 -3.58633 -2.13945 0
M  V30 25730 N 2415.22 -0.14192 -1.5696 0
M  V30 25731 C 2416.18 0.785549 -2.15318 0
M  V30 25732 C 2417.18 1.17878 -1.09368 0
M  V30 25733 O 2418.37 1.10053 -1.35033 0
M  V30 25734 C 2415.5 2.06532 -2.71214 0
M  V30 25735 H 2416.69 0.277988 -2.98609 0
M  V30 25736 H 2414.25 0.107491 -1.5593 0
M  V30 25737 H 2414.98 2.61667 -1.91575 0
M  V30 25738 H 2414.77 1.79262 -3.48723 0
M  V30 25739 H 2416.26 2.72784 -3.16194 0
M  V30 25740 N 2416.69 1.57047 0.131868 0
M  V30 25741 C 2417.62 2.0243 1.1638 0
M  V30 25742 C 2418.6 0.906465 1.43935 0
M  V30 25743 O 2419.79 1.17531 1.54596 0
M  V30 25744 C 2416.92 2.41774 2.49324 0
M  V30 25745 C 2415.87 3.56883 2.36259 0
M  V30 25746 C 2415.2 3.82087 3.74051 0
M  V30 25747 C 2416.5 4.89045 1.83392 0
M  V30 25748 H 2418.19 2.88888 0.786383 0
M  V30 25749 H 2415.74 1.38982 0.37683 0
M  V30 25750 H 2417.69 2.72126 3.21754 0
M  V30 25751 H 2416.42 1.52271 2.88931 0
M  V30 25752 H 2415.08 3.26721 1.6628 0
M  V30 25753 H 2414.72 2.8981 4.1112 0
M  V30 25754 H 2414.42 4.59561 3.66166 0
M  V30 25755 H 2415.95 4.14878 4.48005 0
M  V30 25756 H 2417.36 5.18016 2.45627 0
M  V30 25757 H 2415.76 5.70429 1.8636 0
M  V30 25758 H 2416.83 4.78412 0.790578 0
M  V30 25759 N 2418.17 -0.401677 1.52395 0
M  V30 25760 C 2419.42 -1.14567 1.6649 0
M  V30 25761 C 2419.74 -1.90834 0.40093 0
M  V30 25762 O 2419.01 -1.86981 -0.584382 0
M  V30 25763 H 2417.59 -0.425918 0.61368 0
M  V30 25764 H 2420.25 -0.457059 1.89465 0
M  V30 25765 H 2419.35 -1.85561 2.50945 0
M  V30 25766 N 2419.65 -1.43144 -0.659362 0
M  V30 25767 C 2420.9 -1.44649 -1.42142 0
M  V30 25768 C 2421.23 -0.0682248 -1.9408 0
M  V30 25769 O 2420.5 0.909977 -1.719 0
M  V30 25770 C 2420.79 -2.48378 -2.60731 0
M  V30 25771 C 2420.64 -3.95455 -2.14325 0
M  V30 25772 C 2421.96 -2.48913 -3.62947 0
M  V30 25773 H 2419.08 -0.526705 -0.515511 0
M  V30 25774 H 2421.72 -1.74655 -0.748038 0
M  V30 25775 H 2419.87 -2.22921 -3.1818 0
M  V30 25776 H 2421.54 -4.31947 -1.61925 0
M  V30 25777 H 2419.78 -4.08581 -1.45753 0
M  V30 25778 H 2420.46 -4.63637 -2.99575 0
M  V30 25779 H 2422.93 -2.71587 -3.15245 0
M  V30 25780 H 2421.81 -3.23443 -4.43482 0
M  V30 25781 H 2422.07 -1.52068 -4.15124 0
M  V30 25782 N 2421.13 0.897149 -1.29572 0
M  V30 25783 C 2422.04 2.03451 -1.16811 0
M  V30 25784 C 2423.05 1.73763 -0.0907777 0
M  V30 25785 O 2424.23 1.99102 -0.303347 0
M  V30 25786 C 2421.29 3.36161 -0.848323 0
M  V30 25787 C 2420.36 3.79351 -2.00976 0
M  V30 25788 C 2419.59 5.05728 -1.70514 0
M  V30 25789 O 2419.81 5.6694 -0.62728 0
M  V30 25790 O 2418.75 5.45032 -2.55389 0
M  V30 25791 H 2422.57 2.17141 -2.12329 0
M  V30 25792 H 2420.16 1.02121 -1.09049 0
M  V30 25793 H 2422.04 4.15801 -0.684654 0
M  V30 25794 H 2420.71 3.23608 0.0770503 0
M  V30 25795 H 2419.62 3.00467 -2.22869 0
M  V30 25796 H 2420.95 3.96491 -2.91643 0
M  V30 25797 N 2422.61 1.1209 1.10786 0
M  V30 25798 C 2423.54 0.807793 2.19082 0
M  V30 25799 C 2424.52 -0.226829 1.68581 0
M  V30 25800 O 2425.7 -0.0888134 1.93997 0
M  V30 25801 C 2422.83 0.257637 3.46343 0
M  V30 25802 C 2421.79 1.22491 4.10098 0
M  V30 25803 C 2421.11 0.535145 5.32015 0
M  V30 25804 C 2422.41 2.57819 4.54232 0
M  V30 25805 H 2424.11 1.71333 2.45531 0
M  V30 25806 H 2421.65 0.825225 1.18009 0
M  V30 25807 H 2423.6 0.0263419 4.21392 0
M  V30 25808 H 2422.33 -0.683222 3.19374 0
M  V30 25809 H 2420.99 1.44195 3.37051 0
M  V30 25810 H 2420.64 -0.410739 5.0132 0
M  V30 25811 H 2420.34 1.18034 5.75623 0
M  V30 25812 H 2421.86 0.312802 6.09798 0
M  V30 25813 H 2423.27 2.40164 5.20571 0
M  V30 25814 H 2421.67 3.18384 5.08676 0
M  V30 25815 H 2422.74 3.16534 3.67334 0
M  V30 25816 N 2424.08 -1.28513 0.912254 0
M  V30 25817 C 2425.33 -1.95038 0.544633 0
M  V30 25818 C 2425.66 -1.71824 -0.911405 0
M  V30 25819 O 2424.91 -1.0314 -1.66315 0
M  V30 25820 C 2425.21 -3.48367 0.798453 0
M  V30 25821 C 2424.88 -3.91678 2.23381 0
M  V30 25822 C 2423.54 -4.03214 2.62624 0
M  V30 25823 C 2425.89 -4.13873 3.16794 0
M  V30 25824 C 2423.22 -4.34323 3.94437 0
M  V30 25825 C 2425.57 -4.46461 4.48169 0
M  V30 25826 C 2424.24 -4.56208 4.87268 0
M  V30 25827 H 2423.51 -0.713696 0.199295 0
M  V30 25828 H 2426.15 -1.52877 1.15329 0
M  V30 25829 H 2424.46 -3.91654 0.106977 0
M  V30 25830 H 2426.16 -3.97955 0.493211 0
M  V30 25831 H 2422.75 -3.83225 1.91929 0
M  V30 25832 H 2426.93 -4.04415 2.87684 0
M  V30 25833 H 2422.19 -4.40075 4.24434 0
M  V30 25834 H 2426.36 -4.62583 5.20567 0
M  V30 25835 H 2423.99 -4.80068 5.89439 0
M  V30 25836 N 2425.56 -0.676073 -1.42362 0
M  V30 25837 C 2426.81 -0.198473 -2.01123 0
M  V30 25838 C 2427.13 1.19963 -1.53733 0
M  V30 25839 O 2426.4 1.80576 -0.759549 0
M  V30 25840 H 2424.98 -0.0703852 -0.743677 0
M  V30 25841 H 2427.64 -0.872867 -1.74261 0
M  V30 25842 H 2426.74 -0.200741 -3.11454 0
M  V30 25843 N 2427.04 1.51915 -0.419488 0
M  V30 25844 C 2427.99 2.27292 0.400887 0
M  V30 25845 C 2428.96 1.30133 1.03221 0
M  V30 25846 O 2430.14 1.59011 1.05452 0
M  V30 25847 C 2427.28 3.10507 1.50597 0
M  V30 25848 C 2426.4 4.22637 0.894546 0
M  V30 25849 C 2425.53 4.93192 1.97319 0
M  V30 25850 C 2424.57 5.97269 1.33925 0
M  V30 25851 N 2423.71 6.61302 2.35848 0
M  V30 25852 H 2428.55 2.96964 -0.248304 0
M  V30 25853 H 2426.08 1.46486 -0.134292 0
M  V30 25854 H 2428.04 3.57066 2.15777 0
M  V30 25855 H 2426.67 2.42985 2.12505 0
M  V30 25856 H 2425.72 3.80173 0.131516 0
M  V30 25857 H 2427.04 4.97261 0.391553 0
M  V30 25858 H 2426.19 5.43209 2.70202 0
M  V30 25859 H 2424.93 4.18159 2.50987 0
M  V30 25860 H 2423.93 5.46562 0.5958 0
M  V30 25861 H 2425.16 6.7425 0.810133 0
M  V30 25862 H 2423.1 5.89092 2.88629 0
M  V30 25863 H 2423.02 7.31633 1.9039 0
M  V30 25864 H 2424.29 7.15954 3.08269 0
M  V30 25865 N 2428.52 0.150242 1.56882 0
M  V30 25866 C 2429.45 -0.784245 2.19936 0
M  V30 25867 C 2430.43 -1.25467 1.14856 0
M  V30 25868 O 2431.61 -1.31165 1.43211 0
M  V30 25869 C 2428.74 -2.02224 2.82352 0
M  V30 25870 C 2427.7 -1.68846 3.93287 0
M  V30 25871 C 2427.02 -2.99936 4.42654 0
M  V30 25872 C 2428.32 -0.932623 5.13906 0
M  V30 25873 H 2430.02 -0.258729 2.9828 0
M  V30 25874 H 2427.56 -0.123004 1.43474 0
M  V30 25875 H 2429.52 -2.68082 3.25131 0
M  V30 25876 H 2428.24 -2.57154 2.01345 0
M  V30 25877 H 2426.9 -1.05365 3.51132 0
M  V30 25878 H 2426.55 -3.52863 3.58464 0
M  V30 25879 H 2426.25 -2.78365 5.17481 0
M  V30 25880 H 2427.77 -3.66859 4.88105 0
M  V30 25881 H 2429.19 -1.49336 5.53509 0
M  V30 25882 H 2427.58 -0.816735 5.94516 0
M  V30 25883 H 2428.65 0.0750421 4.84842 0
M  V30 25884 N 2430 -1.57115 -0.123538 0
M  V30 25885 C 2431.24 -1.84887 -0.833354 0
M  V30 25886 C 2431.58 -0.735324 -1.7974 0
M  V30 25887 O 2430.85 0.259216 -1.92765 0
M  V30 25888 C 2431.13 -3.23231 -1.58725 0
M  V30 25889 C 2430.99 -4.45179 -0.643104 0
M  V30 25890 C 2432.31 -3.59089 -2.54447 0
M  V30 25891 H 2429.42 -0.672505 -0.301507 0
M  V30 25892 H 2432.07 -1.89748 -0.0977447 0
M  V30 25893 H 2430.22 -3.19218 -2.21433 0
M  V30 25894 H 2431.89 -4.61293 -0.0252204 0
M  V30 25895 H 2430.13 -4.33776 0.0456901 0
M  V30 25896 H 2430.8 -5.38639 -1.20714 0
M  V30 25897 H 2433.28 -3.63864 -2.01846 0
M  V30 25898 H 2432.15 -4.56875 -3.0423 0
M  V30 25899 H 2432.42 -2.8627 -3.36901 0
M  V30 25900 N 2431.47 0.393589 -1.52606 0
M  V30 25901 C 2432.71 1.14807 -1.69112 0
M  V30 25902 C 2433.08 1.87356 -0.419723 0
M  V30 25903 O 2434.28 2.64816 -0.46108 0
M  V30 25904 C 2432.55 2.1039 -2.88913 0
M  V30 25905 S 2434.11 2.93736 -3.25983 0
M  V30 25906 H 2430.93 0.388699 -0.595343 0
M  V30 25907 H 2433.53 0.433144 -1.90641 0
M  V30 25908 H 2432.23 1.55806 -3.79675 0
M  V30 25909 H 2431.76 2.86398 -2.69703 0
M  V30 25910 H 2433.78 4.12482 -2.75813 0
M  V30 25911 N 2432.95 1.43492 0.651762 0
M  V30 25912 C 2433.9 1.49033 1.78583 0
M  V30 25913 C 2434.89 0.363796 1.65448 0
M  V30 25914 O 2436.1 0.537852 1.71776 0
M  V30 25915 H 2432.48 0.467242 0.589228 0
M  V30 25916 H 2434.45 2.44522 1.7103 0
M  V30 25917 C 2433.2 1.43187 3.16848 0
M  V30 25918 H 2432.52 2.29177 3.27594 0
M  V30 25919 H 2433.96 1.51125 3.96153 0
M  V30 25920 C 2432.42 0.149675 3.36567 0
M  V30 25921 O 2432.95 -0.78844 3.93886 0
M  V30 25922 N 2431.15 0.0593995 2.90539 0
M  V30 25923 H 2430.7 0.823618 2.44078 0
M  V30 25924 H 2430.66 -0.797799 3.04109 0
M  V30 25925 N 2434.43 -0.890264 1.30046 0
M  V30 25926 C 2435.71 -1.6226 1.0923 0
M  V30 25927 C 2436.09 -2.08003 -0.360268 0
M  V30 25928 O 2435.44 -1.84297 -1.35081 0
M  V30 25929 C 2435.65 -2.79619 2.0884 0
M  V30 25930 C 2436.99 -3.50078 2.40272 0
M  V30 25931 O 2438.02 -2.898 2.07109 0
M  V30 25932 O 2436.88 -4.58768 2.96975 0
M  V30 25933 H 2433.97 -0.712914 0.419145 0
M  V30 25934 H 2436.52 -0.937504 1.41453 0
M  V30 25935 H 2435.29 -2.43083 3.06637 0
M  V30 25936 H 2434.91 -3.55828 1.77403 0
M  V30 25937 N 2435.91 -1.12676 -1.1019 0
M  V30 25938 C 2436.82 -0.810065 -2.20171 0
M  V30 25939 C 2437.83 0.202158 -1.72822 0
M  V30 25940 O 2439.01 0.0351337 -2.01369 0
M  V30 25941 C 2436.08 -0.272068 -3.45631 0
M  V30 25942 C 2435.14 -1.34454 -4.07702 0
M  V30 25943 C 2434.37 -0.832122 -5.27173 0
M  V30 25944 O 2434.59 0.333184 -5.69426 0
M  V30 25945 O 2433.53 -1.60287 -5.80165 0
M  V30 25946 H 2437.35 -1.72871 -2.49698 0
M  V30 25947 H 2434.94 -0.903618 -1.18975 0
M  V30 25948 H 2436.82 0.0229478 -4.21394 0
M  V30 25949 H 2435.49 0.619108 -3.17724 0
M  V30 25950 H 2434.4 -1.69276 -3.33611 0
M  V30 25951 H 2435.73 -2.20958 -4.39817 0
M  V30 25952 N 2437.39 1.28028 -0.919057 0
M  V30 25953 C 2438.33 2.29103 -0.401793 0
M  V30 25954 C 2439.33 1.61562 0.509326 0
M  V30 25955 O 2440.53 1.75725 0.389983 0
M  V30 25956 H 2436.91 0.743711 -0.111344 0
M  V30 25957 H 2438.88 2.70154 -1.26725 0
M  V30 25958 C 2437.63 3.46052 0.338088 0
M  V30 25959 H 2436.95 3.98231 -0.353802 0
M  V30 25960 H 2438.39 4.18759 0.664579 0
M  V30 25961 C 2436.85 2.99234 1.54793 0
M  V30 25962 O 2437.38 3.02162 2.6469 0
M  V30 25963 N 2435.59 2.54832 1.39675 0
M  V30 25964 H 2435.13 2.52648 0.502653 0
M  V30 25965 H 2435.09 2.23867 2.20751 0
M  V30 25966 N 2438.86 0.683613 1.42002 0
M  V30 25967 C 2440.28 0.285769 1.845 0
M  V30 25968 C 2440.63 -1.17379 1.57215 0
M  V30 25969 O 2439.75 -1.89965 1.03646 0
M  V30 25970 C 2440.35 0.51188 3.34911 0
M  V30 25971 C 2438.91 0.168071 3.76025 0
M  V30 25972 C 2438.05 0.80003 2.65509 0
M  V30 25973 H 2441 0.885142 1.31723 0
M  V30 25974 H 2441.02 -0.233226 3.79785 0
M  V30 25975 H 2440.54 1.57425 3.54738 0
M  V30 25976 H 2438.64 -0.890504 3.61802 0
M  V30 25977 H 2438.75 0.614744 4.7514 0
M  V30 25978 H 2437.11 0.230613 2.53654 0
M  V30 25979 H 2437.9 1.86603 2.88157 0
M  V30 25980 N 2440.34 -1.5169 0.427538 0
M  V30 25981 C 2441.58 -2.0391 -0.141488 0
M  V30 25982 C 2441.95 -1.30526 -1.40808 0
M  V30 25983 O 2443.15 -1.73067 -2.05673 0
M  V30 25984 C 2441.42 -3.55532 -0.3649 0
M  V30 25985 S 2442.98 -4.29498 -0.898737 0
M  V30 25986 H 2439.8 -0.710065 -0.0364417 0
M  V30 25987 H 2442.4 -1.86552 0.584692 0
M  V30 25988 H 2441.1 -4.06514 0.563431 0
M  V30 25989 H 2440.63 -3.77166 -1.11844 0
M  V30 25990 H 2442.65 -4.45875 -2.17739 0
M  V30 25991 N 2441.82 -0.15856 -1.568 0
M  V30 25992 C 2442.73 0.789479 -2.20917 0
M  V30 25993 C 2443.75 1.26292 -1.19693 0
M  V30 25994 O 2444.92 1.3177 -1.52311 0
M  V30 25995 C 2441.99 2.0066 -2.82731 0
M  V30 25996 C 2441.05 1.58127 -3.99117 0
M  V30 25997 C 2440.28 2.74037 -4.57973 0
M  V30 25998 O 2440.51 3.90565 -4.15711 0
M  V30 25999 O 2439.44 2.48845 -5.48051 0
M  V30 26000 H 2443.27 0.273628 -3.02465 0
M  V30 26001 H 2440.85 0.0690286 -1.4924 0
M  V30 26002 H 2442.73 2.71866 -3.21973 0
M  V30 26003 H 2441.41 2.51175 -2.04188 0
M  V30 26004 H 2440.31 0.83909 -3.64568 0
M  V30 26005 H 2441.65 1.12316 -4.79214 0
M  V30 26006 N 2443.3 1.57178 0.115204 0
M  V30 26007 C 2444.55 1.84686 0.820694 0
M  V30 26008 C 2444.87 0.74431 1.80236 0
M  V30 26009 O 2444.14 -0.231341 1.94529 0
M  V30 26010 H 2442.72 0.681417 0.306072 0
M  V30 26011 H 2445.38 1.94635 0.101622 0
M  V30 26012 H 2444.48 2.80735 1.36361 0
M  V30 26013 N 2444.78 -0.38549 1.52813 0
M  V30 26014 C 2445.71 -1.49286 1.72595 0
M  V30 26015 C 2446.69 -1.52137 0.573846 0
M  V30 26016 O 2447.87 -1.7049 0.80407 0
M  V30 26017 C 2445 -2.87738 1.78674 0
M  V30 26018 C 2444.05 -3.02698 3.0046 0
M  V30 26019 S 2444.88 -2.7353 4.60371 0
M  V30 26020 C 2446.03 -4.14169 4.6927 0
M  V30 26021 H 2446.27 -1.32281 2.6625 0
M  V30 26022 H 2443.8 -0.578586 1.43149 0
M  V30 26023 H 2445.76 -3.67521 1.82862 0
M  V30 26024 H 2444.42 -3.02067 0.861054 0
M  V30 26025 H 2443.61 -4.04049 3.01265 0
M  V30 26026 H 2443.21 -2.30812 2.94282 0
M  V30 26027 H 2445.51 -5.08145 4.48101 0
M  V30 26028 H 2446.45 -4.18378 5.71284 0
M  V30 26029 H 2446.86 -4.00242 3.98079 0
M  V30 26030 N 2446.26 -1.43835 -0.644143 0
M  V30 26031 C 2447.48 -1.49607 -1.4364 0
M  V30 26032 C 2447.91 -0.117946 -1.8773 0
M  V30 26033 O 2447.26 0.890211 -1.5794 0
M  V30 26034 C 2447.31 -2.45468 -2.64155 0
M  V30 26035 O 2446.42 -1.94721 -3.63535 0
M  V30 26036 H 2445.76 -0.505688 -0.43032 0
M  V30 26037 H 2448.29 -1.88841 -0.787415 0
M  V30 26038 H 2448.3 -2.63073 -3.1186 0
M  V30 26039 H 2446.97 -3.45576 -2.31408 0
M  V30 26040 H 2445.55 -1.8682 -3.22727 0
M  V30 26041 N 2447.73 0.883355 -1.30517 0
M  V30 26042 C 2449.15 1.1669 -1.08883 0
M  V30 26043 C 2449.35 2.00946 0.149373 0
M  V30 26044 O 2448.41 2.38029 0.842528 0
M  V30 26045 C 2449.72 1.872 -2.35322 0
M  V30 26046 C 2451.27 1.99958 -2.40802 0
M  V30 26047 C 2451.74 2.73881 -3.67088 0
M  V30 26048 N 2453.23 2.81425 -3.67905 0
M  V30 26049 C 2453.97 3.39202 -4.62309 0
M  V30 26050 N 2453.46 3.98015 -5.67059 0
M  V30 26051 N 2455.26 3.37032 -4.49851 0
M  V30 26052 H 2447.41 0.321596 -2.09951 0
M  V30 26053 H 2449.67 0.205026 -0.925564 0
M  V30 26054 H 2449.38 1.32734 -3.25691 0
M  V30 26055 H 2449.25 2.87573 -2.44094 0
M  V30 26056 H 2451.64 2.53594 -1.50911 0
M  V30 26057 H 2451.72 0.986688 -2.36004 0
M  V30 26058 H 2451.36 2.20917 -4.57338 0
M  V30 26059 H 2451.29 3.7555 -3.69148 0
M  V30 26060 H 2453.78 2.39671 -2.92175 0
M  V30 26061 H 2454.1 4.40172 -6.35192 0
M  V30 26062 H 2452.44 3.96429 -5.70849 0
M  V30 26063 H 2455.63 2.90315 -3.67199 0
M  V30 26064 H 2455.81 3.81763 -5.23604 0
M  V30 26065 N 2449.21 1.13259 1.09591 0
M  V30 26066 C 2450.16 0.777217 2.14344 0
M  V30 26067 C 2451.15 -0.227938 1.59277 0
M  V30 26068 O 2452.34 -0.0321102 1.76971 0
M  V30 26069 C 2449.47 0.243051 3.42439 0
M  V30 26070 C 2448.55 1.27701 4.04417 0
M  V30 26071 N 2448.94 2.4774 4.40975 0
M  V30 26072 C 2447.24 1.1244 4.31594 0
M  V30 26073 C 2447.94 3.13834 4.89778 0
M  V30 26074 N 2446.92 2.41261 4.87128 0
M  V30 26075 H 2450.72 1.69053 2.40412 0
M  V30 26076 H 2448.23 1.01465 1.26801 0
M  V30 26077 H 2450.23 -0.0297763 4.16889 0
M  V30 26078 H 2448.89 -0.664614 3.17825 0
M  V30 26079 H 2449.9 2.85058 4.32391 0
M  V30 26080 H 2446.58 0.274757 4.16595 0
M  V30 26081 H 2447.97 4.16111 5.27542 0
M  V30 26082 N 2450.69 -1.27539 0.925834 0
M  V30 26083 C 2451.65 -2.25165 0.428168 0
M  V30 26084 C 2452.65 -1.5431 -0.452234 0
M  V30 26085 O 2453.84 -1.72344 -0.253578 0
M  V30 26086 C 2450.97 -3.38723 -0.384689 0
M  V30 26087 H 2452.17 -2.70704 1.29071 0
M  V30 26088 H 2449.72 -1.39429 0.706347 0
M  V30 26089 H 2450.46 -2.98563 -1.26613 0
M  V30 26090 H 2450.24 -3.91324 0.246523 0
M  V30 26091 H 2451.73 -4.11288 -0.723317 0
M  V30 26092 N 2452.17 -0.691135 -1.41637 0
M  V30 26093 C 2453.4 -0.229127 -2.05627 0
M  V30 26094 C 2453.81 1.11996 -1.51994 0
M  V30 26095 O 2453.17 1.699 -0.666352 0
M  V30 26096 C 2453.22 -0.173346 -3.61084 0
M  V30 26097 O 2452.94 -1.46914 -4.12732 0
M  V30 26098 C 2454.44 0.310188 -4.42213 0
M  V30 26099 H 2451.66 -0.107545 -0.662325 0
M  V30 26100 H 2454.2 -0.94247 -1.81488 0
M  V30 26101 H 2452.36 0.490791 -3.84279 0
M  V30 26102 H 2452.77 -1.3533 -5.0674 0
M  V30 26103 H 2454.25 0.298099 -5.51194 0
M  V30 26104 H 2454.72 1.3483 -4.17992 0
M  V30 26105 H 2455.33 -0.322791 -4.24073 0
M  V30 26106 N 2453.65 1.51461 -0.435577 0
M  V30 26107 C 2454.89 2.02073 0.131479 0
M  V30 26108 C 2455.22 1.31983 1.42866 0
M  V30 26109 O 2454.48 0.422917 1.91076 0
M  V30 26110 C 2454.77 3.55162 0.399357 0
M  V30 26111 C 2454.44 4.43532 -0.811798 0
M  V30 26112 C 2453.1 4.67405 -1.14395 0
M  V30 26113 C 2455.45 4.95389 -1.61985 0
M  V30 26114 C 2452.78 5.4038 -2.28486 0
M  V30 26115 C 2455.13 5.69616 -2.75174 0
M  V30 26116 C 2453.8 5.91752 -3.08845 0
M  V30 26117 H 2453.07 0.739436 0.0481114 0
M  V30 26118 H 2455.72 1.82429 -0.582412 0
M  V30 26119 H 2454.02 3.73127 1.19512 0
M  V30 26120 H 2455.72 3.91855 0.851501 0
M  V30 26121 H 2452.31 4.25147 -0.542973 0
M  V30 26122 H 2456.49 4.76831 -1.37645 0
M  V30 26123 H 2451.75 5.55735 -2.5489 0
M  V30 26124 H 2455.92 6.08787 -3.38158 0
M  V30 26125 H 2453.55 6.48079 -3.97364 0
M  V30 26126 N 2455.12 0.166873 1.56714 0
M  V30 26127 C 2456.03 -0.777752 2.21333 0
M  V30 26128 C 2457.05 -1.25656 1.20361 0
M  V30 26129 O 2458.23 -1.30961 1.53007 0
M  V30 26130 C 2455.29 -1.99158 2.83791 0
M  V30 26131 C 2454.35 -1.56009 3.9995 0
M  V30 26132 C 2453.59 -2.71605 4.5942 0
M  V30 26133 O 2453.81 -3.88355 4.17776 0
M  V30 26134 O 2452.74 -2.45935 5.49363 0
M  V30 26135 H 2456.57 -0.257583 3.02606 0
M  V30 26136 H 2454.15 -0.061113 1.49275 0
M  V30 26137 H 2456.04 -2.70155 3.2341 0
M  V30 26138 H 2454.71 -2.50089 2.05517 0
M  V30 26139 H 2453.62 -0.819745 3.65008 0
M  V30 26140 H 2454.95 -1.09773 4.79803 0
M  V30 26141 N 2456.6 -1.57237 -0.106866 0
M  V30 26142 C 2457.55 -2.02217 -1.1494 0
M  V30 26143 C 2458.54 -0.921165 -1.42165 0
M  V30 26144 O 2459.75 -1.10636 -1.41985 0
M  V30 26145 H 2456.13 -0.644276 -0.38783 0
M  V30 26146 H 2458.1 -2.88986 -0.743632 0
M  V30 26147 C 2456.85 -2.45255 -2.46466 0
M  V30 26148 H 2456.17 -3.29549 -2.26358 0
M  V30 26149 H 2457.61 -2.80514 -3.17944 0
M  V30 26150 C 2456.07 -1.32105 -3.09919 0
M  V30 26151 O 2456.6 -0.643691 -3.96509 0
M  V30 26152 N 2454.8 -1.07502 -2.69985 0
M  V30 26153 H 2454.35 -1.62764 -1.99664 0
M  V30 26154 H 2454.31 -0.319931 -3.12768 0
M  V30 26155 N 2458.08 0.377381 -1.53015 0
M  V30 26156 C 2459.33 1.12125 -1.68625 0
M  V30 26157 C 2459.66 1.89641 -0.43203 0
M  V30 26158 O 2458.91 1.86726 0.585822 0
M  V30 26159 C 2459.21 2.11657 -2.87986 0
M  V30 26160 C 2458.88 1.50711 -4.24967 0
M  V30 26161 C 2457.54 1.33817 -4.62219 0
M  V30 26162 C 2459.89 1.0651 -5.10201 0
M  V30 26163 C 2457.22 0.712861 -5.82353 0
M  V30 26164 C 2459.57 0.453844 -6.3097 0
M  V30 26165 C 2458.23 0.272294 -6.66944 0
M  V30 26166 H 2457.5 0.410294 -0.617041 0
M  V30 26167 H 2460.15 0.404452 -1.8718 0
M  V30 26168 H 2458.46 2.89598 -2.63894 0
M  V30 26169 H 2460.15 2.69145 -2.97258 0
M  V30 26170 H 2456.74 1.64851 -3.95629 0
M  V30 26171 H 2460.93 1.1836 -4.8198 0
M  V30 26172 H 2456.18 0.560504 -6.08825 0
M  V30 26173 H 2460.36 0.103094 -6.96324 0
M  V30 26174 H 2457.98 -0.214314 -7.59898 0
M  V30 26175 N 2459.56 1.44175 0.636506 0
M  V30 26176 C 2460.81 1.46385 1.39341 0
M  V30 26177 C 2461.13 0.0956057 1.94765 0
M  V30 26178 O 2460.4 -0.871365 1.75454 0
M  V30 26179 H 2458.98 0.539003 0.517189 0
M  V30 26180 H 2461.64 1.79911 0.749538 0
M  V30 26181 H 2460.74 2.18615 2.22742 0
M  V30 26182 N 2461.04 -0.876421 1.30983 0
M  V30 26183 C 2461.97 -1.98589 1.12417 0
M  V30 26184 C 2462.95 -1.62573 0.0294364 0
M  V30 26185 O 2464.13 -1.87594 0.184631 0
M  V30 26186 C 2461.26 -3.31038 0.716334 0
M  V30 26187 C 2460.3 -3.86039 1.81318 0
M  V30 26188 S 2461.14 -4.12284 3.41734 0
M  V30 26189 C 2462.29 -5.4774 3.02872 0
M  V30 26190 H 2462.53 -2.14033 2.06342 0
M  V30 26191 H 2460.06 -1.02583 1.15395 0
M  V30 26192 H 2462.02 -4.07592 0.487769 0
M  V30 26193 H 2460.68 -3.13439 -0.203694 0
M  V30 26194 H 2459.87 -4.81771 1.48029 0
M  V30 26195 H 2459.47 -3.16255 1.99646 0
M  V30 26196 H 2461.77 -6.29144 2.51364 0
M  V30 26197 H 2462.71 -5.85973 3.97544 0
M  V30 26198 H 2463.12 -5.10707 2.40496 0
M  V30 26199 N 2462.51 -1.13839 -1.08989 0
M  V30 26200 C 2463.48 -0.822752 -2.13924 0
M  V30 26201 C 2464.48 0.169872 -1.599 0
M  V30 26202 O 2465.67 -0.0577557 -1.74104 0
M  V30 26203 C 2462.8 -0.225378 -3.40154 0
M  V30 26204 H 2463.99 -1.75267 -2.43355 0
M  V30 26205 H 2461.55 -0.943616 -1.24602 0
M  V30 26206 H 2462.28 0.713538 -3.16353 0
M  V30 26207 H 2462.07 -0.94026 -3.80659 0
M  V30 26208 H 2463.56 -0.0215518 -4.17594 0
M  V30 26209 N 2463.99 1.27046 -0.932584 0
M  V30 26210 C 2465.24 1.94147 -0.575593 0
M  V30 26211 C 2465.57 1.73253 0.883954 0
M  V30 26212 O 2464.82 1.05773 1.64653 0
M  V30 26213 C 2465.12 3.47053 -0.853774 0
M  V30 26214 C 2464.79 3.88075 -2.29584 0
M  V30 26215 C 2463.45 3.98985 -2.69006 0
M  V30 26216 C 2465.8 4.08781 -3.23338 0
M  V30 26217 C 2463.13 4.27993 -4.01296 0
M  V30 26218 C 2465.48 4.39274 -4.55215 0
M  V30 26219 C 2464.15 4.48398 -4.94465 0
M  V30 26220 H 2463.42 0.710435 -0.210624 0
M  V30 26221 H 2466.06 1.51023 -1.17747 0
M  V30 26222 H 2464.37 3.91434 -0.169272 0
M  V30 26223 H 2466.06 3.9712 -0.556459 0
M  V30 26224 H 2462.65 3.80123 -1.98001 0
M  V30 26225 H 2466.84 3.99787 -2.94081 0
M  V30 26226 H 2462.09 4.33267 -4.31381 0
M  V30 26227 H 2466.27 4.54243 -5.2786 0
M  V30 26228 H 2463.9 4.7063 -5.97002 0
M  V30 26229 N 2465.47 0.698636 1.41269 0
M  V30 26230 C 2466.4 0.04967 2.33447 0
M  V30 26231 C 2467.38 -0.763871 1.51984 0
M  V30 26232 O 2468.57 -0.716225 1.8051 0
M  V30 26233 C 2465.7 -0.885208 3.35829 0
M  V30 26234 C 2464.65 -0.178537 4.27627 0
M  V30 26235 C 2463.98 -1.22798 5.20408 0
M  V30 26236 C 2465.28 0.957023 5.13457 0
M  V30 26237 H 2466.97 0.819561 2.87965 0
M  V30 26238 H 2464.52 0.395562 1.3846 0
M  V30 26239 H 2466.47 -1.34847 3.99242 0
M  V30 26240 H 2465.19 -1.6868 2.79669 0
M  V30 26241 H 2463.85 0.264724 3.65643 0
M  V30 26242 H 2463.5 -2.02218 4.60561 0
M  V30 26243 H 2463.2 -0.760136 5.82663 0
M  V30 26244 H 2464.72 -1.69169 5.86698 0
M  V30 26245 H 2466.14 0.573905 5.7042 0
M  V30 26246 H 2464.54 1.35216 5.84668 0
M  V30 26247 H 2465.61 1.79532 4.5044 0
M  V30 26248 N 2466.95 -1.51228 0.443603 0
M  V30 26249 C 2468.18 -2.06556 -0.119253 0
M  V30 26250 C 2468.59 -1.3104 -1.35919 0
M  V30 26251 O 2467.95 -0.371736 -1.78674 0
M  V30 26252 C 2468 -3.58871 -0.435165 0
M  V30 26253 O 2467.72 -4.31535 0.755562 0
M  V30 26254 C 2469.22 -4.30734 -1.04801 0
M  V30 26255 H 2466.44 -0.67098 -0.0051466 0
M  V30 26256 H 2468.99 -1.94732 0.624487 0
M  V30 26257 H 2467.14 -3.7059 -1.12881 0
M  V30 26258 H 2467.55 -5.22266 0.483582 0
M  V30 26259 H 2469.03 -5.38372 -1.21901 0
M  V30 26260 H 2469.51 -3.89432 -2.03074 0
M  V30 26261 H 2470.11 -4.23475 -0.393562 0
M  V30 26262 N 2468.43 -0.175182 -1.56623 0
M  V30 26263 C 2469.36 0.749156 -2.21156 0
M  V30 26264 C 2470.34 1.23624 -1.16838 0
M  V30 26265 O 2471.52 1.2887 -1.4528 0
M  V30 26266 C 2468.65 1.97706 -2.85534 0
M  V30 26267 C 2467.61 1.62568 -3.95924 0
M  V30 26268 C 2466.93 2.92856 -4.4737 0
M  V30 26269 C 2468.23 0.850747 -5.15325 0
M  V30 26270 H 2469.93 0.211242 -2.98654 0
M  V30 26271 H 2467.47 0.100163 -1.43651 0
M  V30 26272 H 2469.43 2.62875 -3.29355 0
M  V30 26273 H 2468.15 2.53918 -2.0541 0
M  V30 26274 H 2466.81 0.997657 -3.52764 0
M  V30 26275 H 2466.46 3.47115 -3.64033 0
M  V30 26276 H 2466.16 2.70097 -5.21844 0
M  V30 26277 H 2467.68 3.59048 -4.9388 0
M  V30 26278 H 2469.09 1.40511 -5.55814 0
M  V30 26279 H 2467.49 0.72205 -5.9574 0
M  V30 26280 H 2468.56 -0.152167 -4.84661 0
M  V30 26281 N 2469.91 1.57292 0.0985263 0
M  V30 26282 C 2471.15 1.85914 0.802645 0
M  V30 26283 C 2471.48 0.763217 1.789 0
M  V30 26284 O 2470.74 -0.243525 1.94179 0
M  V30 26285 C 2471.03 3.21108 1.56922 0
M  V30 26286 C 2470.7 4.45028 0.725298 0
M  V30 26287 C 2469.36 4.78672 0.492642 0
M  V30 26288 C 2471.71 5.21016 0.138401 0
M  V30 26289 C 2469.04 5.85732 -0.33683 0
M  V30 26290 C 2471.39 6.28952 -0.678375 0
M  V30 26291 C 2470.06 6.61113 -0.921155 0
M  V30 26292 H 2469.33 0.680306 0.293709 0
M  V30 26293 H 2471.98 1.91392 0.0642505 0
M  V30 26294 H 2470.28 3.11298 2.37909 0
M  V30 26295 H 2471.98 3.40481 2.11835 0
M  V30 26296 H 2468.57 4.18681 0.916741 0
M  V30 26297 H 2472.75 4.9536 0.305317 0
M  V30 26298 H 2468.01 6.09064 -0.533943 0
M  V30 26299 H 2472.18 6.87005 -1.14002 0
M  V30 26300 H 2469.81 7.43902 -1.56569 0
M  V30 26301 N 2471.38 -0.369261 1.53213 0
M  V30 26302 C 2472.32 -1.47216 1.7567 0
M  V30 26303 C 2473.33 -1.49803 0.637413 0
M  V30 26304 O 2474.52 -1.53349 0.913588 0
M  V30 26305 C 2471.62 -2.85996 1.81823 0
M  V30 26306 C 2470.79 -3.07148 3.11414 0
M  V30 26307 C 2469.85 -4.26021 3.08857 0
M  V30 26308 O 2468.88 -4.21373 3.82666 0
M  V30 26309 N 2470.08 -5.33242 2.29419 0
M  V30 26310 H 2472.84 -1.28332 2.70834 0
M  V30 26311 H 2470.4 -0.558954 1.51945 0
M  V30 26312 H 2472.4 -3.63651 1.77594 0
M  V30 26313 H 2470.97 -2.98145 0.939597 0
M  V30 26314 H 2470.19 -2.17184 3.28975 0
M  V30 26315 H 2471.47 -3.18147 3.97064 0
M  V30 26316 H 2470.87 -5.3988 1.68956 0
M  V30 26317 H 2469.43 -6.09489 2.31012 0
M  V30 26318 N 2472.86 -1.4451 -0.628851 0
M  V30 26319 C 2474.11 -1.47632 -1.39042 0
M  V30 26320 C 2474.44 -0.109377 -1.93892 0
M  V30 26321 O 2473.72 0.87331 -1.73792 0
M  V30 26322 C 2474 -2.53852 -2.55404 0
M  V30 26323 C 2473.85 -3.99912 -2.05889 0
M  V30 26324 C 2475.17 -2.56555 -3.57586 0
M  V30 26325 H 2472.29 -0.537521 -0.504222 0
M  V30 26326 H 2474.93 -1.76202 -0.710823 0
M  V30 26327 H 2473.08 -2.2962 -3.1338 0
M  V30 26328 H 2474.75 -4.35284 -1.52726 0
M  V30 26329 H 2473 -4.11581 -1.37054 0
M  V30 26330 H 2473.67 -4.69887 -2.89673 0
M  V30 26331 H 2476.14 -2.78213 -3.09414 0
M  V30 26332 H 2475.02 -3.32777 -4.36521 0
M  V30 26333 H 2475.28 -1.60839 -4.11805 0
M  V30 26334 N 2474.34 0.869463 -1.31446 0
M  V30 26335 C 2475.56 1.66056 -1.24259 0
M  V30 26336 C 2475.99 1.87149 0.188895 0
M  V30 26337 O 2475.35 1.41362 1.13519 0
M  V30 26338 C 2475.4 3.00555 -1.99246 0
M  V30 26339 O 2474.5 3.9036 -1.33014 0
M  V30 26340 H 2473.84 0.506824 -0.428982 0
M  V30 26341 H 2476.37 1.08401 -1.73523 0
M  V30 26342 H 2476.38 3.50488 -2.0886 0
M  V30 26343 H 2475.06 2.84523 -3.03347 0
M  V30 26344 H 2473.63 3.48811 -1.31854 0
M  V30 26345 N 2475.82 1.14415 1.08383 0
M  V30 26346 C 2477.05 0.936033 1.84516 0
M  V30 26347 C 2477.46 -0.515471 1.81627 0
M  V30 26348 O 2476.82 -1.35719 1.22011 0
M  V30 26349 C 2476.87 1.42924 3.32047 0
M  V30 26350 O 2476.59 2.82387 3.34946 0
M  V30 26351 C 2478.09 1.2611 4.24984 0
M  V30 26352 H 2475.31 0.333095 0.582485 0
M  V30 26353 H 2477.85 1.51933 1.36882 0
M  V30 26354 H 2476.01 0.888707 3.77069 0
M  V30 26355 H 2476.42 3.04524 4.27042 0
M  V30 26356 H 2477.9 1.6548 5.26612 0
M  V30 26357 H 2478.37 0.203997 4.38726 0
M  V30 26358 H 2478.98 1.79019 3.85788 0
M  V30 26359 N 2477.3 -1.26549 0.939309 0
M  V30 26360 C 2478.54 -1.93456 0.584724 0
M  V30 26361 C 2478.86 -1.74078 -0.878743 0
M  V30 26362 O 2478.13 -1.0953 -1.62419 0
M  V30 26363 H 2476.71 -0.715911 0.213263 0
M  V30 26364 H 2479.38 -1.54027 1.19423 0
M  V30 26365 H 2478.47 -3.01649 0.800902 0
M  V30 26366 N 2478.77 -0.706118 -1.40896 0
M  V30 26367 C 2480.05 -0.169133 -1.94867 0
M  V30 26368 C 2480.43 1.32315 -1.64487 0
M  V30 26369 O 2479.78 2.07472 -0.957476 0
M  V30 26370 C 2479.99 -0.471715 -3.45797 0
M  V30 26371 C 2481.34 -0.405202 -4.22662 0
M  V30 26372 O 2482.36 -0.40723 -3.53864 0
M  V30 26373 O 2481.22 -0.374479 -5.45215 0
M  V30 26374 H 2478.31 -0.0211497 -0.82673 0
M  V30 26375 H 2480.86 -0.783002 -1.50556 0
M  V30 26376 H 2479.63 -1.50423 -3.61232 0
M  V30 26377 H 2479.25 0.172596 -3.97225 0
M  V30 26378 N 2480.25 1.50991 -0.451617 0
M  V30 26379 C 2481.2 2.29689 0.366823 0
M  V30 26380 C 2482.19 1.36141 1.00807 0
M  V30 26381 O 2483.4 1.5342 0.9414 0
M  V30 26382 H 2479.77 0.739393 0.13712 0
M  V30 26383 H 2481.75 2.96705 -0.317591 0
M  V30 26384 C 2480.49 3.16139 1.44746 0
M  V30 26385 H 2479.82 3.88019 0.963405 0
M  V30 26386 H 2481.26 3.74235 1.99308 0
M  V30 26387 C 2479.72 2.32446 2.43865 0
M  V30 26388 O 2480.25 1.99398 3.48717 0
M  V30 26389 N 2478.45 1.95396 2.15102 0
M  V30 26390 H 2478 2.22471 1.29862 0
M  V30 26391 H 2477.96 1.39698 2.81659 0
M  V30 26392 N 2481.73 0.183486 1.56528 0
M  V30 26393 C 2482.98 -0.452431 1.98304 0
M  V30 26394 C 2483.33 -1.60035 1.06802 0
M  V30 26395 O 2482.62 -1.91284 0.110082 0
M  V30 26396 C 2482.82 -0.971577 3.43941 0
M  V30 26397 C 2482.65 0.124504 4.49528 0
M  V30 26398 C 2481.42 0.578256 5.0198 0
M  V30 26399 C 2483.61 0.929296 5.05835 0
M  V30 26400 N 2481.6 1.65337 5.91216 0
M  V30 26401 C 2482.97 1.85407 5.91629 0
M  V30 26402 C 2485.02 0.973015 4.883 0
M  V30 26403 C 2483.73 2.81889 6.61763 0
M  V30 26404 C 2485.75 1.92584 5.59165 0
M  V30 26405 C 2485.11 2.83807 6.44696 0
M  V30 26406 H 2481.21 -0.133311 0.770553 0
M  V30 26407 H 2483.8 0.286507 1.9258 0
M  V30 26408 H 2481.97 -1.67999 3.50187 0
M  V30 26409 H 2483.7 -1.57713 3.72704 0
M  V30 26410 H 2480.45 0.173722 4.73281 0
M  V30 26411 H 2480.88 2.19178 6.40539 0
M  V30 26412 H 2485.52 0.281754 4.2186 0
M  V30 26413 H 2483.24 3.51997 7.27409 0
M  V30 26414 H 2486.82 1.96593 5.47579 0
M  V30 26415 H 2485.7 3.56334 6.98567 0
M  V30 26416 N 2483.21 -1.57342 -0.0901833 0
M  V30 26417 C 2484.16 -2.03424 -1.12789 0
M  V30 26418 C 2485.15 -0.936191 -1.4118 0
M  V30 26419 O 2486.36 -1.12136 -1.40803 0
M  V30 26420 H 2482.73 -0.648354 -0.380975 0
M  V30 26421 H 2484.7 -2.89758 -0.712939 0
M  V30 26422 C 2483.45 -2.47855 -2.43851 0
M  V30 26423 H 2482.77 -3.31931 -2.2285 0
M  V30 26424 H 2484.21 -2.8387 -3.1495 0
M  V30 26425 C 2482.67 -1.35385 -3.085 0
M  V30 26426 O 2483.2 -0.68571 -3.95804 0
M  V30 26427 N 2481.41 -1.1036 -2.68829 0
M  V30 26428 H 2480.96 -1.64873 -1.97926 0
M  V30 26429 H 2480.91 -0.353086 -3.12411 0
M  V30 26430 N 2484.69 0.36113 -1.53407 0
M  V30 26431 C 2485.93 1.10112 -1.69469 0
M  V30 26432 C 2486.26 1.89704 -0.451385 0
M  V30 26433 O 2485.53 1.88464 0.534602 0
M  V30 26434 H 2484.11 0.409498 -0.624757 0
M  V30 26435 H 2486.77 0.406666 -1.9061 0
M  V30 26436 H 2485.86 1.78843 -2.55777 0
M  V30 26437 N 2486.16 1.44842 0.621179 0
M  V30 26438 C 2487.41 1.47425 1.37655 0
M  V30 26439 C 2487.73 0.114663 1.95264 0
M  V30 26440 O 2488.93 0.0180676 2.71494 0
M  V30 26441 C 2487.39 2.5959 2.49281 0
M  V30 26442 C 2487 4.018 1.98142 0
M  V30 26443 C 2488.74 2.71405 3.26404 0
M  V30 26444 C 2486.65 5.05372 3.0717 0
M  V30 26445 H 2485.58 0.548527 0.517334 0
M  V30 26446 H 2488.23 1.7094 0.667227 0
M  V30 26447 H 2486.61 2.29333 3.22835 0
M  V30 26448 H 2487.78 4.41672 1.31388 0
M  V30 26449 H 2486.1 3.94316 1.33805 0
M  V30 26450 H 2488.7 3.45956 4.07699 0
M  V30 26451 H 2489.04 1.77565 3.76532 0
M  V30 26452 H 2489.57 3.0112 2.59945 0
M  V30 26453 H 2486.31 6.00874 2.61975 0
M  V30 26454 H 2485.83 4.70084 3.72534 0
M  V30 26455 H 2487.51 5.29517 3.7178 0
M  V30 26456 N 2487.64 -0.862479 1.31905 0
M  V30 26457 C 2488.58 -1.97386 1.14517 0
M  V30 26458 C 2489.55 -1.62533 0.0466778 0
M  V30 26459 O 2490.74 -1.87387 0.204517 0
M  V30 26460 C 2487.86 -3.3026 0.751405 0
M  V30 26461 C 2486.91 -3.84094 1.85402 0
M  V30 26462 S 2487.74 -4.08636 3.46088 0
M  V30 26463 C 2488.9 -5.44497 3.08665 0
M  V30 26464 H 2489.13 -2.11833 2.08601 0
M  V30 26465 H 2486.67 -1.01354 1.16476 0
M  V30 26466 H 2488.62 -4.07052 0.530972 0
M  V30 26467 H 2487.28 -3.13637 -0.170438 0
M  V30 26468 H 2486.48 -4.80174 1.53131 0
M  V30 26469 H 2486.08 -3.1412 2.0299 0
M  V30 26470 H 2488.37 -6.26443 2.58023 0
M  V30 26471 H 2489.31 -5.81724 4.03736 0
M  V30 26472 H 2489.72 -5.08128 2.45899 0
M  V30 26473 N 2489.12 -1.14988 -1.07775 0
M  V30 26474 C 2490.07 -0.842709 -2.14865 0
M  V30 26475 C 2491.04 0.202523 -1.64861 0
M  V30 26476 O 2492.22 0.0710233 -1.90668 0
M  V30 26477 C 2489.36 -0.333423 -3.43486 0
M  V30 26478 C 2488.48 -1.43972 -4.07304 0
M  V30 26479 C 2487.61 -0.887006 -5.23742 0
M  V30 26480 C 2486.65 -1.97053 -5.79514 0
M  V30 26481 N 2485.79 -1.43452 -6.87289 0
M  V30 26482 H 2490.63 -1.7599 -2.40482 0
M  V30 26483 H 2488.16 -0.8782 -1.18009 0
M  V30 26484 H 2490.12 -0.0198897 -4.17195 0
M  V30 26485 H 2488.75 0.546861 -3.18134 0
M  V30 26486 H 2487.8 -1.86952 -3.3129 0
M  V30 26487 H 2489.12 -2.25796 -4.44767 0
M  V30 26488 H 2488.27 -0.525758 -6.04418 0
M  V30 26489 H 2487.01 -0.0378814 -4.87685 0
M  V30 26490 H 2486.01 -2.34066 -4.97487 0
M  V30 26491 H 2487.24 -2.82336 -6.17627 0
M  V30 26492 H 2485.18 -0.607682 -6.53179 0
M  V30 26493 H 2485.1 -2.18908 -7.23613 0
M  V30 26494 H 2486.37 -1.10138 -7.7168 0
M  V30 26495 N 2490.6 1.26049 -0.946007 0
M  V30 26496 C 2491.88 1.8873 -0.513849 0
M  V30 26497 C 2492.26 1.85442 1.00869 0
M  V30 26498 O 2491.6 1.31203 1.87077 0
M  V30 26499 C 2491.81 3.31847 -1.08067 0
M  V30 26500 C 2493.16 4.08666 -1.15227 0
M  V30 26501 O 2494.19 3.40935 -1.03161 0
M  V30 26502 O 2493.04 5.29804 -1.34054 0
M  V30 26503 H 2490.14 0.809713 -0.168207 0
M  V30 26504 H 2492.68 1.34184 -1.03888 0
M  V30 26505 H 2491.46 3.28626 -2.12416 0
M  V30 26506 H 2491.08 3.93938 -0.538376 0
M  V30 26507 N 2492.08 0.71358 1.4052 0
M  V30 26508 C 2493.3 0.261811 2.05237 0
M  V30 26509 C 2493.72 -1.09564 1.53757 0
M  V30 26510 O 2493.08 -1.68818 0.693298 0
M  V30 26511 C 2493.13 0.230769 3.60763 0
M  V30 26512 O 2492.85 1.53462 4.10343 0
M  V30 26513 C 2494.35 -0.239796 4.42651 0
M  V30 26514 H 2491.57 0.118069 0.660531 0
M  V30 26515 H 2494.11 0.971224 1.79965 0
M  V30 26516 H 2492.27 -0.429593 3.85011 0
M  V30 26517 H 2492.68 1.43375 5.04523 0
M  V30 26518 H 2494.16 -0.210371 5.51599 0
M  V30 26519 H 2494.63 -1.28163 4.20084 0
M  V30 26520 H 2495.24 0.390216 4.23506 0
M  V30 26521 N 2493.55 -1.50749 0.459618 0
M  V30 26522 C 2494.48 -2.31148 -0.330604 0
M  V30 26523 C 2495.47 -1.37539 -1.00085 0
M  V30 26524 O 2496.65 -1.66461 -1.00022 0
M  V30 26525 C 2493.78 -3.16965 -1.41952 0
M  V30 26526 C 2492.73 -4.19033 -0.871534 0
M  V30 26527 C 2492.06 -4.93513 -2.05788 0
M  V30 26528 C 2493.36 -5.22186 0.109343 0
M  V30 26529 H 2495.05 -2.97459 0.340388 0
M  V30 26530 H 2492.6 -1.4305 0.165144 0
M  V30 26531 H 2494.55 -3.72001 -1.97973 0
M  V30 26532 H 2493.28 -2.48517 -2.11912 0
M  V30 26533 H 2491.94 -3.65081 -0.333378 0
M  V30 26534 H 2491.58 -4.21548 -2.74419 0
M  V30 26535 H 2491.28 -5.62547 -1.6975 0
M  V30 26536 H 2492.81 -5.5138 -2.62321 0
M  V30 26537 H 2494.22 -5.7216 -0.361304 0
M  V30 26538 H 2492.62 -5.98874 0.383421 0
M  V30 26539 H 2493.69 -4.73639 1.03896 0
M  V30 26540 N 2495.03 -0.191784 -1.56429 0
M  V30 26541 C 2496.45 0.164109 -1.58754 0
M  V30 26542 C 2496.65 1.61286 -1.20785 0
M  V30 26543 O 2495.7 2.34787 -0.92904 0
M  V30 26544 C 2497.02 -0.135248 -3.00396 0
M  V30 26545 C 2498.57 -0.0750901 -3.1291 0
M  V30 26546 C 2499.04 -0.347712 -4.56678 0
M  V30 26547 N 2500.53 -0.296212 -4.62252 0
M  V30 26548 C 2501.27 -0.481048 -5.71379 0
M  V30 26549 N 2500.76 -0.726054 -6.88985 0
M  V30 26550 N 2502.56 -0.415534 -5.60562 0
M  V30 26551 H 2494.71 -1.13721 -1.79391 0
M  V30 26552 H 2496.97 -0.453657 -0.832406 0
M  V30 26553 H 2496.68 -1.13964 -3.32724 0
M  V30 26554 H 2496.55 0.563708 -3.72964 0
M  V30 26555 H 2498.94 0.919899 -2.80396 0
M  V30 26556 H 2499.02 -0.807071 -2.42734 0
M  V30 26557 H 2498.66 -1.34 -4.89904 0
M  V30 26558 H 2498.59 0.40512 -5.25039 0
M  V30 26559 H 2501.08 -0.113326 -3.7773 0
M  V30 26560 H 2501.4 -0.855992 -7.68045 0
M  V30 26561 H 2499.74 -0.762909 -6.908 0
M  V30 26562 H 2502.93 -0.224568 -4.67561 0
M  V30 26563 H 2503.1 -0.563002 -6.4555 0
M  V30 26564 N 2496.51 1.57387 0.0818378 0
M  V30 26565 C 2497.79 1.77798 0.815312 0
M  V30 26566 C 2498.17 0.776825 1.96287 0
M  V30 26567 O 2497.52 -0.192066 2.27691 0
M  V30 26568 C 2497.73 3.23981 1.29759 0
M  V30 26569 C 2499.07 3.87533 1.73504 0
M  V30 26570 O 2500.1 3.27811 1.39351 0
M  V30 26571 O 2498.96 4.9258 2.367 0
M  V30 26572 H 2496.05 0.729319 0.389901 0
M  V30 26573 H 2498.6 1.69584 0.0626915 0
M  V30 26574 H 2497.37 3.88394 0.476012 0
M  V30 26575 H 2496.99 3.36879 2.11183 0
M  V30 26576 N 2497.99 -0.35299 1.53596 0
M  V30 26577 C 2499.23 -1.10283 1.72096 0
M  V30 26578 C 2499.59 -1.86177 0.46925 0
M  V30 26579 O 2500.79 -2.635 0.53113 0
M  V30 26580 C 2499.06 -2.02656 2.9439 0
M  V30 26581 S 2500.62 -2.8499 3.33656 0
M  V30 26582 H 2497.44 -0.372778 0.60544 0
M  V30 26583 H 2500.04 -0.382447 1.91723 0
M  V30 26584 H 2498.75 -1.45685 3.83672 0
M  V30 26585 H 2498.28 -2.79147 2.77201 0
M  V30 26586 H 2500.29 -4.05025 2.86652 0
M  V30 26587 N 2499.47 -1.45169 -0.613489 0
M  V30 26588 C 2500.7 -1.52393 -1.39943 0
M  V30 26589 C 2501.11 -0.154564 -1.88166 0
M  V30 26590 O 2500.47 0.842815 -1.61873 0
M  V30 26591 C 2500.52 -2.50341 -2.6079 0
M  V30 26592 O 2500.24 -3.81956 -2.14573 0
M  V30 26593 C 2501.74 -2.67204 -3.53718 0
M  V30 26594 H 2498.96 -0.516292 -0.428584 0
M  V30 26595 H 2501.5 -1.90301 -0.74872 0
M  V30 26596 H 2499.66 -2.15521 -3.21915 0
M  V30 26597 H 2500.07 -4.34998 -2.93047 0
M  V30 26598 H 2501.55 -3.39729 -4.35073 0
M  V30 26599 H 2502.02 -1.73036 -4.03677 0
M  V30 26600 H 2502.63 -3.02997 -2.9845 0
M  V30 26601 N 2500.95 0.855472 -1.32361 0
M  V30 26602 C 2501.9 1.95203 -1.17812 0
M  V30 26603 C 2502.88 1.60674 -0.0852602 0
M  V30 26604 O 2504.07 1.74234 -0.311682 0
M  V30 26605 C 2501.2 3.31225 -0.902495 0
M  V30 26606 C 2500.29 3.71976 -2.03702 0
M  V30 26607 N 2500.68 3.84562 -3.28551 0
M  V30 26608 C 2498.98 4.01597 -1.94 0
M  V30 26609 C 2499.68 4.19622 -4.02855 0
M  V30 26610 N 2498.65 4.31096 -3.31145 0
M  V30 26611 H 2502.45 2.03066 -2.12465 0
M  V30 26612 H 2499.97 1.04718 -1.24129 0
M  V30 26613 H 2501.97 4.09553 -0.779222 0
M  V30 26614 H 2500.63 3.2468 0.0356696 0
M  V30 26615 H 2501.64 3.68905 -3.63497 0
M  V30 26616 H 2498.31 4.03359 -1.0774 0
M  V30 26617 H 2499.7 4.36836 -5.10514 0
M  V30 26618 N 2502.42 1.15558 1.07164 0
M  V30 26619 C 2503.7 0.8421 1.76545 0
M  V30 26620 C 2504.08 -0.661904 2.00455 0
M  V30 26621 O 2503.43 -1.60688 1.62455 0
M  V30 26622 C 2503.64 1.65501 3.07263 0
M  V30 26623 C 2504.99 1.86241 3.81575 0
M  V30 26624 O 2506.01 1.62293 3.1708 0
M  V30 26625 O 2504.87 2.26364 4.97415 0
M  V30 26626 H 2501.96 0.309875 0.766751 0
M  V30 26627 H 2504.51 1.26147 1.13512 0
M  V30 26628 H 2503.28 2.67603 2.85489 0
M  V30 26629 H 2502.9 1.2321 3.78028 0
M  V30 26630 N 2503.9 -1.25546 0.952678 0
M  V30 26631 C 2504.81 -2.29682 0.47786 0
M  V30 26632 C 2505.83 -1.67977 -0.453829 0
M  V30 26633 O 2507 -1.98669 -0.330552 0
M  V30 26634 C 2504.07 -3.45878 -0.238594 0
M  V30 26635 C 2503.13 -4.23029 0.731068 0
M  V30 26636 C 2502.36 -5.33678 0.0487103 0
M  V30 26637 O 2502.59 -5.58355 -1.16602 0
M  V30 26638 O 2501.52 -5.97417 0.733257 0
M  V30 26639 H 2505.35 -2.72383 1.34317 0
M  V30 26640 H 2502.93 -1.30958 0.719049 0
M  V30 26641 H 2504.81 -4.16485 -0.6417 0
M  V30 26642 H 2503.49 -3.05183 -1.07911 0
M  V30 26643 H 2502.39 -3.54858 1.18434 0
M  V30 26644 H 2503.73 -4.67503 1.53954 0
M  V30 26645 N 2505.38 -0.721022 -1.40139 0
M  V30 26646 C 2506.8 -0.39514 -1.54631 0
M  V30 26647 C 2507 1.09552 -1.69117 0
M  V30 26648 O 2506.05 1.8816 -1.68381 0
M  V30 26649 C 2507.36 -1.16595 -2.77175 0
M  V30 26650 C 2508.91 -1.15279 -2.90998 0
M  V30 26651 C 2509.39 -1.90587 -4.16462 0
M  V30 26652 N 2510.88 -1.87683 -4.23473 0
M  V30 26653 C 2511.61 -2.42771 -5.1947 0
M  V30 26654 N 2511.11 -3.06439 -6.21343 0
M  V30 26655 N 2512.9 -2.32883 -5.11588 0
M  V30 26656 H 2505.05 -1.68752 -1.28983 0
M  V30 26657 H 2507.32 -0.713578 -0.624108 0
M  V30 26658 H 2507.02 -2.22016 -2.72767 0
M  V30 26659 H 2506.9 -0.761145 -3.69441 0
M  V30 26660 H 2509.28 -0.106754 -2.94907 0
M  V30 26661 H 2509.36 -1.59686 -1.99835 0
M  V30 26662 H 2509.01 -2.95184 -4.13315 0
M  V30 26663 H 2508.94 -1.43596 -5.06644 0
M  V30 26664 H 2511.43 -1.41287 -3.50494 0
M  V30 26665 H 2511.74 -3.45977 -6.91028 0
M  V30 26666 H 2510.09 -3.10525 -6.21771 0
M  V30 26667 H 2513.28 -1.82797 -4.30933 0
M  V30 26668 H 2513.45 -2.76116 -5.86228 0
M  V30 26669 N 2506.86 1.50503 -0.467606 0
M  V30 26670 C 2508.08 2.0721 0.0886579 0
M  V30 26671 C 2508.51 1.32959 1.33055 0
M  V30 26672 O 2507.87 0.376228 1.77353 0
M  V30 26673 C 2507.91 3.58807 0.359139 0
M  V30 26674 O 2507.02 3.86432 1.44027 0
M  V30 26675 H 2506.36 0.663901 -0.0114466 0
M  V30 26676 H 2508.89 1.93743 -0.657647 0
M  V30 26677 H 2508.9 4.03554 0.600671 0
M  V30 26678 H 2507.57 4.12269 -0.548383 0
M  V30 26679 H 2506.15 3.53526 1.18632 0
M  V30 26680 N 2508.34 0.200077 1.56325 0
M  V30 26681 C 2509.58 -0.439484 1.99619 0
M  V30 26682 C 2509.94 -1.58454 1.08426 0
M  V30 26683 O 2511.14 -2.28864 1.40977 0
M  V30 26684 C 2509.41 -0.883197 3.46315 0
M  V30 26685 S 2510.97 -1.51989 4.11637 0
M  V30 26686 H 2507.79 -0.140351 0.69701 0
M  V30 26687 H 2510.39 0.304316 1.93117 0
M  V30 26688 H 2509.09 -0.0398246 4.10381 0
M  V30 26689 H 2508.63 -1.66034 3.56646 0
M  V30 26690 H 2510.64 -2.80873 4.09054 0
M  V30 26691 N 2509.81 -1.57429 -0.0734901 0
M  V30 26692 C 2510.74 -2.0661 -1.08787 0
M  V30 26693 C 2511.72 -0.959261 -1.40471 0
M  V30 26694 O 2512.91 -1.23188 -1.50128 0
M  V30 26695 C 2510.04 -2.50861 -2.40179 0
M  V30 26696 C 2508.99 -3.65406 -2.22851 0
M  V30 26697 C 2508.32 -3.95706 -3.59612 0
M  V30 26698 C 2509.62 -4.95514 -1.65115 0
M  V30 26699 H 2511.31 -2.91608 -0.678622 0
M  V30 26700 H 2508.86 -1.40285 -0.324989 0
M  V30 26701 H 2510.81 -2.8388 -3.11432 0
M  V30 26702 H 2509.54 -1.6289 -2.8308 0
M  V30 26703 H 2508.2 -3.32667 -1.54039 0
M  V30 26704 H 2507.84 -3.04869 -4.0008 0
M  V30 26705 H 2507.54 -4.72834 -3.48857 0
M  V30 26706 H 2509.07 -4.3122 -4.32299 0
M  V30 26707 H 2510.48 -5.26775 -2.26232 0
M  V30 26708 H 2508.88 -5.76953 -1.65061 0
M  V30 26709 H 2509.95 -4.81016 -0.612474 0
M  V30 26710 N 2511.29 0.344839 -1.53781 0
M  V30 26711 C 2512.52 1.10974 -1.75213 0
M  V30 26712 C 2512.94 1.81622 -0.489392 0
M  V30 26713 O 2512.3 1.72503 0.557895 0
M  V30 26714 C 2512.35 2.09988 -2.93151 0
M  V30 26715 O 2511.45 3.17482 -2.63209 0
M  V30 26716 H 2510.79 0.321011 -0.581247 0
M  V30 26717 H 2513.32 0.395626 -2.00739 0
M  V30 26718 H 2513.33 2.53232 -3.19903 0
M  V30 26719 H 2512.01 1.57963 -3.84734 0
M  V30 26720 H 2510.58 2.79065 -2.4734 0
M  V30 26721 N 2512.77 1.45492 0.605781 0
M  V30 26722 C 2513.99 1.53363 1.39623 0
M  V30 26723 C 2514.42 0.167678 1.87351 0
M  V30 26724 O 2513.78 -0.848023 1.60244 0
M  V30 26725 C 2513.83 2.52385 2.57554 0
M  V30 26726 O 2512.93 2.04291 3.58244 0
M  V30 26727 H 2512.27 0.516919 0.416762 0
M  V30 26728 H 2514.8 1.90862 0.73707 0
M  V30 26729 H 2514.81 2.71249 3.04775 0
M  V30 26730 H 2513.49 3.5159 2.22165 0
M  V30 26731 H 2512.06 1.95311 3.1766 0
M  V30 26732 N 2514.25 -0.848441 1.32813 0
M  V30 26733 C 2515.18 -1.97297 1.24885 0
M  V30 26734 C 2516.16 -1.69592 0.131386 0
M  V30 26735 O 2517.34 -1.91552 0.319586 0
M  V30 26736 C 2514.47 -3.33259 0.977518 0
M  V30 26737 C 2513.43 -3.75335 2.05689 0
M  V30 26738 C 2512.75 -5.08997 1.63786 0
M  V30 26739 C 2514.05 -3.90137 3.47261 0
M  V30 26740 H 2515.75 -2.04187 2.1897 0
M  V30 26741 H 2513.29 -0.98101 1.05414 0
M  V30 26742 H 2515.25 -4.11488 0.908585 0
M  V30 26743 H 2513.97 -3.266 0.00103742 0
M  V30 26744 H 2512.63 -2.99362 2.11608 0
M  V30 26745 H 2512.28 -4.988 0.648656 0
M  V30 26746 H 2511.98 -5.3812 2.36009 0
M  V30 26747 H 2513.5 -5.89712 1.58341 0
M  V30 26748 H 2514.92 -4.58703 3.43896 0
M  V30 26749 H 2513.31 -4.30685 4.17888 0
M  V30 26750 H 2514.38 -2.92867 3.86467 0
M  V30 26751 N 2515.73 -1.16125 -1.06549 0
M  V30 26752 C 2516.66 -0.823208 -2.13906 0
M  V30 26753 C 2517.67 0.168401 -1.61927 0
M  V30 26754 O 2518.86 -0.0559933 -1.78412 0
M  V30 26755 C 2515.96 -0.204483 -3.38283 0
M  V30 26756 C 2515.13 -1.23555 -4.19587 0
M  V30 26757 C 2514.19 -0.637103 -5.22329 0
M  V30 26758 O 2513.22 -1.30526 -5.54032 0
M  V30 26759 N 2514.42 0.577373 -5.77622 0
M  V30 26760 H 2517.19 -1.74715 -2.43505 0
M  V30 26761 H 2514.75 -1.05823 -1.22528 0
M  V30 26762 H 2516.74 0.208838 -4.04161 0
M  V30 26763 H 2515.31 0.622958 -3.0633 0
M  V30 26764 H 2514.53 -1.82514 -3.49403 0
M  V30 26765 H 2515.82 -1.93145 -4.70715 0
M  V30 26766 H 2515.21 1.13843 -5.54127 0
M  V30 26767 H 2513.77 0.932939 -6.45089 0
M  V30 26768 N 2517.2 1.25039 -0.959323 0
M  V30 26769 C 2518.45 1.92883 -0.616645 0
M  V30 26770 C 2518.78 1.75089 0.847006 0
M  V30 26771 O 2518.03 1.09242 1.62372 0
M  V30 26772 C 2518.33 3.45163 -0.927197 0
M  V30 26773 C 2518 3.83118 -2.37764 0
M  V30 26774 C 2516.66 3.93189 -2.77408 0
M  V30 26775 C 2519.01 4.01831 -3.31936 0
M  V30 26776 C 2516.34 4.19385 -4.10285 0
M  V30 26777 C 2518.69 4.2952 -4.6443 0
M  V30 26778 C 2517.36 4.37809 -5.03865 0
M  V30 26779 H 2516.63 0.705808 -0.225646 0
M  V30 26780 H 2519.27 1.48491 -1.20924 0
M  V30 26781 H 2517.58 3.90987 -0.252263 0
M  V30 26782 H 2519.28 3.95851 -0.640569 0
M  V30 26783 H 2515.87 3.75838 -2.0602 0
M  V30 26784 H 2520.05 3.9346 -3.02495 0
M  V30 26785 H 2515.31 4.24019 -4.40474 0
M  V30 26786 H 2519.48 4.42944 -5.37377 0
M  V30 26787 H 2517.11 4.5786 -6.06851 0
M  V30 26788 N 2518.68 0.728444 1.39755 0
M  V30 26789 C 2519.93 0.273927 2.00941 0
M  V30 26790 C 2520.26 -1.13392 1.57658 0
M  V30 26791 O 2519.54 -1.77174 0.802465 0
M  V30 26792 C 2519.82 0.368409 3.5821 0
M  V30 26793 C 2519.67 1.81555 4.11531 0
M  V30 26794 C 2520.99 -0.252977 4.39372 0
M  V30 26795 H 2518.11 0.101009 0.730045 0
M  V30 26796 H 2520.75 0.923366 1.66054 0
M  V30 26797 H 2518.9 -0.18452 3.88062 0
M  V30 26798 H 2520.57 2.42485 3.92426 0
M  V30 26799 H 2518.82 2.33905 3.65337 0
M  V30 26800 H 2519.49 1.83297 5.20679 0
M  V30 26801 H 2521.96 0.218297 4.15527 0
M  V30 26802 H 2520.84 -0.156489 5.48677 0
M  V30 26803 H 2521.1 -1.33819 4.21361 0
M  V30 26804 N 2520.16 -1.50253 0.475581 0
M  V30 26805 C 2521.39 -2.07255 -0.0776678 0
M  V30 26806 C 2521.81 -1.33662 -1.32348 0
M  V30 26807 O 2521.17 -0.385628 -1.77151 0
M  V30 26808 C 2521.22 -3.58993 -0.340106 0
M  V30 26809 O 2520.32 -3.87191 -1.41975 0
M  V30 26810 H 2519.66 -0.663831 0.0149673 0
M  V30 26811 H 2522.19 -1.93391 0.667912 0
M  V30 26812 H 2522.2 -4.03867 -0.579261 0
M  V30 26813 H 2520.88 -4.11972 0.570239 0
M  V30 26814 H 2519.45 -3.5415 -1.16756 0
M  V30 26815 N 2521.64 -0.208365 -1.56217 0
M  V30 26816 C 2523.05 0.301871 -1.84243 0
M  V30 26817 C 2523.4 1.60432 -1.12942 0
M  V30 26818 O 2522.53 2.12771 -0.394647 0
M  V30 26819 C 2523.12 0.554484 -3.34232 0
M  V30 26820 C 2521.68 1.00906 -3.62622 0
M  V30 26821 C 2520.83 0.0648843 -2.77224 0
M  V30 26822 H 2523.78 -0.43186 -1.52711 0
M  V30 26823 H 2523.8 1.40216 -3.53723 0
M  V30 26824 H 2523.31 -0.393629 -3.86099 0
M  V30 26825 H 2521.41 1.97099 -3.16201 0
M  V30 26826 H 2521.52 0.892591 -4.70712 0
M  V30 26827 H 2519.89 0.569247 -2.48257 0
M  V30 26828 H 2520.67 -0.87791 -3.31885 0
M  V30 26829 N 2523.12 1.57465 0.0651402 0
M  V30 26830 C 2524.05 2.07184 1.0769 0
M  V30 26831 C 2525.03 0.966697 1.39961 0
M  V30 26832 O 2526.21 1.23982 1.49472 0
M  V30 26833 C 2523.34 2.52131 2.38845 0
M  V30 26834 C 2522.3 3.66582 2.2091 0
M  V30 26835 C 2521.62 3.97608 3.57508 0
M  V30 26836 C 2522.92 4.96383 1.62485 0
M  V30 26837 H 2524.62 2.91964 0.663148 0
M  V30 26838 H 2522.16 1.40455 0.317544 0
M  V30 26839 H 2524.12 2.85528 3.09923 0
M  V30 26840 H 2522.84 1.64389 2.82213 0
M  V30 26841 H 2521.5 3.33479 1.52273 0
M  V30 26842 H 2521.15 3.06986 3.98458 0
M  V30 26843 H 2520.85 4.74678 3.46345 0
M  V30 26844 H 2522.37 4.33506 4.30006 0
M  V30 26845 H 2523.78 5.27967 2.23435 0
M  V30 26846 H 2522.18 5.7782 1.61999 0
M  V30 26847 H 2523.25 4.81334 0.586956 0
M  V30 26848 N 2524.59 -0.336679 1.53962 0
M  V30 26849 C 2525.82 -1.09443 1.75231 0
M  V30 26850 C 2526.23 -1.8262 0.494634 0
M  V30 26851 O 2525.58 -1.75469 -0.543734 0
M  V30 26852 C 2525.64 -2.14775 2.88292 0
M  V30 26853 C 2525.3 -1.61113 4.27658 0
M  V30 26854 C 2526.3 -1.05981 5.08983 0
M  V30 26855 C 2523.98 -1.65752 4.74164 0
M  V30 26856 C 2525.98 -0.562017 6.34917 0
M  V30 26857 C 2523.66 -1.15585 6.0007 0
M  V30 26858 C 2524.66 -0.609028 6.80279 0
M  V30 26859 O 2524.35 -0.114858 8.03818 0
M  V30 26860 H 2524.08 -0.331946 0.588887 0
M  V30 26861 H 2526.64 -0.39253 2.01614 0
M  V30 26862 H 2524.87 -2.88543 2.57448 0
M  V30 26863 H 2526.56 -2.76168 2.97466 0
M  V30 26864 H 2527.32 -1.01714 4.74214 0
M  V30 26865 H 2523.2 -2.07253 4.11785 0
M  V30 26866 H 2526.74 -0.134545 6.9747 0
M  V30 26867 H 2522.64 -1.19555 6.34332 0
M  V30 26868 H 2523.41 -0.231507 8.18173 0
M  V30 26869 N 2526.07 -1.45812 -0.598057 0
M  V30 26870 C 2527.32 -1.50325 -1.35678 0
M  V30 26871 C 2527.65 -0.148773 -1.9393 0
M  V30 26872 O 2526.9 0.853756 -1.76095 0
M  V30 26873 C 2527.2 -2.53771 -2.51665 0
M  V30 26874 C 2526.87 -3.98218 -2.11501 0
M  V30 26875 C 2525.53 -4.37548 -2.00262 0
M  V30 26876 C 2527.88 -4.89021 -1.803 0
M  V30 26877 C 2525.21 -5.65564 -1.56057 0
M  V30 26878 C 2527.56 -6.17459 -1.37578 0
M  V30 26879 C 2526.23 -6.5571 -1.24904 0
M  V30 26880 H 2525.5 -0.550078 -0.496483 0
M  V30 26881 H 2528.14 -1.79209 -0.67502 0
M  V30 26882 H 2526.45 -2.18491 -3.25221 0
M  V30 26883 H 2528.14 -2.54497 -3.0989 0
M  V30 26884 H 2524.73 -3.67121 -2.21179 0
M  V30 26885 H 2528.92 -4.59365 -1.87876 0
M  V30 26886 H 2524.17 -5.93988 -1.44875 0
M  V30 26887 H 2528.35 -6.87256 -1.12483 0
M  V30 26888 H 2525.98 -7.54803 -0.904254 0
M  V30 26889 N 2527.55 0.841385 -1.33261 0
M  V30 26890 C 2528.8 1.59884 -1.2476 0
M  V30 26891 C 2529.13 1.93299 0.186879 0
M  V30 26892 O 2528.4 1.58482 1.12755 0
M  V30 26893 C 2528.69 2.91051 -2.12041 0
M  V30 26894 C 2528.54 2.64334 -3.63934 0
M  V30 26895 C 2529.86 3.92455 -1.99166 0
M  V30 26896 H 2526.98 0.58013 -0.454553 0
M  V30 26897 H 2529.62 0.970619 -1.63337 0
M  V30 26898 H 2527.77 3.44666 -1.79271 0
M  V30 26899 H 2529.44 2.17171 -4.06982 0
M  V30 26900 H 2527.69 1.98075 -3.85939 0
M  V30 26901 H 2528.36 3.57788 -4.20347 0
M  V30 26902 H 2530.83 3.48139 -2.27901 0
M  V30 26903 H 2529.71 4.82068 -2.62492 0
M  V30 26904 H 2529.97 4.31481 -0.963158 0
M  V30 26905 N 2529.03 1.16688 1.05932 0
M  V30 26906 C 2530.25 0.975487 1.83027 0
M  V30 26907 C 2530.68 -0.47142 1.82097 0
M  V30 26908 O 2530.04 -1.33704 1.22446 0
M  V30 26909 C 2530.09 1.51201 3.27369 0
M  V30 26910 O 2529.19 0.720772 4.06053 0
M  V30 26911 H 2528.53 0.346882 0.566188 0
M  V30 26912 H 2531.06 1.55011 1.33539 0
M  V30 26913 H 2531.07 1.53106 3.78183 0
M  V30 26914 H 2529.75 2.56529 3.27362 0
M  V30 26915 H 2528.32 0.772522 3.6481 0
M  V30 26916 N 2530.51 -1.24529 0.96594 0
M  V30 26917 C 2531.75 -1.92553 0.626865 0
M  V30 26918 C 2532.08 -1.75535 -0.837708 0
M  V30 26919 O 2531.34 -1.10101 -1.61791 0
M  V30 26920 C 2531.64 -3.44667 0.945489 0
M  V30 26921 C 2531.3 -3.81852 2.39792 0
M  V30 26922 C 2529.96 -3.91713 2.7949 0
M  V30 26923 C 2532.32 -4.00065 3.34062 0
M  V30 26924 C 2529.64 -4.17203 4.12503 0
M  V30 26925 C 2532 -4.27051 4.66702 0
M  V30 26926 C 2530.66 -4.35131 5.06179 0
M  V30 26927 H 2529.93 -0.704601 0.229386 0
M  V30 26928 H 2532.58 -1.47848 1.2171 0
M  V30 26929 H 2530.88 -3.90848 0.272995 0
M  V30 26930 H 2532.58 -3.95505 0.661553 0
M  V30 26931 H 2529.17 -3.7474 2.0801 0
M  V30 26932 H 2533.35 -3.9185 3.04577 0
M  V30 26933 H 2528.61 -4.21677 4.42717 0
M  V30 26934 H 2532.78 -4.40088 5.39718 0
M  V30 26935 H 2530.41 -4.54636 6.0927 0
M  V30 26936 N 2531.99 -0.735845 -1.39367 0
M  V30 26937 C 2533.23 -0.28458 -2.00793 0
M  V30 26938 C 2533.56 1.12554 -1.58257 0
M  V30 26939 O 2532.84 1.76746 -0.81185 0
M  V30 26940 C 2533.12 -0.3874 -3.5801 0
M  V30 26941 C 2532.98 -1.83735 -4.10562 0
M  V30 26942 C 2534.29 0.229672 -4.395 0
M  V30 26943 H 2531.41 -0.104879 -0.729499 0
M  V30 26944 H 2534.06 -0.932159 -1.65562 0
M  V30 26945 H 2532.21 0.163938 -3.88154 0
M  V30 26946 H 2533.88 -2.44563 -3.91135 0
M  V30 26947 H 2532.12 -2.35839 -3.64091 0
M  V30 26948 H 2532.79 -1.86056 -5.19699 0
M  V30 26949 H 2535.27 -0.24033 -4.15405 0
M  V30 26950 H 2534.14 0.127389 -5.48752 0
M  V30 26951 H 2534.4 1.31583 -4.22064 0
M  V30 26952 N 2533.46 1.49999 -0.483543 0
M  V30 26953 C 2534.39 2.31644 0.293788 0
M  V30 26954 C 2535.37 1.39114 0.97884 0
M  V30 26955 O 2536.56 1.68031 0.973614 0
M  V30 26956 C 2533.69 3.19183 1.36892 0
M  V30 26957 C 2532.64 4.20366 0.804759 0
M  V30 26958 C 2531.97 4.96725 1.97911 0
M  V30 26959 C 2533.27 5.21945 -0.192404 0
M  V30 26960 H 2534.96 2.9688 -0.387668 0
M  V30 26961 H 2532.51 1.42769 -0.187881 0
M  V30 26962 H 2534.46 3.75103 1.9203 0
M  V30 26963 H 2533.19 2.51857 2.07932 0
M  V30 26964 H 2531.85 3.65565 0.275254 0
M  V30 26965 H 2531.49 4.25861 2.67678 0
M  V30 26966 H 2531.19 5.65176 1.60779 0
M  V30 26967 H 2532.72 5.55483 2.53516 0
M  V30 26968 H 2534.13 5.72663 0.270232 0
M  V30 26969 H 2532.53 5.98188 -0.478648 0
M  V30 26970 H 2533.6 4.71926 -1.11418 0
M  V30 26971 N 2534.94 0.216646 1.56104 0
M  V30 26972 C 2536.17 -0.421378 2.02564 0
M  V30 26973 C 2536.58 -1.53693 1.09653 0
M  V30 26974 O 2535.94 -1.82196 0.105242 0
M  V30 26975 C 2535.99 -0.957604 3.48586 0
M  V30 26976 O 2535.71 0.113466 4.37953 0
M  V30 26977 C 2537.21 -1.66936 4.10667 0
M  V30 26978 H 2534.43 -0.103654 0.662946 0
M  V30 26979 H 2536.98 0.331664 2.01793 0
M  V30 26980 H 2535.13 -1.66094 3.49988 0
M  V30 26981 H 2535.55 -0.28884 5.23704 0
M  V30 26982 H 2537.02 -1.99662 5.14625 0
M  V30 26983 H 2537.5 -2.58077 3.55377 0
M  V30 26984 H 2538.1 -1.01135 4.131 0
M  V30 26985 N 2536.42 -1.57498 -0.0567885 0
M  V30 26986 C 2537.38 -2.03717 -1.05034 0
M  V30 26987 C 2538.38 -0.9366 -1.30707 0
M  V30 26988 O 2539.57 -1.20105 -1.26176 0
M  V30 26989 C 2536.7 -2.43059 -2.3903 0
M  V30 26990 H 2537.9 -2.92734 -0.651664 0
M  V30 26991 H 2535.45 -1.53337 -0.30292 0
M  V30 26992 H 2536.19 -1.57113 -2.83701 0
M  V30 26993 H 2535.97 -3.23383 -2.21733 0
M  V30 26994 H 2537.46 -2.79341 -3.10416 0
M  V30 26995 N 2537.9 0.328509 -1.54138 0
M  V30 26996 C 2538.83 1.42507 -1.79512 0
M  V30 26997 C 2539.84 1.4806 -0.676906 0
M  V30 26998 O 2541.03 1.50873 -0.953925 0
M  V30 26999 C 2538.13 2.81075 -1.89342 0
M  V30 27000 C 2537.3 2.98783 -3.19448 0
M  V30 27001 C 2536.36 4.17682 -3.20043 0
M  V30 27002 O 2535.39 4.11079 -3.93704 0
M  V30 27003 N 2536.59 5.26972 -2.43476 0
M  V30 27004 H 2539.36 1.21106 -2.74141 0
M  V30 27005 H 2536.92 0.518472 -1.53374 0
M  V30 27006 H 2538.91 3.58815 -1.87173 0
M  V30 27007 H 2537.48 2.95549 -1.01831 0
M  V30 27008 H 2536.7 2.08386 -3.34618 0
M  V30 27009 H 2537.99 3.07507 -4.0536 0
M  V30 27010 H 2537.39 5.35211 -1.8321 0
M  V30 27011 H 2535.94 6.0315 -2.4709 0
M  V30 27012 N 2539.38 1.46127 0.590316 0
M  V30 27013 C 2540.62 1.51042 1.34879 0
M  V30 27014 C 2540.95 0.159055 1.93849 0
M  V30 27015 O 2540.21 -0.844405 1.76545 0
M  V30 27016 C 2540.5 2.55102 2.50315 0
M  V30 27017 C 2540.17 3.99335 2.09387 0
M  V30 27018 C 2538.83 4.38604 1.97939 0
M  V30 27019 C 2541.18 4.8997 1.77704 0
M  V30 27020 C 2538.51 5.66384 1.53055 0
M  V30 27021 C 2540.86 6.1818 1.34301 0
M  V30 27022 C 2539.53 6.56363 1.21425 0
M  V30 27023 H 2538.8 0.552703 0.493558 0
M  V30 27024 H 2541.45 1.79564 0.665507 0
M  V30 27025 H 2539.75 2.20213 3.24058 0
M  V30 27026 H 2541.45 2.56137 3.08536 0
M  V30 27027 H 2538.04 3.68289 2.19229 0
M  V30 27028 H 2542.22 4.60355 1.85437 0
M  V30 27029 H 2537.48 5.94747 1.41723 0
M  V30 27030 H 2541.65 6.87843 1.08837 0
M  V30 27031 H 2539.28 7.55272 0.864212 0
M  V30 27032 N 2540.85 -0.834306 1.33705 0
M  V30 27033 C 2542.1 -1.5922 1.25606 0
M  V30 27034 C 2542.43 -1.93395 -0.176625 0
M  V30 27035 O 2541.71 -1.59078 -1.11913 0
M  V30 27036 C 2541.99 -2.89923 2.13581 0
M  V30 27037 C 2541.84 -2.624 3.6533 0
M  V30 27038 C 2543.16 -3.91393 2.01245 0
M  V30 27039 H 2540.28 -0.577711 0.457623 0
M  V30 27040 H 2542.92 -0.961943 1.6385 0
M  V30 27041 H 2541.07 -3.4371 1.81096 0
M  V30 27042 H 2542.75 -2.1501 4.08128 0
M  V30 27043 H 2540.99 -1.96026 3.86984 0
M  V30 27044 H 2541.66 -3.55554 4.22238 0
M  V30 27045 H 2544.14 -3.46925 2.29744 0
M  V30 27046 H 2543.01 -4.80669 2.65045 0
M  V30 27047 H 2543.27 -4.30964 0.986026 0
M  V30 27048 N 2542.33 -1.17248 -1.05312 0
M  V30 27049 C 2543.26 -0.9114 -2.14978 0
M  V30 27050 C 2544.24 0.146139 -1.69471 0
M  V30 27051 O 2545.43 -0.00384614 -1.942 0
M  V30 27052 C 2542.56 -0.422589 -3.44719 0
M  V30 27053 C 2541.51 -1.41917 -4.03786 0
M  V30 27054 C 2540.84 -0.788367 -5.28856 0
M  V30 27055 C 2542.14 -2.79198 -4.41413 0
M  V30 27056 H 2543.83 -1.82852 -2.37077 0
M  V30 27057 H 2541.38 -0.880589 -1.13937 0
M  V30 27058 H 2543.33 -0.227363 -4.20786 0
M  V30 27059 H 2542.05 0.530067 -3.2227 0
M  V30 27060 H 2540.71 -1.60112 -3.29787 0
M  V30 27061 H 2540.36 0.171085 -5.02709 0
M  V30 27062 H 2540.06 -1.45363 -5.69336 0
M  V30 27063 H 2541.59 -0.603389 -6.07611 0
M  V30 27064 H 2543 -2.64728 -5.08519 0
M  V30 27065 H 2541.4 -3.42291 -4.92907 0
M  V30 27066 H 2542.47 -3.337 -3.51813 0
M  V30 27067 N 2543.81 1.24015 -0.972531 0
M  V30 27068 C 2545.06 1.91522 -0.632636 0
M  V30 27069 C 2545.37 1.76806 0.83661 0
M  V30 27070 O 2546.58 2.39045 1.28723 0
M  V30 27071 C 2545.03 3.43286 -1.08088 0
M  V30 27072 C 2544.64 3.66679 -2.57392 0
M  V30 27073 C 2546.39 4.16615 -0.814362 0
M  V30 27074 C 2544.29 5.12038 -2.95924 0
M  V30 27075 H 2543.22 0.717125 -0.232911 0
M  V30 27076 H 2545.87 1.4058 -1.17938 0
M  V30 27077 H 2544.26 3.93291 -0.462409 0
M  V30 27078 H 2545.43 3.27253 -3.24411 0
M  V30 27079 H 2543.75 3.06644 -2.81706 0
M  V30 27080 H 2546.34 5.23717 -1.07819 0
M  V30 27081 H 2546.69 4.15552 0.249477 0
M  V30 27082 H 2547.22 3.72574 -1.39404 0
M  V30 27083 H 2543.96 5.18227 -4.01399 0
M  V30 27084 H 2543.48 5.52444 -2.33593 0
M  V30 27085 H 2545.16 5.80309 -2.86096 0
M  V30 27086 N 2545.29 0.743226 1.38974 0
M  V30 27087 C 2546.24 0.0978798 2.32394 0
M  V30 27088 C 2547.23 -0.716797 1.53487 0
M  V30 27089 O 2548.44 -0.617059 1.69093 0
M  V30 27090 H 2544.81 0.0128534 0.75189 0
M  V30 27091 H 2546.78 0.902031 2.8444 0
M  V30 27092 C 2545.53 -0.788977 3.3863 0
M  V30 27093 H 2544.85 -0.171489 3.99432 0
M  V30 27094 H 2546.29 -1.208 4.06428 0
M  V30 27095 C 2544.75 -1.92697 2.7635 0
M  V30 27096 O 2545.28 -3.0203 2.64841 0
M  V30 27097 N 2543.49 -1.71887 2.34314 0
M  V30 27098 H 2543.04 -0.829632 2.43875 0
M  V30 27099 H 2542.99 -2.48202 1.92985 0
M  V30 27100 N 2546.77 -1.4974 0.491491 0
M  V30 27101 C 2548.01 -2.02721 -0.0564735 0
M  V30 27102 C 2548.35 -1.37121 -1.37519 0
M  V30 27103 O 2547.62 -0.503678 -1.87865 0
M  V30 27104 C 2547.9 -3.59434 -0.218988 0
M  V30 27105 C 2547.76 -4.35577 1.12219 0
M  V30 27106 C 2549.08 -4.29411 -0.964081 0
M  V30 27107 H 2546.19 -0.736754 -0.0190497 0
M  V30 27108 H 2548.84 -1.78859 0.641053 0
M  V30 27109 H 2546.99 -3.79896 -0.813098 0
M  V30 27110 H 2548.66 -4.26634 1.75445 0
M  V30 27111 H 2546.9 -3.9851 1.71384 0
M  V30 27112 H 2547.57 -5.43555 0.961889 0
M  V30 27113 H 2550.05 -4.13546 -0.460305 0
M  V30 27114 H 2548.92 -5.38829 -1.04662 0
M  V30 27115 H 2549.19 -3.93992 -2.00556 0
M  V30 27116 N 2548.24 -0.224922 -1.55987 0
M  V30 27117 C 2549.49 0.406467 -1.98685 0
M  V30 27118 C 2549.82 1.59175 -1.11251 0
M  V30 27119 O 2549.1 1.93747 -0.170943 0
M  V30 27120 C 2549.38 0.837747 -3.5022 0
M  V30 27121 C 2549.23 -0.351411 -4.48425 0
M  V30 27122 C 2550.55 1.6927 -4.06246 0
M  V30 27123 H 2547.67 0.146271 -0.722339 0
M  V30 27124 H 2550.31 -0.321832 -1.87254 0
M  V30 27125 H 2548.46 1.45831 -3.60091 0
M  V30 27126 H 2550.14 -0.989605 -4.5056 0
M  V30 27127 H 2548.38 -0.998281 -4.22157 0
M  V30 27128 H 2549.05 -0.00665608 -5.52 0
M  V30 27129 H 2551.53 1.16907 -3.99339 0
M  V30 27130 H 2550.4 1.96337 -5.12585 0
M  V30 27131 H 2550.66 2.65717 -3.53337 0
M  V30 27132 N 2549.72 1.57526 0.0484352 0
M  V30 27133 C 2550.97 1.88652 0.744193 0
M  V30 27134 C 2551.3 0.820243 1.76027 0
M  V30 27135 O 2550.58 -0.166951 1.93782 0
M  V30 27136 C 2550.86 3.30436 1.43122 0
M  V30 27137 C 2550.71 4.4774 0.429971 0
M  V30 27138 C 2552.03 3.7082 2.37024 0
M  V30 27139 H 2549.15 0.686124 0.269077 0
M  V30 27140 H 2551.79 1.89999 0.00710192 0
M  V30 27141 H 2549.94 3.29419 2.0595 0
M  V30 27142 H 2551.61 4.60888 -0.194897 0
M  V30 27143 H 2549.86 4.33064 -0.252598 0
M  V30 27144 H 2550.53 5.43785 0.948778 0
M  V30 27145 H 2553 3.7308 1.84256 0
M  V30 27146 H 2551.88 4.7087 2.82086 0
M  V30 27147 H 2552.14 3.02018 3.22859 0
M  V30 27148 N 2551.2 -0.32033 1.5431 0
M  V30 27149 C 2552.16 -1.37736 1.83198 0
M  V30 27150 C 2553.16 -1.44573 0.703931 0
M  V30 27151 O 2554.35 -1.44545 0.97224 0
M  V30 27152 C 2551.49 -2.76434 1.99491 0
M  V30 27153 H 2552.68 -1.13375 2.77644 0
M  V30 27154 H 2550.23 -0.555986 1.46077 0
M  V30 27155 H 2550.97 -3.06046 1.07267 0
M  V30 27156 H 2550.75 -2.72865 2.8158 0
M  V30 27157 H 2552.24 -3.52898 2.23277 0
M  V30 27158 N 2552.68 -1.46438 -0.582558 0
M  V30 27159 C 2553.92 -1.5198 -1.34275 0
M  V30 27160 C 2554.26 -0.171007 -1.93446 0
M  V30 27161 O 2553.53 0.817577 -1.76482 0
M  V30 27162 C 2553.82 -2.61849 -2.47198 0
M  V30 27163 C 2553.67 -4.0626 -1.93062 0
M  V30 27164 C 2554.99 -2.67802 -3.49242 0
M  V30 27165 H 2552.11 -0.55329 -0.486866 0
M  V30 27166 H 2554.75 -1.78375 -0.654406 0
M  V30 27167 H 2552.9 -2.39474 -3.05916 0
M  V30 27168 H 2554.57 -4.39923 -1.388 0
M  V30 27169 H 2552.81 -4.15733 -1.2389 0
M  V30 27170 H 2553.48 -4.78865 -2.74577 0
M  V30 27171 H 2555.96 -2.87916 -3.00406 0
M  V30 27172 H 2554.84 -3.46496 -4.25713 0
M  V30 27173 H 2555.1 -1.73859 -4.06479 0
M  V30 27174 N 2554.16 0.827204 -1.34146 0
M  V30 27175 C 2555.09 1.95285 -1.28008 0
M  V30 27176 C 2556.07 1.69361 -0.15835 0
M  V30 27177 O 2557.25 1.9102 -0.35002 0
M  V30 27178 C 2554.38 3.31662 -1.03041 0
M  V30 27179 C 2553.34 3.72015 -2.11634 0
M  V30 27180 C 2552.66 5.06327 -1.71863 0
M  V30 27181 C 2553.96 3.84563 -3.53424 0
M  V30 27182 H 2555.66 2.00678 -2.22191 0
M  V30 27183 H 2553.2 0.964116 -1.06962 0
M  V30 27184 H 2555.16 4.09991 -0.973935 0
M  V30 27185 H 2553.88 3.26557 -0.0529965 0
M  V30 27186 H 2552.54 2.95958 -2.16344 0
M  V30 27187 H 2552.19 4.97705 -0.727929 0
M  V30 27188 H 2551.89 5.34297 -2.44541 0
M  V30 27189 H 2553.41 5.87119 -1.67702 0
M  V30 27190 H 2554.82 4.53174 -3.5115 0
M  V30 27191 H 2553.22 4.23983 -4.24687 0
M  V30 27192 H 2554.29 2.86682 -3.91077 0
M  V30 27193 N 2555.63 1.17805 1.04688 0
M  V30 27194 C 2556.57 0.842802 2.12066 0
M  V30 27195 C 2557.55 -0.192579 1.61456 0
M  V30 27196 O 2558.73 -0.0729619 1.88359 0
M  V30 27197 C 2555.86 0.258123 3.37715 0
M  V30 27198 C 2554.9 1.2697 4.07162 0
M  V30 27199 S 2555.74 2.82307 4.55042 0
M  V30 27200 C 2556.89 2.25333 5.83931 0
M  V30 27201 H 2557.12 1.75221 2.40177 0
M  V30 27202 H 2554.66 1.00325 1.17364 0
M  V30 27203 H 2556.62 -0.0727213 4.10436 0
M  V30 27204 H 2555.28 -0.629303 3.07731 0
M  V30 27205 H 2554.47 0.809351 4.97459 0
M  V30 27206 H 2554.07 1.54645 3.4053 0
M  V30 27207 H 2556.36 1.63204 6.57549 0
M  V30 27208 H 2557.31 3.13905 6.3472 0
M  V30 27209 H 2557.71 1.68591 5.38737 0
M  V30 27210 N 2557.11 -1.23497 0.979094 0
M  V30 27211 C 2558.06 -2.24913 0.517944 0
M  V30 27212 C 2559.03 -1.60097 -0.442496 0
M  V30 27213 O 2560.21 -1.87556 -0.350332 0
M  V30 27214 C 2557.35 -3.44657 -0.174753 0
M  V30 27215 C 2556.47 -4.24034 0.825795 0
M  V30 27216 C 2555.6 -5.3109 0.108039 0
M  V30 27217 C 2554.64 -6.02173 1.09789 0
M  V30 27218 N 2553.78 -7.00906 0.409374 0
M  V30 27219 H 2558.62 -2.63725 1.38756 0
M  V30 27220 H 2556.16 -1.29629 0.695326 0
M  V30 27221 H 2558.11 -4.12962 -0.59316 0
M  V30 27222 H 2556.74 -3.0665 -1.00825 0
M  V30 27223 H 2555.8 -3.55158 1.3626 0
M  V30 27224 H 2557.11 -4.7311 1.58013 0
M  V30 27225 H 2556.26 -6.05584 -0.367798 0
M  V30 27226 H 2555 -4.82951 -0.678909 0
M  V30 27227 H 2554.01 -5.26473 1.58449 0
M  V30 27228 H 2555.23 -6.52401 1.88548 0
M  V30 27229 H 2553.18 -6.5502 -0.35839 0
M  V30 27230 H 2553.09 -7.47919 1.10239 0
M  V30 27231 H 2554.36 -7.79488 -0.0441187 0
M  V30 27232 N 2558.59 -0.750586 -1.38578 0
M  V30 27233 C 2559.54 -0.0966349 -2.27795 0
M  V30 27234 C 2560.53 0.696386 -1.45049 0
M  V30 27235 O 2561.72 0.562834 -1.67813 0
M  V30 27236 C 2558.85 0.798026 -3.33896 0
M  V30 27237 C 2557.93 -0.00168124 -4.241 0
M  V30 27238 N 2558.32 -1.03656 -4.95065 0
M  V30 27239 C 2556.62 0.225596 -4.45429 0
M  V30 27240 C 2557.32 -1.52014 -5.61486 0
M  V30 27241 N 2556.3 -0.835968 -5.37134 0
M  V30 27242 H 2560.1 -0.889277 -2.80123 0
M  V30 27243 H 2557.61 -0.586349 -1.51445 0
M  V30 27244 H 2559.61 1.28212 -3.96695 0
M  V30 27245 H 2558.27 1.58965 -2.83126 0
M  V30 27246 H 2559.28 -1.41828 -4.98102 0
M  V30 27247 H 2555.96 0.990801 -4.05573 0
M  V30 27248 H 2557.35 -2.38199 -6.2826 0
M  V30 27249 N 2560.07 1.49477 -0.499425 0
M  V30 27250 C 2561 2.31943 0.269203 0
M  V30 27251 C 2561.98 1.40144 0.96403 0
M  V30 27252 O 2563.17 1.69054 0.955737 0
M  V30 27253 C 2560.3 3.20617 1.33499 0
M  V30 27254 C 2559.25 4.21196 0.760128 0
M  V30 27255 C 2558.58 4.98796 1.92631 0
M  V30 27256 C 2559.88 5.21712 -0.247753 0
M  V30 27257 H 2561.57 2.96452 -0.419134 0
M  V30 27258 H 2559.12 1.42562 -0.203013 0
M  V30 27259 H 2561.07 3.77119 1.88041 0
M  V30 27260 H 2559.79 2.54048 2.05249 0
M  V30 27261 H 2558.45 3.65837 0.236466 0
M  V30 27262 H 2558.1 4.28676 2.63146 0
M  V30 27263 H 2557.8 5.6685 1.54775 0
M  V30 27264 H 2559.32 5.58141 2.4761 0
M  V30 27265 H 2560.74 5.72917 0.209479 0
M  V30 27266 H 2559.13 5.97647 -0.542067 0
M  V30 27267 H 2560.2 4.70718 -1.16417 0
M  V30 27268 N 2561.55 0.233191 1.55865 0
M  V30 27269 C 2562.82 -0.444954 1.90472 0
M  V30 27270 C 2563.2 -1.76888 1.15212 0
M  V30 27271 O 2562.55 -2.26956 0.265159 0
M  V30 27272 C 2562.76 -0.626499 3.43331 0
M  V30 27273 C 2564.11 -0.928637 4.14321 0
M  V30 27274 O 2565.13 -0.712864 3.48994 0
M  V30 27275 O 2563.99 -1.33877 5.29848 0
M  V30 27276 H 2561.09 -0.236871 0.792351 0
M  V30 27277 H 2563.63 0.27624 1.67437 0
M  V30 27278 H 2562.41 0.306891 3.90095 0
M  V30 27279 H 2562.03 -1.39875 3.72184 0
M  V30 27280 N 2563.03 -1.57549 -0.0400806 0
M  V30 27281 C 2564.3 -1.79897 -0.767886 0
M  V30 27282 C 2564.68 -0.828594 -1.94159 0
M  V30 27283 O 2564.03 0.131631 -2.28121 0
M  V30 27284 C 2564.24 -3.27307 -1.21124 0
M  V30 27285 C 2565.59 -3.91997 -1.63168 0
M  V30 27286 O 2566.61 -3.3139 -1.3061 0
M  V30 27287 O 2565.47 -4.98683 -2.23557 0
M  V30 27288 H 2562.57 -0.7394 -0.370428 0
M  V30 27289 H 2565.11 -1.69691 -0.0177072 0
M  V30 27290 H 2563.88 -3.89519 -0.372869 0
M  V30 27291 H 2563.51 -3.4236 -2.02177 0
M  V30 27292 N 2564.5 0.312142 -1.54478 0
M  V30 27293 C 2565.73 1.07232 -1.77528 0
M  V30 27294 C 2566.15 1.80543 -0.527807 0
M  V30 27295 O 2565.51 1.73647 0.521179 0
M  V30 27296 C 2565.56 2.03723 -2.97539 0
M  V30 27297 O 2564.66 3.11828 -2.69884 0
M  V30 27298 H 2564 0.308609 -0.587925 0
M  V30 27299 H 2566.53 0.352957 -2.01533 0
M  V30 27300 H 2566.54 2.46389 -3.25202 0
M  V30 27301 H 2565.22 1.49767 -3.87998 0
M  V30 27302 H 2563.8 2.73755 -2.53204 0
M  V30 27303 N 2565.98 1.46745 0.574784 0
M  V30 27304 C 2566.93 1.58289 1.70433 0
M  V30 27305 C 2567.92 0.450985 1.63287 0
M  V30 27306 O 2569.13 0.62815 1.68684 0
M  V30 27307 H 2565.5 0.497819 0.563632 0
M  V30 27308 H 2567.48 2.53245 1.57828 0
M  V30 27309 C 2566.22 1.59781 3.08813 0
M  V30 27310 H 2565.55 2.4622 3.14985 0
M  V30 27311 H 2566.99 1.71912 3.87585 0
M  V30 27312 C 2565.45 0.327871 3.35301 0
M  V30 27313 O 2565.98 -0.57854 3.97512 0
M  V30 27314 N 2564.18 0.213325 2.89816 0
M  V30 27315 H 2563.73 0.95184 2.3937 0
M  V30 27316 H 2563.69 -0.635476 3.07911 0
M  V30 27317 N 2567.46 -0.820078 1.34583 0
M  V30 27318 C 2568.41 -1.93115 1.26393 0
M  V30 27319 C 2569.38 -1.65521 0.138583 0
M  V30 27320 O 2570.56 -1.88097 0.320037 0
M  V30 27321 C 2567.7 -3.29427 1.02818 0
M  V30 27322 C 2566.81 -3.69296 2.24153 0
M  V30 27323 C 2565.95 -4.94571 1.93838 0
M  V30 27324 C 2564.99 -5.27028 3.113 0
M  V30 27325 N 2564.13 -6.43481 2.80849 0
M  V30 27326 H 2568.97 -1.99451 2.21412 0
M  V30 27327 H 2566.5 -0.975765 1.10078 0
M  V30 27328 H 2568.46 -4.07988 0.87186 0
M  V30 27329 H 2567.09 -3.22596 0.114669 0
M  V30 27330 H 2566.14 -2.86105 2.50696 0
M  V30 27331 H 2567.45 -3.89251 3.11905 0
M  V30 27332 H 2566.61 -5.80926 1.74958 0
M  V30 27333 H 2565.35 -4.76624 1.03349 0
M  V30 27334 H 2564.35 -4.3917 3.30772 0
M  V30 27335 H 2565.58 -5.46913 4.0257 0
M  V30 27336 H 2563.52 -6.26985 1.9294 0
M  V30 27337 H 2563.44 -6.63622 3.62134 0
M  V30 27338 H 2564.71 -7.32899 2.6548 0
M  V30 27339 N 2568.94 -1.18359 -1.04062 0
M  V30 27340 C 2569.85 -0.925634 -2.15567 0
M  V30 27341 C 2570.86 0.110265 -1.7365 0
M  V30 27342 O 2572.04 -0.0716572 -2.01272 0
M  V30 27343 C 2569.1 -0.454897 -3.43703 0
M  V30 27344 C 2568.17 -1.55877 -4.00001 0
M  V30 27345 C 2567.4 -1.11039 -5.22021 0
M  V30 27346 O 2567.62 0.0308754 -5.70392 0
M  V30 27347 O 2566.56 -1.90815 -5.70853 0
M  V30 27348 H 2570.38 -1.85864 -2.40183 0
M  V30 27349 H 2567.97 -0.965414 -1.14018 0
M  V30 27350 H 2569.85 -0.200456 -4.20923 0
M  V30 27351 H 2568.52 0.449819 -3.20559 0
M  V30 27352 H 2567.43 -1.86722 -3.24169 0
M  V30 27353 H 2568.76 -2.43961 -4.27486 0
M  V30 27354 N 2570.42 1.22976 -0.98563 0
M  V30 27355 C 2571.38 2.22866 -0.53511 0
M  V30 27356 C 2572.38 1.56292 0.378096 0
M  V30 27357 O 2573.57 1.73358 0.171061 0
M  V30 27358 C 2570.7 3.40172 0.222642 0
M  V30 27359 H 2571.89 2.64238 -1.4184 0
M  V30 27360 H 2569.45 1.359 -0.772066 0
M  V30 27361 H 2570.18 3.04264 1.12224 0
M  V30 27362 H 2569.97 3.89702 -0.432948 0
M  V30 27363 H 2571.46 4.14271 0.526262 0
M  V30 27364 N 2571.89 0.757924 1.38178 0
M  V30 27365 C 2572.83 0.0932579 2.2901 0
M  V30 27366 C 2573.84 -0.67911 1.47959 0
M  V30 27367 O 2575.03 -0.519483 1.70774 0
M  V30 27368 C 2572.13 -0.891863 3.26954 0
M  V30 27369 C 2571.3 -0.176226 4.37045 0
M  V30 27370 C 2570.36 -1.07272 5.1515 0
M  V30 27371 O 2569.39 -0.541629 5.66617 0
M  V30 27372 N 2570.59 -2.4004 5.28546 0
M  V30 27373 H 2573.35 0.873354 2.86693 0
M  V30 27374 H 2570.91 0.60908 1.50006 0
M  V30 27375 H 2572.91 -1.49473 3.76085 0
M  V30 27376 H 2571.48 -1.57301 2.70139 0
M  V30 27377 H 2570.7 0.607397 3.89492 0
M  V30 27378 H 2571.98 0.318807 5.078 0
M  V30 27379 H 2571.38 -2.85639 4.8829 0
M  V30 27380 H 2569.94 -2.95366 5.81036 0
M  V30 27381 N 2573.37 -1.4921 0.507345 0
M  V30 27382 C 2574.28 -2.33017 -0.272095 0
M  V30 27383 C 2575.3 -1.45042 -0.961181 0
M  V30 27384 O 2576.47 -1.78057 -0.941159 0
M  V30 27385 C 2573.54 -3.20634 -1.3189 0
M  V30 27386 C 2572.6 -4.24464 -0.642574 0
M  V30 27387 C 2571.83 -5.07894 -1.6395 0
M  V30 27388 O 2572.06 -4.92938 -2.86999 0
M  V30 27389 O 2570.99 -5.89992 -1.19133 0
M  V30 27390 H 2574.82 -3.00864 0.414035 0
M  V30 27391 H 2572.4 -1.46966 0.268581 0
M  V30 27392 H 2574.28 -3.74894 -1.92439 0
M  V30 27393 H 2572.96 -2.55473 -1.98784 0
M  V30 27394 H 2571.87 -3.741 0.00282828 0
M  V30 27395 H 2573.2 -4.92197 -0.0159668 0
M  V30 27396 N 2574.85 -0.241454 -1.55739 0
M  V30 27397 C 2576.13 0.434847 -1.90705 0
M  V30 27398 C 2576.51 1.76275 -1.16148 0
M  V30 27399 O 2575.86 2.26812 -0.277191 0
M  V30 27400 C 2576.07 0.608282 -3.43658 0
M  V30 27401 C 2577.41 0.906652 -4.14807 0
M  V30 27402 O 2578.44 0.694346 -3.49367 0
M  V30 27403 O 2577.3 1.31065 -5.30551 0
M  V30 27404 H 2574.39 0.232666 -0.793597 0
M  V30 27405 H 2576.94 -0.285116 -1.67288 0
M  V30 27406 H 2575.71 -0.327574 -3.89926 0
M  V30 27407 H 2575.33 1.37899 -3.7292 0
M  V30 27408 N 2576.33 1.57568 0.0317248 0
M  V30 27409 C 2577.29 2.05362 1.0178 0
M  V30 27410 C 2578.29 0.957276 1.29201 0
M  V30 27411 O 2579.48 1.22098 1.24249 0
M  V30 27412 C 2576.61 2.46831 2.35133 0
M  V30 27413 H 2577.81 2.93734 0.60501 0
M  V30 27414 H 2575.36 1.53799 0.278487 0
M  V30 27415 H 2576.09 1.61607 2.81165 0
M  V30 27416 H 2575.88 3.2687 2.1656 0
M  V30 27417 H 2577.37 2.84244 3.05933 0
M  V30 27418 N 2577.81 -0.303946 1.54641 0
M  V30 27419 C 2578.72 -1.3974 1.88441 0
M  V30 27420 C 2579.73 -1.55625 0.778266 0
M  V30 27421 O 2580.91 -1.70345 1.07445 0
M  V30 27422 C 2577.97 -2.74162 2.12217 0
M  V30 27423 C 2577.03 -2.67287 3.35941 0
M  V30 27424 C 2576.27 -3.95298 3.58573 0
M  V30 27425 O 2576.49 -4.94515 2.84272 0
M  V30 27426 O 2575.42 -3.9737 4.52085 0
M  V30 27427 H 2579.25 -1.14078 2.8146 0
M  V30 27428 H 2576.84 -0.499744 1.40794 0
M  V30 27429 H 2578.72 -3.53699 2.29073 0
M  V30 27430 H 2577.39 -2.99673 1.22384 0
M  V30 27431 H 2576.3 -1.86232 3.24451 0
M  V30 27432 H 2577.63 -2.46729 4.25894 0
M  V30 27433 N 2579.28 -1.47047 -0.566994 0
M  V30 27434 C 2580.22 -1.53329 -1.69013 0
M  V30 27435 C 2581.2 -0.386153 -1.57948 0
M  V30 27436 O 2582.38 -0.59256 -1.78944 0
M  V30 27437 C 2579.51 -1.42663 -3.07189 0
M  V30 27438 C 2578.55 -2.61756 -3.36728 0
M  V30 27439 S 2579.39 -4.24018 -3.27061 0
M  V30 27440 C 2580.54 -4.15889 -4.67747 0
M  V30 27441 H 2580.77 -2.48351 -1.63429 0
M  V30 27442 H 2578.31 -1.35126 -0.747024 0
M  V30 27443 H 2580.27 -1.37197 -3.86894 0
M  V30 27444 H 2578.93 -0.490424 -3.10248 0
M  V30 27445 H 2578.12 -2.5033 -4.37437 0
M  V30 27446 H 2577.72 -2.64294 -2.64622 0
M  V30 27447 H 2580.01 -3.83539 -5.58484 0
M  V30 27448 H 2580.96 -5.1665 -4.8423 0
M  V30 27449 H 2581.36 -3.46897 -4.45335 0
M  V30 27450 N 2580.76 0.812929 -1.35016 0
M  V30 27451 C 2582.04 1.55615 -1.18504 0
M  V30 27452 C 2582.42 2.0975 0.238384 0
M  V30 27453 O 2581.77 1.91859 1.24106 0
M  V30 27454 C 2581.98 2.66967 -2.24788 0
M  V30 27455 C 2583.33 3.35474 -2.60274 0
M  V30 27456 O 2584.35 2.77232 -2.23653 0
M  V30 27457 O 2583.21 4.40673 -3.23218 0
M  V30 27458 H 2580.3 0.687264 -0.459996 0
M  V30 27459 H 2582.85 0.853438 -1.46678 0
M  V30 27460 H 2581.62 2.24792 -3.20288 0
M  V30 27461 H 2581.24 3.4488 -1.97847 0
M  V30 27462 N 2582.24 1.18909 1.03433 0
M  V30 27463 C 2583.2 0.923881 2.09755 0
M  V30 27464 C 2584.2 -0.0933878 1.60529 0
M  V30 27465 O 2585.39 0.140757 1.7363 0
M  V30 27466 C 2582.53 0.387413 3.38691 0
M  V30 27467 H 2583.72 1.86678 2.34716 0
M  V30 27468 H 2581.27 1.00199 1.19958 0
M  V30 27469 H 2582.01 -0.561789 3.19397 0
M  V30 27470 H 2581.79 1.12081 3.7574 0
M  V30 27471 H 2583.28 0.220767 4.17016 0
M  V30 27472 N 2583.72 -1.22452 0.992137 0
M  V30 27473 C 2584.63 -2.28045 0.55069 0
M  V30 27474 C 2585.64 -1.69336 -0.400159 0
M  V30 27475 O 2586.82 -1.9962 -0.26718 0
M  V30 27476 C 2583.89 -3.46462 -0.128435 0
M  V30 27477 C 2582.95 -4.20489 0.865281 0
M  V30 27478 C 2582.18 -5.33253 0.218471 0
M  V30 27479 O 2582.4 -5.61782 -0.987795 0
M  V30 27480 O 2581.34 -5.94782 0.922949 0
M  V30 27481 H 2585.16 -2.67972 1.42915 0
M  V30 27482 H 2582.75 -1.28604 0.760348 0
M  V30 27483 H 2584.63 -4.18316 -0.508874 0
M  V30 27484 H 2583.3 -3.08462 -0.981472 0
M  V30 27485 H 2582.21 -3.5091 1.29664 0
M  V30 27486 H 2583.54 -4.62368 1.6875 0
M  V30 27487 N 2585.2 -0.765242 -1.37774 0
M  V30 27488 C 2586.13 -0.160994 -2.32944 0
M  V30 27489 C 2587.11 0.690488 -1.55455 0
M  V30 27490 O 2588.29 0.629286 -1.83722 0
M  V30 27491 C 2585.42 0.723971 -3.3967 0
M  V30 27492 C 2584.38 -0.0256925 -4.27992 0
M  V30 27493 C 2583.7 0.97829 -5.25674 0
M  V30 27494 C 2585 -1.20091 -5.08306 0
M  V30 27495 H 2586.7 -0.956019 -2.83726 0
M  V30 27496 H 2584.24 -0.461173 -1.36416 0
M  V30 27497 H 2586.2 1.15645 -4.05221 0
M  V30 27498 H 2584.92 1.55144 -2.87398 0
M  V30 27499 H 2583.58 -0.438876 -3.63964 0
M  V30 27500 H 2583.23 1.80014 -4.69685 0
M  V30 27501 H 2582.93 0.481275 -5.85626 0
M  V30 27502 H 2584.45 1.40984 -5.94101 0
M  V30 27503 H 2585.86 -0.845407 -5.67032 0
M  V30 27504 H 2584.26 -1.62957 -5.77551 0
M  V30 27505 H 2585.33 -2.00819 -4.41361 0
M  V30 27506 N 2586.67 1.48939 -0.515251 0
M  V30 27507 C 2587.58 2.33158 0.259733 0
M  V30 27508 C 2588.6 1.4555 0.953475 0
M  V30 27509 O 2589.78 1.78553 0.931703 0
M  V30 27510 C 2586.84 3.21329 1.30187 0
M  V30 27511 C 2585.9 4.24799 0.620054 0
M  V30 27512 C 2585.14 5.08756 1.61254 0
M  V30 27513 O 2585.36 4.94453 2.84381 0
M  V30 27514 O 2584.29 5.90616 1.16003 0
M  V30 27515 H 2588.12 3.00641 -0.429984 0
M  V30 27516 H 2585.7 1.46821 -0.276372 0
M  V30 27517 H 2587.59 3.75909 1.90448 0
M  V30 27518 H 2586.26 2.56524 1.97426 0
M  V30 27519 H 2585.17 3.74093 -0.0226677 0
M  V30 27520 H 2586.5 4.92199 -0.0101358 0
M  V30 27521 N 2588.15 0.249709 1.55609 0
M  V30 27522 C 2589.08 -0.642787 2.24478 0
M  V30 27523 C 2590.06 -1.17909 1.22603 0
M  V30 27524 O 2591.25 -1.21792 1.51263 0
M  V30 27525 C 2588.38 -1.83858 2.94641 0
M  V30 27526 C 2587.33 -1.43493 4.03229 0
M  V30 27527 C 2586.66 -2.71178 4.60833 0
M  V30 27528 C 2587.96 -0.60391 5.18797 0
M  V30 27529 H 2589.65 -0.0685099 2.99322 0
M  V30 27530 H 2587.2 -0.031511 1.43966 0
M  V30 27531 H 2589.15 -2.46862 3.41522 0
M  V30 27532 H 2587.88 -2.43828 2.17291 0
M  V30 27533 H 2586.54 -0.828212 3.57122 0
M  V30 27534 H 2586.18 -3.29352 3.8018 0
M  V30 27535 H 2585.88 -2.44892 5.34137 0
M  V30 27536 H 2587.41 -3.35075 5.10448 0
M  V30 27537 H 2588.82 -1.13832 5.61885 0
M  V30 27538 H 2587.22 -0.436992 5.98507 0
M  V30 27539 H 2588.29 0.383232 4.83383 0
M  V30 27540 N 2589.63 -1.57583 -0.0233682 0
M  V30 27541 C 2590.54 -2.10336 -1.03904 0
M  V30 27542 C 2591.56 -1.04326 -1.39256 0
M  V30 27543 O 2592.73 -1.36094 -1.4846 0
M  V30 27544 C 2589.8 -2.57697 -2.31933 0
M  V30 27545 C 2588.86 -3.78213 -2.0311 0
M  V30 27546 C 2588.09 -4.23306 -3.25036 0
M  V30 27547 O 2588.32 -3.67884 -4.3591 0
M  V30 27548 O 2587.25 -5.15688 -3.10402 0
M  V30 27549 H 2591.08 -2.9729 -0.620695 0
M  V30 27550 H 2588.66 -1.47448 -0.240717 0
M  V30 27551 H 2590.54 -2.88464 -3.07191 0
M  V30 27552 H 2589.22 -1.73852 -2.73052 0
M  V30 27553 H 2588.12 -3.52456 -1.25402 0
M  V30 27554 H 2589.46 -4.63059 -1.66844 0
M  V30 27555 N 2591.11 0.29574 -1.548 0
M  V30 27556 C 2592.04 1.38969 -1.81005 0
M  V30 27557 C 2593.02 1.48533 -0.66157 0
M  V30 27558 O 2594.2 1.65512 -0.902103 0
M  V30 27559 C 2591.33 2.76832 -1.95146 0
M  V30 27560 C 2590.38 2.84665 -3.17597 0
M  V30 27561 S 2591.21 2.46224 -4.75536 0
M  V30 27562 C 2592.37 3.86105 -4.92619 0
M  V30 27563 H 2592.6 1.16533 -2.73509 0
M  V30 27564 H 2590.13 0.494142 -1.46279 0
M  V30 27565 H 2592.09 3.56235 -2.03978 0
M  V30 27566 H 2590.75 2.96533 -1.0357 0
M  V30 27567 H 2589.94 3.85797 -3.2431 0
M  V30 27568 H 2589.55 2.13262 -3.07238 0
M  V30 27569 H 2591.84 4.81155 -4.76965 0
M  V30 27570 H 2592.78 3.84359 -5.94705 0
M  V30 27571 H 2593.19 3.76352 -4.20737 0
M  V30 27572 N 2592.59 1.47346 0.559187 0
M  V30 27573 C 2593.55 1.59238 1.64851 0
M  V30 27574 C 2594.55 0.467634 1.5385 0
M  V30 27575 O 2595.74 0.732645 1.58044 0
M  V30 27576 C 2592.87 1.53501 3.04385 0
M  V30 27577 H 2594.07 2.56341 1.55657 0
M  V30 27578 H 2591.62 1.35507 0.778949 0
M  V30 27579 H 2592.35 0.57766 3.19114 0
M  V30 27580 H 2592.14 2.35128 3.13779 0
M  V30 27581 H 2593.63 1.64957 3.83639 0
M  V30 27582 N 2594.07 -0.805758 1.35445 0
M  V30 27583 C 2595.02 -1.90696 1.24976 0
M  V30 27584 C 2596 -1.60247 0.144835 0
M  V30 27585 O 2597.19 -1.72957 0.376133 0
M  V30 27586 C 2594.32 -3.27647 1.02481 0
M  V30 27587 C 2593.41 -3.6416 2.17367 0
M  V30 27588 N 2593.8 -3.72103 3.42597 0
M  V30 27589 C 2592.1 -3.9412 2.08772 0
M  V30 27590 C 2592.8 -4.04382 4.18151 0
M  V30 27591 N 2591.77 -4.18509 3.46917 0
M  V30 27592 H 2595.57 -1.9504 2.19855 0
M  V30 27593 H 2593.09 -1.00039 1.2793 0
M  V30 27594 H 2595.09 -4.06379 0.930688 0
M  V30 27595 H 2593.75 -3.24589 0.084858 0
M  V30 27596 H 2594.76 -3.5516 3.76938 0
M  V30 27597 H 2591.43 -3.99082 1.22637 0
M  V30 27598 H 2592.82 -4.17587 5.26375 0
M  V30 27599 N 2595.54 -1.19456 -1.02801 0
M  V30 27600 C 2596.79 -0.995753 -1.75867 0
M  V30 27601 C 2597.11 0.47451 -1.89139 0
M  V30 27602 O 2596.38 1.34363 -1.4256 0
M  V30 27603 H 2594.96 -0.365446 -0.651504 0
M  V30 27604 H 2597.62 -1.50365 -1.24001 0
M  V30 27605 H 2596.72 -1.44452 -2.76659 0
M  V30 27606 N 2597.02 1.21924 -0.998617 0
M  V30 27607 C 2597.95 2.26342 -0.573728 0
M  V30 27608 C 2598.93 1.65275 0.402267 0
M  V30 27609 O 2600.12 1.91998 0.291649 0
M  V30 27610 C 2597.25 3.47136 0.106778 0
M  V30 27611 C 2596.2 4.20677 -0.788342 0
M  V30 27612 C 2595.53 5.34694 0.0253987 0
M  V30 27613 C 2596.83 4.78752 -2.08792 0
M  V30 27614 H 2598.52 2.62136 -1.44655 0
M  V30 27615 H 2596.07 1.26008 -0.696998 0
M  V30 27616 H 2598.02 4.19347 0.415457 0
M  V30 27617 H 2596.74 3.10454 1.01419 0
M  V30 27618 H 2595.4 3.50308 -1.08075 0
M  V30 27619 H 2595.05 4.94254 0.933902 0
M  V30 27620 H 2594.75 5.84824 -0.57054 0
M  V30 27621 H 2596.28 6.09718 0.32804 0
M  V30 27622 H 2597.69 5.42875 -1.84282 0
M  V30 27623 H 2596.09 5.39244 -2.63317 0
M  V30 27624 H 2597.16 3.98486 -2.76291 0
M  V30 27625 N 2598.5 0.772537 1.37367 0
M  V30 27626 C 2599.75 0.336551 1.99278 0
M  V30 27627 C 2600.07 -1.09088 1.61632 0
M  V30 27628 O 2599.34 -1.74915 0.88214 0
M  V30 27629 H 2597.92 0.121448 0.737061 0
M  V30 27630 H 2600.58 0.990839 1.67834 0
M  V30 27631 H 2599.68 0.414818 3.09331 0
M  V30 27632 N 2599.98 -1.48664 0.523142 0
M  V30 27633 C 2601.39 -1.86525 0.0809325 0
M  V30 27634 C 2601.74 -1.43338 -1.33972 0
M  V30 27635 O 2600.86 -0.821044 -2.00219 0
M  V30 27636 C 2601.46 -3.3851 0.140096 0
M  V30 27637 C 2600.02 -3.75589 -0.246882 0
M  V30 27638 C 2599.17 -2.72702 0.502893 0
M  V30 27639 H 2602.12 -1.40666 0.734761 0
M  V30 27640 H 2602.14 -3.74909 -0.649879 0
M  V30 27641 H 2601.65 -3.69912 1.17418 0
M  V30 27642 H 2599.75 -3.49801 -1.28337 0
M  V30 27643 H 2599.86 -4.79019 0.0879701 0
M  V30 27644 H 2598.23 -2.54651 -0.0500134 0
M  V30 27645 H 2599.01 -3.06947 1.53748 0
M  V30 27646 N 2601.46 -0.257958 -1.55475 0
M  V30 27647 C 2602.7 0.362974 -1.98814 0
M  V30 27648 C 2603.02 1.57655 -1.1476 0
M  V30 27649 O 2602.29 1.9451 -0.23299 0
M  V30 27650 H 2600.87 0.1371 -0.734311 0
M  V30 27651 H 2603.54 -0.359314 -1.91559 0
M  V30 27652 H 2602.63 0.66458 -3.04942 0
M  V30 27653 N 2602.93 1.57593 0.0150108 0
M  V30 27654 C 2604.35 1.7811 0.559801 0
M  V30 27655 C 2604.7 0.890786 1.74813 0
M  V30 27656 O 2603.82 0.0892863 2.16216 0
M  V30 27657 C 2604.42 3.23008 1.02232 0
M  V30 27658 C 2602.98 3.44673 1.51252 0
M  V30 27659 C 2602.12 2.7351 0.456907 0
M  V30 27660 H 2605.07 1.57288 -0.211197 0
M  V30 27661 H 2605.09 3.30295 1.88906 0
M  V30 27662 H 2604.61 3.87781 0.157234 0
M  V30 27663 H 2602.71 2.85094 2.399 0
M  V30 27664 H 2602.82 4.53323 1.55034 0
M  V30 27665 H 2601.18 2.37691 0.915154 0
M  V30 27666 H 2601.97 3.40974 -0.398956 0
M  V30 27667 N 2604.41 -0.287527 1.54955 0
M  V30 27668 C 2605.83 -0.633938 1.4647 0
M  V30 27669 C 2606.03 -1.90144 0.666898 0
M  V30 27670 O 2605.08 -2.51858 0.17995 0
M  V30 27671 C 2606.4 -0.774402 2.90557 0
M  V30 27672 C 2607.95 -0.86941 3.00683 0
M  V30 27673 C 2608.42 -1.04177 4.45995 0
M  V30 27674 N 2609.91 -1.10764 4.49762 0
M  V30 27675 C 2610.65 -1.25954 5.59395 0
M  V30 27676 N 2610.14 -1.37956 6.78926 0
M  V30 27677 N 2611.94 -1.2895 5.47109 0
M  V30 27678 H 2604.09 0.545077 2.05287 0
M  V30 27679 H 2606.35 0.182325 0.930302 0
M  V30 27680 H 2606.06 0.0862688 3.51594 0
M  V30 27681 H 2605.93 -1.65924 3.38746 0
M  V30 27682 H 2608.32 -1.72056 2.39752 0
M  V30 27683 H 2608.4 0.0397281 2.55769 0
M  V30 27684 H 2608.04 -0.195333 5.07524 0
M  V30 27685 H 2607.97 -1.96533 4.88551 0
M  V30 27686 H 2610.46 -1.02788 3.63652 0
M  V30 27687 H 2610.78 -1.4934 7.58233 0
M  V30 27688 H 2609.12 -1.34987 6.81765 0
M  V30 27689 H 2612.31 -1.19194 4.5267 0
M  V30 27690 H 2612.48 -1.40444 6.32597 0
M  V30 27691 N 2605.89 -1.47641 -0.551365 0
M  V30 27692 C 2606.82 -1.63448 -1.66755 0
M  V30 27693 C 2607.8 -0.48377 -1.63076 0
M  V30 27694 O 2608.99 -0.713802 -1.80606 0
M  V30 27695 C 2606.12 -1.65401 -3.05384 0
M  V30 27696 C 2605.07 -2.79758 -3.23913 0
M  V30 27697 C 2604.4 -2.66787 -4.63388 0
M  V30 27698 C 2605.7 -4.21289 -3.08727 0
M  V30 27699 H 2607.39 -2.56888 -1.53781 0
M  V30 27700 H 2604.94 -1.23627 -0.738394 0
M  V30 27701 H 2606.89 -1.7505 -3.83322 0
M  V30 27702 H 2605.61 -0.685251 -3.1933 0
M  V30 27703 H 2604.27 -2.69629 -2.48386 0
M  V30 27704 H 2603.92 -1.67926 -4.74141 0
M  V30 27705 H 2603.62 -3.4351 -4.76734 0
M  V30 27706 H 2605.14 -2.78373 -5.43453 0
M  V30 27707 H 2606.56 -4.32364 -3.76476 0
M  V30 27708 H 2604.96 -4.98844 -3.33579 0
M  V30 27709 H 2606.03 -4.39247 -2.05402 0
M  V30 27710 N 2607.37 0.798563 -1.3587 0
M  V30 27711 C 2608.78 1.37312 -1.26501 0
M  V30 27712 C 2609.13 1.95949 0.0991554 0
M  V30 27713 O 2608.26 1.9189 1.00036 0
M  V30 27714 C 2608.85 2.49635 -2.29059 0
M  V30 27715 C 2607.41 3.02931 -2.23405 0
M  V30 27716 C 2606.56 1.75946 -2.14333 0
M  V30 27717 H 2609.51 0.600945 -1.46882 0
M  V30 27718 H 2609.53 3.28406 -1.92172 0
M  V30 27719 H 2609.04 2.06927 -3.28333 0
M  V30 27720 H 2607.14 3.50082 -1.27568 0
M  V30 27721 H 2607.25 3.60367 -3.1571 0
M  V30 27722 H 2605.62 1.97817 -1.60439 0
M  V30 27723 H 2606.4 1.35379 -3.1548 0
M  V30 27724 N 2608.85 1.19999 1.02166 0
M  V30 27725 C 2610.07 1.03252 1.79295 0
M  V30 27726 C 2610.49 -0.41847 1.84104 0
M  V30 27727 O 2609.85 -1.29061 1.29033 0
M  V30 27728 C 2609.9 1.60324 3.24004 0
M  V30 27729 O 2609.62 2.99745 3.19507 0
M  V30 27730 C 2611.12 1.4846 4.17701 0
M  V30 27731 H 2608.34 0.363502 0.56401 0
M  V30 27732 H 2610.88 1.58975 1.28636 0
M  V30 27733 H 2609.04 1.08733 3.71828 0
M  V30 27734 H 2609.45 3.26733 4.103 0
M  V30 27735 H 2610.93 1.93162 5.171 0
M  V30 27736 H 2611.4 0.436269 4.37028 0
M  V30 27737 H 2612.01 1.99217 3.75756 0
M  V30 27738 N 2610.32 -1.21392 1.00507 0
M  V30 27739 C 2611.57 -1.90085 0.686449 0
M  V30 27740 C 2611.89 -1.78491 -0.785233 0
M  V30 27741 O 2611.16 -1.17986 -1.56385 0
M  V30 27742 H 2609.74 -0.703599 0.250912 0
M  V30 27743 H 2612.41 -1.4748 1.27419 0
M  V30 27744 H 2611.5 -2.96979 0.959674 0
M  V30 27745 N 2611.8 -0.779811 -1.36955 0
M  V30 27746 C 2613.03 -0.35826 -2.04282 0
M  V30 27747 C 2613.45 1.01408 -1.58423 0
M  V30 27748 O 2612.81 1.65141 -0.748208 0
M  V30 27749 C 2612.86 -0.419542 -3.58151 0
M  V30 27750 O 2611.96 0.57707 -4.08343 0
M  V30 27751 H 2611.3 -0.15371 -0.645964 0
M  V30 27752 H 2613.83 -1.05825 -1.75106 0
M  V30 27753 H 2613.84 -0.279707 -4.0704 0
M  V30 27754 H 2612.52 -1.42068 -3.90883 0
M  V30 27755 H 2611.1 0.39969 -3.70752 0
M  V30 27756 N 2613.28 1.48384 -0.531019 0
M  V30 27757 C 2614.69 1.86479 -0.0908232 0
M  V30 27758 C 2615.04 1.44047 1.3321 0
M  V30 27759 O 2614.17 0.831651 1.99781 0
M  V30 27760 C 2614.76 3.38431 -0.158046 0
M  V30 27761 C 2613.32 3.75715 0.22696 0
M  V30 27762 C 2612.47 2.72431 -0.517348 0
M  V30 27763 H 2615.42 1.40274 -0.74221 0
M  V30 27764 H 2615.44 3.75248 0.629987 0
M  V30 27765 H 2614.95 3.69284 -1.19378 0
M  V30 27766 H 2613.05 3.50476 1.2648 0
M  V30 27767 H 2613.17 4.78966 -0.113372 0
M  V30 27768 H 2611.53 2.54674 0.0365079 0
M  V30 27769 H 2612.31 3.06127 -1.55374 0
M  V30 27770 N 2614.76 0.2662 1.55336 0
M  V30 27771 C 2616.01 -0.352425 1.99003 0
M  V30 27772 C 2616.33 -1.57045 1.15594 0
M  V30 27773 O 2615.6 -1.94383 0.243302 0
M  V30 27774 H 2614.18 -0.133204 0.735028 0
M  V30 27775 H 2616.84 0.369468 1.91366 0
M  V30 27776 H 2615.94 -0.648399 3.0529 0
M  V30 27777 N 2616.24 -1.57599 -0.0066531 0
M  V30 27778 C 2617.2 -2.06955 -0.984999 0
M  V30 27779 C 2618.2 -0.97771 -1.27662 0
M  V30 27780 O 2619.39 -1.24059 -1.22291 0
M  V30 27781 C 2616.52 -2.5054 -2.31176 0
M  V30 27782 H 2617.71 -2.94659 -0.558203 0
M  V30 27783 H 2615.27 -1.54223 -0.253984 0
M  V30 27784 H 2616 -1.66059 -2.78558 0
M  V30 27785 H 2615.79 -3.30274 -2.11333 0
M  V30 27786 H 2617.28 -2.89075 -3.01372 0
M  V30 27787 N 2617.72 0.279305 -1.55105 0
M  V30 27788 C 2619.13 0.850803 -1.66187 0
M  V30 27789 C 2619.48 1.87284 -0.58474 0
M  V30 27790 O 2618.6 2.14647 0.274882 0
M  V30 27791 C 2619.2 1.54996 -3.01267 0
M  V30 27792 C 2617.76 2.06957 -3.14397 0
M  V30 27793 C 2616.9 0.90949 -2.61961 0
M  V30 27794 H 2619.85 0.0557957 -1.58602 0
M  V30 27795 H 2619.88 2.41664 -2.93903 0
M  V30 27796 H 2619.39 0.805864 -3.79641 0
M  V30 27797 H 2617.49 2.84348 -2.40784 0
M  V30 27798 H 2617.6 2.28921 -4.20871 0
M  V30 27799 H 2615.97 1.30112 -2.18959 0
M  V30 27800 H 2616.75 0.179002 -3.42833 0
M  V30 27801 N 2619.19 1.47931 0.543528 0
M  V30 27802 C 2620.44 1.5495 1.29749 0
M  V30 27803 C 2620.76 0.219276 1.93763 0
M  V30 27804 O 2620.03 -0.758019 1.8064 0
M  V30 27805 H 2618.61 0.570803 0.481864 0
M  V30 27806 H 2621.27 1.84314 0.633604 0
M  V30 27807 H 2620.37 2.32338 2.08388 0
M  V30 27808 N 2620.67 -0.791347 1.36292 0
M  V30 27809 C 2622.09 -1.08912 1.16663 0
M  V30 27810 C 2622.29 -2.01497 -0.0105912 0
M  V30 27811 O 2621.34 -2.43267 -0.676553 0
M  V30 27812 C 2622.66 -1.70545 2.47659 0
M  V30 27813 C 2624.2 -1.82895 2.54005 0
M  V30 27814 C 2624.68 -2.47942 3.85083 0
M  V30 27815 N 2626.17 -2.55413 3.86418 0
M  V30 27816 C 2626.91 -3.06548 4.84578 0
M  V30 27817 N 2626.4 -3.58006 5.93131 0
M  V30 27818 N 2628.19 -3.05242 4.71999 0
M  V30 27819 H 2620.35 -0.176201 2.11668 0
M  V30 27820 H 2622.61 -0.140779 0.937489 0
M  V30 27821 H 2622.31 -1.09983 3.34061 0
M  V30 27822 H 2622.19 -2.70074 2.63324 0
M  V30 27823 H 2624.58 -2.42595 1.68022 0
M  V30 27824 H 2624.66 -0.821766 2.42241 0
M  V30 27825 H 2624.3 -1.88887 4.7147 0
M  V30 27826 H 2624.23 -3.49228 3.94141 0
M  V30 27827 H 2626.72 -2.18974 3.07992 0
M  V30 27828 H 2627.03 -3.95369 6.64005 0
M  V30 27829 H 2625.38 -3.56163 5.96802 0
M  V30 27830 H 2628.57 -2.64329 3.86326 0
M  V30 27831 H 2628.74 -3.44786 5.48659 0
M  V30 27832 N 2622.15 -1.2054 -1.01528 0
M  V30 27833 C 2623.4 -1.01435 -1.74801 0
M  V30 27834 C 2623.72 0.454423 -1.89631 0
M  V30 27835 O 2622.99 1.32843 -1.43977 0
M  V30 27836 H 2621.57 -0.372336 -0.647592 0
M  V30 27837 H 2624.23 -1.51672 -1.224 0
M  V30 27838 H 2623.33 -1.47378 -2.75111 0
M  V30 27839 N 2623.63 1.20858 -1.01149 0
M  V30 27840 C 2625.04 1.71827 -0.730235 0
M  V30 27841 C 2625.39 1.81232 0.751631 0
M  V30 27842 O 2624.51 1.47135 1.58683 0
M  V30 27843 C 2625.11 3.12074 -1.3189 0
M  V30 27844 C 2623.67 3.60374 -1.08662 0
M  V30 27845 C 2622.82 2.3772 -1.42774 0
M  V30 27846 H 2625.77 1.05943 -1.1816 0
M  V30 27847 H 2625.79 3.73877 -0.706859 0
M  V30 27848 H 2625.3 3.05197 -2.39742 0
M  V30 27849 H 2623.4 3.72591 -0.0255469 0
M  V30 27850 H 2623.51 4.4548 -1.76308 0
M  V30 27851 H 2621.88 2.40217 -0.846645 0
M  V30 27852 H 2622.66 2.33489 -2.5167 0
M  V30 27853 N 2625.11 0.787064 1.3654 0
M  V30 27854 C 2626.35 0.357668 1.9891 0
M  V30 27855 C 2626.67 -1.07368 1.6278 0
M  V30 27856 O 2625.94 -1.73969 0.900642 0
M  V30 27857 H 2624.52 0.129259 0.735732 0
M  V30 27858 H 2627.19 1.00858 1.66774 0
M  V30 27859 H 2626.28 0.447603 3.08874 0
M  V30 27860 N 2626.58 -1.48101 0.53888 0
M  V30 27861 C 2627.83 -2.02098 0.00802152 0
M  V30 27862 C 2628.15 -1.41741 -1.33919 0
M  V30 27863 O 2627.42 -0.585967 -1.86931 0
M  V30 27864 H 2626 -0.747 -2.30875e-05 0
M  V30 27865 H 2628.66 -1.81713 0.704732 0
M  V30 27866 H 2627.76 -3.11959 -0.0937124 0
M  V30 27867 N 2628.06 -0.274434 -1.55192 0
M  V30 27868 C 2629.02 0.60024 -2.21201 0
M  V30 27869 C 2630.02 1.08185 -1.18965 0
M  V30 27870 O 2631.21 0.982132 -1.43874 0
M  V30 27871 C 2628.35 1.82804 -2.87742 0
M  V30 27872 H 2629.54 0.0239155 -2.9989 0
M  V30 27873 H 2627.09 -0.0250467 -1.5628 0
M  V30 27874 H 2627.83 2.44489 -2.13062 0
M  V30 27875 H 2627.61 1.49063 -3.62661 0
M  V30 27876 H 2629.1 2.45005 -3.38175 0
M  V30 27877 N 2629.54 1.576 -0.00170483 0
M  V30 27878 C 2630.79 1.90265 0.681438 0
M  V30 27879 C 2631.11 0.875955 1.74218 0
M  V30 27880 O 2630.38 -0.0864068 1.95709 0
M  V30 27881 H 2628.96 0.702243 0.254683 0
M  V30 27882 H 2631.62 1.94852 -0.0430338 0
M  V30 27883 H 2630.72 2.90077 1.15161 0
M  V30 27884 N 2631.02 -0.271076 1.55251 0
M  V30 27885 C 2632.27 -1.00044 1.75601 0
M  V30 27886 C 2632.59 -1.86749 0.56122 0
M  V30 27887 O 2631.86 -1.91261 -0.423813 0
M  V30 27888 H 2630.44 -0.372376 0.647569 0
M  V30 27889 H 2633.1 -0.294843 1.92657 0
M  V30 27890 H 2632.19 -1.63626 2.65769 0
M  V30 27891 N 2632.5 -1.48217 -0.535675 0
M  V30 27892 C 2633.74 -1.55636 -1.28925 0
M  V30 27893 C 2634.07 -0.229548 -1.93644 0
M  V30 27894 O 2633.34 0.748428 -1.8104 0
M  V30 27895 H 2631.92 -0.573351 -0.47883 0
M  V30 27896 H 2634.58 -1.84647 -0.623821 0
M  V30 27897 H 2633.67 -2.3344 -2.07153 0
M  V30 27898 N 2633.97 0.784108 -1.3671 0
M  V30 27899 C 2635.22 1.53916 -1.30975 0
M  V30 27900 C 2635.54 1.94695 0.109051 0
M  V30 27901 O 2634.81 1.65355 1.05046 0
M  V30 27902 H 2633.39 0.570833 -0.481829 0
M  V30 27903 H 2636.06 0.933971 -1.71064 0
M  V30 27904 H 2635.15 2.44428 -1.94066 0
M  V30 27905 N 2635.45 1.21076 1.00888 0
M  V30 27906 C 2636.73 0.934499 1.71833 0
M  V30 27907 C 2637.11 -0.554717 2.03681 0
M  V30 27908 O 2636.46 -1.51851 1.70744 0
M  V30 27909 C 2636.67 1.81555 2.98058 0
M  V30 27910 C 2638.02 2.06206 3.71166 0
M  V30 27911 O 2639.04 1.78872 3.08031 0
M  V30 27912 O 2637.9 2.52412 4.84717 0
M  V30 27913 H 2634.99 0.350083 0.749247 0
M  V30 27914 H 2637.54 1.31987 1.06666 0
M  V30 27915 H 2636.31 2.8236 2.70903 0
M  V30 27916 H 2635.93 1.43075 3.70965 0
M  V30 27917 N 2636.93 -1.2032 1.01789 0
M  V30 27918 C 2638.16 -1.93698 0.727228 0
M  V30 27919 C 2638.57 -1.74849 -0.712275 0
M  V30 27920 O 2637.93 -1.06329 -1.48325 0
M  V30 27921 C 2637.98 -3.45762 1.05504 0
M  V30 27922 O 2637.7 -3.63996 2.438 0
M  V30 27923 C 2639.2 -4.36283 0.785611 0
M  V30 27924 H 2636.42 -0.615613 0.26695 0
M  V30 27925 H 2638.97 -1.52775 1.35941 0
M  V30 27926 H 2637.12 -3.8456 0.468225 0
M  V30 27927 H 2637.54 -4.57969 2.55664 0
M  V30 27928 H 2639.01 -5.41628 1.06504 0
M  V30 27929 H 2639.49 -4.38305 -0.280196 0
M  V30 27930 H 2640.09 -4.0315 1.35463 0
M  V30 27931 N 2638.41 -0.794293 -1.3612 0
M  V30 27932 C 2639.32 -0.197337 -2.33769 0
M  V30 27933 C 2640.33 0.653124 -1.61277 0
M  V30 27934 O 2641.51 0.567766 -1.93231 0
M  V30 27935 C 2638.58 0.654038 -3.40475 0
M  V30 27936 C 2637.64 -0.215487 -4.28759 0
M  V30 27937 C 2636.87 0.595349 -5.30369 0
M  V30 27938 O 2637.09 1.83098 -5.40214 0
M  V30 27939 O 2636.03 -0.00731931 -6.019 0
M  V30 27940 H 2639.85 -1.00483 -2.86595 0
M  V30 27941 H 2637.44 -0.555842 -1.38675 0
M  V30 27942 H 2639.32 1.13937 -4.05705 0
M  V30 27943 H 2637.99 1.43933 -2.89939 0
M  V30 27944 H 2636.9 -0.74768 -3.66552 0
M  V30 27945 H 2638.23 -0.964417 -4.82659 0
M  V30 27946 N 2639.89 1.47813 -0.546727 0
M  V30 27947 C 2641.13 2.02091 -0.0187392 0
M  V30 27948 C 2641.46 1.42449 1.33166 0
M  V30 27949 O 2640.73 0.595872 1.86618 0
M  V30 27950 H 2639.31 0.74699 -0.00393844 0
M  V30 27951 H 2641.97 1.81336 -0.714359 0
M  V30 27952 H 2641.06 3.12005 0.0771671 0
M  V30 27953 N 2641.36 0.28266 1.55044 0
M  V30 27954 C 2642.61 -0.331299 1.99366 0
M  V30 27955 C 2642.93 -1.5581 1.17253 0
M  V30 27956 O 2642.2 -1.94114 0.263905 0
M  V30 27957 H 2640.78 -0.125401 0.736399 0
M  V30 27958 H 2643.45 0.389744 1.90963 0
M  V30 27959 H 2642.54 -0.615982 3.05961 0
M  V30 27960 N 2642.84 -1.57597 0.0100627 0
M  V30 27961 C 2643.77 -2.12086 -0.97682 0
M  V30 27962 C 2644.75 -1.03237 -1.35189 0
M  V30 27963 O 2645.94 -1.30973 -1.43387 0
M  V30 27964 C 2643.07 -2.6324 -2.26544 0
M  V30 27965 C 2642.02 -3.76705 -2.03169 0
M  V30 27966 C 2641.35 -4.14212 -3.38131 0
M  V30 27967 C 2642.65 -5.0357 -1.38617 0
M  V30 27968 H 2644.34 -2.94795 -0.523093 0
M  V30 27969 H 2641.89 -1.4181 -0.25017 0
M  V30 27970 H 2643.84 -2.99989 -2.95947 0
M  V30 27971 H 2642.57 -1.77666 -2.74048 0
M  V30 27972 H 2641.22 -3.40365 -1.36189 0
M  V30 27973 H 2640.87 -3.25647 -3.83357 0
M  V30 27974 H 2640.57 -4.90662 -3.23303 0
M  V30 27975 H 2642.1 -4.53529 -4.08833 0
M  V30 27976 H 2643.51 -5.38026 -1.97991 0
M  V30 27977 H 2641.91 -5.84891 -1.34246 0
M  V30 27978 H 2642.98 -4.83587 -0.356637 0
M  V30 27979 N 2644.32 0.262839 -1.55393 0
M  V30 27980 C 2645.56 1.00061 -1.78233 0
M  V30 27981 C 2645.92 1.83125 -0.576998 0
M  V30 27982 O 2647.13 2.59956 -0.683854 0
M  V30 27983 C 2645.4 1.85148 -3.05704 0
M  V30 27984 S 2646.96 2.65052 -3.49704 0
M  V30 27985 H 2643.77 0.336845 -0.626144 0
M  V30 27986 H 2646.38 0.270016 -1.93626 0
M  V30 27987 H 2645.08 1.23068 -3.91513 0
M  V30 27988 H 2644.61 2.6251 -2.93005 0
M  V30 27989 H 2646.63 3.87623 -3.09779 0
M  V30 27990 N 2645.8 1.48499 0.527807 0
M  V30 27991 C 2647.21 1.34668 0.856548 0
M  V30 27992 C 2647.41 0.359345 1.9827 0
M  V30 27993 O 2646.47 -0.218658 2.51551 0
M  V30 27994 C 2647.78 2.74749 1.22202 0
M  V30 27995 C 2649.33 2.83254 1.33178 0
M  V30 27996 C 2649.81 4.24042 1.73068 0
M  V30 27997 N 2651.3 4.26725 1.80166 0
M  V30 27998 C 2652.03 5.32602 2.12421 0
M  V30 27999 N 2651.53 6.48754 2.43084 0
M  V30 28000 N 2653.32 5.19998 2.13445 0
M  V30 28001 H 2645.47 2.11307 -0.215211 0
M  V30 28002 H 2647.74 0.947403 -0.0336447 0
M  V30 28003 H 2647.44 3.48571 0.468134 0
M  V30 28004 H 2647.32 3.08413 2.17167 0
M  V30 28005 H 2649.7 2.09686 2.07643 0
M  V30 28006 H 2649.78 2.53207 0.363289 0
M  V30 28007 H 2649.43 4.98126 0.991625 0
M  V30 28008 H 2649.36 4.51533 2.70971 0
M  V30 28009 H 2651.85 3.42944 1.58738 0
M  V30 28010 H 2652.16 7.25282 2.66807 0
M  V30 28011 H 2650.51 6.52025 2.40599 0
M  V30 28012 H 2653.7 4.28271 1.88948 0
M  V30 28013 H 2653.87 6.02612 2.3825 0
M  V30 28014 N 2647.28 -0.776847 1.37123 0
M  V30 28015 C 2648.69 -1.07669 1.17812 0
M  V30 28016 C 2648.89 -2.01497 0.0107808 0
M  V30 28017 O 2647.95 -2.43971 -0.650714 0
M  V30 28018 C 2649.26 -1.67908 2.49454 0
M  V30 28019 C 2650.81 -1.80191 2.5593 0
M  V30 28020 C 2651.29 -2.43844 3.87691 0
M  V30 28021 N 2652.78 -2.513 3.89105 0
M  V30 28022 C 2653.51 -3.01392 4.87802 0
M  V30 28023 N 2653.01 -3.51695 5.96894 0
M  V30 28024 N 2654.8 -3.00219 4.7521 0
M  V30 28025 H 2646.95 -0.153741 2.11843 0
M  V30 28026 H 2649.21 -0.130828 0.938929 0
M  V30 28027 H 2648.92 -1.06433 3.35209 0
M  V30 28028 H 2648.79 -2.67266 2.66174 0
M  V30 28029 H 2651.18 -2.408 1.70586 0
M  V30 28030 H 2651.26 -0.796027 2.43099 0
M  V30 28031 H 2650.91 -1.83876 4.73447 0
M  V30 28032 H 2650.84 -3.45028 3.97823 0
M  V30 28033 H 2653.33 -2.15695 3.10297 0
M  V30 28034 H 2653.64 -3.88304 6.68162 0
M  V30 28035 H 2651.99 -3.49813 6.00546 0
M  V30 28036 H 2655.18 -2.60217 3.89108 0
M  V30 28037 H 2655.35 -3.38948 5.52285 0
M  V30 28038 N 2648.76 -1.2161 -1.00244 0
M  V30 28039 C 2650 -1.04634 -1.75588 0
M  V30 28040 C 2650.36 0.412615 -1.87514 0
M  V30 28041 O 2651.56 0.702957 -2.59445 0
M  V30 28042 C 2649.83 -1.72727 -3.1289 0
M  V30 28043 S 2651.39 -1.71041 -4.04092 0
M  V30 28044 H 2648.21 -0.374902 -0.604127 0
M  V30 28045 H 2650.81 -1.54397 -1.19925 0
M  V30 28046 H 2649.51 -2.78061 -3.01845 0
M  V30 28047 H 2649.05 -1.23155 -3.73626 0
M  V30 28048 H 2651.06 -0.753318 -4.90448 0
M  V30 28049 N 2650.23 1.19778 -1.02425 0
M  V30 28050 C 2651.46 1.9303 -0.736421 0
M  V30 28051 C 2651.87 1.75454 0.707992 0
M  V30 28052 O 2651.21 1.07074 1.49268 0
M  V30 28053 C 2651.28 3.45254 -1.00201 0
M  V30 28054 C 2650.94 3.86597 -2.43705 0
M  V30 28055 C 2651.94 3.91732 -3.41821 0
M  V30 28056 C 2649.62 4.18367 -2.77982 0
M  V30 28057 C 2651.62 4.28062 -4.72273 0
M  V30 28058 C 2649.3 4.54371 -4.08644 0
M  V30 28059 C 2650.3 4.59192 -5.056 0
M  V30 28060 O 2649.99 4.94365 -6.33923 0
M  V30 28061 H 2649.72 0.620118 -0.269127 0
M  V30 28062 H 2652.28 1.52995 -1.37046 0
M  V30 28063 H 2650.51 3.85449 -0.310815 0
M  V30 28064 H 2652.19 3.99738 -0.704558 0
M  V30 28065 H 2652.96 3.67343 -3.16677 0
M  V30 28066 H 2648.84 4.13802 -2.03198 0
M  V30 28067 H 2652.38 4.3174 -5.47947 0
M  V30 28068 H 2648.28 4.78218 -4.33564 0
M  V30 28069 H 2649.05 5.1233 -6.38326 0
M  V30 28070 N 2651.71 0.801501 1.35697 0
M  V30 28071 C 2652.94 0.390714 2.03686 0
M  V30 28072 C 2653.36 -0.98875 1.60017 0
M  V30 28073 O 2652.72 -1.6393 0.774386 0
M  V30 28074 C 2652.77 0.476467 3.57438 0
M  V30 28075 O 2651.87 -0.512034 4.09209 0
M  V30 28076 H 2651.21 0.163967 0.643437 0
M  V30 28077 H 2653.74 1.08597 1.73401 0
M  V30 28078 H 2653.75 0.344428 4.06544 0
M  V30 28079 H 2652.43 1.48268 3.88573 0
M  V30 28080 H 2651 -0.340656 3.71341 0
M  V30 28081 N 2653.19 -1.47521 0.554558 0
M  V30 28082 C 2654.6 -1.86311 0.120479 0
M  V30 28083 C 2654.95 -1.46148 -1.30902 0
M  V30 28084 O 2654.08 -0.863329 -1.98433 0
M  V30 28085 C 2654.67 -3.38137 0.211868 0
M  V30 28086 C 2653.23 -3.76029 -0.167158 0
M  V30 28087 C 2652.38 -2.71574 0.560624 0
M  V30 28088 H 2655.33 -1.39076 0.764433 0
M  V30 28089 H 2655.35 -3.76203 -0.570209 0
M  V30 28090 H 2654.86 -3.67338 1.25238 0
M  V30 28091 H 2652.96 -3.52444 -1.20888 0
M  V30 28092 H 2653.08 -4.78725 0.189557 0
M  V30 28093 H 2651.44 -2.547 0.00401313 0
M  V30 28094 H 2652.22 -3.03617 1.60224 0
M  V30 28095 N 2654.67 -0.290879 -1.54892 0
M  V30 28096 C 2655.63 0.576745 -2.21825 0
M  V30 28097 C 2656.63 1.06917 -1.20106 0
M  V30 28098 O 2657.82 0.966817 -1.44908 0
M  V30 28099 C 2654.95 1.79742 -2.89665 0
M  V30 28100 H 2656.15 -0.00789323 -2.99899 0
M  V30 28101 H 2653.7 -0.0416208 -1.56245 0
M  V30 28102 H 2654.43 2.42215 -2.15644 0
M  V30 28103 H 2654.22 1.45208 -3.64221 0
M  V30 28104 H 2655.71 2.41404 -3.40755 0
M  V30 28105 N 2656.15 1.57589 -0.0184203 0
M  V30 28106 C 2657.08 2.06451 0.99552 0
M  V30 28107 C 2658.09 0.985871 1.29555 0
M  V30 28108 O 2659.28 1.26229 1.26208 0
M  V30 28109 C 2656.38 2.46506 2.32568 0
M  V30 28110 C 2655.55 3.77323 2.21238 0
M  V30 28111 C 2654.61 4.04045 3.37097 0
M  V30 28112 O 2653.64 4.74451 3.1446 0
M  V30 28113 N 2654.84 3.5338 4.60547 0
M  V30 28114 H 2657.6 2.9406 0.578694 0
M  V30 28115 H 2655.17 1.6102 0.168575 0
M  V30 28116 H 2657.16 2.61483 3.08883 0
M  V30 28117 H 2655.73 1.6432 2.65928 0
M  V30 28118 H 2654.95 3.72246 1.29717 0
M  V30 28119 H 2656.24 4.6305 2.1086 0
M  V30 28120 H 2655.63 2.964 4.81834 0
M  V30 28121 H 2654.19 3.73654 5.34066 0
M  V30 28122 N 2657.62 -0.254594 1.5553 0
M  V30 28123 C 2658.53 -1.33674 1.92791 0
M  V30 28124 C 2659.55 -1.5307 0.827383 0
M  V30 28125 O 2660.73 -1.66841 1.1281 0
M  V30 28126 C 2657.79 -2.67272 2.20832 0
M  V30 28127 C 2656.85 -2.56464 3.44274 0
M  V30 28128 C 2656.08 -3.83691 3.70968 0
M  V30 28129 O 2656.31 -4.85221 2.99861 0
M  V30 28130 O 2655.24 -3.82786 4.64498 0
M  V30 28131 H 2659.07 -1.05066 2.84947 0
M  V30 28132 H 2656.65 -0.454698 1.42313 0
M  V30 28133 H 2658.53 -3.46233 2.4021 0
M  V30 28134 H 2657.21 -2.95627 1.31856 0
M  V30 28135 H 2656.12 -1.75815 3.30212 0
M  V30 28136 H 2657.45 -2.33055 4.33528 0
M  V30 28137 N 2659.1 -1.48777 -0.519925 0
M  V30 28138 C 2660.05 -1.64506 -1.6444 0
M  V30 28139 C 2661.04 -0.511277 -1.615 0
M  V30 28140 O 2662.25 -0.690324 -1.66236 0
M  V30 28141 H 2658.62 -0.518394 -0.544767 0
M  V30 28142 H 2660.6 -2.58928 -1.48321 0
M  V30 28143 C 2659.34 -1.71132 -3.0267 0
M  V30 28144 H 2658.67 -2.57741 -3.0563 0
M  V30 28145 H 2660.11 -1.86179 -3.80938 0
M  V30 28146 C 2658.57 -0.45209 -3.33853 0
M  V30 28147 O 2659.1 0.430608 -3.99385 0
M  V30 28148 N 2657.3 -0.320741 -2.88825 0
M  V30 28149 H 2656.85 -1.04003 -2.35672 0
M  V30 28150 H 2656.81 0.520759 -3.10057 0
M  V30 28151 N 2660.58 0.769564 -1.37534 0
M  V30 28152 C 2661.51 1.8968 -1.36176 0
M  V30 28153 C 2662.49 1.68537 -0.23004 0
M  V30 28154 O 2663.68 1.89363 -0.430723 0
M  V30 28155 C 2660.81 3.26993 -1.17016 0
M  V30 28156 C 2659.76 3.62704 -2.27222 0
M  V30 28157 C 2659.09 4.98582 -1.93183 0
M  V30 28158 C 2660.39 3.69228 -3.69416 0
M  V30 28159 H 2662.08 1.91074 -2.30502 0
M  V30 28160 H 2659.63 0.917882 -1.10955 0
M  V30 28161 H 2661.58 4.05491 -1.14695 0
M  V30 28162 H 2660.3 3.26038 -0.191453 0
M  V30 28163 H 2658.96 2.86515 -2.28702 0
M  V30 28164 H 2658.61 4.9417 -0.938368 0
M  V30 28165 H 2658.31 5.23445 -2.66982 0
M  V30 28166 H 2659.83 5.79477 -1.92453 0
M  V30 28167 H 2661.25 4.37873 -3.70055 0
M  V30 28168 H 2659.64 4.05589 -4.42287 0
M  V30 28169 H 2660.71 2.69837 -4.02885 0
M  V30 28170 N 2662.06 1.22139 0.995977 0
M  V30 28171 C 2663.3 1.0557 1.73858 0
M  V30 28172 C 2663.66 -0.405385 1.88081 0
M  V30 28173 O 2662.95 -1.29658 1.41065 0
M  V30 28174 C 2663.15 1.69685 3.1455 0
M  V30 28175 C 2662.98 3.21877 3.14047 0
M  V30 28176 C 2661.75 3.90966 3.20115 0
M  V30 28177 C 2663.94 4.18851 2.98444 0
M  V30 28178 N 2661.93 5.3027 3.09333 0
M  V30 28179 C 2663.3 5.44965 2.95657 0
M  V30 28180 C 2665.35 4.09782 2.82812 0
M  V30 28181 C 2664.05 6.63054 2.7884 0
M  V30 28182 C 2666.08 5.27518 2.67355 0
M  V30 28183 C 2665.44 6.52549 2.65253 0
M  V30 28184 H 2661.54 0.440717 0.645982 0
M  V30 28185 H 2664.13 1.54633 1.18308 0
M  V30 28186 H 2662.3 1.23176 3.68351 0
M  V30 28187 H 2664.03 1.46236 3.77355 0
M  V30 28188 H 2660.78 3.41946 3.27673 0
M  V30 28189 H 2661.21 6.03258 3.0726 0
M  V30 28190 H 2665.85 3.13905 2.83238 0
M  V30 28191 H 2663.57 7.59083 2.77161 0
M  V30 28192 H 2667.15 5.2233 2.56247 0
M  V30 28193 H 2666.03 7.42118 2.53437 0
M  V30 28194 N 2663.54 -1.19233 1.03059 0
M  V30 28195 C 2664.47 -2.24741 0.633537 0
M  V30 28196 C 2665.45 -1.66283 -0.358306 0
M  V30 28197 O 2666.63 -1.92703 -0.240642 0
M  V30 28198 C 2663.76 -3.47297 -0.0147038 0
M  V30 28199 C 2662.72 -4.18439 0.8996 0
M  V30 28200 C 2662.04 -5.34573 0.116375 0
M  V30 28201 C 2663.34 -4.73048 2.21412 0
M  V30 28202 H 2665.04 -2.58208 1.51555 0
M  V30 28203 H 2662.58 -1.24115 0.730161 0
M  V30 28204 H 2664.54 -4.20301 -0.304128 0
M  V30 28205 H 2663.26 -3.13034 -0.931522 0
M  V30 28206 H 2661.92 -3.47319 1.17325 0
M  V30 28207 H 2661.57 -4.96557 -0.802531 0
M  V30 28208 H 2661.27 -5.83105 0.725395 0
M  V30 28209 H 2662.79 -6.10374 -0.166269 0
M  V30 28210 H 2664.2 -5.37798 1.9861 0
M  V30 28211 H 2662.6 -5.32073 2.77521 0
M  V30 28212 H 2663.67 -3.91021 2.86759 0
M  V30 28213 N 2665.01 -0.808686 -1.3527 0
M  V30 28214 C 2666.29 -0.313215 -1.93076 0
M  V30 28215 C 2666.67 1.19749 -1.73849 0
M  V30 28216 O 2666.02 1.99798 -1.10874 0
M  V30 28217 C 2666.23 -0.726919 -3.41346 0
M  V30 28218 C 2667.58 -0.717606 -4.18492 0
M  V30 28219 O 2668.6 -0.668596 -3.49869 0
M  V30 28220 O 2667.46 -0.777874 -5.40936 0
M  V30 28221 H 2664.55 -0.0824162 -0.822883 0
M  V30 28222 H 2667.1 -0.892524 -1.44333 0
M  V30 28223 H 2665.87 -1.76804 -3.49079 0
M  V30 28224 H 2665.5 -0.122531 -3.97411 0
M  V30 28225 N 2666.49 1.47225 -0.562374 0
M  V30 28226 C 2667.72 2.07355 -0.0432997 0
M  V30 28227 C 2668.14 1.41151 1.2433 0
M  V30 28228 O 2667.5 0.488257 1.74602 0
M  V30 28229 C 2667.55 3.60365 0.130224 0
M  V30 28230 O 2666.65 3.9481 1.1916 0
M  V30 28231 H 2665.99 0.661829 -0.0536451 0
M  V30 28232 H 2668.52 1.89168 -0.779528 0
M  V30 28233 H 2668.53 4.06557 0.342809 0
M  V30 28234 H 2667.21 4.07947 -0.809461 0
M  V30 28235 H 2665.79 3.60355 0.95909 0
M  V30 28236 N 2667.97 0.299089 1.54736 0
M  V30 28237 C 2669.22 -0.311209 2.00398 0
M  V30 28238 C 2669.55 -1.53686 1.18719 0
M  V30 28239 O 2668.82 -1.92711 0.263188 0
M  V30 28240 C 2669.11 -0.669698 3.53818 0
M  V30 28241 C 2668.96 0.564961 4.46238 0
M  V30 28242 C 2670.28 -1.49695 4.13859 0
M  V30 28243 H 2667.4 -0.11164 0.728495 0
M  V30 28244 H 2670.04 0.410807 1.85506 0
M  V30 28245 H 2668.19 -1.28484 3.66639 0
M  V30 28246 H 2669.86 1.20345 4.45326 0
M  V30 28247 H 2668.11 1.19856 4.16914 0
M  V30 28248 H 2668.78 0.270015 5.51339 0
M  V30 28249 H 2671.25 -0.977213 4.04462 0
M  V30 28250 H 2670.13 -1.71657 5.21368 0
M  V30 28251 H 2670.39 -2.48556 3.65612 0
M  V30 28252 N 2669.45 -1.57577 0.0267774 0
M  V30 28253 C 2670.67 -1.96409 -0.666193 0
M  V30 28254 C 2671.1 -0.9031 -1.65002 0
M  V30 28255 O 2670.46 0.136231 -1.80787 0
M  V30 28256 C 2670.5 -3.34338 -1.35095 0
M  V30 28257 O 2669.61 -3.30536 -2.46617 0
M  V30 28258 H 2668.95 -0.640471 -0.175194 0
M  V30 28259 H 2671.48 -2.04411 0.0879336 0
M  V30 28260 H 2671.49 -3.70516 -1.70828 0
M  V30 28261 H 2670.16 -4.11104 -0.629771 0
M  V30 28262 H 2668.74 -3.06072 -2.13013 0
M  V30 28263 N 2670.93 0.246342 -1.55663 0
M  V30 28264 C 2671.86 1.3087 -1.93379 0
M  V30 28265 C 2672.84 1.50177 -0.798799 0
M  V30 28266 O 2674.02 1.62776 -1.05913 0
M  V30 28267 C 2671.15 2.66334 -2.22897 0
M  V30 28268 C 2670.11 2.61721 -3.38653 0
M  V30 28269 C 2669.43 4.00986 -3.53715 0
M  V30 28270 C 2670.73 2.18658 -4.74327 0
M  V30 28271 H 2672.43 0.995502 -2.82365 0
M  V30 28272 H 2669.97 0.47744 -1.35855 0
M  V30 28273 H 2671.93 3.4079 -2.47872 0
M  V30 28274 H 2670.65 2.99291 -1.30738 0
M  V30 28275 H 2669.31 1.89723 -3.13689 0
M  V30 28276 H 2668.96 4.31209 -2.58975 0
M  V30 28277 H 2668.66 3.98787 -4.31558 0
M  V30 28278 H 2670.18 4.7714 -3.81011 0
M  V30 28279 H 2671.59 2.82845 -4.9867 0
M  V30 28280 H 2669.99 2.27569 -5.55277 0
M  V30 28281 H 2671.06 1.13826 -4.71351 0
M  V30 28282 N 2672.4 1.4905 0.512027 0
M  V30 28283 C 2673.65 1.57229 1.2634 0
M  V30 28284 C 2673.97 0.259189 1.93875 0
M  V30 28285 O 2675.17 0.219405 2.70612 0
M  V30 28286 C 2673.63 2.77366 2.29338 0
M  V30 28287 C 2673.24 4.15391 1.67792 0
M  V30 28288 C 2674.98 2.94869 3.05373 0
M  V30 28289 C 2672.89 5.26765 2.68836 0
M  V30 28290 H 2671.82 0.58539 0.475221 0
M  V30 28291 H 2674.47 1.75418 0.53859 0
M  V30 28292 H 2672.85 2.52649 3.04934 0
M  V30 28293 H 2674.02 4.50201 0.982636 0
M  V30 28294 H 2672.34 4.03155 1.04187 0
M  V30 28295 H 2674.94 3.75245 3.80914 0
M  V30 28296 H 2675.28 2.05006 3.62323 0
M  V30 28297 H 2675.81 3.19573 2.36892 0
M  V30 28298 H 2672.55 6.18651 2.16681 0
M  V30 28299 H 2672.07 4.96422 3.36638 0
M  V30 28300 H 2673.75 5.55636 3.31478 0
M  V30 28301 N 2673.88 -0.762259 1.3794 0
M  V30 28302 C 2675.13 -1.51645 1.32991 0
M  V30 28303 C 2675.44 -1.95435 -0.0802578 0
M  V30 28304 O 2676.65 -2.70326 -0.252248 0
M  V30 28305 C 2675.11 -2.73881 2.3349 0
M  V30 28306 C 2674.71 -2.37151 3.80084 0
M  V30 28307 C 2676.46 -3.51797 2.37569 0
M  V30 28308 C 2674.37 -3.55945 4.72289 0
M  V30 28309 H 2673.3 -0.569362 0.494311 0
M  V30 28310 H 2675.95 -0.834054 1.6345 0
M  V30 28311 H 2674.33 -3.44058 1.96062 0
M  V30 28312 H 2675.5 -1.74696 4.26401 0
M  V30 28313 H 2673.82 -1.72388 3.7904 0
M  V30 28314 H 2676.41 -4.40109 3.03658 0
M  V30 28315 H 2676.76 -3.92336 1.39206 0
M  V30 28316 H 2677.29 -2.88625 2.73752 0
M  V30 28317 H 2674.03 -3.2048 5.71815 0
M  V30 28318 H 2673.55 -4.17473 4.3067 0
M  V30 28319 H 2675.23 -4.22638 4.89884 0
M  V30 28320 N 2675.36 -1.22666 -0.989486 0
M  V30 28321 C 2676.31 -0.999769 -2.08022 0
M  V30 28322 C 2677.28 0.0796755 -1.65909 0
M  V30 28323 O 2678.46 -0.070605 -1.90669 0
M  V30 28324 C 2675.6 -0.587294 -3.40066 0
M  V30 28325 C 2674.72 -1.73788 -3.95502 0
M  V30 28326 C 2673.85 -1.27306 -5.15719 0
M  V30 28327 C 2672.89 -2.39497 -5.633 0
M  V30 28328 N 2672.03 -1.94038 -6.74754 0
M  V30 28329 H 2676.87 -1.93344 -2.26764 0
M  V30 28330 H 2674.4 -0.963317 -1.11169 0
M  V30 28331 H 2676.36 -0.3293 -4.15898 0
M  V30 28332 H 2674.99 0.30937 -3.21314 0
M  V30 28333 H 2674.04 -2.11011 -3.1651 0
M  V30 28334 H 2675.36 -2.58166 -4.26792 0
M  V30 28335 H 2674.51 -0.972652 -5.98853 0
M  V30 28336 H 2673.25 -0.39953 -4.86061 0
M  V30 28337 H 2672.25 -2.70323 -4.78754 0
M  V30 28338 H 2673.48 -3.27372 -5.94983 0
M  V30 28339 H 2671.42 -1.09052 -6.46872 0
M  V30 28340 H 2671.34 -2.7198 -7.05381 0
M  V30 28341 H 2672.61 -1.67076 -7.61384 0
M  V30 28342 N 2676.84 1.18685 -1.0369 0
M  V30 28343 C 2678.12 1.84398 -0.652429 0
M  V30 28344 C 2678.5 1.92413 0.868352 0
M  V30 28345 O 2677.84 1.44719 1.7683 0
M  V30 28346 C 2678.05 3.22917 -1.32385 0
M  V30 28347 C 2679.4 3.98993 -1.45223 0
M  V30 28348 O 2680.43 3.32343 -1.28166 0
M  V30 28349 O 2679.29 5.184 -1.72984 0
M  V30 28350 H 2676.38 0.795005 -0.227806 0
M  V30 28351 H 2678.93 1.26108 -1.13555 0
M  V30 28352 H 2677.7 3.11964 -2.36208 0
M  V30 28353 H 2677.32 3.88859 -0.829107 0
M  V30 28354 N 2678.32 0.815849 1.34839 0
M  V30 28355 C 2679.54 0.412296 2.03261 0
M  V30 28356 C 2679.97 -0.971723 1.61056 0
M  V30 28357 O 2679.33 -1.63099 0.791729 0
M  V30 28358 C 2679.37 0.514351 3.56913 0
M  V30 28359 O 2678.48 -0.468603 4.09729 0
M  V30 28360 H 2677.82 0.170782 0.641661 0
M  V30 28361 H 2680.35 1.1043 1.72239 0
M  V30 28362 H 2680.36 0.387528 4.06155 0
M  V30 28363 H 2679.03 1.52381 3.86979 0
M  V30 28364 H 2677.61 -0.301251 3.71681 0
M  V30 28365 N 2679.8 -1.46924 0.570174 0
M  V30 28366 C 2680.73 -2.32963 -0.158233 0
M  V30 28367 C 2681.71 -1.44584 -0.896067 0
M  V30 28368 O 2682.89 -1.73422 -0.873991 0
M  V30 28369 C 2680.02 -3.26621 -1.1805 0
M  V30 28370 C 2678.98 -4.24343 -0.558305 0
M  V30 28371 C 2678.3 -5.07418 -1.68614 0
M  V30 28372 C 2679.6 -5.19936 0.496386 0
M  V30 28373 H 2681.3 -2.94114 0.560098 0
M  V30 28374 H 2678.84 -1.41431 0.2708 0
M  V30 28375 H 2680.79 -3.85661 -1.69834 0
M  V30 28376 H 2679.52 -2.63552 -1.92894 0
M  V30 28377 H 2678.18 -3.66548 -0.0616513 0
M  V30 28378 H 2677.83 -4.40743 -2.42394 0
M  V30 28379 H 2677.53 -5.73589 -1.27554 0
M  V30 28380 H 2679.05 -5.69319 -2.20699 0
M  V30 28381 H 2680.46 -5.73264 0.064106 0
M  V30 28382 H 2678.86 -5.9438 0.826595 0
M  V30 28383 H 2679.93 -4.64627 1.38743 0
M  V30 28384 N 2681.27 -0.307291 -1.54575 0
M  V30 28385 C 2682.18 0.57532 -2.27436 0
M  V30 28386 C 2683.2 1.14309 -1.31185 0
M  V30 28387 O 2684.38 1.16653 -1.64177 0
M  V30 28388 C 2681.44 1.72798 -3.00569 0
M  V30 28389 C 2680.5 1.19366 -4.12371 0
M  V30 28390 C 2679.73 2.29139 -4.82007 0
M  V30 28391 O 2679.96 3.49164 -4.51044 0
M  V30 28392 O 2678.89 1.95475 -5.69274 0
M  V30 28393 H 2682.72 -0.0159092 -3.03696 0
M  V30 28394 H 2680.3 -0.0735326 -1.49219 0
M  V30 28395 H 2682.18 2.3994 -3.4642 0
M  V30 28396 H 2680.86 2.3057 -2.27199 0
M  V30 28397 H 2679.77 0.487786 -3.70906 0
M  V30 28398 H 2681.1 0.66129 -4.87737 0
M  V30 28399 N 2682.75 1.57561 -0.0351337 0
M  V30 28400 C 2684 1.91668 0.640926 0
M  V30 28401 C 2684.32 0.912712 1.72321 0
M  V30 28402 O 2683.59 -0.0448745 1.95849 0
M  V30 28403 H 2682.17 0.707487 0.23973 0
M  V30 28404 H 2684.83 1.94717 -0.0843552 0
M  V30 28405 H 2683.93 2.92454 1.08982 0
M  V30 28406 N 2684.23 -0.238084 1.55791 0
M  V30 28407 C 2685.14 -1.31621 1.94198 0
M  V30 28408 C 2686.16 -1.52184 0.843572 0
M  V30 28409 O 2687.33 -1.65635 1.14573 0
M  V30 28410 C 2684.4 -2.64914 2.23654 0
M  V30 28411 C 2683.46 -2.52798 3.46975 0
M  V30 28412 C 2682.69 -3.79734 3.75017 0
M  V30 28413 O 2682.91 -4.82014 3.0499 0
M  V30 28414 O 2681.85 -3.77838 4.68532 0
M  V30 28415 H 2685.67 -1.02038 2.86045 0
M  V30 28416 H 2683.26 -0.439578 1.42787 0
M  V30 28417 H 2685.14 -3.43665 2.43869 0
M  V30 28418 H 2683.82 -2.94212 1.34984 0
M  V30 28419 H 2682.72 -1.72303 3.32058 0
M  V30 28420 H 2684.06 -2.28443 4.35975 0
M  V30 28421 N 2685.71 -1.4932 -0.504115 0
M  V30 28422 C 2686.64 -1.6867 -1.6147 0
M  V30 28423 C 2687.62 -0.535407 -1.61454 0
M  V30 28424 O 2688.8 -0.770899 -1.78244 0
M  V30 28425 C 2685.93 -1.75033 -2.99968 0
M  V30 28426 C 2684.89 -2.89921 -3.14849 0
M  V30 28427 C 2684.21 -2.81395 -4.54666 0
M  V30 28428 C 2685.51 -4.30898 -2.95168 0
M  V30 28429 H 2687.21 -2.61651 -1.45531 0
M  V30 28430 H 2684.75 -1.25914 -0.698689 0
M  V30 28431 H 2686.71 -1.87157 -3.77558 0
M  V30 28432 H 2685.43 -0.786496 -3.16989 0
M  V30 28433 H 2684.09 -2.77395 -2.39682 0
M  V30 28434 H 2683.74 -1.82926 -4.68559 0
M  V30 28435 H 2683.44 -3.58503 -4.65564 0
M  V30 28436 H 2684.96 -2.95522 -5.34321 0
M  V30 28437 H 2686.38 -4.44122 -3.62531 0
M  V30 28438 H 2684.77 -5.09204 -3.1754 0
M  V30 28439 H 2685.84 -4.45559 -1.91324 0
M  V30 28440 N 2687.19 0.754933 -1.38342 0
M  V30 28441 C 2688.41 1.54416 -1.37707 0
M  V30 28442 C 2688.83 1.8877 0.0334911 0
M  V30 28443 O 2688.19 1.5268 0.999747 0
M  V30 28444 C 2688.24 2.84412 -2.23141 0
M  V30 28445 O 2687.96 2.51525 -3.58702 0
M  V30 28446 C 2689.46 3.78558 -2.30671 0
M  V30 28447 H 2686.68 0.477843 -0.47107 0
M  V30 28448 H 2689.22 0.934414 -1.81904 0
M  V30 28449 H 2687.38 3.41768 -1.82409 0
M  V30 28450 H 2687.79 3.34889 -4.0367 0
M  V30 28451 H 2689.27 4.66726 -2.94738 0
M  V30 28452 H 2689.74 4.18895 -1.31998 0
M  V30 28453 H 2690.35 3.27127 -2.71787 0
M  V30 28454 N 2688.66 1.23189 0.982967 0
M  V30 28455 C 2689.91 1.05652 1.71815 0
M  V30 28456 C 2690.23 -0.407142 1.91316 0
M  V30 28457 O 2691.43 -0.70239 2.62257 0
M  V30 28458 C 2689.89 1.84208 3.09185 0
M  V30 28459 C 2689.5 3.34888 2.97581 0
M  V30 28460 C 2691.24 1.75153 3.86681 0
M  V30 28461 C 2689.15 4.05846 4.30166 0
M  V30 28462 H 2688.08 0.391736 0.644251 0
M  V30 28463 H 2690.73 1.47132 1.09656 0
M  V30 28464 H 2689.11 1.35533 3.72084 0
M  V30 28465 H 2690.28 3.91031 2.43786 0
M  V30 28466 H 2688.6 3.44729 2.33561 0
M  V30 28467 H 2691.2 2.25482 4.84832 0
M  V30 28468 H 2691.54 0.713809 4.10135 0
M  V30 28469 H 2692.07 2.21425 3.30478 0
M  V30 28470 H 2688.81 5.09913 4.11909 0
M  V30 28471 H 2688.33 3.54491 4.83835 0
M  V30 28472 H 2690.01 4.11997 4.98866 0
M  V30 28473 N 2690.14 -1.18133 1.04318 0
M  V30 28474 C 2691.39 -1.87508 0.743223 0
M  V30 28475 C 2691.7 -1.81382 -0.732104 0
M  V30 28476 O 2692.91 -2.46143 -1.14567 0
M  V30 28477 C 2691.37 -3.364 1.27919 0
M  V30 28478 C 2690.97 -3.51048 2.78333 0
M  V30 28479 C 2692.72 -4.11159 1.05588 0
M  V30 28480 C 2690.62 -4.93914 3.25274 0
M  V30 28481 H 2689.55 -0.702326 0.274325 0
M  V30 28482 H 2692.21 -1.33465 1.25934 0
M  V30 28483 H 2690.59 -3.89926 0.690922 0
M  V30 28484 H 2691.76 -3.07782 3.42939 0
M  V30 28485 H 2690.08 -2.89698 2.99105 0
M  V30 28486 H 2692.67 -5.1654 1.3817 0
M  V30 28487 H 2693.02 -4.16299 -0.00677412 0
M  V30 28488 H 2693.55 -3.63813 1.60889 0
M  V30 28489 H 2690.29 -4.93943 4.3093 0
M  V30 28490 H 2689.81 -5.37885 2.65405 0
M  V30 28491 H 2691.49 -5.62641 3.19443 0
M  V30 28492 N 2691.62 -0.822988 -1.34405 0
M  V30 28493 C 2692.9 -0.333675 -1.92733 0
M  V30 28494 C 2693.28 1.17898 -1.75109 0
M  V30 28495 O 2692.63 1.98611 -1.12986 0
M  V30 28496 C 2692.84 -0.763083 -3.40555 0
M  V30 28497 C 2694.18 -0.761952 -4.17707 0
M  V30 28498 O 2695.21 -0.705667 -3.4914 0
M  V30 28499 O 2694.07 -0.835204 -5.4008 0
M  V30 28500 H 2691.16 -0.0911394 -0.821963 0
M  V30 28501 H 2693.71 -0.907782 -1.43379 0
M  V30 28502 H 2692.48 -1.80496 -3.47184 0
M  V30 28503 H 2692.1 -0.164675 -3.97259 0
M  V30 28504 N 2693.1 1.4662 -0.577957 0
M  V30 28505 C 2694.05 2.31972 0.170841 0
M  V30 28506 C 2695.04 1.44195 0.889061 0
M  V30 28507 O 2696.25 1.60846 0.807989 0
M  V30 28508 H 2692.62 0.748354 0.0739632 0
M  V30 28509 H 2694.59 2.92946 -0.567907 0
M  V30 28510 C 2693.34 3.27269 1.17432 0
M  V30 28511 H 2692.66 3.94788 0.631091 0
M  V30 28512 H 2694.1 3.8978 1.66875 0
M  V30 28513 C 2692.56 2.52278 2.23288 0
M  V30 28514 O 2693.09 2.28234 3.30563 0
M  V30 28515 N 2691.3 2.12923 1.97768 0
M  V30 28516 H 2690.85 2.32677 1.1054 0
M  V30 28517 H 2690.8 1.63066 2.68806 0
M  V30 28518 N 2694.58 0.315484 1.5441 0
M  V30 28519 C 2695.51 -0.546999 2.27003 0
M  V30 28520 C 2696.49 -1.12603 1.27494 0
M  V30 28521 O 2697.67 -1.15267 1.56292 0
M  V30 28522 C 2694.8 -1.71196 3.02174 0
M  V30 28523 C 2693.76 -1.26261 4.08952 0
M  V30 28524 C 2693.08 -2.51388 4.7192 0
M  V30 28525 C 2694.38 -0.383327 5.20891 0
M  V30 28526 H 2696.08 0.0585043 2.99343 0
M  V30 28527 H 2693.62 0.0295781 1.4397 0
M  V30 28528 H 2695.58 -2.32155 3.51685 0
M  V30 28529 H 2694.3 -2.34393 2.27437 0
M  V30 28530 H 2692.96 -0.675999 3.60313 0
M  V30 28531 H 2692.61 -3.12931 3.93806 0
M  V30 28532 H 2692.31 -2.22017 5.44043 0
M  V30 28533 H 2693.83 -3.13124 5.242 0
M  V30 28534 H 2695.24 -0.898983 5.66208 0
M  V30 28535 H 2693.64 -0.182752 5.99822 0
M  V30 28536 H 2694.71 0.587906 4.81323 0
M  V30 28537 N 2696.05 -1.5754 0.0434891 0
M  V30 28538 C 2697.28 -1.97105 -0.645323 0
M  V30 28539 C 2697.7 -0.92055 -1.64035 0
M  V30 28540 O 2697.06 0.117048 -1.80922 0
M  V30 28541 C 2697.11 -3.35752 -1.31541 0
M  V30 28542 O 2696.21 -3.33133 -2.43097 0
M  V30 28543 H 2695.56 -0.642293 -0.168392 0
M  V30 28544 H 2698.09 -2.04306 0.109609 0
M  V30 28545 H 2698.1 -3.72307 -1.66888 0
M  V30 28546 H 2696.77 -4.11749 -0.586133 0
M  V30 28547 H 2695.35 -3.08314 -2.09755 0
M  V30 28548 N 2697.53 0.229818 -1.55915 0
M  V30 28549 C 2698.78 0.953534 -1.78191 0
M  V30 28550 C 2699.1 1.85196 -0.610536 0
M  V30 28551 O 2698.37 1.92317 0.372955 0
M  V30 28552 H 2696.95 0.355076 -0.657214 0
M  V30 28553 H 2699.61 0.243659 -1.93371 0
M  V30 28554 H 2698.71 1.56522 -2.70014 0
M  V30 28555 N 2699.01 1.49585 0.49619 0
M  V30 28556 C 2700.24 1.63297 1.27862 0
M  V30 28557 C 2700.66 0.306188 1.85591 0
M  V30 28558 O 2700.02 -0.726822 1.66093 0
M  V30 28559 C 2700.07 2.70794 2.38123 0
M  V30 28560 O 2699.17 2.30302 3.42104 0
M  V30 28561 H 2698.51 0.54641 0.37727 0
M  V30 28562 H 2701.04 1.95804 0.593462 0
M  V30 28563 H 2701.05 2.93109 2.83815 0
M  V30 28564 H 2699.73 3.67101 1.95472 0
M  V30 28565 H 2698.3 2.18336 3.02297 0
M  V30 28566 N 2700.49 -0.747586 1.3874 0
M  V30 28567 C 2701.74 -1.50226 1.34592 0
M  V30 28568 C 2702.05 -1.95509 -0.0595248 0
M  V30 28569 O 2703.26 -2.70578 -0.223562 0
M  V30 28570 C 2701.71 -2.71389 2.36381 0
M  V30 28571 C 2701.32 -2.33106 3.82577 0
M  V30 28572 C 2703.06 -3.49258 2.41287 0
M  V30 28573 C 2700.97 -3.50916 4.76038 0
M  V30 28574 H 2699.9 -0.564087 0.500322 0
M  V30 28575 H 2702.55 -0.816671 1.64325 0
M  V30 28576 H 2700.93 -3.41959 1.997 0
M  V30 28577 H 2702.11 -1.70164 4.2823 0
M  V30 28578 H 2700.42 -1.68358 3.80847 0
M  V30 28579 H 2703.02 -4.36863 3.08309 0
M  V30 28580 H 2703.36 -3.90837 1.4336 0
M  V30 28581 H 2703.9 -2.85706 2.76798 0
M  V30 28582 H 2700.64 -3.14397 5.75182 0
M  V30 28583 H 2700.16 -4.12881 4.35073 0
M  V30 28584 H 2701.83 -4.17419 4.94339 0
M  V30 28585 N 2701.97 -1.23709 -0.97642 0
M  V30 28586 C 2703.21 -1.07157 -1.71825 0
M  V30 28587 C 2703.54 0.390948 -1.9053 0
M  V30 28588 O 2702.8 1.30562 -1.45781 0
M  V30 28589 C 2703.1 -1.74668 -3.11811 0
M  V30 28590 C 2702.76 -3.24591 -3.12972 0
M  V30 28591 C 2701.42 -3.65495 -3.12996 0
M  V30 28592 C 2703.78 -4.20475 -3.07978 0
M  V30 28593 C 2701.1 -5.00734 -3.05748 0
M  V30 28594 C 2703.46 -5.55711 -3.02272 0
M  V30 28595 C 2702.12 -5.95973 -3.0062 0
M  V30 28596 H 2701.39 -0.392113 -0.628751 0
M  V30 28597 H 2704.04 -1.53695 -1.14236 0
M  V30 28598 H 2702.34 -1.20499 -3.7281 0
M  V30 28599 H 2704.04 -1.59335 -3.67986 0
M  V30 28600 H 2700.63 -2.92031 -3.13713 0
M  V30 28601 H 2704.81 -3.89879 -3.07096 0
M  V30 28602 H 2700.07 -5.31138 -3.02825 0
M  V30 28603 H 2704.24 -6.2972 -2.97365 0
M  V30 28604 H 2701.87 -7.00729 -2.94759 0
M  V30 28605 N 2703.44 1.17579 -1.04943 0
M  V30 28606 C 2704.39 2.19453 -0.618416 0
M  V30 28607 C 2705.38 1.57184 0.343785 0
M  V30 28608 O 2706.57 1.76262 0.161419 0
M  V30 28609 C 2703.7 3.43299 0.00797812 0
M  V30 28610 C 2702.79 4.12672 -0.977899 0
M  V30 28611 N 2703.18 4.57908 -2.14834 0
M  V30 28612 C 2701.47 4.3866 -0.805825 0
M  V30 28613 C 2702.18 5.11414 -2.77183 0
M  V30 28614 N 2701.15 5.03465 -2.04998 0
M  V30 28615 H 2704.95 2.5213 -1.51023 0
M  V30 28616 H 2702.47 1.33881 -0.919225 0
M  V30 28617 H 2704.46 4.15556 0.334511 0
M  V30 28618 H 2703.12 3.12115 0.895217 0
M  V30 28619 H 2704.14 4.52076 -2.52681 0
M  V30 28620 H 2700.81 4.17489 0.0305772 0
M  V30 28621 H 2702.2 5.56555 -3.76426 0
M  V30 28622 N 2704.92 0.830104 1.33967 0
M  V30 28623 C 2705.87 0.229282 2.26844 0
M  V30 28624 C 2706.86 -0.610633 1.48863 0
M  V30 28625 O 2708.05 -0.464037 1.70809 0
M  V30 28626 C 2705.18 -0.601998 3.37981 0
M  V30 28627 C 2704.26 0.248941 4.23369 0
M  V30 28628 N 2704.65 1.32343 4.88179 0
M  V30 28629 C 2702.95 0.034486 4.45987 0
M  V30 28630 C 2703.65 1.84491 5.51668 0
M  V30 28631 N 2702.63 1.14771 5.31346 0
M  V30 28632 H 2706.43 1.05108 2.74462 0
M  V30 28633 H 2703.95 0.673649 1.47769 0
M  V30 28634 H 2705.94 -1.04866 4.03496 0
M  V30 28635 H 2704.6 -1.42188 2.91912 0
M  V30 28636 H 2705.61 1.70628 4.88985 0
M  V30 28637 H 2702.29 -0.752655 4.1066 0
M  V30 28638 H 2703.68 2.74423 6.13304 0
M  V30 28639 N 2706.4 -1.46311 0.585725 0
M  V30 28640 C 2707.63 -2.06453 0.0780529 0
M  V30 28641 C 2708.04 -1.43456 -1.23357 0
M  V30 28642 O 2707.38 -0.535117 -1.75733 0
M  V30 28643 C 2707.44 -3.59149 -0.158888 0
M  V30 28644 C 2707.11 -4.44355 1.0676 0
M  V30 28645 C 2708.11 -4.80704 1.98039 0
M  V30 28646 C 2705.79 -4.85445 1.29029 0
M  V30 28647 C 2707.78 -5.56974 3.09933 0
M  V30 28648 C 2705.47 -5.61473 2.41228 0
M  V30 28649 C 2706.47 -5.97152 3.31509 0
M  V30 28650 O 2706.16 -6.71643 4.41759 0
M  V30 28651 H 2705.89 -0.673685 0.0559013 0
M  V30 28652 H 2708.44 -1.88882 0.807027 0
M  V30 28653 H 2706.67 -3.75038 -0.942509 0
M  V30 28654 H 2708.36 -4.01207 -0.615443 0
M  V30 28655 H 2709.13 -4.49536 1.82051 0
M  V30 28656 H 2705.01 -4.57123 0.596648 0
M  V30 28657 H 2708.55 -5.84741 3.80426 0
M  V30 28658 H 2704.45 -5.92056 2.57177 0
M  V30 28659 H 2705.22 -6.90071 4.40164 0
M  V30 28660 N 2707.88 -0.323668 -1.54241 0
M  V30 28661 C 2709.1 0.283568 -2.05452 0
M  V30 28662 C 2709.53 1.44995 -1.19826 0
M  V30 28663 O 2708.89 1.8011 -0.20739 0
M  V30 28664 C 2708.94 0.695732 -3.53825 0
M  V30 28665 O 2708.04 1.79809 -3.71137 0
M  V30 28666 H 2707.38 0.0511801 -0.662025 0
M  V30 28667 H 2709.91 -0.472108 -1.99079 0
M  V30 28668 H 2709.92 0.978365 -3.96096 0
M  V30 28669 H 2708.6 -0.15736 -4.15602 0
M  V30 28670 H 2707.17 1.51425 -3.40771 0
M  V30 28671 N 2709.36 1.57515 -0.0518432 0
M  V30 28672 C 2710.58 1.97444 0.634861 0
M  V30 28673 C 2711.01 0.929236 1.63545 0
M  V30 28674 O 2710.37 -0.107452 1.80981 0
M  V30 28675 C 2710.41 3.36445 1.29759 0
M  V30 28676 O 2709.52 3.34417 2.41327 0
M  V30 28677 H 2708.86 0.643177 0.164983 0
M  V30 28678 H 2711.39 2.04245 -0.120442 0
M  V30 28679 H 2711.4 3.73187 1.64912 0
M  V30 28680 H 2710.07 4.12054 0.564288 0
M  V30 28681 H 2708.65 3.09422 2.08117 0
M  V30 28682 N 2710.84 -0.221546 1.56035 0
M  V30 28683 C 2712.25 -0.788538 1.69231 0
M  V30 28684 C 2712.6 -1.84985 0.653847 0
M  V30 28685 O 2711.72 -2.15519 -0.195027 0
M  V30 28686 C 2712.32 -1.43708 3.06812 0
M  V30 28687 C 2710.88 -1.95146 3.21862 0
M  V30 28688 C 2710.02 -0.811639 2.65156 0
M  V30 28689 H 2712.97 0.00310684 1.587 0
M  V30 28690 H 2713 -2.30589 3.0267 0
M  V30 28691 H 2712.51 -0.664407 3.82371 0
M  V30 28692 H 2710.61 -2.75215 2.51172 0
M  V30 28693 H 2710.72 -2.13143 4.29077 0
M  V30 28694 H 2709.09 -1.21896 2.23637 0
M  V30 28695 H 2709.87 -0.0516383 3.43261 0
M  V30 28696 N 2712.31 -1.49846 -0.48825 0
M  V30 28697 C 2713.28 -1.66922 -1.57066 0
M  V30 28698 C 2714.28 -0.540505 -1.51444 0
M  V30 28699 O 2715.47 -0.807215 -1.54369 0
M  V30 28700 C 2712.6 -1.67849 -2.96715 0
M  V30 28701 H 2713.79 -2.63476 -1.43249 0
M  V30 28702 H 2711.34 -1.39069 -0.71341 0
M  V30 28703 H 2712.08 -0.729256 -3.15994 0
M  V30 28704 H 2711.86 -2.49831 -3.02203 0
M  V30 28705 H 2713.35 -1.83073 -3.75332 0
M  V30 28706 N 2713.79 0.740218 -1.39135 0
M  V30 28707 C 2715.04 1.49671 -1.35805 0
M  V30 28708 C 2715.36 1.94943 0.0470554 0
M  V30 28709 O 2714.63 1.68613 0.997318 0
M  V30 28710 H 2713.21 0.555215 -0.499745 0
M  V30 28711 H 2715.87 0.879076 -1.73949 0
M  V30 28712 H 2714.97 2.3813 -2.01744 0
M  V30 28713 N 2715.27 1.24225 0.969846 0
M  V30 28714 C 2716.51 1.09253 1.72752 0
M  V30 28715 C 2716.87 -0.362754 1.88542 0
M  V30 28716 O 2718.07 -0.633923 2.61218 0
M  V30 28717 C 2716.35 1.80962 3.082 0
M  V30 28718 S 2717.9 1.81695 3.99415 0
M  V30 28719 H 2714.72 0.390788 0.593975 0
M  V30 28720 H 2717.32 1.57522 1.15789 0
M  V30 28721 H 2716.03 2.85966 2.94367 0
M  V30 28722 H 2715.56 1.33018 3.70229 0
M  V30 28723 H 2717.57 0.883086 4.88279 0
M  V30 28724 N 2716.75 -1.1702 1.05565 0
M  V30 28725 C 2717.69 -2.21164 0.659932 0
M  V30 28726 C 2718.66 -1.62587 -0.339785 0
M  V30 28727 O 2719.85 -1.89404 -0.230344 0
M  V30 28728 C 2716.99 -3.45071 0.0447904 0
M  V30 28729 C 2716.1 -4.17924 1.09379 0
M  V30 28730 C 2715.24 -5.29328 0.445574 0
M  V30 28731 C 2714.28 -5.93972 1.47863 0
M  V30 28732 N 2713.41 -6.96883 0.854295 0
M  V30 28733 H 2718.25 -2.54367 1.55247 0
M  V30 28734 H 2715.79 -1.24944 0.776358 0
M  V30 28735 H 2717.75 -4.15898 -0.329331 0
M  V30 28736 H 2716.38 -3.12441 -0.811189 0
M  V30 28737 H 2715.43 -3.45774 1.58571 0
M  V30 28738 H 2716.74 -4.62103 1.87782 0
M  V30 28739 H 2715.9 -6.06697 0.0180755 0
M  V30 28740 H 2714.64 -4.86291 -0.370396 0
M  V30 28741 H 2713.64 -5.15331 1.9161 0
M  V30 28742 H 2714.87 -6.39089 2.29656 0
M  V30 28743 H 2712.81 -6.55974 0.0589035 0
M  V30 28744 H 2712.73 -7.39395 1.5758 0
M  V30 28745 H 2714 -7.7819 0.451696 0
M  V30 28746 N 2718.23 -0.837197 -1.33524 0
M  V30 28747 C 2719.17 -0.26721 -2.29248 0
M  V30 28748 C 2720.14 0.616044 -1.54253 0
M  V30 28749 O 2721.33 0.554667 -1.8256 0
M  V30 28750 C 2718.47 0.553092 -3.40639 0
M  V30 28751 C 2717.58 -0.353997 -4.30547 0
M  V30 28752 C 2716.72 0.477246 -5.29052 0
M  V30 28753 C 2715.75 -0.428338 -6.10599 0
M  V30 28754 N 2714.89 0.364678 -7.01152 0
M  V30 28755 H 2719.73 -1.08882 -2.77396 0
M  V30 28756 H 2717.27 -0.548404 -1.36495 0
M  V30 28757 H 2719.23 1.04415 -4.03923 0
M  V30 28758 H 2717.86 1.33968 -2.93687 0
M  V30 28759 H 2716.91 -0.963353 -3.68 0
M  V30 28760 H 2718.22 -1.04973 -4.87629 0
M  V30 28761 H 2717.37 1.0322 -5.97855 0
M  V30 28762 H 2716.11 1.20642 -4.72543 0
M  V30 28763 H 2715.12 -0.995314 -5.40716 0
M  V30 28764 H 2716.34 -1.15585 -6.69191 0
M  V30 28765 H 2714.29 1.07726 -6.47094 0
M  V30 28766 H 2714.21 -0.27237 -7.55509 0
M  V30 28767 H 2715.47 0.901918 -7.74265 0
M  V30 28768 N 2719.7 1.45999 -0.593476 0
M  V30 28769 C 2720.94 2.04219 -0.0860106 0
M  V30 28770 C 2721.31 1.45366 1.2543 0
M  V30 28771 O 2722.51 1.94853 1.85164 0
M  V30 28772 C 2720.78 3.57385 -0.0324942 0
M  V30 28773 S 2722.34 4.36825 0.415832 0
M  V30 28774 H 2719.16 0.709717 -0.0426997 0
M  V30 28775 H 2721.76 1.78898 -0.788401 0
M  V30 28776 H 2720.46 3.97734 -1.01173 0
M  V30 28777 H 2719.99 3.8726 0.692332 0
M  V30 28778 H 2722.01 4.67312 1.66836 0
M  V30 28779 N 2721.18 0.331843 1.54067 0
M  V30 28780 C 2722.13 -0.546062 2.21364 0
M  V30 28781 C 2723.12 -1.07521 1.197 0
M  V30 28782 O 2724.31 -1.01086 1.45295 0
M  V30 28783 C 2721.44 -1.70237 2.98118 0
M  V30 28784 C 2720.52 -1.18771 4.07129 0
M  V30 28785 N 2720.91 -0.393376 5.04268 0
M  V30 28786 C 2719.21 -1.46569 4.21229 0
M  V30 28787 C 2719.91 -0.11547 5.81585 0
M  V30 28788 N 2718.89 -0.703892 5.39023 0
M  V30 28789 H 2722.69 0.0680268 2.93821 0
M  V30 28790 H 2720.21 0.138114 1.61812 0
M  V30 28791 H 2722.2 -2.34315 3.44822 0
M  V30 28792 H 2720.86 -2.31985 2.27185 0
M  V30 28793 H 2721.87 -0.0354847 5.17888 0
M  V30 28794 H 2718.55 -2.08841 3.61513 0
M  V30 28795 H 2719.94 0.524544 6.69849 0
M  V30 28796 N 2722.66 -1.57485 0.0601958 0
M  V30 28797 C 2723.61 -2.08573 -0.920932 0
M  V30 28798 C 2724.59 -0.992849 -1.26615 0
M  V30 28799 O 2725.79 -1.25608 -1.24706 0
M  V30 28800 C 2722.92 -2.64157 -2.19262 0
M  V30 28801 C 2722 -3.8043 -1.8744 0
M  V30 28802 N 2722.39 -4.8985 -1.26017 0
M  V30 28803 C 2720.69 -3.89506 -2.17258 0
M  V30 28804 C 2721.39 -5.70811 -1.12026 0
M  V30 28805 N 2720.37 -5.18707 -1.62615 0
M  V30 28806 H 2724.17 -2.90565 -0.44151 0
M  V30 28807 H 2721.68 -1.6176 -0.144014 0
M  V30 28808 H 2723.68 -2.99066 -2.90457 0
M  V30 28809 H 2722.34 -1.83608 -2.67803 0
M  V30 28810 H 2723.35 -5.09459 -0.931247 0
M  V30 28811 H 2720.03 -3.19914 -2.68256 0
M  V30 28812 H 2721.42 -6.68819 -0.642665 0
M  V30 28813 N 2724.14 0.213268 -1.5615 0
M  V30 28814 C 2725.42 0.961251 -1.70351 0
M  V30 28815 C 2725.8 2.021 -0.609827 0
M  V30 28816 O 2725.14 2.25285 0.381948 0
M  V30 28817 C 2725.35 1.56418 -3.11985 0
M  V30 28818 C 2726.7 2.05328 -3.71653 0
M  V30 28819 O 2727.73 1.66296 -3.14998 0
M  V30 28820 O 2726.58 2.77094 -4.71043 0
M  V30 28821 H 2723.68 0.44957 -0.694129 0
M  V30 28822 H 2726.22 0.204397 -1.68465 0
M  V30 28823 H 2725 0.799389 -3.83048 0
M  V30 28824 H 2724.62 2.38636 -3.18023 0
M  V30 28825 N 2725.62 1.50103 0.480296 0
M  V30 28826 C 2726.56 1.68293 1.57943 0
M  V30 28827 C 2727.53 0.524251 1.5761 0
M  V30 28828 O 2728.72 0.75374 1.75281 0
M  V30 28829 C 2725.86 1.77462 2.95975 0
M  V30 28830 C 2724.97 3.04771 3.06167 0
M  V30 28831 C 2724.11 3.04792 4.35058 0
M  V30 28832 C 2723.15 4.26593 4.38958 0
M  V30 28833 N 2722.28 4.24406 5.59307 0
M  V30 28834 H 2727.12 2.62134 1.41738 0
M  V30 28835 H 2724.66 1.29951 0.689281 0
M  V30 28836 H 2726.62 1.80759 3.76008 0
M  V30 28837 H 2725.25 0.870691 3.10836 0
M  V30 28838 H 2724.3 3.10989 2.19066 0
M  V30 28839 H 2725.61 3.94756 3.04909 0
M  V30 28840 H 2724.77 3.06767 5.2343 0
M  V30 28841 H 2723.5 2.12622 4.38912 0
M  V30 28842 H 2722.51 4.24841 3.48985 0
M  V30 28843 H 2723.73 5.1998 4.36804 0
M  V30 28844 H 2721.68 3.35084 5.63963 0
M  V30 28845 H 2721.6 5.08148 5.59751 0
M  V30 28846 H 2722.87 4.30513 6.4983 0
M  V30 28847 N 2727.09 -0.732829 1.39526 0
M  V30 28848 C 2728.03 -1.85716 1.34322 0
M  V30 28849 C 2729.04 -1.60844 0.251604 0
M  V30 28850 O 2730.23 -1.71038 0.510715 0
M  V30 28851 C 2727.33 -3.21784 1.0634 0
M  V30 28852 C 2726.5 -3.73994 2.2682 0
M  V30 28853 C 2725.56 -4.8863 1.95261 0
M  V30 28854 O 2724.59 -5.02178 2.67966 0
M  V30 28855 N 2725.79 -5.73162 0.920085 0
M  V30 28856 H 2728.55 -1.90684 2.31214 0
M  V30 28857 H 2726.11 -0.913657 1.33656 0
M  V30 28858 H 2728.11 -3.96046 0.832432 0
M  V30 28859 H 2726.68 -3.12071 0.181737 0
M  V30 28860 H 2725.9 -2.91059 2.65854 0
M  V30 28861 H 2727.18 -4.0561 3.07177 0
M  V30 28862 H 2726.58 -5.64808 0.317586 0
M  V30 28863 H 2725.14 -6.47482 0.749019 0
M  V30 28864 N 2728.57 -1.24737 -0.963244 0
M  V30 28865 C 2729.48 -1.06085 -2.09244 0
M  V30 28866 C 2730.5 -0.000393686 -1.74 0
M  V30 28867 O 2731.67 -0.199514 -2.00409 0
M  V30 28868 C 2728.74 -0.672558 -3.40114 0
M  V30 28869 C 2727.8 -1.81 -3.89278 0
M  V30 28870 C 2727.03 -1.44013 -5.13903 0
M  V30 28871 O 2727.26 -0.331935 -5.69433 0
M  V30 28872 O 2726.19 -2.26733 -5.57562 0
M  V30 28873 H 2730.02 -2.00763 -2.27877 0
M  V30 28874 H 2727.6 -1.03597 -1.07648 0
M  V30 28875 H 2729.48 -0.467742 -4.18796 0
M  V30 28876 H 2728.16 0.245045 -3.22771 0
M  V30 28877 H 2727.07 -2.0696 -3.11638 0
M  V30 28878 H 2728.4 -2.70653 -4.11105 0
M  V30 28879 N 2730.05 1.16459 -1.06184 0
M  V30 28880 C 2731.3 1.8724 -0.779048 0
M  V30 28881 C 2731.63 1.81426 0.692683 0
M  V30 28882 O 2730.9 1.22916 1.50738 0
M  V30 28883 C 2731.19 3.36853 -1.27286 0
M  V30 28884 C 2731.04 3.51364 -2.80827 0
M  V30 28885 C 2732.36 4.31215 -0.879875 0
M  V30 28886 H 2729.48 0.679884 -0.284476 0
M  V30 28887 H 2732.12 1.36894 -1.31758 0
M  V30 28888 H 2730.27 3.79861 -0.814739 0
M  V30 28889 H 2731.94 3.17302 -3.34839 0
M  V30 28890 H 2730.19 2.9331 -3.19611 0
M  V30 28891 H 2730.86 4.56431 -3.10443 0
M  V30 28892 H 2733.33 3.96103 -1.27443 0
M  V30 28893 H 2732.21 5.3441 -1.25288 0
M  V30 28894 H 2732.47 4.41575 0.215295 0
M  V30 28895 N 2731.53 0.844266 1.33079 0
M  V30 28896 C 2732.46 0.238711 2.27954 0
M  V30 28897 C 2733.47 -0.583639 1.51979 0
M  V30 28898 O 2734.66 -0.409826 1.73732 0
M  V30 28899 C 2731.76 -0.682127 3.31964 0
M  V30 28900 C 2730.94 0.102075 4.37281 0
M  V30 28901 C 2729.99 -0.74293 5.20929 0
M  V30 28902 O 2729.02 -0.180185 5.68915 0
M  V30 28903 N 2730.22 -2.0594 5.42742 0
M  V30 28904 H 2732.99 1.05391 2.80558 0
M  V30 28905 H 2730.55 0.703245 1.45829 0
M  V30 28906 H 2732.54 -1.25252 3.8483 0
M  V30 28907 H 2731.11 -1.39803 2.79596 0
M  V30 28908 H 2730.33 0.85387 3.84841 0
M  V30 28909 H 2731.62 0.641104 5.04745 0
M  V30 28910 H 2731.02 -2.54007 5.05467 0
M  V30 28911 H 2729.57 -2.57816 5.98644 0
M  V30 28912 N 2733.01 -1.45682 0.60121 0
M  V30 28913 C 2733.94 -2.33246 -0.108783 0
M  V30 28914 C 2734.92 -1.46453 -0.865197 0
M  V30 28915 O 2736.1 -1.75236 -0.837009 0
M  V30 28916 C 2733.23 -3.29052 -1.11095 0
M  V30 28917 C 2732.19 -4.25432 -0.46817 0
M  V30 28918 C 2731.51 -5.10881 -1.57813 0
M  V30 28919 C 2732.81 -5.18766 0.606561 0
M  V30 28920 H 2734.51 -2.9286 0.622358 0
M  V30 28921 H 2732.05 -1.40825 0.300739 0
M  V30 28922 H 2734.01 -3.89177 -1.61615 0
M  V30 28923 H 2732.73 -2.67584 -1.8726 0
M  V30 28924 H 2731.39 -3.66596 0.0161129 0
M  V30 28925 H 2731.04 -4.45785 -2.32991 0
M  V30 28926 H 2730.74 -5.76165 -1.15358 0
M  V30 28927 H 2732.26 -5.73873 -2.08573 0
M  V30 28928 H 2733.67 -5.72999 0.185689 0
M  V30 28929 H 2732.07 -5.92493 0.952486 0
M  V30 28930 H 2733.14 -4.6158 1.48567 0
M  V30 28931 N 2734.48 -0.340009 -1.53889 0
M  V30 28932 C 2735.45 0.505881 -2.23548 0
M  V30 28933 C 2736.45 1.03042 -1.23447 0
M  V30 28934 O 2737.64 0.920227 -1.4791 0
M  V30 28935 C 2734.77 1.70435 -2.95237 0
M  V30 28936 H 2735.96 -0.1033 -2.99722 0
M  V30 28937 H 2733.52 -0.0913078 -1.56033 0
M  V30 28938 H 2734.25 2.35232 -2.2324 0
M  V30 28939 H 2734.04 1.33547 -3.68657 0
M  V30 28940 H 2735.53 2.30441 -3.48262 0
M  V30 28941 N 2735.96 1.57451 -0.0685468 0
M  V30 28942 C 2736.87 2.16036 0.914639 0
M  V30 28943 C 2737.89 1.12267 1.32936 0
M  V30 28944 O 2739.07 1.44518 1.40273 0
M  V30 28945 C 2736.13 2.70781 2.16514 0
M  V30 28946 C 2735.19 3.89411 1.80714 0
M  V30 28947 C 2734.42 4.41536 2.99803 0
M  V30 28948 O 2734.65 3.92673 4.1372 0
M  V30 28949 O 2733.58 5.32908 2.79808 0
M  V30 28950 H 2737.41 3.00403 0.446311 0
M  V30 28951 H 2734.99 1.48601 0.154341 0
M  V30 28952 H 2736.87 3.05883 2.89851 0
M  V30 28953 H 2735.55 1.89476 2.62451 0
M  V30 28954 H 2734.46 3.59168 1.0464 0
M  V30 28955 H 2735.79 4.71999 1.39562 0
M  V30 28956 N 2737.44 -0.204984 1.56261 0
M  V30 28957 C 2738.67 -0.943354 1.84142 0
M  V30 28958 C 2739.08 -1.77265 0.649803 0
M  V30 28959 O 2738.44 -1.78466 -0.381581 0
M  V30 28960 C 2738.49 -1.84754 3.10722 0
M  V30 28961 O 2738.21 -1.05174 4.25288 0
M  V30 28962 C 2739.71 -2.69842 3.5171 0
M  V30 28963 H 2736.93 -0.275711 0.611739 0
M  V30 28964 H 2739.48 -0.215217 2.03364 0
M  V30 28965 H 2737.63 -2.52942 2.93427 0
M  V30 28966 H 2738.05 -1.667 4.97304 0
M  V30 28967 H 2739.52 -3.28959 4.43272 0
M  V30 28968 H 2740 -3.43062 2.74236 0
M  V30 28969 H 2740.6 -2.07041 3.71503 0
M  V30 28970 N 2738.92 -1.50356 -0.472329 0
M  V30 28971 C 2739.83 -1.71913 -1.59634 0
M  V30 28972 C 2740.85 -0.602224 -1.63246 0
M  V30 28973 O 2742.02 -0.880401 -1.81138 0
M  V30 28974 C 2739.09 -1.80748 -2.95857 0
M  V30 28975 C 2738.15 -3.04476 -3.02643 0
M  V30 28976 C 2737.38 -3.12879 -4.32368 0
M  V30 28977 O 2737.6 -2.28108 -5.22803 0
M  V30 28978 O 2736.54 -4.05595 -4.44721 0
M  V30 28979 H 2740.36 -2.67192 -1.44369 0
M  V30 28980 H 2737.95 -1.34437 -0.651694 0
M  V30 28981 H 2739.83 -1.88746 -3.76767 0
M  V30 28982 H 2738.51 -0.886524 -3.11324 0
M  V30 28983 H 2737.41 -3.01979 -2.20816 0
M  V30 28984 H 2738.75 -3.96145 -2.92112 0
M  V30 28985 N 2740.4 0.725419 -1.39912 0
M  V30 28986 C 2741.36 1.82119 -1.3916 0
M  V30 28987 C 2742.36 1.58217 -0.287046 0
M  V30 28988 O 2743.55 1.6544 -0.54545 0
M  V30 28989 C 2740.68 3.2006 -1.17366 0
M  V30 28990 H 2741.88 1.84187 -2.36675 0
M  V30 28991 H 2739.43 0.930057 -1.25617 0
M  V30 28992 H 2740.16 3.23647 -0.205705 0
M  V30 28993 H 2739.95 3.38806 -1.97364 0
M  V30 28994 H 2741.44 4.00106 -1.19603 0
M  V30 28995 N 2741.88 1.25246 0.956615 0
M  V30 28996 C 2743.12 1.09877 1.70098 0
M  V30 28997 C 2743.45 -0.360587 1.91128 0
M  V30 28998 O 2742.71 -1.28226 1.4784 0
M  V30 28999 C 2743 1.79606 3.08992 0
M  V30 29000 C 2742.67 3.29529 3.07769 0
M  V30 29001 C 2741.33 3.70428 3.07142 0
M  V30 29002 C 2743.68 4.25321 3.0125 0
M  V30 29003 C 2741.01 5.05535 2.97743 0
M  V30 29004 C 2743.36 5.60449 2.93393 0
M  V30 29005 C 2742.03 6.0068 2.91101 0
M  V30 29006 H 2741.3 0.402067 0.622433 0
M  V30 29007 H 2743.95 1.55493 1.11777 0
M  V30 29008 H 2742.25 1.26415 3.70846 0
M  V30 29009 H 2743.95 1.65169 3.65404 0
M  V30 29010 H 2740.54 2.96985 3.09027 0
M  V30 29011 H 2744.72 3.94716 3.00854 0
M  V30 29012 H 2739.98 5.35888 2.94336 0
M  V30 29013 H 2744.15 6.34371 2.87309 0
M  V30 29014 H 2741.78 7.0533 2.83573 0
M  V30 29015 N 2743.35 -1.15894 1.068 0
M  V30 29016 C 2744.58 -1.90981 0.808773 0
M  V30 29017 C 2745 -1.7718 -0.631568 0
M  V30 29018 O 2744.36 -1.10064 -1.44068 0
M  V30 29019 C 2744.41 -3.39524 1.21474 0
M  V30 29020 O 2743.51 -4.10855 0.356634 0
M  V30 29021 H 2742.85 -0.594806 0.29513 0
M  V30 29022 H 2745.38 -1.46801 1.42515 0
M  V30 29023 H 2745.39 -3.90306 1.18851 0
M  V30 29024 H 2744.07 -3.48888 2.26385 0
M  V30 29025 H 2742.65 -3.70237 0.444874 0
M  V30 29026 N 2744.83 -0.851312 -1.32629 0
M  V30 29027 C 2745.76 -0.308812 -2.31449 0
M  V30 29028 C 2746.74 0.590227 -1.59532 0
M  V30 29029 O 2747.93 0.511172 -1.87352 0
M  V30 29030 C 2745.06 0.506488 -3.43587 0
M  V30 29031 C 2744.01 -0.297828 -4.26963 0
M  V30 29032 C 2743.34 0.642001 -5.30832 0
M  V30 29033 C 2744.64 -1.52174 -4.9964 0
M  V30 29034 H 2746.33 -1.13452 -2.77072 0
M  V30 29035 H 2743.88 -0.546995 -1.33206 0
M  V30 29036 H 2745.83 0.896402 -4.11756 0
M  V30 29037 H 2744.55 1.36553 -2.96683 0
M  V30 29038 H 2743.21 -0.669455 -3.60436 0
M  V30 29039 H 2742.86 1.49779 -4.80182 0
M  V30 29040 H 2742.56 0.107865 -5.87501 0
M  V30 29041 H 2744.09 1.02916 -6.01864 0
M  V30 29042 H 2745.5 -1.20431 -5.60508 0
M  V30 29043 H 2743.9 -1.99357 -5.66018 0
M  V30 29044 H 2744.97 -2.28481 -4.27697 0
M  V30 29045 N 2746.31 1.45361 -0.608928 0
M  V30 29046 C 2747.26 2.32282 0.121598 0
M  V30 29047 C 2748.25 1.46048 0.858275 0
M  V30 29048 O 2749.46 1.62524 0.773689 0
M  V30 29049 H 2745.83 0.749754 0.0580728 0
M  V30 29050 H 2747.8 2.91676 -0.629918 0
M  V30 29051 C 2746.55 3.29686 1.10464 0
M  V30 29052 H 2745.88 3.96037 0.547208 0
M  V30 29053 H 2747.32 3.93232 1.58569 0
M  V30 29054 C 2745.77 2.56957 2.17886 0
M  V30 29055 O 2746.3 2.35195 3.25648 0
M  V30 29056 N 2744.51 2.1707 1.93207 0
M  V30 29057 H 2744.06 2.34969 1.0558 0
M  V30 29058 H 2744.02 1.68731 2.65287 0
M  V30 29059 N 2747.79 0.348166 1.53706 0
M  V30 29060 C 2749.01 -0.250847 2.05877 0
M  V30 29061 C 2749.44 -1.4307 1.22117 0
M  V30 29062 O 2748.8 -1.79757 0.236017 0
M  V30 29063 C 2748.84 -0.639354 3.54887 0
M  V30 29064 O 2747.95 -1.73881 3.73951 0
M  V30 29065 H 2747.29 -0.0406414 0.662755 0
M  V30 29066 H 2749.82 0.50372 1.98302 0
M  V30 29067 H 2749.83 -0.915225 3.97602 0
M  V30 29068 H 2748.5 0.223459 4.15299 0
M  V30 29069 H 2747.08 -1.45985 3.43137 0
M  V30 29070 N 2749.27 -1.57412 0.0768958 0
M  V30 29071 C 2750.54 -1.85097 -0.632327 0
M  V30 29072 C 2750.92 -0.970333 -1.87477 0
M  V30 29073 O 2750.27 -0.0379464 -2.28468 0
M  V30 29074 C 2750.48 -3.3539 -0.965115 0
M  V30 29075 C 2751.83 -4.0302 -1.33641 0
M  V30 29076 O 2752.85 -3.40165 -1.05669 0
M  V30 29077 O 2751.71 -5.13892 -1.8595 0
M  V30 29078 H 2748.81 -0.76484 -0.31456 0
M  V30 29079 H 2751.35 -1.69355 0.108214 0
M  V30 29080 H 2750.12 -3.91212 -0.0829057 0
M  V30 29081 H 2749.75 -3.56414 -1.76225 0
M  V30 29082 N 2750.74 0.196695 -1.56368 0
M  V30 29083 C 2752.16 0.547464 -1.49917 0
M  V30 29084 C 2752.36 1.85932 -0.776623 0
M  V30 29085 O 2751.42 2.5038 -0.326484 0
M  V30 29086 C 2752.73 0.603682 -2.94578 0
M  V30 29087 C 2754.28 0.692624 -3.0524 0
M  V30 29088 C 2754.75 0.779967 -4.5131 0
M  V30 29089 N 2756.24 0.843536 -4.55454 0
M  V30 29090 C 2756.98 0.931259 -5.65787 0
M  V30 29091 N 2756.47 0.981382 -6.85814 0
M  V30 29092 N 2758.27 0.968323 -5.53697 0
M  V30 29093 H 2750.42 -0.663838 -2.0176 0
M  V30 29094 H 2752.68 -0.236254 -0.918089 0
M  V30 29095 H 2752.39 -0.291111 -3.50493 0
M  V30 29096 H 2752.26 1.45892 -3.47844 0
M  V30 29097 H 2754.65 1.57785 -2.49375 0
M  V30 29098 H 2754.73 -0.188781 -2.55102 0
M  V30 29099 H 2754.37 -0.1009 -5.078 0
M  V30 29100 H 2754.3 1.67715 -4.99179 0
M  V30 29101 H 2756.79 0.814111 -3.69027 0
M  V30 29102 H 2757.11 1.04879 -7.6565 0
M  V30 29103 H 2755.45 0.950087 -6.88475 0
M  V30 29104 H 2758.64 0.925991 -4.5885 0
M  V30 29105 H 2758.82 1.03323 -6.3971 0
M  V30 29106 N 2752.22 1.50604 0.464349 0
M  V30 29107 C 2753.45 1.65973 1.24369 0
M  V30 29108 C 2753.87 0.345486 1.849 0
M  V30 29109 O 2753.23 -0.691427 1.67598 0
M  V30 29110 C 2753.28 2.75784 2.32326 0
M  V30 29111 O 2752.38 2.37506 3.37142 0
M  V30 29112 H 2751.72 0.554289 0.365595 0
M  V30 29113 H 2754.25 1.97019 0.551796 0
M  V30 29114 H 2754.26 2.99064 2.77534 0
M  V30 29115 H 2752.94 3.71165 1.87642 0
M  V30 29116 H 2751.52 2.24699 2.97598 0
M  V30 29117 N 2753.7 -0.717989 1.40295 0
M  V30 29118 C 2754.93 -1.51217 1.41944 0
M  V30 29119 C 2755.35 -1.88089 0.0202701 0
M  V30 29120 O 2754.71 -1.53102 -0.971051 0
M  V30 29121 C 2754.76 -2.7655 2.31415 0
M  V30 29122 O 2753.86 -3.73159 1.75574 0
M  V30 29123 H 2753.2 -0.456007 0.482652 0
M  V30 29124 H 2755.73 -0.884445 1.84496 0
M  V30 29125 H 2755.74 -3.25104 2.46518 0
M  V30 29126 H 2754.42 -2.49047 3.33089 0
M  V30 29127 H 2752.99 -3.31996 1.69804 0
M  V30 29128 N 2755.18 -1.25752 -0.94996 0
M  V30 29129 C 2756.4 -1.13631 -1.73501 0
M  V30 29130 C 2756.83 0.305557 -1.85602 0
M  V30 29131 O 2756.19 1.22137 -1.33986 0
M  V30 29132 C 2756.23 -1.80061 -3.12427 0
M  V30 29133 O 2755.34 -1.08343 -3.97914 0
M  V30 29134 H 2754.68 -0.396449 -0.532658 0
M  V30 29135 H 2757.21 -1.66405 -1.1904 0
M  V30 29136 H 2757.22 -1.86533 -3.62863 0
M  V30 29137 H 2755.89 -2.84961 -3.02936 0
M  V30 29138 H 2754.47 -1.09784 -3.56373 0
M  V30 29139 N 2756.66 1.15326 -1.07413 0
M  V30 29140 C 2757.91 1.85471 -0.792676 0
M  V30 29141 C 2758.22 1.8326 0.683757 0
M  V30 29142 O 2759.42 2.49094 1.08001 0
M  V30 29143 C 2757.88 3.3289 -1.36793 0
M  V30 29144 C 2757.49 3.43545 -2.87542 0
M  V30 29145 C 2759.23 4.08215 -1.16452 0
M  V30 29146 C 2757.14 4.85116 -3.38255 0
M  V30 29147 H 2756.07 0.694806 -0.29285 0
M  V30 29148 H 2758.72 1.30079 -1.29428 0
M  V30 29149 H 2757.1 3.87957 -0.794061 0
M  V30 29150 H 2758.28 2.98581 -3.50978 0
M  V30 29151 H 2756.59 2.81666 -3.06681 0
M  V30 29152 H 2759.19 5.12695 -1.51817 0
M  V30 29153 H 2759.53 4.16171 -0.103603 0
M  V30 29154 H 2760.06 3.59419 -1.70478 0
M  V30 29155 H 2756.8 4.82344 -4.43875 0
M  V30 29156 H 2756.32 5.30659 -2.79573 0
M  V30 29157 H 2758 5.53974 -3.34248 0
M  V30 29158 N 2758.13 0.858334 1.32176 0
M  V30 29159 C 2759.06 0.321082 2.31282 0
M  V30 29160 C 2760.05 -0.581758 1.59842 0
M  V30 29161 O 2761.23 -0.501229 1.8762 0
M  V30 29162 C 2758.36 -0.48826 3.43851 0
M  V30 29163 C 2757.31 0.320466 4.26799 0
M  V30 29164 C 2756.64 -0.61384 5.31165 0
M  V30 29165 C 2757.94 1.54822 4.98826 0
M  V30 29166 H 2759.63 1.1492 2.76467 0
M  V30 29167 H 2757.18 0.554051 1.32915 0
M  V30 29168 H 2759.13 -0.874553 4.12225 0
M  V30 29169 H 2757.86 -1.34978 2.97403 0
M  V30 29170 H 2756.52 0.68856 3.60076 0
M  V30 29171 H 2756.16 -1.47231 4.8097 0
M  V30 29172 H 2755.86 -0.0767064 5.8755 0
M  V30 29173 H 2757.39 -0.99723 6.02402 0
M  V30 29174 H 2758.8 1.23401 5.59862 0
M  V30 29175 H 2757.2 2.02356 5.64953 0
M  V30 29176 H 2758.27 2.30746 4.26479 0
M  V30 29177 N 2759.61 -1.45036 0.616628 0
M  V30 29178 C 2760.54 -2.33349 -0.0840377 0
M  V30 29179 C 2761.52 -1.47362 -0.849615 0
M  V30 29180 O 2762.71 -1.76114 -0.818376 0
M  V30 29181 C 2759.84 -3.30212 -1.07599 0
M  V30 29182 C 2758.79 -4.25904 -0.423021 0
M  V30 29183 C 2758.12 -5.12526 -1.52385 0
M  V30 29184 C 2759.42 -5.18093 0.661549 0
M  V30 29185 H 2761.11 -2.92184 0.653385 0
M  V30 29186 H 2758.66 -1.40498 0.315658 0
M  V30 29187 H 2760.61 -3.90869 -1.57479 0
M  V30 29188 H 2759.34 -2.69555 -1.84412 0
M  V30 29189 H 2757.99 -3.66559 0.0549944 0
M  V30 29190 H 2757.64 -4.48231 -2.28249 0
M  V30 29191 H 2757.34 -5.77356 -1.09241 0
M  V30 29192 H 2758.87 -5.76052 -2.02474 0
M  V30 29193 H 2760.28 -5.7277 0.246453 0
M  V30 29194 H 2758.68 -5.91449 1.01527 0
M  V30 29195 H 2759.75 -4.59978 1.53454 0
M  V30 29196 N 2761.09 -0.356312 -1.53519 0
M  V30 29197 C 2762.34 0.235801 -2.0072 0
M  V30 29198 C 2762.66 1.50038 -1.24554 0
M  V30 29199 O 2761.93 1.92634 -0.356219 0
M  V30 29200 H 2760.51 0.0901235 -0.741543 0
M  V30 29201 H 2763.17 -0.480411 -1.88886 0
M  V30 29202 H 2762.27 0.469303 -3.08551 0
M  V30 29203 N 2762.57 1.57369 -0.0852427 0
M  V30 29204 C 2763.85 1.8543 0.622502 0
M  V30 29205 C 2764.23 0.980262 1.8696 0
M  V30 29206 O 2763.57 0.0500621 2.28445 0
M  V30 29207 C 2763.78 3.35897 0.947314 0
M  V30 29208 C 2765.13 4.03723 1.31502 0
M  V30 29209 O 2766.16 3.40721 1.03863 0
M  V30 29210 O 2765.01 5.14871 1.83222 0
M  V30 29211 H 2762.11 0.766498 0.3105 0
M  V30 29212 H 2764.65 1.69295 -0.117194 0
M  V30 29213 H 2763.43 3.91251 0.0621576 0
M  V30 29214 H 2763.05 3.57343 1.74332 0
M  V30 29215 N 2764.05 -0.188399 1.5647 0
M  V30 29216 C 2765.32 -0.934028 1.71858 0
M  V30 29217 C 2765.7 -2.01104 0.641902 0
M  V30 29218 O 2765.05 -2.25864 -0.346058 0
M  V30 29219 C 2765.26 -1.51435 3.14434 0
M  V30 29220 C 2766.61 -1.99389 3.74872 0
M  V30 29221 O 2767.63 -1.61264 3.17604 0
M  V30 29222 O 2766.49 -2.69565 4.75392 0
M  V30 29223 H 2763.59 -0.43847 0.701194 0
M  V30 29224 H 2766.13 -0.17757 1.68768 0
M  V30 29225 H 2764.9 -0.738349 3.84271 0
M  V30 29226 H 2764.53 -2.33546 3.21779 0
M  V30 29227 N 2765.53 -1.50848 -0.456355 0
M  V30 29228 C 2766.46 -1.73722 -1.56022 0
M  V30 29229 C 2767.44 -0.586501 -1.59669 0
M  V30 29230 O 2768.62 -0.827216 -1.75701 0
M  V30 29231 C 2765.75 -1.84488 -2.94247 0
M  V30 29232 C 2764.71 -2.99791 -3.05466 0
M  V30 29233 C 2764.03 -2.95717 -4.45483 0
M  V30 29234 C 2765.33 -4.4007 -2.8131 0
M  V30 29235 H 2767.03 -2.66148 -1.37133 0
M  V30 29236 H 2764.57 -1.28073 -0.658277 0
M  V30 29237 H 2766.52 -1.99074 -3.71413 0
M  V30 29238 H 2765.25 -0.886946 -3.14326 0
M  V30 29239 H 2763.91 -2.8488 -2.30736 0
M  V30 29240 H 2763.56 -1.9774 -4.62502 0
M  V30 29241 H 2763.26 -3.73133 -4.53923 0
M  V30 29242 H 2764.78 -3.12371 -5.24649 0
M  V30 29243 H 2766.19 -4.55431 -3.48218 0
M  V30 29244 H 2764.59 -5.19048 -3.01179 0
M  V30 29245 H 2765.66 -4.51421 -1.77052 0
M  V30 29246 N 2767 0.710538 -1.40674 0
M  V30 29247 C 2768.23 1.50462 -1.42744 0
M  V30 29248 C 2768.65 1.88076 -0.0302447 0
M  V30 29249 O 2768.01 1.53615 0.962918 0
M  V30 29250 C 2768.06 2.75318 -2.32878 0
M  V30 29251 O 2767.16 3.72222 -1.77551 0
M  V30 29252 H 2766.5 0.453441 -0.485064 0
M  V30 29253 H 2769.03 0.874648 -1.84962 0
M  V30 29254 H 2769.04 3.23792 -2.48239 0
M  V30 29255 H 2767.72 2.47277 -3.34405 0
M  V30 29256 H 2766.3 3.3109 -1.71562 0
M  V30 29257 N 2768.48 1.26254 0.943277 0
M  V30 29258 C 2769.41 1.10125 2.059 0
M  V30 29259 C 2770.39 0.00703542 1.70099 0
M  V30 29260 O 2771.58 0.178675 1.93376 0
M  V30 29261 C 2768.71 0.731235 3.39515 0
M  V30 29262 C 2767.66 1.77695 3.89369 0
M  V30 29263 C 2766.99 1.26131 5.1961 0
M  V30 29264 C 2768.29 3.17806 4.14484 0
M  V30 29265 H 2769.98 2.03454 2.19651 0
M  V30 29266 H 2767.53 0.979594 1.05546 0
M  V30 29267 H 2769.48 0.605288 4.1703 0
M  V30 29268 H 2768.2 -0.237763 3.25733 0
M  V30 29269 H 2766.86 1.89153 3.14033 0
M  V30 29270 H 2766.51 0.282216 5.02208 0
M  V30 29271 H 2766.21 1.96032 5.53936 0
M  V30 29272 H 2767.74 1.14799 5.99711 0
M  V30 29273 H 2769.15 3.09437 4.8262 0
M  V30 29274 H 2767.55 3.85279 4.60087 0
M  V30 29275 H 2768.62 3.64019 3.2034 0
M  V30 29276 N 2769.96 -1.14755 1.08024 0
M  V30 29277 C 2770.87 -2.23332 0.718331 0
M  V30 29278 C 2771.89 -1.71838 -0.273447 0
M  V30 29279 O 2773.06 -2.01052 -0.11837 0
M  V30 29280 C 2770.13 -3.4646 0.128916 0
M  V30 29281 C 2769.19 -4.12913 1.17481 0
M  V30 29282 C 2768.42 -5.30163 0.613423 0
M  V30 29283 O 2768.64 -5.67561 -0.568358 0
M  V30 29284 O 2767.58 -5.86297 1.3616 0
M  V30 29285 H 2771.4 -2.56633 1.62399 0
M  V30 29286 H 2768.99 -1.2261 0.853649 0
M  V30 29287 H 2770.87 -4.20938 -0.197175 0
M  V30 29288 H 2769.55 -3.14893 -0.749959 0
M  V30 29289 H 2768.45 -3.40325 1.55336 0
M  V30 29290 H 2769.79 -4.48577 2.02582 0
M  V30 29291 N 2771.44 -0.865331 -1.31719 0
M  V30 29292 C 2772.71 -0.394823 -1.91574 0
M  V30 29293 C 2773.09 1.12268 -1.78771 0
M  V30 29294 O 2772.44 1.94916 -1.19248 0
M  V30 29295 C 2772.65 -0.871042 -3.37955 0
M  V30 29296 C 2774 -0.894457 -4.15072 0
M  V30 29297 O 2775.02 -0.816386 -3.46718 0
M  V30 29298 O 2773.88 -1.0066 -5.3715 0
M  V30 29299 H 2770.98 -0.117243 -0.818647 0
M  V30 29300 H 2773.52 -0.952938 -1.40418 0
M  V30 29301 H 2772.3 -1.9145 -3.41266 0
M  V30 29302 H 2771.92 -0.290977 -3.96534 0
M  V30 29303 N 2772.92 1.44707 -0.624311 0
M  V30 29304 C 2774.33 1.85524 -0.209233 0
M  V30 29305 C 2774.68 1.52227 1.2378 0
M  V30 29306 O 2773.8 0.95702 1.94088 0
M  V30 29307 C 2774.4 3.36741 -0.372956 0
M  V30 29308 C 2772.96 3.76398 -0.0124401 0
M  V30 29309 C 2772.1 2.6859 -0.689557 0
M  V30 29310 H 2775.05 1.3527 -0.829917 0
M  V30 29311 H 2775.08 3.78495 0.390068 0
M  V30 29312 H 2774.59 3.60944 -1.42622 0
M  V30 29313 H 2772.69 3.5781 1.03935 0
M  V30 29314 H 2772.8 4.77275 -0.417747 0
M  V30 29315 H 2771.17 2.5439 -0.125529 0
M  V30 29316 H 2771.95 2.95626 -1.74528 0
M  V30 29317 N 2774.39 0.364449 1.53328 0
M  V30 29318 C 2775.62 -0.226388 2.05658 0
M  V30 29319 C 2776.04 -1.42542 1.23803 0
M  V30 29320 O 2775.39 -1.80364 0.278421 0
M  V30 29321 C 2775.44 -0.620993 3.56126 0
M  V30 29322 O 2775.17 0.53038 4.34878 0
M  V30 29323 C 2776.67 -1.27034 4.24708 0
M  V30 29324 H 2773.89 -0.0399938 0.669807 0
M  V30 29325 H 2776.43 0.522491 1.97713 0
M  V30 29326 H 2774.59 -1.31979 3.64226 0
M  V30 29327 H 2775 0.211638 5.24073 0
M  V30 29328 H 2776.47 -1.49702 5.31313 0
M  V30 29329 H 2776.95 -2.23029 3.78358 0
M  V30 29330 H 2777.56 -0.613005 4.20859 0
M  V30 29331 N 2775.87 -1.57322 0.0935872 0
M  V30 29332 C 2776.83 -2.128 -0.851389 0
M  V30 29333 C 2777.83 -1.05692 -1.21185 0
M  V30 29334 O 2779.02 -1.31585 -1.14154 0
M  V30 29335 C 2776.16 -2.64735 -2.14775 0
M  V30 29336 H 2777.35 -2.97613 -0.369681 0
M  V30 29337 H 2774.9 -1.55526 -0.15539 0
M  V30 29338 H 2775.64 -1.83438 -2.67434 0
M  V30 29339 H 2775.42 -3.43045 -1.89901 0
M  V30 29340 H 2776.91 -3.07656 -2.82378 0
M  V30 29341 N 2777.35 0.180099 -1.56568 0
M  V30 29342 C 2778.59 0.904729 -1.83287 0
M  V30 29343 C 2778.95 1.79809 -0.673257 0
M  V30 29344 O 2780.15 2.55965 -0.82069 0
M  V30 29345 C 2778.43 1.68683 -3.15089 0
M  V30 29346 S 2779.98 2.46142 -3.63262 0
M  V30 29347 H 2776.8 0.303181 -0.643119 0
M  V30 29348 H 2779.4 0.167 -1.94785 0
M  V30 29349 H 2778.11 1.02141 -3.97486 0
M  V30 29350 H 2777.64 2.4661 -3.06508 0
M  V30 29351 H 2779.65 3.70657 -3.2989 0
M  V30 29352 N 2778.83 1.51088 0.448349 0
M  V30 29353 C 2780.24 1.55812 1.02857 0
M  V30 29354 C 2780.59 0.375023 1.92582 0
M  V30 29355 O 2779.71 -0.509496 2.10317 0
M  V30 29356 C 2780.31 2.82374 1.87218 0
M  V30 29357 C 2778.87 2.89704 2.40309 0
M  V30 29358 C 2778.02 2.50357 1.19233 0
M  V30 29359 H 2780.97 1.57024 0.230047 0
M  V30 29360 H 2780.99 2.65514 2.72548 0
M  V30 29361 H 2780.5 3.68463 1.21888 0
M  V30 29362 H 2778.6 2.0802 3.09125 0
M  V30 29363 H 2778.71 3.93113 2.7386 0
M  V30 29364 H 2777.08 2.03305 1.53424 0
M  V30 29365 H 2777.86 3.38779 0.555308 0
M  V30 29366 N 2780.31 -0.703068 1.41049 0
M  V30 29367 C 2781.72 -1.28271 1.35659 0
M  V30 29368 C 2782.07 -1.96167 0.0360654 0
M  V30 29369 O 2781.19 -1.98325 -0.865799 0
M  V30 29370 C 2781.79 -2.33262 2.45711 0
M  V30 29371 C 2780.35 -2.86821 2.43743 0
M  V30 29372 C 2779.49 -1.60763 2.25944 0
M  V30 29373 H 2782.45 -0.498333 1.50673 0
M  V30 29374 H 2782.47 -3.14387 2.14338 0
M  V30 29375 H 2781.98 -1.83818 3.41808 0
M  V30 29376 H 2780.08 -3.40462 1.51381 0
M  V30 29377 H 2780.19 -3.37762 3.39785 0
M  V30 29378 H 2778.56 -1.86295 1.73685 0
M  V30 29379 H 2779.34 -1.13325 3.24056 0
M  V30 29380 N 2781.78 -1.26752 -0.936569 0
M  V30 29381 C 2783.03 -1.12346 -1.67996 0
M  V30 29382 C 2783.35 0.332905 -1.92137 0
M  V30 29383 O 2782.62 1.23418 -1.52134 0
M  V30 29384 H 2781.2 -0.412767 -0.622602 0
M  V30 29385 H 2783.87 -1.59149 -1.12506 0
M  V30 29386 H 2782.96 -1.64576 -2.65182 0
M  V30 29387 N 2783.26 1.1418 -1.08631 0
M  V30 29388 C 2784.68 1.37259 -0.814387 0
M  V30 29389 C 2784.88 1.93115 0.575237 0
M  V30 29390 O 2783.93 2.14533 1.33161 0
M  V30 29391 C 2785.25 2.33154 -1.89894 0
M  V30 29392 C 2786.8 2.46788 -1.92522 0
M  V30 29393 C 2787.27 3.45984 -3.00098 0
M  V30 29394 N 2788.76 3.53529 -2.99285 0
M  V30 29395 C 2789.5 4.3014 -3.79166 0
M  V30 29396 N 2788.99 5.09975 -4.68932 0
M  V30 29397 N 2790.79 4.25359 -3.67458 0
M  V30 29398 H 2782.94 0.762723 -1.98233 0
M  V30 29399 H 2785.2 0.398036 -0.86039 0
M  V30 29400 H 2784.91 1.99252 -2.89813 0
M  V30 29401 H 2784.78 3.33083 -1.77019 0
M  V30 29402 H 2787.17 2.7998 -0.932474 0
M  V30 29403 H 2787.25 1.46812 -2.09475 0
M  V30 29404 H 2786.89 3.13524 -3.99581 0
M  V30 29405 H 2786.82 4.45746 -2.8039 0
M  V30 29406 H 2789.31 2.96559 -2.34225 0
M  V30 29407 H 2789.63 5.65715 -5.26485 0
M  V30 29408 H 2787.97 5.09236 -4.72973 0
M  V30 29409 H 2791.16 3.62062 -2.96696 0
M  V30 29410 H 2791.33 4.84815 -4.29952 0
M  V30 29411 N 2784.74 0.872304 1.31258 0
M  V30 29412 C 2785.69 0.327897 2.28459 0
M  V30 29413 C 2786.66 -0.57493 1.55832 0
M  V30 29414 O 2787.84 -0.506069 1.83966 0
M  V30 29415 C 2784.98 -0.462584 3.41986 0
M  V30 29416 C 2784.1 0.468024 4.29457 0
M  V30 29417 C 2783.23 -0.33681 5.30131 0
M  V30 29418 C 2782.27 0.590077 6.09249 0
M  V30 29419 N 2781.41 -0.178651 7.01873 0
M  V30 29420 H 2786.25 1.16198 2.74412 0
M  V30 29421 H 2783.78 0.5844 1.34993 0
M  V30 29422 H 2785.74 -0.936688 4.06549 0
M  V30 29423 H 2784.37 -1.26135 2.97136 0
M  V30 29424 H 2783.42 1.06058 3.65316 0
M  V30 29425 H 2784.74 1.17864 4.84675 0
M  V30 29426 H 2783.89 -0.873322 6.00382 0
M  V30 29427 H 2782.63 -1.08071 4.75575 0
M  V30 29428 H 2781.63 1.13833 5.37887 0
M  V30 29429 H 2782.86 1.33287 6.65891 0
M  V30 29430 H 2780.8 -0.90532 6.49723 0
M  V30 29431 H 2780.72 0.472585 7.54521 0
M  V30 29432 H 2781.99 -0.696318 7.76384 0
M  V30 29433 N 2786.22 -1.44374 0.631976 0
M  V30 29434 C 2787.5 -1.95483 0.0676803 0
M  V30 29435 C 2787.88 -1.57392 -1.4068 0
M  V30 29436 O 2787.22 -0.848412 -2.12166 0
M  V30 29437 C 2787.43 -3.47781 0.291453 0
M  V30 29438 C 2788.78 -4.24196 0.185102 0
M  V30 29439 O 2789.81 -3.55502 0.222865 0
M  V30 29440 O 2788.66 -5.46425 0.0907602 0
M  V30 29441 H 2785.76 -0.826712 -0.0218234 0
M  V30 29442 H 2788.3 -1.5442 0.703739 0
M  V30 29443 H 2787.08 -3.68558 1.31455 0
M  V30 29444 H 2786.7 -3.95792 -0.378702 0
M  V30 29445 N 2787.7 -0.372575 -1.53133 0
M  V30 29446 C 2788.92 0.218062 -2.0625 0
M  V30 29447 C 2789.35 1.41109 -1.24378 0
M  V30 29448 O 2788.7 1.79359 -0.264585 0
M  V30 29449 C 2788.75 0.582814 -3.55859 0
M  V30 29450 O 2787.86 1.6791 -3.7667 0
M  V30 29451 H 2787.2 0.0300924 -0.663318 0
M  V30 29452 H 2789.73 -0.535204 -1.97476 0
M  V30 29453 H 2789.74 0.851855 -3.99008 0
M  V30 29454 H 2788.41 -0.289501 -4.14891 0
M  V30 29455 H 2786.99 1.40507 -3.45416 0
M  V30 29456 N 2789.17 1.5727 -0.101929 0
M  V30 29457 C 2790.12 2.14397 0.854539 0
M  V30 29458 C 2791.09 1.06434 1.27519 0
M  V30 29459 O 2792.28 1.34256 1.35573 0
M  V30 29460 C 2789.42 2.73412 2.10571 0
M  V30 29461 C 2788.53 3.95629 1.73497 0
M  V30 29462 C 2787.66 4.42786 2.93452 0
M  V30 29463 C 2786.7 5.57576 2.52537 0
M  V30 29464 N 2785.84 5.99554 3.65349 0
M  V30 29465 H 2790.68 2.95811 0.360526 0
M  V30 29466 H 2788.22 1.46157 0.166277 0
M  V30 29467 H 2790.18 3.0575 2.83854 0
M  V30 29468 H 2788.81 1.94716 2.5746 0
M  V30 29469 H 2787.86 3.69562 0.901557 0
M  V30 29470 H 2789.17 4.7892 1.39417 0
M  V30 29471 H 2788.32 4.76943 3.7498 0
M  V30 29472 H 2787.06 3.5841 3.30747 0
M  V30 29473 H 2786.07 5.2304 1.69437 0
M  V30 29474 H 2787.29 6.43706 2.16379 0
M  V30 29475 H 2785.24 5.18123 4.02349 0
M  V30 29476 H 2785.16 6.77657 3.35136 0
M  V30 29477 H 2786.42 6.38344 4.47367 0
M  V30 29478 N 2790.65 -0.171793 1.56661 0
M  V30 29479 C 2791.9 -0.886742 1.81608 0
M  V30 29480 C 2792.22 -1.82802 0.67885 0
M  V30 29481 O 2791.49 -1.93569 -0.30132 0
M  V30 29482 H 2790.07 -0.330439 0.66994 0
M  V30 29483 H 2792.73 -0.171723 1.94142 0
M  V30 29484 H 2791.83 -1.46393 2.75637 0
M  V30 29485 N 2792.13 -1.51324 -0.44033 0
M  V30 29486 C 2793.04 -1.75261 -1.55952 0
M  V30 29487 C 2794.06 -0.636715 -1.61932 0
M  V30 29488 O 2795.23 -0.918625 -1.7923 0
M  V30 29489 C 2792.3 -1.86982 -2.91956 0
M  V30 29490 C 2791.36 -3.10827 -2.96117 0
M  V30 29491 C 2790.59 -3.2198 -4.25634 0
M  V30 29492 O 2790.81 -2.39146 -5.17847 0
M  V30 29493 O 2789.75 -4.14937 -4.36017 0
M  V30 29494 H 2793.57 -2.70194 -1.38668 0
M  V30 29495 H 2791.16 -1.35789 -0.623031 0
M  V30 29496 H 2793.04 -1.96695 -3.72678 0
M  V30 29497 H 2791.72 -0.952361 -3.09373 0
M  V30 29498 H 2790.62 -3.06595 -2.14361 0
M  V30 29499 H 2791.96 -4.02252 -2.83644 0
M  V30 29500 N 2793.61 0.695578 -1.41419 0
M  V30 29501 C 2794.54 1.82195 -1.46039 0
M  V30 29502 C 2795.52 1.67081 -0.319054 0
M  V30 29503 O 2796.7 1.86814 -0.530495 0
M  V30 29504 C 2793.83 3.20331 -1.34184 0
M  V30 29505 C 2792.79 3.50149 -2.46129 0
M  V30 29506 C 2792.11 4.87641 -2.1934 0
M  V30 29507 C 2793.41 3.49126 -3.88469 0
M  V30 29508 H 2795.11 1.78587 -2.40306 0
M  V30 29509 H 2792.65 0.857777 -1.15664 0
M  V30 29510 H 2794.61 3.98841 -1.36028 0
M  V30 29511 H 2793.33 3.24565 -0.364009 0
M  V30 29512 H 2791.99 2.7399 -2.43568 0
M  V30 29513 H 2791.64 4.88501 -1.199 0
M  V30 29514 H 2791.34 5.08557 -2.94353 0
M  V30 29515 H 2792.86 5.68461 -2.22899 0
M  V30 29516 H 2794.28 4.17641 -3.92745 0
M  V30 29517 H 2792.67 3.81574 -4.63164 0
M  V30 29518 H 2793.74 2.48102 -4.16622 0
M  V30 29519 N 2795.09 1.27247 0.929833 0
M  V30 29520 C 2796.36 1.04189 1.65542 0
M  V30 29521 C 2796.74 -0.42406 2.06797 0
M  V30 29522 O 2796.09 -1.40684 1.80056 0
M  V30 29523 C 2796.3 2.00143 2.85909 0
M  V30 29524 C 2797.65 2.29393 3.57301 0
M  V30 29525 O 2798.67 1.981 2.96032 0
M  V30 29526 O 2797.53 2.82728 4.67683 0
M  V30 29527 H 2794.63 0.397024 0.725466 0
M  V30 29528 H 2797.17 1.38503 0.980559 0
M  V30 29529 H 2795.95 2.99017 2.52398 0
M  V30 29530 H 2795.57 1.66377 3.61115 0
M  V30 29531 N 2796.57 -1.13603 1.09235 0
M  V30 29532 C 2797.98 -1.66388 0.846868 0
M  V30 29533 C 2798.33 -1.85979 -0.624998 0
M  V30 29534 O 2797.45 -1.57716 -1.48171 0
M  V30 29535 C 2798.05 -3.02247 1.53075 0
M  V30 29536 C 2796.61 -3.52032 1.3323 0
M  V30 29537 C 2795.75 -2.2732 1.5881 0
M  V30 29538 H 2798.7 -0.975519 1.25177 0
M  V30 29539 H 2798.73 -3.68119 0.962735 0
M  V30 29540 H 2798.24 -2.87957 2.60197 0
M  V30 29541 H 2796.34 -3.7153 0.282156 0
M  V30 29542 H 2796.45 -4.32276 2.06578 0
M  V30 29543 H 2794.82 -2.33814 1.01011 0
M  V30 29544 H 2795.6 -2.15597 2.67157 0
M  V30 29545 N 2798.04 -0.879253 -1.30793 0
M  V30 29546 C 2799.45 -0.546124 -1.78534 0
M  V30 29547 C 2799.81 0.937437 -1.72356 0
M  V30 29548 O 2798.93 1.7323 -1.29693 0
M  V30 29549 C 2799.53 -0.984557 -3.24179 0
M  V30 29550 C 2798.08 -0.702936 -3.69778 0
M  V30 29551 C 2797.23 -1.17072 -2.51375 0
M  V30 29552 H 2800.18 -1.06405 -1.17744 0
M  V30 29553 H 2800.2 -0.311112 -3.79226 0
M  V30 29554 H 2799.72 -2.06435 -3.28643 0
M  V30 29555 H 2797.82 0.365101 -3.70807 0
M  V30 29556 H 2797.93 -1.28647 -4.61505 0
M  V30 29557 H 2796.29 -0.590215 -2.47767 0
M  V30 29558 H 2797.08 -2.25813 -2.5858 0
M  V30 29559 N 2799.52 1.44037 -0.639624 0
M  V30 29560 C 2800.43 2.3452 0.0611965 0
M  V30 29561 C 2801.45 1.53107 0.82669 0
M  V30 29562 O 2802.62 1.85807 0.777027 0
M  V30 29563 C 2799.69 3.31206 1.02486 0
M  V30 29564 C 2798.75 4.28525 0.257804 0
M  V30 29565 C 2797.98 5.20592 1.17557 0
M  V30 29566 O 2798.21 5.16776 2.41452 0
M  V30 29567 O 2797.14 5.98322 0.655302 0
M  V30 29568 H 2800.97 2.95915 -0.683232 0
M  V30 29569 H 2798.55 1.43951 -0.399809 0
M  V30 29570 H 2800.43 3.90697 1.57905 0
M  V30 29571 H 2799.11 2.72333 1.74975 0
M  V30 29572 H 2798.01 3.72555 -0.339632 0
M  V30 29573 H 2799.35 4.90342 -0.42724 0
M  V30 29574 N 2801 0.380691 1.52933 0
M  V30 29575 C 2802.41 -0.0952356 1.86457 0
M  V30 29576 C 2802.76 -1.46886 1.30073 0
M  V30 29577 O 2801.89 -2.07067 0.628673 0
M  V30 29578 C 2802.48 -0.179589 3.38324 0
M  V30 29579 C 2801.04 -0.599793 3.7159 0
M  V30 29580 C 2800.19 0.243621 2.76228 0
M  V30 29581 H 2803.14 0.598906 1.46965 0
M  V30 29582 H 2803.16 -1.00035 3.67115 0
M  V30 29583 H 2802.67 0.820295 3.79332 0
M  V30 29584 H 2800.77 -1.60736 3.36147 0
M  V30 29585 H 2800.89 -0.363919 4.77716 0
M  V30 29586 H 2799.25 -0.289811 2.53046 0
M  V30 29587 H 2800.03 1.24132 3.20072 0
M  V30 29588 N 2802.48 -1.57214 0.110268 0
M  V30 29589 C 2803.41 -2.10542 -0.880187 0
M  V30 29590 C 2804.39 -1.01966 -1.26656 0
M  V30 29591 O 2805.57 -1.29564 -1.36914 0
M  V30 29592 C 2802.7 -2.59493 -2.17672 0
M  V30 29593 C 2801.75 -3.79872 -1.93907 0
M  V30 29594 S 2802.58 -5.22713 -1.16327 0
M  V30 29595 C 2803.73 -5.75025 -2.47178 0
M  V30 29596 H 2803.97 -2.94224 -0.426563 0
M  V30 29597 H 2801.5 -1.54054 -0.103333 0
M  V30 29598 H 2803.46 -2.88352 -2.9217 0
M  V30 29599 H 2802.12 -1.76009 -2.60153 0
M  V30 29600 H 2801.31 -4.12242 -2.89953 0
M  V30 29601 H 2800.91 -3.51584 -1.27532 0
M  V30 29602 H 2803.21 -5.84217 -3.43069 0
M  V30 29603 H 2804.15 -6.73264 -2.19365 0
M  V30 29604 H 2804.56 -5.03041 -2.56145 0
M  V30 29605 N 2803.96 0.163482 -1.5675 0
M  V30 29606 C 2805.37 0.515541 -1.51044 0
M  V30 29607 C 2805.57 1.84243 -0.815887 0
M  V30 29608 O 2804.63 2.49632 -0.37952 0
M  V30 29609 C 2805.94 0.541062 -2.95792 0
M  V30 29610 C 2807.49 0.627722 -3.06641 0
M  V30 29611 C 2807.96 0.684062 -4.52863 0
M  V30 29612 N 2809.45 0.746738 -4.57141 0
M  V30 29613 C 2810.19 0.811037 -5.67635 0
M  V30 29614 N 2809.69 0.83569 -6.87741 0
M  V30 29615 N 2811.48 0.850658 -5.55626 0
M  V30 29616 H 2803.63 -0.706485 -2.00306 0
M  V30 29617 H 2805.89 -0.255675 -0.912872 0
M  V30 29618 H 2805.6 -0.365391 -3.49797 0
M  V30 29619 H 2805.47 1.38481 -3.5086 0
M  V30 29620 H 2807.86 1.5246 -2.52666 0
M  V30 29621 H 2807.94 -0.24285 -2.54645 0
M  V30 29622 H 2807.58 -0.208589 -5.07471 0
M  V30 29623 H 2807.51 1.57089 -5.02624 0
M  V30 29624 H 2810.01 0.735652 -3.7067 0
M  V30 29625 H 2810.32 0.886144 -7.67703 0
M  V30 29626 H 2808.66 0.803837 -6.90336 0
M  V30 29627 H 2811.85 0.828454 -4.60711 0
M  V30 29628 H 2812.03 0.897305 -6.41757 0
M  V30 29629 N 2805.43 1.51555 0.432299 0
M  V30 29630 C 2806.68 1.64717 1.18306 0
M  V30 29631 C 2807.01 0.364729 1.90744 0
M  V30 29632 O 2806.29 -0.635904 1.83811 0
M  V30 29633 C 2806.57 2.85387 2.19605 0
M  V30 29634 C 2806.42 4.2362 1.51216 0
M  V30 29635 C 2807.74 3.01574 3.20532 0
M  V30 29636 H 2804.86 0.599459 0.42874 0
M  V30 29637 H 2807.5 1.84053 0.471656 0
M  V30 29638 H 2805.65 2.69032 2.80275 0
M  V30 29639 H 2807.33 4.51654 0.938437 0
M  V30 29640 H 2805.57 4.26086 0.814426 0
M  V30 29641 H 2806.24 5.04056 2.25015 0
M  V30 29642 H 2808.72 3.16674 2.6992 0
M  V30 29643 H 2807.59 3.87562 3.88699 0
M  V30 29644 H 2807.85 2.13865 3.86929 0
M  V30 29645 N 2806.91 -0.688069 1.41786 0
M  V30 29646 C 2808.16 -1.44527 1.41267 0
M  V30 29647 C 2808.48 -1.94984 0.0253289 0
M  V30 29648 O 2807.75 -1.72198 -0.934051 0
M  V30 29649 H 2806.33 -0.536285 0.520007 0
M  V30 29650 H 2808.99 -0.81391 1.77092 0
M  V30 29651 H 2808.09 -2.30478 2.10443 0
M  V30 29652 N 2808.39 -1.27739 -0.923072 0
M  V30 29653 C 2809.67 -1.05065 -1.64987 0
M  V30 29654 C 2810.05 0.413087 -2.07019 0
M  V30 29655 O 2809.39 1.39728 -1.80799 0
M  V30 29656 C 2809.6 -2.01657 -2.84843 0
M  V30 29657 C 2810.95 -2.31285 -3.56079 0
M  V30 29658 O 2811.98 -1.99667 -2.94977 0
M  V30 29659 O 2810.84 -2.85204 -4.66177 0
M  V30 29660 H 2807.93 -0.400865 -0.72335 0
M  V30 29661 H 2810.48 -1.39021 -0.9732 0
M  V30 29662 H 2809.25 -3.00351 -2.50808 0
M  V30 29663 H 2808.87 -1.6829 -3.60228 0
M  V30 29664 N 2809.87 1.13022 -1.09836 0
M  V30 29665 C 2810.8 2.20665 -0.76349 0
M  V30 29666 C 2811.78 1.6809 0.260748 0
M  V30 29667 O 2812.96 1.93778 0.127881 0
M  V30 29668 C 2810.09 3.46792 -0.187805 0
M  V30 29669 C 2809.05 4.12482 -1.14203 0
M  V30 29670 C 2808.37 5.32986 -0.427849 0
M  V30 29671 C 2809.67 4.59334 -2.48615 0
M  V30 29672 H 2811.37 2.48933 -1.66351 0
M  V30 29673 H 2808.91 1.19647 -0.801282 0
M  V30 29674 H 2810.87 4.21359 0.0585635 0
M  V30 29675 H 2809.59 3.17932 0.747429 0
M  V30 29676 H 2808.25 3.39888 -1.37375 0
M  V30 29677 H 2807.9 5.00391 0.511659 0
M  V30 29678 H 2807.6 5.77884 -1.06413 0
M  V30 29679 H 2809.12 6.10305 -0.189879 0
M  V30 29680 H 2810.54 5.25304 -2.29628 0
M  V30 29681 H 2808.93 5.14988 -3.08071 0
M  V30 29682 H 2810 3.73637 -3.09069 0
M  V30 29683 N 2811.35 0.886177 1.30325 0
M  V30 29684 C 2812.59 0.504229 1.95709 0
M  V30 29685 C 2812.92 -0.949973 1.70295 0
M  V30 29686 O 2812.19 -1.66809 1.02721 0
M  V30 29687 H 2810.77 0.183478 0.724117 0
M  V30 29688 H 2813.43 1.12951 1.58833 0
M  V30 29689 H 2812.52 0.675485 3.04702 0
M  V30 29690 N 2812.82 -1.43695 0.647253 0
M  V30 29691 C 2813.73 -2.34549 -0.0487585 0
M  V30 29692 C 2814.75 -1.53544 -0.818559 0
M  V30 29693 O 2815.93 -1.86217 -0.767162 0
M  V30 29694 C 2812.99 -3.31745 -1.00728 0
M  V30 29695 C 2812.05 -4.28656 -0.235075 0
M  V30 29696 C 2811.29 -5.21208 -1.14794 0
M  V30 29697 O 2811.51 -5.18049 -2.38708 0
M  V30 29698 O 2810.44 -5.98661 -0.623562 0
M  V30 29699 H 2814.27 -2.95548 0.698915 0
M  V30 29700 H 2811.85 -1.43737 0.407438 0
M  V30 29701 H 2813.74 -3.91529 -1.5583 0
M  V30 29702 H 2812.41 -2.73257 -1.73529 0
M  V30 29703 H 2811.32 -3.7237 0.359385 0
M  V30 29704 H 2812.65 -4.90109 0.453238 0
M  V30 29705 N 2814.3 -0.388796 -1.52729 0
M  V30 29706 C 2815.54 0.193336 -2.03484 0
M  V30 29707 C 2815.91 1.44085 -1.269 0
M  V30 29708 O 2817.11 2.10011 -1.67777 0
M  V30 29709 C 2815.38 0.455263 -3.54489 0
M  V30 29710 S 2816.94 1.00775 -4.27071 0
M  V30 29711 H 2813.76 0.0545007 -0.708908 0
M  V30 29712 H 2816.36 -0.537026 -1.87979 0
M  V30 29713 H 2815.06 -0.459794 -4.07816 0
M  V30 29714 H 2814.59 1.21406 -3.74198 0
M  V30 29715 H 2816.61 2.29015 -4.40189 0
M  V30 29716 N 2815.78 1.57153 -0.118604 0
M  V30 29717 C 2817.03 1.95181 0.539492 0
M  V30 29718 C 2817.36 1.00187 1.66712 0
M  V30 29719 O 2816.61 0.0256826 1.95683 0
M  V30 29720 C 2816.91 3.39629 1.11297 0
M  V30 29721 C 2816.58 4.50774 0.106729 0
M  V30 29722 C 2815.24 4.809 -0.169961 0
M  V30 29723 C 2817.59 5.17974 -0.579041 0
M  V30 29724 C 2814.92 5.75543 -1.13871 0
M  V30 29725 C 2817.27 6.13659 -1.53642 0
M  V30 29726 C 2815.93 6.42178 -1.8211 0
M  V30 29727 H 2815.2 0.714219 0.197414 0
M  V30 29728 H 2817.85 1.90459 -0.199425 0
M  V30 29729 H 2816.16 3.41044 1.92863 0
M  V30 29730 H 2817.85 3.66365 1.63026 0
M  V30 29731 H 2814.44 4.27308 0.33257 0
M  V30 29732 H 2818.63 4.94855 -0.378446 0
M  V30 29733 H 2813.88 5.95944 -1.36602 0
M  V30 29734 H 2818.06 6.64816 -2.07348 0
M  V30 29735 H 2815.68 7.15321 -2.57331 0
M  V30 29736 N 2817.26 -0.155167 1.56834 0
M  V30 29737 C 2818.51 -0.869147 1.82899 0
M  V30 29738 C 2818.83 -1.81535 0.698226 0
M  V30 29739 O 2818.09 -1.93175 -0.31337 0
M  V30 29740 C 2818.39 -1.68396 3.15242 0
M  V30 29741 C 2818.05 -0.885263 4.42124 0
M  V30 29742 C 2816.72 -0.664887 4.76584 0
M  V30 29743 C 2819.07 -0.326142 5.20179 0
M  V30 29744 C 2816.4 0.125449 5.86566 0
M  V30 29745 C 2818.75 0.451191 6.30989 0
M  V30 29746 C 2817.41 0.682219 6.64005 0
M  V30 29747 H 2816.68 -0.318043 0.669275 0
M  V30 29748 H 2819.33 -0.133207 1.91036 0
M  V30 29749 H 2817.63 -2.48977 3.02519 0
M  V30 29750 H 2819.33 -2.23972 3.32622 0
M  V30 29751 H 2815.92 -1.06708 4.15104 0
M  V30 29752 H 2820.1 -0.4837 4.93937 0
M  V30 29753 H 2815.36 0.314022 6.10593 0
M  V30 29754 H 2819.53 0.891611 6.90669 0
M  V30 29755 H 2817.16 1.29649 7.49063 0
M  V30 29756 N 2818.74 -1.51782 -0.424256 0
M  V30 29757 C 2820.15 -1.57428 -1.00365 0
M  V30 29758 C 2820.5 -0.405614 -1.91961 0
M  V30 29759 O 2819.62 0.475972 -2.11101 0
M  V30 29760 C 2820.22 -2.85316 -1.82702 0
M  V30 29761 C 2818.78 -2.93491 -2.35669 0
M  V30 29762 C 2817.92 -2.52222 -1.15235 0
M  V30 29763 H 2820.88 -1.5737 -0.205037 0
M  V30 29764 H 2820.9 -2.69817 -2.68289 0
M  V30 29765 H 2820.41 -3.70355 -1.16011 0
M  V30 29766 H 2818.51 -2.12912 -3.05777 0
M  V30 29767 H 2818.62 -3.9742 -2.67571 0
M  V30 29768 H 2816.99 -2.05721 -1.5017 0
M  V30 29769 H 2817.77 -3.3962 -0.501341 0
M  V30 29770 N 2820.21 0.68054 -1.42149 0
M  V30 29771 C 2821.14 1.80636 -1.47963 0
M  V30 29772 C 2822.13 1.66733 -0.336757 0
M  V30 29773 O 2823.31 1.86241 -0.550279 0
M  V30 29774 C 2820.44 3.1889 -1.37574 0
M  V30 29775 C 2819.39 3.47519 -2.49829 0
M  V30 29776 C 2818.72 4.85287 -2.245 0
M  V30 29777 C 2820.02 3.44987 -3.9215 0
M  V30 29778 H 2821.71 1.76028 -2.42187 0
M  V30 29779 H 2819.26 0.845461 -1.16567 0
M  V30 29780 H 2821.21 3.97376 -1.4025 0
M  V30 29781 H 2819.94 3.24161 -0.398413 0
M  V30 29782 H 2818.6 2.71391 -2.4646 0
M  V30 29783 H 2818.24 4.87202 -1.25074 0
M  V30 29784 H 2817.94 5.05406 -2.99731 0
M  V30 29785 H 2819.47 5.66065 -2.28916 0
M  V30 29786 H 2820.88 4.13452 -3.97153 0
M  V30 29787 H 2819.28 3.7664 -4.67186 0
M  V30 29788 H 2820.35 2.43669 -4.1923 0
M  V30 29789 N 2821.69 1.28226 0.916285 0
M  V30 29790 C 2822.92 1.18191 1.70428 0
M  V30 29791 C 2823.34 -0.256241 1.86346 0
M  V30 29792 O 2822.7 -1.18542 1.37177 0
M  V30 29793 C 2822.75 1.88281 3.07543 0
M  V30 29794 O 2821.85 1.18855 3.94902 0
M  V30 29795 H 2821.19 0.410432 0.521959 0
M  V30 29796 H 2823.72 1.69503 1.14586 0
M  V30 29797 H 2823.73 1.96089 3.57789 0
M  V30 29798 H 2822.41 2.92893 2.95274 0
M  V30 29799 H 2820.99 1.19194 3.53337 0
M  V30 29800 N 2823.17 -1.12438 1.10433 0
M  V30 29801 C 2824.4 -1.88311 0.869122 0
M  V30 29802 C 2824.82 -1.791 -0.57488 0
M  V30 29803 O 2824.18 -1.14592 -1.40494 0
M  V30 29804 C 2824.23 -3.35487 1.32214 0
M  V30 29805 O 2823.33 -4.09512 0.487164 0
M  V30 29806 H 2822.67 -0.585116 0.313904 0
M  V30 29807 H 2825.2 -1.42193 1.47114 0
M  V30 29808 H 2825.21 -3.86327 1.31208 0
M  V30 29809 H 2823.89 -3.41509 2.3737 0
M  V30 29810 H 2822.46 -3.68634 0.562436 0
M  V30 29811 N 2824.65 -0.893076 -1.29853 0
M  V30 29812 C 2825.88 -0.530823 -1.99975 0
M  V30 29813 C 2826.29 0.88277 -1.66891 0
M  V30 29814 O 2825.65 1.58172 -0.91038 0
M  V30 29815 C 2825.7 -0.705649 -3.54546 0
M  V30 29816 O 2825.42 -2.0636 -3.86455 0
M  V30 29817 C 2826.92 -0.347464 -4.41936 0
M  V30 29818 H 2824.14 -0.20435 -0.639126 0
M  V30 29819 H 2826.69 -1.2006 -1.65547 0
M  V30 29820 H 2824.84 -0.0831366 -3.87311 0
M  V30 29821 H 2825.26 -2.08812 -4.81142 0
M  V30 29822 H 2826.73 -0.520654 -5.49539 0
M  V30 29823 H 2827.21 0.715063 -4.3334 0
M  V30 29824 H 2827.81 -0.94664 -4.14631 0
M  V30 29825 N 2826.13 1.4335 -0.654865 0
M  V30 29826 C 2827.09 2.29185 0.0263159 0
M  V30 29827 C 2828.09 1.42295 0.748926 0
M  V30 29828 O 2829.28 1.63907 0.589929 0
M  V30 29829 C 2826.41 3.24391 1.048 0
M  V30 29830 H 2827.61 2.90906 -0.728934 0
M  V30 29831 H 2825.16 1.50657 -0.416175 0
M  V30 29832 H 2825.89 2.67568 1.83243 0
M  V30 29833 H 2825.68 3.88454 0.533486 0
M  V30 29834 H 2827.17 3.88812 1.52365 0
M  V30 29835 N 2827.61 0.39689 1.52521 0
M  V30 29836 C 2828.85 -0.183133 2.01971 0
M  V30 29837 C 2829.18 -1.45825 1.28253 0
M  V30 29838 O 2828.46 -1.90647 0.385212 0
M  V30 29839 C 2828.74 -0.443328 3.57361 0
M  V30 29840 C 2828.6 0.847608 4.41742 0
M  V30 29841 C 2829.91 -1.23072 4.22541 0
M  V30 29842 H 2827.03 -0.0650847 0.734121 0
M  V30 29843 H 2829.68 0.52795 1.82518 0
M  V30 29844 H 2827.83 -1.04907 3.74068 0
M  V30 29845 H 2829.5 1.48422 4.36771 0
M  V30 29846 H 2827.74 1.46128 4.08447 0
M  V30 29847 H 2828.41 0.620099 5.48506 0
M  V30 29848 H 2830.89 -0.718012 4.09858 0
M  V30 29849 H 2829.76 -1.38152 5.3123 0
M  V30 29850 H 2830.02 -2.24802 3.80679 0
M  V30 29851 N 2829.08 -1.57088 0.126936 0
M  V30 29852 C 2830.31 -2.00249 -0.539935 0
M  V30 29853 C 2830.73 -1.00621 -1.58925 0
M  V30 29854 O 2830.09 0.0209812 -1.81288 0
M  V30 29855 C 2830.14 -3.42252 -1.13559 0
M  V30 29856 O 2829.24 -3.45551 -2.25097 0
M  V30 29857 H 2828.58 -0.650316 -0.134108 0
M  V30 29858 H 2831.11 -2.03438 0.217753 0
M  V30 29859 H 2831.12 -3.8063 -1.46919 0
M  V30 29860 H 2829.8 -4.14277 -0.367049 0
M  V30 29861 H 2828.38 -3.18999 -1.93117 0
M  V30 29862 N 2830.56 0.146848 -1.56914 0
M  V30 29863 C 2831.97 0.706897 -1.728 0
M  V30 29864 C 2832.32 1.81654 -0.741361 0
M  V30 29865 O 2831.45 2.16204 0.0919782 0
M  V30 29866 C 2832.04 1.28906 -3.13319 0
M  V30 29867 C 2830.6 1.79568 -3.30806 0
M  V30 29868 C 2829.75 0.684205 -2.68726 0
M  V30 29869 H 2832.7 -0.078821 -1.58504 0
M  V30 29870 H 2832.72 2.15886 -3.13327 0
M  V30 29871 H 2832.23 0.481217 -3.85105 0
M  V30 29872 H 2830.33 2.62918 -2.64017 0
M  V30 29873 H 2830.45 1.92428 -4.38757 0
M  V30 29874 H 2828.81 1.11087 -2.29198 0
M  V30 29875 H 2829.59 -0.112195 -3.43117 0
M  V30 29876 N 2832.04 1.52005 0.4162 0
M  V30 29877 C 2833.32 1.56274 1.17635 0
M  V30 29878 C 2833.7 0.339529 2.08352 0
M  V30 29879 O 2833.04 -0.674085 2.18331 0
M  V30 29880 C 2833.25 2.88778 1.95981 0
M  V30 29881 C 2834.6 3.41517 2.52293 0
M  V30 29882 O 2835.63 2.9047 2.06169 0
M  V30 29883 O 2834.49 4.30637 3.36473 0
M  V30 29884 H 2831.58 0.629179 0.536715 0
M  V30 29885 H 2834.13 1.64329 0.423554 0
M  V30 29886 H 2832.9 3.69257 1.29481 0
M  V30 29887 H 2832.52 2.83982 2.7828 0
M  V30 29888 N 2833.52 -0.672992 1.42508 0
M  V30 29889 C 2834.93 -1.25365 1.38349 0
M  V30 29890 C 2835.28 -1.96046 0.0776672 0
M  V30 29891 O 2834.4 -2.00117 -0.823536 0
M  V30 29892 C 2835 -2.27998 2.50604 0
M  V30 29893 C 2833.56 -2.81586 2.49772 0
M  V30 29894 C 2832.71 -1.55934 2.29303 0
M  V30 29895 H 2835.66 -0.466261 1.51696 0
M  V30 29896 H 2835.68 -3.0977 2.20959 0
M  V30 29897 H 2835.19 -1.76526 3.4563 0
M  V30 29898 H 2833.29 -3.37175 1.58569 0
M  V30 29899 H 2833.4 -3.30479 3.46873 0
M  V30 29900 H 2831.77 -1.82569 1.77597 0
M  V30 29901 H 2832.55 -1.06425 3.26387 0
M  V30 29902 N 2835 -1.2871 -0.909472 0
M  V30 29903 C 2835.91 -1.14865 -2.04556 0
M  V30 29904 C 2836.92 -0.0741927 -1.73842 0
M  V30 29905 O 2838.1 -0.284335 -1.99383 0
M  V30 29906 C 2835.16 -0.816207 -3.36955 0
M  V30 29907 C 2834.22 -1.97347 -3.81251 0
M  V30 29908 C 2833.46 -1.6568 -5.07332 0
M  V30 29909 O 2833.68 -0.573152 -5.67513 0
M  V30 29910 O 2832.61 -2.50177 -5.47444 0
M  V30 29911 H 2836.44 -2.10247 -2.19157 0
M  V30 29912 H 2834.02 -1.0807 -1.03157 0
M  V30 29913 H 2835.91 -0.644946 -4.16435 0
M  V30 29914 H 2834.58 0.107926 -3.2352 0
M  V30 29915 H 2833.49 -2.19991 -3.0258 0
M  V30 29916 H 2834.82 -2.87846 -3.99256 0
M  V30 29917 N 2836.47 1.1185 -1.11028 0
M  V30 29918 C 2837.42 2.19844 -0.759682 0
M  V30 29919 C 2838.42 1.67591 0.246934 0
M  V30 29920 O 2839.62 1.79684 0.106662 0
M  V30 29921 H 2836 0.716679 -0.227763 0
M  V30 29922 H 2837.97 2.46666 -1.67925 0
M  V30 29923 C 2836.72 3.47038 -0.214425 0
M  V30 29924 H 2836.04 3.87597 -0.980243 0
M  V30 29925 H 2837.48 4.23999 -0.007245 0
M  V30 29926 C 2835.94 3.19978 1.05431 0
M  V30 29927 O 2836.47 3.4028 2.13477 0
M  V30 29928 N 2834.67 2.73742 0.975388 0
M  V30 29929 H 2834.22 2.57421 0.0960401 0
M  V30 29930 H 2834.18 2.56013 1.82496 0
M  V30 29931 N 2837.95 0.89995 1.29378 0
M  V30 29932 C 2839.2 0.525997 1.95549 0
M  V30 29933 C 2839.53 -0.927759 1.70947 0
M  V30 29934 O 2838.78 -1.67291 1.01548 0
M  V30 29935 C 2839.08 0.765175 3.49113 0
M  V30 29936 C 2838.75 2.19633 3.93792 0
M  V30 29937 C 2837.41 2.58765 4.05702 0
M  V30 29938 C 2839.76 3.1283 4.16877 0
M  V30 29939 C 2837.09 3.90274 4.38067 0
M  V30 29940 C 2839.44 4.43888 4.50717 0
M  V30 29941 C 2838.1 4.82893 4.60837 0
M  V30 29942 H 2837.37 0.192476 0.715566 0
M  V30 29943 H 2840.02 1.13865 1.5397 0
M  V30 29944 H 2838.33 0.0695998 3.91738 0
M  V30 29945 H 2840.02 0.455214 3.98408 0
M  V30 29946 H 2836.61 1.88263 3.85039 0
M  V30 29947 H 2840.8 2.83812 4.07142 0
M  V30 29948 H 2836.05 4.20215 4.44105 0
M  V30 29949 H 2840.23 5.16129 4.67529 0
M  V30 29950 H 2837.85 5.84832 4.85671 0
M  V30 29951 N 2839.43 -1.43001 0.662458 0
M  V30 29952 C 2840.36 -2.33498 -0.00975705 0
M  V30 29953 C 2841.34 -1.4999 -0.802303 0
M  V30 29954 O 2842.53 -1.78629 -0.761932 0
M  V30 29955 C 2839.66 -3.33468 -0.970388 0
M  V30 29956 C 2838.61 -4.27035 -0.287308 0
M  V30 29957 C 2837.94 -5.17114 -1.36003 0
M  V30 29958 C 2839.24 -5.15727 0.826041 0
M  V30 29959 H 2840.93 -2.89957 0.74601 0
M  V30 29960 H 2838.48 -1.39422 0.360197 0
M  V30 29961 H 2840.43 -3.95681 -1.44964 0
M  V30 29962 H 2839.15 -2.75285 -1.75743 0
M  V30 29963 H 2837.81 -3.66198 0.171584 0
M  V30 29964 H 2837.46 -4.55266 -2.13874 0
M  V30 29965 H 2837.16 -5.80539 -0.908174 0
M  V30 29966 H 2838.68 -5.82202 -1.84045 0
M  V30 29967 H 2840.1 -5.71696 0.428551 0
M  V30 29968 H 2838.5 -5.8792 1.20292 0
M  V30 29969 H 2839.57 -4.54863 1.68011 0
M  V30 29970 N 2840.91 -0.404973 -1.52308 0
M  V30 29971 C 2842.15 0.171743 -2.03677 0
M  V30 29972 C 2842.51 1.42731 -1.28421 0
M  V30 29973 O 2843.71 2.08219 -1.69995 0
M  V30 29974 C 2841.98 0.417639 -3.54951 0
M  V30 29975 S 2843.54 0.962397 -4.28116 0
M  V30 29976 H 2840.36 0.0469787 -0.709446 0
M  V30 29977 H 2842.96 -0.556934 -1.87399 0
M  V30 29978 H 2841.67 -0.503022 -4.07306 0
M  V30 29979 H 2841.2 1.17431 -3.75465 0
M  V30 29980 H 2843.21 2.24334 -4.42593 0
M  V30 29981 N 2842.39 1.57018 -0.135265 0
M  V30 29982 C 2843.3 2.19721 0.822187 0
M  V30 29983 C 2844.31 1.17805 1.28055 0
M  V30 29984 O 2845.49 1.50338 1.34017 0
M  V30 29985 C 2842.55 2.79721 2.04835 0
M  V30 29986 C 2841.61 3.96725 1.64035 0
M  V30 29987 C 2840.85 4.53854 2.80806 0
M  V30 29988 O 2841.07 4.09867 3.96693 0
M  V30 29989 O 2840 5.44296 2.56953 0
M  V30 29990 H 2843.83 3.02025 0.318499 0
M  V30 29991 H 2841.42 1.49122 0.0911759 0
M  V30 29992 H 2843.3 3.17902 2.76616 0
M  V30 29993 H 2841.97 2.00437 2.54179 0
M  V30 29994 H 2840.88 3.63283 0.893119 0
M  V30 29995 H 2842.21 4.77494 1.19418 0
M  V30 29996 N 2843.86 -0.138524 1.5699 0
M  V30 29997 C 2844.8 -1.20056 1.94066 0
M  V30 29998 C 2845.78 -1.41125 0.807626 0
M  V30 29999 O 2846.96 -1.55598 1.06402 0
M  V30 30000 C 2844.09 -2.55797 2.22003 0
M  V30 30001 C 2843.13 -2.51274 3.44621 0
M  V30 30002 S 2843.97 -1.9714 4.97892 0
M  V30 30003 C 2845.12 -3.34593 5.2896 0
M  V30 30004 H 2845.35 -0.884288 2.83844 0
M  V30 30005 H 2842.89 -0.344491 1.50508 0
M  V30 30006 H 2844.85 -3.33909 2.38778 0
M  V30 30007 H 2843.51 -2.84611 1.32874 0
M  V30 30008 H 2842.7 -3.51217 3.61473 0
M  V30 30009 H 2842.3 -1.81274 3.27132 0
M  V30 30010 H 2844.59 -4.30736 5.22946 0
M  V30 30011 H 2845.54 -3.22587 6.30351 0
M  V30 30012 H 2845.94 -3.3212 4.56461 0
M  V30 30013 N 2845.34 -1.52224 -0.408133 0
M  V30 30014 C 2846.25 -1.78529 -1.52199 0
M  V30 30015 C 2847.27 -0.67092 -1.60545 0
M  V30 30016 O 2848.44 -0.956436 -1.77241 0
M  V30 30017 C 2845.51 -1.93133 -2.87924 0
M  V30 30018 C 2844.57 -3.17038 -2.89457 0
M  V30 30019 C 2843.8 -3.30936 -4.18709 0
M  V30 30020 O 2844.03 -2.50076 -5.12658 0
M  V30 30021 O 2842.96 -4.24092 -4.27118 0
M  V30 30022 H 2846.79 -2.73074 -1.32906 0
M  V30 30023 H 2844.37 -1.3708 -0.594088 0
M  V30 30024 H 2846.25 -2.04556 -3.68422 0
M  V30 30025 H 2844.93 -1.01777 -3.07283 0
M  V30 30026 H 2843.84 -3.11073 -2.07809 0
M  V30 30027 H 2845.17 -4.08178 -2.75048 0
M  V30 30028 N 2846.82 0.665425 -1.42863 0
M  V30 30029 C 2847.73 1.808 -1.49494 0
M  V30 30030 C 2848.75 1.69734 -0.382944 0
M  V30 30031 O 2849.92 1.91119 -0.635256 0
M  V30 30032 C 2846.99 3.17005 -1.40388 0
M  V30 30033 C 2846.05 3.39958 -2.62158 0
M  V30 30034 C 2845.28 4.69665 -2.53477 0
M  V30 30035 O 2845.5 5.48202 -1.57578 0
M  V30 30036 O 2844.44 4.94069 -3.43772 0
M  V30 30037 H 2848.26 1.78161 -2.45952 0
M  V30 30038 H 2845.85 0.822365 -1.2473 0
M  V30 30039 H 2847.73 3.98265 -1.37707 0
M  V30 30040 H 2846.41 3.20261 -0.470602 0
M  V30 30041 H 2845.31 2.5851 -2.70413 0
M  V30 30042 H 2846.65 3.4154 -3.54417 0
M  V30 30043 N 2848.3 1.29191 0.902633 0
M  V30 30044 C 2849.55 1.16365 1.64748 0
M  V30 30045 C 2849.86 -0.284648 1.93518 0
M  V30 30046 O 2851.07 -0.534182 2.66193 0
M  V30 30047 C 2849.52 2.03499 2.96844 0
M  V30 30048 C 2849.13 3.53135 2.75681 0
M  V30 30049 C 2850.87 1.99389 3.74759 0
M  V30 30050 C 2848.78 4.32382 4.03485 0
M  V30 30051 H 2847.71 0.431915 0.618034 0
M  V30 30052 H 2850.36 1.53808 1.00077 0
M  V30 30053 H 2848.74 1.58922 3.62712 0
M  V30 30054 H 2849.92 4.05743 2.18424 0
M  V30 30055 H 2848.23 3.58885 2.11165 0
M  V30 30056 H 2850.83 2.55859 4.69511 0
M  V30 30057 H 2851.17 0.973194 4.04765 0
M  V30 30058 H 2851.71 2.41994 3.15727 0
M  V30 30059 H 2848.45 5.35077 3.78646 0
M  V30 30060 H 2847.97 3.84543 4.60311 0
M  V30 30061 H 2849.64 4.42889 4.71654 0
M  V30 30062 N 2849.78 -1.1126 1.1162 0
M  V30 30063 C 2851.19 -1.64554 0.881971 0
M  V30 30064 C 2851.54 -1.87263 -0.585409 0
M  V30 30065 O 2850.66 -1.60824 -1.44792 0
M  V30 30066 C 2851.26 -2.98932 1.59452 0
M  V30 30067 C 2849.82 -3.49127 1.40667 0
M  V30 30068 C 2848.96 -2.23901 1.63597 0
M  V30 30069 H 2851.92 -0.948747 1.27218 0
M  V30 30070 H 2851.94 -3.65994 1.0406 0
M  V30 30071 H 2851.45 -2.82373 2.66246 0
M  V30 30072 H 2849.55 -3.70848 0.3609 0
M  V30 30073 H 2849.66 -4.27797 2.15701 0
M  V30 30074 H 2848.03 -2.31618 1.05948 0
M  V30 30075 H 2848.81 -2.09882 2.7167 0
M  V30 30076 N 2851.25 -0.906798 -1.28899 0
M  V30 30077 C 2852.5 -0.53636 -1.95268 0
M  V30 30078 C 2852.83 0.918681 -1.71437 0
M  V30 30079 O 2852.08 1.66751 -1.02434 0
M  V30 30080 C 2852.38 -0.783678 -3.48702 0
M  V30 30081 C 2852.05 -2.21718 -3.92622 0
M  V30 30082 C 2850.71 -2.60913 -4.04324 0
M  V30 30083 C 2853.06 -3.15036 -4.15213 0
M  V30 30084 C 2850.39 -3.92592 -4.35991 0
M  V30 30085 C 2852.74 -4.46272 -4.48357 0
M  V30 30086 C 2851.41 -4.8533 -4.5827 0
M  V30 30087 H 2850.68 -0.196268 -0.714535 0
M  V30 30088 H 2853.32 -1.1468 -1.53364 0
M  V30 30089 H 2851.63 -0.0903737 -3.91696 0
M  V30 30090 H 2853.33 -0.476337 -3.98161 0
M  V30 30091 H 2849.92 -1.90302 -3.84035 0
M  V30 30092 H 2854.1 -2.85967 -4.05631 0
M  V30 30093 H 2849.36 -4.22564 -4.4187 0
M  V30 30094 H 2853.53 -5.18601 -4.64786 0
M  V30 30095 H 2851.16 -5.87399 -4.82562 0
M  V30 30096 N 2852.73 1.42648 -0.670032 0
M  V30 30097 C 2853.68 2.32589 0.0229697 0
M  V30 30098 C 2854.67 1.49557 0.795559 0
M  V30 30099 O 2855.88 1.65659 0.704061 0
M  V30 30100 H 2852.26 0.751543 0.0262209 0
M  V30 30101 H 2854.23 2.88741 -0.75306 0
M  V30 30102 C 2852.98 3.34075 0.963813 0
M  V30 30103 H 2852.3 3.98002 0.378743 0
M  V30 30104 H 2853.74 3.99604 1.41748 0
M  V30 30105 C 2852.2 2.65967 2.06792 0
M  V30 30106 O 2852.73 2.48795 3.15379 0
M  V30 30107 N 2850.93 2.25069 1.83827 0
M  V30 30108 H 2850.48 2.39236 0.955193 0
M  V30 30109 H 2850.44 1.79831 2.57892 0
M  V30 30110 N 2854.21 0.413044 1.52091 0
M  V30 30111 C 2855.62 -0.0556639 1.86617 0
M  V30 30112 C 2855.97 -1.44094 1.33159 0
M  V30 30113 O 2855.1 -2.05687 0.672453 0
M  V30 30114 C 2855.69 -0.107785 3.38629 0
M  V30 30115 C 2854.25 -0.520838 3.72779 0
M  V30 30116 C 2853.4 0.302158 2.75649 0
M  V30 30117 H 2856.35 0.629944 1.45662 0
M  V30 30118 H 2856.37 -0.922259 3.69154 0
M  V30 30119 H 2855.88 0.900572 3.77507 0
M  V30 30120 H 2853.98 -1.53569 3.39481 0
M  V30 30121 H 2854.1 -0.262506 4.7838 0
M  V30 30122 H 2852.46 -0.236071 2.53604 0
M  V30 30123 H 2853.24 1.30894 3.17367 0
M  V30 30124 N 2855.69 -1.56945 0.143591 0
M  V30 30125 C 2856.94 -1.96305 -0.509125 0
M  V30 30126 C 2857.27 -1.02833 -1.64739 0
M  V30 30127 O 2856.54 -0.0700702 -1.94374 0
M  V30 30128 C 2856.83 -3.45395 -1.01854 0
M  V30 30129 C 2856.68 -4.49645 0.118002 0
M  V30 30130 C 2858 -3.96904 -1.90144 0
M  V30 30131 H 2855.12 -0.713766 -0.183595 0
M  V30 30132 H 2857.76 -1.88673 0.224128 0
M  V30 30133 H 2855.91 -3.5203 -1.64339 0
M  V30 30134 H 2857.58 -4.55092 0.754225 0
M  V30 30135 H 2855.82 -4.26773 0.777643 0
M  V30 30136 H 2856.5 -5.51289 -0.28009 0
M  V30 30137 H 2858.97 -3.92727 -1.37493 0
M  V30 30138 H 2857.85 -5.01694 -2.22698 0
M  V30 30139 H 2858.11 -3.39057 -2.83712 0
M  V30 30140 N 2857.17 0.130197 -1.57061 0
M  V30 30141 C 2858.58 0.483386 -1.52104 0
M  V30 30142 C 2858.78 1.82471 -0.854784 0
M  V30 30143 O 2857.84 2.4877 -0.432386 0
M  V30 30144 C 2859.15 0.478198 -2.96873 0
M  V30 30145 C 2860.7 0.562538 -3.07903 0
M  V30 30146 C 2861.18 0.587849 -4.54212 0
M  V30 30147 N 2862.67 0.649603 -4.58622 0
M  V30 30148 C 2863.4 0.690451 -5.69228 0
M  V30 30149 N 2862.9 0.689622 -6.89359 0
M  V30 30150 N 2864.69 0.73261 -5.57305 0
M  V30 30151 H 2856.84 -0.748814 -1.98763 0
M  V30 30152 H 2859.1 -0.274981 -0.907243 0
M  V30 30153 H 2858.81 -0.439506 -3.48943 0
M  V30 30154 H 2858.68 1.31007 -3.53719 0
M  V30 30155 H 2861.07 1.47066 -2.55843 0
M  V30 30156 H 2861.15 -0.296809 -2.54072 0
M  V30 30157 H 2860.8 -0.316185 -5.06915 0
M  V30 30158 H 2860.73 1.46392 -5.05843 0
M  V30 30159 H 2863.22 0.656862 -3.72147 0
M  V30 30160 H 2863.53 0.723104 -7.6941 0
M  V30 30161 H 2861.88 0.657226 -6.91885 0
M  V30 30162 H 2865.07 0.730544 -4.62364 0
M  V30 30163 H 2865.24 0.760977 -6.43516 0
M  V30 30164 N 2858.65 1.52438 0.400055 0
M  V30 30165 C 2859.87 1.71098 1.17218 0
M  V30 30166 C 2860.3 0.423597 1.83268 0
M  V30 30167 O 2859.65 -0.619721 1.70379 0
M  V30 30168 C 2859.7 2.8539 2.2042 0
M  V30 30169 O 2858.81 2.51592 3.26765 0
M  V30 30170 H 2858.15 0.569297 0.341756 0
M  V30 30171 H 2860.68 1.99182 0.467737 0
M  V30 30172 H 2860.69 3.10566 2.646 0
M  V30 30173 H 2859.36 3.78789 1.7173 0
M  V30 30174 H 2857.94 2.37119 2.878 0
M  V30 30175 N 2860.12 -0.657839 1.43214 0
M  V30 30176 C 2861.37 -1.41826 1.45797 0
M  V30 30177 C 2861.72 -1.92237 0.0792514 0
M  V30 30178 O 2861.02 -1.69073 -0.901377 0
M  V30 30179 C 2861.21 -2.61943 2.43147 0
M  V30 30180 C 2861.04 -2.23288 3.90349 0
M  V30 30181 C 2859.81 -2.11835 4.58752 0
M  V30 30182 C 2862.01 -1.83864 4.80311 0
M  V30 30183 N 2859.99 -1.66463 5.90901 0
M  V30 30184 C 2861.36 -1.49539 6.01696 0
M  V30 30185 C 2863.42 -1.71006 4.67612 0
M  V30 30186 C 2862.12 -1.03644 7.11794 0
M  V30 30187 C 2864.15 -1.26517 5.77709 0
M  V30 30188 C 2863.51 -0.931256 6.98217 0
M  V30 30189 H 2859.61 -0.514812 0.588637 0
M  V30 30190 H 2862.19 -0.757469 1.79361 0
M  V30 30191 H 2860.36 -3.25688 2.11617 0
M  V30 30192 H 2862.09 -3.28622 2.36199 0
M  V30 30193 H 2858.85 -2.31446 4.13194 0
M  V30 30194 H 2859.27 -1.46151 6.61036 0
M  V30 30195 H 2863.91 -1.95463 3.74905 0
M  V30 30196 H 2861.63 -0.779361 8.04333 0
M  V30 30197 H 2865.22 -1.17064 5.69901 0
M  V30 30198 H 2864.1 -0.592242 7.8196 0
M  V30 30199 N 2861.6 -1.29668 -0.895769 0
M  V30 30200 C 2862.53 -1.17691 -2.01671 0
M  V30 30201 C 2863.51 -0.0701615 -1.69955 0
M  V30 30202 O 2864.7 -0.250322 -1.9258 0
M  V30 30203 C 2861.83 -0.85674 -3.36567 0
M  V30 30204 C 2860.78 -1.92024 -3.82506 0
M  V30 30205 C 2860.11 -1.45329 -5.14571 0
M  V30 30206 C 2861.41 -3.3297 -4.02403 0
M  V30 30207 H 2863.1 -2.11466 -2.11949 0
M  V30 30208 H 2860.65 -1.01809 -1.01838 0
M  V30 30209 H 2862.6 -0.759649 -4.14496 0
M  V30 30210 H 2861.32 0.116705 -3.26391 0
M  V30 30211 H 2859.98 -2.00678 -3.06796 0
M  V30 30212 H 2859.63 -0.468413 -5.00814 0
M  V30 30213 H 2859.33 -2.16456 -5.46279 0
M  V30 30214 H 2860.86 -1.36978 -5.95037 0
M  V30 30215 H 2862.27 -3.27136 -4.70803 0
M  V30 30216 H 2860.67 -4.02089 -4.45471 0
M  V30 30217 H 2861.74 -3.75658 -3.06609 0
M  V30 30218 N 2863.08 1.10667 -1.12208 0
M  V30 30219 C 2864.03 2.1694 -0.787754 0
M  V30 30220 C 2865 1.64292 0.244414 0
M  V30 30221 O 2866.18 1.90425 0.119524 0
M  V30 30222 C 2863.32 3.44223 -0.2459 0
M  V30 30223 C 2862.43 4.10836 -1.33559 0
M  V30 30224 C 2861.57 5.2583 -0.753429 0
M  V30 30225 C 2860.61 5.84341 -1.82241 0
M  V30 30226 N 2859.75 6.90717 -1.25914 0
M  V30 30227 H 2864.59 2.44882 -1.69813 0
M  V30 30228 H 2862.12 1.20205 -0.847883 0
M  V30 30229 H 2864.08 4.17111 0.0862906 0
M  V30 30230 H 2862.71 3.16639 0.627647 0
M  V30 30231 H 2861.76 3.35941 -1.7846 0
M  V30 30232 H 2863.07 4.50369 -2.14404 0
M  V30 30233 H 2862.23 6.0556 -0.371767 0
M  V30 30234 H 2860.97 4.87624 0.086244 0
M  V30 30235 H 2859.97 5.03283 -2.21329 0
M  V30 30236 H 2861.2 6.24612 -2.66526 0
M  V30 30237 H 2859.14 6.54514 -0.441255 0
M  V30 30238 H 2859.06 7.28949 -2.00421 0
M  V30 30239 H 2860.33 7.74233 -0.904634 0
M  V30 30240 N 2864.56 0.913621 1.28416 0
M  V30 30241 C 2865.51 0.373082 2.24927 0
M  V30 30242 C 2866.49 -0.514726 1.52445 0
M  V30 30243 O 2867.68 -0.354469 1.73414 0
M  V30 30244 C 2864.81 -0.385836 3.41125 0
M  V30 30245 C 2863.9 0.517684 4.20929 0
M  V30 30246 N 2864.29 1.63122 4.78774 0
M  V30 30247 C 2862.59 0.318047 4.44865 0
M  V30 30248 C 2863.29 2.19202 5.38819 0
M  V30 30249 N 2862.26 1.4833 5.22971 0
M  V30 30250 H 2866.07 1.2235 2.67222 0
M  V30 30251 H 2863.58 0.766261 1.43186 0
M  V30 30252 H 2865.58 -0.789925 4.09348 0
M  V30 30253 H 2864.24 -1.23336 3.00364 0
M  V30 30254 H 2865.25 2.0138 4.77144 0
M  V30 30255 H 2861.93 -0.489967 4.14615 0
M  V30 30256 H 2863.32 3.12872 5.9461 0
M  V30 30257 N 2866.04 -1.4229 0.677588 0
M  V30 30258 C 2867.31 -1.95169 0.129837 0
M  V30 30259 C 2867.69 -1.61788 -1.35602 0
M  V30 30260 O 2867.04 -0.915481 -2.09359 0
M  V30 30261 C 2867.25 -3.46678 0.401949 0
M  V30 30262 C 2868.6 -4.23393 0.319963 0
M  V30 30263 O 2869.62 -3.54613 0.335853 0
M  V30 30264 O 2868.48 -5.45859 0.264555 0
M  V30 30265 H 2865.58 -0.826988 0.00448886 0
M  V30 30266 H 2868.12 -1.52103 0.75251 0
M  V30 30267 H 2866.89 -3.6419 1.43114 0
M  V30 30268 H 2866.52 -3.96797 -0.252592 0
M  V30 30269 N 2867.51 -0.421104 -1.5187 0
M  V30 30270 C 2868.74 0.152334 -2.0684 0
M  V30 30271 C 2869.16 1.37081 -1.28804 0
M  V30 30272 O 2868.52 1.78426 -0.321513 0
M  V30 30273 C 2868.57 0.469305 -3.57533 0
M  V30 30274 O 2867.67 1.55842 -3.81821 0
M  V30 30275 H 2867.01 0.00897419 -0.663939 0
M  V30 30276 H 2869.54 -0.597759 -1.95673 0
M  V30 30277 H 2869.55 0.724482 -4.01516 0
M  V30 30278 H 2868.23 -0.421349 -4.1376 0
M  V30 30279 H 2866.81 1.29447 -3.49711 0
M  V30 30280 N 2868.99 1.56866 -0.151912 0
M  V30 30281 C 2870.22 2.01082 0.508009 0
M  V30 30282 C 2870.64 1.03136 1.57304 0
M  V30 30283 O 2870 0.00786277 1.81298 0
M  V30 30284 C 2870.05 3.44016 1.081 0
M  V30 30285 O 2869.15 3.49088 2.19571 0
M  V30 30286 H 2868.49 0.652367 0.123745 0
M  V30 30287 H 2871.02 2.03066 -0.250091 0
M  V30 30288 H 2871.03 3.82919 1.40844 0
M  V30 30289 H 2869.71 4.14809 0.301095 0
M  V30 30290 H 2868.29 3.22031 1.88017 0
M  V30 30291 N 2870.47 -0.121866 1.57128 0
M  V30 30292 C 2871.4 -1.17526 1.96775 0
M  V30 30293 C 2872.42 -1.37813 0.866692 0
M  V30 30294 O 2873.6 -1.36938 1.145 0
M  V30 30295 C 2870.7 -2.53578 2.24836 0
M  V30 30296 C 2869.88 -2.53932 3.56142 0
M  V30 30297 C 2868.94 -3.71709 3.7245 0
M  V30 30298 O 2867.96 -3.55426 4.44591 0
M  V30 30299 N 2869.16 -4.90161 3.11002 0
M  V30 30300 H 2871.93 -0.838035 2.87745 0
M  V30 30301 H 2869.49 -0.311171 1.58882 0
M  V30 30302 H 2871.48 -3.30923 2.32964 0
M  V30 30303 H 2870.05 -2.79494 1.40007 0
M  V30 30304 H 2869.27 -1.62322 3.59228 0
M  V30 30305 H 2870.56 -2.51223 4.42453 0
M  V30 30306 H 2869.96 -5.06294 2.52354 0
M  V30 30307 H 2868.52 -5.65193 3.24654 0
M  V30 30308 N 2871.95 -1.52648 -0.391965 0
M  V30 30309 C 2872.91 -1.76573 -1.46132 0
M  V30 30310 C 2873.91 -0.635724 -1.477 0
M  V30 30311 O 2875.1 -0.903754 -1.48923 0
M  V30 30312 C 2872.23 -1.86379 -2.85439 0
M  V30 30313 H 2873.43 -2.72053 -1.26203 0
M  V30 30314 H 2870.98 -1.43324 -0.623523 0
M  V30 30315 H 2871.71 -0.92874 -3.10717 0
M  V30 30316 H 2871.5 -2.68544 -2.85703 0
M  V30 30317 H 2872.99 -2.06572 -3.62929 0
M  V30 30318 N 2873.43 0.650235 -1.43561 0
M  V30 30319 C 2874.84 1.23148 -1.40326 0
M  V30 30320 C 2875.19 1.95898 -0.108847 0
M  V30 30321 O 2874.31 2.01402 0.791595 0
M  V30 30322 C 2874.91 2.23982 -2.54199 0
M  V30 30323 C 2873.47 2.77577 -2.5422 0
M  V30 30324 C 2872.61 1.52266 -2.31755 0
M  V30 30325 H 2875.57 0.442069 -1.52419 0
M  V30 30326 H 2875.59 3.06216 -2.25859 0
M  V30 30327 H 2875.1 1.71005 -3.48395 0
M  V30 30328 H 2873.2 3.34609 -1.63913 0
M  V30 30329 H 2873.31 3.24919 -3.52086 0
M  V30 30330 H 2871.68 1.7972 -1.80479 0
M  V30 30331 H 2872.46 1.01219 -3.28039 0
M  V30 30332 N 2874.9 1.30141 0.88888 0
M  V30 30333 C 2876.32 1.16896 1.45576 0
M  V30 30334 C 2876.67 -0.231832 1.94826 0
M  V30 30335 O 2875.79 -1.12821 1.84663 0
M  V30 30336 C 2876.39 2.11599 2.64596 0
M  V30 30337 C 2874.95 2.02344 3.17386 0
M  V30 30338 C 2874.09 2.01905 1.90078 0
M  V30 30339 H 2877.04 1.42468 0.699185 0
M  V30 30340 H 2877.06 1.69455 3.40684 0
M  V30 30341 H 2876.58 3.13542 2.2872 0
M  V30 30342 H 2874.68 1.03529 3.57928 0
M  V30 30343 H 2874.79 2.9054 3.8095 0
M  V30 30344 H 2873.15 1.46652 2.08243 0
M  V30 30345 H 2873.94 3.05571 1.56465 0
M  V30 30346 N 2876.38 -1.1007 1.12794 0
M  V30 30347 C 2877.61 -1.86425 0.90887 0
M  V30 30348 C 2878.03 -1.80279 -0.536761 0
M  V30 30349 O 2877.39 -1.17546 -1.38031 0
M  V30 30350 C 2877.44 -3.32608 1.393 0
M  V30 30351 O 2876.54 -4.08387 0.573918 0
M  V30 30352 H 2875.88 -0.578326 0.326245 0
M  V30 30353 H 2878.41 -1.3904 1.50097 0
M  V30 30354 H 2878.42 -3.83457 1.39373 0
M  V30 30355 H 2877.1 -3.36397 2.44561 0
M  V30 30356 H 2875.68 -3.67358 0.640503 0
M  V30 30357 N 2877.86 -0.920419 -1.2793 0
M  V30 30358 C 2879.27 -0.602647 -1.76706 0
M  V30 30359 C 2879.62 0.882129 -1.75251 0
M  V30 30360 O 2878.75 1.69016 -1.35138 0
M  V30 30361 C 2879.34 -1.08719 -3.20882 0
M  V30 30362 C 2877.9 -0.820222 -3.67354 0
M  V30 30363 C 2877.05 -1.2501 -2.47523 0
M  V30 30364 H 2880 -1.10097 -1.14299 0
M  V30 30365 H 2880.02 -0.431602 -3.78044 0
M  V30 30366 H 2879.53 -2.16786 -3.21909 0
M  V30 30367 H 2877.63 0.246946 -3.71781 0
M  V30 30368 H 2877.75 -1.43265 -4.57178 0
M  V30 30369 H 2876.11 -0.668742 -2.45764 0
M  V30 30370 H 2876.89 -2.33925 -2.51265 0
M  V30 30371 N 2879.34 1.41929 -0.685124 0
M  V30 30372 C 2880.59 2.0139 -0.211693 0
M  V30 30373 C 2880.91 1.54216 1.18523 0
M  V30 30374 O 2880.17 0.739551 1.81188 0
M  V30 30375 C 2880.47 3.56805 -0.206217 0
M  V30 30376 C 2880.13 4.2345 -1.54922 0
M  V30 30377 C 2878.8 4.4137 -1.91692 0
M  V30 30378 C 2881.15 4.60915 -2.43325 0
M  V30 30379 C 2878.48 4.94028 -3.16469 0
M  V30 30380 C 2880.83 5.14958 -3.67424 0
M  V30 30381 C 2879.49 5.3109 -4.0435 0
M  V30 30382 H 2878.76 0.73694 -0.077464 0
M  V30 30383 H 2881.41 1.69972 -0.882151 0
M  V30 30384 H 2879.71 3.87952 0.547773 0
M  V30 30385 H 2881.41 4.00607 0.17746 0
M  V30 30386 H 2878 4.09869 -1.25321 0
M  V30 30387 H 2882.18 4.46734 -2.162 0
M  V30 30388 H 2877.44 5.04703 -3.45087 0
M  V30 30389 H 2881.61 5.4293 -4.36119 0
M  V30 30390 H 2879.24 5.71657 -5.01111 0
M  V30 30391 N 2880.82 0.429152 1.51644 0
M  V30 30392 C 2882.04 -0.141363 2.06918 0
M  V30 30393 C 2882.47 -1.36396 1.29529 0
M  V30 30394 O 2881.82 -1.78253 0.330971 0
M  V30 30395 C 2881.87 -0.450337 3.57777 0
M  V30 30396 O 2880.98 -1.53815 3.82642 0
M  V30 30397 H 2880.32 -0.00545303 0.663978 0
M  V30 30398 H 2882.85 0.608127 1.95353 0
M  V30 30399 H 2882.86 -0.703178 4.01895 0
M  V30 30400 H 2881.53 0.443286 4.13531 0
M  V30 30401 H 2880.11 -1.27591 3.50393 0
M  V30 30402 N 2882.29 -1.56783 0.160229 0
M  V30 30403 C 2883.71 -1.83228 -0.358384 0
M  V30 30404 C 2884.06 -1.07955 -1.6383 0
M  V30 30405 O 2883.18 -0.329032 -2.13884 0
M  V30 30406 C 2883.78 -3.32369 -0.657 0
M  V30 30407 C 2882.34 -3.59348 -1.12009 0
M  V30 30408 C 2881.48 -2.76893 -0.150102 0
M  V30 30409 H 2884.43 -1.53967 0.384696 0
M  V30 30410 H 2884.45 -3.49244 -1.51027 0
M  V30 30411 H 2883.97 -3.87126 0.274715 0
M  V30 30412 H 2882.07 -3.0999 -2.06729 0
M  V30 30413 H 2882.18 -4.67744 -1.03692 0
M  V30 30414 H 2880.54 -2.46389 -0.645318 0
M  V30 30415 H 2881.33 -3.34428 0.775438 0
M  V30 30416 N 2883.77 0.113531 -1.57191 0
M  V30 30417 C 2885.05 0.850968 -1.76119 0
M  V30 30418 C 2885.43 1.97812 -0.73712 0
M  V30 30419 O 2884.78 2.27258 0.237902 0
M  V30 30420 C 2884.99 1.3626 -3.21301 0
M  V30 30421 C 2886.34 1.81276 -3.83958 0
M  V30 30422 O 2887.36 1.45927 -3.24937 0
M  V30 30423 O 2886.22 2.46576 -4.87711 0
M  V30 30424 H 2883.31 0.404516 -0.721315 0
M  V30 30425 H 2885.86 0.0968458 -1.69423 0
M  V30 30426 H 2884.63 0.554167 -3.87356 0
M  V30 30427 H 2884.25 2.17928 -3.32556 0
M  V30 30428 N 2885.25 1.52854 0.383864 0
M  V30 30429 C 2886.21 1.77345 1.45194 0
M  V30 30430 C 2887.21 0.643548 1.4736 0
M  V30 30431 O 2888.4 0.911639 1.48441 0
M  V30 30432 C 2885.54 1.8789 2.84447 0
M  V30 30433 H 2886.73 2.72718 1.24759 0
M  V30 30434 H 2884.28 1.43653 0.615914 0
M  V30 30435 H 2885.02 0.945205 3.1022 0
M  V30 30436 H 2884.8 2.70056 2.84275 0
M  V30 30437 H 2886.29 2.08494 3.61829 0
M  V30 30438 N 2886.73 -0.642612 1.43904 0
M  V30 30439 C 2887.95 -1.43481 1.4976 0
M  V30 30440 C 2888.38 -1.87717 0.119944 0
M  V30 30441 O 2887.74 -1.58034 -0.88853 0
M  V30 30442 C 2887.79 -2.63894 2.45749 0
M  V30 30443 O 2886.89 -3.63327 1.95108 0
M  V30 30444 H 2886.23 -0.429782 0.506146 0
M  V30 30445 H 2888.76 -0.785404 1.88925 0
M  V30 30446 H 2888.77 -3.1158 2.63405 0
M  V30 30447 H 2887.45 -2.3104 3.45822 0
M  V30 30448 H 2886.02 -3.22528 1.87163 0
M  V30 30449 N 2888.21 -1.30611 -0.881966 0
M  V30 30450 C 2889.43 -1.22668 -1.67234 0
M  V30 30451 C 2889.86 0.206745 -1.8696 0
M  V30 30452 O 2889.22 1.14863 -1.40272 0
M  V30 30453 C 2889.26 -1.96369 -3.02443 0
M  V30 30454 O 2888.37 -1.29283 -3.91612 0
M  V30 30455 H 2887.71 -0.424126 -0.510894 0
M  V30 30456 H 2890.24 -1.72481 -1.10052 0
M  V30 30457 H 2890.25 -2.05506 -3.52465 0
M  V30 30458 H 2888.92 -3.00618 -2.87405 0
M  V30 30459 H 2887.5 -1.2852 -3.50053 0
M  V30 30460 N 2889.69 1.0947 -1.13376 0
M  V30 30461 C 2891.1 1.6313 -0.908039 0
M  V30 30462 C 2891.45 1.88171 0.555543 0
M  V30 30463 O 2890.57 1.63107 1.42215 0
M  V30 30464 C 2891.17 2.96358 -1.64187 0
M  V30 30465 C 2889.73 3.46845 -1.46203 0
M  V30 30466 C 2888.87 2.2127 -1.67138 0
M  V30 30467 H 2891.82 0.928388 -1.28711 0
M  V30 30468 H 2891.85 3.64292 -1.0987 0
M  V30 30469 H 2891.36 2.78101 -2.70705 0
M  V30 30470 H 2889.46 3.70227 -0.419853 0
M  V30 30471 H 2889.57 4.24311 -2.22479 0
M  V30 30472 H 2887.94 2.29904 -1.0962 0
M  V30 30473 H 2888.72 2.05533 -2.74975 0
M  V30 30474 N 2891.16 0.92719 1.2744 0
M  V30 30475 C 2892.09 0.443228 2.29255 0
M  V30 30476 C 2893.07 -0.496211 1.62701 0
M  V30 30477 O 2894.26 -0.401071 1.90013 0
M  V30 30478 C 2891.39 -0.305305 3.45955 0
M  V30 30479 C 2890.34 0.546252 4.245 0
M  V30 30480 C 2889.67 -0.331418 5.33672 0
M  V30 30481 C 2890.97 1.81046 4.89918 0
M  V30 30482 H 2892.66 1.29413 2.69986 0
M  V30 30483 H 2890.21 0.623727 1.29791 0
M  V30 30484 H 2892.16 -0.654812 4.16281 0
M  V30 30485 H 2890.89 -1.19023 3.0414 0
M  V30 30486 H 2889.55 0.87846 3.55919 0
M  V30 30487 H 2889.19 -1.21528 4.88098 0
M  V30 30488 H 2888.89 0.234849 5.8713 0
M  V30 30489 H 2890.42 -0.676508 6.06841 0
M  V30 30490 H 2891.83 1.52905 5.52533 0
M  V30 30491 H 2890.23 2.32019 5.53432 0
M  V30 30492 H 2891.3 2.53028 4.13648 0
M  V30 30493 N 2892.64 -1.41564 0.692641 0
M  V30 30494 C 2893.57 -2.33466 0.0397735 0
M  V30 30495 C 2894.55 -1.51658 -0.770307 0
M  V30 30496 O 2895.74 -1.80205 -0.723871 0
M  V30 30497 C 2892.87 -3.35451 -0.899436 0
M  V30 30498 C 2891.82 -4.27548 -0.196663 0
M  V30 30499 C 2891.15 -5.19883 -1.25003 0
M  V30 30500 C 2892.45 -5.13858 0.935248 0
M  V30 30501 H 2894.14 -2.88309 0.807346 0
M  V30 30502 H 2891.69 -1.38627 0.389689 0
M  V30 30503 H 2893.64 -3.98667 -1.36538 0
M  V30 30504 H 2892.36 -2.78951 -1.69864 0
M  V30 30505 H 2891.02 -3.65752 0.249222 0
M  V30 30506 H 2890.67 -4.597 -2.04169 0
M  V30 30507 H 2890.37 -5.82335 -0.784829 0
M  V30 30508 H 2891.9 -5.85975 -1.71655 0
M  V30 30509 H 2893.31 -5.70658 0.54972 0
M  V30 30510 H 2891.71 -5.85236 1.32736 0
M  V30 30511 H 2892.78 -4.51197 1.77621 0
M  V30 30512 N 2894.12 -0.437188 -1.51415 0
M  V30 30513 C 2895.53 0.0259677 -1.86682 0
M  V30 30514 C 2895.88 1.41957 -1.35435 0
M  V30 30515 O 2895.01 2.04591 -0.705091 0
M  V30 30516 C 2895.6 0.0538982 -3.38757 0
M  V30 30517 C 2894.16 0.461466 -3.73561 0
M  V30 30518 C 2893.31 -0.345973 -2.75133 0
M  V30 30519 H 2896.26 -0.653038 -1.44641 0
M  V30 30520 H 2896.28 0.863413 -3.70574 0
M  V30 30521 H 2895.79 -0.960516 -3.76026 0
M  V30 30522 H 2893.89 1.48149 -3.41881 0
M  V30 30523 H 2894.01 0.186367 -4.78737 0
M  V30 30524 H 2892.37 0.195695 -2.53947 0
M  V30 30525 H 2893.15 -1.35926 -3.15244 0
M  V30 30526 N 2895.6 1.56696 -0.168541 0
M  V30 30527 C 2896.53 2.13664 0.801439 0
M  V30 30528 C 2897.51 1.06596 1.22784 0
M  V30 30529 O 2898.69 1.34556 1.32011 0
M  V30 30530 C 2895.82 2.67393 2.07891 0
M  V30 30531 C 2894.87 3.86807 1.79675 0
M  V30 30532 S 2895.7 5.2667 0.968464 0
M  V30 30533 C 2896.85 5.83803 2.25666 0
M  V30 30534 H 2897.09 2.95604 0.317069 0
M  V30 30535 H 2894.62 1.54331 0.046086 0
M  V30 30536 H 2896.58 2.98997 2.81267 0
M  V30 30537 H 2895.24 1.85543 2.53441 0
M  V30 30538 H 2894.43 4.22719 2.74453 0
M  V30 30539 H 2894.03 3.56075 1.14396 0
M  V30 30540 H 2896.33 5.96548 3.2115 0
M  V30 30541 H 2897.27 6.80942 1.94226 0
M  V30 30542 H 2897.68 5.12201 2.37299 0
M  V30 30543 N 2897.08 -0.105193 1.57249 0
M  V30 30544 C 2898.49 -0.660834 1.74613 0
M  V30 30545 C 2898.84 -1.79625 0.789262 0
M  V30 30546 O 2897.96 -2.16372 -0.034623 0
M  V30 30547 C 2898.56 -1.20553 3.16626 0
M  V30 30548 C 2897.12 -1.70734 3.3545 0
M  V30 30549 C 2896.26 -0.612716 2.70446 0
M  V30 30550 H 2899.21 0.120818 1.58239 0
M  V30 30551 H 2899.24 -2.07502 3.1894 0
M  V30 30552 H 2898.75 -0.378944 3.86246 0
M  V30 30553 H 2896.85 -2.55826 2.70895 0
M  V30 30554 H 2896.96 -1.80728 4.43705 0
M  V30 30555 H 2895.33 -1.04971 2.32063 0
M  V30 30556 H 2896.11 0.203127 3.42699 0
M  V30 30557 N 2898.55 -1.53055 -0.375752 0
M  V30 30558 C 2899.52 -1.78113 -1.44251 0
M  V30 30559 C 2900.52 -0.651354 -1.47017 0
M  V30 30560 O 2901.71 -0.919498 -1.47956 0
M  V30 30561 C 2898.84 -1.89396 -2.83447 0
M  V30 30562 H 2900.03 -2.73376 -1.23311 0
M  V30 30563 H 2897.59 -1.43978 -0.608287 0
M  V30 30564 H 2898.32 -0.961643 -3.09714 0
M  V30 30565 H 2898.11 -2.7156 -2.82839 0
M  V30 30566 H 2899.6 -2.1041 -3.60718 0
M  V30 30567 N 2900.03 0.634971 -1.44242 0
M  V30 30568 C 2900.94 1.77588 -1.53296 0
M  V30 30569 C 2901.96 1.68883 -0.418861 0
M  V30 30570 O 2903.13 1.89728 -0.675652 0
M  V30 30571 C 2900.2 3.13956 -1.47081 0
M  V30 30572 C 2899.26 3.34321 -2.6931 0
M  V30 30573 C 2898.49 4.64183 -2.63382 0
M  V30 30574 O 2898.72 5.44736 -1.69171 0
M  V30 30575 O 2897.65 4.86666 -3.54174 0
M  V30 30576 H 2901.48 1.72904 -2.49676 0
M  V30 30577 H 2899.06 0.795723 -1.26446 0
M  V30 30578 H 2900.94 3.95254 -1.46124 0
M  V30 30579 H 2899.62 3.19191 -0.538429 0
M  V30 30580 H 2898.53 2.52716 -2.75836 0
M  V30 30581 H 2899.86 3.33945 -3.61582 0
M  V30 30582 N 2901.51 1.31076 0.875027 0
M  V30 30583 C 2902.76 1.20472 1.62766 0
M  V30 30584 C 2903.09 -0.238307 1.93035 0
M  V30 30585 O 2902.34 -1.18564 1.55695 0
M  V30 30586 C 2902.64 1.98894 2.96945 0
M  V30 30587 C 2902.31 3.48435 2.86189 0
M  V30 30588 C 2900.97 3.89212 2.82963 0
M  V30 30589 C 2903.32 4.43618 2.73591 0
M  V30 30590 C 2900.65 5.23447 2.6499 0
M  V30 30591 C 2903 5.77974 2.57156 0
M  V30 30592 C 2901.66 6.17977 2.5231 0
M  V30 30593 H 2900.93 0.440837 0.595603 0
M  V30 30594 H 2903.58 1.62287 1.01662 0
M  V30 30595 H 2901.89 1.49743 3.62055 0
M  V30 30596 H 2903.58 1.88073 3.5416 0
M  V30 30597 H 2900.17 3.16037 2.89515 0
M  V30 30598 H 2904.36 4.1305 2.75143 0
M  V30 30599 H 2899.61 5.53522 2.5966 0
M  V30 30600 H 2903.79 6.51358 2.46384 0
M  V30 30601 H 2901.41 7.21936 2.38143 0
M  V30 30602 N 2902.99 -1.08867 1.13955 0
M  V30 30603 C 2904.24 -1.8116 0.904842 0
M  V30 30604 C 2904.56 -1.85997 -0.568791 0
M  V30 30605 O 2903.82 -1.32826 -1.43721 0
M  V30 30606 C 2904.12 -3.26886 1.44501 0
M  V30 30607 C 2903.78 -3.42173 2.93647 0
M  V30 30608 C 2902.45 -3.46053 3.34367 0
M  V30 30609 C 2904.8 -3.46239 3.89574 0
M  V30 30610 C 2902.13 -3.51583 4.69687 0
M  V30 30611 C 2904.48 -3.53304 5.24746 0
M  V30 30612 C 2903.14 -3.55455 5.64985 0
M  V30 30613 H 2902.41 -0.662911 0.331105 0
M  V30 30614 H 2905.06 -1.28214 1.42244 0
M  V30 30615 H 2903.36 -3.82508 0.848236 0
M  V30 30616 H 2905.06 -3.81366 1.23941 0
M  V30 30617 H 2901.65 -3.39842 2.61162 0
M  V30 30618 H 2905.83 -3.42477 3.59198 0
M  V30 30619 H 2901.09 -3.51539 5.00231 0
M  V30 30620 H 2905.26 -3.55395 5.98888 0
M  V30 30621 H 2902.89 -3.59493 6.69827 0
M  V30 30622 N 2904.47 -0.933936 -1.26946 0
M  V30 30623 C 2905.42 -0.408819 -2.24305 0
M  V30 30624 C 2906.4 0.490408 -1.53244 0
M  V30 30625 O 2907.59 0.326836 -1.73956 0
M  V30 30626 C 2904.72 0.331518 -3.41696 0
M  V30 30627 C 2903.81 -0.584584 -4.20052 0
M  V30 30628 N 2904.2 -1.70718 -4.76119 0
M  V30 30629 C 2902.5 -0.388781 -4.44302 0
M  V30 30630 C 2903.2 -2.27746 -5.35263 0
M  V30 30631 N 2902.17 -1.56632 -5.20545 0
M  V30 30632 H 2905.98 -1.26586 -2.65242 0
M  V30 30633 H 2903.49 -0.788944 -1.41949 0
M  V30 30634 H 2905.49 0.724702 -4.10553 0
M  V30 30635 H 2904.15 1.18541 -3.02288 0
M  V30 30636 H 2905.16 -2.08945 -4.7388 0
M  V30 30637 H 2901.83 0.423943 -4.15342 0
M  V30 30638 H 2903.22 -3.22292 -5.89557 0
M  V30 30639 N 2905.94 1.41194 -0.700139 0
M  V30 30640 C 2907.36 1.84154 -0.307281 0
M  V30 30641 C 2907.71 1.58574 1.15537 0
M  V30 30642 O 2906.83 1.05856 1.88742 0
M  V30 30643 C 2907.43 3.34291 -0.550931 0
M  V30 30644 C 2905.99 3.75803 -0.211943 0
M  V30 30645 C 2905.13 2.64557 -0.830961 0
M  V30 30646 H 2908.08 1.30681 -0.900454 0
M  V30 30647 H 2908.1 3.80031 0.188887 0
M  V30 30648 H 2907.62 3.52877 -1.61554 0
M  V30 30649 H 2905.72 3.62817 0.848219 0
M  V30 30650 H 2905.83 4.7439 -0.670153 0
M  V30 30651 H 2904.19 2.53367 -0.260199 0
M  V30 30652 H 2904.98 2.8596 -1.89953 0
M  V30 30653 N 2907.42 0.445212 1.51181 0
M  V30 30654 C 2908.39 -0.350682 2.26501 0
M  V30 30655 C 2909.39 -0.942929 1.30252 0
M  V30 30656 O 2910.58 -0.816148 1.53898 0
M  V30 30657 C 2907.71 -1.49692 3.06276 0
M  V30 30658 H 2908.9 0.309527 2.98298 0
M  V30 30659 H 2906.45 0.198579 1.55033 0
M  V30 30660 H 2907.19 -2.19295 2.38915 0
M  V30 30661 H 2906.97 -1.07834 3.76981 0
M  V30 30662 H 2908.46 -2.05903 3.6331 0
M  V30 30663 N 2908.9 -1.56605 0.176849 0
M  V30 30664 C 2910.15 -1.97341 -0.467371 0
M  V30 30665 C 2910.48 -1.06304 -1.62521 0
M  V30 30666 O 2909.75 -0.111284 -1.94181 0
M  V30 30667 C 2910.04 -3.47478 -0.945045 0
M  V30 30668 C 2909.89 -4.49294 0.213352 0
M  V30 30669 C 2911.21 -4.00848 -1.81683 0
M  V30 30670 H 2908.33 -0.7175 -0.168414 0
M  V30 30671 H 2910.97 -1.88156 0.264098 0
M  V30 30672 H 2909.12 -3.55437 -1.56835 0
M  V30 30673 H 2910.79 -4.5339 0.850587 0
M  V30 30674 H 2909.04 -4.25027 0.867993 0
M  V30 30675 H 2909.71 -5.51759 -0.16309 0
M  V30 30676 H 2912.18 -3.95555 -1.29132 0
M  V30 30677 H 2911.06 -5.06305 -2.12006 0
M  V30 30678 H 2911.32 -3.44999 -2.76457 0
M  V30 30679 N 2910.38 0.0968524 -1.57302 0
M  V30 30680 C 2911.6 0.818135 -1.90582 0
M  V30 30681 C 2912.03 1.71575 -0.770951 0
M  V30 30682 O 2911.39 1.79163 0.277557 0
M  V30 30683 C 2911.43 1.60893 -3.22716 0
M  V30 30684 O 2910.54 2.71773 -3.10182 0
M  V30 30685 H 2909.88 0.224871 -0.624763 0
M  V30 30686 H 2912.41 0.072604 -2.04471 0
M  V30 30687 H 2912.42 1.99352 -3.55981 0
M  V30 30688 H 2911.09 0.950156 -4.04901 0
M  V30 30689 H 2909.67 2.36355 -2.88428 0
M  V30 30690 N 2911.86 1.53252 0.36763 0
M  V30 30691 C 2912.82 1.78875 1.43305 0
M  V30 30692 C 2913.82 0.659141 1.4667 0
M  V30 30693 O 2915.01 0.927332 1.47466 0
M  V30 30694 C 2912.14 1.90897 2.82438 0
M  V30 30695 H 2913.33 2.74026 1.21859 0
M  V30 30696 H 2910.89 1.44298 0.600643 0
M  V30 30697 H 2911.62 0.978055 3.092 0
M  V30 30698 H 2911.41 2.73056 2.81395 0
M  V30 30699 H 2912.9 2.1232 3.59597 0
M  V30 30700 N 2913.34 -0.627313 1.44577 0
M  V30 30701 C 2914.56 -1.41884 1.51273 0
M  V30 30702 C 2914.99 -1.87579 0.139847 0
M  V30 30703 O 2914.34 -1.58968 -0.871718 0
M  V30 30704 C 2914.39 -2.61273 2.48534 0
M  V30 30705 O 2913.5 -3.61238 1.9895 0
M  V30 30706 H 2912.84 -0.42439 0.510676 0
M  V30 30707 H 2915.37 -0.765322 1.89747 0
M  V30 30708 H 2915.38 -3.08768 2.66695 0
M  V30 30709 H 2914.05 -2.2736 3.48253 0
M  V30 30710 H 2912.63 -3.20525 1.90574 0
M  V30 30711 N 2914.81 -1.31539 -0.868063 0
M  V30 30712 C 2915.75 -1.1517 -1.98163 0
M  V30 30713 C 2916.76 -0.0902621 -1.6255 0
M  V30 30714 O 2917.95 -0.33794 -1.75272 0
M  V30 30715 C 2915.05 -0.737834 -3.30771 0
M  V30 30716 C 2914.22 -1.88469 -3.94713 0
M  V30 30717 C 2913.28 -1.45657 -5.05639 0
M  V30 30718 O 2912.31 -2.16652 -5.26356 0
M  V30 30719 N 2913.51 -0.345032 -5.79474 0
M  V30 30720 H 2916.27 -2.11086 -2.1275 0
M  V30 30721 H 2913.83 -1.23898 -1.04215 0
M  V30 30722 H 2915.83 -0.434102 -4.02365 0
M  V30 30723 H 2914.4 0.129779 -3.1233 0
M  V30 30724 H 2913.62 -2.35564 -3.16075 0
M  V30 30725 H 2914.9 -2.6528 -4.3417 0
M  V30 30726 H 2914.3 0.24616 -5.65164 0
M  V30 30727 H 2912.86 -0.100843 -6.51722 0
M  V30 30728 N 2916.29 1.08262 -1.1453 0
M  V30 30729 C 2917.24 2.1522 -0.833593 0
M  V30 30730 C 2918.21 1.64773 0.20951 0
M  V30 30731 O 2919.39 1.90636 0.0791053 0
M  V30 30732 C 2916.53 3.43624 -0.31886 0
M  V30 30733 C 2915.65 4.0791 -1.42244 0
M  V30 30734 C 2914.78 5.24113 -0.864796 0
M  V30 30735 C 2913.82 5.80344 -1.94595 0
M  V30 30736 N 2912.96 6.87891 -1.40537 0
M  V30 30737 H 2917.8 2.41225 -1.74969 0
M  V30 30738 H 2915.33 1.1838 -0.87319 0
M  V30 30739 H 2917.29 4.172 -0.00220421 0
M  V30 30740 H 2915.92 3.17899 0.560342 0
M  V30 30741 H 2914.97 3.3208 -1.85546 0
M  V30 30742 H 2916.29 4.4572 -2.23909 0
M  V30 30743 H 2915.44 6.04635 -0.500131 0
M  V30 30744 H 2914.18 4.87697 -0.0172077 0
M  V30 30745 H 2913.18 4.98475 -2.31955 0
M  V30 30746 H 2914.41 6.18818 -2.79715 0
M  V30 30747 H 2912.36 6.53431 -0.579988 0
M  V30 30748 H 2912.27 7.24534 -2.15838 0
M  V30 30749 H 2913.54 7.7214 -1.06866 0
M  V30 30750 N 2917.77 0.940655 1.26449 0
M  V30 30751 C 2919.02 0.586782 1.93394 0
M  V30 30752 C 2919.34 -0.87689 1.74171 0
M  V30 30753 O 2918.61 -1.62302 1.09703 0
M  V30 30754 H 2917.19 0.214025 0.715683 0
M  V30 30755 H 2919.85 1.19586 1.539 0
M  V30 30756 H 2918.95 0.804112 3.01563 0
M  V30 30757 N 2919.25 -1.40821 0.707617 0
M  V30 30758 C 2920.66 -1.83988 0.317043 0
M  V30 30759 C 2921.01 -1.59185 -1.14694 0
M  V30 30760 O 2920.13 -1.06855 -1.88178 0
M  V30 30761 C 2920.73 -3.33994 0.568651 0
M  V30 30762 C 2919.29 -3.75685 0.23187 0
M  V30 30763 C 2918.44 -2.64112 0.844979 0
M  V30 30764 H 2921.39 -1.30202 0.907372 0
M  V30 30765 H 2921.41 -3.80126 -0.168731 0
M  V30 30766 H 2920.92 -3.52015 1.63423 0
M  V30 30767 H 2919.02 -3.63261 -0.828966 0
M  V30 30768 H 2919.13 -4.74028 0.695302 0
M  V30 30769 H 2917.5 -2.53226 0.273632 0
M  V30 30770 H 2918.28 -2.84948 1.91467 0
M  V30 30771 N 2920.73 -0.453223 -1.50943 0
M  V30 30772 C 2921.64 0.355922 -2.31884 0
M  V30 30773 C 2922.65 1.01285 -1.41483 0
M  V30 30774 O 2923.83 1.00474 -1.74548 0
M  V30 30775 C 2920.89 1.43363 -3.15671 0
M  V30 30776 C 2919.95 0.795179 -4.21871 0
M  V30 30777 C 2919.19 1.82153 -5.01653 0
M  V30 30778 O 2919.41 3.04583 -4.82271 0
M  V30 30779 O 2918.34 1.40325 -5.85314 0
M  V30 30780 H 2922.17 -0.305301 -3.02162 0
M  V30 30781 H 2919.75 -0.215424 -1.47839 0
M  V30 30782 H 2921.64 2.05829 -3.67712 0
M  V30 30783 H 2920.31 2.07865 -2.48141 0
M  V30 30784 H 2919.22 0.13204 -3.73867 0
M  V30 30785 H 2920.55 0.193398 -4.9182 0
M  V30 30786 N 2922.2 1.56509 -0.185151 0
M  V30 30787 C 2923.15 2.18626 0.73969 0
M  V30 30788 C 2924.12 1.13044 1.21698 0
M  V30 30789 O 2925.31 1.41254 1.28266 0
M  V30 30790 C 2922.45 2.84189 1.95782 0
M  V30 30791 C 2921.56 4.0427 1.52282 0
M  V30 30792 C 2920.69 4.57719 2.69568 0
M  V30 30793 C 2919.73 5.70179 2.22626 0
M  V30 30794 N 2918.87 6.18077 3.33054 0
M  V30 30795 H 2923.71 2.97306 0.203216 0
M  V30 30796 H 2921.25 1.46833 0.0885688 0
M  V30 30797 H 2923.2 3.20366 2.67248 0
M  V30 30798 H 2921.83 2.08089 2.46777 0
M  V30 30799 H 2920.89 3.73821 0.704392 0
M  V30 30800 H 2922.2 4.85637 1.13835 0
M  V30 30801 H 2921.35 4.9615 3.49171 0
M  V30 30802 H 2920.09 3.75438 3.11283 0
M  V30 30803 H 2919.1 5.31286 1.41474 0
M  V30 30804 H 2920.32 6.54271 1.81953 0
M  V30 30805 H 2918.27 5.38722 3.74319 0
M  V30 30806 H 2918.18 6.9447 2.98744 0
M  V30 30807 H 2919.45 6.6116 4.12901 0
M  V30 30808 N 2923.68 -0.0885089 1.57351 0
M  V30 30809 C 2924.93 -0.789229 1.86053 0
M  V30 30810 C 2925.25 -1.78947 0.774795 0
M  V30 30811 O 2924.52 -1.94894 -0.19829 0
M  V30 30812 H 2923.1 -0.294462 0.686514 0
M  V30 30813 H 2925.76 -0.0685712 1.94779 0
M  V30 30814 H 2924.86 -1.31576 2.83009 0
M  V30 30815 N 2925.16 -1.53445 -0.359498 0
M  V30 30816 C 2926.39 -1.73839 -1.12195 0
M  V30 30817 C 2926.8 -0.470139 -1.82853 0
M  V30 30818 O 2926.16 0.557318 -1.73782 0
M  V30 30819 C 2926.21 -2.9079 -2.14763 0
M  V30 30820 O 2925.93 -4.12708 -1.46982 0
M  V30 30821 C 2927.43 -3.23106 -3.03509 0
M  V30 30822 H 2924.65 -0.581259 -0.33523 0
M  V30 30823 H 2927.2 -2.00212 -0.416563 0
M  V30 30824 H 2925.35 -2.66793 -2.80891 0
M  V30 30825 H 2925.77 -4.78243 -2.1537 0
M  V30 30826 H 2927.24 -4.08329 -3.71446 0
M  V30 30827 H 2927.72 -2.38728 -3.68654 0
M  V30 30828 H 2928.32 -3.4905 -2.4299 0
M  V30 30829 N 2926.64 0.619637 -1.44908 0
M  V30 30830 C 2927.89 1.37623 -1.48001 0
M  V30 30831 C 2928.21 1.94641 -0.118329 0
M  V30 30832 O 2927.48 1.76459 0.850829 0
M  V30 30833 H 2926.06 0.510864 -0.545002 0
M  V30 30834 H 2928.72 0.728491 -1.80773 0
M  V30 30835 H 2927.81 2.20175 -2.212 0
M  V30 30836 N 2928.12 1.31997 0.861075 0
M  V30 30837 C 2929.34 1.25176 1.64738 0
M  V30 30838 C 2929.76 -0.181392 1.87927 0
M  V30 30839 O 2929.12 -1.11638 1.44372 0
M  V30 30840 C 2929.17 2.00155 3.01032 0
M  V30 30841 O 2928.89 3.37877 2.78874 0
M  V30 30842 C 2930.39 2.0028 3.95478 0
M  V30 30843 H 2927.61 0.432155 0.513306 0
M  V30 30844 H 2930.15 1.74018 1.07416 0
M  V30 30845 H 2928.31 1.55052 3.55018 0
M  V30 30846 H 2928.72 3.76171 3.65507 0
M  V30 30847 H 2930.2 2.57237 4.88398 0
M  V30 30848 H 2930.67 0.987482 4.27955 0
M  V30 30849 H 2931.28 2.45302 3.47429 0
M  V30 30850 N 2929.59 -1.07653 1.15103 0
M  V30 30851 C 2930.84 -1.79834 0.92218 0
M  V30 30852 C 2931.16 -1.87015 -0.552314 0
M  V30 30853 O 2930.43 -1.36882 -1.40143 0
M  V30 30854 H 2929.01 -0.666058 0.338194 0
M  V30 30855 H 2931.68 -1.30113 1.45109 0
M  V30 30856 H 2930.77 -2.82395 1.32888 0
M  V30 30857 N 2931.07 -0.947348 -1.25949 0
M  V30 30858 C 2932.3 -0.615162 -1.97543 0
M  V30 30859 C 2932.72 0.811191 -1.70485 0
M  V30 30860 O 2932.07 1.54168 -0.976647 0
M  V30 30861 C 2932.12 -0.85539 -3.51234 0
M  V30 30862 O 2931.84 -2.22565 -3.77355 0
M  V30 30863 C 2933.35 -0.534592 -4.40065 0
M  V30 30864 H 2930.57 -0.231274 -0.629884 0
M  V30 30865 H 2933.11 -1.26974 -1.60306 0
M  V30 30866 H 2931.26 -0.247334 -3.8661 0
M  V30 30867 H 2931.68 -2.29031 -4.71853 0
M  V30 30868 H 2933.15 -0.753264 -5.46836 0
M  V30 30869 H 2933.63 0.530625 -4.35983 0
M  V30 30870 H 2934.24 -1.12165 -4.10243 0
M  V30 30871 N 2932.55 1.40444 -0.715075 0
M  V30 30872 C 2933.48 2.33373 -0.0769109 0
M  V30 30873 C 2934.46 1.52865 0.746082 0
M  V30 30874 O 2935.65 1.81334 0.69511 0
M  V30 30875 C 2932.78 3.3684 0.845955 0
M  V30 30876 C 2931.73 4.27807 0.128619 0
M  V30 30877 C 2931.06 5.21806 1.16716 0
M  V30 30878 C 2932.36 5.12305 -1.01688 0
M  V30 30879 H 2934.05 2.86988 -0.853112 0
M  V30 30880 H 2931.6 1.37989 -0.411694 0
M  V30 30881 H 2933.55 4.00789 1.30178 0
M  V30 30882 H 2932.27 2.81618 1.65405 0
M  V30 30883 H 2930.93 3.65309 -0.307378 0
M  V30 30884 H 2930.58 4.6289 1.96829 0
M  V30 30885 H 2930.28 5.8351 0.692085 0
M  V30 30886 H 2931.8 5.88632 1.6231 0
M  V30 30887 H 2933.22 5.69712 -0.640437 0
M  V30 30888 H 2931.62 5.8305 -1.4203 0
M  V30 30889 H 2932.69 4.48314 -1.84777 0
M  V30 30890 N 2934.03 0.461222 1.507 0
M  V30 30891 C 2935.44 0.00373509 1.867 0
M  V30 30892 C 2935.79 -1.39785 1.37676 0
M  V30 30893 O 2934.92 -2.03443 0.737551 0
M  V30 30894 C 2935.51 1.97394e-06 3.388 0
M  V30 30895 C 2934.07 -0.401978 3.74247 0
M  V30 30896 C 2933.22 0.3897 2.74548 0
M  V30 30897 H 2936.17 0.675967 1.43584 0
M  V30 30898 H 2936.19 -0.804348 3.71901 0
M  V30 30899 H 2935.7 1.02022 3.74451 0
M  V30 30900 H 2933.8 -1.42691 3.44195 0
M  V30 30901 H 2933.91 -0.11018 4.78973 0
M  V30 30902 H 2932.28 -0.155269 2.54226 0
M  V30 30903 H 2933.06 1.40924 3.13042 0
M  V30 30904 N 2935.51 -1.56408 0.193449 0
M  V30 30905 C 2936.45 -2.19015 -0.728085 0
M  V30 30906 C 2937.42 -1.13688 -1.21096 0
M  V30 30907 O 2938.61 -1.41932 -1.27515 0
M  V30 30908 C 2935.75 -2.85224 -1.94272 0
M  V30 30909 C 2934.86 -4.05072 -1.50136 0
M  V30 30910 C 2934 -4.59142 -2.67137 0
M  V30 30911 C 2933.04 -5.71352 -2.19599 0
M  V30 30912 N 2932.17 -6.19835 -3.29772 0
M  V30 30913 H 2937.01 -2.9741 -0.187447 0
M  V30 30914 H 2934.55 -1.46878 -0.0807806 0
M  V30 30915 H 2936.51 -3.21779 -2.65545 0
M  V30 30916 H 2935.14 -2.09395 -2.4567 0
M  V30 30917 H 2934.19 -3.7419 -0.684558 0
M  V30 30918 H 2935.5 -4.86234 -1.11258 0
M  V30 30919 H 2934.66 -4.97994 -3.46535 0
M  V30 30920 H 2933.39 -3.77084 -3.09288 0
M  V30 30921 H 2932.4 -5.32029 -1.38654 0
M  V30 30922 H 2933.62 -6.55226 -1.78481 0
M  V30 30923 H 2931.57 -5.40699 -3.71457 0
M  V30 30924 H 2931.49 -6.96044 -2.95057 0
M  V30 30925 H 2932.76 -6.63341 -4.09389 0
M  V30 30926 N 2936.98 0.0801629 -1.57396 0
M  V30 30927 C 2938.23 0.779669 -1.86022 0
M  V30 30928 C 2938.55 1.79161 -0.784896 0
M  V30 30929 O 2939.75 2.54009 -0.958735 0
M  V30 30930 C 2938.21 1.43752 -3.29944 0
M  V30 30931 C 2937.82 0.464576 -4.45585 0
M  V30 30932 C 2939.56 2.11988 -3.67779 0
M  V30 30933 C 2937.47 1.12787 -5.80546 0
M  V30 30934 H 2936.4 0.294931 -0.693925 0
M  V30 30935 H 2939.05 0.0328205 -1.83471 0
M  V30 30936 H 2937.43 2.23234 -3.27082 0
M  V30 30937 H 2938.6 -0.29983 -4.59824 0
M  V30 30938 H 2936.92 -0.112886 -4.16247 0
M  V30 30939 H 2939.52 2.62374 -4.65901 0
M  V30 30940 H 2939.86 2.91555 -2.97155 0
M  V30 30941 H 2940.39 1.39348 -3.72595 0
M  V30 30942 H 2937.13 0.372692 -6.5444 0
M  V30 30943 H 2936.65 1.86334 -5.70123 0
M  V30 30944 H 2938.33 1.65009 -6.25604 0
M  V30 30945 N 2938.46 1.53634 0.351355 0
M  V30 30946 C 2939.43 1.80385 1.41399 0
M  V30 30947 C 2940.43 0.67466 1.45962 0
M  V30 30948 O 2941.62 0.94292 1.46474 0
M  V30 30949 C 2938.75 1.93881 2.80398 0
M  V30 30950 H 2939.94 2.75303 1.18946 0
M  V30 30951 H 2937.49 1.44927 0.585304 0
M  V30 30952 H 2938.23 1.01079 3.08145 0
M  V30 30953 H 2938.01 2.76025 2.78483 0
M  V30 30954 H 2939.5 2.16122 3.57325 0
M  V30 30955 N 2939.94 -0.611943 1.45234 0
M  V30 30956 C 2940.87 -1.73371 1.56413 0
M  V30 30957 C 2941.85 -1.64937 0.415925 0
M  V30 30958 O 2943.04 -1.83403 0.63851 0
M  V30 30959 C 2940.17 -3.11963 1.52632 0
M  V30 30960 C 2939.12 -3.35204 2.66125 0
M  V30 30961 C 2938.45 -4.74024 2.47398 0
M  V30 30962 C 2939.75 -3.25884 4.08163 0
M  V30 30963 H 2941.44 -1.64272 2.5031 0
M  V30 30964 H 2938.99 -0.788882 1.20468 0
M  V30 30965 H 2940.94 -3.90232 1.5905 0
M  V30 30966 H 2939.66 -3.21891 0.552621 0
M  V30 30967 H 2938.32 -2.59323 2.59128 0
M  V30 30968 H 2937.97 -4.80679 1.48177 0
M  V30 30969 H 2937.67 -4.9053 3.23503 0
M  V30 30970 H 2939.19 -5.54499 2.55663 0
M  V30 30971 H 2940.61 -3.94033 4.16427 0
M  V30 30972 H 2939.01 -3.53921 4.84623 0
M  V30 30973 H 2940.08 -2.23389 4.30378 0
M  V30 30974 N 2941.42 -1.32452 -0.854063 0
M  V30 30975 C 2942.35 -1.17265 -1.9693 0
M  V30 30976 C 2943.36 -0.107498 -1.62445 0
M  V30 30977 O 2944.55 -0.356511 -1.74904 0
M  V30 30978 C 2941.65 -0.772875 -3.29969 0
M  V30 30979 C 2940.83 -1.92644 -3.92692 0
M  V30 30980 C 2939.88 -1.51012 -5.04065 0
M  V30 30981 O 2938.91 -2.22222 -5.24029 0
M  V30 30982 N 2940.11 -0.406473 -5.79075 0
M  V30 30983 H 2942.88 -2.13331 -2.10499 0
M  V30 30984 H 2940.44 -1.24997 -1.02895 0
M  V30 30985 H 2942.43 -0.476754 -4.01882 0
M  V30 30986 H 2941 0.0966451 -3.12451 0
M  V30 30987 H 2940.22 -2.38903 -3.13559 0
M  V30 30988 H 2941.51 -2.6987 -4.31332 0
M  V30 30989 H 2940.91 0.186203 -5.65393 0
M  V30 30990 H 2939.46 -0.169961 -6.51578 0
M  V30 30991 N 2942.9 1.07041 -1.15672 0
M  V30 30992 C 2944.15 1.79342 -0.931705 0
M  V30 30993 C 2944.47 1.87305 0.542388 0
M  V30 30994 O 2943.74 1.37624 1.39415 0
M  V30 30995 H 2942.32 0.664256 -0.341721 0
M  V30 30996 H 2944.98 1.29342 -1.45797 0
M  V30 30997 H 2944.07 2.81687 -1.34384 0
M  V30 30998 N 2944.38 0.954014 1.25445 0
M  V30 30999 C 2945.6 0.625164 1.97754 0
M  V30 31000 C 2946.03 -0.795757 1.70439 0
M  V30 31001 O 2945.38 -1.53801 0.959947 0
M  V30 31002 C 2945.43 0.889313 3.49462 0
M  V30 31003 O 2944.54 -0.0322032 4.12387 0
M  V30 31004 H 2943.88 0.237753 0.619975 0
M  V30 31005 H 2946.41 1.28044 1.5958 0
M  V30 31006 H 2946.42 0.815333 3.9977 0
M  V30 31007 H 2945.09 1.92493 3.68672 0
M  V30 31008 H 2943.67 0.093928 3.72782 0
M  V30 31009 N 2945.85 -1.40063 0.722513 0
M  V30 31010 C 2947.1 -2.01543 0.274256 0
M  V30 31011 C 2947.45 -1.56282 -1.12222 0
M  V30 31012 O 2946.75 -0.776094 -1.75178 0
M  V30 31013 C 2946.94 -3.56132 0.300745 0
M  V30 31014 C 2946.77 -4.16401 1.69825 0
M  V30 31015 C 2945.54 -4.49533 2.30755 0
M  V30 31016 C 2947.74 -4.40789 2.6497 0
M  V30 31017 N 2945.72 -4.95234 3.6279 0
M  V30 31018 C 2947.09 -4.88558 3.81721 0
M  V30 31019 C 2949.15 -4.22838 2.62893 0
M  V30 31020 C 2947.85 -5.20259 4.96712 0
M  V30 31021 C 2949.88 -4.55645 3.77017 0
M  V30 31022 C 2949.24 -5.03609 4.92501 0
M  V30 31023 H 2945.34 -0.768185 0.146342 0
M  V30 31024 H 2947.92 -1.70184 0.9458 0
M  V30 31025 H 2946.09 -3.86906 -0.340393 0
M  V30 31026 H 2947.82 -4.04364 -0.16488 0
M  V30 31027 H 2944.58 -4.36903 1.8279 0
M  V30 31028 H 2945 -5.22458 4.30543 0
M  V30 31029 H 2949.64 -3.84969 1.7481 0
M  V30 31030 H 2947.36 -5.57039 5.85434 0
M  V30 31031 H 2950.95 -4.43389 3.76693 0
M  V30 31032 H 2949.83 -5.28515 5.79346 0
M  V30 31033 N 2947.33 -0.469207 -1.50453 0
M  V30 31034 C 2948.29 0.314603 -2.27031 0
M  V30 31035 C 2949.29 0.922088 -1.31735 0
M  V30 31036 O 2950.48 0.791561 -1.55177 0
M  V30 31037 C 2947.62 1.448 -3.08619 0
M  V30 31038 H 2948.81 -0.356944 -2.97768 0
M  V30 31039 H 2946.36 -0.223218 -1.54698 0
M  V30 31040 H 2947.1 2.15466 -2.42373 0
M  V30 31041 H 2946.88 1.01823 -3.78648 0
M  V30 31042 H 2948.37 2.00097 -3.66539 0
M  V30 31043 N 2948.81 1.56303 -0.201741 0
M  V30 31044 C 2950.03 2.02597 0.443779 0
M  V30 31045 C 2950.46 1.08089 1.53943 0
M  V30 31046 O 2949.82 0.0655375 1.81182 0
M  V30 31047 C 2949.87 3.47281 0.971005 0
M  V30 31048 O 2948.97 3.55897 2.08354 0
M  V30 31049 H 2948.31 0.655974 0.102928 0
M  V30 31050 H 2950.84 2.02167 -0.314568 0
M  V30 31051 H 2950.85 3.87206 1.28591 0
M  V30 31052 H 2949.53 4.15557 0.168975 0
M  V30 31053 H 2948.1 3.27849 1.77677 0
M  V30 31054 N 2950.29 -0.0718147 1.57436 0
M  V30 31055 C 2951.22 -1.08567 2.06726 0
M  V30 31056 C 2952.2 -1.40369 0.960756 0
M  V30 31057 O 2953.38 -1.49997 1.23348 0
M  V30 31058 C 2950.51 -2.39912 2.51117 0
M  V30 31059 C 2949.47 -2.22462 3.65643 0
M  V30 31060 C 2948.79 -3.59191 3.96089 0
M  V30 31061 C 2950.09 -1.64587 4.9569 0
M  V30 31062 H 2951.79 -0.675518 2.9168 0
M  V30 31063 H 2949.33 -0.323496 1.40319 0
M  V30 31064 H 2951.29 -3.1113 2.84211 0
M  V30 31065 H 2950.01 -2.82907 1.63191 0
M  V30 31066 H 2948.67 -1.53685 3.32831 0
M  V30 31067 H 2948.32 -3.99756 3.05294 0
M  V30 31068 H 2948.02 -3.48354 4.73205 0
M  V30 31069 H 2949.54 -4.31839 4.31679 0
M  V30 31070 H 2950.96 -2.25671 5.27015 0
M  V30 31071 H 2949.35 -1.64447 5.77128 0
M  V30 31072 H 2950.42 -0.607355 4.81081 0
M  V30 31073 N 2951.77 -1.53818 -0.343203 0
M  V30 31074 C 2953.18 -1.44089 -0.68633 0
M  V30 31075 C 2953.38 -0.597916 -1.92425 0
M  V30 31076 O 2952.44 -0.0890362 -2.52343 0
M  V30 31077 C 2953.75 -2.87577 -0.878648 0
M  V30 31078 C 2955.3 -2.97353 -0.977243 0
M  V30 31079 C 2955.77 -4.41949 -1.20187 0
M  V30 31080 N 2957.26 -4.45476 -1.26907 0
M  V30 31081 C 2958 -5.54491 -1.46039 0
M  V30 31082 N 2957.5 -6.73511 -1.62342 0
M  V30 31083 N 2959.29 -5.42105 -1.4859 0
M  V30 31084 H 2951.44 -2.07118 0.470715 0
M  V30 31085 H 2953.7 -0.93627 0.148668 0
M  V30 31086 H 2953.41 -3.51677 -0.0405402 0
M  V30 31087 H 2953.28 -3.32544 -1.78028 0
M  V30 31088 H 2955.67 -2.33393 -1.80587 0
M  V30 31089 H 2955.75 -2.55746 -0.0525048 0
M  V30 31090 H 2955.39 -5.0649 -0.378173 0
M  V30 31091 H 2955.32 -4.81148 -2.14018 0
M  V30 31092 H 2957.82 -3.5971 -1.15831 0
M  V30 31093 H 2958.13 -7.52356 -1.76578 0
M  V30 31094 H 2956.47 -6.76455 -1.59478 0
M  V30 31095 H 2959.66 -4.48079 -1.35436 0
M  V30 31096 H 2959.84 -6.27123 -1.63159 0
M  V30 31097 N 2953.24 0.604233 -1.45557 0
M  V30 31098 C 2954.47 1.3946 -1.53512 0
M  V30 31099 C 2954.89 1.87333 -0.169671 0
M  V30 31100 O 2954.25 1.60335 0.846317 0
M  V30 31101 C 2954.3 2.57286 -2.52659 0
M  V30 31102 O 2953.4 3.58027 -2.04672 0
M  V30 31103 H 2952.74 0.416211 -0.517363 0
M  V30 31104 H 2955.27 0.735038 -1.90941 0
M  V30 31105 H 2955.28 3.04486 -2.71573 0
M  V30 31106 H 2953.96 2.2179 -3.51826 0
M  V30 31107 H 2952.54 3.17452 -1.95649 0
M  V30 31108 N 2954.72 1.32903 0.847027 0
M  V30 31109 C 2956.13 1.21468 1.41783 0
M  V30 31110 C 2956.48 -0.169732 1.95464 0
M  V30 31111 O 2955.61 -1.06889 1.88159 0
M  V30 31112 C 2956.2 2.1991 2.5773 0
M  V30 31113 C 2954.76 2.12339 3.10788 0
M  V30 31114 C 2953.91 2.0785 1.83558 0
M  V30 31115 H 2956.86 1.4462 0.653506 0
M  V30 31116 H 2956.88 1.80207 3.3512 0
M  V30 31117 H 2956.39 3.2066 2.1863 0
M  V30 31118 H 2954.49 1.14864 3.54453 0
M  V30 31119 H 2954.61 3.02513 3.71514 0
M  V30 31120 H 2952.97 1.53203 2.03472 0
M  V30 31121 H 2953.75 3.10394 1.46664 0
M  V30 31122 N 2956.2 -1.06426 1.16238 0
M  V30 31123 C 2957.62 -1.31322 0.907007 0
M  V30 31124 C 2957.82 -1.96619 -0.440837 0
M  V30 31125 O 2956.87 -2.23196 -1.18066 0
M  V30 31126 C 2958.18 -2.19518 2.05505 0
M  V30 31127 C 2959.73 -2.32939 2.09065 0
M  V30 31128 C 2960.21 -3.24489 3.2322 0
M  V30 31129 N 2961.7 -3.32072 3.22928 0
M  V30 31130 C 2962.43 -4.02999 4.07897 0
M  V30 31131 N 2961.93 -4.7646 5.02949 0
M  V30 31132 N 2963.72 -3.99036 3.95888 0
M  V30 31133 H 2955.87 -0.624353 2.03016 0
M  V30 31134 H 2958.14 -0.33782 0.885766 0
M  V30 31135 H 2957.84 -1.78814 3.0285 0
M  V30 31136 H 2957.72 -3.20097 1.99544 0
M  V30 31137 H 2960.1 -2.72891 1.12313 0
M  V30 31138 H 2960.18 -1.32033 2.19091 0
M  V30 31139 H 2959.83 -2.85253 4.2023 0
M  V30 31140 H 2959.76 -4.25371 3.1043 0
M  V30 31141 H 2962.25 -2.79719 2.54098 0
M  V30 31142 H 2962.56 -5.28102 5.64205 0
M  V30 31143 H 2960.91 -4.75444 5.0693 0
M  V30 31144 H 2964.1 -3.40763 3.20933 0
M  V30 31145 H 2964.27 -4.54044 4.62329 0
M  V30 31146 N 2957.68 -0.960653 -1.24937 0
M  V30 31147 C 2958.92 -0.619614 -1.93103 0
M  V30 31148 C 2959.26 0.842089 -1.74993 0
M  V30 31149 O 2958.53 1.60496 -1.0987 0
M  V30 31150 C 2958.82 -0.986483 -3.46324 0
M  V30 31151 C 2958.67 -2.50436 -3.73633 0
M  V30 31152 C 2959.99 -0.515904 -4.37066 0
M  V30 31153 H 2957.11 -0.226578 -0.701307 0
M  V30 31154 H 2959.75 -1.19839 -1.4744 0
M  V30 31155 H 2957.9 -0.493975 -3.85347 0
M  V30 31156 H 2959.57 -3.07109 -3.44212 0
M  V30 31157 H 2957.81 -2.93943 -3.1903 0
M  V30 31158 H 2958.48 -2.71156 -4.8081 0
M  V30 31159 H 2960.96 -0.938461 -4.05379 0
M  V30 31160 H 2959.84 -0.801235 -5.43021 0
M  V30 31161 H 2960.1 0.584094 -4.38225 0
M  V30 31162 N 2959.16 1.39677 -0.729931 0
M  V30 31163 C 2960.1 2.32477 -0.0756998 0
M  V30 31164 C 2961.1 1.52796 0.731411 0
M  V30 31165 O 2962.3 1.68496 0.633166 0
M  V30 31166 H 2958.68 0.751979 -0.00567814 0
M  V30 31167 H 2960.65 2.85288 -0.874848 0
M  V30 31168 C 2959.4 3.37862 0.821253 0
M  V30 31169 H 2958.72 3.9925 0.209596 0
M  V30 31170 H 2960.16 4.05256 1.24672 0
M  V30 31171 C 2958.62 2.74499 1.95325 0
M  V30 31172 O 2959.15 2.61947 3.04543 0
M  V30 31173 N 2957.36 2.32663 1.74115 0
M  V30 31174 H 2956.9 2.43072 0.852865 0
M  V30 31175 H 2956.86 1.90608 2.50032 0
M  V30 31176 N 2960.63 0.47718 1.50202 0
M  V30 31177 C 2961.87 -0.0743706 2.04265 0
M  V30 31178 C 2962.24 -1.36441 1.35085 0
M  V30 31179 O 2963.44 -1.99871 1.79735 0
M  V30 31180 C 2961.71 -0.247811 3.5654 0
M  V30 31181 S 2963.27 -0.757041 4.3222 0
M  V30 31182 H 2960.09 -0.0130766 0.71088 0
M  V30 31183 H 2962.69 0.64571 1.84529 0
M  V30 31184 H 2961.39 0.69678 4.04442 0
M  V30 31185 H 2960.92 -0.993829 3.8064 0
M  V30 31186 H 2962.94 -2.02962 4.52792 0
M  V30 31187 N 2962.11 -1.56194 0.210027 0
M  V30 31188 C 2963.34 -2.02383 -0.429961 0
M  V30 31189 C 2963.76 -1.09001 -1.54157 0
M  V30 31190 O 2963.11 -0.0975176 -1.82239 0
M  V30 31191 C 2963.16 -3.48177 -0.972372 0
M  V30 31192 O 2962.88 -4.37997 0.0949001 0
M  V30 31193 C 2964.39 -4.09955 -1.68676 0
M  V30 31194 H 2961.61 -0.6625 -0.106463 0
M  V30 31195 H 2964.15 -2.01931 0.323107 0
M  V30 31196 H 2962.3 -3.49281 -1.67576 0
M  V30 31197 H 2962.72 -5.23577 -0.311038 0
M  V30 31198 H 2964.19 -5.13774 -2.01842 0
M  V30 31199 H 2964.67 -3.5428 -2.59581 0
M  V30 31200 H 2965.28 -4.12668 -1.02885 0
M  V30 31201 N 2963.59 0.0634645 -1.57472 0
M  V30 31202 C 2964.52 1.07469 -2.07298 0
M  V30 31203 C 2965.5 1.39858 -0.968186 0
M  V30 31204 O 2966.69 1.4934 -1.24141 0
M  V30 31205 C 2963.82 2.38577 -2.52385 0
M  V30 31206 C 2962.77 2.2052 -3.66817 0
M  V30 31207 C 2962.1 3.57085 -3.97988 0
M  V30 31208 C 2963.4 1.61956 -4.96556 0
M  V30 31209 H 2965.09 0.66004 -2.92034 0
M  V30 31210 H 2962.64 0.316049 -1.40489 0
M  V30 31211 H 2964.59 3.09619 -2.85857 0
M  V30 31212 H 2963.31 2.82037 -1.64689 0
M  V30 31213 H 2961.97 1.51918 -3.33641 0
M  V30 31214 H 2961.62 3.98131 -3.0741 0
M  V30 31215 H 2961.32 3.4584 -4.75046 0
M  V30 31216 H 2962.84 4.29544 -4.33963 0
M  V30 31217 H 2964.26 2.22873 -5.28205 0
M  V30 31218 H 2962.66 1.61384 -5.77992 0
M  V30 31219 H 2963.73 0.581834 -4.81397 0
M  V30 31220 N 2965.07 1.53998 0.33504 0
M  V30 31221 C 2966 1.85571 1.41724 0
M  V30 31222 C 2966.98 0.711528 1.54503 0
M  V30 31223 O 2968.16 0.964221 1.68572 0
M  V30 31224 C 2965.29 2.07287 2.78657 0
M  V30 31225 C 2964.25 3.23117 2.80677 0
M  V30 31226 C 2963.57 3.30182 4.20575 0
M  V30 31227 C 2964.87 4.61033 2.4545 0
M  V30 31228 H 2966.57 2.76204 1.1555 0
M  V30 31229 H 2964.11 1.32899 0.554421 0
M  V30 31230 H 2966.07 2.27959 3.54419 0
M  V30 31231 H 2964.79 1.13392 3.06284 0
M  V30 31232 H 2963.45 3.02314 2.07368 0
M  V30 31233 H 2963.1 2.33867 4.45326 0
M  V30 31234 H 2962.8 4.08024 4.22836 0
M  V30 31235 H 2964.32 3.53075 4.98167 0
M  V30 31236 H 2965.74 4.81662 3.10925 0
M  V30 31237 H 2964.13 5.4134 2.58981 0
M  V30 31238 H 2965.2 4.64063 1.4062 0
M  V30 31239 N 2966.55 -0.596505 1.45875 0
M  V30 31240 C 2967.96 -0.918436 1.30526 0
M  V30 31241 C 2968.16 -1.9973 0.266464 0
M  V30 31242 O 2967.22 -2.50258 -0.335765 0
M  V30 31243 C 2968.53 -1.34886 2.6875 0
M  V30 31244 C 2970.08 -1.46246 2.76733 0
M  V30 31245 C 2970.55 -1.9266 4.15507 0
M  V30 31246 N 2972.05 -1.99876 4.17856 0
M  V30 31247 C 2972.78 -2.37035 5.22113 0
M  V30 31248 N 2972.28 -2.73083 6.36708 0
M  V30 31249 N 2974.07 -2.3747 5.09475 0
M  V30 31250 H 2966.22 0.116406 2.12081 0
M  V30 31251 H 2968.48 -0.0105866 0.947941 0
M  V30 31252 H 2968.19 -0.630227 3.46007 0
M  V30 31253 H 2968.06 -2.31318 2.97946 0
M  V30 31254 H 2970.45 -2.17199 1.99772 0
M  V30 31255 H 2970.53 -0.48101 2.51237 0
M  V30 31256 H 2970.18 -1.22291 4.92958 0
M  V30 31257 H 2970.11 -2.91739 4.38401 0
M  V30 31258 H 2972.6 -1.74563 3.35166 0
M  V30 31259 H 2972.91 -3.0035 7.12046 0
M  V30 31260 H 2971.25 -2.70753 6.40092 0
M  V30 31261 H 2974.45 -2.08721 4.18991 0
M  V30 31262 H 2974.62 -2.66102 5.90842 0
M  V30 31263 N 2968.02 -1.3335 -0.839967 0
M  V30 31264 C 2968.96 -1.19347 -1.95675 0
M  V30 31265 C 2969.97 -0.124721 -1.62322 0
M  V30 31266 O 2971.16 -0.375042 -1.74516 0
M  V30 31267 C 2968.26 -0.807829 -3.29131 0
M  V30 31268 C 2967.43 -1.96799 -3.90626 0
M  V30 31269 C 2966.49 -1.5635 -5.02435 0
M  V30 31270 O 2965.52 -2.27768 -5.21642 0
M  V30 31271 N 2966.72 -0.467869 -5.78611 0
M  V30 31272 H 2969.48 -2.15551 -2.08225 0
M  V30 31273 H 2967.04 -1.26081 -1.01564 0
M  V30 31274 H 2969.04 -0.519352 -4.01354 0
M  V30 31275 H 2967.61 0.0635001 -3.12535 0
M  V30 31276 H 2966.83 -2.42215 -3.11007 0
M  V30 31277 H 2968.11 -2.7443 -4.28446 0
M  V30 31278 H 2967.51 0.126225 -5.65559 0
M  V30 31279 H 2966.07 -0.23906 -6.51361 0
M  V30 31280 N 2969.5 1.05808 -1.16801 0
M  V30 31281 C 2970.47 2.11574 -0.881433 0
M  V30 31282 C 2971.47 1.60308 0.125711 0
M  V30 31283 O 2972.66 1.73879 -0.105746 0
M  V30 31284 C 2969.79 3.39403 -0.319097 0
M  V30 31285 H 2970.98 2.38429 -1.81911 0
M  V30 31286 H 2968.53 1.21952 -0.977619 0
M  V30 31287 H 2969.27 3.182 0.626026 0
M  V30 31288 H 2969.05 3.77922 -1.04488 0
M  V30 31289 H 2970.54 4.17376 -0.136704 0
M  V30 31290 N 2970.98 0.967265 1.24426 0
M  V30 31291 C 2972.21 0.646511 1.9654 0
M  V30 31292 C 2972.62 -0.783966 1.71754 0
M  V30 31293 O 2971.98 -1.52595 1.00105 0
M  V30 31294 C 2972.03 0.91116 3.49829 0
M  V30 31295 O 2971.75 2.2854 3.73766 0
M  V30 31296 C 2973.25 0.604535 4.39159 0
M  V30 31297 H 2970.47 0.241266 0.626124 0
M  V30 31298 H 2973.02 1.29508 1.58265 0
M  V30 31299 H 2971.17 0.308808 3.86167 0
M  V30 31300 H 2971.59 2.36508 4.6815 0
M  V30 31301 H 2973.06 0.840165 5.45569 0
M  V30 31302 H 2973.54 -0.461197 4.36772 0
M  V30 31303 H 2974.14 1.18677 4.08406 0
M  V30 31304 N 2972.46 -1.39288 0.737328 0
M  V30 31305 C 2973.71 -2.0007 0.285727 0
M  V30 31306 C 2974.03 -1.58803 -1.13166 0
M  V30 31307 O 2973.3 -0.837339 -1.77103 0
M  V30 31308 H 2971.88 -0.739913 0.102651 0
M  V30 31309 H 2974.54 -1.70302 0.947805 0
M  V30 31310 H 2973.64 -3.10287 0.33596 0
M  V30 31311 N 2973.94 -0.485139 -1.49947 0
M  V30 31312 C 2975.16 0.0644695 -2.073 0
M  V30 31313 C 2975.59 1.31494 -1.34502 0
M  V30 31314 O 2974.95 1.76902 -0.396901 0
M  V30 31315 C 2974.99 0.31724 -3.59202 0
M  V30 31316 O 2974.1 1.39507 -3.88087 0
M  V30 31317 H 2973.44 -0.0191938 -0.663723 0
M  V30 31318 H 2975.97 -0.680212 -1.92962 0
M  V30 31319 H 2975.98 0.553533 -4.04228 0
M  V30 31320 H 2974.65 -0.59646 -4.11601 0
M  V30 31321 H 2973.23 1.14498 -3.54887 0
M  V30 31322 N 2975.42 1.56081 -0.218307 0
M  V30 31323 C 2976.69 1.90039 0.463109 0
M  V30 31324 C 2977.07 1.13518 1.7798 0
M  V30 31325 O 2976.42 0.24349 2.27199 0
M  V30 31326 C 2976.63 3.42717 0.659232 0
M  V30 31327 C 2977.98 4.13416 0.96813 0
M  V30 31328 O 2979 3.48298 0.746133 0
M  V30 31329 O 2977.86 5.28547 1.38927 0
M  V30 31330 H 2974.96 0.790055 0.244422 0
M  V30 31331 H 2977.5 1.67693 -0.26025 0
M  V30 31332 H 2976.27 3.9037 -0.269653 0
M  V30 31333 H 2975.9 3.70832 1.4342 0
M  V30 31334 N 2976.89 -0.0551124 1.57504 0
M  V30 31335 C 2978.12 -0.763546 1.92296 0
M  V30 31336 C 2978.54 -1.70265 0.815804 0
M  V30 31337 O 2977.89 -1.81291 -0.20974 0
M  V30 31338 C 2977.94 -1.54297 3.26917 0
M  V30 31339 O 2977.67 -0.64159 4.33377 0
M  V30 31340 C 2979.17 -2.3509 3.75829 0
M  V30 31341 H 2976.39 -0.216148 0.635233 0
M  V30 31342 H 2978.93 -0.0204025 2.0449 0
M  V30 31343 H 2977.09 -2.23823 3.162 0
M  V30 31344 H 2977.5 -1.18541 5.10929 0
M  V30 31345 H 2978.97 -2.85211 4.72608 0
M  V30 31346 H 2979.45 -3.15362 3.05686 0
M  V30 31347 H 2980.06 -1.70689 3.89545 0
M  V30 31348 N 2978.37 -1.54173 -0.326869 0
M  V30 31349 C 2979.6 -1.76496 -1.08921 0
M  V30 31350 C 2980.02 -0.510555 -1.81039 0
M  V30 31351 O 2979.38 0.537725 -1.73142 0
M  V30 31352 C 2979.43 -2.95581 -2.06553 0
M  V30 31353 O 2978.53 -2.66896 -3.14389 0
M  V30 31354 H 2977.87 -0.584954 -0.314205 0
M  V30 31355 H 2980.4 -2.01187 -0.372172 0
M  V30 31356 H 2980.41 -3.22836 -2.49481 0
M  V30 31357 H 2979.09 -3.86552 -1.53462 0
M  V30 31358 H 2977.66 -2.5058 -2.76159 0
M  V30 31359 N 2979.85 0.58876 -1.4619 0
M  V30 31360 C 2980.78 1.7086 -1.59151 0
M  V30 31361 C 2981.76 1.64254 -0.442112 0
M  V30 31362 O 2982.95 1.82364 -0.667608 0
M  V30 31363 C 2980.08 3.09495 -1.57576 0
M  V30 31364 C 2979.03 3.30928 -2.71424 0
M  V30 31365 C 2978.36 4.70028 -2.54908 0
M  V30 31366 C 2979.66 3.19349 -4.13296 0
M  V30 31367 H 2981.35 1.60269 -2.52892 0
M  V30 31368 H 2978.9 0.769617 -1.21708 0
M  V30 31369 H 2980.85 3.87652 -1.65238 0
M  V30 31370 H 2979.57 3.20971 -0.603761 0
M  V30 31371 H 2978.23 2.55167 -2.63221 0
M  V30 31372 H 2977.88 4.78261 -1.55805 0
M  V30 31373 H 2977.58 4.85321 -3.31266 0
M  V30 31374 H 2979.1 5.50361 -2.64452 0
M  V30 31375 H 2980.52 3.87358 -4.22643 0
M  V30 31376 H 2978.91 3.46166 -4.90193 0
M  V30 31377 H 2979.98 2.16514 -4.33877 0
M  V30 31378 N 2981.33 1.33794 0.832883 0
M  V30 31379 C 2982.6 1.16181 1.57357 0
M  V30 31380 C 2982.98 -0.269495 2.09373 0
M  V30 31381 O 2982.33 -1.26941 1.89995 0
M  V30 31382 C 2982.54 2.208 2.70275 0
M  V30 31383 C 2983.89 2.55265 3.39301 0
M  V30 31384 O 2984.91 2.19513 2.80522 0
M  V30 31385 O 2983.77 3.1664 4.45422 0
M  V30 31386 H 2980.87 0.449743 0.694017 0
M  V30 31387 H 2983.41 1.45395 0.875119 0
M  V30 31388 H 2982.19 3.16915 2.29522 0
M  V30 31389 H 2981.81 1.92706 3.47779 0
M  V30 31390 N 2982.81 -1.05187 1.1736 0
M  V30 31391 C 2983.77 -2.11103 0.892641 0
M  V30 31392 C 2984.77 -1.60372 -0.117208 0
M  V30 31393 O 2985.96 -1.7382 0.114966 0
M  V30 31394 C 2983.09 -3.39229 0.337092 0
M  V30 31395 H 2984.28 -2.37461 1.83173 0
M  V30 31396 H 2981.84 -1.21432 0.984073 0
M  V30 31397 H 2982.57 -3.18528 -0.609142 0
M  V30 31398 H 2982.36 -3.77362 1.0649 0
M  V30 31399 H 2983.85 -4.17298 0.158836 0
M  V30 31400 N 2984.28 -0.97385 -1.23911 0
M  V30 31401 C 2985.51 -0.656546 -1.96734 0
M  V30 31402 C 2985.93 0.768541 -1.71683 0
M  V30 31403 O 2985.29 1.52254 -0.984294 0
M  V30 31404 C 2985.34 -0.944796 -3.48003 0
M  V30 31405 O 2984.44 -0.0334082 -4.12386 0
M  V30 31406 H 2983.78 -0.247586 -0.616114 0
M  V30 31407 H 2986.31 -1.30567 -1.57523 0
M  V30 31408 H 2986.32 -0.87883 -3.98423 0
M  V30 31409 H 2985 -1.98334 -3.65563 0
M  V30 31410 H 2983.58 -0.153222 -3.72585 0
M  V30 31411 N 2985.76 1.38895 -0.744705 0
M  V30 31412 C 2987.17 1.83083 -0.365713 0
M  V30 31413 C 2987.52 1.62169 1.10433 0
M  V30 31414 O 2986.65 1.11807 1.85279 0
M  V30 31415 C 2987.24 3.32369 -0.657004 0
M  V30 31416 C 2985.8 3.74938 -0.331395 0
M  V30 31417 C 2984.95 2.61779 -0.914707 0
M  V30 31418 H 2987.9 1.2775 -0.941574 0
M  V30 31419 H 2987.92 3.80439 0.0678878 0
M  V30 31420 H 2987.43 3.47558 -1.72699 0
M  V30 31421 H 2985.53 3.65332 0.732362 0
M  V30 31422 H 2985.65 4.72018 -0.820738 0
M  V30 31423 H 2984.01 2.52411 -0.340675 0
M  V30 31424 H 2984.79 2.79772 -1.98954 0
M  V30 31425 N 2987.24 0.493084 1.49688 0
M  V30 31426 C 2988.47 -0.053475 2.07331 0
M  V30 31427 C 2988.89 -1.30779 1.35198 0
M  V30 31428 O 2988.25 -1.76689 0.406277 0
M  V30 31429 C 2988.3 -0.298187 3.59365 0
M  V30 31430 O 2987.4 -1.37447 3.88821 0
M  V30 31431 H 2986.74 0.0227134 0.663611 0
M  V30 31432 H 2989.27 0.690436 1.92598 0
M  V30 31433 H 2989.28 -0.532088 4.04516 0
M  V30 31434 H 2987.96 0.618279 4.11279 0
M  V30 31435 H 2986.53 -1.12615 3.55489 0
M  V30 31436 N 2988.72 -1.55963 0.226582 0
M  V30 31437 C 2989.94 -2.03277 -0.411491 0
M  V30 31438 C 2990.37 -1.10524 -1.52204 0
M  V30 31439 O 2989.73 -0.0943536 -1.81054 0
M  V30 31440 C 2989.77 -3.48782 -0.915632 0
M  V30 31441 O 2988.88 -3.59166 -2.02665 0
M  V30 31442 H 2988.22 -0.657528 -0.0924791 0
M  V30 31443 H 2990.75 -2.01641 0.346691 0
M  V30 31444 H 2990.76 -3.89203 -1.22415 0
M  V30 31445 H 2989.43 -4.15773 -0.102842 0
M  V30 31446 H 2988.01 -3.30635 -1.72439 0
M  V30 31447 N 2990.2 0.0467589 -1.57531 0
M  V30 31448 C 2991.42 0.757089 -1.93088 0
M  V30 31449 C 2991.85 1.69035 -0.825146 0
M  V30 31450 O 2991.2 1.79955 0.220417 0
M  V30 31451 C 2991.25 1.50544 -3.27672 0
M  V30 31452 O 2990.36 2.61767 -3.18672 0
M  V30 31453 H 2989.7 0.204881 -0.631601 0
M  V30 31454 H 2992.23 0.00751636 -2.04599 0
M  V30 31455 H 2992.24 1.87926 -3.62143 0
M  V30 31456 H 2990.91 0.820859 -4.07719 0
M  V30 31457 H 2989.49 2.27059 -2.95802 0
M  V30 31458 N 2991.67 1.54344 0.318688 0
M  V30 31459 C 2992.64 1.83344 1.37541 0
M  V30 31460 C 2993.64 0.705469 1.44498 0
M  V30 31461 O 2994.83 0.973778 1.44441 0
M  V30 31462 C 2991.96 1.99785 2.76222 0
M  V30 31463 H 2993.15 2.77764 1.1308 0
M  V30 31464 H 2990.71 1.46136 0.554431 0
M  V30 31465 H 2991.44 1.07593 3.05932 0
M  V30 31466 H 2991.23 2.8187 2.72565 0
M  V30 31467 H 2992.72 2.23653 3.5266 0
M  V30 31468 N 2993.15 -0.580999 1.465 0
M  V30 31469 C 2994.4 -1.3365 1.51598 0
M  V30 31470 C 2994.72 -1.94258 0.169893 0
M  V30 31471 O 2993.99 -1.78653 -0.803745 0
M  V30 31472 H 2992.57 -0.496234 0.558355 0
M  V30 31473 H 2995.23 -0.680306 1.82641 0
M  V30 31474 H 2994.33 -2.14233 2.26959 0
M  V30 31475 N 2994.63 -1.34234 -0.825776 0
M  V30 31476 C 2995.86 -1.29651 -1.61881 0
M  V30 31477 C 2996.28 0.127262 -1.87669 0
M  V30 31478 O 2995.64 1.0881 -1.45017 0
M  V30 31479 C 2995.69 -2.0902 -2.93842 0
M  V30 31480 O 2994.79 -1.45776 -3.85776 0
M  V30 31481 H 2994.13 -0.445413 -0.492446 0
M  V30 31482 H 2996.66 -1.76993 -1.02638 0
M  V30 31483 H 2996.67 -2.2027 -3.43431 0
M  V30 31484 H 2995.35 -3.12538 -2.74396 0
M  V30 31485 H 2993.92 -1.43251 -3.44287 0
M  V30 31486 N 2996.11 1.04563 -1.17917 0
M  V30 31487 C 2997.04 2.14394 -0.92507 0
M  V30 31488 C 2998.02 1.69561 0.135345 0
M  V30 31489 O 2999.2 1.94193 -0.0162115 0
M  V30 31490 C 2996.33 3.44443 -0.44453 0
M  V30 31491 C 2995.29 4.02875 -1.44486 0
M  V30 31492 C 2994.61 5.28343 -0.822025 0
M  V30 31493 C 2995.91 4.39627 -2.82003 0
M  V30 31494 H 2997.61 2.35908 -1.84358 0
M  V30 31495 H 2995.15 1.13374 -0.887826 0
M  V30 31496 H 2997.11 4.20633 -0.254152 0
M  V30 31497 H 2995.83 3.22601 0.509536 0
M  V30 31498 H 2994.49 3.28761 -1.62208 0
M  V30 31499 H 2994.14 5.02808 0.139072 0
M  V30 31500 H 2993.84 5.68399 -1.48986 0
M  V30 31501 H 2995.36 6.07215 -0.642065 0
M  V30 31502 H 2996.78 5.06823 -2.67961 0
M  V30 31503 H 2995.17 4.90717 -3.45423 0
M  V30 31504 H 2996.24 3.49681 -3.35933 0
M  V30 31505 N 2997.59 0.980408 1.23393 0
M  V30 31506 C 2998.52 0.478696 2.24145 0
M  V30 31507 C 2999.53 -0.419464 1.57303 0
M  V30 31508 O 3000.72 -0.223599 1.77094 0
M  V30 31509 C 2997.82 -0.326854 3.3732 0
M  V30 31510 C 2996.99 0.564436 4.33743 0
M  V30 31511 C 2996.05 -0.187265 5.25867 0
M  V30 31512 O 2995.08 0.423118 5.67625 0
M  V30 31513 N 2996.28 -1.47325 5.61494 0
M  V30 31514 H 2999.05 1.34501 2.67824 0
M  V30 31515 H 2996.61 0.853677 1.37564 0
M  V30 31516 H 2998.6 -0.838078 3.95927 0
M  V30 31517 H 2997.17 -1.09417 2.92825 0
M  V30 31518 H 2996.39 1.25649 3.73639 0
M  V30 31519 H 2997.68 1.17186 4.95121 0
M  V30 31520 H 2997.07 -1.99067 5.29517 0
M  V30 31521 H 2995.63 -1.92991 6.22573 0
M  V30 31522 N 2999.06 -1.38498 0.75206 0
M  V30 31523 C 3000.29 -2.04437 0.31831 0
M  V30 31524 C 3000.71 -1.5672 -1.05282 0
M  V30 31525 O 3000.06 -0.739589 -1.66842 0
M  V30 31526 C 3000.12 -3.59989 0.330169 0
M  V30 31527 O 2999.84 -4.05955 1.64719 0
M  V30 31528 C 3001.34 -4.43144 -0.117635 0
M  V30 31529 H 2998.56 -0.657024 0.136239 0
M  V30 31530 H 3001.1 -1.77218 1.02048 0
M  V30 31531 H 2999.26 -3.86049 -0.323255 0
M  V30 31532 H 2999.67 -5.00378 1.57234 0
M  V30 31533 H 3001.14 -5.51969 -0.0581764 0
M  V30 31534 H 3001.62 -4.23459 -1.1653 0
M  V30 31535 H 3002.23 -4.22269 0.506858 0
M  V30 31536 N 3000.54 -0.501015 -1.49424 0
M  V30 31537 C 3001.77 0.0403079 -2.06861 0
M  V30 31538 C 3002.19 1.30817 -1.36134 0
M  V30 31539 O 3001.54 1.77124 -0.439678 0
M  V30 31540 C 3001.59 0.297838 -3.60271 0
M  V30 31541 O 3001.31 -0.919761 -4.28336 0
M  V30 31542 C 3002.82 0.8828 -4.34421 0
M  V30 31543 H 3000.04 -0.0204737 -0.670688 0
M  V30 31544 H 3002.58 -0.698376 -1.92206 0
M  V30 31545 H 3000.73 0.986504 -3.74629 0
M  V30 31546 H 3001.15 -0.682619 -5.20039 0
M  V30 31547 H 3002.62 1.01258 -5.42633 0
M  V30 31548 H 3003.1 1.88059 -3.96901 0
M  V30 31549 H 3003.71 0.231602 -4.24669 0
M  V30 31550 N 3002.02 1.5584 -0.234849 0
M  V30 31551 C 3002.95 2.23855 0.664177 0
M  V30 31552 C 3003.93 1.21472 1.19074 0
M  V30 31553 O 3005.12 1.50094 1.2323 0
M  V30 31554 C 3002.25 2.92874 1.86661 0
M  V30 31555 C 3001.2 4.01842 1.47334 0
M  V30 31556 C 3000.53 4.58224 2.75563 0
M  V30 31557 C 3001.83 5.18197 0.653388 0
M  V30 31558 H 3003.52 2.99243 0.0970687 0
M  V30 31559 H 3001.07 1.43929 0.0452471 0
M  V30 31560 H 3003.02 3.39151 2.5011 0
M  V30 31561 H 3001.74 2.14954 2.45891 0
M  V30 31562 H 3000.4 3.56316 0.862252 0
M  V30 31563 H 3000.05 3.7702 3.32964 0
M  V30 31564 H 2999.75 5.31775 2.49977 0
M  V30 31565 H 3001.28 5.07227 3.39931 0
M  V30 31566 H 3002.69 5.60774 1.19189 0
M  V30 31567 H 3001.09 5.98063 0.494083 0
M  V30 31568 H 3002.16 4.83727 -0.337089 0
M  V30 31569 N 3003.5 -0.038404 1.57553 0
M  V30 31570 C 3004.41 -1.05906 2.09335 0
M  V30 31571 C 3005.43 -1.40245 1.02992 0
M  V30 31572 O 3006.6 -1.49752 1.34671 0
M  V30 31573 C 3003.67 -2.34382 2.55472 0
M  V30 31574 C 3002.73 -2.0671 3.76257 0
M  V30 31575 C 3001.96 -3.2906 4.20185 0
M  V30 31576 O 3002.18 -4.39401 3.63708 0
M  V30 31577 O 3001.12 -3.15308 5.12703 0
M  V30 31578 H 3004.94 -0.649035 2.96684 0
M  V30 31579 H 3002.53 -0.254776 1.47212 0
M  V30 31580 H 3004.41 -3.0993 2.85519 0
M  V30 31581 H 3003.09 -2.74698 1.71238 0
M  V30 31582 H 3001.99 -1.2876 3.51243 0
M  V30 31583 H 3003.33 -1.71255 4.61446 0
M  V30 31584 N 3004.98 -1.54511 -0.310498 0
M  V30 31585 C 3006.25 -1.64006 -1.0659 0
M  V30 31586 C 3006.63 -0.482252 -2.05518 0
M  V30 31587 O 3005.98 0.522081 -2.22456 0
M  V30 31588 C 3006.19 -3.01592 -1.75622 0
M  V30 31589 C 3007.54 -3.58085 -2.28167 0
M  V30 31590 O 3008.56 -3.03983 -1.85669 0
M  V30 31591 O 3007.42 -4.52793 -3.06008 0
M  V30 31592 H 3004.52 -0.664657 -0.492097 0
M  V30 31593 H 3007.06 -1.66857 -0.309345 0
M  V30 31594 H 3005.84 -3.77299 -1.03736 0
M  V30 31595 H 3005.46 -3.02478 -2.58056 0
M  V30 31596 N 3006.46 0.573222 -1.46806 0
M  V30 31597 C 3007.68 1.36172 -1.56435 0
M  V30 31598 C 3008.11 1.86931 -0.209369 0
M  V30 31599 O 3007.46 1.62094 0.812118 0
M  V30 31600 C 3007.51 2.51868 -2.58059 0
M  V30 31601 O 3006.62 3.53605 -2.1222 0
M  V30 31602 H 3005.96 0.405144 -0.526075 0
M  V30 31603 H 3008.49 0.694372 -1.92457 0
M  V30 31604 H 3008.5 2.98657 -2.77971 0
M  V30 31605 H 3007.17 2.14278 -3.56452 0
M  V30 31606 H 3005.75 3.13231 -2.02338 0
M  V30 31607 N 3007.93 1.3467 0.818645 0
M  V30 31608 C 3008.86 1.29249 1.94466 0
M  V30 31609 C 3009.84 0.169131 1.69257 0
M  V30 31610 O 3011.03 0.362176 1.90793 0
M  V30 31611 C 3008.16 1.05151 3.30999 0
M  V30 31612 C 3007.11 2.13999 3.7066 0
M  V30 31613 C 3006.44 1.75083 5.05223 0
M  V30 31614 C 3007.74 3.55865 3.82305 0
M  V30 31615 H 3009.43 2.23464 1.99259 0
M  V30 31616 H 3006.98 1.07573 0.957286 0
M  V30 31617 H 3008.93 1.00002 4.09362 0
M  V30 31618 H 3007.66 0.0737886 3.26517 0
M  V30 31619 H 3006.32 2.18224 2.94574 0
M  V30 31620 H 3005.96 0.759605 4.97231 0
M  V30 31621 H 3005.66 2.47938 5.32729 0
M  V30 31622 H 3007.19 1.71437 5.86039 0
M  V30 31623 H 3008.6 3.54028 4.50929 0
M  V30 31624 H 3007 4.27378 4.2127 0
M  V30 31625 H 3008.07 3.92895 2.84186 0
M  V30 31626 N 3009.41 -1.03936 1.1847 0
M  V30 31627 C 3010.64 -1.80808 1.00579 0
M  V30 31628 C 3011.05 -1.83462 -0.445754 0
M  V30 31629 O 3010.41 -1.27103 -1.30962 0
M  V30 31630 C 3010.46 -3.26348 1.55497 0
M  V30 31631 O 3010.18 -3.23921 2.94969 0
M  V30 31632 C 3011.68 -4.19859 1.42243 0
M  V30 31633 H 3008.9 -0.569344 0.35509 0
M  V30 31634 H 3011.45 -1.30982 1.57048 0
M  V30 31635 H 3009.6 -3.73401 1.03202 0
M  V30 31636 H 3010.02 -4.15105 3.20606 0
M  V30 31637 H 3011.49 -5.19911 1.85464 0
M  V30 31638 H 3011.97 -4.37627 0.371344 0
M  V30 31639 H 3012.57 -3.78672 1.93617 0
M  V30 31640 N 3010.89 -0.986938 -1.22871 0
M  V30 31641 C 3011.82 -0.552104 -2.26879 0
M  V30 31642 C 3012.8 0.418019 -1.64884 0
M  V30 31643 O 3013.99 0.309957 -1.9171 0
M  V30 31644 C 3011.12 0.139898 -3.47018 0
M  V30 31645 C 3010.07 -0.748165 -4.2141 0
M  V30 31646 C 3009.4 0.0764192 -5.34645 0
M  V30 31647 C 3010.7 -2.04214 -4.80722 0
M  V30 31648 H 3012.39 -1.42147 -2.63504 0
M  V30 31649 H 3009.94 -0.684942 -1.26667 0
M  V30 31650 H 3011.89 0.455453 -4.18931 0
M  V30 31651 H 3010.61 1.04377 -3.09472 0
M  V30 31652 H 3009.27 -1.04727 -3.51323 0
M  V30 31653 H 3008.92 0.981023 -4.93341 0
M  V30 31654 H 3008.62 -0.514709 -5.85341 0
M  V30 31655 H 3010.14 0.386206 -6.09377 0
M  V30 31656 H 3011.56 -1.79093 -5.44609 0
M  V30 31657 H 3009.95 -2.58159 -5.41732 0
M  V30 31658 H 3011.02 -2.72476 -4.01105 0
M  V30 31659 N 3012.37 1.38098 -0.759394 0
M  V30 31660 C 3013.59 2.04792 -0.327895 0
M  V30 31661 C 3014.02 1.56901 1.03749 0
M  V30 31662 O 3013.38 0.72361 1.66233 0
M  V30 31663 C 3013.42 3.58734 -0.366327 0
M  V30 31664 O 3012.53 4.07441 0.637626 0
M  V30 31665 H 3011.87 0.648175 -0.144103 0
M  V30 31666 H 3014.4 1.76658 -1.03214 0
M  V30 31667 H 3014.41 4.0741 -0.219251 0
M  V30 31668 H 3013.08 3.92949 -1.36249 0
M  V30 31669 H 3011.66 3.70118 0.454684 0
M  V30 31670 N 3013.85 0.508932 1.49156 0
M  V30 31671 C 3015.12 -0.0961569 1.95364 0
M  V30 31672 C 3015.5 -1.53359 1.45066 0
M  V30 31673 O 3014.85 -2.18522 0.667874 0
M  V30 31674 C 3015.06 -0.000627536 3.49 0
M  V30 31675 C 3016.41 -0.170558 4.24257 0
M  V30 31676 O 3017.43 -0.0754368 3.5612 0
M  V30 31677 O 3016.29 -0.366862 5.45267 0
M  V30 31678 H 3013.39 -0.0909345 0.821985 0
M  V30 31679 H 3015.93 0.572035 1.59768 0
M  V30 31680 H 3014.7 1.00149 3.78267 0
M  V30 31681 H 3014.33 -0.708613 3.91235 0
M  V30 31682 N 3015.32 -1.55714 0.243111 0
M  V30 31683 C 3016.55 -2.03702 -0.389908 0
M  V30 31684 C 3016.97 -1.12132 -1.51023 0
M  V30 31685 O 3016.33 -0.113551 -1.80944 0
M  V30 31686 C 3016.38 -3.49733 -0.878588 0
M  V30 31687 O 3015.48 -3.61296 -1.98845 0
M  V30 31688 H 3014.82 -0.658472 -0.0854999 0
M  V30 31689 H 3017.35 -2.01262 0.368059 0
M  V30 31690 H 3017.36 -3.90479 -1.1828 0
M  V30 31691 H 3016.04 -4.15859 -0.0587376 0
M  V30 31692 H 3014.62 -3.32445 -1.68922 0
M  V30 31693 N 3016.8 0.030048 -1.57571 0
M  V30 31694 C 3018.21 0.576771 -1.77568 0
M  V30 31695 C 3018.56 1.75655 -0.874065 0
M  V30 31696 O 3017.69 2.16291 -0.0686504 0
M  V30 31697 C 3018.28 1.0531 -3.22018 0
M  V30 31698 C 3016.84 1.54534 -3.43214 0
M  V30 31699 C 3015.99 0.482985 -2.73061 0
M  V30 31700 H 3018.94 -0.196178 -1.57483 0
M  V30 31701 H 3018.96 1.92049 -3.28477 0
M  V30 31702 H 3018.47 0.194229 -3.87614 0
M  V30 31703 H 3016.58 2.4261 -2.82792 0
M  V30 31704 H 3016.69 1.59352 -4.51823 0
M  V30 31705 H 3015.05 0.937793 -2.36807 0
M  V30 31706 H 3015.84 -0.366401 -3.41339 0
M  V30 31707 N 3018.28 1.54674 0.3023 0
M  V30 31708 C 3019.7 1.45858 0.647886 0
M  V30 31709 C 3019.9 0.648724 1.90772 0
M  V30 31710 O 3018.95 0.155909 2.52018 0
M  V30 31711 C 3020.27 2.89805 0.802093 0
M  V30 31712 C 3021.81 2.9984 0.898062 0
M  V30 31713 C 3022.29 4.4498 1.08428 0
M  V30 31714 N 3023.78 4.48684 1.15051 0
M  V30 31715 C 3024.51 5.58168 1.31287 0
M  V30 31716 N 3024.01 6.77578 1.44428 0
M  V30 31717 N 3025.8 5.45854 1.34164 0
M  V30 31718 H 3017.95 2.05798 -0.525464 0
M  V30 31719 H 3020.22 0.931999 -0.173439 0
M  V30 31720 H 3019.92 3.5166 -0.0527149 0
M  V30 31721 H 3019.8 3.37148 1.69149 0
M  V30 31722 H 3022.18 2.38099 1.74336 0
M  V30 31723 H 3022.27 2.55795 -0.0153202 0
M  V30 31724 H 3021.91 5.07315 0.243753 0
M  V30 31725 H 3021.84 4.86654 2.01186 0
M  V30 31726 H 3024.33 3.62655 1.06253 0
M  V30 31727 H 3024.64 7.56774 1.56568 0
M  V30 31728 H 3022.99 6.80446 1.41487 0
M  V30 31729 H 3026.18 4.51512 1.23508 0
M  V30 31730 H 3026.35 6.31228 1.46474 0
M  V30 31731 N 3019.76 -0.565428 1.47108 0
M  V30 31732 C 3021.17 -0.890543 1.32444 0
M  V30 31733 C 3021.37 -1.9912 0.30877 0
M  V30 31734 O 3020.43 -2.50914 -0.282606 0
M  V30 31735 C 3021.74 -1.29155 2.7155 0
M  V30 31736 C 3023.29 -1.40344 2.79773 0
M  V30 31737 C 3023.77 -1.83803 4.195 0
M  V30 31738 N 3025.26 -1.90968 4.22002 0
M  V30 31739 C 3025.99 -2.25906 5.27024 0
M  V30 31740 N 3025.49 -2.59516 6.42358 0
M  V30 31741 N 3027.28 -2.2661 5.14397 0
M  V30 31742 H 3019.43 0.161365 2.11786 0
M  V30 31743 H 3021.7 0.00952297 0.947952 0
M  V30 31744 H 3021.4 -0.556692 3.47266 0
M  V30 31745 H 3021.28 -2.24946 3.02786 0
M  V30 31746 H 3023.66 -2.12912 2.04334 0
M  V30 31747 H 3023.74 -0.427611 2.52201 0
M  V30 31748 H 3023.39 -1.11807 4.95441 0
M  V30 31749 H 3023.32 -2.82374 4.44491 0
M  V30 31750 H 3025.81 -1.67414 3.38793 0
M  V30 31751 H 3026.12 -2.85179 7.18257 0
M  V30 31752 H 3024.47 -2.57115 6.45691 0
M  V30 31753 H 3027.66 -1.99786 4.23324 0
M  V30 31754 H 3027.83 -2.53509 5.96353 0
M  V30 31755 N 3021.24 -1.35102 -0.811492 0
M  V30 31756 C 3022.2 -1.27499 -1.90465 0
M  V30 31757 C 3023.2 -0.187544 -1.59703 0
M  V30 31758 O 3024.39 -0.440925 -1.68527 0
M  V30 31759 C 3021.52 -0.971211 -3.26773 0
M  V30 31760 H 3022.71 -2.24694 -1.98627 0
M  V30 31761 H 3020.27 -1.19555 -1.00679 0
M  V30 31762 H 3021 -0.0029127 -3.243 0
M  V30 31763 H 3020.79 -1.75791 -3.50485 0
M  V30 31764 H 3022.28 -0.943486 -4.06802 0
M  V30 31765 N 3022.71 1.03306 -1.19019 0
M  V30 31766 C 3023.64 2.13401 -0.947757 0
M  V30 31767 C 3024.63 1.69695 0.117353 0
M  V30 31768 O 3025.81 1.94165 -0.0368074 0
M  V30 31769 C 3022.94 3.43952 -0.481037 0
M  V30 31770 C 3021.89 4.01319 -1.4875 0
M  V30 31771 C 3021.22 5.27442 -0.878017 0
M  V30 31772 C 3022.52 4.36611 -2.8665 0
M  V30 31773 H 3024.21 2.33939 -1.8685 0
M  V30 31774 H 3021.76 1.12426 -0.899801 0
M  V30 31775 H 3023.71 4.2034 -0.298751 0
M  V30 31776 H 3022.44 3.23123 0.475291 0
M  V30 31777 H 3021.1 3.27022 -1.65686 0
M  V30 31778 H 3020.74 5.02927 0.0857348 0
M  V30 31779 H 3020.44 5.66786 -1.55006 0
M  V30 31780 H 3021.97 6.065 -0.706433 0
M  V30 31781 H 3023.38 5.03953 -2.73321 0
M  V30 31782 H 3021.78 4.87026 -3.50608 0
M  V30 31783 H 3022.85 3.46099 -3.39623 0
M  V30 31784 N 3024.19 0.99344 1.22346 0
M  V30 31785 C 3025.44 0.668279 1.90731 0
M  V30 31786 C 3025.76 -0.802229 1.77734 0
M  V30 31787 O 3025.03 -1.57503 1.16488 0
M  V30 31788 H 3023.61 0.244187 0.705962 0
M  V30 31789 H 3026.27 1.26006 1.48689 0
M  V30 31790 H 3025.37 0.931291 2.97881 0
M  V30 31791 N 3025.67 -1.37693 0.766707 0
M  V30 31792 C 3027.08 -1.82478 0.394793 0
M  V30 31793 C 3027.43 -1.63906 -1.07839 0
M  V30 31794 O 3026.56 -1.1474 -1.83477 0
M  V30 31795 C 3027.15 -3.31281 0.709798 0
M  V30 31796 C 3025.71 -3.74364 0.391002 0
M  V30 31797 C 3024.86 -2.60291 0.956238 0
M  V30 31798 H 3027.81 -1.26236 0.961778 0
M  V30 31799 H 3027.83 -3.80499 -0.00735456 0
M  V30 31800 H 3027.34 -3.44767 1.78206 0
M  V30 31801 H 3025.44 -3.66451 -0.674148 0
M  V30 31802 H 3025.56 -4.70652 0.895728 0
M  V30 31803 H 3023.92 -2.51837 0.380788 0
M  V30 31804 H 3024.7 -2.76571 2.0338 0
M  V30 31805 N 3027.15 -0.516835 -1.48884 0
M  V30 31806 C 3028.56 -0.0730249 -1.86557 0
M  V30 31807 C 3028.91 1.34579 -1.42769 0
M  V30 31808 O 3028.04 2.00566 -0.812549 0
M  V30 31809 C 3028.63 -0.125745 -3.38567 0
M  V30 31810 C 3027.19 0.262801 -3.75481 0
M  V30 31811 C 3026.34 -0.491329 -2.72913 0
M  V30 31812 H 3029.29 -0.728791 -1.40976 0
M  V30 31813 H 3029.31 0.665766 -3.7463 0
M  V30 31814 H 3028.82 -1.15849 -3.70406 0
M  V30 31815 H 3026.92 1.29818 -3.49253 0
M  V30 31816 H 3027.03 -0.0676632 -4.79052 0
M  V30 31817 H 3025.4 0.0608078 -2.54627 0
M  V30 31818 H 3026.18 -1.52445 -3.07596 0
M  V30 31819 N 3028.63 1.55583 -0.251365 0
M  V30 31820 C 3029.59 2.20285 0.633011 0
M  V30 31821 C 3030.59 1.17346 1.09939 0
M  V30 31822 O 3031.78 1.424 1.00338 0
M  V30 31823 C 3028.91 2.84997 1.87055 0
M  V30 31824 H 3030.1 2.99822 0.0684319 0
M  V30 31825 H 3027.66 1.563 -0.001844 0
M  V30 31826 H 3028.39 2.0941 2.47625 0
M  V30 31827 H 3028.18 3.60408 1.5443 0
M  V30 31828 H 3029.67 3.34501 2.49998 0
M  V30 31829 N 3030.1 -0.0216912 1.57585 0
M  V30 31830 C 3031.52 -0.567346 1.77871 0
M  V30 31831 C 3031.87 -1.75189 0.883368 0
M  V30 31832 O 3030.99 -2.16252 0.0801199 0
M  V30 31833 C 3031.59 -1.036 3.22572 0
M  V30 31834 C 3030.15 -1.52712 3.44029 0
M  V30 31835 C 3029.29 -0.468497 2.73314 0
M  V30 31836 H 3032.24 0.204527 1.57377 0
M  V30 31837 H 3032.26 -1.90304 3.29491 0
M  V30 31838 H 3031.78 -0.173671 3.87711 0
M  V30 31839 H 3029.88 -2.41106 2.84075 0
M  V30 31840 H 3029.99 -1.56954 4.52661 0
M  V30 31841 H 3028.35 -0.925222 2.37301 0
M  V30 31842 H 3029.14 0.384498 3.4114 0
M  V30 31843 N 3031.58 -1.54832 -0.294093 0
M  V30 31844 C 3032.55 -1.85509 -1.34607 0
M  V30 31845 C 3033.55 -0.728368 -1.43358 0
M  V30 31846 O 3034.74 -0.996634 -1.42874 0
M  V30 31847 C 3031.87 -2.04155 -2.73009 0
M  V30 31848 H 3033.06 -2.79528 -1.08646 0
M  V30 31849 H 3030.61 -1.47 -0.531112 0
M  V30 31850 H 3031.35 -1.12446 -3.04181 0
M  V30 31851 H 3031.13 -2.86171 -2.68046 0
M  V30 31852 H 3032.62 -2.29235 -3.49057 0
M  V30 31853 N 3033.06 0.557619 -1.47405 0
M  V30 31854 C 3034.47 1.13974 -1.47874 0
M  V30 31855 C 3034.82 1.94809 -0.23321 0
M  V30 31856 O 3033.95 2.06028 0.661908 0
M  V30 31857 C 3034.54 2.07363 -2.67929 0
M  V30 31858 C 3033.1 2.60848 -2.71359 0
M  V30 31859 C 3032.25 1.37219 -2.40969 0
M  V30 31860 H 3035.2 0.344241 -1.54921 0
M  V30 31861 H 3035.22 2.91232 -2.44876 0
M  V30 31862 H 3034.73 1.48502 -3.58565 0
M  V30 31863 H 3032.83 3.23508 -1.84861 0
M  V30 31864 H 3032.95 3.01869 -3.72037 0
M  V30 31865 H 3031.31 1.67878 -1.91543 0
M  V30 31866 H 3032.09 0.801524 -3.33812 0
M  V30 31867 N 3034.54 1.35531 0.804316 0
M  V30 31868 C 3035.79 1.28676 1.55843 0
M  V30 31869 C 3036.11 -0.137942 1.94511 0
M  V30 31870 O 3035.38 -1.07489 1.63777 0
M  V30 31871 H 3033.96 0.473301 0.577923 0
M  V30 31872 H 3036.62 1.69659 0.959263 0
M  V30 31873 H 3035.72 1.90416 2.47282 0
M  V30 31874 N 3036.02 -1.02674 1.19565 0
M  V30 31875 C 3037.43 -1.57559 1.0016 0
M  V30 31876 C 3037.78 -1.91089 -0.444889 0
M  V30 31877 O 3036.9 -1.71121 -1.32463 0
M  V30 31878 C 3037.5 -2.86281 1.81186 0
M  V30 31879 C 3036.06 -3.37731 1.66177 0
M  V30 31880 C 3035.21 -2.11149 1.79754 0
M  V30 31881 H 3038.16 -0.851766 1.33905 0
M  V30 31882 H 3038.18 -3.57267 1.30922 0
M  V30 31883 H 3037.69 -2.61845 2.86459 0
M  V30 31884 H 3035.79 -3.67149 0.634992 0
M  V30 31885 H 3035.9 -4.10618 2.46839 0
M  V30 31886 H 3034.27 -2.23121 1.22837 0
M  V30 31887 H 3035.05 -1.89152 2.8649 0
M  V30 31888 N 3037.5 -0.999914 -1.21817 0
M  V30 31889 C 3038.91 -0.711849 -1.42846 0
M  V30 31890 C 3039.11 0.714895 -1.88392 0
M  V30 31891 O 3038.17 1.48491 -2.04222 0
M  V30 31892 C 3039.48 -1.72339 -2.46414 0
M  V30 31893 C 3041.03 -1.73963 -2.60204 0
M  V30 31894 C 3041.5 -2.73998 -3.67 0
M  V30 31895 N 3042.99 -2.72635 -3.74465 0
M  V30 31896 C 3043.73 -3.46701 -4.56712 0
M  V30 31897 N 3043.23 -4.3039 -5.42897 0
M  V30 31898 N 3045.02 -3.35374 -4.51088 0
M  V30 31899 H 3037.17 -1.92126 -0.905622 0
M  V30 31900 H 3039.43 -0.828985 -0.459879 0
M  V30 31901 H 3039.14 -2.74469 -2.19909 0
M  V30 31902 H 3039.01 -1.52192 -3.45134 0
M  V30 31903 H 3041.4 -0.725268 -2.86049 0
M  V30 31904 H 3041.48 -1.9818 -1.61735 0
M  V30 31905 H 3041.12 -3.75588 -3.41901 0
M  V30 31906 H 3041.05 -2.47048 -4.65054 0
M  V30 31907 H 3043.55 -2.11915 -3.12891 0
M  V30 31908 H 3043.86 -4.83713 -6.02695 0
M  V30 31909 H 3042.2 -4.34474 -5.42455 0
M  V30 31910 H 3045.39 -2.69429 -3.82786 0
M  V30 31911 H 3045.57 -3.93353 -5.14953 0
M  V30 31912 N 3038.97 1.37284 -0.773999 0
M  V30 31913 C 3039.94 2.28583 -0.168014 0
M  V30 31914 C 3040.94 1.4813 0.625636 0
M  V30 31915 O 3042.13 1.68317 0.448894 0
M  V30 31916 C 3039.26 3.32106 0.769305 0
M  V30 31917 H 3040.45 2.83682 -0.972856 0
M  V30 31918 H 3038 1.46588 -0.542361 0
M  V30 31919 H 3038.74 2.82135 1.59907 0
M  V30 31920 H 3038.52 3.91578 0.20235 0
M  V30 31921 H 3040.01 4.00326 1.18865 0
M  V30 31922 N 3040.45 0.524724 1.48608 0
M  V30 31923 C 3041.7 -0.0112635 2.02097 0
M  V30 31924 C 3042.02 -1.35266 1.40457 0
M  V30 31925 O 3041.29 -1.87482 0.568103 0
M  V30 31926 H 3039.87 -0.00715113 0.746966 0
M  V30 31927 H 3042.53 0.687361 1.82377 0
M  V30 31928 H 3041.63 -0.123476 3.11856 0
M  V30 31929 N 3041.93 -1.55447 0.259613 0
M  V30 31930 C 3042.86 -2.24883 -0.62848 0
M  V30 31931 C 3043.84 -1.23351 -1.17126 0
M  V30 31932 O 3045.03 -1.52035 -1.20826 0
M  V30 31933 C 3042.16 -2.95806 -1.81978 0
M  V30 31934 C 3041.11 -4.04135 -1.40922 0
M  V30 31935 C 3040.44 -4.6255 -2.68238 0
M  V30 31936 C 3041.74 -5.19171 -0.570864 0
M  V30 31937 H 3043.43 -2.99359 -0.0494495 0
M  V30 31938 H 3040.98 -1.43983 -0.0223435 0
M  V30 31939 H 3042.93 -3.43087 -2.44683 0
M  V30 31940 H 3041.65 -2.18839 -2.4244 0
M  V30 31941 H 3040.31 -3.57642 -0.805456 0
M  V30 31942 H 3039.96 -3.82269 -3.26924 0
M  V30 31943 H 3039.66 -5.35685 -2.41486 0
M  V30 31944 H 3041.18 -5.12571 -3.31818 0
M  V30 31945 H 3042.6 -5.62599 -1.10252 0
M  V30 31946 H 3040.99 -5.98773 -0.398874 0
M  V30 31947 H 3042.06 -4.83129 0.414003 0
M  V30 31948 N 3043.41 0.0133338 -1.57594 0
M  V30 31949 C 3044.63 0.715962 -1.9465 0
M  V30 31950 C 3045.06 1.67247 -0.860815 0
M  V30 31951 O 3044.42 1.80382 0.182196 0
M  V30 31952 C 3044.46 1.4356 -3.30791 0
M  V30 31953 O 3043.57 2.54949 -3.24152 0
M  V30 31954 H 3042.91 0.191437 -0.635805 0
M  V30 31955 H 3045.44 -0.0358837 -2.04569 0
M  V30 31956 H 3045.45 1.80202 -3.66048 0
M  V30 31957 H 3044.12 0.734191 -4.09368 0
M  V30 31958 H 3042.7 2.20733 -3.00551 0
M  V30 31959 N 3044.89 1.54985 0.285878 0
M  V30 31960 C 3046.3 1.65825 0.85784 0
M  V30 31961 C 3046.65 0.576796 1.8753 0
M  V30 31962 O 3045.77 -0.283978 2.14529 0
M  V30 31963 C 3046.37 3.00607 1.56272 0
M  V30 31964 C 3044.93 3.13517 2.08288 0
M  V30 31965 C 3044.07 2.61573 0.920587 0
M  V30 31966 H 3047.02 1.58577 0.0625184 0
M  V30 31967 H 3047.05 2.92876 2.42907 0
M  V30 31968 H 3046.56 3.79296 0.82195 0
M  V30 31969 H 3044.66 2.39577 2.85366 0
M  V30 31970 H 3044.77 4.19896 2.30703 0
M  V30 31971 H 3043.14 2.18405 1.31039 0
M  V30 31972 H 3043.92 3.42754 0.193533 0
M  V30 31973 N 3046.36 -0.549794 1.47699 0
M  V30 31974 C 3047.33 -1.63834 1.60285 0
M  V30 31975 C 3048.33 -1.53549 0.477421 0
M  V30 31976 O 3049.52 -1.57574 0.742693 0
M  V30 31977 C 3046.65 -3.03401 1.55436 0
M  V30 31978 H 3047.84 -1.54022 2.57327 0
M  V30 31979 H 3045.4 -0.770305 1.36 0
M  V30 31980 H 3046.13 -3.18739 0.597968 0
M  V30 31981 H 3045.92 -3.12275 2.37121 0
M  V30 31982 H 3047.41 -3.82581 1.67396 0
M  V30 31983 N 3047.84 -1.35955 -0.797117 0
M  V30 31984 C 3048.81 -1.29512 -1.89102 0
M  V30 31985 C 3049.81 -0.204472 -1.59495 0
M  V30 31986 O 3051 -0.458775 -1.6805 0
M  V30 31987 C 3048.13 -1.00582 -3.25724 0
M  V30 31988 H 3049.32 -2.26788 -1.96233 0
M  V30 31989 H 3046.87 -1.20616 -0.994053 0
M  V30 31990 H 3047.61 -0.0373089 -3.24279 0
M  V30 31991 H 3047.39 -1.79498 -3.48601 0
M  V30 31992 H 3048.88 -0.98658 -4.05779 0
M  V30 31993 N 3049.32 1.02038 -1.20108 0
M  V30 31994 C 3050.74 1.27866 -0.955121 0
M  V30 31995 C 3050.94 1.98119 0.36756 0
M  V30 31996 O 3049.99 2.27424 1.09701 0
M  V30 31997 C 3051.31 2.1174 -2.1351 0
M  V30 31998 C 3052.85 2.25019 -2.17567 0
M  V30 31999 C 3053.33 3.12269 -3.3504 0
M  V30 32000 N 3054.82 3.19858 -3.3503 0
M  V30 32001 C 3055.55 3.87582 -4.22573 0
M  V30 32002 N 3055.05 4.57465 -5.20286 0
M  V30 32003 N 3056.84 3.84068 -4.10425 0
M  V30 32004 H 3048.99 0.548574 -2.05194 0
M  V30 32005 H 3051.26 0.304712 -0.897694 0
M  V30 32006 H 3050.96 1.67451 -3.09278 0
M  V30 32007 H 3050.84 3.1247 -2.11287 0
M  V30 32008 H 3053.22 2.68535 -1.22364 0
M  V30 32009 H 3053.31 1.23811 -2.23841 0
M  V30 32010 H 3052.95 2.6946 -4.30527 0
M  V30 32011 H 3052.88 4.13557 -3.26004 0
M  V30 32012 H 3055.37 2.70096 -2.64304 0
M  V30 32013 H 3055.68 5.06798 -5.83417 0
M  V30 32014 H 3054.03 4.56302 -5.24227 0
M  V30 32015 H 3057.22 3.28617 -3.33359 0
M  V30 32016 H 3057.39 4.36573 -4.78862 0
M  V30 32017 N 3050.8 1.00636 1.21285 0
M  V30 32018 C 3052.21 0.719414 1.42466 0
M  V30 32019 C 3052.41 -0.704894 1.88768 0
M  V30 32020 O 3051.47 -1.47406 2.05007 0
M  V30 32021 C 3052.78 1.73643 2.45497 0
M  V30 32022 C 3054.33 1.7534 2.59278 0
M  V30 32023 C 3054.81 2.7594 3.65542 0
M  V30 32024 N 3056.3 2.74617 3.73014 0
M  V30 32025 C 3057.03 3.49118 4.54867 0
M  V30 32026 N 3056.53 4.33263 5.40606 0
M  V30 32027 N 3058.32 3.37762 4.49303 0
M  V30 32028 H 3050.47 1.92603 0.89542 0
M  V30 32029 H 3052.74 0.831412 0.455476 0
M  V30 32030 H 3052.44 2.75631 2.1845 0
M  V30 32031 H 3052.32 1.5402 3.44322 0
M  V30 32032 H 3054.7 0.740427 2.8566 0
M  V30 32033 H 3054.78 1.99035 1.60682 0
M  V30 32034 H 3054.43 3.77395 3.39905 0
M  V30 32035 H 3054.36 2.49511 4.63737 0
M  V30 32036 H 3056.85 2.13571 3.11763 0
M  V30 32037 H 3057.16 4.86902 6.00121 0
M  V30 32038 H 3055.51 4.37345 5.40143 0
M  V30 32039 H 3058.7 2.71456 3.81352 0
M  V30 32040 H 3058.87 3.96079 5.1286 0
M  V30 32041 N 3052.28 -1.36872 0.781268 0
M  V30 32042 C 3053.69 -1.52767 0.461995 0
M  V30 32043 C 3053.89 -1.7372 -1.02095 0
M  V30 32044 O 3052.95 -1.76402 -1.80661 0
M  V30 32045 C 3054.26 -2.71844 1.28535 0
M  V30 32046 C 3055.81 -2.85711 1.27822 0
M  V30 32047 C 3056.28 -4.07782 2.08513 0
M  V30 32048 N 3057.78 -4.14913 2.05916 0
M  V30 32049 C 3058.51 -5.08424 2.65127 0
M  V30 32050 N 3058.01 -6.07432 3.33163 0
M  V30 32051 N 3059.8 -5.00979 2.54905 0
M  V30 32052 H 3051.95 -1.21524 1.742 0
M  V30 32053 H 3054.21 -0.592493 0.740038 0
M  V30 32054 H 3053.92 -2.62857 2.33665 0
M  V30 32055 H 3053.79 -3.65782 0.921046 0
M  V30 32056 H 3056.18 -2.94164 0.234868 0
M  V30 32057 H 3056.26 -1.92704 1.68223 0
M  V30 32058 H 3055.91 -4.0009 3.12874 0
M  V30 32059 H 3055.84 -4.99921 1.65488 0
M  V30 32060 H 3058.33 -3.4402 1.56392 0
M  V30 32061 H 3058.64 -6.75333 3.75693 0
M  V30 32062 H 3056.98 -6.07683 3.37264 0
M  V30 32063 H 3060.18 -4.22578 2.01359 0
M  V30 32064 H 3060.35 -5.7367 3.01342 0
M  V30 32065 N 3053.75 -0.532597 -1.48328 0
M  V30 32066 C 3054.68 0.21747 -2.32485 0
M  V30 32067 C 3055.67 0.932573 -1.42257 0
M  V30 32068 O 3056.85 0.917843 -1.71141 0
M  V30 32069 C 3053.98 1.26324 -3.23511 0
M  V30 32070 C 3052.93 0.666117 -4.22785 0
M  V30 32071 C 3052.26 1.81473 -5.02963 0
M  V30 32072 C 3053.56 -0.363905 -5.21031 0
M  V30 32073 H 3055.25 -0.485066 -2.95445 0
M  V30 32074 H 3052.8 -0.234719 -1.42074 0
M  V30 32075 H 3054.75 1.79594 -3.81214 0
M  V30 32076 H 3053.48 1.99539 -2.58557 0
M  V30 32077 H 3052.14 0.154916 -3.66273 0
M  V30 32078 H 3051.78 2.53532 -4.34431 0
M  V30 32079 H 3051.48 1.4211 -5.70157 0
M  V30 32080 H 3053.01 2.35116 -5.63518 0
M  V30 32081 H 3054.42 0.0818072 -5.73242 0
M  V30 32082 H 3052.82 -0.675061 -5.96291 0
M  V30 32083 H 3053.89 -1.26873 -4.68008 0
M  V30 32084 N 3055.23 1.55307 -0.267853 0
M  V30 32085 C 3056.46 2.04296 0.357451 0
M  V30 32086 C 3056.88 1.14521 1.4922 0
M  V30 32087 O 3056.24 0.142324 1.80741 0
M  V30 32088 C 3056.29 3.51087 0.822837 0
M  V30 32089 O 3055.39 3.64413 1.93071 0
M  V30 32090 H 3054.73 0.659749 0.0750134 0
M  V30 32091 H 3057.26 2.00651 -0.400031 0
M  V30 32092 H 3057.27 3.92311 1.12052 0
M  V30 32093 H 3055.95 4.15899 -0.0074293 0
M  V30 32094 H 3054.53 3.3509 1.63612 0
M  V30 32095 N 3056.71 -0.00497598 1.57599 0
M  V30 32096 C 3057.64 -0.997013 2.11144 0
M  V30 32097 C 3058.62 -1.36168 1.01943 0
M  V30 32098 O 3059.81 -1.4463 1.29599 0
M  V30 32099 C 3056.94 -2.29045 2.61066 0
M  V30 32100 C 3055.89 -2.06754 3.74749 0
M  V30 32101 C 3055.22 -3.42068 4.10967 0
M  V30 32102 C 3056.52 -1.43415 5.02224 0
M  V30 32103 H 3058.21 -0.551199 2.94282 0
M  V30 32104 H 3055.76 -0.26369 1.41565 0
M  V30 32105 H 3057.71 -2.98796 2.97151 0
M  V30 32106 H 3056.43 -2.75731 1.75043 0
M  V30 32107 H 3055.09 -1.3943 3.3905 0
M  V30 32108 H 3054.74 -3.86447 3.21974 0
M  V30 32109 H 3054.44 -3.2797 4.87554 0
M  V30 32110 H 3055.96 -4.13142 4.49607 0
M  V30 32111 H 3057.38 -2.03116 5.36113 0
M  V30 32112 H 3055.78 -1.39821 5.83584 0
M  V30 32113 H 3056.85 -0.402765 4.83224 0
M  V30 32114 N 3058.19 -1.55135 -0.277654 0
M  V30 32115 C 3059.6 -1.4687 -0.624599 0
M  V30 32116 C 3059.8 -0.678992 -1.89715 0
M  V30 32117 O 3058.86 -0.195983 -2.51738 0
M  V30 32118 C 3060.17 -2.91044 -0.755886 0
M  V30 32119 C 3061.72 -3.0123 -0.850246 0
M  V30 32120 C 3062.2 -4.46649 -1.01335 0
M  V30 32121 N 3063.69 -4.50458 -1.07898 0
M  V30 32122 C 3064.42 -5.60186 -1.2239 0
M  V30 32123 N 3063.92 -6.7979 -1.3363 0
M  V30 32124 N 3065.71 -5.47919 -1.25463 0
M  V30 32125 H 3057.86 -2.04936 0.558138 0
M  V30 32126 H 3060.13 -0.929122 0.188245 0
M  V30 32127 H 3059.83 -3.51532 0.108654 0
M  V30 32128 H 3059.71 -3.39796 -1.63764 0
M  V30 32129 H 3062.09 -2.40842 -1.70526 0
M  V30 32130 H 3062.17 -2.55739 0.0560131 0
M  V30 32131 H 3061.82 -5.07638 -0.163013 0
M  V30 32132 H 3061.75 -4.89793 -1.93419 0
M  V30 32133 H 3064.24 -3.64299 -1.0047 0
M  V30 32134 H 3064.55 -7.59169 -1.44509 0
M  V30 32135 H 3062.9 -6.82611 -1.30643 0
M  V30 32136 H 3066.09 -4.5342 -1.16309 0
M  V30 32137 H 3066.26 -6.33479 -1.36413 0
M  V30 32138 N 3059.67 0.541953 -1.47989 0
M  V30 32139 C 3060.91 1.29584 -1.55088 0
M  V30 32140 C 3061.24 1.9374 -0.221338 0
M  V30 32141 O 3060.51 1.80721 0.756096 0
M  V30 32142 H 3059.09 0.481256 -0.571316 0
M  V30 32143 H 3061.75 0.631642 -1.84381 0
M  V30 32144 H 3060.84 2.0814 -2.3256 0
M  V30 32145 N 3061.15 1.36376 0.789896 0
M  V30 32146 C 3062.56 1.16779 1.08788 0
M  V30 32147 C 3062.76 -0.00844695 2.01498 0
M  V30 32148 O 3061.82 -0.673964 2.43339 0
M  V30 32149 C 3063.13 2.4784 1.70281 0
M  V30 32150 C 3064.68 2.54199 1.82624 0
M  V30 32151 C 3065.15 3.85346 2.47532 0
M  V30 32152 N 3066.64 3.86689 2.55001 0
M  V30 32153 C 3067.38 4.84904 3.06033 0
M  V30 32154 N 3066.88 5.93511 3.57374 0
M  V30 32155 N 3068.67 4.72324 3.0474 0
M  V30 32156 H 3060.82 2.11687 0.173948 0
M  V30 32157 H 3063.08 0.937638 0.139781 0
M  V30 32158 H 3062.79 3.34178 1.09627 0
M  V30 32159 H 3062.66 2.63611 2.69794 0
M  V30 32160 H 3065.05 1.6828 2.42417 0
M  V30 32161 H 3065.13 2.42328 0.819187 0
M  V30 32162 H 3064.77 4.71671 1.88385 0
M  V30 32163 H 3064.7 3.94513 3.48808 0
M  V30 32164 H 3067.2 3.08225 2.18646 0
M  V30 32165 H 3067.51 6.64426 3.94662 0
M  V30 32166 H 3065.85 5.97181 3.55528 0
M  V30 32167 H 3069.04 3.86607 2.63918 0
M  V30 32168 H 3069.22 5.49025 3.44202 0
M  V30 32169 N 3062.62 -1.014 1.20647 0
M  V30 32170 C 3063.87 -1.74693 1.01621 0
M  V30 32171 C 3064.19 -1.89679 -0.452405 0
M  V30 32172 O 3063.46 -1.44118 -1.3269 0
M  V30 32173 H 3062.04 -0.647195 0.373025 0
M  V30 32174 H 3064.7 -1.22238 1.51802 0
M  V30 32175 H 3063.8 -2.74954 1.4767 0
M  V30 32176 N 3064.1 -1.01278 -1.2075 0
M  V30 32177 C 3065.03 -0.600104 -2.25657 0
M  V30 32178 C 3066.01 0.382951 -1.65733 0
M  V30 32179 O 3067.2 0.269222 -1.92325 0
M  V30 32180 C 3064.33 0.0662587 -3.47237 0
M  V30 32181 C 3063.28 -0.837384 -4.19728 0
M  V30 32182 C 3062.61 -0.0370042 -5.34687 0
M  V30 32183 C 3063.91 -2.14365 -4.76282 0
M  V30 32184 H 3065.6 -1.47705 -2.6043 0
M  V30 32185 H 3063.15 -0.711656 -1.25186 0
M  V30 32186 H 3065.1 0.366489 -4.19803 0
M  V30 32187 H 3063.82 0.977889 -3.11617 0
M  V30 32188 H 3062.48 -1.12156 -3.49022 0
M  V30 32189 H 3062.13 0.876157 -4.9531 0
M  V30 32190 H 3061.83 -0.638753 -5.84118 0
M  V30 32191 H 3063.36 0.256861 -6.10059 0
M  V30 32192 H 3064.77 -1.90605 -5.40687 0
M  V30 32193 H 3063.17 -2.69592 -5.36134 0
M  V30 32194 H 3064.24 -2.80923 -3.95235 0
M  V30 32195 N 3065.58 1.36456 -0.788516 0
M  V30 32196 C 3066.83 1.99265 -0.360496 0
M  V30 32197 C 3067.15 1.62583 1.06757 0
M  V30 32198 O 3066.41 0.871915 1.75203 0
M  V30 32199 C 3066.71 3.54292 -0.470317 0
M  V30 32200 C 3066.37 4.10792 -1.85906 0
M  V30 32201 C 3065.04 4.25935 -2.23904 0
M  V30 32202 C 3067.39 4.41596 -2.76844 0
M  V30 32203 C 3064.72 4.69192 -3.52243 0
M  V30 32204 C 3067.07 4.86285 -4.04611 0
M  V30 32205 C 3065.73 4.99634 -4.42631 0
M  V30 32206 H 3065 0.729164 -0.131915 0
M  V30 32207 H 3067.65 1.6296 -1.0058 0
M  V30 32208 H 3065.95 3.90946 0.25849 0
M  V30 32209 H 3067.65 4.0082 -0.12019 0
M  V30 32210 H 3064.24 3.99444 -1.55379 0
M  V30 32211 H 3068.43 4.29466 -2.48742 0
M  V30 32212 H 3063.68 4.77715 -3.81574 0
M  V30 32213 H 3067.86 5.09084 -4.75191 0
M  V30 32214 H 3065.48 5.32911 -5.42134 0
M  V30 32215 N 3067.06 0.540456 1.48043 0
M  V30 32216 C 3068.28 0.0125129 2.07396 0
M  V30 32217 C 3068.71 -1.26412 1.3929 0
M  V30 32218 O 3068.07 -1.75307 0.462283 0
M  V30 32219 C 3068.11 -0.183706 3.60132 0
M  V30 32220 O 3067.22 -1.25007 3.92997 0
M  V30 32221 H 3066.56 0.0438142 0.662553 0
M  V30 32222 H 3069.09 0.75136 1.90304 0
M  V30 32223 H 3069.1 -0.403125 4.06004 0
M  V30 32224 H 3067.77 0.748812 4.09103 0
M  V30 32225 H 3066.35 -1.01248 3.58892 0
M  V30 32226 N 3068.54 -1.55163 0.276085 0
M  V30 32227 C 3069.47 -2.25537 -0.604593 0
M  V30 32228 C 3070.45 -1.24587 -1.15811 0
M  V30 32229 O 3071.63 -1.53308 -1.19207 0
M  V30 32230 C 3068.76 -2.9772 -1.78831 0
M  V30 32231 C 3067.72 -4.05607 -1.36628 0
M  V30 32232 C 3067.04 -4.65369 -2.63317 0
M  V30 32233 C 3068.34 -5.19747 -0.515767 0
M  V30 32234 H 3070.04 -2.99395 -0.0176957 0
M  V30 32235 H 3067.58 -1.43998 -0.00707096 0
M  V30 32236 H 3069.53 -3.45663 -2.4103 0
M  V30 32237 H 3068.26 -2.21398 -2.40105 0
M  V30 32238 H 3066.92 -3.58476 -0.767478 0
M  V30 32239 H 3066.57 -3.85715 -3.22851 0
M  V30 32240 H 3066.27 -5.38216 -2.3579 0
M  V30 32241 H 3067.79 -5.16062 -3.26363 0
M  V30 32242 H 3069.2 -5.63736 -1.04279 0
M  V30 32243 H 3067.6 -5.99162 -0.335344 0
M  V30 32244 H 3068.67 -4.82663 0.465222 0
M  V30 32245 N 3070.01 -0.00338196 -1.576 0
M  V30 32246 C 3071.43 0.352738 -1.55653 0
M  V30 32247 C 3071.63 1.7457 -1.00635 0
M  V30 32248 O 3070.69 2.44211 -0.641664 0
M  V30 32249 C 3072 0.224876 -2.99858 0
M  V30 32250 C 3073.55 0.299564 -3.11563 0
M  V30 32251 C 3074.02 0.200787 -4.5756 0
M  V30 32252 N 3075.51 0.258582 -4.62478 0
M  V30 32253 C 3076.25 0.205543 -5.73031 0
M  V30 32254 N 3075.74 0.102905 -6.92724 0
M  V30 32255 N 3077.54 0.257655 -5.61509 0
M  V30 32256 H 3069.69 -0.914572 -1.91701 0
M  V30 32257 H 3071.95 -0.350881 -0.880674 0
M  V30 32258 H 3071.66 -0.733655 -3.43963 0
M  V30 32259 H 3071.53 1.00558 -3.63549 0
M  V30 32260 H 3073.92 1.24854 -2.67386 0
M  V30 32261 H 3074 -0.511069 -2.50643 0
M  V30 32262 H 3073.64 -0.74466 -5.02411 0
M  V30 32263 H 3073.57 1.02995 -5.1643 0
M  V30 32264 H 3076.06 0.339102 -3.76375 0
M  V30 32265 H 3076.38 0.0684235 -7.7277 0
M  V30 32266 H 3074.72 0.0684848 -6.94966 0
M  V30 32267 H 3077.91 0.33606 -4.66892 0
M  V30 32268 H 3078.09 0.212856 -6.4765 0
M  V30 32269 N 3071.49 1.5528 0.269423 0
M  V30 32270 C 3072.74 1.75707 0.998573 0
M  V30 32271 C 3073.06 0.563207 1.8669 0
M  V30 32272 O 3072.33 -0.421777 1.91306 0
M  V30 32273 H 3070.91 0.647965 0.371686 0
M  V30 32274 H 3073.57 1.92688 0.292792 0
M  V30 32275 H 3072.67 2.65943 1.63343 0
M  V30 32276 N 3072.97 -0.534097 1.48274 0
M  V30 32277 C 3073.9 -1.64836 1.65383 0
M  V30 32278 C 3074.88 -1.625 0.502769 0
M  V30 32279 O 3076.07 -1.79761 0.734831 0
M  V30 32280 C 3073.2 -3.03433 1.68954 0
M  V30 32281 C 3072.15 -3.20626 2.83519 0
M  V30 32282 C 3071.48 -4.60243 2.72177 0
M  V30 32283 C 3072.78 -3.0379 4.24864 0
M  V30 32284 H 3074.47 -1.50773 2.58666 0
M  V30 32285 H 3072.02 -0.723916 1.24481 0
M  V30 32286 H 3073.97 -3.81252 1.79512 0
M  V30 32287 H 3072.69 -3.18509 0.722471 0
M  V30 32288 H 3071.35 -2.45222 2.7251 0
M  V30 32289 H 3071 -4.72149 1.73448 0
M  V30 32290 H 3070.7 -4.72692 3.4905 0
M  V30 32291 H 3072.22 -5.40167 2.84696 0
M  V30 32292 H 3073.64 -3.71405 4.36728 0
M  V30 32293 H 3072.03 -3.27735 5.02703 0
M  V30 32294 H 3073.1 -2.00262 4.41614 0
M  V30 32295 N 3074.45 -1.36793 -0.782652 0
M  V30 32296 C 3075.86 -1.17354 -1.08167 0
M  V30 32297 C 3076.06 -0.00223911 -2.015 0
M  V30 32298 O 3075.12 0.66105 -2.43693 0
M  V30 32299 C 3076.43 -2.4874 -1.68964 0
M  V30 32300 C 3077.98 -2.55164 -1.81274 0
M  V30 32301 C 3078.46 -3.86653 -2.45485 0
M  V30 32302 N 3079.95 -3.88036 -2.52947 0
M  V30 32303 C 3080.68 -4.8652 -3.03457 0
M  V30 32304 N 3080.18 -5.95398 -3.54222 0
M  V30 32305 N 3081.97 -4.73933 -3.02231 0
M  V30 32306 H 3074.12 -2.11776 -0.16272 0
M  V30 32307 H 3076.38 -0.938366 -0.134807 0
M  V30 32308 H 3076.09 -3.34754 -1.07853 0
M  V30 32309 H 3075.96 -2.65039 -2.68392 0
M  V30 32310 H 3078.35 -1.69563 -2.41521 0
M  V30 32311 H 3078.43 -2.42759 -0.806325 0
M  V30 32312 H 3078.08 -4.72663 -1.85881 0
M  V30 32313 H 3078.01 -3.96357 -3.46711 0
M  V30 32314 H 3080.5 -3.0938 -2.17008 0
M  V30 32315 H 3080.81 -6.66509 -3.91133 0
M  V30 32316 H 3079.16 -5.99058 -3.52356 0
M  V30 32317 H 3082.35 -3.88001 -2.61864 0
M  V30 32318 H 3082.52 -5.50843 -3.41286 0
M  V30 32319 N 3075.93 1.00759 -1.21184 0
M  V30 32320 C 3076.89 2.07645 -0.970376 0
M  V30 32321 C 3077.89 1.60697 0.0576063 0
M  V30 32322 O 3079.08 1.73274 -0.179399 0
M  V30 32323 C 3076.21 3.37744 -0.462762 0
M  V30 32324 H 3077.4 2.30499 -1.9186 0
M  V30 32325 H 3074.96 1.17696 -1.02846 0
M  V30 32326 H 3075.69 3.20569 0.490503 0
M  V30 32327 H 3075.48 3.7315 -1.20423 0
M  V30 32328 H 3076.97 4.16421 -0.313604 0
M  V30 32329 N 3077.4 1.01917 1.20211 0
M  V30 32330 C 3078.35 0.562366 2.20956 0
M  V30 32331 C 3079.34 -0.383676 1.56259 0
M  V30 32332 O 3080.53 -0.206224 1.75795 0
M  V30 32333 C 3077.66 -0.0953432 3.43168 0
M  V30 32334 C 3076.75 0.87256 4.15027 0
M  V30 32335 N 3077.14 2.03111 4.63227 0
M  V30 32336 C 3075.43 0.693928 4.40569 0
M  V30 32337 C 3076.14 2.64078 5.18302 0
M  V30 32338 N 3075.11 1.92119 5.08519 0
M  V30 32339 H 3078.91 1.44557 2.55891 0
M  V30 32340 H 3076.43 0.884855 1.36177 0
M  V30 32341 H 3078.42 -0.440159 4.1457 0
M  V30 32342 H 3077.08 -0.974359 3.09736 0
M  V30 32343 H 3078.1 2.41094 4.5836 0
M  V30 32344 H 3074.77 -0.136816 4.17276 0
M  V30 32345 H 3076.16 3.6214 5.65955 0
M  V30 32346 N 3078.88 -1.36036 0.795742 0
M  V30 32347 C 3079.81 -2.28666 0.156377 0
M  V30 32348 C 3080.83 -1.49776 -0.638049 0
M  V30 32349 O 3082.02 -1.72141 -0.472192 0
M  V30 32350 C 3079.12 -3.29289 -0.801359 0
M  V30 32351 C 3078.29 -4.37365 -0.0556349 0
M  V30 32352 C 3077.35 -5.17912 -0.930247 0
M  V30 32353 O 3076.37 -5.67895 -0.385167 0
M  V30 32354 N 3077.58 -5.34965 -2.25373 0
M  V30 32355 H 3080.34 -2.84175 0.952083 0
M  V30 32356 H 3077.9 -1.48269 0.650216 0
M  V30 32357 H 3079.89 -3.80064 -1.39044 0
M  V30 32358 H 3078.46 -2.74374 -1.49792 0
M  V30 32359 H 3077.68 -3.87669 0.714576 0
M  V30 32360 H 3078.97 -5.06728 0.458722 0
M  V30 32361 H 3078.37 -4.95981 -2.72064 0
M  V30 32362 H 3076.93 -5.8896 -2.7923 0
M  V30 32363 N 3080.36 -0.5483 -1.47755 0
M  V30 32364 C 3081.78 -0.207429 -1.58246 0
M  V30 32365 C 3081.98 1.28986 -1.54806 0
M  V30 32366 O 3081.03 2.06942 -1.44677 0
M  V30 32367 C 3082.35 -0.826193 -2.89127 0
M  V30 32368 C 3083.89 -0.796603 -3.02693 0
M  V30 32369 C 3084.37 -1.39427 -4.36261 0
M  V30 32370 N 3085.86 -1.35706 -4.42875 0
M  V30 32371 C 3086.59 -1.78922 -5.4477 0
M  V30 32372 N 3086.09 -2.29953 -6.53524 0
M  V30 32373 N 3087.88 -1.70047 -5.35762 0
M  V30 32374 H 3080.03 -1.5212 -1.48234 0
M  V30 32375 H 3082.3 -0.633841 -0.704946 0
M  V30 32376 H 3082 -1.87811 -2.97355 0
M  V30 32377 H 3081.88 -0.313982 -3.75891 0
M  V30 32378 H 3084.26 0.246603 -2.94068 0
M  V30 32379 H 3084.35 -1.34648 -2.17494 0
M  V30 32380 H 3083.99 -2.4365 -4.45642 0
M  V30 32381 H 3083.92 -0.819919 -5.20178 0
M  V30 32382 H 3086.41 -0.983687 -3.64873 0
M  V30 32383 H 3086.72 -2.60876 -7.27436 0
M  V30 32384 H 3085.07 -2.33958 -6.54438 0
M  V30 32385 H 3088.26 -1.29963 -4.49697 0
M  V30 32386 H 3088.43 -2.04046 -6.15036 0
M  V30 32387 N 3081.84 1.55014 -0.28431 0
M  V30 32388 C 3083.06 2.04664 0.335763 0
M  V30 32389 C 3083.49 1.16097 1.47997 0
M  V30 32390 O 3082.85 0.161486 1.80579 0
M  V30 32391 C 3082.89 3.5194 0.785553 0
M  V30 32392 O 3082 3.66441 1.89196 0
M  V30 32393 H 3081.34 0.660508 0.0680117 0
M  V30 32394 H 3083.87 2.00216 -0.42129 0
M  V30 32395 H 3083.88 3.93478 1.07885 0
M  V30 32396 H 3082.55 4.15868 -0.0515406 0
M  V30 32397 H 3081.13 3.36807 1.60049 0
M  V30 32398 N 3083.32 0.0117398 1.57596 0
M  V30 32399 C 3084.27 -0.984634 2.05643 0
M  V30 32400 C 3085.25 -1.29608 0.953445 0
M  V30 32401 O 3086.44 -1.2851 1.21714 0
M  V30 32402 C 3083.57 -2.27282 2.57289 0
M  V30 32403 C 3082.66 -1.9905 3.74486 0
M  V30 32404 N 3083.05 -1.4102 4.85744 0
M  V30 32405 C 3081.35 -2.29133 3.82641 0
M  V30 32406 C 3082.05 -1.29526 5.67096 0
M  V30 32407 N 3081.02 -1.78488 5.13462 0
M  V30 32408 H 3084.83 -0.530651 2.8907 0
M  V30 32409 H 3082.34 -0.193688 1.61241 0
M  V30 32410 H 3084.34 -2.99516 2.89993 0
M  V30 32411 H 3083 -2.73322 1.75286 0
M  V30 32412 H 3084.01 -1.08747 5.06354 0
M  V30 32413 H 3080.68 -2.77967 3.11513 0
M  V30 32414 H 3082.07 -0.848027 6.66527 0
M  V30 32415 N 3084.79 -1.55421 -0.261185 0
M  V30 32416 C 3086.02 -1.80957 -1.01337 0
M  V30 32417 C 3086.44 -0.58688 -1.7871 0
M  V30 32418 O 3085.8 0.463806 -1.75267 0
M  V30 32419 C 3085.85 -3.04076 -1.9383 0
M  V30 32420 O 3084.95 -2.7999 -3.02786 0
M  V30 32421 H 3084.3 -0.597754 -0.289113 0
M  V30 32422 H 3086.83 -2.02584 -0.286507 0
M  V30 32423 H 3086.84 -3.33127 -2.35564 0
M  V30 32424 H 3085.51 -3.92713 -1.36929 0
M  V30 32425 H 3084.09 -2.62068 -2.65283 0
M  V30 32426 N 3086.27 0.526227 -1.48555 0
M  V30 32427 C 3087.5 1.31126 -1.60688 0
M  V30 32428 C 3087.92 1.8617 -0.268734 0
M  V30 32429 O 3087.28 1.64595 0.760138 0
M  V30 32430 C 3087.33 2.43531 -2.65942 0
M  V30 32431 O 3086.43 3.46674 -2.23362 0
M  V30 32432 H 3085.77 0.388202 -0.538698 0
M  V30 32433 H 3088.3 0.632791 -1.94569 0
M  V30 32434 H 3088.31 2.89663 -2.87332 0
M  V30 32435 H 3086.99 2.02829 -3.63088 0
M  V30 32436 H 3085.57 3.06635 -2.12201 0
M  V30 32437 N 3087.75 1.37206 0.775387 0
M  V30 32438 C 3089 1.31952 1.53078 0
M  V30 32439 C 3089.32 -0.0966521 1.9476 0
M  V30 32440 O 3088.59 -1.03991 1.6602 0
M  V30 32441 H 3087.17 0.485454 0.567753 0
M  V30 32442 H 3089.83 1.71655 0.92306 0
M  V30 32443 H 3088.93 1.95618 2.43187 0
M  V30 32444 N 3089.23 -1.00115 1.21716 0
M  V30 32445 C 3090.48 -1.73605 1.03468 0
M  V30 32446 C 3090.8 -1.90149 -0.432261 0
M  V30 32447 O 3090.07 -1.45518 -1.31154 0
M  V30 32448 H 3088.65 -0.643202 0.379868 0
M  V30 32449 H 3091.31 -1.20621 1.5309 0
M  V30 32450 H 3090.41 -2.73373 1.50578 0
M  V30 32451 N 3090.71 -1.02553 -1.19669 0
M  V30 32452 C 3091.93 -0.739397 -1.93772 0
M  V30 32453 C 3092.36 0.695033 -1.74788 0
M  V30 32454 O 3091.72 1.47942 -1.04798 0
M  V30 32455 C 3091.76 -1.09155 -3.43682 0
M  V30 32456 O 3090.87 -0.208285 -4.11874 0
M  V30 32457 H 3090.21 -0.273495 -0.605059 0
M  V30 32458 H 3092.74 -1.3713 -1.51843 0
M  V30 32459 H 3092.75 -1.04702 -3.94337 0
M  V30 32460 H 3091.42 -2.1366 -3.56822 0
M  V30 32461 H 3090 -0.311111 -3.716 0
M  V30 32462 N 3092.19 1.35612 -0.802945 0
M  V30 32463 C 3093.41 2.03115 -0.393966 0
M  V30 32464 C 3093.83 1.60519 0.993933 0
M  V30 32465 O 3093.19 0.801002 1.63982 0
M  V30 32466 C 3093.24 3.58516 -0.463549 0
M  V30 32467 O 3092.96 3.99561 -1.79673 0
M  V30 32468 C 3094.46 4.43275 -0.0469157 0
M  V30 32469 H 3091.68 0.651514 -0.16053 0
M  V30 32470 H 3094.22 1.73309 -1.08555 0
M  V30 32471 H 3092.38 3.86983 0.179753 0
M  V30 32472 H 3092.79 4.94197 -1.75697 0
M  V30 32473 H 3094.27 5.51805 -0.146723 0
M  V30 32474 H 3094.74 4.27492 1.00733 0
M  V30 32475 H 3095.35 4.20097 -0.663232 0
M  V30 32476 N 3093.66 0.556128 1.47462 0
M  V30 32477 C 3094.89 0.0345093 2.07371 0
M  V30 32478 C 3095.31 -1.24927 1.40623 0
M  V30 32479 O 3094.67 -1.74807 0.480851 0
M  V30 32480 C 3094.72 -0.145499 3.60306 0
M  V30 32481 O 3093.82 -1.20832 3.94301 0
M  V30 32482 H 3093.16 0.050839 0.662051 0
M  V30 32483 H 3095.69 0.771502 1.89497 0
M  V30 32484 H 3095.7 -0.360041 4.06408 0
M  V30 32485 H 3094.38 0.79216 4.08286 0
M  V30 32486 H 3092.96 -0.974357 3.59945 0
M  V30 32487 N 3095.14 -1.54861 0.292527 0
M  V30 32488 C 3096.55 -1.85606 -0.201808 0
M  V30 32489 C 3096.9 -1.21451 -1.54091 0
M  V30 32490 O 3096.03 -0.509116 -2.10326 0
M  V30 32491 C 3096.62 -3.36741 -0.372952 0
M  V30 32492 C 3095.18 -3.67548 -0.81151 0
M  V30 32493 C 3094.33 -2.77169 0.085107 0
M  V30 32494 H 3097.28 -1.50153 0.5138 0
M  V30 32495 H 3097.3 -3.60787 -1.20885 0
M  V30 32496 H 3096.81 -3.83405 0.601818 0
M  V30 32497 H 3094.91 -3.26395 -1.79713 0
M  V30 32498 H 3095.03 -4.7485 -0.636769 0
M  V30 32499 H 3093.39 -2.50972 -0.43418 0
M  V30 32500 H 3094.17 -3.26653 1.05608 0
M  V30 32501 N 3096.62 -0.0200973 -1.57587 0
M  V30 32502 C 3097.87 0.659187 -1.91047 0
M  V30 32503 C 3098.19 1.73184 -0.896227 0
M  V30 32504 O 3097.46 1.95797 0.0635608 0
M  V30 32505 H 3096.04 0.24647 -0.705168 0
M  V30 32506 H 3098.7 -0.065771 -1.94789 0
M  V30 32507 H 3097.8 1.11767 -2.91401 0
M  V30 32508 N 3098.1 1.55557 0.252939 0
M  V30 32509 C 3099.34 1.78867 0.989244 0
M  V30 32510 C 3099.7 0.588647 1.82754 0
M  V30 32511 O 3100.9 0.700393 2.59515 0
M  V30 32512 C 3099.17 3.06877 1.83197 0
M  V30 32513 S 3100.73 3.51385 2.6282 0
M  V30 32514 H 3097.55 0.628276 0.332852 0
M  V30 32515 H 3100.15 1.93794 0.257682 0
M  V30 32516 H 3098.86 3.92289 1.20572 0
M  V30 32517 H 3098.39 2.94671 2.60639 0
M  V30 32518 H 3100.4 3.12241 3.85643 0
M  V30 32519 N 3099.58 -0.518341 1.48832 0
M  V30 32520 C 3100.8 -1.29797 1.61122 0
M  V30 32521 C 3101.22 -1.86773 0.275905 0
M  V30 32522 O 3100.58 -1.66984 -0.736387 0
M  V30 32523 C 3100.63 -2.44058 2.6668 0
M  V30 32524 O 3100.35 -1.89427 3.9503 0
M  V30 32525 C 3101.85 -3.35701 2.89516 0
M  V30 32526 H 3099.07 -0.394304 0.542923 0
M  V30 32527 H 3101.61 -0.624108 1.94744 0
M  V30 32528 H 3099.77 -3.07307 2.35884 0
M  V30 32529 H 3100.18 -2.64308 4.53036 0
M  V30 32530 H 3101.66 -4.12196 3.67149 0
M  V30 32531 H 3102.13 -3.91644 1.98775 0
M  V30 32532 H 3102.74 -2.78235 3.21661 0
M  V30 32533 N 3101.05 -1.37615 -0.7681 0
M  V30 32534 C 3102 -1.30187 -1.87177 0
M  V30 32535 C 3102.99 -0.188971 -1.59786 0
M  V30 32536 O 3104.18 -0.423686 -1.71854 0
M  V30 32537 C 3101.31 -1.11477 -3.24696 0
M  V30 32538 C 3100.39 -2.27327 -3.58027 0
M  V30 32539 N 3100.79 -3.52728 -3.62514 0
M  V30 32540 C 3099.08 -2.19561 -3.88213 0
M  V30 32541 C 3099.78 -4.29144 -3.92696 0
M  V30 32542 N 3098.76 -3.58326 -4.08783 0
M  V30 32543 H 3102.56 -2.2515 -1.88903 0
M  V30 32544 H 3100.08 -1.3064 -0.96473 0
M  V30 32545 H 3102.07 -1.0424 -4.03658 0
M  V30 32546 H 3100.73 -0.174338 -3.24232 0
M  V30 32547 H 3101.74 -3.86589 -3.4463 0
M  V30 32548 H 3098.42 -1.33595 -3.95548 0
M  V30 32549 H 3099.81 -5.3769 -4.02913 0
M  V30 32550 N 3102.53 0.994677 -1.22245 0
M  V30 32551 C 3103.48 2.06884 -0.95828 0
M  V30 32552 C 3104.47 1.60646 0.0904198 0
M  V30 32553 O 3105.66 1.76594 -0.119868 0
M  V30 32554 C 3102.79 3.3909 -0.536003 0
M  V30 32555 C 3101.87 3.91967 -1.61934 0
M  V30 32556 N 3102.26 4.18089 -2.84666 0
M  V30 32557 C 3100.56 4.20353 -1.49061 0
M  V30 32558 C 3101.26 4.61042 -3.54705 0
M  V30 32559 N 3100.24 4.64629 -2.82172 0
M  V30 32560 H 3104.04 2.25019 -1.8906 0
M  V30 32561 H 3101.55 1.17627 -1.11972 0
M  V30 32562 H 3103.55 4.15607 -0.32807 0
M  V30 32563 H 3102.21 3.22356 0.389434 0
M  V30 32564 H 3103.22 4.06335 -3.21111 0
M  V30 32565 H 3099.9 4.12701 -0.631227 0
M  V30 32566 H 3101.29 4.8989 -4.59845 0
M  V30 32567 N 3104.01 1.03186 1.19123 0
M  V30 32568 C 3105.29 0.644606 1.84673 0
M  V30 32569 C 3105.67 -0.876501 1.92043 0
M  V30 32570 O 3105.01 -1.77441 1.43968 0
M  V30 32571 C 3105.22 1.31015 3.23475 0
M  V30 32572 C 3106.57 1.43531 3.99605 0
M  V30 32573 O 3107.6 1.26756 3.32883 0
M  V30 32574 O 3106.46 1.70785 5.19129 0
M  V30 32575 H 3103.55 0.224434 0.795964 0
M  V30 32576 H 3106.1 1.1302 1.26588 0
M  V30 32577 H 3104.87 2.34883 3.12963 0
M  V30 32578 H 3104.49 0.812615 3.89207 0
M  V30 32579 N 3105.49 -1.35184 0.810125 0
M  V30 32580 C 3106.71 -2.03434 0.403676 0
M  V30 32581 C 3107.14 -1.60643 -0.978541 0
M  V30 32582 O 3106.5 -0.784808 -1.63433 0
M  V30 32583 C 3106.54 -3.57128 0.499217 0
M  V30 32584 O 3105.65 -4.09527 -0.485967 0
M  V30 32585 H 3104.99 -0.64238 0.168061 0
M  V30 32586 H 3107.52 -1.72706 1.09699 0
M  V30 32587 H 3107.53 -4.06316 0.370308 0
M  V30 32588 H 3106.2 -3.87621 1.5074 0
M  V30 32589 H 3104.78 -3.7155 -0.317004 0
M  V30 32590 N 3106.97 -0.56394 -1.47165 0
M  V30 32591 C 3107.9 0.227949 -2.27059 0
M  V30 32592 C 3108.88 0.914155 -1.34469 0
M  V30 32593 O 3110.06 0.931801 -1.63859 0
M  V30 32594 C 3107.19 1.32537 -3.11691 0
M  V30 32595 C 3106.23 0.74701 -4.19907 0
M  V30 32596 S 3107.07 -0.411624 -5.33916 0
M  V30 32597 C 3108.22 0.687457 -6.22113 0
M  V30 32598 H 3108.46 -0.449991 -2.93875 0
M  V30 32599 H 3105.99 -0.350408 -1.50371 0
M  V30 32600 H 3107.95 1.95382 -3.61021 0
M  V30 32601 H 3106.61 1.97518 -2.44224 0
M  V30 32602 H 3105.8 1.57133 -4.78879 0
M  V30 32603 H 3105.4 0.194605 -3.73493 0
M  V30 32604 H 3107.7 1.57789 -6.58869 0
M  V30 32605 H 3108.64 0.134934 -7.07971 0
M  V30 32606 H 3109.05 0.983157 -5.55873 0
M  V30 32607 N 3108.44 1.54704 -0.300735 0
M  V30 32608 C 3109.72 1.92226 0.361723 0
M  V30 32609 C 3110.1 1.22793 1.71712 0
M  V30 32610 O 3109.45 0.363581 2.25589 0
M  V30 32611 C 3109.66 3.4573 0.476638 0
M  V30 32612 C 3111.01 4.17966 0.747627 0
M  V30 32613 O 3112.03 3.51763 0.560459 0
M  V30 32614 O 3110.89 5.35168 1.10715 0
M  V30 32615 H 3107.98 0.801901 0.202199 0
M  V30 32616 H 3110.53 1.66077 -0.348775 0
M  V30 32617 H 3109.3 3.88392 -0.4762 0
M  V30 32618 H 3108.93 3.77913 1.23561 0
M  V30 32619 N 3109.92 0.0284543 1.57574 0
M  V30 32620 C 3111.33 -0.510471 1.79586 0
M  V30 32621 C 3111.68 -1.7229 0.938656 0
M  V30 32622 O 3110.81 -2.15887 0.148878 0
M  V30 32623 C 3111.4 -0.932855 3.25704 0
M  V30 32624 C 3109.96 -1.4169 3.48713 0
M  V30 32625 C 3109.11 -0.381308 2.74666 0
M  V30 32626 H 3112.06 0.254492 1.56646 0
M  V30 32627 H 3112.08 -1.79726 3.35379 0
M  V30 32628 H 3111.59 -0.0502353 3.88067 0
M  V30 32629 H 3109.7 -2.31947 2.91602 0
M  V30 32630 H 3109.81 -1.42473 4.57426 0
M  V30 32631 H 3108.17 -0.849258 2.40124 0
M  V30 32632 H 3108.96 0.492835 3.39744 0
M  V30 32633 N 3111.4 -1.55689 -0.244686 0
M  V30 32634 C 3112.63 -1.82022 -0.994125 0
M  V30 32635 C 3113.05 -0.605802 -1.78078 0
M  V30 32636 O 3112.41 0.44519 -1.75749 0
M  V30 32637 C 3112.46 -3.06115 -1.90594 0
M  V30 32638 O 3111.56 -2.83186 -2.99799 0
M  V30 32639 H 3110.9 -0.600787 -0.282756 0
M  V30 32640 H 3113.43 -2.02877 -0.265004 0
M  V30 32641 H 3113.44 -3.35607 -2.32017 0
M  V30 32642 H 3112.12 -3.94143 -1.32756 0
M  V30 32643 H 3110.69 -2.64867 -2.62488 0
M  V30 32644 N 3112.88 0.510441 -1.49105 0
M  V30 32645 C 3114.16 1.27177 -1.48612 0
M  V30 32646 C 3114.54 2.10067 -0.208574 0
M  V30 32647 O 3113.88 2.13688 0.809297 0
M  V30 32648 C 3114.09 2.13656 -2.75957 0
M  V30 32649 C 3115.44 2.73155 -3.25071 0
M  V30 32650 O 3116.47 2.23929 -2.77009 0
M  V30 32651 O 3115.32 3.62744 -4.08753 0
M  V30 32652 H 3112.42 0.57501 -0.594384 0
M  V30 32653 H 3114.96 0.525487 -1.61359 0
M  V30 32654 H 3113.74 1.52319 -3.60437 0
M  V30 32655 H 3113.36 2.95494 -2.66025 0
M  V30 32656 N 3114.36 1.38021 0.760791 0
M  V30 32657 C 3115.27 1.36887 1.90523 0
M  V30 32658 C 3116.28 0.266938 1.7194 0
M  V30 32659 O 3117.46 0.504164 1.94988 0
M  V30 32660 C 3114.52 1.18564 3.25797 0
M  V30 32661 C 3113.58 2.38496 3.56956 0
M  V30 32662 C 3112.82 2.21038 4.85776 0
M  V30 32663 O 3113.04 1.20033 5.57627 0
M  V30 32664 O 3111.97 3.09469 5.16248 0
M  V30 32665 H 3115.8 2.33302 1.94433 0
M  V30 32666 H 3113.39 1.18865 0.90507 0
M  V30 32667 H 3115.27 1.10377 4.06688 0
M  V30 32668 H 3113.94 0.252298 3.22715 0
M  V30 32669 H 3112.85 2.52257 2.76256 0
M  V30 32670 H 3114.18 3.30436 3.64792 0
M  V30 32671 N 3115.83 -0.98818 1.22771 0
M  V30 32672 C 3116.74 -2.11339 1.01848 0
M  V30 32673 C 3117.76 -1.73965 -0.0346631 0
M  V30 32674 O 3118.94 -2.00771 0.159096 0
M  V30 32675 C 3116 -3.414 0.603897 0
M  V30 32676 C 3115.06 -3.92846 1.7312 0
M  V30 32677 C 3114.3 -5.167 1.3363 0
M  V30 32678 O 3114.52 -5.69987 0.217141 0
M  V30 32679 O 3113.45 -5.62017 2.15453 0
M  V30 32680 H 3117.28 -2.31876 1.96131 0
M  V30 32681 H 3114.86 -1.09713 1.01407 0
M  V30 32682 H 3116.75 -4.19653 0.38327 0
M  V30 32683 H 3115.42 -3.22212 -0.310026 0
M  V30 32684 H 3114.33 -3.15745 2.00639 0
M  V30 32685 H 3115.66 -4.16475 2.62316 0
M  V30 32686 N 3117.31 -1.03816 -1.18575 0
M  V30 32687 C 3118.56 -0.738607 -1.8812 0
M  V30 32688 C 3118.88 0.735712 -1.80589 0
M  V30 32689 O 3118.15 1.53071 -1.22254 0
M  V30 32690 H 3116.73 -0.27022 -0.696412 0
M  V30 32691 H 3119.39 -1.31438 -1.4391 0
M  V30 32692 H 3118.49 -1.04121 -2.9422 0
M  V30 32693 N 3118.79 1.34753 -0.817283 0
M  V30 32694 C 3120.21 1.51488 -0.502336 0
M  V30 32695 C 3120.41 1.76366 0.974537 0
M  V30 32696 O 3119.46 1.8113 1.75921 0
M  V30 32697 C 3120.78 2.68341 -1.35697 0
M  V30 32698 C 3122.32 2.82221 -1.35352 0
M  V30 32699 C 3122.8 4.02111 -2.19251 0
M  V30 32700 N 3124.29 4.09308 -2.16845 0
M  V30 32701 C 3125.02 5.01216 -2.78514 0
M  V30 32702 N 3124.52 5.98386 -3.49151 0
M  V30 32703 N 3126.31 4.94044 -2.68098 0
M  V30 32704 H 3118.46 1.16863 -1.77361 0
M  V30 32705 H 3120.73 0.572664 -0.755486 0
M  V30 32706 H 3120.43 2.56569 -2.40552 0
M  V30 32707 H 3120.31 3.63212 -1.0177 0
M  V30 32708 H 3122.69 2.93438 -0.312778 0
M  V30 32709 H 3122.78 1.88176 -1.73273 0
M  V30 32710 H 3122.42 3.91654 -3.23372 0
M  V30 32711 H 3122.35 4.95358 -1.78684 0
M  V30 32712 H 3124.84 3.39753 -1.65458 0
M  V30 32713 H 3125.15 6.65135 -3.93467 0
M  V30 32714 H 3123.5 5.98527 -3.53257 0
M  V30 32715 H 3126.69 4.17091 -2.12493 0
M  V30 32716 H 3126.86 5.65478 -3.16446 0
M  V30 32717 N 3120.27 0.571737 1.46864 0
M  V30 32718 C 3121.52 0.0530378 2.0203 0
M  V30 32719 C 3121.84 -1.30729 1.44689 0
M  V30 32720 O 3121.11 -1.85579 0.627461 0
M  V30 32721 H 3119.69 0.0166166 0.746815 0
M  V30 32722 H 3122.35 0.745035 1.80098 0
M  V30 32723 H 3121.45 -0.0241989 3.12091 0
M  V30 32724 N 3121.75 -1.54542 0.308935 0
M  V30 32725 C 3123 -1.999 -0.297412 0
M  V30 32726 C 3123.32 -1.19881 -1.53797 0
M  V30 32727 O 3122.59 -0.296814 -1.93638 0
M  V30 32728 H 3121.17 -0.738421 -0.112884 0
M  V30 32729 H 3123.83 -1.90274 0.422101 0
M  V30 32730 H 3122.92 -3.06962 -0.563962 0
M  V30 32731 N 3123.23 -0.0368104 -1.57557 0
M  V30 32732 C 3124.19 0.927552 -2.09593 0
M  V30 32733 C 3125.19 1.24917 -1.01254 0
M  V30 32734 O 3126.38 1.18823 -1.27384 0
M  V30 32735 C 3123.51 2.24179 -2.5682 0
M  V30 32736 H 3124.7 0.476732 -2.96087 0
M  V30 32737 H 3122.26 0.211357 -1.54864 0
M  V30 32738 H 3122.99 2.73873 -1.73678 0
M  V30 32739 H 3122.78 2.02144 -3.35976 0
M  V30 32740 H 3124.27 2.93286 -2.97276 0
M  V30 32741 N 3124.7 1.55817 0.236426 0
M  V30 32742 C 3125.95 1.77786 0.961079 0
M  V30 32743 C 3126.27 0.60268 1.85453 0
M  V30 32744 O 3125.54 -0.381104 1.92157 0
M  V30 32745 H 3124.12 0.655703 0.357859 0
M  V30 32746 H 3126.78 1.93266 0.251854 0
M  V30 32747 H 3125.88 2.69348 1.57665 0
M  V30 32748 N 3126.18 -0.502526 1.49373 0
M  V30 32749 C 3127.43 -1.25427 1.5847 0
M  V30 32750 C 3127.75 -1.93085 0.272626 0
M  V30 32751 O 3127.02 -1.82662 -0.707915 0
M  V30 32752 H 3125.6 -0.46594 0.583874 0
M  V30 32753 H 3128.26 -0.582535 1.85991 0
M  V30 32754 H 3127.36 -2.01901 2.37996 0
M  V30 32755 N 3127.66 -1.38422 -0.75346 0
M  V30 32756 C 3128.91 -1.34371 -1.5096 0
M  V30 32757 C 3129.23 0.0656552 -1.94889 0
M  V30 32758 O 3128.5 1.01336 -1.67654 0
M  V30 32759 H 3127.08 -0.494425 -0.559958 0
M  V30 32760 H 3129.74 -1.73102 -0.895635 0
M  V30 32761 H 3128.84 -1.99462 -2.40044 0
M  V30 32762 N 3129.14 0.981655 -1.23294 0
M  V30 32763 C 3130.39 1.71937 -1.06217 0
M  V30 32764 C 3130.71 1.90812 0.401955 0
M  V30 32765 O 3129.98 1.47586 1.28822 0
M  V30 32766 H 3128.56 0.637078 -0.390053 0
M  V30 32767 H 3131.22 1.1817 -1.5499 0
M  V30 32768 H 3130.31 2.70942 -1.54909 0
M  V30 32769 N 3130.62 1.04444 1.18022 0
M  V30 32770 C 3131.58 0.643174 2.19991 0
M  V30 32771 C 3132.58 -0.301416 1.5795 0
M  V30 32772 O 3133.77 -0.0863035 1.73986 0
M  V30 32773 C 3130.9 -0.0564609 3.40853 0
M  V30 32774 H 3132.09 1.54559 2.57005 0
M  V30 32775 H 3129.65 0.837432 1.31973 0
M  V30 32776 H 3130.38 -0.972499 3.09375 0
M  V30 32777 H 3130.17 0.622507 3.87127 0
M  V30 32778 H 3131.66 -0.323579 4.16344 0
M  V30 32779 N 3132.09 -1.34317 0.824418 0
M  V30 32780 C 3133.34 -1.97848 0.412385 0
M  V30 32781 C 3133.66 -1.65678 -1.02838 0
M  V30 32782 O 3132.93 -0.948275 -1.71419 0
M  V30 32783 H 3131.51 -0.731887 0.149499 0
M  V30 32784 H 3134.17 -1.63929 1.05419 0
M  V30 32785 H 3133.27 -3.07522 0.532611 0
M  V30 32786 N 3133.57 -0.579517 -1.46558 0
M  V30 32787 C 3134.8 -0.067496 -2.0729 0
M  V30 32788 C 3135.22 1.22674 -1.42593 0
M  V30 32789 O 3134.58 1.7402 -0.5086 0
M  V30 32790 C 3134.63 0.0881594 -3.60492 0
M  V30 32791 O 3133.73 1.14544 -3.96174 0
M  V30 32792 H 3133.07 -0.0613652 -0.661158 0
M  V30 32793 H 3135.6 -0.801552 -1.88245 0
M  V30 32794 H 3135.61 0.295339 -4.0693 0
M  V30 32795 H 3134.29 -0.857015 -4.06974 0
M  V30 32796 H 3132.86 0.916969 -3.6145 0
M  V30 32797 N 3135.05 1.54376 -0.317127 0
M  V30 32798 C 3135.96 2.27798 0.560827 0
M  V30 32799 C 3136.98 1.3191 1.13471 0
M  V30 32800 O 3138.15 1.64916 1.15606 0
M  V30 32801 C 3135.22 3.01663 1.70881 0
M  V30 32802 C 3134.28 4.13123 1.16738 0
M  V30 32803 C 3133.51 4.83457 2.26065 0
M  V30 32804 O 3133.73 4.53258 3.46284 0
M  V30 32805 O 3132.67 5.70507 1.91846 0
M  V30 32806 H 3136.49 3.0368 -0.0352464 0
M  V30 32807 H 3134.08 1.49169 -0.0830325 0
M  V30 32808 H 3135.96 3.47941 2.3773 0
M  V30 32809 H 3134.64 2.28662 2.29118 0
M  V30 32810 H 3133.54 3.71209 0.464159 0
M  V30 32811 H 3134.88 4.88149 0.630221 0
M  V30 32812 N 3136.53 0.0451655 1.57535 0
M  V30 32813 C 3137.48 -0.940793 2.07685 0
M  V30 32814 C 3138.46 -1.27556 0.980722 0
M  V30 32815 O 3139.65 -1.25899 1.24412 0
M  V30 32816 C 3136.78 -2.21773 2.62053 0
M  V30 32817 C 3135.87 -1.91062 3.78624 0
M  V30 32818 N 3136.26 -1.30685 4.88626 0
M  V30 32819 C 3134.56 -2.20965 3.87415 0
M  V30 32820 C 3135.26 -1.17468 5.69716 0
M  V30 32821 N 3134.24 -1.67557 5.17132 0
M  V30 32822 H 3138.04 -0.469216 2.9013 0
M  V30 32823 H 3135.55 -0.159443 1.61615 0
M  V30 32824 H 3137.55 -2.93297 2.96281 0
M  V30 32825 H 3136.21 -2.69543 1.81044 0
M  V30 32826 H 3137.22 -0.979818 5.08547 0
M  V30 32827 H 3133.9 -2.71297 3.17339 0
M  V30 32828 H 3135.29 -0.706456 6.68176 0
M  V30 32829 N 3138.01 -1.5594 -0.228159 0
M  V30 32830 C 3139.23 -1.83066 -0.974763 0
M  V30 32831 C 3139.66 -0.624655 -1.77425 0
M  V30 32832 O 3139.01 0.426525 -1.76211 0
M  V30 32833 C 3139.06 -3.08119 -1.87337 0
M  V30 32834 O 3138.17 -2.8635 -2.96779 0
M  V30 32835 H 3137.51 -0.603752 -0.276368 0
M  V30 32836 H 3140.04 -2.03146 -0.243471 0
M  V30 32837 H 3140.05 -3.38049 -2.28445 0
M  V30 32838 H 3138.72 -3.95529 -1.28568 0
M  V30 32839 H 3137.3 -2.67636 -2.59664 0
M  V30 32840 N 3139.48 0.494597 -1.49638 0
M  V30 32841 C 3140.39 1.62169 -1.69524 0
M  V30 32842 C 3141.41 1.64122 -0.577923 0
M  V30 32843 O 3142.59 1.82425 -0.853414 0
M  V30 32844 C 3139.65 2.98507 -1.76336 0
M  V30 32845 C 3138.71 3.0713 -2.9995 0
M  V30 32846 C 3137.95 4.36965 -3.06426 0
M  V30 32847 O 3138.17 5.26132 -2.20322 0
M  V30 32848 O 3137.1 4.50693 -3.98948 0
M  V30 32849 H 3140.93 1.48319 -2.65019 0
M  V30 32850 H 3138.51 0.671579 -1.33455 0
M  V30 32851 H 3140.4 3.79527 -1.83132 0
M  V30 32852 H 3139.07 3.12605 -0.84021 0
M  V30 32853 H 3137.98 2.25274 -2.98667 0
M  V30 32854 H 3139.31 2.97961 -3.91765 0
M  V30 32855 N 3140.96 1.3882 0.746109 0
M  V30 32856 C 3142.19 1.38687 1.53536 0
M  V30 32857 C 3142.61 -0.0214707 1.88788 0
M  V30 32858 O 3141.96 -0.990005 1.53314 0
M  V30 32859 C 3142.01 2.24947 2.82986 0
M  V30 32860 O 3141.73 3.60296 2.49235 0
M  V30 32861 C 3143.24 2.33077 3.77081 0
M  V30 32862 H 3140.46 0.474103 0.474834 0
M  V30 32863 H 3143 1.82495 0.922812 0
M  V30 32864 H 3141.15 1.84582 3.406 0
M  V30 32865 H 3141.57 4.05795 3.32311 0
M  V30 32866 H 3143.04 2.97704 4.6484 0
M  V30 32867 H 3143.52 1.34662 4.18046 0
M  V30 32868 H 3144.13 2.73865 3.25389 0
M  V30 32869 N 3142.44 -0.975103 1.23812 0
M  V30 32870 C 3143.37 -2.08636 1.04849 0
M  V30 32871 C 3144.35 -1.70061 -0.036256 0
M  V30 32872 O 3145.54 -1.93768 0.129404 0
M  V30 32873 C 3142.67 -3.41266 0.644594 0
M  V30 32874 C 3141.62 -3.93765 1.67728 0
M  V30 32875 C 3140.95 -5.22652 1.12867 0
M  V30 32876 C 3142.25 -4.22437 3.07155 0
M  V30 32877 H 3143.94 -2.24758 1.97799 0
M  V30 32878 H 3141.49 -1.08005 0.952416 0
M  V30 32879 H 3143.44 -4.18436 0.498961 0
M  V30 32880 H 3142.16 -3.25023 -0.320583 0
M  V30 32881 H 3140.82 -3.18745 1.811 0
M  V30 32882 H 3140.47 -5.02763 0.154316 0
M  V30 32883 H 3140.17 -5.58745 1.81872 0
M  V30 32884 H 3141.69 -6.02439 0.994997 0
M  V30 32885 H 3143.11 -4.90338 2.97054 0
M  V30 32886 H 3141.51 -4.69743 3.73445 0
M  V30 32887 H 3142.58 -3.29501 3.55749 0
M  V30 32888 N 3143.92 -1.05068 -1.17467 0
M  V30 32889 C 3145.14 -0.780332 -1.9216 0
M  V30 32890 C 3145.57 0.657801 -1.76223 0
M  V30 32891 O 3144.93 1.45686 -1.07913 0
M  V30 32892 C 3144.97 -1.1642 -3.4129 0
M  V30 32893 O 3144.08 -0.295603 -4.11339 0
M  V30 32894 H 3143.42 -0.286268 -0.599122 0
M  V30 32895 H 3145.95 -1.4032 -1.48901 0
M  V30 32896 H 3145.96 -1.13043 -3.92027 0
M  V30 32897 H 3144.63 -2.21181 -3.5221 0
M  V30 32898 H 3143.21 -0.389863 -3.70856 0
M  V30 32899 N 3145.4 1.33878 -0.831529 0
M  V30 32900 C 3146.62 2.02766 -0.435989 0
M  V30 32901 C 3147.05 1.62179 0.952861 0
M  V30 32902 O 3146.4 0.810709 1.62164 0
M  V30 32903 C 3146.45 3.56288 -0.55597 0
M  V30 32904 O 3145.56 4.10248 0.420754 0
M  V30 32905 H 3144.9 0.639625 -0.178259 0
M  V30 32906 H 3147.43 1.70939 -1.12433 0
M  V30 32907 H 3147.44 4.05675 -0.434902 0
M  V30 32908 H 3146.11 3.85174 -1.56887 0
M  V30 32909 H 3144.69 3.72007 0.257854 0
M  V30 32910 N 3146.87 0.587281 1.46249 0
M  V30 32911 C 3147.8 -0.131035 2.33132 0
M  V30 32912 C 3148.79 -0.879133 1.4562 0
M  V30 32913 O 3149.97 -0.853692 1.7443 0
M  V30 32914 C 3147.1 -1.1423 3.27977 0
M  V30 32915 C 3146.05 -0.508744 4.24966 0
M  V30 32916 C 3145.38 -1.62681 5.09352 0
M  V30 32917 C 3146.68 0.557031 5.19321 0
M  V30 32918 H 3148.37 0.594384 2.93441 0
M  V30 32919 H 3145.92 0.287287 1.41105 0
M  V30 32920 H 3147.87 -1.65322 3.87617 0
M  V30 32921 H 3146.6 -1.89805 2.65785 0
M  V30 32922 H 3145.26 -0.0188693 3.66595 0
M  V30 32923 H 3144.9 -2.37234 4.43542 0
M  V30 32924 H 3144.6 -1.20851 5.75038 0
M  V30 32925 H 3146.13 -2.14039 5.71856 0
M  V30 32926 H 3147.54 0.131004 5.7315 0
M  V30 32927 H 3145.94 0.895905 5.93375 0
M  V30 32928 H 3147.01 1.44156 4.62976 0
M  V30 32929 N 3148.35 -1.54206 0.325309 0
M  V30 32930 C 3149.58 -2.05482 -0.281382 0
M  V30 32931 C 3150 -1.1998 -1.44867 0
M  V30 32932 O 3149.36 -0.209306 -1.80088 0
M  V30 32933 C 3149.41 -3.53899 -0.691967 0
M  V30 32934 O 3148.51 -3.71328 -1.79414 0
M  V30 32935 H 3147.85 -0.662079 -0.0504756 0
M  V30 32936 H 3150.38 -1.99028 0.474226 0
M  V30 32937 H 3150.39 -3.962 -0.974149 0
M  V30 32938 H 3149.07 -4.15585 0.161783 0
M  V30 32939 H 3147.65 -3.40932 -1.51063 0
M  V30 32940 N 3149.83 -0.0535194 -1.57509 0
M  V30 32941 C 3150.76 0.917961 -2.14699 0
M  V30 32942 C 3151.74 1.32291 -1.06926 0
M  V30 32943 O 3152.93 1.3972 -1.34877 0
M  V30 32944 C 3150.06 2.19198 -2.69387 0
M  V30 32945 C 3149.01 1.92703 -3.82164 0
M  V30 32946 C 3148.34 3.26579 -4.23379 0
M  V30 32947 C 3149.64 1.24677 -5.07201 0
M  V30 32948 H 3151.33 0.441598 -2.96125 0
M  V30 32949 H 3148.88 0.210968 -1.42446 0
M  V30 32950 H 3150.83 2.87561 -3.08036 0
M  V30 32951 H 3149.55 2.69044 -1.85156 0
M  V30 32952 H 3148.21 1.26751 -3.43991 0
M  V30 32953 H 3147.86 3.74231 -3.36095 0
M  V30 32954 H 3147.56 3.09649 -4.99391 0
M  V30 32955 H 3149.09 3.9617 -4.6463 0
M  V30 32956 H 3150.5 1.83078 -5.43282 0
M  V30 32957 H 3148.9 1.18065 -5.88371 0
M  V30 32958 H 3149.97 0.223142 -4.84386 0
M  V30 32959 N 3151.31 1.56059 0.219886 0
M  V30 32960 C 3152.54 1.83234 0.960882 0
M  V30 32961 C 3152.95 0.632859 1.77877 0
M  V30 32962 O 3152.31 -0.398593 1.78094 0
M  V30 32963 C 3152.36 3.08945 1.8771 0
M  V30 32964 O 3152.08 4.24265 1.09227 0
M  V30 32965 C 3153.58 3.4912 2.73186 0
M  V30 32966 H 3150.8 0.60908 0.281535 0
M  V30 32967 H 3153.35 2.0315 0.234613 0
M  V30 32968 H 3151.5 2.91 2.5573 0
M  V30 32969 H 3151.92 4.95691 1.71438 0
M  V30 32970 H 3153.39 4.40113 3.33174 0
M  V30 32971 H 3153.87 2.7095 3.45663 0
M  V30 32972 H 3154.47 3.6951 2.10576 0
M  V30 32973 N 3152.79 -0.486655 1.49898 0
M  V30 32974 C 3154.01 -1.2682 1.64108 0
M  V30 32975 C 3154.44 -1.85392 0.317999 0
M  V30 32976 O 3153.8 -1.66553 -0.716231 0
M  V30 32977 C 3153.84 -2.36394 2.72305 0
M  V30 32978 O 3152.95 -3.4063 2.32475 0
M  V30 32979 H 3152.29 -0.373783 0.548801 0
M  V30 32980 H 3154.82 -0.580983 1.96178 0
M  V30 32981 H 3154.83 -2.81943 2.94911 0
M  V30 32982 H 3153.5 -1.93131 3.68338 0
M  V30 32983 H 3152.08 -3.00901 2.20257 0
M  V30 32984 N 3154.27 -1.39214 -0.738737 0
M  V30 32985 C 3155.2 -1.40367 -1.866 0
M  V30 32986 C 3156.18 -0.267525 -1.67983 0
M  V30 32987 O 3157.36 -0.472798 -1.88357 0
M  V30 32988 C 3154.49 -1.2427 -3.24306 0
M  V30 32989 C 3153.45 -2.35245 -3.57552 0
M  V30 32990 C 3152.77 -2.04241 -4.94155 0
M  V30 32991 C 3154.07 -3.77549 -3.60907 0
M  V30 32992 H 3155.77 -2.34701 -1.85892 0
M  V30 32993 H 3153.31 -1.12972 -0.892939 0
M  V30 32994 H 3155.26 -1.23699 -4.02836 0
M  V30 32995 H 3153.99 -0.264032 -3.25531 0
M  V30 32996 H 3152.65 -2.35027 -2.8135 0
M  V30 32997 H 3152.3 -1.04821 -4.91957 0
M  V30 32998 H 3152 -2.78576 -5.17368 0
M  V30 32999 H 3153.52 -2.05313 -5.75047 0
M  V30 33000 H 3154.93 -3.79717 -4.29521 0
M  V30 33001 H 3153.33 -4.51212 -3.95636 0
M  V30 33002 H 3154.4 -4.08795 -2.60796 0
M  V30 33003 N 3155.74 0.968523 -1.24328 0
M  V30 33004 C 3156.99 1.71139 -1.08248 0
M  V30 33005 C 3157.32 1.90776 0.378808 0
M  V30 33006 O 3156.57 1.46609 1.29631 0
M  V30 33007 C 3156.87 3.10692 -1.7665 0
M  V30 33008 C 3156.54 3.10899 -3.26577 0
M  V30 33009 C 3155.2 3.10663 -3.67481 0
M  V30 33010 C 3157.55 3.05295 -4.22427 0
M  V30 33011 C 3154.88 3.02553 -5.02671 0
M  V30 33012 C 3157.23 2.98727 -5.57624 0
M  V30 33013 C 3155.9 2.96819 -5.97875 0
M  V30 33014 H 3155.17 0.626242 -0.396109 0
M  V30 33015 H 3157.81 1.13255 -1.5442 0
M  V30 33016 H 3156.12 3.72035 -1.2287 0
M  V30 33017 H 3157.82 3.66964 -1.61674 0
M  V30 33018 H 3154.41 3.11847 -2.94023 0
M  V30 33019 H 3158.59 3.04607 -3.91827 0
M  V30 33020 H 3153.85 2.99436 -5.33055 0
M  V30 33021 H 3158.02 2.9335 -6.316 0
M  V30 33022 H 3155.65 2.90291 -7.02592 0
M  V30 33023 N 3157.22 1.0569 1.16908 0
M  V30 33024 C 3158.46 0.779077 1.8897 0
M  V30 33025 C 3158.83 -0.681676 1.79491 0
M  V30 33026 O 3160.03 -1.07382 2.46419 0
M  V30 33027 C 3158.3 1.25248 3.34735 0
M  V30 33028 S 3159.86 1.10279 4.24716 0
M  V30 33029 H 3156.67 0.282787 0.652344 0
M  V30 33030 H 3159.28 1.35256 1.4116 0
M  V30 33031 H 3157.98 2.31066 3.3917 0
M  V30 33032 H 3157.51 0.673485 3.87592 0
M  V30 33033 H 3159.53 0.0299876 4.96191 0
M  V30 33034 N 3158.7 -1.33435 0.838617 0
M  V30 33035 C 3160.11 -1.80129 0.490966 0
M  V30 33036 C 3160.46 -1.69392 -0.989994 0
M  V30 33037 O 3159.59 -1.24305 -1.77136 0
M  V30 33038 C 3160.18 -3.27053 0.884405 0
M  V30 33039 C 3158.74 -3.71765 0.588894 0
M  V30 33040 C 3157.89 -2.54856 1.09287 0
M  V30 33041 H 3160.84 -1.2096 1.02734 0
M  V30 33042 H 3160.86 -3.80003 0.19435 0
M  V30 33043 H 3160.37 -3.34836 1.96231 0
M  V30 33044 H 3158.47 -3.69509 -0.478953 0
M  V30 33045 H 3158.59 -4.65242 1.14395 0
M  V30 33046 H 3156.95 -2.49465 0.513746 0
M  V30 33047 H 3157.73 -2.65401 2.17754 0
M  V30 33048 N 3160.18 -0.595029 -1.45935 0
M  V30 33049 C 3161.59 -0.171812 -1.85908 0
M  V30 33050 C 3161.94 1.26822 -1.49702 0
M  V30 33051 O 3161.06 1.95977 -0.917722 0
M  V30 33052 C 3161.66 -0.305035 -3.37424 0
M  V30 33053 C 3160.22 0.0633973 -3.76347 0
M  V30 33054 C 3159.37 -0.635303 -2.69924 0
M  V30 33055 H 3162.32 -0.802495 -1.36915 0
M  V30 33056 H 3162.34 0.466246 -3.77633 0
M  V30 33057 H 3161.85 -1.3532 -3.63744 0
M  V30 33058 H 3159.95 1.11123 -3.55644 0
M  V30 33059 H 3160.06 -0.321503 -4.7802 0
M  V30 33060 H 3158.43 -0.0742502 -2.54592 0
M  V30 33061 H 3159.21 -1.68536 -2.99083 0
M  V30 33062 N 3161.66 1.54031 -0.333483 0
M  V30 33063 C 3163.07 1.86076 0.152527 0
M  V30 33064 C 3163.42 1.25494 1.50817 0
M  V30 33065 O 3162.54 0.564701 2.08902 0
M  V30 33066 C 3163.14 3.37611 0.28354 0
M  V30 33067 C 3161.7 3.6957 0.713776 0
M  V30 33068 C 3160.84 2.76846 -0.158564 0
M  V30 33069 H 3163.79 1.48738 -0.55343 0
M  V30 33070 H 3163.82 3.63865 1.11277 0
M  V30 33071 H 3163.33 3.81675 -0.70326 0
M  V30 33072 H 3161.43 3.31045 1.70996 0
M  V30 33073 H 3161.54 4.76371 0.510647 0
M  V30 33074 H 3159.91 2.52035 0.367487 0
M  V30 33075 H 3160.69 3.23738 -1.14231 0
M  V30 33076 N 3163.13 0.0618717 1.57479 0
M  V30 33077 C 3164.54 -0.472263 1.80628 0
M  V30 33078 C 3164.9 -1.7026 0.97499 0
M  V30 33079 O 3164.02 -2.15523 0.194638 0
M  V30 33080 C 3164.62 -0.863558 3.2761 0
M  V30 33081 C 3163.17 -1.34261 3.5164 0
M  V30 33082 C 3162.32 -0.322961 2.75413 0
M  V30 33083 H 3165.27 0.287662 1.56071 0
M  V30 33084 H 3165.29 -1.72571 3.39116 0
M  V30 33085 H 3164.81 0.0320908 3.88087 0
M  V30 33086 H 3162.91 -2.25709 2.96456 0
M  V30 33087 H 3163.02 -1.32739 4.60345 0
M  V30 33088 H 3161.38 -0.798133 2.41872 0
M  V30 33089 H 3162.17 0.564788 3.38622 0
M  V30 33090 N 3164.61 -1.56173 -0.211607 0
M  V30 33091 C 3166.02 -1.69729 -0.777746 0
M  V30 33092 C 3166.37 -0.665612 -1.84564 0
M  V30 33093 O 3165.5 0.1813 -2.15639 0
M  V30 33094 C 3166.09 -3.07721 -1.41751 0
M  V30 33095 C 3164.65 -3.23098 -1.93093 0
M  V30 33096 C 3163.8 -2.65667 -0.794739 0
M  V30 33097 H 3166.75 -1.58695 0.0132118 0
M  V30 33098 H 3166.77 -3.04132 -2.28657 0
M  V30 33099 H 3166.28 -3.82786 -0.640047 0
M  V30 33100 H 3164.39 -2.52919 -2.7361 0
M  V30 33101 H 3164.5 -4.30425 -2.10406 0
M  V30 33102 H 3162.86 -2.24409 -1.20469 0
M  V30 33103 H 3163.65 -3.43287 -0.0297805 0
M  V30 33104 N 3166.09 0.478699 -1.50154 0
M  V30 33105 C 3167.5 1.05976 -1.53708 0
M  V30 33106 C 3167.85 1.93299 -0.336146 0
M  V30 33107 O 3166.98 2.09247 0.551767 0
M  V30 33108 C 3167.57 1.92869 -2.78544 0
M  V30 33109 C 3166.13 2.46097 -2.84804 0
M  V30 33110 C 3165.28 1.24253 -2.47904 0
M  V30 33111 H 3168.23 0.261637 -1.56528 0
M  V30 33112 H 3168.25 2.77842 -2.59969 0
M  V30 33113 H 3167.76 1.29287 -3.65932 0
M  V30 33114 H 3165.86 3.13254 -2.0175 0
M  V30 33115 H 3165.98 2.81724 -3.87516 0
M  V30 33116 H 3164.34 1.57489 -2.00173 0
M  V30 33117 H 3165.12 0.623451 -3.37591 0
M  V30 33118 N 3167.57 1.39603 0.731343 0
M  V30 33119 C 3168.53 1.38386 1.82707 0
M  V30 33120 C 3169.53 0.280337 1.58337 0
M  V30 33121 O 3170.72 0.538432 1.6567 0
M  V30 33122 C 3167.85 1.16008 3.20554 0
M  V30 33123 H 3169.05 2.35892 1.85189 0
M  V30 33124 H 3166.6 1.25222 0.935374 0
M  V30 33125 H 3167.33 0.191984 3.23731 0
M  V30 33126 H 3167.12 1.95926 3.3964 0
M  V30 33127 H 3168.61 1.17906 4.0061 0
M  V30 33128 N 3169.05 -0.961916 1.2484 0
M  V30 33129 C 3170.46 -1.52028 1.08371 0
M  V30 33130 C 3170.81 -1.93179 -0.342971 0
M  V30 33131 O 3169.93 -1.77902 -1.23206 0
M  V30 33132 C 3170.53 -2.76274 1.96107 0
M  V30 33133 C 3169.09 -3.28448 1.83845 0
M  V30 33134 C 3168.23 -2.01323 1.90694 0
M  V30 33135 H 3171.19 -0.779588 1.38232 0
M  V30 33136 H 3171.21 -3.49825 1.49676 0
M  V30 33137 H 3170.72 -2.46293 2.99936 0
M  V30 33138 H 3168.82 -3.63267 0.828717 0
M  V30 33139 H 3168.93 -3.96956 2.68258 0
M  V30 33140 H 3167.3 -2.16296 1.34492 0
M  V30 33141 H 3168.08 -1.73699 2.96114 0
M  V30 33142 N 3170.52 -1.06308 -1.16346 0
M  V30 33143 C 3171.77 -0.778344 -1.86511 0
M  V30 33144 C 3172.09 0.697241 -1.82109 0
M  V30 33145 O 3171.36 1.50444 -1.25473 0
M  V30 33146 H 3169.94 -0.284931 -0.690524 0
M  V30 33147 H 3172.61 -1.34461 -1.4109 0
M  V30 33148 H 3171.7 -1.10338 -2.91945 0
M  V30 33149 N 3172 1.32989 -0.845682 0
M  V30 33150 C 3172.93 2.31578 -0.298998 0
M  V30 33151 C 3173.91 1.5928 0.596984 0
M  V30 33152 O 3175.1 1.87133 0.51911 0
M  V30 33153 C 3172.23 3.43369 0.521048 0
M  V30 33154 C 3171.18 4.27085 -0.279726 0
M  V30 33155 C 3170.51 5.30555 0.664497 0
M  V30 33156 C 3171.81 5.00281 -1.50055 0
M  V30 33157 H 3173.5 2.77551 -1.12277 0
M  V30 33158 H 3171.05 1.33437 -0.541343 0
M  V30 33159 H 3173 4.11372 0.913849 0
M  V30 33160 H 3171.73 2.96102 1.37809 0
M  V30 33161 H 3170.38 3.60716 -0.654169 0
M  V30 33162 H 3170.03 4.79543 1.51813 0
M  V30 33163 H 3169.73 5.8745 0.132768 0
M  V30 33164 H 3171.26 6.01423 1.05467 0
M  V30 33165 H 3172.67 5.61014 -1.18054 0
M  V30 33166 H 3171.07 5.66858 -1.96956 0
M  V30 33167 H 3172.14 4.28661 -2.26666 0
M  V30 33168 N 3173.48 0.60276 1.45618 0
M  V30 33169 C 3174.71 0.10229 2.06647 0
M  V30 33170 C 3175.12 -1.21128 1.44822 0
M  V30 33171 O 3174.48 -1.73675 0.560651 0
M  V30 33172 C 3174.53 -0.0489478 3.61467 0
M  V30 33173 O 3174.25 1.21265 4.20983 0
M  V30 33174 C 3175.75 -0.581439 4.3947 0
M  V30 33175 H 3172.97 0.0666273 0.667684 0
M  V30 33176 H 3175.52 0.829123 1.86938 0
M  V30 33177 H 3173.67 -0.726087 3.80535 0
M  V30 33178 H 3174.09 1.03924 5.14101 0
M  V30 33179 H 3175.56 -0.636366 5.4832 0
M  V30 33180 H 3176.04 -1.6027 4.08913 0
M  V30 33181 H 3176.64 0.0614937 4.25256 0
M  V30 33182 N 3174.96 -1.53852 0.341647 0
M  V30 33183 C 3176.37 -1.86154 -0.142657 0
M  V30 33184 C 3176.72 -1.26292 -1.50149 0
M  V30 33185 O 3175.85 -0.575772 -2.086 0
M  V30 33186 C 3176.44 -3.37757 -0.265632 0
M  V30 33187 C 3175 -3.69944 -0.694166 0
M  V30 33188 C 3174.15 -2.76758 0.173243 0
M  V30 33189 H 3177.1 -1.48442 0.56131 0
M  V30 33190 H 3177.12 -3.6445 -1.09346 0
M  V30 33191 H 3176.63 -3.81297 0.723491 0
M  V30 33192 H 3174.73 -3.31948 -1.69238 0
M  V30 33193 H 3174.84 -4.76635 -0.485377 0
M  V30 33194 H 3173.21 -2.52226 -0.354116 0
M  V30 33195 H 3173.99 -3.23127 1.15946 0
M  V30 33196 N 3176.44 -0.0702223 -1.57443 0
M  V30 33197 C 3177.4 0.882886 -2.11513 0
M  V30 33198 C 3178.4 1.22741 -1.03881 0
M  V30 33199 O 3179.59 1.16094 -1.29876 0
M  V30 33200 C 3176.72 2.18681 -2.61518 0
M  V30 33201 H 3177.91 0.413821 -2.97031 0
M  V30 33202 H 3175.47 0.178461 -1.55278 0
M  V30 33203 H 3176.2 2.70128 -1.79448 0
M  V30 33204 H 3175.99 1.94972 -3.40188 0
M  V30 33205 H 3177.48 2.86914 -3.0343 0
M  V30 33206 N 3177.91 1.56283 0.203321 0
M  V30 33207 C 3179.33 1.49683 0.553814 0
M  V30 33208 C 3179.53 0.768734 1.8626 0
M  V30 33209 O 3178.59 0.315868 2.50517 0
M  V30 33210 C 3179.9 2.94319 0.616164 0
M  V30 33211 C 3181.45 3.04944 0.705557 0
M  V30 33212 C 3181.92 4.50975 0.799091 0
M  V30 33213 N 3183.41 4.55093 0.862836 0
M  V30 33214 C 3184.15 5.65387 0.955234 0
M  V30 33215 N 3183.64 6.85392 1.01045 0
M  V30 33216 N 3185.44 5.53281 0.991786 0
M  V30 33217 H 3177.59 2.02039 -0.65528 0
M  V30 33218 H 3179.85 0.919083 -0.23236 0
M  V30 33219 H 3179.56 3.50613 -0.276251 0
M  V30 33220 H 3179.43 3.47222 1.47365 0
M  V30 33221 H 3181.82 2.48704 1.58841 0
M  V30 33222 H 3181.9 2.5518 -0.177966 0
M  V30 33223 H 3181.54 5.07838 -0.0793733 0
M  V30 33224 H 3181.47 4.98463 1.6983 0
M  V30 33225 H 3183.96 3.68678 0.829747 0
M  V30 33226 H 3184.28 7.65199 1.08123 0
M  V30 33227 H 3182.62 6.88066 0.979263 0
M  V30 33228 H 3185.81 4.58453 0.945434 0
M  V30 33229 H 3185.99 6.39266 1.06034 0
M  V30 33230 N 3179.39 -0.470729 1.50406 0
M  V30 33231 C 3180.34 -1.56868 1.69296 0
M  V30 33232 C 3181.31 -1.57273 0.534276 0
M  V30 33233 O 3182.5 -1.74797 0.764886 0
M  V30 33234 C 3179.64 -2.94839 1.79343 0
M  V30 33235 C 3178.75 -3.0422 3.06715 0
M  V30 33236 C 3177.88 -4.33108 3.07556 0
M  V30 33237 C 3176.92 -4.36233 4.2938 0
M  V30 33238 N 3176.06 -5.56593 4.27958 0
M  V30 33239 H 3180.9 -1.40066 2.63031 0
M  V30 33240 H 3178.44 -0.680993 1.30387 0
M  V30 33241 H 3180.39 -3.7485 1.83149 0
M  V30 33242 H 3179.02 -3.10275 0.890466 0
M  V30 33243 H 3178.08 -2.17081 3.12378 0
M  V30 33244 H 3179.39 -3.02389 3.96689 0
M  V30 33245 H 3178.54 -5.21466 3.10093 0
M  V30 33246 H 3177.28 -4.37549 2.15412 0
M  V30 33247 H 3176.29 -3.46272 4.27054 0
M  V30 33248 H 3177.51 -4.33484 5.22751 0
M  V30 33249 H 3175.46 -5.61818 3.38668 0
M  V30 33250 H 3175.37 -5.56504 5.11702 0
M  V30 33251 H 3176.64 -6.47075 4.34642 0
M  V30 33252 N 3180.87 -1.39989 -0.72393 0
M  V30 33253 C 3182.12 -1.37815 -1.48369 0
M  V30 33254 C 3182.45 0.0222943 -1.94487 0
M  V30 33255 O 3181.7 1.00526 -1.67908 0
M  V30 33256 C 3182 -2.30663 -2.73 0
M  V30 33257 C 3181.67 -3.78083 -2.45691 0
M  V30 33258 C 3180.33 -4.18248 -2.37953 0
M  V30 33259 C 3182.68 -4.71277 -2.22593 0
M  V30 33260 C 3180.01 -5.49655 -2.05173 0
M  V30 33261 C 3182.36 -6.02973 -1.91328 0
M  V30 33262 C 3181.02 -6.4219 -1.82066 0
M  V30 33263 H 3180.29 -0.504301 -0.54292 0
M  V30 33264 H 3182.94 -1.7258 -0.829956 0
M  V30 33265 H 3181.25 -1.89054 -3.4317 0
M  V30 33266 H 3182.94 -2.26268 -3.31064 0
M  V30 33267 H 3179.53 -3.46255 -2.52597 0
M  V30 33268 H 3183.72 -4.4107 -2.27533 0
M  V30 33269 H 3178.97 -5.78951 -1.96534 0
M  V30 33270 H 3183.15 -6.74706 -1.72467 0
M  V30 33271 H 3180.77 -7.43931 -1.56433 0
M  V30 33272 N 3182.35 0.955282 -1.25348 0
M  V30 33273 C 3183.57 1.73981 -1.12895 0
M  V30 33274 C 3184 1.8547 0.313423 0
M  V30 33275 O 3183.36 1.33467 1.22704 0
M  V30 33276 C 3183.41 3.13187 -1.78735 0
M  V30 33277 O 3182.51 3.9837 -1.06655 0
M  V30 33278 H 3181.85 0.534334 -0.394187 0
M  V30 33279 H 3184.38 1.19745 -1.65899 0
M  V30 33280 H 3184.39 3.6365 -1.84994 0
M  V30 33281 H 3183.07 3.04141 -2.83674 0
M  V30 33282 H 3181.64 3.56836 -1.08272 0
M  V30 33283 N 3183.83 1.06924 1.1578 0
M  V30 33284 C 3185.05 0.810805 1.90895 0
M  V30 33285 C 3185.48 -0.629683 1.77247 0
M  V30 33286 O 3184.84 -1.43951 1.10217 0
M  V30 33287 C 3184.88 1.21835 3.39394 0
M  V30 33288 O 3183.99 0.361006 4.10817 0
M  V30 33289 H 3183.33 0.295763 0.594492 0
M  V30 33290 H 3185.86 1.42671 1.46649 0
M  V30 33291 H 3185.87 1.19266 3.90179 0
M  V30 33292 H 3184.54 2.26756 3.48646 0
M  V30 33293 H 3183.12 0.448813 3.70189 0
M  V30 33294 N 3185.31 -1.32538 0.852723 0
M  V30 33295 C 3186.53 -2.01512 0.469079 0
M  V30 33296 C 3186.95 -1.64098 -0.933672 0
M  V30 33297 O 3186.31 -0.861311 -1.60897 0
M  V30 33298 C 3186.36 -3.56548 0.596291 0
M  V30 33299 O 3186.08 -3.92618 1.94378 0
M  V30 33300 C 3187.58 -4.42796 0.211402 0
M  V30 33301 H 3184.8 -0.645108 0.1846 0
M  V30 33302 H 3187.34 -1.69161 1.14913 0
M  V30 33303 H 3185.5 -3.87383 -0.0360031 0
M  V30 33304 H 3185.91 -4.87336 1.93918 0
M  V30 33305 H 3187.39 -5.5088 0.351421 0
M  V30 33306 H 3187.86 -4.30936 -0.847979 0
M  V30 33307 H 3188.47 -4.17346 0.818691 0
M  V30 33308 N 3186.78 -0.610474 -1.45296 0
M  V30 33309 C 3188.01 -0.11145 -2.071 0
M  V30 33310 C 3188.43 1.19622 -1.45163 0
M  V30 33311 O 3187.79 1.72902 -0.545398 0
M  V30 33312 C 3187.84 0.0116738 -3.60598 0
M  V30 33313 O 3186.94 1.06115 -3.98514 0
M  V30 33314 H 3186.28 -0.0753756 -0.659708 0
M  V30 33315 H 3188.81 -0.841301 -1.86503 0
M  V30 33316 H 3188.82 0.208957 -4.07465 0
M  V30 33317 H 3187.5 -0.943147 -4.05065 0
M  V30 33318 H 3186.08 0.840094 -3.63314 0
M  V30 33319 N 3188.26 1.53669 -0.349801 0
M  V30 33320 C 3189.49 2.05904 0.248656 0
M  V30 33321 C 3189.91 1.22269 1.4294 0
M  V30 33322 O 3189.27 0.23793 1.79732 0
M  V30 33323 C 3189.32 3.54955 0.635577 0
M  V30 33324 O 3188.42 3.74135 1.73483 0
M  V30 33325 H 3187.76 0.662798 0.0399361 0
M  V30 33326 H 3190.29 1.98249 -0.50583 0
M  V30 33327 H 3190.3 3.977 0.910994 0
M  V30 33328 H 3188.98 4.15275 -0.227878 0
M  V30 33329 H 3187.55 3.43292 1.4562 0
M  V30 33330 N 3189.74 0.0785709 1.57404 0
M  V30 33331 C 3190.67 -0.883688 2.16132 0
M  V30 33332 C 3191.65 -1.30573 1.09017 0
M  V30 33333 O 3192.84 -1.37557 1.37083 0
M  V30 33334 C 3189.97 -2.14885 2.7284 0
M  V30 33335 C 3188.92 -1.86599 3.85182 0
M  V30 33336 C 3188.25 -3.19803 4.28521 0
M  V30 33337 C 3189.55 -1.16592 5.0912 0
M  V30 33338 H 3191.24 -0.394431 2.9679 0
M  V30 33339 H 3188.79 -0.188279 1.42764 0
M  V30 33340 H 3190.74 -2.82624 3.12572 0
M  V30 33341 H 3189.46 -2.66065 1.89413 0
M  V30 33342 H 3188.12 -1.21262 3.45964 0
M  V30 33343 H 3187.77 -3.68837 3.42006 0
M  V30 33344 H 3187.47 -3.01665 5.04254 0
M  V30 33345 H 3188.99 -3.88728 4.70874 0
M  V30 33346 H 3190.41 -1.74412 5.46126 0
M  V30 33347 H 3188.8 -1.0869 5.90175 0
M  V30 33348 H 3189.87 -0.146052 4.8468 0
M  V30 33349 N 3191.22 -1.56389 -0.19503 0
M  V30 33350 C 3192.18 -1.93694 -1.22537 0
M  V30 33351 C 3193.18 -0.818064 -1.38435 0
M  V30 33352 O 3194.37 -1.08548 -1.36246 0
M  V30 33353 C 3191.5 -2.21104 -2.59472 0
M  V30 33354 H 3192.7 -2.85872 -0.906494 0
M  V30 33355 H 3190.25 -1.5008 -0.436551 0
M  V30 33356 H 3190.98 -1.31564 -2.96414 0
M  V30 33357 H 3190.77 -3.02638 -2.49304 0
M  V30 33358 H 3192.26 -2.5097 -3.33772 0
M  V30 33359 N 3192.7 0.462746 -1.50653 0
M  V30 33360 C 3193.66 1.5421 -1.69564 0
M  V30 33361 C 3194.66 1.50504 -0.566132 0
M  V30 33362 O 3195.85 1.52976 -0.8333 0
M  V30 33363 C 3192.98 2.93823 -1.72861 0
M  V30 33364 H 3194.17 1.38757 -2.65869 0
M  V30 33365 H 3191.73 0.689703 -1.4026 0
M  V30 33366 H 3192.46 3.14711 -0.782785 0
M  V30 33367 H 3192.25 2.97919 -2.54925 0
M  V30 33368 H 3193.74 3.7217 -1.89417 0
M  V30 33369 N 3194.17 1.40371 0.716495 0
M  V30 33370 C 3195.59 1.34429 1.2956 0
M  V30 33371 C 3195.94 0.0173451 1.96192 0
M  V30 33372 O 3195.06 -0.884684 1.9749 0
M  V30 33373 C 3195.66 2.43474 2.35596 0
M  V30 33374 C 3194.22 2.40995 2.89134 0
M  V30 33375 C 3193.36 2.244 1.62911 0
M  V30 33376 H 3196.31 1.50191 0.512688 0
M  V30 33377 H 3196.33 2.11329 3.16418 0
M  V30 33378 H 3195.85 3.40038 1.87071 0
M  V30 33379 H 3193.95 1.48126 3.41891 0
M  V30 33380 H 3194.06 3.36546 3.40989 0
M  V30 33381 H 3192.42 1.71899 1.87944 0
M  V30 33382 H 3193.21 3.2296 1.16412 0
M  V30 33383 N 3195.65 -0.948621 1.25853 0
M  V30 33384 C 3196.9 -1.69061 1.10738 0
M  V30 33385 C 3197.22 -1.91811 -0.351224 0
M  V30 33386 O 3196.49 -1.50949 -1.24864 0
M  V30 33387 H 3195.07 -0.626512 0.406807 0
M  V30 33388 H 3197.73 -1.1402 1.58068 0
M  V30 33389 H 3196.83 -2.6674 1.62038 0
M  V30 33390 N 3197.13 -1.07536 -1.15212 0
M  V30 33391 C 3198.55 -0.801252 -1.38029 0
M  V30 33392 C 3198.75 0.593638 -1.92557 0
M  V30 33393 O 3197.8 1.35202 -2.13252 0
M  V30 33394 C 3199.12 -1.87661 -2.34955 0
M  V30 33395 C 3200.66 -1.90158 -2.48614 0
M  V30 33396 C 3201.14 -2.96783 -3.48832 0
M  V30 33397 N 3202.63 -2.95898 -3.56369 0
M  V30 33398 C 3203.36 -3.75044 -4.33739 0
M  V30 33399 N 3202.86 -4.64045 -5.14426 0
M  V30 33400 N 3204.65 -3.63383 -4.28846 0
M  V30 33401 H 3196.8 -1.97496 -0.781604 0
M  V30 33402 H 3199.07 -0.856553 -0.406227 0
M  V30 33403 H 3198.77 -2.87898 -2.02008 0
M  V30 33404 H 3198.65 -1.73833 -3.34757 0
M  V30 33405 H 3201.03 -0.905716 -2.80857 0
M  V30 33406 H 3201.12 -2.08065 -1.48804 0
M  V30 33407 H 3200.76 -3.96571 -3.17323 0
M  V30 33408 H 3200.69 -2.76123 -4.48401 0
M  V30 33409 H 3203.18 -2.31384 -2.9878 0
M  V30 33410 H 3203.49 -5.21063 -5.70713 0
M  V30 33411 H 3201.84 -4.68093 -5.13726 0
M  V30 33412 H 3205.03 -2.93228 -3.64877 0
M  V30 33413 H 3205.2 -4.25306 -4.88895 0
M  V30 33414 N 3198.61 1.32084 -0.85974 0
M  V30 33415 C 3200.02 1.79325 -0.519561 0
M  V30 33416 C 3200.37 1.70945 0.96292 0
M  V30 33417 O 3199.5 1.27107 1.75136 0
M  V30 33418 C 3200.09 3.25605 -0.936324 0
M  V30 33419 C 3198.65 3.70781 -0.647964 0
M  V30 33420 C 3197.8 2.53085 -1.13328 0
M  V30 33421 H 3200.75 1.19311 -1.04645 0
M  V30 33422 H 3200.77 3.79646 -0.254781 0
M  V30 33423 H 3200.28 3.31672 -2.01533 0
M  V30 33424 H 3198.38 3.70224 0.420107 0
M  V30 33425 H 3198.49 4.63364 -1.21782 0
M  V30 33426 H 3196.86 2.48616 -0.553369 0
M  V30 33427 H 3197.64 2.61904 -2.21949 0
M  V30 33428 N 3200.09 0.618171 1.4497 0
M  V30 33429 C 3201.04 -0.116079 2.27704 0
M  V30 33430 C 3202.02 -0.828533 1.37928 0
M  V30 33431 O 3203.21 -0.716778 1.61837 0
M  V30 33432 C 3200.34 -1.10573 3.25005 0
M  V30 33433 C 3199.43 -0.393566 4.2227 0
M  V30 33434 N 3199.82 0.57067 5.0257 0
M  V30 33435 C 3198.12 -0.639732 4.41388 0
M  V30 33436 C 3198.82 0.990244 5.73209 0
M  V30 33437 N 3197.79 0.331748 5.42587 0
M  V30 33438 H 3201.6 0.624346 2.87192 0
M  V30 33439 H 3199.11 0.442658 1.56251 0
M  V30 33440 H 3201.11 -1.64624 3.8302 0
M  V30 33441 H 3199.77 -1.84659 2.67079 0
M  V30 33442 H 3200.78 0.947904 5.09151 0
M  V30 33443 H 3197.45 -1.36446 3.94574 0
M  V30 33444 H 3198.84 1.78612 6.47725 0
M  V30 33445 N 3201.56 -1.53481 0.357946 0
M  V30 33446 C 3202.53 -2.24123 -0.479757 0
M  V30 33447 C 3203.53 -1.24641 -1.01594 0
M  V30 33448 O 3204.72 -1.48974 -0.902902 0
M  V30 33449 C 3201.85 -2.97206 -1.66978 0
M  V30 33450 H 3203.04 -2.99581 0.138272 0
M  V30 33451 H 3200.6 -1.55916 0.109511 0
M  V30 33452 H 3201.33 -2.2597 -2.32611 0
M  V30 33453 H 3201.12 -3.7019 -1.29235 0
M  V30 33454 H 3202.61 -3.50928 -2.26361 0
M  V30 33455 N 3203.04 -0.0869173 -1.5736 0
M  V30 33456 C 3204.01 0.860402 -2.12438 0
M  V30 33457 C 3205.01 1.21632 -1.05177 0
M  V30 33458 O 3206.2 1.1471 -1.311 0
M  V30 33459 C 3203.33 2.15895 -2.63822 0
M  V30 33460 H 3204.52 0.382293 -2.97453 0
M  V30 33461 H 3202.07 0.161981 -1.55458 0
M  V30 33462 H 3202.81 2.68209 -1.82303 0
M  V30 33463 H 3202.59 1.91353 -3.42237 0
M  V30 33464 H 3204.08 2.8368 -3.06457 0
M  V30 33465 N 3204.52 1.5649 0.186734 0
M  V30 33466 C 3205.48 1.94341 1.21508 0
M  V30 33467 C 3206.48 0.825394 1.38 0
M  V30 33468 O 3207.67 1.09269 1.35669 0
M  V30 33469 C 3204.81 2.22477 2.58296 0
M  V30 33470 H 3206 2.86349 0.891321 0
M  V30 33471 H 3203.55 1.50309 0.428586 0
M  V30 33472 H 3204.29 1.33134 2.95713 0
M  V30 33473 H 3204.07 3.03956 2.47696 0
M  V30 33474 H 3205.56 2.52736 3.32437 0
M  V30 33475 N 3206 -0.45475 1.50897 0
M  V30 33476 C 3206.93 -1.55837 1.73888 0
M  V30 33477 C 3207.91 -1.59606 0.5882 0
M  V30 33478 O 3209.09 -1.75613 0.829085 0
M  V30 33479 C 3206.22 -2.94051 1.84801 0
M  V30 33480 C 3205.18 -3.05146 3.00116 0
M  V30 33481 C 3204.5 -4.45169 2.96191 0
M  V30 33482 C 3205.8 -2.80842 4.4037 0
M  V30 33483 H 3207.5 -1.3685 2.66294 0
M  V30 33484 H 3205.04 -0.656913 1.28143 0
M  V30 33485 H 3207 -3.71201 1.99469 0
M  V30 33486 H 3205.72 -3.14231 0.89029 0
M  V30 33487 H 3204.38 -2.30432 2.85125 0
M  V30 33488 H 3204.03 -4.62291 1.98232 0
M  V30 33489 H 3203.73 -4.53525 3.73616 0
M  V30 33490 H 3205.25 -5.24316 3.12929 0
M  V30 33491 H 3206.67 -3.47733 4.55801 0
M  V30 33492 H 3205.06 -3.00627 5.19368 0
M  V30 33493 H 3206.13 -1.76571 4.51609 0
M  V30 33494 N 3207.48 -1.40749 -0.709041 0
M  V30 33495 C 3208.44 -1.41275 -1.80482 0
M  V30 33496 C 3209.44 -0.305491 -1.57871 0
M  V30 33497 O 3210.63 -0.56472 -1.64792 0
M  V30 33498 C 3207.76 -1.21093 -3.18668 0
M  V30 33499 H 3208.95 -2.38809 -1.81412 0
M  V30 33500 H 3206.51 -1.26694 -0.915334 0
M  V30 33501 H 3207.24 -0.243462 -3.23385 0
M  V30 33502 H 3207.03 -2.01305 -3.3648 0
M  V30 33503 H 3208.52 -1.24264 -3.98683 0
M  V30 33504 N 3208.96 0.941933 -1.26354 0
M  V30 33505 C 3209.91 2.02633 -1.04516 0
M  V30 33506 C 3210.89 1.60885 0.0222031 0
M  V30 33507 O 3212.08 1.75926 -0.19466 0
M  V30 33508 C 3209.21 3.36511 -0.679341 0
M  V30 33509 C 3208.3 3.84746 -1.78412 0
M  V30 33510 N 3208.69 4.0564 -3.02143 0
M  V30 33511 C 3206.99 4.13653 -1.66755 0
M  V30 33512 C 3207.69 4.45582 -3.7394 0
M  V30 33513 N 3206.66 4.52243 -3.01624 0
M  V30 33514 H 3210.46 2.16798 -1.98434 0
M  V30 33515 H 3207.98 1.12772 -1.1686 0
M  V30 33516 H 3209.98 4.13842 -0.504048 0
M  V30 33517 H 3208.64 3.23718 0.252361 0
M  V30 33518 H 3209.65 3.9235 -3.38056 0
M  V30 33519 H 3206.32 4.09652 -0.805699 0
M  V30 33520 H 3207.71 4.69945 -4.80209 0
M  V30 33521 N 3210.43 1.08146 1.1464 0
M  V30 33522 C 3211.68 0.807918 1.85249 0
M  V30 33523 C 3212 -0.668181 1.83195 0
M  V30 33524 O 3211.27 -1.48429 1.27851 0
M  V30 33525 H 3209.85 0.295881 0.685904 0
M  V30 33526 H 3212.51 1.36689 1.38933 0
M  V30 33527 H 3211.61 1.14969 2.90153 0
M  V30 33528 N 3211.91 -1.31626 0.866732 0
M  V30 33529 C 3212.84 -2.31073 0.335802 0
M  V30 33530 C 3213.82 -1.6021 -0.571569 0
M  V30 33531 O 3215.01 -1.87936 -0.489273 0
M  V30 33532 C 3212.14 -3.44155 -0.466355 0
M  V30 33533 C 3211.09 -4.26586 0.347636 0
M  V30 33534 C 3210.42 -5.31545 -0.580007 0
M  V30 33535 C 3211.72 -4.9783 1.57995 0
M  V30 33536 H 3213.41 -2.75729 1.16678 0
M  V30 33537 H 3210.96 -1.32559 0.562503 0
M  V30 33538 H 3212.91 -4.12774 -0.848287 0
M  V30 33539 H 3211.63 -2.98257 -1.33081 0
M  V30 33540 H 3210.29 -3.5963 0.711473 0
M  V30 33541 H 3209.94 -4.81898 -1.44165 0
M  V30 33542 H 3209.64 -5.87587 -0.0392932 0
M  V30 33543 H 3211.17 -6.03024 -0.958852 0
M  V30 33544 H 3212.58 -5.59064 1.26964 0
M  V30 33545 H 3210.98 -5.63653 2.05949 0
M  V30 33546 H 3212.05 -4.25001 2.33457 0
M  V30 33547 N 3213.39 -0.62585 -1.4464 0
M  V30 33548 C 3214.35 0.0724857 -2.29085 0
M  V30 33549 C 3215.35 0.777443 -1.40757 0
M  V30 33550 O 3216.54 0.622832 -1.62685 0
M  V30 33551 C 3213.67 1.11314 -3.22214 0
M  V30 33552 H 3214.87 -0.670175 -2.92316 0
M  V30 33553 H 3212.42 -0.385737 -1.51465 0
M  V30 33554 H 3213.16 1.88596 -2.63822 0
M  V30 33555 H 3212.94 0.611641 -3.873 0
M  V30 33556 H 3214.43 1.60168 -3.85663 0
M  V30 33557 N 3214.87 1.53289 -0.36608 0
M  V30 33558 C 3216.28 1.59593 -0.0150429 0
M  V30 33559 C 3216.48 1.38118 1.46716 0
M  V30 33560 O 3215.54 1.1866 2.22881 0
M  V30 33561 C 3216.85 2.96982 -0.471426 0
M  V30 33562 C 3218.4 3.10092 -0.425689 0
M  V30 33563 C 3218.88 4.49894 -0.857891 0
M  V30 33564 N 3220.37 4.5601 -0.81297 0
M  V30 33565 C 3221.1 5.62374 -1.11908 0
M  V30 33566 N 3220.6 6.76489 -1.49448 0
M  V30 33567 N 3222.39 5.52361 -1.04184 0
M  V30 33568 H 3214.54 1.655 -1.3313 0
M  V30 33569 H 3216.8 0.776251 -0.544185 0
M  V30 33570 H 3216.51 3.17837 -1.50574 0
M  V30 33571 H 3216.38 3.76934 0.141698 0
M  V30 33572 H 3218.77 2.88946 0.599497 0
M  V30 33573 H 3218.85 2.32147 -1.07431 0
M  V30 33574 H 3218.5 4.71777 -1.8812 0
M  V30 33575 H 3218.43 5.2627 -0.186512 0
M  V30 33576 H 3220.92 3.74074 -0.536408 0
M  V30 33577 H 3221.23 7.53591 -1.7123 0
M  V30 33578 H 3219.58 6.77879 -1.53314 0
M  V30 33579 H 3222.77 4.62089 -0.747735 0
M  V30 33580 H 3222.94 6.35157 -1.28373 0
M  V30 33581 N 3216.35 0.0952613 1.57312 0
M  V30 33582 C 3217.57 -0.580171 1.9912 0
M  V30 33583 C 3218 -1.6092 0.973983 0
M  V30 33584 O 3217.35 -1.81209 -0.057502 0
M  V30 33585 C 3217.4 -1.20432 3.39895 0
M  V30 33586 O 3216.51 -2.32013 3.40945 0
M  V30 33587 H 3215.85 -0.147183 0.647482 0
M  V30 33588 H 3218.38 0.176721 2.03835 0
M  V30 33589 H 3218.39 -1.54558 3.77592 0
M  V30 33590 H 3217.06 -0.450442 4.13454 0
M  V30 33591 H 3215.64 -1.99505 3.15043 0
M  V30 33592 N 3217.82 -1.56587 -0.178432 0
M  V30 33593 C 3219.23 -1.71341 -0.741569 0
M  V30 33594 C 3219.59 -0.704611 -1.83111 0
M  V30 33595 O 3218.71 0.135519 -2.15975 0
M  V30 33596 C 3219.31 -3.10658 -1.35192 0
M  V30 33597 C 3217.86 -3.27121 -1.86196 0
M  V30 33598 C 3217.01 -2.67293 -0.738208 0
M  V30 33599 H 3219.96 -1.58631 0.0468703 0
M  V30 33600 H 3219.98 -3.08914 -2.22155 0
M  V30 33601 H 3219.5 -3.84057 -0.558708 0
M  V30 33602 H 3217.6 -2.58666 -2.68184 0
M  V30 33603 H 3217.71 -4.34791 -2.01229 0
M  V30 33604 H 3216.07 -2.26914 -1.15682 0
M  V30 33605 H 3216.86 -3.43273 0.0430425 0
M  V30 33606 N 3219.3 0.446741 -1.51136 0
M  V30 33607 C 3220.53 1.22424 -1.67413 0
M  V30 33608 C 3220.95 1.84484 -0.367041 0
M  V30 33609 O 3220.31 1.68393 0.671821 0
M  V30 33610 C 3220.36 2.29092 -2.78477 0
M  V30 33611 O 3219.46 3.34347 -2.41425 0
M  V30 33612 H 3218.8 0.359101 -0.558518 0
M  V30 33613 H 3221.33 0.528765 -1.97649 0
M  V30 33614 H 3221.34 2.74025 -3.02282 0
M  V30 33615 H 3220.02 1.83297 -3.7333 0
M  V30 33616 H 3218.59 2.94956 -2.28157 0
M  V30 33617 N 3220.78 1.41123 0.701567 0
M  V30 33618 C 3222.03 1.41367 1.46243 0
M  V30 33619 C 3222.38 0.0201 1.9239 0
M  V30 33620 O 3221.67 -0.952941 1.66221 0
M  V30 33621 C 3221.87 2.34977 2.69296 0
M  V30 33622 C 3221.7 3.83298 2.35186 0
M  V30 33623 C 3220.47 4.52021 2.25842 0
M  V30 33624 C 3222.66 4.7443 1.98547 0
M  V30 33625 N 3220.65 5.85502 1.84554 0
M  V30 33626 C 3222.02 5.96813 1.67971 0
M  V30 33627 C 3224.07 4.62133 1.85305 0
M  V30 33628 C 3222.78 7.0827 1.25483 0
M  V30 33629 C 3224.8 5.73545 1.44222 0
M  V30 33630 C 3224.16 6.95023 1.14552 0
M  V30 33631 H 3220.26 0.572528 0.532669 0
M  V30 33632 H 3222.85 1.76947 0.812265 0
M  V30 33633 H 3221.02 2.01502 3.32041 0
M  V30 33634 H 3222.75 2.25982 3.3573 0
M  V30 33635 H 3219.5 4.05882 2.44043 0
M  V30 33636 H 3219.93 6.56229 1.66409 0
M  V30 33637 H 3224.57 3.68718 2.06899 0
M  V30 33638 H 3222.29 8.01556 1.02633 0
M  V30 33639 H 3225.87 5.66032 1.34534 0
M  V30 33640 H 3224.75 7.79769 0.832419 0
M  V30 33641 N 3222.26 -0.935219 1.26852 0
M  V30 33642 C 3223.22 -2.01634 1.08979 0
M  V30 33643 C 3224.22 -1.60759 0.0361826 0
M  V30 33644 O 3225.41 -1.71933 0.280118 0
M  V30 33645 C 3222.54 -3.34472 0.65889 0
M  V30 33646 H 3223.74 -2.18921 2.04972 0
M  V30 33647 H 3221.29 -1.11499 1.09533 0
M  V30 33648 H 3222.02 -3.22884 -0.302768 0
M  V30 33649 H 3221.81 -3.65494 1.41973 0
M  V30 33650 H 3223.3 -4.13884 0.555856 0
M  V30 33651 N 3223.74 -1.08752 -1.14065 0
M  V30 33652 C 3224.7 -0.724379 -2.17452 0
M  V30 33653 C 3225.7 0.242586 -1.5896 0
M  V30 33654 O 3226.89 0.0216702 -1.74187 0
M  V30 33655 C 3224.02 -0.0700835 -3.40828 0
M  V30 33656 H 3225.21 -1.63991 -2.51092 0
M  V30 33657 H 3222.77 -0.885835 -1.28774 0
M  V30 33658 H 3223.5 0.857006 -3.12771 0
M  V30 33659 H 3223.29 -0.765758 -3.8455 0
M  V30 33660 H 3224.78 0.168832 -4.17259 0
M  V30 33661 N 3225.21 1.31165 -0.873701 0
M  V30 33662 C 3226.49 1.91318 -0.407013 0
M  V30 33663 C 3226.87 1.79482 1.11127 0
M  V30 33664 O 3226.22 1.20487 1.94153 0
M  V30 33665 C 3226.43 3.37394 -0.892543 0
M  V30 33666 C 3227.78 4.14494 -0.920868 0
M  V30 33667 O 3228.8 3.46191 -0.838446 0
M  V30 33668 O 3227.66 5.36498 -1.04079 0
M  V30 33669 H 3224.75 0.817884 -0.122454 0
M  V30 33670 H 3227.3 1.39808 -0.961859 0
M  V30 33671 H 3226.07 3.4004 -1.93619 0
M  V30 33672 H 3225.7 3.96341 -0.316219 0
M  V30 33673 N 3226.69 0.633512 1.44307 0
M  V30 33674 C 3228.11 0.299338 1.56768 0
M  V30 33675 C 3228.31 -1.19741 1.62063 0
M  V30 33676 O 3227.36 -1.98155 1.56496 0
M  V30 33677 C 3228.68 0.993357 2.83818 0
M  V30 33678 C 3230.23 0.971727 2.97534 0
M  V30 33679 C 3230.7 1.64626 4.2739 0
M  V30 33680 N 3232.19 1.61296 4.34209 0
M  V30 33681 C 3232.93 2.10379 5.33412 0
M  V30 33682 N 3232.42 2.67664 6.39005 0
M  V30 33683 N 3234.22 2.00994 5.24936 0
M  V30 33684 H 3226.37 1.60504 1.39113 0
M  V30 33685 H 3228.63 0.673863 0.666792 0
M  V30 33686 H 3228.34 2.04829 2.85899 0
M  V30 33687 H 3228.21 0.532603 3.73421 0
M  V30 33688 H 3230.6 -0.0747335 2.95005 0
M  V30 33689 H 3230.68 1.47099 2.09274 0
M  V30 33690 H 3230.32 2.69218 4.30679 0
M  V30 33691 H 3230.25 1.1218 5.14513 0
M  V30 33692 H 3232.74 1.19474 3.58517 0
M  V30 33693 H 3233.06 3.02844 7.10989 0
M  V30 33694 H 3231.4 2.71716 6.39684 0
M  V30 33695 H 3234.59 1.55961 4.41355 0
M  V30 33696 H 3234.76 2.39557 6.02093 0
M  V30 33697 N 3228.17 -1.53093 0.374204 0
M  V30 33698 C 3229.4 -2.06274 -0.215867 0
M  V30 33699 C 3229.82 -1.24528 -1.40977 0
M  V30 33700 O 3229.18 -0.266494 -1.79331 0
M  V30 33701 C 3229.23 -3.55921 -0.579026 0
M  V30 33702 O 3228.33 -3.76848 -1.67509 0
M  V30 33703 H 3227.67 -0.663349 -0.0293865 0
M  V30 33704 H 3230.2 -1.97419 0.537305 0
M  V30 33705 H 3230.21 -3.99098 -0.847608 0
M  V30 33706 H 3228.89 -4.1486 0.293916 0
M  V30 33707 H 3227.46 -3.45565 -1.4014 0
M  V30 33708 N 3229.65 -0.103603 -1.57259 0
M  V30 33709 C 3230.6 0.852257 -2.14488 0
M  V30 33710 C 3231.57 1.27405 -1.0657 0
M  V30 33711 O 3232.75 1.3543 -1.344 0
M  V30 33712 C 3229.89 2.1028 -2.73636 0
M  V30 33713 C 3229 1.73076 -3.95814 0
M  V30 33714 C 3228.14 2.92981 -4.43098 0
M  V30 33715 C 3227.18 2.51944 -5.57845 0
M  V30 33716 N 3226.31 3.6471 -5.99942 0
M  V30 33717 H 3231.15 0.357378 -2.95849 0
M  V30 33718 H 3228.69 0.164722 -1.46175 0
M  V30 33719 H 3230.65 2.83528 -3.06051 0
M  V30 33720 H 3229.28 2.57253 -1.94989 0
M  V30 33721 H 3228.33 0.897623 -3.69658 0
M  V30 33722 H 3229.64 1.38908 -4.79068 0
M  V30 33723 H 3228.8 3.74472 -4.77342 0
M  V30 33724 H 3227.54 3.30365 -3.58762 0
M  V30 33725 H 3226.54 1.68881 -5.2322 0
M  V30 33726 H 3227.77 2.15693 -6.43936 0
M  V30 33727 H 3225.71 4.01798 -5.18551 0
M  V30 33728 H 3225.63 3.34415 -6.78014 0
M  V30 33729 H 3226.9 4.46687 -6.3882 0
M  V30 33730 N 3231.13 1.56679 0.170126 0
M  V30 33731 C 3232.4 1.72937 0.913908 0
M  V30 33732 C 3232.78 0.665328 2.00341 0
M  V30 33733 O 3232.13 -0.319676 2.26253 0
M  V30 33734 C 3232.34 3.16179 1.47755 0
M  V30 33735 C 3233.69 3.77174 1.95001 0
M  V30 33736 O 3234.71 3.19465 1.57546 0
M  V30 33737 O 3233.57 4.78505 2.63998 0
M  V30 33738 H 3230.67 0.706263 0.430257 0
M  V30 33739 H 3233.21 1.68964 0.157861 0
M  V30 33740 H 3231.98 3.85106 0.693452 0
M  V30 33741 H 3231.61 3.24483 2.29775 0
M  V30 33742 N 3232.6 -0.43872 1.5137 0
M  V30 33743 C 3234.02 -1.01863 1.56463 0
M  V30 33744 C 3234.37 -1.9234 0.387278 0
M  V30 33745 O 3233.49 -2.10637 -0.496094 0
M  V30 33746 C 3234.09 -1.85416 2.8356 0
M  V30 33747 C 3232.65 -2.38459 2.91229 0
M  V30 33748 C 3231.79 -1.17637 2.51111 0
M  V30 33749 H 3234.74 -0.220044 1.57167 0
M  V30 33750 H 3234.76 -2.70852 2.67244 0
M  V30 33751 H 3234.28 -1.19539 3.69232 0
M  V30 33752 H 3232.38 -3.07795 2.09984 0
M  V30 33753 H 3232.49 -2.71351 3.94849 0
M  V30 33754 H 3230.85 -1.52127 2.04278 0
M  V30 33755 H 3231.64 -0.533725 3.39126 0
M  V30 33756 N 3234.08 -1.41493 -0.694073 0
M  V30 33757 C 3235.49 -1.36473 -1.27405 0
M  V30 33758 C 3235.84 -0.0485554 -1.9614 0
M  V30 33759 O 3234.97 0.853153 -1.98872 0
M  V30 33760 C 3235.56 -2.47192 -2.31693 0
M  V30 33761 C 3234.12 -2.45564 -2.85263 0
M  V30 33762 C 3233.27 -2.26963 -1.59321 0
M  V30 33763 H 3236.22 -1.50987 -0.488729 0
M  V30 33764 H 3236.24 -2.16336 -3.13016 0
M  V30 33765 H 3235.75 -3.42971 -1.81638 0
M  V30 33766 H 3233.86 -1.53546 -3.39491 0
M  V30 33767 H 3233.97 -3.41928 -3.35592 0
M  V30 33768 H 3232.33 -1.74867 -1.85185 0
M  V30 33769 H 3233.12 -3.24771 -1.11259 0
M  V30 33770 N 3235.56 0.928479 -1.27346 0
M  V30 33771 C 3236.81 1.67277 -1.13414 0
M  V30 33772 C 3237.13 1.92345 0.320664 0
M  V30 33773 O 3236.4 1.52917 1.22447 0
M  V30 33774 H 3234.98 0.619961 -0.416722 0
M  V30 33775 H 3237.64 1.1149 -1.59862 0
M  V30 33776 H 3236.74 2.64128 -1.66261 0
M  V30 33777 N 3237.04 1.09355 1.13486 0
M  V30 33778 C 3238.45 0.82311 1.36737 0
M  V30 33779 C 3238.65 -0.562929 1.93477 0
M  V30 33780 O 3237.71 -1.31793 2.15376 0
M  V30 33781 C 3239.02 1.91375 2.3194 0
M  V30 33782 C 3240.57 1.9409 2.45557 0
M  V30 33783 C 3241.05 3.02295 3.44066 0
M  V30 33784 N 3242.54 3.0153 3.51616 0
M  V30 33785 C 3243.27 3.81897 4.27717 0
M  V30 33786 N 3242.77 4.7217 5.06979 0
M  V30 33787 N 3244.56 3.70159 4.23011 0
M  V30 33788 H 3236.71 1.98715 0.750085 0
M  V30 33789 H 3238.98 0.862907 0.392549 0
M  V30 33790 H 3238.68 2.91076 1.97403 0
M  V30 33791 H 3238.56 1.79136 3.31949 0
M  V30 33792 H 3240.94 0.950283 2.79381 0
M  V30 33793 H 3241.02 2.10406 1.45475 0
M  V30 33794 H 3240.67 4.01569 3.10974 0
M  V30 33795 H 3240.6 2.83222 4.43951 0
M  V30 33796 H 3243.09 2.36108 2.95061 0
M  V30 33797 H 3243.4 5.30077 5.62351 0
M  V30 33798 H 3241.75 4.76206 5.06214 0
M  V30 33799 H 3244.94 2.98995 3.60166 0
M  V30 33800 H 3245.11 4.3303 4.82067 0
M  V30 33801 N 3238.52 -1.307 0.880644 0
M  V30 33802 C 3239.48 -2.26525 0.349127 0
M  V30 33803 C 3240.48 -1.52633 -0.505946 0
M  V30 33804 O 3241.67 -1.71352 -0.313721 0
M  V30 33805 C 3238.8 -3.37169 -0.502964 0
M  V30 33806 H 3240 -2.75054 1.19521 0
M  V30 33807 H 3237.55 -1.41815 0.657132 0
M  V30 33808 H 3238.28 -2.9395 -1.36981 0
M  V30 33809 H 3238.07 -3.91947 0.109458 0
M  V30 33810 H 3239.56 -4.08506 -0.866773 0
M  V30 33811 N 3240 -0.641156 -1.43969 0
M  V30 33812 C 3241.41 -0.23087 -1.85267 0
M  V30 33813 C 3241.76 1.21995 -1.53661 0
M  V30 33814 O 3240.88 1.92958 -0.979606 0
M  V30 33815 C 3241.48 -0.41223 -3.36283 0
M  V30 33816 C 3240.04 -0.0563666 -3.76358 0
M  V30 33817 C 3239.18 -0.720856 -2.67767 0
M  V30 33818 H 3242.13 -0.845647 -1.34293 0
M  V30 33819 H 3242.16 0.345869 -3.78925 0
M  V30 33820 H 3241.67 -1.46824 -3.59255 0
M  V30 33821 H 3239.77 0.997519 -3.58999 0
M  V30 33822 H 3239.88 -0.473419 -4.76755 0
M  V30 33823 H 3238.25 -0.155209 -2.54227 0
M  V30 33824 H 3239.03 -1.77966 -2.9357 0
M  V30 33825 N 3241.47 1.52892 -0.382318 0
M  V30 33826 C 3242.4 2.29166 0.447789 0
M  V30 33827 C 3243.38 1.32269 1.06953 0
M  V30 33828 O 3244.57 1.61156 1.08363 0
M  V30 33829 C 3241.7 3.09332 1.57896 0
M  V30 33830 C 3240.65 4.14055 1.08362 0
M  V30 33831 C 3239.98 4.82403 2.30633 0
M  V30 33832 C 3241.28 5.22065 0.156499 0
M  V30 33833 H 3242.97 2.98805 -0.188593 0
M  V30 33834 H 3240.52 1.43705 -0.0921432 0
M  V30 33835 H 3242.47 3.61445 2.16645 0
M  V30 33836 H 3241.2 2.37413 2.24283 0
M  V30 33837 H 3239.86 3.62912 0.518708 0
M  V30 33838 H 3239.5 4.07039 2.95513 0
M  V30 33839 H 3239.2 5.53181 1.98154 0
M  V30 33840 H 3240.73 5.37318 2.90037 0
M  V30 33841 H 3242.14 5.69581 0.651965 0
M  V30 33842 H 3240.54 6.00049 -0.0782033 0
M  V30 33843 H 3241.61 4.78312 -0.796613 0
M  V30 33844 N 3242.95 0.111941 1.57202 0
M  V30 33845 C 3244.36 -0.414559 1.82039 0
M  V30 33846 C 3244.71 -1.67072 1.02866 0
M  V30 33847 O 3243.84 -2.14795 0.263106 0
M  V30 33848 C 3244.43 -0.758895 3.30191 0
M  V30 33849 C 3242.99 -1.23006 3.55734 0
M  V30 33850 C 3242.14 -0.235177 2.76301 0
M  V30 33851 H 3245.09 0.337169 1.55077 0
M  V30 33852 H 3245.11 -1.61695 3.44434 0
M  V30 33853 H 3244.62 0.155541 3.87788 0
M  V30 33854 H 3242.72 -2.16164 3.03487 0
M  V30 33855 H 3242.84 -1.18026 4.64335 0
M  V30 33856 H 3241.2 -0.720779 2.44288 0
M  V30 33857 H 3241.98 0.672233 3.36654 0
M  V30 33858 N 3244.43 -1.56767 -0.161814 0
M  V30 33859 C 3245.36 -1.92263 -1.22924 0
M  V30 33860 C 3246.34 -0.786587 -1.42308 0
M  V30 33861 O 3247.52 -1.0408 -1.57161 0
M  V30 33862 C 3244.65 -2.18181 -2.59065 0
M  V30 33863 C 3243.7 -3.40853 -2.56362 0
M  V30 33864 S 3244.53 -4.9491 -2.04509 0
M  V30 33865 C 3245.69 -5.23934 -3.42409 0
M  V30 33866 H 3245.92 -2.825 -0.926327 0
M  V30 33867 H 3243.45 -1.4998 -0.366796 0
M  V30 33868 H 3245.41 -2.33794 -3.37417 0
M  V30 33869 H 3244.07 -1.28634 -2.86552 0
M  V30 33870 H 3243.26 -3.56219 -3.56545 0
M  V30 33871 H 3242.87 -3.24405 -1.86111 0
M  V30 33872 H 3245.16 -5.16494 -4.38452 0
M  V30 33873 H 3246.1 -6.25493 -3.31909 0
M  V30 33874 H 3246.51 -4.5148 -3.3886 0
M  V30 33875 N 3245.91 0.430686 -1.51601 0
M  V30 33876 C 3247.16 1.17723 -1.64273 0
M  V30 33877 C 3247.48 1.91564 -0.364439 0
M  V30 33878 O 3246.75 1.85831 0.619959 0
M  V30 33879 H 3245.33 0.437552 -0.60544 0
M  V30 33880 H 3247.99 0.493133 -1.88558 0
M  V30 33881 H 3247.08 1.90316 -2.47358 0
M  V30 33882 N 3247.39 1.4186 0.686559 0
M  V30 33883 C 3248.32 1.47196 1.81261 0
M  V30 33884 C 3249.3 0.329686 1.66874 0
M  V30 33885 O 3250.48 0.54238 1.86472 0
M  V30 33886 C 3247.61 1.36221 3.1947 0
M  V30 33887 C 3246.57 2.48353 3.48575 0
M  V30 33888 C 3245.89 2.22441 4.86235 0
M  V30 33889 C 3247.19 3.90684 3.46646 0
M  V30 33890 H 3248.89 2.41439 1.77053 0
M  V30 33891 H 3246.43 1.16208 0.850395 0
M  V30 33892 H 3248.38 1.38565 3.97967 0
M  V30 33893 H 3247.11 0.384668 3.24327 0
M  V30 33894 H 3245.77 2.45307 2.72433 0
M  V30 33895 H 3245.42 1.23008 4.87727 0
M  V30 33896 H 3245.12 2.97585 5.06672 0
M  V30 33897 H 3246.64 2.26514 5.6703 0
M  V30 33898 H 3248.05 3.95396 4.15132 0
M  V30 33899 H 3246.45 4.65585 3.78617 0
M  V30 33900 H 3247.52 4.18193 2.45444 0
M  V30 33901 N 3248.86 -0.921712 1.27837 0
M  V30 33902 C 3250.11 -1.66674 1.14299 0
M  V30 33903 C 3250.43 -1.92513 -0.310459 0
M  V30 33904 O 3249.7 -1.53564 -1.21634 0
M  V30 33905 H 3248.28 -0.617742 0.420004 0
M  V30 33906 H 3250.94 -1.10641 1.60451 0
M  V30 33907 H 3250.04 -2.63243 1.67659 0
M  V30 33908 N 3250.34 -1.09956 -1.12905 0
M  V30 33909 C 3251.75 -0.857446 -1.65846 0
M  V30 33910 C 3252.1 0.613144 -1.86373 0
M  V30 33911 O 3251.23 1.47163 -1.58657 0
M  V30 33912 C 3251.82 -1.54996 -3.01267 0
M  V30 33913 C 3250.38 -1.35468 -3.51177 0
M  V30 33914 C 3249.53 -1.60255 -2.26305 0
M  V30 33915 H 3252.48 -1.25796 -0.967528 0
M  V30 33916 H 3252.5 -0.986155 -3.67499 0
M  V30 33917 H 3252.01 -2.62025 -2.86294 0
M  V30 33918 H 3250.11 -0.305807 -3.71343 0
M  V30 33919 H 3250.23 -2.09326 -4.30952 0
M  V30 33920 H 3248.59 -1.02498 -2.33166 0
M  V30 33921 H 3249.37 -2.68524 -2.13891 0
M  V30 33922 N 3251.82 1.30231 -0.887563 0
M  V30 33923 C 3252.75 2.30509 -0.372521 0
M  V30 33924 C 3253.73 1.61099 0.546008 0
M  V30 33925 O 3254.92 1.8869 0.459312 0
M  V30 33926 C 3252.05 3.44853 0.411544 0
M  V30 33927 C 3251 4.25979 -0.415458 0
M  V30 33928 C 3250.33 5.324 0.495369 0
M  V30 33929 C 3251.63 4.95254 -1.65895 0
M  V30 33930 H 3253.32 2.73838 -1.2105 0
M  V30 33931 H 3250.87 1.31647 -0.583521 0
M  V30 33932 H 3252.82 4.14071 0.782511 0
M  V30 33933 H 3251.54 3.00336 1.28319 0
M  V30 33934 H 3250.2 3.58452 -0.768597 0
M  V30 33935 H 3249.85 4.8413 1.3648 0
M  V30 33936 H 3249.55 5.87575 -0.0541917 0
M  V30 33937 H 3251.07 6.04473 0.862795 0
M  V30 33938 H 3252.49 5.56974 -1.35842 0
M  V30 33939 H 3250.88 5.60305 -2.14891 0
M  V30 33940 H 3251.95 4.21233 -2.40189 0
M  V30 33941 N 3253.3 0.648782 1.43627 0
M  V30 33942 C 3254.26 -0.036031 2.29172 0
M  V30 33943 C 3255.26 -0.754951 1.41976 0
M  V30 33944 O 3256.45 -0.596871 1.63655 0
M  V30 33945 C 3253.58 -1.06174 3.23944 0
M  V30 33946 H 3254.78 0.716595 2.91213 0
M  V30 33947 H 3252.33 0.409785 1.50833 0
M  V30 33948 H 3253.06 -1.84375 2.66789 0
M  V30 33949 H 3252.85 -0.549948 3.88224 0
M  V30 33950 H 3254.34 -1.54012 3.88162 0
M  V30 33951 N 3254.78 -1.52688 0.390421 0
M  V30 33952 C 3256.19 -1.86514 -0.0833612 0
M  V30 33953 C 3256.54 -1.31005 -1.46055 0
M  V30 33954 O 3255.66 -0.641845 -2.06662 0
M  V30 33955 C 3256.26 -3.38431 -0.158042 0
M  V30 33956 C 3254.82 -3.71965 -0.57612 0
M  V30 33957 C 3253.96 -2.76067 0.261204 0
M  V30 33958 H 3256.92 -1.46581 0.608251 0
M  V30 33959 H 3256.94 -3.67744 -0.976958 0
M  V30 33960 H 3256.45 -3.78802 0.844432 0
M  V30 33961 H 3254.55 -3.37164 -1.58592 0
M  V30 33962 H 3254.66 -4.77938 -0.333493 0
M  V30 33963 H 3253.03 -2.53225 -0.273692 0
M  V30 33964 H 3253.81 -3.19275 1.26168 0
M  V30 33965 N 3256.25 -0.120276 -1.5714 0
M  V30 33966 C 3257.67 0.404899 -1.82257 0
M  V30 33967 C 3258.02 1.66524 -1.03751 0
M  V30 33968 O 3257.14 2.14652 -0.274493 0
M  V30 33969 C 3257.74 0.741373 -3.30589 0
M  V30 33970 C 3256.3 1.21118 -3.56381 0
M  V30 33971 C 3255.44 0.220521 -2.76422 0
M  V30 33972 H 3258.39 -0.345388 -1.54896 0
M  V30 33973 H 3258.41 1.59866 -3.45287 0
M  V30 33974 H 3257.93 -0.176105 -3.877 0
M  V30 33975 H 3256.03 2.14551 -3.04629 0
M  V30 33976 H 3256.14 1.15562 -4.64954 0
M  V30 33977 H 3254.5 0.707814 -2.44667 0
M  V30 33978 H 3255.29 -0.690077 -3.36293 0
M  V30 33979 N 3257.73 1.56851 0.153498 0
M  V30 33980 C 3259.14 1.72499 0.714216 0
M  V30 33981 C 3259.49 0.733653 1.81967 0
M  V30 33982 O 3258.62 -0.101142 2.16164 0
M  V30 33983 C 3259.21 3.1277 1.30233 0
M  V30 33984 C 3257.77 3.30042 1.80968 0
M  V30 33985 C 3256.92 2.68434 0.69559 0
M  V30 33986 H 3259.87 1.58536 -0.0721011 0
M  V30 33987 H 3259.89 3.12409 2.17212 0
M  V30 33988 H 3259.4 3.84898 0.497537 0
M  V30 33989 H 3257.51 2.629 2.64035 0
M  V30 33990 H 3257.62 4.37938 1.94287 0
M  V30 33991 H 3255.98 2.28725 1.12057 0
M  V30 33992 H 3256.77 3.43161 -0.0976488 0
M  V30 33993 N 3259.21 -0.42264 1.51827 0
M  V30 33994 C 3260.14 -1.53272 1.70412 0
M  V30 33995 C 3261.16 -1.51941 0.584611 0
M  V30 33996 O 3262.34 -1.56451 0.859376 0
M  V30 33997 C 3259.44 -2.92182 1.71705 0
M  V30 33998 C 3258.62 -3.17856 3.00477 0
M  V30 33999 C 3257.68 -4.36566 2.93762 0
M  V30 34000 O 3256.7 -4.34503 3.67689 0
M  V30 34001 N 3257.9 -5.40943 2.10622 0
M  V30 34002 H 3260.67 -1.37729 2.66178 0
M  V30 34003 H 3258.23 -0.611773 1.49896 0
M  V30 34004 H 3260.22 -3.69642 1.64762 0
M  V30 34005 H 3258.79 -3.0125 0.834708 0
M  V30 34006 H 3258.01 -2.28561 3.21175 0
M  V30 34007 H 3259.3 -3.31844 3.8569 0
M  V30 34008 H 3258.7 -5.45461 1.49963 0
M  V30 34009 H 3257.26 -6.17198 2.09546 0
M  V30 34010 N 3260.69 -1.42222 -0.679027 0
M  V30 34011 C 3262.1 -1.37817 -1.2595 0
M  V30 34012 C 3262.45 -0.0693559 -1.96077 0
M  V30 34013 O 3261.58 0.832012 -1.99766 0
M  V30 34014 C 3262.17 -2.49635 -2.29058 0
M  V30 34015 C 3260.73 -2.48576 -2.82643 0
M  V30 34016 C 3259.88 -2.2864 -1.56905 0
M  V30 34017 H 3262.83 -1.51497 -0.472688 0
M  V30 34018 H 3262.85 -2.19644 -3.10704 0
M  V30 34019 H 3262.36 -3.44879 -1.7799 0
M  V30 34020 H 3260.46 -1.57138 -3.37844 0
M  V30 34021 H 3260.57 -3.45468 -3.31946 0
M  V30 34022 H 3258.94 -1.76822 -1.8332 0
M  V30 34023 H 3259.72 -3.25933 -1.07808 0
M  V30 34024 N 3262.17 0.91492 -1.28324 0
M  V30 34025 C 3263.1 2.03396 -1.14684 0
M  V30 34026 C 3264.08 1.70041 -0.0449238 0
M  V30 34027 O 3265.26 1.9293 -0.221706 0
M  V30 34028 C 3262.39 3.37802 -0.806682 0
M  V30 34029 C 3261.35 3.85314 -1.86325 0
M  V30 34030 C 3260.67 5.16672 -1.37675 0
M  V30 34031 C 3261.97 4.07302 -3.2696 0
M  V30 34032 H 3263.67 2.15065 -2.08297 0
M  V30 34033 H 3261.21 1.03338 -1.00286 0
M  V30 34034 H 3263.17 4.15578 -0.698033 0
M  V30 34035 H 3261.89 3.26182 0.165146 0
M  V30 34036 H 3260.55 3.09741 -1.96102 0
M  V30 34037 H 3260.2 5.01454 -0.394015 0
M  V30 34038 H 3259.9 5.49432 -2.08323 0
M  V30 34039 H 3261.42 5.97005 -1.28129 0
M  V30 34040 H 3262.83 4.75607 -3.2011 0
M  V30 34041 H 3261.23 4.51391 -3.95432 0
M  V30 34042 H 3262.3 3.12152 -3.71065 0
M  V30 34043 N 3263.64 1.10553 1.1232 0
M  V30 34044 C 3265.06 0.866229 1.65389 0
M  V30 34045 C 3265.41 -0.603251 1.86696 0
M  V30 34046 O 3264.53 -1.4632 1.59435 0
M  V30 34047 C 3265.13 1.56592 3.0044 0
M  V30 34048 C 3263.69 1.37329 3.50454 0
M  V30 34049 C 3262.83 1.61453 2.25451 0
M  V30 34050 H 3265.78 1.26307 0.960844 0
M  V30 34051 H 3265.8 1.00563 3.6697 0
M  V30 34052 H 3265.32 2.6354 2.84901 0
M  V30 34053 H 3263.42 0.325496 3.71176 0
M  V30 34054 H 3263.53 2.11609 4.29836 0
M  V30 34055 H 3261.89 1.03733 2.32619 0
M  V30 34056 H 3262.68 2.69655 2.12464 0
M  V30 34057 N 3265.12 -1.29758 0.894457 0
M  V30 34058 C 3266.37 -1.95384 0.51668 0
M  V30 34059 C 3266.69 -1.70897 -0.939111 0
M  V30 34060 O 3265.96 -1.03781 -1.66152 0
M  V30 34061 H 3264.54 -0.722934 0.188085 0
M  V30 34062 H 3267.2 -1.58111 1.13961 0
M  V30 34063 H 3266.3 -3.04266 0.694873 0
M  V30 34064 N 3266.6 -0.65639 -1.4328 0
M  V30 34065 C 3267.51 0.0338228 -2.34576 0
M  V30 34066 C 3268.53 0.808766 -1.54062 0
M  V30 34067 O 3269.7 0.755289 -1.86701 0
M  V30 34068 C 3266.77 0.986138 -3.3238 0
M  V30 34069 C 3265.83 0.207776 -4.28797 0
M  V30 34070 C 3265.06 1.11473 -5.21929 0
M  V30 34071 O 3265.28 2.35405 -5.19558 0
M  V30 34072 O 3264.22 0.58543 -5.99046 0
M  V30 34073 H 3268.04 -0.71772 -2.95097 0
M  V30 34074 H 3265.63 -0.416582 -1.43475 0
M  V30 34075 H 3267.51 1.53334 -3.92513 0
M  V30 34076 H 3266.19 1.71785 -2.74357 0
M  V30 34077 H 3265.09 -0.383088 -3.72133 0
M  V30 34078 H 3266.43 -0.484436 -4.8981 0
M  V30 34079 N 3268.08 1.52478 -0.398513 0
M  V30 34080 C 3269.01 2.29628 0.423458 0
M  V30 34081 C 3269.99 1.33395 1.05545 0
M  V30 34082 O 3271.18 1.62296 1.06647 0
M  V30 34083 C 3268.31 3.10989 1.54607 0
M  V30 34084 C 3267.26 4.15181 1.03964 0
M  V30 34085 C 3266.59 4.84822 2.25503 0
M  V30 34086 C 3267.89 5.22202 0.101118 0
M  V30 34087 H 3269.58 2.98589 -0.220275 0
M  V30 34088 H 3267.13 1.43599 -0.10738 0
M  V30 34089 H 3269.08 3.63723 2.128 0
M  V30 34090 H 3267.8 2.39778 2.21752 0
M  V30 34091 H 3266.46 3.63442 0.480187 0
M  V30 34092 H 3266.11 4.10151 2.91179 0
M  V30 34093 H 3265.81 5.55251 1.92275 0
M  V30 34094 H 3267.33 5.40364 2.84322 0
M  V30 34095 H 3268.75 5.7024 0.591516 0
M  V30 34096 H 3267.14 5.99932 -0.141842 0
M  V30 34097 H 3268.21 4.7744 -0.8473 0
M  V30 34098 N 3269.56 0.128608 1.57074 0
M  V30 34099 C 3270.47 -0.831494 2.1937 0
M  V30 34100 C 3271.48 -1.28553 1.17261 0
M  V30 34101 O 3272.66 -1.34653 1.49768 0
M  V30 34102 C 3269.72 -2.06019 2.7885 0
M  V30 34103 C 3268.79 -1.65715 3.96026 0
M  V30 34104 C 3268.02 -2.82727 4.5266 0
M  V30 34105 O 3268.24 -3.98427 4.08182 0
M  V30 34106 O 3267.18 -2.59258 5.43202 0
M  V30 34107 H 3271 -0.331299 3.01888 0
M  V30 34108 H 3268.59 -0.0974964 1.49082 0
M  V30 34109 H 3270.47 -2.77961 3.16726 0
M  V30 34110 H 3269.14 -2.55026 1.99358 0
M  V30 34111 H 3268.05 -0.90851 3.62901 0
M  V30 34112 H 3269.38 -1.21441 4.76983 0
M  V30 34113 N 3271.04 -1.5693 -0.145178 0
M  V30 34114 C 3272.45 -1.72875 -0.705058 0
M  V30 34115 C 3272.8 -0.743293 -1.81575 0
M  V30 34116 O 3271.92 0.0896773 -2.16214 0
M  V30 34117 C 3272.52 -3.13456 -1.28572 0
M  V30 34118 C 3271.08 -3.30997 -1.79215 0
M  V30 34119 C 3270.22 -2.68799 -0.681345 0
M  V30 34120 H 3273.17 -1.58496 0.0805077 0
M  V30 34121 H 3273.2 -3.13556 -2.15552 0
M  V30 34122 H 3272.71 -3.85156 -0.477118 0
M  V30 34123 H 3270.81 -2.64296 -2.62637 0
M  V30 34124 H 3270.92 -4.38962 -1.91961 0
M  V30 34125 H 3269.29 -2.29316 -1.10843 0
M  V30 34126 H 3270.07 -3.43104 0.115846 0
M  V30 34127 N 3272.51 0.414582 -1.52049 0
M  V30 34128 C 3273.76 1.15974 -1.65513 0
M  V30 34129 C 3274.08 1.91167 -0.384737 0
M  V30 34130 O 3273.35 1.86479 0.600214 0
M  V30 34131 H 3271.93 0.431105 -0.610047 0
M  V30 34132 H 3274.59 0.473106 -1.89071 0
M  V30 34133 H 3273.69 1.87682 -2.49363 0
M  V30 34134 N 3273.99 1.4258 0.671475 0
M  V30 34135 C 3275.27 1.33709 1.42763 0
M  V30 34136 C 3275.65 -0.0239377 2.11086 0
M  V30 34137 O 3275 -1.03961 2.03481 0
M  V30 34138 C 3275.21 2.50761 2.42735 0
M  V30 34139 C 3276.55 2.93027 3.07279 0
M  V30 34140 O 3277.58 2.50675 2.53062 0
M  V30 34141 O 3276.44 3.66338 4.05535 0
M  V30 34142 H 3273.53 0.527474 0.636946 0
M  V30 34143 H 3276.08 1.54594 0.699919 0
M  V30 34144 H 3274.85 3.41479 1.9107 0
M  V30 34145 H 3274.47 2.3188 3.22982 0
M  V30 34146 N 3275.47 -0.908102 1.28807 0
M  V30 34147 C 3276.43 -1.99277 1.13231 0
M  V30 34148 C 3277.43 -1.60646 0.0702739 0
M  V30 34149 O 3278.62 -1.713 0.316524 0
M  V30 34150 C 3275.75 -3.32999 0.729688 0
M  V30 34151 H 3276.95 -2.14524 2.0957 0
M  V30 34152 H 3274.5 -1.09151 1.11874 0
M  V30 34153 H 3275.24 -3.23453 -0.234211 0
M  V30 34154 H 3275.02 -3.624 1.49694 0
M  V30 34155 H 3276.51 -4.12612 0.643522 0
M  V30 34156 N 3276.95 -1.11147 -1.11732 0
M  V30 34157 C 3277.91 -0.770341 -2.15867 0
M  V30 34158 C 3278.91 0.208814 -1.59438 0
M  V30 34159 O 3280.1 -0.0152822 -1.74193 0
M  V30 34160 C 3277.23 -0.142362 -3.40603 0
M  V30 34161 H 3278.43 -1.6928 -2.47557 0
M  V30 34162 H 3275.98 -0.912951 -1.26866 0
M  V30 34163 H 3276.71 0.79047 -3.14519 0
M  V30 34164 H 3276.5 -0.847154 -3.82839 0
M  V30 34165 H 3277.99 0.0802874 -4.17523 0
M  V30 34166 N 3278.43 1.29282 -0.901326 0
M  V30 34167 C 3279.65 2.00169 -0.542858 0
M  V30 34168 C 3280.08 1.67002 0.865553 0
M  V30 34169 O 3279.43 0.895529 1.57639 0
M  V30 34170 C 3279.48 3.5284 -0.744049 0
M  V30 34171 O 3278.59 4.11902 0.202699 0
M  V30 34172 H 3277.93 0.629276 -0.211914 0
M  V30 34173 H 3280.46 1.64738 -1.21336 0
M  V30 34174 H 3280.47 4.028 -0.64933 0
M  V30 34175 H 3279.14 3.76316 -1.77084 0
M  V30 34176 H 3277.72 3.72851 0.0602982 0
M  V30 34177 N 3279.9 0.663979 1.4293 0
M  V30 34178 C 3280.85 -0.0210359 2.3079 0
M  V30 34179 C 3281.82 -0.803771 1.45357 0
M  V30 34180 O 3283.01 -0.778206 1.74208 0
M  V30 34181 C 3280.15 -0.973965 3.31071 0
M  V30 34182 C 3279.26 -0.186197 4.31599 0
M  V30 34183 C 3278.39 -1.1339 5.18957 0
M  V30 34184 C 3277.43 -0.337185 6.11171 0
M  V30 34185 N 3276.57 -1.23703 6.91116 0
M  V30 34186 H 3281.41 0.734046 2.88818 0
M  V30 34187 H 3278.95 0.373736 1.42273 0
M  V30 34188 H 3280.9 -1.54017 3.8773 0
M  V30 34189 H 3279.53 -1.6958 2.74668 0
M  V30 34190 H 3278.59 0.496468 3.77146 0
M  V30 34191 H 3279.9 0.43284 4.96918 0
M  V30 34192 H 3279.05 -1.77039 5.80295 0
M  V30 34193 H 3277.79 -1.78683 4.53788 0
M  V30 34194 H 3276.8 0.312588 5.48911 0
M  V30 34195 H 3278.02 0.311499 6.78385 0
M  V30 34196 H 3275.97 -1.87657 6.28587 0
M  V30 34197 H 3275.88 -0.672814 7.53 0
M  V30 34198 H 3277.15 -1.86133 7.56951 0
M  V30 34199 N 3281.38 -1.52265 0.406593 0
M  V30 34200 C 3282.8 -1.59497 0.0573509 0
M  V30 34201 C 3283 -1.4196 -1.43003 0
M  V30 34202 O 3282.05 -1.24527 -2.19657 0
M  V30 34203 C 3283.37 -2.95627 0.549999 0
M  V30 34204 C 3284.91 -3.08854 0.507754 0
M  V30 34205 C 3285.39 -4.47461 0.976871 0
M  V30 34206 N 3286.88 -4.53694 0.933587 0
M  V30 34207 C 3287.62 -5.59209 1.26779 0
M  V30 34208 N 3287.11 -6.72289 1.67332 0
M  V30 34209 N 3288.9 -5.49404 1.18792 0
M  V30 34210 H 3281.06 -1.61912 1.37471 0
M  V30 34211 H 3283.32 -0.76155 0.564575 0
M  V30 34212 H 3283.02 -3.13733 1.58948 0
M  V30 34213 H 3282.9 -3.77177 -0.0417104 0
M  V30 34214 H 3285.29 -2.90434 -0.522677 0
M  V30 34215 H 3285.37 -2.29217 1.13549 0
M  V30 34216 H 3285.01 -4.66623 2.00562 0
M  V30 34217 H 3284.94 -5.2559 0.325977 0
M  V30 34218 H 3287.43 -3.7252 0.635399 0
M  V30 34219 H 3287.74 -7.48787 1.9115 0
M  V30 34220 H 3286.09 -6.73576 1.71233 0
M  V30 34221 H 3289.28 -4.59944 0.869987 0
M  V30 34222 H 3289.45 -6.3153 1.45168 0
M  V30 34223 N 3282.86 -0.136936 -1.57004 0
M  V30 34224 C 3283.81 0.806569 -2.16248 0
M  V30 34225 C 3284.78 1.25116 -1.09248 0
M  V30 34226 O 3285.96 1.32549 -1.37242 0
M  V30 34227 C 3283.1 2.04428 -2.78034 0
M  V30 34228 C 3282.22 1.64642 -3.99396 0
M  V30 34229 C 3281.35 2.83516 -4.49213 0
M  V30 34230 C 3280.39 2.40054 -5.63063 0
M  V30 34231 N 3279.53 3.51903 -6.07543 0
M  V30 34232 H 3284.37 0.294544 -2.96541 0
M  V30 34233 H 3281.9 0.133679 -1.46491 0
M  V30 34234 H 3283.86 2.76973 -3.11997 0
M  V30 34235 H 3282.49 2.53059 -2.00402 0
M  V30 34236 H 3281.54 0.819012 -3.71479 0
M  V30 34237 H 3282.86 1.28715 -4.81907 0
M  V30 34238 H 3282.01 3.64263 -4.85178 0
M  V30 34239 H 3280.75 3.22681 -3.65689 0
M  V30 34240 H 3279.75 1.57744 -5.26685 0
M  V30 34241 H 3280.98 2.01986 -6.48366 0
M  V30 34242 H 3278.92 3.90708 -5.26957 0
M  V30 34243 H 3278.84 3.19958 -6.84955 0
M  V30 34244 H 3280.11 4.33037 -6.48151 0
M  V30 34245 N 3284.34 1.57005 0.136853 0
M  V30 34246 C 3285.75 1.51897 0.48983 0
M  V30 34247 C 3285.95 0.847042 1.82832 0
M  V30 34248 O 3285.01 0.421836 2.48951 0
M  V30 34249 C 3286.32 2.96668 0.490779 0
M  V30 34250 C 3287.87 3.07662 0.575585 0
M  V30 34251 C 3288.35 4.53958 0.607098 0
M  V30 34252 N 3289.84 4.58343 0.669039 0
M  V30 34253 C 3290.57 5.6893 0.714575 0
M  V30 34254 N 3290.07 6.89061 0.718838 0
M  V30 34255 N 3291.86 5.5699 0.756228 0
M  V30 34256 H 3284.01 1.99078 -0.740382 0
M  V30 34257 H 3286.28 0.9084 -0.271132 0
M  V30 34258 H 3285.98 3.49126 -0.42471 0
M  V30 34259 H 3285.86 3.5316 1.32505 0
M  V30 34260 H 3288.24 2.55217 1.48149 0
M  V30 34261 H 3288.32 2.54196 -0.286036 0
M  V30 34262 H 3287.97 5.07044 -0.294693 0
M  V30 34263 H 3287.9 5.05218 1.48535 0
M  V30 34264 H 3290.39 3.71866 0.672632 0
M  V30 34265 H 3290.7 7.69096 0.755713 0
M  V30 34266 H 3289.05 6.91601 0.686549 0
M  V30 34267 H 3292.24 4.6205 0.750137 0
M  V30 34268 H 3292.41 6.43188 0.78825 0
M  V30 34269 O 3285.86 -0.281422 1.59029 0
M  V30 34270 H 3286.55 -0.927201 1.70067 0
M  V30 END ATOM
M  V30 BEGIN BOND
M  V30 END BOND
M  V30 END CTAB
M  END
$$$$
