drugbank_target|P76216 N-succinylarginine dihydrolase (DB02501; DB03582)
 OpenBabel12092120013D

  0  0  0     0  0            999 V3000
M  V30 BEGIN CTAB
M  V30 COUNTS 6869 6942 0 0 0
M  V30 BEGIN ATOM
M  V30 1 H -0.908 1.98254 -0.117106 0
M  V30 2 N 0 1.576 0 0
M  V30 3 C 0.933 2.03868 1.02534 0
M  V30 4 C 1.911 0.928543 1.3348 0
M  V30 5 O 3.095 1.19667 1.45644 0
M  V30 6 C 0.222 2.43627 2.35294 0
M  V30 7 C -0.732 3.65373 2.2001 0
M  V30 8 S 0.101 5.13292 1.52614 0
M  V30 9 C 1.257 5.56322 2.86805 0
M  V30 10 H 1.49 2.90518 0.631377 0
M  V30 11 H -0.977 1.52953 0.210867 0
M  V30 12 H 0.981 2.67203 3.11629 0
M  V30 13 H -0.358 1.57376 2.7183 0
M  V30 14 H -1.165 3.90944 3.18086 0
M  V30 15 H -1.563 3.418 1.51819 0
M  V30 16 H 0.729 5.58782 3.83104 0
M  V30 17 H 1.672 6.56266 2.65933 0
M  V30 18 H 2.08 4.83886 2.90714 0
M  V30 19 N 1.4781 -0.272755 1.55222 0
M  V30 20 C 2.4261 -1.35705 1.88909 0
M  V30 21 C 3.4201 -1.5112 0.765456 0
M  V30 22 O 4.6261 -1.52901 0.949802 0
M  V30 23 H 1.0011 -0.453868 0.59959 0
M  V30 24 H 2.9721 -1.04544 2.79487 0
M  V30 25 C 1.7211 -2.71049 2.17779 0
M  V30 26 H 1.0441 -2.59979 3.03728 0
M  V30 27 H 2.4841 -3.45858 2.45272 0
M  V30 28 C 0.9431 -3.22165 0.985473 0
M  V30 29 O 1.4731 -4.01096 0.220233 0
M  V30 30 N -0.3209 -2.7985 0.783108 0
M  V30 31 H -0.7739 -2.15775 1.40708 0
M  V30 32 H -0.8159 -3.14397 -0.0130392 0
M  V30 33 N 2.9562 -1.48159 -0.537278 0
M  V30 34 C 3.9192 -1.61665 -1.62472 0
M  V30 35 C 4.9192 -0.490395 -1.5314 0
M  V30 36 O 6.1092 -0.755998 -1.5694 0
M  V30 37 C 3.2412 -1.57997 -3.02076 0
M  V30 38 H 4.4342 -2.58621 -1.51839 0
M  V30 39 H 1.9872 -1.36647 -0.758771 0
M  V30 40 H 2.7222 -0.624913 -3.18222 0
M  V30 41 H 2.5072 -2.39755 -3.10258 0
M  V30 42 H 3.9972 -1.70627 -3.81151 0
M  V30 43 N 4.4343 0.785586 -1.36625 0
M  V30 44 C 5.6803 1.5452 -1.32269 0
M  V30 45 C 6.0353 1.92159 0.0962266 0
M  V30 46 O 5.3283 1.60158 1.05167 0
M  V30 47 C 5.5223 2.83007 -2.1827 0
M  V30 48 C 5.3513 2.57925 -3.68382 0
M  V30 49 C 4.1213 2.52752 -4.37544 0
M  V30 50 C 6.3193 2.26861 -4.61561 0
M  V30 51 N 4.3013 2.19608 -5.73276 0
M  V30 52 C 5.6723 2.03738 -5.85569 0
M  V30 53 C 7.7273 2.129 -4.50087 0
M  V30 54 C 6.4303 1.68065 -6.9939 0
M  V30 55 C 8.4563 1.78626 -5.63779 0
M  V30 56 C 7.8183 1.56353 -6.86828 0
M  V30 57 H 3.9173 0.566301 -0.539283 0
M  V30 58 H 6.5013 0.917736 -1.71714 0
M  V30 59 H 4.6723 3.43614 -1.81063 0
M  V30 60 H 6.4043 3.48775 -2.05275 0
M  V30 61 H 3.1593 2.6813 -3.90389 0
M  V30 62 H 3.5833 2.05771 -6.44971 0
M  V30 63 H 8.2253 2.28808 -3.55537 0
M  V30 64 H 5.9433 1.50895 -7.93887 0
M  V30 65 H 9.5293 1.68502 -5.56865 0
M  V30 66 H 8.4093 1.30223 -7.73312 0
M  V30 67 N 5.9124 1.20967 1.01018 0
M  V30 68 C 6.8224 0.980157 2.13143 0
M  V30 69 C 7.8384 -0.0660665 1.73875 0
M  V30 70 O 9.0144 0.122821 2.01025 0
M  V30 71 C 6.0794 0.54216 3.42435 0
M  V30 72 C 5.1404 1.65999 3.95908 0
M  V30 73 C 4.3734 1.2428 5.19028 0
M  V30 74 O 4.5964 0.114196 5.70286 0
M  V30 75 O 3.5304 2.05271 5.65816 0
M  V30 76 H 7.3564 1.91913 2.35379 0
M  V30 77 H 4.9414 0.994099 1.11526 0
M  V30 78 H 6.8234 0.30744 4.20277 0
M  V30 79 H 5.4984 -0.36815 3.216 0
M  V30 80 H 4.4054 1.94906 3.19316 0
M  V30 81 H 5.7384 2.54753 4.21143 0
M  V30 82 N 7.3905 -1.2043 1.01659 0
M  V30 83 C 8.6365 -1.90079 0.706963 0
M  V30 84 C 8.9695 -1.78648 -0.761474 0
M  V30 85 O 8.2445 -1.17069 -1.55323 0
M  V30 86 C 8.5275 -3.41469 1.14327 0
M  V30 87 C 8.3805 -3.61833 2.67201 0
M  V30 88 C 9.6995 -4.34261 0.714529 0
M  V30 89 H 6.8185 -0.690254 0.2583 0
M  V30 90 H 9.4605 -1.41826 1.26433 0
M  V30 91 H 7.6105 -3.82696 0.669056 0
M  V30 92 H 9.2825 -3.2986 3.22475 0
M  V30 93 H 7.5255 -3.05304 3.08175 0
M  V30 94 H 8.1965 -4.67955 2.92783 0
M  V30 95 H 10.6725 -4.00682 1.12221 0
M  V30 96 H 9.5485 -5.38806 1.04784 0
M  V30 97 H 9.8095 -4.40431 -0.383799 0
M  V30 98 N 8.8686 -0.792821 -1.36206 0
M  V30 99 C 9.8166 -0.181555 -2.3189 0
M  V30 100 C 10.8106 0.661025 -1.55971 0
M  V30 101 O 12.0166 0.555728 -1.71206 0
M  V30 102 H 8.3916 -0.0399382 -0.750939 0
M  V30 103 H 10.3626 -1.00394 -2.81005 0
M  V30 104 C 9.1116 0.666444 -3.41253 0
M  V30 105 H 8.4346 0.0274489 -3.99791 0
M  V30 106 H 9.8746 1.06076 -4.10517 0
M  V30 107 C 8.3336 1.82614 -2.83114 0
M  V30 108 O 8.8636 2.9229 -2.75553 0
M  V30 109 N 7.0696 1.63333 -2.40356 0
M  V30 110 H 6.6166 0.741217 -2.46706 0
M  V30 111 H 6.5746 2.41087 -2.01803 0
M  V30 112 N 10.3467 1.47872 -0.545128 0
M  V30 113 C 11.5937 2.02493 -0.0165858 0
M  V30 114 C 11.9217 1.42073 1.32836 0
M  V30 115 O 11.1767 0.561459 1.87473 0
M  V30 116 C 11.4757 3.57131 0.13867 0
M  V30 117 C 11.1417 4.36411 -1.13384 0
M  V30 118 C 9.8037 4.57792 -1.48256 0
M  V30 119 C 12.1557 4.82223 -1.97764 0
M  V30 120 C 9.4837 5.22233 -2.67376 0
M  V30 121 C 11.8357 5.47977 -3.16076 0
M  V30 122 C 10.4997 5.67593 -3.51275 0
M  V30 123 H 9.7697 0.740975 -0.00606918 0
M  V30 124 H 12.4167 1.77683 -0.714207 0
M  V30 125 H 10.7217 3.80865 0.919172 0
M  V30 126 H 12.4187 3.97031 0.562782 0
M  V30 127 H 9.0087 4.2004 -0.852297 0
M  V30 128 H 13.1927 4.65493 -1.72132 0
M  V30 129 H 8.4487 5.35616 -2.94831 0
M  V30 130 H 12.6227 5.8244 -3.81755 0
M  V30 131 H 10.2497 6.17298 -4.43675 0
M  V30 132 N 11.8248 0.280983 1.55075 0
M  V30 133 C 13.1018 -0.386207 1.91749 0
M  V30 134 C 13.4818 -1.73264 1.20594 0
M  V30 135 O 12.8298 -2.26034 0.334784 0
M  V30 136 C 13.0398 -0.520687 3.45094 0
M  V30 137 C 14.3878 -0.800865 4.16979 0
M  V30 138 O 15.4118 -0.605271 3.5102 0
M  V30 139 O 14.2708 -1.1753 5.33712 0
M  V30 140 H 11.3648 -0.212408 0.799257 0
M  V30 141 H 13.9108 0.327568 1.66509 0
M  V30 142 H 12.6828 0.426633 3.88967 0
M  V30 143 H 12.3058 -1.2837 3.76307 0
M  V30 144 N 13.3029 -1.57598 0.00835791 0
M  V30 145 C 14.5509 -1.90551 -0.6734 0
M  V30 146 C 14.8719 -0.883301 -1.73847 0
M  V30 147 O 14.1419 0.0781442 -1.95744 0
M  V30 148 H 12.7219 -0.703312 -0.251717 0
M  V30 149 H 15.3839 -1.94833 0.0512592 0
M  V30 150 H 14.4799 -2.9056 -1.13935 0
M  V30 151 N 14.781 0.264519 -1.55364 0
M  V30 152 C 15.711 1.33121 -1.91836 0
M  V30 153 C 16.692 1.51101 -0.781192 0
M  V30 154 O 17.877 1.64003 -1.04003 0
M  V30 155 C 15.007 2.68921 -2.19769 0
M  V30 156 C 13.961 2.65661 -3.35571 0
M  V30 157 C 13.287 4.05093 -3.49004 0
M  V30 158 C 14.587 2.24187 -4.71739 0
M  V30 159 H 16.281 1.02844 -2.81182 0
M  V30 160 H 13.827 0.493286 -1.35287 0
M  V30 161 H 15.78 3.43663 -2.43872 0
M  V30 162 H 14.504 3.00799 -1.27231 0
M  V30 163 H 13.163 1.93377 -3.1145 0
M  V30 164 H 12.811 4.34206 -2.53917 0
M  V30 165 H 12.511 4.03804 -4.26868 0
M  V30 166 H 14.035 4.81561 -3.75408 0
M  V30 167 H 15.449 2.88654 -4.9533 0
M  V30 168 H 13.846 2.34044 -5.52579 0
M  V30 169 H 14.916 1.19327 -4.69988 0
M  V30 170 N 16.2591 1.48442 0.529413 0
M  V30 171 C 17.5051 1.5672 1.28711 0
M  V30 172 C 17.8381 0.2406 1.92704 0
M  V30 173 O 17.1131 -0.753454 1.79313 0
M  V30 174 C 17.3961 2.70587 2.37603 0
M  V30 175 C 17.2491 4.12953 1.78297 0
M  V30 176 C 18.5681 2.80212 3.39366 0
M  V30 177 H 15.6871 0.570474 0.466613 0
M  V30 178 H 18.3291 1.80617 0.589706 0
M  V30 179 H 16.4791 2.50342 2.97088 0
M  V30 180 H 18.1511 4.44639 1.22858 0
M  V30 181 H 16.3941 4.19927 1.0883 0
M  V30 182 H 17.0651 4.88448 2.57144 0
M  V30 183 H 19.5411 2.98553 2.89836 0
M  V30 184 H 18.4171 3.61611 4.12951 0
M  V30 185 H 18.6781 1.88393 3.99951 0
M  V30 186 N 17.7372 -0.778329 1.37039 0
M  V30 187 C 18.9852 -1.53361 1.31623 0
M  V30 188 C 19.3062 -1.94739 -0.100831 0
M  V30 189 O 18.5762 -1.65797 -1.04347 0
M  V30 190 H 17.1562 -0.568794 0.484234 0
M  V30 191 H 19.8182 -0.926742 1.71457 0
M  V30 192 H 18.9142 -2.43606 1.95096 0
M  V30 193 N 19.2153 -1.21501 -1.00376 0
M  V30 194 C 20.1453 -0.999478 -2.11028 0
M  V30 195 C 21.1263 0.0759671 -1.6993 0
M  V30 196 O 22.3113 -0.0841106 -1.94018 0
M  V30 197 C 19.4413 -0.564709 -3.42678 0
M  V30 198 C 18.3953 -1.58486 -3.97576 0
M  V30 199 C 17.7213 -1.00628 -5.25146 0
M  V30 200 C 19.0213 -2.97204 -4.29496 0
M  V30 201 H 20.7153 -1.92495 -2.29317 0
M  V30 202 H 18.2613 -0.92693 -1.102 0
M  V30 203 H 20.2143 -0.401091 -4.19487 0
M  V30 204 H 18.9383 0.396411 -3.24185 0
M  V30 205 H 17.5973 -1.73606 -3.22888 0
M  V30 206 H 17.2453 -0.0368439 -5.02987 0
M  V30 207 H 16.9453 -1.68771 -5.62841 0
M  V30 208 H 18.4693 -0.854015 -6.04598 0
M  V30 209 H 19.8833 -2.8552 -4.97143 0
M  V30 210 H 18.2803 -3.62372 -4.78338 0
M  V30 211 H 19.3503 -3.47956 -3.3772 0
M  V30 212 N 20.6934 1.19889 -1.02296 0
M  V30 213 C 21.9214 1.9339 -0.735399 0
M  V30 214 C 22.3364 1.75148 0.704887 0
M  V30 215 O 21.6934 1.06954 1.47875 0
M  V30 216 C 21.7444 3.45313 -1.06962 0
M  V30 217 O 21.4654 3.62964 -2.45334 0
M  V30 218 C 22.9664 4.35948 -0.804021 0
M  V30 219 H 20.1864 0.61448 -0.269546 0
M  V30 220 H 22.7304 1.522 -1.36585 0
M  V30 221 H 20.8854 3.84359 -0.484455 0
M  V30 222 H 21.2994 4.56886 -2.57595 0
M  V30 223 H 22.7734 5.41174 -1.0879 0
M  V30 224 H 23.2504 4.3842 0.261691 0
M  V30 225 H 23.8564 4.02574 -1.37164 0
M  V30 226 N 22.1715 0.800033 1.35784 0
M  V30 227 C 23.1215 0.178654 2.27299 0
M  V30 228 C 24.1055 -0.643667 1.47464 0
M  V30 229 O 25.2975 -0.502 1.69732 0
M  V30 230 C 22.4265 -0.677194 3.36555 0
M  V30 231 C 21.5125 0.154497 4.23818 0
M  V30 232 N 21.9035 1.21427 4.91008 0
M  V30 233 C 20.2015 -0.0649462 4.45953 0
M  V30 234 C 20.9025 1.72147 5.55644 0
M  V30 235 N 19.8785 1.02897 5.33773 0
M  V30 236 H 23.6805 0.989637 2.76737 0
M  V30 237 H 21.1945 0.64054 1.49234 0
M  V30 238 H 23.1915 -1.13835 4.01058 0
M  V30 239 H 21.8515 -1.4866 2.8867 0
M  V30 240 H 22.8625 1.59684 4.92668 0
M  V30 241 H 19.5395 -0.844016 4.0888 0
M  V30 242 H 20.9295 2.60683 6.19269 0
M  V30 243 N 23.6496 -1.47581 0.552962 0
M  V30 244 C 24.5996 -2.26961 -0.217423 0
M  V30 245 C 25.5836 -1.34099 -0.889168 0
M  V30 246 O 26.7756 -1.58483 -0.788176 0
M  V30 247 C 23.9046 -3.19756 -1.24944 0
M  V30 248 C 22.9906 -4.20097 -0.581327 0
M  V30 249 N 23.3816 -5.04614 0.346171 0
M  V30 250 C 21.6796 -4.38099 -0.835767 0
M  V30 251 C 22.3806 -5.77052 0.733854 0
M  V30 252 N 21.3566 -5.43526 0.0896567 0
M  V30 253 H 25.1586 -2.89688 0.495761 0
M  V30 254 H 22.6726 -1.58068 0.372597 0
M  V30 255 H 24.6696 -3.75305 -1.81527 0
M  V30 256 H 23.3296 -2.58585 -1.96376 0
M  V30 257 H 24.3406 -5.12869 0.720098 0
M  V30 258 H 21.0176 -3.88102 -1.53892 0
M  V30 259 H 22.4076 -6.5504 1.49574 0
M  V30 260 N 25.1277 -0.289203 -1.54924 0
M  V30 261 C 26.3577 0.325989 -2.04012 0
M  V30 262 C 26.7657 1.48961 -1.1665 0
M  V30 263 O 26.1087 1.82794 -0.1822 0
M  V30 264 C 26.1707 0.856112 -3.49158 0
M  V30 265 C 25.8347 -0.180697 -4.56643 0
M  V30 266 C 26.8317 -1.0051 -5.10092 0
M  V30 267 C 24.5167 -0.318998 -5.01286 0
M  V30 268 C 26.5107 -1.95385 -6.06715 0
M  V30 269 C 24.1977 -1.27121 -5.97732 0
M  V30 270 C 25.1957 -2.08713 -6.50329 0
M  V30 271 O 24.8837 -3.02322 -7.44887 0
M  V30 272 H 24.6157 0.0765276 -0.671654 0
M  V30 273 H 27.1697 -0.423254 -2.00992 0
M  V30 274 H 25.3997 1.65567 -3.49463 0
M  V30 275 H 27.0887 1.38591 -3.81507 0
M  V30 276 H 27.8547 -0.90906 -4.76404 0
M  V30 277 H 23.7337 0.306108 -4.59983 0
M  V30 278 H 27.2777 -2.59111 -6.47694 0
M  V30 279 H 23.1747 -1.36801 -6.30837 0
M  V30 280 H 23.9427 -2.97165 -7.6265 0
M  V30 281 N 26.6058 1.57591 -0.0167156 0
M  V30 282 C 27.5688 2.08393 0.954204 0
M  V30 283 C 28.5688 0.996531 1.26198 0
M  V30 284 O 29.7588 1.25858 1.20438 0
M  V30 285 C 26.8908 2.5394 2.27436 0
M  V30 286 H 28.0838 2.95455 0.514451 0
M  V30 287 H 25.6368 1.54582 0.231089 0
M  V30 288 H 26.3718 1.70171 2.76066 0
M  V30 289 H 26.1568 3.33371 2.06412 0
M  V30 290 H 27.6468 2.93512 2.97053 0
M  V30 291 N 28.0839 -0.256276 1.55502 0
M  V30 292 C 29.3319 -0.983672 1.76545 0
M  V30 293 C 29.6529 -1.86206 0.578982 0
M  V30 294 O 28.9229 -1.91656 -0.405577 0
M  V30 295 H 27.5029 -0.366191 0.651086 0
M  V30 296 H 30.1649 -0.276479 1.92929 0
M  V30 297 H 29.2609 -1.61087 2.67315 0
M  V30 298 N 29.562 -1.4872 -0.521534 0
M  V30 299 C 30.492 -1.66771 -1.63431 0
M  V30 300 C 31.473 -0.516499 -1.62069 0
M  V30 301 O 32.658 -0.750013 -1.79132 0
M  V30 302 C 29.788 -1.71515 -3.01993 0
M  V30 303 C 28.742 -2.86222 -3.18216 0
M  V30 304 C 28.068 -2.76061 -4.57924 0
M  V30 305 C 29.368 -4.27419 -3.00184 0
M  V30 306 H 31.062 -2.59932 -1.48579 0
M  V30 307 H 28.608 -1.25089 -0.713358 0
M  V30 308 H 30.561 -1.82731 -3.7972 0
M  V30 309 H 29.285 -0.749393 -3.17886 0
M  V30 310 H 27.944 -2.74575 -2.42908 0
M  V30 311 H 27.592 -1.77437 -4.70665 0
M  V30 312 H 27.292 -3.53037 -4.69722 0
M  V30 313 H 28.816 -2.89256 -5.37739 0
M  V30 314 H 30.23 -4.39855 -3.67697 0
M  V30 315 H 28.627 -5.05458 -3.2347 0
M  V30 316 H 29.697 -4.43293 -1.96518 0
M  V30 317 N 31.0401 0.771051 -1.3745 0
M  V30 318 C 32.2651 1.56529 -1.36065 0
M  V30 319 C 32.6901 1.88029 0.0515859 0
M  V30 320 O 32.0481 1.49282 1.02882 0
M  V30 321 C 32.0961 2.85187 -2.20683 0
M  V30 322 O 31.2001 3.79593 -1.61193 0
M  V30 323 H 30.5411 0.47411 -0.464883 0
M  V30 324 H 33.0711 0.954269 -1.80983 0
M  V30 325 H 33.0811 3.34283 -2.33921 0
M  V30 326 H 31.7561 2.61588 -3.23334 0
M  V30 327 H 30.3331 3.38239 -1.56999 0
M  V30 328 N 32.5182 1.22032 0.997298 0
M  V30 329 C 33.7652 1.04222 1.73621 0
M  V30 330 C 34.0932 -0.423264 1.89839 0
M  V30 331 O 33.3482 -1.3302 1.43542 0
M  V30 332 C 33.6472 1.69345 3.14733 0
M  V30 333 C 33.3132 3.19226 3.18442 0
M  V30 334 C 31.9752 3.60124 3.19161 0
M  V30 335 C 34.3272 4.15181 3.15078 0
M  V30 336 C 31.6552 4.95467 3.14212 0
M  V30 337 C 34.0072 5.50495 3.1167 0
M  V30 338 C 32.6712 5.90779 3.10703 0
M  V30 339 H 31.9412 0.381374 0.635323 0
M  V30 340 H 34.5882 1.51732 1.16831 0
M  V30 341 H 32.8932 1.14147 3.74803 0
M  V30 342 H 34.5902 1.53059 3.7064 0
M  V30 343 H 31.1802 2.86659 3.18629 0
M  V30 344 H 35.3642 3.84605 3.13676 0
M  V30 345 H 30.6202 5.25916 3.11805 0
M  V30 346 H 34.7942 6.24576 3.08022 0
M  V30 347 H 32.4212 6.9562 3.06622 0
M  V30 348 N 33.9963 -1.19345 1.0293 0
M  V30 349 C 35.2443 -1.88665 0.724574 0
M  V30 350 C 35.5653 -1.80036 -0.749144 0
M  V30 351 O 34.8353 -1.2111 -1.53978 0
M  V30 352 H 33.4153 -0.698406 0.265025 0
M  V30 353 H 36.0773 -1.44885 1.30362 0
M  V30 354 H 35.1733 -2.94987 1.01926 0
M  V30 355 N 35.4744 -0.807222 -1.35358 0
M  V30 356 C 36.4224 -0.20614 -2.31685 0
M  V30 357 C 37.4164 0.644445 -1.56663 0
M  V30 358 O 38.6224 0.537538 -1.71786 0
M  V30 359 H 34.9974 -0.0479006 -0.750473 0
M  V30 360 H 36.9684 -1.03369 -2.79924 0
M  V30 361 C 35.7174 0.630212 -3.41941 0
M  V30 362 H 35.0404 -0.0149558 -3.99797 0
M  V30 363 H 36.4804 1.01716 -4.11619 0
M  V30 364 C 34.9394 1.79601 -2.85035 0
M  V30 365 O 35.4694 2.89351 -2.78637 0
M  V30 366 N 33.6754 1.60774 -2.42074 0
M  V30 367 H 33.2224 0.715009 -2.47478 0
M  V30 368 H 33.1804 2.38933 -2.04349 0
M  V30 369 N 36.9525 1.47285 -0.560781 0
M  V30 370 C 37.8625 2.33846 0.187954 0
M  V30 371 C 38.8785 1.48412 0.908293 0
M  V30 372 O 40.0545 1.81332 0.876388 0
M  V30 373 C 37.1195 3.25178 1.2025 0
M  V30 374 C 36.1805 4.26504 0.489208 0
M  V30 375 C 35.4135 5.13472 1.45542 0
M  V30 376 O 35.6365 5.02959 2.6905 0
M  V30 377 O 34.5705 5.93902 0.977963 0
M  V30 378 H 38.3965 2.99177 -0.522177 0
M  V30 379 H 35.9815 1.45903 -0.321364 0
M  V30 380 H 37.8635 3.81584 1.78805 0
M  V30 381 H 36.5385 2.6247 1.89449 0
M  V30 382 H 35.4455 3.73847 -0.137627 0
M  V30 383 H 36.7785 4.91935 -0.161399 0
M  V30 384 N 38.4306 0.297415 1.54768 0
M  V30 385 C 39.3936 -0.567375 2.22066 0
M  V30 386 C 40.3936 -1.06409 1.20556 0
M  V30 387 O 41.5836 -0.960691 1.45315 0
M  V30 388 C 38.7156 -1.78517 2.90421 0
M  V30 389 H 39.9086 0.0205534 2.99893 0
M  V30 390 H 37.4616 0.0482163 1.56226 0
M  V30 391 H 38.1966 -2.41303 2.16664 0
M  V30 392 H 37.9816 -1.43669 3.64831 0
M  V30 393 H 39.4716 -2.39964 3.41771 0
M  V30 394 N 39.9087 -1.5758 0.0250728 0
M  V30 395 C 41.1337 -1.96337 -0.668317 0
M  V30 396 C 41.5587 -0.901314 -1.651 0
M  V30 397 O 40.9167 0.138187 -1.80773 0
M  V30 398 C 40.9647 -3.34191 -1.35457 0
M  V30 399 O 40.0687 -3.30269 -2.46974 0
M  V30 400 H 39.4097 -0.640281 -0.175887 0
M  V30 401 H 41.9397 -2.0442 0.0857224 0
M  V30 402 H 41.9497 -3.70331 -1.71228 0
M  V30 403 H 40.6247 -4.11036 -0.634218 0
M  V30 404 H 39.2017 -3.05841 -2.13344 0
M  V30 405 N 41.3868 0.248026 -1.55636 0
M  V30 406 C 42.6148 0.993808 -1.81469 0
M  V30 407 C 43.0298 1.78991 -0.60064 0
M  V30 408 O 42.3868 1.77345 0.430682 0
M  V30 409 C 42.4378 1.93258 -3.05506 0
M  V30 410 O 42.1588 1.16869 -4.22224 0
M  V30 411 C 43.6598 2.79444 -3.4413 0
M  V30 412 H 40.8798 0.292486 -0.603898 0
M  V30 413 H 43.4238 0.271253 -2.02693 0
M  V30 414 H 41.5788 2.60943 -2.86335 0
M  V30 415 H 41.9928 1.80359 -4.92515 0
M  V30 416 H 43.4668 3.41066 -4.34026 0
M  V30 417 H 43.9438 3.50499 -2.64665 0
M  V30 418 H 44.5498 2.17214 -3.65648 0
M  V30 419 N 42.8649 1.48995 0.513639 0
M  V30 420 C 44.2809 1.35478 0.843682 0
M  V30 421 C 44.4809 0.378213 1.97919 0
M  V30 422 O 43.5369 -0.194689 2.51748 0
M  V30 423 C 44.8499 2.75901 1.1958 0
M  V30 424 C 46.3979 2.84509 1.30474 0
M  V30 425 C 46.8729 4.25671 1.69021 0
M  V30 426 N 48.3639 4.28422 1.76094 0
M  V30 427 C 49.0989 5.34601 2.07338 0
M  V30 428 N 48.5949 6.5104 2.36894 0
M  V30 429 N 50.3879 5.22007 2.08483 0
M  V30 430 H 42.5389 2.11092 -0.235328 0
M  V30 431 H 44.8019 0.947039 -0.0426669 0
M  V30 432 H 44.5079 3.49001 0.434913 0
M  V30 433 H 44.3819 3.10467 2.1422 0
M  V30 434 H 46.7689 2.11655 2.05637 0
M  V30 435 H 46.8499 2.53542 0.339155 0
M  V30 436 H 46.4939 4.99048 0.944135 0
M  V30 437 H 46.4239 4.54094 2.66658 0
M  V30 438 H 48.9149 3.44441 1.55464 0
M  V30 439 H 49.2279 7.2779 2.59887 0
M  V30 440 H 47.5729 6.54287 2.34378 0
M  V30 441 H 50.7639 4.30051 1.84861 0
M  V30 442 H 50.9369 6.04854 2.325 0
M  V30 443 N 44.343 -0.763751 1.37857 0
M  V30 444 C 45.293 -1.86765 1.30777 0
M  V30 445 C 46.277 -1.59726 0.194015 0
M  V30 446 O 47.469 -1.7172 0.42911 0
M  V30 447 C 44.598 -3.24343 1.12502 0
M  V30 448 C 43.684 -3.57307 2.28456 0
M  V30 449 N 44.075 -3.61398 3.53871 0
M  V30 450 C 42.373 -3.87517 2.20786 0
M  V30 451 C 43.074 -3.91339 4.30382 0
M  V30 452 N 42.05 -4.07649 3.59615 0
M  V30 453 H 45.852 -1.88191 2.25746 0
M  V30 454 H 43.366 -0.9606 1.30944 0
M  V30 455 H 45.363 -4.03327 1.05514 0
M  V30 456 H 44.023 -3.24175 0.184574 0
M  V30 457 H 45.034 -3.43407 3.87675 0
M  V30 458 H 41.711 -3.95125 1.34844 0
M  V30 459 H 43.101 -4.01213 5.3896 0
M  V30 460 N 45.8211 -1.22559 -0.990812 0
M  V30 461 C 47.2371 -0.985996 -1.255 0
M  V30 462 C 47.4371 0.319173 -1.98956 0
M  V30 463 O 46.4931 1.04127 -2.3003 0
M  V30 464 C 47.8061 -2.18607 -2.06474 0
M  V30 465 C 49.3541 -2.22985 -2.19651 0
M  V30 466 C 49.8291 -3.4255 -3.04012 0
M  V30 467 N 51.3201 -3.42725 -3.11599 0
M  V30 468 C 52.0551 -4.31892 -3.7717 0
M  V30 469 N 51.5511 -5.31279 -4.44651 0
M  V30 470 N 53.3441 -4.19662 -3.73952 0
M  V30 471 H 45.4951 -2.06469 -0.49841 0
M  V30 472 H 47.7581 -0.904853 -0.282747 0
M  V30 473 H 47.4641 -3.13267 -1.59865 0
M  V30 474 H 47.3381 -2.18838 -3.07229 0
M  V30 475 H 49.7251 -1.28871 -2.65474 0
M  V30 476 H 49.8061 -2.26791 -1.18319 0
M  V30 477 H 49.4501 -4.36965 -2.58889 0
M  V30 478 H 49.3801 -3.35984 -4.0549 0
M  V30 479 H 51.8711 -2.70807 -2.63575 0
M  V30 480 H 52.1841 -5.95593 -4.92431 0
M  V30 481 H 50.5291 -5.3519 -4.43392 0
M  V30 482 H 53.7201 -3.41268 -3.20396 0
M  V30 483 H 53.8931 -4.89358 -4.24774 0
M  V30 484 N 47.2992 1.18797 -1.03562 0
M  V30 485 C 48.5462 1.8865 -0.736023 0
M  V30 486 C 48.8742 1.80041 0.735889 0
M  V30 487 O 48.1292 1.19179 1.55225 0
M  V30 488 C 48.4282 3.38692 -1.14117 0
M  V30 489 C 48.0942 3.67504 -2.6125 0
M  V30 490 C 46.7562 3.75078 -3.01447 0
M  V30 491 C 49.1082 3.80293 -3.56408 0
M  V30 492 C 46.4362 3.92915 -4.35701 0
M  V30 493 C 48.7882 3.99645 -4.90374 0
M  V30 494 C 47.4522 4.05453 -5.30249 0
M  V30 495 H 46.7222 0.690321 -0.26933 0
M  V30 496 H 49.3692 1.40641 -1.29971 0
M  V30 497 H 47.6742 3.88645 -0.496202 0
M  V30 498 H 49.3712 3.91072 -0.886789 0
M  V30 499 H 45.9612 3.62223 -2.29113 0
M  V30 500 H 50.1452 3.73779 -3.26501 0
M  V30 501 H 45.4012 3.95653 -4.66121 0
M  V30 502 H 49.5752 4.08482 -5.64017 0
M  V30 503 H 47.2022 4.19027 -6.34288 0
M  V30 504 N 48.7773 0.814389 1.34928 0
M  V30 505 C 49.7093 0.187834 2.28429 0
M  V30 506 C 50.7223 -0.617374 1.5064 0
M  V30 507 O 51.9113 -0.448454 1.72775 0
M  V30 508 C 49.0113 -0.755962 3.30361 0
M  V30 509 C 48.1843 0.00456686 4.374 0
M  V30 510 C 47.2433 -0.858876 5.19143 0
M  V30 511 O 46.2693 -0.306968 5.68372 0
M  V30 512 N 47.4713 -2.17988 5.38016 0
M  V30 513 H 50.2363 0.991105 2.82838 0
M  V30 514 H 47.7973 0.670561 1.4736 0
M  V30 515 H 49.7893 -1.338 3.81942 0
M  V30 516 H 48.3593 -1.46001 2.7641 0
M  V30 517 H 47.5793 0.767865 3.86649 0
M  V30 518 H 48.8673 0.528422 5.06049 0
M  V30 519 H 48.2653 -2.65212 4.99679 0
M  V30 520 H 46.8223 -2.71098 5.92747 0
M  V30 521 N 50.2554 -1.46986 0.568584 0
M  V30 522 C 51.5014 -2.02741 0.0488709 0
M  V30 523 C 51.8344 -1.44077 -1.30214 0
M  V30 524 O 51.1094 -0.600552 -1.84996 0
M  V30 525 C 51.3924 -3.60086 -0.032047 0
M  V30 526 C 51.2454 -4.29162 1.34686 0
M  V30 527 C 52.5644 -4.33838 -0.739798 0
M  V30 528 H 49.6834 -0.736749 0.0192338 0
M  V30 529 H 52.3254 -1.75289 0.733065 0
M  V30 530 H 50.4754 -3.83606 -0.61473 0
M  V30 531 H 52.1474 -4.16948 1.97362 0
M  V30 532 H 50.3904 -3.89073 1.91846 0
M  V30 533 H 51.0614 -5.37826 1.24285 0
M  V30 534 H 53.5374 -4.15378 -0.244939 0
M  V30 535 H 52.4134 -5.43537 -0.765406 0
M  V30 536 H 52.6744 -4.03875 -1.79827 0
M  V30 537 N 51.7335 -0.305618 -1.54608 0
M  V30 538 C 52.9585 0.307562 -2.05107 0
M  V30 539 C 53.3835 1.46385 -1.18123 0
M  V30 540 O 52.7415 1.8034 -0.186324 0
M  V30 541 C 52.7895 0.73704 -3.52987 0
M  V30 542 O 51.8935 1.84134 -3.6901 0
M  V30 543 H 51.2345 0.0589143 -0.661381 0
M  V30 544 H 53.7645 -0.448807 -1.99617 0
M  V30 545 H 53.7745 1.02459 -3.94925 0
M  V30 546 H 52.4495 -0.108773 -4.15758 0
M  V30 547 H 51.0265 1.55398 -3.38978 0
M  V30 548 N 53.2116 1.57565 -0.0334293 0
M  V30 549 C 54.1596 2.1164 0.96496 0
M  V30 550 C 55.1536 1.04398 1.33407 0
M  V30 551 O 56.3596 1.22828 1.3158 0
M  V30 552 H 52.7346 0.676222 0.32898 0
M  V30 553 H 54.7056 2.94455 0.483614 0
M  V30 554 C 53.4546 2.66207 2.23672 0
M  V30 555 H 52.7776 3.48378 1.96145 0
M  V30 556 H 54.2176 3.07685 2.9173 0
M  V30 557 C 52.6766 1.59151 2.96939 0
M  V30 558 O 53.2066 0.993858 3.89211 0
M  V30 559 N 51.4126 1.31093 2.59351 0
M  V30 560 H 50.9596 1.7988 1.84393 0
M  V30 561 H 50.9176 0.596889 3.08682 0
M  V30 562 N 54.6897 -0.239769 1.55765 0
M  V30 563 C 56.1007 -0.808263 1.68297 0
M  V30 564 C 56.4517 -1.85736 0.632181 0
M  V30 565 O 55.5767 -2.15277 -0.220204 0
M  V30 566 C 56.1717 -1.47284 3.05111 0
M  V30 567 C 54.7307 -1.98895 3.19559 0
M  V30 568 C 53.8777 -0.842575 2.64189 0
M  V30 569 H 56.8287 -0.0154422 1.58692 0
M  V30 570 H 56.8497 -2.34111 2.99954 0
M  V30 571 H 56.3617 -0.709053 3.81568 0
M  V30 572 H 54.4627 -2.78132 2.47938 0
M  V30 573 H 54.5757 -2.18143 4.26556 0
M  V30 574 H 52.9397 -1.24501 2.22197 0
M  V30 575 H 53.7227 -0.0917552 3.43177 0
M  V30 576 N 56.1678 -1.49265 -0.50573 0
M  V30 577 C 57.5838 -1.35923 -0.836486 0
M  V30 578 C 57.7838 -0.388704 -1.97715 0
M  V30 579 O 56.8398 0.181336 -2.51848 0
M  V30 580 C 58.1528 -2.76531 -1.18115 0
M  V30 581 C 59.7008 -2.85197 -1.28964 0
M  V30 582 C 60.1758 -4.26561 -1.66761 0
M  V30 583 N 61.6668 -4.2935 -1.73819 0
M  V30 584 C 62.4018 -5.35693 -2.045 0
M  V30 585 N 61.8978 -6.52287 -2.33438 0
M  V30 586 N 63.6908 -5.23105 -2.05711 0
M  V30 587 H 55.8418 -2.10965 0.246519 0
M  V30 588 H 58.1048 -0.9468 0.0476887 0
M  V30 589 H 57.8108 -3.49226 -0.416398 0
M  V30 590 H 57.6848 -3.11599 -2.1257 0
M  V30 591 H 60.0718 -2.12742 -2.04511 0
M  V30 592 H 60.1528 -2.53718 -0.325704 0
M  V30 593 H 59.7968 -4.99541 -0.917656 0
M  V30 594 H 59.7268 -4.55502 -2.64246 0
M  V30 595 H 62.2178 -3.4526 -1.53635 0
M  V30 596 H 62.5308 -7.29158 -2.56024 0
M  V30 597 H 60.8758 -6.55521 -2.30905 0
M  V30 598 H 64.0668 -4.31026 -1.82577 0
M  V30 599 H 64.2398 -6.06078 -2.29289 0
M  V30 600 N 57.6459 0.756429 -1.3826 0
M  V30 601 C 58.5759 1.88374 -1.37976 0
M  V30 602 C 59.5569 1.68311 -0.246082 0
M  V30 603 O 60.7419 1.88944 -0.44874 0
M  V30 604 C 57.8719 3.25864 -1.20125 0
M  V30 605 C 56.8259 3.60523 -2.30666 0
M  V30 606 C 56.1519 4.9672 -1.97923 0
M  V30 607 C 57.4519 3.65692 -3.72916 0
M  V30 608 H 59.1459 1.88869 -2.32312 0
M  V30 609 H 56.6919 0.907272 -1.11824 0
M  V30 610 H 58.6449 4.0438 -1.18552 0
M  V30 611 H 57.3689 3.25841 -0.222498 0
M  V30 612 H 56.0279 2.84324 -2.3142 0
M  V30 613 H 55.6759 4.93253 -0.985393 0
M  V30 614 H 55.3759 5.20878 -2.71955 0
M  V30 615 H 56.8999 5.77618 -1.97964 0
M  V30 616 H 58.3139 4.34328 -3.74208 0
M  V30 617 H 56.7109 4.01358 -4.4613 0
M  V30 618 H 57.7809 2.65987 -4.05436 0
M  V30 619 N 59.124 1.23083 0.984299 0
M  V30 620 C 60.087 1.00979 2.05757 0
M  V30 621 C 61.087 -0.0269573 1.60777 0
M  V30 622 O 62.277 0.212403 1.729 0
M  V30 623 C 59.409 0.527072 3.36801 0
M  V30 624 H 60.602 1.9622 2.26799 0
M  V30 625 H 58.155 1.05072 1.15714 0
M  V30 626 H 58.89 -0.429294 3.21446 0
M  V30 627 H 58.675 1.27515 3.70786 0
M  V30 628 H 60.165 0.392942 4.15747 0
M  V30 629 N 60.6021 -1.18246 1.0419 0
M  V30 630 C 61.5651 -2.20128 0.638452 0
M  V30 631 C 62.5651 -1.57885 -0.304805 0
M  V30 632 O 63.7551 -1.73967 -0.0900369 0
M  V30 633 C 60.8871 -3.4084 -0.0637751 0
M  V30 634 H 62.0801 -2.57336 1.54007 0
M  V30 635 H 59.6331 -1.32152 0.834598 0
M  V30 636 H 60.3681 -3.09166 -0.979136 0
M  V30 637 H 60.1531 -3.8726 0.614198 0
M  V30 638 H 61.6431 -4.16274 -0.332512 0
M  V30 639 N 62.0802 -0.821533 -1.34494 0
M  V30 640 C 63.0272 -0.240397 -2.29545 0
M  V30 641 C 63.9972 0.634031 -1.53523 0
M  V30 642 O 65.1822 0.575966 -1.81899 0
M  V30 643 C 62.3222 0.592869 -3.39969 0
M  V30 644 C 61.4352 -0.30365 -4.30932 0
M  V30 645 C 60.5702 0.539049 -5.28458 0
M  V30 646 C 59.6092 -0.356942 -6.11058 0
M  V30 647 N 58.7462 0.446603 -7.00678 0
M  V30 648 H 63.5862 -1.05632 -2.7865 0
M  V30 649 H 61.1232 -0.532413 -1.37127 0
M  V30 650 H 63.0812 1.09129 -4.02675 0
M  V30 651 H 61.7112 1.37392 -2.92102 0
M  V30 652 H 60.7632 -0.920276 -3.691 0
M  V30 653 H 62.0752 -0.992661 -4.88823 0
M  V30 654 H 61.2292 1.102 -5.96608 0
M  V30 655 H 59.9682 1.26157 -4.71101 0
M  V30 656 H 58.9732 -0.932047 -5.41842 0
M  V30 657 H 60.1982 -1.07755 -6.70497 0
M  V30 658 H 58.1442 1.15282 -6.45791 0
M  V30 659 H 58.0612 -0.184048 -7.55776 0
M  V30 660 H 59.3292 0.992352 -7.73158 0
M  V30 661 N 63.5583 1.46682 -0.576371 0
M  V30 662 C 64.4903 2.28341 0.198231 0
M  V30 663 C 65.5033 1.38141 0.861453 0
M  V30 664 O 66.6923 1.62797 0.732082 0
M  V30 665 C 63.7923 3.12986 1.29972 0
M  V30 666 C 62.9653 4.31271 0.729639 0
M  V30 667 C 62.0243 4.97363 1.71803 0
M  V30 668 O 61.0503 5.55156 1.25658 0
M  V30 669 N 62.2523 4.93796 3.05198 0
M  V30 670 H 65.0173 2.9546 -0.502324 0
M  V30 671 H 62.5783 1.56525 -0.413715 0
M  V30 672 H 64.5703 3.54066 1.96008 0
M  V30 673 H 63.1403 2.47984 1.90323 0
M  V30 674 H 62.3603 3.94052 -0.108012 0
M  V30 675 H 63.6483 5.07739 0.328438 0
M  V30 676 H 63.0463 4.48077 3.45317 0
M  V30 677 H 61.6033 5.38837 3.6674 0
M  V30 678 N 65.0364 0.313813 1.54444 0
M  V30 679 C 66.2844 -0.291099 1.99993 0
M  V30 680 C 66.6054 -1.53418 1.20366 0
M  V30 681 O 65.8754 -1.93544 0.302927 0
M  V30 682 H 64.4554 -0.110552 0.738774 0
M  V30 683 H 67.1174 0.428106 1.9014 0
M  V30 684 H 66.2134 -0.554268 3.07139 0
M  V30 685 N 66.5145 -1.57545 0.0417849 0
M  V30 686 C 67.4445 -2.14009 -0.933929 0
M  V30 687 C 68.4255 -1.05938 -1.33083 0
M  V30 688 O 69.6105 -1.33833 -1.40721 0
M  V30 689 C 66.7405 -2.67747 -2.21199 0
M  V30 690 C 65.6945 -3.80718 -1.95544 0
M  V30 691 C 65.0205 -4.20935 -3.29724 0
M  V30 692 C 66.3205 -5.06258 -1.28452 0
M  V30 693 H 68.0145 -2.95788 -0.463645 0
M  V30 694 H 65.5605 -1.42285 -0.221573 0
M  V30 695 H 67.5135 -3.05886 -2.89848 0
M  V30 696 H 66.2375 -1.83147 -2.70416 0
M  V30 697 H 64.8965 -3.43037 -1.2931 0
M  V30 698 H 64.5445 -3.33298 -3.76724 0
M  V30 699 H 64.2445 -4.9707 -3.13361 0
M  V30 700 H 65.7685 -4.61666 -3.9962 0
M  V30 701 H 67.1825 -5.41903 -1.8712 0
M  V30 702 H 65.5795 -5.87475 -1.22445 0
M  V30 703 H 66.6495 -4.84207 -0.259219 0
M  V30 704 N 67.9926 0.231505 -1.5589 0
M  V30 705 C 68.9226 1.29022 -1.94617 0
M  V30 706 C 69.9036 1.4941 -0.813067 0
M  V30 707 O 71.0886 1.6176 -1.07459 0
M  V30 708 C 68.2186 2.64199 -2.25424 0
M  V30 709 C 67.1726 2.58484 -3.41131 0
M  V30 710 C 66.4986 3.97599 -3.57518 0
M  V30 711 C 67.7986 2.1413 -4.76388 0
M  V30 712 H 69.4926 0.968563 -2.83301 0
M  V30 713 H 67.0386 0.464479 -1.36303 0
M  V30 714 H 68.9916 3.38413 -2.51107 0
M  V30 715 H 67.7156 2.98032 -1.33583 0
M  V30 716 H 66.3746 1.86727 -3.15481 0
M  V30 717 H 66.0226 4.28723 -2.6307 0
M  V30 718 H 65.7226 3.94659 -4.35337 0
M  V30 719 H 67.2466 4.7349 -3.85538 0
M  V30 720 H 68.6606 2.78083 -5.01341 0
M  V30 721 H 67.0576 2.2227 -5.57419 0
M  V30 722 H 68.1276 1.09331 -4.72414 0
M  V30 723 N 69.4707 1.49531 0.497807 0
M  V30 724 C 70.4177 1.66436 1.59899 0
M  V30 725 C 71.3877 0.505793 1.58212 0
M  V30 726 O 72.5727 0.733202 1.7615 0
M  V30 727 C 69.7127 1.7399 2.98029 0
M  V30 728 C 68.8257 3.01172 3.09708 0
M  V30 729 C 67.9607 2.99686 4.38591 0
M  V30 730 C 66.9997 4.21434 4.43914 0
M  V30 731 N 66.1367 4.1784 5.64229 0
M  V30 732 H 70.9767 2.60459 1.44793 0
M  V30 733 H 68.5137 1.29137 0.704423 0
M  V30 734 H 70.4717 1.76352 3.78095 0
M  V30 735 H 69.1017 0.834301 3.11832 0
M  V30 736 H 68.1537 3.08408 2.22685 0
M  V30 737 H 69.4657 3.91165 3.09502 0
M  V30 738 H 68.6197 3.00628 5.2698 0
M  V30 739 H 67.3587 2.07477 4.41367 0
M  V30 740 H 66.3637 4.20733 3.53926 0
M  V30 741 H 67.5887 5.14839 4.42851 0
M  V30 742 H 65.5347 3.28469 5.67841 0
M  V30 743 H 65.4517 5.01571 5.65652 0
M  V30 744 H 66.7197 4.22889 6.54817 0
M  V30 745 N 70.9488 -0.749086 1.3866 0
M  V30 746 C 71.8818 -1.87111 1.30631 0
M  V30 747 C 72.8598 -1.61572 0.18251 0
M  V30 748 O 74.0438 -1.85019 0.360592 0
M  V30 749 C 71.1708 -3.22815 1.02511 0
M  V30 750 C 70.2168 -3.67234 2.1689 0
M  V30 751 S 71.0498 -3.78245 3.79066 0
M  V30 752 C 72.2058 -5.16761 3.53142 0
M  V30 753 H 72.4388 -1.93636 2.25594 0
M  V30 754 H 69.9718 -0.912525 1.24549 0
M  V30 755 H 71.9298 -4.01181 0.869701 0
M  V30 756 H 70.5908 -3.13964 0.0925884 0
M  V30 757 H 69.7838 -4.65677 1.92771 0
M  V30 758 H 69.3858 -2.96034 2.28561 0
M  V30 759 H 71.6778 -6.02656 3.09534 0
M  V30 760 H 72.6208 -5.45902 4.50995 0
M  V30 761 H 73.0288 -4.85771 2.87554 0
M  V30 762 N 72.4269 -1.23603 -0.977757 0
M  V30 763 C 73.3739 -1.01954 -2.07061 0
M  V30 764 C 74.3439 0.0638697 -1.65977 0
M  V30 765 O 75.5289 -0.0887624 -1.90593 0
M  V30 766 C 72.6689 -0.619658 -3.39491 0
M  V30 767 C 71.7819 -1.77547 -3.93829 0
M  V30 768 C 70.9169 -1.32212 -5.14484 0
M  V30 769 C 69.9559 -2.44852 -5.60994 0
M  V30 770 N 69.0929 -2.00456 -6.72876 0
M  V30 771 H 73.9329 -1.95495 -2.24913 0
M  V30 772 H 71.4699 -0.973861 -1.10247 0
M  V30 773 H 73.4279 -0.368898 -4.15566 0
M  V30 774 H 72.0579 0.278752 -3.21594 0
M  V30 775 H 71.1099 -2.14016 -3.14486 0
M  V30 776 H 72.4219 -2.62219 -4.24314 0
M  V30 777 H 71.5759 -1.02965 -5.97899 0
M  V30 778 H 70.3149 -0.445808 -4.85658 0
M  V30 779 H 69.3199 -2.74871 -4.76157 0
M  V30 780 H 70.5449 -3.33024 -5.91837 0
M  V30 781 H 68.4909 -1.15208 -6.45804 0
M  V30 782 H 68.4079 -2.78687 -7.02759 0
M  V30 783 H 69.6759 -1.7432 -7.59758 0
M  V30 784 N 73.905 1.17692 -1.04816 0
M  V30 785 C 74.868 2.19787 -0.650117 0
M  V30 786 C 75.868 1.58044 0.296427 0
M  V30 787 O 77.058 1.74012 0.0808097 0
M  V30 788 C 74.19 3.40869 0.0456987 0
M  V30 789 H 75.383 2.56516 -1.5537 0
M  V30 790 H 72.936 1.31708 -0.841594 0
M  V30 791 H 73.671 3.09681 0.962726 0
M  V30 792 H 73.456 3.86928 -0.634727 0
M  V30 793 H 74.946 4.16445 0.310432 0
M  V30 794 N 75.3831 0.828654 1.34056 0
M  V30 795 C 76.3131 0.269443 2.3194 0
M  V30 796 C 77.2941 -0.617247 1.58506 0
M  V30 797 O 78.4791 -0.542931 1.86456 0
M  V30 798 C 75.6091 -0.564793 3.42677 0
M  V30 799 C 74.5631 0.225241 4.27407 0
M  V30 800 C 73.8891 -0.7321 5.29664 0
M  V30 801 C 75.1891 1.43663 5.02154 0
M  V30 802 H 76.8831 1.08728 2.7896 0
M  V30 803 H 74.4291 0.524283 1.34117 0
M  V30 804 H 76.3821 -0.966233 4.10173 0
M  V30 805 H 75.1061 -1.41574 2.9432 0
M  V30 806 H 73.7651 0.608117 3.61521 0
M  V30 807 H 73.4131 -1.57916 4.77568 0
M  V30 808 H 73.1131 -0.20767 5.87233 0
M  V30 809 H 74.6371 -1.13128 6.00029 0
M  V30 810 H 76.0511 1.1089 5.62473 0
M  V30 811 H 74.4481 1.89711 5.69324 0
M  V30 812 H 75.5181 2.21181 4.31517 0
M  V30 813 N 76.8612 -1.46375 0.584142 0
M  V30 814 C 77.8242 -2.28784 -0.138108 0
M  V30 815 C 78.8242 -1.38471 -0.817462 0
M  V30 816 O 80.0142 -1.60833 -0.669199 0
M  V30 817 C 77.1462 -3.18892 -1.20503 0
M  V30 818 H 78.3392 -2.94117 0.586127 0
M  V30 819 H 75.8922 -1.52509 0.342171 0
M  V30 820 H 76.6272 -2.58309 -1.96079 0
M  V30 821 H 76.4122 -3.85388 -0.722384 0
M  V30 822 H 77.9022 -3.80914 -1.71155 0
M  V30 823 N 78.3393 -0.321999 -1.54275 0
M  V30 824 C 79.6163 0.335232 -1.92706 0
M  V30 825 C 79.9963 1.70006 -1.25145 0
M  V30 826 O 79.3443 2.25067 -0.394596 0
M  V30 827 C 79.5543 0.429008 -3.46353 0
M  V30 828 C 80.9023 0.690029 -4.18956 0
M  V30 829 O 81.9263 0.511992 -3.52501 0
M  V30 830 O 80.7853 1.03338 -5.36641 0
M  V30 831 H 77.8793 0.191143 -0.804608 0
M  V30 832 H 80.4253 -0.3716 -1.65581 0
M  V30 833 H 79.1973 -0.529611 -3.87699 0
M  V30 834 H 78.8203 1.18348 -3.79578 0
M  V30 835 N 79.8174 1.5752 -0.0501392 0
M  V30 836 C 80.7804 2.1037 0.909786 0
M  V30 837 C 81.7804 1.02308 1.24056 0
M  V30 838 O 82.9704 1.28385 1.17741 0
M  V30 839 C 80.1024 2.58708 2.21998 0
M  V30 840 H 81.2954 2.96479 0.451665 0
M  V30 841 H 78.8484 1.55038 0.198248 0
M  V30 842 H 79.5834 1.75989 2.72394 0
M  V30 843 H 79.3684 3.37675 1.99295 0
M  V30 844 H 80.8584 2.99747 2.9076 0
M  V30 845 N 81.2955 -0.223234 1.56011 0
M  V30 846 C 82.5435 -0.946003 1.78592 0
M  V30 847 C 82.8645 -1.84936 0.618349 0
M  V30 848 O 82.1345 -1.92473 -0.364833 0
M  V30 849 H 80.7145 -0.352298 0.658707 0
M  V30 850 H 83.3765 -0.235494 1.93472 0
M  V30 851 H 82.4725 -1.55381 2.70672 0
M  V30 852 N 82.7736 -1.49793 -0.48987 0
M  V30 853 C 84.0206 -1.59841 -1.24327 0
M  V30 854 C 84.3486 -0.290135 -1.92324 0
M  V30 855 O 83.6036 0.722749 -1.81865 0
M  V30 856 C 83.9026 -2.71488 -2.32441 0
M  V30 857 C 83.5686 -4.12614 -1.81826 0
M  V30 858 C 82.2306 -4.51017 -1.67742 0
M  V30 859 C 84.5826 -5.00892 -1.4407 0
M  V30 860 C 81.9106 -5.75459 -1.14297 0
M  V30 861 C 84.2626 -6.25863 -0.920742 0
M  V30 862 C 82.9266 -6.63086 -0.766383 0
M  V30 863 H 82.1966 -0.584899 -0.454944 0
M  V30 864 H 84.8436 -1.83663 -0.542215 0
M  V30 865 H 83.1486 -2.4168 -3.0838 0
M  V30 866 H 84.8456 -2.76469 -2.90458 0
M  V30 867 H 81.4356 -3.82307 -1.93751 0
M  V30 868 H 85.6196 -4.7187 -1.53794 0
M  V30 869 H 80.8756 -6.02989 -1.01068 0
M  V30 870 H 85.0496 -6.9364 -0.619448 0
M  V30 871 H 82.6766 -7.59393 -0.350083 0
M  V30 872 N 84.2517 0.741722 -1.39055 0
M  V30 873 C 85.6627 1.31966 -1.32068 0
M  V30 874 C 86.0137 1.96192 0.0180797 0
M  V30 875 O 85.1387 1.95861 0.920196 0
M  V30 876 C 85.7337 2.39954 -2.39181 0
M  V30 877 C 84.2927 2.93438 -2.35735 0
M  V30 878 C 83.4397 1.66936 -2.21422 0
M  V30 879 H 86.3907 0.539721 -1.4924 0
M  V30 880 H 86.4117 3.20182 -2.05581 0
M  V30 881 H 85.9237 1.9318 -3.36605 0
M  V30 882 H 84.0247 3.4451 -1.41929 0
M  V30 883 H 84.1377 3.4701 -3.30335 0
M  V30 884 H 82.5017 1.91016 -1.68478 0
M  V30 885 H 83.2847 1.22224 -3.20806 0
M  V30 886 N 85.7298 1.2412 0.971189 0
M  V30 887 C 86.6618 0.988349 2.06795 0
M  V30 888 C 87.6748 -0.0409541 1.62748 0
M  V30 889 O 88.8638 0.195673 1.77424 0
M  V30 890 C 85.9638 0.469023 3.35639 0
M  V30 891 C 85.1368 1.56065 4.08611 0
M  V30 892 C 84.1958 1.04458 5.15728 0
M  V30 893 O 83.2218 1.73553 5.42096 0
M  V30 894 N 84.4238 -0.122817 5.8037 0
M  V30 895 H 87.1888 1.93265 2.29061 0
M  V30 896 H 84.7498 1.15102 1.13856 0
M  V30 897 H 86.7418 0.108613 4.04554 0
M  V30 898 H 85.3118 -0.380919 3.1027 0
M  V30 899 H 84.5318 2.09341 3.34021 0
M  V30 900 H 85.8198 2.29449 4.54126 0
M  V30 901 H 85.2178 -0.700563 5.61345 0
M  V30 902 H 83.7748 -0.424404 6.50417 0
M  V30 903 N 87.2079 -1.17134 1.05439 0
M  V30 904 C 88.1709 -2.19439 0.661764 0
M  V30 905 C 89.1709 -1.58199 -0.288042 0
M  V30 906 O 90.3609 -1.74053 -0.0715803 0
M  V30 907 C 87.4929 -3.40889 -0.0276209 0
M  V30 908 H 88.6859 -2.55688 1.56728 0
M  V30 909 H 86.2389 -1.31259 0.848567 0
M  V30 910 H 86.9739 -3.10187 -0.94629 0
M  V30 911 H 86.7589 -3.86586 0.655238 0
M  V30 912 H 88.2489 -4.16603 -0.288342 0
M  V30 913 N 88.686 -0.835752 -1.33615 0
M  V30 914 C 89.932 -0.430596 -1.98176 0
M  V30 915 C 90.265 1.00684 -1.66061 0
M  V30 916 O 89.54 1.70339 -0.938877 0
M  V30 917 C 89.823 -0.648065 -3.5422 0
M  V30 918 C 89.676 -2.13255 -3.96033 0
M  V30 919 C 90.995 -0.0922113 -4.40003 0
M  V30 920 H 88.114 -0.157924 -0.719881 0
M  V30 921 H 90.756 -1.05069 -1.58305 0
M  V30 922 H 88.906 -0.120237 -3.88314 0
M  V30 923 H 90.578 -2.725 -3.72211 0
M  V30 924 H 88.821 -2.61823 -3.45878 0
M  V30 925 H 89.492 -2.23547 -5.04708 0
M  V30 926 H 91.968 -0.543343 -4.12537 0
M  V30 927 H 90.844 -0.274083 -5.48215 0
M  V30 928 H 91.105 1.00378 -4.30554 0
M  V30 929 N 90.1641 1.46063 -0.591896 0
M  V30 930 C 91.4131 2.01547 -0.0786637 0
M  V30 931 C 91.7261 1.46796 1.29268 0
M  V30 932 O 92.9321 1.94157 1.89777 0
M  V30 933 C 91.3881 3.59787 -0.0900024 0
M  V30 934 C 90.9961 4.23534 -1.46023 0
M  V30 935 C 92.7401 4.22895 0.368806 0
M  V30 936 C 90.6471 5.73881 -1.4288 0
M  V30 937 H 89.5771 0.753564 -0.0256388 0
M  V30 938 H 92.2281 1.677 -0.744905 0
M  V30 939 H 90.6101 3.90752 0.642586 0
M  V30 940 H 91.7841 4.04167 -2.21328 0
M  V30 941 H 90.0991 3.72558 -1.85982 0
M  V30 942 H 92.6961 5.33116 0.411258 0
M  V30 943 H 93.0391 3.9247 1.38827 0
M  V30 944 H 93.5721 3.9659 -0.31001 0
M  V30 945 H 90.3111 6.0898 -2.42536 0
M  V30 946 H 89.8311 5.95486 -0.718095 0
M  V30 947 H 91.5101 6.36776 -1.14565 0
M  V30 948 N 91.6422 0.330177 1.54103 0
M  V30 949 C 93.0532 -0.15652 1.86043 0
M  V30 950 C 93.4042 -1.51086 1.2517 0
M  V30 951 O 92.5292 -2.09023 0.560217 0
M  V30 952 C 93.1242 -0.290784 3.3755 0
M  V30 953 C 91.6832 -0.721705 3.69416 0
M  V30 954 C 90.8302 0.152622 2.7688 0
M  V30 955 H 93.7812 0.550237 1.48856 0
M  V30 956 H 93.8022 -1.12058 3.63625 0
M  V30 957 H 93.3142 0.695068 3.81825 0
M  V30 958 H 91.4152 -1.71706 3.30678 0
M  V30 959 H 91.5282 -0.520869 4.7626 0
M  V30 960 H 89.8922 -0.372894 2.51956 0
M  V30 961 H 90.6752 1.13536 3.23982 0
M  V30 962 N 93.1203 -1.57491 0.0584922 0
M  V30 963 C 94.5313 -1.80526 -0.476138 0
M  V30 964 C 94.8823 -0.971334 -1.70469 0
M  V30 965 O 94.0073 -0.190012 -2.15564 0
M  V30 966 C 94.6023 -3.27424 -0.870587 0
M  V30 967 C 93.1613 -3.51351 -1.35015 0
M  V30 968 C 92.3083 -2.75343 -0.32887 0
M  V30 969 H 95.2593 -1.56133 0.284312 0
M  V30 970 H 95.2803 -3.38745 -1.73299 0
M  V30 971 H 94.7923 -3.88093 0.0237627 0
M  V30 972 H 92.8933 -2.95971 -2.26345 0
M  V30 973 H 93.0063 -4.60059 -1.33726 0
M  V30 974 H 91.3703 -2.417 -0.803321 0
M  V30 975 H 92.1533 -3.38743 0.557521 0
M  V30 976 N 94.5984 0.214957 -1.56127 0
M  V30 977 C 95.5484 1.27006 -1.8935 0
M  V30 978 C 96.5324 1.41969 -0.757202 0
M  V30 979 O 97.7244 1.44673 -1.01973 0
M  V30 980 C 94.8534 2.61911 -2.2194 0
M  V30 981 C 93.9394 2.50822 -3.41978 0
M  V30 982 N 94.3304 2.09391 -4.60423 0
M  V30 983 C 92.6284 2.81765 -3.45723 0
M  V30 984 C 93.3294 2.09712 -5.42582 0
M  V30 985 N 92.3054 2.50454 -4.82466 0
M  V30 986 H 96.1074 0.940734 -2.78437 0
M  V30 987 H 93.6214 0.423492 -1.56781 0
M  V30 988 H 95.6184 3.38096 -2.43919 0
M  V30 989 H 94.2784 2.95684 -1.34169 0
M  V30 990 H 95.2894 1.80416 -4.85459 0
M  V30 991 H 91.9664 3.19865 -2.68314 0
M  V30 992 H 93.3564 1.79748 -6.4741 0
M  V30 993 N 96.0765 1.50051 0.48192 0
M  V30 994 C 96.9865 1.7089 1.60728 0
M  V30 995 C 98.0025 0.591788 1.63627 0
M  V30 996 O 99.1785 0.868817 1.81696 0
M  V30 997 C 96.2435 1.78855 2.97005 0
M  V30 998 C 95.3045 3.02537 3.04581 0
M  V30 999 C 94.5375 3.10112 4.34357 0
M  V30 1000 O 94.7605 2.24765 5.24249 0
M  V30 1001 O 93.6945 4.02747 4.47301 0
M  V30 1002 H 97.5205 2.66264 1.46072 0
M  V30 1003 H 95.1055 1.34018 0.660264 0
M  V30 1004 H 96.9875 1.86336 3.77964 0
M  V30 1005 H 95.6625 0.866628 3.11883 0
M  V30 1006 H 94.5695 3.00563 2.22739 0
M  V30 1007 H 95.9025 3.94272 2.94636 0
M  V30 1008 N 97.5546 -0.734337 1.39446 0
M  V30 1009 C 98.9706 -1.03997 1.21065 0
M  V30 1010 C 99.1706 -2.01369 0.0727019 0
M  V30 1011 O 98.2266 -2.45856 -0.575426 0
M  V30 1012 C 99.5396 -1.60163 2.54496 0
M  V30 1013 C 101.088 -1.7224 2.61347 0
M  V30 1014 C 101.563 -2.31814 3.95002 0
M  V30 1015 N 103.054 -2.39223 3.96644 0
M  V30 1016 C 103.789 -2.86258 4.96834 0
M  V30 1017 N 103.285 -3.33184 6.07421 0
M  V30 1018 N 105.078 -2.85473 4.84213 0
M  V30 1019 H 97.2286 -0.0885624 2.12215 0
M  V30 1020 H 99.4916 -0.10191 0.942506 0
M  V30 1021 H 99.1976 -0.960811 3.38321 0
M  V30 1022 H 99.0716 -2.5896 2.74262 0
M  V30 1023 H 101.459 -2.35443 1.77906 0
M  V30 1024 H 101.54 -0.720939 2.4543 0
M  V30 1025 H 101.184 -1.69238 4.78875 0
M  V30 1026 H 101.114 -3.32638 4.08239 0
M  V30 1027 H 103.605 -2.06057 3.16779 0
M  V30 1028 H 103.918 -3.67586 6.7978 0
M  V30 1029 H 102.263 -3.31191 6.11013 0
M  V30 1030 H 105.454 -2.48136 3.96921 0
M  V30 1031 H 105.627 -3.21814 5.62441 0
M  V30 1032 N 99.0327 -1.24633 -0.964593 0
M  V30 1033 C 100.444 -1.08045 -1.5226 0
M  V30 1034 C 100.795 0.347116 -1.93105 0
M  V30 1035 O 99.9197 1.23588 -1.77637 0
M  V30 1036 C 100.515 -1.95514 -2.76695 0
M  V30 1037 C 99.0737 -1.8314 -3.28841 0
M  V30 1038 C 98.2207 -1.90262 -2.01732 0
M  V30 1039 H 101.172 -1.38064 -0.782553 0
M  V30 1040 H 101.193 -1.48925 -3.50145 0
M  V30 1041 H 100.705 -2.99407 -2.46936 0
M  V30 1042 H 98.8057 -0.82092 -3.63444 0
M  V30 1043 H 98.9187 -2.67406 -3.97531 0
M  V30 1044 H 97.2827 -1.34027 -2.16584 0
M  V30 1045 H 98.0657 -2.9574 -1.74334 0
M  V30 1046 N 100.511 1.16574 -1.06058 0
M  V30 1047 C 101.758 1.87047 -0.775873 0
M  V30 1048 C 102.086 1.81562 0.697534 0
M  V30 1049 O 101.341 1.22445 1.52662 0
M  V30 1050 C 101.64 3.36195 -1.21275 0
M  V30 1051 C 101.306 3.6188 -2.68986 0
M  V30 1052 C 99.9678 3.68599 -3.09335 0
M  V30 1053 C 102.32 3.72648 -3.64394 0
M  V30 1054 C 99.6478 3.83584 -4.43937 0
M  V30 1055 C 102 3.89154 -4.98741 0
M  V30 1056 C 100.664 3.94114 -5.3873 0
M  V30 1057 H 99.9338 0.684452 -0.283912 0
M  V30 1058 H 102.581 1.37853 -1.32925 0
M  V30 1059 H 100.886 3.87505 -0.578528 0
M  V30 1060 H 102.583 3.89103 -0.969542 0
M  V30 1061 H 99.1728 3.57281 -2.36744 0
M  V30 1062 H 103.357 3.66769 -3.34356 0
M  V30 1063 H 98.6128 3.85677 -4.74409 0
M  V30 1064 H 102.787 3.96427 -5.72554 0
M  V30 1065 H 100.414 4.05478 -6.43033 0
M  V30 1066 N 101.989 0.842826 1.3317 0
M  V30 1067 C 103.238 0.436738 1.96915 0
M  V30 1068 C 103.551 -1.01025 1.67491 0
M  V30 1069 O 104.757 -1.5212 2.24881 0
M  V30 1070 C 103.213 0.730021 3.52418 0
M  V30 1071 C 102.821 2.19195 3.90714 0
M  V30 1072 C 104.565 0.391076 4.22695 0
M  V30 1073 C 102.472 2.42907 5.39212 0
M  V30 1074 H 101.402 0.15958 0.736919 0
M  V30 1075 H 104.053 1.03196 1.51733 0
M  V30 1076 H 102.435 0.0643755 3.95948 0
M  V30 1077 H 103.609 2.8984 3.58231 0
M  V30 1078 H 101.924 2.49425 3.33431 0
M  V30 1079 H 104.521 0.545817 5.31907 0
M  V30 1080 H 104.864 -0.666294 4.10933 0
M  V30 1081 H 105.397 1.01212 3.84709 0
M  V30 1082 H 102.136 3.47224 5.55982 0
M  V30 1083 H 101.656 1.76827 5.73142 0
M  V30 1084 H 103.335 2.2626 6.06148 0
M  V30 1085 N 103.467 -1.45747 0.599634 0
M  V30 1086 C 104.878 -1.85853 0.177681 0
M  V30 1087 C 105.229 -1.50102 -1.26348 0
M  V30 1088 O 104.354 -0.923905 -1.95686 0
M  V30 1089 C 104.949 -3.37326 0.315688 0
M  V30 1090 C 103.508 -3.76365 -0.0515144 0
M  V30 1091 C 102.655 -2.69722 0.643822 0
M  V30 1092 H 105.606 -1.36661 0.806814 0
M  V30 1093 H 105.627 -3.77778 -0.454321 0
M  V30 1094 H 105.139 -3.63315 1.36468 0
M  V30 1095 H 103.24 -3.55993 -1.09999 0
M  V30 1096 H 103.353 -4.77916 0.336594 0
M  V30 1097 H 101.717 -2.54567 0.0822881 0
M  V30 1098 H 102.5 -2.98549 1.6948 0
M  V30 1099 N 104.945 -0.338344 -1.53925 0
M  V30 1100 C 106.191 0.260143 -2.01125 0
M  V30 1101 C 106.524 1.50617 -1.22589 0
M  V30 1102 O 105.799 1.91979 -0.312113 0
M  V30 1103 C 106.082 0.579499 -3.55407 0
M  V30 1104 C 105.935 -0.678264 -4.44657 0
M  V30 1105 C 107.254 1.39122 -4.17532 0
M  V30 1106 H 104.373 0.0930772 -0.731099 0
M  V30 1107 H 107.015 -0.457852 -1.84401 0
M  V30 1108 H 105.165 1.19118 -3.69788 0
M  V30 1109 H 106.837 -1.31631 -4.42121 0
M  V30 1110 H 105.08 -1.3042 -4.13731 0
M  V30 1111 H 105.751 -0.410143 -5.50474 0
M  V30 1112 H 108.227 0.874035 -4.06817 0
M  V30 1113 H 107.103 1.58342 -5.25565 0
M  V30 1114 H 107.364 2.39178 -3.71815 0
M  V30 1115 N 106.423 1.57458 -0.0668435 0
M  V30 1116 C 107.353 2.15468 0.899764 0
M  V30 1117 C 108.334 1.08042 1.31381 0
M  V30 1118 O 109.519 1.36054 1.38574 0
M  V30 1119 C 106.649 2.71232 2.16911 0
M  V30 1120 C 105.603 3.83781 1.89463 0
M  V30 1121 C 104.929 4.26127 3.22986 0
M  V30 1122 C 106.229 5.08238 1.20381 0
M  V30 1123 H 107.923 2.96488 0.416529 0
M  V30 1124 H 105.469 1.4262 0.198908 0
M  V30 1125 H 107.422 3.10458 2.84945 0
M  V30 1126 H 106.146 1.87426 2.67468 0
M  V30 1127 H 104.805 3.45051 1.23836 0
M  V30 1128 H 104.453 3.39249 3.71374 0
M  V30 1129 H 104.153 5.01993 3.05413 0
M  V30 1130 H 105.677 4.67966 3.92225 0
M  V30 1131 H 107.091 5.44811 1.78475 0
M  V30 1132 H 105.488 5.89349 1.13083 0
M  V30 1133 H 106.558 4.84558 0.182153 0
M  V30 1134 N 107.901 -0.206675 1.56239 0
M  V30 1135 C 109.317 -0.557025 1.49564 0
M  V30 1136 C 109.517 -1.86424 0.764735 0
M  V30 1137 O 108.573 -2.50584 0.310491 0
M  V30 1138 C 109.886 -0.622478 2.94186 0
M  V30 1139 C 111.434 -0.712099 3.04792 0
M  V30 1140 C 111.909 -0.808767 4.50803 0
M  V30 1141 N 113.4 -0.8726 4.54907 0
M  V30 1142 C 114.135 -0.967365 5.65181 0
M  V30 1143 N 113.631 -1.02515 6.85173 0
M  V30 1144 N 115.424 -1.00366 5.53067 0
M  V30 1145 H 107.575 0.650943 2.02179 0
M  V30 1146 H 109.838 0.230387 0.919579 0
M  V30 1147 H 109.544 0.268727 3.50672 0
M  V30 1148 H 109.418 -1.4811 3.46905 0
M  V30 1149 H 111.805 -1.59374 2.48363 0
M  V30 1150 H 111.886 0.172489 2.55218 0
M  V30 1151 H 111.53 0.0684754 5.07854 0
M  V30 1152 H 111.46 -1.70899 4.98098 0
M  V30 1153 H 113.951 -0.837657 3.68499 0
M  V30 1154 H 114.264 -1.09765 7.64965 0
M  V30 1155 H 112.609 -0.994026 6.87855 0
M  V30 1156 H 115.8 -0.95527 4.58249 0
M  V30 1157 H 115.973 -1.07405 6.39037 0
M  V30 1158 N 109.379 -1.50304 -0.473955 0
M  V30 1159 C 110.311 -1.65109 -1.58971 0
M  V30 1160 C 111.324 -0.532676 -1.53839 0
M  V30 1161 O 112.513 -0.805751 -1.59279 0
M  V30 1162 C 109.613 -1.61684 -2.97845 0
M  V30 1163 C 108.786 -2.8951 -3.27876 0
M  V30 1164 C 107.845 -2.78768 -4.4629 0
M  V30 1165 O 106.871 -3.52722 -4.46739 0
M  V30 1166 N 108.073 -1.9213 -5.47783 0
M  V30 1167 H 110.838 -2.61347 -1.46689 0
M  V30 1168 H 108.399 -1.47732 -0.662324 0
M  V30 1169 H 110.391 -1.52114 -3.75024 0
M  V30 1170 H 108.961 -0.731925 -3.03911 0
M  V30 1171 H 108.181 -3.13228 -2.39336 0
M  V30 1172 H 109.469 -3.74199 -3.4475 0
M  V30 1173 H 108.867 -1.31353 -5.50239 0
M  V30 1174 H 107.424 -1.88466 -6.23958 0
M  V30 1175 N 110.857 0.726932 -1.39834 0
M  V30 1176 C 111.787 1.85405 -1.41941 0
M  V30 1177 C 112.768 1.67751 -0.281728 0
M  V30 1178 O 113.953 1.8795 -0.488717 0
M  V30 1179 C 111.083 3.23243 -1.2701 0
M  V30 1180 C 110.037 3.55549 -2.38262 0
M  V30 1181 C 109.363 4.9241 -2.08415 0
M  V30 1182 C 110.663 3.577 -3.80589 0
M  V30 1183 H 112.357 1.83899 -2.36266 0
M  V30 1184 H 109.903 0.883349 -1.13723 0
M  V30 1185 H 111.856 4.01775 -1.27103 0
M  V30 1186 H 110.58 3.25296 -0.291564 0
M  V30 1187 H 109.239 2.79351 -2.37399 0
M  V30 1188 H 108.887 4.91052 -1.0898 0
M  V30 1189 H 108.587 5.14992 -2.82943 0
M  V30 1190 H 110.111 5.73289 -2.10171 0
M  V30 1191 H 111.525 4.26293 -3.83337 0
M  V30 1192 H 109.922 3.91804 -4.54543 0
M  V30 1193 H 110.992 2.57328 -4.10987 0
M  V30 1194 N 112.336 1.25143 0.95797 0
M  V30 1195 C 113.584 1.09476 1.69881 0
M  V30 1196 C 113.905 -0.365502 1.91544 0
M  V30 1197 O 113.175 -1.25985 1.50015 0
M  V30 1198 H 111.755 0.402128 0.629525 0
M  V30 1199 H 114.417 1.57214 1.15194 0
M  V30 1200 H 113.513 1.60046 2.6794 0
M  V30 1201 N 113.814 -1.1601 1.06675 0
M  V30 1202 C 115.061 -1.86633 0.785781 0
M  V30 1203 C 115.389 -1.81929 -0.687896 0
M  V30 1204 O 114.644 -1.23253 -1.52011 0
M  V30 1205 C 114.943 -3.35547 1.23057 0
M  V30 1206 C 114.609 -3.60448 2.70902 0
M  V30 1207 C 113.271 -3.66954 3.11285 0
M  V30 1208 C 115.623 -3.7071 3.66365 0
M  V30 1209 C 112.951 -3.81225 4.45965 0
M  V30 1210 C 115.303 -3.86503 5.00797 0
M  V30 1211 C 113.967 -3.91252 5.40813 0
M  V30 1212 H 113.237 -0.682937 0.287538 0
M  V30 1213 H 115.884 -1.37146 1.33654 0
M  V30 1214 H 114.189 -3.87193 0.59907 0
M  V30 1215 H 115.886 -3.88583 0.990163 0
M  V30 1216 H 112.476 -3.56021 2.38636 0
M  V30 1217 H 116.66 -3.64991 3.36296 0
M  V30 1218 H 111.916 -3.83155 4.76447 0
M  V30 1219 H 116.09 -3.93385 5.74649 0
M  V30 1220 H 113.717 -4.02062 6.45174 0
M  V30 1221 N 115.292 -0.849877 -1.32721 0
M  V30 1222 C 116.517 -0.463856 -2.02146 0
M  V30 1223 C 116.942 0.930449 -1.63476 0
M  V30 1224 O 116.3 1.61033 -0.832952 0
M  V30 1225 C 116.348 -0.604955 -3.55489 0
M  V30 1226 O 115.452 0.36425 -4.10788 0
M  V30 1227 H 114.793 -0.187046 -0.637111 0
M  V30 1228 H 117.323 -1.14775 -1.69375 0
M  V30 1229 H 117.333 -0.490696 -4.05038 0
M  V30 1230 H 116.008 -1.62174 -3.82978 0
M  V30 1231 H 114.585 0.206628 -3.72327 0
M  V30 1232 N 116.77 1.45427 -0.607355 0
M  V30 1233 C 118.018 2.01841 -0.102253 0
M  V30 1234 C 118.339 1.47832 1.27164 0
M  V30 1235 O 117.609 0.672497 1.83995 0
M  V30 1236 H 116.189 0.746188 -0.0348101 0
M  V30 1237 H 118.851 1.78229 -0.7887 0
M  V30 1238 H 117.947 3.12057 -0.0518585 0
M  V30 1239 N 118.248 0.346503 1.53744 0
M  V30 1240 C 119.473 -0.253074 2.0585 0
M  V30 1241 C 119.898 -1.43202 1.21962 0
M  V30 1242 O 119.256 -1.79783 0.234073 0
M  V30 1243 C 119.304 -0.643193 3.54817 0
M  V30 1244 O 118.408 -1.74286 3.73762 0
M  V30 1245 H 117.749 -0.0413583 0.662711 0
M  V30 1246 H 120.279 0.501574 1.98357 0
M  V30 1247 H 120.289 -0.919526 3.97503 0
M  V30 1248 H 118.964 0.218966 4.15323 0
M  V30 1249 H 117.541 -1.46356 3.42979 0
M  V30 1250 N 119.726 -1.57421 0.075193 0
M  V30 1251 C 121.003 -1.85029 -0.634329 0
M  V30 1252 C 121.383 -0.968305 -1.87582 0
M  V30 1253 O 120.731 -0.0354749 -2.28472 0
M  V30 1254 C 120.941 -3.35286 -0.968742 0
M  V30 1255 C 122.289 -4.02875 -1.34077 0
M  V30 1256 O 123.313 -3.40051 -1.06037 0
M  V30 1257 O 122.172 -5.13691 -1.86506 0
M  V30 1258 H 119.266 -0.7645 -0.315387 0
M  V30 1259 H 121.812 -1.69366 0.106382 0
M  V30 1260 H 120.584 -3.91203 -0.0871376 0
M  V30 1261 H 120.207 -3.56223 -1.7661 0
M  V30 1262 N 121.204 0.198386 -1.56346 0
M  V30 1263 C 122.114 1.2664 -1.97483 0
M  V30 1264 C 123.13 1.49989 -0.882002 0
M  V30 1265 O 124.306 1.62668 -1.18748 0
M  V30 1266 C 121.371 2.59141 -2.30319 0
M  V30 1267 C 120.432 2.43892 -3.53292 0
M  V30 1268 C 119.665 3.70074 -3.84553 0
M  V30 1269 O 119.888 4.74101 -3.1715 0
M  V30 1270 O 118.822 3.658 -4.7799 0
M  V30 1271 H 122.648 0.947304 -2.88548 0
M  V30 1272 H 120.233 0.403123 -1.43859 0
M  V30 1273 H 122.115 3.37352 -2.5253 0
M  V30 1274 H 120.79 2.90684 -1.42423 0
M  V30 1275 H 119.697 1.63803 -3.36332 0
M  V30 1276 H 121.03 2.17282 -4.41644 0
M  V30 1277 N 122.682 1.50554 0.465978 0
M  V30 1278 C 123.614 1.65949 1.58093 0
M  V30 1279 C 124.627 0.540827 1.53554 0
M  V30 1280 O 125.816 0.814187 1.5885 0
M  V30 1281 C 122.916 1.63261 2.96983 0
M  V30 1282 C 122.089 2.91245 3.26336 0
M  V30 1283 C 121.148 2.8113 4.44806 0
M  V30 1284 O 120.174 3.55086 4.44862 0
M  V30 1285 N 121.376 1.95032 5.46756 0
M  V30 1286 H 124.141 2.62122 1.45301 0
M  V30 1287 H 121.702 1.48082 0.65448 0
M  V30 1288 H 123.694 1.54101 3.74212 0
M  V30 1289 H 122.264 0.748032 3.03518 0
M  V30 1290 H 121.484 3.14493 2.37672 0
M  V30 1291 H 122.772 3.76022 3.42761 0
M  V30 1292 H 122.17 1.3427 5.49534 0
M  V30 1293 H 120.727 1.91772 6.2295 0
M  V30 1294 N 124.16 -0.719506 1.40217 0
M  V30 1295 C 125.406 -1.48152 1.38488 0
M  V30 1296 C 125.739 -1.94195 -0.0141867 0
M  V30 1297 O 125.014 -1.67884 -0.982096 0
M  V30 1298 C 125.297 -2.71035 2.37091 0
M  V30 1299 C 125.15 -2.30912 3.86005 0
M  V30 1300 C 126.469 -3.73182 2.33288 0
M  V30 1301 H 123.588 -0.537395 0.504357 0
M  V30 1302 H 126.23 -0.821472 1.71324 0
M  V30 1303 H 124.38 -3.27352 2.0922 0
M  V30 1304 H 126.052 -1.80107 4.24687 0
M  V30 1305 H 124.295 -1.62958 4.02029 0
M  V30 1306 H 124.966 -3.18978 4.50508 0
M  V30 1307 H 127.442 -3.26485 2.57966 0
M  V30 1308 H 126.318 -4.56806 3.04334 0
M  V30 1309 H 126.579 -4.21202 1.34317 0
M  V30 1310 N 125.638 -1.25649 -0.95132 0
M  V30 1311 C 126.568 -1.08808 -2.06599 0
M  V30 1312 C 127.549 0.00382547 -1.701 0
M  V30 1313 O 128.734 -0.166325 -1.93486 0
M  V30 1314 C 125.864 -0.709542 -3.39975 0
M  V30 1315 C 124.818 -1.75206 -3.90496 0
M  V30 1316 C 124.144 -1.22811 -5.20405 0
M  V30 1317 C 125.444 -3.15153 -4.16504 0
M  V30 1318 H 127.138 -2.02048 -2.20946 0
M  V30 1319 H 124.684 -0.972835 -1.06169 0
M  V30 1320 H 126.637 -0.578649 -4.17408 0
M  V30 1321 H 125.361 0.258556 -3.25575 0
M  V30 1322 H 124.02 -1.87145 -3.15234 0
M  V30 1323 H 123.668 -0.250145 -5.02378 0
M  V30 1324 H 123.368 -1.92492 -5.55176 0
M  V30 1325 H 124.892 -1.10968 -6.00432 0
M  V30 1326 H 126.306 -3.06349 -4.84586 0
M  V30 1327 H 124.703 -3.82333 -4.62538 0
M  V30 1328 H 125.773 -3.61966 -3.22658 0
M  V30 1329 N 127.117 1.15442 -1.07289 0
M  V30 1330 C 128.027 2.23786 -0.704057 0
M  V30 1331 C 129.043 1.7166 0.284413 0
M  V30 1332 O 130.219 2.00972 0.131205 0
M  V30 1333 C 127.284 3.46535 -0.106792 0
M  V30 1334 C 126.345 4.13654 -1.14842 0
M  V30 1335 C 125.578 5.30544 -0.57956 0
M  V30 1336 O 125.801 5.67187 0.604585 0
M  V30 1337 O 124.735 5.87154 -1.32414 0
M  V30 1338 H 128.561 2.57664 -1.60757 0
M  V30 1339 H 126.146 1.23152 -0.845803 0
M  V30 1340 H 128.028 4.20804 0.224048 0
M  V30 1341 H 126.703 3.14407 0.770049 0
M  V30 1342 H 125.61 3.4131 -1.5316 0
M  V30 1343 H 126.943 4.49861 -1.99714 0
M  V30 1344 N 128.595 0.856903 1.32268 0
M  V30 1345 C 129.542 0.301172 2.28827 0
M  V30 1346 C 130.512 -0.593104 1.5515 0
M  V30 1347 O 131.697 -0.527537 1.83362 0
M  V30 1348 C 128.837 -0.502523 3.41422 0
M  V30 1349 C 127.95 0.417797 4.29975 0
M  V30 1350 C 127.085 -0.398749 5.29701 0
M  V30 1351 C 126.124 0.518827 6.09897 0
M  V30 1352 N 125.261 -0.260674 7.01616 0
M  V30 1353 H 130.101 1.12983 2.75751 0
M  V30 1354 H 127.638 0.568582 1.35667 0
M  V30 1355 H 129.596 -0.984141 4.05426 0
M  V30 1356 H 128.226 -1.29599 2.95642 0
M  V30 1357 H 127.278 1.01781 3.66531 0
M  V30 1358 H 128.59 1.12191 4.86019 0
M  V30 1359 H 127.744 -0.943435 5.9932 0
M  V30 1360 H 126.483 -1.13622 4.7428 0
M  V30 1361 H 125.488 1.07538 5.39181 0
M  V30 1362 H 126.713 1.25495 6.67404 0
M  V30 1363 H 124.659 -0.981198 6.4862 0
M  V30 1364 H 124.576 0.384364 7.55022 0
M  V30 1365 H 125.844 -0.787014 7.75517 0
M  V30 1366 N 130.073 -1.45103 0.615059 0
M  V30 1367 C 131.319 -2.02483 0.113347 0
M  V30 1368 C 131.652 -1.48146 -1.25564 0
M  V30 1369 O 130.927 -0.659104 -1.82992 0
M  V30 1370 C 131.21 -3.60005 0.0825278 0
M  V30 1371 C 131.063 -4.2466 1.48271 0
M  V30 1372 C 132.382 -4.35972 -0.601401 0
M  V30 1373 H 129.501 -0.735764 0.0426632 0
M  V30 1374 H 132.143 -1.72868 0.788461 0
M  V30 1375 H 130.293 -3.85367 -0.492378 0
M  V30 1376 H 131.965 -4.10458 2.10527 0
M  V30 1377 H 130.208 -3.82772 2.04127 0
M  V30 1378 H 130.879 -5.336 1.41332 0
M  V30 1379 H 133.355 -4.15947 -0.112666 0
M  V30 1380 H 132.231 -5.45697 -0.592097 0
M  V30 1381 H 132.492 -4.09391 -1.66887 0
M  V30 1382 N 131.551 -0.354651 -1.53558 0
M  V30 1383 C 132.514 0.484566 -2.24019 0
M  V30 1384 C 133.514 1.01861 -1.24422 0
M  V30 1385 O 134.704 0.906097 -1.4878 0
M  V30 1386 C 131.836 1.67615 -2.96847 0
M  V30 1387 H 133.029 -0.131843 -2.9961 0
M  V30 1388 H 130.582 -0.106165 -1.55939 0
M  V30 1389 H 131.317 2.33095 -2.25471 0
M  V30 1390 H 131.102 1.30029 -3.69912 0
M  V30 1391 H 132.592 2.27114 -3.50441 0
M  V30 1392 N 133.029 1.57378 -0.0835403 0
M  V30 1393 C 134.445 1.57246 0.273109 0
M  V30 1394 C 134.645 1.09385 1.69225 0
M  V30 1395 O 133.701 0.765051 2.40631 0
M  V30 1396 C 135.014 3.00614 0.0720628 0
M  V30 1397 C 136.562 3.12684 0.1407 0
M  V30 1398 C 137.037 4.57989 -0.0322094 0
M  V30 1399 N 138.528 4.63194 0.0230085 0
M  V30 1400 C 139.263 5.73335 -0.0861941 0
M  V30 1401 N 138.759 6.9235 -0.24958 0
M  V30 1402 N 140.552 5.62093 -0.0282886 0
M  V30 1403 H 132.703 1.86801 -1.0109 0
M  V30 1404 H 134.966 0.861687 -0.395222 0
M  V30 1405 H 134.672 3.39786 -0.907662 0
M  V30 1406 H 134.546 3.68193 0.81936 0
M  V30 1407 H 136.933 2.73391 1.11092 0
M  V30 1408 H 137.014 2.47719 -0.637896 0
M  V30 1409 H 136.658 4.97973 -0.999247 0
M  V30 1410 H 136.588 5.21 0.765937 0
M  V30 1411 H 139.079 3.77613 0.14722 0
M  V30 1412 H 139.392 7.72117 -0.324733 0
M  V30 1413 H 137.737 6.94415 -0.285097 0
M  V30 1414 H 140.928 4.67997 0.0981408 0
M  V30 1415 H 141.101 6.47895 -0.116845 0
M  V30 1416 N 134.507 -0.190092 1.56449 0
M  V30 1417 C 135.439 -1.25973 1.91477 0
M  V30 1418 C 136.452 -1.41452 0.805931 0
M  V30 1419 O 137.641 -1.41789 1.08435 0
M  V30 1420 C 134.741 -2.63117 2.13594 0
M  V30 1421 C 133.914 -2.69182 3.4476 0
M  V30 1422 C 132.973 -3.87557 3.5593 0
M  V30 1423 O 131.999 -3.74427 4.28711 0
M  V30 1424 N 133.201 -5.03224 2.89388 0
M  V30 1425 H 135.966 -0.962394 2.83828 0
M  V30 1426 H 133.527 -0.379981 1.57378 0
M  V30 1427 H 135.519 -3.40742 2.1835 0
M  V30 1428 H 134.089 -2.85319 1.27719 0
M  V30 1429 H 133.309 -1.77793 3.51828 0
M  V30 1430 H 134.597 -2.70229 4.31107 0
M  V30 1431 H 133.995 -5.16791 2.30094 0
M  V30 1432 H 132.552 -5.78778 2.99764 0
M  V30 1433 N 135.985 -1.50799 -0.457987 0
M  V30 1434 C 136.948 -1.7005 -1.53674 0
M  V30 1435 C 137.948 -0.570881 -1.50325 0
M  V30 1436 O 139.138 -0.838126 -1.52712 0
M  V30 1437 C 136.27 -1.73788 -2.93276 0
M  V30 1438 H 137.463 -2.66306 -1.37917 0
M  V30 1439 H 135.016 -1.40477 -0.685271 0
M  V30 1440 H 135.751 -0.792717 -3.14462 0
M  V30 1441 H 135.536 -2.55864 -2.97113 0
M  V30 1442 H 137.026 -1.90591 -3.71571 0
M  V30 1443 N 137.463 0.71206 -1.40597 0
M  V30 1444 C 138.874 1.29135 -1.34837 0
M  V30 1445 C 139.225 1.96186 -0.0235395 0
M  V30 1446 O 138.35 1.97768 0.878444 0
M  V30 1447 C 138.945 2.34827 -2.44217 0
M  V30 1448 C 137.504 2.88371 -2.41907 0
M  V30 1449 C 136.651 1.62202 -2.24913 0
M  V30 1450 H 139.602 0.507944 -1.50352 0
M  V30 1451 H 139.623 3.15749 -2.12327 0
M  V30 1452 H 139.135 1.85996 -3.40627 0
M  V30 1453 H 137.236 3.41422 -1.49204 0
M  V30 1454 H 137.349 3.39925 -3.37621 0
M  V30 1455 H 135.713 1.874 -1.72492 0
M  V30 1456 H 136.496 1.15391 -3.23326 0
M  V30 1457 N 138.941 1.26152 0.944643 0
M  V30 1458 C 139.891 1.04081 2.02857 0
M  V30 1459 C 140.875 -0.0256555 1.6088 0
M  V30 1460 O 142.067 0.190884 1.75968 0
M  V30 1461 C 139.196 0.672118 3.36656 0
M  V30 1462 C 138.282 1.77586 3.85128 0
M  V30 1463 N 138.673 3.01272 4.06287 0
M  V30 1464 C 136.971 1.65867 4.1401 0
M  V30 1465 C 137.672 3.72983 4.46384 0
M  V30 1466 N 136.648 3.00653 4.52889 0
M  V30 1467 H 140.45 1.97968 2.17223 0
M  V30 1468 H 137.964 1.16618 1.13022 0
M  V30 1469 H 139.961 0.495166 4.13949 0
M  V30 1470 H 138.621 -0.259307 3.23663 0
M  V30 1471 H 139.632 3.37213 3.93075 0
M  V30 1472 H 136.309 0.796907 4.09824 0
M  V30 1473 H 137.699 4.792 4.70975 0
M  V30 1474 N 140.419 -1.14872 1.07899 0
M  V30 1475 C 141.665 -1.86289 0.81657 0
M  V30 1476 C 142.02 -1.8107 -0.65049 0
M  V30 1477 O 141.313 -1.22684 -1.47171 0
M  V30 1478 C 141.507 -3.34223 1.26609 0
M  V30 1479 C 141.336 -3.53846 2.77531 0
M  V30 1480 C 140.106 -3.68995 3.45212 0
M  V30 1481 C 142.304 -3.51201 3.75716 0
M  V30 1482 N 140.286 -3.76725 4.84718 0
M  V30 1483 C 141.657 -3.65112 5.01092 0
M  V30 1484 C 143.712 -3.34507 3.68794 0
M  V30 1485 C 142.415 -3.64056 6.20368 0
M  V30 1486 C 144.441 -3.34752 4.8754 0
M  V30 1487 C 143.803 -3.49199 6.11751 0
M  V30 1488 H 139.902 -0.698579 0.351443 0
M  V30 1489 H 142.486 -1.37713 1.37634 0
M  V30 1490 H 140.657 -3.81402 0.73395 0
M  V30 1491 H 142.389 -3.93377 0.95062 0
M  V30 1492 H 139.144 -3.70006 2.95622 0
M  V30 1493 H 139.568 -3.8432 5.5734 0
M  V30 1494 H 144.21 -3.22253 2.73702 0
M  V30 1495 H 141.928 -3.75087 7.15776 0
M  V30 1496 H 145.514 -3.23055 4.83866 0
M  V30 1497 H 144.394 -3.49328 7.02097 0
M  V30 1498 N 141.898 -0.863906 -1.31812 0
M  V30 1499 C 142.828 -0.330843 -2.31144 0
M  V30 1500 C 143.809 0.575005 -1.60087 0
M  V30 1501 O 144.994 0.493304 -1.8783 0
M  V30 1502 C 142.124 0.47374 -3.44054 0
M  V30 1503 C 141.078 -0.338481 -4.26659 0
M  V30 1504 C 140.404 0.591412 -5.31419 0
M  V30 1505 C 141.704 -1.56926 -4.98168 0
M  V30 1506 H 143.398 -1.16086 -2.75979 0
M  V30 1507 H 140.944 -0.559657 -1.32679 0
M  V30 1508 H 142.897 0.857143 -4.12591 0
M  V30 1509 H 141.621 1.33721 -2.9797 0
M  V30 1510 H 140.28 -0.703754 -3.59782 0
M  V30 1511 H 139.928 1.45199 -4.81587 0
M  V30 1512 H 139.628 0.0519022 -5.87577 0
M  V30 1513 H 141.152 0.97179 -6.02817 0
M  V30 1514 H 142.566 -1.25764 -5.59336 0
M  V30 1515 H 140.963 -2.04739 -5.64094 0
M  V30 1516 H 142.033 -2.32544 -4.25501 0
M  V30 1517 N 143.376 1.44774 -0.622745 0
M  V30 1518 C 144.601 2.06999 -0.128968 0
M  V30 1519 C 145.026 1.4617 1.1839 0
M  V30 1520 O 144.384 0.560007 1.72434 0
M  V30 1521 C 144.432 3.60595 -0.0188351 0
M  V30 1522 O 143.536 3.99398 1.02739 0
M  V30 1523 H 142.877 0.659047 -0.0809544 0
M  V30 1524 H 145.407 1.85784 -0.85705 0
M  V30 1525 H 145.417 4.07627 0.174476 0
M  V30 1526 H 144.092 4.04252 -0.977384 0
M  V30 1527 H 142.669 3.64011 0.809326 0
M  V30 1528 N 144.854 0.36279 1.53368 0
M  V30 1529 C 146.079 -0.231226 2.06107 0
M  V30 1530 C 146.504 -1.419 1.23474 0
M  V30 1531 O 145.862 -1.79524 0.253128 0
M  V30 1532 C 145.91 -0.605523 3.5548 0
M  V30 1533 O 145.014 -1.70312 3.7559 0
M  V30 1534 H 144.355 -0.034327 0.663112 0
M  V30 1535 H 146.885 0.522584 1.97814 0
M  V30 1536 H 146.895 -0.877314 3.98456 0
M  V30 1537 H 145.57 0.263004 4.15068 0
M  V30 1538 H 144.147 -1.4271 3.44512 0
M  V30 1539 N 146.332 -1.57332 0.0918853 0
M  V30 1540 C 147.578 -1.94524 -0.573425 0
M  V30 1541 C 147.911 -0.973578 -1.68033 0
M  V30 1542 O 147.186 -0.00609226 -1.94499 0
M  V30 1543 C 147.469 -3.41858 -1.13161 0
M  V30 1544 C 147.322 -4.4979 -0.0299747 0
M  V30 1545 C 148.641 -3.90435 -2.03098 0
M  V30 1546 H 145.76 -0.70734 -0.206975 0
M  V30 1547 H 148.402 -1.89309 0.161942 0
M  V30 1548 H 146.552 -3.46433 -1.7583 0
M  V30 1549 H 148.224 -4.57327 0.604112 0
M  V30 1550 H 146.467 -4.291 0.636833 0
M  V30 1551 H 147.138 -5.50069 -0.461287 0
M  V30 1552 H 149.614 -3.87992 -1.50338 0
M  V30 1553 H 148.49 -4.94097 -2.39081 0
M  V30 1554 H 148.751 -3.29541 -2.94712 0
M  V30 1555 N 147.81 0.181792 -1.56548 0
M  V30 1556 C 149.035 0.920019 -1.85877 0
M  V30 1557 C 149.46 1.75494 -0.677021 0
M  V30 1558 O 148.818 1.77399 0.374056 0
M  V30 1559 C 148.866 1.78112 -3.13542 0
M  V30 1560 O 147.97 2.88152 -2.95029 0
M  V30 1561 H 147.311 0.258334 -0.611686 0
M  V30 1562 H 149.841 0.183092 -2.03779 0
M  V30 1563 H 149.851 2.18314 -3.44678 0
M  V30 1564 H 148.526 1.16777 -3.99169 0
M  V30 1565 H 147.103 2.51609 -2.75222 0
M  V30 1566 N 149.288 1.51039 0.449983 0
M  V30 1567 C 150.513 1.6715 1.22783 0
M  V30 1568 C 150.938 0.363081 1.84563 0
M  V30 1569 O 150.296 -0.675433 1.68249 0
M  V30 1570 C 150.344 2.77985 2.29689 0
M  V30 1571 O 149.448 2.40707 3.34864 0
M  V30 1572 H 148.789 0.557746 0.360299 0
M  V30 1573 H 151.319 1.97535 0.533005 0
M  V30 1574 H 151.329 3.01693 2.74673 0
M  V30 1575 H 150.004 3.72935 1.84098 0
M  V30 1576 H 148.581 2.27523 2.95445 0
M  V30 1577 N 150.766 -0.704594 1.40972 0
M  V30 1578 C 151.729 -1.80035 1.41845 0
M  V30 1579 C 152.729 -1.57774 0.310474 0
M  V30 1580 O 153.919 -1.64613 0.56992 0
M  V30 1581 C 151.051 -3.18284 1.22098 0
M  V30 1582 H 152.244 -1.80658 2.3938 0
M  V30 1583 H 149.797 -0.911329 1.26982 0
M  V30 1584 H 150.532 -3.23306 0.253672 0
M  V30 1585 H 150.317 -3.35843 2.02366 0
M  V30 1586 H 151.807 -3.98289 1.25522 0
M  V30 1587 N 152.244 -1.26651 -0.937939 0
M  V30 1588 C 153.469 -1.15279 -1.72411 0
M  V30 1589 C 153.894 0.287866 -1.85884 0
M  V30 1590 O 153.252 1.20855 -1.35143 0
M  V30 1591 C 153.3 -1.83028 -3.10698 0
M  V30 1592 O 152.404 -1.12128 -3.96864 0
M  V30 1593 H 151.745 -0.401504 -0.528858 0
M  V30 1594 H 154.275 -1.67531 -1.1745 0
M  V30 1595 H 154.285 -1.89981 -3.6107 0
M  V30 1596 H 152.96 -2.87833 -3.00208 0
M  V30 1597 H 151.537 -1.13173 -3.55312 0
M  V30 1598 N 153.722 1.14298 -1.08507 0
M  V30 1599 C 155.133 1.66926 -0.836227 0
M  V30 1600 C 155.484 1.85576 0.63686 0
M  V30 1601 O 154.609 1.56767 1.49175 0
M  V30 1602 C 155.204 3.03219 -1.51142 0
M  V30 1603 C 153.763 3.52876 -1.30979 0
M  V30 1604 C 152.91 2.2833 -1.57356 0
M  V30 1605 H 155.861 0.983491 -1.24552 0
M  V30 1606 H 155.882 3.68726 -0.939211 0
M  V30 1607 H 155.394 2.89612 -2.58353 0
M  V30 1608 H 153.495 3.71703 -0.258429 0
M  V30 1609 H 153.608 4.33586 -2.03814 0
M  V30 1610 H 151.972 2.34454 -0.995164 0
M  V30 1611 H 152.755 2.17298 -2.65775 0
M  V30 1612 N 155.201 0.870884 1.31352 0
M  V30 1613 C 156.134 0.271983 2.26573 0
M  V30 1614 C 157.112 -0.599385 1.51149 0
M  V30 1615 O 158.296 -0.552605 1.80218 0
M  V30 1616 C 155.423 -0.614801 3.33073 0
M  V30 1617 C 154.469 0.185342 4.26097 0
M  V30 1618 S 155.302 1.56444 5.12138 0
M  V30 1619 C 156.458 0.683807 6.22153 0
M  V30 1620 H 156.691 1.07916 2.77023 0
M  V30 1621 H 154.224 0.669459 1.39132 0
M  V30 1622 H 156.182 -1.12074 3.94905 0
M  V30 1623 H 154.843 -1.39593 2.81376 0
M  V30 1624 H 154.036 -0.490771 5.01605 0
M  V30 1625 H 153.638 0.623415 3.68768 0
M  V30 1626 H 155.93 -0.10521 6.77418 0
M  V30 1627 H 156.873 1.41004 6.93919 0
M  V30 1628 H 157.281 0.250952 5.63942 0
M  V30 1629 N 156.679 -1.44442 0.630414 0
M  V30 1630 C 157.925 -2.02894 0.143332 0
M  V30 1631 C 158.28 -1.48697 -1.22094 0
M  V30 1632 O 157.573 -0.661171 -1.79831 0
M  V30 1633 C 157.767 -3.57332 0.0697835 0
M  V30 1634 C 157.596 -4.26512 1.42539 0
M  V30 1635 C 156.366 -4.63516 2.01198 0
M  V30 1636 C 158.564 -4.57004 2.35907 0
M  V30 1637 N 156.546 -5.17661 3.30001 0
M  V30 1638 C 157.917 -5.12223 3.49324 0
M  V30 1639 C 159.972 -4.38955 2.34995 0
M  V30 1640 C 158.675 -5.51295 4.62024 0
M  V30 1641 C 160.701 -4.79075 3.46758 0
M  V30 1642 C 160.063 -5.34407 4.58899 0
M  V30 1643 H 156.162 -0.776041 0.0963523 0
M  V30 1644 H 158.746 -1.75945 0.833752 0
M  V30 1645 H 156.917 -3.83894 -0.589915 0
M  V30 1646 H 158.649 -4.02451 -0.42606 0
M  V30 1647 H 155.404 -4.47811 1.54151 0
M  V30 1648 H 155.828 -5.4921 3.95851 0
M  V30 1649 H 160.47 -3.95469 1.49545 0
M  V30 1650 H 158.188 -5.93736 5.48182 0
M  V30 1651 H 161.774 -4.66824 3.47227 0
M  V30 1652 H 160.654 -5.64878 5.4395 0
M  V30 1653 N 158.157 -0.370918 -1.53173 0
M  V30 1654 C 159.403 0.217423 -2.01631 0
M  V30 1655 C 159.736 1.47983 -1.25756 0
M  V30 1656 O 159.011 1.91274 -0.352764 0
M  V30 1657 C 159.294 0.503982 -3.56556 0
M  V30 1658 C 159.147 -0.77243 -4.43118 0
M  V30 1659 C 160.466 1.30234 -4.20389 0
M  V30 1660 H 157.585 0.0775486 -0.732909 0
M  V30 1661 H 160.227 -0.496863 -1.83388 0
M  V30 1662 H 158.377 1.11248 -3.72231 0
M  V30 1663 H 160.049 -1.4098 -4.39229 0
M  V30 1664 H 158.292 -1.39167 -4.10871 0
M  V30 1665 H 158.963 -0.526815 -5.4948 0
M  V30 1666 H 161.439 0.787546 -4.08579 0
M  V30 1667 H 160.315 1.47158 -5.28806 0
M  V30 1668 H 160.576 2.31237 -3.76805 0
M  V30 1669 N 159.635 1.57281 -0.100228 0
M  V30 1670 C 160.598 2.13158 0.842398 0
M  V30 1671 C 161.598 1.06202 1.20738 0
M  V30 1672 O 162.788 1.32066 1.13597 0
M  V30 1673 C 159.92 2.65639 2.13655 0
M  V30 1674 H 161.113 2.97766 0.357114 0
M  V30 1675 H 158.666 1.5559 0.148823 0
M  V30 1676 H 159.401 1.84566 2.66657 0
M  V30 1677 H 159.186 3.43844 1.88451 0
M  V30 1678 H 160.676 3.08846 2.81077 0
M  V30 1679 N 161.113 -0.173488 1.56642 0
M  V30 1680 C 162.061 -1.23417 1.97157 0
M  V30 1681 C 163.055 -1.45946 0.860013 0
M  V30 1682 O 164.261 -1.46551 1.04512 0
M  V30 1683 H 160.636 -0.414818 0.62724 0
M  V30 1684 H 162.607 -0.865582 2.8557 0
M  V30 1685 C 161.356 -2.5665 2.34576 0
M  V30 1686 H 160.679 -2.40137 3.19647 0
M  V30 1687 H 162.119 -3.2956 2.6677 0
M  V30 1688 C 160.578 -3.15245 1.18836 0
M  V30 1689 O 161.108 -3.98883 0.474869 0
M  V30 1690 N 159.314 -2.74303 0.959497 0
M  V30 1691 H 158.861 -2.0639 1.54146 0
M  V30 1692 H 158.819 -3.13844 0.186932 0
M  V30 1693 N 162.591 -1.51276 -0.441967 0
M  V30 1694 C 163.554 -1.7167 -1.51862 0
M  V30 1695 C 164.554 -0.586793 -1.49711 0
M  V30 1696 O 165.744 -0.854276 -1.51815 0
M  V30 1697 C 162.876 -1.76889 -2.91416 0
M  V30 1698 H 164.069 -2.67754 -1.35084 0
M  V30 1699 H 161.622 -1.41196 -0.670333 0
M  V30 1700 H 162.357 -0.826026 -3.13604 0
M  V30 1701 H 162.142 -2.59001 -2.94382 0
M  V30 1702 H 163.632 -1.94522 -3.69528 0
M  V30 1703 N 164.069 0.697108 -1.41344 0
M  V30 1704 C 165.032 1.79281 -1.42797 0
M  V30 1705 C 166.032 1.57607 -0.318837 0
M  V30 1706 O 167.222 1.64309 -0.578642 0
M  V30 1707 C 164.354 3.17632 -1.23785 0
M  V30 1708 H 165.547 1.79385 -2.40335 0
M  V30 1709 H 163.1 0.904582 -1.27464 0
M  V30 1710 H 163.835 3.23167 -0.270814 0
M  V30 1711 H 163.62 3.34765 -2.04144 0
M  V30 1712 H 165.11 3.97617 -1.27633 0
M  V30 1713 N 165.547 1.27147 0.931209 0
M  V30 1714 C 166.775 1.16082 1.71267 0
M  V30 1715 C 167.19 -0.282772 1.8667 0
M  V30 1716 O 166.547 -1.19283 1.38122 0
M  V30 1717 C 166.598 1.8358 3.11417 0
M  V30 1718 O 166.319 3.22299 2.96741 0
M  V30 1719 C 167.82 1.78597 4.05732 0
M  V30 1720 H 165.04 0.403758 0.535929 0
M  V30 1721 H 167.584 1.67953 1.16671 0
M  V30 1722 H 165.739 1.35623 3.62885 0
M  V30 1723 H 166.153 3.55851 3.85319 0
M  V30 1724 H 167.627 2.30444 5.01597 0
M  V30 1725 H 168.104 0.754564 4.3267 0
M  V30 1726 H 168.71 2.26152 3.60188 0
M  V30 1727 N 167.025 -1.13721 1.09112 0
M  V30 1728 C 168.274 -1.84275 0.82009 0
M  V30 1729 C 168.587 -1.84253 -0.656509 0
M  V30 1730 O 169.793 -2.50668 -1.04296 0
M  V30 1731 C 168.249 -3.30825 1.41714 0
M  V30 1732 C 167.857 -3.39244 2.92605 0
M  V30 1733 C 169.601 -4.06443 1.22492 0
M  V30 1734 C 167.508 -4.80047 3.45411 0
M  V30 1735 H 166.438 -0.690387 0.30312 0
M  V30 1736 H 169.089 -1.28146 1.31343 0
M  V30 1737 H 167.471 -3.86737 0.851498 0
M  V30 1738 H 168.645 -2.93344 3.55367 0
M  V30 1739 H 166.96 -2.77088 3.10823 0
M  V30 1740 H 169.557 -5.10387 1.59402 0
M  V30 1741 H 169.9 -4.15972 0.165299 0
M  V30 1742 H 170.433 -3.56852 1.75788 0
M  V30 1743 H 167.172 -4.75709 4.50978 0
M  V30 1744 H 166.692 -5.26455 2.87411 0
M  V30 1745 H 168.371 -5.48957 3.42425 0
M  V30 1746 N 168.503 -0.877838 -1.30888 0
M  V30 1747 C 169.466 -0.344265 -2.266 0
M  V30 1748 C 170.466 0.50922 -1.52524 0
M  V30 1749 O 171.656 0.317398 -1.71284 0
M  V30 1750 C 168.788 0.510198 -3.37061 0
M  V30 1751 H 169.981 -1.1893 -2.7531 0
M  V30 1752 H 167.534 -0.654088 -1.41956 0
M  V30 1753 H 168.269 1.37612 -2.93655 0
M  V30 1754 H 168.054 -0.101047 -3.9197 0
M  V30 1755 H 169.544 0.875537 -4.08319 0
M  V30 1756 N 169.982 1.44106 -0.638065 0
M  V30 1757 C 171.393 1.85316 -0.226894 0
M  V30 1758 C 171.744 1.53399 1.22324 0
M  V30 1759 O 170.869 0.975463 1.93167 0
M  V30 1760 C 171.464 3.3637 -0.405013 0
M  V30 1761 C 170.023 3.76369 -0.0482902 0
M  V30 1762 C 169.17 2.67921 -0.715108 0
M  V30 1763 H 172.121 1.34474 -0.842764 0
M  V30 1764 H 172.142 3.7885 0.354 0
M  V30 1765 H 171.654 3.59569 -1.46053 0
M  V30 1766 H 169.755 3.58784 1.00522 0
M  V30 1767 H 169.868 4.76856 -0.463187 0
M  V30 1768 H 168.232 2.54259 -0.149753 0
M  V30 1769 H 169.015 2.93951 -1.77335 0
M  V30 1770 N 171.46 0.379036 1.52974 0
M  V30 1771 C 172.685 -0.209353 2.06341 0
M  V30 1772 C 173.11 -1.40583 1.24972 0
M  V30 1773 O 172.468 -1.79246 0.272155 0
M  V30 1774 C 172.516 -0.567786 3.56102 0
M  V30 1775 O 171.62 -1.66318 3.77375 0
M  V30 1776 H 170.961 -0.0272919 0.663439 0
M  V30 1777 H 173.491 0.543536 1.97248 0
M  V30 1778 H 173.501 -0.835003 3.99364 0
M  V30 1779 H 172.176 0.307013 4.14765 0
M  V30 1780 H 170.753 -1.39048 3.46006 0
M  V30 1781 N 172.938 -1.57226 0.108567 0
M  V30 1782 C 173.901 -2.13602 -0.831082 0
M  V30 1783 C 174.901 -1.06841 -1.20173 0
M  V30 1784 O 176.091 -1.32666 -1.12895 0
M  V30 1785 C 173.223 -2.66769 -2.12243 0
M  V30 1786 H 174.416 -2.97951 -0.341317 0
M  V30 1787 H 171.969 -1.55667 -0.14057 0
M  V30 1788 H 172.704 -1.85977 -2.65675 0
M  V30 1789 H 172.489 -3.44839 -1.86625 0
M  V30 1790 H 173.979 -3.10332 -2.79435 0
M  V30 1791 N 174.416 0.165178 -1.56732 0
M  V30 1792 C 175.693 0.908443 -1.73224 0
M  V30 1793 C 176.073 2.0013 -0.67165 0
M  V30 1794 O 175.421 2.26353 0.31253 0
M  V30 1795 C 175.631 1.46756 -3.16644 0
M  V30 1796 C 176.979 1.93809 -3.77787 0
M  V30 1797 O 178.003 1.56537 -3.1996 0
M  V30 1798 O 176.862 2.62486 -4.79336 0
M  V30 1799 H 173.956 0.428025 -0.707618 0
M  V30 1800 H 176.502 0.152526 -1.69013 0
M  V30 1801 H 175.274 0.68129 -3.85323 0
M  V30 1802 H 174.897 2.28749 -3.25207 0
M  V30 1803 N 175.894 1.51508 0.433938 0
M  V30 1804 C 177.122 1.68157 1.20543 0
M  V30 1805 C 177.537 0.380362 1.84929 0
M  V30 1806 O 176.894 -0.641446 1.70856 0
M  V30 1807 C 176.945 2.79965 2.28696 0
M  V30 1808 O 176.666 4.05045 1.66943 0
M  V30 1809 C 178.167 3.07912 3.18912 0
M  V30 1810 H 175.387 0.56421 0.363191 0
M  V30 1811 H 177.931 1.97941 0.513754 0
M  V30 1812 H 176.086 2.5277 2.93574 0
M  V30 1813 H 176.5 4.67165 2.38448 0
M  V30 1814 H 177.974 3.89719 3.90926 0
M  V30 1815 H 178.451 2.20456 3.79863 0
M  V30 1816 H 179.057 3.36779 2.59731 0
M  V30 1817 N 177.372 -0.689602 1.41712 0
M  V30 1818 C 178.302 -1.81577 1.46806 0
M  V30 1819 C 179.283 -1.66945 0.326105 0
M  V30 1820 O 180.468 -1.86588 0.538377 0
M  V30 1821 C 177.598 -3.19762 1.35535 0
M  V30 1822 C 176.552 -3.49107 2.47605 0
M  V30 1823 C 175.878 -4.86711 2.21397 0
M  V30 1824 C 177.178 -3.47483 3.89939 0
M  V30 1825 H 178.872 -1.7757 2.41058 0
M  V30 1826 H 176.418 -0.852887 1.16025 0
M  V30 1827 H 178.371 -3.98263 1.3771 0
M  V30 1828 H 177.095 -3.24409 0.377708 0
M  V30 1829 H 175.754 -2.72959 2.44722 0
M  V30 1830 H 175.402 -4.8799 1.21961 0
M  V30 1831 H 175.102 -5.0731 2.96497 0
M  V30 1832 H 176.626 -5.67515 2.25297 0
M  V30 1833 H 178.04 -4.1598 3.94505 0
M  V30 1834 H 176.437 -3.79615 4.64771 0
M  V30 1835 H 177.507 -2.46341 4.17665 0
M  V30 1836 N 178.85 -1.27639 -0.924453 0
M  V30 1837 C 180.127 -1.04887 -1.651 0
M  V30 1838 C 180.507 0.415327 -2.06974 0
M  V30 1839 O 179.855 1.39923 -1.80648 0
M  V30 1840 C 180.065 -2.01348 -2.85061 0
M  V30 1841 C 181.413 -2.30899 -3.56329 0
M  V30 1842 O 182.437 -1.99348 -2.95193 0
M  V30 1843 O 181.296 -2.84699 -4.66485 0
M  V30 1844 H 178.39 -0.400083 -0.723784 0
M  V30 1845 H 180.936 -1.38916 -0.974703 0
M  V30 1846 H 179.708 -3.0008 -2.51133 0
M  V30 1847 H 179.331 -1.679 -3.6041 0
M  V30 1848 N 180.328 1.1314 -1.09713 0
M  V30 1849 C 181.576 1.84119 -0.833338 0
M  V30 1850 C 181.897 1.84097 0.642904 0
M  V30 1851 O 181.167 1.29881 1.46655 0
M  V30 1852 H 179.747 0.681766 -0.305293 0
M  V30 1853 H 182.409 1.37038 -1.38588 0
M  V30 1854 H 181.505 2.88543 -1.18951 0
M  V30 1855 N 181.806 0.884767 1.30421 0
M  V30 1856 C 182.753 0.349642 2.28136 0
M  V30 1857 C 183.723 -0.560061 1.56373 0
M  V30 1858 O 184.908 -0.488524 1.8444 0
M  V30 1859 C 182.048 -0.42999 3.42411 0
M  V30 1860 C 181.161 0.508907 4.28992 0
M  V30 1861 C 180.296 -0.286301 5.30428 0
M  V30 1862 C 179.335 0.648079 6.08659 0
M  V30 1863 N 178.472 -0.111792 7.02011 0
M  V30 1864 H 183.312 1.18807 2.73293 0
M  V30 1865 H 180.849 0.597231 1.3443 0
M  V30 1866 H 182.807 -0.897923 4.07423 0
M  V30 1867 H 181.437 -1.23299 2.98324 0
M  V30 1868 H 180.489 1.09533 3.64289 0
M  V30 1869 H 181.801 1.22475 4.8353 0
M  V30 1870 H 180.955 -0.816098 6.01186 0
M  V30 1871 H 179.694 -1.03536 4.76583 0
M  V30 1872 H 178.699 1.18951 5.36778 0
M  V30 1873 H 179.924 1.39623 6.64592 0
M  V30 1874 H 177.87 -0.843395 6.50556 0
M  V30 1875 H 177.787 0.544429 7.54037 0
M  V30 1876 H 179.055 -0.622339 7.77012 0
M  V30 1877 N 183.284 -1.43765 0.645699 0
M  V30 1878 C 184.53 -2.02197 0.156271 0
M  V30 1879 C 184.863 -1.50776 -1.22393 0
M  V30 1880 O 184.138 -0.697771 -1.81553 0
M  V30 1881 C 184.421 -3.59749 0.158872 0
M  V30 1882 C 184.274 -4.21419 1.57245 0
M  V30 1883 C 185.593 -4.37149 -0.50879 0
M  V30 1884 H 182.712 -0.734694 0.0582602 0
M  V30 1885 H 185.354 -1.71157 0.824951 0
M  V30 1886 H 183.504 -3.86325 -0.410525 0
M  V30 1887 H 185.176 -4.059 2.19186 0
M  V30 1888 H 183.419 -3.78356 2.122 0
M  V30 1889 H 184.09 -5.30482 1.52619 0
M  V30 1890 H 186.566 -4.16093 -0.024412 0
M  V30 1891 H 185.442 -5.4683 -0.476213 0
M  V30 1892 H 185.703 -4.12839 -1.58165 0
M  V30 1893 N 184.763 -0.387143 -1.52771 0
M  V30 1894 C 185.713 0.465942 -2.23188 0
M  V30 1895 C 186.697 1.03138 -1.23496 0
M  V30 1896 O 187.889 0.957845 -1.48843 0
M  V30 1897 C 185.018 1.59384 -3.04059 0
M  V30 1898 C 184.104 1.04024 -4.11144 0
M  V30 1899 N 184.495 0.211416 -5.05358 0
M  V30 1900 C 182.793 1.31295 -4.26237 0
M  V30 1901 C 183.494 -0.0941698 -5.81624 0
M  V30 1902 N 182.47 0.509207 -5.4121 0
M  V30 1903 H 186.272 -0.173856 -2.93385 0
M  V30 1904 H 183.786 -0.19633 -1.61209 0
M  V30 1905 H 185.783 2.21738 -3.53041 0
M  V30 1906 H 184.443 2.23648 -2.35397 0
M  V30 1907 H 185.454 -0.151151 -5.17679 0
M  V30 1908 H 182.131 1.95679 -3.68803 0
M  V30 1909 H 183.521 -0.765572 -6.67524 0
M  V30 1910 N 186.241 1.57166 -0.116904 0
M  V30 1911 C 187.171 2.18222 0.830759 0
M  V30 1912 C 188.152 1.12167 1.27877 0
M  V30 1913 O 189.337 1.40394 1.34176 0
M  V30 1914 C 186.467 2.77996 2.08172 0
M  V30 1915 C 185.421 3.89614 1.77157 0
M  V30 1916 C 184.747 4.36187 3.09265 0
M  V30 1917 C 186.047 5.1181 1.04151 0
M  V30 1918 H 187.741 2.97664 0.321992 0
M  V30 1919 H 185.287 1.4318 0.153434 0
M  V30 1920 H 187.24 3.19366 2.74924 0
M  V30 1921 H 185.964 1.9584 2.6137 0
M  V30 1922 H 184.623 3.48816 1.12796 0
M  V30 1923 H 184.271 3.50893 3.60393 0
M  V30 1924 H 183.971 5.11455 2.89288 0
M  V30 1925 H 185.495 4.80207 3.77139 0
M  V30 1926 H 186.909 5.50214 1.61052 0
M  V30 1927 H 185.306 5.92648 0.942762 0
M  V30 1928 H 186.376 4.84892 0.0279022 0
M  V30 1929 N 187.719 -0.156864 1.56817 0
M  V30 1930 C 188.947 -0.886316 1.86955 0
M  V30 1931 C 189.362 -1.75185 0.703975 0
M  V30 1932 O 188.719 -1.79555 -0.326552 0
M  V30 1933 C 188.77 -1.75117 3.16253 0
M  V30 1934 O 188.491 -0.920537 4.2832 0
M  V30 1935 C 189.992 -2.58905 3.59837 0
M  V30 1936 H 187.212 -0.25678 0.619923 0
M  V30 1937 H 189.756 -0.152615 2.0393 0
M  V30 1938 H 187.911 -2.43805 3.01062 0
M  V30 1939 H 188.325 -1.51337 5.02192 0
M  V30 1940 H 189.799 -3.1518 4.53172 0
M  V30 1941 H 190.276 -3.34472 2.84649 0
M  V30 1942 H 190.882 -1.95526 3.7769 0
M  V30 1943 N 189.197 -1.51736 -0.425897 0
M  V30 1944 C 190.443 -1.65214 -1.1761 0
M  V30 1945 C 190.776 -0.372778 -1.90589 0
M  V30 1946 O 190.051 0.628139 -1.84078 0
M  V30 1947 C 190.334 -2.86312 -2.18398 0
M  V30 1948 C 190.187 -4.24254 -1.49426 0
M  V30 1949 C 191.506 -3.02925 -3.19256 0
M  V30 1950 H 188.625 -0.601263 -0.426206 0
M  V30 1951 H 191.267 -1.8425 -0.463882 0
M  V30 1952 H 189.417 -2.70213 -2.79137 0
M  V30 1953 H 191.089 -4.52046 -0.919362 0
M  V30 1954 H 189.332 -4.26426 -0.796432 0
M  V30 1955 H 190.003 -5.05001 -2.22885 0
M  V30 1956 H 192.479 -3.1781 -2.68581 0
M  V30 1957 H 191.355 -3.89199 -3.8706 0
M  V30 1958 H 191.616 -2.15497 -3.86023 0
M  V30 1959 N 190.675 0.682077 -1.42076 0
M  V30 1960 C 191.638 1.77756 -1.44691 0
M  V30 1961 C 192.638 1.5726 -0.335535 0
M  V30 1962 O 193.828 1.63686 -0.596037 0
M  V30 1963 C 190.96 3.16301 -1.27146 0
M  V30 1964 H 192.153 1.76826 -2.42224 0
M  V30 1965 H 189.706 0.891012 -1.28416 0
M  V30 1966 H 190.441 3.22862 -0.305075 0
M  V30 1967 H 190.226 3.32581 -2.07683 0
M  V30 1968 H 191.716 3.96241 -1.31843 0
M  V30 1969 N 192.153 1.28127 0.917671 0
M  V30 1970 C 193.101 1.11569 2.04096 0
M  V30 1971 C 194.095 0.0360242 1.69362 0
M  V30 1972 O 195.301 0.194501 1.78946 0
M  V30 1973 H 191.676 0.344097 0.668656 0
M  V30 1974 H 193.647 2.06711 2.15205 0
M  V30 1975 C 192.396 0.790197 3.38602 0
M  V30 1976 H 191.719 1.61293 3.6582 0
M  V30 1977 H 193.159 0.714271 4.1794 0
M  V30 1978 C 191.618 -0.505897 3.3308 0
M  V30 1979 O 192.148 -1.53736 3.71117 0
M  V30 1980 N 190.354 -0.505193 2.86175 0
M  V30 1981 H 189.901 0.334621 2.55417 0
M  V30 1982 H 189.859 -1.37243 2.82863 0
M  V30 1983 N 193.631 -1.12557 1.10312 0
M  V30 1984 C 194.561 -2.20341 0.772798 0
M  V30 1985 C 195.542 -1.68198 -0.25365 0
M  V30 1986 O 196.727 -1.93831 -0.119699 0
M  V30 1987 C 193.857 -3.46709 0.202443 0
M  V30 1988 C 192.811 -4.11996 1.15943 0
M  V30 1989 C 192.137 -5.328 0.450345 0
M  V30 1990 C 193.437 -4.5828 2.50552 0
M  V30 1991 H 195.131 -2.48229 1.674 0
M  V30 1992 H 192.677 -1.19308 0.806326 0
M  V30 1993 H 194.63 -4.2138 -0.0407752 0
M  V30 1994 H 193.354 -3.18245 -0.734001 0
M  V30 1995 H 192.013 -3.39305 1.38808 0
M  V30 1996 H 191.661 -5.00602 -0.490531 0
M  V30 1997 H 191.361 -5.7743 1.08851 0
M  V30 1998 H 192.885 -6.10219 0.215642 0
M  V30 1999 H 194.299 -5.2433 2.31843 0
M  V30 2000 H 192.696 -5.13683 3.10242 0
M  V30 2001 H 193.766 -3.72329 3.10643 0
M  V30 2002 N 195.109 -0.891671 -1.2995 0
M  V30 2003 C 196.057 -0.353066 -2.29905 0
M  V30 2004 C 197.051 0.543509 -1.60444 0
M  V30 2005 O 198.257 0.4272 -1.74857 0
M  V30 2006 H 194.632 -0.095531 -0.745907 0
M  V30 2007 H 196.603 -1.20961 -2.72784 0
M  V30 2008 C 195.352 0.411475 -3.45257 0
M  V30 2009 H 194.675 -0.269182 -3.98893 0
M  V30 2010 H 196.115 0.753328 -4.17254 0
M  V30 2011 C 194.574 1.6111 -2.9588 0
M  V30 2012 O 195.104 2.71045 -2.96475 0
M  V30 2013 N 193.31 1.45054 -2.51809 0
M  V30 2014 H 192.857 0.556175 -2.51524 0
M  V30 2015 H 192.815 2.25453 -2.1913 0
M  V30 2016 N 196.587 1.43421 -0.653314 0
M  V30 2017 C 197.535 2.32546 0.0501531 0
M  V30 2018 C 198.529 1.48617 0.812985 0
M  V30 2019 O 199.735 1.64825 0.723375 0
M  V30 2020 H 196.11 0.751185 0.0350032 0
M  V30 2021 H 198.081 2.89602 -0.719261 0
M  V30 2022 C 196.83 3.32925 1.00279 0
M  V30 2023 H 196.153 3.97532 0.425236 0
M  V30 2024 H 197.593 3.9792 1.46409 0
M  V30 2025 C 196.052 2.63532 2.09886 0
M  V30 2026 O 196.582 2.45092 3.18265 0
M  V30 2027 N 194.788 2.22905 1.86445 0
M  V30 2028 H 194.335 2.38103 0.98309 0
M  V30 2029 H 194.293 1.76805 2.59976 0
M  V30 2030 N 198.065 0.39524 1.52563 0
M  V30 2031 C 199.012 -0.437036 2.26624 0
M  V30 2032 C 199.982 -1.05281 1.28472 0
M  V30 2033 O 201.167 -1.07971 1.57311 0
M  V30 2034 C 198.307 -1.55524 3.08069 0
M  V30 2035 C 197.42 -0.961745 4.21158 0
M  V30 2036 C 196.555 -2.05149 4.89987 0
M  V30 2037 C 195.594 -1.4342 5.95061 0
M  V30 2038 N 194.731 -2.46351 6.57462 0
M  V30 2039 H 199.571 0.200976 2.97322 0
M  V30 2040 H 197.108 0.110944 1.46681 0
M  V30 2041 H 199.066 -2.21437 3.53584 0
M  V30 2042 H 197.696 -2.16348 2.3957 0
M  V30 2043 H 196.748 -0.192048 3.79915 0
M  V30 2044 H 198.06 -0.470701 4.96574 0
M  V30 2045 H 197.214 -2.78819 5.38837 0
M  V30 2046 H 195.953 -2.57615 4.14109 0
M  V30 2047 H 194.958 -0.682774 5.45544 0
M  V30 2048 H 196.183 -0.917416 6.72875 0
M  V30 2049 H 194.129 -2.97975 5.8442 0
M  V30 2050 H 194.046 -2.02019 7.28508 0
M  V30 2051 H 195.314 -3.19633 7.10954 0
M  V30 2052 N 199.544 -1.57102 0.125237 0
M  V30 2053 C 200.791 -1.95407 -0.531248 0
M  V30 2054 C 201.119 -1.0089 -1.66287 0
M  V30 2055 O 200.374 -0.0339431 -1.95671 0
M  V30 2056 C 200.673 -3.40096 -1.09862 0
M  V30 2057 C 200.339 -4.50815 -0.0876989 0
M  V30 2058 C 199.001 -4.80824 0.19026 0
M  V30 2059 C 201.353 -5.17724 0.600902 0
M  V30 2060 C 198.681 -5.75058 1.163 0
M  V30 2061 C 201.033 -6.13005 1.56231 0
M  V30 2062 C 199.697 -6.41403 1.8482 0
M  V30 2063 H 198.967 -0.715046 -0.194397 0
M  V30 2064 H 201.614 -1.90373 0.207463 0
M  V30 2065 H 199.919 -3.41855 -1.91422 0
M  V30 2066 H 201.616 -3.6705 -1.61478 0
M  V30 2067 H 198.206 -4.27444 -0.314528 0
M  V30 2068 H 202.39 -4.94691 0.399333 0
M  V30 2069 H 197.646 -5.95362 1.39117 0
M  V30 2070 H 201.82 -6.63934 2.10153 0
M  V30 2071 H 199.447 -7.14229 2.60349 0
M  V30 2072 N 201.022 0.148545 -1.56898 0
M  V30 2073 C 201.972 1.1886 -1.94567 0
M  V30 2074 C 202.956 1.3863 -0.816735 0
M  V30 2075 O 204.148 1.40218 -1.08018 0
M  V30 2076 C 201.277 2.52262 -2.32849 0
M  V30 2077 C 200.363 2.36092 -3.52309 0
M  V30 2078 N 200.754 1.89674 -4.6889 0
M  V30 2079 C 199.052 2.66848 -3.57363 0
M  V30 2080 C 199.753 1.86511 -5.50989 0
M  V30 2081 N 198.729 2.29766 -4.92655 0
M  V30 2082 H 202.531 0.821793 -2.82177 0
M  V30 2083 H 200.045 0.356615 -1.58436 0
M  V30 2084 H 202.042 3.27447 -2.58039 0
M  V30 2085 H 200.702 2.89727 -1.46589 0
M  V30 2086 H 201.713 1.59663 -4.92674 0
M  V30 2087 H 198.39 3.08198 -2.81639 0
M  V30 2088 H 199.78 1.52128 -6.54452 0
M  V30 2089 N 202.5 1.5196 0.417844 0
M  V30 2090 C 203.916 1.40569 0.755816 0
M  V30 2091 C 204.116 0.503316 1.95113 0
M  V30 2092 O 203.172 -0.0341925 2.52477 0
M  V30 2093 C 204.485 2.82947 1.01791 0
M  V30 2094 C 206.033 2.92231 1.12116 0
M  V30 2095 C 206.508 4.35559 1.41608 0
M  V30 2096 N 207.999 4.38753 1.48491 0
M  V30 2097 C 208.734 5.46705 1.7292 0
M  V30 2098 N 208.23 6.64788 1.95011 0
M  V30 2099 N 210.023 5.34209 1.74863 0
M  V30 2100 H 202.174 2.09168 -0.369098 0
M  V30 2101 H 204.437 0.942409 -0.102809 0
M  V30 2102 H 204.143 3.5106 0.212081 0
M  V30 2103 H 204.017 3.23462 1.94042 0
M  V30 2104 H 206.404 2.24304 1.9176 0
M  V30 2105 H 206.485 2.55185 0.177225 0
M  V30 2106 H 206.129 5.04042 0.624848 0
M  V30 2107 H 206.059 4.70133 2.37239 0
M  V30 2108 H 208.55 3.5363 1.33244 0
M  V30 2109 H 208.863 7.42845 2.13076 0
M  V30 2110 H 207.208 6.67869 1.92293 0
M  V30 2111 H 210.399 4.40937 1.57137 0
M  V30 2112 H 210.572 6.18415 1.93563 0
M  V30 2113 N 203.978 -0.674533 1.42435 0
M  V30 2114 C 205.203 -1.46784 1.46524 0
M  V30 2115 C 205.628 -1.87938 0.078066 0
M  V30 2116 O 204.986 -1.56014 -0.92354 0
M  V30 2117 C 205.034 -2.69307 2.39805 0
M  V30 2118 O 204.138 -3.67587 1.86959 0
M  V30 2119 H 203.479 -0.440959 0.496439 0
M  V30 2120 H 206.009 -0.827326 1.87127 0
M  V30 2121 H 206.019 -3.17374 2.56393 0
M  V30 2122 H 204.694 -2.38692 3.40586 0
M  V30 2123 H 203.271 -3.2662 1.79927 0
M  V30 2124 N 205.456 -1.28612 -0.910864 0
M  V30 2125 C 206.386 -1.15326 -2.03032 0
M  V30 2126 C 207.367 -0.0502924 -1.70026 0
M  V30 2127 O 208.552 -0.227797 -1.92859 0
M  V30 2128 C 205.682 -0.817343 -3.37545 0
M  V30 2129 C 204.636 -1.8754 -3.84724 0
M  V30 2130 C 203.962 -1.39305 -5.16235 0
M  V30 2131 C 205.262 -3.28244 -4.06267 0
M  V30 2132 H 206.956 -2.08975 -2.14406 0
M  V30 2133 H 204.502 -1.00612 -1.03021 0
M  V30 2134 H 206.455 -0.711151 -4.15356 0
M  V30 2135 H 205.179 0.154846 -3.26233 0
M  V30 2136 H 203.838 -1.97079 -3.09121 0
M  V30 2137 H 203.486 -0.409846 -5.01328 0
M  V30 2138 H 203.186 -2.10057 -5.48771 0
M  V30 2139 H 204.71 -1.30014 -5.96598 0
M  V30 2140 H 206.124 -3.21611 -4.74594 0
M  V30 2141 H 204.521 -3.96855 -4.5014 0
M  V30 2142 H 205.591 -3.72048 -3.10979 0
M  V30 2143 N 206.934 1.1197 -1.10907 0
M  V30 2144 C 207.844 2.21433 -0.774896 0
M  V30 2145 C 208.86 1.72478 0.229657 0
M  V30 2146 O 210.036 2.01288 0.0672008 0
M  V30 2147 C 207.101 3.4602 -0.216986 0
M  V30 2148 C 206.162 4.09791 -1.27944 0
M  V30 2149 C 205.395 5.28431 -0.748055 0
M  V30 2150 O 205.618 5.68823 0.423833 0
M  V30 2151 O 204.552 5.82644 -1.51027 0
M  V30 2152 H 208.378 2.5242 -1.68873 0
M  V30 2153 H 205.963 1.20399 -0.884555 0
M  V30 2154 H 207.845 4.21304 0.090059 0
M  V30 2155 H 206.52 3.16698 0.669633 0
M  V30 2156 H 205.427 3.36265 -1.63941 0
M  V30 2157 H 206.76 4.4328 -2.13925 0
M  V30 2158 N 208.412 0.89855 1.29475 0
M  V30 2159 C 209.375 0.380272 2.26023 0
M  V30 2160 C 210.375 -0.484891 1.53315 0
M  V30 2161 O 211.565 -0.290108 1.71767 0
M  V30 2162 C 208.697 -0.45651 3.3783 0
M  V30 2163 H 209.89 1.23295 2.73383 0
M  V30 2164 H 207.443 0.676589 1.40897 0
M  V30 2165 H 208.178 -1.32922 2.95808 0
M  V30 2166 H 207.963 0.163393 3.91759 0
M  V30 2167 H 209.453 -0.810466 4.0966 0
M  V30 2168 N 209.89 -1.43072 0.660911 0
M  V30 2169 C 211.301 -1.84932 0.256348 0
M  V30 2170 C 211.652 -1.55325 -1.19868 0
M  V30 2171 O 210.777 -1.00607 -1.91591 0
M  V30 2172 C 211.372 -3.35684 0.458475 0
M  V30 2173 C 209.931 -3.76245 0.108161 0
M  V30 2174 C 209.078 -2.66749 0.757641 0
M  V30 2175 H 212.029 -1.33116 0.864051 0
M  V30 2176 H 212.05 -3.79365 -0.293683 0
M  V30 2177 H 211.562 -3.572 1.51755 0
M  V30 2178 H 209.663 -3.60338 -0.948014 0
M  V30 2179 H 209.776 -4.76058 0.538992 0
M  V30 2180 H 208.14 -2.53989 0.190185 0
M  V30 2181 H 208.923 -2.91092 1.81989 0
M  V30 2182 N 211.368 -0.403325 -1.52352 0
M  V30 2183 C 212.614 0.174605 -2.02047 0
M  V30 2184 C 212.947 1.45282 -1.28867 0
M  V30 2185 O 212.222 1.90483 -0.393257 0
M  V30 2186 C 212.505 0.428238 -3.57545 0
M  V30 2187 C 212.358 -0.866248 -4.4138 0
M  V30 2188 C 213.677 1.21287 -4.23057 0
M  V30 2189 H 210.796 0.0619851 -0.734389 0
M  V30 2190 H 213.438 -0.53565 -1.82293 0
M  V30 2191 H 211.588 1.03327 -3.74507 0
M  V30 2192 H 213.26 -1.50265 -4.3614 0
M  V30 2193 H 211.503 -1.47851 -4.07827 0
M  V30 2194 H 212.174 -0.643249 -5.48239 0
M  V30 2195 H 214.65 0.700703 -4.10158 0
M  V30 2196 H 213.526 1.35909 -5.31808 0
M  V30 2197 H 213.787 2.23193 -3.81625 0
M  V30 2198 N 212.846 1.57033 -0.133567 0
M  V30 2199 C 214.074 2.00044 0.528195 0
M  V30 2200 C 214.489 1.01349 1.59291 0
M  V30 2201 O 213.846 0.00848369 1.82498 0
M  V30 2202 C 213.897 3.43018 1.1411 0
M  V30 2203 O 213.618 4.37939 0.11892 0
M  V30 2204 C 215.119 4.01237 1.88477 0
M  V30 2205 H 212.339 0.656517 0.138661 0
M  V30 2206 H 214.883 2.03267 -0.224196 0
M  V30 2207 H 213.038 3.40688 1.84418 0
M  V30 2208 H 213.452 5.21436 0.56613 0
M  V30 2209 H 214.926 5.03314 2.26669 0
M  V30 2210 H 215.403 3.41193 2.76558 0
M  V30 2211 H 216.009 4.07156 1.22898 0
M  V30 2212 N 214.325 -0.140222 1.56975 0
M  V30 2213 C 215.235 -1.19223 2.02047 0
M  V30 2214 C 216.251 -1.46612 0.937062 0
M  V30 2215 O 217.427 -1.58148 1.24704 0
M  V30 2216 C 214.492 -2.50414 2.39778 0
M  V30 2217 C 213.553 -2.30612 3.621 0
M  V30 2218 C 212.786 -3.55547 3.98023 0
M  V30 2219 O 213.009 -4.62004 3.34528 0
M  V30 2220 O 211.943 -3.47808 4.91237 0
M  V30 2221 H 215.769 -0.839559 2.91865 0
M  V30 2222 H 213.354 -0.349453 1.45256 0
M  V30 2223 H 215.236 -3.27747 2.64877 0
M  V30 2224 H 213.911 -2.85198 1.53114 0
M  V30 2225 H 212.818 -1.51207 3.4218 0
M  V30 2226 H 214.151 -2.00741 4.49404 0
M  V30 2227 N 215.803 -1.52179 -0.40978 0
M  V30 2228 C 217.028 -1.70347 -1.18308 0
M  V30 2229 C 217.453 -0.411887 -1.83535 0
M  V30 2230 O 216.811 0.630587 -1.6998 0
M  V30 2231 C 216.859 -2.83977 -2.22238 0
M  V30 2232 O 215.963 -2.495 -3.28365 0
M  V30 2233 H 215.304 -0.567103 -0.345384 0
M  V30 2234 H 217.834 -1.98879 -0.480445 0
M  V30 2235 H 217.844 -3.0887 -2.66577 0
M  V30 2236 H 216.519 -3.77685 -1.74146 0
M  V30 2237 H 215.096 -2.35277 -2.89308 0
M  V30 2238 N 217.281 0.66697 -1.42791 0
M  V30 2239 C 218.211 1.79218 -1.49677 0
M  V30 2240 C 219.192 1.66405 -0.352623 0
M  V30 2241 O 220.377 1.85708 -0.567993 0
M  V30 2242 C 217.507 3.17565 -1.40605 0
M  V30 2243 C 216.461 3.45124 -2.53127 0
M  V30 2244 C 215.787 4.83127 -2.29112 0
M  V30 2245 C 217.087 3.41236 -3.95418 0
M  V30 2246 H 218.781 1.73713 -2.43853 0
M  V30 2247 H 216.327 0.83432 -1.17367 0
M  V30 2248 H 218.28 3.96022 -1.44029 0
M  V30 2249 H 217.004 3.23767 -0.429271 0
M  V30 2250 H 215.663 2.69031 -2.49034 0
M  V30 2251 H 215.311 4.85988 -1.29709 0
M  V30 2252 H 215.011 5.02528 -3.04531 0
M  V30 2253 H 216.535 5.63859 -2.34297 0
M  V30 2254 H 217.949 4.09651 -4.01073 0
M  V30 2255 H 216.346 3.72173 -4.70752 0
M  V30 2256 H 217.416 2.39665 -4.21532 0
M  V30 2257 N 218.759 1.29093 0.90403 0
M  V30 2258 C 219.689 1.16401 2.02418 0
M  V30 2259 C 220.67 0.0593085 1.69997 0
M  V30 2260 O 221.855 0.238021 1.92736 0
M  V30 2261 C 218.985 0.835233 3.37107 0
M  V30 2262 C 217.939 1.89578 3.83724 0
M  V30 2263 C 217.265 1.42041 5.15489 0
M  V30 2264 C 218.565 3.30394 4.04521 0
M  V30 2265 H 220.259 2.10109 2.13295 0
M  V30 2266 H 217.805 1.01157 1.02486 0
M  V30 2267 H 219.758 0.733169 4.14973 0
M  V30 2268 H 218.482 -0.137543 3.2631 0
M  V30 2269 H 217.141 1.98715 3.08071 0
M  V30 2270 H 216.789 0.436426 5.01103 0
M  V30 2271 H 216.489 2.12964 5.4765 0
M  V30 2272 H 218.013 1.33176 5.959 0
M  V30 2273 H 219.427 3.24123 4.72882 0
M  V30 2274 H 217.824 3.99237 4.48029 0
M  V30 2275 H 218.894 3.73692 3.09002 0
M  V30 2276 N 220.237 -1.11381 1.11499 0
M  V30 2277 C 221.184 -2.17439 0.773887 0
M  V30 2278 C 222.154 -1.64132 -0.254899 0
M  V30 2279 O 223.339 -1.90345 -0.13168 0
M  V30 2280 C 220.479 -3.44373 0.223917 0
M  V30 2281 C 219.592 -4.1168 1.30934 0
M  V30 2282 C 218.727 -5.263 0.71984 0
M  V30 2283 C 217.766 -5.85493 1.78507 0
M  V30 2284 N 216.903 -6.91507 1.21502 0
M  V30 2285 H 221.743 -2.45962 1.68246 0
M  V30 2286 H 219.28 -1.20744 0.840191 0
M  V30 2287 H 221.238 -4.17047 -0.112921 0
M  V30 2288 H 219.868 -3.16232 -0.647851 0
M  V30 2289 H 218.92 -3.37073 1.76312 0
M  V30 2290 H 220.232 -4.51729 2.11524 0
M  V30 2291 H 219.386 -6.05785 0.333094 0
M  V30 2292 H 218.125 -4.87559 -0.117377 0
M  V30 2293 H 217.13 -5.04686 2.18111 0
M  V30 2294 H 218.355 -6.26301 2.62533 0
M  V30 2295 H 216.301 -6.54783 0.399455 0
M  V30 2296 H 216.218 -7.30214 1.95763 0
M  V30 2297 H 217.486 -7.74795 0.855181 0
M  V30 2298 N 221.715 -0.905404 -1.28997 0
M  V30 2299 C 222.678 -0.392253 -2.25819 0
M  V30 2300 C 223.678 0.476753 -1.5357 0
M  V30 2301 O 224.868 0.280994 -1.71919 0
M  V30 2302 C 222 0.438588 -3.38067 0
M  V30 2303 H 223.193 -1.24743 -2.72725 0
M  V30 2304 H 220.746 -0.684051 -1.40536 0
M  V30 2305 H 221.481 1.31352 -2.96508 0
M  V30 2306 H 221.266 -0.184167 -3.91667 0
M  V30 2307 H 222.756 0.78873 -4.10084 0
M  V30 2308 N 223.193 1.4272 -0.668489 0
M  V30 2309 C 224.442 2.00846 -0.185389 0
M  V30 2310 C 224.755 1.53442 1.21305 0
M  V30 2311 O 225.961 2.03944 1.79218 0
M  V30 2312 C 224.417 3.58805 -0.280591 0
M  V30 2313 C 224.025 4.15198 -1.68268 0
M  V30 2314 C 225.769 4.24255 0.14412 0
M  V30 2315 C 223.676 5.655 -1.73099 0
M  V30 2316 H 222.606 0.751145 -0.0655475 0
M  V30 2317 H 225.257 1.63516 -0.832752 0
M  V30 2318 H 223.639 3.93608 0.434553 0
M  V30 2319 H 224.813 3.91866 -2.42441 0
M  V30 2320 H 223.128 3.62176 -2.05469 0
M  V30 2321 H 225.725 5.34547 0.128086 0
M  V30 2322 H 226.068 3.99277 1.17827 0
M  V30 2323 H 226.601 3.94389 -0.519798 0
M  V30 2324 H 223.34 5.95268 -2.74475 0
M  V30 2325 H 222.86 5.90842 -1.03274 0
M  V30 2326 H 224.539 6.29808 -1.48158 0
M  V30 2327 N 224.671 0.411399 1.52136 0
M  V30 2328 C 225.918 -0.163645 2.01838 0
M  V30 2329 C 226.246 -1.4495 1.29691 0
M  V30 2330 O 225.501 -1.91725 0.392431 0
M  V30 2331 C 225.8 -0.455872 3.54481 0
M  V30 2332 C 225.466 0.741055 4.44769 0
M  V30 2333 C 224.128 1.06936 4.69167 0
M  V30 2334 C 226.48 1.54075 4.97906 0
M  V30 2335 C 223.808 2.19851 5.43951 0
M  V30 2336 C 226.16 2.66067 5.73926 0
M  V30 2337 C 224.824 2.99381 5.96596 0
M  V30 2338 H 224.094 -0.0598821 0.738576 0
M  V30 2339 H 226.741 0.553283 1.83333 0
M  V30 2340 H 225.046 -1.2544 3.71177 0
M  V30 2341 H 226.743 -0.913802 3.90449 0
M  V30 2342 H 223.333 0.475192 4.25958 0
M  V30 2343 H 227.517 1.30033 4.78963 0
M  V30 2344 H 222.773 2.46006 5.59724 0
M  V30 2345 H 226.947 3.28419 6.14096 0
M  V30 2346 H 224.574 3.86992 6.54325 0
M  V30 2347 N 226.149 -1.5696 0.141893 0
M  V30 2348 C 227.097 -2.17784 -0.816874 0
M  V30 2349 C 228.091 -1.1334 -1.25899 0
M  V30 2350 O 229.297 -1.316 -1.22806 0
M  V30 2351 H 225.672 -0.697278 -0.281615 0
M  V30 2352 H 227.643 -2.97087 -0.279621 0
M  V30 2353 C 226.392 -2.80983 -2.04802 0
M  V30 2354 H 225.715 -3.61062 -1.7168 0
M  V30 2355 H 227.155 -3.2705 -2.69841 0
M  V30 2356 C 225.614 -1.79228 -2.8527 0
M  V30 2357 O 226.144 -1.25962 -3.8144 0
M  V30 2358 N 224.35 -1.48647 -2.49704 0
M  V30 2359 H 223.897 -1.92155 -1.71564 0
M  V30 2360 H 223.855 -0.808115 -3.03837 0
M  V30 2361 N 227.627 0.131896 -1.57047 0
M  V30 2362 C 228.904 0.871495 -1.75112 0
M  V30 2363 C 229.284 1.9866 -0.713949 0
M  V30 2364 O 228.632 2.26965 0.264447 0
M  V30 2365 C 228.842 1.40007 -3.19686 0
M  V30 2366 C 230.19 1.85752 -3.81813 0
M  V30 2367 O 231.214 1.49715 -3.23209 0
M  V30 2368 O 230.073 2.5226 -4.84796 0
M  V30 2369 H 227.167 0.412919 -0.716538 0
M  V30 2370 H 229.713 0.116641 -1.69299 0
M  V30 2371 H 228.485 0.599404 -3.86682 0
M  V30 2372 H 228.108 2.218 -3.29986 0
M  V30 2373 N 229.106 1.52395 0.401703 0
M  V30 2374 C 230.016 1.7917 1.51444 0
M  V30 2375 C 231.032 0.677691 1.6026 0
M  V30 2376 O 232.208 0.963909 1.76835 0
M  V30 2377 C 229.273 1.94347 2.87107 0
M  V30 2378 C 228.334 3.18257 2.88116 0
M  V30 2379 C 227.567 3.32701 4.17308 0
M  V30 2380 O 227.79 2.52238 5.11598 0
M  V30 2381 O 226.724 4.25891 4.25324 0
M  V30 2382 H 230.55 2.73633 1.31752 0
M  V30 2383 H 228.135 1.3733 0.588296 0
M  V30 2384 H 230.017 2.06109 3.67555 0
M  V30 2385 H 228.692 1.03073 3.06851 0
M  V30 2386 H 227.599 3.11947 2.06494 0
M  V30 2387 H 228.932 4.09336 2.73322 0
M  V30 2388 N 230.584 -0.659388 1.43143 0
M  V30 2389 C 231.494 -1.80167 1.50256 0
M  V30 2390 C 232.51 -1.69571 0.390106 0
M  V30 2391 O 233.686 -1.90849 0.643319 0
M  V30 2392 C 230.751 -3.16409 1.41725 0
M  V30 2393 C 229.812 -3.38848 2.63591 0
M  V30 2394 C 229.045 -4.68591 2.55458 0
M  V30 2395 O 229.268 -5.47532 1.59891 0
M  V30 2396 O 228.202 -4.92614 3.45854 0
M  V30 2397 H 232.028 -1.77121 2.46702 0
M  V30 2398 H 229.613 -0.817092 1.25076 0
M  V30 2399 H 231.495 -3.9768 1.39387 0
M  V30 2400 H 230.17 -3.20059 0.484118 0
M  V30 2401 H 229.077 -2.57366 2.71502 0
M  V30 2402 H 230.41 -3.4004 3.55856 0
M  V30 2403 N 232.062 -1.29571 -0.897171 0
M  V30 2404 C 233.009 -1.14916 -2.00158 0
M  V30 2405 C 233.979 -0.0418149 -1.66047 0
M  V30 2406 O 235.164 -0.209793 -1.89643 0
M  V30 2407 C 232.304 -0.834307 -3.34863 0
M  V30 2408 C 231.417 -2.02234 -3.8174 0
M  V30 2409 C 230.552 -1.64664 -5.05034 0
M  V30 2410 C 229.591 -2.80033 -5.44286 0
M  V30 2411 N 228.728 -2.42843 -6.58765 0
M  V30 2412 H 233.568 -2.09403 -2.12025 0
M  V30 2413 H 231.105 -1.042 -1.0383 0
M  V30 2414 H 233.063 -0.632436 -4.12379 0
M  V30 2415 H 231.693 0.0736656 -3.22716 0
M  V30 2416 H 230.745 -2.33583 -3.00238 0
M  V30 2417 H 232.057 -2.88673 -4.06779 0
M  V30 2418 H 231.211 -1.4078 -5.9014 0
M  V30 2419 H 229.95 -0.753766 -4.8184 0
M  V30 2420 H 228.955 -3.04596 -4.57713 0
M  V30 2421 H 230.18 -3.69989 -5.6946 0
M  V30 2422 H 228.126 -1.56046 -6.3717 0
M  V30 2423 H 228.043 -3.22815 -6.83613 0
M  V30 2424 H 229.311 -2.22285 -7.47134 0
M  V30 2425 N 233.54 1.10788 -1.12088 0
M  V30 2426 C 234.787 1.82671 -0.873931 0
M  V30 2427 C 235.115 1.85004 0.600311 0
M  V30 2428 O 234.37 1.30365 1.45957 0
M  V30 2429 C 234.669 3.29294 -1.38926 0
M  V30 2430 C 234.335 3.47113 -2.87791 0
M  V30 2431 C 232.997 3.51684 -3.28439 0
M  V30 2432 C 235.349 3.52808 -3.83635 0
M  V30 2433 C 232.677 3.59513 -4.63646 0
M  V30 2434 C 235.029 3.62169 -5.18668 0
M  V30 2435 C 233.693 3.65003 -5.58864 0
M  V30 2436 H 232.963 0.668441 -0.319794 0
M  V30 2437 H 235.61 1.30613 -1.40045 0
M  V30 2438 H 233.915 3.83894 -0.783122 0
M  V30 2439 H 235.612 3.83416 -1.17443 0
M  V30 2440 H 232.202 3.4423 -2.5535 0
M  V30 2441 H 236.386 3.4853 -3.53328 0
M  V30 2442 H 231.642 3.59987 -4.94185 0
M  V30 2443 H 235.816 3.6552 -5.92763 0
M  V30 2444 H 233.443 3.70822 -6.63623 0
M  V30 2445 N 235.018 0.912232 1.28515 0
M  V30 2446 C 236.243 0.559774 1.99703 0
M  V30 2447 C 236.668 -0.851393 1.67729 0
M  V30 2448 O 236.026 -1.56875 0.908834 0
M  V30 2449 C 236.074 0.773874 3.52198 0
M  V30 2450 O 235.178 -0.167842 4.12058 0
M  V30 2451 H 234.519 0.21723 0.627461 0
M  V30 2452 H 237.049 1.22725 1.63706 0
M  V30 2453 H 237.059 0.683386 4.02236 0
M  V30 2454 H 235.734 1.80261 3.74805 0
M  V30 2455 H 234.311 -0.0287509 3.72889 0
M  V30 2456 N 236.496 -1.42363 0.676048 0
M  V30 2457 C 237.742 -2.0182 0.199125 0
M  V30 2458 C 238.075 -1.53339 -1.19168 0
M  V30 2459 O 237.35 -0.736124 -1.80032 0
M  V30 2460 C 237.633 -3.59331 0.235144 0
M  V30 2461 C 237.486 -4.17989 1.66149 0
M  V30 2462 C 238.805 -4.3813 -0.41595 0
M  V30 2463 H 235.924 -0.733293 0.0738311 0
M  V30 2464 H 238.566 -1.69368 0.86107 0
M  V30 2465 H 236.716 -3.87109 -0.328487 0
M  V30 2466 H 238.388 -4.0116 2.27747 0
M  V30 2467 H 236.631 -3.7377 2.20178 0
M  V30 2468 H 237.302 -5.27126 1.63837 0
M  V30 2469 H 239.778 -4.16051 0.0638529 0
M  V30 2470 H 238.654 -5.47717 -0.360115 0
M  V30 2471 H 238.915 -4.16101 -1.49373 0
M  V30 2472 N 237.974 -0.419461 -1.51915 0
M  V30 2473 C 238.924 0.418496 -2.24126 0
M  V30 2474 C 239.908 1.00495 -1.25656 0
M  V30 2475 O 241.1 0.926058 -1.50842 0
M  V30 2476 C 238.229 1.52899 -3.07371 0
M  V30 2477 C 237.315 0.952797 -4.13258 0
M  V30 2478 N 237.706 0.104175 -5.05693 0
M  V30 2479 C 236.004 1.22224 -4.28926 0
M  V30 2480 C 236.705 -0.21752 -5.81293 0
M  V30 2481 N 235.681 0.394293 -5.42168 0
M  V30 2482 H 239.483 -0.236048 -2.92951 0
M  V30 2483 H 236.997 -0.230481 -1.60756 0
M  V30 2484 H 238.994 2.14199 -3.57665 0
M  V30 2485 H 237.654 2.18605 -2.40088 0
M  V30 2486 H 238.665 -0.260924 -5.17242 0
M  V30 2487 H 235.342 1.87812 -3.72871 0
M  V30 2488 H 236.732 -0.906992 -6.6575 0
M  V30 2489 N 239.452 1.56882 -0.150215 0
M  V30 2490 C 240.677 2.01027 0.510184 0
M  V30 2491 C 241.102 1.02966 1.57415 0
M  V30 2492 O 240.46 0.00590158 1.81299 0
M  V30 2493 C 240.508 3.43899 1.08472 0
M  V30 2494 O 239.612 3.4885 2.19948 0
M  V30 2495 H 238.953 0.652233 0.124451 0
M  V30 2496 H 241.483 2.03093 -0.247894 0
M  V30 2497 H 241.493 3.82766 1.41259 0
M  V30 2498 H 240.168 4.14776 0.305582 0
M  V30 2499 H 238.745 3.21827 1.88366 0
M  V30 2500 N 240.93 -0.123565 1.57115 0
M  V30 2501 C 241.893 -1.13583 1.99076 0
M  V30 2502 C 242.893 -1.34564 0.880296 0
M  V30 2503 O 244.083 -1.31158 1.14644 0
M  V30 2504 C 241.215 -2.49128 2.32698 0
M  V30 2505 H 242.408 -0.775287 2.89706 0
M  V30 2506 H 239.961 -0.36771 1.51913 0
M  V30 2507 H 240.696 -2.90111 1.44934 0
M  V30 2508 H 240.481 -2.35255 3.13684 0
M  V30 2509 H 241.971 -3.2199 2.65918 0
M  V30 2510 N 242.408 -1.52605 -0.393616 0
M  V30 2511 C 243.338 -1.80022 -1.48709 0
M  V30 2512 C 244.319 -0.651995 -1.57108 0
M  V30 2513 O 245.504 -0.89913 -1.72132 0
M  V30 2514 C 242.634 -1.96492 -2.86371 0
M  V30 2515 C 241.588 -3.12161 -2.92813 0
M  V30 2516 C 240.914 -3.13877 -4.3288 0
M  V30 2517 C 242.214 -4.51322 -2.6288 0
M  V30 2518 H 243.908 -2.71589 -1.26015 0
M  V30 2519 H 241.454 -1.30684 -0.604778 0
M  V30 2520 H 243.407 -2.14255 -3.62867 0
M  V30 2521 H 242.131 -1.01611 -3.10391 0
M  V30 2522 H 240.79 -2.94173 -2.18764 0
M  V30 2523 H 240.438 -2.16687 -4.53933 0
M  V30 2524 H 240.138 -3.91576 -4.38112 0
M  V30 2525 H 241.662 -3.33789 -5.1129 0
M  V30 2526 H 243.076 -4.69435 -3.29096 0
M  V30 2527 H 241.473 -5.31053 -2.79468 0
M  V30 2528 H 242.543 -4.58353 -1.58242 0
M  V30 2529 N 243.887 0.651787 -1.4349 0
M  V30 2530 C 245.298 1.233 -1.40193 0
M  V30 2531 C 245.649 1.9591 -0.106727 0
M  V30 2532 O 244.774 2.01316 0.793773 0
M  V30 2533 C 245.369 2.24257 -2.53957 0
M  V30 2534 C 243.928 2.77852 -2.5392 0
M  V30 2535 C 243.075 1.52517 -2.3159 0
M  V30 2536 H 246.026 0.443717 -1.52371 0
M  V30 2537 H 246.047 3.0646 -2.25528 0
M  V30 2538 H 245.559 1.71382 -3.4821 0
M  V30 2539 H 243.66 3.34786 -1.63551 0
M  V30 2540 H 243.773 3.25299 -3.51735 0
M  V30 2541 H 242.137 1.79915 -1.80285 0
M  V30 2542 H 242.92 1.01574 -3.27929 0
M  V30 2543 N 245.365 1.30045 0.890287 0
M  V30 2544 C 246.297 1.11786 2.00091 0
M  V30 2545 C 247.31 0.0626307 1.62679 0
M  V30 2546 O 248.499 0.308112 1.75821 0
M  V30 2547 C 245.599 0.681527 3.31977 0
M  V30 2548 C 244.772 1.81735 3.97858 0
M  V30 2549 C 243.831 1.37045 5.08041 0
M  V30 2550 O 242.857 2.07677 5.29961 0
M  V30 2551 N 244.059 0.246525 5.79976 0
M  V30 2552 H 246.824 2.07441 2.16306 0
M  V30 2553 H 244.385 1.2211 1.06305 0
M  V30 2554 H 246.377 0.365675 4.03045 0
M  V30 2555 H 244.947 -0.182828 3.12065 0
M  V30 2556 H 244.167 2.30159 3.20032 0
M  V30 2557 H 245.455 2.57865 4.38615 0
M  V30 2558 H 244.853 -0.34215 5.64664 0
M  V30 2559 H 243.41 -0.00990438 6.51799 0
M  V30 2560 N 246.843 -1.10192 1.12674 0
M  V30 2561 C 248.089 -1.82475 0.884915 0
M  V30 2562 C 248.422 -1.85093 -0.58773 0
M  V30 2563 O 247.697 -1.3134 -1.43457 0
M  V30 2564 C 247.98 -3.29018 1.46353 0
M  V30 2565 C 247.833 -3.34718 3.00473 0
M  V30 2566 C 249.152 -4.25473 1.12519 0
M  V30 2567 H 246.271 -0.662492 0.322915 0
M  V30 2568 H 248.913 -1.2913 1.39375 0
M  V30 2569 H 247.063 -3.74576 1.03077 0
M  V30 2570 H 248.735 -2.97622 3.52447 0
M  V30 2571 H 246.978 -2.74541 3.35872 0
M  V30 2572 H 247.649 -4.37918 3.36053 0
M  V30 2573 H 250.125 -3.88161 1.499 0
M  V30 2574 H 249.001 -5.26365 1.55663 0
M  V30 2575 H 249.262 -4.42084 0.0377407 0
M  V30 2576 N 248.321 -0.919034 -1.28029 0
M  V30 2577 C 249.284 -0.416182 -2.2539 0
M  V30 2578 C 250.284 0.460438 -1.54067 0
M  V30 2579 O 251.474 0.262744 -1.72207 0
M  V30 2580 C 248.606 0.402707 -3.38513 0
M  V30 2581 H 249.799 -1.27629 -2.71387 0
M  V30 2582 H 247.352 -0.698919 -1.39803 0
M  V30 2583 H 248.087 1.282 -2.97885 0
M  V30 2584 H 247.872 -0.225698 -3.9145 0
M  V30 2585 H 249.362 0.745191 -4.10897 0
M  V30 2586 N 249.799 1.42003 -0.683588 0
M  V30 2587 C 250.729 2.33487 -0.024866 0
M  V30 2588 C 251.71 1.51163 0.779975 0
M  V30 2589 O 252.895 1.79739 0.735362 0
M  V30 2590 C 250.025 3.3487 0.920836 0
M  V30 2591 C 248.979 4.27414 0.223958 0
M  V30 2592 C 248.305 5.19074 1.2832 0
M  V30 2593 C 249.605 5.14445 -0.90242 0
M  V30 2594 H 251.299 2.88819 -0.788921 0
M  V30 2595 H 248.845 1.38873 -0.38083 0
M  V30 2596 H 250.798 3.97787 1.39081 0
M  V30 2597 H 249.522 2.77861 1.71642 0
M  V30 2598 H 248.181 3.65904 -0.225864 0
M  V30 2599 H 247.829 4.58387 2.071 0
M  V30 2600 H 247.529 5.81822 0.821995 0
M  V30 2601 H 249.053 5.84867 1.75392 0
M  V30 2602 H 250.467 5.70998 -0.513272 0
M  V30 2603 H 248.864 5.86072 -1.28997 0
M  V30 2604 H 249.934 4.52322 -1.74737 0
M  V30 2605 N 251.277 0.427512 1.51691 0
M  V30 2606 C 252.207 -0.3796 2.30394 0
M  V30 2607 C 253.188 -1.02982 1.35384 0
M  V30 2608 O 254.373 -1.03534 1.643 0
M  V30 2609 C 251.503 -1.48649 3.1388 0
M  V30 2610 C 250.457 -0.960294 4.17088 0
M  V30 2611 C 249.783 -2.16219 4.89033 0
M  V30 2612 C 251.083 -0.00153679 5.223 0
M  V30 2613 H 252.777 0.277164 2.98114 0
M  V30 2614 H 250.323 0.134739 1.43368 0
M  V30 2615 H 252.276 -2.05826 3.67714 0
M  V30 2616 H 251 -2.1714 2.43962 0
M  V30 2617 H 249.659 -0.410806 3.64291 0
M  V30 2618 H 249.307 -2.83307 4.15628 0
M  V30 2619 H 249.007 -1.81654 5.58816 0
M  V30 2620 H 250.531 -2.73968 5.45687 0
M  V30 2621 H 251.945 -0.482687 5.71264 0
M  V30 2622 H 250.342 0.256199 5.99553 0
M  V30 2623 H 251.412 0.938174 4.75738 0
M  V30 2624 N 252.755 -1.56801 0.158532 0
M  V30 2625 C 254.003 -1.96102 -0.488712 0
M  V30 2626 C 254.324 -1.04498 -1.64636 0
M  V30 2627 O 253.594 -0.108783 -1.95598 0
M  V30 2628 H 252.174 -0.724102 -0.183535 0
M  V30 2629 H 254.836 -1.93457 0.236728 0
M  V30 2630 H 253.932 -3.00097 -0.857219 0
M  V30 2631 N 254.233 0.115231 -1.57178 0
M  V30 2632 C 255.51 0.852873 -1.76027 0
M  V30 2633 C 255.89 1.97892 -0.73498 0
M  V30 2634 O 255.238 2.27232 0.24036 0
M  V30 2635 C 255.448 1.36608 -3.21153 0
M  V30 2636 C 256.796 1.81692 -3.83762 0
M  V30 2637 O 257.82 1.46278 -3.24779 0
M  V30 2638 O 256.679 2.47104 -4.87444 0
M  V30 2639 H 253.773 0.405296 -0.720877 0
M  V30 2640 H 256.319 0.0986785 -1.69413 0
M  V30 2641 H 255.091 0.558357 -3.87296 0
M  V30 2642 H 254.714 2.18287 -3.3232 0
M  V30 2643 N 255.711 1.52812 0.385517 0
M  V30 2644 C 256.621 1.80766 1.49535 0
M  V30 2645 C 257.637 0.694651 1.59532 0
M  V30 2646 O 258.813 0.982611 1.75803 0
M  V30 2647 C 255.878 1.97381 2.85029 0
M  V30 2648 C 254.939 3.21295 2.84724 0
M  V30 2649 C 254.172 3.37108 4.13756 0
M  V30 2650 O 254.395 2.5765 5.08893 0
M  V30 2651 O 253.329 4.30378 4.20783 0
M  V30 2652 H 257.155 2.75015 1.28842 0
M  V30 2653 H 254.74 1.37946 0.573697 0
M  V30 2654 H 256.622 2.09996 3.65349 0
M  V30 2655 H 255.297 1.06322 3.05741 0
M  V30 2656 H 254.204 3.1412 2.03174 0
M  V30 2657 H 255.537 4.12212 2.68965 0
M  V30 2658 N 257.189 -0.644168 1.43834 0
M  V30 2659 C 258.437 -1.40117 1.45642 0
M  V30 2660 C 258.758 -1.94814 0.0852413 0
M  V30 2661 O 258.028 -1.74988 -0.880688 0
M  V30 2662 H 256.608 -0.52005 0.536243 0
M  V30 2663 H 259.27 -0.7591 1.7951 0
M  V30 2664 H 258.366 -2.23902 2.17427 0
M  V30 2665 N 258.668 -1.30515 -0.883378 0
M  V30 2666 C 259.631 -1.1701 -1.97082 0
M  V30 2667 C 260.631 -0.10089 -1.60483 0
M  V30 2668 O 261.821 -0.349127 -1.70666 0
M  V30 2669 C 258.953 -0.793045 -3.31547 0
M  V30 2670 H 260.146 -2.13622 -2.10489 0
M  V30 2671 H 257.699 -1.13935 -1.06998 0
M  V30 2672 H 258.434 0.172499 -3.23841 0
M  V30 2673 H 258.219 -1.56576 -3.5948 0
M  V30 2674 H 259.709 -0.722073 -4.1131 0
M  V30 2675 N 260.146 1.09593 -1.13257 0
M  V30 2676 C 261.109 2.14359 -0.811358 0
M  V30 2677 C 262.109 1.59808 0.178377 0
M  V30 2678 O 263.299 1.74132 -0.0484911 0
M  V30 2679 C 260.431 3.40269 -0.207276 0
M  V30 2680 H 261.624 2.44284 -1.73969 0
M  V30 2681 H 259.177 1.25102 -0.936973 0
M  V30 2682 H 259.912 3.15969 0.73036 0
M  V30 2683 H 259.697 3.81154 -0.919992 0
M  V30 2684 H 261.187 4.176 0.000667944 0
M  V30 2685 N 261.624 0.925811 1.2754 0
M  V30 2686 C 262.572 0.413897 2.28888 0
M  V30 2687 C 263.566 -0.500779 1.61829 0
M  V30 2688 O 264.772 -0.38069 1.75928 0
M  V30 2689 H 261.147 0.115274 0.743112 0
M  V30 2690 H 263.118 1.28151 2.69481 0
M  V30 2691 C 261.867 -0.319792 3.46226 0
M  V30 2692 H 261.19 0.374846 3.98039 0
M  V30 2693 H 262.63 -0.642435 4.19105 0
M  V30 2694 C 261.089 -1.53209 3.00048 0
M  V30 2695 O 261.619 -2.6309 3.03557 0
M  V30 2696 N 259.825 -1.38326 2.55566 0
M  V30 2697 H 259.372 -0.489292 2.5291 0
M  V30 2698 H 259.33 -2.19564 2.25031 0
M  V30 2699 N 263.102 -1.41638 0.69111 0
M  V30 2700 C 264.052 -2.28 -0.000107832 0
M  V30 2701 C 265.036 -1.41964 -0.757304 0
M  V30 2702 O 266.228 -1.65274 -0.633532 0
M  V30 2703 C 263.357 -3.30209 -0.938983 0
M  V30 2704 C 262.443 -4.23725 -0.17827 0
M  V30 2705 N 262.834 -4.99017 0.825563 0
M  V30 2706 C 261.132 -4.44071 -0.414392 0
M  V30 2707 C 261.833 -5.67431 1.28052 0
M  V30 2708 N 260.809 -5.40197 0.607304 0
M  V30 2709 H 264.611 -2.83644 0.769617 0
M  V30 2710 H 262.125 -1.53797 0.521562 0
M  V30 2711 H 264.122 -3.90898 -1.44929 0
M  V30 2712 H 262.782 -2.76126 -1.70836 0
M  V30 2713 H 263.793 -5.03671 1.20566 0
M  V30 2714 H 260.47 -4.01004 -1.162 0
M  V30 2715 H 261.86 -6.37801 2.11327 0
M  V30 2716 N 264.58 -0.43555 -1.51462 0
M  V30 2717 C 265.528 0.391205 -2.29287 0
M  V30 2718 C 266.522 1.02247 -1.35062 0
M  V30 2719 O 267.728 0.957646 -1.52411 0
M  V30 2720 H 264.103 0.144968 -0.737895 0
M  V30 2721 H 266.074 -0.286051 -2.97026 0
M  V30 2722 C 264.823 1.48096 -3.14583 0
M  V30 2723 H 264.146 1.00457 -3.86973 0
M  V30 2724 H 265.586 2.03273 -3.72097 0
M  V30 2725 C 264.045 2.46321 -2.29843 0
M  V30 2726 O 264.575 3.50815 -1.95682 0
M  V30 2727 N 262.781 2.17166 -1.931 0
M  V30 2728 H 262.328 1.32218 -2.21079 0
M  V30 2729 H 262.286 2.83127 -1.36698 0
M  V30 2730 N 266.058 1.56714 -0.166846 0
M  V30 2731 C 267.474 1.58473 0.189372 0
M  V30 2732 C 267.674 1.18201 1.63189 0
M  V30 2733 O 266.73 0.891528 2.36237 0
M  V30 2734 C 268.043 3.00573 -0.0873872 0
M  V30 2735 C 269.591 3.1299 -0.0252443 0
M  V30 2736 C 270.066 4.57174 -0.274934 0
M  V30 2737 N 271.557 4.62665 -0.222553 0
M  V30 2738 C 272.292 5.72072 -0.389985 0
M  V30 2739 N 271.788 6.90054 -0.616229 0
M  V30 2740 N 273.581 5.61153 -0.326202 0
M  V30 2741 H 265.732 1.8118 -1.10849 0
M  V30 2742 H 267.995 0.839525 -0.440342 0
M  V30 2743 H 267.701 3.34497 -1.0865 0
M  V30 2744 H 267.575 3.72019 0.623037 0
M  V30 2745 H 269.962 2.78895 0.96444 0
M  V30 2746 H 270.043 2.43989 -0.768309 0
M  V30 2747 H 269.687 4.91976 -1.26181 0
M  V30 2748 H 269.617 5.24328 0.48869 0
M  V30 2749 H 272.108 3.77863 -0.0531512 0
M  V30 2750 H 272.421 7.69311 -0.733559 0
M  V30 2751 H 270.766 6.91927 -0.652791 0
M  V30 2752 H 273.957 4.67859 -0.150072 0
M  V30 2753 H 274.13 6.46364 -0.460116 0
M  V30 2754 N 267.536 -0.106894 1.57237 0
M  V30 2755 C 268.466 -1.13148 2.04254 0
M  V30 2756 C 269.447 -1.42476 0.929224 0
M  V30 2757 O 270.632 -1.52709 1.19973 0
M  V30 2758 C 267.762 -2.4545 2.45706 0
M  V30 2759 C 266.716 -2.30558 3.60592 0
M  V30 2760 C 266.042 -3.67931 3.87983 0
M  V30 2761 C 267.342 -1.75597 4.91897 0
M  V30 2762 H 269.036 -0.740374 2.90101 0
M  V30 2763 H 266.582 -0.354696 1.39563 0
M  V30 2764 H 268.535 -3.17389 2.77205 0
M  V30 2765 H 267.259 -2.86475 1.56843 0
M  V30 2766 H 265.918 -1.61067 3.29322 0
M  V30 2767 H 265.566 -4.06462 2.96306 0
M  V30 2768 H 265.266 -3.58817 4.65322 0
M  V30 2769 H 266.79 -4.41356 4.21945 0
M  V30 2770 H 268.204 -2.37364 5.21854 0
M  V30 2771 H 266.601 -1.77272 5.73319 0
M  V30 2772 H 267.671 -0.714451 4.79608 0
M  V30 2773 N 269.014 -1.53014 -0.377408 0
M  V30 2774 C 270.262 -1.6829 -1.11906 0
M  V30 2775 C 270.583 -0.431206 -1.90173 0
M  V30 2776 O 269.853 0.554595 -1.87886 0
M  V30 2777 H 268.433 -0.620371 -0.416112 0
M  V30 2778 H 271.095 -1.90167 -0.426893 0
M  V30 2779 H 270.191 -2.53862 -1.8155 0
M  V30 2780 N 270.492 0.636531 -1.44174 0
M  V30 2781 C 271.74 1.39343 -1.46383 0
M  V30 2782 C 272.061 1.94766 -0.0955715 0
M  V30 2783 O 271.331 1.75452 0.871395 0
M  V30 2784 H 269.911 0.517199 -0.538994 0
M  V30 2785 H 272.573 0.74957 -1.7991 0
M  V30 2786 H 271.669 2.22746 -2.18611 0
M  V30 2787 N 271.97 1.30982 0.876444 0
M  V30 2788 C 272.92 1.14688 1.97055 0
M  V30 2789 C 273.904 0.0596593 1.60789 0
M  V30 2790 O 275.096 0.283892 1.74708 0
M  V30 2791 C 272.225 0.849627 3.3262 0
M  V30 2792 C 271.311 1.97752 3.75173 0
M  V30 2793 N 271.702 3.22384 3.89746 0
M  V30 2794 C 270 1.8758 4.04635 0
M  V30 2795 C 270.701 3.96121 4.25985 0
M  V30 2796 N 269.677 3.24237 4.36315 0
M  V30 2797 H 273.479 2.09204 2.06424 0
M  V30 2798 H 270.993 1.22445 1.06682 0
M  V30 2799 H 272.99 0.713895 4.10742 0
M  V30 2800 H 271.65 -0.087376 3.24582 0
M  V30 2801 H 272.661 3.57575 3.74647 0
M  V30 2802 H 269.338 1.01303 4.05024 0
M  V30 2803 H 270.728 5.03491 4.44911 0
M  V30 2804 N 273.449 -1.08991 1.13837 0
M  V30 2805 C 274.679 -1.84743 0.924859 0
M  V30 2806 C 275.087 -1.81629 -0.529874 0
M  V30 2807 O 274.43 -1.21397 -1.37872 0
M  V30 2808 C 274.492 -3.33568 1.34061 0
M  V30 2809 C 274.156 -3.60425 2.80968 0
M  V30 2810 C 275.153 -3.55771 3.79108 0
M  V30 2811 C 272.838 -3.88627 3.18236 0
M  V30 2812 C 274.832 -3.78939 5.12527 0
M  V30 2813 C 272.519 -4.11449 4.51833 0
M  V30 2814 C 273.517 -4.06598 5.48787 0
M  V30 2815 O 273.205 -4.28826 6.79973 0
M  V30 2816 H 272.937 -0.590258 0.329502 0
M  V30 2817 H 275.491 -1.38598 1.51591 0
M  V30 2818 H 273.721 -3.80442 0.692853 0
M  V30 2819 H 275.41 -3.90743 1.09886 0
M  V30 2820 H 276.176 -3.34005 3.51661 0
M  V30 2821 H 272.055 -3.91526 2.43369 0
M  V30 2822 H 275.599 -3.75068 5.88192 0
M  V30 2823 H 271.496 -4.32698 4.79002 0
M  V30 2824 H 272.264 -4.46264 6.86142 0
M  V30 2825 N 274.927 -0.932562 -1.27047 0
M  V30 2826 C 276.175 -0.574422 -1.93765 0
M  V30 2827 C 276.496 0.887993 -1.73608 0
M  V30 2828 O 275.766 1.62999 -1.08665 0
M  V30 2829 H 274.346 -0.209451 -0.717035 0
M  V30 2830 H 277.008 -1.18601 -1.5466 0
M  V30 2831 H 276.104 -0.784841 -3.02071 0
M  V30 2832 N 276.405 1.4127 -0.698611 0
M  V30 2833 C 277.315 2.34573 -0.0357891 0
M  V30 2834 C 278.331 1.56393 0.762701 0
M  V30 2835 O 279.507 1.8886 0.699564 0
M  V30 2836 C 276.572 3.35159 0.887089 0
M  V30 2837 C 275.633 4.29225 0.0804634 0
M  V30 2838 C 274.866 5.25006 0.959387 0
M  V30 2839 O 275.089 5.26314 2.19886 0
M  V30 2840 O 274.023 6.00519 0.407439 0
M  V30 2841 H 277.849 2.92838 -0.804957 0
M  V30 2842 H 275.434 1.42175 -0.458966 0
M  V30 2843 H 277.316 3.9689 1.41621 0
M  V30 2844 H 275.991 2.79333 1.6357 0
M  V30 2845 H 274.898 3.70833 -0.493328 0
M  V30 2846 H 276.231 4.88157 -0.629547 0
M  V30 2847 N 277.883 0.443576 1.51229 0
M  V30 2848 C 279.294 -0.0180867 1.86691 0
M  V30 2849 C 279.645 -1.41384 1.36033 0
M  V30 2850 O 278.77 -2.04291 0.713722 0
M  V30 2851 C 279.365 -0.039597 3.38777 0
M  V30 2852 C 277.924 -0.445692 3.73752 0
M  V30 2853 C 277.071 0.357584 2.74985 0
M  V30 2854 H 280.022 0.659138 1.44364 0
M  V30 2855 H 280.043 -0.847761 3.70936 0
M  V30 2856 H 279.555 0.976382 3.75617 0
M  V30 2857 H 277.656 -1.46704 3.42503 0
M  V30 2858 H 277.769 -0.166155 4.78812 0
M  V30 2859 H 276.133 -0.184973 2.54027 0
M  V30 2860 H 276.916 1.37256 3.14668 0
M  V30 2861 N 279.361 -1.56624 0.175154 0
M  V30 2862 C 280.609 -1.96609 -0.467885 0
M  V30 2863 C 280.93 -1.06238 -1.63519 0
M  V30 2864 O 280.2 -0.129523 -1.95471 0
M  V30 2865 H 278.78 -0.726008 -0.175845 0
M  V30 2866 H 281.442 -1.93195 0.257234 0
M  V30 2867 H 280.538 -3.00989 -0.825342 0
M  V30 2868 N 280.839 0.0985539 -1.57292 0
M  V30 2869 C 281.772 1.15082 -1.97057 0
M  V30 2870 C 282.75 1.39025 -0.843255 0
M  V30 2871 O 283.934 1.52842 -1.10325 0
M  V30 2872 C 281.061 2.50069 -2.28437 0
M  V30 2873 C 280.107 2.42428 -3.509 0
M  V30 2874 S 280.94 1.84414 -5.02744 0
M  V30 2875 C 282.096 3.21032 -5.37298 0
M  V30 2876 H 282.329 0.811815 -2.86002 0
M  V30 2877 H 279.862 0.306102 -1.51335 0
M  V30 2878 H 281.82 3.27729 -2.47192 0
M  V30 2879 H 280.481 2.8114 -1.40069 0
M  V30 2880 H 279.674 3.41911 -3.70288 0
M  V30 2881 H 279.276 1.72896 -3.31637 0
M  V30 2882 H 281.568 4.17297 -5.33731 0
M  V30 2883 H 282.511 3.06452 -6.38352 0
M  V30 2884 H 282.919 3.20404 -4.64759 0
M  V30 2885 N 282.317 1.53212 0.369288 0
M  V30 2886 C 283.249 1.75668 1.47219 0
M  V30 2887 C 284.262 0.637387 1.49804 0
M  V30 2888 O 285.451 0.913561 1.5335 0
M  V30 2889 C 282.551 1.81818 2.85999 0
M  V30 2890 C 281.724 3.11409 3.07153 0
M  V30 2891 C 280.783 3.08849 4.26026 0
M  V30 2892 O 279.809 3.82659 4.2138 0
M  V30 2893 N 281.011 2.29409 5.33246 0
M  V30 2894 H 283.776 2.70832 1.28337 0
M  V30 2895 H 281.337 1.51944 0.55898 0
M  V30 2896 H 283.329 1.77588 3.63655 0
M  V30 2897 H 281.899 0.939544 2.98146 0
M  V30 2898 H 281.119 3.28971 2.1719 0
M  V30 2899 H 282.407 3.97059 3.18154 0
M  V30 2900 H 281.805 1.68946 5.39883 0
M  V30 2901 H 280.362 2.31001 6.09493 0
M  V30 2902 N 283.795 -0.628877 1.44509 0
M  V30 2903 C 284.725 -1.75187 1.54376 0
M  V30 2904 C 285.706 -1.65411 0.396618 0
M  V30 2905 O 286.891 -1.84137 0.617031 0
M  V30 2906 C 284.021 -3.13725 1.48976 0
M  V30 2907 C 282.975 -3.38291 2.62189 0
M  V30 2908 C 282.301 -4.76883 2.41841 0
M  V30 2909 C 283.601 -3.30632 4.04326 0
M  V30 2910 H 285.295 -1.67187 2.48373 0
M  V30 2911 H 282.841 -0.802909 1.19538 0
M  V30 2912 H 284.794 -3.92064 1.54478 0
M  V30 2913 H 283.518 -3.22515 0.514961 0
M  V30 2914 H 282.177 -2.62334 2.56079 0
M  V30 2915 H 281.825 -4.82378 1.42548 0
M  V30 2916 H 281.525 -4.94278 3.17747 0
M  V30 2917 H 283.049 -5.57449 2.49165 0
M  V30 2918 H 284.463 -3.98873 4.11793 0
M  V30 2919 H 282.86 -3.59561 4.80454 0
M  V30 2920 H 283.93 -2.28404 4.27738 0
M  V30 2921 N 285.273 -1.31445 -0.869486 0
M  V30 2922 C 286.52 -1.21158 -1.62256 0
M  V30 2923 C 286.848 0.230155 -1.93133 0
M  V30 2924 O 286.103 1.17906 -1.56194 0
M  V30 2925 C 286.402 -2.00145 -2.96102 0
M  V30 2926 C 286.068 -3.4964 -2.84715 0
M  V30 2927 C 284.73 -3.90403 -2.81317 0
M  V30 2928 C 287.082 -4.44769 -2.71716 0
M  V30 2929 C 284.41 -5.24561 -2.62778 0
M  V30 2930 C 286.762 -5.79054 -2.54714 0
M  V30 2931 C 285.426 -6.19037 -2.49699 0
M  V30 2932 H 284.696 -0.443348 -0.593737 0
M  V30 2933 H 287.343 -1.62715 -1.00976 0
M  V30 2934 H 285.648 -1.5127 -3.6142 0
M  V30 2935 H 287.345 -1.89566 -3.53363 0
M  V30 2936 H 283.935 -3.17256 -2.88178 0
M  V30 2937 H 288.119 -4.14208 -2.73397 0
M  V30 2938 H 283.375 -5.54613 -2.57321 0
M  V30 2939 H 287.549 -6.52393 -2.43632 0
M  V30 2940 H 285.176 -7.22935 -2.35093 0
M  V30 2941 N 286.751 1.08385 -1.14413 0
M  V30 2942 C 287.997 1.81044 -0.913834 0
M  V30 2943 C 288.33 1.86004 0.558209 0
M  V30 2944 O 287.605 1.33606 1.4135 0
M  V30 2945 C 287.888 3.26648 -1.51569 0
M  V30 2946 C 287.741 3.29895 -3.0576 0
M  V30 2947 C 289.06 4.23629 -1.19273 0
M  V30 2948 H 286.179 0.65727 -0.333414 0
M  V30 2949 H 288.821 1.26896 -1.41412 0
M  V30 2950 H 286.971 3.72889 -1.09023 0
M  V30 2951 H 288.643 2.91977 -3.57137 0
M  V30 2952 H 286.886 2.69163 -3.40197 0
M  V30 2953 H 287.557 4.32516 -3.42977 0
M  V30 2954 H 290.033 3.85727 -1.56057 0
M  V30 2955 H 288.909 5.23822 -1.64017 0
M  V30 2956 H 289.17 4.41968 -0.108068 0
M  V30 2957 N 288.23 0.939286 1.26551 0
M  V30 2958 C 289.46 0.601663 1.97645 0
M  V30 2959 C 289.868 -0.827206 1.70159 0
M  V30 2960 O 289.211 -1.56291 0.965338 0
M  V30 2961 C 289.273 0.761725 3.51337 0
M  V30 2962 C 288.937 2.16487 4.0247 0
M  V30 2963 C 289.934 3.14016 4.14355 0
M  V30 2964 C 287.619 2.48494 4.36527 0
M  V30 2965 C 289.613 4.41654 4.59587 0
M  V30 2966 C 287.3 3.76364 4.81449 0
M  V30 2967 C 288.298 4.72758 4.92939 0
M  V30 2968 O 287.986 5.98352 5.36871 0
M  V30 2969 H 287.718 0.225758 0.637189 0
M  V30 2970 H 290.272 1.26178 1.62075 0
M  V30 2971 H 288.502 0.0444808 3.86674 0
M  V30 2972 H 290.191 0.427442 4.03643 0
M  V30 2973 H 290.957 2.90613 3.8829 0
M  V30 2974 H 286.836 1.74202 4.26819 0
M  V30 2975 H 290.38 5.16896 4.68471 0
M  V30 2976 H 286.277 3.99582 5.06956 0
M  V30 2977 H 287.045 6.01507 5.55096 0
M  V30 2978 N 289.708 -1.40897 0.706093 0
M  V30 2979 C 290.956 -2.00657 0.241054 0
M  V30 2980 C 291.277 -1.56241 -1.16678 0
M  V30 2981 O 290.547 -0.79765 -1.78926 0
M  V30 2982 H 289.127 -0.742018 0.0861308 0
M  V30 2983 H 291.789 -1.72372 0.909604 0
M  V30 2984 H 290.885 -3.10958 0.266705 0
M  V30 2985 N 291.186 -0.45159 -1.50991 0
M  V30 2986 C 292.602 -0.104647 -1.59257 0
M  V30 2987 C 292.802 1.38728 -1.4614 0
M  V30 2988 O 291.858 2.15866 -1.30989 0
M  V30 2989 C 293.171 -0.637468 -2.93865 0
M  V30 2990 C 294.719 -0.599166 -3.07212 0
M  V30 2991 C 295.194 -1.1092 -4.44366 0
M  V30 2992 N 296.685 -1.06778 -4.50725 0
M  V30 2993 C 297.42 -1.43314 -5.55201 0
M  V30 2994 N 296.916 -1.87204 -6.67028 0
M  V30 2995 N 298.709 -1.3504 -5.45638 0
M  V30 2996 H 290.86 -1.42214 -1.57762 0
M  V30 2997 H 293.123 -0.586921 -0.744465 0
M  V30 2998 H 292.829 -1.68187 -3.08879 0
M  V30 2999 H 292.703 -0.0702139 -3.77135 0
M  V30 3000 H 295.09 0.436277 -2.91857 0
M  V30 3001 H 295.171 -1.20299 -2.25747 0
M  V30 3002 H 294.815 -2.14318 -4.60467 0
M  V30 3003 H 294.745 -0.481773 -5.24392 0
M  V30 3004 H 297.236 -0.745643 -3.70471 0
M  V30 3005 H 297.549 -2.13282 -7.42786 0
M  V30 3006 H 295.894 -1.91142 -6.68199 0
M  V30 3007 H 299.085 -1.00607 -4.57161 0
M  V30 3008 H 299.258 -1.63841 -6.26945 0
M  V30 3009 N 292.664 1.56529 -0.183458 0
M  V30 3010 C 293.574 2.22144 0.754272 0
M  V30 3011 C 294.59 1.21684 1.24374 0
M  V30 3012 O 295.766 1.54385 1.29333 0
M  V30 3013 C 292.831 2.85884 1.96141 0
M  V30 3014 C 291.892 4.01579 1.51765 0
M  V30 3015 C 291.125 4.6227 2.66725 0
M  V30 3016 O 291.348 4.21865 3.83909 0
M  V30 3017 O 290.282 5.51936 2.40104 0
M  V30 3018 H 294.108 3.02861 0.225527 0
M  V30 3019 H 291.693 1.49331 0.0453032 0
M  V30 3020 H 293.575 3.26253 2.66715 0
M  V30 3021 H 292.25 2.08154 2.47899 0
M  V30 3022 H 291.157 3.65856 0.781049 0
M  V30 3023 H 292.49 4.80938 1.04686 0
M  V30 3024 N 294.142 -0.090211 1.57342 0
M  V30 3025 C 295.052 -1.12735 2.05738 0
M  V30 3026 C 296.068 -1.43557 0.983231 0
M  V30 3027 O 297.244 -1.54101 1.29672 0
M  V30 3028 C 294.309 -2.42659 2.47624 0
M  V30 3029 C 293.37 -2.18975 3.69254 0
M  V30 3030 C 292.603 -3.42704 4.09133 0
M  V30 3031 O 292.826 -4.51127 3.49057 0
M  V30 3032 O 291.76 -3.32003 5.02053 0
M  V30 3033 H 295.586 -0.746279 2.94388 0
M  V30 3034 H 293.171 -0.303064 1.46294 0
M  V30 3035 H 295.053 -3.19155 2.7517 0
M  V30 3036 H 293.728 -2.80182 1.62109 0
M  V30 3037 H 292.635 -1.40244 3.46818 0
M  V30 3038 H 293.968 -1.86342 4.55563 0
M  V30 3039 N 295.62 -1.53406 -0.361157 0
M  V30 3040 C 296.868 -1.69467 -1.10115 0
M  V30 3041 C 297.189 -0.451352 -1.89705 0
M  V30 3042 O 296.459 0.534636 -1.88463 0
M  V30 3043 H 295.039 -0.624749 -0.409508 0
M  V30 3044 H 297.701 -1.90609 -0.406699 0
M  V30 3045 H 296.797 -2.55774 -1.78847 0
M  V30 3046 N 297.098 0.621204 -1.44841 0
M  V30 3047 C 298.046 1.75385 -1.52784 0
M  V30 3048 C 299.04 1.64639 -0.398779 0
M  V30 3049 O 300.246 1.70598 -0.574137 0
M  V30 3050 H 296.621 0.579193 -0.479625 0
M  V30 3051 H 298.592 1.6581 -2.48092 0
M  V30 3052 C 297.341 3.13742 -1.4987 0
M  V30 3053 H 296.664 3.22663 -2.36069 0
M  V30 3054 H 298.104 3.92861 -1.59487 0
M  V30 3055 C 296.563 3.36175 -0.220973 0
M  V30 3056 O 297.093 3.95469 0.704782 0
M  V30 3057 N 295.299 2.90348 -0.120963 0
M  V30 3058 H 294.846 2.42278 -0.875162 0
M  V30 3059 H 294.804 3.05732 0.733168 0
M  V30 3060 N 298.576 1.31904 0.862503 0
M  V30 3061 C 299.853 1.12644 1.59908 0
M  V30 3062 C 300.233 -0.316104 2.0872 0
M  V30 3063 O 299.581 -1.31145 1.87118 0
M  V30 3064 C 299.791 2.1472 2.7513 0
M  V30 3065 C 301.139 2.47637 3.44907 0
M  V30 3066 O 302.163 2.13205 2.85346 0
M  V30 3067 O 301.022 3.06632 4.52371 0
M  V30 3068 H 298.116 0.43416 0.703871 0
M  V30 3069 H 300.662 1.43408 0.907314 0
M  V30 3070 H 299.434 3.1172 2.3653 0
M  V30 3071 H 299.057 1.84905 3.51989 0
M  V30 3072 N 300.054 -1.07777 1.14986 0
M  V30 3073 C 301.282 -1.84018 0.945773 0
M  V30 3074 C 301.697 -1.81897 -0.505863 0
M  V30 3075 O 301.054 -1.22726 -1.35072 0
M  V30 3076 C 301.105 -3.31287 1.44677 0
M  V30 3077 O 300.826 -3.33449 2.84154 0
M  V30 3078 C 302.327 -4.24311 1.28355 0
M  V30 3079 H 299.547 -0.580716 0.336169 0
M  V30 3080 H 302.091 -1.36077 1.52654 0
M  V30 3081 H 300.246 -3.76594 0.908625 0
M  V30 3082 H 300.66 -4.25427 3.06777 0
M  V30 3083 H 302.134 -5.2573 1.68261 0
M  V30 3084 H 302.611 -4.38612 0.227184 0
M  V30 3085 H 303.217 -3.84836 1.81056 0
M  V30 3086 N 301.532 -0.945985 -1.26051 0
M  V30 3087 C 302.948 -0.649045 -1.45807 0
M  V30 3088 C 303.148 0.796158 -1.85104 0
M  V30 3089 O 302.204 1.57233 -1.97571 0
M  V30 3090 C 303.517 -1.61458 -2.53677 0
M  V30 3091 C 305.065 -1.62481 -2.67524 0
M  V30 3092 C 305.54 -2.57776 -3.7857 0
M  V30 3093 N 307.031 -2.5609 -3.85969 0
M  V30 3094 C 307.766 -3.26508 -4.7136 0
M  V30 3095 N 307.262 -4.0637 -5.61102 0
M  V30 3096 N 309.055 -3.15437 -4.65248 0
M  V30 3097 H 301.206 -1.88005 -0.988328 0
M  V30 3098 H 303.469 -0.808198 -0.4955 0
M  V30 3099 H 303.175 -2.64644 -2.31638 0
M  V30 3100 H 303.049 -1.37036 -3.51427 0
M  V30 3101 H 305.436 -0.600167 -2.88933 0
M  V30 3102 H 305.517 -1.90958 -1.70202 0
M  V30 3103 H 305.161 -3.60361 -3.57913 0
M  V30 3104 H 305.091 -2.26587 -4.75359 0
M  V30 3105 H 307.582 -1.98105 -3.21812 0
M  V30 3106 H 307.895 -4.57042 -6.23164 0
M  V30 3107 H 306.24 -4.10469 -5.60839 0
M  V30 3108 H 309.431 -2.52525 -3.94143 0
M  V30 3109 H 309.604 -3.70584 -5.31575 0
M  V30 3110 N 303.011 1.40521 -0.713556 0
M  V30 3111 C 304.422 1.83853 -0.324807 0
M  V30 3112 C 304.773 1.59667 1.14021 0
M  V30 3113 O 303.898 1.07649 1.87725 0
M  V30 3114 C 304.493 3.33751 -0.582746 0
M  V30 3115 C 303.052 3.75584 -0.247727 0
M  V30 3116 C 302.199 2.63753 -0.856121 0
M  V30 3117 H 305.15 1.29817 -0.91286 0
M  V30 3118 H 305.171 3.80194 0.152682 0
M  V30 3119 H 304.683 3.51322 -1.64908 0
M  V30 3120 H 302.784 3.63608 0.813624 0
M  V30 3121 H 302.897 4.7373 -0.715307 0
M  V30 3122 H 301.261 2.53108 -0.28432 0
M  V30 3123 H 302.044 2.84137 -1.92668 0
M  V30 3124 N 304.489 0.459591 1.5075 0
M  V30 3125 C 305.714 -0.0996819 2.0716 0
M  V30 3126 C 306.139 -1.33761 1.32249 0
M  V30 3127 O 305.497 -1.77551 0.366786 0
M  V30 3128 C 305.545 -0.378226 3.58611 0
M  V30 3129 O 304.649 -1.46081 3.85661 0
M  V30 3130 H 303.99 0.00791392 0.663953 0
M  V30 3131 H 306.52 0.647329 1.9409 0
M  V30 3132 H 306.53 -0.622135 4.03229 0
M  V30 3133 H 305.205 0.526439 4.12555 0
M  V30 3134 H 303.782 -1.20511 3.5289 0
M  V30 3135 N 305.967 -1.56429 0.191757 0
M  V30 3136 C 307.383 -1.58754 -0.164137 0
M  V30 3137 C 307.583 -1.20782 -1.61288 0
M  V30 3138 O 306.639 -0.928999 -2.34789 0
M  V30 3139 C 307.952 -3.00396 0.135195 0
M  V30 3140 C 309.5 -3.1291 0.0750351 0
M  V30 3141 C 309.975 -4.56679 0.347632 0
M  V30 3142 N 311.466 -4.62252 0.296131 0
M  V30 3143 C 312.201 -5.71379 0.480948 0
M  V30 3144 N 311.697 -6.88986 0.725933 0
M  V30 3145 N 313.49 -5.60563 0.415435 0
M  V30 3146 H 305.641 -1.79393 1.13718 0
M  V30 3147 H 307.904 -0.832414 0.453643 0
M  V30 3148 H 307.61 -3.32726 1.13958 0
M  V30 3149 H 307.484 -3.72963 -0.563773 0
M  V30 3150 H 309.871 -2.80394 -0.919948 0
M  V30 3151 H 309.952 -2.42736 0.807029 0
M  V30 3152 H 309.596 -4.89907 1.33992 0
M  V30 3153 H 309.526 -5.25039 -0.405212 0
M  V30 3154 H 312.017 -3.7773 0.113259 0
M  V30 3155 H 312.33 -7.68046 0.855857 0
M  V30 3156 H 310.675 -6.90801 0.762788 0
M  V30 3157 H 313.866 -4.67561 0.224486 0
M  V30 3158 H 314.039 -6.45551 0.562889 0
M  V30 3159 N 307.445 0.0818655 -1.57387 0
M  V30 3160 C 308.675 0.794954 -1.90694 0
M  V30 3161 C 309.083 1.72147 -0.784982 0
M  V30 3162 O 308.426 1.81974 0.251196 0
M  V30 3163 C 308.488 1.65042 -3.19376 0
M  V30 3164 C 308.152 0.894337 -4.48164 0
M  V30 3165 C 309.149 0.21813 -5.19442 0
M  V30 3166 C 306.834 0.864495 -4.94805 0
M  V30 3167 C 308.828 -0.477802 -6.35607 0
M  V30 3168 C 306.515 0.164785 -6.10878 0
M  V30 3169 C 307.513 -0.505173 -6.81129 0
M  V30 3170 O 307.201 -1.19363 -7.94989 0
M  V30 3171 H 306.933 0.231779 -0.635023 0
M  V30 3172 H 309.487 0.059493 -2.05314 0
M  V30 3173 H 307.717 2.42844 -3.00938 0
M  V30 3174 H 309.406 2.24127 -3.38411 0
M  V30 3175 H 310.172 0.232558 -4.84442 0
M  V30 3176 H 306.051 1.37542 -4.40004 0
M  V30 3177 H 309.595 -1.00129 -6.90377 0
M  V30 3178 H 305.492 0.148249 -6.4533 0
M  V30 3179 H 306.26 -1.10188 -8.11049 0
M  V30 3180 N 308.923 1.53595 0.353017 0
M  V30 3181 C 310.334 1.61937 0.929153 0
M  V30 3182 C 310.685 0.494686 1.89861 0
M  V30 3183 O 309.81 -0.377017 2.1309 0
M  V30 3184 C 310.405 2.93526 1.69199 0
M  V30 3185 C 308.964 3.04161 2.21727 0
M  V30 3186 C 308.111 2.57322 1.03348 0
M  V30 3187 H 311.062 1.58155 0.131431 0
M  V30 3188 H 311.083 2.82034 2.55416 0
M  V30 3189 H 310.595 3.75362 0.986144 0
M  V30 3190 H 308.696 2.26938 2.95516 0
M  V30 3191 H 308.809 4.09465 2.48748 0
M  V30 3192 H 307.173 2.12499 1.40414 0
M  V30 3193 H 307.956 3.41588 0.342428 0
M  V30 3194 N 310.401 -0.613514 1.45168 0
M  V30 3195 C 311.364 -1.7065 1.53007 0
M  V30 3196 C 312.364 -1.5548 0.410184 0
M  V30 3197 O 313.554 -1.60656 0.673455 0
M  V30 3198 C 310.686 -3.09875 1.42093 0
M  V30 3199 H 311.879 -1.65068 2.50385 0
M  V30 3200 H 309.432 -0.828728 1.32521 0
M  V30 3201 H 310.167 -3.21039 0.458769 0
M  V30 3202 H 309.952 -3.22293 2.23315 0
M  V30 3203 H 311.442 -3.895 1.50598 0
M  V30 3204 N 311.879 -1.3236 -0.855495 0
M  V30 3205 C 313.295 -1.11332 -1.14356 0
M  V30 3206 C 313.495 0.106751 -2.01217 0
M  V30 3207 O 312.551 0.791891 -2.39761 0
M  V30 3208 C 313.864 -2.39237 -1.82171 0
M  V30 3209 C 315.412 -2.44986 -1.9481 0
M  V30 3210 C 315.887 -3.7281 -2.66039 0
M  V30 3211 N 317.378 -3.73787 -2.73565 0
M  V30 3212 C 318.113 -4.69394 -3.29327 0
M  V30 3213 N 317.609 -5.75367 -3.85907 0
M  V30 3214 N 319.402 -4.56893 -3.27423 0
M  V30 3215 H 311.553 -2.10586 -0.277027 0
M  V30 3216 H 313.816 -0.929701 -0.185364 0
M  V30 3217 H 313.522 -3.28431 -1.25802 0
M  V30 3218 H 313.396 -2.50134 -2.82335 0
M  V30 3219 H 315.783 -1.56252 -2.50338 0
M  V30 3220 H 315.864 -2.38043 -0.936448 0
M  V30 3221 H 315.508 -4.61918 -2.11174 0
M  V30 3222 H 315.438 -3.77024 -3.67642 0
M  V30 3223 H 317.929 -2.97189 -2.33424 0
M  V30 3224 H 318.242 -6.44378 -4.26611 0
M  V30 3225 H 316.587 -5.79123 -3.84242 0
M  V30 3226 H 319.778 -3.73269 -2.82467 0
M  V30 3227 H 319.951 -5.31577 -3.7058 0
M  V30 3228 N 313.357 1.07166 -1.15556 0
M  V30 3229 C 314.289 2.14341 -0.811815 0
M  V30 3230 C 315.302 1.61835 0.177015 0
M  V30 3231 O 316.491 1.78439 -0.0464996 0
M  V30 3232 C 313.591 3.38387 -0.186481 0
M  V30 3233 C 312.764 4.20238 -1.21321 0
M  V30 3234 C 311.823 5.2266 -0.609302 0
M  V30 3235 O 310.849 5.54719 -1.27576 0
M  V30 3236 N 312.051 5.77306 0.608099 0
M  V30 3237 H 314.816 2.44431 -1.73417 0
M  V30 3238 H 312.377 1.23089 -1.0517 0
M  V30 3239 H 314.369 4.04044 0.230339 0
M  V30 3240 H 312.939 3.05994 0.639249 0
M  V30 3241 H 312.159 3.50369 -1.80652 0
M  V30 3242 H 313.447 4.71736 -1.90638 0
M  V30 3243 H 312.845 5.53513 1.1679 0
M  V30 3244 H 311.402 6.44583 0.96725 0
M  V30 3245 N 314.835 0.952656 1.25548 0
M  V30 3246 C 316.063 0.623496 1.97282 0
M  V30 3247 C 316.478 -0.803987 1.70826 0
M  V30 3248 O 315.835 -1.53755 0.983147 0
M  V30 3249 C 315.886 0.870209 3.5087 0
M  V30 3250 O 315.607 2.24156 3.76412 0
M  V30 3251 C 317.108 0.553164 4.39835 0
M  V30 3252 H 314.328 0.233931 0.628902 0
M  V30 3253 H 316.872 1.27649 1.59768 0
M  V30 3254 H 315.027 0.263652 3.86502 0
M  V30 3255 H 315.441 2.31021 4.70882 0
M  V30 3256 H 316.915 0.776342 5.46513 0
M  V30 3257 H 317.392 -0.512215 4.36203 0
M  V30 3258 H 317.998 1.13896 4.09766 0
M  V30 3259 N 316.313 -1.40141 0.720998 0
M  V30 3260 C 317.729 -1.54632 0.395113 0
M  V30 3261 C 317.929 -1.69115 -1.09555 0
M  V30 3262 O 316.985 -1.68377 -1.88163 0
M  V30 3263 C 318.298 -2.77177 1.1659 0
M  V30 3264 C 319.846 -2.91 1.15274 0
M  V30 3265 C 320.321 -4.16465 1.90579 0
M  V30 3266 N 321.812 -4.23476 1.87675 0
M  V30 3267 C 322.547 -5.19475 2.42762 0
M  V30 3268 N 322.043 -6.21348 3.06428 0
M  V30 3269 N 323.836 -5.11592 2.32874 0
M  V30 3270 H 315.987 -1.28986 1.68749 0
M  V30 3271 H 318.25 -0.62412 0.713567 0
M  V30 3272 H 317.956 -2.72771 2.22011 0
M  V30 3273 H 317.83 -3.69442 0.76108 0
M  V30 3274 H 320.217 -2.94907 0.106702 0
M  V30 3275 H 320.298 -1.99838 1.59682 0
M  V30 3276 H 319.942 -4.1332 2.95176 0
M  V30 3277 H 319.872 -5.06646 1.43587 0
M  V30 3278 H 322.363 -3.50497 1.41281 0
M  V30 3279 H 322.676 -6.91034 3.45965 0
M  V30 3280 H 321.021 -6.21777 3.10514 0
M  V30 3281 H 324.212 -4.30936 1.82789 0
M  V30 3282 H 324.385 -5.86233 2.76106 0
M  V30 3283 N 317.792 -0.46758 -1.50504 0
M  V30 3284 C 318.702 0.33382 -2.32213 0
M  V30 3285 C 319.718 0.999323 -1.42441 0
M  V30 3286 O 320.894 0.988068 -1.75497 0
M  V30 3287 C 317.959 1.4035 -3.17022 0
M  V30 3288 C 317.02 0.754961 -4.2261 0
M  V30 3289 C 316.253 1.77367 -5.03365 0
M  V30 3290 O 316.476 2.99976 -4.8515 0
M  V30 3291 O 315.41 1.34744 -5.86624 0
M  V30 3292 H 319.236 -0.334067 -3.01857 0
M  V30 3293 H 316.821 -0.229496 -1.47627 0
M  V30 3294 H 318.703 2.02318 -3.69656 0
M  V30 3295 H 317.378 2.05492 -2.5011 0
M  V30 3296 H 316.285 0.0964244 -3.73976 0
M  V30 3297 H 317.618 0.146545 -4.91982 0
M  V30 3298 N 319.27 1.56325 -0.20005 0
M  V30 3299 C 320.233 2.18084 0.705132 0
M  V30 3300 C 321.233 1.13666 1.1374 0
M  V30 3301 O 322.423 1.39023 1.04968 0
M  V30 3302 C 319.555 2.78689 1.96329 0
M  V30 3303 H 320.748 2.99435 0.167023 0
M  V30 3304 H 318.301 1.56221 0.0495725 0
M  V30 3305 H 319.036 2.0115 2.5438 0
M  V30 3306 H 318.821 3.55133 1.66202 0
M  V30 3307 H 320.311 3.26096 2.60866 0
M  V30 3308 N 320.748 -0.0735177 1.57428 0
M  V30 3309 C 321.973 -0.789787 1.91774 0
M  V30 3310 C 322.398 -1.70413 0.796306 0
M  V30 3311 O 321.756 -1.79555 -0.250961 0
M  V30 3312 C 321.804 -1.5609 3.25067 0
M  V30 3313 O 320.908 -2.67144 3.14178 0
M  V30 3314 H 320.249 -0.215582 0.628029 0
M  V30 3315 H 322.779 -0.0422781 2.04556 0
M  V30 3316 H 322.789 -1.94052 3.58898 0
M  V30 3317 H 321.464 -0.890015 4.06265 0
M  V30 3318 H 320.041 -2.32052 2.91901 0
M  V30 3319 N 322.226 -1.5378 -0.344866 0
M  V30 3320 C 323.136 -1.84667 -1.4469 0
M  V30 3321 C 324.152 -0.736704 -1.57635 0
M  V30 3322 O 325.328 -1.02888 -1.73136 0
M  V30 3323 C 322.393 -2.04869 -2.79696 0
M  V30 3324 C 321.454 -3.28731 -2.76106 0
M  V30 3325 C 320.687 -3.4796 -4.04673 0
M  V30 3326 O 320.91 -2.71052 -5.01883 0
M  V30 3327 O 319.844 -4.41383 -4.09224 0
M  V30 3328 H 323.67 -2.78334 -1.21506 0
M  V30 3329 H 321.255 -1.39418 -0.536921 0
M  V30 3330 H 323.137 -2.19609 -3.59652 0
M  V30 3331 H 321.812 -1.14391 -3.02814 0
M  V30 3332 H 320.719 -3.19396 -1.94774 0
M  V30 3333 H 322.052 -4.19198 -2.57941 0
M  V30 3334 N 323.704 0.605807 -1.45491 0
M  V30 3335 C 324.667 1.69836 -1.5391 0
M  V30 3336 C 325.667 1.55261 -0.418424 0
M  V30 3337 O 326.857 1.60296 -0.681965 0
M  V30 3338 C 323.989 3.09117 -1.43734 0
M  V30 3339 H 325.182 1.63738 -2.51257 0
M  V30 3340 H 322.735 0.821689 -1.32959 0
M  V30 3341 H 323.47 3.20791 -0.475788 0
M  V30 3342 H 323.255 3.21104 -2.25021 0
M  V30 3343 H 324.745 3.88696 -1.52661 0
M  V30 3344 N 325.182 1.32811 0.848464 0
M  V30 3345 C 326.428 1.23907 1.60546 0
M  V30 3346 C 326.761 -0.197161 1.93197 0
M  V30 3347 O 326.036 -1.13596 1.5788 0
M  V30 3348 C 326.319 2.10489 2.92175 0
M  V30 3349 C 326.172 3.62522 2.66266 0
M  V30 3350 C 327.491 1.97075 3.93509 0
M  V30 3351 H 324.61 0.451459 0.58254 0
M  V30 3352 H 327.252 1.62818 0.979296 0
M  V30 3353 H 325.402 1.77434 3.45614 0
M  V30 3354 H 327.074 4.05821 2.19334 0
M  V30 3355 H 325.317 3.84879 2.00126 0
M  V30 3356 H 325.988 4.18437 3.6002 0
M  V30 3357 H 328.464 2.26045 3.49346 0
M  V30 3358 H 327.34 2.59923 4.83457 0
M  V30 3359 H 327.601 0.940186 4.31987 0
M  V30 3360 N 326.66 -1.06551 1.16123 0
M  V30 3361 C 327.623 -2.12132 0.867906 0
M  V30 3362 C 328.623 -1.60224 -0.135944 0
M  V30 3363 O 329.813 -1.73943 0.0946422 0
M  V30 3364 C 326.945 -3.396 0.297419 0
M  V30 3365 H 328.138 -2.39586 1.80385 0
M  V30 3366 H 325.691 -1.22574 0.969812 0
M  V30 3367 H 326.426 -3.17794 -0.64633 0
M  V30 3368 H 326.211 -3.78581 1.02073 0
M  V30 3369 H 327.701 -4.17455 0.110052 0
M  V30 3370 N 328.138 -0.959301 -1.25041 0
M  V30 3371 C 329.554 -0.664474 -1.4511 0
M  V30 3372 C 329.754 0.776481 -1.85938 0
M  V30 3373 O 328.81 1.55128 -1.99227 0
M  V30 3374 C 330.123 -1.64139 -2.5195 0
M  V30 3375 C 331.671 -1.65309 -2.65786 0
M  V30 3376 C 332.146 -2.61777 -3.75815 0
M  V30 3377 N 333.637 -2.60169 -3.83231 0
M  V30 3378 C 334.372 -3.31489 -4.6787 0
M  V30 3379 N 333.868 -4.12298 -5.56761 0
M  V30 3380 N 335.661 -3.20354 -4.61876 0
M  V30 3381 H 327.812 -1.89043 -0.968332 0
M  V30 3382 H 330.075 -0.813408 -0.4869 0
M  V30 3383 H 329.781 -2.67086 -2.28819 0
M  V30 3384 H 329.655 -1.40756 -3.49954 0
M  V30 3385 H 332.042 -0.630778 -2.8828 0
M  V30 3386 H 332.123 -1.92753 -1.68167 0
M  V30 3387 H 331.767 -3.64137 -3.54071 0
M  V30 3388 H 331.697 -2.31616 -4.72929 0
M  V30 3389 H 334.188 -2.01507 -3.19692 0
M  V30 3390 H 334.501 -4.63625 -6.18281 0
M  V30 3391 H 332.846 -4.16395 -5.56454 0
M  V30 3392 H 336.037 -2.56692 -3.91442 0
M  V30 3393 H 336.21 -3.76201 -5.27614 0
M  V30 3394 N 329.616 1.39756 -0.72842 0
M  V30 3395 C 330.546 2.33289 -0.0991354 0
M  V30 3396 C 331.527 1.53568 0.731489 0
M  V30 3397 O 332.712 1.81987 0.677807 0
M  V30 3398 C 329.842 3.3763 0.813834 0
M  V30 3399 C 328.796 4.2791 0.0878663 0
M  V30 3400 C 328.122 5.22894 1.11741 0
M  V30 3401 C 329.422 5.11314 -1.06563 0
M  V30 3402 H 331.116 2.86163 -0.880408 0
M  V30 3403 H 328.662 1.37591 -0.424819 0
M  V30 3404 H 330.615 4.0201 1.26355 0
M  V30 3405 H 329.339 2.83181 1.62715 0
M  V30 3406 H 327.998 3.65 -0.342159 0
M  V30 3407 H 327.646 4.64744 1.92412 0
M  V30 3408 H 327.346 5.84143 0.636477 0
M  V30 3409 H 328.87 5.90151 1.56697 0
M  V30 3410 H 330.284 5.69076 -0.694671 0
M  V30 3411 H 328.681 5.81671 -1.47577 0
M  V30 3412 H 329.751 4.46534 -1.89038 0
M  V30 3413 N 331.094 0.475555 1.50254 0
M  V30 3414 C 332.042 -0.330276 2.30243 0
M  V30 3415 C 333.036 -0.986306 1.37726 0
M  V30 3416 O 334.242 -0.9169 1.54897 0
M  V30 3417 H 330.617 -0.125353 0.741479 0
M  V30 3418 H 332.588 0.364702 2.96163 0
M  V30 3419 C 331.337 -1.39704 3.18399 0
M  V30 3420 H 330.66 -0.901621 3.89501 0
M  V30 3421 H 332.1 -1.93336 3.77355 0
M  V30 3422 C 330.559 -2.4014 2.36293 0
M  V30 3423 O 331.089 -3.45504 2.04914 0
M  V30 3424 N 329.295 -2.1197 1.98789 0
M  V30 3425 H 328.842 -1.2631 2.24507 0
M  V30 3426 H 328.8 -2.79403 1.44157 0
M  V30 3427 N 332.573 -1.56217 0.208337 0
M  V30 3428 C 333.505 -2.1695 -0.739276 0
M  V30 3429 C 334.518 -1.13492 -1.1672 0
M  V30 3430 O 335.707 -1.40529 -1.10063 0
M  V30 3431 C 332.807 -2.72755 -2.01142 0
M  V30 3432 C 331.98 -4.0125 -1.74118 0
M  V30 3433 C 331.039 -4.41749 -2.85909 0
M  V30 3434 O 330.065 -5.08912 -2.54946 0
M  V30 3435 N 331.267 -4.06342 -4.14568 0
M  V30 3436 H 334.032 -2.98893 -0.219837 0
M  V30 3437 H 331.593 -1.61878 0.0268445 0
M  V30 3438 H 333.585 -2.96826 -2.75094 0
M  V30 3439 H 332.155 -1.95191 -2.4417 0
M  V30 3440 H 331.375 -3.85173 -0.838775 0
M  V30 3441 H 332.663 -4.851 -1.53477 0
M  V30 3442 H 332.061 -3.52345 -4.42571 0
M  V30 3443 H 330.618 -4.35335 -4.85105 0
M  V30 3444 N 334.051 0.0651679 -1.57465 0
M  V30 3445 C 335.297 0.764193 -1.87851 0
M  V30 3446 C 335.63 1.76889 -0.801495 0
M  V30 3447 O 334.905 1.93594 0.187528 0
M  V30 3448 C 335.188 1.46625 -3.28897 0
M  V30 3449 C 335.041 0.477515 -4.47258 0
M  V30 3450 C 336.36 2.4095 -3.68281 0
M  V30 3451 H 333.479 0.276351 -0.683227 0
M  V30 3452 H 336.121 0.0272868 -1.8998 0
M  V30 3453 H 334.271 2.09438 -3.27212 0
M  V30 3454 H 335.943 -0.145922 -4.61069 0
M  V30 3455 H 334.186 -0.206576 -4.33308 0
M  V30 3456 H 334.857 1.0065 -5.42746 0
M  V30 3457 H 337.333 1.88209 -3.71102 0
M  V30 3458 H 336.209 2.87072 -4.67847 0
M  V30 3459 H 336.47 3.26049 -2.98571 0
M  V30 3460 N 335.529 1.53961 0.336706 0
M  V30 3461 C 336.477 1.83136 1.43401 0
M  V30 3462 C 337.471 0.702313 1.54156 0
M  V30 3463 O 338.677 0.885765 1.56698 0
M  V30 3464 H 335.052 0.580309 0.478273 0
M  V30 3465 H 337.023 2.74925 1.16012 0
M  V30 3466 C 335.772 2.06385 2.79822 0
M  V30 3467 H 335.095 2.92718 2.72316 0
M  V30 3468 H 336.535 2.30761 3.55704 0
M  V30 3469 C 334.994 0.851414 3.25964 0
M  V30 3470 O 335.524 0.0541904 4.01663 0
M  V30 3471 N 333.73 0.66672 2.82848 0
M  V30 3472 H 333.277 1.31665 2.21409 0
M  V30 3473 H 333.235 -0.143032 3.14074 0
M  V30 3474 N 337.007 -0.598083 1.45811 0
M  V30 3475 C 338.418 -1.18011 1.44673 0
M  V30 3476 C 338.769 -1.95378 0.179364 0
M  V30 3477 O 337.894 -2.04124 -0.718509 0
M  V30 3478 C 338.489 -2.14677 2.62105 0
M  V30 3479 C 337.048 -2.68236 2.64057 0
M  V30 3480 C 336.195 -1.43816 2.37091 0
M  V30 3481 H 339.146 -0.38686 1.53913 0
M  V30 3482 H 339.167 -2.97878 2.36746 0
M  V30 3483 H 338.679 -1.5834 3.5433 0
M  V30 3484 H 336.78 -3.28486 1.75864 0
M  V30 3485 H 336.893 -3.12021 3.63566 0
M  V30 3486 H 335.257 -1.731 1.86838 0
M  V30 3487 H 336.04 -0.893333 3.31473 0
M  V30 3488 N 338.485 -1.33259 -0.841409 0
M  V30 3489 C 339.417 -1.19136 -1.95804 0
M  V30 3490 C 340.43 -0.122965 -1.62335 0
M  V30 3491 O 341.619 -0.373154 -1.74556 0
M  V30 3492 C 338.719 -0.804268 -3.29218 0
M  V30 3493 C 337.892 -1.96376 -3.90839 0
M  V30 3494 C 336.951 -1.55806 -5.02604 0
M  V30 3495 O 335.977 -2.27203 -5.21888 0
M  V30 3496 N 337.179 -0.461609 -5.78662 0
M  V30 3497 H 339.944 -2.15326 -2.08458 0
M  V30 3498 H 337.505 -1.25971 -1.017 0
M  V30 3499 H 339.497 -0.51501 -4.0141 0
M  V30 3500 H 338.067 0.0668809 -3.12528 0
M  V30 3501 H 337.287 -2.41879 -3.11269 0
M  V30 3502 H 338.575 -2.73966 -4.28742 0
M  V30 3503 H 337.973 0.132343 -5.65545 0
M  V30 3504 H 336.53 -0.232013 -6.51387 0
M  V30 3505 N 339.963 1.05934 -1.16686 0
M  V30 3506 C 340.895 2.13468 -0.834503 0
M  V30 3507 C 341.908 1.62013 0.15984 0
M  V30 3508 O 343.097 1.7838 -0.0654228 0
M  V30 3509 C 340.197 3.3817 -0.222361 0
M  V30 3510 C 339.37 4.18928 -1.25771 0
M  V30 3511 C 338.429 5.21985 -0.664703 0
M  V30 3512 O 337.455 5.53334 -1.33453 0
M  V30 3513 N 338.657 5.77919 0.546834 0
M  V30 3514 H 341.422 2.42578 -1.75999 0
M  V30 3515 H 338.983 1.21967 -1.06469 0
M  V30 3516 H 340.975 4.04266 0.187472 0
M  V30 3517 H 339.545 3.06655 0.606758 0
M  V30 3518 H 338.765 3.48433 -1.84358 0
M  V30 3519 H 340.053 4.69687 -1.95631 0
M  V30 3520 H 339.451 5.54721 1.10912 0
M  V30 3521 H 338.008 6.45573 0.898829 0
M  V30 3522 N 341.441 0.965919 1.2453 0
M  V30 3523 C 342.687 0.62776 1.92839 0
M  V30 3524 C 343.02 -0.834694 1.75347 0
M  V30 3525 O 342.295 -1.60031 1.10546 0
M  V30 3526 C 342.578 1.00109 3.45905 0
M  V30 3527 C 342.431 2.52011 3.72573 0
M  V30 3528 C 343.75 0.53435 4.36844 0
M  V30 3529 H 340.869 0.229537 0.700344 0
M  V30 3530 H 343.511 1.2046 1.46933 0
M  V30 3531 H 341.661 0.510238 3.85135 0
M  V30 3532 H 343.333 3.08559 3.42912 0
M  V30 3533 H 341.576 2.95287 3.17786 0
M  V30 3534 H 342.247 2.73183 4.79661 0
M  V30 3535 H 344.723 0.955565 4.04979 0
M  V30 3536 H 343.599 0.824152 5.42678 0
M  V30 3537 H 343.86 -0.565589 4.38467 0
M  V30 3538 N 342.919 -1.39368 0.735821 0
M  V30 3539 C 344.168 -1.99733 0.281004 0
M  V30 3540 C 344.481 -1.59055 -1.13846 0
M  V30 3541 O 345.687 -2.12262 -1.69284 0
M  V30 3542 C 344.143 -3.57057 0.451462 0
M  V30 3543 C 343.751 -4.06697 1.87886 0
M  V30 3544 C 345.495 -4.2446 0.0584616 0
M  V30 3545 C 343.402 -5.56598 1.99883 0
M  V30 3546 H 342.332 -0.747163 0.101311 0
M  V30 3547 H 344.983 -1.59357 0.909819 0
M  V30 3548 H 343.365 -3.95234 -0.246263 0
M  V30 3549 H 344.539 -3.79853 2.60861 0
M  V30 3550 H 342.854 -3.5196 2.22515 0
M  V30 3551 H 345.451 -5.34549 0.127099 0
M  V30 3552 H 345.794 -4.04444 -0.986433 0
M  V30 3553 H 346.327 -3.9146 0.707374 0
M  V30 3554 H 343.066 -5.81494 3.02564 0
M  V30 3555 H 342.586 -5.85242 1.31346 0
M  V30 3556 H 344.265 -6.22022 1.78039 0
M  V30 3557 N 344.397 -0.483516 -1.5 0
M  V30 3558 C 345.644 0.0671597 -2.02389 0
M  V30 3559 C 345.972 1.38597 -1.36459 0
M  V30 3560 O 345.227 1.89634 -0.483458 0
M  V30 3561 C 345.526 0.286226 -3.56252 0
M  V30 3562 C 345.192 -0.952416 -4.40726 0
M  V30 3563 C 343.854 -1.29199 -4.63531 0
M  V30 3564 C 346.206 -1.77655 -4.89988 0
M  V30 3565 C 343.534 -2.45553 -5.32842 0
M  V30 3566 C 345.886 -2.93147 -5.60578 0
M  V30 3567 C 344.55 -3.27505 -5.81633 0
M  V30 3568 H 343.82 0.0245755 -0.740592 0
M  V30 3569 H 346.467 -0.640124 -1.80485 0
M  V30 3570 H 344.772 1.07587 -3.76739 0
M  V30 3571 H 346.469 0.726473 -3.94365 0
M  V30 3572 H 343.059 -0.677881 -4.23205 0
M  V30 3573 H 347.243 -1.52737 -4.72213 0
M  V30 3574 H 342.499 -2.72431 -5.47349 0
M  V30 3575 H 346.673 -3.57344 -5.97727 0
M  V30 3576 H 344.3 -4.1777 -6.35116 0
M  V30 3577 N 345.875 1.56104 -0.216619 0
M  V30 3578 C 346.838 2.18819 0.681962 0
M  V30 3579 C 347.838 1.14866 1.12528 0
M  V30 3580 O 349.028 1.40128 1.03488 0
M  V30 3581 C 346.16 2.80756 1.93362 0
M  V30 3582 H 347.353 2.99595 0.135254 0
M  V30 3583 H 344.906 1.56265 0.0330003 0
M  V30 3584 H 345.641 2.03837 2.52232 0
M  V30 3585 H 345.426 3.56876 1.62426 0
M  V30 3586 H 346.916 3.28844 2.57393 0
M  V30 3587 N 347.353 -0.0568162 1.57498 0
M  V30 3588 C 348.285 -1.09292 2.01464 0
M  V30 3589 C 349.298 -1.34112 0.922913 0
M  V30 3590 O 350.487 -1.32089 1.20062 0
M  V30 3591 C 347.587 -2.44068 2.35125 0
M  V30 3592 C 346.76 -2.38995 3.66333 0
M  V30 3593 C 345.819 -3.55997 3.87495 0
M  V30 3594 O 344.845 -3.36746 4.58901 0
M  V30 3595 N 346.047 -4.76888 3.30996 0
M  V30 3596 H 348.812 -0.718386 2.90963 0
M  V30 3597 H 346.373 -0.245235 1.60032 0
M  V30 3598 H 348.365 -3.21011 2.46443 0
M  V30 3599 H 346.935 -2.73468 1.5144 0
M  V30 3600 H 346.155 -1.47336 3.65631 0
M  V30 3601 H 347.443 -2.3272 4.52458 0
M  V30 3602 H 346.841 -4.95431 2.73065 0
M  V30 3603 H 345.398 -5.51291 3.47738 0
M  V30 3604 N 348.832 -1.54138 -0.328536 0
M  V30 3605 C 349.764 -1.79509 -1.4251 0
M  V30 3606 C 350.777 -0.67688 -1.48061 0
M  V30 3607 O 351.966 -0.953898 -1.50874 0
M  V30 3608 C 349.066 -1.89337 -2.81078 0
M  V30 3609 C 348.239 -3.19443 -2.98789 0
M  V30 3610 C 347.298 -3.20036 -4.17688 0
M  V30 3611 O 346.324 -3.93697 -4.11086 0
M  V30 3612 N 347.526 -2.43467 -5.26976 0
M  V30 3613 H 350.291 -2.74139 -1.21111 0
M  V30 3614 H 347.852 -1.53373 -0.518499 0
M  V30 3615 H 349.844 -1.87167 -3.58818 0
M  V30 3616 H 348.414 -1.01826 -2.95551 0
M  V30 3617 H 347.634 -3.34614 -2.08391 0
M  V30 3618 H 348.922 -4.05354 -3.07515 0
M  V30 3619 H 348.32 -1.83201 -5.35214 0
M  V30 3620 H 346.877 -2.4708 -6.03154 0
M  V30 3621 N 350.31 0.590341 -1.46126 0
M  V30 3622 C 351.258 1.72105 -1.5647 0
M  V30 3623 C 352.252 1.63756 -0.433612 0
M  V30 3624 O 353.458 1.69342 -0.610194 0
M  V30 3625 H 349.833 0.568889 -0.491802 0
M  V30 3626 H 351.804 1.6051 -2.51553 0
M  V30 3627 C 350.553 3.10493 -1.56491 0
M  V30 3628 H 349.876 3.17583 -2.4286 0
M  V30 3629 H 351.316 3.8939 -1.67785 0
M  V30 3630 C 349.775 3.3563 -0.292231 0
M  V30 3631 O 350.305 3.96875 0.620739 0
M  V30 3632 N 348.511 2.90026 -0.182523 0
M  V30 3633 H 348.058 2.40367 -0.926356 0
M  V30 3634 H 348.016 3.07218 0.668152 0
M  V30 3635 N 351.788 1.33704 0.83433 0
M  V30 3636 C 353.199 1.22813 1.4062 0
M  V30 3637 C 353.55 -0.151107 1.95617 0
M  V30 3638 O 352.675 -1.05092 1.89168 0
M  V30 3639 C 353.27 2.22355 2.55624 0
M  V30 3640 C 351.829 2.1529 3.08751 0
M  V30 3641 C 350.976 2.09589 1.8157 0
M  V30 3642 H 353.927 1.45236 0.639702 0
M  V30 3643 H 353.948 1.83391 3.33389 0
M  V30 3644 H 353.46 3.22728 2.15566 0
M  V30 3645 H 351.561 1.18235 3.53343 0
M  V30 3646 H 351.674 3.06038 3.68616 0
M  V30 3647 H 350.038 1.55134 2.02004 0
M  V30 3648 H 350.821 3.11777 1.43701 0
M  V30 3649 N 353.266 -1.05314 1.17247 0
M  V30 3650 C 354.543 -1.75184 0.87005 0
M  V30 3651 C 354.923 -2.01481 -0.629965 0
M  V30 3652 O 354.271 -1.64988 -1.58086 0
M  V30 3653 C 354.481 -3.04594 1.70363 0
M  V30 3654 C 355.829 -3.78567 1.92281 0
M  V30 3655 O 356.853 -3.14461 1.67311 0
M  V30 3656 O 355.712 -4.93755 2.3424 0
M  V30 3657 H 352.806 -0.761729 0.322021 0
M  V30 3658 H 355.352 -1.11493 1.27935 0
M  V30 3659 H 354.124 -2.81201 2.72106 0
M  V30 3660 H 353.747 -3.76022 1.29202 0
M  V30 3661 N 354.744 -0.972509 -1.24016 0
M  V30 3662 C 355.99 -0.637978 -1.92504 0
M  V30 3663 C 356.323 0.825383 -1.75787 0
M  V30 3664 O 355.598 1.59442 -1.11393 0
M  V30 3665 C 355.881 -1.01942 -3.45369 0
M  V30 3666 C 355.734 -2.53983 -3.71231 0
M  V30 3667 C 357.053 -0.55751 -4.36555 0
M  V30 3668 H 354.172 -0.233248 -0.699117 0
M  V30 3669 H 356.814 -1.21238 -1.46292 0
M  V30 3670 H 354.964 -0.530656 -3.84859 0
M  V30 3671 H 356.636 -3.10374 -3.41271 0
M  V30 3672 H 354.879 -2.96968 -3.16216 0
M  V30 3673 H 355.55 -2.75723 -4.78206 0
M  V30 3674 H 358.026 -0.977029 -4.04467 0
M  V30 3675 H 356.902 -0.85292 -5.42233 0
M  V30 3676 H 357.163 0.542328 -4.38761 0
M  V30 3677 N 356.222 1.38976 -0.743202 0
M  V30 3678 C 357.471 1.99581 -0.291592 0
M  V30 3679 C 357.784 1.59656 1.13001 0
M  V30 3680 O 358.99 2.13157 1.68156 0
M  V30 3681 C 357.446 3.56813 -0.470391 0
M  V30 3682 C 357.054 4.05695 -1.90041 0
M  V30 3683 C 358.798 4.24423 -0.0809709 0
M  V30 3684 C 356.705 5.5553 -2.02832 0
M  V30 3685 H 355.635 0.746615 -0.105272 0
M  V30 3686 H 358.286 1.58872 -0.918258 0
M  V30 3687 H 356.668 3.95359 0.225299 0
M  V30 3688 H 357.842 3.78464 -2.62872 0
M  V30 3689 H 356.157 3.50775 -2.24379 0
M  V30 3690 H 358.754 5.34474 -0.155445 0
M  V30 3691 H 359.097 4.04962 0.96497 0
M  V30 3692 H 359.63 3.9108 -0.728124 0
M  V30 3693 H 356.369 5.79881 -3.05643 0
M  V30 3694 H 355.889 5.84537 -1.34448 0
M  V30 3695 H 357.568 6.21069 -1.81335 0
M  V30 3696 N 357.7 0.491464 1.49741 0
M  V30 3697 C 358.977 -0.118984 1.95238 0
M  V30 3698 C 359.357 -1.55044 1.43264 0
M  V30 3699 O 358.705 -2.19287 0.642287 0
M  V30 3700 C 358.915 -0.0414187 3.48975 0
M  V30 3701 C 360.263 -0.220133 4.24029 0
M  V30 3702 O 361.287 -0.117055 3.56008 0
M  V30 3703 O 360.146 -0.430567 5.44801 0
M  V30 3704 H 357.24 -0.100536 0.820866 0
M  V30 3705 H 359.786 0.553322 1.60426 0
M  V30 3706 H 358.558 0.957214 3.79412 0
M  V30 3707 H 358.181 -0.754292 3.9038 0
M  V30 3708 N 359.178 -1.55987 0.224894 0
M  V30 3709 C 360.11 -2.17722 -0.716224 0
M  V30 3710 C 361.123 -1.14723 -1.15509 0
M  V30 3711 O 362.312 -1.41688 -1.08567 0
M  V30 3712 C 359.412 -2.74873 -1.98238 0
M  V30 3713 C 358.585 -4.03074 -1.69853 0
M  V30 3714 C 357.644 -4.44757 -2.81208 0
M  V30 3715 O 356.67 -5.11587 -2.49534 0
M  V30 3716 N 357.872 -4.10716 -4.10235 0
M  V30 3717 H 360.637 -2.99109 -0.188123 0
M  V30 3718 H 358.198 -1.6184 0.0440123 0
M  V30 3719 H 360.19 -2.99727 -2.7193 0
M  V30 3720 H 358.76 -1.9777 -2.42086 0
M  V30 3721 H 357.98 -3.86041 -0.797875 0
M  V30 3722 H 359.268 -4.86701 -1.48324 0
M  V30 3723 H 358.666 -3.57019 -4.38809 0
M  V30 3724 H 357.223 -4.40455 -4.80461 0
M  V30 3725 N 360.656 0.0484629 -1.57525 0
M  V30 3726 C 361.904 0.741657 -1.88 0
M  V30 3727 C 362.225 1.76918 -0.820054 0
M  V30 3728 O 361.495 1.95335 0.148661 0
M  V30 3729 H 360.075 0.276908 -0.69378 0
M  V30 3730 H 362.737 0.019013 -1.94891 0
M  V30 3731 H 361.833 1.24336 -2.86264 0
M  V30 3732 N 362.134 1.5431 0.320358 0
M  V30 3733 C 363.38 1.72924 1.05949 0
M  V30 3734 C 363.713 0.503185 1.87568 0
M  V30 3735 O 362.988 -0.499839 1.87968 0
M  V30 3736 C 363.271 3.00676 1.98156 0
M  V30 3737 C 363.124 4.3354 1.19845 0
M  V30 3738 C 364.443 3.24198 2.9763 0
M  V30 3739 H 361.562 0.629195 0.383774 0
M  V30 3740 H 364.204 1.87008 0.335854 0
M  V30 3741 H 362.354 2.888 2.59859 0
M  V30 3742 H 364.026 4.57305 0.605773 0
M  V30 3743 H 362.269 4.309 0.500784 0
M  V30 3744 H 362.94 5.19156 1.87567 0
M  V30 3745 H 365.416 3.35557 2.4605 0
M  V30 3746 H 364.292 4.14938 3.59329 0
M  V30 3747 H 364.553 2.41577 3.7026 0
M  V30 3748 N 363.613 -0.582584 1.46437 0
M  V30 3749 C 364.86 -1.34079 1.51753 0
M  V30 3750 C 365.188 -1.93762 0.169299 0
M  V30 3751 O 364.443 -1.76989 -0.835062 0
M  V30 3752 C 364.742 -2.48964 2.56421 0
M  V30 3753 C 364.408 -2.07273 4.00436 0
M  V30 3754 C 363.07 -1.95618 4.39644 0
M  V30 3755 C 365.422 -1.75111 4.90903 0
M  V30 3756 C 362.75 -1.5006 5.67185 0
M  V30 3757 C 365.102 -1.31032 6.18881 0
M  V30 3758 C 363.766 -1.17954 6.56996 0
M  V30 3759 H 363.036 -0.49063 0.555304 0
M  V30 3760 H 365.683 -0.656007 1.79913 0
M  V30 3761 H 363.988 -3.22889 2.21923 0
M  V30 3762 H 365.685 -3.07178 2.57765 0
M  V30 3763 H 362.275 -2.17279 3.69443 0
M  V30 3764 H 366.459 -1.83001 4.61329 0
M  V30 3765 H 361.715 -1.38577 5.95488 0
M  V30 3766 H 365.889 -1.052 6.88408 0
M  V30 3767 H 363.516 -0.824279 7.55718 0
M  V30 3768 N 365.091 -1.34144 -0.827227 0
M  V30 3769 C 366.041 -1.21923 -1.92663 0
M  V30 3770 C 367.025 -0.119294 -1.60457 0
M  V30 3771 O 368.217 -0.348539 -1.73534 0
M  V30 3772 C 365.346 -0.972492 -3.29238 0
M  V30 3773 C 364.432 -2.1154 -3.67576 0
M  V30 3774 N 364.823 -3.36627 -3.77512 0
M  V30 3775 C 363.121 -2.02468 -3.97395 0
M  V30 3776 C 363.822 -4.11658 -4.1099 0
M  V30 3777 N 362.798 -3.40207 -4.23981 0
M  V30 3778 H 366.6 -2.16721 -1.98517 0
M  V30 3779 H 364.114 -1.2632 -1.02064 0
M  V30 3780 H 366.111 -0.865847 -4.0781 0
M  V30 3781 H 364.771 -0.0331509 -3.24683 0
M  V30 3782 H 365.782 -3.71234 -3.61118 0
M  V30 3783 H 362.459 -1.16265 -4.00985 0
M  V30 3784 H 363.849 -5.19657 -4.25918 0
M  V30 3785 N 366.569 1.04691 -1.17803 0
M  V30 3786 C 367.517 2.14665 -0.895635 0
M  V30 3787 C 368.511 1.68806 0.141679 0
M  V30 3788 O 369.717 1.79999 -0.00587914 0
M  V30 3789 H 366.092 0.701038 -0.272121 0
M  V30 3790 H 368.063 2.35685 -1.83017 0
M  V30 3791 C 366.812 3.45019 -0.430962 0
M  V30 3792 H 366.135 3.8071 -1.22064 0
M  V30 3793 H 367.575 4.23125 -0.272301 0
M  V30 3794 C 366.034 3.25943 0.852207 0
M  V30 3795 O 366.564 3.5296 1.91786 0
M  V30 3796 N 364.77 2.79304 0.802346 0
M  V30 3797 H 364.317 2.57518 -0.0650788 0
M  V30 3798 H 364.275 2.66921 1.66134 0
M  V30 3799 N 368.047 0.979072 1.23499 0
M  V30 3800 C 369.324 0.563674 1.87302 0
M  V30 3801 C 369.704 -0.959199 1.88049 0
M  V30 3802 O 369.052 -1.83535 1.36114 0
M  V30 3803 C 369.262 1.16822 3.28867 0
M  V30 3804 C 370.61 1.26014 4.0547 0
M  V30 3805 O 371.634 1.12158 3.38082 0
M  V30 3806 O 370.493 1.48044 5.26066 0
M  V30 3807 H 367.587 0.189602 0.804972 0
M  V30 3808 H 370.133 1.07407 1.31384 0
M  V30 3809 H 368.905 2.21049 3.22883 0
M  V30 3810 H 368.528 0.642564 3.92373 0
M  V30 3811 N 369.525 -1.3858 0.750561 0
M  V30 3812 C 370.771 -2.00481 0.305825 0
M  V30 3813 C 371.104 -1.5944 -1.10872 0
M  V30 3814 O 370.379 -0.83052 -1.75877 0
M  V30 3815 C 370.662 -3.5758 0.425287 0
M  V30 3816 C 370.515 -4.08594 1.88072 0
M  V30 3817 C 371.834 -4.39719 -0.183122 0
M  V30 3818 H 368.953 -0.728348 0.112598 0
M  V30 3819 H 371.595 -1.64566 0.949638 0
M  V30 3820 H 369.745 -3.88306 -0.122828 0
M  V30 3821 H 371.417 -3.88523 2.48691 0
M  V30 3822 H 369.66 -3.61574 2.39681 0
M  V30 3823 H 370.331 -5.177 1.91548 0
M  V30 3824 H 372.807 -4.15128 0.284303 0
M  V30 3825 H 371.683 -5.48856 -0.0692757 0
M  V30 3826 H 371.944 -4.23434 -1.27106 0
M  V30 3827 N 371.003 -0.499398 -1.49478 0
M  V30 3828 C 372.252 0.0475259 -2.01644 0
M  V30 3829 C 372.565 1.38195 -1.38425 0
M  V30 3830 O 373.771 2.01547 -1.8191 0
M  V30 3831 C 372.227 0.135164 -3.59646 0
M  V30 3832 C 371.835 -1.19252 -4.31837 0
M  V30 3833 C 373.579 0.632538 -4.19761 0
M  V30 3834 C 371.486 -1.06713 -5.81693 0
M  V30 3835 H 370.416 0.0215349 -0.753692 0
M  V30 3836 H 373.067 -0.638577 -1.7203 0
M  V30 3837 H 371.449 0.885681 -3.85969 0
M  V30 3838 H 372.623 -1.9562 -4.17216 0
M  V30 3839 H 370.938 -1.62321 -3.83459 0
M  V30 3840 H 373.535 0.743833 -5.29501 0
M  V30 3841 H 373.878 1.63098 -3.83021 0
M  V30 3842 H 374.411 -0.0613987 -3.97753 0
M  V30 3843 H 371.15 -2.03979 -6.22955 0
M  V30 3844 H 370.67 -0.344307 -5.98811 0
M  V30 3845 H 372.349 -0.745208 -6.42694 0
M  V30 3846 N 372.481 1.55866 -0.233164 0
M  V30 3847 C 373.444 2.1953 0.658715 0
M  V30 3848 C 374.444 1.16053 1.11303 0
M  V30 3849 O 375.634 1.41218 1.01996 0
M  V30 3850 C 372.766 2.82791 1.90373 0
M  V30 3851 H 373.959 2.99721 0.10347 0
M  V30 3852 H 371.512 1.56291 0.0164245 0
M  V30 3853 H 372.247 2.06501 2.50056 0
M  V30 3854 H 372.032 3.58578 1.58632 0
M  V30 3855 H 373.522 3.31556 2.53891 0
M  V30 3856 N 373.959 -0.0401083 1.57549 0
M  V30 3857 C 375.205 -0.734211 1.89043 0
M  V30 3858 C 375.538 -1.75591 0.829535 0
M  V30 3859 O 374.813 -1.93868 -0.156706 0
M  V30 3860 C 375.096 -1.41374 3.31188 0
M  V30 3861 C 374.949 -0.406299 4.47961 0
M  V30 3862 C 376.268 -2.35061 3.72068 0
M  V30 3863 H 373.387 -0.265447 0.687537 0
M  V30 3864 H 376.029 0.00294087 1.9 0
M  V30 3865 H 374.179 -2.04206 3.30503 0
M  V30 3866 H 375.851 0.219255 4.60779 0
M  V30 3867 H 374.094 0.275485 4.32924 0
M  V30 3868 H 374.765 -0.920022 5.44279 0
M  V30 3869 H 377.241 -1.82282 3.74049 0
M  V30 3870 H 376.117 -2.79593 4.72355 0
M  V30 3871 H 376.378 -3.21258 3.0372 0
M  V30 3872 N 375.437 -1.54477 -0.31217 0
M  V30 3873 C 376.662 -1.77526 -1.07235 0
M  V30 3874 C 377.087 -0.527775 -1.80544 0
M  V30 3875 O 376.445 0.52121 -1.73646 0
M  V30 3876 C 376.493 -2.97535 -2.03728 0
M  V30 3877 O 375.597 -2.69878 -3.11833 0
M  V30 3878 H 374.938 -0.58792 -0.30862 0
M  V30 3879 H 377.468 -2.01532 -0.352993 0
M  V30 3880 H 377.478 -3.25198 -2.46395 0
M  V30 3881 H 376.153 -3.87996 -1.49774 0
M  V30 3882 H 374.73 -2.53199 -2.7376 0
M  V30 3883 N 376.915 0.57481 -1.46744 0
M  V30 3884 C 377.863 1.70435 -1.58286 0
M  V30 3885 C 378.857 1.63287 -0.450956 0
M  V30 3886 O 380.063 1.68685 -0.628121 0
M  V30 3887 H 376.438 0.56364 -0.497809 0
M  V30 3888 H 378.409 1.57833 -2.53242 0
M  V30 3889 C 377.158 3.08815 -1.59776 0
M  V30 3890 H 376.481 3.1499 -2.46214 0
M  V30 3891 H 377.921 3.87588 -1.71905 0
M  V30 3892 C 376.38 3.35301 -0.327812 0
M  V30 3893 O 376.91 3.97511 0.57861 0
M  V30 3894 N 375.116 2.89816 -0.213274 0
M  V30 3895 H 374.663 2.39371 -0.951798 0
M  V30 3896 H 374.621 3.0791 0.63553 0
M  V30 3897 N 378.394 1.34581 0.820102 0
M  V30 3898 C 379.81 1.14325 1.11364 0
M  V30 3899 C 380.01 -0.0533648 2.01429 0
M  V30 3900 O 379.066 -0.728044 2.41776 0
M  V30 3901 C 380.379 2.43983 1.75764 0
M  V30 3902 C 381.927 2.50065 1.88246 0
M  V30 3903 C 382.402 3.79732 2.56061 0
M  V30 3904 N 383.893 3.80908 2.63558 0
M  V30 3905 C 384.628 4.77961 3.16766 0
M  V30 3906 N 384.124 5.85397 3.70517 0
M  V30 3907 N 385.917 4.65413 3.15194 0
M  V30 3908 H 378.068 2.11246 0.221096 0
M  V30 3909 H 380.331 0.934289 0.160649 0
M  V30 3910 H 380.037 3.31651 1.1705 0
M  V30 3911 H 379.911 2.57531 2.75604 0
M  V30 3912 H 382.298 1.62834 2.46108 0
M  V30 3913 H 382.379 2.40442 0.873006 0
M  V30 3914 H 382.023 4.67354 1.98853 0
M  V30 3915 H 381.953 3.86639 3.57516 0
M  V30 3916 H 384.444 3.03274 2.25463 0
M  V30 3917 H 384.757 6.55463 4.09376 0
M  V30 3918 H 383.102 5.89107 3.68752 0
M  V30 3919 H 386.293 3.80627 2.72471 0
M  V30 3920 H 386.466 5.41216 3.56356 0
M  V30 3921 N 379.872 -1.04064 1.18357 0
M  V30 3922 C 380.804 -2.12114 0.868358 0
M  V30 3923 C 381.817 -1.62247 -0.134045 0
M  V30 3924 O 383.006 -1.78253 0.0937933 0
M  V30 3925 C 380.106 -3.37773 0.276132 0
M  V30 3926 C 379.279 -4.16874 1.3242 0
M  V30 3927 C 378.338 -5.20861 0.747662 0
M  V30 3928 O 377.364 -5.51141 1.42239 0
M  V30 3929 N 378.566 -5.78715 -0.454823 0
M  V30 3930 H 381.331 -2.39748 1.79836 0
M  V30 3931 H 378.892 -1.20258 1.08396 0
M  V30 3932 H 380.884 -4.04513 -0.123133 0
M  V30 3933 H 379.454 -3.07581 -0.557895 0
M  V30 3934 H 378.674 -3.45456 1.89878 0
M  V30 3935 H 379.962 -4.66516 2.03078 0
M  V30 3936 H 379.36 -5.56415 -1.02073 0
M  V30 3937 H 377.917 -6.46921 -0.79601 0
M  V30 3938 N 381.35 -0.985608 -1.22978 0
M  V30 3939 C 382.596 -0.65836 -1.91816 0
M  V30 3940 C 382.929 0.806692 -1.76653 0
M  V30 3941 O 382.204 1.58252 -1.13078 0
M  V30 3942 C 382.487 -1.056 -3.44268 0
M  V30 3943 C 382.34 -2.57906 -3.68516 0
M  V30 3944 C 383.659 -0.603781 -4.35939 0
M  V30 3945 H 380.778 -0.24065 -0.696604 0
M  V30 3946 H 383.42 -1.22783 -1.44998 0
M  V30 3947 H 381.57 -0.571445 -3.84274 0
M  V30 3948 H 383.242 -3.13976 -3.3796 0
M  V30 3949 H 381.485 -3.00305 -3.13048 0
M  V30 3950 H 382.156 -2.80779 -4.75255 0
M  V30 3951 H 384.632 -1.01987 -4.03408 0
M  V30 3952 H 383.508 -0.910383 -5.41298 0
M  V30 3953 H 383.769 0.495761 -4.39312 0
M  V30 3954 N 382.828 1.3818 -0.7579 0
M  V30 3955 C 383.758 2.33027 -0.148597 0
M  V30 3956 C 384.739 1.55085 0.69875 0
M  V30 3957 O 385.924 1.83384 0.639053 0
M  V30 3958 C 383.054 3.3928 0.742034 0
M  V30 3959 C 382.008 4.28 -0.00291946 0
M  V30 3960 C 381.334 5.25146 1.00625 0
M  V30 3961 C 382.634 5.08938 -1.17385 0
M  V30 3962 H 384.328 2.84231 -0.940909 0
M  V30 3963 H 381.874 1.36659 -0.453908 0
M  V30 3964 H 383.827 4.046 1.17799 0
M  V30 3965 H 382.551 2.86569 1.56671 0
M  V30 3966 H 381.21 3.64192 -0.419504 0
M  V30 3967 H 380.858 4.68721 1.8251 0
M  V30 3968 H 380.558 5.85361 0.512428 0
M  V30 3969 H 382.082 5.93342 1.44143 0
M  V30 3970 H 383.496 5.67474 -0.815224 0
M  V30 3971 H 381.893 5.7841 -1.59882 0
M  V30 3972 H 382.963 4.42424 -1.98468 0
M  V30 3973 N 384.306 0.507319 1.49211 0
M  V30 3974 C 385.553 -0.0349529 2.0247 0
M  V30 3975 C 385.881 -1.36409 1.38647 0
M  V30 3976 O 385.136 -1.88841 0.513566 0
M  V30 3977 C 385.435 -0.229513 3.56662 0
M  V30 3978 C 385.101 1.02241 4.39156 0
M  V30 3979 C 383.763 1.36557 4.61417 0
M  V30 3980 C 386.115 1.85428 4.871 0
M  V30 3981 C 383.443 2.53999 5.28868 0
M  V30 3982 C 385.795 3.02028 5.55843 0
M  V30 3983 C 384.459 3.36717 5.76349 0
M  V30 3984 H 383.729 -0.0127902 0.74089 0
M  V30 3985 H 386.376 0.668756 1.79443 0
M  V30 3986 H 384.681 -1.0158 3.78403 0
M  V30 3987 H 386.378 -0.663641 3.9547 0
M  V30 3988 H 382.968 0.745124 4.22073 0
M  V30 3989 H 387.152 1.6023 4.69723 0
M  V30 3990 H 382.408 2.81105 5.42946 0
M  V30 3991 H 386.582 3.66808 5.91967 0
M  V30 3992 H 384.209 4.27821 6.28389 0
M  V30 3993 N 385.784 -1.5574 0.241426 0
M  V30 3994 C 387.024 -2.00714 -0.38644 0
M  V30 3995 C 387.388 -1.12586 -1.55526 0
M  V30 3996 O 388.589 -1.46992 -2.25048 0
M  V30 3997 C 386.86 -3.48534 -0.791128 0
M  V30 3998 S 388.419 -4.15519 -1.41029 0
M  V30 3999 H 385.237 -0.700484 -0.121834 0
M  V30 4000 H 387.839 -1.92243 0.355377 0
M  V30 4001 H 386.543 -4.10342 0.0689225 0
M  V30 4002 H 386.074 -3.6092 -1.56526 0
M  V30 4003 H 388.089 -4.16352 -2.69936 0
M  V30 4004 N 387.262 0.0317525 -1.57568 0
M  V30 4005 C 388.212 1.04101 -2.02847 0
M  V30 4006 C 389.196 1.3219 -0.917317 0
M  V30 4007 O 390.388 1.31819 -1.18121 0
M  V30 4008 C 387.517 2.34295 -2.5092 0
M  V30 4009 C 386.603 2.09308 -3.68851 0
M  V30 4010 N 386.994 1.5437 -4.81667 0
M  V30 4011 C 385.292 2.39604 -3.76172 0
M  V30 4012 C 385.993 1.45126 -5.63306 0
M  V30 4013 N 384.969 1.92589 -5.08341 0
M  V30 4014 H 388.771 0.610217 -2.87495 0
M  V30 4015 H 386.285 0.238108 -1.60645 0
M  V30 4016 H 388.282 3.07404 -2.81617 0
M  V30 4017 H 386.942 2.78055 -1.67677 0
M  V30 4018 H 387.953 1.22678 -5.03161 0
M  V30 4019 H 384.63 2.86457 -3.03724 0
M  V30 4020 H 386.02 1.03163 -6.63933 0
M  V30 4021 N 388.74 1.54641 0.303973 0
M  V30 4022 C 389.672 1.81754 1.39636 0
M  V30 4023 C 390.685 0.70035 1.46966 0
M  V30 4024 O 391.874 0.97778 1.49338 0
M  V30 4025 C 388.974 1.93785 2.7803 0
M  V30 4026 C 388.147 3.24156 2.93669 0
M  V30 4027 C 387.206 3.26641 4.12544 0
M  V30 4028 O 386.232 4.00187 4.04771 0
M  V30 4029 N 387.434 2.5182 5.23036 0
M  V30 4030 H 390.199 2.76031 1.16734 0
M  V30 4031 H 387.76 1.54178 0.494033 0
M  V30 4032 H 389.752 1.92852 3.55795 0
M  V30 4033 H 388.322 1.06515 2.93893 0
M  V30 4034 H 387.542 3.37887 2.03042 0
M  V30 4035 H 388.83 4.10195 3.01027 0
M  V30 4036 H 388.228 1.91692 5.32232 0
M  V30 4037 H 386.785 2.56644 5.99147 0
M  V30 4038 N 390.218 -0.567019 1.47046 0
M  V30 4039 C 391.15 -1.68985 1.54844 0
M  V30 4040 C 392.163 -1.56869 0.435431 0
M  V30 4041 O 393.352 -1.64006 0.70457 0
M  V30 4042 C 390.452 -3.07373 1.42742 0
M  V30 4043 C 389.625 -3.45339 2.6844 0
M  V30 4044 C 388.684 -4.62849 2.50314 0
M  V30 4045 O 387.71 -4.67922 3.24095 0
M  V30 4046 N 388.912 -5.58726 1.57499 0
M  V30 4047 H 391.677 -1.62745 2.51663 0
M  V30 4048 H 389.238 -0.753411 1.43302 0
M  V30 4049 H 391.23 -3.83803 1.28365 0
M  V30 4050 H 389.8 -3.07893 0.540445 0
M  V30 4051 H 389.02 -2.58455 2.97648 0
M  V30 4052 H 390.308 -3.67476 3.51907 0
M  V30 4053 H 389.706 -5.57376 0.966876 0
M  V30 4054 H 388.263 -6.34523 1.49078 0
M  V30 4055 N 391.696 -1.35014 -0.812953 0
M  V30 4056 C 392.659 -1.27292 -1.90602 0
M  V30 4057 C 393.659 -0.185817 -1.59723 0
M  V30 4058 O 394.849 -0.439102 -1.68575 0
M  V30 4059 C 391.981 -0.967676 -3.26877 0
M  V30 4060 H 393.174 -2.24479 -1.9887 0
M  V30 4061 H 390.727 -1.19446 -1.00808 0
M  V30 4062 H 391.462 0.0005954 -3.243 0
M  V30 4063 H 391.247 -1.75412 -3.50675 0
M  V30 4064 H 392.737 -0.939085 -4.06904 0
M  V30 4065 N 393.175 1.03435 -1.18907 0
M  V30 4066 C 394.422 1.76743 -0.988334 0
M  V30 4067 C 394.75 1.88447 0.481441 0
M  V30 4068 O 394.005 1.39383 1.37371 0
M  V30 4069 C 394.304 3.19792 -1.59586 0
M  V30 4070 C 393.97 3.28108 -3.09283 0
M  V30 4071 C 392.632 3.30084 -3.5014 0
M  V30 4072 C 394.984 3.27696 -4.05296 0
M  V30 4073 C 392.312 3.29299 -4.85571 0
M  V30 4074 C 394.664 3.28451 -5.4065 0
M  V30 4075 C 393.328 3.28723 -5.80946 0
M  V30 4076 H 392.598 0.64675 -0.361657 0
M  V30 4077 H 395.245 1.21442 -1.48068 0
M  V30 4078 H 393.55 3.78136 -1.02568 0
M  V30 4079 H 395.247 3.75171 -1.41589 0
M  V30 4080 H 391.837 3.27294 -2.76725 0
M  V30 4081 H 396.021 3.25354 -3.74778 0
M  V30 4082 H 391.277 3.2783 -5.16079 0
M  V30 4083 H 395.451 3.27082 -6.14809 0
M  V30 4084 H 393.078 3.27868 -6.85862 0
M  V30 4085 N 394.653 0.992116 1.22453 0
M  V30 4086 C 395.616 0.546883 2.2258 0
M  V30 4087 C 396.616 -0.369829 1.56489 0
M  V30 4088 O 397.806 -0.161896 1.73446 0
M  V30 4089 C 394.938 -0.204659 3.40285 0
M  V30 4090 H 396.131 1.43234 2.63484 0
M  V30 4091 H 393.684 0.779239 1.3549 0
M  V30 4092 H 394.419 -1.10614 3.04853 0
M  V30 4093 H 394.204 0.45354 3.89468 0
M  V30 4094 H 395.694 -0.504358 4.14543 0
M  V30 4095 N 396.131 -1.37776 0.765217 0
M  V30 4096 C 397.547 -1.53297 0.444108 0
M  V30 4097 C 397.747 -1.72515 -1.04119 0
M  V30 4098 O 396.803 -1.74278 -1.82711 0
M  V30 4099 C 398.116 -2.73328 1.25349 0
M  V30 4100 C 399.664 -2.87185 1.24473 0
M  V30 4101 C 400.139 -4.10191 2.03733 0
M  V30 4102 N 401.63 -4.17291 2.01053 0
M  V30 4103 C 402.365 -5.11488 2.59166 0
M  V30 4104 N 401.861 -6.11285 3.26041 0
M  V30 4105 N 403.654 -5.03924 2.49032 0
M  V30 4106 H 395.805 -1.23552 1.72768 0
M  V30 4107 H 398.068 -0.601103 0.733062 0
M  V30 4108 H 397.774 -2.6557 2.30577 0
M  V30 4109 H 397.648 -3.66834 0.87823 0
M  V30 4110 H 400.035 -2.94418 0.20047 0
M  V30 4111 H 400.116 -1.94657 1.65959 0
M  V30 4112 H 399.76 -4.0372 3.08176 0
M  V30 4113 H 399.69 -5.01821 1.59633 0
M  V30 4114 H 402.181 -3.45825 1.5236 0
M  V30 4115 H 402.494 -6.79678 3.67774 0
M  V30 4116 H 400.839 -6.11583 3.30138 0
M  V30 4117 H 404.03 -4.24902 1.96407 0
M  V30 4118 H 404.203 -5.77152 2.94617 0
M  V30 4119 N 397.609 -0.515225 -1.4894 0
M  V30 4120 C 398.541 0.292481 -2.27326 0
M  V30 4121 C 399.554 0.917838 -1.3446 0
M  V30 4122 O 400.743 0.798772 -1.5963 0
M  V30 4123 C 397.843 1.42803 -3.07344 0
M  V30 4124 C 397.016 0.907347 -4.27885 0
M  V30 4125 C 396.075 1.92222 -4.89834 0
M  V30 4126 O 395.101 1.48506 -5.49486 0
M  V30 4127 N 396.303 3.25355 -4.80754 0
M  V30 4128 H 399.068 -0.379721 -2.97285 0
M  V30 4129 H 396.629 -0.348638 -1.58102 0
M  V30 4130 H 398.621 2.10481 -3.45658 0
M  V30 4131 H 397.191 2.00414 -2.39902 0
M  V30 4132 H 396.411 0.0550218 -3.94162 0
M  V30 4133 H 397.699 0.538108 -5.05946 0
M  V30 4134 H 397.097 3.6355 -4.33414 0
M  V30 4135 H 395.654 3.88707 -5.23211 0
M  V30 4136 N 399.087 1.5561 -0.249682 0
M  V30 4137 C 400.312 2.03865 0.381305 0
M  V30 4138 C 400.737 1.12769 1.50548 0
M  V30 4139 O 400.095 0.121189 1.80895 0
M  V30 4140 C 400.143 3.50101 0.863816 0
M  V30 4141 O 399.247 3.62132 1.97318 0
M  V30 4142 H 398.588 0.658827 0.0827194 0
M  V30 4143 H 401.118 2.01105 -0.376552 0
M  V30 4144 H 401.128 3.90975 1.1663 0
M  V30 4145 H 399.803 4.1588 0.0411816 0
M  V30 4146 H 398.38 3.33155 1.67517 0
M  V30 4147 N 400.565 -0.0233959 1.57583 0
M  V30 4148 C 401.497 -1.04994 2.03737 0
M  V30 4149 C 402.51 -1.32125 0.951152 0
M  V30 4150 O 403.699 -1.29512 1.22837 0
M  V30 4151 C 400.799 -2.39026 2.40249 0
M  V30 4152 C 399.972 -2.31171 3.7132 0
M  V30 4153 C 399.031 -3.47698 3.94959 0
M  V30 4154 O 398.057 -3.26937 4.65941 0
M  V30 4155 N 399.259 -4.6976 3.41037 0
M  V30 4156 H 402.024 -0.656507 2.92421 0
M  V30 4157 H 399.585 -0.211235 1.60516 0
M  V30 4158 H 401.577 -3.15712 2.53196 0
M  V30 4159 H 400.147 -2.70194 1.57207 0
M  V30 4160 H 399.367 -1.39547 3.68674 0
M  V30 4161 H 400.655 -2.23071 4.57293 0
M  V30 4162 H 400.053 -4.89528 2.83512 0
M  V30 4163 H 398.61 -5.43791 3.59353 0
M  V30 4164 N 402.043 -1.548 -0.295768 0
M  V30 4165 C 402.973 -1.89115 -1.36959 0
M  V30 4166 C 403.954 -0.75059 -1.52644 0
M  V30 4167 O 405.139 -1.00678 -1.66065 0
M  V30 4168 C 402.269 -2.14307 -2.73295 0
M  V30 4169 C 401.223 -3.30151 -2.72368 0
M  V30 4170 C 400.549 -3.40772 -4.12042 0
M  V30 4171 C 401.849 -4.67126 -2.33646 0
M  V30 4172 H 403.543 -2.79053 -1.08488 0
M  V30 4173 H 401.089 -1.34266 -0.520443 0
M  V30 4174 H 403.042 -2.36898 -3.48507 0
M  V30 4175 H 401.766 -1.21145 -3.03301 0
M  V30 4176 H 400.425 -3.0749 -1.99613 0
M  V30 4177 H 400.073 -2.45117 -4.39234 0
M  V30 4178 H 399.773 -4.18645 -4.12322 0
M  V30 4179 H 401.297 -3.6563 -4.89027 0
M  V30 4180 H 402.711 -4.89414 -2.98575 0
M  V30 4181 H 401.108 -5.47751 -2.45129 0
M  V30 4182 H 402.178 -4.67489 -1.28772 0
M  V30 4183 N 403.521 0.559213 -1.47345 0
M  V30 4184 C 404.451 1.67622 -1.62558 0
M  V30 4185 C 405.432 1.63331 -0.475087 0
M  V30 4186 O 406.617 1.80983 -0.704182 0
M  V30 4187 C 403.747 3.0626 -1.63774 0
M  V30 4188 C 402.701 3.25397 -2.7803 0
M  V30 4189 C 402.027 4.64801 -2.64318 0
M  V30 4190 C 403.327 3.10965 -4.19641 0
M  V30 4191 H 405.021 1.55146 -2.56067 0
M  V30 4192 H 402.567 0.744961 -1.23233 0
M  V30 4193 H 404.52 3.84247 -1.73008 0
M  V30 4194 H 403.244 3.1969 -0.66825 0
M  V30 4195 H 401.903 2.49817 -2.68304 0
M  V30 4196 H 401.551 4.75028 -1.65401 0
M  V30 4197 H 401.251 4.78555 -3.40968 0
M  V30 4198 H 402.775 5.44926 -2.75478 0
M  V30 4199 H 404.189 3.78772 -4.30354 0
M  V30 4200 H 402.586 3.36229 -4.97062 0
M  V30 4201 H 403.656 2.07736 -4.38148 0
M  V30 4202 N 404.999 1.35443 0.805782 0
M  V30 4203 C 405.962 1.28301 1.89925 0
M  V30 4204 C 406.962 0.194285 1.59622 0
M  V30 4205 O 408.152 0.448036 1.6834 0
M  V30 4206 C 405.284 0.984997 3.2636 0
M  V30 4207 H 406.477 2.2553 1.97677 0
M  V30 4208 H 404.03 1.19979 1.00173 0
M  V30 4209 H 404.765 0.016603 3.24296 0
M  V30 4210 H 404.55 1.77269 3.4974 0
M  V30 4211 H 406.04 0.960651 4.064 0
M  V30 4212 N 406.477 -1.02803 1.19454 0
M  V30 4213 C 407.425 -2.13213 0.929673 0
M  V30 4214 C 408.419 -1.69011 -0.114806 0
M  V30 4215 O 409.625 -1.79967 0.0345147 0
M  V30 4216 H 406 -0.69662 0.28324 0
M  V30 4217 H 407.971 -2.32744 1.86743 0
M  V30 4218 C 406.72 -3.4429 0.485797 0
M  V30 4219 H 406.043 -3.7872 1.28105 0
M  V30 4220 H 407.483 -4.22638 0.339582 0
M  V30 4221 C 405.942 -3.27258 -0.800244 0
M  V30 4222 O 406.472 -3.55967 -1.86146 0
M  V30 4223 N 404.678 -2.80545 -0.75781 0
M  V30 4224 H 404.225 -2.57382 0.106039 0
M  V30 4225 H 404.183 -2.6953 -1.61867 0
M  V30 4226 N 407.956 -0.998596 -1.21925 0
M  V30 4227 C 408.886 -0.573688 -2.26343 0
M  V30 4228 C 409.867 0.402296 -1.65274 0
M  V30 4229 O 411.052 0.291683 -1.91997 0
M  V30 4230 C 408.182 0.106839 -3.47136 0
M  V30 4231 C 407.136 -0.788269 -4.20678 0
M  V30 4232 C 406.462 0.0254927 -5.34694 0
M  V30 4233 C 407.762 -2.08784 -4.78755 0
M  V30 4234 H 409.456 -1.44651 -2.62138 0
M  V30 4235 H 407.002 -0.696975 -1.26009 0
M  V30 4236 H 408.955 0.415531 -4.19346 0
M  V30 4237 H 407.679 1.01424 -3.10452 0
M  V30 4238 H 406.338 -1.08069 -3.50309 0
M  V30 4239 H 405.986 0.933989 -4.94253 0
M  V30 4240 H 405.686 -0.570437 -5.84825 0
M  V30 4241 H 407.21 0.328147 -6.09718 0
M  V30 4242 H 408.624 -1.84272 -5.42878 0
M  V30 4243 H 407.021 -2.63307 -5.39249 0
M  V30 4244 H 408.091 -2.76284 -3.98491 0
M  V30 4245 N 409.434 1.37368 -0.772513 0
M  V30 4246 C 410.85 1.53059 -0.452231 0
M  V30 4247 C 411.05 1.73065 1.03203 0
M  V30 4248 O 410.106 1.75245 1.81784 0
M  V30 4249 C 411.419 2.72659 -1.26797 0
M  V30 4250 C 412.967 2.86521 -1.25995 0
M  V30 4251 C 413.442 4.09105 -2.05905 0
M  V30 4252 N 414.933 4.16219 -2.03263 0
M  V30 4253 C 415.668 5.10107 -2.61875 0
M  V30 4254 N 415.164 6.09547 -3.29278 0
M  V30 4255 N 416.957 5.02596 -2.51701 0
M  V30 4256 H 409.108 1.22634 -1.7342 0
M  V30 4257 H 411.371 0.597206 -0.736239 0
M  V30 4258 H 411.077 2.64343 -2.31982 0
M  V30 4259 H 410.951 3.66363 -0.897672 0
M  V30 4260 H 413.338 2.94308 -0.216081 0
M  V30 4261 H 413.419 1.93774 -1.66989 0
M  V30 4262 H 413.063 4.0208 -3.10313 0
M  V30 4263 H 412.993 5.00968 -1.62292 0
M  V30 4264 H 415.484 3.45012 -1.54192 0
M  V30 4265 H 415.797 6.77718 -3.71374 0
M  V30 4266 H 414.142 6.09824 -3.33377 0
M  V30 4267 H 417.333 4.23855 -1.98657 0
M  V30 4268 H 417.506 5.75582 -2.97673 0
M  V30 4269 N 410.912 0.523116 1.48665 0
M  V30 4270 C 411.875 -0.232592 2.28017 0
M  V30 4271 C 412.875 -0.874021 1.34972 0
M  V30 4272 O 414.065 -0.735132 1.57929 0
M  V30 4273 C 411.197 -1.33586 3.13636 0
M  V30 4274 H 412.39 0.464008 2.96289 0
M  V30 4275 H 409.943 0.278816 1.53793 0
M  V30 4276 H 410.678 -2.06593 2.4998 0
M  V30 4277 H 410.463 -0.881125 3.82071 0
M  V30 4278 H 411.953 -1.86759 3.73511 0
M  V30 4279 N 412.39 -1.55475 0.257931 0
M  V30 4280 C 413.806 -1.59307 -0.0966563 0
M  V30 4281 C 414.006 -1.27514 -1.5602 0
M  V30 4282 O 413.062 -1.02774 -2.30637 0
M  V30 4283 C 414.375 -2.99552 0.262481 0
M  V30 4284 C 415.923 -3.1231 0.207683 0
M  V30 4285 C 416.398 -4.54793 0.541012 0
M  V30 4286 N 417.889 -4.6058 0.491921 0
M  V30 4287 C 418.624 -5.68825 0.722857 0
M  V30 4288 N 418.12 -6.85287 1.0175 0
M  V30 4289 N 419.913 -5.58296 0.652815 0
M  V30 4290 H 412.064 -1.74409 1.21224 0
M  V30 4291 H 414.327 -0.812424 0.48854 0
M  V30 4292 H 414.033 -3.27593 1.27967 0
M  V30 4293 H 413.907 -3.75019 -0.40508 0
M  V30 4294 H 416.294 -2.84044 -0.800195 0
M  V30 4295 H 416.375 -2.39095 0.909255 0
M  V30 4296 H 416.019 -4.83783 1.5465 0
M  V30 4297 H 415.949 -5.26285 -0.18216 0
M  V30 4298 H 418.44 -3.7691 0.273366 0
M  V30 4299 H 418.753 -7.63725 1.18084 0
M  V30 4300 H 417.098 -6.86945 1.05509 0
M  V30 4301 H 420.289 -4.66189 0.422592 0
M  V30 4302 H 420.462 -6.42582 0.836182 0
M  V30 4303 N 413.868 0.0150385 -1.57593 0
M  V30 4304 C 415.114 0.704043 -1.90187 0
M  V30 4305 C 415.447 1.74249 -0.857366 0
M  V30 4306 O 414.722 1.94092 0.125843 0
M  V30 4307 C 415.005 1.36087 -3.33395 0
M  V30 4308 C 414.858 0.334981 -4.48551 0
M  V30 4309 C 416.177 2.29112 -3.7576 0
M  V30 4310 H 413.296 0.254475 -0.691673 0
M  V30 4311 H 415.938 -0.0331678 -1.89971 0
M  V30 4312 H 414.088 1.98922 -3.3371 0
M  V30 4313 H 415.76 -0.292534 -4.60372 0
M  V30 4314 H 414.003 -0.344325 -4.32431 0
M  V30 4315 H 414.674 0.833316 -5.45674 0
M  V30 4316 H 417.15 1.76308 -3.76902 0
M  V30 4317 H 416.026 2.72043 -4.76743 0
M  V30 4318 H 416.287 3.16385 -3.08793 0
M  V30 4319 N 415.346 1.54954 0.287554 0
M  V30 4320 C 416.294 1.87606 1.37502 0
M  V30 4321 C 417.288 0.751001 1.51843 0
M  V30 4322 O 418.494 0.935169 1.53801 0
M  V30 4323 H 414.869 0.595231 0.459569 0
M  V30 4324 H 416.84 2.78477 1.07206 0
M  V30 4325 C 415.589 2.15183 2.73115 0
M  V30 4326 H 414.912 3.01234 2.62866 0
M  V30 4327 H 416.352 2.4196 3.48183 0
M  V30 4328 C 414.811 0.954686 3.2309 0
M  V30 4329 O 415.341 0.181949 4.01288 0
M  V30 4330 N 413.547 0.756368 2.80584 0
M  V30 4331 H 413.094 1.38643 2.17108 0
M  V30 4332 H 413.052 -0.0430391 3.14371 0
M  V30 4333 N 416.824 -0.551391 1.4764 0
M  V30 4334 C 418.072 -1.30572 1.54258 0
M  V30 4335 C 418.393 -1.93877 0.208963 0
M  V30 4336 O 417.663 -1.80234 -0.767619 0
M  V30 4337 H 416.243 -0.484894 0.568231 0
M  V30 4338 H 418.905 -0.643402 1.83974 0
M  V30 4339 H 418.001 -2.09621 2.31226 0
M  V30 4340 N 418.302 -1.35869 -0.798587 0
M  V30 4341 C 419.549 -1.29588 -1.55606 0
M  V30 4342 C 419.877 0.127456 -1.94082 0
M  V30 4343 O 419.132 1.09461 -1.62225 0
M  V30 4344 C 419.431 -2.1556 -2.85077 0
M  V30 4345 C 419.097 -3.6424 -2.65781 0
M  V30 4346 C 417.759 -4.04766 -2.60227 0
M  V30 4347 C 420.111 -4.58547 -2.47758 0
M  V30 4348 C 417.439 -5.37753 -2.34603 0
M  V30 4349 C 419.791 -5.91742 -2.23662 0
M  V30 4350 C 418.455 -6.31402 -2.16534 0
M  V30 4351 H 417.725 -0.474197 -0.569402 0
M  V30 4352 H 420.372 -1.67839 -0.922086 0
M  V30 4353 H 418.677 -1.70216 -3.52893 0
M  V30 4354 H 420.374 -2.08031 -3.42818 0
M  V30 4355 H 416.964 -3.32086 -2.70956 0
M  V30 4356 H 421.148 -4.28117 -2.51056 0
M  V30 4357 H 416.404 -5.67474 -2.2756 0
M  V30 4358 H 420.578 -6.6439 -2.08708 0
M  V30 4359 H 418.205 -7.34381 -1.96441 0
M  V30 4360 N 419.78 1.02168 -1.19998 0
M  V30 4361 C 420.713 2.10232 -0.887558 0
M  V30 4362 C 421.691 1.61827 0.158317 0
M  V30 4363 O 422.875 1.88471 0.0330249 0
M  V30 4364 C 420.002 3.37092 -0.32964 0
M  V30 4365 C 419.048 4.0438 -1.3557 0
M  V30 4366 S 419.881 4.48956 -2.91888 0
M  V30 4367 C 421.037 5.79024 -2.37658 0
M  V30 4368 H 421.27 2.36409 -1.80272 0
M  V30 4369 H 418.803 1.15211 -1.0279 0
M  V30 4370 H 420.761 4.10498 -0.0142824 0
M  V30 4371 H 419.422 3.08996 0.563941 0
M  V30 4372 H 418.615 4.95632 -0.9146 0
M  V30 4373 H 418.217 3.37176 -1.61828 0
M  V30 4374 H 420.509 6.53942 -1.77103 0
M  V30 4375 H 421.452 6.27924 -3.27287 0
M  V30 4376 H 421.86 5.35043 -1.79971 0
M  V30 4377 N 421.258 1.00505 1.21394 0
M  V30 4378 C 422.221 0.570459 2.21987 0
M  V30 4379 C 423.221 -0.353211 1.56873 0
M  V30 4380 O 424.411 -0.14349 1.73608 0
M  V30 4381 C 421.543 -0.168555 3.40483 0
M  V30 4382 H 422.736 1.46021 2.6195 0
M  V30 4383 H 420.289 0.793565 1.34656 0
M  V30 4384 H 421.024 -1.07374 3.06009 0
M  V30 4385 H 420.809 0.494823 3.88965 0
M  V30 4386 H 422.299 -0.460362 4.15055 0
M  V30 4387 N 422.737 -1.36956 0.779787 0
M  V30 4388 C 423.986 -1.98738 0.344405 0
M  V30 4389 C 424.299 -1.62596 -1.08728 0
M  V30 4390 O 425.505 -2.1754 -1.62445 0
M  V30 4391 C 423.961 -3.5544 0.564829 0
M  V30 4392 C 423.569 -4.00514 2.0073 0
M  V30 4393 C 425.313 -4.24059 0.193471 0
M  V30 4394 C 423.22 -5.49957 2.17489 0
M  V30 4395 H 422.15 -0.743561 0.12503 0
M  V30 4396 H 424.801 -1.56381 0.960057 0
M  V30 4397 H 423.183 -3.95817 -0.120397 0
M  V30 4398 H 424.357 -3.71362 2.72814 0
M  V30 4399 H 422.672 -3.44703 2.336 0
M  V30 4400 H 425.269 -5.33874 0.297097 0
M  V30 4401 H 425.612 -4.07378 -0.857263 0
M  V30 4402 H 426.145 -3.89012 0.831556 0
M  V30 4403 H 422.884 -5.71574 3.2091 0
M  V30 4404 H 422.404 -5.80767 1.49899 0
M  V30 4405 H 424.083 -6.16043 1.97738 0
M  V30 4406 N 424.215 -0.530993 -1.48385 0
M  V30 4407 C 425.125 0.23503 -2.3342 0
M  V30 4408 C 426.141 0.93801 -1.46552 0
M  V30 4409 O 427.317 0.912745 -1.7953 0
M  V30 4410 C 424.382 1.26778 -3.22689 0
M  V30 4411 C 423.443 0.575038 -4.25431 0
M  V30 4412 C 422.676 1.55858 -5.10435 0
M  V30 4413 O 422.899 2.79129 -4.97437 0
M  V30 4414 O 421.833 1.09742 -5.91811 0
M  V30 4415 H 425.659 -0.461794 -3.00169 0
M  V30 4416 H 423.244 -0.291903 -1.46521 0
M  V30 4417 H 425.126 1.86457 -3.77904 0
M  V30 4418 H 423.801 1.94699 -2.586 0
M  V30 4419 H 422.708 -0.0622782 -3.74048 0
M  V30 4420 H 424.041 -0.062253 -4.92161 0
M  V30 4421 N 425.693 1.55336 -0.266172 0
M  V30 4422 C 426.939 1.99692 0.353681 0
M  V30 4423 C 427.272 1.1543 1.56172 0
M  V30 4424 O 426.547 0.222218 1.93226 0
M  V30 4425 C 426.83 3.52316 0.74466 0
M  V30 4426 C 426.683 4.47337 -0.470101 0
M  V30 4427 C 428.002 4.10588 1.58447 0
M  V30 4428 H 425.121 0.725961 0.12708 0
M  V30 4429 H 427.763 1.86336 -0.371333 0
M  V30 4430 H 425.913 3.63829 1.36239 0
M  V30 4431 H 427.585 4.4778 -1.10864 0
M  V30 4432 H 425.828 4.19364 -1.10978 0
M  V30 4433 H 426.499 5.51788 -0.15291 0
M  V30 4434 H 428.975 4.02297 1.06286 0
M  V30 4435 H 427.851 5.17607 1.82686 0
M  V30 4436 H 428.112 3.60253 2.56262 0
M  V30 4437 N 427.171 -0.0066808 1.57599 0
M  V30 4438 C 428.582 -0.550379 1.78403 0
M  V30 4439 C 428.933 -1.74339 0.900014 0
M  V30 4440 O 428.058 -2.16166 0.100713 0
M  V30 4441 C 428.653 -1.00523 3.23544 0
M  V30 4442 C 427.212 -1.49428 3.45468 0
M  V30 4443 C 426.359 -0.442444 2.73748 0
M  V30 4444 H 429.31 0.219508 1.57175 0
M  V30 4445 H 429.331 -1.87157 3.31289 0
M  V30 4446 H 428.843 -0.136735 3.87859 0
M  V30 4447 H 426.944 -2.3839 2.86358 0
M  V30 4448 H 427.057 -1.52635 4.54136 0
M  V30 4449 H 425.421 -0.902578 2.38171 0
M  V30 4450 H 426.204 0.416973 3.40758 0
M  V30 4451 N 428.649 -1.55105 -0.279332 0
M  V30 4452 C 429.612 -1.86783 -1.32834 0
M  V30 4453 C 430.612 -0.74199 -1.42657 0
M  V30 4454 O 431.802 -1.0102 -1.41918 0
M  V30 4455 C 428.934 -2.06746 -2.71052 0
M  V30 4456 H 430.127 -2.8055 -1.05979 0
M  V30 4457 H 427.68 -1.47499 -0.517087 0
M  V30 4458 H 428.415 -1.15339 -3.03097 0
M  V30 4459 H 428.2 -2.88711 -2.65309 0
M  V30 4460 H 429.69 -2.32549 -3.46858 0
M  V30 4461 N 430.127 0.543554 -1.4793 0
M  V30 4462 C 431.355 1.32516 -1.58894 0
M  V30 4463 C 431.77 1.87215 -0.244131 0
M  V30 4464 O 431.127 1.65709 0.764652 0
M  V30 4465 C 431.178 2.48554 -2.62494 0
M  V30 4466 O 430.899 1.96112 -3.91755 0
M  V30 4467 C 432.4 3.40572 -2.8377 0
M  V30 4468 H 429.62 0.403472 -0.536145 0
M  V30 4469 H 432.164 0.657106 -1.93655 0
M  V30 4470 H 430.319 3.1127 -2.30629 0
M  V30 4471 H 430.733 2.71967 -4.4848 0
M  V30 4472 H 432.207 4.18375 -3.60093 0
M  V30 4473 H 432.684 3.94965 -1.92092 0
M  V30 4474 H 433.29 2.8366 -3.16887 0
M  V30 4475 N 431.605 1.3629 0.791371 0
M  V30 4476 C 432.537 1.26321 1.91248 0
M  V30 4477 C 433.55 0.18313 1.61767 0
M  V30 4478 O 434.739 0.437682 1.73051 0
M  V30 4479 C 431.839 0.925901 3.26007 0
M  V30 4480 C 431.012 2.10746 3.83281 0
M  V30 4481 C 430.071 1.74352 4.96475 0
M  V30 4482 O 429.097 2.46416 5.13096 0
M  V30 4483 N 430.299 0.676058 5.7655 0
M  V30 4484 H 433.064 2.22915 2.00323 0
M  V30 4485 H 430.625 1.29659 0.969546 0
M  V30 4486 H 432.617 0.663636 3.99222 0
M  V30 4487 H 431.187 0.0491581 3.12561 0
M  V30 4488 H 430.407 2.53264 3.02077 0
M  V30 4489 H 431.695 2.8969 4.18279 0
M  V30 4490 H 431.093 0.0776467 5.65647 0
M  V30 4491 H 429.65 0.473612 6.50077 0
M  V30 4492 N 433.083 -1.0153 1.20538 0
M  V30 4493 C 434.329 -1.75408 1.01783 0
M  V30 4494 C 434.662 -1.88943 -0.448814 0
M  V30 4495 O 433.937 -1.4162 -1.33319 0
M  V30 4496 C 434.22 -3.17255 1.70356 0
M  V30 4497 C 434.073 -3.11508 3.24473 0
M  V30 4498 C 435.392 -4.15955 1.43769 0
M  V30 4499 H 432.511 -0.636713 0.371167 0
M  V30 4500 H 435.153 -1.18436 1.4857 0
M  V30 4501 H 433.303 -3.65898 1.30578 0
M  V30 4502 H 434.975 -2.70658 3.73553 0
M  V30 4503 H 433.218 -2.4887 3.55311 0
M  V30 4504 H 433.889 -4.11784 3.67611 0
M  V30 4505 H 436.365 -3.75973 1.7828 0
M  V30 4506 H 435.241 -5.13368 1.94279 0
M  V30 4507 H 435.502 -4.40586 0.365564 0
M  V30 4508 N 434.561 -1.01147 -1.20859 0
M  V30 4509 C 435.786 -0.716698 -1.94623 0
M  V30 4510 C 436.211 0.715415 -1.73964 0
M  V30 4511 O 435.569 1.49157 -1.03062 0
M  V30 4512 C 435.617 -1.0513 -3.44935 0
M  V30 4513 O 434.721 -0.160131 -4.12089 0
M  V30 4514 H 434.062 -0.266404 -0.608214 0
M  V30 4515 H 436.592 -1.35346 -1.53436 0
M  V30 4516 H 436.602 -1.00086 -3.95533 0
M  V30 4517 H 435.277 -2.09475 -3.59295 0
M  V30 4518 H 433.854 -0.267657 -3.71938 0
M  V30 4519 N 436.039 1.36541 -0.78704 0
M  V30 4520 C 437.285 1.99599 -0.358872 0
M  V30 4521 C 437.618 1.62323 1.06606 0
M  V30 4522 O 436.893 0.876858 1.73613 0
M  V30 4523 C 437.176 3.56327 -0.519944 0
M  V30 4524 C 437.029 4.03464 -1.98839 0
M  V30 4525 C 438.348 4.4005 0.0664737 0
M  V30 4526 H 435.467 0.725107 -0.131869 0
M  V30 4527 H 438.109 1.6199 -0.992936 0
M  V30 4528 H 436.259 3.88495 0.0198321 0
M  V30 4529 H 437.931 3.81793 -2.58905 0
M  V30 4530 H 436.174 3.55092 -2.49183 0
M  V30 4531 H 436.845 5.12439 -2.05207 0
M  V30 4532 H 439.321 4.14228 -0.394267 0
M  V30 4533 H 438.197 5.48847 -0.0762682 0
M  V30 4534 H 438.458 4.26655 1.15835 0
M  V30 4535 N 437.518 0.538854 1.48102 0
M  V30 4536 C 438.743 0.0102694 2.07397 0
M  V30 4537 C 439.168 -1.26562 1.39153 0
M  V30 4538 O 438.526 -1.75357 0.460387 0
M  V30 4539 C 438.574 -0.187602 3.60112 0
M  V30 4540 O 437.678 -1.25432 3.92862 0
M  V30 4541 H 437.019 0.0430975 0.6626 0
M  V30 4542 H 439.549 0.749301 1.90385 0
M  V30 4543 H 439.559 -0.407517 4.0596 0
M  V30 4544 H 438.234 0.744386 4.09184 0
M  V30 4545 H 436.811 -1.01636 3.58782 0
M  V30 4546 N 438.996 -1.55193 0.274407 0
M  V30 4547 C 440.273 -1.91584 -0.394331 0
M  V30 4548 C 440.653 -1.19858 -1.73774 0
M  V30 4549 O 440.001 -0.3252 -2.26174 0
M  V30 4550 C 440.211 -3.4487 -0.535311 0
M  V30 4551 C 441.559 -4.16636 -0.818534 0
M  V30 4552 O 442.583 -3.5076 -0.620146 0
M  V30 4553 O 441.442 -5.33209 -1.19792 0
M  V30 4554 H 438.536 -0.798349 -0.215794 0
M  V30 4555 H 441.082 -1.66646 0.320507 0
M  V30 4556 H 439.854 -3.89145 0.410141 0
M  V30 4557 H 439.477 -3.75759 -1.29964 0
M  V30 4558 N 440.474 -0.00167713 -1.576 0
M  V30 4559 C 441.702 0.693759 -1.94922 0
M  V30 4560 C 442.117 1.67215 -0.876626 0
M  V30 4561 O 441.474 1.81929 0.144279 0
M  V30 4562 C 441.525 1.42416 -3.32265 0
M  V30 4563 O 441.246 0.485014 -4.35407 0
M  V30 4564 C 442.747 2.21395 -3.84056 0
M  V30 4565 H 439.967 0.193118 -0.642609 0
M  V30 4566 H 442.511 -0.0532952 -2.04431 0
M  V30 4567 H 440.666 2.12284 -3.24059 0
M  V30 4568 H 441.08 1.00053 -5.14868 0
M  V30 4569 H 442.554 2.67996 -4.82578 0
M  V30 4570 H 443.031 3.04142 -3.16851 0
M  V30 4571 H 443.637 1.56542 -3.95443 0
M  V30 4572 N 441.952 1.55251 0.271103 0
M  V30 4573 C 443.198 1.76207 1.00394 0
M  V30 4574 C 443.531 0.562604 1.85872 0
M  V30 4575 O 442.806 -0.439785 1.89463 0
M  V30 4576 C 443.089 3.06828 1.8849 0
M  V30 4577 C 442.942 4.37134 1.05992 0
M  V30 4578 C 444.261 3.33503 2.87165 0
M  V30 4579 H 441.38 0.641086 0.363562 0
M  V30 4580 H 444.022 1.87982 0.276189 0
M  V30 4581 H 442.172 2.96921 2.5054 0
M  V30 4582 H 443.844 4.59001 0.459978 0
M  V30 4583 H 442.087 4.32275 0.363443 0
M  V30 4584 H 442.758 5.2486 1.70955 0
M  V30 4585 H 445.234 3.43215 2.3525 0
M  V30 4586 H 444.11 4.2616 3.45946 0
M  V30 4587 H 444.371 2.53235 3.62387 0
M  V30 4588 N 443.43 -0.535701 1.48216 0
M  V30 4589 C 444.655 -1.32149 1.59848 0
M  V30 4590 C 445.08 -1.86338 0.256842 0
M  V30 4591 O 444.438 -1.64107 -0.770632 0
M  V30 4592 C 444.486 -2.45224 2.64381 0
M  V30 4593 O 443.59 -3.48093 2.21144 0
M  V30 4594 H 442.931 -0.391634 0.536208 0
M  V30 4595 H 445.461 -0.645202 1.94161 0
M  V30 4596 H 445.471 -2.91491 2.85476 0
M  V30 4597 H 444.146 -2.05143 3.61786 0
M  V30 4598 H 442.723 -3.07984 2.10239 0
M  V30 4599 N 444.908 -1.36708 -0.784132 0
M  V30 4600 C 446.136 -1.34398 -1.57305 0
M  V30 4601 C 446.551 0.0735577 -1.88657 0
M  V30 4602 O 445.908 1.03193 -1.50524 0
M  V30 4603 C 445.959 -2.17053 -2.89085 0
M  V30 4604 O 445.68 -3.53281 -2.59083 0
M  V30 4605 C 447.181 -2.22583 -3.83369 0
M  V30 4606 H 444.401 -0.460819 -0.487736 0
M  V30 4607 H 446.945 -1.79879 -0.972819 0
M  V30 4608 H 445.1 -1.75113 -3.45564 0
M  V30 4609 H 445.514 -3.9647 -3.43383 0
M  V30 4610 H 446.988 -2.84763 -4.72878 0
M  V30 4611 H 447.465 -1.23075 -4.21603 0
M  V30 4612 H 448.071 -2.64781 -3.32823 0
M  V30 4613 N 446.386 1.0089 -1.21074 0
M  V30 4614 C 447.616 1.77933 -1.04993 0
M  V30 4615 C 448.024 1.84847 0.403495 0
M  V30 4616 O 447.367 1.30606 1.29181 0
M  V30 4617 C 447.429 3.23541 -1.56722 0
M  V30 4618 C 447.093 3.40214 -3.05129 0
M  V30 4619 C 448.09 3.2881 -4.02716 0
M  V30 4620 C 445.775 3.65781 -3.44252 0
M  V30 4621 C 447.769 3.42732 -5.37414 0
M  V30 4622 C 445.456 3.79346 -4.79103 0
M  V30 4623 C 446.454 3.67827 -5.75493 0
M  V30 4624 O 446.142 3.80965 -7.07899 0
M  V30 4625 H 445.874 0.566157 -0.369381 0
M  V30 4626 H 448.428 1.27826 -1.60779 0
M  V30 4627 H 446.658 3.74766 -0.953285 0
M  V30 4628 H 448.347 3.82245 -1.36543 0
M  V30 4629 H 449.113 3.08986 -3.73835 0
M  V30 4630 H 444.992 3.73831 -2.69762 0
M  V30 4631 H 448.536 3.33658 -6.12632 0
M  V30 4632 H 444.433 3.98672 -5.07672 0
M  V30 4633 H 445.201 3.97937 -7.15254 0
M  V30 4634 N 447.864 1.01787 1.20321 0
M  V30 4635 C 448.794 0.609625 2.25401 0
M  V30 4636 C 449.775 -0.375951 1.65893 0
M  V30 4637 O 450.96 -0.261101 1.92437 0
M  V30 4638 C 448.09 -0.0515995 3.47262 0
M  V30 4639 C 447.044 0.855095 4.19371 0
M  V30 4640 C 446.37 0.0595757 5.34667 0
M  V30 4641 C 447.67 2.16374 4.75373 0
M  V30 4642 H 449.364 1.48803 2.59804 0
M  V30 4643 H 446.91 0.716934 1.24884 0
M  V30 4644 H 448.863 -0.348764 4.19954 0
M  V30 4645 H 447.587 -0.964726 3.12027 0
M  V30 4646 H 446.246 1.13628 3.48546 0
M  V30 4647 H 445.894 -0.85524 4.95676 0
M  V30 4648 H 445.594 0.663406 5.83843 0
M  V30 4649 H 447.118 -0.231105 6.10162 0
M  V30 4650 H 448.532 1.92885 5.39878 0
M  V30 4651 H 446.929 2.71853 5.34991 0
M  V30 4652 H 447.999 2.82589 3.94045 0
M  V30 4653 N 449.342 -1.36122 0.79427 0
M  V30 4654 C 450.589 -1.99111 0.368905 0
M  V30 4655 C 450.917 -1.63032 -1.0607 0
M  V30 4656 O 450.172 -0.879303 -1.74833 0
M  V30 4657 C 450.471 -3.5409 0.48527 0
M  V30 4658 C 450.137 -4.10003 1.87638 0
M  V30 4659 C 448.799 -4.24986 2.257 0
M  V30 4660 C 451.151 -4.40423 2.78706 0
M  V30 4661 C 448.479 -4.67701 3.54221 0
M  V30 4662 C 450.831 -4.84573 4.0666 0
M  V30 4663 C 449.495 -4.97761 4.44737 0
M  V30 4664 H 448.765 -0.7286 0.134992 0
M  V30 4665 H 451.412 -1.62534 1.01267 0
M  V30 4666 H 449.717 -3.91052 -0.241984 0
M  V30 4667 H 451.414 -4.00766 0.137109 0
M  V30 4668 H 448.004 -3.98784 1.57064 0
M  V30 4669 H 452.188 -4.28412 2.50553 0
M  V30 4670 H 447.444 -4.761 3.83587 0
M  V30 4671 H 451.618 -5.07074 4.77336 0
M  V30 4672 H 449.245 -5.30618 5.44379 0
M  V30 4673 N 450.82 -0.546701 -1.47814 0
M  V30 4674 C 451.768 0.220048 -2.31557 0
M  V30 4675 C 452.762 0.919472 -1.42275 0
M  V30 4676 O 453.968 0.841953 -1.59095 0
M  V30 4677 H 450.343 0.0898334 -0.746615 0
M  V30 4678 H 452.314 -0.505589 -2.94086 0
M  V30 4679 C 451.063 1.24353 -3.24702 0
M  V30 4680 H 450.386 0.714758 -3.93359 0
M  V30 4681 H 451.826 1.75112 -3.8615 0
M  V30 4682 C 450.285 2.28593 -2.47481 0
M  V30 4683 O 450.815 3.35334 -2.21165 0
M  V30 4684 N 449.021 2.02244 -2.08676 0
M  V30 4685 H 448.568 1.15455 -2.30278 0
M  V30 4686 H 448.526 2.72207 -1.57323 0
M  V30 4687 N 452.299 1.55045 -0.282633 0
M  V30 4688 C 453.524 2.04628 0.337977 0
M  V30 4689 C 453.949 1.15937 1.48123 0
M  V30 4690 O 453.307 0.159532 1.80597 0
M  V30 4691 C 453.355 3.51854 0.78936 0
M  V30 4692 O 452.459 3.66236 1.89592 0
M  V30 4693 H 451.8 0.660434 0.0687261 0
M  V30 4694 H 454.33 2.00261 -0.419124 0
M  V30 4695 H 454.34 3.93361 1.08311 0
M  V30 4696 H 453.015 4.15873 -0.0470419 0
M  V30 4697 H 451.592 3.36633 1.60413 0
M  V30 4698 N 453.777 0.010035 1.57597 0
M  V30 4699 C 454.709 -1.00649 2.05918 0
M  V30 4700 C 455.722 -1.30077 0.978964 0
M  V30 4701 O 456.911 -1.26878 1.25556 0
M  V30 4702 C 454.011 -2.33876 2.45265 0
M  V30 4703 C 453.184 -2.23242 3.7614 0
M  V30 4704 C 452.243 -3.39242 4.02245 0
M  V30 4705 O 451.269 -3.1698 4.72771 0
M  V30 4706 N 452.471 -4.6242 3.50924 0
M  V30 4707 H 455.236 -0.594333 2.93748 0
M  V30 4708 H 452.797 -0.17714 1.60928 0
M  V30 4709 H 454.789 -3.1027 2.59836 0
M  V30 4710 H 453.359 -2.66799 1.62902 0
M  V30 4711 H 452.579 -1.31696 3.71551 0
M  V30 4712 H 453.867 -2.13321 4.61922 0
M  V30 4713 H 453.265 -4.83404 2.93832 0
M  V30 4714 H 451.822 -5.36046 3.70807 0
M  V30 4715 N 455.255 -1.55392 -0.262866 0
M  V30 4716 C 456.185 -1.91978 -1.32917 0
M  V30 4717 C 457.166 -0.7828 -1.51017 0
M  V30 4718 O 458.351 -1.04178 -1.63892 0
M  V30 4719 C 455.481 -2.20055 -2.68687 0
M  V30 4720 C 454.435 -3.35854 -2.65304 0
M  V30 4721 C 453.761 -3.49435 -4.04721 0
M  V30 4722 C 455.061 -4.71977 -2.23685 0
M  V30 4723 H 456.755 -2.81292 -1.02544 0
M  V30 4724 H 454.301 -1.3534 -0.491846 0
M  V30 4725 H 456.254 -2.44237 -3.43404 0
M  V30 4726 H 454.978 -1.27551 -3.00663 0
M  V30 4727 H 453.637 -3.11655 -1.93045 0
M  V30 4728 H 453.285 -2.54379 -4.33936 0
M  V30 4729 H 452.985 -4.27297 -4.0335 0
M  V30 4730 H 454.509 -3.7592 -4.81161 0
M  V30 4731 H 455.923 -4.95637 -2.88127 0
M  V30 4732 H 454.32 -5.52828 -2.33456 0
M  V30 4733 H 455.39 -4.70115 -1.18827 0
M  V30 4734 N 456.733 0.527833 -1.48498 0
M  V30 4735 C 457.663 1.64136 -1.66077 0
M  V30 4736 C 458.644 1.62286 -0.509625 0
M  V30 4737 O 459.829 1.79449 -0.742413 0
M  V30 4738 C 456.959 3.02717 -1.70234 0
M  V30 4739 C 455.913 3.19426 -2.8487 0
M  V30 4740 C 455.239 4.5909 -2.74118 0
M  V30 4741 C 456.539 3.01993 -4.26142 0
M  V30 4742 H 458.233 1.4968 -2.593 0
M  V30 4743 H 455.779 0.718654 -1.24785 0
M  V30 4744 H 457.732 3.80491 -1.8112 0
M  V30 4745 H 456.456 3.18201 -0.735911 0
M  V30 4746 H 455.115 2.4407 -2.73542 0
M  V30 4747 H 454.763 4.71413 -1.7544 0
M  V30 4748 H 454.463 4.71214 -3.51042 0
M  V30 4749 H 455.987 5.3896 -2.86974 0
M  V30 4750 H 457.401 3.69558 -4.38292 0
M  V30 4751 H 455.798 3.2561 -5.04082 0
M  V30 4752 H 456.868 1.98396 -4.42456 0
M  V30 4753 N 458.211 1.37122 0.776871 0
M  V30 4754 C 459.436 1.354 1.57104 0
M  V30 4755 C 459.861 -0.0595562 1.88006 0
M  V30 4756 O 459.219 -1.03514 1.48844 0
M  V30 4757 C 459.267 2.19472 2.8612 0
M  V30 4758 O 458.371 1.59582 3.80273 0
M  V30 4759 H 457.712 0.462869 0.476076 0
M  V30 4760 H 460.242 1.80577 0.961932 0
M  V30 4761 H 460.252 2.32502 3.35271 0
M  V30 4762 H 458.927 3.22222 2.62956 0
M  V30 4763 H 457.504 1.55564 3.38902 0
M  V30 4764 N 459.689 -1.00246 1.21608 0
M  V30 4765 C 461.105 -1.26435 0.973975 0
M  V30 4766 C 461.305 -1.98642 -0.338143 0
M  V30 4767 O 460.361 -2.29026 -1.06317 0
M  V30 4768 C 461.674 -2.08551 2.16626 0
M  V30 4769 C 463.222 -2.21769 2.20879 0
M  V30 4770 C 463.697 -3.07267 3.39633 0
M  V30 4771 N 465.188 -3.14855 3.39736 0
M  V30 4772 C 465.923 -3.81274 4.28273 0
M  V30 4773 N 465.419 -4.497 5.27012 0
M  V30 4774 N 467.212 -3.7794 4.16074 0
M  V30 4775 H 459.363 -0.518089 2.05984 0
M  V30 4776 H 461.626 -0.291368 0.902113 0
M  V30 4777 H 461.332 -1.62847 3.11727 0
M  V30 4778 H 461.206 -3.09303 2.15897 0
M  V30 4779 H 463.593 -2.66691 1.26332 0
M  V30 4780 H 463.674 -1.20478 2.25652 0
M  V30 4781 H 463.318 -2.63047 4.34475 0
M  V30 4782 H 463.248 -4.08678 3.321 0
M  V30 4783 H 465.739 -2.66147 2.6828 0
M  V30 4784 H 466.052 -4.98092 5.90867 0
M  V30 4785 H 464.397 -4.48479 5.30935 0
M  V30 4786 H 467.588 -3.23638 3.38195 0
M  V30 4787 H 467.761 -4.29424 4.85282 0
M  V30 4788 N 461.167 -1.02423 -1.1978 0
M  V30 4789 C 462.444 -0.632802 -1.85081 0
M  V30 4790 C 462.824 0.888745 -1.9148 0
M  V30 4791 O 462.172 1.78357 -1.42832 0
M  V30 4792 C 462.382 -1.28947 -3.24305 0
M  V30 4793 C 463.73 -1.40976 -4.00513 0
M  V30 4794 O 464.754 -1.24628 -3.33686 0
M  V30 4795 O 463.613 -1.67467 -5.20209 0
M  V30 4796 H 460.707 -0.219348 -0.79738 0
M  V30 4797 H 463.253 -1.12209 -1.27307 0
M  V30 4798 H 462.025 -2.3288 -3.14456 0
M  V30 4799 H 461.648 -0.787748 -3.89718 0
M  V30 4800 N 462.645 1.35699 -0.801477 0
M  V30 4801 C 463.922 1.9324 -0.302937 0
M  V30 4802 C 464.302 1.73209 1.20672 0
M  V30 4803 O 463.65 1.09809 2.00385 0
M  V30 4804 C 463.86 3.41728 -0.708747 0
M  V30 4805 C 465.208 4.18868 -0.695328 0
M  V30 4806 O 466.232 3.5022 -0.649971 0
M  V30 4807 O 465.091 5.41342 -0.749081 0
M  V30 4808 H 462.185 0.82331 -0.0780367 0
M  V30 4809 H 464.731 1.44806 -0.884832 0
M  V30 4810 H 463.503 3.50015 -1.74944 0
M  V30 4811 H 463.126 3.97471 -0.101384 0
M  V30 4812 N 464.123 0.554532 1.47522 0
M  V30 4813 C 465.371 0.0294208 2.02079 0
M  V30 4814 C 465.692 -1.32411 1.43151 0
M  V30 4815 O 464.962 -1.863 0.605728 0
M  V30 4816 H 463.542 0.00788672 0.746958 0
M  V30 4817 H 466.204 0.723934 1.80956 0
M  V30 4818 H 465.3 -0.0606745 3.12041 0
M  V30 4819 N 465.601 -1.54893 0.290851 0
M  V30 4820 C 466.826 -2.04804 -0.32712 0
M  V30 4821 C 467.251 -1.16721 -1.47506 0
M  V30 4822 O 466.609 -0.169107 -1.8051 0
M  V30 4823 C 466.657 -3.52268 -0.770689 0
M  V30 4824 O 465.761 -3.67236 -1.87647 0
M  V30 4825 H 465.102 -0.660789 -0.0652227 0
M  V30 4826 H 467.632 -2.00036 0.429739 0
M  V30 4827 H 467.642 -3.9393 -1.06223 0
M  V30 4828 H 466.317 -4.15843 0.069096 0
M  V30 4829 H 464.894 -3.37479 -1.58626 0
M  V30 4830 N 467.08 -0.0183926 -1.57589 0
M  V30 4831 C 468.013 1.00148 -2.0505 0
M  V30 4832 C 468.991 1.32387 -0.944058 0
M  V30 4833 O 470.175 1.44237 -1.21358 0
M  V30 4834 C 467.302 2.32435 -2.46357 0
M  V30 4835 C 466.348 2.15731 -3.67916 0
M  V30 4836 S 467.181 1.46613 -5.15039 0
M  V30 4837 C 468.337 2.80293 -5.59631 0
M  V30 4838 H 468.57 0.597429 -2.91235 0
M  V30 4839 H 466.103 0.193002 -1.53189 0
M  V30 4840 H 468.061 3.0849 -2.70822 0
M  V30 4841 H 466.722 2.69975 -1.60537 0
M  V30 4842 H 465.915 3.13502 -3.9463 0
M  V30 4843 H 465.517 1.4782 -3.43548 0
M  V30 4844 H 467.809 3.76557 -5.63215 0
M  V30 4845 H 468.752 2.58256 -6.59325 0
M  V30 4846 H 469.16 2.85047 -4.87246 0
M  V30 4847 N 468.558 1.5553 0.254621 0
M  V30 4848 C 469.491 1.84624 1.34124 0
M  V30 4849 C 470.469 0.700693 1.46728 0
M  V30 4850 O 471.653 0.94564 1.63064 0
M  V30 4851 C 468.78 2.02412 2.71564 0
M  V30 4852 C 467.826 3.25028 2.7615 0
M  V30 4853 S 468.659 4.81893 2.33538 0
M  V30 4854 C 469.815 5.02677 3.72917 0
M  V30 4855 H 470.048 2.76501 1.09245 0
M  V30 4856 H 467.581 1.47537 0.455211 0
M  V30 4857 H 469.539 2.13345 3.50705 0
M  V30 4858 H 468.2 1.11391 2.93685 0
M  V30 4859 H 467.393 3.34418 3.77069 0
M  V30 4860 H 466.995 3.12781 2.05046 0
M  V30 4861 H 469.287 4.89546 4.68349 0
M  V30 4862 H 470.23 6.0468 3.68467 0
M  V30 4863 H 470.638 4.30561 3.65072 0
M  V30 4864 N 470.036 -0.519951 1.48776 0
M  V30 4865 C 470.966 -1.63253 1.66945 0
M  V30 4866 C 471.947 -1.62014 0.518224 0
M  V30 4867 O 473.132 -1.79053 0.751919 0
M  V30 4868 C 470.262 -3.0181 1.71836 0
M  V30 4869 C 469.216 -3.17911 2.8656 0
M  V30 4870 C 468.542 -4.5763 2.76548 0
M  V30 4871 C 469.842 -2.99729 4.27738 0
M  V30 4872 H 471.536 -1.48302 2.6009 0
M  V30 4873 H 469.082 -0.712026 1.25165 0
M  V30 4874 H 471.035 -3.79525 1.83135 0
M  V30 4875 H 469.759 -3.17806 0.752775 0
M  V30 4876 H 468.418 -2.42616 2.74833 0
M  V30 4877 H 468.066 -4.70476 1.77937 0
M  V30 4878 H 467.766 -4.69346 3.53536 0
M  V30 4879 H 469.29 -5.37431 2.89828 0
M  V30 4880 H 470.704 -3.67228 4.40246 0
M  V30 4881 H 469.101 -3.22932 5.05801 0
M  V30 4882 H 470.171 -1.96047 4.43502 0
M  V30 4883 N 471.514 -1.37532 -0.769588 0
M  V30 4884 C 472.76 -1.33057 -1.53048 0
M  V30 4885 C 473.093 0.0841865 -1.94017 0
M  V30 4886 O 472.368 1.04198 -1.64235 0
M  V30 4887 C 472.651 -2.27166 -2.79406 0
M  V30 4888 C 472.504 -3.77429 -2.44677 0
M  V30 4889 C 473.823 -2.19683 -3.81349 0
M  V30 4890 H 470.942 -0.484655 -0.555228 0
M  V30 4891 H 473.584 -1.68251 -0.882702 0
M  V30 4892 H 471.734 -1.97283 -3.34682 0
M  V30 4893 H 473.406 -4.17918 -1.953 0
M  V30 4894 H 471.649 -3.95892 -1.77346 0
M  V30 4895 H 472.32 -4.38716 -3.35011 0
M  V30 4896 H 474.796 -2.46029 -3.35573 0
M  V30 4897 H 473.672 -2.87668 -4.67481 0
M  V30 4898 H 473.933 -1.19045 -4.25771 0
M  V30 4899 N 472.992 0.995999 -1.22138 0
M  V30 4900 C 473.922 2.10387 -1.01289 0
M  V30 4901 C 474.903 1.69975 0.0651454 0
M  V30 4902 O 476.088 1.9396 -0.0964628 0
M  V30 4903 C 473.218 3.42312 -0.586517 0
M  V30 4904 C 472.172 3.96558 -1.61014 0
M  V30 4905 C 471.498 5.24494 -1.0397 0
M  V30 4906 C 472.798 4.27595 -2.99933 0
M  V30 4907 H 474.492 2.28086 -1.93951 0
M  V30 4908 H 472.038 1.09607 -0.933928 0
M  V30 4909 H 473.991 4.19223 -0.427793 0
M  V30 4910 H 472.715 3.24431 0.375761 0
M  V30 4911 H 471.374 3.21776 -1.75658 0
M  V30 4912 H 471.022 5.02953 -0.0688703 0
M  V30 4913 H 470.722 5.61755 -1.72352 0
M  V30 4914 H 472.246 6.04042 -0.892494 0
M  V30 4915 H 473.66 4.95315 -2.8868 0
M  V30 4916 H 472.057 4.76021 -3.6541 0
M  V30 4917 H 473.127 3.35498 -3.50099 0
M  V30 4918 N 474.47 1.03057 1.19235 0
M  V30 4919 C 475.881 0.757449 1.70645 0
M  V30 4920 C 476.232 -0.722735 1.82403 0
M  V30 4921 O 475.357 -1.56325 1.49638 0
M  V30 4922 C 475.952 1.36833 3.09939 0
M  V30 4923 C 474.511 1.14375 3.58602 0
M  V30 4924 C 473.658 1.46533 2.35422 0
M  V30 4925 H 476.609 1.19828 1.04052 0
M  V30 4926 H 476.63 0.766184 3.72706 0
M  V30 4927 H 476.142 2.44562 3.01349 0
M  V30 4928 H 474.243 0.0847542 3.72504 0
M  V30 4929 H 474.356 1.83366 4.42622 0
M  V30 4930 H 472.72 0.884712 2.38841 0
M  V30 4931 H 473.503 2.55349 2.2946 0
M  V30 4932 N 475.948 -1.35272 0.808662 0
M  V30 4933 C 476.88 -2.28507 0.178149 0
M  V30 4934 C 477.893 -1.50377 -0.623754 0
M  V30 4935 O 479.082 -1.72583 -0.455774 0
M  V30 4936 C 476.182 -3.30038 -0.769959 0
M  V30 4937 C 475.355 -4.37398 -0.0139749 0
M  V30 4938 C 474.414 -5.18775 -0.880875 0
M  V30 4939 O 473.44 -5.68236 -0.331059 0
M  V30 4940 N 474.642 -5.37087 -2.20267 0
M  V30 4941 H 477.407 -2.83255 0.979106 0
M  V30 4942 H 474.968 -1.47643 0.664308 0
M  V30 4943 H 476.96 -3.81371 -1.35418 0
M  V30 4944 H 475.53 -2.75789 -1.47171 0
M  V30 4945 H 474.75 -3.86971 0.751468 0
M  V30 4946 H 476.038 -5.06268 0.506965 0
M  V30 4947 H 475.436 -4.9855 -2.67328 0
M  V30 4948 H 473.993 -5.91593 -2.73608 0
M  V30 4949 N 477.426 -0.562348 -1.47226 0
M  V30 4950 C 478.336 0.185466 -2.33866 0
M  V30 4951 C 479.352 0.906713 -1.48508 0
M  V30 4952 O 480.528 0.874458 -1.81425 0
M  V30 4953 C 477.593 1.19904 -3.25306 0
M  V30 4954 C 476.654 0.484669 -4.26555 0
M  V30 4955 C 475.887 1.44996 -5.13626 0
M  V30 4956 O 476.11 2.68515 -5.03245 0
M  V30 4957 O 475.044 0.971642 -5.94006 0
M  V30 4958 H 478.87 -0.525361 -2.99121 0
M  V30 4959 H 476.455 -0.322916 -1.45868 0
M  V30 4960 H 478.337 1.78399 -3.81774 0
M  V30 4961 H 477.012 1.8917 -2.62672 0
M  V30 4962 H 475.919 -0.141605 -3.73832 0
M  V30 4963 H 477.252 -0.166634 -4.91918 0
M  V30 4964 N 478.904 1.54736 -0.299062 0
M  V30 4965 C 480.144 2.0201 0.31168 0
M  V30 4966 C 480.508 1.18281 1.5124 0
M  V30 4967 O 481.709 1.55243 2.19438 0
M  V30 4968 C 479.98 3.5123 0.661227 0
M  V30 4969 S 481.539 4.20467 1.2551 0
M  V30 4970 H 478.357 0.704523 0.0957517 0
M  V30 4971 H 480.959 1.90791 -0.426482 0
M  V30 4972 H 479.663 4.09804 -0.221171 0
M  V30 4973 H 479.194 3.66481 1.43023 0
M  V30 4974 H 481.209 4.26083 2.54298 0
M  V30 4975 N 480.382 0.0267497 1.57577 0
M  V30 4976 C 481.798 -0.32962 1.56159 0
M  V30 4977 C 481.998 -1.73059 1.03213 0
M  V30 4978 O 481.054 -2.43233 0.677804 0
M  V30 4979 C 482.367 -0.18039 3.00158 0
M  V30 4980 C 483.915 -0.253334 3.11973 0
M  V30 4981 C 484.39 -0.132921 4.57807 0
M  V30 4982 N 485.881 -0.189979 4.6281 0
M  V30 4983 C 486.616 -0.120554 5.73273 0
M  V30 4984 N 486.112 -0.000180315 6.928 0
M  V30 4985 N 487.905 -0.174369 5.61829 0
M  V30 4986 H 480.056 0.942896 1.90324 0
M  V30 4987 H 482.319 0.3639 0.875375 0
M  V30 4988 H 482.025 0.784576 3.42837 0
M  V30 4989 H 481.899 -0.951565 3.65 0
M  V30 4990 H 484.286 -1.20876 2.69208 0
M  V30 4991 H 484.367 0.548177 2.49857 0
M  V30 4992 H 484.011 0.819073 5.01252 0
M  V30 4993 H 483.941 -0.953264 5.179 0
M  V30 4994 H 486.432 -0.283257 3.76837 0
M  V30 4995 H 486.745 0.0461666 7.72786 0
M  V30 4996 H 485.09 0.034569 6.94991 0
M  V30 4997 H 488.281 -0.266794 4.67339 0
M  V30 4998 H 488.454 -0.116802 6.47895 0
M  V30 4999 N 481.861 -1.55662 -0.24637 0
M  V30 5000 C 482.771 -1.93495 -1.32653 0
M  V30 5001 C 483.787 -0.835462 -1.5263 0
M  V30 5002 O 484.963 -1.1369 -1.66242 0
M  V30 5003 C 482.028 -2.22242 -2.66101 0
M  V30 5004 C 481.089 -3.45625 -2.54641 0
M  V30 5005 C 480.322 -3.72991 -3.81724 0
M  V30 5006 O 480.545 -3.02421 -4.8363 0
M  V30 5007 O 479.479 -4.66515 -3.80325 0
M  V30 5008 H 483.305 -2.85498 -1.03559 0
M  V30 5009 H 480.89 -1.42551 -0.44717 0
M  V30 5010 H 482.772 -2.42037 -3.44958 0
M  V30 5011 H 481.447 -1.33417 -2.94926 0
M  V30 5012 H 480.354 -3.31136 -1.74067 0
M  V30 5013 H 481.687 -4.34754 -2.3076 0
M  V30 5014 N 483.339 0.512053 -1.4905 0
M  V30 5015 C 484.289 1.61142 -1.61298 0
M  V30 5016 C 485.273 1.53908 -0.46916 0
M  V30 5017 O 486.465 1.61625 -0.721547 0
M  V30 5018 C 483.594 2.998 -1.67256 0
M  V30 5019 C 482.68 3.12072 -2.87179 0
M  V30 5020 N 483.071 2.94263 -4.11391 0
M  V30 5021 C 481.369 3.43156 -2.84886 0
M  V30 5022 C 482.07 3.10426 -4.91946 0
M  V30 5023 N 481.046 3.38808 -4.251 0
M  V30 5024 H 484.848 1.46011 -2.55065 0
M  V30 5025 H 482.362 0.717934 -1.45669 0
M  V30 5026 H 484.359 3.78794 -1.74128 0
M  V30 5027 H 483.019 3.1601 -0.746195 0
M  V30 5028 H 484.03 2.70661 -4.41546 0
M  V30 5029 H 480.707 3.65611 -2.01581 0
M  V30 5030 H 482.097 3.01243 -6.00585 0
M  V30 5031 N 484.817 1.37938 0.762283 0
M  V30 5032 C 485.78 1.34279 1.85747 0
M  V30 5033 C 486.78 0.244969 1.58923 0
M  V30 5034 O 487.97 0.501365 1.66829 0
M  V30 5035 C 485.102 1.08833 3.23061 0
M  V30 5036 H 486.295 2.31705 1.90401 0
M  V30 5037 H 483.848 1.23105 0.963057 0
M  V30 5038 H 484.583 0.119767 3.24079 0
M  V30 5039 H 484.368 1.88306 3.43923 0
M  V30 5040 H 485.858 1.08946 4.03138 0
M  V30 5041 N 486.295 -0.989507 1.22664 0
M  V30 5042 C 487.543 -1.72612 1.05117 0
M  V30 5043 C 487.864 -1.90552 -0.414131 0
M  V30 5044 O 487.134 -1.4676 -1.29762 0
M  V30 5045 H 485.714 -0.639555 0.385977 0
M  V30 5046 H 488.376 -1.19158 1.54232 0
M  V30 5047 H 487.472 -2.71926 1.53175 0
M  V30 5048 N 487.773 -1.03688 -1.18687 0
M  V30 5049 C 489.019 -0.739123 -1.88851 0
M  V30 5050 C 489.352 0.731042 -1.79915 0
M  V30 5051 O 488.627 1.53313 -1.19688 0
M  V30 5052 C 488.91 -1.20106 -3.3948 0
M  V30 5053 C 488.763 -2.73304 -3.57246 0
M  V30 5054 C 490.082 -0.788134 -4.32986 0
M  V30 5055 H 487.201 -0.269978 -0.68577 0
M  V30 5056 H 489.843 -1.28822 -1.3966 0
M  V30 5057 H 487.993 -0.733915 -3.81505 0
M  V30 5058 H 489.665 -3.28027 -3.24339 0
M  V30 5059 H 487.908 -3.13313 -3.00029 0
M  V30 5060 H 488.579 -3.00684 -4.62918 0
M  V30 5061 H 491.055 -1.19005 -3.98719 0
M  V30 5062 H 489.931 -1.13915 -5.36949 0
M  V30 5063 H 490.192 0.308988 -4.41019 0
M  V30 5064 N 489.251 1.34841 -0.815825 0
M  V30 5065 C 490.497 1.99219 -0.410288 0
M  V30 5066 C 490.852 1.63532 1.01366 0
M  V30 5067 O 490.145 0.893093 1.69512 0
M  V30 5068 C 490.339 3.53273 -0.541541 0
M  V30 5069 C 490.168 4.03927 -1.9767 0
M  V30 5070 C 488.938 4.32852 -2.60706 0
M  V30 5071 C 491.136 4.21808 -2.9425 0
M  V30 5072 N 489.118 4.69494 -3.95536 0
M  V30 5073 C 490.489 4.6155 -4.13971 0
M  V30 5074 C 492.544 4.04038 -2.9096 0
M  V30 5075 C 491.247 4.85381 -5.30847 0
M  V30 5076 C 493.273 4.29031 -4.07046 0
M  V30 5077 C 492.635 4.69054 -5.25517 0
M  V30 5078 H 488.734 0.756494 -0.198094 0
M  V30 5079 H 491.318 1.63379 -1.05902 0
M  V30 5080 H 489.489 3.88323 0.0772544 0
M  V30 5081 H 491.221 4.04551 -0.109694 0
M  V30 5082 H 487.976 4.23503 -2.11995 0
M  V30 5083 H 488.4 4.92061 -4.64979 0
M  V30 5084 H 493.042 3.7223 -2.00512 0
M  V30 5085 H 490.76 5.16059 -6.21859 0
M  V30 5086 H 494.346 4.16826 -4.05891 0
M  V30 5087 H 493.226 4.88014 -6.1385 0
M  V30 5088 N 490.729 0.570148 1.46925 0
M  V30 5089 C 491.977 0.0508523 2.02036 0
M  V30 5090 C 492.298 -1.30885 1.44548 0
M  V30 5091 O 491.568 -1.85647 0.625453 0
M  V30 5092 H 490.148 0.0158088 0.746833 0
M  V30 5093 H 492.81 0.743086 1.80178 0
M  V30 5094 H 491.906 -0.027575 3.12088 0
M  V30 5095 N 492.207 -1.54576 0.307264 0
M  V30 5096 C 493.437 -2.04378 -0.302158 0
M  V30 5097 C 493.845 -1.18381 -1.47589 0
M  V30 5098 O 493.188 -0.20352 -1.82569 0
M  V30 5099 C 493.25 -3.50133 -0.815305 0
M  V30 5100 C 492.914 -4.56401 0.233977 0
M  V30 5101 C 493.911 -5.08884 1.06456 0
M  V30 5102 C 491.596 -5.0088 0.377478 0
M  V30 5103 C 493.59 -6.04394 2.02452 0
M  V30 5104 C 491.277 -5.96208 1.34088 0
M  V30 5105 C 492.275 -6.47849 2.16288 0
M  V30 5106 O 491.963 -7.41308 3.10994 0
M  V30 5107 H 491.695 -0.672502 -0.0686839 0
M  V30 5108 H 494.249 -2.00484 0.446682 0
M  V30 5109 H 492.479 -3.51371 -1.61478 0
M  V30 5110 H 494.168 -3.83098 -1.34129 0
M  V30 5111 H 494.934 -4.75311 0.964596 0
M  V30 5112 H 490.813 -4.60309 -0.252405 0
M  V30 5113 H 494.357 -6.44626 2.66652 0
M  V30 5114 H 490.254 -6.29198 1.44154 0
M  V30 5115 H 491.022 -7.5913 3.06045 0
M  V30 5116 N 493.685 -0.035106 -1.57561 0
M  V30 5117 C 494.615 0.942993 -2.13612 0
M  V30 5118 C 495.596 1.33531 -1.05373 0
M  V30 5119 O 496.781 1.41287 -1.33235 0
M  V30 5120 C 493.911 2.22332 -2.66807 0
M  V30 5121 C 492.865 1.97156 -3.79886 0
M  V30 5122 C 492.191 3.31506 -4.19533 0
M  V30 5123 C 493.491 1.30596 -5.05709 0
M  V30 5124 H 495.185 0.476179 -2.95589 0
M  V30 5125 H 492.731 0.227602 -1.4219 0
M  V30 5126 H 494.684 2.91142 -3.04654 0
M  V30 5127 H 493.408 2.7119 -1.81999 0
M  V30 5128 H 492.067 1.30763 -3.42486 0
M  V30 5129 H 491.715 3.78134 -3.31698 0
M  V30 5130 H 491.415 3.15465 -4.95738 0
M  V30 5131 H 492.939 4.01574 -4.59968 0
M  V30 5132 H 494.353 1.89416 -5.41105 0
M  V30 5133 H 492.75 1.24934 -5.86951 0
M  V30 5134 H 493.82 0.279742 -4.84092 0
M  V30 5135 N 495.163 1.55791 0.238111 0
M  V30 5136 C 496.111 1.91885 1.31464 0
M  V30 5137 C 497.105 0.798929 1.49377 0
M  V30 5138 O 498.311 0.983626 1.50747 0
M  V30 5139 H 494.686 0.609551 0.440399 0
M  V30 5140 H 496.657 2.81747 0.982925 0
M  V30 5141 C 495.406 2.23763 2.6613 0
M  V30 5142 H 494.729 3.09444 2.53149 0
M  V30 5143 H 496.169 2.52915 3.40309 0
M  V30 5144 C 494.628 1.05699 3.1989 0
M  V30 5145 O 495.158 0.309524 4.00506 0
M  V30 5146 N 493.364 0.845251 2.78036 0
M  V30 5147 H 492.911 1.4548 2.12588 0
M  V30 5148 H 492.869 0.0569973 3.14348 0
M  V30 5149 N 496.642 -0.504142 1.49319 0
M  V30 5150 C 497.552 -1.63248 1.68486 0
M  V30 5151 C 498.568 -1.64488 0.567432 0
M  V30 5152 O 499.744 -1.82966 0.841749 0
M  V30 5153 C 496.809 -2.99627 1.74426 0
M  V30 5154 C 495.87 -3.09039 2.97982 0
M  V30 5155 C 495.103 -4.38913 3.0363 0
M  V30 5156 O 495.326 -5.27528 2.16958 0
M  V30 5157 O 494.26 -4.53231 3.96062 0
M  V30 5158 H 498.086 -1.50008 2.64067 0
M  V30 5159 H 495.671 -0.680086 1.33023 0
M  V30 5160 H 497.553 -3.80689 1.80705 0
M  V30 5161 H 496.228 -3.13136 0.820233 0
M  V30 5162 H 495.135 -2.27177 2.97223 0
M  V30 5163 H 496.468 -3.00456 3.89855 0
M  V30 5164 N 498.12 -1.38341 -0.754957 0
M  V30 5165 C 499.05 -1.38176 -1.88227 0
M  V30 5166 C 500.031 -0.247873 -1.68284 0
M  V30 5167 O 501.216 -0.45075 -1.88896 0
M  V30 5168 C 498.346 -1.20471 -3.25736 0
M  V30 5169 C 497.3 -2.3105 -3.60278 0
M  V30 5170 C 496.626 -1.98452 -4.96509 0
M  V30 5171 C 497.926 -3.73305 -3.65295 0
M  V30 5172 H 499.62 -2.32512 -1.88622 0
M  V30 5173 H 497.166 -1.1192 -0.906082 0
M  V30 5174 H 499.119 -1.18982 -4.04254 0
M  V30 5175 H 497.843 -0.225965 -3.25817 0
M  V30 5176 H 496.502 -2.31723 -2.84078 0
M  V30 5177 H 496.15 -0.990641 -4.93148 0
M  V30 5178 H 495.85 -2.7251 -5.20588 0
M  V30 5179 H 497.374 -1.98578 -5.77407 0
M  V30 5180 H 498.788 -3.7467 -4.3393 0
M  V30 5181 H 497.185 -4.46557 -4.00883 0
M  V30 5182 H 498.255 -4.05719 -2.65556 0
M  V30 5183 N 499.598 0.982988 -1.23187 0
M  V30 5184 C 500.528 2.09301 -1.03515 0
M  V30 5185 C 501.509 1.70035 0.0471136 0
M  V30 5186 O 502.694 1.93847 -0.117029 0
M  V30 5187 C 499.824 3.4167 -0.622791 0
M  V30 5188 C 498.778 3.94828 -1.65211 0
M  V30 5189 C 498.104 5.23362 -1.09527 0
M  V30 5190 C 499.404 4.2439 -3.04451 0
M  V30 5191 H 501.098 2.26016 -1.96359 0
M  V30 5192 H 498.644 1.08611 -0.945501 0
M  V30 5193 H 500.597 4.18746 -0.472233 0
M  V30 5194 H 499.321 3.24811 0.341329 0
M  V30 5195 H 497.98 3.19895 -1.79061 0
M  V30 5196 H 497.628 5.02852 -0.122211 0
M  V30 5197 H 497.328 5.59895 -1.783 0
M  V30 5198 H 498.852 6.03062 -0.956511 0
M  V30 5199 H 500.266 4.92225 -2.93917 0
M  V30 5200 H 498.663 4.72118 -3.70438 0
M  V30 5201 H 499.733 3.31765 -3.53638 0
M  V30 5202 N 501.076 1.04316 1.18135 0
M  V30 5203 C 502.039 0.640794 2.2006 0
M  V30 5204 C 503.039 -0.303124 1.57917 0
M  V30 5205 O 504.229 -0.0881855 1.73977 0
M  V30 5206 C 501.361 -0.060148 3.40847 0
M  V30 5207 H 502.554 1.54281 2.57172 0
M  V30 5208 H 500.107 0.836004 1.32063 0
M  V30 5209 H 500.842 -0.975845 3.0927 0
M  V30 5210 H 500.627 0.618319 3.87194 0
M  V30 5211 H 502.117 -0.328082 4.16309 0
M  V30 5212 N 502.554 -1.34406 0.822964 0
M  V30 5213 C 503.517 -2.2783 0.250271 0
M  V30 5214 C 504.517 -1.50288 -0.571854 0
M  V30 5215 O 505.707 -1.69825 -0.387952 0
M  V30 5216 C 502.839 -3.34663 -0.649137 0
M  V30 5217 H 504.032 -2.79992 1.07444 0
M  V30 5218 H 501.585 -1.44539 0.594829 0
M  V30 5219 H 502.32 -2.87714 -1.49637 0
M  V30 5220 H 502.105 -3.92052 -0.0611199 0
M  V30 5221 H 503.595 -4.04349 -1.04363 0
M  V30 5222 N 504.032 -0.577932 -1.46621 0
M  V30 5223 C 505.309 0.00495287 -1.95599 0
M  V30 5224 C 505.689 1.46428 -1.5206 0
M  V30 5225 O 505.037 2.1517 -0.769046 0
M  V30 5226 C 505.247 -0.162114 -3.48623 0
M  V30 5227 C 506.595 -0.0274623 -4.24591 0
M  V30 5228 O 507.619 -0.0907067 -3.56084 0
M  V30 5229 O 506.478 0.1122 -5.46385 0
M  V30 5230 H 503.572 0.0525057 -0.825332 0
M  V30 5231 H 506.118 -0.645914 -1.56927 0
M  V30 5232 H 504.89 -1.17679 -3.73185 0
M  V30 5233 H 504.513 0.525407 -3.94113 0
M  V30 5234 N 505.51 1.54411 -0.315457 0
M  V30 5235 C 506.458 2.25514 0.569771 0
M  V30 5236 C 507.452 1.2663 1.12522 0
M  V30 5237 O 508.658 1.44434 1.07419 0
M  V30 5238 H 505.033 0.724257 0.202376 0
M  V30 5239 H 507.004 2.98354 -0.0522895 0
M  V30 5240 C 505.753 3.02004 1.72305 0
M  V30 5241 H 505.076 3.77906 1.30488 0
M  V30 5242 H 506.516 3.55014 2.31821 0
M  V30 5243 C 504.975 2.09822 2.63583 0
M  V30 5244 O 505.505 1.67574 3.65078 0
M  V30 5245 N 503.711 1.75478 2.31637 0
M  V30 5246 H 503.258 2.10032 1.49145 0
M  V30 5247 H 503.216 1.14079 2.92973 0
M  V30 5248 N 506.988 0.0434614 1.5754 0
M  V30 5249 C 508.399 -0.493343 1.80064 0
M  V30 5250 C 508.75 -1.71388 0.955023 0
M  V30 5251 O 507.875 -2.15736 0.169434 0
M  V30 5252 C 508.47 -0.90179 3.26578 0
M  V30 5253 C 507.029 -1.38362 3.50047 0
M  V30 5254 C 506.176 -0.355129 2.75017 0
M  V30 5255 H 509.127 0.2694 1.56397 0
M  V30 5256 H 509.148 -1.76523 3.37075 0
M  V30 5257 H 508.66 -0.013271 3.88098 0
M  V30 5258 H 506.761 -2.29159 2.93798 0
M  V30 5259 H 506.874 -1.3811 4.58762 0
M  V30 5260 H 505.238 -0.826348 2.40922 0
M  V30 5261 H 506.021 0.525172 3.39259 0
M  V30 5262 N 508.466 -1.55915 -0.229846 0
M  V30 5263 C 509.715 -1.77742 -0.953455 0
M  V30 5264 C 510.028 -0.610524 -1.85828 0
M  V30 5265 O 511.234 -0.712219 -2.61992 0
M  V30 5266 C 509.69 -3.14738 -1.74551 0
M  V30 5267 C 509.298 -4.39126 -0.887242 0
M  V30 5268 C 511.042 -3.45895 -2.46084 0
M  V30 5269 C 508.949 -5.67149 -1.67617 0
M  V30 5270 H 507.879 -0.662648 -0.359741 0
M  V30 5271 H 510.53 -1.82322 -0.207576 0
M  V30 5272 H 508.912 -3.04311 -2.53399 0
M  V30 5273 H 510.086 -4.60588 -0.139892 0
M  V30 5274 H 508.401 -4.15427 -0.284443 0
M  V30 5275 H 510.998 -4.38767 -3.05594 0
M  V30 5276 H 511.341 -2.68007 -3.18556 0
M  V30 5277 H 511.874 -3.57614 -1.74233 0
M  V30 5278 H 508.613 -6.47906 -0.994881 0
M  V30 5279 H 508.133 -5.49763 -2.39836 0
M  V30 5280 H 509.812 -6.07025 -2.23898 0
M  V30 5281 N 509.944 0.496216 -1.49584 0
M  V30 5282 C 511.169 1.27865 -1.63295 0
M  V30 5283 C 511.594 1.85592 -0.306156 0
M  V30 5284 O 510.952 1.66092 0.726851 0
M  V30 5285 C 511 2.38128 -2.7079 0
M  V30 5286 O 510.104 3.42108 -2.30296 0
M  V30 5287 H 509.445 0.377279 -0.546403 0
M  V30 5288 H 511.975 0.593497 -1.95803 0
M  V30 5289 H 511.985 2.8382 -2.93104 0
M  V30 5290 H 510.66 1.95479 -3.67098 0
M  V30 5291 H 509.237 3.02301 -2.18331 0
M  V30 5292 N 511.423 1.38739 0.74761 0
M  V30 5293 C 512.333 1.38696 1.89211 0
M  V30 5294 C 513.349 0.283303 1.71678 0
M  V30 5295 O 514.525 0.522713 1.94498 0
M  V30 5296 C 511.59 1.21662 3.24653 0
M  V30 5297 C 510.651 2.41886 3.54669 0
M  V30 5298 C 509.884 2.25655 4.83648 0
M  V30 5299 O 510.107 1.25339 5.56459 0
M  V30 5300 O 509.041 3.14372 5.13277 0
M  V30 5301 H 512.867 2.35143 1.92202 0
M  V30 5302 H 510.452 1.19721 0.893708 0
M  V30 5303 H 512.334 1.14246 4.05618 0
M  V30 5304 H 511.009 0.283024 3.2246 0
M  V30 5305 H 509.916 2.54877 2.73841 0
M  V30 5306 H 511.249 3.33895 3.61628 0
M  V30 5307 N 512.901 -0.976442 1.23707 0
M  V30 5308 C 513.831 -2.08749 1.04624 0
M  V30 5309 C 514.812 -1.70057 -0.0380956 0
M  V30 5310 O 515.997 -1.93782 0.127308 0
M  V30 5311 C 513.127 -3.41335 0.640902 0
M  V30 5312 C 512.081 -3.93947 1.67302 0
M  V30 5313 C 511.407 -5.22774 1.12301 0
M  V30 5314 C 512.707 -4.22769 3.06697 0
M  V30 5315 H 514.401 -2.24972 1.97555 0
M  V30 5316 H 511.947 -1.08108 0.951247 0
M  V30 5317 H 513.9 -4.18489 0.494434 0
M  V30 5318 H 512.624 -3.24988 -0.324099 0
M  V30 5319 H 511.283 -3.18941 1.80755 0
M  V30 5320 H 510.931 -5.0278 0.148877 0
M  V30 5321 H 510.631 -5.58942 1.81267 0
M  V30 5322 H 512.155 -6.02546 0.988479 0
M  V30 5323 H 513.569 -4.90659 2.96524 0
M  V30 5324 H 511.966 -4.70147 3.72937 0
M  V30 5325 H 513.036 -3.29885 3.55392 0
M  V30 5326 N 514.379 -1.04941 -1.1758 0
M  V30 5327 C 515.326 -0.648155 -2.21512 0
M  V30 5328 C 516.296 0.348431 -1.62404 0
M  V30 5329 O 517.481 0.240419 -1.89279 0
M  V30 5330 C 514.621 -0.0264291 -3.4509 0
M  V30 5331 C 513.734 -1.07154 -4.185 0
M  V30 5332 C 512.869 -0.417403 -5.29558 0
M  V30 5333 C 511.908 -1.447 -5.94751 0
M  V30 5334 N 511.045 -0.817203 -6.97328 0
M  V30 5335 H 515.885 -1.53891 -2.55189 0
M  V30 5336 H 513.422 -0.769699 -1.25356 0
M  V30 5337 H 515.38 0.351456 -4.15717 0
M  V30 5338 H 514.01 0.827802 -3.12005 0
M  V30 5339 H 513.062 -1.56728 -3.46613 0
M  V30 5340 H 514.374 -1.8532 -4.63096 0
M  V30 5341 H 513.528 0.0142061 -6.06698 0
M  V30 5342 H 512.267 0.396265 -4.86087 0
M  V30 5343 H 511.272 -1.88865 -5.16343 0
M  V30 5344 H 512.497 -2.26252 -6.40302 0
M  V30 5345 H 510.443 -0.0239995 -6.55996 0
M  V30 5346 H 510.36 -1.53644 -7.40223 0
M  V30 5347 H 511.628 -0.410283 -7.7842 0
M  V30 5348 N 515.857 1.33968 -0.830081 0
M  V30 5349 C 517.103 1.98357 -0.422191 0
M  V30 5350 C 517.436 1.65633 1.01387 0
M  V30 5351 O 516.711 0.931648 1.70735 0
M  V30 5352 C 516.994 3.54492 -0.633043 0
M  V30 5353 C 516.847 3.96934 -2.11574 0
M  V30 5354 C 518.166 4.40039 -0.0735584 0
M  V30 5355 H 515.285 0.720544 -0.154871 0
M  V30 5356 H 517.927 1.58749 -1.04397 0
M  V30 5357 H 516.077 3.88361 -0.103775 0
M  V30 5358 H 517.749 3.73363 -2.7092 0
M  V30 5359 H 515.992 3.46984 -2.60354 0
M  V30 5360 H 516.663 5.05651 -2.21406 0
M  V30 5361 H 519.139 4.12764 -0.52585 0
M  V30 5362 H 518.015 5.48327 -0.250841 0
M  V30 5363 H 518.276 4.30124 1.02202 0
M  V30 5364 N 517.335 0.585699 1.46312 0
M  V30 5365 C 518.582 0.0724211 2.0237 0
M  V30 5366 C 518.91 -1.28868 1.45683 0
M  V30 5367 O 518.165 -1.85853 0.612945 0
M  V30 5368 C 518.464 -0.0401312 3.57377 0
M  V30 5369 C 518.13 1.25376 4.33119 0
M  V30 5370 C 516.792 1.60824 4.5353 0
M  V30 5371 C 519.144 2.10987 4.76586 0
M  V30 5372 C 516.472 2.81676 5.14661 0
M  V30 5373 C 518.824 3.31068 5.39052 0
M  V30 5374 C 517.488 3.66794 5.5769 0
M  V30 5375 H 516.758 0.0265007 0.740526 0
M  V30 5376 H 519.405 0.762935 1.75646 0
M  V30 5377 H 517.71 -0.813791 3.83255 0
M  V30 5378 H 519.407 -0.453078 3.98432 0
M  V30 5379 H 515.997 0.967808 4.1753 0
M  V30 5380 H 520.181 1.84904 4.60569 0
M  V30 5381 H 515.437 3.0949 5.27282 0
M  V30 5382 H 519.611 3.97672 5.71691 0
M  V30 5383 H 517.238 4.60529 6.04828 0
M  V30 5384 N 518.813 -1.54241 0.323641 0
M  V30 5385 C 520.09 -1.92741 -0.333181 0
M  V30 5386 C 520.47 -1.25326 -1.69872 0
M  V30 5387 O 519.818 -0.396991 -2.25025 0
M  V30 5388 C 520.028 -3.46399 -0.425322 0
M  V30 5389 C 521.376 -4.19029 -0.68557 0
M  V30 5390 O 522.4 -3.52555 -0.50824 0
M  V30 5391 O 521.259 -5.36751 -1.02767 0
M  V30 5392 H 518.353 -0.804811 -0.190286 0
M  V30 5393 H 520.899 -1.65542 0.373361 0
M  V30 5394 H 519.671 -3.87643 0.533737 0
M  V30 5395 H 519.294 -3.79704 -1.17944 0
M  V30 5396 N 520.291 -0.0518155 -1.57515 0
M  V30 5397 C 521.221 0.920283 -2.146 0
M  V30 5398 C 522.202 1.32406 -1.06783 0
M  V30 5399 O 523.387 1.39866 -1.34726 0
M  V30 5400 C 520.517 2.1949 -2.6915 0
M  V30 5401 C 519.471 1.93116 -3.81956 0
M  V30 5402 C 518.797 3.27037 -4.23026 0
M  V30 5403 C 520.097 1.25225 -5.07066 0
M  V30 5404 H 521.791 0.444801 -2.96077 0
M  V30 5405 H 519.337 0.212508 -1.42423 0
M  V30 5406 H 521.29 2.87894 -3.07725 0
M  V30 5407 H 520.014 2.69244 -1.84865 0
M  V30 5408 H 518.673 1.27123 -3.43854 0
M  V30 5409 H 518.321 3.74595 -3.3569 0
M  V30 5410 H 518.021 3.10189 -4.99056 0
M  V30 5411 H 519.545 3.96673 -4.64202 0
M  V30 5412 H 520.959 1.83666 -5.43083 0
M  V30 5413 H 519.356 1.18702 -5.88243 0
M  V30 5414 H 520.426 0.228382 -4.84362 0
M  V30 5415 N 521.769 1.56035 0.221574 0
M  V30 5416 C 523.185 1.49026 0.571271 0
M  V30 5417 C 523.385 0.746912 1.87146 0
M  V30 5418 O 522.441 0.286566 2.50869 0
M  V30 5419 C 523.754 2.93579 0.650522 0
M  V30 5420 C 525.302 3.04099 0.741151 0
M  V30 5421 C 525.777 4.5001 0.851747 0
M  V30 5422 N 527.268 4.54053 0.915968 0
M  V30 5423 C 528.003 5.64232 1.02125 0
M  V30 5424 N 527.499 6.84164 1.09049 0
M  V30 5425 N 529.292 5.52084 1.05639 0
M  V30 5426 H 521.443 2.02791 -0.63162 0
M  V30 5427 H 523.706 0.921736 -0.221602 0
M  V30 5428 H 523.412 3.50912 -0.235253 0
M  V30 5429 H 523.286 3.45476 1.51413 0
M  V30 5430 H 525.673 2.4683 1.61737 0
M  V30 5431 H 525.754 2.55371 -0.148128 0
M  V30 5432 H 525.398 5.07896 -0.0200117 0
M  V30 5433 H 525.328 4.96444 1.75644 0
M  V30 5434 H 527.819 3.67683 0.872782 0
M  V30 5435 H 528.132 7.63883 1.1706 0
M  V30 5436 H 526.477 6.86875 1.05962 0
M  V30 5437 H 529.668 4.57317 0.998953 0
M  V30 5438 H 529.841 6.37983 1.13498 0
M  V30 5439 N 523.247 -0.488276 1.49845 0
M  V30 5440 C 524.157 -1.61451 1.70207 0
M  V30 5441 C 525.173 -1.63877 0.584846 0
M  V30 5442 O 526.349 -1.82063 0.861107 0
M  V30 5443 C 523.414 -2.9776 1.77594 0
M  V30 5444 C 522.475 -3.05861 3.01243 0
M  V30 5445 C 521.708 -4.35668 3.08268 0
M  V30 5446 O 521.931 -5.25197 2.22541 0
M  V30 5447 O 520.865 -4.49005 4.00847 0
M  V30 5448 H 524.691 -1.47199 2.65643 0
M  V30 5449 H 522.276 -0.665939 1.33737 0
M  V30 5450 H 524.158 -3.7875 1.84732 0
M  V30 5451 H 522.833 -3.12248 0.8534 0
M  V30 5452 H 521.74 -2.24012 2.99616 0
M  V30 5453 H 523.073 -2.96304 3.9302 0
M  V30 5454 N 524.725 -1.39134 -0.740242 0
M  V30 5455 C 525.95 -1.39518 -1.53459 0
M  V30 5456 C 526.375 0.00968883 -1.88098 0
M  V30 5457 O 525.733 0.995312 -1.51536 0
M  V30 5458 C 525.781 -2.26981 -2.802 0
M  V30 5459 O 524.885 -1.69609 -3.75908 0
M  V30 5460 H 524.226 -0.475328 -0.463637 0
M  V30 5461 H 526.756 -1.83064 -0.913717 0
M  V30 5462 H 526.766 -2.41309 -3.28989 0
M  V30 5463 H 525.441 -3.29081 -2.5432 0
M  V30 5464 H 524.018 -1.64495 -3.34658 0
M  V30 5465 N 526.204 0.969867 -1.24223 0
M  V30 5466 C 527.137 2.06279 -0.975926 0
M  V30 5467 C 528.115 1.62353 0.0895385 0
M  V30 5468 O 529.299 1.88442 -0.0469418 0
M  V30 5469 C 526.426 3.35391 -0.472315 0
M  V30 5470 C 525.472 3.98266 -1.526 0
M  V30 5471 S 526.305 4.36172 -3.10667 0
M  V30 5472 C 527.461 5.68423 -2.62003 0
M  V30 5473 H 527.694 2.28551 -1.90137 0
M  V30 5474 H 525.227 1.10748 -1.07584 0
M  V30 5475 H 527.185 4.10068 -0.188376 0
M  V30 5476 H 525.846 3.1111 0.432378 0
M  V30 5477 H 525.039 4.91307 -1.12399 0
M  V30 5478 H 524.641 3.30009 -1.75983 0
M  V30 5479 H 526.933 6.45842 -2.0468 0
M  V30 5480 H 527.876 6.13478 -3.53625 0
M  V30 5481 H 528.284 5.26928 -2.02502 0
M  V30 5482 N 527.682 1.05563 1.17022 0
M  V30 5483 C 528.645 0.664098 2.19368 0
M  V30 5484 C 529.645 -0.286358 1.5823 0
M  V30 5485 O 530.835 -0.069728 1.7406 0
M  V30 5486 C 527.967 -0.0239932 3.40892 0
M  V30 5487 H 529.16 1.57 2.55521 0
M  V30 5488 H 526.713 0.849964 1.31169 0
M  V30 5489 H 527.448 -0.942988 3.10287 0
M  V30 5490 H 527.233 0.659351 3.86516 0
M  V30 5491 H 528.723 -0.283909 4.16634 0
M  V30 5492 N 529.16 -1.33526 0.837174 0
M  V30 5493 C 530.108 -2.31168 0.257698 0
M  V30 5494 C 531.102 -1.5806 -0.609388 0
M  V30 5495 O 532.308 -1.72941 -0.499139 0
M  V30 5496 H 528.683 -0.74922 0.0646058 0
M  V30 5497 H 530.654 -2.77552 1.09578 0
M  V30 5498 C 529.403 -3.4326 -0.553887 0
M  V30 5499 H 528.726 -3.99665 0.104008 0
M  V30 5500 H 530.166 -4.13782 -0.925219 0
M  V30 5501 C 528.625 -2.88965 -1.73207 0
M  V30 5502 O 529.155 -2.85013 -2.83073 0
M  V30 5503 N 527.361 -2.45596 -1.55342 0
M  V30 5504 H 526.908 -2.49009 -0.659705 0
M  V30 5505 H 526.866 -2.0962 -2.34322 0
M  V30 5506 N 530.638 -0.59345 -1.46 0
M  V30 5507 C 531.886 -0.082988 -2.0193 0
M  V30 5508 C 532.207 1.28569 -1.46612 0
M  V30 5509 O 531.477 1.84629 -0.654909 0
M  V30 5510 H 530.057 -0.0276882 -0.746487 0
M  V30 5511 H 532.719 -0.771657 -1.78973 0
M  V30 5512 H 531.815 -0.022079 -3.12092 0
M  V30 5513 N 532.116 1.54067 -0.331816 0
M  V30 5514 C 533.364 2.00319 0.267739 0
M  V30 5515 C 533.685 1.22148 1.52003 0
M  V30 5516 O 532.955 0.325494 1.93177 0
M  V30 5517 H 531.535 0.740014 0.101922 0
M  V30 5518 H 534.197 1.89628 -0.450267 0
M  V30 5519 H 533.293 3.07765 0.518385 0
M  V30 5520 N 533.594 0.0601682 1.57485 0
M  V30 5521 C 534.842 -0.610386 1.92662 0
M  V30 5522 C 535.163 -1.70849 0.939981 0
M  V30 5523 O 534.433 -1.95895 -0.0137455 0
M  V30 5524 H 533.013 -0.228457 0.711208 0
M  V30 5525 H 535.675 0.115288 1.94559 0
M  V30 5526 H 534.771 -1.0432 2.94149 0
M  V30 5527 N 535.072 -1.5615 -0.213296 0
M  V30 5528 C 536.483 -1.69645 -0.779582 0
M  V30 5529 C 536.834 -0.663615 -1.84636 0
M  V30 5530 O 535.959 0.183633 -2.15619 0
M  V30 5531 C 536.554 -3.07567 -1.42084 0
M  V30 5532 C 535.113 -3.22889 -1.93442 0
M  V30 5533 C 534.26 -2.65581 -0.797612 0
M  V30 5534 H 537.211 -1.58696 0.0114951 0
M  V30 5535 H 537.232 -3.03884 -2.28986 0
M  V30 5536 H 536.744 -3.82716 -0.644187 0
M  V30 5537 H 534.845 -2.52623 -2.73884 0
M  V30 5538 H 534.958 -4.30197 -2.10872 0
M  V30 5539 H 533.322 -2.24278 -1.20712 0
M  V30 5540 H 534.105 -3.43284 -0.033494 0
M  V30 5541 N 536.55 0.480323 -1.50102 0
M  V30 5542 C 537.513 1.56181 -1.6775 0
M  V30 5543 C 538.513 1.51156 -0.548503 0
M  V30 5544 O 539.703 1.5394 -0.815363 0
M  V30 5545 C 536.835 2.95823 -1.69415 0
M  V30 5546 H 538.028 1.41855 -2.6423 0
M  V30 5547 H 535.581 0.70605 -1.39444 0
M  V30 5548 H 536.316 3.15604 -0.745948 0
M  V30 5549 H 536.101 3.00878 -2.51425 0
M  V30 5550 H 537.591 3.74359 -1.85054 0
M  V30 5551 N 538.028 1.39524 0.732853 0
M  V30 5552 C 539.268 1.383 1.50508 0
M  V30 5553 C 539.632 -0.0208271 1.91989 0
M  V30 5554 O 540.833 -0.158091 2.68335 0
M  V30 5555 C 539.104 2.33007 2.71003 0
M  V30 5556 S 540.663 2.49989 3.60626 0
M  V30 5557 H 537.481 0.490417 0.514794 0
M  V30 5558 H 540.083 1.75641 0.858524 0
M  V30 5559 H 538.787 3.33862 2.38672 0
M  V30 5560 H 538.318 1.96889 3.40585 0
M  V30 5561 H 540.333 1.7394 4.64714 0
M  V30 5562 N 539.506 -0.963266 1.24736 0
M  V30 5563 C 540.436 -2.07628 1.06832 0
M  V30 5564 C 541.417 -1.70088 -0.0200566 0
M  V30 5565 O 542.602 -1.93636 0.147854 0
M  V30 5566 C 539.732 -3.40636 0.677069 0
M  V30 5567 C 538.686 -3.9215 1.71471 0
M  V30 5568 C 538.012 -5.21553 1.1784 0
M  V30 5569 C 539.312 -4.19493 3.11164 0
M  V30 5570 H 541.006 -2.22864 1.9993 0
M  V30 5571 H 538.552 -1.07093 0.96266 0
M  V30 5572 H 540.505 -4.17941 0.538792 0
M  V30 5573 H 539.229 -3.25313 -0.289612 0
M  V30 5574 H 537.888 -3.17005 1.84128 0
M  V30 5575 H 537.536 -5.02593 0.202195 0
M  V30 5576 H 537.236 -5.56988 1.87185 0
M  V30 5577 H 538.76 -6.01463 1.05233 0
M  V30 5578 H 540.174 -4.87487 3.01711 0
M  V30 5579 H 538.571 -4.66165 3.77902 0
M  V30 5580 H 539.641 -3.26097 3.58871 0
M  V30 5581 N 540.985 -1.06182 -1.16461 0
M  V30 5582 C 542.401 -0.785065 -1.38956 0
M  V30 5583 C 542.601 0.616103 -1.9185 0
M  V30 5584 O 541.657 1.37686 -2.11657 0
M  V30 5585 C 542.97 -1.84902 -2.37132 0
M  V30 5586 C 544.518 -1.8724 -2.50819 0
M  V30 5587 C 544.993 -2.92686 -3.52277 0
M  V30 5588 N 546.484 -2.91712 -3.59803 0
M  V30 5589 C 547.219 -3.69949 -4.38093 0
M  V30 5590 N 546.715 -4.58 -5.19815 0
M  V30 5591 N 548.508 -3.58346 -4.33064 0
M  V30 5592 H 540.659 -1.96569 -0.804634 0
M  V30 5593 H 542.922 -0.851747 -0.416211 0
M  V30 5594 H 542.628 -2.85518 -2.0536 0
M  V30 5595 H 542.502 -1.69908 -3.36766 0
M  V30 5596 H 544.889 -0.872827 -2.81897 0
M  V30 5597 H 544.97 -2.06311 -1.51226 0
M  V30 5598 H 544.614 -3.92835 -3.21937 0
M  V30 5599 H 544.544 -2.70864 -4.51598 0
M  V30 5600 H 547.035 -2.27876 -3.01464 0
M  V30 5601 H 547.348 -5.14357 -5.76764 0
M  V30 5602 H 545.693 -4.62056 -5.19162 0
M  V30 5603 H 548.884 -2.88943 -3.68279 0
M  V30 5604 H 549.057 -4.19563 -4.93833 0
M  V30 5605 N 542.463 1.3308 -0.844243 0
M  V30 5606 C 543.393 2.3161 -0.296493 0
M  V30 5607 C 544.374 1.59215 0.598707 0
M  V30 5608 O 545.559 1.87077 0.521134 0
M  V30 5609 C 542.689 3.43313 0.524762 0
M  V30 5610 C 541.643 4.27115 -0.275106 0
M  V30 5611 C 540.969 5.30483 0.670236 0
M  V30 5612 C 542.269 5.00443 -1.49514 0
M  V30 5613 H 543.963 2.77672 -1.11976 0
M  V30 5614 H 541.509 1.33496 -0.539899 0
M  V30 5615 H 543.462 4.11273 0.918298 0
M  V30 5616 H 542.186 2.95952 1.3813 0
M  V30 5617 H 540.845 3.60787 -0.650267 0
M  V30 5618 H 540.493 4.79379 1.52332 0
M  V30 5619 H 540.193 5.87435 0.139123 0
M  V30 5620 H 541.717 6.01308 1.06117 0
M  V30 5621 H 543.131 5.61141 -1.17447 0
M  V30 5622 H 541.528 5.67071 -1.96343 0
M  V30 5623 H 542.598 4.28906 -2.26202 0
M  V30 5624 N 543.941 0.601185 1.45683 0
M  V30 5625 C 545.357 0.264315 1.57396 0
M  V30 5626 C 545.557 -1.23324 1.59353 0
M  V30 5627 O 544.613 -2.01594 1.52039 0
M  V30 5628 C 545.926 0.929839 2.85962 0
M  V30 5629 C 547.474 0.905156 2.99626 0
M  V30 5630 C 547.949 1.55057 4.30954 0
M  V30 5631 N 549.44 1.51576 4.37697 0
M  V30 5632 C 550.175 1.98436 5.37969 0
M  V30 5633 N 549.671 2.53352 6.44813 0
M  V30 5634 N 551.464 1.89242 5.29286 0
M  V30 5635 H 543.615 1.57363 1.42656 0
M  V30 5636 H 545.878 0.658831 0.681649 0
M  V30 5637 H 545.584 1.98404 2.90394 0
M  V30 5638 H 545.458 0.449224 3.74515 0
M  V30 5639 H 547.845 -0.14048 2.94765 0
M  V30 5640 H 547.926 1.42397 2.12501 0
M  V30 5641 H 547.57 2.5955 4.36573 0
M  V30 5642 H 547.5 1.00682 5.16886 0
M  V30 5643 H 549.991 1.11452 3.61091 0
M  V30 5644 H 550.304 2.86918 7.17564 0
M  V30 5645 H 548.649 2.57388 6.45582 0
M  V30 5646 H 551.84 1.46083 4.44722 0
M  V30 5647 H 552.013 2.26075 6.07284 0
M  V30 5648 N 545.419 -1.53889 0.339982 0
M  V30 5649 C 546.665 -2.01152 -0.258003 0
M  V30 5650 C 546.998 -1.22749 -1.50487 0
M  V30 5651 O 546.273 -0.314156 -1.91946 0
M  V30 5652 C 546.556 -3.55468 -0.575717 0
M  V30 5653 C 546.409 -4.44584 0.682996 0
M  V30 5654 C 547.728 -4.1768 -1.38677 0
M  V30 5655 H 544.847 -0.731198 -0.0922992 0
M  V30 5656 H 547.489 -1.84352 0.459814 0
M  V30 5657 H 545.639 -3.69914 -1.18725 0
M  V30 5658 H 547.311 -4.41981 1.32102 0
M  V30 5659 H 545.554 -4.13592 1.3086 0
M  V30 5660 H 546.225 -5.5043 0.416001 0
M  V30 5661 H 548.701 -4.0691 -0.869705 0
M  V30 5662 H 547.577 -5.25734 -1.57783 0
M  V30 5663 H 547.838 -3.72069 -2.38782 0
M  V30 5664 N 546.897 -0.0685191 -1.57451 0
M  V30 5665 C 548.143 0.602239 -1.93652 0
M  V30 5666 C 548.476 1.6946 -0.948526 0
M  V30 5667 O 547.751 1.94487 0.022782 0
M  V30 5668 C 548.034 1.18223 -3.4014 0
M  V30 5669 C 547.887 0.0967431 -4.49696 0
M  V30 5670 C 549.206 2.08872 -3.87377 0
M  V30 5671 H 546.325 0.217453 -0.70419 0
M  V30 5672 H 548.967 -0.133821 -1.89528 0
M  V30 5673 H 547.117 1.80953 -3.43785 0
M  V30 5674 H 548.789 -0.536155 -4.58174 0
M  V30 5675 H 547.032 -0.573063 -4.29998 0
M  V30 5676 H 547.703 0.542894 -5.49324 0
M  V30 5677 H 550.179 1.56081 -3.85717 0
M  V30 5678 H 549.055 2.46389 -4.90493 0
M  V30 5679 H 549.316 2.99572 -3.25129 0
M  V30 5680 N 548.375 1.56261 0.205012 0
M  V30 5681 C 549.305 1.96779 1.257 0
M  V30 5682 C 550.286 0.838309 1.48008 0
M  V30 5683 O 551.471 1.10189 1.59913 0
M  V30 5684 C 548.601 2.29876 2.60335 0
M  V30 5685 C 547.555 3.45469 2.52656 0
M  V30 5686 C 546.881 3.64215 3.91473 0
M  V30 5687 C 548.181 4.79954 2.06014 0
M  V30 5688 H 549.875 2.84904 0.920338 0
M  V30 5689 H 547.421 1.37072 0.441277 0
M  V30 5690 H 549.374 2.56814 3.34102 0
M  V30 5691 H 548.098 1.38622 2.95722 0
M  V30 5692 H 546.757 3.18605 1.81345 0
M  V30 5693 H 546.405 2.70309 4.24196 0
M  V30 5694 H 546.105 4.41973 3.87213 0
M  V30 5695 H 547.629 3.93519 4.66878 0
M  V30 5696 H 549.043 5.05989 2.69533 0
M  V30 5697 H 547.44 5.61111 2.12777 0
M  V30 5698 H 548.51 4.74201 1.01297 0
M  V30 5699 N 549.853 -0.472356 1.50355 0
M  V30 5700 C 551.081 -1.24784 1.65035 0
M  V30 5701 C 551.496 -1.85837 0.333176 0
M  V30 5702 O 550.853 -1.69168 -0.68472 0
M  V30 5703 C 550.904 -2.35747 2.74054 0
M  V30 5704 O 550.625 -1.77197 4.00665 0
M  V30 5705 C 552.126 -3.26645 2.99696 0
M  V30 5706 H 549.346 -0.377432 0.554785 0
M  V30 5707 H 551.89 -0.563962 1.9657 0
M  V30 5708 H 550.045 -2.99912 2.45217 0
M  V30 5709 H 550.459 -2.5026 4.60945 0
M  V30 5710 H 551.933 -4.00718 3.79644 0
M  V30 5711 H 552.41 -3.8535 2.10718 0
M  V30 5712 H 553.016 -2.68218 3.3006 0
M  V30 5713 N 551.331 -1.39911 -0.725443 0
M  V30 5714 C 552.241 -1.41688 -1.8698 0
M  V30 5715 C 553.257 -0.310579 -1.71206 0
M  V30 5716 O 554.433 -0.55359 -1.93642 0
M  V30 5717 C 551.498 -1.26811 -3.22676 0
M  V30 5718 C 550.559 -2.47497 -3.50776 0
M  V30 5719 C 549.792 -2.3332 -4.79997 0
M  V30 5720 O 550.015 -1.34175 -5.54394 0
M  V30 5721 O 548.949 -3.22498 -5.08211 0
M  V30 5722 H 552.775 -2.38171 -1.88436 0
M  V30 5723 H 550.36 -1.21128 -0.874548 0
M  V30 5724 H 552.242 -1.20684 -4.03749 0
M  V30 5725 H 550.917 -0.334289 -3.21969 0
M  V30 5726 H 549.824 -2.59201 -2.69751 0
M  V30 5727 H 551.157 -3.39606 -3.5627 0
M  V30 5728 N 552.809 0.956637 -1.25245 0
M  V30 5729 C 553.719 2.0868 -1.0719 0
M  V30 5730 C 554.735 1.73997 -0.00959074 0
M  V30 5731 O 555.911 2.00301 -0.210104 0
M  V30 5732 C 552.976 3.39754 -0.690526 0
M  V30 5733 C 552.037 3.88316 -1.83055 0
M  V30 5734 C 551.27 5.13134 -1.46728 0
M  V30 5735 O 551.493 5.6925 -0.362029 0
M  V30 5736 O 550.427 5.56356 -2.29677 0
M  V30 5737 H 554.253 2.26813 -2.01965 0
M  V30 5738 H 551.838 1.07098 -1.04165 0
M  V30 5739 H 553.72 4.18543 -0.489871 0
M  V30 5740 H 552.395 3.22896 0.227981 0
M  V30 5741 H 551.302 3.1054 -2.08604 0
M  V30 5742 H 552.635 4.09669 -2.72822 0
M  V30 5743 N 554.287 1.06798 1.15896 0
M  V30 5744 C 555.197 0.694564 2.24083 0
M  V30 5745 C 556.213 -0.291687 1.71538 0
M  V30 5746 O 557.389 -0.139723 2.00915 0
M  V30 5747 C 554.454 0.0921014 3.46578 0
M  V30 5748 C 553.515 1.13087 4.14137 0
M  V30 5749 C 552.748 0.557064 5.30785 0
M  V30 5750 O 552.971 -0.628623 5.66925 0
M  V30 5751 O 551.905 1.29924 5.8771 0
M  V30 5752 H 555.731 1.59663 2.58344 0
M  V30 5753 H 553.316 0.840575 1.2351 0
M  V30 5754 H 555.198 -0.241884 4.20705 0
M  V30 5755 H 553.873 -0.78337 3.14078 0
M  V30 5756 H 552.78 1.51712 3.41957 0
M  V30 5757 H 554.113 1.97805 4.50704 0
M  V30 5758 N 555.766 -1.3263 0.851289 0
M  V30 5759 C 557.182 -1.50162 0.5407 0
M  V30 5760 C 557.382 -1.78788 -0.929369 0
M  V30 5761 O 556.438 -1.85545 -1.71258 0
M  V30 5762 C 557.751 -2.64803 1.42478 0
M  V30 5763 C 559.299 -2.78688 1.42485 0
M  V30 5764 C 559.774 -3.96405 2.29407 0
M  V30 5765 N 561.265 -4.0366 2.27184 0
M  V30 5766 C 562 -4.93971 2.9117 0
M  V30 5767 N 561.496 -5.89313 3.64256 0
M  V30 5768 N 563.289 -4.87066 2.80576 0
M  V30 5769 H 555.44 -1.12315 1.80275 0
M  V30 5770 H 557.703 -0.553266 0.769806 0
M  V30 5771 H 557.409 -2.50368 2.46999 0
M  V30 5772 H 557.283 -3.60506 1.10974 0
M  V30 5773 H 559.67 -2.92547 0.387304 0
M  V30 5774 H 559.751 -1.83708 1.78002 0
M  V30 5775 H 559.395 -3.83304 3.33228 0
M  V30 5776 H 559.325 -4.90654 1.91224 0
M  V30 5777 H 561.816 -3.35435 1.74045 0
M  V30 5778 H 562.129 -6.54913 4.10255 0
M  V30 5779 H 560.474 -5.8935 3.68364 0
M  V30 5780 H 563.665 -4.11552 2.23031 0
M  V30 5781 H 563.838 -5.57248 3.30725 0
M  V30 5782 N 557.244 -0.608902 -1.45362 0
M  V30 5783 C 558.66 -0.272659 -1.57254 0
M  V30 5784 C 558.86 1.22477 -1.60005 0
M  V30 5785 O 557.916 2.00785 -1.53106 0
M  V30 5786 C 559.229 -0.944991 -2.85465 0
M  V30 5787 C 560.777 -0.921033 -2.99142 0
M  V30 5788 C 561.252 -1.5734 -4.30126 0
M  V30 5789 N 562.743 -1.53895 -4.36887 0
M  V30 5790 C 563.478 -2.01286 -5.36909 0
M  V30 5791 N 562.974 -2.56768 -6.43461 0
M  V30 5792 N 564.767 -1.92046 -5.28275 0
M  V30 5793 H 556.918 -1.58117 -1.4182 0
M  V30 5794 H 559.181 -0.662437 -0.678146 0
M  V30 5795 H 558.887 -1.99941 -2.89338 0
M  V30 5796 H 558.761 -0.469079 -3.74272 0
M  V30 5797 H 561.148 0.124846 -2.94836 0
M  V30 5798 H 561.229 -1.43522 -2.11743 0
M  V30 5799 H 560.873 -2.61862 -4.35191 0
M  V30 5800 H 560.803 -1.03422 -5.16344 0
M  V30 5801 H 563.294 -1.13366 -3.60495 0
M  V30 5802 H 563.607 -2.9072 -7.16032 0
M  V30 5803 H 561.952 -2.60808 -6.44208 0
M  V30 5804 H 565.143 -1.48439 -4.43941 0
M  V30 5805 H 565.316 -2.29293 -6.06077 0
M  V30 5806 N 558.722 1.53707 -0.348139 0
M  V30 5807 C 559.685 2.23812 0.494058 0
M  V30 5808 C 560.685 1.23989 1.02388 0
M  V30 5809 O 561.875 1.48395 0.912396 0
M  V30 5810 C 559.007 2.96133 1.68872 0
M  V30 5811 H 560.2 2.99663 -0.119141 0
M  V30 5812 H 557.753 1.55983 -0.0995539 0
M  V30 5813 H 558.488 2.24481 2.34049 0
M  V30 5814 H 558.273 3.69357 1.31596 0
M  V30 5815 H 559.763 3.49475 2.28597 0
M  V30 5816 N 560.2 0.0768682 1.57412 0
M  V30 5817 C 561.446 -0.591961 1.93968 0
M  V30 5818 C 561.779 -1.68954 0.9575 0
M  V30 5819 O 561.054 -1.94496 -0.0124675 0
M  V30 5820 C 561.337 -1.16418 3.40762 0
M  V30 5821 C 561.19 -0.0728933 4.49741 0
M  V30 5822 C 562.509 -2.06814 3.88479 0
M  V30 5823 H 559.628 -0.213716 0.705333 0
M  V30 5824 H 562.27 0.14387 1.89455 0
M  V30 5825 H 560.42 -1.79128 3.4474 0
M  V30 5826 H 562.092 0.560446 4.57883 0
M  V30 5827 H 560.335 0.595859 4.29688 0
M  V30 5828 H 561.006 -0.513755 5.49604 0
M  V30 5829 H 563.482 -1.54033 3.8654 0
M  V30 5830 H 562.358 -2.43785 4.91793 0
M  V30 5831 H 562.619 -2.97844 3.26713 0
M  V30 5832 N 561.678 -1.56367 -0.196722 0
M  V30 5833 C 562.626 -1.95304 -1.2633 0
M  V30 5834 C 563.62 -0.838252 -1.47206 0
M  V30 5835 O 564.826 -1.02325 -1.48087 0
M  V30 5836 H 561.201 -0.621013 -0.424083 0
M  V30 5837 H 563.172 -2.84254 -0.907879 0
M  V30 5838 C 561.921 -2.3074 -2.60104 0
M  V30 5839 H 561.244 -3.16047 -2.44856 0
M  V30 5840 H 562.684 -2.61849 -3.33484 0
M  V30 5841 C 561.143 -1.14143 -3.16975 0
M  V30 5842 O 561.673 -0.415602 -3.99544 0
M  V30 5843 N 559.879 -0.91867 -2.75697 0
M  V30 5844 H 559.426 -1.51065 -2.08656 0
M  V30 5845 H 559.384 -0.140321 -3.14087 0
M  V30 5846 N 563.156 0.464375 -1.50603 0
M  V30 5847 C 564.567 1.04507 -1.5471 0
M  V30 5848 C 564.918 1.9297 -0.354542 0
M  V30 5849 O 564.043 2.09763 0.531812 0
M  V30 5850 C 564.638 1.90207 -2.80369 0
M  V30 5851 C 563.197 2.43373 -2.87135 0
M  V30 5852 C 562.344 1.21886 -2.49076 0
M  V30 5853 H 565.295 0.246716 -1.56771 0
M  V30 5854 H 565.316 2.75353 -2.62604 0
M  V30 5855 H 564.828 1.25796 -3.67147 0
M  V30 5856 H 562.929 3.11318 -2.04724 0
M  V30 5857 H 563.042 2.7802 -3.90181 0
M  V30 5858 H 561.406 1.55575 -2.01664 0
M  V30 5859 H 562.189 0.591268 -3.3817 0
M  V30 5860 N 564.634 1.40294 0.718013 0
M  V30 5861 C 565.597 1.4012 1.81381 0
M  V30 5862 C 566.597 0.295405 1.58063 0
M  V30 5863 O 567.787 0.554187 1.6515 0
M  V30 5864 C 564.919 1.19056 3.19435 0
M  V30 5865 H 566.112 2.37645 1.82933 0
M  V30 5866 H 563.665 1.26107 0.923405 0
M  V30 5867 H 564.4 0.222809 3.23534 0
M  V30 5868 H 564.185 1.99152 3.37758 0
M  V30 5869 H 565.675 1.21716 3.99468 0
M  V30 5870 N 566.112 -0.949982 1.2575 0
M  V30 5871 C 567.358 -1.69766 1.10938 0
M  V30 5872 C 567.691 -1.91056 -0.348028 0
M  V30 5873 O 566.966 -1.48488 -1.25625 0
M  V30 5874 C 567.249 -3.07779 1.86933 0
M  V30 5875 C 567.102 -2.9387 3.4053 0
M  V30 5876 C 568.421 -4.07749 1.65616 0
M  V30 5877 H 565.54 -0.616144 0.404396 0
M  V30 5878 H 568.182 -1.10394 1.54639 0
M  V30 5879 H 566.332 -3.58462 1.4979 0
M  V30 5880 H 568.004 -2.50476 3.87375 0
M  V30 5881 H 566.247 -2.29686 3.68004 0
M  V30 5882 H 566.918 -3.91719 3.88922 0
M  V30 5883 H 569.394 -3.65994 1.97959 0
M  V30 5884 H 568.27 -5.02348 2.21218 0
M  V30 5885 H 568.531 -4.38029 0.598595 0
M  V30 5886 N 567.59 -1.07411 -1.15328 0
M  V30 5887 C 568.523 -0.63913 -2.19067 0
M  V30 5888 C 569.501 0.343929 -1.58921 0
M  V30 5889 O 570.685 0.250207 -1.86832 0
M  V30 5890 C 567.812 0.0613977 -3.38644 0
M  V30 5891 C 566.858 -0.880201 -4.17318 0
M  V30 5892 S 567.691 -2.38152 -4.79629 0
M  V30 5893 C 568.847 -1.69281 -6.02573 0
M  V30 5894 H 569.08 -1.51799 -2.55626 0
M  V30 5895 H 566.613 -0.888138 -1.26299 0
M  V30 5896 H 568.571 0.459323 -4.07922 0
M  V30 5897 H 567.232 0.916605 -3.00428 0
M  V30 5898 H 566.425 -0.336781 -5.02874 0
M  V30 5899 H 566.027 -1.21854 -3.53592 0
M  V30 5900 H 568.319 -1.00488 -6.70006 0
M  V30 5901 H 569.262 -2.52671 -6.61485 0
M  V30 5902 H 569.67 -1.17053 -5.52231 0
M  V30 5903 N 569.068 1.32177 -0.85831 0
M  V30 5904 C 570.001 2.26823 -0.25035 0
M  V30 5905 C 570.979 1.50571 0.61378 0
M  V30 5906 O 572.163 1.79682 0.569777 0
M  V30 5907 C 569.29 3.32472 0.646556 0
M  V30 5908 C 568.336 4.26255 -0.144675 0
M  V30 5909 S 569.169 5.13608 -1.5155 0
M  V30 5910 C 570.325 6.22778 -0.624408 0
M  V30 5911 H 570.558 2.7804 -1.05267 0
M  V30 5912 H 568.091 1.39764 -0.656152 0
M  V30 5913 H 570.049 3.93817 1.15837 0
M  V30 5914 H 568.71 2.80031 1.42272 0
M  V30 5915 H 567.903 5.01114 0.538613 0
M  V30 5916 H 567.505 3.69346 -0.588198 0
M  V30 5917 H 569.797 6.77287 0.169846 0
M  V30 5918 H 570.74 6.95233 -1.34376 0
M  V30 5919 H 571.148 5.64156 -0.197128 0
M  V30 5920 N 570.547 0.616602 1.45037 0
M  V30 5921 C 571.495 -0.109318 2.32343 0
M  V30 5922 C 572.489 -0.850543 1.465 0
M  V30 5923 O 573.695 -0.765088 1.62931 0
M  V30 5924 H 570.07 -0.0541091 0.750051 0
M  V30 5925 H 572.041 0.645326 2.91338 0
M  V30 5926 C 570.79 -1.0872 3.30266 0
M  V30 5927 H 570.113 -0.526267 3.96321 0
M  V30 5928 H 571.553 -1.56489 3.94065 0
M  V30 5929 C 570.012 -2.16525 2.58105 0
M  V30 5930 O 570.542 -3.244 2.36913 0
M  V30 5931 N 568.748 -1.92057 2.18088 0
M  V30 5932 H 568.295 -1.04337 2.35524 0
M  V30 5933 H 568.253 -2.64391 1.70131 0
M  V30 5934 N 572.025 -1.5352 0.356285 0
M  V30 5935 C 573.302 -1.93405 -0.292223 0
M  V30 5936 C 573.682 -1.28901 -1.67176 0
M  V30 5937 O 573.03 -0.444632 -2.24132 0
M  V30 5938 C 573.24 -3.47223 -0.35175 0
M  V30 5939 C 574.588 -4.20389 -0.596534 0
M  V30 5940 O 575.612 -3.53554 -0.433344 0
M  V30 5941 O 574.471 -5.3881 -0.913589 0
M  V30 5942 H 571.565 -0.808666 -0.173172 0
M  V30 5943 H 574.111 -1.64713 0.408391 0
M  V30 5944 H 572.883 -3.86423 0.615841 0
M  V30 5945 H 572.506 -3.8212 -1.09864 0
M  V30 5946 N 573.503 -0.0852151 -1.57369 0
M  V30 5947 C 574.731 0.58946 -1.98325 0
M  V30 5948 C 575.146 1.62333 -0.96403 0
M  V30 5949 O 574.503 1.82438 0.0476395 0
M  V30 5950 C 574.554 1.24604 -3.39347 0
M  V30 5951 O 574.275 0.253532 -4.37366 0
M  V30 5952 C 575.776 2.00726 -3.95252 0
M  V30 5953 H 572.996 0.158783 -0.651942 0
M  V30 5954 H 575.54 -0.161584 -2.03861 0
M  V30 5955 H 573.695 1.94808 -3.34856 0
M  V30 5956 H 574.109 0.726207 -5.19448 0
M  V30 5957 H 575.583 2.42039 -4.96106 0
M  V30 5958 H 576.06 2.86919 -3.32527 0
M  V30 5959 H 576.666 1.3536 -4.03185 0
M  V30 5960 N 574.981 1.5647 0.188427 0
M  V30 5961 C 575.911 1.98101 1.23606 0
M  V30 5962 C 576.892 0.853961 1.47111 0
M  V30 5963 O 578.077 1.11879 1.58735 0
M  V30 5964 C 575.207 2.32624 2.57882 0
M  V30 5965 C 574.161 3.48129 2.48978 0
M  V30 5966 C 573.487 3.68347 3.87588 0
M  V30 5967 C 574.787 4.82112 2.00911 0
M  V30 5968 H 576.481 2.85864 0.890068 0
M  V30 5969 H 574.027 1.37532 0.426714 0
M  V30 5970 H 575.98 2.60343 3.3136 0
M  V30 5971 H 574.704 1.41751 2.94235 0
M  V30 5972 H 573.363 3.20511 1.77956 0
M  V30 5973 H 573.011 2.74793 4.21305 0
M  V30 5974 H 572.711 4.46055 3.82503 0
M  V30 5975 H 574.235 3.98449 4.62678 0
M  V30 5976 H 575.649 5.08819 2.64151 0
M  V30 5977 H 574.046 5.63337 2.06814 0
M  V30 5978 H 575.116 4.75249 0.96262 0
M  V30 5979 N 576.459 -0.456382 1.50847 0
M  V30 5980 C 577.706 -1.20736 1.62571 0
M  V30 5981 C 578.034 -1.9163 0.332904 0
M  V30 5982 O 577.289 -1.8343 -0.682058 0
M  V30 5983 C 577.588 -2.26336 2.76599 0
M  V30 5984 C 577.254 -1.7259 4.16562 0
M  V30 5985 C 575.916 -1.57654 4.54641 0
M  V30 5986 C 578.268 -1.32877 5.03977 0
M  V30 5987 C 575.596 -1.0145 5.77862 0
M  V30 5988 C 577.948 -0.7811 6.27759 0
M  V30 5989 C 576.612 -0.618488 6.64628 0
M  V30 5990 H 575.882 -0.441803 0.594888 0
M  V30 5991 H 578.529 -0.501169 1.84826 0
M  V30 5992 H 576.834 -3.0292 2.48489 0
M  V30 5993 H 578.531 -2.84227 2.82871 0
M  V30 5994 H 575.121 -1.85187 3.86528 0
M  V30 5995 H 579.305 -1.43245 4.75179 0
M  V30 5996 H 574.561 -0.876109 6.0509 0
M  V30 5997 H 578.735 -0.464783 6.94847 0
M  V30 5998 H 576.362 -0.180838 7.59985 0
M  V30 5999 N 577.937 -1.40673 -0.710563 0
M  V30 6000 C 578.885 -1.41517 -1.84596 0
M  V30 6001 C 579.879 -0.295043 -1.66811 0
M  V30 6002 O 581.085 -0.466331 -1.73854 0
M  V30 6003 H 577.46 -0.442467 -0.608052 0
M  V30 6004 H 579.431 -2.37238 -1.80999 0
M  V30 6005 C 578.18 -1.29957 -3.225 0
M  V30 6006 H 577.503 -2.15429 -3.36794 0
M  V30 6007 H 578.943 -1.34608 -4.02066 0
M  V30 6008 C 577.402 -0.0103164 -3.36898 0
M  V30 6009 O 577.932 0.950707 -3.90288 0
M  V30 6010 N 576.138 0.0608409 -2.90536 0
M  V30 6011 H 575.685 -0.721943 -2.47277 0
M  V30 6012 H 575.643 0.92292 -3.00549 0
M  V30 6013 N 579.415 0.9433 -1.26252 0
M  V30 6014 C 580.378 2.02326 -1.07689 0
M  V30 6015 C 581.378 1.60779 -0.0259174 0
M  V30 6016 O 582.568 1.72108 -0.269134 0
M  V30 6017 C 579.7 3.34886 -0.63752 0
M  V30 6018 H 580.893 2.20225 -2.0357 0
M  V30 6019 H 578.446 1.12197 -1.08819 0
M  V30 6020 H 579.181 3.22684 0.323377 0
M  V30 6021 H 578.966 3.66393 -1.39637 0
M  V30 6022 H 580.456 4.14231 -0.529418 0
M  V30 6023 N 580.893 1.08022 1.14757 0
M  V30 6024 C 581.823 0.728248 2.21853 0
M  V30 6025 C 582.804 -0.287486 1.67653 0
M  V30 6026 O 583.989 -0.158727 1.9355 0
M  V30 6027 C 581.119 0.132549 3.47047 0
M  V30 6028 C 580.073 1.07619 4.14249 0
M  V30 6029 C 579.399 0.342907 5.33599 0
M  V30 6030 C 580.699 2.41268 4.63235 0
M  V30 6031 H 582.393 1.62365 2.51551 0
M  V30 6032 H 579.939 0.782125 1.20908 0
M  V30 6033 H 581.892 -0.125665 4.21213 0
M  V30 6034 H 580.616 -0.797971 3.16702 0
M  V30 6035 H 579.275 1.31944 3.42033 0
M  V30 6036 H 578.923 -0.59129 4.99513 0
M  V30 6037 H 578.623 0.971955 5.79506 0
M  V30 6038 H 580.147 0.0926538 6.1053 0
M  V30 6039 H 581.561 2.21232 5.28894 0
M  V30 6040 H 579.958 2.9983 5.19829 0
M  V30 6041 H 581.028 3.03079 3.78512 0
M  V30 6042 N 582.371 -1.3172 0.865308 0
M  V30 6043 C 583.319 -2.30569 0.306674 0
M  V30 6044 C 584.313 -1.59317 -0.575724 0
M  V30 6045 O 585.519 -1.73961 -0.462343 0
M  V30 6046 H 581.894 -0.747681 0.0804834 0
M  V30 6047 H 583.865 -2.75165 1.15441 0
M  V30 6048 C 582.614 -3.44358 -0.480952 0
M  V30 6049 H 581.937 -3.99354 0.18876 0
M  V30 6050 H 583.377 -4.15652 -0.837241 0
M  V30 6051 C 581.836 -2.92574 -1.67039 0
M  V30 6052 O 582.366 -2.90954 -2.76964 0
M  V30 6053 N 580.572 -2.48835 -1.50097 0
M  V30 6054 H 580.119 -2.50353 -0.606738 0
M  V30 6055 H 580.077 -2.14543 -2.29823 0
M  V30 6056 N 583.85 -0.624285 -1.44708 0
M  V30 6057 C 585.127 -0.0572781 -1.95516 0
M  V30 6058 C 585.507 1.41516 -1.56641 0
M  V30 6059 O 584.855 2.12614 -0.837111 0
M  V30 6060 C 585.065 -0.272944 -3.47931 0
M  V30 6061 C 586.413 -0.162529 -4.24289 0
M  V30 6062 O 587.437 -0.203946 -3.55616 0
M  V30 6063 O 586.296 -0.0616847 -5.46465 0
M  V30 6064 H 583.389 0.0262219 -0.826584 0
M  V30 6065 H 585.936 -0.695512 -1.54793 0
M  V30 6066 H 584.707 -1.29492 -3.69253 0
M  V30 6067 H 584.331 0.399756 -3.95585 0
M  V30 6068 N 585.328 1.53329 -0.364422 0
M  V30 6069 C 586.574 2.02222 0.21855 0
M  V30 6070 C 586.929 1.24702 1.46517 0
M  V30 6071 O 586.222 0.331969 1.88702 0
M  V30 6072 C 586.416 3.52911 0.564661 0
M  V30 6073 C 586.245 4.45023 -0.646862 0
M  V30 6074 C 585.015 4.91838 -1.15858 0
M  V30 6075 C 587.213 4.91581 -1.51172 0
M  V30 6076 N 585.195 5.67955 -2.33025 0
M  V30 6077 C 586.566 5.66028 -2.53006 0
M  V30 6078 C 588.621 4.73656 -1.53473 0
M  V30 6079 C 587.324 6.24457 -3.56996 0
M  V30 6080 C 589.35 5.3295 -2.56356 0
M  V30 6081 C 588.712 6.07282 -3.56914 0
M  V30 6082 H 584.811 0.780832 0.0427199 0
M  V30 6083 H 587.395 1.87937 -0.508704 0
M  V30 6084 H 585.566 3.6736 1.26099 0
M  V30 6085 H 587.298 3.88528 1.13262 0
M  V30 6086 H 584.053 4.68043 -0.723393 0
M  V30 6087 H 584.477 6.10675 -2.92241 0
M  V30 6088 H 589.119 4.15714 -0.770842 0
M  V30 6089 H 586.837 6.81496 -4.34268 0
M  V30 6090 H 590.423 5.20976 -2.58989 0
M  V30 6091 H 589.303 6.52345 -4.35218 0
M  V30 6092 N 586.806 0.0935595 1.57322 0
M  V30 6093 C 588.052 -0.571355 1.94585 0
M  V30 6094 C 588.385 -1.67929 0.975366 0
M  V30 6095 O 587.66 -1.94498 0.00816206 0
M  V30 6096 C 587.943 -1.12797 3.41978 0
M  V30 6097 C 587.796 -0.0251881 4.49793 0
M  V30 6098 C 589.115 -2.02682 3.90651 0
M  V30 6099 H 586.234 -0.206223 0.70756 0
M  V30 6100 H 588.876 0.163956 1.89291 0
M  V30 6101 H 587.026 -1.75461 3.4662 0
M  V30 6102 H 588.698 0.608979 4.57263 0
M  V30 6103 H 586.941 0.641399 4.29032 0
M  V30 6104 H 587.612 -0.455433 5.50118 0
M  V30 6105 H 590.088 -1.49925 3.88152 0
M  V30 6106 H 588.964 -2.38555 4.94351 0
M  V30 6107 H 589.225 -2.94362 3.29854 0
M  V30 6108 N 588.284 -1.56567 -0.180126 0
M  V30 6109 C 589.561 -1.7235 -0.924931 0
M  V30 6110 C 589.941 -0.652523 -2.00762 0
M  V30 6111 O 589.289 0.334115 -2.26044 0
M  V30 6112 C 589.499 -3.1523 -1.49771 0
M  V30 6113 C 590.847 -3.75921 -1.97405 0
M  V30 6114 O 591.871 -3.18452 -1.59583 0
M  V30 6115 O 590.73 -4.7681 -2.67048 0
M  V30 6116 H 587.824 -0.703502 -0.434758 0
M  V30 6117 H 590.37 -1.6886 -0.168647 0
M  V30 6118 H 589.142 -3.84656 -0.718027 0
M  V30 6119 H 588.765 -3.23009 -2.31842 0
M  V30 6120 N 589.762 0.448376 -1.51087 0
M  V30 6121 C 591.178 0.783984 -1.39017 0
M  V30 6122 C 591.378 1.96087 -0.463904 0
M  V30 6123 O 590.434 2.52357 0.0850534 0
M  V30 6124 C 591.747 1.07471 -2.80839 0
M  V30 6125 C 593.295 1.17981 -2.89913 0
M  V30 6126 C 593.77 1.50354 -4.32617 0
M  V30 6127 N 595.261 1.57301 -4.35673 0
M  V30 6128 C 595.996 1.839 -5.4311 0
M  V30 6129 N 595.492 2.08365 -6.60724 0
M  V30 6130 N 597.285 1.8559 -5.30578 0
M  V30 6131 H 589.436 -0.326881 -2.0987 0
M  V30 6132 H 591.699 -0.0838006 -0.944289 0
M  V30 6133 H 591.405 0.282768 -3.50561 0
M  V30 6134 H 591.279 2.00519 -3.19487 0
M  V30 6135 H 593.666 1.9624 -2.20395 0
M  V30 6136 H 593.747 0.228603 -2.54776 0
M  V30 6137 H 593.391 0.726273 -5.0268 0
M  V30 6138 H 593.321 2.46663 -4.65258 0
M  V30 6139 H 595.812 1.40342 -3.50874 0
M  V30 6140 H 596.125 2.27999 -7.38401 0
M  V30 6141 H 594.47 2.0571 -6.63859 0
M  V30 6142 H 597.661 1.65989 -4.37682 0
M  V30 6143 H 597.834 2.05983 -6.1439 0
M  V30 6144 N 591.24 1.41047 0.703093 0
M  V30 6145 C 592.47 1.43133 1.48985 0
M  V30 6146 C 592.878 0.0328537 1.89171 0
M  V30 6147 O 592.221 -0.956469 1.56835 0
M  V30 6148 C 592.283 2.26991 2.78775 0
M  V30 6149 C 591.947 3.7525 2.60837 0
M  V30 6150 C 592.944 4.67591 2.27276 0
M  V30 6151 C 590.629 4.19208 2.76712 0
M  V30 6152 C 592.623 6.01877 2.09817 0
M  V30 6153 C 590.31 5.53561 2.5887 0
M  V30 6154 C 591.308 6.4471 2.25472 0
M  V30 6155 O 590.996 7.76584 2.07778 0
M  V30 6156 H 590.728 0.489788 0.465922 0
M  V30 6157 H 593.282 1.85886 0.873822 0
M  V30 6158 H 591.512 1.79038 3.42757 0
M  V30 6159 H 593.201 2.20867 3.40547 0
M  V30 6160 H 593.967 4.34923 2.14633 0
M  V30 6161 H 589.846 3.48572 3.01693 0
M  V30 6162 H 593.39 6.72986 1.83671 0
M  V30 6163 H 589.287 5.85811 2.71102 0
M  V30 6164 H 590.055 7.87649 2.22601 0
M  V30 6165 N 592.718 -0.936591 1.26751 0
M  V30 6166 C 593.948 -1.71509 1.15188 0
M  V30 6167 C 594.356 -1.86885 -0.295037 0
M  V30 6168 O 593.699 -1.37915 -1.21347 0
M  V30 6169 C 593.761 -3.13853 1.75318 0
M  V30 6170 C 593.425 -3.21845 3.24445 0
M  V30 6171 C 594.422 -3.04771 4.21201 0
M  V30 6172 C 592.107 -3.45088 3.64992 0
M  V30 6173 C 594.101 -3.10816 5.56482 0
M  V30 6174 C 591.788 -3.50767 5.00405 0
M  V30 6175 C 592.786 -3.33648 5.9596 0
M  V30 6176 O 592.474 -3.39045 7.28906 0
M  V30 6177 H 592.206 -0.543658 0.401761 0
M  V30 6178 H 594.76 -1.18234 1.67958 0
M  V30 6179 H 592.99 -3.6857 1.17016 0
M  V30 6180 H 594.679 -3.73634 1.58596 0
M  V30 6181 H 595.445 -2.86665 3.91214 0
M  V30 6182 H 591.324 -3.57467 2.91098 0
M  V30 6183 H 594.868 -2.97372 6.31043 0
M  V30 6184 H 590.765 -3.68396 5.30052 0
M  V30 6185 H 591.533 -3.55558 7.37238 0
M  V30 6186 N 594.196 -1.08629 -1.14182 0
M  V30 6187 C 595.612 -0.814363 -1.3726 0
M  V30 6188 C 595.812 0.575271 -1.93114 0
M  V30 6189 O 594.868 1.33165 -2.1453 0
M  V30 6190 C 596.181 -1.8989 -2.33157 0
M  V30 6191 C 597.729 -1.92518 -2.46791 0
M  V30 6192 C 598.204 -3.00092 -3.45989 0
M  V30 6193 N 599.695 -2.99279 -3.53534 0
M  V30 6194 C 600.43 -3.79158 -4.30147 0
M  V30 6195 N 599.926 -4.68923 -5.09983 0
M  V30 6196 N 601.719 -3.67451 -4.25366 0
M  V30 6197 H 593.87 -1.98232 -0.762758 0
M  V30 6198 H 596.133 -0.860383 -0.398051 0
M  V30 6199 H 595.839 -2.89809 -1.99257 0
M  V30 6200 H 595.713 -1.77013 -3.33086 0
M  V30 6201 H 598.1 -0.932425 -2.79982 0
M  V30 6202 H 598.181 -2.09473 -1.46816 0
M  V30 6203 H 597.825 -3.99575 -3.13532 0
M  V30 6204 H 597.755 -2.80382 -4.45751 0
M  V30 6205 H 600.246 -2.3422 -2.96563 0
M  V30 6206 H 600.559 -5.26475 -5.65724 0
M  V30 6207 H 598.904 -4.72964 -5.09244 0
M  V30 6208 H 602.095 -2.9669 -3.62067 0
M  V30 6209 H 602.268 -4.29944 -4.84822 0
M  V30 6210 N 595.674 1.31259 -0.872281 0
M  V30 6211 C 596.951 1.91362 -0.404943 0
M  V30 6212 C 597.331 1.79362 1.11321 0
M  V30 6213 O 596.679 1.20277 1.94283 0
M  V30 6214 C 596.889 3.3749 -0.888893 0
M  V30 6215 C 598.237 4.14593 -0.916384 0
M  V30 6216 O 599.261 3.46282 -0.834701 0
M  V30 6217 O 598.12 5.3661 -1.03498 0
M  V30 6218 H 595.214 0.818016 -0.121569 0
M  V30 6219 H 597.76 1.39912 -0.960346 0
M  V30 6220 H 596.532 3.40249 -1.93251 0
M  V30 6221 H 596.155 3.96375 -0.311932 0
M  V30 6222 N 597.152 0.631951 1.44375 0
M  V30 6223 C 598.568 0.297642 1.568 0
M  V30 6224 C 598.768 -1.19916 1.61934 0
M  V30 6225 O 597.824 -1.98324 1.56281 0
M  V30 6226 C 599.137 0.990286 2.83926 0
M  V30 6227 C 600.685 0.968507 2.97639 0
M  V30 6228 C 601.16 1.64163 4.27568 0
M  V30 6229 N 602.651 1.60826 4.34384 0
M  V30 6230 C 603.386 2.09802 5.33639 0
M  V30 6231 N 602.882 2.66973 6.39294 0
M  V30 6232 N 604.675 2.00426 5.25153 0
M  V30 6233 H 596.826 1.60353 1.39286 0
M  V30 6234 H 599.089 0.673142 0.667521 0
M  V30 6235 H 598.795 2.04519 2.8612 0
M  V30 6236 H 598.669 0.528563 3.73478 0
M  V30 6237 H 601.056 -0.0779247 2.94997 0
M  V30 6238 H 601.137 1.46873 2.09433 0
M  V30 6239 H 600.781 2.68752 4.3097 0
M  V30 6240 H 600.711 1.11624 5.14634 0
M  V30 6241 H 603.202 1.19087 3.58646 0
M  V30 6242 H 603.515 3.02074 7.11316 0
M  V30 6243 H 601.86 2.71024 6.39977 0
M  V30 6244 H 605.051 1.55483 4.41523 0
M  V30 6245 H 605.224 2.38906 6.02352 0
M  V30 6246 N 598.631 -1.53133 0.372548 0
M  V30 6247 C 599.561 -2.28876 -0.462412 0
M  V30 6248 C 600.542 -1.31583 -1.07796 0
M  V30 6249 O 601.727 -1.60461 -1.09389 0
M  V30 6250 C 598.857 -3.08317 -1.59868 0
M  V30 6251 C 597.811 -4.13355 -1.11003 0
M  V30 6252 C 597.137 -4.8092 -2.33708 0
M  V30 6253 C 598.437 -5.21955 -0.18983 0
M  V30 6254 H 600.131 -2.9892 0.169511 0
M  V30 6255 H 597.677 -1.43761 0.0829658 0
M  V30 6256 H 599.63 -3.60055 -2.18949 0
M  V30 6257 H 598.354 -2.35976 -2.25794 0
M  V30 6258 H 597.013 -3.62573 -0.541869 0
M  V30 6259 H 596.661 -4.05144 -2.98106 0
M  V30 6260 H 596.361 -5.51904 -2.01682 0
M  V30 6261 H 597.885 -5.35455 -2.93462 0
M  V30 6262 H 599.299 -5.69153 -0.688319 0
M  V30 6263 H 597.696 -6.00087 0.0398887 0
M  V30 6264 H 598.766 -4.78811 0.766057 0
M  V30 6265 N 600.109 -0.101901 -1.5727 0
M  V30 6266 C 601.337 0.568392 -1.98939 0
M  V30 6267 C 601.752 1.61301 -0.981194 0
M  V30 6268 O 601.109 1.82478 0.0282869 0
M  V30 6269 C 601.16 1.20997 -3.40649 0
M  V30 6270 O 600.881 0.207129 -4.3761 0
M  V30 6271 C 602.382 1.96523 -3.97358 0
M  V30 6272 H 599.602 0.15186 -0.65359 0
M  V30 6273 H 602.146 -0.183198 -2.03678 0
M  V30 6274 H 600.301 1.91245 -3.36904 0
M  V30 6275 H 600.715 0.671071 -5.20189 0
M  V30 6276 H 602.189 2.36764 -4.98645 0
M  V30 6277 H 602.666 2.83376 -3.35552 0
M  V30 6278 H 603.272 1.31076 -4.04598 0
M  V30 6279 N 601.587 1.56661 0.17182 0
M  V30 6280 C 602.55 1.9549 1.19651 0
M  V30 6281 C 603.55 0.838501 1.37207 0
M  V30 6282 O 604.74 1.10556 1.34622 0
M  V30 6283 C 601.872 2.24927 2.56166 0
M  V30 6284 H 603.065 2.87184 0.864007 0
M  V30 6285 H 600.618 1.50711 0.41425 0
M  V30 6286 H 601.353 1.35944 2.94431 0
M  V30 6287 H 601.138 3.06301 2.4479 0
M  V30 6288 H 602.628 2.55891 3.30014 0
M  V30 6289 N 603.065 -0.440357 1.51323 0
M  V30 6290 C 604.028 -1.51679 1.71832 0
M  V30 6291 C 605.028 -1.49648 0.588386 0
M  V30 6292 O 606.218 -1.51724 0.855891 0
M  V30 6293 C 603.35 -2.91228 1.77199 0
M  V30 6294 H 604.543 -1.34799 2.67898 0
M  V30 6295 H 602.096 -0.66883 1.41267 0
M  V30 6296 H 602.831 -3.13516 0.829363 0
M  V30 6297 H 602.616 -2.94107 2.59314 0
M  V30 6298 H 604.106 -3.69321 1.94915 0
M  V30 6299 N 604.543 -1.41418 -0.695603 0
M  V30 6300 C 605.82 -1.31264 -1.45014 0
M  V30 6301 C 606.2 0.0597994 -2.11015 0
M  V30 6302 O 605.548 1.07403 -2.01685 0
M  V30 6303 C 605.758 -2.466 -2.4696 0
M  V30 6304 C 607.106 -2.87763 -3.12214 0
M  V30 6305 O 608.13 -2.46339 -2.57285 0
M  V30 6306 O 606.989 -3.59395 -4.11701 0
M  V30 6307 H 604.083 -0.516576 -0.645816 0
M  V30 6308 H 606.629 -1.53382 -0.726084 0
M  V30 6309 H 605.401 -3.38183 -1.96845 0
M  V30 6310 H 605.024 -2.26358 -3.26876 0
M  V30 6311 N 606.021 0.929856 -1.27246 0
M  V30 6312 C 606.951 2.04722 -1.12299 0
M  V30 6313 C 607.932 1.70082 -0.0250464 0
M  V30 6314 O 609.117 1.93176 -0.199141 0
M  V30 6315 C 606.247 3.38721 -0.767145 0
M  V30 6316 C 605.201 3.87466 -1.81808 0
M  V30 6317 C 604.527 5.18246 -1.31626 0
M  V30 6318 C 605.827 4.11095 -3.22177 0
M  V30 6319 H 607.521 2.17485 -2.05769 0
M  V30 6320 H 605.067 1.04503 -0.990715 0
M  V30 6321 H 607.02 4.16366 -0.649413 0
M  V30 6322 H 605.744 3.25967 0.203259 0
M  V30 6323 H 604.403 3.12012 -1.92468 0
M  V30 6324 H 604.051 5.01881 -0.335378 0
M  V30 6325 H 603.751 5.51829 -2.01887 0
M  V30 6326 H 605.275 5.98462 -1.21143 0
M  V30 6327 H 606.689 4.79316 -3.1453 0
M  V30 6328 H 605.086 4.55982 -3.90129 0
M  V30 6329 H 606.156 3.16468 -3.67391 0
M  V30 6330 N 607.499 1.09233 1.13605 0
M  V30 6331 C 608.462 0.733553 2.17144 0
M  V30 6332 C 609.462 -0.235873 1.59061 0
M  V30 6333 O 610.652 -0.0143167 1.74194 0
M  V30 6334 C 607.784 0.084471 3.40795 0
M  V30 6335 H 608.977 1.65049 2.50397 0
M  V30 6336 H 606.53 0.891264 1.28399 0
M  V30 6337 H 607.265 -0.843795 3.1313 0
M  V30 6338 H 607.05 0.781985 3.84223 0
M  V30 6339 H 608.54 -0.151216 4.17326 0
M  V30 6340 N 608.977 -1.30795 0.87923 0
M  V30 6341 C 610.254 -1.91145 0.415086 0
M  V30 6342 C 610.634 -1.7995 -1.10368 0
M  V30 6343 O 609.982 -1.21305 -1.93642 0
M  V30 6344 C 610.192 -3.37014 0.906778 0
M  V30 6345 C 611.54 -4.14101 0.938358 0
M  V30 6346 O 612.564 -3.45834 0.853053 0
M  V30 6347 O 611.423 -5.36054 1.06342 0
M  V30 6348 H 608.517 -0.81736 0.125905 0
M  V30 6349 H 611.063 -1.39401 0.967753 0
M  V30 6350 H 609.835 -3.3922 1.95053 0
M  V30 6351 H 609.458 -3.96204 0.332948 0
M  V30 6352 N 610.455 -0.639598 -1.44038 0
M  V30 6353 C 611.866 -0.228866 -1.85292 0
M  V30 6354 C 612.217 1.22161 -1.53529 0
M  V30 6355 O 611.342 1.93064 -0.977518 0
M  V30 6356 C 611.937 -0.408592 -3.36327 0
M  V30 6357 C 610.496 -0.0522953 -3.76364 0
M  V30 6358 C 609.643 -0.717959 -2.67844 0
M  V30 6359 H 612.594 -0.844194 -1.34384 0
M  V30 6360 H 612.615 0.349968 -3.78887 0
M  V30 6361 H 612.127 -1.46435 -3.59414 0
M  V30 6362 H 610.228 1.0014 -3.58891 0
M  V30 6363 H 610.341 -0.468261 -4.76806 0
M  V30 6364 H 608.705 -0.152459 -2.54243 0
M  V30 6365 H 609.488 -1.77648 -2.93762 0
M  V30 6366 N 611.933 1.52934 -0.380664 0
M  V30 6367 C 612.865 2.23822 0.493581 0
M  V30 6368 C 613.878 1.25761 1.03383 0
M  V30 6369 O 615.067 1.5189 0.937633 0
M  V30 6370 C 612.167 2.9342 1.69582 0
M  V30 6371 C 611.34 4.18115 1.28445 0
M  V30 6372 C 610.399 4.70788 2.35042 0
M  V30 6373 O 609.425 5.34093 1.96807 0
M  V30 6374 N 610.627 4.49899 3.66839 0
M  V30 6375 H 613.392 2.99484 -0.11371 0
M  V30 6376 H 610.953 1.60577 -0.206587 0
M  V30 6377 H 612.945 3.2556 2.40401 0
M  V30 6378 H 611.515 2.21119 2.20965 0
M  V30 6379 H 610.735 3.92109 0.405503 0
M  V30 6380 H 612.023 4.99152 0.986132 0
M  V30 6381 H 611.421 3.99349 4.0067 0
M  V30 6382 H 609.978 4.86551 4.33718 0
M  V30 6383 N 613.412 0.11024 1.57214 0
M  V30 6384 C 614.342 -0.840002 2.17867 0
M  V30 6385 C 615.323 -1.28352 1.11624 0
M  V30 6386 O 616.508 -1.3477 1.39824 0
M  V30 6387 C 613.638 -2.09349 2.77111 0
M  V30 6388 C 612.592 -1.78807 3.8886 0
M  V30 6389 C 611.918 -3.11112 4.34872 0
M  V30 6390 C 613.218 -1.0632 5.11364 0
M  V30 6391 H 614.912 -0.334608 2.97524 0
M  V30 6392 H 612.458 -0.159502 1.43114 0
M  V30 6393 H 614.411 -2.76275 3.18198 0
M  V30 6394 H 613.135 -2.62198 1.9473 0
M  V30 6395 H 611.794 -1.14273 3.48335 0
M  V30 6396 H 611.442 -3.61877 3.49362 0
M  V30 6397 H 611.142 -2.91453 5.10224 0
M  V30 6398 H 612.666 -3.79171 4.78604 0
M  V30 6399 H 614.08 -1.63383 5.49526 0
M  V30 6400 H 612.477 -0.967876 5.92243 0
M  V30 6401 H 613.547 -0.0484569 4.84876 0
M  V30 6402 N 614.89 -1.56749 -0.16351 0
M  V30 6403 C 615.82 -2.00042 -1.20438 0
M  V30 6404 C 616.801 -0.877256 -1.45733 0
M  V30 6405 O 617.986 -1.1439 -1.56935 0
M  V30 6406 C 615.116 -2.36697 -2.54149 0
M  V30 6407 C 614.07 -3.52046 -2.43408 0
M  V30 6408 C 613.396 -3.74466 -3.81679 0
M  V30 6409 C 614.696 -4.85247 -1.93216 0
M  V30 6410 H 616.39 -2.87244 -0.844477 0
M  V30 6411 H 613.936 -1.38194 -0.40478 0
M  V30 6412 H 615.889 -2.65582 -3.27176 0
M  V30 6413 H 614.613 -1.46414 -2.91943 0
M  V30 6414 H 613.272 -3.23301 -1.72834 0
M  V30 6415 H 612.92 -2.81461 -4.1688 0
M  V30 6416 H 612.62 -4.52084 -3.75359 0
M  V30 6417 H 614.144 -4.0576 -4.5628 0
M  V30 6418 H 615.558 -5.12957 -2.56023 0
M  V30 6419 H 613.955 -5.66556 -1.97825 0
M  V30 6420 H 615.025 -4.7672 -0.88689 0
M  V30 6421 N 616.368 0.432326 -1.51554 0
M  V30 6422 C 617.784 0.769195 -1.39841 0
M  V30 6423 C 617.984 1.95584 -0.484675 0
M  V30 6424 O 617.04 2.52433 0.0582829 0
M  V30 6425 C 618.353 1.04487 -2.81963 0
M  V30 6426 C 619.901 1.149 -2.91148 0
M  V30 6427 C 620.376 1.45758 -4.34187 0
M  V30 6428 N 621.867 1.52671 -4.37317 0
M  V30 6429 C 622.602 1.78129 -5.4503 0
M  V30 6430 N 622.098 2.01345 -6.62897 0
M  V30 6431 N 623.891 1.79953 -5.32516 0
M  V30 6432 H 616.042 -0.349122 -2.09511 0
M  V30 6433 H 618.305 -0.0938113 -0.943347 0
M  V30 6434 H 618.011 0.24557 -3.50842 0
M  V30 6435 H 617.885 1.97119 -3.21596 0
M  V30 6436 H 620.272 1.93891 -2.22464 0
M  V30 6437 H 620.353 0.201568 -2.55005 0
M  V30 6438 H 619.997 0.672917 -5.03423 0
M  V30 6439 H 619.927 2.41715 -4.67848 0
M  V30 6440 H 622.418 1.36612 -3.52343 0
M  V30 6441 H 622.731 2.20155 -7.40778 0
M  V30 6442 H 621.076 1.98657 -6.66003 0
M  V30 6443 H 624.267 1.61337 -4.39418 0
M  V30 6444 H 624.44 1.99455 -6.1654 0
M  V30 6445 N 617.846 1.41785 0.688094 0
M  V30 6446 C 618.756 1.46596 1.83158 0
M  V30 6447 C 619.772 0.355862 1.70322 0
M  V30 6448 O 620.948 0.604737 1.92106 0
M  V30 6449 C 618.013 1.35322 3.192 0
M  V30 6450 C 617.074 2.56711 3.4409 0
M  V30 6451 C 616.307 2.45965 4.73642 0
M  V30 6452 O 616.53 1.48827 5.50642 0
M  V30 6453 O 615.464 3.35859 4.99482 0
M  V30 6454 H 619.29 2.43083 1.82056 0
M  V30 6455 H 616.875 1.23404 0.842126 0
M  V30 6456 H 618.757 1.31347 4.00407 0
M  V30 6457 H 617.432 0.419536 3.2097 0
M  V30 6458 H 616.339 2.66262 2.62784 0
M  V30 6459 H 617.672 3.48933 3.47141 0
M  V30 6460 N 619.324 -0.923095 1.27737 0
M  V30 6461 C 620.572 -1.66797 1.14119 0
M  V30 6462 C 620.893 -1.92479 -0.312541 0
M  V30 6463 O 620.163 -1.53432 -1.218 0
M  V30 6464 H 618.743 -0.618196 0.419336 0
M  V30 6465 H 621.405 -1.10815 1.60331 0
M  V30 6466 H 620.501 -2.63424 1.67374 0
M  V30 6467 N 620.802 -1.09834 -1.13024 0
M  V30 6468 C 622.218 -0.828875 -1.36388 0
M  V30 6469 C 622.418 0.554756 -1.93713 0
M  V30 6470 O 621.474 1.30882 -2.15931 0
M  V30 6471 C 622.787 -1.92352 -2.3113 0
M  V30 6472 C 624.335 -1.95124 -2.44735 0
M  V30 6473 C 624.81 -3.03745 -3.42787 0
M  V30 6474 N 626.301 -3.03012 -3.5034 0
M  V30 6475 C 627.036 -3.83699 -4.26101 0
M  V30 6476 N 626.532 -4.74306 -5.04981 0
M  V30 6477 N 628.325 -3.71942 -4.21445 0
M  V30 6478 H 620.476 -1.99029 -0.74169 0
M  V30 6479 H 622.739 -0.864557 -0.388903 0
M  V30 6480 H 622.445 -2.91906 -1.96172 0
M  V30 6481 H 622.319 -1.80536 -3.3119 0
M  V30 6482 H 624.706 -0.962069 -2.78977 0
M  V30 6483 H 624.787 -2.11018 -1.44586 0
M  V30 6484 H 624.431 -4.02878 -3.09276 0
M  V30 6485 H 624.361 -2.85094 -4.42752 0
M  V30 6486 H 626.852 -2.37352 -2.94062 0
M  V30 6487 H 627.165 -5.32446 -5.60108 0
M  V30 6488 H 625.51 -4.78339 -5.04199 0
M  V30 6489 H 628.701 -3.00513 -3.589 0
M  V30 6490 H 628.874 -4.35062 -4.80235 0
M  V30 6491 N 622.28 1.30327 -0.886154 0
M  V30 6492 C 623.19 2.31854 -0.357866 0
M  V30 6493 C 624.206 1.65392 0.540502 0
M  V30 6494 O 625.382 1.96683 0.433339 0
M  V30 6495 C 622.447 3.44171 0.417999 0
M  V30 6496 C 621.508 4.26257 -0.510263 0
M  V30 6497 C 620.741 5.3321 0.228669 0
M  V30 6498 O 620.964 5.51542 1.45458 0
M  V30 6499 O 619.898 6.0042 -0.421832 0
M  V30 6500 H 623.724 2.78995 -1.19982 0
M  V30 6501 H 621.309 1.34518 -0.650028 0
M  V30 6502 H 623.191 4.12588 0.857251 0
M  V30 6503 H 621.866 2.99164 1.23623 0
M  V30 6504 H 620.773 3.60533 -0.99835 0
M  V30 6505 H 622.106 4.74871 -1.29454 0
M  V30 6506 N 623.758 0.647228 1.43697 0
M  V30 6507 C 624.721 -0.0385101 2.29168 0
M  V30 6508 C 625.721 -0.756487 1.41894 0
M  V30 6509 O 626.911 -0.598641 1.63591 0
M  V30 6510 C 624.043 -1.06524 3.23829 0
M  V30 6511 H 625.236 0.713445 2.9129 0
M  V30 6512 H 622.789 0.408153 1.50877 0
M  V30 6513 H 623.524 -1.84664 2.66589 0
M  V30 6514 H 623.309 -0.554147 3.88164 0
M  V30 6515 H 624.799 -1.54432 3.87996 0
M  V30 6516 N 625.236 -1.5273 0.388769 0
M  V30 6517 C 626.166 -2.29353 -0.438111 0
M  V30 6518 C 627.147 -1.32719 -1.06394 0
M  V30 6519 O 628.332 -1.61612 -1.07681 0
M  V30 6520 C 625.462 -3.09995 -1.56589 0
M  V30 6521 C 624.416 -4.14509 -1.06613 0
M  V30 6522 C 623.742 -4.83372 -2.28594 0
M  V30 6523 C 625.042 -5.22127 -0.134459 0
M  V30 6524 H 626.736 -2.98723 0.201206 0
M  V30 6525 H 624.282 -1.43665 0.0982089 0
M  V30 6526 H 626.235 -3.62357 -2.15118 0
M  V30 6527 H 624.959 -2.38357 -2.23279 0
M  V30 6528 H 623.618 -3.63128 -0.503383 0
M  V30 6529 H 623.266 -4.08283 -2.93792 0
M  V30 6530 H 622.966 -5.54012 -1.95817 0
M  V30 6531 H 624.49 -5.38538 -2.87766 0
M  V30 6532 H 625.904 -5.69851 -0.627914 0
M  V30 6533 H 624.301 -6.00011 0.103534 0
M  V30 6534 H 625.371 -4.77971 0.816798 0
M  V30 6535 N 626.714 -0.118576 -1.57153 0
M  V30 6536 C 627.991 0.583062 -1.86708 0
M  V30 6537 C 628.371 1.84841 -1.01967 0
M  V30 6538 O 627.719 2.28288 -0.0984673 0
M  V30 6539 C 627.929 0.875912 -3.3783 0
M  V30 6540 C 629.277 1.22916 -4.0642 0
M  V30 6541 O 630.301 0.966188 -3.42846 0
M  V30 6542 O 629.16 1.72269 -5.18638 0
M  V30 6543 H 626.254 0.294185 -0.772906 0
M  V30 6544 H 628.8 -0.153048 -1.69008 0
M  V30 6545 H 627.572 -0.0207776 -3.91294 0
M  V30 6546 H 627.195 1.66719 -3.60958 0
M  V30 6547 N 628.193 1.56834 0.155195 0
M  V30 6548 C 629.439 1.83169 0.870467 0
M  V30 6549 C 629.772 0.698929 1.81187 0
M  V30 6550 O 629.047 -0.298035 1.92203 0
M  V30 6551 C 629.33 3.19965 1.65211 0
M  V30 6552 C 629.183 4.43792 0.732744 0
M  V30 6553 C 630.502 3.53885 2.61636 0
M  V30 6554 H 627.621 0.666288 0.315006 0
M  V30 6555 H 630.263 1.89513 0.135988 0
M  V30 6556 H 628.413 3.14687 2.27825 0
M  V30 6557 H 630.085 4.61148 0.118236 0
M  V30 6558 H 628.328 4.3378 0.0417906 0
M  V30 6559 H 628.999 5.36095 1.31552 0
M  V30 6560 H 631.475 3.5972 2.09143 0
M  V30 6561 H 630.351 4.50648 3.13381 0
M  V30 6562 H 630.612 2.79418 3.42605 0
M  V30 6563 N 629.671 -0.424282 1.51781 0
M  V30 6564 C 630.601 -1.52305 1.7699 0
M  V30 6565 C 631.582 -1.5839 0.620209 0
M  V30 6566 O 632.767 -1.73908 0.864268 0
M  V30 6567 C 629.897 -2.90271 1.90683 0
M  V30 6568 C 628.851 -2.99043 3.06198 0
M  V30 6569 C 628.177 -4.39116 3.05092 0
M  V30 6570 C 629.477 -2.7192 4.45934 0
M  V30 6571 H 631.171 -1.31461 2.68995 0
M  V30 6572 H 628.717 -0.630985 1.29439 0
M  V30 6573 H 630.67 -3.6711 2.06901 0
M  V30 6574 H 629.394 -3.12376 0.953365 0
M  V30 6575 H 628.053 -2.24646 2.89706 0
M  V30 6576 H 627.701 -4.58207 2.07498 0
M  V30 6577 H 627.401 -4.45912 3.82669 0
M  V30 6578 H 628.925 -5.17911 3.2342 0
M  V30 6579 H 630.339 -3.38487 4.62709 0
M  V30 6580 H 628.736 -2.90111 5.25315 0
M  V30 6581 H 629.806 -1.67445 4.55072 0
M  V30 6582 N 631.149 -1.42148 -0.680565 0
M  V30 6583 C 632.374 -1.45901 -1.47403 0
M  V30 6584 C 632.799 -0.0700985 -1.87969 0
M  V30 6585 O 632.157 0.930145 -1.55621 0
M  V30 6586 C 632.205 -2.38661 -2.70321 0
M  V30 6587 O 631.309 -1.85399 -3.68376 0
M  V30 6588 H 630.65 -0.494565 -0.443059 0
M  V30 6589 H 633.18 -1.86774 -0.835251 0
M  V30 6590 H 633.19 -2.55046 -3.18458 0
M  V30 6591 H 631.865 -3.39571 -2.40134 0
M  V30 6592 H 630.442 -1.78541 -3.2738 0
M  V30 6593 N 632.627 0.916307 -1.28225 0
M  V30 6594 C 633.559 2.02303 -1.07732 0
M  V30 6595 C 634.572 1.62773 -0.0298421 0
M  V30 6596 O 635.761 1.76406 -0.272626 0
M  V30 6597 C 632.861 3.33282 -0.614504 0
M  V30 6598 C 632.034 4.01439 -1.73682 0
M  V30 6599 C 631.093 5.10698 -1.26781 0
M  V30 6600 O 630.119 5.34038 -1.96958 0
M  V30 6601 N 631.321 5.80355 -0.129624 0
M  V30 6602 H 634.086 2.20442 -2.03041 0
M  V30 6603 H 631.647 1.08744 -1.19943 0
M  V30 6604 H 633.639 4.03699 -0.284397 0
M  V30 6605 H 632.209 3.11633 0.245664 0
M  V30 6606 H 631.429 3.24604 -2.23665 0
M  V30 6607 H 632.717 4.43721 -2.48976 0
M  V30 6608 H 632.115 5.6386 0.455847 0
M  V30 6609 H 630.672 6.51647 0.141224 0
M  V30 6610 N 634.105 1.10431 1.1244 0
M  V30 6611 C 635.035 0.775143 2.20258 0
M  V30 6612 C 636.016 -0.25186 1.68225 0
M  V30 6613 O 637.201 -0.117637 1.93843 0
M  V30 6614 C 634.331 0.206133 3.46688 0
M  V30 6615 C 633.285 1.16382 4.11873 0
M  V30 6616 C 632.611 0.456014 5.32752 0
M  V30 6617 C 633.911 2.5104 4.58013 0
M  V30 6618 H 635.605 1.67665 2.4805 0
M  V30 6619 H 633.151 0.807595 1.19222 0
M  V30 6620 H 635.104 -0.036291 4.21384 0
M  V30 6621 H 633.828 -0.730614 3.18323 0
M  V30 6622 H 632.487 1.39169 3.39157 0
M  V30 6623 H 632.135 -0.485203 5.00654 0
M  V30 6624 H 631.835 1.09466 5.77314 0
M  V30 6625 H 633.359 0.222135 6.10196 0
M  V30 6626 H 634.773 2.32401 5.24083 0
M  V30 6627 H 633.17 3.10789 5.13352 0
M  V30 6628 H 634.24 3.11039 3.71998 0
M  V30 6629 N 635.583 -1.29855 0.893053 0
M  V30 6630 C 636.513 -2.3035 0.382249 0
M  V30 6631 C 637.494 -1.61328 -0.539203 0
M  V30 6632 O 638.679 -1.88882 -0.451342 0
M  V30 6633 C 635.809 -3.45024 -0.396983 0
M  V30 6634 C 634.763 -4.258 0.433437 0
M  V30 6635 C 634.089 -5.32605 -0.472889 0
M  V30 6636 C 635.389 -4.94549 1.67984 0
M  V30 6637 H 637.083 -2.73325 1.22205 0
M  V30 6638 H 634.629 -1.314 0.589073 0
M  V30 6639 H 636.582 -4.14398 -0.765024 0
M  V30 6640 H 635.306 -3.00875 -1.2705 0
M  V30 6641 H 633.965 -3.58125 0.783723 0
M  V30 6642 H 633.613 -4.84702 -1.34435 0
M  V30 6643 H 633.313 -5.87547 0.0789958 0
M  V30 6644 H 634.837 -6.04832 -0.837269 0
M  V30 6645 H 636.251 -5.56395 1.38192 0
M  V30 6646 H 634.648 -5.59393 2.17254 0
M  V30 6647 H 635.718 -4.20215 2.41965 0
M  V30 6648 N 637.061 -0.65484 -1.43351 0
M  V30 6649 C 638.009 0.0476784 -2.32551 0
M  V30 6650 C 639.003 0.811403 -1.48703 0
M  V30 6651 O 640.209 0.721621 -1.64902 0
M  V30 6652 H 636.584 0.0342038 -0.751222 0
M  V30 6653 H 638.555 -0.722342 -2.89525 0
M  V30 6654 C 637.304 0.999251 -3.33032 0
M  V30 6655 H 636.627 0.421005 -3.97577 0
M  V30 6656 H 638.067 1.45986 -3.98076 0
M  V30 6657 C 636.526 2.09606 -2.63756 0
M  V30 6658 O 637.056 3.18004 -2.4543 0
M  V30 6659 N 635.262 1.86207 -2.23103 0
M  V30 6660 H 634.809 0.980555 -2.38208 0
M  V30 6661 H 634.767 2.59787 -1.77081 0
M  V30 6662 N 638.539 1.52521 -0.396863 0
M  V30 6663 C 639.469 2.29582 0.425941 0
M  V30 6664 C 640.45 1.33281 1.05689 0
M  V30 6665 O 641.635 1.62181 1.06823 0
M  V30 6666 C 638.765 3.10821 1.54943 0
M  V30 6667 C 637.719 4.15069 1.04413 0
M  V30 6668 C 637.045 4.84578 2.26028 0
M  V30 6669 C 638.345 5.22191 0.106767 0
M  V30 6670 H 640.039 2.98612 -0.217045 0
M  V30 6671 H 637.585 1.43611 -0.105826 0
M  V30 6672 H 639.538 3.63492 2.13193 0
M  V30 6673 H 638.262 2.39538 2.22011 0
M  V30 6674 H 636.921 3.63389 0.484118 0
M  V30 6675 H 636.569 4.09835 2.91623 0
M  V30 6676 H 636.269 5.55043 1.92876 0
M  V30 6677 H 637.793 5.40056 2.84906 0
M  V30 6678 H 639.207 5.70176 0.597685 0
M  V30 6679 H 637.604 5.99947 -0.135352 0
M  V30 6680 H 638.674 4.77531 -0.842134 0
M  V30 6681 N 640.017 0.126909 1.57088 0
M  V30 6682 C 641.265 -0.528123 1.95078 0
M  V30 6683 C 641.586 -1.66708 1.0116 0
M  V30 6684 O 640.856 -1.95777 0.0693527 0
M  V30 6685 H 639.436 -0.198087 0.720257 0
M  V30 6686 H 642.098 0.197703 1.93895 0
M  V30 6687 H 641.194 -0.917507 2.98309 0
M  V30 6688 N 641.495 -1.56914 -0.146875 0
M  V30 6689 C 642.72 -1.87881 -0.878386 0
M  V30 6690 C 643.145 -0.715945 -1.73942 0
M  V30 6691 O 642.503 0.334447 -1.78189 0
M  V30 6692 C 642.551 -3.17431 -1.71084 0
M  V30 6693 O 641.655 -3.01374 -2.81509 0
M  V30 6694 H 640.996 -0.617289 -0.244644 0
M  V30 6695 H 643.526 -2.04136 -0.137654 0
M  V30 6696 H 643.536 -3.49455 -2.10582 0
M  V30 6697 H 642.211 -4.01671 -1.07856 0
M  V30 6698 H 640.788 -2.80758 -2.45416 0
M  V30 6699 N 642.974 0.416227 -1.52004 0
M  V30 6700 C 644.22 1.16555 -1.6596 0
M  V30 6701 C 644.553 1.90347 -0.384906 0
M  V30 6702 O 643.828 1.84474 0.616405 0
M  V30 6703 C 644.111 2.1657 -2.87696 0
M  V30 6704 C 643.964 1.46722 -4.25197 0
M  V30 6705 C 645.283 3.17321 -3.04951 0
M  V30 6706 H 642.402 0.422369 -0.603965 0
M  V30 6707 H 645.044 0.452141 -1.84542 0
M  V30 6708 H 643.194 2.77411 -2.71985 0
M  V30 6709 H 644.866 0.89056 -4.52622 0
M  V30 6710 H 643.109 0.769263 -4.26925 0
M  V30 6711 H 643.78 2.19665 -5.0641 0
M  V30 6712 H 646.256 2.66552 -3.19514 0
M  V30 6713 H 645.132 3.84573 -3.91656 0
M  V30 6714 H 645.393 3.84643 -2.17951 0
M  V30 6715 N 644.452 1.42507 0.673017 0
M  V30 6716 C 645.682 1.46261 1.45916 0
M  V30 6717 C 646.09 0.0729724 1.89059 0
M  V30 6718 O 645.433 -0.922987 1.58829 0
M  V30 6719 C 645.495 2.32853 2.73898 0
M  V30 6720 C 645.159 3.80699 2.52819 0
M  V30 6721 C 646.156 4.72307 2.17306 0
M  V30 6722 C 643.841 4.24983 2.67758 0
M  V30 6723 C 645.835 6.06192 1.97003 0
M  V30 6724 C 643.522 5.58927 2.4707 0
M  V30 6725 C 644.52 6.49348 2.11746 0
M  V30 6726 O 644.208 7.80817 1.91259 0
M  V30 6727 H 643.94 0.499561 0.455428 0
M  V30 6728 H 646.494 1.87697 0.834196 0
M  V30 6729 H 644.724 1.86268 3.38882 0
M  V30 6730 H 646.413 2.28041 3.35786 0
M  V30 6731 H 647.179 4.39378 2.05359 0
M  V30 6732 H 643.058 3.54893 2.94231 0
M  V30 6733 H 646.602 6.76731 1.69355 0
M  V30 6734 H 642.499 5.91429 2.58615 0
M  V30 6735 H 643.267 7.92194 2.05843 0
M  V30 6736 N 645.93 -0.909495 1.28709 0
M  V30 6737 C 647.341 -1.47419 1.14563 0
M  V30 6738 C 647.692 -1.94432 -0.262832 0
M  V30 6739 O 646.817 -1.82842 -1.15748 0
M  V30 6740 C 647.412 -2.67933 2.07358 0
M  V30 6741 C 645.971 -3.20568 1.97264 0
M  V30 6742 C 645.118 -1.93269 1.98852 0
M  V30 6743 H 648.069 -0.721787 1.41336 0
M  V30 6744 H 648.09 -3.43339 1.64007 0
M  V30 6745 H 647.602 -2.33685 3.09859 0
M  V30 6746 H 645.703 -3.59531 0.978157 0
M  V30 6747 H 645.816 -3.85529 2.84436 0
M  V30 6748 H 644.18 -2.10553 1.43317 0
M  V30 6749 H 644.963 -1.61312 3.0304 0
M  V30 6750 N 647.408 -1.11026 -1.11852 0
M  V30 6751 C 648.655 -0.85646 -1.83497 0
M  V30 6752 C 648.983 0.617938 -1.84423 0
M  V30 6753 O 648.238 1.47194 -1.28966 0
M  V30 6754 C 648.537 -1.35777 -3.30604 0
M  V30 6755 C 648.203 -2.84465 -3.49843 0
M  V30 6756 C 646.865 -3.25068 -3.54802 0
M  V30 6757 C 649.217 -3.80251 -3.56453 0
M  V30 6758 C 646.545 -4.60194 -3.63921 0
M  V30 6759 C 648.897 -5.15188 -3.67102 0
M  V30 6760 C 647.561 -5.55356 -3.70319 0
M  V30 6761 H 646.831 -0.313401 -0.671462 0
M  V30 6762 H 649.478 -1.38792 -1.31943 0
M  V30 6763 H 647.783 -0.746455 -3.84624 0
M  V30 6764 H 649.48 -1.13779 -3.8452 0
M  V30 6765 H 646.07 -2.52054 -3.46651 0
M  V30 6766 H 650.254 -3.49986 -3.51886 0
M  V30 6767 H 645.51 -4.90728 -3.64686 0
M  V30 6768 H 649.684 -5.89248 -3.71159 0
M  V30 6769 H 647.311 -6.60054 -3.77138 0
M  V30 6770 N 648.886 1.2938 -0.899927 0
M  V30 6771 C 649.818 2.26737 -0.335139 0
M  V30 6772 C 650.831 1.54316 0.518681 0
M  V30 6773 O 652.02 1.75313 0.335803 0
M  V30 6774 C 649.12 3.34558 0.540774 0
M  V30 6775 C 648.293 4.36455 -0.287372 0
M  V30 6776 C 647.352 5.2361 0.52141 0
M  V30 6777 O 646.378 5.69167 -0.0611735 0
M  V30 6778 N 647.58 5.50985 1.82745 0
M  V30 6779 H 650.345 2.75838 -1.17191 0
M  V30 6780 H 647.906 1.42716 -0.764438 0
M  V30 6781 H 649.898 3.89794 1.08825 0
M  V30 6782 H 648.468 2.85272 1.27823 0
M  V30 6783 H 647.688 3.80875 -1.01626 0
M  V30 6784 H 648.976 5.01573 -0.854518 0
M  V30 6785 H 648.374 5.15781 2.32349 0
M  V30 6786 H 646.931 6.09036 2.32204 0
M  V30 6787 N 650.364 0.662433 1.43002 0
M  V30 6788 C 651.78 0.330835 1.56133 0
M  V30 6789 C 651.98 -1.16454 1.64441 0
M  V30 6790 O 651.036 -1.94964 1.60453 0
M  V30 6791 C 652.349 1.05029 2.81761 0
M  V30 6792 C 653.897 1.03142 2.95518 0
M  V30 6793 C 654.372 1.73196 4.2399 0
M  V30 6794 N 655.863 1.70004 4.30875 0
M  V30 6795 C 656.598 2.21074 5.29069 0
M  V30 6796 N 656.094 2.80473 6.33488 0
M  V30 6797 N 657.887 2.1152 5.20784 0
M  V30 6798 H 650.038 1.63272 1.35853 0
M  V30 6799 H 652.301 0.687149 0.653092 0
M  V30 6800 H 652.007 2.10542 2.81718 0
M  V30 6801 H 651.881 0.607664 3.72273 0
M  V30 6802 H 654.268 -0.0153339 2.95096 0
M  V30 6803 H 654.349 1.51282 2.0627 0
M  V30 6804 H 653.993 2.77833 4.25172 0
M  V30 6805 H 653.923 1.22515 5.1215 0
M  V30 6806 H 656.414 1.26667 3.56039 0
M  V30 6807 H 656.727 3.17094 7.04749 0
M  V30 6808 H 655.072 2.84538 6.34085 0
M  V30 6809 H 658.263 1.64814 4.38126 0
M  V30 6810 H 658.436 2.51629 5.97149 0
M  V30 6811 N 651.842 -1.52309 0.404946 0
M  V30 6812 C 652.752 -2.30634 -0.429555 0
M  V30 6813 C 653.768 -1.38187 -1.05737 0
M  V30 6814 O 654.944 -1.71261 -1.05979 0
M  V30 6815 C 652.009 -3.10947 -1.53339 0
M  V30 6816 C 651.07 -4.19126 -0.929065 0
M  V30 6817 C 650.303 -4.95601 -1.9803 0
M  V30 6818 O 650.526 -4.72331 -3.1978 0
M  V30 6819 O 649.46 -5.80551 -1.58886 0
M  V30 6820 H 653.286 -3.0298 0.208963 0
M  V30 6821 H 650.871 -1.4845 0.168255 0
M  V30 6822 H 652.753 -3.60974 -2.1743 0
M  V30 6823 H 651.428 -2.41399 -2.15658 0
M  V30 6824 H 650.335 -3.73257 -0.250982 0
M  V30 6825 H 651.668 -4.90955 -0.349855 0
M  V30 6826 N 653.32 -0.135238 -1.57019 0
M  V30 6827 C 654.568 0.51777 -1.95355 0
M  V30 6828 C 654.889 1.6617 -1.02042 0
M  V30 6829 O 654.159 1.95738 -0.0797343 0
M  V30 6830 H 652.739 0.194264 -0.721298 0
M  V30 6831 H 655.401 -0.207983 -1.93787 0
M  V30 6832 H 654.497 0.901675 -2.98791 0
M  V30 6833 N 654.798 1.5699 0.138552 0
M  V30 6834 C 656.046 1.83446 0.848053 0
M  V30 6835 C 656.367 0.71744 1.81322 0
M  V30 6836 O 655.637 -0.260228 1.94164 0
M  V30 6837 H 654.217 0.676792 0.316166 0
M  V30 6838 H 656.879 1.94462 0.130538 0
M  V30 6839 H 655.975 2.78677 1.40518 0
M  V30 6840 N 656.276 -0.40816 1.52223 0
M  V30 6841 C 657.524 -1.15274 1.66001 0
M  V30 6842 C 657.845 -1.91003 0.392803 0
M  V30 6843 O 657.115 -1.8673 -0.592336 0
M  V30 6844 H 655.695 -0.428526 0.611861 0
M  V30 6845 H 658.357 -0.46512 1.89269 0
M  V30 6846 H 657.453 -1.86628 2.50153 0
M  V30 6847 N 657.755 -1.42862 -0.66545 0
M  V30 6848 C 658.703 -1.47319 -1.8 0
M  V30 6849 C 659.697 -0.347963 -1.65788 0
M  V30 6850 O 660.903 -0.521406 -1.72283 0
M  V30 6851 H 657.278 -0.461588 -0.593667 0
M  V30 6852 H 659.249 -2.42876 -1.7336 0
M  V30 6853 C 657.998 -1.40152 -3.18203 0
M  V30 6854 H 657.321 -2.26035 -3.2977 0
M  V30 6855 H 658.761 -1.47331 -3.9758 0
M  V30 6856 C 657.22 -0.117493 -3.36695 0
M  V30 6857 O 657.75 0.826058 -3.93115 0
M  V30 6858 N 655.956 -0.0316218 -2.90583 0
M  V30 6859 H 655.503 -0.800247 -2.44855 0
M  V30 6860 H 655.461 0.826835 -3.03333 0
M  V30 6861 N 659.233 0.902656 -1.29189 0
M  V30 6862 C 660.481 1.6496 -1.16758 0
M  V30 6863 C 660.802 1.92952 0.28188 0
M  V30 6864 O 660.072 1.55351 1.19344 0
M  V30 6865 H 658.652 0.611447 -0.429118 0
M  V30 6866 H 661.314 1.0825 -1.62074 0
M  V30 6867 H 660.41 2.60728 -1.71544 0
M  V30 6868 O 660.75 1.23723 1.03802 0
M  V30 6869 H 661.441 1.01035 1.65262 0
M  V30 END ATOM
M  V30 BEGIN BOND
M  V30 END BOND
M  V30 END CTAB
M  END
$$$$
