drugbank_target|P31224 Multidrug efflux pump subunit AcrB (DB03619; DB03825; DB04209)
 OpenBabel12092120003D

  0  0  0     0  0            999 V3000
M  V30 BEGIN CTAB
M  V30 COUNTS 16104 16258 0 0 0
M  V30 BEGIN ATOM
M  V30 1 H -0.908 1.98254 -0.117106 0
M  V30 2 N 0 1.576 0 0
M  V30 3 C 0.933 2.03868 1.02534 0
M  V30 4 C 1.911 0.928543 1.3348 0
M  V30 5 O 3.095 1.19667 1.45644 0
M  V30 6 C 0.222 2.43627 2.35294 0
M  V30 7 C -0.732 3.65373 2.2001 0
M  V30 8 S 0.101 5.13292 1.52614 0
M  V30 9 C 1.257 5.56322 2.86805 0
M  V30 10 H 1.49 2.90518 0.631377 0
M  V30 11 H -0.977 1.52953 0.210867 0
M  V30 12 H 0.981 2.67203 3.11629 0
M  V30 13 H -0.358 1.57376 2.7183 0
M  V30 14 H -1.165 3.90944 3.18086 0
M  V30 15 H -1.563 3.418 1.51819 0
M  V30 16 H 0.729 5.58782 3.83104 0
M  V30 17 H 1.672 6.56266 2.65933 0
M  V30 18 H 2.08 4.83886 2.90714 0
M  V30 19 N 1.4781 -0.272755 1.55222 0
M  V30 20 C 2.8891 -0.84378 1.66545 0
M  V30 21 C 3.2401 -1.87035 0.592641 0
M  V30 22 O 2.3651 -2.14761 -0.265818 0
M  V30 23 C 2.9601 -1.53723 3.01918 0
M  V30 24 C 1.5191 -2.05628 3.15268 0
M  V30 25 C 0.6661 -0.898424 2.62343 0
M  V30 26 H 3.6171 -0.0490998 1.58624 0
M  V30 27 H 3.6381 -2.40421 2.94921 0
M  V30 28 H 3.1501 -0.78983 3.79978 0
M  V30 29 H 1.2511 -2.83329 2.41983 0
M  V30 30 H 1.3641 -2.27142 4.21833 0
M  V30 31 H -0.2719 -1.29186 2.19506 0
M  V30 32 H 0.5111 -0.164528 3.42906 0
M  V30 33 N 2.9562 -1.48159 -0.537278 0
M  V30 34 C 3.9042 -1.62573 -1.66352 0
M  V30 35 C 4.8982 -0.492366 -1.62087 0
M  V30 36 O 6.1042 -0.670847 -1.67032 0
M  V30 37 H 2.4792 -0.511992 -0.550789 0
M  V30 38 H 4.4502 -2.57176 -1.51337 0
M  V30 39 C 3.1992 -1.67583 -3.04649 0
M  V30 40 H 2.5222 -2.54151 -3.08622 0
M  V30 41 H 3.9622 -1.81713 -3.83088 0
M  V30 42 C 2.4212 -0.413039 -3.34358 0
M  V30 43 O 2.9512 0.477259 -3.98855 0
M  V30 44 N 1.1572 -0.286961 -2.8918 0
M  V30 45 H 0.7042 -1.01241 -2.36871 0
M  V30 46 H 0.6622 0.556963 -3.09427 0
M  V30 47 N 4.4343 0.785586 -1.36625 0
M  V30 48 C 5.6813 1.54362 -1.31067 0
M  V30 49 C 6.0093 1.94195 0.10893 0
M  V30 50 O 5.2643 1.63262 1.07908 0
M  V30 51 C 5.5633 2.83007 -2.1827 0
M  V30 52 C 5.2293 2.62294 -3.6676 0
M  V30 53 C 3.8913 2.56353 -4.0723 0
M  V30 54 C 6.2433 2.43371 -4.6089 0
M  V30 55 C 3.5713 2.29461 -5.39967 0
M  V30 56 C 5.9233 2.18005 -5.93849 0
M  V30 57 C 4.5873 2.105 -6.3344 0
M  V30 58 H 3.8573 0.564851 -0.479609 0
M  V30 59 H 6.5043 0.906028 -1.68711 0
M  V30 60 H 4.8093 3.51253 -1.73576 0
M  V30 61 H 6.5063 3.40817 -2.11292 0
M  V30 62 H 3.0963 2.67774 -3.34656 0
M  V30 63 H 7.2803 2.46959 -4.30494 0
M  V30 64 H 2.5363 2.22135 -5.69619 0
M  V30 65 H 6.7103 2.02359 -6.66351 0
M  V30 66 H 4.3373 1.89425 -7.36222 0
M  V30 67 N 5.9124 1.20967 1.01018 0
M  V30 68 C 7.1594 1.02374 1.74716 0
M  V30 69 C 7.4874 -0.443375 1.89379 0
M  V30 70 O 6.7424 -1.34535 1.42123 0
M  V30 71 C 7.0414 1.65997 3.16512 0
M  V30 72 C 6.7074 3.15831 3.2181 0
M  V30 73 C 5.3694 3.56719 3.22963 0
M  V30 74 C 7.7214 4.11816 3.19464 0
M  V30 75 C 5.0494 4.92107 3.19449 0
M  V30 76 C 7.4014 5.47158 3.17491 0
M  V30 77 C 6.0654 5.87451 3.16951 0
M  V30 78 H 5.3354 0.374614 0.639332 0
M  V30 79 H 7.9824 1.50485 1.18434 0
M  V30 80 H 6.2874 1.10166 3.75993 0
M  V30 81 H 7.9844 1.49119 3.72242 0
M  V30 82 H 4.5744 2.83263 3.21652 0
M  V30 83 H 8.7584 3.81257 3.17737 0
M  V30 84 H 4.0144 5.22579 3.17366 0
M  V30 85 H 8.1884 6.21274 3.14629 0
M  V30 86 H 5.8154 6.92329 3.13983 0
M  V30 87 N 7.3905 -1.2043 1.01659 0
M  V30 88 C 8.6395 -1.89118 0.701237 0
M  V30 89 C 8.9525 -1.79705 -0.772358 0
M  V30 90 O 10.1585 -2.43528 -1.20026 0
M  V30 91 C 8.6145 -3.39168 1.20388 0
M  V30 92 C 8.2225 -3.57166 2.70438 0
M  V30 93 C 9.9665 -4.1341 0.963953 0
M  V30 94 C 7.8735 -5.01042 3.14183 0
M  V30 95 H 6.8035 -0.708267 0.2586 0
M  V30 96 H 9.4545 -1.36239 1.22927 0
M  V30 97 H 7.8365 -3.91369 0.603824 0
M  V30 98 H 9.0105 -3.15351 3.35992 0
M  V30 99 H 7.3255 -2.96294 2.92572 0
M  V30 100 H 9.9225 -5.19491 1.26621 0
M  V30 101 H 10.2655 -4.16181 -0.099578 0
M  V30 102 H 10.7985 -3.67309 1.52738 0
M  V30 103 H 7.5375 -5.03426 4.19812 0
M  V30 104 H 7.0575 -5.43668 2.53348 0
M  V30 105 H 8.7365 -5.69623 3.0682 0
M  V30 106 N 8.8686 -0.792821 -1.36206 0
M  V30 107 C 10.1456 -0.290627 -1.93429 0
M  V30 108 C 10.5256 1.21773 -1.72437 0
M  V30 109 O 9.8736 2.0108 -1.08531 0
M  V30 110 C 10.0836 -0.686973 -3.42172 0
M  V30 111 C 11.4316 -0.668643 -4.19302 0
M  V30 112 O 12.4556 -0.627658 -3.50626 0
M  V30 113 O 11.3146 -0.714597 -5.41808 0
M  V30 114 H 8.4086 -0.0727927 -0.82379 0
M  V30 115 H 10.9546 -0.875593 -1.45367 0
M  V30 116 H 9.7266 -1.72711 -3.51122 0
M  V30 117 H 9.3496 -0.0760733 -3.97527 0
M  V30 118 N 10.3467 1.47872 -0.545128 0
M  V30 119 C 11.7627 1.5829 -0.204032 0
M  V30 120 C 11.9627 1.54529 1.29317 0
M  V30 121 O 11.0187 1.44232 2.07252 0
M  V30 122 C 12.3317 2.89304 -0.819987 0
M  V30 123 C 13.8797 3.02864 -0.790105 0
M  V30 124 C 14.3547 4.3656 -1.38491 0
M  V30 125 N 15.8457 4.43165 -1.34755 0
M  V30 126 C 16.5807 5.45153 -1.77753 0
M  V30 127 N 16.0767 6.54016 -2.2855 0
M  V30 128 N 17.8697 5.36125 -1.68897 0
M  V30 129 H 10.0207 1.4856 -1.51802 0
M  V30 130 H 12.2837 0.706305 -0.632327 0
M  V30 131 H 11.9897 2.97757 -1.87173 0
M  V30 132 H 11.8637 3.75957 -0.305915 0
M  V30 133 H 14.2507 2.94014 0.252913 0
M  V30 134 H 14.3317 2.17782 -1.34181 0
M  V30 135 H 13.9757 4.46164 -2.42693 0
M  V30 136 H 13.9057 5.20353 -0.808754 0
M  V30 137 H 16.3967 3.65083 -0.975855 0
M  V30 138 H 16.7097 7.27994 -2.59314 0
M  V30 139 H 15.0547 6.54938 -2.32553 0
M  V30 140 H 18.2457 4.49975 -1.28998 0
M  V30 141 H 18.4187 6.15472 -2.02726 0
M  V30 142 N 11.8248 0.280983 1.55075 0
M  V30 143 C 13.2358 -0.215629 1.85451 0
M  V30 144 C 13.5868 -1.54991 1.203 0
M  V30 145 O 12.7118 -2.10699 0.493435 0
M  V30 146 C 13.3068 -0.398026 3.36454 0
M  V30 147 C 11.8658 -0.838866 3.66933 0
M  V30 148 C 11.0128 0.064458 2.77225 0
M  V30 149 H 13.9638 0.502601 1.50531 0
M  V30 150 H 13.9848 -1.23569 3.59876 0
M  V30 151 H 13.4968 0.573241 3.83843 0
M  V30 152 H 11.5978 -1.8214 3.25048 0
M  V30 153 H 11.7108 -0.672123 4.74362 0
M  V30 154 H 10.0748 -0.452863 2.50642 0
M  V30 155 H 10.8578 1.03172 3.2743 0
M  V30 156 N 13.3029 -1.57598 0.00835791 0
M  V30 157 C 14.5519 -1.90107 -0.673968 0
M  V30 158 C 14.8649 -0.884275 -1.7447 0
M  V30 159 O 16.0709 -1.09987 -2.48224 0
M  V30 160 C 14.5269 -3.37497 -1.24995 0
M  V30 161 C 14.1349 -4.47491 -0.2136 0
M  V30 162 C 15.8789 -3.79104 -1.90999 0
M  V30 163 C 13.7859 -5.85963 -0.80005 0
M  V30 164 H 12.7159 -0.709393 -0.255495 0
M  V30 165 H 15.3669 -1.83365 0.0702693 0
M  V30 166 H 13.7489 -3.39102 -2.04513 0
M  V30 167 H 14.9229 -4.57414 0.557596 0
M  V30 168 H 13.2379 -4.14956 0.346474 0
M  V30 169 H 15.8349 -4.79901 -2.35795 0
M  V30 170 H 16.1779 -3.1306 -2.74407 0
M  V30 171 H 16.7109 -3.79833 -1.18203 0
M  V30 172 H 13.4499 -6.555 -0.00456708 0
M  V30 173 H 12.9699 -5.79687 -1.54021 0
M  V30 174 H 14.6489 -6.33884 -1.29615 0
M  V30 175 N 14.781 0.264519 -1.55364 0
M  V30 176 C 16.028 0.994986 -1.7637 0
M  V30 177 C 16.356 1.85976 -0.5695 0
M  V30 178 O 15.611 1.90509 0.44776 0
M  V30 179 C 15.91 1.9004 -3.02687 0
M  V30 180 C 15.576 1.19243 -4.34847 0
M  V30 181 C 14.238 0.996709 -4.70764 0
M  V30 182 C 16.59 0.689296 -5.16622 0
M  V30 183 C 13.918 0.285261 -5.86006 0
M  V30 184 C 16.27 -0.00860079 -6.32599 0
M  V30 185 C 14.934 -0.215963 -6.67151 0
M  V30 186 H 14.204 0.364091 -0.645383 0
M  V30 187 H 16.851 0.266543 -1.89636 0
M  V30 188 H 15.156 2.69533 -2.84357 0
M  V30 189 H 16.853 2.46695 -3.16137 0
M  V30 190 H 13.443 1.3549 -4.06621 0
M  V30 191 H 17.627 0.828108 -4.89342 0
M  V30 192 H 12.883 0.113961 -6.11294 0
M  V30 193 H 17.057 -0.406186 -6.95214 0
M  V30 194 H 14.684 -0.769217 -7.56298 0
M  V30 195 N 16.2591 1.48442 0.529413 0
M  V30 196 C 17.2221 1.62524 1.61612 0
M  V30 197 C 18.2221 0.498509 1.52877 0
M  V30 198 O 19.4121 0.76431 1.56537 0
M  V30 199 C 16.5441 1.59597 3.01233 0
M  V30 200 H 17.7371 2.59423 1.50465 0
M  V30 201 H 15.2901 1.37047 0.751514 0
M  V30 202 H 16.0251 0.641781 3.17886 0
M  V30 203 H 15.8101 2.41397 3.08982 0
M  V30 204 H 17.3001 1.72646 3.80241 0
M  V30 205 N 17.7372 -0.778329 1.37039 0
M  V30 206 C 18.9832 -1.53817 1.33086 0
M  V30 207 C 19.3382 -1.92208 -0.0860346 0
M  V30 208 O 18.6312 -1.60713 -1.04316 0
M  V30 209 C 18.8252 -2.81845 2.19768 0
M  V30 210 C 18.6542 -2.55967 3.69744 0
M  V30 211 C 17.4242 -2.50428 4.38878 0
M  V30 212 C 19.6222 -2.2441 4.62758 0
M  V30 213 N 17.6042 -2.16564 5.74433 0
M  V30 214 C 18.9752 -2.0063 5.86641 0
M  V30 215 C 21.0302 -2.1051 4.5121 0
M  V30 216 C 19.7332 -1.64354 7.00272 0
M  V30 217 C 21.7592 -1.75634 5.64718 0
M  V30 218 C 21.1212 -1.52709 6.87648 0
M  V30 219 H 17.2202 -0.563434 0.542279 0
M  V30 220 H 19.8042 -0.908617 1.72198 0
M  V30 221 H 17.9752 -3.42649 1.82883 0
M  V30 222 H 19.7072 -3.47682 2.07122 0
M  V30 223 H 16.4622 -2.66056 3.91805 0
M  V30 224 H 16.8862 -2.02348 6.46053 0
M  V30 225 H 21.5282 -2.26919 3.56746 0
M  V30 226 H 19.2462 -1.46683 7.94676 0
M  V30 227 H 22.8322 -1.65546 5.57751 0
M  V30 228 H 21.7122 -1.2612 7.73992 0
M  V30 229 N 19.2153 -1.21501 -1.00376 0
M  V30 230 C 20.4613 -1.03452 -1.74429 0
M  V30 231 C 20.7943 0.430764 -1.89362 0
M  V30 232 O 20.0693 1.31962 -1.42886 0
M  V30 233 C 20.3523 -1.73375 -3.15615 0
M  V30 234 C 20.2053 -3.27431 -3.08397 0
M  V30 235 C 21.5243 -1.47732 -4.14564 0
M  V30 236 H 18.6433 -0.377226 -0.633143 0
M  V30 237 H 21.2853 -1.49693 -1.17013 0
M  V30 238 H 19.4353 -1.34064 -3.64636 0
M  V30 239 H 21.1073 -3.76119 -2.67081 0
M  V30 240 H 19.3503 -3.5767 -2.45468 0
M  V30 241 H 20.0213 -3.71524 -4.08258 0
M  V30 242 H 22.4973 -1.8186 -3.74254 0
M  V30 243 H 21.3733 -1.99169 -5.11491 0
M  V30 244 H 21.6343 -0.407589 -4.40217 0
M  V30 245 N 20.6934 1.19889 -1.02296 0
M  V30 246 C 21.9424 1.88743 -0.711257 0
M  V30 247 C 22.2554 1.80112 0.762817 0
M  V30 248 O 23.4614 2.44161 1.18733 0
M  V30 249 C 21.9174 3.38525 -1.22185 0
M  V30 250 C 21.5254 3.55727 -2.72328 0
M  V30 251 C 23.2694 4.12893 -0.985864 0
M  V30 252 C 21.1764 4.99369 -3.16835 0
M  V30 253 H 20.1064 0.706885 -0.262353 0
M  V30 254 H 22.7574 1.35586 -1.23648 0
M  V30 255 H 21.1394 3.91044 -0.624571 0
M  V30 256 H 22.3134 3.13564 -3.3766 0
M  V30 257 H 20.6284 2.94739 -2.9414 0
M  V30 258 H 23.2254 5.18813 -1.29374 0
M  V30 259 H 23.5684 4.16228 0.0775055 0
M  V30 260 H 24.1014 3.66494 -1.54684 0
M  V30 261 H 20.8404 5.01193 -4.22476 0
M  V30 262 H 20.3604 5.42317 -2.56228 0
M  V30 263 H 22.0394 5.67988 -3.09837 0
M  V30 264 N 22.1715 0.800033 1.35784 0
M  V30 265 C 23.1345 0.211565 2.28221 0
M  V30 266 C 24.1345 -0.59728 1.49296 0
M  V30 267 O 25.3245 -0.416721 1.69142 0
M  V30 268 C 22.4565 -0.705846 3.33513 0
M  V30 269 H 23.6495 1.02677 2.81776 0
M  V30 270 H 21.2025 0.570211 1.45528 0
M  V30 271 H 21.9375 -1.54498 2.85133 0
M  V30 272 H 21.7225 -0.127655 3.91892 0
M  V30 273 H 23.2125 -1.11211 4.02519 0
M  V30 274 N 23.6496 -1.47581 0.552962 0
M  V30 275 C 24.8986 -2.01684 0.0251995 0
M  V30 276 C 25.2116 -1.43317 -1.33115 0
M  V30 277 O 26.4176 -1.89057 -1.94858 0
M  V30 278 C 24.8736 -3.599 -0.00542052 0
M  V30 279 C 24.4816 -4.27257 1.34742 0
M  V30 280 C 26.2256 -4.21768 -0.4808 0
M  V30 281 C 24.1326 -5.77467 1.27614 0
M  V30 282 H 23.0626 -0.753979 0.00565033 0
M  V30 283 H 25.7136 -1.69616 0.70018 0
M  V30 284 H 24.0956 -3.88911 -0.745961 0
M  V30 285 H 25.2696 -4.09893 2.10534 0
M  V30 286 H 23.5846 -3.77358 1.76039 0
M  V30 287 H 26.1816 -5.31838 -0.55246 0
M  V30 288 H 26.5246 -3.88651 -1.49184 0
M  V30 289 H 27.0576 -3.97273 0.204752 0
M  V30 290 H 23.7966 -6.15196 2.26304 0
M  V30 291 H 23.3166 -5.9718 0.55996 0
M  V30 292 H 24.9956 -6.3959 0.976421 0
M  V30 293 N 25.1277 -0.289203 -1.54924 0
M  V30 294 C 26.3767 0.324231 -1.99077 0
M  V30 295 C 26.6897 1.5591 -1.18117 0
M  V30 296 O 27.8957 2.24637 -1.52481 0
M  V30 297 C 26.3517 0.628209 -3.54375 0
M  V30 298 C 25.9597 -0.587647 -4.44129 0
M  V30 299 C 27.7037 1.20349 -4.07083 0
M  V30 300 C 25.6107 -0.257475 -5.90839 0
M  V30 301 H 24.5407 0.124924 -0.743579 0
M  V30 302 H 27.1917 -0.396063 -1.79175 0
M  V30 303 H 25.5737 1.40778 -3.70132 0
M  V30 304 H 26.7477 -1.36418 -4.40144 0
M  V30 305 H 25.0627 -1.08074 -4.0213 0
M  V30 306 H 27.6597 1.46456 -5.14252 0
M  V30 307 H 28.0027 2.14195 -3.56968 0
M  V30 308 H 28.5357 0.485889 -3.94821 0
M  V30 309 H 25.2747 -1.16419 -6.45079 0
M  V30 310 H 24.7947 0.482018 -5.9786 0
M  V30 311 H 26.4737 0.145238 -6.46837 0
M  V30 312 N 26.6058 1.57591 -0.0167156 0
M  V30 313 C 27.8548 1.90461 0.663877 0
M  V30 314 C 28.1678 0.893515 1.73999 0
M  V30 315 O 29.3738 1.11302 2.47637 0
M  V30 316 C 27.8298 3.38155 1.23204 0
M  V30 317 C 27.4378 4.47597 0.189866 0
M  V30 318 C 29.1818 3.80111 1.88986 0
M  V30 319 C 27.0888 5.86379 0.768964 0
M  V30 320 H 26.0188 0.710738 0.251729 0
M  V30 321 H 28.6698 1.83326 -0.0799926 0
M  V30 322 H 27.0518 3.40182 2.02712 0
M  V30 323 H 28.2258 4.57112 -0.581846 0
M  V30 324 H 26.5408 4.14766 -0.368475 0
M  V30 325 H 29.1378 4.81145 2.33247 0
M  V30 326 H 29.4808 3.14511 2.72743 0
M  V30 327 H 30.0138 3.80454 1.16187 0
M  V30 328 H 26.7528 6.55493 -0.0301957 0
M  V30 329 H 26.2728 5.80496 1.50945 0
M  V30 330 H 27.9518 6.34563 1.26251 0
M  V30 331 N 28.0839 -0.256276 1.55502 0
M  V30 332 C 29.0169 -1.34321 1.84481 0
M  V30 333 C 29.9949 -1.46802 0.699131 0
M  V30 334 O 31.1789 -1.63165 0.943904 0
M  V30 335 C 28.3059 -2.71779 2.02123 0
M  V30 336 C 27.3519 -2.76496 3.24734 0
M  V30 337 S 28.1849 -2.3405 4.81644 0
M  V30 338 C 29.3409 -3.73452 5.02279 0
M  V30 339 H 29.5739 -1.09539 2.76385 0
M  V30 340 H 27.1069 -0.45678 1.47489 0
M  V30 341 H 29.0649 -3.50932 2.12972 0
M  V30 342 H 27.7259 -2.93803 1.11078 0
M  V30 343 H 26.9189 -3.77424 3.34016 0
M  V30 344 H 26.5209 -2.05379 3.12563 0
M  V30 345 H 28.8129 -4.6887 4.89047 0
M  V30 346 H 29.7559 -3.6911 6.04287 0
M  V30 347 H 30.1639 -3.6553 4.30172 0
M  V30 348 N 29.562 -1.4872 -0.521534 0
M  V30 349 C 30.492 -1.66771 -1.63431 0
M  V30 350 C 31.473 -0.516499 -1.62069 0
M  V30 351 O 32.658 -0.750013 -1.79132 0
M  V30 352 C 29.788 -1.71515 -3.01993 0
M  V30 353 C 28.742 -2.86222 -3.18216 0
M  V30 354 C 28.068 -2.76061 -4.57924 0
M  V30 355 C 29.368 -4.27419 -3.00184 0
M  V30 356 H 31.062 -2.59932 -1.48579 0
M  V30 357 H 28.608 -1.25089 -0.713358 0
M  V30 358 H 30.561 -1.82731 -3.7972 0
M  V30 359 H 29.285 -0.749393 -3.17886 0
M  V30 360 H 27.944 -2.74575 -2.42908 0
M  V30 361 H 27.592 -1.77437 -4.70665 0
M  V30 362 H 27.292 -3.53037 -4.69722 0
M  V30 363 H 28.816 -2.89256 -5.37739 0
M  V30 364 H 30.23 -4.39855 -3.67697 0
M  V30 365 H 28.627 -5.05458 -3.2347 0
M  V30 366 H 29.697 -4.43293 -1.96518 0
M  V30 367 N 31.0401 0.771051 -1.3745 0
M  V30 368 C 32.0031 1.86598 -1.33093 0
M  V30 369 C 33.0031 1.59076 -0.234845 0
M  V30 370 O 34.1931 1.67145 -0.490732 0
M  V30 371 C 31.3251 3.23747 -1.06773 0
M  V30 372 H 32.5181 1.91873 -2.30488 0
M  V30 373 H 30.0711 0.970876 -1.2249 0
M  V30 374 H 30.8061 3.24148 -0.099129 0
M  V30 375 H 30.5911 3.45115 -1.86112 0
M  V30 376 H 32.0811 4.03824 -1.06377 0
M  V30 377 N 32.5182 1.22032 0.997298 0
M  V30 378 C 33.7662 1.04016 1.73278 0
M  V30 379 C 34.0872 -0.426255 1.90284 0
M  V30 380 O 33.3572 -1.30694 1.45931 0
M  V30 381 H 31.9372 0.381897 0.642 0
M  V30 382 H 34.5992 1.5347 1.20137 0
M  V30 383 H 33.6952 1.51441 2.72896 0
M  V30 384 N 33.9963 -1.19345 1.0293 0
M  V30 385 C 35.2443 -1.88665 0.724574 0
M  V30 386 C 35.5653 -1.80036 -0.749144 0
M  V30 387 O 34.8353 -1.2111 -1.53978 0
M  V30 388 H 33.4153 -0.698406 0.265025 0
M  V30 389 H 36.0773 -1.44885 1.30362 0
M  V30 390 H 35.1733 -2.94987 1.01926 0
M  V30 391 N 35.4744 -0.807222 -1.35358 0
M  V30 392 C 36.4044 -0.232509 -2.3234 0
M  V30 393 C 37.3854 0.642386 -1.57504 0
M  V30 394 O 38.5704 0.572526 -1.85569 0
M  V30 395 C 35.7004 0.619238 -3.41735 0
M  V30 396 C 34.6544 -0.157215 -4.27711 0
M  V30 397 C 33.9804 0.816273 -5.28433 0
M  V30 398 C 35.2804 -1.35656 -5.04376 0
M  V30 399 H 36.9744 -1.04276 -2.80654 0
M  V30 400 H 34.5204 -0.50288 -1.34934 0
M  V30 401 H 36.4734 1.03137 -4.08584 0
M  V30 402 H 35.1974 1.46239 -2.92031 0
M  V30 403 H 33.8564 -0.550525 -3.62443 0
M  V30 404 H 33.5044 1.65494 -4.74996 0
M  V30 405 H 33.2044 0.301067 -5.86828 0
M  V30 406 H 34.7284 1.22659 -5.98153 0
M  V30 407 H 36.1424 -1.01927 -5.64166 0
M  V30 408 H 34.5394 -1.8063 -5.7227 0
M  V30 409 H 35.6094 -2.14288 -4.34981 0
M  V30 410 N 36.9525 1.47285 -0.560781 0
M  V30 411 C 37.9155 2.28535 0.174488 0
M  V30 412 C 38.9155 1.37153 0.839388 0
M  V30 413 O 40.1055 1.59748 0.694702 0
M  V30 414 C 37.2375 3.16934 1.25561 0
M  V30 415 H 38.4305 2.95012 -0.539262 0
M  V30 416 H 35.9835 1.53034 -0.317865 0
M  V30 417 H 36.7185 2.55157 2.00164 0
M  V30 418 H 36.5035 3.8419 0.783604 0
M  V30 419 H 37.9935 3.78143 1.77193 0
M  V30 420 N 38.4306 0.297415 1.54768 0
M  V30 421 C 39.6796 -0.313669 1.99246 0
M  V30 422 C 39.9926 -1.55281 1.18942 0
M  V30 423 O 41.1986 -2.23825 1.5367 0
M  V30 424 C 39.6546 -0.609407 3.54703 0
M  V30 425 C 39.2626 0.611192 4.43811 0
M  V30 426 C 41.0066 -1.18188 4.07715 0
M  V30 427 C 38.9136 0.288805 5.90694 0
M  V30 428 H 37.8436 -0.120979 0.744231 0
M  V30 429 H 40.4946 0.40556 1.78962 0
M  V30 430 H 38.8766 -1.38813 3.70873 0
M  V30 431 H 40.0506 1.3875 4.39414 0
M  V30 432 H 38.3656 1.10205 4.01552 0
M  V30 433 H 40.9626 -1.43727 5.15021 0
M  V30 434 H 41.3056 -2.12299 3.58099 0
M  V30 435 H 41.8386 -0.464944 3.95074 0
M  V30 436 H 38.5776 1.19838 6.44453 0
M  V30 437 H 38.0976 -0.450305 5.98107 0
M  V30 438 H 39.7766 -0.110933 6.46905 0
M  V30 439 N 39.9087 -1.5758 0.0250728 0
M  V30 440 C 40.8387 -2.13007 -0.956575 0
M  V30 441 C 41.8197 -1.0452 -1.342 0
M  V30 442 O 43.0047 -1.32332 -1.42133 0
M  V30 443 C 40.1347 -2.65386 -2.24026 0
M  V30 444 C 39.0887 -3.78623 -1.99571 0
M  V30 445 C 38.4147 -4.17414 -3.3417 0
M  V30 446 C 39.7147 -5.04867 -1.33814 0
M  V30 447 H 41.4087 -2.9528 -0.494991 0
M  V30 448 H 38.9547 -1.42042 -0.236651 0
M  V30 449 H 40.9077 -3.02794 -2.93076 0
M  V30 450 H 39.6317 -1.80268 -2.72343 0
M  V30 451 H 38.2907 -3.41646 -1.32941 0
M  V30 452 H 37.9387 -3.29284 -3.80238 0
M  V30 453 H 37.6387 -4.93719 -3.18615 0
M  V30 454 H 39.1627 -4.57402 -4.04495 0
M  V30 455 H 40.5767 -5.39888 -1.92857 0
M  V30 456 H 38.9737 -5.86144 -1.28669 0
M  V30 457 H 40.0437 -4.83904 -0.310561 0
M  V30 458 N 41.3868 0.248026 -1.55636 0
M  V30 459 C 42.3338 1.30707 -1.90222 0
M  V30 460 C 43.3038 1.47881 -0.756332 0
M  V30 461 O 44.4888 1.61883 -1.00988 0
M  V30 462 C 41.6288 2.65769 -2.20138 0
M  V30 463 C 40.7418 2.56612 -3.47526 0
M  V30 464 C 39.8768 3.8402 -3.67017 0
M  V30 465 C 38.9158 3.69476 -4.8801 0
M  V30 466 N 38.0528 4.88774 -5.04029 0
M  V30 467 H 42.8928 1.00512 -2.80538 0
M  V30 468 H 40.4298 0.485055 -1.38873 0
M  V30 469 H 42.3878 3.44386 -2.35487 0
M  V30 470 H 41.0178 2.94115 -1.33027 0
M  V30 471 H 40.0698 1.69571 -3.40514 0
M  V30 472 H 41.3818 2.41774 -4.36287 0
M  V30 473 H 40.5358 4.7108 -3.8232 0
M  V30 474 H 39.2748 4.01754 -2.76487 0
M  V30 475 H 38.2798 2.80799 -4.72686 0
M  V30 476 H 39.5048 3.53238 -5.8 0
M  V30 477 H 37.4508 5.0687 -4.16435 0
M  V30 478 H 37.3678 4.76562 -5.86877 0
M  V30 479 H 38.6358 5.77335 -5.23741 0
M  V30 480 N 42.8649 1.48995 0.513639 0
M  V30 481 C 43.7949 1.67636 1.62544 0
M  V30 482 C 44.7759 0.525087 1.61793 0
M  V30 483 O 45.9609 0.759502 1.78732 0
M  V30 484 C 43.0909 1.73114 3.01079 0
M  V30 485 C 42.0449 2.87905 3.16693 0
M  V30 486 C 41.3709 2.78486 4.56453 0
M  V30 487 C 42.6709 4.29005 2.97913 0
M  V30 488 H 44.3649 2.60716 1.47198 0
M  V30 489 H 41.9109 1.25465 0.706714 0
M  V30 490 H 43.8639 1.84742 3.78746 0
M  V30 491 H 42.5879 0.766241 3.17484 0
M  V30 492 H 41.2469 2.75859 2.41448 0
M  V30 493 H 40.8949 1.7993 4.69717 0
M  V30 494 H 40.5949 3.55523 4.67843 0
M  V30 495 H 42.1189 2.92104 5.36197 0
M  V30 496 H 43.5329 4.41798 3.65359 0
M  V30 497 H 41.9299 5.07166 3.20785 0
M  V30 498 H 42.9999 4.44329 1.94165 0
M  V30 499 N 44.343 -0.763751 1.37857 0
M  V30 500 C 45.754 -1.3405 1.29952 0
M  V30 501 C 46.105 -1.96138 -0.0492898 0
M  V30 502 O 45.23 -1.94372 -0.951239 0
M  V30 503 C 45.825 -2.43729 2.35333 0
M  V30 504 C 44.384 -2.97151 2.31037 0
M  V30 505 C 43.531 -1.70438 2.18738 0
M  V30 506 H 46.482 -0.563396 1.48363 0
M  V30 507 H 46.503 -3.23412 2.00462 0
M  V30 508 H 46.015 -1.9851 3.33489 0
M  V30 509 H 44.116 -3.46724 1.3643 0
M  V30 510 H 44.229 -3.52221 3.24772 0
M  V30 511 H 42.593 -1.93673 1.65418 0
M  V30 512 H 43.376 -1.27312 3.18821 0
M  V30 513 N 45.8211 -1.22559 -0.990812 0
M  V30 514 C 47.0671 -1.05297 -1.73322 0
M  V30 515 C 47.4001 0.410655 -1.89808 0
M  V30 516 O 46.6751 1.30439 -1.44277 0
M  V30 517 C 46.9581 -1.76713 -3.13759 0
M  V30 518 C 46.8111 -3.30684 -3.04907 0
M  V30 519 C 48.1301 -1.52121 -4.12974 0
M  V30 520 H 45.2491 -0.38392 -0.629106 0
M  V30 521 H 47.8911 -1.50926 -1.15418 0
M  V30 522 H 46.0411 -1.37924 -3.63193 0
M  V30 523 H 47.7131 -3.7893 -2.63077 0
M  V30 524 H 45.9561 -3.60253 -2.41661 0
M  V30 525 H 46.6271 -3.75833 -4.04294 0
M  V30 526 H 49.1031 -1.85819 -3.72304 0
M  V30 527 H 47.9791 -2.04582 -5.0935 0
M  V30 528 H 48.2401 -0.454257 -4.3976 0
M  V30 529 N 47.2992 1.18797 -1.03562 0
M  V30 530 C 48.2622 2.20464 -0.626769 0
M  V30 531 C 49.2622 1.57721 0.313173 0
M  V30 532 O 50.4522 1.73917 0.0992615 0
M  V30 533 C 47.5842 3.40802 0.0818498 0
M  V30 534 H 48.7772 2.58149 -1.5264 0
M  V30 535 H 46.3302 1.32593 -0.827578 0
M  V30 536 H 47.0652 3.08642 0.995518 0
M  V30 537 H 46.8502 3.8758 -0.593652 0
M  V30 538 H 48.3402 4.16092 0.354584 0
M  V30 539 N 48.7773 0.814389 1.34928 0
M  V30 540 C 49.7093 0.187834 2.28429 0
M  V30 541 C 50.7223 -0.617374 1.5064 0
M  V30 542 O 51.9113 -0.448454 1.72775 0
M  V30 543 C 49.0113 -0.755962 3.30361 0
M  V30 544 C 48.1843 0.00456686 4.374 0
M  V30 545 C 47.2433 -0.858876 5.19143 0
M  V30 546 O 46.2693 -0.306968 5.68372 0
M  V30 547 N 47.4713 -2.17988 5.38016 0
M  V30 548 H 50.2363 0.991105 2.82838 0
M  V30 549 H 47.7973 0.670561 1.4736 0
M  V30 550 H 49.7893 -1.338 3.81942 0
M  V30 551 H 48.3593 -1.46001 2.7641 0
M  V30 552 H 47.5793 0.767865 3.86649 0
M  V30 553 H 48.8673 0.528422 5.06049 0
M  V30 554 H 48.2653 -2.65212 4.99679 0
M  V30 555 H 46.8223 -2.71098 5.92747 0
M  V30 556 N 50.2554 -1.46986 0.568584 0
M  V30 557 C 51.4854 -2.0653 0.0539173 0
M  V30 558 C 51.8934 -1.42004 -1.25026 0
M  V30 559 O 51.2364 -0.514541 -1.76347 0
M  V30 560 C 51.2984 -3.58938 -0.200854 0
M  V30 561 C 50.9624 -4.45572 1.01559 0
M  V30 562 C 51.9594 -4.82986 1.92407 0
M  V30 563 C 49.6444 -4.8692 1.23346 0
M  V30 564 C 51.6384 -5.60559 3.03402 0
M  V30 565 C 49.3254 -5.64255 2.34649 0
M  V30 566 C 50.3234 -6.00986 3.24507 0
M  V30 567 O 50.0114 -6.76761 4.33878 0
M  V30 568 H 49.7434 -0.674292 0.0480234 0
M  V30 569 H 52.2974 -1.89812 0.784896 0
M  V30 570 H 50.5274 -3.73911 -0.986279 0
M  V30 571 H 52.2164 -4.0046 -0.662294 0
M  V30 572 H 52.9824 -4.51633 1.76785 0
M  V30 573 H 48.8614 -4.57789 0.543178 0
M  V30 574 H 52.4054 -5.89147 3.73565 0
M  V30 575 H 48.3024 -5.95021 2.5024 0
M  V30 576 H 49.0704 -6.95168 4.32068 0
M  V30 577 N 51.7335 -0.305618 -1.54608 0
M  V30 578 C 53.1445 0.186098 -1.8577 0
M  V30 579 C 53.4955 1.53058 -1.22751 0
M  V30 580 O 52.6205 2.09888 -0.526893 0
M  V30 581 C 53.2155 0.344449 -3.37044 0
M  V30 582 C 51.7745 0.780384 -3.68221 0
M  V30 583 C 50.9215 -0.108554 -2.77087 0
M  V30 584 H 53.8725 -0.526485 -1.49712 0
M  V30 585 H 53.8935 1.17828 -3.61796 0
M  V30 586 H 53.4055 -0.634235 -3.82883 0
M  V30 587 H 51.5065 1.76945 -3.27904 0
M  V30 588 H 51.6195 0.596572 -4.75371 0
M  V30 589 H 49.9835 0.412931 -2.5133 0
M  V30 590 H 50.7665 -1.08368 -3.25747 0
M  V30 591 N 53.2116 1.57565 -0.0334293 0
M  V30 592 C 54.4396 1.9628 0.654347 0
M  V30 593 C 54.8546 0.910138 1.65414 0
M  V30 594 O 54.2116 -0.107595 1.82183 0
M  V30 595 C 54.2626 3.35067 1.35693 0
M  V30 596 O 53.9836 4.36296 0.397191 0
M  V30 597 C 55.4846 3.88439 2.13613 0
M  V30 598 H 52.7046 0.646369 0.180132 0
M  V30 599 H 55.2486 2.04282 -0.0944721 0
M  V30 600 H 53.4036 3.2827 2.05712 0
M  V30 601 H 53.8176 5.1678 0.896597 0
M  V30 602 H 55.2916 4.8788 2.58219 0
M  V30 603 H 55.7686 3.22914 2.97696 0
M  V30 604 H 56.3746 3.98516 1.48543 0
M  V30 605 N 54.6897 -0.239769 1.55765 0
M  V30 606 C 55.9387 -0.964754 1.77131 0
M  V30 607 C 56.2517 -1.86213 0.59868 0
M  V30 608 O 57.4577 -2.6244 0.695522 0
M  V30 609 C 55.9137 -1.76552 3.1362 0
M  V30 610 C 55.5217 -0.915185 4.38553 0
M  V30 611 C 57.2657 -2.48281 3.44321 0
M  V30 612 C 55.1727 -1.71225 5.66071 0
M  V30 613 H 54.1027 -0.363953 0.660344 0
M  V30 614 H 56.7537 -0.219181 1.82186 0
M  V30 615 H 55.1357 -2.55331 3.02691 0
M  V30 616 H 56.3097 -0.169217 4.60489 0
M  V30 617 H 54.6247 -0.310889 4.15238 0
M  V30 618 H 57.2217 -3.08382 4.36812 0
M  V30 619 H 57.5647 -3.20256 2.65973 0
M  V30 620 H 58.0977 -1.76507 3.56497 0
M  V30 621 H 54.8367 -1.03612 6.4726 0
M  V30 622 H 54.3567 -2.43331 5.48224 0
M  V30 623 H 56.0357 -2.27758 6.05587 0
M  V30 624 N 56.1678 -1.49265 -0.50573 0
M  V30 625 C 57.1308 -1.65075 -1.59006 0
M  V30 626 C 58.1308 -0.522768 -1.52065 0
M  V30 627 O 59.3208 -0.789117 -1.55302 0
M  V30 628 C 56.4528 -1.64369 -2.98656 0
M  V30 629 H 57.6458 -2.61784 -1.46319 0
M  V30 630 H 55.1988 -1.38226 -0.729616 0
M  V30 631 H 55.9338 -0.692272 -3.16825 0
M  V30 632 H 55.7188 -2.46282 -3.05103 0
M  V30 633 H 57.2088 -1.78674 -3.77446 0
M  V30 634 N 57.6459 0.756429 -1.3826 0
M  V30 635 C 59.0569 1.33359 -1.30661 0
M  V30 636 C 59.4079 1.96161 0.0388875 0
M  V30 637 O 58.5329 1.94874 0.940918 0
M  V30 638 C 59.1279 2.42477 -2.36622 0
M  V30 639 C 57.6869 2.95922 -2.3261 0
M  V30 640 C 56.8339 1.69275 -2.19639 0
M  V30 641 H 59.7849 0.55552 -1.4866 0
M  V30 642 H 59.8059 3.22345 -2.02174 0
M  V30 643 H 59.3179 1.96739 -3.34538 0
M  V30 644 H 57.4189 3.45996 -1.38267 0
M  V30 645 H 57.5319 3.50494 -3.26636 0
M  V30 646 H 55.8959 1.92793 -1.66442 0
M  V30 647 H 56.6789 1.25619 -3.19491 0
M  V30 648 N 59.124 1.23083 0.984299 0
M  V30 649 C 60.535 1.05609 1.5396 0
M  V30 650 C 60.886 -0.377793 1.92528 0
M  V30 651 O 60.011 -1.26398 1.75649 0
M  V30 652 C 60.606 1.91087 2.7977 0
M  V30 653 C 59.165 1.77885 3.31713 0
M  V30 654 C 58.312 1.87028 2.04733 0
M  V30 655 H 61.263 1.36802 0.804419 0
M  V30 656 H 61.284 1.43336 3.5247 0
M  V30 657 H 60.796 2.9544 2.51668 0
M  V30 658 H 58.897 0.762995 3.64704 0
M  V30 659 H 59.01 2.61047 4.01735 0
M  V30 660 H 57.374 1.30565 2.18689 0
M  V30 661 H 58.157 2.92929 1.79017 0
M  V30 662 N 60.6021 -1.18246 1.0419 0
M  V30 663 C 61.5651 -2.20128 0.638452 0
M  V30 664 C 62.5651 -1.57885 -0.304805 0
M  V30 665 O 63.7551 -1.73967 -0.0900369 0
M  V30 666 C 60.8871 -3.4084 -0.0637751 0
M  V30 667 H 62.0801 -2.57336 1.54007 0
M  V30 668 H 59.6331 -1.32152 0.834598 0
M  V30 669 H 60.3681 -3.09166 -0.979136 0
M  V30 670 H 60.1531 -3.8726 0.614198 0
M  V30 671 H 61.6431 -4.16274 -0.332512 0
M  V30 672 N 62.0802 -0.821533 -1.34494 0
M  V30 673 C 63.3262 -0.409552 -1.98622 0
M  V30 674 C 63.6592 1.0244 -1.64984 0
M  V30 675 O 62.9342 1.71325 -0.920758 0
M  V30 676 C 63.2172 -0.610458 -3.54888 0
M  V30 677 C 63.0702 -2.09043 -3.98273 0
M  V30 678 C 64.3892 -0.0455379 -4.40076 0
M  V30 679 H 61.5082 -0.15028 -0.721516 0
M  V30 680 H 64.1502 -1.03384 -1.59411 0
M  V30 681 H 62.3002 -0.079044 -3.8842 0
M  V30 682 H 63.9722 -2.68537 -3.75081 0
M  V30 683 H 62.2152 -2.58139 -3.48635 0
M  V30 684 H 62.8862 -2.18182 -5.07051 0
M  V30 685 H 65.3622 -0.499557 -4.1309 0
M  V30 686 H 64.2382 -0.215922 -5.48475 0
M  V30 687 H 64.4992 1.04939 -4.29465 0
M  V30 688 N 63.5583 1.46682 -0.576371 0
M  V30 689 C 64.7863 2.06798 -0.0649635 0
M  V30 690 C 65.2013 1.42612 1.23723 0
M  V30 691 O 64.5583 0.529203 1.74659 0
M  V30 692 C 64.6093 3.6132 0.114202 0
M  V30 693 O 64.3303 4.23104 -1.13644 0
M  V30 694 C 65.8313 4.38349 0.66069 0
M  V30 695 H 63.0513 0.668778 -0.0545616 0
M  V30 696 H 65.5953 1.88404 -0.795237 0
M  V30 697 H 63.7503 3.79162 0.794673 0
M  V30 698 H 64.1643 5.15894 -0.946253 0
M  V30 699 H 65.6383 5.47081 0.73526 0
M  V30 700 H 66.1153 4.05953 1.67627 0
M  V30 701 H 66.7213 4.25297 0.0152951 0
M  V30 702 N 65.0364 0.313813 1.54444 0
M  V30 703 C 66.2854 -0.292519 1.99568 0
M  V30 704 C 66.5984 -1.54011 1.20582 0
M  V30 705 O 67.8044 -2.22183 1.56035 0
M  V30 706 C 66.2604 -0.571752 3.55329 0
M  V30 707 C 65.8684 0.658229 4.43138 0
M  V30 708 C 67.6124 -1.13857 4.08946 0
M  V30 709 C 65.5194 0.351439 5.90355 0
M  V30 710 H 64.4494 -0.113079 0.745472 0
M  V30 711 H 67.1004 0.424518 1.78522 0
M  V30 712 H 65.4824 -1.34872 3.72325 0
M  V30 713 H 66.6564 1.43403 4.37918 0
M  V30 714 H 64.9714 1.14458 4.0036 0
M  V30 715 H 67.5684 -1.38257 5.16516 0
M  V30 716 H 67.9114 -2.08489 3.6033 0
M  V30 717 H 68.4444 -0.423015 3.95544 0
M  V30 718 H 65.1834 1.26667 6.43145 0
M  V30 719 H 64.7034 -0.386842 5.98551 0
M  V30 720 H 66.3824 -0.0423134 6.46986 0
M  V30 721 N 66.5145 -1.57545 0.0417849 0
M  V30 722 C 67.7395 -1.97035 -0.647455 0
M  V30 723 C 68.1645 -0.918775 -1.64135 0
M  V30 724 O 67.5225 0.119006 -1.80909 0
M  V30 725 C 67.5705 -3.35609 -1.31905 0
M  V30 726 O 66.6745 -3.3287 -2.43457 0
M  V30 727 H 66.0155 -0.64211 -0.169086 0
M  V30 728 H 68.5455 -2.04318 0.107399 0
M  V30 729 H 68.5555 -3.72126 -1.67291 0
M  V30 730 H 67.2305 -4.11685 -0.590586 0
M  V30 731 H 65.8075 -3.08087 -2.10088 0
M  V30 732 N 67.9926 0.231505 -1.5589 0
M  V30 733 C 68.9556 1.27028 -1.90779 0
M  V30 734 C 69.9556 1.40308 -0.785507 0
M  V30 735 O 71.1456 1.38744 -1.05336 0
M  V30 736 C 68.2776 2.64566 -2.14983 0
M  V30 737 H 69.4706 0.973017 -2.83677 0
M  V30 738 H 67.0236 0.471486 -1.49019 0
M  V30 739 H 67.7586 2.99406 -1.24604 0
M  V30 740 H 67.5436 2.56305 -2.96732 0
M  V30 741 H 69.0336 3.39543 -2.43105 0
M  V30 742 N 69.4707 1.49531 0.497807 0
M  V30 743 C 70.6957 1.63159 1.28039 0
M  V30 744 C 71.1207 0.30418 1.85624 0
M  V30 745 O 70.4787 -0.728618 1.66015 0
M  V30 746 C 70.5267 2.70537 2.38416 0
M  V30 747 O 69.6307 2.29931 3.42353 0
M  V30 748 H 68.9717 0.546001 0.377861 0
M  V30 749 H 71.5017 1.9574 0.59558 0
M  V30 750 H 71.5117 2.92802 2.84132 0
M  V30 751 H 70.1867 3.6689 1.95869 0
M  V30 752 H 68.7637 2.18009 3.02533 0
M  V30 753 N 70.9488 -0.749086 1.3866 0
M  V30 754 C 72.1788 -1.53611 1.38157 0
M  V30 755 C 72.5868 -1.89177 -0.0293595 0
M  V30 756 O 71.9298 -1.53606 -1.00752 0
M  V30 757 C 71.9918 -2.86087 2.17702 0
M  V30 758 C 71.6558 -2.73034 3.66472 0
M  V30 759 C 72.6528 -2.42526 4.59866 0
M  V30 760 C 70.3378 -2.90345 4.09884 0
M  V30 761 C 72.3318 -2.29492 5.94653 0
M  V30 762 C 70.0188 -2.7693 5.4475 0
M  V30 763 C 71.0168 -2.46547 6.36949 0
M  V30 764 O 70.7048 -2.33199 7.69333 0
M  V30 765 H 70.4368 -0.481773 0.474205 0
M  V30 766 H 72.9908 -0.934465 1.82912 0
M  V30 767 H 71.2208 -3.48458 1.67672 0
M  V30 768 H 72.9098 -3.47625 2.09551 0
M  V30 769 H 73.6758 -2.28816 4.27631 0
M  V30 770 H 69.5548 -3.1299 3.38464 0
M  V30 771 H 73.0988 -2.05698 6.66584 0
M  V30 772 H 68.9958 -2.90215 5.76581 0
M  V30 773 H 69.7638 -2.48376 7.79905 0
M  V30 774 N 72.4269 -1.23603 -0.977757 0
M  V30 775 C 73.8379 -1.06424 -1.53398 0
M  V30 776 C 74.1889 0.367578 -1.92726 0
M  V30 777 O 73.3139 1.25465 -1.76316 0
M  V30 778 C 73.9089 -1.92568 -2.78753 0
M  V30 779 C 72.4679 -1.79642 -3.30765 0
M  V30 780 C 71.6149 -1.88111 -2.03739 0
M  V30 781 H 74.5659 -1.37227 -0.797152 0
M  V30 782 H 74.5869 -1.45203 -3.51705 0
M  V30 783 H 74.0989 -2.96771 -2.50098 0
M  V30 784 H 72.1999 -0.782325 -3.64294 0
M  V30 785 H 72.3129 -2.63174 -4.00345 0
M  V30 786 H 70.6769 -1.31723 -2.17994 0
M  V30 787 H 71.4599 -2.93875 -1.77461 0
M  V30 788 N 73.905 1.17692 -1.04816 0
M  V30 789 C 75.153 1.87488 -0.754497 0
M  V30 790 C 75.474 1.81205 0.720407 0
M  V30 791 O 74.744 1.23544 1.52032 0
M  V30 792 H 73.324 0.694101 -0.276102 0
M  V30 793 H 75.986 1.42793 -1.32651 0
M  V30 794 H 75.082 2.93328 -1.06606 0
M  V30 795 N 75.3831 0.828654 1.34056 0
M  V30 796 C 76.3461 0.259927 2.27721 0
M  V30 797 C 77.3461 -0.565478 1.50529 0
M  V30 798 O 78.5361 -0.38075 1.69988 0
M  V30 799 C 75.6681 -0.634944 3.34935 0
M  V30 800 H 76.8611 1.0863 2.79534 0
M  V30 801 H 74.4141 0.600951 1.44285 0
M  V30 802 H 75.1491 -1.48416 2.88346 0
M  V30 803 H 74.9341 -0.0444999 3.92075 0
M  V30 804 H 76.4241 -1.02648 4.04788 0
M  V30 805 N 76.8612 -1.46375 0.584142 0
M  V30 806 C 78.1382 -1.956 0.0033388 0
M  V30 807 C 78.5182 -1.52679 -1.45782 0
M  V30 808 O 77.8662 -0.77816 -2.14842 0
M  V30 809 C 78.0762 -3.48551 0.176891 0
M  V30 810 C 79.4242 -4.24576 0.0454609 0
M  V30 811 O 80.4482 -3.56043 0.105801 0
M  V30 812 O 79.3072 -5.46427 -0.0890376 0
M  V30 813 H 76.4012 -0.825547 -0.0490066 0
M  V30 814 H 78.9472 -1.56652 0.65256 0
M  V30 815 H 77.7192 -3.72683 1.1926 0
M  V30 816 H 77.3422 -3.94332 -0.508695 0
M  V30 817 N 78.3393 -0.321999 -1.54275 0
M  V30 818 C 79.3023 0.531975 -2.22941 0
M  V30 819 C 80.3023 1.04478 -1.22234 0
M  V30 820 O 81.4923 0.937452 -1.46825 0
M  V30 821 C 78.6243 1.73874 -2.93224 0
M  V30 822 H 79.8173 -0.0682612 -2.99822 0
M  V30 823 H 77.3703 -0.0730644 -1.56129 0
M  V30 824 H 78.1053 2.37825 -2.20476 0
M  V30 825 H 77.8903 1.37847 -3.6707 0
M  V30 826 H 79.3803 2.34496 -3.45545 0
M  V30 827 N 79.8174 1.5752 -0.0501392 0
M  V30 828 C 80.7644 2.1147 0.924603 0
M  V30 829 C 81.7344 1.02182 1.30951 0
M  V30 830 O 82.9194 1.29723 1.39916 0
M  V30 831 C 80.0594 2.66337 2.19451 0
M  V30 832 C 79.1724 3.89708 1.86418 0
M  V30 833 C 78.3074 4.32893 3.07859 0
M  V30 834 C 77.3464 5.48967 2.70742 0
M  V30 835 N 76.4834 5.87211 3.84874 0
M  V30 836 H 81.3234 2.94465 0.457639 0
M  V30 837 H 78.8604 1.45531 0.214266 0
M  V30 838 H 80.8184 2.96247 2.93758 0
M  V30 839 H 79.4484 1.86141 2.63726 0
M  V30 840 H 78.5004 3.66396 1.02264 0
M  V30 841 H 79.8124 4.74074 1.55096 0
M  V30 842 H 78.9664 4.6435 3.90466 0
M  V30 843 H 77.7054 3.47336 3.42358 0
M  V30 844 H 76.7104 5.17183 1.86551 0
M  V30 845 H 77.9354 6.3624 2.37436 0
M  V30 846 H 75.8814 5.04607 4.19175 0
M  V30 847 H 75.7984 6.66266 3.57247 0
M  V30 848 H 77.0664 6.23282 4.68123 0
M  V30 849 N 81.2955 -0.223234 1.56011 0
M  V30 850 C 82.5235 -0.964812 1.83027 0
M  V30 851 C 82.9385 -1.78013 0.62904 0
M  V30 852 O 82.2955 -1.78008 -0.402414 0
M  V30 853 C 82.3465 -1.88373 3.08542 0
M  V30 854 O 82.0675 -1.10137 4.2403 0
M  V30 855 C 83.5685 -2.73934 3.48533 0
M  V30 856 H 80.7885 -0.282842 0.608475 0
M  V30 857 H 83.3325 -0.238971 2.03099 0
M  V30 858 H 81.4875 -2.56354 2.9045 0
M  V30 859 H 81.9015 -1.72501 4.95322 0
M  V30 860 H 83.3755 -3.34117 4.39397 0
M  V30 861 H 83.8525 -3.46244 2.70207 0
M  V30 862 H 84.4585 -2.11369 3.69057 0
M  V30 863 N 82.7736 -1.49793 -0.48987 0
M  V30 864 C 84.0196 -1.60078 -1.24511 0
M  V30 865 C 84.3526 -0.291608 -1.91998 0
M  V30 866 O 83.6276 0.705647 -1.81248 0
M  V30 867 C 83.9106 -2.76791 -2.30345 0
M  V30 868 C 83.7636 -4.17535 -1.67286 0
M  V30 869 C 85.0826 -2.89111 -3.31817 0
M  V30 870 H 82.2016 -0.582645 -0.451324 0
M  V30 871 H 84.8436 -1.82117 -0.541612 0
M  V30 872 H 82.9936 -2.5813 -2.90346 0
M  V30 873 H 84.6656 -4.4774 -1.11026 0
M  V30 874 H 82.9086 -4.22665 -0.976577 0
M  V30 875 H 83.5796 -4.95094 -2.44103 0
M  V30 876 H 86.0556 -3.06133 -2.81819 0
M  V30 877 H 84.9316 -3.72433 -4.03219 0
M  V30 878 H 85.1926 -1.9893 -3.94815 0
M  V30 879 N 84.2517 0.741722 -1.39055 0
M  V30 880 C 85.1837 1.8657 -1.33133 0
M  V30 881 C 86.1967 1.61001 -0.241329 0
M  V30 882 O 87.3857 1.7136 -0.499784 0
M  V30 883 C 84.4857 3.22457 -1.04283 0
M  V30 884 C 83.6587 3.75435 -2.24427 0
M  V30 885 C 82.7177 4.89867 -1.92138 0
M  V30 886 O 81.7437 5.03879 -2.64754 0
M  V30 887 N 82.9457 5.73738 -0.88347 0
M  V30 888 H 85.7107 1.92156 -2.29991 0
M  V30 889 H 83.2717 0.922172 -1.3307 0
M  V30 890 H 85.2637 3.9657 -0.807128 0
M  V30 891 H 83.8337 3.12181 -0.161807 0
M  V30 892 H 83.0537 2.92751 -2.6399 0
M  V30 893 H 84.3417 4.07563 -3.04581 0
M  V30 894 H 83.7397 5.64999 -0.281517 0
M  V30 895 H 82.2967 6.47947 -0.707662 0
M  V30 896 N 85.7298 1.2412 0.971189 0
M  V30 897 C 87.0068 0.986867 1.6888 0
M  V30 898 C 87.3868 -0.491857 2.0529 0
M  V30 899 O 86.7348 -1.46531 1.75331 0
M  V30 900 C 86.9448 1.9063 2.92338 0
M  V30 901 C 88.2928 2.17515 3.64654 0
M  V30 902 O 89.3168 1.88254 3.02388 0
M  V30 903 O 88.1758 2.6719 4.7673 0
M  V30 904 H 85.2698 0.372944 0.738134 0
M  V30 905 H 87.8158 1.35203 1.02559 0
M  V30 906 H 86.5878 2.90552 2.62097 0
M  V30 907 H 86.2108 1.54408 3.66393 0
M  V30 908 N 87.2079 -1.17134 1.05439 0
M  V30 909 C 88.4359 -1.91372 0.786414 0
M  V30 910 C 88.8509 -1.76955 -0.658202 0
M  V30 911 O 88.2079 -1.10838 -1.44987 0
M  V30 912 C 88.2589 -3.42356 1.1608 0
M  V30 913 O 87.9799 -3.56332 2.54871 0
M  V30 914 C 89.4809 -4.33663 0.919322 0
M  V30 915 H 86.7009 -0.607118 0.285743 0
M  V30 916 H 89.2449 -1.48525 1.40572 0
M  V30 917 H 87.3999 -3.82939 0.586191 0
M  V30 918 H 87.8139 -4.49896 2.69618 0
M  V30 919 H 89.2879 -5.38099 1.231 0
M  V30 920 H 89.7649 -4.38959 -0.145359 0
M  V30 921 H 90.3709 -3.98796 1.47789 0
M  V30 922 N 88.686 -0.835752 -1.33615 0
M  V30 923 C 89.932 -0.430596 -1.98176 0
M  V30 924 C 90.265 1.00684 -1.66061 0
M  V30 925 O 89.54 1.70339 -0.938877 0
M  V30 926 C 89.823 -0.648065 -3.5422 0
M  V30 927 C 89.676 -2.13255 -3.96033 0
M  V30 928 C 90.995 -0.0922113 -4.40003 0
M  V30 929 H 88.114 -0.157924 -0.719881 0
M  V30 930 H 90.756 -1.05069 -1.58305 0
M  V30 931 H 88.906 -0.120237 -3.88314 0
M  V30 932 H 90.578 -2.725 -3.72211 0
M  V30 933 H 88.821 -2.61823 -3.45878 0
M  V30 934 H 89.492 -2.23547 -5.04708 0
M  V30 935 H 91.968 -0.543343 -4.12537 0
M  V30 936 H 90.844 -0.274083 -5.48215 0
M  V30 937 H 91.105 1.00378 -4.30554 0
M  V30 938 N 90.1641 1.46063 -0.591896 0
M  V30 939 C 91.3921 2.06717 -0.0868936 0
M  V30 940 C 91.8071 1.43916 1.22203 0
M  V30 941 O 91.1641 0.547698 1.74088 0
M  V30 942 C 91.2151 3.6142 0.0758725 0
M  V30 943 O 90.9361 4.21874 -1.18126 0
M  V30 944 C 92.4371 4.39025 0.61416 0
M  V30 945 H 89.6571 0.668162 -0.0616518 0
M  V30 946 H 92.2011 1.8755 -0.815175 0
M  V30 947 H 90.3561 3.79983 0.754413 0
M  V30 948 H 90.7701 5.14861 -1.00092 0
M  V30 949 H 92.2441 5.4783 0.677193 0
M  V30 950 H 92.7211 4.07708 1.63312 0
M  V30 951 H 93.3271 4.2529 -0.0298142 0
M  V30 952 N 91.6422 0.330177 1.54103 0
M  V30 953 C 92.5742 -0.566902 2.22079 0
M  V30 954 C 93.5872 -1.07462 1.22294 0
M  V30 955 O 94.7762 -0.987065 1.48726 0
M  V30 956 C 91.8762 -1.79138 2.87685 0
M  V30 957 C 91.0492 -1.42123 4.13666 0
M  V30 958 C 90.1082 -2.50394 4.62806 0
M  V30 959 O 89.1342 -2.14261 5.27334 0
M  V30 960 N 90.3362 -3.81433 4.37595 0
M  V30 961 H 93.1012 0.0151844 2.99696 0
M  V30 962 H 90.6622 0.153681 1.61169 0
M  V30 963 H 92.6542 -2.50975 3.1748 0
M  V30 964 H 91.2242 -2.28115 2.13734 0
M  V30 965 H 90.4442 -0.534201 3.90564 0
M  V30 966 H 91.7322 -1.14971 4.9564 0
M  V30 967 H 91.1302 -4.13584 3.8596 0
M  V30 968 H 89.6872 -4.4948 4.72029 0
M  V30 969 N 93.1203 -1.57491 0.0584922 0
M  V30 970 C 94.3663 -1.93264 -0.614558 0
M  V30 971 C 94.6993 -0.937717 -1.7006 0
M  V30 972 O 93.9743 0.0351652 -1.94468 0
M  V30 973 C 94.2573 -3.3938 -1.20386 0
M  V30 974 C 94.1103 -4.49625 -0.125375 0
M  V30 975 C 95.4293 -3.86039 -2.11334 0
M  V30 976 H 92.5483 -0.702791 -0.221933 0
M  V30 977 H 95.1903 -1.8961 0.12175 0
M  V30 978 H 93.3403 -3.42626 -1.83139 0
M  V30 979 H 95.0123 -4.58506 0.506971 0
M  V30 980 H 93.2553 -4.30354 0.545672 0
M  V30 981 H 93.9263 -5.48967 -0.577861 0
M  V30 982 H 96.4023 -3.84716 -1.58534 0
M  V30 983 H 95.2783 -4.88914 -2.49507 0
M  V30 984 H 95.5393 -3.23215 -3.01636 0
M  V30 985 N 94.5984 0.214957 -1.56127 0
M  V30 986 C 95.8474 0.936451 -1.78643 0
M  V30 987 C 96.1604 1.85237 -0.628229 0
M  V30 988 O 97.3664 2.613 -0.737186 0
M  V30 989 C 95.8224 1.7154 -3.16389 0
M  V30 990 C 95.4304 0.845299 -4.39953 0
M  V30 991 C 97.1744 2.42772 -3.48227 0
M  V30 992 C 95.0814 1.62198 -5.68723 0
M  V30 993 H 94.0114 0.353401 -0.666051 0
M  V30 994 H 96.6624 0.190169 -1.82512 0
M  V30 995 H 95.0444 2.50484 -3.06715 0
M  V30 996 H 96.2184 0.0959353 -4.607 0
M  V30 997 H 94.5334 0.244789 -4.1568 0
M  V30 998 H 97.1304 3.01394 -4.41663 0
M  V30 999 H 97.4734 3.15984 -2.71035 0
M  V30 1000 H 98.0064 1.70813 -3.5926 0
M  V30 1001 H 94.7454 0.933011 -6.48826 0
M  V30 1002 H 94.2654 2.34579 -5.52026 0
M  V30 1003 H 95.9444 2.18095 -6.09133 0
M  V30 1004 N 96.0765 1.50051 0.48192 0
M  V30 1005 C 96.9865 1.7089 1.60728 0
M  V30 1006 C 98.0025 0.591788 1.63627 0
M  V30 1007 O 99.1785 0.868817 1.81696 0
M  V30 1008 C 96.2435 1.78855 2.97005 0
M  V30 1009 C 95.3045 3.02537 3.04581 0
M  V30 1010 C 94.5375 3.10112 4.34357 0
M  V30 1011 O 94.7605 2.24765 5.24249 0
M  V30 1012 O 93.6945 4.02747 4.47301 0
M  V30 1013 H 97.5205 2.66264 1.46072 0
M  V30 1014 H 95.1055 1.34018 0.660264 0
M  V30 1015 H 96.9875 1.86336 3.77964 0
M  V30 1016 H 95.6625 0.866628 3.11883 0
M  V30 1017 H 94.5695 3.00563 2.22739 0
M  V30 1018 H 95.9025 3.94272 2.94636 0
M  V30 1019 N 97.5546 -0.734337 1.39446 0
M  V30 1020 C 98.4866 -1.85861 1.34121 0
M  V30 1021 C 99.4996 -1.60871 0.249864 0
M  V30 1022 O 100.689 -1.71093 0.508865 0
M  V30 1023 C 97.7886 -3.21899 1.05991 0
M  V30 1024 C 96.9616 -3.74239 2.26415 0
M  V30 1025 C 96.0206 -4.88841 1.94733 0
M  V30 1026 O 95.0466 -5.02468 2.67422 0
M  V30 1027 N 96.2486 -5.73261 0.913884 0
M  V30 1028 H 99.0136 -1.90934 2.31007 0
M  V30 1029 H 96.5746 -0.915102 1.33557 0
M  V30 1030 H 98.5666 -3.96136 0.828147 0
M  V30 1031 H 97.1366 -3.12091 0.178361 0
M  V30 1032 H 96.3566 -2.91347 2.65539 0
M  V30 1033 H 97.6446 -4.05942 3.06738 0
M  V30 1034 H 97.0426 -5.64842 0.311476 0
M  V30 1035 H 95.5996 -6.47563 0.742015 0
M  V30 1036 N 99.0327 -1.24633 -0.964593 0
M  V30 1037 C 99.9807 -1.03917 -2.08096 0
M  V30 1038 C 100.975 0.0268581 -1.69379 0
M  V30 1039 O 102.181 -0.127952 -1.79545 0
M  V30 1040 H 98.5557 -0.319044 -0.680966 0
M  V30 1041 H 100.527 -1.98581 -2.22729 0
M  V30 1042 C 99.2757 -0.663983 -3.41301 0
M  V30 1043 H 98.5987 -1.47605 -3.71555 0
M  V30 1044 H 100.039 -0.558663 -4.20303 0
M  V30 1045 C 98.4977 0.629169 -3.30973 0
M  V30 1046 O 99.0277 1.67404 -3.65156 0
M  V30 1047 N 97.2337 0.611057 -2.84103 0
M  V30 1048 H 96.7807 -0.239593 -2.56483 0
M  V30 1049 H 96.7387 1.47647 -2.77575 0
M  V30 1050 N 100.511 1.16574 -1.06058 0
M  V30 1051 C 101.444 2.19798 -0.61352 0
M  V30 1052 C 102.422 1.58509 0.362453 0
M  V30 1053 O 103.606 1.86527 0.271994 0
M  V30 1054 C 100.733 3.3855 0.100915 0
M  V30 1055 C 99.7788 4.18317 -0.831438 0
M  V30 1056 S 100.612 4.82375 -2.32539 0
M  V30 1057 C 101.768 6.04508 -1.62238 0
M  V30 1058 H 102.001 2.5738 -1.48805 0
M  V30 1059 H 99.5338 1.27327 -0.873338 0
M  V30 1060 H 101.492 4.07358 0.506898 0
M  V30 1061 H 100.153 2.99338 0.951604 0
M  V30 1062 H 99.3458 5.03232 -0.278071 0
M  V30 1063 H 98.9478 3.5499 -1.17719 0
M  V30 1064 H 101.24 6.71133 -0.926622 0
M  V30 1065 H 102.183 6.64389 -2.44934 0
M  V30 1066 H 102.591 5.53559 -1.106 0
M  V30 1067 N 101.989 0.842826 1.3317 0
M  V30 1068 C 102.937 0.267495 2.31057 0
M  V30 1069 C 103.931 -0.602682 1.58316 0
M  V30 1070 O 105.137 -0.491803 1.73151 0
M  V30 1071 H 101.512 0.0677813 0.748939 0
M  V30 1072 H 103.483 1.10754 2.77085 0
M  V30 1073 C 102.232 -0.539331 3.43492 0
M  V30 1074 H 101.555 0.12095 3.99617 0
M  V30 1075 H 102.995 -0.90767 4.14171 0
M  V30 1076 C 101.454 -1.71981 2.89697 0
M  V30 1077 O 101.984 -2.81862 2.86211 0
M  V30 1078 N 100.19 -1.54299 2.46252 0
M  V30 1079 H 99.7369 -0.649143 2.49287 0
M  V30 1080 H 99.6949 -2.33431 2.10612 0
M  V30 1081 N 103.467 -1.45747 0.599634 0
M  V30 1082 C 104.715 -2.01893 0.0915472 0
M  V30 1083 C 105.036 -1.47155 -1.27946 0
M  V30 1084 O 104.306 -0.66273 -1.84349 0
M  V30 1085 H 102.886 -0.746363 0.0308524 0
M  V30 1086 H 105.548 -1.78645 0.779237 0
M  V30 1087 H 104.644 -3.1208 0.0353086 0
M  V30 1088 N 104.945 -0.338344 -1.53925 0
M  V30 1089 C 106.194 0.260732 -2.00008 0
M  V30 1090 C 106.507 1.52073 -1.23017 0
M  V30 1091 O 107.713 2.19672 -1.5955 0
M  V30 1092 C 106.169 0.51515 -3.56194 0
M  V30 1093 C 105.777 -0.728645 -4.42035 0
M  V30 1094 C 107.521 1.07337 -4.10706 0
M  V30 1095 C 105.428 -0.445315 -5.89721 0
M  V30 1096 H 104.358 0.101205 -0.747177 0
M  V30 1097 H 107.009 -0.452866 -1.77824 0
M  V30 1098 H 105.391 1.28932 -3.74423 0
M  V30 1099 H 106.565 -1.50352 -4.35581 0
M  V30 1100 H 104.88 -1.20813 -3.98489 0
M  V30 1101 H 107.477 1.30022 -5.18651 0
M  V30 1102 H 107.82 2.0273 -3.63602 0
M  V30 1103 H 108.353 0.360034 -3.96167 0
M  V30 1104 H 105.092 -1.36883 -6.41049 0
M  V30 1105 H 104.612 0.291569 -5.99091 0
M  V30 1106 H 106.291 -0.0606218 -6.46972 0
M  V30 1107 N 106.423 1.57458 -0.0668435 0
M  V30 1108 C 107.7 1.8469 0.644132 0
M  V30 1109 C 108.08 0.958343 1.88093 0
M  V30 1110 O 107.428 0.0233579 2.28488 0
M  V30 1111 C 107.638 3.34767 0.986509 0
M  V30 1112 C 108.986 4.02159 1.36212 0
M  V30 1113 O 110.01 3.39484 1.07839 0
M  V30 1114 O 108.869 5.12694 1.89227 0
M  V30 1115 H 105.963 0.762816 0.319437 0
M  V30 1116 H 108.509 1.6942 -0.0973986 0
M  V30 1117 H 107.281 3.91151 0.107883 0
M  V30 1118 H 106.904 3.55281 1.78497 0
M  V30 1119 N 107.901 -0.206675 1.56239 0
M  V30 1120 C 108.849 -1.27571 1.94495 0
M  V30 1121 C 109.843 -1.47737 0.828862 0
M  V30 1122 O 111.049 -1.48735 1.0138 0
M  V30 1123 H 107.424 -0.428029 0.6183 0
M  V30 1124 H 109.395 -0.925961 2.8367 0
M  V30 1125 C 108.144 -2.61568 2.29079 0
M  V30 1126 H 107.467 -2.46863 3.14482 0
M  V30 1127 H 108.907 -3.35144 2.5972 0
M  V30 1128 C 107.366 -3.17695 1.12123 0
M  V30 1129 O 107.896 -3.99801 0.390153 0
M  V30 1130 N 106.102 -2.76276 0.901097 0
M  V30 1131 H 105.649 -2.09613 1.49733 0
M  V30 1132 H 105.607 -3.1417 0.120319 0
M  V30 1133 N 109.379 -1.50304 -0.473955 0
M  V30 1134 C 110.309 -1.71886 -1.58042 0
M  V30 1135 C 111.29 -0.567799 -1.60344 0
M  V30 1136 O 112.475 -0.806623 -1.76656 0
M  V30 1137 C 109.605 -1.81036 -2.96384 0
M  V30 1138 C 108.559 -2.962 -3.08949 0
M  V30 1139 C 107.885 -2.9049 -4.48909 0
M  V30 1140 C 109.185 -4.36752 -2.86434 0
M  V30 1141 H 110.879 -2.64527 -1.40234 0
M  V30 1142 H 108.425 -1.27295 -0.673201 0
M  V30 1143 H 110.378 -1.94719 -3.73714 0
M  V30 1144 H 109.102 -0.850147 -3.15341 0
M  V30 1145 H 107.761 -2.82164 -2.3405 0
M  V30 1146 H 107.409 -1.92321 -4.64781 0
M  V30 1147 H 107.109 -3.67802 -4.58253 0
M  V30 1148 H 108.633 -3.06218 -5.28264 0
M  V30 1149 H 110.047 -4.5133 -3.53517 0
M  V30 1150 H 108.444 -5.15493 -3.07225 0
M  V30 1151 H 109.514 -4.49321 -1.82316 0
M  V30 1152 N 110.857 0.726932 -1.39834 0
M  V30 1153 C 111.79 1.8501 -1.33592 0
M  V30 1154 C 112.768 1.61262 -0.208191 0
M  V30 1155 O 113.952 1.84422 -0.389981 0
M  V30 1156 C 111.079 3.21143 -1.07633 0
M  V30 1157 C 110.125 3.63737 -2.22705 0
M  V30 1158 S 110.958 3.72167 -3.85035 0
M  V30 1159 C 112.114 5.11077 -3.61318 0
M  V30 1160 H 112.347 1.90022 -2.28646 0
M  V30 1161 H 109.88 0.892595 -1.25985 0
M  V30 1162 H 111.838 3.99747 -0.933415 0
M  V30 1163 H 110.499 3.13776 -0.142526 0
M  V30 1164 H 109.692 4.62551 -2.00155 0
M  V30 1165 H 109.294 2.9236 -2.33242 0
M  V30 1166 H 111.586 5.97656 -3.19083 0
M  V30 1167 H 112.529 5.38658 -4.59623 0
M  V30 1168 H 112.937 4.81135 -2.95245 0
M  V30 1169 N 112.336 1.25143 0.95797 0
M  V30 1170 C 113.566 1.12261 1.73439 0
M  V30 1171 C 113.974 -0.326715 1.86358 0
M  V30 1172 O 113.317 -1.2367 1.35836 0
M  V30 1173 C 113.379 1.69966 3.16784 0
M  V30 1174 C 113.043 3.18936 3.27305 0
M  V30 1175 C 114.04 4.15968 3.11877 0
M  V30 1176 C 111.725 3.59083 3.51234 0
M  V30 1177 C 113.719 5.51126 3.20217 0
M  V30 1178 C 111.406 4.9438 3.5921 0
M  V30 1179 C 112.404 5.90211 3.43716 0
M  V30 1180 O 112.092 7.23046 3.51368 0
M  V30 1181 H 111.824 0.392476 0.550399 0
M  V30 1182 H 114.378 1.65927 1.21068 0
M  V30 1183 H 112.608 1.10744 3.70503 0
M  V30 1184 H 114.297 1.52232 3.76272 0
M  V30 1185 H 115.063 3.86292 2.93264 0
M  V30 1186 H 110.942 2.84989 3.62356 0
M  V30 1187 H 114.486 6.25905 3.0804 0
M  V30 1188 H 110.383 5.23723 3.77339 0
M  V30 1189 H 111.151 7.31097 3.6802 0
M  V30 1190 N 113.814 -1.1601 1.06675 0
M  V30 1191 C 114.747 -2.1947 0.625168 0
M  V30 1192 C 115.725 -1.58699 -0.354041 0
M  V30 1193 O 116.909 -1.86669 -0.262098 0
M  V30 1194 C 114.036 -3.38598 -0.0829593 0
M  V30 1195 C 113.082 -4.1787 0.853611 0
M  V30 1196 S 113.915 -4.81135 2.35094 0
M  V30 1197 C 115.071 -6.03639 1.65441 0
M  V30 1198 H 115.304 -2.56587 1.50168 0
M  V30 1199 H 112.837 -1.26862 0.880078 0
M  V30 1200 H 114.795 -4.07621 -0.485288 0
M  V30 1201 H 113.456 -2.99839 -0.935716 0
M  V30 1202 H 112.649 -5.03078 0.304755 0
M  V30 1203 H 112.251 -3.54361 1.196 0
M  V30 1204 H 114.543 -6.70632 0.962201 0
M  V30 1205 H 115.486 -6.63081 2.48454 0
M  V30 1206 H 115.894 -5.52965 1.13534 0
M  V30 1207 N 115.292 -0.849877 -1.32721 0
M  V30 1208 C 116.517 -0.463856 -2.02146 0
M  V30 1209 C 116.942 0.930449 -1.63476 0
M  V30 1210 O 116.3 1.61033 -0.832952 0
M  V30 1211 C 116.348 -0.604955 -3.55489 0
M  V30 1212 O 115.452 0.36425 -4.10788 0
M  V30 1213 H 114.793 -0.187046 -0.637111 0
M  V30 1214 H 117.323 -1.14775 -1.69375 0
M  V30 1215 H 117.333 -0.490696 -4.05038 0
M  V30 1216 H 116.008 -1.62174 -3.82978 0
M  V30 1217 H 114.585 0.206628 -3.72327 0
M  V30 1218 N 116.77 1.45427 -0.607355 0
M  V30 1219 C 117.995 2.07124 -0.107006 0
M  V30 1220 C 118.42 1.44906 1.19933 0
M  V30 1221 O 117.778 0.541687 1.73019 0
M  V30 1222 C 117.826 3.60595 0.0194119 0
M  V30 1223 O 116.93 3.98285 1.0697 0
M  V30 1224 H 116.271 0.659868 -0.0739597 0
M  V30 1225 H 118.801 1.86683 -0.837297 0
M  V30 1226 H 118.811 4.07419 0.2177 0
M  V30 1227 H 117.486 4.05266 -0.934453 0
M  V30 1228 H 116.063 3.63133 0.847889 0
M  V30 1229 N 118.248 0.346503 1.53744 0
M  V30 1230 C 119.196 -0.52422 2.26616 0
M  V30 1231 C 120.19 -1.09948 1.28871 0
M  V30 1232 O 121.396 -1.04488 1.46568 0
M  V30 1233 H 117.771 -0.187743 0.728187 0
M  V30 1234 H 119.742 0.11239 2.98188 0
M  V30 1235 C 118.491 -1.66186 3.05414 0
M  V30 1236 H 117.814 -1.22848 3.80458 0
M  V30 1237 H 119.254 -2.24622 3.59612 0
M  V30 1238 C 117.713 -2.59302 2.1509 0
M  V30 1239 O 118.243 -3.61628 1.74895 0
M  V30 1240 N 116.449 -2.28055 1.8011 0
M  V30 1241 H 115.996 -1.44883 2.12994 0
M  V30 1242 H 115.954 -2.90615 1.19958 0
M  V30 1243 N 119.726 -1.57421 0.075193 0
M  V30 1244 C 120.951 -1.98364 -0.605515 0
M  V30 1245 C 121.376 -0.953383 -1.62149 0
M  V30 1246 O 120.734 0.0806053 -1.81121 0
M  V30 1247 C 120.782 -3.38332 -1.24756 0
M  V30 1248 O 119.886 -3.37959 -2.36342 0
M  V30 1249 H 119.227 -0.645553 -0.155428 0
M  V30 1250 H 121.757 -2.04044 0.150714 0
M  V30 1251 H 121.767 -3.75591 -1.5936 0
M  V30 1252 H 120.442 -4.12846 -0.503129 0
M  V30 1253 H 119.019 -3.12474 -2.03506 0
M  V30 1254 N 121.204 0.198386 -1.56346 0
M  V30 1255 C 122.481 0.944982 -1.71258 0
M  V30 1256 C 122.861 2.0151 -0.629048 0
M  V30 1257 O 122.209 2.25639 0.360473 0
M  V30 1258 C 122.419 1.5344 -3.1346 0
M  V30 1259 C 123.767 2.01778 -3.73591 0
M  V30 1260 O 124.791 1.63288 -3.16568 0
M  V30 1261 O 123.65 2.72594 -4.73661 0
M  V30 1262 H 120.744 0.442939 -0.69838 0
M  V30 1263 H 123.29 0.188342 -1.68652 0
M  V30 1264 H 122.062 0.762869 -3.83792 0
M  V30 1265 H 121.685 2.35596 -3.20282 0
M  V30 1266 N 122.682 1.50554 0.465978 0
M  V30 1267 C 123.907 1.65838 1.24549 0
M  V30 1268 C 124.332 0.343486 1.84937 0
M  V30 1269 O 123.69 -0.69324 1.67523 0
M  V30 1270 C 123.738 2.75533 2.32624 0
M  V30 1271 O 122.842 2.37142 3.37398 0
M  V30 1272 H 122.183 0.553893 0.366194 0
M  V30 1273 H 124.713 1.96959 0.553927 0
M  V30 1274 H 124.723 2.98763 2.77857 0
M  V30 1275 H 123.398 3.70962 1.88043 0
M  V30 1276 H 121.975 2.24377 2.97841 0
M  V30 1277 N 124.16 -0.719506 1.40217 0
M  V30 1278 C 125.388 -1.50864 1.41589 0
M  V30 1279 C 125.803 -1.88794 0.0145275 0
M  V30 1280 O 125.16 -1.55174 -0.960594 0
M  V30 1281 C 125.211 -2.78646 2.30302 0
M  V30 1282 O 124.932 -2.42321 3.64983 0
M  V30 1283 C 126.433 -3.72569 2.40224 0
M  V30 1284 H 123.653 -0.465709 0.48307 0
M  V30 1285 H 126.197 -0.88785 1.84221 0
M  V30 1286 H 124.352 -3.37019 1.91042 0
M  V30 1287 H 124.766 -3.24514 4.12057 0
M  V30 1288 H 126.24 -4.5908 3.06512 0
M  V30 1289 H 126.717 -4.15403 1.42608 0
M  V30 1290 H 127.323 -3.20109 2.80019 0
M  V30 1291 N 125.638 -1.25649 -0.95132 0
M  V30 1292 C 126.886 -1.10375 -1.69298 0
M  V30 1293 C 127.207 0.355339 -1.91735 0
M  V30 1294 O 126.477 1.25188 -1.50681 0
M  V30 1295 H 125.057 -0.405461 -0.627384 0
M  V30 1296 H 127.719 -1.57823 -1.14358 0
M  V30 1297 H 126.815 -1.61465 -2.67087 0
M  V30 1298 N 127.117 1.15442 -1.07289 0
M  V30 1299 C 128.345 1.90096 -0.81676 0
M  V30 1300 C 128.76 1.7798 0.629966 0
M  V30 1301 O 128.117 1.1313 1.43206 0
M  V30 1302 C 128.168 3.40466 -1.21512 0
M  V30 1303 O 127.889 3.52232 -2.60508 0
M  V30 1304 C 129.39 4.32145 -0.988198 0
M  V30 1305 H 126.61 0.602495 -0.295366 0
M  V30 1306 H 129.154 1.4627 -1.42918 0
M  V30 1307 H 127.309 3.81958 -0.647039 0
M  V30 1308 H 127.723 4.45549 -2.76742 0
M  V30 1309 H 129.197 5.36072 -1.31645 0
M  V30 1310 H 129.674 4.39135 0.0755063 0
M  V30 1311 H 130.28 3.96395 -1.54115 0
M  V30 1312 N 128.595 0.856903 1.32268 0
M  V30 1313 C 129.841 0.462069 1.97466 0
M  V30 1314 C 130.174 -0.980298 1.67642 0
M  V30 1315 O 129.449 -1.68824 0.965858 0
M  V30 1316 C 129.732 0.704336 3.53145 0
M  V30 1317 C 129.585 2.19529 3.9259 0
M  V30 1318 C 130.904 0.1622 4.39801 0
M  V30 1319 H 128.023 0.169357 0.717278 0
M  V30 1320 H 130.665 1.07574 1.56614 0
M  V30 1321 H 128.815 0.181999 3.88073 0
M  V30 1322 H 130.487 2.78387 3.67829 0
M  V30 1323 H 128.73 2.67292 3.41668 0
M  V30 1324 H 129.401 2.31549 5.01088 0
M  V30 1325 H 131.877 0.608905 4.11621 0
M  V30 1326 H 130.753 0.361265 5.4771 0
M  V30 1327 H 131.014 -0.935158 4.32096 0
M  V30 1328 N 130.073 -1.45103 0.615059 0
M  V30 1329 C 131.005 -2.28786 -0.13762 0
M  V30 1330 C 132.018 -1.40376 -0.824525 0
M  V30 1331 O 133.207 -1.64681 -0.688662 0
M  V30 1332 C 130.307 -3.16322 -1.21628 0
M  V30 1333 C 129.48 -4.33054 -0.615039 0
M  V30 1334 C 128.539 -5.01743 -1.58556 0
M  V30 1335 O 127.565 -5.58293 -1.10895 0
M  V30 1336 N 128.767 -5.01714 -2.91998 0
M  V30 1337 H 131.532 -2.94025 0.580483 0
M  V30 1338 H 129.093 -1.55373 0.45507 0
M  V30 1339 H 131.085 -3.59139 -1.86552 0
M  V30 1340 H 129.655 -2.52943 -1.83681 0
M  V30 1341 H 128.875 -3.93627 0.21245 0
M  V30 1342 H 130.163 -5.08431 -0.193704 0
M  V30 1343 H 129.561 -4.57075 -3.33316 0
M  V30 1344 H 128.118 -5.48371 -3.52325 0
M  V30 1345 N 131.551 -0.354651 -1.53558 0
M  V30 1346 C 132.8 0.239504 -2.00273 0
M  V30 1347 C 133.113 1.50759 -1.24623 0
M  V30 1348 O 134.319 2.17968 -1.61871 0
M  V30 1349 C 132.775 0.477341 -3.5672 0
M  V30 1350 C 132.383 -0.775488 -4.41237 0
M  V30 1351 C 134.127 1.02975 -4.11821 0
M  V30 1352 C 132.034 -0.507838 -5.89216 0
M  V30 1353 H 130.964 0.0932743 -0.748208 0
M  V30 1354 H 133.615 -0.471701 -1.77334 0
M  V30 1355 H 131.997 1.24953 -3.7577 0
M  V30 1356 H 133.171 -1.54963 -4.33962 0
M  V30 1357 H 131.486 -1.25033 -3.97185 0
M  V30 1358 H 134.083 1.24513 -5.2 0
M  V30 1359 H 134.426 1.98862 -3.65731 0
M  V30 1360 H 134.959 0.317994 -3.96527 0
M  V30 1361 H 131.698 -1.43674 -6.39561 0
M  V30 1362 H 131.218 0.228011 -5.99366 0
M  V30 1363 H 132.897 -0.129238 -6.46871 0
M  V30 1364 N 133.029 1.57378 -0.0835403 0
M  V30 1365 C 134.257 1.98263 0.59157 0
M  V30 1366 C 134.672 0.962302 1.62435 0
M  V30 1367 O 134.029 -0.049581 1.82433 0
M  V30 1368 C 134.08 3.39214 1.24965 0
M  V30 1369 O 133.801 4.37339 0.258186 0
M  V30 1370 C 135.302 3.95038 2.01147 0
M  V30 1371 H 132.522 0.651773 0.159477 0
M  V30 1372 H 135.066 2.03878 -0.159415 0
M  V30 1373 H 133.221 3.34649 1.95164 0
M  V30 1374 H 133.635 5.19371 0.731734 0
M  V30 1375 H 135.109 4.95848 2.42567 0
M  V30 1376 H 135.586 3.32222 2.87272 0
M  V30 1377 H 136.192 4.0304 1.35789 0
M  V30 1378 N 134.507 -0.190092 1.56449 0
M  V30 1379 C 135.437 -1.23816 1.97969 0
M  V30 1380 C 136.418 -1.47201 0.852395 0
M  V30 1381 O 137.603 -1.58854 1.1171 0
M  V30 1382 C 134.733 -2.5813 2.3235 0
M  V30 1383 C 133.687 -2.49348 3.47864 0
M  V30 1384 C 133.013 -3.8798 3.67934 0
M  V30 1385 C 134.313 -2.01424 4.81898 0
M  V30 1386 H 136.007 -0.89311 2.85769 0
M  V30 1387 H 133.553 -0.428177 1.37487 0
M  V30 1388 H 135.506 -3.31637 2.59991 0
M  V30 1389 H 134.23 -2.94386 1.41438 0
M  V30 1390 H 132.889 -1.78297 3.20321 0
M  V30 1391 H 132.537 -4.21597 2.74344 0
M  V30 1392 H 132.237 -3.82978 4.45648 0
M  V30 1393 H 133.761 -4.63101 3.97957 0
M  V30 1394 H 135.175 -2.64693 5.08538 0
M  V30 1395 H 133.572 -2.07413 5.63116 0
M  V30 1396 H 134.642 -0.967677 4.75146 0
M  V30 1397 N 135.985 -1.50799 -0.457987 0
M  V30 1398 C 137.213 -1.66218 -1.23203 0
M  V30 1399 C 137.628 -0.350894 -1.85511 0
M  V30 1400 O 136.985 0.668546 -1.69814 0
M  V30 1401 C 137.036 -2.76291 -2.33121 0
M  V30 1402 O 136.757 -4.02338 -1.73366 0
M  V30 1403 C 138.258 -3.028 -3.2377 0
M  V30 1404 H 135.478 -0.558361 -0.372121 0
M  V30 1405 H 138.022 -1.97099 -0.545179 0
M  V30 1406 H 136.177 -2.48068 -2.97558 0
M  V30 1407 H 136.591 -4.63312 -2.4585 0
M  V30 1408 H 138.065 -3.8345 -3.97077 0
M  V30 1409 H 138.542 -2.14385 -3.83322 0
M  V30 1410 H 139.148 -3.32604 -2.65056 0
M  V30 1411 N 137.463 0.71206 -1.40597 0
M  V30 1412 C 138.71 1.47197 -1.39065 0
M  V30 1413 C 139.038 1.94499 0.00583891 0
M  V30 1414 O 138.293 1.68752 0.99102 0
M  V30 1415 C 138.592 2.71039 -2.32965 0
M  V30 1416 C 138.258 2.42484 -3.80148 0
M  V30 1417 C 136.92 2.34406 -4.20247 0
M  V30 1418 C 139.272 2.18598 -4.73143 0
M  V30 1419 C 136.6 2.00516 -5.51371 0
M  V30 1420 C 138.952 1.8622 -6.0457 0
M  V30 1421 C 137.616 1.76626 -6.43708 0
M  V30 1422 H 136.886 0.538634 -0.508876 0
M  V30 1423 H 139.533 0.815325 -1.73276 0
M  V30 1424 H 137.838 3.41558 -1.91951 0
M  V30 1425 H 139.535 3.29138 -2.29061 0
M  V30 1426 H 136.125 2.49659 -3.4838 0
M  V30 1427 H 140.309 2.23793 -4.42979 0
M  V30 1428 H 135.565 1.91628 -5.80593 0
M  V30 1429 H 139.739 1.66752 -6.76141 0
M  V30 1430 H 137.366 1.50133 -7.45228 0
M  V30 1431 N 138.941 1.26152 0.944643 0
M  V30 1432 C 139.851 1.09176 2.07648 0
M  V30 1433 C 140.867 0.0261935 1.7398 0
M  V30 1434 O 142.043 0.229208 2.00091 0
M  V30 1435 C 139.108 0.722915 3.39079 0
M  V30 1436 C 138.169 1.86752 3.86552 0
M  V30 1437 C 137.402 1.51617 5.11711 0
M  V30 1438 O 137.625 0.416331 5.68879 0
M  V30 1439 O 136.559 2.34975 5.54139 0
M  V30 1440 H 140.385 2.0412 2.24875 0
M  V30 1441 H 137.97 1.05182 1.061 0
M  V30 1442 H 139.852 0.529787 4.18056 0
M  V30 1443 H 138.527 -0.197159 3.23099 0
M  V30 1444 H 137.434 2.11558 3.08535 0
M  V30 1445 H 138.767 2.76719 4.07047 0
M  V30 1446 N 140.419 -1.14872 1.07899 0
M  V30 1447 C 141.644 -1.90202 0.826926 0
M  V30 1448 C 142.069 -1.77774 -0.614664 0
M  V30 1449 O 141.427 -1.11431 -1.43013 0
M  V30 1450 C 141.475 -3.38352 1.24702 0
M  V30 1451 O 140.579 -4.10497 0.39575 0
M  V30 1452 H 139.92 -0.591968 0.300782 0
M  V30 1453 H 142.45 -1.45437 1.43907 0
M  V30 1454 H 142.46 -3.89156 1.22563 0
M  V30 1455 H 141.135 -3.46715 2.29698 0
M  V30 1456 H 139.712 -3.69796 0.480117 0
M  V30 1457 N 141.898 -0.863906 -1.31812 0
M  V30 1458 C 143.146 -0.470904 -1.96537 0
M  V30 1459 C 143.467 0.978771 -1.68657 0
M  V30 1460 O 142.737 1.6853 -0.998717 0
M  V30 1461 H 141.317 -0.171148 -0.72713 0
M  V30 1462 H 143.979 -1.10236 -1.60729 0
M  V30 1463 H 143.075 -0.623616 -3.05806 0
M  V30 1464 N 143.376 1.44774 -0.622745 0
M  V30 1465 C 144.604 2.06487 -0.130722 0
M  V30 1466 C 145.019 1.46476 1.19123 0
M  V30 1467 O 144.376 0.584502 1.72887 0
M  V30 1468 C 144.427 3.615 -0.000807207 0
M  V30 1469 O 144.148 4.19274 -1.27048 0
M  V30 1470 C 145.649 4.40229 0.520898 0
M  V30 1471 H 142.869 0.666704 -0.0758106 0
M  V30 1472 H 145.413 1.85779 -0.854774 0
M  V30 1473 H 143.568 3.81498 0.673643 0
M  V30 1474 H 143.982 5.12622 -1.1099 0
M  V30 1475 H 145.456 5.49144 0.560838 0
M  V30 1476 H 145.933 4.1108 1.54627 0
M  V30 1477 H 146.539 4.25131 -0.120018 0
M  V30 1478 N 144.854 0.36279 1.53368 0
M  V30 1479 C 146.131 -0.284021 1.93527 0
M  V30 1480 C 146.511 -1.66628 1.29608 0
M  V30 1481 O 145.859 -2.23942 0.45413 0
M  V30 1482 C 146.069 -0.337028 3.47369 0
M  V30 1483 C 147.417 -0.578708 4.20638 0
M  V30 1484 O 148.441 -0.418352 3.53735 0
M  V30 1485 O 147.3 -0.89074 5.39192 0
M  V30 1486 H 144.394 -0.169743 0.809393 0
M  V30 1487 H 146.94 0.41537 1.64538 0
M  V30 1488 H 145.712 0.632217 3.86159 0
M  V30 1489 H 145.335 -1.08243 3.82582 0
M  V30 1490 N 146.332 -1.57332 0.0918853 0
M  V30 1491 C 147.295 -2.12708 -0.85369 0
M  V30 1492 C 148.295 -1.05561 -1.213 0
M  V30 1493 O 149.485 -1.31461 -1.14296 0
M  V30 1494 C 146.617 -2.64503 -2.15061 0
M  V30 1495 H 147.81 -2.97573 -0.3729 0
M  V30 1496 H 145.363 -1.55509 -0.157072 0
M  V30 1497 H 146.098 -1.83149 -2.67632 0
M  V30 1498 H 145.883 -3.4284 -1.90272 0
M  V30 1499 H 147.373 -3.07351 -2.82711 0
M  V30 1500 N 147.81 0.181792 -1.56548 0
M  V30 1501 C 149.087 0.926765 -1.72251 0
M  V30 1502 C 149.467 2.00831 -0.650386 0
M  V30 1503 O 148.815 2.26008 0.336521 0
M  V30 1504 C 149.025 1.50106 -3.1507 0
M  V30 1505 C 150.373 1.97805 -3.75711 0
M  V30 1506 O 151.397 1.59922 -3.18282 0
M  V30 1507 O 150.256 2.67555 -4.76525 0
M  V30 1508 H 147.35 0.435506 -0.703039 0
M  V30 1509 H 149.896 0.170443 -1.68842 0
M  V30 1510 H 148.668 0.72212 -3.84579 0
M  V30 1511 H 148.291 2.32186 -3.22763 0
M  V30 1512 N 149.288 1.51039 0.449983 0
M  V30 1513 C 150.537 1.62317 1.19733 0
M  V30 1514 C 150.85 0.339101 1.92638 0
M  V30 1515 O 152.056 0.331069 2.69474 0
M  V30 1516 C 150.512 2.86608 2.17678 0
M  V30 1517 C 150.12 4.21972 1.50479 0
M  V30 1518 C 151.864 3.07239 2.92924 0
M  V30 1519 C 149.771 5.37426 2.46834 0
M  V30 1520 H 148.701 0.604532 0.450619 0
M  V30 1521 H 151.352 1.77494 0.465625 0
M  V30 1522 H 149.734 2.65037 2.94231 0
M  V30 1523 H 150.908 4.53878 0.795716 0
M  V30 1524 H 149.223 4.07117 0.874344 0
M  V30 1525 H 151.82 3.90668 3.65079 0
M  V30 1526 H 152.163 2.19807 3.5354 0
M  V30 1527 H 152.696 3.29091 2.23481 0
M  V30 1528 H 149.435 6.27079 1.90926 0
M  V30 1529 H 148.955 5.09912 3.15832 0
M  V30 1530 H 150.634 5.68862 3.08228 0
M  V30 1531 N 150.766 -0.704594 1.40972 0
M  V30 1532 C 151.729 -1.80035 1.41845 0
M  V30 1533 C 152.729 -1.57774 0.310474 0
M  V30 1534 O 153.919 -1.64613 0.56992 0
M  V30 1535 C 151.051 -3.18284 1.22098 0
M  V30 1536 H 152.244 -1.80658 2.3938 0
M  V30 1537 H 149.797 -0.911329 1.26982 0
M  V30 1538 H 150.532 -3.23306 0.253672 0
M  V30 1539 H 150.317 -3.35843 2.02366 0
M  V30 1540 H 151.807 -3.98289 1.25522 0
M  V30 1541 N 152.244 -1.26651 -0.937939 0
M  V30 1542 C 153.176 -1.04283 -2.04102 0
M  V30 1543 C 154.189 -0.00221014 -1.628 0
M  V30 1544 O 155.378 -0.242645 -1.76843 0
M  V30 1545 C 152.478 -0.557846 -3.34277 0
M  V30 1546 C 151.651 -1.66843 -4.04329 0
M  V30 1547 C 150.71 -1.18095 -5.12777 0
M  V30 1548 O 149.736 -1.87865 -5.37304 0
M  V30 1549 N 150.938 -0.0311006 -5.80492 0
M  V30 1550 H 153.703 -1.9927 -2.23856 0
M  V30 1551 H 151.264 -1.1808 -1.10764 0
M  V30 1552 H 153.256 -0.215836 -4.04124 0
M  V30 1553 H 151.826 0.298523 -3.11171 0
M  V30 1554 H 151.046 -2.18123 -3.28353 0
M  V30 1555 H 152.334 -2.41408 -4.47883 0
M  V30 1556 H 151.732 0.551486 -5.63005 0
M  V30 1557 H 150.289 0.251809 -6.51313 0
M  V30 1558 N 153.722 1.14298 -1.08507 0
M  V30 1559 C 154.968 1.85633 -0.816581 0
M  V30 1560 C 155.301 1.82784 0.656021 0
M  V30 1561 O 154.576 1.25926 1.48233 0
M  V30 1562 C 154.859 3.34223 -1.34041 0
M  V30 1563 C 154.712 3.45639 -2.87843 0
M  V30 1564 C 156.031 4.29356 -0.9665 0
M  V30 1565 H 153.15 0.67402 -0.298104 0
M  V30 1566 H 155.792 1.34214 -1.34487 0
M  V30 1567 H 153.942 3.78144 -0.89104 0
M  V30 1568 H 155.614 3.10498 -3.41158 0
M  V30 1569 H 153.857 2.86817 -3.25451 0
M  V30 1570 H 154.528 4.50089 -3.19569 0
M  V30 1571 H 157.004 3.93457 -1.35391 0
M  V30 1572 H 155.88 5.3178 -1.3602 0
M  V30 1573 H 156.141 4.41919 0.126362 0
M  V30 1574 N 155.201 0.870884 1.31352 0
M  V30 1575 C 156.133 0.28455 2.27427 0
M  V30 1576 C 157.146 -0.552927 1.53123 0
M  V30 1577 O 158.335 -0.374771 1.74521 0
M  V30 1578 C 155.435 -0.615164 3.3327 0
M  V30 1579 C 154.608 0.190079 4.36987 0
M  V30 1580 C 153.667 -0.637917 5.22319 0
M  V30 1581 O 152.693 -0.065626 5.69162 0
M  V30 1582 N 153.895 -1.94973 5.46778 0
M  V30 1583 H 156.66 1.11017 2.7838 0
M  V30 1584 H 154.221 0.732458 1.44384 0
M  V30 1585 H 156.213 -1.1748 3.87273 0
M  V30 1586 H 154.783 -1.34146 2.82354 0
M  V30 1587 H 154.003 0.931165 3.83044 0
M  V30 1588 H 155.291 0.742579 5.03352 0
M  V30 1589 H 154.689 -2.4378 5.10478 0
M  V30 1590 H 153.246 -2.45713 6.03712 0
M  V30 1591 N 156.679 -1.44442 0.630414 0
M  V30 1592 C 157.925 -2.02351 0.134816 0
M  V30 1593 C 158.258 -1.4947 -1.23986 0
M  V30 1594 O 157.533 -0.678475 -1.82283 0
M  V30 1595 C 157.816 -3.59898 0.120707 0
M  V30 1596 C 157.669 -4.23063 1.52767 0
M  V30 1597 C 158.988 -4.36585 -0.555127 0
M  V30 1598 H 156.107 -0.73527 0.0504646 0
M  V30 1599 H 158.749 -1.72022 0.806751 0
M  V30 1600 H 156.899 -3.85868 -0.451477 0
M  V30 1601 H 158.571 -4.08202 2.14869 0
M  V30 1602 H 156.814 -3.80586 2.08175 0
M  V30 1603 H 157.485 -5.32071 1.46984 0
M  V30 1604 H 159.961 -4.16044 -0.0685429 0
M  V30 1605 H 158.837 -5.46294 -0.534185 0
M  V30 1606 H 159.098 -4.11138 -1.62535 0
M  V30 1607 N 158.157 -0.370918 -1.53173 0
M  V30 1608 C 159.089 0.507823 -2.23503 0
M  V30 1609 C 160.102 1.04182 -1.251 0
M  V30 1610 O 161.291 0.947286 -1.5129 0
M  V30 1611 C 158.391 1.71447 -2.92334 0
M  V30 1612 C 157.564 1.31105 -4.17289 0
M  V30 1613 C 156.623 2.38035 -4.69282 0
M  V30 1614 O 155.649 2.00204 -5.32829 0
M  V30 1615 N 156.851 3.69697 -4.47554 0
M  V30 1616 H 159.616 -0.0946382 -2.99551 0
M  V30 1617 H 157.177 -0.196358 -1.60705 0
M  V30 1618 H 159.169 2.42469 -3.24023 0
M  V30 1619 H 157.739 2.22368 -2.19707 0
M  V30 1620 H 156.959 0.430462 -3.91843 0
M  V30 1621 H 158.247 1.0179 -4.98514 0
M  V30 1622 H 157.645 4.03205 -3.9679 0
M  V30 1623 H 156.202 4.36807 -4.8378 0
M  V30 1624 N 159.635 1.57281 -0.100228 0
M  V30 1625 C 160.583 2.15542 0.874328 0
M  V30 1626 C 161.577 1.09962 1.28859 0
M  V30 1627 O 162.783 1.28298 1.26252 0
M  V30 1628 H 159.158 0.689567 0.300003 0
M  V30 1629 H 161.129 2.96241 0.35829 0
M  V30 1630 C 159.878 2.75454 2.1218 0
M  V30 1631 H 159.201 3.56384 1.81193 0
M  V30 1632 H 160.641 3.19781 2.78417 0
M  V30 1633 C 159.1 1.71602 2.89921 0
M  V30 1634 O 159.63 1.15804 3.84646 0
M  V30 1635 N 157.836 1.41975 2.53558 0
M  V30 1636 H 157.383 1.87539 1.76598 0
M  V30 1637 H 157.341 0.727274 3.05873 0
M  V30 1638 N 161.113 -0.173488 1.56642 0
M  V30 1639 C 162.06 -1.21482 1.96242 0
M  V30 1640 C 163.03 -1.44104 0.826027 0
M  V30 1641 O 164.215 -1.5688 1.08597 0
M  V30 1642 C 161.355 -2.54964 2.32567 0
M  V30 1643 C 160.468 -2.39739 3.59373 0
M  V30 1644 C 159.603 -3.66072 3.84921 0
M  V30 1645 C 158.642 -3.45771 5.05083 0
M  V30 1646 N 157.779 -4.64169 5.26775 0
M  V30 1647 H 162.619 -0.870123 2.85014 0
M  V30 1648 H 160.156 -0.418245 1.41029 0
M  V30 1649 H 162.114 -3.32758 2.5165 0
M  V30 1650 H 160.744 -2.87433 1.46908 0
M  V30 1651 H 159.796 -1.53131 3.48217 0
M  V30 1652 H 161.108 -2.20683 4.47326 0
M  V30 1653 H 160.262 -4.52303 4.0436 0
M  V30 1654 H 159.001 -3.88105 2.9534 0
M  V30 1655 H 158.006 -2.57927 4.85545 0
M  V30 1656 H 159.231 -3.25163 5.96193 0
M  V30 1657 H 157.177 -4.86425 4.40144 0
M  V30 1658 H 157.094 -4.48019 6.08946 0
M  V30 1659 H 158.362 -5.51689 5.5069 0
M  V30 1660 N 162.591 -1.51276 -0.441967 0
M  V30 1661 C 163.521 -1.752 -1.54361 0
M  V30 1662 C 164.502 -0.601682 -1.59103 0
M  V30 1663 O 165.687 -0.843913 -1.74905 0
M  V30 1664 C 162.817 -1.87282 -2.92477 0
M  V30 1665 C 161.771 -3.02687 -3.02596 0
M  V30 1666 C 161.097 -2.99947 -4.42647 0
M  V30 1667 C 162.397 -4.4273 -2.77106 0
M  V30 1668 H 164.091 -2.67442 -1.34592 0
M  V30 1669 H 161.637 -1.28694 -0.646048 0
M  V30 1670 H 163.59 -2.02602 -3.695 0
M  V30 1671 H 162.314 -0.916844 -3.13467 0
M  V30 1672 H 160.973 -2.87065 -2.28012 0
M  V30 1673 H 160.621 -2.02136 -4.60597 0
M  V30 1674 H 160.321 -3.77439 -4.50348 0
M  V30 1675 H 161.845 -3.17354 -5.2165 0
M  V30 1676 H 163.259 -4.58727 -3.43864 0
M  V30 1677 H 161.656 -5.21893 -2.96222 0
M  V30 1678 H 162.726 -4.53087 -1.72744 0
M  V30 1679 N 164.069 0.697108 -1.41344 0
M  V30 1680 C 165.001 1.8224 -1.39001 0
M  V30 1681 C 166.014 1.60152 -0.292428 0
M  V30 1682 O 167.203 1.69684 -0.554048 0
M  V30 1683 C 164.303 3.18976 -1.14489 0
M  V30 1684 C 163.476 3.68105 -2.36258 0
M  V30 1685 C 162.535 4.83506 -2.07625 0
M  V30 1686 O 161.561 4.95201 -2.8065 0
M  V30 1687 N 162.763 5.70637 -1.06555 0
M  V30 1688 H 165.528 1.84742 -2.35988 0
M  V30 1689 H 163.089 0.87937 -1.35936 0
M  V30 1690 H 165.081 3.93801 -0.932885 0
M  V30 1691 H 163.651 3.11508 -0.261043 0
M  V30 1692 H 162.871 2.84204 -2.7317 0
M  V30 1693 H 164.159 3.97667 -3.17393 0
M  V30 1694 H 163.557 5.63817 -0.461125 0
M  V30 1695 H 162.114 6.45368 -0.913444 0
M  V30 1696 N 165.547 1.27147 0.931209 0
M  V30 1697 C 166.477 1.12081 2.04842 0
M  V30 1698 C 167.458 0.0232364 1.70084 0
M  V30 1699 O 168.643 0.197085 1.93197 0
M  V30 1700 C 165.773 0.76354 3.38803 0
M  V30 1701 C 164.727 1.81396 3.87659 0
M  V30 1702 C 164.053 1.31075 5.18385 0
M  V30 1703 C 165.353 3.21739 4.11438 0
M  V30 1704 H 167.047 2.05537 2.17703 0
M  V30 1705 H 164.593 0.989603 1.04608 0
M  V30 1706 H 166.546 0.644982 4.16435 0
M  V30 1707 H 165.27 -0.206727 3.25945 0
M  V30 1708 H 163.929 1.92136 3.12217 0
M  V30 1709 H 163.577 0.330037 5.01916 0
M  V30 1710 H 163.277 2.013 5.52044 0
M  V30 1711 H 164.801 1.20506 5.98591 0
M  V30 1712 H 166.215 3.14019 4.79651 0
M  V30 1713 H 164.612 3.89644 4.56397 0
M  V30 1714 H 165.682 3.67054 3.16859 0
M  V30 1715 N 167.025 -1.13721 1.09112 0
M  V30 1716 C 167.988 -2.17222 0.731241 0
M  V30 1717 C 168.988 -1.59035 -0.237566 0
M  V30 1718 O 170.178 -1.74192 -0.0161704 0
M  V30 1719 C 167.31 -3.40804 0.0808443 0
M  V30 1720 H 168.503 -2.50573 1.64783 0
M  V30 1721 H 166.056 -1.28493 0.889897 0
M  V30 1722 H 166.791 -3.1304 -0.847127 0
M  V30 1723 H 166.576 -3.84306 0.777896 0
M  V30 1724 H 168.066 -4.1731 -0.155657 0
M  V30 1725 N 168.503 -0.877838 -1.30888 0
M  V30 1726 C 169.436 -0.283995 -2.26426 0
M  V30 1727 C 170.414 0.591361 -1.51465 0
M  V30 1728 O 171.598 0.54304 -1.80509 0
M  V30 1729 C 168.725 0.597129 -3.33395 0
M  V30 1730 C 167.771 -0.207937 -4.25993 0
M  V30 1731 S 168.604 -1.59158 -5.11301 0
M  V30 1732 C 169.76 -0.716791 -6.21782 0
M  V30 1733 H 169.993 -1.09383 -2.76446 0
M  V30 1734 H 167.526 -0.676828 -1.38775 0
M  V30 1735 H 169.484 1.09978 -3.95493 0
M  V30 1736 H 168.145 1.38099 -2.82113 0
M  V30 1737 H 167.338 0.464163 -5.01858 0
M  V30 1738 H 166.94 -0.642963 -3.68432 0
M  V30 1739 H 169.232 0.0692833 -6.77465 0
M  V30 1740 H 170.175 -1.44682 -6.93161 0
M  V30 1741 H 170.583 -0.280855 -5.63801 0
M  V30 1742 N 169.982 1.44106 -0.638065 0
M  V30 1743 C 171.393 1.85316 -0.226894 0
M  V30 1744 C 171.744 1.53399 1.22324 0
M  V30 1745 O 170.869 0.975463 1.93167 0
M  V30 1746 C 171.464 3.3637 -0.405013 0
M  V30 1747 C 170.023 3.76369 -0.0482902 0
M  V30 1748 C 169.17 2.67921 -0.715108 0
M  V30 1749 H 172.121 1.34474 -0.842764 0
M  V30 1750 H 172.142 3.7885 0.354 0
M  V30 1751 H 171.654 3.59569 -1.46053 0
M  V30 1752 H 169.755 3.58784 1.00522 0
M  V30 1753 H 169.868 4.76856 -0.463187 0
M  V30 1754 H 168.232 2.54259 -0.149753 0
M  V30 1755 H 169.015 2.93951 -1.77335 0
M  V30 1756 N 171.46 0.379036 1.52974 0
M  V30 1757 C 172.39 -0.452706 2.29069 0
M  V30 1758 C 173.371 -1.07237 1.32039 0
M  V30 1759 O 174.556 -1.08708 1.60923 0
M  V30 1760 C 171.686 -1.5856 3.08992 0
M  V30 1761 C 170.64 -1.0925 4.13822 0
M  V30 1762 C 169.966 -2.31668 4.81907 0
M  V30 1763 C 171.266 -0.167702 5.22031 0
M  V30 1764 H 172.96 0.182181 2.98845 0
M  V30 1765 H 170.506 0.0890592 1.43724 0
M  V30 1766 H 172.459 -2.1742 3.6098 0
M  V30 1767 H 171.183 -2.24792 2.36931 0
M  V30 1768 H 169.842 -0.526494 3.628 0
M  V30 1769 H 169.49 -2.96386 4.06404 0
M  V30 1770 H 169.19 -1.9934 5.52754 0
M  V30 1771 H 170.714 -2.91189 5.36695 0
M  V30 1772 H 172.128 -0.664186 5.6944 0
M  V30 1773 H 170.525 0.0653265 6.00064 0
M  V30 1774 H 171.595 0.786347 4.78482 0
M  V30 1775 N 172.938 -1.57226 0.108567 0
M  V30 1776 C 173.868 -2.17778 -0.84232 0
M  V30 1777 C 174.849 -1.11487 -1.2847 0
M  V30 1778 O 176.034 -1.39681 -1.34918 0
M  V30 1779 C 173.164 -2.76888 -2.09644 0
M  V30 1780 C 172.118 -3.88669 -1.79221 0
M  V30 1781 C 171.444 -4.34541 -3.11574 0
M  V30 1782 C 172.744 -5.11251 -1.06864 0
M  V30 1783 H 174.438 -2.97489 -0.337774 0
M  V30 1784 H 171.984 -1.43097 -0.161025 0
M  V30 1785 H 173.937 -3.17904 -2.76614 0
M  V30 1786 H 172.661 -1.94451 -2.62405 0
M  V30 1787 H 171.32 -3.48213 -1.14644 0
M  V30 1788 H 170.968 -3.48977 -3.62249 0
M  V30 1789 H 170.668 -5.09914 -2.91996 0
M  V30 1790 H 172.192 -4.782 -3.7968 0
M  V30 1791 H 173.606 -5.49352 -1.63968 0
M  V30 1792 H 172.003 -5.9214 -0.974178 0
M  V30 1793 H 173.073 -4.8487 -0.0536168 0
M  V30 1794 N 174.416 0.165178 -1.56732 0
M  V30 1795 C 175.827 0.727046 -1.71962 0
M  V30 1796 C 176.178 1.82508 -0.720078 0
M  V30 1797 O 175.303 2.16082 0.117242 0
M  V30 1798 C 175.898 1.32559 -3.11791 0
M  V30 1799 C 174.457 1.83422 -3.28684 0
M  V30 1800 C 173.604 0.715567 -2.67908 0
M  V30 1801 H 176.555 -0.0602896 -1.58585 0
M  V30 1802 H 176.576 2.19533 -3.10782 0
M  V30 1803 H 176.088 0.526195 -3.84516 0
M  V30 1804 H 174.189 2.65986 -2.60926 0
M  V30 1805 H 174.302 1.97543 -4.36478 0
M  V30 1806 H 172.666 1.13758 -2.27884 0
M  V30 1807 H 173.449 -0.0720836 -3.43224 0
M  V30 1808 N 175.894 1.51508 0.433938 0
M  V30 1809 C 176.826 1.69266 1.54537 0
M  V30 1810 C 177.839 0.573276 1.52373 0
M  V30 1811 O 179.028 0.847698 1.57087 0
M  V30 1812 C 176.128 1.69524 2.93453 0
M  V30 1813 C 175.301 2.98101 3.20085 0
M  V30 1814 C 174.36 2.90502 4.38742 0
M  V30 1815 O 173.386 3.64442 4.3723 0
M  V30 1816 N 174.588 2.06586 5.42496 0
M  V30 1817 H 177.353 2.65145 1.39708 0
M  V30 1818 H 174.914 1.49437 0.622922 0
M  V30 1819 H 176.906 1.62004 3.70859 0
M  V30 1820 H 175.476 0.812245 3.01863 0
M  V30 1821 H 174.696 3.19464 2.30947 0
M  V30 1822 H 175.984 3.83207 3.34708 0
M  V30 1823 H 175.382 1.45896 5.46563 0
M  V30 1824 H 173.939 2.04943 6.18742 0
M  V30 1825 N 177.372 -0.689602 1.41712 0
M  V30 1826 C 178.282 -1.83314 1.46401 0
M  V30 1827 C 179.298 -1.7036 0.35405 0
M  V30 1828 O 180.474 -1.92171 0.602692 0
M  V30 1829 C 177.539 -3.19344 1.34982 0
M  V30 1830 C 176.6 -3.44363 2.56344 0
M  V30 1831 C 175.833 -4.73904 2.45461 0
M  V30 1832 O 176.056 -5.508 1.48241 0
M  V30 1833 O 174.99 -4.99839 3.35328 0
M  V30 1834 H 178.816 -1.82314 2.42889 0
M  V30 1835 H 176.401 -0.843438 1.23315 0
M  V30 1836 H 178.283 -4.00547 1.3092 0
M  V30 1837 H 176.958 -3.21014 0.41612 0
M  V30 1838 H 175.865 -2.63067 2.65982 0
M  V30 1839 H 177.198 -3.47512 3.48563 0
M  V30 1840 N 178.85 -1.27639 -0.924453 0
M  V30 1841 C 180.096 -1.14336 -1.67497 0
M  V30 1842 C 180.429 0.309465 -1.91718 0
M  V30 1843 O 179.704 1.22608 -1.50989 0
M  V30 1844 C 179.987 -1.93096 -3.0395 0
M  V30 1845 C 179.84 -3.46381 -2.8695 0
M  V30 1846 C 181.159 -1.73798 -4.0433 0
M  V30 1847 H 178.278 -0.416728 -0.607871 0
M  V30 1848 H 180.92 -1.56832 -1.07256 0
M  V30 1849 H 179.07 -1.56982 -3.55372 0
M  V30 1850 H 180.742 -3.92343 -2.42621 0
M  V30 1851 H 178.985 -3.72557 -2.22225 0
M  V30 1852 H 179.656 -3.96735 -3.83804 0
M  V30 1853 H 182.132 -2.05293 -3.61931 0
M  V30 1854 H 181.008 -2.31294 -4.97789 0
M  V30 1855 H 181.269 -0.686725 -4.36734 0
M  V30 1856 N 180.328 1.1314 -1.09713 0
M  V30 1857 C 181.26 2.18343 -0.697056 0
M  V30 1858 C 182.273 1.60669 0.262551 0
M  V30 1859 O 183.462 1.78435 0.0481527 0
M  V30 1860 C 180.562 3.38899 -0.00684728 0
M  V30 1861 C 179.735 4.26078 -0.988741 0
M  V30 1862 C 178.794 5.25155 -0.331394 0
M  V30 1863 O 177.82 5.60701 -0.979926 0
M  V30 1864 N 179.022 5.73271 0.913261 0
M  V30 1865 H 181.787 2.5328 -1.60216 0
M  V30 1866 H 179.348 1.28491 -0.984971 0
M  V30 1867 H 181.34 4.02255 0.444191 0
M  V30 1868 H 179.91 3.02175 0.800551 0
M  V30 1869 H 179.13 3.59453 -1.61826 0
M  V30 1870 H 180.418 4.81178 -1.65364 0
M  V30 1871 H 179.816 5.46544 1.45966 0
M  V30 1872 H 178.373 6.3855 1.30757 0
M  V30 1873 N 181.806 0.884767 1.30421 0
M  V30 1874 C 182.738 0.308655 2.27112 0
M  V30 1875 C 183.751 -0.536655 1.53701 0
M  V30 1876 O 184.94 -0.35624 1.74909 0
M  V30 1877 C 182.04 -0.579782 3.33904 0
M  V30 1878 C 181.213 0.236417 4.36761 0
M  V30 1879 C 180.272 -0.582482 5.22966 0
M  V30 1880 O 179.298 -0.00525502 5.692 0
M  V30 1881 N 180.5 -1.89163 5.48815 0
M  V30 1882 H 183.265 1.13964 2.77186 0
M  V30 1883 H 180.826 0.747731 1.43599 0
M  V30 1884 H 182.818 -1.13366 3.88497 0
M  V30 1885 H 181.388 -1.31144 2.83761 0
M  V30 1886 H 180.608 0.97174 3.82035 0
M  V30 1887 H 181.896 0.795924 5.02536 0
M  V30 1888 H 181.294 -2.38352 5.13035 0
M  V30 1889 H 179.851 -2.39296 6.06284 0
M  V30 1890 N 183.284 -1.43765 0.645699 0
M  V30 1891 C 184.216 -2.29027 -0.0890605 0
M  V30 1892 C 185.229 -1.42093 -0.794563 0
M  V30 1893 O 186.418 -1.66104 -0.653575 0
M  V30 1894 C 183.518 -3.18831 -1.14891 0
M  V30 1895 C 182.691 -4.34261 -0.523043 0
M  V30 1896 C 181.75 -5.04994 -1.47878 0
M  V30 1897 O 180.776 -5.6052 -0.990277 0
M  V30 1898 N 181.978 -5.07795 -2.81291 0
M  V30 1899 H 184.743 -2.92727 0.64272 0
M  V30 1900 H 182.304 -1.54373 0.487924 0
M  V30 1901 H 184.296 -3.63015 -1.78892 0
M  V30 1902 H 182.866 -2.56782 -1.78275 0
M  V30 1903 H 182.086 -3.93088 0.295896 0
M  V30 1904 H 183.374 -5.08728 -0.0858147 0
M  V30 1905 H 182.772 -4.64042 -3.23546 0
M  V30 1906 H 181.329 -5.55721 -3.40614 0
M  V30 1907 N 184.763 -0.387143 -1.52771 0
M  V30 1908 C 186.011 0.195349 -2.01154 0
M  V30 1909 C 186.332 1.475 -1.27549 0
M  V30 1910 O 185.602 1.91878 -0.394924 0
M  V30 1911 H 184.182 0.075178 -0.743207 0
M  V30 1912 H 186.844 -0.518337 -1.87881 0
M  V30 1913 H 185.94 0.407096 -3.09434 0
M  V30 1914 N 186.241 1.57166 -0.116904 0
M  V30 1915 C 187.487 1.95412 0.542405 0
M  V30 1916 C 187.82 1.00019 1.66463 0
M  V30 1917 O 187.095 0.0370346 1.94465 0
M  V30 1918 C 187.378 3.43615 1.07708 0
M  V30 1919 C 187.231 4.49781 -0.0415868 0
M  V30 1920 C 188.55 3.93616 1.96861 0
M  V30 1921 H 185.669 0.710543 0.195696 0
M  V30 1922 H 188.311 1.89027 -0.192038 0
M  V30 1923 H 186.461 3.49187 1.70296 0
M  V30 1924 H 188.133 4.56308 -0.676793 0
M  V30 1925 H 186.376 4.28033 -0.705019 0
M  V30 1926 H 187.047 5.50733 0.373717 0
M  V30 1927 H 189.523 3.90335 1.44146 0
M  V30 1928 H 188.399 4.97838 2.3119 0
M  V30 1929 H 188.66 3.34188 2.89432 0
M  V30 1930 N 187.719 -0.156864 1.56817 0
M  V30 1931 C 188.944 -0.890331 1.87318 0
M  V30 1932 C 189.369 -1.74394 0.704855 0
M  V30 1933 O 188.727 -1.77972 -0.345786 0
M  V30 1934 C 188.775 -1.73102 3.16336 0
M  V30 1935 O 187.879 -2.83422 2.99576 0
M  V30 1936 H 187.22 -0.24857 0.615718 0
M  V30 1937 H 189.75 -0.150649 2.04045 0
M  V30 1938 H 189.76 -2.12803 3.48107 0
M  V30 1939 H 188.435 -1.10412 4.00976 0
M  V30 1940 H 187.012 -2.47199 2.7919 0
M  V30 1941 N 189.197 -1.51736 -0.425897 0
M  V30 1942 C 190.443 -1.65214 -1.1761 0
M  V30 1943 C 190.776 -0.372778 -1.90589 0
M  V30 1944 O 190.051 0.628139 -1.84078 0
M  V30 1945 C 190.334 -2.86312 -2.18398 0
M  V30 1946 C 190.187 -4.24254 -1.49426 0
M  V30 1947 C 191.506 -3.02925 -3.19256 0
M  V30 1948 H 188.625 -0.601263 -0.426206 0
M  V30 1949 H 191.267 -1.8425 -0.463882 0
M  V30 1950 H 189.417 -2.70213 -2.79137 0
M  V30 1951 H 191.089 -4.52046 -0.919362 0
M  V30 1952 H 189.332 -4.26426 -0.796432 0
M  V30 1953 H 190.003 -5.05001 -2.22885 0
M  V30 1954 H 192.479 -3.1781 -2.68581 0
M  V30 1955 H 191.355 -3.89199 -3.8706 0
M  V30 1956 H 191.616 -2.15497 -3.86023 0
M  V30 1957 N 190.675 0.682077 -1.42076 0
M  V30 1958 C 191.585 1.82535 -1.47371 0
M  V30 1959 C 192.601 1.7017 -0.363079 0
M  V30 1960 O 193.777 1.91848 -0.612875 0
M  V30 1961 C 190.842 3.18624 -1.36674 0
M  V30 1962 C 189.903 3.42999 -2.58167 0
M  V30 1963 C 189.136 4.72595 -2.4797 0
M  V30 1964 O 189.359 5.50006 -1.5116 0
M  V30 1965 O 188.293 4.98054 -3.37974 0
M  V30 1966 H 192.119 1.81023 -2.43853 0
M  V30 1967 H 189.704 0.836887 -1.2376 0
M  V30 1968 H 191.586 3.99847 -1.33043 0
M  V30 1969 H 190.261 3.20789 -0.433138 0
M  V30 1970 H 189.168 2.61653 -2.67373 0
M  V30 1971 H 190.501 3.45659 -3.50401 0
M  V30 1972 N 192.153 1.28127 0.917671 0
M  V30 1973 C 193.1 1.11717 2.0196 0
M  V30 1974 C 194.07 0.0153929 1.66093 0
M  V30 1975 O 195.255 0.179596 1.89953 0
M  V30 1976 C 192.395 0.780927 3.36148 0
M  V30 1977 C 191.508 1.96135 3.84909 0
M  V30 1978 C 190.643 1.56609 5.0759 0
M  V30 1979 C 189.682 2.71339 5.48673 0
M  V30 1980 N 188.819 2.32332 6.62545 0
M  V30 1981 H 193.659 2.06003 2.15329 0
M  V30 1982 H 191.196 1.02535 1.05475 0
M  V30 1983 H 193.154 0.56675 4.13333 0
M  V30 1984 H 191.784 -0.124998 3.22558 0
M  V30 1985 H 190.836 2.28777 3.03916 0
M  V30 1986 H 192.148 2.82165 4.1132 0
M  V30 1987 H 191.302 1.31374 5.92305 0
M  V30 1988 H 190.041 0.677014 4.82978 0
M  V30 1989 H 189.046 2.97276 4.62501 0
M  V30 1990 H 190.271 3.60882 5.75274 0
M  V30 1991 H 188.217 1.45889 6.39572 0
M  V30 1992 H 188.134 3.11899 6.88662 0
M  V30 1993 H 189.402 2.10371 7.50576 0
M  V30 1994 N 193.631 -1.12557 1.10312 0
M  V30 1995 C 194.856 -1.88405 0.867085 0
M  V30 1996 C 195.281 -1.79038 -0.576817 0
M  V30 1997 O 194.639 -1.14439 -1.40618 0
M  V30 1998 C 194.687 -3.3563 1.31851 0
M  V30 1999 O 193.791 -4.09565 0.482734 0
M  V30 2000 H 193.132 -0.585455 0.313271 0
M  V30 2001 H 195.662 -1.42352 1.4696 0
M  V30 2002 H 195.672 -3.86469 1.3079 0
M  V30 2003 H 194.347 -3.41765 2.37001 0
M  V30 2004 H 192.924 -3.68695 0.558448 0
M  V30 2005 N 195.109 -0.891671 -1.2995 0
M  V30 2006 C 196.334 -0.527932 -2.00568 0
M  V30 2007 C 196.759 0.877969 -1.66353 0
M  V30 2008 O 196.117 1.58301 -0.883762 0
M  V30 2009 C 196.165 -0.717745 -3.53385 0
M  V30 2010 O 195.269 0.233376 -4.11739 0
M  V30 2011 H 194.61 -0.20722 -0.630837 0
M  V30 2012 H 197.14 -1.20105 -1.65638 0
M  V30 2013 H 197.15 -0.619307 -4.03272 0
M  V30 2014 H 195.825 -1.74276 -3.77625 0
M  V30 2015 H 194.402 0.0880706 -3.72796 0
M  V30 2016 N 196.587 1.43421 -0.653314 0
M  V30 2017 C 197.812 2.06678 -0.172846 0
M  V30 2018 C 198.237 1.48648 1.15262 0
M  V30 2019 O 197.595 0.596457 1.71208 0
M  V30 2020 C 197.643 3.60474 -0.0953184 0
M  V30 2021 O 196.747 4.01487 0.942442 0
M  V30 2022 H 196.088 0.657181 -0.0949155 0
M  V30 2023 H 198.618 1.83925 -0.896265 0
M  V30 2024 H 198.628 4.07905 0.0879728 0
M  V30 2025 H 197.303 4.02088 -1.06291 0
M  V30 2026 H 195.88 3.65646 0.731932 0
M  V30 2027 N 198.065 0.39524 1.52563 0
M  V30 2028 C 199.29 -0.187456 2.06551 0
M  V30 2029 C 199.715 -1.39249 1.26457 0
M  V30 2030 O 199.073 -1.78947 0.291151 0
M  V30 2031 C 199.121 -0.529985 3.56684 0
M  V30 2032 O 198.225 -1.62307 3.79118 0
M  V30 2033 H 197.566 -0.0202537 0.663691 0
M  V30 2034 H 200.096 0.564426 1.96661 0
M  V30 2035 H 200.106 -0.792598 4.00227 0
M  V30 2036 H 198.781 0.350987 4.14416 0
M  V30 2037 H 197.358 -1.3537 3.47461 0
M  V30 2038 N 199.544 -1.57102 0.125237 0
M  V30 2039 C 200.791 -1.95407 -0.531248 0
M  V30 2040 C 201.119 -1.0089 -1.66287 0
M  V30 2041 O 200.374 -0.0339431 -1.95671 0
M  V30 2042 C 200.673 -3.40096 -1.09862 0
M  V30 2043 C 200.339 -4.50815 -0.0876989 0
M  V30 2044 C 199.001 -4.80824 0.19026 0
M  V30 2045 C 201.353 -5.17724 0.600902 0
M  V30 2046 C 198.681 -5.75058 1.163 0
M  V30 2047 C 201.033 -6.13005 1.56231 0
M  V30 2048 C 199.697 -6.41403 1.8482 0
M  V30 2049 H 198.967 -0.715046 -0.194397 0
M  V30 2050 H 201.614 -1.90373 0.207463 0
M  V30 2051 H 199.919 -3.41855 -1.91422 0
M  V30 2052 H 201.616 -3.6705 -1.61478 0
M  V30 2053 H 198.206 -4.27444 -0.314528 0
M  V30 2054 H 202.39 -4.94691 0.399333 0
M  V30 2055 H 197.646 -5.95362 1.39117 0
M  V30 2056 H 201.82 -6.63934 2.10153 0
M  V30 2057 H 199.447 -7.14229 2.60349 0
M  V30 2058 N 201.022 0.148545 -1.56898 0
M  V30 2059 C 201.952 1.18524 -2.01182 0
M  V30 2060 C 202.933 1.4489 -0.891123 0
M  V30 2061 O 204.118 1.55836 -1.15882 0
M  V30 2062 C 201.248 2.51879 -2.39112 0
M  V30 2063 C 200.202 2.40038 -3.54353 0
M  V30 2064 C 199.528 3.78089 -3.78091 0
M  V30 2065 C 200.828 1.88577 -4.87069 0
M  V30 2066 H 202.522 0.817029 -2.88036 0
M  V30 2067 H 200.068 0.391575 -1.38574 0
M  V30 2068 H 202.021 3.24627 -2.68692 0
M  V30 2069 H 200.745 2.90532 -1.49193 0
M  V30 2070 H 199.404 1.69742 -3.24936 0
M  V30 2071 H 199.052 4.14175 -2.85426 0
M  V30 2072 H 198.752 3.71028 -4.55645 0
M  V30 2073 H 200.276 4.52387 -4.10095 0
M  V30 2074 H 201.69 2.51117 -5.15377 0
M  V30 2075 H 200.087 1.9241 -5.68417 0
M  V30 2076 H 201.157 0.84136 -4.77545 0
M  V30 2077 N 202.5 1.5196 0.417844 0
M  V30 2078 C 203.433 1.69387 1.52916 0
M  V30 2079 C 204.411 0.541419 1.53321 0
M  V30 2080 O 205.595 0.767695 1.72159 0
M  V30 2081 C 202.722 1.72525 2.91467 0
M  V30 2082 C 201.768 2.93967 3.09008 0
M  V30 2083 S 202.601 4.54461 2.83242 0
M  V30 2084 C 203.757 4.60372 4.24038 0
M  V30 2085 H 203.99 2.63382 1.37903 0
M  V30 2086 H 201.523 1.41889 0.608845 0
M  V30 2087 H 203.481 1.75018 3.7132 0
M  V30 2088 H 202.142 0.796733 3.03827 0
M  V30 2089 H 201.335 2.92619 4.10353 0
M  V30 2090 H 200.937 2.89316 2.37007 0
M  V30 2091 H 203.229 4.37213 5.17544 0
M  V30 2092 H 204.172 5.62273 4.30412 0
M  V30 2093 H 204.58 3.89492 4.08602 0
M  V30 2094 N 203.978 -0.674533 1.42435 0
M  V30 2095 C 205.224 -1.43671 1.43131 0
M  V30 2096 C 205.557 -1.94142 0.0476021 0
M  V30 2097 O 204.832 -1.70924 -0.928188 0
M  V30 2098 C 205.115 -2.63355 2.45594 0
M  V30 2099 C 204.968 -2.18514 3.93156 0
M  V30 2100 C 206.287 -3.65571 2.45043 0
M  V30 2101 H 203.406 -0.521077 0.521198 0
M  V30 2102 H 206.048 -0.766551 1.7385 0
M  V30 2103 H 204.198 -3.2053 2.19528 0
M  V30 2104 H 205.87 -1.66504 4.30202 0
M  V30 2105 H 204.113 -1.50086 4.07009 0
M  V30 2106 H 204.784 -3.04484 4.60428 0
M  V30 2107 H 207.26 -3.18113 2.68223 0
M  V30 2108 H 206.136 -4.46893 3.18713 0
M  V30 2109 H 206.397 -4.16716 1.47649 0
M  V30 2110 N 205.456 -1.28612 -0.910864 0
M  V30 2111 C 206.702 -1.16106 -1.66274 0
M  V30 2112 C 207.035 0.289113 -1.92036 0
M  V30 2113 O 206.31 1.21 -1.52281 0
M  V30 2114 C 206.593 -1.96309 -3.01885 0
M  V30 2115 C 206.446 -3.49405 -2.8326 0
M  V30 2116 C 207.765 -1.78076 -4.02463 0
M  V30 2117 H 204.884 -0.423152 -0.603417 0
M  V30 2118 H 207.526 -1.57961 -1.05586 0
M  V30 2119 H 205.676 -1.60742 -3.53687 0
M  V30 2120 H 207.348 -3.94894 -2.38446 0
M  V30 2121 H 205.591 -3.74893 -2.18261 0
M  V30 2122 H 206.262 -4.00784 -3.79574 0
M  V30 2123 H 208.738 -2.0912 -3.59733 0
M  V30 2124 H 207.614 -2.36561 -4.95308 0
M  V30 2125 H 207.875 -0.733008 -4.35981 0
M  V30 2126 N 206.934 1.1197 -1.10907 0
M  V30 2127 C 208.182 1.83225 -0.852819 0
M  V30 2128 C 208.503 1.84769 0.623341 0
M  V30 2129 O 207.773 1.3143 1.45269 0
M  V30 2130 H 206.353 0.67849 -0.312507 0
M  V30 2131 H 209.015 1.3556 -1.40033 0
M  V30 2132 H 208.111 2.87265 -1.22005 0
M  V30 2133 N 208.412 0.89855 1.29475 0
M  V30 2134 C 209.658 0.524658 1.95896 0
M  V30 2135 C 209.991 -0.926468 1.70676 0
M  V30 2136 O 209.266 -1.65665 1.01908 0
M  V30 2137 C 209.549 0.81633 3.50725 0
M  V30 2138 C 209.402 2.31907 3.85408 0
M  V30 2139 C 210.721 0.302038 4.39062 0
M  V30 2140 H 207.84 0.19209 0.711527 0
M  V30 2141 H 210.482 1.12502 1.53112 0
M  V30 2142 H 208.632 0.305369 3.87298 0
M  V30 2143 H 210.304 2.89949 3.58786 0
M  V30 2144 H 208.547 2.78027 3.32992 0
M  V30 2145 H 209.218 2.47373 4.93468 0
M  V30 2146 H 211.694 0.739551 4.09475 0
M  V30 2147 H 210.57 0.535331 5.46283 0
M  V30 2148 H 210.831 -0.797216 4.34853 0
M  V30 2149 N 209.89 -1.43072 0.660911 0
M  V30 2150 C 211.139 -2.00942 0.174735 0
M  V30 2151 C 211.452 -1.52797 -1.22117 0
M  V30 2152 O 212.658 -2.02991 -1.80297 0
M  V30 2153 C 211.114 -3.58948 0.261559 0
M  V30 2154 C 210.722 -4.16085 1.66064 0
M  V30 2155 C 212.466 -4.24173 -0.166617 0
M  V30 2156 C 210.373 -5.6641 1.70098 0
M  V30 2157 H 209.303 -0.751483 0.0615631 0
M  V30 2158 H 211.954 -1.63955 0.824069 0
M  V30 2159 H 210.336 -3.93372 -0.455421 0
M  V30 2160 H 211.51 -3.93147 2.40359 0
M  V30 2161 H 209.825 -3.6326 2.03546 0
M  V30 2162 H 212.422 -5.34471 -0.156433 0
M  V30 2163 H 212.765 -3.98647 -1.19943 0
M  V30 2164 H 213.298 -3.94659 0.498875 0
M  V30 2165 H 210.037 -5.96715 2.71315 0
M  V30 2166 H 209.557 -5.91382 1.00139 0
M  V30 2167 H 211.236 -6.30585 1.44816 0
M  V30 2168 N 211.368 -0.403325 -1.52352 0
M  V30 2169 C 212.316 0.439752 -2.28405 0
M  V30 2170 C 213.31 1.05089 -1.32863 0
M  V30 2171 O 214.516 0.989759 -1.50345 0
M  V30 2172 H 210.891 0.160587 -0.734653 0
M  V30 2173 H 212.862 -0.222983 -2.97566 0
M  V30 2174 C 211.611 1.54736 -3.11371 0
M  V30 2175 H 210.934 1.08643 -3.84755 0
M  V30 2176 H 212.374 2.1112 -3.67701 0
M  V30 2177 C 210.833 2.51141 -2.24566 0
M  V30 2178 O 211.363 3.54887 -1.88196 0
M  V30 2179 N 209.569 2.21213 -1.8845 0
M  V30 2180 H 209.116 1.36878 -2.18225 0
M  V30 2181 H 209.074 2.85963 -1.30662 0
M  V30 2182 N 212.846 1.57033 -0.133567 0
M  V30 2183 C 214.074 2.00044 0.528195 0
M  V30 2184 C 214.489 1.01349 1.59291 0
M  V30 2185 O 213.846 0.00848369 1.82498 0
M  V30 2186 C 213.897 3.43018 1.1411 0
M  V30 2187 O 213.618 4.37939 0.11892 0
M  V30 2188 C 215.119 4.01237 1.88477 0
M  V30 2189 H 212.339 0.656517 0.138661 0
M  V30 2190 H 214.883 2.03267 -0.224196 0
M  V30 2191 H 213.038 3.40688 1.84418 0
M  V30 2192 H 213.452 5.21436 0.56613 0
M  V30 2193 H 214.926 5.03314 2.26669 0
M  V30 2194 H 215.403 3.41193 2.76558 0
M  V30 2195 H 216.009 4.07156 1.22898 0
M  V30 2196 N 214.325 -0.140222 1.56975 0
M  V30 2197 C 215.602 -0.880769 1.74648 0
M  V30 2198 C 215.982 -1.99036 0.703404 0
M  V30 2199 O 215.33 -2.26821 -0.27648 0
M  V30 2200 C 215.54 -1.417 3.18939 0
M  V30 2201 C 216.888 -1.87774 3.80823 0
M  V30 2202 O 217.912 -1.51427 3.2241 0
M  V30 2203 O 216.771 -2.54827 4.83452 0
M  V30 2204 H 213.865 -0.416713 0.714338 0
M  V30 2205 H 216.411 -0.125618 1.69234 0
M  V30 2206 H 215.183 -0.619902 3.86359 0
M  V30 2207 H 214.806 -2.23546 3.28805 0
M  V30 2208 N 215.803 -1.52179 -0.40978 0
M  V30 2209 C 217.051 -1.65878 -1.15451 0
M  V30 2210 C 217.372 -0.390771 -1.91044 0
M  V30 2211 O 216.642 0.594323 -1.86667 0
M  V30 2212 H 215.222 -0.611405 -0.429177 0
M  V30 2213 H 217.884 -1.89219 -0.467134 0
M  V30 2214 H 216.98 -2.49954 -1.86894 0
M  V30 2215 N 217.281 0.66697 -1.42791 0
M  V30 2216 C 218.509 1.45505 -1.47091 0
M  V30 2217 C 218.924 1.8861 -0.0845873 0
M  V30 2218 O 218.281 1.58632 0.90234 0
M  V30 2219 C 218.332 2.69906 -2.40485 0
M  V30 2220 O 218.053 2.28608 -3.73725 0
M  V30 2221 C 219.554 3.63396 -2.53886 0
M  V30 2222 H 216.774 0.447459 -0.500022 0
M  V30 2223 H 219.318 0.818866 -1.8739 0
M  V30 2224 H 217.473 3.29696 -2.03419 0
M  V30 2225 H 217.887 3.08997 -4.23817 0
M  V30 2226 H 219.361 4.47387 -3.2334 0
M  V30 2227 H 219.838 4.09824 -1.57927 0
M  V30 2228 H 220.444 3.09495 -2.91706 0
M  V30 2229 N 218.759 1.29093 0.90403 0
M  V30 2230 C 219.692 1.08176 2.00931 0
M  V30 2231 C 220.67 -0.005083 1.62599 0
M  V30 2232 O 221.854 0.144765 1.87943 0
M  V30 2233 C 218.981 0.645897 3.32484 0
M  V30 2234 C 218.027 1.73081 3.89801 0
M  V30 2235 S 218.86 3.32905 4.19446 0
M  V30 2236 C 220.016 2.91176 5.54046 0
M  V30 2237 H 220.249 2.01752 2.18365 0
M  V30 2238 H 217.782 1.13191 1.0501 0
M  V30 2239 H 219.74 0.401131 4.08535 0
M  V30 2240 H 218.401 -0.270188 3.12936 0
M  V30 2241 H 217.594 1.37768 4.84805 0
M  V30 2242 H 217.196 1.92888 3.20422 0
M  V30 2243 H 219.488 2.37952 6.34338 0
M  V30 2244 H 220.431 3.85014 5.94281 0
M  V30 2245 H 220.839 2.296 5.15698 0
M  V30 2246 N 220.237 -1.11381 1.11499 0
M  V30 2247 C 221.465 -1.86934 0.88675 0
M  V30 2248 C 221.88 -1.80195 -0.563476 0
M  V30 2249 O 221.237 -1.18367 -1.38908 0
M  V30 2250 C 221.288 -3.35722 1.34064 0
M  V30 2251 O 221.009 -3.4232 2.73401 0
M  V30 2252 C 222.51 -4.2818 1.14791 0
M  V30 2253 H 219.73 -0.591117 0.317523 0
M  V30 2254 H 222.274 -1.40865 1.48248 0
M  V30 2255 H 220.429 -3.79294 0.788355 0
M  V30 2256 H 220.843 -4.34971 2.93087 0
M  V30 2257 H 222.317 -5.30817 1.5145 0
M  V30 2258 H 222.794 -4.39113 0.0875279 0
M  V30 2259 H 223.4 -3.90402 1.68721 0
M  V30 2260 N 221.715 -0.905404 -1.28997 0
M  V30 2261 C 222.647 -0.344748 -2.26592 0
M  V30 2262 C 223.66 0.512135 -1.54535 0
M  V30 2263 O 224.849 0.328368 -1.75454 0
M  V30 2264 C 221.949 0.526587 -3.34784 0
M  V30 2265 C 221.122 -0.305871 -4.36329 0
M  V30 2266 C 220.181 0.499209 -5.23827 0
M  V30 2267 O 219.207 -0.0853004 -5.69136 0
M  V30 2268 N 220.409 1.80408 -5.51755 0
M  V30 2269 H 223.174 -1.18359 -2.75338 0
M  V30 2270 H 220.735 -0.770481 -1.42391 0
M  V30 2271 H 222.727 1.07171 -3.90252 0
M  V30 2272 H 221.297 1.26613 -2.85811 0
M  V30 2273 H 220.517 -1.0324 -3.80441 0
M  V30 2274 H 221.805 -0.875773 -5.01206 0
M  V30 2275 H 221.203 2.3016 -5.16762 0
M  V30 2276 H 219.76 2.29621 -6.10014 0
M  V30 2277 N 223.193 1.4272 -0.668489 0
M  V30 2278 C 224.103 2.34596 0.0139753 0
M  V30 2279 C 225.119 1.5474 0.795703 0
M  V30 2280 O 226.295 1.87334 0.739466 0
M  V30 2281 C 223.36 3.33202 0.957982 0
M  V30 2282 C 222.421 4.28957 0.17149 0
M  V30 2283 C 221.654 5.22853 1.07053 0
M  V30 2284 O 221.877 5.21531 2.31001 0
M  V30 2285 O 220.811 5.9952 0.534727 0
M  V30 2286 H 224.637 2.9448 -0.742661 0
M  V30 2287 H 222.222 1.43117 -0.428705 0
M  V30 2288 H 224.104 3.93796 1.50008 0
M  V30 2289 H 222.779 2.758 1.69458 0
M  V30 2290 H 221.686 3.71796 -0.414558 0
M  V30 2291 H 223.019 4.89383 -0.52586 0
M  V30 2292 N 224.671 0.411399 1.52136 0
M  V30 2293 C 225.948 -0.222308 1.94333 0
M  V30 2294 C 226.328 -1.6242 1.34844 0
M  V30 2295 O 225.676 -2.22384 0.525145 0
M  V30 2296 C 225.886 -0.226345 3.48265 0
M  V30 2297 C 227.234 -0.444592 4.22266 0
M  V30 2298 O 228.258 -0.305602 3.54887 0
M  V30 2299 O 227.117 -0.718749 5.41753 0
M  V30 2300 H 224.211 -0.143907 0.814383 0
M  V30 2301 H 226.757 0.467506 1.63133 0
M  V30 2302 H 225.529 0.75475 3.83952 0
M  V30 2303 H 225.152 -0.960163 3.85832 0
M  V30 2304 N 226.149 -1.5696 0.141893 0
M  V30 2305 C 227.398 -1.95135 -0.510427 0
M  V30 2306 C 227.711 -1.02896 -1.66348 0
M  V30 2307 O 228.917 -1.30629 -2.38009 0
M  V30 2308 C 227.373 -3.46876 -0.959427 0
M  V30 2309 C 226.981 -4.47691 0.166419 0
M  V30 2310 C 228.725 -3.93927 -1.58183 0
M  V30 2311 C 226.632 -5.90636 -0.300565 0
M  V30 2312 H 225.562 -0.728494 -0.194454 0
M  V30 2313 H 228.213 -1.8211 0.22542 0
M  V30 2314 H 226.595 -3.55215 -1.75038 0
M  V30 2315 H 227.769 -4.51043 0.94325 0
M  V30 2316 H 226.084 -4.10527 0.696905 0
M  V30 2317 H 228.681 -4.98158 -1.94275 0
M  V30 2318 H 229.024 -3.3519 -2.46888 0
M  V30 2319 H 229.557 -3.88484 -0.855863 0
M  V30 2320 H 226.296 -6.5318 0.550989 0
M  V30 2321 H 225.816 -5.90655 -1.04338 0
M  V30 2322 H 227.495 -6.42588 -0.754265 0
M  V30 2323 N 227.627 0.131896 -1.57047 0
M  V30 2324 C 228.852 0.860418 -1.8871 0
M  V30 2325 C 229.277 1.73251 -0.73251 0
M  V30 2326 O 228.635 1.785 0.317429 0
M  V30 2327 C 228.683 1.68047 -3.19049 0
M  V30 2328 O 227.787 2.7862 -3.04047 0
M  V30 2329 H 227.128 0.238743 -0.619595 0
M  V30 2330 H 229.658 0.118169 -2.04258 0
M  V30 2331 H 229.668 2.07238 -3.51449 0
M  V30 2332 H 228.343 1.04018 -4.02682 0
M  V30 2333 H 226.92 2.42726 -2.83088 0
M  V30 2334 N 229.106 1.52395 0.401703 0
M  V30 2335 C 230.383 1.57387 1.16141 0
M  V30 2336 C 230.763 0.359359 2.08019 0
M  V30 2337 O 230.111 -0.65326 2.18963 0
M  V30 2338 C 230.321 2.90631 1.93221 0
M  V30 2339 C 231.669 3.43904 2.49028 0
M  V30 2340 O 232.693 2.92421 2.03393 0
M  V30 2341 O 231.552 4.33823 3.32356 0
M  V30 2342 H 228.646 0.634262 0.530698 0
M  V30 2343 H 231.192 1.64725 0.407883 0
M  V30 2344 H 229.964 3.70473 1.25958 0
M  V30 2345 H 229.587 2.8662 2.75563 0
M  V30 2346 N 230.584 -0.659388 1.43143 0
M  V30 2347 C 231.814 -1.44513 1.47646 0
M  V30 2348 C 232.222 -1.88981 0.0910095 0
M  V30 2349 O 231.565 -1.59702 -0.907789 0
M  V30 2350 C 231.627 -2.71663 2.35456 0
M  V30 2351 C 231.291 -2.49175 3.83094 0
M  V30 2352 C 232.288 -2.1279 4.74359 0
M  V30 2353 C 229.973 -2.63691 4.27519 0
M  V30 2354 C 231.967 -1.9121 6.08044 0
M  V30 2355 C 229.654 -2.41726 5.61259 0
M  V30 2356 C 230.652 -2.0554 6.51339 0
M  V30 2357 O 230.34 -1.838 7.82606 0
M  V30 2358 H 230.072 -0.45064 0.503884 0
M  V30 2359 H 232.626 -0.816248 1.88485 0
M  V30 2360 H 230.856 -3.37089 1.89493 0
M  V30 2361 H 232.545 -3.33595 2.31235 0
M  V30 2362 H 233.311 -2.01157 4.41317 0
M  V30 2363 H 229.19 -2.90832 3.57684 0
M  V30 2364 H 232.734 -1.62889 6.78316 0
M  V30 2365 H 228.631 -2.52959 5.9387 0
M  V30 2366 H 229.399 -1.98275 7.94122 0
M  V30 2367 N 232.062 -1.29571 -0.897171 0
M  V30 2368 C 233.308 -1.17863 -1.65034 0
M  V30 2369 C 233.641 0.268729 -1.92332 0
M  V30 2370 O 232.916 1.19378 -1.53555 0
M  V30 2371 C 233.199 -1.995 -2.99786 0
M  V30 2372 C 233.052 -3.5239 -2.79538 0
M  V30 2373 C 234.371 -1.82335 -4.00552 0
M  V30 2374 H 231.49 -0.429528 -0.598895 0
M  V30 2375 H 234.132 -1.59072 -1.03905 0
M  V30 2376 H 232.282 -1.64485 -3.51962 0
M  V30 2377 H 233.954 -3.97401 -2.34244 0
M  V30 2378 H 232.197 -3.77187 -2.14273 0
M  V30 2379 H 232.868 -4.04787 -3.75302 0
M  V30 2380 H 235.344 -2.12924 -3.57495 0
M  V30 2381 H 234.22 -2.41801 -4.92771 0
M  V30 2382 H 234.481 -0.779209 -4.35179 0
M  V30 2383 N 233.54 1.10788 -1.12088 0
M  V30 2384 C 234.503 2.15207 -0.788577 0
M  V30 2385 C 235.503 1.59609 0.195317 0
M  V30 2386 O 236.693 1.74174 -0.0300193 0
M  V30 2387 C 233.825 3.4047 -0.171174 0
M  V30 2388 H 235.018 2.46116 -1.71368 0
M  V30 2389 H 232.571 1.26089 -0.923652 0
M  V30 2390 H 233.306 3.15176 0.763832 0
M  V30 2391 H 233.091 3.82109 -0.879514 0
M  V30 2392 H 234.581 4.17576 0.04496 0
M  V30 2393 N 235.018 0.912232 1.28515 0
M  V30 2394 C 235.981 0.404223 2.25607 0
M  V30 2395 C 236.981 -0.468602 1.53821 0
M  V30 2396 O 238.171 -0.271873 1.72065 0
M  V30 2397 C 235.303 -0.420653 3.38295 0
M  V30 2398 H 236.496 1.26188 2.7206 0
M  V30 2399 H 234.049 0.691495 1.40171 0
M  V30 2400 H 234.784 -1.29777 2.97201 0
M  V30 2401 H 234.569 0.204935 3.91564 0
M  V30 2402 H 236.059 -0.766971 4.10496 0
M  V30 2403 N 236.496 -1.42363 0.676048 0
M  V30 2404 C 237.444 -2.32596 -0.0131507 0
M  V30 2405 C 238.438 -1.49891 -0.789238 0
M  V30 2406 O 239.644 -1.65955 -0.697061 0
M  V30 2407 H 236.019 -0.751647 -0.0230481 0
M  V30 2408 H 237.99 -2.88421 0.765243 0
M  V30 2409 C 236.739 -3.34479 -0.949702 0
M  V30 2410 H 236.062 -3.98158 -0.361938 0
M  V30 2411 H 237.502 -4.00199 -1.4006 0
M  V30 2412 C 235.961 -2.66838 -2.05667 0
M  V30 2413 O 236.491 -2.50124 -3.14326 0
M  V30 2414 N 234.697 -2.25843 -1.82875 0
M  V30 2415 H 234.244 -2.39637 -0.945085 0
M  V30 2416 H 234.202 -1.80918 -2.5713 0
M  V30 2417 N 237.974 -0.419461 -1.51915 0
M  V30 2418 C 238.907 0.445751 -2.23804 0
M  V30 2419 C 239.885 1.03951 -1.25031 0
M  V30 2420 O 241.069 1.08541 -1.54114 0
M  V30 2421 C 238.196 1.61964 -2.97465 0
M  V30 2422 C 237.242 1.14828 -4.10751 0
M  V30 2423 S 238.075 0.104938 -5.35397 0
M  V30 2424 C 239.231 1.28391 -6.1259 0
M  V30 2425 H 239.464 -0.164627 -2.96844 0
M  V30 2426 H 236.997 -0.203833 -1.53049 0
M  V30 2427 H 238.955 2.29271 -3.40507 0
M  V30 2428 H 237.616 2.20139 -2.24048 0
M  V30 2429 H 236.809 2.02561 -4.61503 0
M  V30 2430 H 236.411 0.553712 -3.69878 0
M  V30 2431 H 238.703 2.20563 -6.40592 0
M  V30 2432 H 239.646 0.816724 -7.03374 0
M  V30 2433 H 240.054 1.51439 -5.43807 0
M  V30 2434 N 239.452 1.56882 -0.150215 0
M  V30 2435 C 240.399 2.16922 0.788244 0
M  V30 2436 C 241.369 1.10303 1.24187 0
M  V30 2437 O 242.554 1.38359 1.31383 0
M  V30 2438 C 239.694 2.79754 2.02068 0
M  V30 2439 C 238.807 4.00775 1.61257 0
M  V30 2440 C 237.942 4.51595 2.79705 0
M  V30 2441 C 236.981 5.65074 2.35282 0
M  V30 2442 N 236.118 6.10499 3.4675 0
M  V30 2443 H 240.958 2.96779 0.269444 0
M  V30 2444 H 238.495 1.46599 0.12128 0
M  V30 2445 H 240.453 3.14329 2.74323 0
M  V30 2446 H 239.083 2.02536 2.51354 0
M  V30 2447 H 238.135 3.72158 0.787553 0
M  V30 2448 H 239.447 4.82978 1.24633 0
M  V30 2449 H 238.601 4.88242 3.60145 0
M  V30 2450 H 237.34 3.68406 3.19576 0
M  V30 2451 H 236.345 5.28 1.53283 0
M  V30 2452 H 237.57 6.50052 1.96493 0
M  V30 2453 H 235.516 5.30243 3.86236 0
M  V30 2454 H 235.433 6.87637 3.14152 0
M  V30 2455 H 236.701 6.51791 4.27537 0
M  V30 2456 N 240.93 -0.123565 1.57115 0
M  V30 2457 C 242.207 -0.862196 1.75572 0
M  V30 2458 C 242.587 -1.98279 0.724475 0
M  V30 2459 O 241.935 -2.27102 -0.252407 0
M  V30 2460 C 242.145 -1.38309 3.20424 0
M  V30 2461 C 243.493 -1.83724 3.82793 0
M  V30 2462 O 244.517 -1.47999 3.23998 0
M  V30 2463 O 243.376 -2.49685 4.86127 0
M  V30 2464 H 240.47 -0.409113 0.718718 0
M  V30 2465 H 243.016 -0.107661 1.69358 0
M  V30 2466 H 241.788 -0.578889 3.86994 0
M  V30 2467 H 241.411 -2.20046 3.31158 0
M  V30 2468 N 242.408 -1.52605 -0.393616 0
M  V30 2469 C 243.371 -1.76415 -1.46323 0
M  V30 2470 C 244.371 -0.634126 -1.47768 0
M  V30 2471 O 245.561 -0.902142 -1.4902 0
M  V30 2472 C 242.693 -1.8607 -2.85641 0
M  V30 2473 H 243.886 -2.71916 -1.26498 0
M  V30 2474 H 241.439 -1.43257 -0.625073 0
M  V30 2475 H 242.174 -0.925378 -3.10817 0
M  V30 2476 H 241.959 -2.68235 -2.85993 0
M  V30 2477 H 243.449 -2.06179 -3.63153 0
M  V30 2478 N 243.887 0.651787 -1.4349 0
M  V30 2479 C 245.136 1.40754 -1.44469 0
M  V30 2480 C 245.449 1.95463 -0.0731845 0
M  V30 2481 O 246.655 2.71471 0.0395721 0
M  V30 2482 C 245.111 2.54735 -2.5424 0
M  V30 2483 C 244.719 2.06628 -3.97504 0
M  V30 2484 C 246.463 3.32092 -2.64414 0
M  V30 2485 C 244.37 3.17829 -4.98737 0
M  V30 2486 H 243.3 0.528862 -0.53742 0
M  V30 2487 H 245.951 0.703365 -1.69485 0
M  V30 2488 H 244.333 3.2763 -2.22428 0
M  V30 2489 H 245.507 1.40734 -4.38783 0
M  V30 2490 H 243.822 1.42146 -3.91387 0
M  V30 2491 H 246.419 4.14952 -3.37223 0
M  V30 2492 H 246.762 3.80217 -1.69532 0
M  V30 2493 H 247.295 2.66279 -2.95534 0
M  V30 2494 H 244.034 2.74671 -5.95177 0
M  V30 2495 H 243.554 3.82429 -4.62069 0
M  V30 2496 H 245.233 3.82937 -5.21505 0
M  V30 2497 N 245.365 1.30045 0.890287 0
M  V30 2498 C 246.59 1.21598 1.68014 0
M  V30 2499 C 247.015 -0.218678 1.86825 0
M  V30 2500 O 246.373 -1.15756 1.39536 0
M  V30 2501 C 246.421 1.94434 3.03691 0
M  V30 2502 O 245.525 1.2678 3.92429 0
M  V30 2503 H 244.866 0.420856 0.513592 0
M  V30 2504 H 247.396 1.71775 1.11151 0
M  V30 2505 H 247.406 2.03251 3.5377 0
M  V30 2506 H 246.081 2.98777 2.89318 0
M  V30 2507 H 244.658 1.26282 3.50866 0
M  V30 2508 N 246.843 -1.10192 1.12674 0
M  V30 2509 C 248.259 -1.34235 0.863317 0
M  V30 2510 C 248.459 -1.95062 -0.505277 0
M  V30 2511 O 247.515 -2.19192 -1.25345 0
M  V30 2512 C 248.828 -2.2616 1.98172 0
M  V30 2513 C 250.376 -2.3969 2.0129 0
M  V30 2514 C 250.851 -3.34946 3.1237 0
M  V30 2515 N 252.342 -3.42515 3.11829 0
M  V30 2516 C 253.077 -4.16199 3.94419 0
M  V30 2517 N 252.573 -4.92747 4.87004 0
M  V30 2518 N 254.366 -4.11843 3.82547 0
M  V30 2519 H 246.517 -0.690798 2.00853 0
M  V30 2520 H 248.78 -0.366774 0.874174 0
M  V30 2521 H 248.486 -1.8868 2.96804 0
M  V30 2522 H 248.36 -3.26488 1.88906 0
M  V30 2523 H 250.747 -2.76438 1.03276 0
M  V30 2524 H 250.828 -1.39169 2.14629 0
M  V30 2525 H 250.472 -2.98923 4.10619 0
M  V30 2526 H 250.402 -4.35353 2.96269 0
M  V30 2527 H 252.893 -2.87926 2.44759 0
M  V30 2528 H 253.206 -5.46376 5.46528 0
M  V30 2529 H 251.551 -4.91862 4.91016 0
M  V30 2530 H 254.742 -3.51136 3.0955 0
M  V30 2531 H 254.915 -4.69007 4.47142 0
M  V30 2532 N 248.321 -0.919034 -1.28029 0
M  V30 2533 C 249.549 -0.570971 -1.98866 0
M  V30 2534 C 249.964 0.848996 -1.68634 0
M  V30 2535 O 249.321 1.56307 -0.942036 0
M  V30 2536 C 249.372 -0.776876 -3.53054 0
M  V30 2537 O 249.093 -2.14097 -3.82222 0
M  V30 2538 C 250.594 -0.436356 -4.41147 0
M  V30 2539 H 247.814 -0.217175 -0.634883 0
M  V30 2540 H 250.358 -1.23368 -1.63097 0
M  V30 2541 H 248.513 -0.161085 -3.87065 0
M  V30 2542 H 248.927 -2.18455 -4.76841 0
M  V30 2543 H 250.401 -0.63117 -5.4838 0
M  V30 2544 H 250.878 0.627686 -4.34692 0
M  V30 2545 H 251.484 -1.02991 -4.12641 0
M  V30 2546 N 249.799 1.42003 -0.683588 0
M  V30 2547 C 251.024 2.06265 -0.216647 0
M  V30 2548 C 251.449 1.51059 1.12083 0
M  V30 2549 O 250.807 0.632638 1.69904 0
M  V30 2550 C 250.855 3.60191 -0.171759 0
M  V30 2551 O 249.959 4.03396 0.857069 0
M  V30 2552 H 249.3 0.65502 -0.108834 0
M  V30 2553 H 251.83 1.81982 -0.935077 0
M  V30 2554 H 251.84 4.08 0.0014303 0
M  V30 2555 H 250.515 3.99743 -1.14796 0
M  V30 2556 H 249.092 3.67117 0.654208 0
M  V30 2557 N 251.277 0.427512 1.51691 0
M  V30 2558 C 252.525 -0.141948 2.01601 0
M  V30 2559 C 252.846 -1.44067 1.31414 0
M  V30 2560 O 252.116 -1.90763 0.445658 0
M  V30 2561 H 250.696 -0.0554468 0.744939 0
M  V30 2562 H 253.358 0.567968 1.86441 0
M  V30 2563 H 252.454 -0.324913 3.10404 0
M  V30 2564 N 252.755 -1.56801 0.158532 0
M  V30 2565 C 254.001 -1.96781 -0.490405 0
M  V30 2566 C 254.334 -1.04397 -1.63753 0
M  V30 2567 O 253.609 -0.0885805 -1.94298 0
M  V30 2568 C 253.892 -3.4635 -0.985594 0
M  V30 2569 C 253.745 -4.49512 0.160824 0
M  V30 2570 C 255.064 -3.98697 -1.86355 0
M  V30 2571 H 252.183 -0.715482 -0.176788 0
M  V30 2572 H 254.825 -1.88451 0.242088 0
M  V30 2573 H 252.975 -3.53579 -1.60978 0
M  V30 2574 H 254.647 -4.54353 0.797537 0
M  V30 2575 H 252.89 -4.26013 0.818256 0
M  V30 2576 H 253.561 -5.51531 -0.227569 0
M  V30 2577 H 256.037 -3.94019 -1.33746 0
M  V30 2578 H 254.913 -5.03792 -2.17909 0
M  V30 2579 H 255.174 -3.41744 -2.8047 0
M  V30 2580 N 254.233 0.115231 -1.57178 0
M  V30 2581 C 255.481 0.820727 -1.84685 0
M  V30 2582 C 255.802 1.80237 -0.744279 0
M  V30 2583 O 255.072 1.94529 0.231375 0
M  V30 2584 H 253.652 0.306084 -0.681411 0
M  V30 2585 H 256.314 0.101656 -1.94635 0
M  V30 2586 H 255.41 1.36366 -2.80733 0
M  V30 2587 N 255.711 1.52812 0.385517 0
M  V30 2588 C 256.988 1.5861 1.14465 0
M  V30 2589 C 257.368 0.381402 2.07626 0
M  V30 2590 O 256.716 -0.629999 2.19643 0
M  V30 2591 C 256.926 2.92664 1.90128 0
M  V30 2592 C 258.274 3.46526 2.45367 0
M  V30 2593 O 259.298 2.94562 2.0028 0
M  V30 2594 O 258.157 4.37323 3.27736 0
M  V30 2595 H 255.251 0.639855 0.523941 0
M  V30 2596 H 257.797 1.65149 0.390389 0
M  V30 2597 H 256.569 3.71788 1.22022 0
M  V30 2598 H 256.192 2.89527 2.72507 0
M  V30 2599 N 257.189 -0.644168 1.43834 0
M  V30 2600 C 258.435 -1.40603 1.46146 0
M  V30 2601 C 258.768 -1.93997 0.0887717 0
M  V30 2602 O 258.043 -1.72854 -0.891724 0
M  V30 2603 C 258.326 -2.58086 2.51124 0
M  V30 2604 C 258.179 -2.10126 3.97702 0
M  V30 2605 C 259.498 -3.60291 2.52742 0
M  V30 2606 H 256.617 -0.509905 0.532134 0
M  V30 2607 H 259.259 -0.729502 1.75437 0
M  V30 2608 H 257.409 -3.15801 2.26278 0
M  V30 2609 H 259.081 -1.57342 4.33637 0
M  V30 2610 H 257.324 -1.41419 4.10101 0
M  V30 2611 H 257.995 -2.94649 4.66783 0
M  V30 2612 H 260.471 -3.12352 2.7491 0
M  V30 2613 H 259.347 -4.40032 3.28121 0
M  V30 2614 H 259.608 -4.1349 1.56455 0
M  V30 2615 N 258.668 -1.30515 -0.883378 0
M  V30 2616 C 259.6 -1.12846 -1.99496 0
M  V30 2617 C 260.613 -0.0712571 -1.62644 0
M  V30 2618 O 261.802 -0.317432 -1.75655 0
M  V30 2619 C 258.902 -0.699123 -3.3161 0
M  V30 2620 C 258.075 -1.83842 -3.96889 0
M  V30 2621 C 257.134 -1.39737 -5.07307 0
M  V30 2622 O 256.16 -2.10485 -5.28852 0
M  V30 2623 N 257.362 -0.277279 -5.79837 0
M  V30 2624 H 260.127 -2.08585 -2.15203 0
M  V30 2625 H 257.688 -1.22672 -1.05656 0
M  V30 2626 H 259.68 -0.387044 -4.02845 0
M  V30 2627 H 258.25 0.166276 -3.12157 0
M  V30 2628 H 257.47 -2.31853 -3.18807 0
M  V30 2629 H 258.758 -2.60187 -4.37241 0
M  V30 2630 H 258.156 0.3122 -5.64838 0
M  V30 2631 H 256.713 -0.0246623 -6.51795 0
M  V30 2632 N 260.146 1.09593 -1.13257 0
M  V30 2633 C 261.076 2.18214 -0.830946 0
M  V30 2634 C 262.057 1.68812 0.208966 0
M  V30 2635 O 263.242 1.9408 0.0682666 0
M  V30 2636 C 260.372 3.46051 -0.294296 0
M  V30 2637 C 259.326 4.08778 -1.26826 0
M  V30 2638 C 258.652 5.31419 -0.591449 0
M  V30 2639 C 259.952 4.51476 -2.62615 0
M  V30 2640 H 261.646 2.43703 -1.73923 0
M  V30 2641 H 259.192 1.17128 -0.837675 0
M  V30 2642 H 261.145 4.2134 -0.0709606 0
M  V30 2643 H 259.869 3.20079 0.649366 0
M  V30 2644 H 258.528 3.35505 -1.47756 0
M  V30 2645 H 258.176 5.01727 0.357633 0
M  V30 2646 H 257.876 5.74341 -1.24123 0
M  V30 2647 H 259.4 6.09433 -0.377355 0
M  V30 2648 H 260.814 5.17999 -2.45663 0
M  V30 2649 H 259.211 5.05277 -3.23752 0
M  V30 2650 H 260.281 3.63962 -3.20406 0
M  V30 2651 N 261.624 0.925811 1.2754 0
M  V30 2652 C 262.871 0.565255 1.94451 0
M  V30 2653 C 263.199 -0.89316 1.7278 0
M  V30 2654 O 262.454 -1.65213 1.04895 0
M  V30 2655 C 262.753 0.835296 3.47502 0
M  V30 2656 C 262.419 2.27515 3.89291 0
M  V30 2657 C 261.081 2.66879 4.00411 0
M  V30 2658 C 263.433 3.21158 4.10496 0
M  V30 2659 C 260.761 3.99014 4.30122 0
M  V30 2660 C 263.113 4.52871 4.4169 0
M  V30 2661 C 261.777 4.92072 4.51023 0
M  V30 2662 H 261.047 0.206841 0.711546 0
M  V30 2663 H 263.694 1.16942 1.51647 0
M  V30 2664 H 261.999 0.148442 3.91519 0
M  V30 2665 H 263.696 0.535322 3.97411 0
M  V30 2666 H 260.286 1.95976 3.81171 0
M  V30 2667 H 264.47 2.9195 4.01346 0
M  V30 2668 H 259.726 4.2907 4.35556 0
M  V30 2669 H 263.9 5.25436 4.57045 0
M  V30 2670 H 261.527 5.9449 4.738 0
M  V30 2671 N 263.102 -1.41638 0.69111 0
M  V30 2672 C 264.35 -2.00902 0.219758 0
M  V30 2673 C 264.671 -1.54994 -1.18329 0
M  V30 2674 O 263.941 -0.778628 -1.79762 0
M  V30 2675 H 262.521 -0.74289 0.0782558 0
M  V30 2676 H 265.183 -1.73327 0.891271 0
M  V30 2677 H 264.279 -3.11224 0.233708 0
M  V30 2678 N 264.58 -0.43555 -1.51462 0
M  V30 2679 C 265.805 0.132627 -2.06976 0
M  V30 2680 C 266.23 1.35848 -1.30104 0
M  V30 2681 O 265.588 1.78112 -0.338493 0
M  V30 2682 C 265.636 0.43523 -3.57964 0
M  V30 2683 O 264.74 1.52198 -3.83288 0
M  V30 2684 H 264.081 0.00265 -0.663995 0
M  V30 2685 H 266.611 -0.616369 -1.95095 0
M  V30 2686 H 266.621 0.686206 -4.02188 0
M  V30 2687 H 265.296 -0.460739 -4.1334 0
M  V30 2688 H 263.873 1.2611 -3.50928 0
M  V30 2689 N 266.058 1.56714 -0.166846 0
M  V30 2690 C 266.99 2.14914 0.796537 0
M  V30 2691 C 268.003 1.10357 1.19688 0
M  V30 2692 O 269.192 1.37561 1.13751 0
M  V30 2693 C 266.292 2.67326 2.08303 0
M  V30 2694 C 265.465 3.96493 1.84696 0
M  V30 2695 C 264.524 4.34014 2.97521 0
M  V30 2696 O 263.55 5.01973 2.6835 0
M  V30 2697 N 264.752 3.95208 4.25196 0
M  V30 2698 H 267.517 2.98205 0.299006 0
M  V30 2699 H 265.078 1.61892 0.0160839 0
M  V30 2700 H 267.07 2.89428 2.82867 0
M  V30 2701 H 265.64 1.88649 2.4926 0
M  V30 2702 H 264.86 3.82814 0.940602 0
M  V30 2703 H 266.148 4.8086 1.66285 0
M  V30 2704 H 265.546 3.40487 4.51758 0
M  V30 2705 H 264.103 4.2232 4.96477 0
M  V30 2706 N 267.536 -0.106894 1.57237 0
M  V30 2707 C 268.766 -0.825191 1.89405 0
M  V30 2708 C 269.174 -1.73374 0.757496 0
M  V30 2709 O 268.517 -1.81552 -0.280115 0
M  V30 2710 C 268.579 -1.70102 3.1671 0
M  V30 2711 C 268.243 -0.965523 4.46684 0
M  V30 2712 C 269.24 -0.300741 5.19029 0
M  V30 2713 C 266.925 -0.943105 4.93367 0
M  V30 2714 C 268.919 0.376622 6.36286 0
M  V30 2715 C 266.606 -0.261949 6.10538 0
M  V30 2716 C 267.604 0.396748 6.81847 0
M  V30 2717 O 267.292 1.06701 7.96787 0
M  V30 2718 H 267.024 -0.241852 0.631255 0
M  V30 2719 H 269.578 -0.0921491 2.05193 0
M  V30 2720 H 267.808 -2.47601 2.97036 0
M  V30 2721 H 269.497 -2.29483 3.34802 0
M  V30 2722 H 270.263 -0.309599 4.84011 0
M  V30 2723 H 266.142 -1.44524 4.3776 0
M  V30 2724 H 269.686 0.891334 6.91882 0
M  V30 2725 H 265.583 -0.250896 6.45012 0
M  V30 2726 H 266.351 0.972707 8.127 0
M  V30 2727 N 269.014 -1.53014 -0.377408 0
M  V30 2728 C 269.977 -1.77957 -1.44444 0
M  V30 2729 C 270.977 -0.649763 -1.47087 0
M  V30 2730 O 272.167 -0.917897 -1.48055 0
M  V30 2731 C 269.299 -1.89089 -2.83651 0
M  V30 2732 H 270.492 -2.73243 -1.23606 0
M  V30 2733 H 268.045 -1.43912 -0.609844 0
M  V30 2734 H 268.78 -0.958293 -3.09818 0
M  V30 2735 H 268.565 -2.71254 -2.83132 0
M  V30 2736 H 270.055 -2.1002 -3.60945 0
M  V30 2737 N 270.492 0.636531 -1.44174 0
M  V30 2738 C 271.425 1.76139 -1.45087 0
M  V30 2739 C 272.403 1.59611 -0.310326 0
M  V30 2740 O 273.587 1.81568 -0.506477 0
M  V30 2741 C 270.714 3.13648 -1.27839 0
M  V30 2742 C 269.76 3.48838 -2.45386 0
M  V30 2743 S 270.593 3.46927 -4.07924 0
M  V30 2744 C 271.749 4.87064 -3.9309 0
M  V30 2745 H 271.982 1.75096 -2.40268 0
M  V30 2746 H 269.515 0.810666 -1.31406 0
M  V30 2747 H 271.473 3.93002 -1.18575 0
M  V30 2748 H 270.134 3.12235 -0.341787 0
M  V30 2749 H 269.327 4.48886 -2.29167 0
M  V30 2750 H 268.929 2.76935 -2.51362 0
M  V30 2751 H 271.221 5.76153 -3.56446 0
M  V30 2752 H 272.164 5.08337 -4.92949 0
M  V30 2753 H 272.572 4.61384 -3.25246 0
M  V30 2754 N 271.97 1.30982 0.876444 0
M  V30 2755 C 273.386 1.09498 1.16113 0
M  V30 2756 C 273.586 -0.13875 2.01022 0
M  V30 2757 O 272.642 -0.829935 2.38471 0
M  V30 2758 C 273.955 2.36308 1.85954 0
M  V30 2759 C 275.503 2.41856 1.98683 0
M  V30 2760 C 275.978 3.6853 2.71937 0
M  V30 2761 N 277.469 3.69387 2.79477 0
M  V30 2762 C 278.204 4.64096 3.36753 0
M  V30 2763 N 277.7 5.69155 3.95012 0
M  V30 2764 N 279.493 4.51626 3.3465 0
M  V30 2765 H 271.644 2.10118 0.310494 0
M  V30 2766 H 273.907 0.926634 0.200131 0
M  V30 2767 H 273.613 3.26388 1.31011 0
M  V30 2768 H 273.487 2.4561 2.86278 0
M  V30 2769 H 275.874 1.52249 2.52793 0
M  V30 2770 H 275.955 2.36523 0.9742 0
M  V30 2771 H 275.599 4.58499 2.18496 0
M  V30 2772 H 275.529 3.71127 3.73593 0
M  V30 2773 H 278.02 2.93438 2.38123 0
M  V30 2774 H 278.333 6.3751 4.36808 0
M  V30 2775 H 276.678 5.72937 3.93406 0
M  V30 2776 H 279.869 3.68728 2.8837 0
M  V30 2777 H 280.042 5.25614 3.7899 0
M  V30 2778 N 273.449 -1.08991 1.13837 0
M  V30 2779 C 274.698 -1.80631 0.897509 0
M  V30 2780 C 275.011 -1.86872 -0.57777 0
M  V30 2781 O 276.217 -2.54866 -0.935701 0
M  V30 2782 C 274.673 -3.24517 1.55618 0
M  V30 2783 C 274.281 -3.26529 3.0673 0
M  V30 2784 C 276.025 -4.00882 1.3962 0
M  V30 2785 C 273.932 -4.64965 3.65461 0
M  V30 2786 H 272.862 -0.67691 0.332129 0
M  V30 2787 H 275.513 -1.2246 1.3666 0
M  V30 2788 H 273.895 -3.82778 1.01476 0
M  V30 2789 H 275.069 -2.78008 3.67489 0
M  V30 2790 H 273.384 -2.63656 3.22296 0
M  V30 2791 H 275.981 -5.03167 1.80906 0
M  V30 2792 H 276.324 -4.14896 0.341578 0
M  V30 2793 H 276.857 -3.49075 1.90766 0
M  V30 2794 H 273.596 -4.56153 4.70749 0
M  V30 2795 H 273.116 -5.13792 3.09481 0
M  V30 2796 H 274.795 -5.3394 3.654 0
M  V30 2797 N 274.927 -0.932562 -1.27047 0
M  V30 2798 C 276.173 -0.585913 -1.94778 0
M  V30 2799 C 276.528 0.864142 -1.71902 0
M  V30 2800 O 275.821 1.60894 -1.04037 0
M  V30 2801 C 276.015 -0.853713 -3.47054 0
M  V30 2802 C 275.844 -2.32825 -3.84737 0
M  V30 2803 C 274.614 -2.98184 -4.07939 0
M  V30 2804 C 276.812 -3.30612 -3.93954 0
M  V30 2805 N 274.794 -4.3574 -4.3244 0
M  V30 2806 C 276.165 -4.53395 -4.22887 0
M  V30 2807 C 278.22 -3.25755 -3.76548 0
M  V30 2808 C 276.923 -5.71927 -4.36224 0
M  V30 2809 C 278.949 -4.43604 -3.91113 0
M  V30 2810 C 278.311 -5.65166 -4.20437 0
M  V30 2811 H 274.41 -0.264617 -0.735868 0
M  V30 2812 H 276.994 -1.20019 -1.53309 0
M  V30 2813 H 275.165 -0.268557 -3.8747 0
M  V30 2814 H 276.897 -0.469202 -4.01971 0
M  V30 2815 H 273.652 -2.48835 -4.02961 0
M  V30 2816 H 274.076 -5.06915 -4.48738 0
M  V30 2817 H 278.718 -2.32835 -3.52913 0
M  V30 2818 H 276.436 -6.65308 -4.58683 0
M  V30 2819 H 280.022 -4.41368 -3.79059 0
M  V30 2820 H 278.902 -6.54836 -4.31462 0
M  V30 2821 N 276.405 1.4127 -0.698611 0
M  V30 2822 C 277.338 2.28195 0.0153898 0
M  V30 2823 C 278.316 1.42402 0.784883 0
M  V30 2824 O 279.5 1.71828 0.775067 0
M  V30 2825 C 276.627 3.22685 1.02918 0
M  V30 2826 C 275.673 4.25041 0.352501 0
M  V30 2827 S 276.506 5.27757 -0.907322 0
M  V30 2828 C 277.662 6.25812 0.104796 0
M  V30 2829 H 277.895 2.88403 -0.721858 0
M  V30 2830 H 275.428 1.46452 -0.488996 0
M  V30 2831 H 277.386 3.77655 1.60893 0
M  V30 2832 H 276.047 2.61566 1.73902 0
M  V30 2833 H 275.24 4.91437 1.11828 0
M  V30 2834 H 274.842 3.73682 -0.154254 0
M  V30 2835 H 277.134 6.70705 0.957103 0
M  V30 2836 H 278.077 7.06149 -0.525323 0
M  V30 2837 H 278.485 5.62615 0.460931 0
M  V30 2838 N 277.883 0.443576 1.51229 0
M  V30 2839 C 278.831 -0.37904 2.29491 0
M  V30 2840 C 279.825 -1.0153 1.35603 0
M  V30 2841 O 281.031 -0.94955 1.52917 0
M  V30 2842 H 277.406 -0.141053 0.738653 0
M  V30 2843 H 279.377 0.301799 2.9687 0
M  V30 2844 C 278.126 -1.46426 3.15364 0
M  V30 2845 H 277.449 -0.984037 3.87501 0
M  V30 2846 H 278.889 -2.01297 3.7317 0
M  V30 2847 C 277.348 -2.45099 2.31146 0
M  V30 2848 O 277.878 -3.49773 1.9754 0
M  V30 2849 N 276.084 -2.16139 1.94249 0
M  V30 2850 H 275.631 -1.31044 2.21777 0
M  V30 2851 H 275.589 -2.82398 1.38198 0
M  V30 2852 N 279.361 -1.56624 0.175154 0
M  V30 2853 C 280.772 -1.83561 -0.340916 0
M  V30 2854 C 281.123 -1.09511 -1.62794 0
M  V30 2855 O 280.248 -0.349389 -2.13561 0
M  V30 2856 C 280.843 -3.32979 -0.625313 0
M  V30 2857 C 279.402 -3.60399 -1.08581 0
M  V30 2858 C 278.549 -2.77024 -0.123722 0
M  V30 2859 H 281.5 -1.53593 0.399344 0
M  V30 2860 H 281.521 -3.50666 -1.47694 0
M  V30 2861 H 281.033 -3.86847 0.311575 0
M  V30 2862 H 279.134 -3.11945 -2.03767 0
M  V30 2863 H 279.247 -4.68711 -0.992317 0
M  V30 2864 H 277.611 -2.46993 -0.621821 0
M  V30 2865 H 278.394 -3.33674 0.807256 0
M  V30 2866 N 280.839 0.0985539 -1.57292 0
M  V30 2867 C 281.787 1.1387 -2.02821 0
M  V30 2868 C 282.781 1.41676 -0.928666 0
M  V30 2869 O 283.987 1.41398 -1.11385 0
M  V30 2870 H 280.362 0.384419 -0.646317 0
M  V30 2871 H 282.333 0.728347 -2.89375 0
M  V30 2872 C 281.082 2.45166 -2.46554 0
M  V30 2873 H 280.405 2.24613 -3.3074 0
M  V30 2874 H 281.845 3.16456 -2.8219 0
M  V30 2875 C 280.304 3.09216 -1.33742 0
M  V30 2876 O 280.834 3.96163 -0.66464 0
M  V30 2877 N 279.04 2.69413 -1.08928 0
M  V30 2878 H 278.587 1.98801 -1.63817 0
M  V30 2879 H 278.545 3.12594 -0.336458 0
M  V30 2880 N 282.317 1.53212 0.369288 0
M  V30 2881 C 283.227 1.82342 1.47609 0
M  V30 2882 C 284.243 0.711532 1.58787 0
M  V30 2883 O 285.419 1.0012 1.74751 0
M  V30 2884 C 282.484 2.00393 2.8292 0
M  V30 2885 C 281.545 3.24297 2.81301 0
M  V30 2886 C 280.778 3.41478 4.10157 0
M  V30 2887 O 281.001 2.63033 5.06132 0
M  V30 2888 O 279.935 4.34817 4.16194 0
M  V30 2889 H 283.761 2.76366 1.25918 0
M  V30 2890 H 281.346 1.38547 0.559034 0
M  V30 2891 H 283.228 2.13859 3.63101 0
M  V30 2892 H 281.903 1.09559 3.04596 0
M  V30 2893 H 280.81 3.16257 1.99831 0
M  V30 2894 H 282.143 4.15041 2.64578 0
M  V30 2895 N 283.795 -0.628877 1.44509 0
M  V30 2896 C 284.725 -1.75187 1.54376 0
M  V30 2897 C 285.706 -1.65411 0.396618 0
M  V30 2898 O 286.891 -1.84137 0.617031 0
M  V30 2899 C 284.021 -3.13725 1.48976 0
M  V30 2900 C 282.975 -3.38291 2.62189 0
M  V30 2901 C 282.301 -4.76883 2.41841 0
M  V30 2902 C 283.601 -3.30632 4.04326 0
M  V30 2903 H 285.295 -1.67187 2.48373 0
M  V30 2904 H 282.841 -0.802909 1.19538 0
M  V30 2905 H 284.794 -3.92064 1.54478 0
M  V30 2906 H 283.518 -3.22515 0.514961 0
M  V30 2907 H 282.177 -2.62334 2.56079 0
M  V30 2908 H 281.825 -4.82378 1.42548 0
M  V30 2909 H 281.525 -4.94278 3.17747 0
M  V30 2910 H 283.049 -5.57449 2.49165 0
M  V30 2911 H 284.463 -3.98873 4.11793 0
M  V30 2912 H 282.86 -3.59561 4.80454 0
M  V30 2913 H 283.93 -2.28404 4.27738 0
M  V30 2914 N 285.273 -1.31445 -0.869486 0
M  V30 2915 C 286.221 -1.19067 -1.99814 0
M  V30 2916 C 287.215 -0.0988569 -1.69111 0
M  V30 2917 O 288.421 -0.260781 -1.78101 0
M  V30 2918 H 284.796 -0.368677 -0.655425 0
M  V30 2919 H 286.767 -2.14555 -2.07385 0
M  V30 2920 C 285.516 -0.915323 -3.35436 0
M  V30 2921 H 284.839 -1.74759 -3.59582 0
M  V30 2922 H 286.279 -0.868895 -4.15001 0
M  V30 2923 C 284.738 0.381928 -3.34728 0
M  V30 2924 O 285.268 1.39857 -3.76567 0
M  V30 2925 N 283.474 0.398633 -2.87853 0
M  V30 2926 H 283.021 -0.429186 -2.54 0
M  V30 2927 H 282.979 1.26651 -2.87762 0
M  V30 2928 N 286.751 1.08385 -1.14413 0
M  V30 2929 C 287.698 2.15311 -0.831265 0
M  V30 2930 C 288.668 1.64751 0.211292 0
M  V30 2931 O 289.853 1.90627 0.0811674 0
M  V30 2932 C 286.993 3.43658 -0.315143 0
M  V30 2933 C 286.106 4.08064 -1.41802 0
M  V30 2934 C 285.241 5.24207 -0.859126 0
M  V30 2935 C 284.28 5.80554 -1.93967 0
M  V30 2936 N 283.417 6.88042 -1.39793 0
M  V30 2937 H 288.257 2.41415 -1.74708 0
M  V30 2938 H 285.794 1.18474 -0.871909 0
M  V30 2939 H 287.752 4.172 0.00230884 0
M  V30 2940 H 286.382 3.17839 0.56378 0
M  V30 2941 H 285.434 3.3228 -1.85187 0
M  V30 2942 H 286.746 4.45962 -2.23427 0
M  V30 2943 H 285.9 6.04689 -0.49359 0
M  V30 2944 H 284.639 4.87699 -0.011932 0
M  V30 2945 H 283.644 4.98725 -2.31415 0
M  V30 2946 H 284.869 6.19121 -2.79046 0
M  V30 2947 H 282.815 6.53493 -0.572919 0
M  V30 2948 H 282.732 7.24767 -2.15054 0
M  V30 2949 H 284 7.72255 -1.0603 0
M  V30 2950 N 288.23 0.939286 1.26551 0
M  V30 2951 C 289.477 0.585847 1.9384 0
M  V30 2952 C 289.805 -0.874784 1.73718 0
M  V30 2953 O 289.06 -1.64092 1.06642 0
M  V30 2954 C 289.359 0.872106 3.46596 0
M  V30 2955 C 289.025 2.31632 3.86856 0
M  V30 2956 C 287.687 2.71111 3.97558 0
M  V30 2957 C 290.039 3.25494 4.07066 0
M  V30 2958 C 287.367 4.03553 4.25866 0
M  V30 2959 C 289.719 4.57531 4.36862 0
M  V30 2960 C 288.383 4.96828 4.45778 0
M  V30 2961 H 287.653 0.214377 0.709312 0
M  V30 2962 H 290.3 1.18544 1.50398 0
M  V30 2963 H 288.605 0.18996 3.91339 0
M  V30 2964 H 290.302 0.577442 3.96821 0
M  V30 2965 H 286.892 2.00008 3.79071 0
M  V30 2966 H 291.076 2.9619 3.98227 0
M  V30 2967 H 286.332 4.33665 4.30981 0
M  V30 2968 H 290.506 5.30254 4.51446 0
M  V30 2969 H 288.133 5.99482 4.67468 0
M  V30 2970 N 289.708 -1.40897 0.706093 0
M  V30 2971 C 290.64 -2.29199 0.00815776 0
M  V30 2972 C 291.653 -1.45336 -0.733582 0
M  V30 2973 O 292.842 -1.68727 -0.582537 0
M  V30 2974 C 289.942 -3.23417 -1.01265 0
M  V30 2975 C 289.115 -4.36089 -0.338387 0
M  V30 2976 C 288.174 -5.10811 -1.26326 0
M  V30 2977 O 287.2 -5.64215 -0.751651 0
M  V30 2978 N 288.402 -5.19269 -2.595 0
M  V30 2979 H 291.167 -2.89738 0.766297 0
M  V30 2980 H 288.728 -1.52164 0.55296 0
M  V30 2981 H 290.72 -3.70276 -1.63334 0
M  V30 2982 H 289.29 -2.64112 -1.67223 0
M  V30 2983 H 288.51 -3.91479 0.462352 0
M  V30 2984 H 289.798 -5.08634 0.130031 0
M  V30 2985 H 289.196 -4.77347 -3.03573 0
M  V30 2986 H 287.753 -5.69667 -3.16737 0
M  V30 2987 N 291.186 -0.45159 -1.50991 0
M  V30 2988 C 292.116 0.342898 -2.30969 0
M  V30 2989 C 293.097 1.00815 -1.37005 0
M  V30 2990 O 294.282 1.00907 -1.65926 0
M  V30 2991 C 291.412 1.43637 -3.16205 0
M  V30 2992 C 290.366 0.893818 -4.18563 0
M  V30 2993 C 289.692 2.08411 -4.92411 0
M  V30 2994 C 290.992 -0.0815568 -5.22236 0
M  V30 2995 H 292.686 -0.324556 -2.97636 0
M  V30 2996 H 290.232 -0.157531 -1.43136 0
M  V30 2997 H 292.185 1.9995 -3.70942 0
M  V30 2998 H 290.909 2.13232 -2.47386 0
M  V30 2999 H 289.568 0.352798 -3.64898 0
M  V30 3000 H 289.216 2.76658 -4.20082 0
M  V30 3001 H 288.916 1.72741 -5.61636 0
M  V30 3002 H 290.44 2.65251 -5.49976 0
M  V30 3003 H 291.854 0.391742 -5.7196 0
M  V30 3004 H 290.251 -0.351551 -5.99069 0
M  V30 3005 H 291.321 -1.01374 -4.74185 0
M  V30 3006 N 292.664 1.56529 -0.183458 0
M  V30 3007 C 293.892 2.01623 0.464285 0
M  V30 3008 C 294.307 1.06366 1.55986 0
M  V30 3009 O 293.664 0.0665398 1.82379 0
M  V30 3010 C 293.715 3.46475 1.03139 0
M  V30 3011 O 293.436 4.38095 -0.0204675 0
M  V30 3012 C 294.937 4.0703 1.75617 0
M  V30 3013 H 292.157 0.660596 0.117704 0
M  V30 3014 H 294.701 2.02451 -0.288751 0
M  V30 3015 H 292.856 3.46383 1.73486 0
M  V30 3016 H 293.27 5.22973 0.399952 0
M  V30 3017 H 294.744 5.10271 2.10542 0
M  V30 3018 H 295.221 3.49819 2.65563 0
M  V30 3019 H 295.827 4.1086 1.09882 0
M  V30 3020 N 294.142 -0.090211 1.57342 0
M  V30 3021 C 295.553 -0.644173 1.75235 0
M  V30 3022 C 295.904 -1.78865 0.806335 0
M  V30 3023 O 295.029 -2.16395 -0.0140128 0
M  V30 3024 C 295.624 -1.17532 3.1776 0
M  V30 3025 C 294.183 -1.67531 3.37061 0
M  V30 3026 C 293.33 -0.58693 2.71017 0
M  V30 3027 H 296.281 0.135884 1.58117 0
M  V30 3028 H 296.302 -2.04455 3.20902 0
M  V30 3029 H 295.814 -0.342138 3.86589 0
M  V30 3030 H 293.915 -2.53234 2.73319 0
M  V30 3031 H 294.028 -1.76493 4.45406 0
M  V30 3032 H 292.392 -1.02756 2.33052 0
M  V30 3033 H 293.175 0.235758 3.4249 0
M  V30 3034 N 295.62 -1.53406 -0.361157 0
M  V30 3035 C 296.866 -1.70054 -1.10496 0
M  V30 3036 C 297.199 -0.453278 -1.88836 0
M  V30 3037 O 296.474 0.5495 -1.86576 0
M  V30 3038 C 296.757 -2.95317 -2.06058 0
M  V30 3039 C 296.61 -4.3021 -1.31298 0
M  V30 3040 C 297.929 -3.16193 -3.06121 0
M  V30 3041 H 295.048 -0.618799 -0.400321 0
M  V30 3042 H 297.69 -1.86052 -0.385318 0
M  V30 3043 H 295.84 -2.81809 -2.67425 0
M  V30 3044 H 297.512 -4.55538 -0.726807 0
M  V30 3045 H 295.755 -4.29421 -0.614853 0
M  V30 3046 H 296.426 -5.14 -2.01265 0
M  V30 3047 H 298.902 -3.28916 -2.5486 0
M  V30 3048 H 297.778 -4.05266 -3.70204 0
M  V30 3049 H 298.039 -2.31676 -3.76535 0
M  V30 3050 N 297.098 0.621204 -1.44841 0
M  V30 3051 C 298.375 1.38 -1.38619 0
M  V30 3052 C 298.755 2.11041 -0.0498935 0
M  V30 3053 O 298.103 2.06992 0.967816 0
M  V30 3054 C 298.313 2.33817 -2.59096 0
M  V30 3055 C 299.661 2.96844 -3.03593 0
M  V30 3056 O 300.685 2.44141 -2.59371 0
M  V30 3057 O 299.544 3.92476 -3.80296 0
M  V30 3058 H 296.638 0.61811 -0.549426 0
M  V30 3059 H 299.184 0.645429 -1.56947 0
M  V30 3060 H 297.956 1.79012 -3.47952 0
M  V30 3061 H 297.579 3.14676 -2.43032 0
M  V30 3062 N 298.576 1.31904 0.862503 0
M  V30 3063 C 299.822 1.22197 1.61851 0
M  V30 3064 C 300.155 -0.217641 1.92977 0
M  V30 3065 O 299.43 -1.15264 1.56666 0
M  V30 3066 C 299.713 2.07378 2.94391 0
M  V30 3067 C 299.566 3.59678 2.70096 0
M  V30 3068 C 300.885 1.92891 3.95577 0
M  V30 3069 H 298.004 0.445255 0.587296 0
M  V30 3070 H 300.646 1.6177 0.99651 0
M  V30 3071 H 298.796 1.73758 3.47477 0
M  V30 3072 H 300.468 4.03472 2.23625 0
M  V30 3073 H 298.711 3.82735 2.04197 0
M  V30 3074 H 299.382 4.14595 3.64438 0
M  V30 3075 H 301.858 2.22327 3.51724 0
M  V30 3076 H 300.734 2.54781 4.86187 0
M  V30 3077 H 300.995 0.894315 4.3296 0
M  V30 3078 N 300.054 -1.07777 1.14986 0
M  V30 3079 C 301.303 -1.79669 0.916617 0
M  V30 3080 C 301.616 -1.87474 -0.557917 0
M  V30 3081 O 302.822 -2.55845 -0.908617 0
M  V30 3082 C 301.278 -3.22848 1.59051 0
M  V30 3083 C 300.886 -3.23257 3.10176 0
M  V30 3084 C 302.63 -3.99379 1.43864 0
M  V30 3085 C 300.537 -4.61063 3.70372 0
M  V30 3086 H 299.467 -0.673349 0.33929 0
M  V30 3087 H 302.118 -1.21003 1.37951 0
M  V30 3088 H 300.5 -3.8168 1.0553 0
M  V30 3089 H 301.674 -2.74095 3.70417 0
M  V30 3090 H 299.989 -2.60222 3.25074 0
M  V30 3091 H 302.586 -5.0122 1.86232 0
M  V30 3092 H 302.929 -4.14511 0.385564 0
M  V30 3093 H 303.462 -3.47032 1.94457 0
M  V30 3094 H 300.201 -4.51135 4.7556 0
M  V30 3095 H 299.721 -5.1048 3.14913 0
M  V30 3096 H 301.4 -5.30034 3.71043 0
M  V30 3097 N 301.532 -0.945985 -1.26051 0
M  V30 3098 C 302.76 -0.613025 -1.9761 0
M  V30 3099 C 303.175 0.813035 -1.70397 0
M  V30 3100 O 302.532 1.54274 -0.974979 0
M  V30 3101 C 302.583 -0.85159 -3.51326 0
M  V30 3102 O 302.304 -2.22157 -3.77595 0
M  V30 3103 C 303.805 -0.529831 -4.40122 0
M  V30 3104 H 301.025 -0.230593 -0.630133 0
M  V30 3105 H 303.569 -1.268 -1.60443 0
M  V30 3106 H 301.724 -0.243151 -3.86636 0
M  V30 3107 H 302.138 -2.2852 -4.721 0
M  V30 3108 H 303.612 -0.747348 -5.46917 0
M  V30 3109 H 304.089 0.535341 -4.35925 0
M  V30 3110 H 304.695 -1.11721 -4.10364 0
M  V30 3111 N 303.011 1.40521 -0.713556 0
M  V30 3112 C 303.974 2.29098 -0.0684347 0
M  V30 3113 C 304.974 1.45268 0.689472 0
M  V30 3114 O 306.164 1.66205 0.521677 0
M  V30 3115 C 303.296 3.28446 0.913024 0
M  V30 3116 H 304.489 2.87645 -0.84855 0
M  V30 3117 H 302.042 1.48809 -0.47809 0
M  V30 3118 H 302.777 2.74913 1.72027 0
M  V30 3119 H 302.562 3.90327 0.372472 0
M  V30 3120 H 304.052 3.94777 1.36165 0
M  V30 3121 N 304.489 0.459591 1.5075 0
M  V30 3122 C 305.738 -0.100971 2.01447 0
M  V30 3123 C 306.051 -1.41816 1.34713 0
M  V30 3124 O 307.257 -2.06299 1.76502 0
M  V30 3125 C 305.713 -0.23047 3.59161 0
M  V30 3126 C 305.321 1.0776 4.34847 0
M  V30 3127 C 307.065 -0.743608 4.17936 0
M  V30 3128 C 304.972 0.91253 5.84317 0
M  V30 3129 H 303.902 -0.0415102 0.752856 0
M  V30 3130 H 306.553 0.592742 1.73663 0
M  V30 3131 H 304.935 -0.987703 3.83485 0
M  V30 3132 H 306.109 1.8449 4.22256 0
M  V30 3133 H 304.424 1.52097 3.87628 0
M  V30 3134 H 307.021 -0.883959 5.27343 0
M  V30 3135 H 307.364 -1.73196 3.78562 0
M  V30 3136 H 307.897 -0.04408 3.97776 0
M  V30 3137 H 304.636 1.87391 6.28144 0
M  V30 3138 H 304.156 0.185422 5.99513 0
M  V30 3139 H 305.835 0.574547 6.44444 0
M  V30 3140 N 305.967 -1.56429 0.191757 0
M  V30 3141 C 306.914 -2.18936 -0.730454 0
M  V30 3142 C 307.884 -1.13557 -1.21219 0
M  V30 3143 O 309.069 -1.41794 -1.27668 0
M  V30 3144 C 306.209 -2.85013 -1.9458 0
M  V30 3145 C 305.322 -4.04909 -1.50574 0
M  V30 3146 C 304.457 -4.58853 -2.67634 0
M  V30 3147 C 303.496 -5.71114 -2.20217 0
M  V30 3148 N 302.633 -6.19478 -3.30442 0
M  V30 3149 H 307.473 -2.97389 -0.190664 0
M  V30 3150 H 305.01 -1.46869 -0.0823694 0
M  V30 3151 H 306.968 -3.21492 -2.65893 0
M  V30 3152 H 305.598 -2.09129 -2.45896 0
M  V30 3153 H 304.65 -3.74115 -0.688605 0
M  V30 3154 H 305.962 -4.86113 -1.11784 0
M  V30 3155 H 305.116 -4.97619 -3.47074 0
M  V30 3156 H 303.855 -3.76749 -3.09696 0
M  V30 3157 H 302.86 -5.31879 -1.3923 0
M  V30 3158 H 304.085 -6.55033 -1.79189 0
M  V30 3159 H 302.031 -5.40297 -3.72041 0
M  V30 3160 H 301.948 -6.95725 -2.9581 0
M  V30 3161 H 303.216 -6.62898 -4.10106 0
M  V30 3162 N 307.445 0.0818655 -1.57387 0
M  V30 3163 C 308.408 1.08265 -2.02018 0
M  V30 3164 C 309.408 1.32183 -0.915664 0
M  V30 3165 O 310.598 1.28073 -1.18081 0
M  V30 3166 C 307.73 2.42871 -2.39221 0
M  V30 3167 H 308.923 0.698204 -2.91659 0
M  V30 3168 H 306.476 0.327303 -1.52835 0
M  V30 3169 H 307.211 2.86167 -1.52575 0
M  V30 3170 H 306.996 2.26855 -3.19811 0
M  V30 3171 H 308.486 3.14826 -2.74362 0
M  V30 3172 N 308.923 1.53595 0.353017 0
M  V30 3173 C 309.855 1.77219 1.45348 0
M  V30 3174 C 310.868 0.65324 1.49119 0
M  V30 3175 O 312.057 0.929775 1.52373 0
M  V30 3176 C 309.157 1.84841 2.84055 0
M  V30 3177 C 308.33 3.14649 3.03833 0
M  V30 3178 C 307.389 3.13351 4.22727 0
M  V30 3179 O 306.415 3.87107 4.17297 0
M  V30 3180 N 307.617 2.35052 5.30783 0
M  V30 3181 H 310.382 2.72178 1.25457 0
M  V30 3182 H 307.943 1.52528 0.542833 0
M  V30 3183 H 309.935 1.81435 3.61751 0
M  V30 3184 H 308.505 0.971114 2.97133 0
M  V30 3185 H 307.725 3.31256 2.13689 0
M  V30 3186 H 309.013 4.00411 3.13925 0
M  V30 3187 H 308.411 1.74663 5.38061 0
M  V30 3188 H 306.968 2.37453 6.07009 0
M  V30 3189 N 310.401 -0.613514 1.45168 0
M  V30 3190 C 311.349 -1.74572 1.53712 0
M  V30 3191 C 312.343 -1.64426 0.407505 0
M  V30 3192 O 313.549 -1.70291 0.583176 0
M  V30 3193 H 309.924 -0.576641 0.48269 0
M  V30 3194 H 311.895 -1.64492 2.48968 0
M  V30 3195 C 310.644 -3.12943 1.51532 0
M  V30 3196 H 309.967 -3.21407 2.37776 0
M  V30 3197 H 311.407 -3.9201 1.61569 0
M  V30 3198 C 309.866 -3.36053 0.238798 0
M  V30 3199 O 310.396 -3.95837 -0.6838 0
M  V30 3200 N 308.602 -2.9028 0.136359 0
M  V30 3201 H 308.149 -2.41811 0.887999 0
M  V30 3202 H 308.107 -3.06116 -0.716944 0
M  V30 3203 N 311.879 -1.3236 -0.855495 0
M  V30 3204 C 312.842 -1.21164 -1.94556 0
M  V30 3205 C 313.842 -0.134908 -1.60233 0
M  V30 3206 O 315.032 -0.385249 -1.69887 0
M  V30 3207 C 312.164 -0.863192 -3.29791 0
M  V30 3208 H 313.357 -2.18038 -2.05911 0
M  V30 3209 H 310.91 -1.16179 -1.04557 0
M  V30 3210 H 311.645 0.103769 -3.24134 0
M  V30 3211 H 311.43 -1.64166 -3.56078 0
M  V30 3212 H 312.92 -0.809156 -4.09686 0
M  V30 3213 N 313.357 1.07166 -1.15556 0
M  V30 3214 C 314.289 2.14341 -0.811815 0
M  V30 3215 C 315.302 1.61835 0.177015 0
M  V30 3216 O 316.491 1.78439 -0.0464996 0
M  V30 3217 C 313.591 3.38387 -0.186481 0
M  V30 3218 C 312.764 4.20238 -1.21321 0
M  V30 3219 C 311.823 5.2266 -0.609302 0
M  V30 3220 O 310.849 5.54719 -1.27576 0
M  V30 3221 N 312.051 5.77306 0.608099 0
M  V30 3222 H 314.816 2.44431 -1.73417 0
M  V30 3223 H 312.377 1.23089 -1.0517 0
M  V30 3224 H 314.369 4.04044 0.230339 0
M  V30 3225 H 312.939 3.05994 0.639249 0
M  V30 3226 H 312.159 3.50369 -1.80652 0
M  V30 3227 H 313.447 4.71736 -1.90638 0
M  V30 3228 H 312.845 5.53513 1.1679 0
M  V30 3229 H 311.402 6.44583 0.96725 0
M  V30 3230 N 314.835 0.952656 1.25548 0
M  V30 3231 C 316.081 0.607272 1.93494 0
M  V30 3232 C 316.414 -0.853245 1.74452 0
M  V30 3233 O 315.689 -1.61194 1.08843 0
M  V30 3234 C 315.972 0.96435 3.46947 0
M  V30 3235 C 315.825 2.48045 3.75225 0
M  V30 3236 C 317.144 0.487987 4.37386 0
M  V30 3237 H 314.263 0.222096 0.702739 0
M  V30 3238 H 316.905 1.18895 1.48203 0
M  V30 3239 H 315.055 0.469361 3.85654 0
M  V30 3240 H 316.727 3.04905 3.46166 0
M  V30 3241 H 314.97 2.919 3.209 0
M  V30 3242 H 315.641 2.6808 4.82532 0
M  V30 3243 H 318.117 0.912558 4.0597 0
M  V30 3244 H 316.993 0.766547 5.43521 0
M  V30 3245 H 317.254 -0.612063 4.37843 0
M  V30 3246 N 316.313 -1.40141 0.720998 0
M  V30 3247 C 317.276 -2.29058 0.0805834 0
M  V30 3248 C 318.276 -1.45632 -0.681758 0
M  V30 3249 O 319.466 -1.6648 -0.512856 0
M  V30 3250 C 316.598 -3.28925 -0.895593 0
M  V30 3251 H 317.791 -2.87191 0.863793 0
M  V30 3252 H 315.344 -1.48553 0.485975 0
M  V30 3253 H 316.079 -2.75822 -1.70566 0
M  V30 3254 H 315.864 -3.90519 -0.351766 0
M  V30 3255 H 317.354 -3.95494 -1.34069 0
M  V30 3256 N 317.792 -0.46758 -1.50504 0
M  V30 3257 C 318.755 0.317059 -2.26996 0
M  V30 3258 C 319.755 0.923513 -1.31635 0
M  V30 3259 O 320.945 0.793239 -1.55091 0
M  V30 3260 C 318.077 1.45134 -3.08462 0
M  V30 3261 H 319.27 -0.353723 -2.97807 0
M  V30 3262 H 316.823 -0.221545 -1.54722 0
M  V30 3263 H 317.558 2.15728 -2.4214 0
M  V30 3264 H 317.343 1.02232 -3.78538 0
M  V30 3265 H 318.833 2.00493 -3.66323 0
M  V30 3266 N 319.27 1.56325 -0.20005 0
M  V30 3267 C 320.518 1.97329 0.436547 0
M  V30 3268 C 320.839 1.08826 1.61808 0
M  V30 3269 O 320.109 0.160604 1.95241 0
M  V30 3270 H 318.689 0.728714 0.164272 0
M  V30 3271 H 321.351 1.92761 -0.287937 0
M  V30 3272 H 320.447 3.02264 0.777353 0
M  V30 3273 N 320.748 -0.0735177 1.57428 0
M  V30 3274 C 321.68 -1.11423 2.00294 0
M  V30 3275 C 322.693 -1.35084 0.908637 0
M  V30 3276 O 323.882 -1.33355 1.18654 0
M  V30 3277 C 320.982 -2.46548 2.32523 0
M  V30 3278 C 320.155 -2.42867 3.63778 0
M  V30 3279 C 319.214 -3.60087 3.83697 0
M  V30 3280 O 318.24 -3.41595 4.55304 0
M  V30 3281 N 319.442 -4.80372 3.25919 0
M  V30 3282 H 322.207 -0.749206 2.90184 0
M  V30 3283 H 319.768 -0.262195 1.59763 0
M  V30 3284 H 321.76 -3.23607 2.43024 0
M  V30 3285 H 320.33 -2.75059 1.48531 0
M  V30 3286 H 319.55 -1.51206 3.64047 0
M  V30 3287 H 320.838 -2.37506 4.49965 0
M  V30 3288 H 320.236 -4.983 2.67795 0
M  V30 3289 H 318.793 -5.54948 3.41871 0
M  V30 3290 N 322.226 -1.5378 -0.344866 0
M  V30 3291 C 323.156 -1.84662 -1.42906 0
M  V30 3292 C 324.137 -0.701648 -1.54955 0
M  V30 3293 O 325.322 -0.953438 -1.69184 0
M  V30 3294 C 322.452 -2.05503 -2.79974 0
M  V30 3295 C 321.406 -3.21318 -2.82734 0
M  V30 3296 C 320.732 -3.2749 -4.22675 0
M  V30 3297 C 322.032 -4.59456 -2.48389 0
M  V30 3298 H 323.726 -2.75461 -1.17311 0
M  V30 3299 H 321.272 -1.32542 -0.562896 0
M  V30 3300 H 323.225 -2.25691 -3.55867 0
M  V30 3301 H 321.949 -1.11434 -3.07002 0
M  V30 3302 H 320.608 -3.00984 -2.09294 0
M  V30 3303 H 320.256 -2.31019 -4.4681 0
M  V30 3304 H 319.956 -4.05316 -4.25433 0
M  V30 3305 H 321.48 -3.49887 -5.00412 0
M  V30 3306 H 322.894 -4.79667 -3.13995 0
M  V30 3307 H 321.291 -5.39675 -2.62432 0
M  V30 3308 H 322.361 -4.63155 -1.4358 0
M  V30 3309 N 323.704 0.605807 -1.45491 0
M  V30 3310 C 324.952 1.36207 -1.49305 0
M  V30 3311 C 325.273 1.94519 -0.136863 0
M  V30 3312 O 324.543 1.77261 0.833983 0
M  V30 3313 H 323.123 0.50565 -0.549843 0
M  V30 3314 H 325.785 0.711239 -1.81459 0
M  V30 3315 H 324.881 2.18058 -2.23287 0
M  V30 3316 N 325.182 1.32811 0.848464 0
M  V30 3317 C 326.43 1.23479 1.59991 0
M  V30 3318 C 326.751 -0.201853 1.93952 0
M  V30 3319 O 326.021 -1.12818 1.60153 0
M  V30 3320 H 324.601 0.454034 0.593179 0
M  V30 3321 H 327.263 1.66412 1.01455 0
M  V30 3322 H 326.359 1.82178 2.53412 0
M  V30 3323 N 326.66 -1.06551 1.16123 0
M  V30 3324 C 327.888 -1.83005 0.965237 0
M  V30 3325 C 328.303 -1.82423 -0.486542 0
M  V30 3326 O 327.66 -1.24152 -1.33763 0
M  V30 3327 C 327.711 -3.29733 1.48183 0
M  V30 3328 O 327.432 -3.30416 2.87674 0
M  V30 3329 C 328.933 -4.22926 1.32848 0
M  V30 3330 H 326.153 -0.577118 0.342309 0
M  V30 3331 H 328.697 -1.3445 1.54089 0
M  V30 3332 H 326.852 -3.75609 0.948517 0
M  V30 3333 H 327.266 -4.22149 3.11272 0
M  V30 3334 H 328.74 -5.23916 1.73827 0
M  V30 3335 H 329.217 -4.38346 0.273692 0
M  V30 3336 H 329.823 -3.82894 1.85127 0
M  V30 3337 N 328.138 -0.959301 -1.25041 0
M  V30 3338 C 329.549 -0.65667 -1.74771 0
M  V30 3339 C 329.9 0.827852 -1.77879 0
M  V30 3340 O 329.025 1.64783 -1.40269 0
M  V30 3341 C 329.62 -1.1853 -3.1739 0
M  V30 3342 C 328.179 -0.932734 -3.6466 0
M  V30 3343 C 327.326 -1.32558 -2.43564 0
M  V30 3344 H 330.277 -1.13558 -1.10862 0
M  V30 3345 H 330.298 -0.547582 -3.76539 0
M  V30 3346 H 329.81 -2.26576 -3.15095 0
M  V30 3347 H 327.911 0.13257 -3.72364 0
M  V30 3348 H 328.024 -1.57248 -4.52559 0
M  V30 3349 H 326.388 -0.743956 -2.43593 0
M  V30 3350 H 327.171 -2.41537 -2.43957 0
M  V30 3351 N 329.616 1.39756 -0.72842 0
M  V30 3352 C 331.027 1.83498 -0.344289 0
M  V30 3353 C 331.378 1.60868 1.12321 0
M  V30 3354 O 330.503 1.09634 1.86573 0
M  V30 3355 C 331.098 3.33114 -0.618112 0
M  V30 3356 C 329.657 3.753 -0.287549 0
M  V30 3357 C 328.804 2.62831 -0.884048 0
M  V30 3358 H 331.755 1.28842 -0.926578 0
M  V30 3359 H 331.776 3.80334 0.112349 0
M  V30 3360 H 331.288 3.49553 -1.68625 0
M  V30 3361 H 329.389 3.64451 0.775012 0
M  V30 3362 H 329.502 4.72945 -0.765512 0
M  V30 3363 H 327.866 2.52792 -0.311149 0
M  V30 3364 H 328.649 2.82078 -1.95671 0
M  V30 3365 N 331.094 0.475555 1.50254 0
M  V30 3366 C 332.34 -0.0780073 2.0265 0
M  V30 3367 C 332.673 -1.38968 1.35652 0
M  V30 3368 O 331.948 -1.8839 0.483691 0
M  V30 3369 C 332.231 -0.257161 3.59181 0
M  V30 3370 C 332.084 1.07585 4.36744 0
M  V30 3371 C 333.403 -1.00965 4.28362 0
M  V30 3372 H 330.522 -0.0268758 0.73651 0
M  V30 3373 H 333.164 0.622015 1.7953 0
M  V30 3374 H 331.314 -0.853412 3.79011 0
M  V30 3375 H 332.986 1.70902 4.28474 0
M  V30 3376 H 331.229 1.6714 4.00308 0
M  V30 3377 H 331.9 0.904088 5.44546 0
M  V30 3378 H 334.376 -0.504214 4.13034 0
M  V30 3379 H 333.252 -1.10381 5.37687 0
M  V30 3380 H 333.513 -2.04731 3.91839 0
M  V30 3381 N 332.573 -1.56217 0.208337 0
M  V30 3382 C 333.52 -2.19699 -0.707192 0
M  V30 3383 C 334.49 -1.14836 -1.20008 0
M  V30 3384 O 335.675 -1.4314 -1.26157 0
M  V30 3385 C 332.815 -2.87061 -1.91546 0
M  V30 3386 C 331.928 -4.06483 -1.46271 0
M  V30 3387 C 331.063 -4.61665 -2.62752 0
M  V30 3388 C 330.102 -5.73417 -2.14147 0
M  V30 3389 N 329.239 -6.22948 -3.23853 0
M  V30 3390 H 334.079 -2.97575 -0.159111 0
M  V30 3391 H 331.616 -1.46948 -0.0667874 0
M  V30 3392 H 333.574 -3.24294 -2.62468 0
M  V30 3393 H 332.204 -2.11725 -2.43664 0
M  V30 3394 H 331.256 -3.74825 -0.648886 0
M  V30 3395 H 332.568 -4.87271 -1.06622 0
M  V30 3396 H 331.722 -5.01272 -3.41776 0
M  V30 3397 H 330.461 -3.80013 -3.05682 0
M  V30 3398 H 329.466 -5.33326 -1.33581 0
M  V30 3399 H 330.691 -6.56897 -1.72232 0
M  V30 3400 H 328.637 -5.44213 -3.6629 0
M  V30 3401 H 328.554 -6.98823 -2.88414 0
M  V30 3402 H 329.822 -6.6721 -4.03052 0
M  V30 3403 N 334.051 0.0651679 -1.57465 0
M  V30 3404 C 335.299 0.761555 -1.87202 0
M  V30 3405 C 335.62 1.77778 -0.801243 0
M  V30 3406 O 334.89 1.95166 0.16937 0
M  V30 3407 H 333.47 0.284251 -0.690804 0
M  V30 3408 H 336.132 0.0396827 -1.9486 0
M  V30 3409 H 335.228 1.27365 -2.84929 0
M  V30 3410 N 335.529 1.53961 0.336706 0
M  V30 3411 C 336.461 1.78751 1.4346 0
M  V30 3412 C 337.474 0.669019 1.48418 0
M  V30 3413 O 338.663 0.945884 1.51378 0
M  V30 3414 C 335.763 1.87844 2.82078 0
M  V30 3415 C 334.936 3.17854 3.00479 0
M  V30 3416 C 333.995 3.17816 4.19379 0
M  V30 3417 O 333.021 3.91511 4.13168 0
M  V30 3418 N 334.223 2.40669 5.2826 0
M  V30 3419 H 336.988 2.73493 1.22563 0
M  V30 3420 H 334.549 1.53096 0.526625 0
M  V30 3421 H 336.541 1.85261 3.59806 0
M  V30 3422 H 335.111 1.00257 2.96086 0
M  V30 3423 H 334.331 3.33504 2.10163 0
M  V30 3424 H 335.619 4.03718 3.0966 0
M  V30 3425 H 335.017 1.8036 5.36178 0
M  V30 3426 H 333.574 2.43877 6.04456 0
M  V30 3427 N 337.007 -0.598083 1.45811 0
M  V30 3428 C 337.939 -1.72231 1.51225 0
M  V30 3429 C 338.952 -1.57757 0.402059 0
M  V30 3430 O 340.141 -1.65464 0.669624 0
M  V30 3431 C 337.241 -3.10331 1.3619 0
M  V30 3432 C 336.414 -3.50955 2.61054 0
M  V30 3433 C 335.473 -4.68055 2.40439 0
M  V30 3434 O 334.499 -4.74691 3.14097 0
M  V30 3435 N 335.701 -5.61941 1.45612 0
M  V30 3436 H 338.466 -1.68046 2.48154 0
M  V30 3437 H 336.027 -0.783637 1.41671 0
M  V30 3438 H 338.019 -3.86439 1.20195 0
M  V30 3439 H 336.589 -3.0897 0.475015 0
M  V30 3440 H 335.809 -2.64711 2.92099 0
M  V30 3441 H 337.097 -3.74858 3.44034 0
M  V30 3442 H 336.495 -5.59301 0.848431 0
M  V30 3443 H 335.052 -6.37542 1.35585 0
M  V30 3444 N 338.485 -1.33259 -0.841409 0
M  V30 3445 C 339.415 -1.25926 -1.96634 0
M  V30 3446 C 340.396 -0.140349 -1.6952 0
M  V30 3447 O 341.581 -0.329707 -1.91381 0
M  V30 3448 C 338.711 -0.99512 -3.32738 0
M  V30 3449 C 337.665 -2.0767 -3.74242 0
M  V30 3450 C 336.991 -1.66474 -5.08125 0
M  V30 3451 C 338.291 -3.49318 -3.88297 0
M  V30 3452 H 339.985 -2.20046 -2.03027 0
M  V30 3453 H 337.531 -1.05931 -0.975425 0
M  V30 3454 H 339.484 -0.930323 -4.11002 0
M  V30 3455 H 338.208 -0.0183004 -3.26595 0
M  V30 3456 H 336.867 -2.13187 -2.98239 0
M  V30 3457 H 336.515 -0.675012 -4.9845 0
M  V30 3458 H 336.215 -2.3885 -5.36865 0
M  V30 3459 H 337.739 -1.61455 -5.88867 0
M  V30 3460 H 339.153 -3.46316 -4.56879 0
M  V30 3461 H 337.55 -4.20158 -4.28471 0
M  V30 3462 H 338.62 -3.8801 -2.9082 0
M  V30 3463 N 339.963 1.05934 -1.16686 0
M  V30 3464 C 340.911 2.15603 -0.872817 0
M  V30 3465 C 341.905 1.68647 0.159576 0
M  V30 3466 O 343.111 1.79995 0.0132125 0
M  V30 3467 H 339.486 0.703885 -0.264671 0
M  V30 3468 H 341.457 2.37613 -1.80507 0
M  V30 3469 C 340.206 3.45457 -0.394344 0
M  V30 3470 H 339.529 3.81984 -1.18019 0
M  V30 3471 H 340.969 4.2339 -0.227408 0
M  V30 3472 C 339.428 3.25021 0.88673 0
M  V30 3473 O 339.958 3.50906 1.95519 0
M  V30 3474 N 338.164 2.78437 0.831925 0
M  V30 3475 H 337.711 2.57572 -0.0377619 0
M  V30 3476 H 337.669 2.65144 1.68956 0
M  V30 3477 N 341.441 0.965919 1.2453 0
M  V30 3478 C 342.404 0.499547 2.2369 0
M  V30 3479 C 343.404 -0.40294 1.5567 0
M  V30 3480 O 344.594 -0.19865 1.73064 0
M  V30 3481 C 341.726 -0.276792 3.39774 0
M  V30 3482 H 342.919 1.37613 2.66463 0
M  V30 3483 H 340.472 0.750324 1.37112 0
M  V30 3484 H 341.207 -1.17055 3.02438 0
M  V30 3485 H 340.992 0.370826 3.90343 0
M  V30 3486 H 342.482 -0.592175 4.1338 0
M  V30 3487 N 342.919 -1.39368 0.735821 0
M  V30 3488 C 344.144 -2.05319 0.293052 0
M  V30 3489 C 344.569 -1.55115 -1.064 0
M  V30 3490 O 343.927 -0.695261 -1.67439 0
M  V30 3491 C 343.975 -3.59305 0.305323 0
M  V30 3492 O 343.079 -4.06299 -0.706761 0
M  V30 3493 H 342.42 -0.650529 0.13307 0
M  V30 3494 H 344.95 -1.78386 1.00197 0
M  V30 3495 H 344.96 -4.07724 0.149997 0
M  V30 3496 H 343.635 -3.95207 1.29553 0
M  V30 3497 H 342.212 -3.69292 -0.517504 0
M  V30 3498 N 344.397 -0.483516 -1.5 0
M  V30 3499 C 345.646 0.0689102 -2.01582 0
M  V30 3500 C 345.959 1.39655 -1.36952 0
M  V30 3501 O 347.165 2.03465 -1.79762 0
M  V30 3502 C 345.621 0.173302 -3.59483 0
M  V30 3503 C 345.229 -1.14665 -4.33077 0
M  V30 3504 C 346.973 0.677024 -4.19066 0
M  V30 3505 C 344.88 -1.00537 -5.82792 0
M  V30 3506 H 343.81 0.0295277 -0.753422 0
M  V30 3507 H 346.461 -0.620295 -1.72698 0
M  V30 3508 H 344.843 0.926569 -3.85007 0
M  V30 3509 H 346.017 -1.91184 -4.19268 0
M  V30 3510 H 344.332 -1.58244 -3.85159 0
M  V30 3511 H 346.929 0.799952 -5.28682 0
M  V30 3512 H 347.272 1.67151 -3.81269 0
M  V30 3513 H 347.805 -0.0192083 -3.97795 0
M  V30 3514 H 344.544 -1.9736 -6.25083 0
M  V30 3515 H 344.064 -0.280776 -5.99142 0
M  V30 3516 H 345.743 -0.677 -6.43448 0
M  V30 3517 N 345.875 1.56104 -0.216619 0
M  V30 3518 C 347.124 1.97348 0.416744 0
M  V30 3519 C 347.437 1.10715 1.6125 0
M  V30 3520 O 348.643 1.41836 2.31506 0
M  V30 3521 C 347.099 3.51059 0.792835 0
M  V30 3522 C 346.707 4.46387 -0.379828 0
M  V30 3523 C 348.451 4.01026 1.39208 0
M  V30 3524 C 346.358 5.91397 0.0184223 0
M  V30 3525 H 345.288 0.736942 0.159475 0
M  V30 3526 H 347.939 1.80827 -0.31205 0
M  V30 3527 H 346.321 3.63162 1.57891 0
M  V30 3528 H 347.495 4.46029 -1.15737 0
M  V30 3529 H 345.81 4.06734 -0.891979 0
M  V30 3530 H 348.407 5.0686 1.70286 0
M  V30 3531 H 348.75 3.46587 2.30614 0
M  V30 3532 H 349.283 3.92125 0.669537 0
M  V30 3533 H 346.022 6.49807 -0.862002 0
M  V30 3534 H 345.542 5.94961 0.760384 0
M  V30 3535 H 347.221 6.45455 0.446818 0
M  V30 3536 N 347.353 -0.0568162 1.57498 0
M  V30 3537 C 348.316 -1.05038 2.03715 0
M  V30 3538 C 349.316 -1.30709 0.936577 0
M  V30 3539 O 350.506 -1.26178 1.20103 0
M  V30 3540 C 347.638 -2.39034 2.43055 0
M  V30 3541 H 348.831 -0.651715 2.92733 0
M  V30 3542 H 346.384 -0.302947 1.53336 0
M  V30 3543 H 347.119 -2.83703 1.57108 0
M  V30 3544 H 346.904 -2.21739 3.2338 0
M  V30 3545 H 348.394 -3.10421 2.79336 0
M  V30 3546 N 348.832 -1.54138 -0.328536 0
M  V30 3547 C 349.764 -1.79509 -1.4251 0
M  V30 3548 C 350.777 -0.67688 -1.48061 0
M  V30 3549 O 351.966 -0.953898 -1.50874 0
M  V30 3550 C 349.066 -1.89337 -2.81078 0
M  V30 3551 C 348.239 -3.19443 -2.98789 0
M  V30 3552 C 347.298 -3.20036 -4.17688 0
M  V30 3553 O 346.324 -3.93697 -4.11086 0
M  V30 3554 N 347.526 -2.43467 -5.26976 0
M  V30 3555 H 350.291 -2.74139 -1.21111 0
M  V30 3556 H 347.852 -1.53373 -0.518499 0
M  V30 3557 H 349.844 -1.87167 -3.58818 0
M  V30 3558 H 348.414 -1.01826 -2.95551 0
M  V30 3559 H 347.634 -3.34614 -2.08391 0
M  V30 3560 H 348.922 -4.05354 -3.07515 0
M  V30 3561 H 348.32 -1.83201 -5.35214 0
M  V30 3562 H 346.877 -2.4708 -6.03154 0
M  V30 3563 N 350.31 0.590341 -1.46126 0
M  V30 3564 C 351.538 1.37504 -1.54597 0
M  V30 3565 C 351.953 1.87897 -0.184447 0
M  V30 3566 O 351.31 1.63192 0.816984 0
M  V30 3567 C 351.361 2.56779 -2.54454 0
M  V30 3568 O 351.082 2.08476 -3.85317 0
M  V30 3569 C 352.583 3.49427 -2.72792 0
M  V30 3570 H 349.803 0.420325 -0.523037 0
M  V30 3571 H 352.347 0.718383 -1.91467 0
M  V30 3572 H 350.502 3.1845 -2.20609 0
M  V30 3573 H 350.916 2.86097 -4.396 0
M  V30 3574 H 352.39 4.29619 -3.466 0
M  V30 3575 H 352.867 4.00876 -1.79429 0
M  V30 3576 H 353.473 2.93598 -3.07702 0
M  V30 3577 N 351.788 1.33704 0.83433 0
M  V30 3578 C 353.204 1.13137 1.12571 0
M  V30 3579 C 353.404 -0.0747261 2.01361 0
M  V30 3580 O 352.46 -0.753647 2.4099 0
M  V30 3581 C 353.773 2.42105 1.78342 0
M  V30 3582 C 355.321 2.48054 1.90888 0
M  V30 3583 C 355.796 3.76995 2.60075 0
M  V30 3584 N 357.287 3.78092 2.67584 0
M  V30 3585 C 358.022 4.74574 3.21818 0
M  V30 3586 N 357.518 5.81434 3.76705 0
M  V30 3587 N 359.311 4.62044 3.20112 0
M  V30 3588 H 351.462 2.11 0.243489 0
M  V30 3589 H 353.725 0.932532 0.17055 0
M  V30 3590 H 353.431 3.30391 1.20561 0
M  V30 3591 H 353.305 2.54594 2.7832 0
M  V30 3592 H 355.692 1.60215 2.47821 0
M  V30 3593 H 355.773 2.39502 0.898459 0
M  V30 3594 H 355.417 4.65219 2.03799 0
M  V30 3595 H 355.347 3.82825 3.61597 0
M  V30 3596 H 357.838 3.00865 2.28667 0
M  V30 3597 H 358.151 6.51084 4.16305 0
M  V30 3598 H 356.496 5.85163 3.7498 0
M  V30 3599 H 359.687 3.77716 2.76493 0
M  V30 3600 H 359.86 5.37406 3.62076 0
M  V30 3601 N 353.266 -1.05314 1.17247 0
M  V30 3602 C 354.196 -2.1498 0.911362 0
M  V30 3603 C 355.177 -1.69471 -0.146169 0
M  V30 3604 O 356.362 -1.942 0.003812 0
M  V30 3605 C 353.492 -3.4472 0.422528 0
M  V30 3606 C 352.446 -4.03789 1.4191 0
M  V30 3607 C 351.772 -5.28858 0.788274 0
M  V30 3608 C 353.072 -4.41418 2.7919 0
M  V30 3609 H 354.766 -2.3708 1.82848 0
M  V30 3610 H 352.312 -1.13938 0.880569 0
M  V30 3611 H 354.265 -4.20787 0.227289 0
M  V30 3612 H 352.989 -3.22269 -0.530123 0
M  V30 3613 H 351.648 -3.2979 1.60106 0
M  V30 3614 H 351.296 -5.02709 -0.171173 0
M  V30 3615 H 350.996 -5.69338 1.45353 0
M  V30 3616 H 352.52 -6.07612 0.603282 0
M  V30 3617 H 353.934 -5.08524 2.64719 0
M  V30 3618 H 352.331 -4.92913 3.42282 0
M  V30 3619 H 353.401 -3.51819 3.33693 0
M  V30 3620 N 354.744 -0.972509 -1.24016 0
M  V30 3621 C 355.972 -0.654803 -1.96265 0
M  V30 3622 C 356.387 0.776708 -1.72083 0
M  V30 3623 O 355.744 1.52171 -1.00748 0
M  V30 3624 C 355.795 -0.92592 -3.49441 0
M  V30 3625 O 355.516 -2.30116 -3.72798 0
M  V30 3626 C 357.017 -0.623068 -4.38899 0
M  V30 3627 H 354.237 -0.243907 -0.6251 0
M  V30 3628 H 356.781 -1.30175 -1.57717 0
M  V30 3629 H 354.936 -0.325108 -3.86033 0
M  V30 3630 H 355.35 -2.38483 -4.67147 0
M  V30 3631 H 356.824 -0.863189 -5.45209 0
M  V30 3632 H 357.301 0.442754 -4.36963 0
M  V30 3633 H 357.907 -1.204 -4.07902 0
M  V30 3634 N 356.222 1.38976 -0.743202 0
M  V30 3635 C 357.447 2.05161 -0.303936 0
M  V30 3636 C 357.872 1.55677 1.05576 0
M  V30 3637 O 357.23 0.704131 1.67068 0
M  V30 3638 C 357.278 3.59138 -0.324373 0
M  V30 3639 O 356.382 4.06668 0.685204 0
M  V30 3640 H 355.723 0.649815 -0.136518 0
M  V30 3641 H 358.253 1.77852 -1.01142 0
M  V30 3642 H 358.263 4.07639 -0.171618 0
M  V30 3643 H 356.938 3.94515 -1.31647 0
M  V30 3644 H 355.515 3.69561 0.497913 0
M  V30 3645 N 357.7 0.491464 1.49741 0
M  V30 3646 C 358.928 -0.0535151 2.06831 0
M  V30 3647 C 359.343 -1.31683 1.35296 0
M  V30 3648 O 358.7 -1.77402 0.42836 0
M  V30 3649 C 358.751 -0.320835 3.60073 0
M  V30 3650 O 358.472 0.892394 4.28915 0
M  V30 3651 C 359.973 -0.910519 4.33848 0
M  V30 3652 H 357.193 0.0161909 0.670805 0
M  V30 3653 H 359.737 0.68609 1.92647 0
M  V30 3654 H 357.892 -1.0104 3.73991 0
M  V30 3655 H 358.306 0.649401 5.20464 0
M  V30 3656 H 359.78 -1.04721 5.41976 0
M  V30 3657 H 360.257 -1.90589 3.95692 0
M  V30 3658 H 360.863 -0.258712 4.24512 0
M  V30 3659 N 359.178 -1.55987 0.224894 0
M  V30 3660 C 360.088 -2.24066 -0.69511 0
M  V30 3661 C 361.104 -1.24939 -1.21104 0
M  V30 3662 O 362.28 -1.5776 -1.25195 0
M  V30 3663 C 359.345 -2.90983 -1.88493 0
M  V30 3664 C 358.406 -4.05462 -1.41064 0
M  V30 3665 C 357.639 -4.69179 -2.54375 0
M  V30 3666 O 357.862 -4.31895 -3.72589 0
M  V30 3667 O 356.796 -5.58108 -2.25386 0
M  V30 3668 H 360.622 -3.03353 -0.145149 0
M  V30 3669 H 358.207 -1.49399 -0.00569476 0
M  V30 3670 H 360.089 -3.33209 -2.57972 0
M  V30 3671 H 358.764 -2.14653 -2.42293 0
M  V30 3672 H 357.671 -3.67798 -0.683774 0
M  V30 3673 H 359.004 -4.83545 -0.918985 0
M  V30 3674 N 360.656 0.0484629 -1.57525 0
M  V30 3675 C 361.566 1.07241 -2.08654 0
M  V30 3676 C 362.582 1.409 -1.02095 0
M  V30 3677 O 363.758 1.50609 -1.33712 0
M  V30 3678 C 360.823 2.36008 -2.5397 0
M  V30 3679 C 359.884 2.09108 -3.7493 0
M  V30 3680 C 359.117 3.31736 -4.18075 0
M  V30 3681 O 359.34 4.41714 -3.60895 0
M  V30 3682 O 358.274 3.18576 -5.10679 0
M  V30 3683 H 362.1 0.667965 -2.96263 0
M  V30 3684 H 359.685 0.26417 -1.47046 0
M  V30 3685 H 361.567 3.11747 -2.83535 0
M  V30 3686 H 360.242 2.75786 -1.69481 0
M  V30 3687 H 359.149 1.31 -3.50414 0
M  V30 3688 H 360.482 1.74198 -4.60343 0
M  V30 3689 N 362.134 1.5431 0.320358 0
M  V30 3690 C 363.381 1.72668 1.05792 0
M  V30 3691 C 363.709 0.502084 1.87908 0
M  V30 3692 O 362.964 -0.516149 1.88771 0
M  V30 3693 C 363.263 2.95639 2.00828 0
M  V30 3694 C 362.929 4.30265 1.34843 0
M  V30 3695 C 361.591 4.66865 1.16578 0
M  V30 3696 C 363.943 5.13801 0.875095 0
M  V30 3697 C 361.271 5.84597 0.496336 0
M  V30 3698 C 363.623 6.32219 0.219463 0
M  V30 3699 C 362.287 6.67495 0.0246915 0
M  V30 3700 H 361.557 0.631837 0.387121 0
M  V30 3701 H 364.204 1.88552 0.334735 0
M  V30 3702 H 362.509 2.74456 2.79609 0
M  V30 3703 H 364.206 3.07038 2.57932 0
M  V30 3704 H 360.796 4.01472 1.50061 0
M  V30 3705 H 364.98 4.86039 1.00398 0
M  V30 3706 H 360.236 6.10486 0.334264 0
M  V30 3707 H 364.41 6.96227 -0.155291 0
M  V30 3708 H 362.037 7.5858 -0.496065 0
M  V30 3709 N 363.613 -0.582584 1.46437 0
M  V30 3710 C 364.861 -1.33814 1.51453 0
M  V30 3711 C 365.182 -1.94277 0.167792 0
M  V30 3712 O 364.452 -1.78566 -0.805677 0
M  V30 3713 H 363.032 -0.496838 0.557818 0
M  V30 3714 H 365.694 -0.682281 1.82568 0
M  V30 3715 H 364.79 -2.14479 2.26728 0
M  V30 3716 N 365.091 -1.34144 -0.827227 0
M  V30 3717 C 366.038 -1.25364 -1.93785 0
M  V30 3718 C 367.008 -0.129774 -1.65592 0
M  V30 3719 O 368.193 -0.310024 -1.88264 0
M  V30 3720 C 365.333 -1.01064 -3.2997 0
M  V30 3721 C 364.446 -2.22185 -3.70484 0
M  V30 3722 C 363.581 -1.91203 -4.95595 0
M  V30 3723 C 362.62 -3.08491 -5.28677 0
M  V30 3724 N 361.757 -2.77421 -6.44967 0
M  V30 3725 H 366.597 -2.20347 -2.00627 0
M  V30 3726 H 364.134 -1.09558 -0.981608 0
M  V30 3727 H 366.092 -0.850139 -4.08446 0
M  V30 3728 H 364.722 -0.0975026 -3.22653 0
M  V30 3729 H 363.774 -2.4917 -2.87434 0
M  V30 3730 H 365.086 -3.0983 -3.90905 0
M  V30 3731 H 364.24 -1.71864 -5.81848 0
M  V30 3732 H 362.979 -1.00812 -4.77167 0
M  V30 3733 H 361.984 -3.28431 -4.40923 0
M  V30 3734 H 363.209 -3.99655 -5.49047 0
M  V30 3735 H 361.155 -1.89601 -6.28003 0
M  V30 3736 H 361.072 -3.58598 -6.6554 0
M  V30 3737 H 362.34 -2.61577 -7.34301 0
M  V30 3738 N 366.569 1.04691 -1.17803 0
M  V30 3739 C 367.818 1.77176 -0.963931 0
M  V30 3740 C 368.131 1.88888 0.508015 0
M  V30 3741 O 369.337 2.58164 0.840465 0
M  V30 3742 C 367.793 3.18518 -1.67555 0
M  V30 3743 C 367.401 3.14919 -3.18637 0
M  V30 3744 C 369.145 3.95424 -1.54402 0
M  V30 3745 C 367.052 4.51081 -3.82466 0
M  V30 3746 H 365.982 0.664116 -0.357023 0
M  V30 3747 H 368.633 1.17303 -1.4111 0
M  V30 3748 H 367.015 3.78748 -1.15613 0
M  V30 3749 H 368.189 2.64178 -3.77554 0
M  V30 3750 H 366.504 2.51512 -3.31859 0
M  V30 3751 H 369.101 4.96106 -1.99456 0
M  V30 3752 H 369.444 4.13343 -0.495329 0
M  V30 3753 H 369.977 3.41754 -2.0359 0
M  V30 3754 H 366.716 4.38368 -4.87354 0
M  V30 3755 H 366.236 5.01951 -3.28337 0
M  V30 3756 H 367.915 5.2001 -3.84965 0
M  V30 3757 N 368.047 0.979072 1.23499 0
M  V30 3758 C 368.977 0.537606 2.27227 0
M  V30 3759 C 369.958 -0.428539 1.64613 0
M  V30 3760 O 371.143 -0.322191 1.91509 0
M  V30 3761 C 368.273 -0.162052 3.46922 0
M  V30 3762 C 367.227 0.721242 4.21879 0
M  V30 3763 C 366.553 -0.110555 5.34586 0
M  V30 3764 C 367.853 2.01141 4.82016 0
M  V30 3765 H 369.547 1.40462 2.64406 0
M  V30 3766 H 367.093 0.67684 1.27102 0
M  V30 3767 H 369.046 -0.482192 4.18632 0
M  V30 3768 H 367.77 -1.06351 3.08799 0
M  V30 3769 H 366.429 1.02482 3.51984 0
M  V30 3770 H 366.077 -1.0125 4.92704 0
M  V30 3771 H 365.777 0.477325 5.85658 0
M  V30 3772 H 367.301 -0.425107 6.09118 0
M  V30 3773 H 368.715 1.75612 5.45741 0
M  V30 3774 H 367.112 2.54695 5.43369 0
M  V30 3775 H 368.182 2.69909 4.02836 0
M  V30 3776 N 369.525 -1.3858 0.750561 0
M  V30 3777 C 370.455 -2.33102 0.136237 0
M  V30 3778 C 371.436 -1.54713 -0.706965 0
M  V30 3779 O 372.621 -1.83043 -0.648769 0
M  V30 3780 C 369.751 -3.38882 -0.760017 0
M  V30 3781 C 368.705 -4.27995 -0.0197785 0
M  V30 3782 C 368.031 -5.24605 -1.03408 0
M  V30 3783 C 369.331 -5.09554 1.14684 0
M  V30 3784 H 371.025 -2.84726 0.925822 0
M  V30 3785 H 368.571 -1.36898 0.446654 0
M  V30 3786 H 370.524 -4.0397 -1.19943 0
M  V30 3787 H 369.248 -2.85734 -1.58189 0
M  V30 3788 H 367.907 -3.64409 0.400184 0
M  V30 3789 H 367.555 -4.67746 -1.84994 0
M  V30 3790 H 367.255 -5.85081 -0.543464 0
M  V30 3791 H 368.779 -5.9257 -1.47288 0
M  V30 3792 H 370.193 -5.67899 0.785118 0
M  V30 3793 H 368.59 -5.7925 1.56812 0
M  V30 3794 H 369.66 -4.4347 1.96118 0
M  V30 3795 N 371.003 -0.499398 -1.49478 0
M  V30 3796 C 371.95 0.279881 -2.29097 0
M  V30 3797 C 372.92 0.961805 -1.3542 0
M  V30 3798 O 374.105 0.968777 -1.64376 0
M  V30 3799 C 371.245 1.33932 -3.18051 0
M  V30 3800 C 370.358 0.669333 -4.26783 0
M  V30 3801 C 369.493 1.70907 -5.02955 0
M  V30 3802 C 368.532 1.02087 -6.03527 0
M  V30 3803 N 367.669 2.00474 -6.7287 0
M  V30 3804 H 372.509 -0.405317 -2.95231 0
M  V30 3805 H 370.046 -0.211726 -1.45568 0
M  V30 3806 H 372.004 1.96553 -3.67998 0
M  V30 3807 H 370.634 1.9933 -2.53904 0
M  V30 3808 H 369.686 -0.0701234 -3.80335 0
M  V30 3809 H 370.998 0.127503 -4.98637 0
M  V30 3810 H 370.152 2.41037 -5.56764 0
M  V30 3811 H 368.891 2.28476 -4.30871 0
M  V30 3812 H 367.896 0.305338 -5.48951 0
M  V30 3813 H 369.121 0.451708 -6.77596 0
M  V30 3814 H 367.067 2.57007 -6.03559 0
M  V30 3815 H 366.984 1.51353 -7.40694 0
M  V30 3816 H 368.252 2.69897 -7.31284 0
M  V30 3817 N 372.481 1.55866 -0.233164 0
M  V30 3818 C 373.727 1.98897 0.395959 0
M  V30 3819 C 374.06 1.12091 1.58585 0
M  V30 3820 O 373.335 0.181182 1.93654 0
M  V30 3821 C 373.618 3.50658 0.819224 0
M  V30 3822 C 373.471 4.48233 -0.375109 0
M  V30 3823 C 374.79 4.07135 1.67121 0
M  V30 3824 H 371.909 0.723102 0.142451 0
M  V30 3825 H 374.551 1.87082 -0.331725 0
M  V30 3826 H 372.701 3.60857 1.43925 0
M  V30 3827 H 374.373 4.50031 -1.01341 0
M  V30 3828 H 372.616 4.21624 -1.02058 0
M  V30 3829 H 373.287 5.51988 -0.0358328 0
M  V30 3830 H 375.763 3.99952 1.14795 0
M  V30 3831 H 374.639 5.13615 1.93625 0
M  V30 3832 H 374.9 3.54736 2.63846 0
M  V30 3833 N 373.959 -0.0401083 1.57549 0
M  V30 3834 C 374.907 -1.06264 2.06908 0
M  V30 3835 C 375.901 -1.38132 0.980608 0
M  V30 3836 O 377.107 -1.37167 1.16556 0
M  V30 3837 H 373.482 -0.360166 0.660139 0
M  V30 3838 H 375.453 -0.620445 2.91878 0
M  V30 3839 C 374.202 -2.35846 2.55483 0
M  V30 3840 H 373.525 -2.12183 3.38849 0
M  V30 3841 H 374.965 -3.05765 2.93741 0
M  V30 3842 C 373.424 -3.0404 1.45126 0
M  V30 3843 O 373.954 -3.93424 0.811216 0
M  V30 3844 N 372.16 -2.65184 1.18852 0
M  V30 3845 H 371.707 -1.92584 1.71083 0
M  V30 3846 H 371.665 -3.1113 0.452244 0
M  V30 3847 N 375.437 -1.54477 -0.31217 0
M  V30 3848 C 376.369 -1.81011 -1.40598 0
M  V30 3849 C 377.382 -0.692546 -1.47335 0
M  V30 3850 O 378.571 -0.969847 -1.49854 0
M  V30 3851 C 375.671 -1.92307 -2.79054 0
M  V30 3852 C 374.844 -3.22594 -2.95384 0
M  V30 3853 C 373.903 -3.24448 -4.1427 0
M  V30 3854 O 372.929 -3.98035 -4.06887 0
M  V30 3855 N 374.131 -2.49042 -5.24365 0
M  V30 3856 H 376.896 -2.75408 -1.18196 0
M  V30 3857 H 374.457 -1.53914 -0.502202 0
M  V30 3858 H 376.449 -1.90962 -3.56813 0
M  V30 3859 H 375.019 -1.04955 -2.94454 0
M  V30 3860 H 374.239 -3.36806 -2.04831 0
M  V30 3861 H 375.527 -4.08593 -3.03198 0
M  V30 3862 H 374.925 -1.88867 -5.33241 0
M  V30 3863 H 373.482 -2.53463 -6.005 0
M  V30 3864 N 376.915 0.57481 -1.46744 0
M  V30 3865 C 378.192 1.3352 -1.4294 0
M  V30 3866 C 378.572 2.10775 -0.117009 0
M  V30 3867 O 377.92 2.09966 0.901474 0
M  V30 3868 C 378.13 2.25456 -2.66403 0
M  V30 3869 C 379.478 2.87035 -3.12883 0
M  V30 3870 O 380.502 2.35766 -2.67007 0
M  V30 3871 O 379.361 3.80179 -3.92589 0
M  V30 3872 H 376.455 0.600318 -0.568812 0
M  V30 3873 H 379.001 0.595171 -1.58921 0
M  V30 3874 H 377.773 1.67851 -3.53471 0
M  V30 3875 H 377.396 3.06785 -2.52921 0
M  V30 3876 N 378.394 1.34581 0.820102 0
M  V30 3877 C 379.642 1.26845 1.57336 0
M  V30 3878 C 379.963 -0.160667 1.94337 0
M  V30 3879 O 379.233 -1.09396 1.6251 0
M  V30 3880 H 377.813 0.466514 0.583415 0
M  V30 3881 H 380.475 1.68526 0.979027 0
M  V30 3882 H 379.571 1.87513 2.4949 0
M  V30 3883 N 379.872 -1.04064 1.18357 0
M  V30 3884 C 381.097 -1.81454 1.00445 0
M  V30 3885 C 381.522 -1.82823 -0.442423 0
M  V30 3886 O 380.88 -1.24555 -1.31741 0
M  V30 3887 C 380.928 -3.24925 1.56384 0
M  V30 3888 O 380.032 -4.04856 0.785209 0
M  V30 3889 H 379.373 -0.560604 0.355835 0
M  V30 3890 H 381.903 -1.31059 1.57114 0
M  V30 3891 H 381.913 -3.75702 1.59097 0
M  V30 3892 H 380.588 -3.23244 2.61699 0
M  V30 3893 H 379.165 -3.63537 0.830399 0
M  V30 3894 N 381.35 -0.985608 -1.22978 0
M  V30 3895 C 382.766 -0.695104 -1.43668 0
M  V30 3896 C 382.966 0.736866 -1.87543 0
M  V30 3897 O 382.022 1.50868 -2.02473 0
M  V30 3898 C 383.335 -1.69447 -2.48412 0
M  V30 3899 C 384.883 -1.70909 -2.62219 0
M  V30 3900 C 385.358 -2.6969 -3.70178 0
M  V30 3901 N 386.849 -2.6824 -3.77626 0
M  V30 3902 C 387.584 -3.41339 -4.60733 0
M  V30 3903 N 387.08 -4.24015 -5.4789 0
M  V30 3904 N 388.873 -3.30079 -4.54977 0
M  V30 3905 H 381.024 -1.91054 -0.928016 0
M  V30 3906 H 383.287 -0.823553 -0.469536 0
M  V30 3907 H 382.993 -2.7188 -2.23102 0
M  V30 3908 H 382.867 -1.48147 -3.46889 0
M  V30 3909 H 385.254 -0.691785 -2.86877 0
M  V30 3910 H 385.335 -1.96276 -1.6404 0
M  V30 3911 H 384.979 -3.71566 -3.46268 0
M  V30 3912 H 384.909 -2.41595 -4.67909 0
M  V30 3913 H 387.4 -2.08243 -3.15346 0
M  V30 3914 H 387.713 -4.76636 -6.08308 0
M  V30 3915 H 386.058 -4.28104 -5.47496 0
M  V30 3916 H 389.249 -2.64937 -3.85909 0
M  V30 3917 H 389.422 -3.87308 -5.19516 0
M  V30 3918 N 382.828 1.3818 -0.7579 0
M  V30 3919 C 384.074 2.00316 -0.316453 0
M  V30 3920 C 384.407 1.60026 1.10025 0
M  V30 3921 O 383.682 0.839835 1.75434 0
M  V30 3922 C 383.965 3.57349 -0.444245 0
M  V30 3923 C 383.818 4.07591 -1.90236 0
M  V30 3924 C 385.137 4.3981 0.1598 0
M  V30 3925 H 382.256 0.727741 -0.116459 0
M  V30 3926 H 384.898 1.6406 -0.958352 0
M  V30 3927 H 383.048 3.88365 0.102233 0
M  V30 3928 H 384.72 3.87199 -2.50748 0
M  V30 3929 H 382.963 3.60297 -2.41595 0
M  V30 3930 H 383.634 5.16677 -1.94291 0
M  V30 3931 H 386.11 4.14971 -0.306314 0
M  V30 3932 H 384.986 5.48885 0.0401675 0
M  V30 3933 H 385.247 4.24102 1.24859 0
M  V30 3934 N 384.306 0.507319 1.49211 0
M  V30 3935 C 385.236 -0.256939 2.32082 0
M  V30 3936 C 386.217 -0.956609 1.40652 0
M  V30 3937 O 387.402 -0.946788 1.69557 0
M  V30 3938 C 384.532 -1.31802 3.21318 0
M  V30 3939 C 383.486 -0.737855 4.21592 0
M  V30 3940 C 382.812 -1.89992 4.99807 0
M  V30 3941 C 384.112 0.275325 5.21574 0
M  V30 3942 H 385.806 0.434798 2.96226 0
M  V30 3943 H 383.352 0.210546 1.42452 0
M  V30 3944 H 385.305 -1.86045 3.78107 0
M  V30 3945 H 384.029 -2.03903 2.5513 0
M  V30 3946 H 382.688 -0.217126 3.65956 0
M  V30 3947 H 382.336 -2.60877 4.30061 0
M  V30 3948 H 382.036 -1.51777 5.6766 0
M  V30 3949 H 383.56 -2.44657 5.59442 0
M  V30 3950 H 384.974 -0.179193 5.7302 0
M  V30 3951 H 383.371 0.573649 5.97352 0
M  V30 3952 H 384.441 1.18903 4.70096 0
M  V30 3953 N 385.784 -1.5574 0.241426 0
M  V30 3954 C 386.714 -2.24133 -0.654722 0
M  V30 3955 C 387.695 -1.21974 -1.1856 0
M  V30 3956 O 388.88 -1.50612 -1.22595 0
M  V30 3957 C 386.01 -2.93659 -1.85423 0
M  V30 3958 C 384.964 -4.0246 -1.45636 0
M  V30 3959 C 384.29 -4.59383 -2.73626 0
M  V30 3960 C 385.59 -5.18468 -0.631506 0
M  V30 3961 H 387.284 -2.99281 -0.0844353 0
M  V30 3962 H 384.83 -1.43947 -0.0391707 0
M  V30 3963 H 386.783 -3.40203 -2.48676 0
M  V30 3964 H 385.507 -2.15991 -2.44981 0
M  V30 3965 H 384.166 -3.56676 -0.847202 0
M  V30 3966 H 383.814 -3.78422 -3.3137 0
M  V30 3967 H 383.514 -5.32826 -2.4773 0
M  V30 3968 H 385.038 -5.08658 -3.37786 0
M  V30 3969 H 386.452 -5.61272 -1.1682 0
M  V30 3970 H 384.849 -5.98266 -0.468831 0
M  V30 3971 H 385.919 -4.8358 0.357506 0
M  V30 3972 N 387.262 0.0317525 -1.57568 0
M  V30 3973 C 388.678 0.38735 -1.54828 0
M  V30 3974 C 388.878 1.7677 -0.967187 0
M  V30 3975 O 387.934 2.45581 -0.587063 0
M  V30 3976 C 389.247 0.291667 -2.99282 0
M  V30 3977 C 390.795 0.368946 -3.10818 0
M  V30 3978 C 391.27 0.302741 -4.56998 0
M  V30 3979 N 392.761 0.361617 -4.61786 0
M  V30 3980 C 393.496 0.333238 -5.72431 0
M  V30 3981 N 392.992 0.257308 -6.92322 0
M  V30 3982 N 394.785 0.382769 -5.60795 0
M  V30 3983 H 386.936 -0.871609 -1.93692 0
M  V30 3984 H 389.199 -0.331161 -0.888277 0
M  V30 3985 H 388.905 -0.656794 -3.45513 0
M  V30 3986 H 388.779 1.08638 -3.61217 0
M  V30 3987 H 391.166 1.30784 -2.64536 0
M  V30 3988 H 391.247 -0.455066 -2.5172 0
M  V30 3989 H 390.891 -0.632473 -5.03947 0
M  V30 3990 H 390.821 1.14482 -5.14005 0
M  V30 3991 H 393.312 0.422923 -3.75526 0
M  V30 3992 H 393.625 0.24068 -7.72425 0
M  V30 3993 H 391.97 0.223396 -6.94641 0
M  V30 3994 H 395.161 0.44006 -4.66027 0
M  V30 3995 H 395.334 0.357184 -6.47015 0
M  V30 3996 N 388.74 1.54641 0.303973 0
M  V30 3997 C 390.017 1.64455 1.05896 0
M  V30 3998 C 390.397 0.490923 2.05312 0
M  V30 3999 O 389.745 -0.512685 2.22674 0
M  V30 4000 C 389.955 3.02331 1.74347 0
M  V30 4001 C 391.303 3.59045 2.26653 0
M  V30 4002 O 392.327 3.04764 1.84384 0
M  V30 4003 O 391.186 4.54081 3.04093 0
M  V30 4004 H 388.28 0.666729 0.489287 0
M  V30 4005 H 390.826 1.66986 0.302298 0
M  V30 4006 H 389.598 3.77734 1.02142 0
M  V30 4007 H 389.221 3.03565 2.56777 0
M  V30 4008 N 390.218 -0.567019 1.47046 0
M  V30 4009 C 391.464 -1.32658 1.53394 0
M  V30 4010 C 391.797 -1.93254 0.19148 0
M  V30 4011 O 391.072 -1.77338 -0.798844 0
M  V30 4012 C 391.355 -2.44412 2.64452 0
M  V30 4013 C 391.208 -1.88749 4.08282 0
M  V30 4014 C 392.527 -3.46387 2.71485 0
M  V30 4015 H 389.646 -0.48098 0.558415 0
M  V30 4016 H 392.288 -0.635481 1.79058 0
M  V30 4017 H 390.438 -3.03363 2.427 0
M  V30 4018 H 392.11 -1.34134 4.41368 0
M  V30 4019 H 390.353 -1.19481 4.17021 0
M  V30 4020 H 391.024 -2.69491 4.81745 0
M  V30 4021 H 393.5 -2.9734 2.91081 0
M  V30 4022 H 392.376 -4.2202 3.50985 0
M  V30 4023 H 392.637 -4.04616 1.78153 0
M  V30 4024 N 391.696 -1.35014 -0.812953 0
M  V30 4025 C 392.659 -1.27292 -1.90602 0
M  V30 4026 C 393.659 -0.185817 -1.59723 0
M  V30 4027 O 394.849 -0.439102 -1.68575 0
M  V30 4028 C 391.981 -0.967676 -3.26877 0
M  V30 4029 H 393.174 -2.24479 -1.9887 0
M  V30 4030 H 390.727 -1.19446 -1.00808 0
M  V30 4031 H 391.462 0.0005954 -3.243 0
M  V30 4032 H 391.247 -1.75412 -3.50675 0
M  V30 4033 H 392.737 -0.939085 -4.06904 0
M  V30 4034 N 393.175 1.03435 -1.18907 0
M  V30 4035 C 394.122 2.11591 -0.921837 0
M  V30 4036 C 395.092 1.65499 0.141226 0
M  V30 4037 O 396.277 1.908 0.000242829 0
M  V30 4038 C 393.417 3.42012 -0.460616 0
M  V30 4039 C 392.53 4.01682 -1.58982 0
M  V30 4040 C 391.665 5.20091 -1.08069 0
M  V30 4041 C 390.704 5.71805 -2.18416 0
M  V30 4042 N 389.841 6.81494 -1.68849 0
M  V30 4043 H 394.681 2.33787 -1.8479 0
M  V30 4044 H 392.218 1.1467 -0.921373 0
M  V30 4045 H 394.176 4.16834 -0.174642 0
M  V30 4046 H 392.806 3.19944 0.428467 0
M  V30 4047 H 391.858 3.24127 -1.99113 0
M  V30 4048 H 393.17 4.36084 -2.4214 0
M  V30 4049 H 392.324 6.02051 -0.749615 0
M  V30 4050 H 391.063 4.87209 -0.218771 0
M  V30 4051 H 390.068 4.88461 -2.5236 0
M  V30 4052 H 391.293 6.06728 -3.05054 0
M  V30 4053 H 389.239 6.50475 -0.849572 0
M  V30 4054 H 389.156 7.14994 -2.45601 0
M  V30 4055 H 390.424 7.67063 -1.38689 0
M  V30 4056 N 394.653 0.992116 1.22453 0
M  V30 4057 C 395.902 0.662992 1.90492 0
M  V30 4058 C 396.215 -0.808407 1.78113 0
M  V30 4059 O 397.421 -1.24908 2.41061 0
M  V30 4060 C 395.877 1.1353 3.41524 0
M  V30 4061 C 395.485 2.63187 3.62542 0
M  V30 4062 C 397.229 0.880465 4.15269 0
M  V30 4063 C 395.136 3.04024 5.0727 0
M  V30 4064 H 394.066 0.244278 0.713333 0
M  V30 4065 H 396.717 1.20157 1.38688 0
M  V30 4066 H 395.099 0.52485 3.92506 0
M  V30 4067 H 396.273 3.2957 3.22056 0
M  V30 4068 H 394.588 2.86543 3.02129 0
M  V30 4069 H 397.185 1.16128 5.21937 0
M  V30 4070 H 397.528 -0.183408 4.15896 0
M  V30 4071 H 398.061 1.45307 3.70312 0
M  V30 4072 H 394.8 4.09584 5.11782 0
M  V30 4073 H 394.32 2.42343 5.48662 0
M  V30 4074 H 395.999 2.95282 5.75689 0
M  V30 4075 N 396.131 -1.37776 0.765217 0
M  V30 4076 C 397.041 -2.34135 0.147666 0
M  V30 4077 C 398.057 -1.59854 -0.687215 0
M  V30 4078 O 399.233 -1.91983 -0.608659 0
M  V30 4079 C 396.298 -3.3901 -0.72617 0
M  V30 4080 C 395.359 -4.2912 0.124417 0
M  V30 4081 C 394.592 -5.28986 -0.707807 0
M  V30 4082 O 394.815 -5.36205 -1.94525 0
M  V30 4083 O 393.749 -6.01779 -0.12046 0
M  V30 4084 H 397.575 -2.88664 0.943758 0
M  V30 4085 H 395.16 -1.39824 0.526277 0
M  V30 4086 H 397.042 -4.03195 -1.22524 0
M  V30 4087 H 395.717 -2.86819 -1.50056 0
M  V30 4088 H 394.624 -3.68057 0.669696 0
M  V30 4089 H 395.957 -4.84598 0.861736 0
M  V30 4090 N 397.609 -0.515225 -1.4894 0
M  V30 4091 C 398.539 0.244628 -2.32215 0
M  V30 4092 C 399.52 0.949136 -1.41157 0
M  V30 4093 O 400.705 0.937783 -1.70057 0
M  V30 4094 C 397.835 1.30096 -3.22013 0
M  V30 4095 C 396.789 0.715486 -4.21977 0
M  V30 4096 C 396.115 1.87339 -5.00808 0
M  V30 4097 C 397.415 -0.302982 -5.2142 0
M  V30 4098 H 399.109 -0.450501 -2.95991 0
M  V30 4099 H 396.655 -0.218098 -1.42339 0
M  V30 4100 H 398.608 1.84037 -3.79089 0
M  V30 4101 H 397.332 2.02547 -2.56207 0
M  V30 4102 H 395.991 0.197715 -3.66066 0
M  V30 4103 H 395.639 2.58592 -4.31438 0
M  V30 4104 H 395.339 1.48764 -5.68457 0
M  V30 4105 H 396.863 2.41686 -5.60732 0
M  V30 4106 H 398.277 0.148802 -5.73107 0
M  V30 4107 H 396.674 -0.60532 -5.97039 0
M  V30 4108 H 397.744 -1.21395 -4.69459 0
M  V30 4109 N 399.087 1.5561 -0.249682 0
M  V30 4110 C 400.335 1.98618 0.373548 0
M  V30 4111 C 400.656 1.13919 1.58264 0
M  V30 4112 O 399.926 0.222637 1.94631 0
M  V30 4113 H 398.506 0.733571 0.141006 0
M  V30 4114 H 401.168 1.91748 -0.349117 0
M  V30 4115 H 400.264 3.04584 0.680796 0
M  V30 4116 N 400.565 -0.0233959 1.57583 0
M  V30 4117 C 401.813 -0.711654 1.89156 0
M  V30 4118 C 402.134 -1.75591 0.848096 0
M  V30 4119 O 401.404 -1.95547 -0.117566 0
M  V30 4120 H 399.984 -0.265835 0.698098 0
M  V30 4121 H 402.646 0.0119948 1.94896 0
M  V30 4122 H 401.742 -1.19766 2.88206 0
M  V30 4123 N 402.043 -1.548 -0.295768 0
M  V30 4124 C 402.953 -1.89177 -1.38742 0
M  V30 4125 C 403.969 -0.786481 -1.55211 0
M  V30 4126 O 405.145 -1.08344 -1.69775 0
M  V30 4127 C 402.21 -2.13663 -2.73036 0
M  V30 4128 C 401.271 -3.37349 -2.65508 0
M  V30 4129 C 400.504 -3.60658 -3.93398 0
M  V30 4130 O 400.727 -2.86882 -4.93006 0
M  V30 4131 O 399.661 -4.54179 -3.94975 0
M  V30 4132 H 403.487 -2.82059 -1.12589 0
M  V30 4133 H 401.072 -1.41056 -0.492295 0
M  V30 4134 H 402.954 -2.3094 -3.52484 0
M  V30 4135 H 401.629 -1.23967 -2.99022 0
M  V30 4136 H 400.536 -3.25431 -1.84514 0
M  V30 4137 H 401.869 -4.27192 -2.44474 0
M  V30 4138 N 403.521 0.559213 -1.47345 0
M  V30 4139 C 404.469 1.68747 -1.60085 0
M  V30 4140 C 405.463 1.628 -0.46825 0
M  V30 4141 O 406.669 1.68009 -0.645977 0
M  V30 4142 H 403.044 0.558329 -0.503759 0
M  V30 4143 H 405.015 1.55138 -2.54902 0
M  V30 4144 C 403.764 3.07103 -1.63042 0
M  V30 4145 H 403.087 3.12361 -2.49541 0
M  V30 4146 H 404.527 3.85743 -1.76006 0
M  V30 4147 C 402.986 3.34935 -0.363357 0
M  V30 4148 O 403.516 3.98102 0.536416 0
M  V30 4149 N 401.722 2.89574 -0.244 0
M  V30 4150 H 401.269 2.38348 -0.977133 0
M  V30 4151 H 401.227 3.08566 0.602836 0
M  V30 4152 N 404.999 1.35443 0.805782 0
M  V30 4153 C 406.229 1.31687 1.59192 0
M  V30 4154 C 406.637 -0.10756 1.88894 0
M  V30 4155 O 405.98 -1.07017 1.49309 0
M  V30 4156 C 406.042 2.05686 2.94845 0
M  V30 4157 C 405.706 3.54868 2.87954 0
M  V30 4158 C 406.703 4.49444 2.61335 0
M  V30 4159 C 404.388 3.97528 3.07046 0
M  V30 4160 C 406.382 5.84655 2.53885 0
M  V30 4161 C 404.069 5.32833 2.99219 0
M  V30 4162 C 405.067 6.26209 2.72674 0
M  V30 4163 O 404.755 7.59032 2.64811 0
M  V30 4164 H 404.487 0.453878 0.50097 0
M  V30 4165 H 407.041 1.78892 1.0093 0
M  V30 4166 H 405.271 1.5312 3.55093 0
M  V30 4167 H 406.96 1.94998 3.55993 0
M  V30 4168 H 407.726 4.17804 2.46303 0
M  V30 4169 H 403.605 3.25233 3.26718 0
M  V30 4170 H 407.149 6.57508 2.33086 0
M  V30 4171 H 403.046 5.64087 3.13809 0
M  V30 4172 H 403.814 7.68967 2.80413 0
M  V30 4173 N 406.477 -1.02803 1.19454 0
M  V30 4174 C 407.754 -1.73299 0.907013 0
M  V30 4175 C 408.134 -2.02772 -0.587086 0
M  V30 4176 O 407.482 -1.68304 -1.54551 0
M  V30 4177 C 407.692 -3.00912 1.76785 0
M  V30 4178 C 409.04 -3.74403 2.00268 0
M  V30 4179 O 410.064 -3.10841 1.73943 0
M  V30 4180 O 408.923 -4.88675 2.4466 0
M  V30 4181 H 406.017 -0.754727 0.338106 0
M  V30 4182 H 408.563 -1.08754 1.30271 0
M  V30 4183 H 407.335 -2.75366 2.7801 0
M  V30 4184 H 406.958 -3.73197 1.37149 0
M  V30 4185 N 407.956 -0.998596 -1.21925 0
M  V30 4186 C 409.205 -0.673085 -1.90138 0
M  V30 4187 C 409.518 0.79895 -1.78539 0
M  V30 4188 O 410.724 1.23628 -2.4172 0
M  V30 4189 C 409.18 -1.15339 -3.40918 0
M  V30 4190 C 408.788 -2.65106 -3.61141 0
M  V30 4191 C 410.532 -0.902476 -4.14796 0
M  V30 4192 C 408.439 -3.0671 -5.05651 0
M  V30 4193 H 407.369 -0.248057 -0.712028 0
M  V30 4194 H 410.02 -1.20891 -1.38049 0
M  V30 4195 H 408.402 -0.545658 -3.92223 0
M  V30 4196 H 409.576 -3.31274 -3.20304 0
M  V30 4197 H 407.891 -2.88142 -3.00605 0
M  V30 4198 H 410.488 -1.18895 -5.21314 0
M  V30 4199 H 410.831 0.161349 -4.15987 0
M  V30 4200 H 411.364 -1.47269 -3.69536 0
M  V30 4201 H 408.103 -4.12292 -5.09603 0
M  V30 4202 H 407.623 -2.45249 -5.47369 0
M  V30 4203 H 409.302 -2.9833 -5.74115 0
M  V30 4204 N 409.434 1.37368 -0.772513 0
M  V30 4205 C 410.683 1.98918 -0.333861 0
M  V30 4206 C 410.996 1.62017 1.09589 0
M  V30 4207 O 412.202 2.16676 1.63596 0
M  V30 4208 C 410.658 3.55735 -0.545971 0
M  V30 4209 C 410.266 4.01573 -1.98603 0
M  V30 4210 C 412.01 4.24156 -0.170979 0
M  V30 4211 C 409.917 5.51102 -2.1457 0
M  V30 4212 H 408.847 0.744214 -0.121085 0
M  V30 4213 H 411.498 1.56888 -0.95175 0
M  V30 4214 H 409.88 3.95748 0.141387 0
M  V30 4215 H 411.054 3.72803 -2.7084 0
M  V30 4216 H 409.369 3.45937 -2.31769 0
M  V30 4217 H 411.966 5.34024 -0.26878 0
M  V30 4218 H 412.309 4.06917 0.878855 0
M  V30 4219 H 412.842 3.89447 -0.810914 0
M  V30 4220 H 409.581 5.73268 -3.17875 0
M  V30 4221 H 409.101 5.81554 -1.46817 0
M  V30 4222 H 410.78 6.17083 -1.94468 0
M  V30 4223 N 410.912 0.523116 1.48665 0
M  V30 4224 C 411.875 -0.232592 2.28017 0
M  V30 4225 C 412.875 -0.874021 1.34972 0
M  V30 4226 O 414.065 -0.735132 1.57929 0
M  V30 4227 C 411.197 -1.33586 3.13636 0
M  V30 4228 H 412.39 0.464008 2.96289 0
M  V30 4229 H 409.943 0.278816 1.53793 0
M  V30 4230 H 410.678 -2.06593 2.4998 0
M  V30 4231 H 410.463 -0.881125 3.82071 0
M  V30 4232 H 411.953 -1.86759 3.73511 0
M  V30 4233 N 412.39 -1.55475 0.257931 0
M  V30 4234 C 413.3 -2.2549 -0.647425 0
M  V30 4235 C 414.316 -1.2748 -1.18427 0
M  V30 4236 O 415.492 -1.6038 -1.2182 0
M  V30 4237 C 412.557 -2.94916 -1.82278 0
M  V30 4238 C 411.618 -4.08363 -1.32432 0
M  V30 4239 C 410.851 -4.74469 -2.44366 0
M  V30 4240 O 411.074 -4.39701 -3.63344 0
M  V30 4241 O 410.008 -5.62763 -2.13497 0
M  V30 4242 H 413.834 -3.03593 -0.0807707 0
M  V30 4243 H 411.419 -1.49377 0.0259962 0
M  V30 4244 H 413.301 -3.38606 -2.50846 0
M  V30 4245 H 411.976 -2.19744 -2.37685 0
M  V30 4246 H 410.883 -3.69166 -0.605605 0
M  V30 4247 H 412.216 -4.85385 -0.816211 0
M  V30 4248 N 413.868 0.0150385 -1.57593 0
M  V30 4249 C 415.115 0.703001 -1.89906 0
M  V30 4250 C 415.443 1.74604 -0.856944 0
M  V30 4251 O 414.698 1.95197 0.140287 0
M  V30 4252 C 414.997 1.39686 -3.28972 0
M  V30 4253 C 414.663 0.488457 -4.48246 0
M  V30 4254 C 413.325 0.2383 -4.8061 0
M  V30 4255 C 415.677 -0.137881 -5.21018 0
M  V30 4256 C 413.005 -0.646738 -5.83125 0
M  V30 4257 C 415.357 -1.0107 -6.24474 0
M  V30 4258 C 414.021 -1.27019 -6.55303 0
M  V30 4259 H 413.291 0.257246 -0.694914 0
M  V30 4260 H 415.938 -0.037259 -1.91464 0
M  V30 4261 H 414.243 2.21079 -3.23468 0
M  V30 4262 H 415.94 1.93495 -3.51227 0
M  V30 4263 H 412.53 0.693593 -4.22951 0
M  V30 4264 H 416.714 0.0423953 -4.96282 0
M  V30 4265 H 411.97 -0.855937 -6.05379 0
M  V30 4266 H 416.144 -1.50247 -6.79999 0
M  V30 4267 H 413.771 -1.95769 -7.3456 0
M  V30 4268 N 415.346 1.54954 0.287554 0
M  V30 4269 C 416.294 1.87606 1.37502 0
M  V30 4270 C 417.288 0.751001 1.51843 0
M  V30 4271 O 418.494 0.935169 1.53801 0
M  V30 4272 H 414.869 0.595231 0.459569 0
M  V30 4273 H 416.84 2.78477 1.07206 0
M  V30 4274 C 415.589 2.15183 2.73115 0
M  V30 4275 H 414.912 3.01234 2.62866 0
M  V30 4276 H 416.352 2.4196 3.48183 0
M  V30 4277 C 414.811 0.954686 3.2309 0
M  V30 4278 O 415.341 0.181949 4.01288 0
M  V30 4279 N 413.547 0.756368 2.80584 0
M  V30 4280 H 413.094 1.38643 2.17108 0
M  V30 4281 H 413.052 -0.0430391 3.14371 0
M  V30 4282 N 416.824 -0.551391 1.4764 0
M  V30 4283 C 418.072 -1.30572 1.54258 0
M  V30 4284 C 418.393 -1.93877 0.208963 0
M  V30 4285 O 417.663 -1.80234 -0.767619 0
M  V30 4286 H 416.243 -0.484894 0.568231 0
M  V30 4287 H 418.905 -0.643402 1.83974 0
M  V30 4288 H 418.001 -2.09621 2.31226 0
M  V30 4289 N 418.302 -1.35869 -0.798587 0
M  V30 4290 C 419.234 -1.25305 -1.91915 0
M  V30 4291 C 420.247 -0.174548 -1.61862 0
M  V30 4292 O 421.436 -0.428499 -1.73281 0
M  V30 4293 C 418.536 -0.9086 -3.26493 0
M  V30 4294 C 417.709 -2.08711 -3.84394 0
M  V30 4295 C 416.768 -1.71717 -4.97393 0
M  V30 4296 O 415.794 -2.43692 -5.14396 0
M  V30 4297 N 416.996 -0.645473 -5.769 0
M  V30 4298 H 419.761 -2.21849 -2.01502 0
M  V30 4299 H 417.322 -1.29143 -0.976408 0
M  V30 4300 H 419.314 -0.642455 -3.99568 0
M  V30 4301 H 417.884 -0.0325815 -3.12583 0
M  V30 4302 H 417.104 -2.51659 -3.03416 0
M  V30 4303 H 418.392 -2.87468 -4.19809 0
M  V30 4304 H 417.79 -0.047648 -5.6568 0
M  V30 4305 H 416.347 -0.43913 -6.50319 0
M  V30 4306 N 419.78 1.02168 -1.19998 0
M  V30 4307 C 421.191 1.57135 -1.00825 0
M  V30 4308 C 421.542 1.91276 0.436818 0
M  V30 4309 O 420.667 1.71679 1.3174 0
M  V30 4310 C 421.262 2.85514 -1.82393 0
M  V30 4311 C 419.821 3.37027 -1.67601 0
M  V30 4312 C 418.968 2.10388 -1.80644 0
M  V30 4313 H 421.919 0.846106 -1.34264 0
M  V30 4314 H 421.94 3.56711 -1.32429 0
M  V30 4315 H 421.452 2.60634 -2.87561 0
M  V30 4316 H 419.553 3.66878 -0.650485 0
M  V30 4317 H 419.666 4.09572 -2.4857 0
M  V30 4318 H 418.03 2.22601 -1.23778 0
M  V30 4319 H 418.813 1.8794 -2.87286 0
M  V30 4320 N 421.258 1.00505 1.21394 0
M  V30 4321 C 422.221 0.570459 2.21987 0
M  V30 4322 C 423.221 -0.353211 1.56873 0
M  V30 4323 O 424.411 -0.14349 1.73608 0
M  V30 4324 C 421.543 -0.168555 3.40483 0
M  V30 4325 H 422.736 1.46021 2.6195 0
M  V30 4326 H 420.289 0.793565 1.34656 0
M  V30 4327 H 421.024 -1.07374 3.06009 0
M  V30 4328 H 420.809 0.494823 3.88965 0
M  V30 4329 H 422.299 -0.460362 4.15055 0
M  V30 4330 N 422.737 -1.36956 0.779787 0
M  V30 4331 C 423.962 -2.04283 0.358224 0
M  V30 4332 C 424.387 -1.58422 -1.01411 0
M  V30 4333 O 423.745 -0.748179 -1.65142 0
M  V30 4334 C 423.793 -3.58152 0.419479 0
M  V30 4335 O 422.897 -4.08342 -0.577142 0
M  V30 4336 H 422.238 -0.645967 0.153698 0
M  V30 4337 H 424.768 -1.75108 1.05822 0
M  V30 4338 H 424.778 -4.07041 0.279636 0
M  V30 4339 H 423.453 -3.90886 1.42061 0
M  V30 4340 H 422.03 -3.70751 -0.399755 0
M  V30 4341 N 424.215 -0.530993 -1.48385 0
M  V30 4342 C 425.463 0.00273189 -2.021 0
M  V30 4343 C 425.784 1.34672 -1.41027 0
M  V30 4344 O 425.054 1.8724 -0.576012 0
M  V30 4345 H 423.634 0.00399774 -0.746989 0
M  V30 4346 H 426.296 -0.695054 -1.82085 0
M  V30 4347 H 425.392 0.11031 -3.11905 0
M  V30 4348 N 425.693 1.55336 -0.266172 0
M  V30 4349 C 426.623 2.25146 0.618981 0
M  V30 4350 C 427.604 1.23845 1.16604 0
M  V30 4351 O 428.789 1.52544 1.20183 0
M  V30 4352 C 425.919 2.96572 1.80728 0
M  V30 4353 C 424.873 4.04726 1.39215 0
M  V30 4354 C 424.199 4.63678 2.66283 0
M  V30 4355 C 425.499 5.19407 0.548942 0
M  V30 4356 H 427.193 2.99377 0.0368116 0
M  V30 4357 H 424.739 1.43991 0.0162651 0
M  V30 4358 H 426.692 3.44116 2.43232 0
M  V30 4359 H 425.416 2.19861 2.41514 0
M  V30 4360 H 424.075 3.57979 0.790351 0
M  V30 4361 H 423.723 3.83646 3.25308 0
M  V30 4362 H 423.423 5.367 2.39222 0
M  V30 4363 H 424.947 5.13967 3.29651 0
M  V30 4364 H 426.361 5.63059 1.07876 0
M  V30 4365 H 424.758 5.98936 0.373593 0
M  V30 4366 H 425.828 4.8295 -0.434394 0
M  V30 4367 N 427.171 -0.0066808 1.57599 0
M  V30 4368 C 428.419 -0.691552 1.899 0
M  V30 4369 C 428.74 -1.74682 0.866672 0
M  V30 4370 O 428.01 -1.95661 -0.0968189 0
M  V30 4371 H 426.59 -0.258416 0.700878 0
M  V30 4372 H 429.252 0.0326655 1.94873 0
M  V30 4373 H 428.348 -1.16702 2.8946 0
M  V30 4374 N 428.649 -1.55105 -0.279332 0
M  V30 4375 C 429.898 -1.74618 -1.00952 0
M  V30 4376 C 430.211 -0.551096 -1.87676 0
M  V30 4377 O 431.417 -0.628507 -2.64125 0
M  V30 4378 C 429.873 -3.09025 -1.84476 0
M  V30 4379 C 429.481 -4.36081 -1.0265 0
M  V30 4380 C 431.225 -3.37891 -2.56963 0
M  V30 4381 C 429.132 -5.6153 -1.85576 0
M  V30 4382 H 428.062 -0.650868 -0.38064 0
M  V30 4383 H 430.713 -1.81569 -0.265475 0
M  V30 4384 H 429.095 -2.96095 -2.62952 0
M  V30 4385 H 430.269 -4.59909 -0.286354 0
M  V30 4386 H 428.584 -4.14312 -0.416464 0
M  V30 4387 H 431.181 -4.28822 -3.19399 0
M  V30 4388 H 431.524 -2.57737 -3.26921 0
M  V30 4389 H 432.057 -3.5189 -1.85522 0
M  V30 4390 H 428.796 -6.44413 -1.2005 0
M  V30 4391 H 428.316 -5.41854 -2.57204 0
M  V30 4392 H 429.995 -5.99594 -2.43096 0
M  V30 4393 N 430.127 0.543554 -1.4793 0
M  V30 4394 C 431.074 1.64942 -1.6144 0
M  V30 4395 C 432.044 1.59692 -0.456903 0
M  V30 4396 O 433.229 1.78321 -0.678688 0
M  V30 4397 C 430.369 3.03238 -1.64744 0
M  V30 4398 C 429.482 3.18823 -2.91506 0
M  V30 4399 C 428.617 4.47599 -2.86057 0
M  V30 4400 C 427.656 4.56664 -4.07584 0
M  V30 4401 N 426.793 5.76811 -4.00292 0
M  V30 4402 H 431.633 1.52733 -2.55884 0
M  V30 4403 H 429.17 0.7438 -1.2691 0
M  V30 4404 H 431.128 3.83339 -1.64641 0
M  V30 4405 H 429.758 3.1425 -0.738017 0
M  V30 4406 H 428.81 2.32064 -3.01414 0
M  V30 4407 H 430.122 3.21384 -3.81463 0
M  V30 4408 H 429.276 5.35975 -2.84281 0
M  V30 4409 H 428.015 4.47538 -1.93807 0
M  V30 4410 H 427.02 3.66697 -4.09651 0
M  V30 4411 H 428.245 4.58474 -5.00978 0
M  V30 4412 H 426.191 5.77673 -3.10853 0
M  V30 4413 H 426.108 5.80808 -4.8394 0
M  V30 4414 H 427.376 6.67512 -4.02553 0
M  V30 4415 N 431.605 1.3629 0.791371 0
M  V30 4416 C 432.535 1.33137 1.91825 0
M  V30 4417 C 433.516 0.203168 1.68882 0
M  V30 4418 O 434.701 0.400509 1.90025 0
M  V30 4419 C 431.831 1.11793 3.28816 0
M  V30 4420 C 430.785 2.21417 3.66277 0
M  V30 4421 C 430.111 1.85218 5.01596 0
M  V30 4422 C 431.411 3.63489 3.75064 0
M  V30 4423 H 433.105 2.2743 1.9472 0
M  V30 4424 H 430.651 1.09479 0.935437 0
M  V30 4425 H 432.604 1.08222 4.07266 0
M  V30 4426 H 431.328 0.139501 3.26302 0
M  V30 4427 H 429.987 2.2411 2.90121 0
M  V30 4428 H 429.635 0.859544 4.95602 0
M  V30 4429 H 429.335 2.58611 5.27631 0
M  V30 4430 H 430.859 1.832 5.82469 0
M  V30 4431 H 432.273 3.63034 4.43711 0
M  V30 4432 H 430.67 4.35771 4.12582 0
M  V30 4433 H 431.74 3.98536 2.76219 0
M  V30 4434 N 433.083 -1.0153 1.20538 0
M  V30 4435 C 434.046 -2.0826 0.957098 0
M  V30 4436 C 435.046 -1.60657 -0.0678655 0
M  V30 4437 O 436.236 -1.73385 0.168332 0
M  V30 4438 C 433.368 -3.38033 0.441188 0
M  V30 4439 H 434.561 -2.31719 1.90384 0
M  V30 4440 H 432.114 -1.1835 1.02093 0
M  V30 4441 H 432.849 -3.20249 -0.510961 0
M  V30 4442 H 432.634 -3.73911 1.18038 0
M  V30 4443 H 434.124 -4.16613 0.287009 0
M  V30 4444 N 434.561 -1.01147 -1.20859 0
M  V30 4445 C 435.789 -0.716911 -1.94082 0
M  V30 4446 C 436.204 0.721568 -1.74467 0
M  V30 4447 O 435.561 1.48889 -1.05539 0
M  V30 4448 C 435.612 -1.03662 -3.46318 0
M  V30 4449 O 435.333 -2.4186 -3.65288 0
M  V30 4450 C 436.834 -0.762386 -4.36695 0
M  V30 4451 H 434.054 -0.26367 -0.617024 0
M  V30 4452 H 436.598 -1.35127 -1.53496 0
M  V30 4453 H 434.753 -0.447757 -3.84804 0
M  V30 4454 H 435.167 -2.53224 -4.59323 0
M  V30 4455 H 436.641 -1.03621 -5.42187 0
M  V30 4456 H 437.118 0.303514 -4.3815 0
M  V30 4457 H 437.724 -1.33316 -4.03865 0
M  V30 4458 N 436.039 1.36541 -0.78704 0
M  V30 4459 C 437.287 1.98911 -0.357633 0
M  V30 4460 C 437.608 1.62778 1.07371 0
M  V30 4461 O 436.878 0.900612 1.73971 0
M  V30 4462 H 435.458 0.735734 -0.129246 0
M  V30 4463 H 438.12 1.66776 -1.00855 0
M  V30 4464 H 437.216 3.08874 -0.447549 0
M  V30 4465 N 437.518 0.538854 1.48102 0
M  V30 4466 C 438.481 -0.208395 2.28251 0
M  V30 4467 C 439.481 -0.859656 1.35892 0
M  V30 4468 O 440.671 -0.71834 1.58699 0
M  V30 4469 C 437.803 -1.30252 3.15035 0
M  V30 4470 H 438.996 0.495407 2.9578 0
M  V30 4471 H 436.549 0.295112 1.53489 0
M  V30 4472 H 437.284 -2.0393 2.52157 0
M  V30 4473 H 437.069 -0.840551 3.82985 0
M  V30 4474 H 438.559 -1.82787 3.75471 0
M  V30 4475 N 438.996 -1.55193 0.274407 0
M  V30 4476 C 439.944 -2.23924 -0.629362 0
M  V30 4477 C 440.938 -1.23602 -1.1584 0
M  V30 4478 O 442.144 -1.41535 -1.11211 0
M  V30 4479 H 438.519 -0.718637 -0.221507 0
M  V30 4480 H 440.49 -2.98388 -0.0268322 0
M  V30 4481 C 439.239 -2.97329 -1.80252 0
M  V30 4482 H 438.562 -3.74313 -1.40462 0
M  V30 4483 H 440.002 -3.48743 -2.41152 0
M  V30 4484 C 438.461 -2.0276 -2.69054 0
M  V30 4485 O 438.991 -1.57836 -3.69392 0
M  V30 4486 N 437.197 -1.69275 -2.36208 0
M  V30 4487 H 436.744 -2.06004 -1.54661 0
M  V30 4488 H 436.702 -1.06271 -2.95895 0
M  V30 4489 N 440.474 -0.00167713 -1.576 0
M  V30 4490 C 441.437 0.974046 -2.07473 0
M  V30 4491 C 442.437 1.27143 -0.984444 0
M  V30 4492 O 443.627 1.21633 -1.24703 0
M  V30 4493 C 440.759 2.29849 -2.51759 0
M  V30 4494 H 441.952 0.54262 -2.9495 0
M  V30 4495 H 439.505 0.245829 -1.54355 0
M  V30 4496 H 440.24 2.77677 -1.67529 0
M  V30 4497 H 440.025 2.09584 -3.31386 0
M  V30 4498 H 441.515 2.9984 -2.90664 0
M  V30 4499 N 441.952 1.55251 0.271103 0
M  V30 4500 C 442.882 1.9127 1.33933 0
M  V30 4501 C 443.863 0.77478 1.5143 0
M  V30 4502 O 445.048 1.03307 1.64442 0
M  V30 4503 C 442.178 2.18627 2.69851 0
M  V30 4504 C 441.132 3.34442 2.67081 0
M  V30 4505 C 440.458 3.47284 4.06569 0
M  V30 4506 C 441.758 4.70784 2.26185 0
M  V30 4507 H 443.452 2.80744 1.04035 0
M  V30 4508 H 440.998 1.35077 0.499017 0
M  V30 4509 H 442.951 2.42413 3.44694 0
M  V30 4510 H 441.675 1.25955 3.01335 0
M  V30 4511 H 440.334 3.10627 1.94695 0
M  V30 4512 H 439.982 2.52074 4.35279 0
M  V30 4513 H 439.682 4.25152 4.0561 0
M  V30 4514 H 441.206 3.73363 4.83148 0
M  V30 4515 H 442.62 4.94102 2.90751 0
M  V30 4516 H 441.017 5.51582 2.36384 0
M  V30 4517 H 442.087 4.69478 1.21319 0
M  V30 4518 N 443.43 -0.535701 1.48216 0
M  V30 4519 C 444.707 -1.29683 1.46429 0
M  V30 4520 C 445.087 -2.10391 0.172852 0
M  V30 4521 O 444.435 -2.12282 -0.845488 0
M  V30 4522 C 444.645 -2.18313 2.72287 0
M  V30 4523 C 445.993 -2.78639 3.20383 0
M  V30 4524 O 447.017 -2.28604 2.73164 0
M  V30 4525 O 445.876 -3.69636 4.02531 0
M  V30 4526 H 442.97 -0.585026 0.584529 0
M  V30 4527 H 445.516 -0.552827 1.60443 0
M  V30 4528 H 444.288 -1.58421 3.57797 0
M  V30 4529 H 443.911 -2.99971 2.60966 0
M  V30 4530 N 444.908 -1.36708 -0.784132 0
M  V30 4531 C 446.136 -1.34398 -1.57305 0
M  V30 4532 C 446.551 0.0735577 -1.88657 0
M  V30 4533 O 445.908 1.03193 -1.50524 0
M  V30 4534 C 445.959 -2.17053 -2.89085 0
M  V30 4535 O 445.68 -3.53281 -2.59083 0
M  V30 4536 C 447.181 -2.22583 -3.83369 0
M  V30 4537 H 444.401 -0.460819 -0.487736 0
M  V30 4538 H 446.945 -1.79879 -0.972819 0
M  V30 4539 H 445.1 -1.75113 -3.45564 0
M  V30 4540 H 445.514 -3.9647 -3.43383 0
M  V30 4541 H 446.988 -2.84763 -4.72878 0
M  V30 4542 H 447.465 -1.23075 -4.21603 0
M  V30 4543 H 448.071 -2.64781 -3.32823 0
M  V30 4544 N 446.386 1.0089 -1.21074 0
M  V30 4545 C 447.349 2.0775 -0.968129 0
M  V30 4546 C 448.349 1.6069 0.0593445 0
M  V30 4547 O 449.539 1.73293 -0.177525 0
M  V30 4548 C 446.671 3.37794 -0.459108 0
M  V30 4549 H 447.864 2.30707 -1.9161 0
M  V30 4550 H 445.417 1.17807 -1.02719 0
M  V30 4551 H 446.152 3.20516 0.49397 0
M  V30 4552 H 445.937 3.7328 -1.20019 0
M  V30 4553 H 447.427 4.16454 -0.309099 0
M  V30 4554 N 447.864 1.01787 1.20321 0
M  V30 4555 C 448.827 0.593972 2.2137 0
M  V30 4556 C 449.827 -0.336553 1.57239 0
M  V30 4557 O 451.017 -0.125069 1.7375 0
M  V30 4558 C 448.149 -0.132433 3.40643 0
M  V30 4559 H 449.342 1.48791 2.60387 0
M  V30 4560 H 446.895 0.807803 1.33807 0
M  V30 4561 H 447.63 -1.04123 3.0713 0
M  V30 4562 H 447.415 0.53605 3.88418 0
M  V30 4563 H 448.905 -0.416314 4.1552 0
M  V30 4564 N 449.342 -1.36122 0.79427 0
M  V30 4565 C 450.305 -2.28309 0.201889 0
M  V30 4566 C 451.305 -1.49041 -0.603603 0
M  V30 4567 O 452.495 -1.68964 -0.423888 0
M  V30 4568 C 449.627 -3.3321 -0.719978 0
M  V30 4569 H 450.82 -2.82208 1.01481 0
M  V30 4570 H 448.373 -1.45768 0.564037 0
M  V30 4571 H 449.108 -2.84475 -1.55706 0
M  V30 4572 H 448.893 -3.91835 -0.144266 0
M  V30 4573 H 450.383 -4.02044 -1.12916 0
M  V30 4574 N 450.82 -0.546701 -1.47814 0
M  V30 4575 C 452.069 -0.0166497 -2.01693 0
M  V30 4576 C 452.382 1.33721 -1.42752 0
M  V30 4577 O 453.588 1.95658 -1.8823 0
M  V30 4578 C 452.044 0.0206769 -3.59894 0
M  V30 4579 C 451.652 -1.3293 -4.27824 0
M  V30 4580 C 453.396 0.498674 -4.21561 0
M  V30 4581 C 451.303 -1.25165 -5.78003 0
M  V30 4582 H 450.233 -0.0024541 -0.753996 0
M  V30 4583 H 452.884 -0.692984 -1.69912 0
M  V30 4584 H 451.266 0.76244 -3.88591 0
M  V30 4585 H 452.44 -2.08795 -4.10781 0
M  V30 4586 H 450.755 -1.74438 -3.78101 0
M  V30 4587 H 453.352 0.575 -5.31599 0
M  V30 4588 H 453.695 1.5083 -3.88016 0
M  V30 4589 H 454.228 -0.18791 -3.97356 0
M  V30 4590 H 450.967 -2.23695 -6.1615 0
M  V30 4591 H 450.487 -0.53464 -5.97412 0
M  V30 4592 H 452.166 -0.949299 -6.39998 0
M  V30 4593 N 452.299 1.55045 -0.282633 0
M  V30 4594 C 453.715 1.59441 0.0712997 0
M  V30 4595 C 453.915 1.2998 1.53972 0
M  V30 4596 O 452.971 1.06431 2.28973 0
M  V30 4597 C 454.284 2.99097 -0.310104 0
M  V30 4598 C 455.832 3.1194 -0.257343 0
M  V30 4599 C 456.307 4.53875 -0.613297 0
M  V30 4600 N 457.798 4.5974 -0.565134 0
M  V30 4601 C 458.533 5.67603 -0.81326 0
M  V30 4602 N 458.029 6.83582 -1.1264 0
M  V30 4603 N 459.822 5.57187 -0.741553 0
M  V30 4604 H 451.973 1.72458 -1.23984 0
M  V30 4605 H 454.236 0.804549 -0.501403 0
M  V30 4606 H 453.942 3.25516 -1.33163 0
M  V30 4607 H 453.816 3.75616 0.345366 0
M  V30 4608 H 456.203 2.85281 0.754905 0
M  V30 4609 H 456.284 2.37618 -0.947178 0
M  V30 4610 H 455.928 4.81261 -1.62327 0
M  V30 4611 H 455.858 5.26508 0.09841 0
M  V30 4612 H 458.349 3.76427 -0.333294 0
M  V30 4613 H 458.662 7.6175 -1.30219 0
M  V30 4614 H 457.007 6.85179 -1.16425 0
M  V30 4615 H 460.198 4.65457 -0.496705 0
M  V30 4616 H 460.371 6.41171 -0.938306 0
M  V30 4617 N 453.777 0.010035 1.57597 0
M  V30 4618 C 454.74 -0.963029 2.07986 0
M  V30 4619 C 455.74 -1.26619 0.991173 0
M  V30 4620 O 456.93 -1.2097 1.25347 0
M  V30 4621 C 454.062 -2.2851 2.52974 0
M  V30 4622 H 455.255 -0.526971 2.95234 0
M  V30 4623 H 452.808 -0.237639 1.54483 0
M  V30 4624 H 453.543 -2.76784 1.69 0
M  V30 4625 H 453.328 -2.07824 3.32493 0
M  V30 4626 H 454.818 -2.98294 2.9225 0
M  V30 4627 N 455.255 -1.55392 -0.262866 0
M  V30 4628 C 456.165 -1.92077 -1.34698 0
M  V30 4629 C 457.181 -0.819227 -1.53508 0
M  V30 4630 O 458.357 -1.11921 -1.67439 0
M  V30 4631 C 455.422 -2.19407 -2.68443 0
M  V30 4632 C 454.483 -3.42905 -2.58292 0
M  V30 4633 C 453.716 -3.68921 -3.85659 0
M  V30 4634 O 453.939 -2.97275 -4.8681 0
M  V30 4635 O 452.873 -4.62455 -3.85252 0
M  V30 4636 H 456.699 -2.84384 -1.06581 0
M  V30 4637 H 454.284 -1.42069 -0.462264 0
M  V30 4638 H 456.166 -2.38365 -3.47506 0
M  V30 4639 H 454.841 -1.30282 -2.96325 0
M  V30 4640 H 453.748 -3.29272 -1.7757 0
M  V30 4641 H 455.081 -4.32282 -2.35358 0
M  V30 4642 N 456.733 0.527833 -1.48498 0
M  V30 4643 C 457.663 1.64136 -1.66077 0
M  V30 4644 C 458.644 1.62286 -0.509625 0
M  V30 4645 O 459.829 1.79449 -0.742413 0
M  V30 4646 C 456.959 3.02717 -1.70234 0
M  V30 4647 C 455.913 3.19426 -2.8487 0
M  V30 4648 C 455.239 4.5909 -2.74118 0
M  V30 4649 C 456.539 3.01993 -4.26142 0
M  V30 4650 H 458.233 1.4968 -2.593 0
M  V30 4651 H 455.779 0.718654 -1.24785 0
M  V30 4652 H 457.732 3.80491 -1.8112 0
M  V30 4653 H 456.456 3.18201 -0.735911 0
M  V30 4654 H 455.115 2.4407 -2.73542 0
M  V30 4655 H 454.763 4.71413 -1.7544 0
M  V30 4656 H 454.463 4.71214 -3.51042 0
M  V30 4657 H 455.987 5.3896 -2.86974 0
M  V30 4658 H 457.401 3.69558 -4.38292 0
M  V30 4659 H 455.798 3.2561 -5.04082 0
M  V30 4660 H 456.868 1.98396 -4.42456 0
M  V30 4661 N 458.211 1.37122 0.776871 0
M  V30 4662 C 459.174 1.32301 1.8716 0
M  V30 4663 C 460.174 0.228099 1.59174 0
M  V30 4664 O 461.364 0.483642 1.67352 0
M  V30 4665 C 458.496 1.054 3.24197 0
M  V30 4666 H 459.689 2.29673 1.92848 0
M  V30 4667 H 457.242 1.22077 0.97606 0
M  V30 4668 H 457.977 0.0853872 3.24188 0
M  V30 4669 H 457.762 1.84648 3.45901 0
M  V30 4670 H 459.252 1.04664 4.04271 0
M  V30 4671 N 459.689 -1.00246 1.21608 0
M  V30 4672 C 460.636 -2.09073 0.977613 0
M  V30 4673 C 461.606 -1.65815 -0.097297 0
M  V30 4674 O 462.791 -1.90734 0.0503445 0
M  V30 4675 C 459.931 -3.40671 0.551133 0
M  V30 4676 C 459.044 -3.97326 1.69576 0
M  V30 4677 C 458.179 -5.17043 1.2182 0
M  V30 4678 C 457.218 -5.65813 2.335 0
M  V30 4679 N 456.355 -6.76778 1.86859 0
M  V30 4680 H 461.195 -2.28806 1.90924 0
M  V30 4681 H 458.732 -1.12186 0.951452 0
M  V30 4682 H 460.69 -4.16225 0.285097 0
M  V30 4683 H 459.32 -3.20967 -0.343489 0
M  V30 4684 H 458.372 -3.18734 2.07637 0
M  V30 4685 H 459.684 -4.29511 2.53617 0
M  V30 4686 H 458.838 -5.99852 0.908975 0
M  V30 4687 H 457.577 -4.86458 0.347869 0
M  V30 4688 H 456.582 -4.81599 2.65222 0
M  V30 4689 H 457.807 -5.98427 3.21033 0
M  V30 4690 H 455.753 -6.47994 1.02174 0
M  V30 4691 H 455.67 -7.08231 2.64471 0
M  V30 4692 H 456.938 -7.63116 1.58978 0
M  V30 4693 N 461.167 -1.02423 -1.1978 0
M  V30 4694 C 462.1 -0.545641 -2.21581 0
M  V30 4695 C 463.078 0.411024 -1.57319 0
M  V30 4696 O 464.262 0.329223 -1.85603 0
M  V30 4697 C 461.389 0.204973 -3.38079 0
M  V30 4698 C 460.435 -0.70241 -4.20676 0
M  V30 4699 S 461.268 -2.17595 -4.89298 0
M  V30 4700 C 462.424 -1.43572 -6.09211 0
M  V30 4701 H 462.657 -1.4082 -2.61834 0
M  V30 4702 H 460.19 -0.833771 -1.29952 0
M  V30 4703 H 462.148 0.631924 -4.05607 0
M  V30 4704 H 460.809 1.0432 -2.9627 0
M  V30 4705 H 460.002 -0.123193 -5.03849 0
M  V30 4706 H 459.604 -1.06747 -3.58442 0
M  V30 4707 H 461.896 -0.719806 -6.73665 0
M  V30 4708 H 462.839 -2.24388 -6.71607 0
M  V30 4709 H 463.247 -0.935252 -5.56699 0
M  V30 4710 N 462.645 1.35699 -0.801477 0
M  V30 4711 C 463.555 2.33661 -0.209691 0
M  V30 4712 C 464.571 1.6162 0.644591 0
M  V30 4713 O 465.747 1.93529 0.557545 0
M  V30 4714 C 462.812 3.40816 0.636033 0
M  V30 4715 C 461.873 4.28639 -0.238147 0
M  V30 4716 C 461.106 5.30676 0.567307 0
M  V30 4717 O 461.329 5.41174 1.8024 0
M  V30 4718 O 460.263 6.01887 -0.0391336 0
M  V30 4719 H 464.089 2.8606 -1.01996 0
M  V30 4720 H 461.674 1.38379 -0.563164 0
M  V30 4721 H 463.556 4.06301 1.11791 0
M  V30 4722 H 462.231 2.90696 1.42399 0
M  V30 4723 H 461.138 3.66152 -0.767044 0
M  V30 4724 H 462.471 4.82143 -0.989915 0
M  V30 4725 N 464.123 0.554532 1.47522 0
M  V30 4726 C 465.534 0.120446 1.86311 0
M  V30 4727 C 465.885 -1.30904 1.46145 0
M  V30 4728 O 465.01 -1.98434 0.863294 0
M  V30 4729 C 465.605 0.211808 3.38137 0
M  V30 4730 C 464.164 -0.167224 3.76028 0
M  V30 4731 C 463.311 0.560576 2.71575 0
M  V30 4732 H 466.262 0.764408 1.39077 0
M  V30 4733 H 466.283 -0.570275 3.76202 0
M  V30 4734 H 465.795 1.25232 3.6734 0
M  V30 4735 H 463.896 -1.20894 3.52442 0
M  V30 4736 H 464.009 0.189473 4.78725 0
M  V30 4737 H 462.373 0.00396836 2.547 0
M  V30 4738 H 463.156 1.60219 3.0362 0
M  V30 4739 N 465.601 -1.54893 0.290851 0
M  V30 4740 C 466.848 -1.99933 -0.321391 0
M  V30 4741 C 467.176 -1.17927 -1.54672 0
M  V30 4742 O 466.431 -0.240902 -1.94212 0
M  V30 4743 C 466.73 -3.49815 -0.732397 0
M  V30 4744 C 466.396 -4.4921 0.390056 0
M  V30 4745 C 465.058 -4.76107 0.698223 0
M  V30 4746 C 467.41 -5.08453 1.14562 0
M  V30 4747 C 464.738 -5.59514 1.76526 0
M  V30 4748 C 467.09 -5.9302 2.2025 0
M  V30 4749 C 465.754 -6.18232 2.51684 0
M  V30 4750 H 465.024 -0.731608 -0.117605 0
M  V30 4751 H 467.671 -1.87107 0.407839 0
M  V30 4752 H 465.976 -3.60199 -1.54155 0
M  V30 4753 H 467.673 -3.82083 -1.21712 0
M  V30 4754 H 464.263 -4.28372 0.13976 0
M  V30 4755 H 468.447 -4.87683 0.920801 0
M  V30 4756 H 463.703 -5.77289 2.01364 0
M  V30 4757 H 467.877 -6.37955 2.7926 0
M  V30 4758 H 465.504 -6.82653 3.34499 0
M  V30 4759 N 467.08 -0.0183926 -1.57589 0
M  V30 4760 C 468.327 0.662562 -1.91354 0
M  V30 4761 C 468.655 1.72747 -0.893788 0
M  V30 4762 O 467.91 1.9545 0.0988509 0
M  V30 4763 C 468.209 1.32676 -3.31861 0
M  V30 4764 C 467.875 0.393267 -4.49182 0
M  V30 4765 C 466.537 0.136302 -4.81007 0
M  V30 4766 C 468.889 -0.248366 -5.20608 0
M  V30 4767 C 466.217 -0.770282 -5.81621 0
M  V30 4768 C 468.569 -1.14294 -6.22189 0
M  V30 4769 C 467.233 -1.4089 -6.52462 0
M  V30 4770 H 466.503 0.242448 -0.700214 0
M  V30 4771 H 469.15 -0.0778629 -1.91342 0
M  V30 4772 H 467.455 2.14168 -3.28084 0
M  V30 4773 H 469.152 1.86001 -3.55253 0
M  V30 4774 H 465.742 0.603723 -4.24327 0
M  V30 4775 H 469.926 -0.062883 -4.9626 0
M  V30 4776 H 465.182 -0.984154 -6.03427 0
M  V30 4777 H 469.356 -1.64637 -6.76659 0
M  V30 4778 H 466.983 -2.11306 -7.30242 0
M  V30 4779 N 468.558 1.5553 0.254621 0
M  V30 4780 C 469.969 1.67518 0.824286 0
M  V30 4781 C 470.32 0.614429 1.86331 0
M  V30 4782 O 469.445 -0.240736 2.15057 0
M  V30 4783 C 470.04 3.03692 1.50189 0
M  V30 4784 C 468.599 3.17646 2.01935 0
M  V30 4785 C 467.746 2.63373 0.867746 0
M  V30 4786 H 470.697 1.58671 0.0305843 0
M  V30 4787 H 470.718 2.97706 2.36962 0
M  V30 4788 H 470.23 3.80874 0.745431 0
M  V30 4789 H 468.331 2.45273 2.80485 0
M  V30 4790 H 468.444 4.24455 2.22204 0
M  V30 4791 H 466.808 2.20999 1.26616 0
M  V30 4792 H 467.591 3.43074 0.124498 0
M  V30 4793 N 470.036 -0.519951 1.48776 0
M  V30 4794 C 471.261 -1.30447 1.6124 0
M  V30 4795 C 471.686 -1.86055 0.276591 0
M  V30 4796 O 471.044 -1.64915 -0.753183 0
M  V30 4797 C 471.092 -2.42406 2.66967 0
M  V30 4798 O 470.196 -3.45728 2.24824 0
M  V30 4799 H 469.537 -0.385924 0.540332 0
M  V30 4800 H 472.067 -0.624572 1.94834 0
M  V30 4801 H 472.077 -2.88447 2.88552 0
M  V30 4802 H 470.752 -2.01294 3.63941 0
M  V30 4803 H 469.329 -3.05737 2.13494 0
M  V30 4804 N 471.514 -1.37532 -0.769588 0
M  V30 4805 C 472.762 -1.32597 -1.5252 0
M  V30 4806 C 473.083 0.0884294 -1.94799 0
M  V30 4807 O 472.353 1.03289 -1.66458 0
M  V30 4808 H 470.933 -0.487846 -0.565699 0
M  V30 4809 H 473.595 -1.72044 -0.915806 0
M  V30 4810 H 472.691 -1.96643 -2.42359 0
M  V30 4811 N 472.992 0.995999 -1.22138 0
M  V30 4812 C 473.922 2.10387 -1.01289 0
M  V30 4813 C 474.903 1.69975 0.0651454 0
M  V30 4814 O 476.088 1.9396 -0.0964628 0
M  V30 4815 C 473.218 3.42312 -0.586517 0
M  V30 4816 C 472.172 3.96558 -1.61014 0
M  V30 4817 C 471.498 5.24494 -1.0397 0
M  V30 4818 C 472.798 4.27595 -2.99933 0
M  V30 4819 H 474.492 2.28086 -1.93951 0
M  V30 4820 H 472.038 1.09607 -0.933928 0
M  V30 4821 H 473.991 4.19223 -0.427793 0
M  V30 4822 H 472.715 3.24431 0.375761 0
M  V30 4823 H 471.374 3.21776 -1.75658 0
M  V30 4824 H 471.022 5.02953 -0.0688703 0
M  V30 4825 H 470.722 5.61755 -1.72352 0
M  V30 4826 H 472.246 6.04042 -0.892494 0
M  V30 4827 H 473.66 4.95315 -2.8868 0
M  V30 4828 H 472.057 4.76021 -3.6541 0
M  V30 4829 H 473.127 3.35498 -3.50099 0
M  V30 4830 N 474.47 1.03057 1.19235 0
M  V30 4831 C 475.417 0.612832 2.22515 0
M  V30 4832 C 476.387 -0.374224 1.61829 0
M  V30 4833 O 477.572 -0.270501 1.88873 0
M  V30 4834 C 474.712 -0.028475 3.45088 0
M  V30 4835 C 473.825 1.00483 4.20151 0
M  V30 4836 C 472.96 0.333102 5.30155 0
M  V30 4837 C 471.999 1.3522 5.96977 0
M  V30 4838 N 471.136 0.70616 6.9854 0
M  V30 4839 H 475.976 1.49812 2.57605 0
M  V30 4840 H 473.513 0.749658 1.26564 0
M  V30 4841 H 475.471 -0.417548 4.15105 0
M  V30 4842 H 474.101 -0.877334 3.10649 0
M  V30 4843 H 473.153 1.51194 3.49062 0
M  V30 4844 H 474.465 1.77929 4.65986 0
M  V30 4845 H 473.619 -0.110725 6.06599 0
M  V30 4846 H 472.358 -0.473547 4.85396 0
M  V30 4847 H 471.363 1.80627 5.19282 0
M  V30 4848 H 472.588 2.16037 6.4382 0
M  V30 4849 H 470.534 -0.0803667 6.55951 0
M  V30 4850 H 470.451 1.41848 7.42573 0
M  V30 4851 H 471.719 0.286391 7.78974 0
M  V30 4852 N 475.948 -1.35272 0.808662 0
M  V30 4853 C 477.197 -1.97963 0.386483 0
M  V30 4854 C 477.51 -1.64866 -1.05255 0
M  V30 4855 O 478.716 -2.20937 -1.57794 0
M  V30 4856 C 477.172 -3.54162 0.640096 0
M  V30 4857 C 476.78 -3.96166 2.0918 0
M  V30 4858 C 478.524 -4.23553 0.283376 0
M  V30 4859 C 476.431 -5.4522 2.29106 0
M  V30 4860 H 475.361 -0.740742 0.140774 0
M  V30 4861 H 478.012 -1.5431 0.993012 0
M  V30 4862 H 476.394 -3.95983 -0.0364117 0
M  V30 4863 H 477.568 -3.65491 2.80629 0
M  V30 4864 H 475.883 -3.3967 2.40859 0
M  V30 4865 H 478.48 -5.33124 0.410273 0
M  V30 4866 H 478.823 -4.09105 -0.770659 0
M  V30 4867 H 479.356 -3.8716 0.913884 0
M  V30 4868 H 476.095 -5.64638 3.32962 0
M  V30 4869 H 475.615 -5.77457 1.62184 0
M  V30 4870 H 477.294 -6.1171 2.1076 0
M  V30 4871 N 477.426 -0.562348 -1.47226 0
M  V30 4872 C 478.672 -0.0402761 -2.0276 0
M  V30 4873 C 479.005 1.30823 -1.43523 0
M  V30 4874 O 478.28 1.85249 -0.592705 0
M  V30 4875 C 478.563 0.047311 -3.60069 0
M  V30 4876 C 478.416 -1.32865 -4.29729 0
M  V30 4877 C 479.735 0.758182 -4.3352 0
M  V30 4878 H 476.854 -0.0161105 -0.736824 0
M  V30 4879 H 479.496 -0.725628 -1.75598 0
M  V30 4880 H 477.646 0.630986 -3.83342 0
M  V30 4881 H 479.318 -1.95593 -4.17781 0
M  V30 4882 H 477.561 -1.90195 -3.89882 0
M  V30 4883 H 478.232 -1.22004 -5.38349 0
M  V30 4884 H 480.708 0.262546 -4.15271 0
M  V30 4885 H 479.584 0.78844 -5.43208 0
M  V30 4886 H 479.845 1.81537 -4.03109 0
M  V30 4887 N 478.904 1.54736 -0.299062 0
M  V30 4888 C 480.134 2.04215 0.312992 0
M  V30 4889 C 480.542 1.17596 1.48215 0
M  V30 4890 O 479.885 0.193835 1.82674 0
M  V30 4891 C 479.947 3.49696 0.833862 0
M  V30 4892 C 479.611 4.56518 -0.20977 0
M  V30 4893 C 480.608 5.09442 -1.03756 0
M  V30 4894 C 478.293 5.01073 -0.35091 0
M  V30 4895 C 480.287 6.05459 -1.99244 0
M  V30 4896 C 477.974 5.9691 -1.30924 0
M  V30 4897 C 478.972 6.48987 -2.1285 0
M  V30 4898 O 478.66 7.42947 -3.07059 0
M  V30 4899 H 478.392 0.672128 0.0722494 0
M  V30 4900 H 480.946 2.00718 -0.436043 0
M  V30 4901 H 479.176 3.5051 1.63339 0
M  V30 4902 H 480.865 3.82381 1.36159 0
M  V30 4903 H 481.631 4.75816 -0.939376 0
M  V30 4904 H 477.51 4.60168 0.276813 0
M  V30 4905 H 481.054 6.46031 -2.63229 0
M  V30 4906 H 476.951 6.29953 -1.40815 0
M  V30 4907 H 477.719 7.60743 -3.02015 0
M  V30 4908 N 480.382 0.0267497 1.57577 0
M  V30 4909 C 481.793 -0.512413 1.79531 0
M  V30 4910 C 482.144 -1.72391 0.936791 0
M  V30 4911 O 481.269 -2.15903 0.146543 0
M  V30 4912 C 481.864 -0.936378 3.25603 0
M  V30 4913 C 480.423 -1.42067 3.4856 0
M  V30 4914 C 479.57 -0.384278 2.74624 0
M  V30 4915 H 482.521 0.252797 1.56674 0
M  V30 4916 H 482.542 -1.80088 3.35184 0
M  V30 4917 H 482.054 -0.0544332 3.88062 0
M  V30 4918 H 480.155 -2.32262 2.9135 0
M  V30 4919 H 480.268 -1.42968 4.57271 0
M  V30 4920 H 478.632 -0.851855 2.40032 0
M  V30 4921 H 479.415 0.489159 3.39797 0
M  V30 4922 N 481.861 -1.55662 -0.24637 0
M  V30 4923 C 483.091 -1.81312 -0.990438 0
M  V30 4924 C 483.499 -0.600234 -1.79426 0
M  V30 4925 O 482.842 0.440537 -1.78339 0
M  V30 4926 C 482.904 -3.0032 -1.97607 0
M  V30 4927 C 482.568 -4.36322 -1.35912 0
M  V30 4928 C 483.565 -5.14295 -0.761348 0
M  V30 4929 C 481.25 -4.83019 -1.37833 0
M  V30 4930 C 483.244 -6.37114 -0.190998 0
M  V30 4931 C 480.931 -6.05786 -0.804128 0
M  V30 4932 C 481.929 -6.82672 -0.211489 0
M  V30 4933 O 481.617 -8.03121 0.353845 0
M  V30 4934 H 481.349 -0.607233 -0.297058 0
M  V30 4935 H 483.903 -2.0356 -0.274351 0
M  V30 4936 H 482.133 -2.73829 -2.73047 0
M  V30 4937 H 483.822 -3.13057 -2.58361 0
M  V30 4938 H 484.588 -4.79337 -0.739013 0
M  V30 4939 H 480.467 -4.23165 -1.829 0
M  V30 4940 H 484.011 -6.97069 0.272206 0
M  V30 4941 H 479.908 -6.40222 -0.823792 0
M  V30 4942 H 480.676 -8.18131 0.245761 0
M  V30 4943 N 483.339 0.512053 -1.4905 0
M  V30 4944 C 484.616 1.27337 -1.48474 0
M  V30 4945 C 484.996 2.1009 -0.206301 0
M  V30 4946 O 484.344 2.136 0.811609 0
M  V30 4947 C 484.554 2.13954 -2.75726 0
M  V30 4948 C 485.902 2.73507 -3.24776 0
M  V30 4949 O 486.926 2.24229 -2.76767 0
M  V30 4950 O 485.785 3.63186 -4.08361 0
M  V30 4951 H 482.879 0.575652 -0.593762 0
M  V30 4952 H 485.425 0.527232 -1.61302 0
M  V30 4953 H 484.197 1.52709 -3.60272 0
M  V30 4954 H 483.82 2.95782 -2.65705 0
M  V30 4955 N 484.817 1.37938 0.762283 0
M  V30 4956 C 486.045 1.36883 1.55147 0
M  V30 4957 C 486.46 -0.0435348 1.8875 0
M  V30 4958 O 485.817 -1.00786 1.52146 0
M  V30 4959 C 485.868 2.21624 2.85596 0
M  V30 4960 O 485.589 3.57358 2.5343 0
M  V30 4961 C 487.09 2.28653 3.7978 0
M  V30 4962 H 484.31 0.468521 0.480343 0
M  V30 4963 H 486.854 1.81404 0.944079 0
M  V30 4964 H 485.009 1.80588 3.42734 0
M  V30 4965 H 485.423 4.01883 3.37032 0
M  V30 4966 H 486.897 2.9225 4.68288 0
M  V30 4967 H 487.374 1.29767 4.19592 0
M  V30 4968 H 487.98 2.70043 3.28568 0
M  V30 4969 N 486.295 -0.989507 1.22664 0
M  V30 4970 C 487.523 -1.76496 1.07967 0
M  V30 4971 C 487.938 -1.85148 -0.369543 0
M  V30 4972 O 487.295 -1.32408 -1.25596 0
M  V30 4973 C 487.346 -3.19642 1.68853 0
M  V30 4974 O 487.067 -3.11453 3.08105 0
M  V30 4975 C 488.568 -4.13621 1.59475 0
M  V30 4976 H 485.788 -0.55418 0.378319 0
M  V30 4977 H 488.332 -1.24378 1.62328 0
M  V30 4978 H 486.487 -3.68816 1.18547 0
M  V30 4979 H 486.901 -4.01499 3.37489 0
M  V30 4980 H 488.375 -5.11801 2.06795 0
M  V30 4981 H 488.852 -4.35718 0.55191 0
M  V30 4982 H 489.458 -3.70346 2.09103 0
M  V30 4983 N 487.773 -1.03688 -1.18687 0
M  V30 4984 C 489.184 -0.766488 -1.70241 0
M  V30 4985 C 489.535 0.713052 -1.82784 0
M  V30 4986 O 488.66 1.55529 -1.50465 0
M  V30 4987 C 489.255 -1.38475 -3.09209 0
M  V30 4988 C 487.814 -1.16276 -3.5799 0
M  V30 4989 C 486.961 -1.4778 -2.34641 0
M  V30 4990 H 489.912 -1.20378 -1.03415 0
M  V30 4991 H 489.933 -0.785939 -3.72295 0
M  V30 4992 H 489.445 -2.46157 -3.00048 0
M  V30 4993 H 487.546 -0.104508 -3.72453 0
M  V30 4994 H 487.659 -1.8571 -4.41643 0
M  V30 4995 H 486.023 -0.897366 -2.38368 0
M  V30 4996 H 486.806 -2.56562 -2.28102 0
M  V30 4997 N 489.251 1.34841 -0.815825 0
M  V30 4998 C 490.498 1.98499 -0.400535 0
M  V30 4999 C 490.826 1.64699 1.03463 0
M  V30 5000 O 490.081 0.907006 1.73412 0
M  V30 5001 C 490.38 3.53273 -0.541541 0
M  V30 5002 C 490.046 4.06966 -1.94138 0
M  V30 5003 C 488.708 4.21341 -2.32433 0
M  V30 5004 C 491.06 4.35933 -2.85677 0
M  V30 5005 C 488.388 4.62007 -3.61617 0
M  V30 5006 C 490.74 4.78042 -4.14317 0
M  V30 5007 C 489.404 4.90622 -4.52599 0
M  V30 5008 H 488.674 0.72636 -0.146566 0
M  V30 5009 H 491.321 1.60902 -1.0384 0
M  V30 5010 H 489.626 3.91387 0.179741 0
M  V30 5011 H 491.323 4.00497 -0.20085 0
M  V30 5012 H 487.913 3.96235 -1.63388 0
M  V30 5013 H 492.097 4.24372 -2.57337 0
M  V30 5014 H 487.353 4.69937 -3.91113 0
M  V30 5015 H 491.527 4.99415 -4.85342 0
M  V30 5016 H 489.154 5.2189 -5.52752 0
M  V30 5017 N 490.729 0.570148 1.46925 0
M  V30 5018 C 491.975 0.0510284 2.02736 0
M  V30 5019 C 492.308 -1.3006 1.44215 0
M  V30 5020 O 491.583 -1.84932 0.602521 0
M  V30 5021 C 491.866 -0.028215 3.60089 0
M  V30 5022 C 491.719 1.35142 4.29018 0
M  V30 5023 C 493.038 -0.735181 4.33916 0
M  V30 5024 H 490.157 0.0200178 0.736728 0
M  V30 5025 H 492.799 0.73493 1.75211 0
M  V30 5026 H 490.949 -0.610648 3.83671 0
M  V30 5027 H 492.621 1.97806 4.16738 0
M  V30 5028 H 490.864 1.9226 3.88868 0
M  V30 5029 H 491.535 1.24857 5.37694 0
M  V30 5030 H 494.011 -0.240519 4.15404 0
M  V30 5031 H 492.887 -0.759622 5.43618 0
M  V30 5032 H 493.148 -1.79397 4.04066 0
M  V30 5033 N 492.207 -1.54576 0.307264 0
M  V30 5034 C 493.154 -2.23751 -0.56604 0
M  V30 5035 C 494.124 -1.22235 -1.12462 0
M  V30 5036 O 495.309 -1.50873 -1.16799 0
M  V30 5037 C 492.449 -2.98661 -1.72903 0
M  V30 5038 C 491.562 -4.14963 -1.20124 0
M  V30 5039 C 490.697 -4.77441 -2.3286 0
M  V30 5040 C 489.736 -5.85875 -1.77247 0
M  V30 5041 N 488.873 -6.42282 -2.8358 0
M  V30 5042 H 493.713 -2.97984 0.0304578 0
M  V30 5043 H 491.25 -1.47076 0.0268015 0
M  V30 5044 H 493.208 -3.40329 -2.41313 0
M  V30 5045 H 491.838 -2.26793 -2.29706 0
M  V30 5046 H 490.89 -3.78193 -0.409198 0
M  V30 5047 H 492.202 -4.93066 -0.754171 0
M  V30 5048 H 491.356 -5.21993 -3.09205 0
M  V30 5049 H 490.095 -3.98684 -2.80896 0
M  V30 5050 H 489.1 -5.40741 -0.993926 0
M  V30 5051 H 490.325 -6.6652 -1.30107 0
M  V30 5052 H 488.271 -5.66406 -3.30939 0
M  V30 5053 H 488.188 -7.1575 -2.43388 0
M  V30 5054 H 489.456 -6.91492 -3.59804 0
M  V30 5055 N 493.685 -0.035106 -1.57561 0
M  V30 5056 C 494.934 0.641604 -1.91223 0
M  V30 5057 C 495.247 1.72944 -0.913761 0
M  V30 5058 O 496.453 2.46321 -1.14185 0
M  V30 5059 C 494.909 1.19249 -3.3957 0
M  V30 5060 C 494.517 0.137616 -4.47789 0
M  V30 5061 C 496.261 1.84537 -3.82291 0
M  V30 5062 C 494.168 0.700478 -5.87237 0
M  V30 5063 H 493.098 0.243417 -0.713627 0
M  V30 5064 H 495.749 -0.101382 -1.8322 0
M  V30 5065 H 494.131 1.98728 -3.42525 0
M  V30 5066 H 495.305 -0.635153 -4.56402 0
M  V30 5067 H 493.62 -0.416855 -4.14308 0
M  V30 5068 H 496.217 2.27616 -4.83834 0
M  V30 5069 H 496.56 2.69054 -3.17672 0
M  V30 5070 H 497.093 1.11739 -3.81784 0
M  V30 5071 H 493.832 -0.106693 -6.55413 0
M  V30 5072 H 493.352 1.4416 -5.82218 0
M  V30 5073 H 495.031 1.18837 -6.35993 0
M  V30 5074 N 495.163 1.55791 0.238111 0
M  V30 5075 C 496.388 1.8244 0.986432 0
M  V30 5076 C 496.813 0.613314 1.7782 0
M  V30 5077 O 496.171 -0.437767 1.75935 0
M  V30 5078 C 496.219 3.06917 1.893 0
M  V30 5079 O 495.323 2.84449 2.98601 0
M  V30 5080 H 494.664 0.601975 0.280218 0
M  V30 5081 H 497.194 2.02987 0.256437 0
M  V30 5082 H 497.204 3.36583 2.30598 0
M  V30 5083 H 495.879 3.947 1.31091 0
M  V30 5084 H 494.456 2.65972 2.61368 0
M  V30 5085 N 496.642 -0.504142 1.49319 0
M  V30 5086 C 497.891 -1.25507 1.57895 0
M  V30 5087 C 498.204 -1.93735 0.269433 0
M  V30 5088 O 499.41 -2.70492 0.233706 0
M  V30 5089 C 497.866 -2.27869 2.78574 0
M  V30 5090 C 497.474 -1.65594 4.16272 0
M  V30 5091 C 499.218 -3.0381 2.96479 0
M  V30 5092 C 497.125 -2.66048 5.28178 0
M  V30 5093 H 496.055 -0.47212 0.587894 0
M  V30 5094 H 498.706 -0.52931 1.757 0
M  V30 5095 H 497.088 -3.03594 2.54257 0
M  V30 5096 H 498.262 -0.958826 4.50714 0
M  V30 5097 H 496.577 -1.02055 4.037 0
M  V30 5098 H 499.174 -3.78925 3.77253 0
M  V30 5099 H 499.517 -3.61235 2.06918 0
M  V30 5100 H 500.05 -2.352 3.20821 0
M  V30 5101 H 496.789 -2.13408 6.19788 0
M  V30 5102 H 496.309 -3.34009 4.98195 0
M  V30 5103 H 497.988 -3.28536 5.57381 0
M  V30 5104 N 498.12 -1.38341 -0.754957 0
M  V30 5105 C 499.07 -1.31964 -1.85929 0
M  V30 5106 C 500.054 -0.204181 -1.59599 0
M  V30 5107 O 501.246 -0.440036 -1.71443 0
M  V30 5108 C 498.375 -1.14565 -3.2362 0
M  V30 5109 C 497.461 -2.30727 -3.55846 0
M  V30 5110 N 497.852 -3.56165 -3.59138 0
M  V30 5111 C 496.15 -2.23249 -3.86104 0
M  V30 5112 C 496.851 -4.32865 -3.88591 0
M  V30 5113 N 495.827 -3.62203 -4.05351 0
M  V30 5114 H 499.629 -2.2694 -1.8675 0
M  V30 5115 H 497.143 -1.31553 -0.952243 0
M  V30 5116 H 499.14 -1.0808 -4.02647 0
M  V30 5117 H 497.8 -0.205212 -3.24051 0
M  V30 5118 H 498.811 -3.89854 -3.40932 0
M  V30 5119 H 495.488 -1.37357 -3.94258 0
M  V30 5120 H 496.878 -5.41504 -3.97773 0
M  V30 5121 N 499.598 0.982988 -1.23187 0
M  V30 5122 C 500.508 2.10907 -1.02739 0
M  V30 5123 C 501.524 1.73979 0.0273188 0
M  V30 5124 O 502.7 2.00702 -0.16757 0
M  V30 5125 C 499.765 3.41142 -0.618304 0
M  V30 5126 C 498.826 3.92112 -1.74777 0
M  V30 5127 C 498.059 5.16131 -1.3581 0
M  V30 5128 O 498.282 5.6989 -0.241201 0
M  V30 5129 O 497.216 5.61103 -2.17824 0
M  V30 5130 H 501.042 2.31046 -1.97108 0
M  V30 5131 H 498.627 1.09284 -1.01869 0
M  V30 5132 H 500.509 4.19488 -0.400982 0
M  V30 5133 H 499.184 3.2234 0.296421 0
M  V30 5134 H 498.091 3.14895 -2.0197 0
M  V30 5135 H 499.424 4.15364 -2.64071 0
M  V30 5136 N 501.076 1.04316 1.18135 0
M  V30 5137 C 502.322 0.749128 1.88457 0
M  V30 5138 C 502.655 -0.72149 1.803 0
M  V30 5139 O 501.93 -1.52676 1.205 0
M  V30 5140 C 502.213 1.21905 3.38838 0
M  V30 5141 C 502.066 2.75195 3.55792 0
M  V30 5142 C 503.385 0.811085 4.32561 0
M  V30 5143 H 500.504 0.273611 0.684329 0
M  V30 5144 H 503.146 1.29561 1.38975 0
M  V30 5145 H 501.296 0.754137 3.8111 0
M  V30 5146 H 502.968 3.29743 3.22595 0
M  V30 5147 H 501.211 3.14899 2.98364 0
M  V30 5148 H 501.882 3.03135 4.61317 0
M  V30 5149 H 504.358 1.21118 3.98082 0
M  V30 5150 H 503.234 1.16761 5.36338 0
M  V30 5151 H 503.495 -0.285596 4.41177 0
M  V30 5152 N 502.554 -1.34406 0.822964 0
M  V30 5153 C 503.8 -1.98578 0.411666 0
M  V30 5154 C 504.133 -1.65093 -1.02264 0
M  V30 5155 O 503.408 -0.92258 -1.71227 0
M  V30 5156 C 503.691 -3.54823 0.614235 0
M  V30 5157 C 503.544 -3.9805 2.09466 0
M  V30 5158 C 504.863 -4.40071 0.050221 0
M  V30 5159 H 501.982 -0.721355 0.151047 0
M  V30 5160 H 504.624 -1.59301 1.03554 0
M  V30 5161 H 502.774 -3.88411 0.0831774 0
M  V30 5162 H 504.446 -3.74795 2.68936 0
M  V30 5163 H 502.689 -3.4836 2.5851 0
M  V30 5164 H 503.36 -5.06819 2.18721 0
M  V30 5165 H 505.836 -4.13037 0.503953 0
M  V30 5166 H 504.712 -5.48452 0.221759 0
M  V30 5167 H 504.973 -4.29576 -1.04482 0
M  V30 5168 N 504.032 -0.577932 -1.46621 0
M  V30 5169 C 504.979 0.158048 -2.30258 0
M  V30 5170 C 505.949 0.888669 -1.40328 0
M  V30 5171 O 507.134 0.880283 -1.6928 0
M  V30 5172 C 504.274 1.16884 -3.24703 0
M  V30 5173 C 503.387 0.442163 -4.29731 0
M  V30 5174 C 502.522 1.44007 -5.11308 0
M  V30 5175 C 501.561 0.69952 -6.0809 0
M  V30 5176 N 500.698 1.64525 -6.82551 0
M  V30 5177 H 505.538 -0.561242 -2.92667 0
M  V30 5178 H 503.075 -0.288591 -1.44241 0
M  V30 5179 H 505.033 1.7677 -3.779 0
M  V30 5180 H 503.663 1.85591 -2.64113 0
M  V30 5181 H 502.715 -0.271632 -3.79429 0
M  V30 5182 H 504.027 -0.136992 -4.98612 0
M  V30 5183 H 503.181 2.11186 -5.68758 0
M  V30 5184 H 501.92 2.05315 -4.42377 0
M  V30 5185 H 500.925 0.0139217 -5.49798 0
M  V30 5186 H 502.15 0.091894 -6.79038 0
M  V30 5187 H 500.096 2.24653 -6.16334 0
M  V30 5188 H 500.013 1.11878 -7.47676 0
M  V30 5189 H 501.281 2.30754 -7.44562 0
M  V30 5190 N 505.51 1.54411 -0.315457 0
M  V30 5191 C 506.738 2.04833 0.291738 0
M  V30 5192 C 507.153 1.19203 1.46411 0
M  V30 5193 O 506.51 0.220867 1.81159 0
M  V30 5194 C 506.561 3.53969 0.73404 0
M  V30 5195 O 506.282 4.36346 -0.391682 0
M  V30 5196 C 507.783 4.2045 1.40489 0
M  V30 5197 H 505.003 0.668195 0.0612947 0
M  V30 5198 H 507.547 1.99276 -0.45929 0
M  V30 5199 H 505.702 3.5984 1.43506 0
M  V30 5200 H 506.116 5.24481 -0.0447088 0
M  V30 5201 H 507.59 5.26278 1.66539 0
M  V30 5202 H 508.067 3.71067 2.3496 0
M  V30 5203 H 508.673 4.18694 0.746662 0
M  V30 5204 N 506.988 0.0434614 1.5754 0
M  V30 5205 C 507.918 -0.931651 2.14109 0
M  V30 5206 C 508.899 -1.32971 1.06079 0
M  V30 5207 O 510.084 -1.40579 1.33982 0
M  V30 5208 C 507.214 -2.20914 2.67982 0
M  V30 5209 C 506.168 -1.95139 3.80926 0
M  V30 5210 C 505.494 -3.29276 4.21285 0
M  V30 5211 C 506.794 -1.27913 5.06395 0
M  V30 5212 H 508.488 -0.460497 2.95837 0
M  V30 5213 H 506.034 -0.220058 1.42309 0
M  V30 5214 H 507.987 -2.89522 3.06194 0
M  V30 5215 H 506.711 -2.70221 1.83434 0
M  V30 5216 H 505.37 -1.28945 3.43175 0
M  V30 5217 H 505.018 -3.76369 3.33699 0
M  V30 5218 H 504.718 -3.12831 4.97404 0
M  V30 5219 H 506.242 -3.99129 4.62091 0
M  V30 5220 H 507.656 -1.86544 5.42102 0
M  V30 5221 H 506.053 -1.2182 5.87605 0
M  V30 5222 H 507.123 -0.254066 4.84234 0
M  V30 5223 N 508.466 -1.55915 -0.229846 0
M  V30 5224 C 509.712 -1.78807 -0.956868 0
M  V30 5225 C 510.045 -0.611687 -1.84315 0
M  V30 5226 O 509.32 0.389398 -1.90562 0
M  V30 5227 C 509.603 -3.11718 -1.80288 0
M  V30 5228 C 509.456 -4.3979 -0.943649 0
M  V30 5229 C 510.775 -3.40999 -2.78222 0
M  V30 5230 H 507.894 -0.6505 -0.346437 0
M  V30 5231 H 510.536 -1.88648 -0.226252 0
M  V30 5232 H 508.686 -3.03459 -2.42579 0
M  V30 5233 H 510.358 -4.60059 -0.338121 0
M  V30 5234 H 508.601 -4.33086 -0.248705 0
M  V30 5235 H 509.272 -5.29208 -1.5698 0
M  V30 5236 H 511.748 -3.49332 -2.26067 0
M  V30 5237 H 510.624 -4.35183 -3.34526 0
M  V30 5238 H 510.885 -2.62754 -3.55546 0
M  V30 5239 N 509.944 0.496216 -1.49584 0
M  V30 5240 C 510.854 1.62352 -1.69349 0
M  V30 5241 C 511.87 1.64184 -0.576147 0
M  V30 5242 O 513.046 1.82517 -0.85144 0
M  V30 5243 C 510.111 2.98698 -1.76013 0
M  V30 5244 C 509.172 3.07454 -2.99617 0
M  V30 5245 C 508.405 4.37296 -3.05953 0
M  V30 5246 O 508.628 5.2637 -2.19752 0
M  V30 5247 O 507.562 4.51124 -3.9846 0
M  V30 5248 H 511.388 1.48606 -2.64859 0
M  V30 5249 H 508.973 0.673022 -1.33382 0
M  V30 5250 H 510.855 3.79725 -1.82721 0
M  V30 5251 H 509.53 3.12696 -0.836828 0
M  V30 5252 H 508.437 2.25597 -2.98424 0
M  V30 5253 H 509.77 2.98385 -3.91443 0
M  V30 5254 N 511.423 1.38739 0.74761 0
M  V30 5255 C 512.386 1.36241 1.84312 0
M  V30 5256 C 513.386 0.261811 1.58654 0
M  V30 5257 O 514.576 0.519031 1.66288 0
M  V30 5258 C 511.708 1.12253 3.21888 0
M  V30 5259 H 512.901 2.33712 1.87933 0
M  V30 5260 H 510.454 1.2412 0.949946 0
M  V30 5261 H 511.189 0.154133 3.23934 0
M  V30 5262 H 510.974 1.91943 3.41907 0
M  V30 5263 H 512.464 1.13215 4.0196 0
M  V30 5264 N 512.901 -0.976442 1.23707 0
M  V30 5265 C 514.15 -1.71254 1.06559 0
M  V30 5266 C 514.463 -1.91528 -0.397024 0
M  V30 5267 O 515.669 -2.62625 -0.688518 0
M  V30 5268 C 514.125 -3.08207 1.8584 0
M  V30 5269 C 513.733 -2.95806 3.36456 0
M  V30 5270 C 515.477 -3.85749 1.77194 0
M  V30 5271 C 513.384 -4.28015 4.08114 0
M  V30 5272 H 512.314 -0.642171 0.395136 0
M  V30 5273 H 514.965 -1.08877 1.4771 0
M  V30 5274 H 513.347 -3.71363 1.37498 0
M  V30 5275 H 514.521 -2.41716 3.92314 0
M  V30 5276 H 512.836 -2.31736 3.45959 0
M  V30 5277 H 515.433 -4.83633 2.28041 0
M  V30 5278 H 515.776 -4.09752 0.735477 0
M  V30 5279 H 516.309 -3.29303 2.23169 0
M  V30 5280 H 513.048 -4.09208 5.12083 0
M  V30 5281 H 512.568 -4.81955 3.57043 0
M  V30 5282 H 514.247 -4.96681 4.14629 0
M  V30 5283 N 514.379 -1.04941 -1.1758 0
M  V30 5284 C 515.628 -0.753124 -1.87112 0
M  V30 5285 C 515.941 0.722507 -1.81767 0
M  V30 5286 O 517.147 1.13265 -2.46746 0
M  V30 5287 C 515.603 -1.29695 -3.35719 0
M  V30 5288 C 515.211 -2.80184 -3.49572 0
M  V30 5289 C 516.955 -1.07759 -4.10595 0
M  V30 5290 C 514.862 -3.2788 -4.92187 0
M  V30 5291 H 513.792 -0.278034 -0.700866 0
M  V30 5292 H 516.443 -1.26637 -1.32798 0
M  V30 5293 H 514.825 -0.711522 -3.89555 0
M  V30 5294 H 515.999 -3.44561 -3.05965 0
M  V30 5295 H 514.314 -3.00632 -2.88113 0
M  V30 5296 H 516.911 -1.40899 -5.15802 0
M  V30 5297 H 517.254 -0.0152302 -4.16297 0
M  V30 5298 H 517.787 -1.62809 -3.62957 0
M  V30 5299 H 514.526 -4.33535 -4.91658 0
M  V30 5300 H 514.046 -2.68245 -5.36475 0
M  V30 5301 H 515.725 -3.22412 -5.60945 0
M  V30 5302 N 515.857 1.33968 -0.830081 0
M  V30 5303 C 516.787 2.31911 -0.271911 0
M  V30 5304 C 517.768 1.58571 0.61556 0
M  V30 5305 O 518.953 1.86514 0.540946 0
M  V30 5306 C 516.083 3.42737 0.561146 0
M  V30 5307 C 515.037 4.27383 -0.229789 0
M  V30 5308 C 514.363 5.29742 0.726463 0
M  V30 5309 C 515.663 5.02 -1.44197 0
M  V30 5310 H 517.357 2.78844 -1.09025 0
M  V30 5311 H 514.903 1.34061 -0.52571 0
M  V30 5312 H 516.856 4.10276 0.961867 0
M  V30 5313 H 515.58 2.94471 1.41261 0
M  V30 5314 H 514.239 3.61456 -0.611964 0
M  V30 5315 H 513.887 4.77736 1.57408 0
M  V30 5316 H 513.587 5.87255 0.20142 0
M  V30 5317 H 515.111 6.00149 1.12489 0
M  V30 5318 H 516.525 5.62355 -1.11488 0
M  V30 5319 H 514.922 5.69122 -1.90317 0
M  V30 5320 H 515.992 4.31281 -2.2164 0
M  V30 5321 N 517.335 0.585699 1.46312 0
M  V30 5322 C 518.581 0.0725284 2.0267 0
M  V30 5323 C 518.914 -1.28523 1.45586 0
M  V30 5324 O 518.189 -1.84283 0.622101 0
M  V30 5325 C 518.472 0.0099788 3.60099 0
M  V30 5326 C 518.325 1.39685 4.27561 0
M  V30 5327 C 519.644 -0.689117 4.34671 0
M  V30 5328 H 516.763 0.0278307 0.736474 0
M  V30 5329 H 519.405 0.753472 1.74421 0
M  V30 5330 H 517.555 -0.56992 3.84297 0
M  V30 5331 H 519.227 2.02215 4.14617 0
M  V30 5332 H 517.47 1.96374 3.86807 0
M  V30 5333 H 518.141 1.30553 5.36339 0
M  V30 5334 H 520.617 -0.196446 4.15636 0
M  V30 5335 H 519.493 -0.701921 5.44393 0
M  V30 5336 H 519.754 -1.75101 4.05946 0
M  V30 5337 N 518.813 -1.54241 0.323641 0
M  V30 5338 C 520.06 -2.0057 -0.27891 0
M  V30 5339 C 520.388 -1.21181 -1.52136 0
M  V30 5340 O 519.643 -0.282043 -1.93657 0
M  V30 5341 C 519.942 -3.5129 -0.658031 0
M  V30 5342 C 519.608 -4.48281 0.485252 0
M  V30 5343 C 518.27 -4.74519 0.799055 0
M  V30 5344 C 520.622 -5.05909 1.25322 0
M  V30 5345 C 517.95 -5.55643 1.88354 0
M  V30 5346 C 520.302 -5.88215 2.32779 0
M  V30 5347 C 518.966 -6.12755 2.64741 0
M  V30 5348 H 518.236 -0.733938 -0.10206 0
M  V30 5349 H 520.883 -1.862 0.447435 0
M  V30 5350 H 519.188 -3.63388 -1.4648 0
M  V30 5351 H 520.885 -3.84578 -1.1358 0
M  V30 5352 H 517.475 -4.27979 0.230593 0
M  V30 5353 H 521.659 -4.8562 1.02404 0
M  V30 5354 H 516.915 -5.72888 2.13564 0
M  V30 5355 H 521.089 -6.31888 2.92729 0
M  V30 5356 H 518.716 -6.75404 3.48904 0
M  V30 5357 N 520.291 -0.0518155 -1.57515 0
M  V30 5358 C 521.221 0.920283 -2.146 0
M  V30 5359 C 522.202 1.32406 -1.06783 0
M  V30 5360 O 523.387 1.39866 -1.34726 0
M  V30 5361 C 520.517 2.1949 -2.6915 0
M  V30 5362 C 519.471 1.93116 -3.81956 0
M  V30 5363 C 518.797 3.27037 -4.23026 0
M  V30 5364 C 520.097 1.25225 -5.07066 0
M  V30 5365 H 521.791 0.444801 -2.96077 0
M  V30 5366 H 519.337 0.212508 -1.42423 0
M  V30 5367 H 521.29 2.87894 -3.07725 0
M  V30 5368 H 520.014 2.69244 -1.84865 0
M  V30 5369 H 518.673 1.27123 -3.43854 0
M  V30 5370 H 518.321 3.74595 -3.3569 0
M  V30 5371 H 518.021 3.10189 -4.99056 0
M  V30 5372 H 519.545 3.96673 -4.64202 0
M  V30 5373 H 520.959 1.83666 -5.43083 0
M  V30 5374 H 519.356 1.18702 -5.88243 0
M  V30 5375 H 520.426 0.228382 -4.84362 0
M  V30 5376 N 521.769 1.56035 0.221574 0
M  V30 5377 C 523.015 1.79312 0.947372 0
M  V30 5378 C 523.348 0.621453 1.83988 0
M  V30 5379 O 522.623 -0.379287 1.90766 0
M  V30 5380 C 522.906 3.1267 1.78633 0
M  V30 5381 C 522.759 4.40284 0.920312 0
M  V30 5382 C 524.078 3.4247 2.7641 0
M  V30 5383 H 521.197 0.652328 0.342982 0
M  V30 5384 H 523.839 1.88765 0.216244 0
M  V30 5385 H 521.989 3.04741 2.40967 0
M  V30 5386 H 523.661 4.60232 0.313718 0
M  V30 5387 H 521.904 4.33212 0.225734 0
M  V30 5388 H 522.575 5.30033 1.54171 0
M  V30 5389 H 525.051 3.50526 2.24211 0
M  V30 5390 H 523.927 4.3695 3.32213 0
M  V30 5391 H 524.188 2.64635 3.54148 0
M  V30 5392 N 523.247 -0.488276 1.49845 0
M  V30 5393 C 524.18 -1.60651 1.62069 0
M  V30 5394 C 525.158 -1.5568 0.469308 0
M  V30 5395 O 526.342 -1.75553 0.686551 0
M  V30 5396 C 523.469 -2.99197 1.58741 0
M  V30 5397 C 522.515 -3.22385 2.79232 0
M  V30 5398 S 523.348 -3.04133 4.40753 0
M  V30 5399 C 524.504 -4.45052 4.4009 0
M  V30 5400 H 524.737 -1.50039 2.56662 0
M  V30 5401 H 522.27 -0.674371 1.38894 0
M  V30 5402 H 524.228 -3.79081 1.57506 0
M  V30 5403 H 522.889 -3.07213 0.654136 0
M  V30 5404 H 522.082 -4.23557 2.73159 0
M  V30 5405 H 521.684 -2.50245 2.77945 0
M  V30 5406 H 523.976 -5.37375 4.12594 0
M  V30 5407 H 524.919 -4.56172 5.41583 0
M  V30 5408 H 525.327 -4.26327 3.70008 0
M  V30 5409 N 524.725 -1.39134 -0.740242 0
M  V30 5410 C 525.955 -1.39132 -1.52728 0
M  V30 5411 C 526.363 0.0173133 -1.89192 0
M  V30 5412 O 525.706 0.997715 -1.54244 0
M  V30 5413 C 525.768 -2.1952 -2.84695 0
M  V30 5414 C 525.432 -3.68203 -2.70695 0
M  V30 5415 C 526.429 -4.61401 -2.39593 0
M  V30 5416 C 524.114 -4.11724 -2.8773 0
M  V30 5417 C 526.108 -5.96102 -2.25701 0
M  V30 5418 C 523.795 -5.46503 -2.73456 0
M  V30 5419 C 524.793 -6.38506 -2.42486 0
M  V30 5420 O 524.481 -7.70803 -2.28295 0
M  V30 5421 H 524.213 -0.477263 -0.478744 0
M  V30 5422 H 526.767 -1.83504 -0.922799 0
M  V30 5423 H 524.997 -1.69888 -3.47383 0
M  V30 5424 H 526.686 -2.1176 -3.46284 0
M  V30 5425 H 527.452 -4.29079 -2.26088 0
M  V30 5426 H 523.331 -3.4045 -3.10829 0
M  V30 5427 H 526.875 -6.6788 -2.0145 0
M  V30 5428 H 522.772 -5.78417 -2.86538 0
M  V30 5429 H 523.54 -7.8147 -2.43405 0
M  V30 5430 N 526.204 0.969867 -1.24223 0
M  V30 5431 C 527.134 2.08191 -1.05729 0
M  V30 5432 C 528.115 1.70075 0.0290765 0
M  V30 5433 O 529.3 1.93712 -0.137583 0
M  V30 5434 C 526.43 3.40991 -0.658995 0
M  V30 5435 C 525.384 3.93054 -1.69389 0
M  V30 5436 C 524.71 5.22171 -1.15072 0
M  V30 5437 C 526.01 4.21137 -3.08935 0
M  V30 5438 H 527.704 2.23921 -1.98746 0
M  V30 5439 H 525.25 1.07602 -0.956967 0
M  V30 5440 H 527.203 4.18221 -0.51662 0
M  V30 5441 H 525.927 3.25155 0.30686 0
M  V30 5442 H 524.586 3.17977 -1.82444 0
M  V30 5443 H 524.234 5.02694 -0.175539 0
M  V30 5444 H 523.934 5.57973 -1.84229 0
M  V30 5445 H 525.458 6.02013 -1.02042 0
M  V30 5446 H 526.872 4.8908 -2.99121 0
M  V30 5447 H 525.269 4.68163 -3.75425 0
M  V30 5448 H 526.339 3.27996 -3.57137 0
M  V30 5449 N 527.682 1.05563 1.17022 0
M  V30 5450 C 528.929 0.767937 1.87374 0
M  V30 5451 C 529.257 -0.705224 1.81265 0
M  V30 5452 O 528.512 -1.5318 1.21796 0
M  V30 5453 C 528.811 1.19849 3.36706 0
M  V30 5454 C 528.477 2.6745 3.63017 0
M  V30 5455 C 527.139 3.0777 3.69907 0
M  V30 5456 C 529.491 3.62811 3.74189 0
M  V30 5457 C 526.819 4.42307 3.85463 0
M  V30 5458 C 529.171 4.97087 3.91264 0
M  V30 5459 C 527.835 5.37055 3.96394 0
M  V30 5460 H 527.105 0.281008 0.68565 0
M  V30 5461 H 529.752 1.32339 1.38415 0
M  V30 5462 H 528.057 0.562096 3.87747 0
M  V30 5463 H 529.754 0.953038 3.8951 0
M  V30 5464 H 526.344 2.35228 3.58282 0
M  V30 5465 H 530.528 3.32798 3.68183 0
M  V30 5466 H 525.784 4.72769 3.87684 0
M  V30 5467 H 529.958 5.70869 3.9885 0
M  V30 5468 H 527.585 6.41308 4.082 0
M  V30 5469 N 529.16 -1.33526 0.837174 0
M  V30 5470 C 530.09 -2.31764 0.284206 0
M  V30 5471 C 531.071 -1.58896 -0.607142 0
M  V30 5472 O 532.256 -1.86798 -0.531047 0
M  V30 5473 C 529.386 -3.43029 -0.542962 0
M  V30 5474 C 528.34 -4.27255 0.252451 0
M  V30 5475 C 527.666 -5.3012 -0.69836 0
M  V30 5476 C 528.966 -5.01229 1.46858 0
M  V30 5477 H 530.66 -2.78262 1.10502 0
M  V30 5478 H 528.206 -1.3378 0.532812 0
M  V30 5479 H 530.159 -4.1078 -0.940096 0
M  V30 5480 H 528.883 -2.95216 -1.39697 0
M  V30 5481 H 527.542 -3.61127 0.631124 0
M  V30 5482 H 527.19 -4.78564 -1.54872 0
M  V30 5483 H 526.89 -5.87353 -0.170274 0
M  V30 5484 H 528.414 -6.00737 -1.09305 0
M  V30 5485 H 529.828 -5.61756 1.14469 0
M  V30 5486 H 528.225 -5.68104 1.93333 0
M  V30 5487 H 529.295 -4.301 2.23924 0
M  V30 5488 N 530.638 -0.59345 -1.46 0
M  V30 5489 C 531.57 0.171569 -2.28557 0
M  V30 5490 C 532.583 0.845273 -1.39137 0
M  V30 5491 O 533.772 0.713033 -1.6364 0
M  V30 5492 C 530.872 1.26311 -3.14482 0
M  V30 5493 C 530.045 0.679258 -4.32094 0
M  V30 5494 C 529.104 1.65987 -4.99334 0
M  V30 5495 O 528.13 1.19171 -5.56585 0
M  V30 5496 N 529.332 2.99414 -4.97324 0
M  V30 5497 H 532.097 -0.536771 -2.94854 0
M  V30 5498 H 529.658 -0.431954 -1.56031 0
M  V30 5499 H 531.65 1.91863 -3.5633 0
M  V30 5500 H 530.22 1.87416 -2.50188 0
M  V30 5501 H 529.44 -0.153992 -3.93899 0
M  V30 5502 H 530.728 0.26916 -5.08088 0
M  V30 5503 H 530.126 3.40064 -4.52076 0
M  V30 5504 H 528.683 3.60426 -5.4308 0
M  V30 5505 N 532.116 1.54067 -0.331816 0
M  V30 5506 C 533.064 2.26105 0.54582 0
M  V30 5507 C 534.058 1.27816 1.11173 0
M  V30 5508 O 535.264 1.45565 1.05882 0
M  V30 5509 H 531.639 0.726363 0.194683 0
M  V30 5510 H 533.61 2.98282 -0.083931 0
M  V30 5511 C 532.359 3.03814 1.69092 0
M  V30 5512 H 531.682 3.79269 1.26473 0
M  V30 5513 H 533.122 3.57453 2.28043 0
M  V30 5514 C 531.581 2.12606 2.61343 0
M  V30 5515 O 532.111 1.71437 3.6328 0
M  V30 5516 N 530.317 1.77925 2.29763 0
M  V30 5517 H 529.864 2.11602 1.46909 0
M  V30 5518 H 529.822 1.1718 2.91747 0
M  V30 5519 N 533.594 0.0601682 1.57485 0
M  V30 5520 C 534.841 -0.611594 1.93043 0
M  V30 5521 C 535.169 -1.70317 0.939274 0
M  V30 5522 O 534.424 -1.95644 -0.046996 0
M  V30 5523 C 534.723 -1.23831 3.35262 0
M  V30 5524 C 534.389 -0.274037 4.50066 0
M  V30 5525 C 533.051 -0.00872394 4.81199 0
M  V30 5526 C 535.403 0.386308 5.19766 0
M  V30 5527 C 532.731 0.924218 5.79375 0
M  V30 5528 C 535.083 1.3075 6.1894 0
M  V30 5529 C 533.747 1.58139 6.48497 0
M  V30 5530 H 533.017 -0.223798 0.706396 0
M  V30 5531 H 535.664 0.128566 1.91068 0
M  V30 5532 H 533.969 -2.05394 3.33647 0
M  V30 5533 H 535.666 -1.76517 3.60059 0
M  V30 5534 H 532.256 -0.491008 4.25778 0
M  V30 5535 H 536.44 0.194436 4.95919 0
M  V30 5536 H 531.696 1.1438 6.00606 0
M  V30 5537 H 535.87 1.82519 6.72056 0
M  V30 5538 H 533.497 2.30593 7.24383 0
M  V30 5539 N 535.072 -1.5615 -0.213296 0
M  V30 5540 C 536.488 -1.49327 -0.56336 0
M  V30 5541 C 536.688 -0.756826 -1.86747 0
M  V30 5542 O 535.744 -0.299866 -2.50713 0
M  V30 5543 C 537.057 -2.9392 -0.634944 0
M  V30 5544 C 538.605 -3.04487 -0.725013 0
M  V30 5545 C 539.08 -4.50456 -0.82787 0
M  V30 5546 N 540.571 -4.54533 -0.891876 0
M  V30 5547 C 541.306 -5.64766 -0.991315 0
M  V30 5548 N 540.802 -6.84733 -1.05419 0
M  V30 5549 N 542.595 -5.52637 -1.02709 0
M  V30 5550 H 534.746 -2.02453 0.642366 0
M  V30 5551 H 537.009 -0.920548 0.226487 0
M  V30 5552 H 536.715 -3.50783 0.253859 0
M  V30 5553 H 536.589 -3.46274 -1.49579 0
M  V30 5554 H 538.976 -2.47685 -1.60425 0
M  V30 5555 H 539.057 -2.55289 0.161669 0
M  V30 5556 H 538.701 -5.07878 0.0469464 0
M  V30 5557 H 538.631 -4.97369 -1.73009 0
M  V30 5558 H 541.122 -3.68141 -0.85327 0
M  V30 5559 H 541.435 -7.64493 -1.13007 0
M  V30 5560 H 539.78 -6.87427 -1.02318 0
M  V30 5561 H 542.971 -4.5784 -0.974687 0
M  V30 5562 H 543.144 -6.38576 -1.10113 0
M  V30 5563 N 536.55 0.480323 -1.50102 0
M  V30 5564 C 537.513 1.56181 -1.6775 0
M  V30 5565 C 538.513 1.51156 -0.548503 0
M  V30 5566 O 539.703 1.5394 -0.815363 0
M  V30 5567 C 536.835 2.95823 -1.69415 0
M  V30 5568 H 538.028 1.41855 -2.6423 0
M  V30 5569 H 535.581 0.70605 -1.39444 0
M  V30 5570 H 536.316 3.15604 -0.745948 0
M  V30 5571 H 536.101 3.00878 -2.51425 0
M  V30 5572 H 537.591 3.74359 -1.85054 0
M  V30 5573 N 538.028 1.39524 0.732853 0
M  V30 5574 C 539.256 1.40143 1.52209 0
M  V30 5575 C 539.671 -0.00348836 1.888 0
M  V30 5576 O 539.028 -0.975357 1.5425 0
M  V30 5577 C 539.079 2.27632 2.8083 0
M  V30 5578 O 538.8 3.62654 2.45792 0
M  V30 5579 C 540.301 2.36658 3.74844 0
M  V30 5580 H 537.521 0.478604 0.470297 0
M  V30 5581 H 540.065 1.83366 0.905388 0
M  V30 5582 H 538.22 1.87818 3.38826 0
M  V30 5583 H 538.634 4.08941 3.28431 0
M  V30 5584 H 540.108 3.02118 4.61984 0
M  V30 5585 H 540.585 1.38638 4.16745 0
M  V30 5586 H 541.191 2.76951 3.22766 0
M  V30 5587 N 539.506 -0.963266 1.24736 0
M  V30 5588 C 540.436 -2.07628 1.06832 0
M  V30 5589 C 541.417 -1.70088 -0.0200566 0
M  V30 5590 O 542.602 -1.93636 0.147854 0
M  V30 5591 C 539.732 -3.40636 0.677069 0
M  V30 5592 C 538.686 -3.9215 1.71471 0
M  V30 5593 C 538.012 -5.21553 1.1784 0
M  V30 5594 C 539.312 -4.19493 3.11164 0
M  V30 5595 H 541.006 -2.22864 1.9993 0
M  V30 5596 H 538.552 -1.07093 0.96266 0
M  V30 5597 H 540.505 -4.17941 0.538792 0
M  V30 5598 H 539.229 -3.25313 -0.289612 0
M  V30 5599 H 537.888 -3.17005 1.84128 0
M  V30 5600 H 537.536 -5.02593 0.202195 0
M  V30 5601 H 537.236 -5.56988 1.87185 0
M  V30 5602 H 538.76 -6.01463 1.05233 0
M  V30 5603 H 540.174 -4.87487 3.01711 0
M  V30 5604 H 538.571 -4.66165 3.77902 0
M  V30 5605 H 539.641 -3.26097 3.58871 0
M  V30 5606 N 540.985 -1.06182 -1.16461 0
M  V30 5607 C 542.234 -0.772927 -1.86303 0
M  V30 5608 C 542.547 0.703187 -1.82523 0
M  V30 5609 O 543.753 1.10641 -2.47933 0
M  V30 5610 C 542.209 -1.33249 -3.34324 0
M  V30 5611 C 541.817 -2.83876 -3.46581 0
M  V30 5612 C 543.561 -1.12108 -4.09429 0
M  V30 5613 C 541.468 -3.33082 -4.88682 0
M  V30 5614 H 540.398 -0.285452 -0.697878 0
M  V30 5615 H 543.049 -1.28039 -1.31447 0
M  V30 5616 H 541.431 -0.7528 -3.88779 0
M  V30 5617 H 542.605 -3.47786 -3.02293 0
M  V30 5618 H 540.92 -3.03671 -2.84909 0
M  V30 5619 H 543.517 -1.46361 -5.14279 0
M  V30 5620 H 543.86 -0.0593832 -4.16258 0
M  V30 5621 H 544.393 -1.6665 -3.6121 0
M  V30 5622 H 541.132 -4.38726 -4.87032 0
M  V30 5623 H 540.652 -2.73919 -5.33599 0
M  V30 5624 H 542.331 -3.28344 -5.57494 0
M  V30 5625 N 542.463 1.3308 -0.844243 0
M  V30 5626 C 543.874 1.7992 -0.498566 0
M  V30 5627 C 544.225 1.69808 0.982834 0
M  V30 5628 O 543.35 1.25051 1.7661 0
M  V30 5629 C 543.945 3.26677 -0.898204 0
M  V30 5630 C 542.504 3.71513 -0.604583 0
M  V30 5631 C 541.651 2.54393 -1.10362 0
M  V30 5632 H 544.602 1.20526 -1.03244 0
M  V30 5633 H 544.623 3.79918 -0.21039 0
M  V30 5634 H 544.135 3.34004 -1.97643 0
M  V30 5635 H 542.236 3.69708 0.46335 0
M  V30 5636 H 542.349 4.64755 -1.16358 0
M  V30 5637 H 540.713 2.49246 -0.524273 0
M  V30 5638 H 541.496 2.6448 -2.18873 0
M  V30 5639 N 543.941 0.601185 1.45683 0
M  V30 5640 C 545.169 0.100054 2.06658 0
M  V30 5641 C 545.584 -1.21285 1.44691 0
M  V30 5642 O 544.941 -1.73735 0.558772 0
M  V30 5643 C 544.992 -0.0528579 3.61461 0
M  V30 5644 O 544.713 1.20809 4.21114 0
M  V30 5645 C 546.214 -0.586193 4.39407 0
M  V30 5646 H 543.434 0.065905 0.667756 0
M  V30 5647 H 545.978 0.827101 1.87028 0
M  V30 5648 H 544.133 -0.730203 3.80456 0
M  V30 5649 H 544.547 1.03368 5.14213 0
M  V30 5650 H 546.021 -0.642297 5.4825 0
M  V30 5651 H 546.498 -1.60713 4.0874 0
M  V30 5652 H 547.104 0.0568935 4.25262 0
M  V30 5653 N 545.419 -1.53889 0.339982 0
M  V30 5654 C 546.668 -2.00035 -0.258604 0
M  V30 5655 C 546.981 -1.23179 -1.51942 0
M  V30 5656 O 548.187 -1.59784 -2.19503 0
M  V30 5657 C 546.643 -3.56249 -0.511359 0
M  V30 5658 C 546.251 -4.41957 0.733349 0
M  V30 5659 C 547.995 -4.1082 -1.069 0
M  V30 5660 C 545.902 -5.89673 0.451591 0
M  V30 5661 H 544.832 -0.747284 -0.10041 0
M  V30 5662 H 547.483 -1.77776 0.454758 0
M  V30 5663 H 545.865 -3.7456 -1.28533 0
M  V30 5664 H 547.039 -4.35421 1.50815 0
M  V30 5665 H 545.354 -3.9836 1.21237 0
M  V30 5666 H 547.951 -5.18789 -1.2947 0
M  V30 5667 H 548.294 -3.63817 -2.02343 0
M  V30 5668 H 548.827 -3.96205 -0.355817 0
M  V30 5669 H 545.566 -6.40903 1.37565 0
M  V30 5670 H 545.086 -5.99122 -0.285193 0
M  V30 5671 H 546.765 -6.46965 0.0675067 0
M  V30 5672 N 546.897 -0.0685191 -1.57451 0
M  V30 5673 C 547.86 0.885173 -2.11417 0
M  V30 5674 C 548.86 1.22853 -1.03748 0
M  V30 5675 O 550.05 1.16235 -1.2975 0
M  V30 5676 C 547.182 2.18964 -2.61281 0
M  V30 5677 H 548.375 0.417034 -2.96986 0
M  V30 5678 H 545.928 0.18014 -1.55258 0
M  V30 5679 H 546.663 2.70321 -1.79156 0
M  V30 5680 H 546.448 1.9534 -3.39977 0
M  V30 5681 H 547.938 2.87242 -3.0312 0
M  V30 5682 N 548.375 1.56261 0.205012 0
M  V30 5683 C 549.621 1.80306 0.9283 0
M  V30 5684 C 549.954 0.640932 1.83319 0
M  V30 5685 O 549.229 -0.359032 1.91158 0
M  V30 5686 C 549.512 3.14547 1.75306 0
M  V30 5687 C 549.365 4.41236 0.873562 0
M  V30 5688 C 550.684 3.45382 2.72762 0
M  V30 5689 H 547.803 0.655929 0.336044 0
M  V30 5690 H 550.445 1.88984 0.196211 0
M  V30 5691 H 548.595 3.0728 2.37721 0
M  V30 5692 H 550.267 4.60539 0.264887 0
M  V30 5693 H 548.51 4.33427 0.179773 0
M  V30 5694 H 549.181 5.31639 1.48541 0
M  V30 5695 H 551.657 3.52884 2.20481 0
M  V30 5696 H 550.533 4.40449 3.2756 0
M  V30 5697 H 550.794 2.68377 3.51321 0
M  V30 5698 N 549.853 -0.472356 1.50355 0
M  V30 5699 C 551.264 -1.05326 1.54154 0
M  V30 5700 C 551.615 -1.93155 0.344303 0
M  V30 5701 O 550.74 -2.09479 -0.542928 0
M  V30 5702 C 551.335 -1.91691 2.79356 0
M  V30 5703 C 549.894 -2.44892 2.8584 0
M  V30 5704 C 549.041 -1.23205 2.48426 0
M  V30 5705 H 551.992 -0.255027 1.56637 0
M  V30 5706 H 552.013 -2.76742 2.6114 0
M  V30 5707 H 551.525 -1.27741 3.66475 0
M  V30 5708 H 549.626 -3.12399 2.0307 0
M  V30 5709 H 549.739 -2.80086 3.88701 0
M  V30 5710 H 548.103 -1.56643 2.00836 0
M  V30 5711 H 548.886 -0.609194 3.37852 0
M  V30 5712 N 551.331 -1.39911 -0.725443 0
M  V30 5713 C 552.577 -1.37858 -1.48738 0
M  V30 5714 C 552.91 0.0224187 -1.94187 0
M  V30 5715 O 552.185 0.989204 -1.67466 0
M  V30 5716 C 552.468 -2.3594 -2.72038 0
M  V30 5717 C 552.321 -3.85023 -2.32546 0
M  V30 5718 C 553.64 -2.31704 -3.74167 0
M  V30 5719 H 550.759 -0.502074 -0.539528 0
M  V30 5720 H 553.401 -1.70974 -0.828728 0
M  V30 5721 H 551.551 -2.0783 -3.28236 0
M  V30 5722 H 553.223 -4.2392 -1.81905 0
M  V30 5723 H 551.466 -4.01334 -1.64661 0
M  V30 5724 H 552.137 -4.49152 -3.20884 0
M  V30 5725 H 554.613 -2.5658 -3.27576 0
M  V30 5726 H 553.489 -3.02395 -4.58092 0
M  V30 5727 H 553.75 -1.3253 -4.21768 0
M  V30 5728 N 552.809 0.956637 -1.25245 0
M  V30 5729 C 554.055 1.70352 -1.10036 0
M  V30 5730 C 554.388 1.90869 0.358156 0
M  V30 5731 O 553.663 1.47819 1.26411 0
M  V30 5732 C 553.946 3.08766 -1.85298 0
M  V30 5733 C 553.799 2.95672 -3.38966 0
M  V30 5734 C 555.118 4.08622 -1.63451 0
M  V30 5735 H 552.237 0.618279 -0.401123 0
M  V30 5736 H 554.879 1.11212 -1.54051 0
M  V30 5737 H 553.029 3.59252 -1.47887 0
M  V30 5738 H 554.701 2.52527 -3.86041 0
M  V30 5739 H 552.944 2.31634 -3.6678 0
M  V30 5740 H 553.615 3.93776 -3.86839 0
M  V30 5741 H 556.091 3.67038 -1.96015 0
M  V30 5742 H 554.967 5.03514 -2.18551 0
M  V30 5743 H 555.228 4.3834 -0.575357 0
M  V30 5744 N 554.287 1.06798 1.15896 0
M  V30 5745 C 555.217 0.704677 2.22613 0
M  V30 5746 C 556.198 -0.305252 1.67339 0
M  V30 5747 O 557.383 -0.179247 1.93371 0
M  V30 5748 C 554.513 0.0957325 3.47168 0
M  V30 5749 C 553.467 1.0322 4.15367 0
M  V30 5750 C 552.793 0.286293 5.33933 0
M  V30 5751 C 554.093 2.36341 4.65768 0
M  V30 5752 H 555.787 1.59688 2.53259 0
M  V30 5753 H 553.333 0.769257 1.21731 0
M  V30 5754 H 555.286 -0.170333 4.21056 0
M  V30 5755 H 554.01 -0.831516 3.15838 0
M  V30 5756 H 552.669 1.28309 3.43413 0
M  V30 5757 H 552.317 -0.644237 4.98857 0
M  V30 5758 H 552.017 0.910436 5.80504 0
M  V30 5759 H 553.541 0.0278938 6.10594 0
M  V30 5760 H 554.955 2.1561 5.31211 0
M  V30 5761 H 553.352 2.94299 5.2298 0
M  V30 5762 H 554.422 2.99047 3.81705 0
M  V30 5763 N 555.766 -1.3263 0.851289 0
M  V30 5764 C 556.696 -2.31449 0.308771 0
M  V30 5765 C 557.677 -1.59531 -0.590255 0
M  V30 5766 O 558.862 -1.87351 -0.511205 0
M  V30 5767 C 555.992 -3.43586 -0.506548 0
M  V30 5768 C 554.946 -4.26963 0.297753 0
M  V30 5769 C 554.272 -5.30831 -0.642094 0
M  V30 5770 C 555.572 -4.99643 1.52166 0
M  V30 5771 H 557.266 -2.77074 1.13447 0
M  V30 5772 H 554.812 -1.33207 0.546971 0
M  V30 5773 H 556.765 -4.11754 -0.896474 0
M  V30 5774 H 555.489 -2.96681 -1.36558 0
M  V30 5775 H 554.148 -3.60437 0.669391 0
M  V30 5776 H 553.796 -4.8018 -1.49788 0
M  V30 5777 H 553.496 -5.87501 -0.107968 0
M  V30 5778 H 555.02 -6.01862 -1.02927 0
M  V30 5779 H 556.434 -5.6051 1.20421 0
M  V30 5780 H 554.831 -5.66022 1.99347 0
M  V30 5781 H 555.901 -4.27701 2.28474 0
M  V30 5782 N 557.244 -0.608902 -1.45362 0
M  V30 5783 C 558.492 -0.104401 -2.0183 0
M  V30 5784 C 558.813 1.27007 -1.47967 0
M  V30 5785 O 558.083 1.83924 -0.674455 0
M  V30 5786 H 556.663 -0.0356042 -0.746151 0
M  V30 5787 H 559.325 -0.790596 -1.78145 0
M  V30 5788 H 558.421 -0.0551793 -3.12051 0
M  V30 5789 N 558.722 1.53707 -0.348139 0
M  V30 5790 C 559.95 2.05406 0.248224 0
M  V30 5791 C 560.365 1.22282 1.43849 0
M  V30 5792 O 559.722 0.259244 1.80649 0
M  V30 5793 C 559.773 3.55446 0.658793 0
M  V30 5794 O 559.494 4.35417 -0.484149 0
M  V30 5795 C 560.995 4.23335 1.31539 0
M  V30 5796 H 558.215 0.669344 0.0471075 0
M  V30 5797 H 560.759 1.98257 -0.501456 0
M  V30 5798 H 558.914 3.62803 1.35841 0
M  V30 5799 H 559.328 5.24268 -0.155949 0
M  V30 5800 H 560.802 5.29692 1.55338 0
M  V30 5801 H 561.279 3.75967 2.27036 0
M  V30 5802 H 561.885 4.20184 0.657683 0
M  V30 5803 N 560.2 0.0768682 1.57412 0
M  V30 5804 C 561.447 -0.591085 1.93681 0
M  V30 5805 C 561.775 -1.69311 0.957286 0
M  V30 5806 O 561.03 -1.95682 -0.0262428 0
M  V30 5807 C 561.329 -1.20268 3.36557 0
M  V30 5808 C 560.995 -0.226286 4.50332 0
M  V30 5809 C 559.657 0.0423142 4.81181 0
M  V30 5810 C 562.009 0.441415 5.19327 0
M  V30 5811 C 559.337 0.985616 5.78362 0
M  V30 5812 C 561.689 1.37307 6.17519 0
M  V30 5813 C 560.353 1.65009 6.46783 0
M  V30 5814 H 559.623 -0.216293 0.70873 0
M  V30 5815 H 562.27 0.148824 1.90921 0
M  V30 5816 H 560.575 -2.01844 3.35807 0
M  V30 5817 H 562.272 -1.72688 3.61911 0
M  V30 5818 H 558.862 -0.445821 4.26275 0
M  V30 5819 H 563.046 0.247023 4.95685 0
M  V30 5820 H 558.302 1.20743 5.99359 0
M  V30 5821 H 562.476 1.89637 6.70083 0
M  V30 5822 H 560.103 2.38263 7.21897 0
M  V30 5823 N 561.678 -1.56367 -0.196722 0
M  V30 5824 C 562.641 -1.93561 -1.22746 0
M  V30 5825 C 563.641 -0.816566 -1.38524 0
M  V30 5826 O 564.831 -1.084 -1.36363 0
M  V30 5827 C 561.963 -2.20823 -2.59712 0
M  V30 5828 H 563.156 -2.85774 -0.909586 0
M  V30 5829 H 560.709 -1.50032 -0.438174 0
M  V30 5830 H 561.444 -1.31243 -2.96557 0
M  V30 5831 H 561.229 -3.02368 -2.49632 0
M  V30 5832 H 562.719 -2.50608 -3.34044 0
M  V30 5833 N 563.156 0.464375 -1.50603 0
M  V30 5834 C 564.402 1.21776 -1.62168 0
M  V30 5835 C 564.735 1.91476 -0.324154 0
M  V30 5836 O 564.01 1.8242 0.674782 0
M  V30 5837 C 564.293 2.25614 -2.80661 0
M  V30 5838 C 564.146 1.60175 -4.20314 0
M  V30 5839 C 565.465 3.26862 -2.94702 0
M  V30 5840 H 562.584 0.44137 -0.590222 0
M  V30 5841 H 565.226 0.510623 -1.8301 0
M  V30 5842 H 563.376 2.85923 -2.63021 0
M  V30 5843 H 565.048 1.03411 -4.4956 0
M  V30 5844 H 563.291 0.904697 -4.24261 0
M  V30 5845 H 563.962 2.35665 -4.99165 0
M  V30 5846 H 566.438 2.76582 -3.10872 0
M  V30 5847 H 565.314 3.96839 -3.79223 0
M  V30 5848 H 565.575 3.91382 -2.05603 0
M  V30 5849 N 564.634 1.40294 0.718013 0
M  V30 5850 C 565.564 1.43118 1.84498 0
M  V30 5851 C 566.545 0.292403 1.67568 0
M  V30 5852 O 567.73 0.500675 1.87635 0
M  V30 5853 C 564.86 1.29065 3.22427 0
M  V30 5854 C 563.814 2.40521 3.54025 0
M  V30 5855 C 563.14 2.11546 4.91073 0
M  V30 5856 C 564.44 3.82859 3.55269 0
M  V30 5857 H 566.134 2.37432 1.82391 0
M  V30 5858 H 563.68 1.14283 0.87609 0
M  V30 5859 H 565.633 1.29658 4.00957 0
M  V30 5860 H 564.357 0.312271 3.25104 0
M  V30 5861 H 563.016 2.39173 2.77834 0
M  V30 5862 H 562.664 1.12104 4.90348 0
M  V30 5863 H 562.364 2.86216 5.1318 0
M  V30 5864 H 563.888 2.13817 5.71939 0
M  V30 5865 H 565.302 3.86044 4.23843 0
M  V30 5866 H 563.699 4.57029 3.88902 0
M  V30 5867 H 564.769 4.12617 2.54706 0
M  V30 5868 N 566.112 -0.949982 1.2575 0
M  V30 5869 C 567.075 -2.02894 1.06615 0
M  V30 5870 C 568.075 -1.60791 0.0173905 0
M  V30 5871 O 569.265 -1.72249 0.260003 0
M  V30 5872 C 566.397 -3.35219 0.619751 0
M  V30 5873 H 567.59 -2.21302 2.02399 0
M  V30 5874 H 565.143 -1.12772 1.08223 0
M  V30 5875 H 565.878 -3.22508 -0.340486 0
M  V30 5876 H 565.663 -3.67129 1.37692 0
M  V30 5877 H 567.153 -4.14505 0.507443 0
M  V30 5878 N 567.59 -1.07411 -1.15328 0
M  V30 5879 C 568.553 -0.698914 -2.18284 0
M  V30 5880 C 569.553 0.261149 -1.58665 0
M  V30 5881 O 570.743 0.0420277 -1.74149 0
M  V30 5882 C 567.875 -0.0302427 -3.40887 0
M  V30 5883 H 569.068 -1.61045 -2.52991 0
M  V30 5884 H 566.621 -0.870724 -1.298 0
M  V30 5885 H 567.356 0.893505 -3.11748 0
M  V30 5886 H 567.141 -0.720759 -3.85419 0
M  V30 5887 H 568.631 0.21759 -4.17033 0
M  V30 5888 N 569.068 1.32177 -0.85831 0
M  V30 5889 C 570.315 1.97125 -0.463484 0
M  V30 5890 C 570.643 1.67907 0.981705 0
M  V30 5891 O 569.898 0.961717 1.70439 0
M  V30 5892 C 570.197 3.51372 -0.653658 0
M  V30 5893 C 569.863 4.00584 -2.06987 0
M  V30 5894 C 568.525 4.13733 -2.4572 0
M  V30 5895 C 570.877 4.26624 -2.99402 0
M  V30 5896 C 568.205 4.50268 -3.76132 0
M  V30 5897 C 570.557 4.64618 -4.29316 0
M  V30 5898 C 569.221 4.75975 -4.67979 0
M  V30 5899 H 568.491 0.72133 -0.169601 0
M  V30 5900 H 571.138 1.57517 -1.08907 0
M  V30 5901 H 569.443 3.91761 0.0551328 0
M  V30 5902 H 571.14 3.99655 -0.328163 0
M  V30 5903 H 567.73 3.90837 -1.75911 0
M  V30 5904 H 571.914 4.1597 -2.70708 0
M  V30 5905 H 567.17 4.57256 -4.05865 0
M  V30 5906 H 571.344 4.83722 -5.00985 0
M  V30 5907 H 568.971 5.04041 -5.69076 0
M  V30 5908 N 570.547 0.616602 1.45037 0
M  V30 5909 C 571.795 0.115103 2.01772 0
M  V30 5910 C 572.116 -1.2622 1.48639 0
M  V30 5911 O 571.386 -1.83563 0.684199 0
M  V30 5912 H 569.966 0.0395607 0.745952 0
M  V30 5913 H 572.628 0.800032 1.77723 0
M  V30 5914 H 571.724 0.0717274 3.12018 0
M  V30 5915 N 572.025 -1.5352 0.356285 0
M  V30 5916 C 573.272 -2.01117 -0.236303 0
M  V30 5917 C 573.6 -1.24381 -1.49531 0
M  V30 5918 O 572.855 -0.323057 -1.93015 0
M  V30 5919 C 573.154 -3.52607 -0.583369 0
M  V30 5920 C 572.82 -4.47151 0.58023 0
M  V30 5921 C 571.482 -4.72718 0.899528 0
M  V30 5922 C 573.834 -5.03137 1.36024 0
M  V30 5923 C 571.162 -5.51523 2.00098 0
M  V30 5924 C 573.514 -5.83145 2.45204 0
M  V30 5925 C 572.178 -6.07001 2.77679 0
M  V30 5926 H 571.448 -0.735938 -0.0864695 0
M  V30 5927 H 574.095 -1.85209 0.48683 0
M  V30 5928 H 572.4 -3.66413 -1.38739 0
M  V30 5929 H 574.097 -3.86901 -1.05397 0
M  V30 5930 H 570.687 -4.27394 0.321322 0
M  V30 5931 H 574.871 -4.83339 1.12682 0
M  V30 5932 H 570.127 -5.68229 2.25668 0
M  V30 5933 H 574.301 -6.25537 3.06067 0
M  V30 5934 H 571.928 -6.67851 3.63151 0
M  V30 5935 N 573.503 -0.0852151 -1.57369 0
M  V30 5936 C 574.728 0.592872 -1.98746 0
M  V30 5937 C 575.153 1.61538 -0.963689 0
M  V30 5938 O 574.511 1.81168 0.069071 0
M  V30 5939 C 574.559 1.22599 -3.39119 0
M  V30 5940 O 573.663 2.34185 -3.39457 0
M  V30 5941 H 573.004 0.151314 -0.646529 0
M  V30 5942 H 575.534 -0.163703 -2.03944 0
M  V30 5943 H 575.544 1.56965 -3.76598 0
M  V30 5944 H 574.219 0.476831 -4.13158 0
M  V30 5945 H 572.796 2.01512 -3.13763 0
M  V30 5946 N 574.981 1.5647 0.188427 0
M  V30 5947 C 576.23 1.80207 0.905995 0
M  V30 5948 C 576.543 0.659579 1.84144 0
M  V30 5949 O 577.749 0.781431 2.60011 0
M  V30 5950 C 576.205 3.19255 1.66145 0
M  V30 5951 C 575.813 4.41324 0.770504 0
M  V30 5952 C 577.557 3.52298 2.36826 0
M  V30 5953 C 575.464 5.71394 1.52521 0
M  V30 5954 H 574.394 0.671953 0.342045 0
M  V30 5955 H 577.045 1.82808 0.159164 0
M  V30 5956 H 575.427 3.10922 2.45242 0
M  V30 5957 H 576.601 4.60797 0.0177261 0
M  V30 5958 H 574.916 4.16035 0.174199 0
M  V30 5959 H 577.513 4.46715 2.93854 0
M  V30 5960 H 577.856 2.76359 3.11338 0
M  V30 5961 H 578.389 3.62108 1.6469 0
M  V30 5962 H 575.128 6.50316 0.82275 0
M  V30 5963 H 574.648 5.55928 2.25175 0
M  V30 5964 H 576.327 6.12747 2.07725 0
M  V30 5965 N 576.459 -0.456382 1.50847 0
M  V30 5966 C 577.407 -1.57318 1.71329 0
M  V30 5967 C 578.401 -1.59187 0.579287 0
M  V30 5968 O 579.607 -1.6316 0.76018 0
M  V30 5969 H 575.982 -0.5223 0.541024 0
M  V30 5970 H 577.953 -1.3721 2.64983 0
M  V30 5971 C 576.702 -2.95142 1.83811 0
M  V30 5972 H 576.025 -2.94428 2.70467 0
M  V30 5973 H 577.465 -3.72702 2.02161 0
M  V30 5974 C 575.924 -3.31636 0.593224 0
M  V30 5975 O 576.454 -4.00852 -0.260898 0
M  V30 5976 N 574.66 -2.87205 0.442902 0
M  V30 5977 H 574.207 -2.31051 1.13901 0
M  V30 5978 H 574.165 -3.11986 -0.38884 0
M  V30 5979 N 577.937 -1.40673 -0.710563 0
M  V30 5980 C 579.165 -1.42547 -1.4996 0
M  V30 5981 C 579.58 -0.0265485 -1.88781 0
M  V30 5982 O 578.937 0.950694 -1.55782 0
M  V30 5983 C 578.988 -2.32071 -2.77173 0
M  V30 5984 O 578.709 -3.66518 -2.39992 0
M  V30 5985 C 580.21 -2.42591 -3.71032 0
M  V30 5986 H 577.43 -0.486025 -0.462623 0
M  V30 5987 H 579.974 -1.84783 -0.876102 0
M  V30 5988 H 578.129 -1.93184 -3.35795 0
M  V30 5989 H 578.543 -4.14115 -3.21884 0
M  V30 5990 H 580.017 -3.09429 -4.57119 0
M  V30 5991 H 580.494 -1.4525 -4.14486 0
M  V30 5992 H 581.1 -2.82051 -3.18319 0
M  V30 5993 N 579.415 0.9433 -1.26252 0
M  V30 5994 C 580.345 2.05902 -1.10122 0
M  V30 5995 C 581.326 1.70099 -0.00700552 0
M  V30 5996 O 582.511 1.93377 -0.178641 0
M  V30 5997 C 579.641 3.39516 -0.731175 0
M  V30 5998 C 578.595 3.89372 -1.77688 0
M  V30 5999 C 577.921 5.19613 -1.26122 0
M  V30 6000 C 579.221 4.14489 -3.17799 0
M  V30 6001 H 580.915 2.19655 -2.03451 0
M  V30 6002 H 578.461 1.05548 -0.979576 0
M  V30 6003 H 580.414 4.17031 -0.605215 0
M  V30 6004 H 579.138 3.25733 0.23782 0
M  V30 6005 H 577.797 3.14036 -1.89148 0
M  V30 6006 H 577.445 5.02208 -0.282128 0
M  V30 6007 H 577.145 5.53939 -1.96023 0
M  V30 6008 H 578.669 5.99713 -1.14789 0
M  V30 6009 H 580.083 4.82625 -3.09428 0
M  V30 6010 H 578.48 4.60094 -3.85271 0
M  V30 6011 H 579.55 3.20347 -3.64014 0
M  V30 6012 N 580.893 1.08022 1.14757 0
M  V30 6013 C 582.121 0.828847 1.89572 0
M  V30 6014 C 582.536 -0.618621 1.78377 0
M  V30 6015 O 581.893 -1.42482 1.1404 0
M  V30 6016 C 581.944 1.23677 3.39685 0
M  V30 6017 O 581.665 2.62746 3.50566 0
M  V30 6018 C 583.166 1.01569 4.31507 0
M  V30 6019 H 580.386 0.299196 0.600602 0
M  V30 6020 H 582.93 1.43846 1.45357 0
M  V30 6021 H 581.085 0.671347 3.81539 0
M  V30 6022 H 581.499 2.79573 4.43778 0
M  V30 6023 H 582.973 1.35055 5.35223 0
M  V30 6024 H 583.45 -0.0475433 4.39174 0
M  V30 6025 H 584.056 1.56636 3.95405 0
M  V30 6026 N 582.371 -1.3172 0.865308 0
M  V30 6027 C 583.304 -2.26687 0.262376 0
M  V30 6028 C 584.282 -1.50894 -0.605787 0
M  V30 6029 O 585.466 -1.79982 -0.56024 0
M  V30 6030 C 582.593 -3.3281 -0.628915 0
M  V30 6031 C 581.639 -4.26172 0.167278 0
M  V30 6032 S 582.472 -5.12797 1.54272 0
M  V30 6033 C 583.628 -6.22438 0.657427 0
M  V30 6034 H 583.861 -2.77478 1.0674 0
M  V30 6035 H 581.394 -1.39414 0.663555 0
M  V30 6036 H 583.352 -3.94426 -1.13747 0
M  V30 6037 H 582.013 -2.80782 -1.40785 0
M  V30 6038 H 581.206 -5.01392 -0.51203 0
M  V30 6039 H 580.808 -3.69029 0.607777 0
M  V30 6040 H 583.1 -6.77368 -0.133925 0
M  V30 6041 H 584.043 -6.9451 1.38061 0
M  V30 6042 H 584.451 -5.64043 0.227044 0
M  V30 6043 N 583.85 -0.624285 -1.44708 0
M  V30 6044 C 585.096 -0.126051 -2.02107 0
M  V30 6045 C 585.425 1.2496 -1.49048 0
M  V30 6046 O 584.68 1.84163 -0.662005 0
M  V30 6047 C 584.979 -0.0546353 -3.57358 0
M  V30 6048 C 584.644 -1.36815 -4.29642 0
M  V30 6049 C 583.307 -1.72792 -4.49106 0
M  V30 6050 C 585.659 -2.23549 -4.70824 0
M  V30 6051 C 582.986 -2.95222 -5.07012 0
M  V30 6052 C 585.339 -3.45243 -5.30085 0
M  V30 6053 C 584.003 -3.81452 -5.47769 0
M  V30 6054 H 583.273 -0.0461252 -0.739563 0
M  V30 6055 H 585.92 -0.809236 -1.73562 0
M  V30 6056 H 584.225 0.711891 -3.85278 0
M  V30 6057 H 585.922 0.347282 -3.99493 0
M  V30 6058 H 582.512 -1.07817 -4.14817 0
M  V30 6059 H 586.696 -1.9705 -4.55505 0
M  V30 6060 H 581.952 -3.23361 -5.18891 0
M  V30 6061 H 586.125 -4.12689 -5.60946 0
M  V30 6062 H 583.753 -4.76403 -5.92405 0
M  V30 6063 N 585.328 1.53329 -0.364422 0
M  V30 6064 C 586.576 2.00842 0.225189 0
M  V30 6065 C 586.897 1.25345 1.49378 0
M  V30 6066 O 586.167 0.366396 1.92443 0
M  V30 6067 H 584.747 0.742009 0.0862027 0
M  V30 6068 H 587.409 1.8863 -0.490389 0
M  V30 6069 H 586.505 3.08795 0.452987 0
M  V30 6070 N 586.806 0.0935595 1.57322 0
M  V30 6071 C 587.739 -0.902505 2.09595 0
M  V30 6072 C 588.717 -1.27732 1.00615 0
M  V30 6073 O 589.901 -1.38283 1.28102 0
M  V30 6074 C 587.028 -2.20416 2.57166 0
M  V30 6075 C 586.074 -1.97932 3.7779 0
M  V30 6076 S 586.907 -1.21873 5.21447 0
M  V30 6077 C 588.063 -2.53273 5.72367 0
M  V30 6078 H 588.296 -0.457797 2.93754 0
M  V30 6079 H 585.829 -0.119694 1.53935 0
M  V30 6080 H 587.787 -2.95217 2.85232 0
M  V30 6081 H 586.448 -2.62008 1.73235 0
M  V30 6082 H 585.641 -2.94316 4.09138 0
M  V30 6083 H 585.243 -1.3126 3.5021 0
M  V30 6084 H 587.535 -3.49256 5.8054 0
M  V30 6085 H 588.478 -2.26505 6.70896 0
M  V30 6086 H 588.886 -2.61475 5.00291 0
M  V30 6087 N 588.284 -1.56567 -0.180126 0
M  V30 6088 C 589.53 -1.81761 -0.899497 0
M  V30 6089 C 589.863 -0.670015 -1.82276 0
M  V30 6090 O 589.138 0.328575 -1.91705 0
M  V30 6091 C 589.421 -3.17296 -1.7028 0
M  V30 6092 C 589.274 -4.4257 -0.803255 0
M  V30 6093 C 590.593 -3.49678 -2.67233 0
M  V30 6094 H 587.712 -0.661192 -0.325567 0
M  V30 6095 H 590.354 -1.89272 -0.16612 0
M  V30 6096 H 588.504 -3.11023 -2.32802 0
M  V30 6097 H 590.176 -4.60902 -0.191585 0
M  V30 6098 H 588.419 -4.33658 -0.110796 0
M  V30 6099 H 589.09 -5.33935 -1.40064 0
M  V30 6100 H 591.566 -3.56347 -2.14839 0
M  V30 6101 H 590.442 -4.45605 -3.20511 0
M  V30 6102 H 590.703 -2.73932 -3.47007 0
M  V30 6103 N 589.762 0.448376 -1.51087 0
M  V30 6104 C 590.692 1.55102 -1.74544 0
M  V30 6105 C 591.673 1.59357 -0.594932 0
M  V30 6106 O 592.858 1.75261 -0.836491 0
M  V30 6107 C 589.988 2.93268 -1.86041 0
M  V30 6108 C 588.942 3.03877 -3.01402 0
M  V30 6109 C 588.268 4.43914 -2.98068 0
M  V30 6110 C 589.568 2.7898 -4.41551 0
M  V30 6111 H 591.262 1.35724 -2.66869 0
M  V30 6112 H 588.808 0.651498 -1.28419 0
M  V30 6113 H 590.761 3.70356 -2.01034 0
M  V30 6114 H 589.485 3.13853 -0.903548 0
M  V30 6115 H 588.144 2.29227 -2.86096 0
M  V30 6116 H 587.792 4.6145 -2.00182 0
M  V30 6117 H 587.492 4.51944 -3.75527 0
M  V30 6118 H 589.016 5.22991 -3.1514 0
M  V30 6119 H 590.43 3.45805 -4.57265 0
M  V30 6120 H 588.827 2.98431 -5.20633 0
M  V30 6121 H 589.897 1.74663 -4.5235 0
M  V30 6122 N 591.24 1.41047 0.703093 0
M  V30 6123 C 592.203 1.42036 1.79884 0
M  V30 6124 C 593.203 0.312153 1.57741 0
M  V30 6125 O 594.393 0.571672 1.64553 0
M  V30 6126 C 591.525 1.22437 3.18154 0
M  V30 6127 H 592.718 2.39572 1.80403 0
M  V30 6128 H 590.271 1.27079 0.909977 0
M  V30 6129 H 591.006 0.257112 3.23279 0
M  V30 6130 H 590.791 2.02723 3.35627 0
M  V30 6131 H 592.281 1.25946 3.98155 0
M  V30 6132 N 592.718 -0.936591 1.26751 0
M  V30 6133 C 593.967 -1.67778 1.11953 0
M  V30 6134 C 594.28 -1.92694 -0.33589 0
M  V30 6135 O 595.486 -2.64682 -0.604618 0
M  V30 6136 C 593.942 -3.02138 1.95551 0
M  V30 6137 C 593.55 -2.84953 3.45696 0
M  V30 6138 C 595.294 -3.79917 1.89377 0
M  V30 6139 C 593.201 -4.14814 4.21525 0
M  V30 6140 H 592.131 -0.629275 0.415366 0
M  V30 6141 H 594.782 -1.04122 1.51099 0
M  V30 6142 H 593.164 -3.668 1.49243 0
M  V30 6143 H 594.338 -2.29112 3.99805 0
M  V30 6144 H 592.653 -2.20612 3.53156 0
M  V30 6145 H 595.25 -4.76134 2.43312 0
M  V30 6146 H 595.593 -4.07204 0.865464 0
M  V30 6147 H 596.126 -3.22037 2.33532 0
M  V30 6148 H 592.865 -3.92709 5.24843 0
M  V30 6149 H 592.385 -4.70352 3.72195 0
M  V30 6150 H 594.064 -4.83239 4.3022 0
M  V30 6151 N 594.196 -1.08629 -1.14182 0
M  V30 6152 C 595.444 -0.815731 -1.84906 0
M  V30 6153 C 595.765 0.660441 -1.83475 0
M  V30 6154 O 595.035 1.47888 -1.28476 0
M  V30 6155 H 593.615 -0.298773 -0.684648 0
M  V30 6156 H 596.277 -1.37274 -1.38354 0
M  V30 6157 H 595.373 -1.16193 -2.89665 0
M  V30 6158 N 595.674 1.31259 -0.872281 0
M  V30 6159 C 596.604 2.30929 -0.345554 0
M  V30 6160 C 597.585 1.60449 0.5648 0
M  V30 6161 O 598.77 1.8814 0.481335 0
M  V30 6162 C 595.9 3.44348 0.451823 0
M  V30 6163 C 594.854 4.26435 -0.365641 0
M  V30 6164 C 594.18 5.31785 0.557562 0
M  V30 6165 C 595.48 4.97159 -1.60095 0
M  V30 6166 H 597.174 2.75234 -1.17841 0
M  V30 6167 H 594.72 1.3232 -0.568094 0
M  V30 6168 H 596.673 4.13128 0.830854 0
M  V30 6169 H 595.397 2.98816 1.31821 0
M  V30 6170 H 594.056 3.59326 -0.726649 0
M  V30 6171 H 593.704 4.82502 1.4213 0
M  V30 6172 H 593.404 5.87598 0.0144878 0
M  V30 6173 H 594.928 6.03424 0.933387 0
M  V30 6174 H 596.342 5.58523 -1.29323 0
M  V30 6175 H 594.739 5.62779 -2.08327 0
M  V30 6176 H 595.809 4.24012 -2.35249 0
M  V30 6177 N 597.152 0.631951 1.44375 0
M  V30 6178 C 598.082 -0.0593243 2.33425 0
M  V30 6179 C 599.063 -0.833964 1.48253 0
M  V30 6180 O 600.248 -0.799682 1.76971 0
M  V30 6181 C 597.378 -1.04096 3.31333 0
M  V30 6182 C 596.332 -0.377899 4.26328 0
M  V30 6183 C 595.658 -1.4695 5.14111 0
M  V30 6184 C 596.958 0.716371 5.17364 0
M  V30 6185 H 598.652 0.684287 2.91475 0
M  V30 6186 H 596.198 0.330518 1.40156 0
M  V30 6187 H 598.151 -1.53331 3.92514 0
M  V30 6188 H 596.875 -1.81547 2.71493 0
M  V30 6189 H 595.534 0.0938054 3.6648 0
M  V30 6190 H 595.182 -2.2349 4.50623 0
M  V30 6191 H 594.882 -1.03121 5.78481 0
M  V30 6192 H 596.406 -1.96363 5.78164 0
M  V30 6193 H 597.82 0.307089 5.72477 0
M  V30 6194 H 596.217 1.07784 5.90341 0
M  V30 6195 H 597.287 1.58316 4.58327 0
M  V30 6196 N 598.631 -1.53133 0.372548 0
M  V30 6197 C 599.877 -2.01654 -0.215277 0
M  V30 6198 C 600.21 -1.25914 -1.47849 0
M  V30 6199 O 599.485 -0.3548 -1.91237 0
M  V30 6200 C 599.768 -3.56609 -0.500187 0
M  V30 6201 C 599.621 -4.43036 0.777145 0
M  V30 6202 C 600.94 -4.20528 -1.29786 0
M  V30 6203 H 598.059 -0.732991 -0.0767686 0
M  V30 6204 H 600.701 -1.83335 0.498814 0
M  V30 6205 H 598.851 -3.7235 -1.10852 0
M  V30 6206 H 600.523 -4.39079 1.41447 0
M  V30 6207 H 598.766 -4.10723 1.39604 0
M  V30 6208 H 599.437 -5.49424 0.532662 0
M  V30 6209 H 601.913 -4.08663 -0.783198 0
M  V30 6210 H 600.789 -5.28962 -1.46596 0
M  V30 6211 H 601.05 -3.77051 -2.30836 0
M  V30 6212 N 600.109 -0.101901 -1.5727 0
M  V30 6213 C 601.386 0.602832 -1.86079 0
M  V30 6214 C 601.766 1.85912 -1 0
M  V30 6215 O 601.114 2.28379 -0.0742488 0
M  V30 6216 C 601.324 0.911694 -3.36881 0
M  V30 6217 C 602.672 1.2722 -4.05093 0
M  V30 6218 O 603.696 1.0025 -3.41802 0
M  V30 6219 O 602.555 1.7776 -5.16782 0
M  V30 6220 H 599.649 0.302366 -0.769743 0
M  V30 6221 H 602.195 -0.135113 -1.69161 0
M  V30 6222 H 600.967 0.0207256 -3.91295 0
M  V30 6223 H 600.59 1.70538 -3.59169 0
M  V30 6224 N 601.587 1.56661 0.17182 0
M  V30 6225 C 602.864 1.72838 0.915778 0
M  V30 6226 C 603.244 0.66316 2.00413 0
M  V30 6227 O 602.592 -0.322123 2.26218 0
M  V30 6228 C 602.802 3.16019 1.48097 0
M  V30 6229 C 604.15 3.76962 1.95408 0
M  V30 6230 O 605.174 3.19294 1.57892 0
M  V30 6231 O 604.033 4.78219 2.64516 0
M  V30 6232 H 601.127 0.705797 0.431021 0
M  V30 6233 H 603.673 1.68947 0.159689 0
M  V30 6234 H 602.445 3.85031 0.697618 0
M  V30 6235 H 602.068 3.24234 2.30126 0
M  V30 6236 N 603.065 -0.440357 1.51323 0
M  V30 6237 C 604.028 -1.51679 1.71832 0
M  V30 6238 C 605.028 -1.49648 0.588386 0
M  V30 6239 O 606.218 -1.51724 0.855891 0
M  V30 6240 C 603.35 -2.91228 1.77199 0
M  V30 6241 H 604.543 -1.34799 2.67898 0
M  V30 6242 H 602.096 -0.66883 1.41267 0
M  V30 6243 H 602.831 -3.13516 0.829363 0
M  V30 6244 H 602.616 -2.94107 2.59314 0
M  V30 6245 H 604.106 -3.69321 1.94915 0
M  V30 6246 N 604.543 -1.41418 -0.695603 0
M  V30 6247 C 605.792 -1.40073 -1.4513 0
M  V30 6248 C 606.105 -0.0130439 -1.95596 0
M  V30 6249 O 607.311 0.123032 -2.71221 0
M  V30 6250 C 605.767 -2.46286 -2.62433 0
M  V30 6251 C 605.375 -3.90962 -2.18753 0
M  V30 6252 C 607.119 -2.54077 -3.40066 0
M  V30 6253 C 605.026 -4.88728 -3.33015 0
M  V30 6254 H 603.956 -0.520903 -0.545138 0
M  V30 6255 H 606.607 -1.67242 -0.75515 0
M  V30 6256 H 604.989 -2.12248 -3.34315 0
M  V30 6257 H 606.163 -4.34248 -1.54161 0
M  V30 6258 H 604.478 -3.86831 -1.54114 0
M  V30 6259 H 607.075 -3.24303 -4.25125 0
M  V30 6260 H 607.418 -1.5776 -3.8525 0
M  V30 6261 H 607.951 -2.87206 -2.75241 0
M  V30 6262 H 604.69 -5.86449 -2.92844 0
M  V30 6263 H 604.21 -4.50091 -3.96457 0
M  V30 6264 H 605.889 -5.09483 -3.98793 0
M  V30 6265 N 606.021 0.929856 -1.27246 0
M  V30 6266 C 607.267 1.6798 -1.13625 0
M  V30 6267 C 607.6 1.91586 0.317589 0
M  V30 6268 O 606.875 1.50467 1.23247 0
M  V30 6269 C 607.158 3.04766 -1.91806 0
M  V30 6270 C 607.011 2.88415 -3.45162 0
M  V30 6271 C 608.33 4.05063 -1.72082 0
M  V30 6272 H 605.449 0.609632 -0.414147 0
M  V30 6273 H 608.091 1.0792 -1.56376 0
M  V30 6274 H 606.241 3.56034 -1.55474 0
M  V30 6275 H 607.913 2.44282 -3.91311 0
M  V30 6276 H 606.156 2.23802 -3.71611 0
M  V30 6277 H 606.827 3.85482 -3.95105 0
M  V30 6278 H 609.303 3.62798 -2.03757 0
M  V30 6279 H 608.179 4.98765 -2.29182 0
M  V30 6280 H 608.44 4.37021 -0.668206 0
M  V30 6281 N 607.499 1.09233 1.13605 0
M  V30 6282 C 608.745 0.828385 1.8511 0
M  V30 6283 C 609.078 -0.64437 1.83198 0
M  V30 6284 O 608.353 -1.47428 1.26867 0
M  V30 6285 C 608.636 1.36167 3.33363 0
M  V30 6286 C 608.489 2.90038 3.438 0
M  V30 6287 C 609.808 0.993819 4.28732 0
M  V30 6288 H 606.927 0.30239 0.672108 0
M  V30 6289 H 609.569 1.35339 1.33355 0
M  V30 6290 H 607.719 0.9151 3.77569 0
M  V30 6291 H 609.391 3.43128 3.08319 0
M  V30 6292 H 607.634 3.27271 2.84739 0
M  V30 6293 H 608.305 3.22428 4.48045 0
M  V30 6294 H 610.781 1.37893 3.92587 0
M  V30 6295 H 609.657 1.39403 5.30903 0
M  V30 6296 H 609.918 -0.0982206 4.41991 0
M  V30 6297 N 608.977 -1.30795 0.87923 0
M  V30 6298 C 610.223 -1.96653 0.495519 0
M  V30 6299 C 610.556 -1.69282 -0.951703 0
M  V30 6300 O 609.831 -0.994374 -1.6716 0
M  V30 6301 C 610.114 -3.51898 0.764174 0
M  V30 6302 C 609.967 -3.88808 2.2616 0
M  V30 6303 C 611.286 -4.39462 0.236825 0
M  V30 6304 H 608.405 -0.7143 0.181507 0
M  V30 6305 H 611.047 -1.54765 1.10217 0
M  V30 6306 H 609.197 -3.87709 0.247841 0
M  V30 6307 H 610.869 -3.63051 2.8459 0
M  V30 6308 H 609.112 -3.37082 2.73053 0
M  V30 6309 H 609.783 -4.97086 2.4002 0
M  V30 6310 H 612.259 -4.10528 0.678683 0
M  V30 6311 H 611.135 -5.47018 0.454176 0
M  V30 6312 H 611.396 -4.33621 -0.861683 0
M  V30 6313 N 610.455 -0.639598 -1.44038 0
M  V30 6314 C 611.365 0.0612377 -2.3452 0
M  V30 6315 C 612.381 0.826717 -1.53106 0
M  V30 6316 O 613.557 0.777059 -1.85806 0
M  V30 6317 C 610.622 1.02492 -3.31204 0
M  V30 6318 C 609.683 0.25788 -4.28525 0
M  V30 6319 C 608.916 1.17566 -5.2059 0
M  V30 6320 O 609.139 2.41461 -5.16771 0
M  V30 6321 O 608.073 0.655407 -5.98321 0
M  V30 6322 H 611.899 -0.68318 -2.95916 0
M  V30 6323 H 609.484 -0.399784 -1.43952 0
M  V30 6324 H 611.366 1.57911 -3.90694 0
M  V30 6325 H 610.041 1.7498 -2.7233 0
M  V30 6326 H 608.948 -0.339566 -3.72556 0
M  V30 6327 H 610.281 -0.427154 -4.90343 0
M  V30 6328 N 611.933 1.52934 -0.380664 0
M  V30 6329 C 612.881 2.27727 0.47361 0
M  V30 6330 C 613.875 1.31288 1.0705 0
M  V30 6331 O 615.081 1.4886 1.01197 0
M  V30 6332 H 611.456 0.732189 0.171475 0
M  V30 6333 H 613.427 2.97864 -0.178785 0
M  V30 6334 C 612.176 3.0904 1.59341 0
M  V30 6335 H 611.499 3.831 1.14343 0
M  V30 6336 H 612.939 3.64527 2.16555 0
M  V30 6337 C 611.398 2.20813 2.54447 0
M  V30 6338 O 611.928 1.82907 3.57642 0
M  V30 6339 N 610.134 1.85145 2.23986 0
M  V30 6340 H 609.681 2.16169 1.40103 0
M  V30 6341 H 609.639 1.26402 2.87871 0
M  V30 6342 N 613.412 0.11024 1.57214 0
M  V30 6343 C 614.658 -0.550684 1.9518 0
M  V30 6344 C 614.991 -1.66885 0.993122 0
M  V30 6345 O 614.266 -1.94479 0.0287907 0
M  V30 6346 C 614.549 -1.09163 3.43155 0
M  V30 6347 C 614.402 0.0225198 4.49794 0
M  V30 6348 C 615.721 -1.98527 3.92778 0
M  V30 6349 H 612.84 -0.198706 0.709708 0
M  V30 6350 H 615.482 0.184024 1.89107 0
M  V30 6351 H 613.632 -1.71775 3.48462 0
M  V30 6352 H 615.304 0.657443 4.56591 0
M  V30 6353 H 613.547 0.686868 4.28328 0
M  V30 6354 H 614.218 -0.39706 5.5057 0
M  V30 6355 H 616.694 -1.458 3.8972 0
M  V30 6356 H 615.57 -2.33298 4.96853 0
M  V30 6357 H 615.831 -2.90846 3.32958 0
M  V30 6358 N 614.89 -1.56749 -0.16351 0
M  V30 6359 C 615.8 -2.00255 -1.2221 0
M  V30 6360 C 616.816 -0.915194 -1.47987 0
M  V30 6361 O 617.992 -1.22342 -1.59982 0
M  V30 6362 C 615.057 -2.36035 -2.53946 0
M  V30 6363 C 614.118 -3.58637 -2.35962 0
M  V30 6364 C 613.351 -3.92701 -3.61416 0
M  V30 6365 O 613.574 -3.27632 -4.66919 0
M  V30 6366 O 612.508 -4.86019 -3.55062 0
M  V30 6367 H 616.334 -2.90586 -0.882794 0
M  V30 6368 H 613.919 -1.44721 -0.370978 0
M  V30 6369 H 615.801 -2.59982 -3.31643 0
M  V30 6370 H 614.476 -1.48863 -2.8744 0
M  V30 6371 H 613.383 -3.39898 -1.5627 0
M  V30 6372 H 614.716 -4.46374 -2.0739 0
M  V30 6373 N 616.368 0.432326 -1.51554 0
M  V30 6374 C 617.784 0.769195 -1.39841 0
M  V30 6375 C 617.984 1.95584 -0.484675 0
M  V30 6376 O 617.04 2.52433 0.0582829 0
M  V30 6377 C 618.353 1.04487 -2.81963 0
M  V30 6378 C 619.901 1.149 -2.91148 0
M  V30 6379 C 620.376 1.45758 -4.34187 0
M  V30 6380 N 621.867 1.52671 -4.37317 0
M  V30 6381 C 622.602 1.78129 -5.4503 0
M  V30 6382 N 622.098 2.01345 -6.62897 0
M  V30 6383 N 623.891 1.79953 -5.32516 0
M  V30 6384 H 616.042 -0.349122 -2.09511 0
M  V30 6385 H 618.305 -0.0938113 -0.943347 0
M  V30 6386 H 618.011 0.24557 -3.50842 0
M  V30 6387 H 617.885 1.97119 -3.21596 0
M  V30 6388 H 620.272 1.93891 -2.22464 0
M  V30 6389 H 620.353 0.201568 -2.55005 0
M  V30 6390 H 619.997 0.672917 -5.03423 0
M  V30 6391 H 619.927 2.41715 -4.67848 0
M  V30 6392 H 622.418 1.36612 -3.52343 0
M  V30 6393 H 622.731 2.20155 -7.40778 0
M  V30 6394 H 621.076 1.98657 -6.66003 0
M  V30 6395 H 624.267 1.61337 -4.39418 0
M  V30 6396 H 624.44 1.99455 -6.1654 0
M  V30 6397 N 617.846 1.41785 0.688094 0
M  V30 6398 C 619.092 1.41753 1.4503 0
M  V30 6399 C 619.425 0.0290745 1.94178 0
M  V30 6400 O 618.7 -0.944456 1.7003 0
M  V30 6401 C 618.983 2.43069 2.65686 0
M  V30 6402 C 618.836 3.91053 2.22256 0
M  V30 6403 C 620.155 2.41543 3.67893 0
M  V30 6404 H 617.274 0.516202 0.526027 0
M  V30 6405 H 619.916 1.73111 0.783105 0
M  V30 6406 H 618.066 2.1646 3.2261 0
M  V30 6407 H 619.738 4.28594 1.70602 0
M  V30 6408 H 617.981 4.05559 1.53963 0
M  V30 6409 H 618.652 4.57501 3.08863 0
M  V30 6410 H 621.128 2.65175 3.20658 0
M  V30 6411 H 620.004 3.14434 4.49914 0
M  V30 6412 H 620.265 1.43666 4.18106 0
M  V30 6413 N 619.324 -0.923095 1.27737 0
M  V30 6414 C 620.257 -2.02515 1.05181 0
M  V30 6415 C 621.235 -1.62574 -0.0292204 0
M  V30 6416 O 622.419 -1.88137 0.116848 0
M  V30 6417 C 619.546 -3.33407 0.596468 0
M  V30 6418 C 618.592 -3.92328 1.67276 0
M  V30 6419 S 619.425 -4.24342 3.26641 0
M  V30 6420 C 620.581 -5.58308 2.82919 0
M  V30 6421 H 620.814 -2.21336 1.98488 0
M  V30 6422 H 618.347 -1.06679 1.1162 0
M  V30 6423 H 620.305 -4.09086 0.34044 0
M  V30 6424 H 618.966 -3.125 -0.316614 0
M  V30 6425 H 618.159 -4.86797 1.30556 0
M  V30 6426 H 617.761 -3.2325 1.8811 0
M  V30 6427 H 620.053 -6.37801 2.28509 0
M  V30 6428 H 620.996 -5.99931 3.7615 0
M  V30 6429 H 621.404 -5.19049 2.21919 0
M  V30 6430 N 620.802 -1.09834 -1.13024 0
M  V30 6431 C 621.765 -0.745058 -2.16752 0
M  V30 6432 C 622.765 0.227435 -1.59183 0
M  V30 6433 O 623.955 0.0050786 -1.74199 0
M  V30 6434 C 621.087 -0.102543 -3.40746 0
M  V30 6435 H 622.28 -1.66375 -2.49518 0
M  V30 6436 H 619.833 -0.898061 -1.27924 0
M  V30 6437 H 620.568 0.827177 -3.13573 0
M  V30 6438 H 620.353 -0.80235 -3.83803 0
M  V30 6439 H 621.843 0.129082 -4.174 0
M  V30 6440 N 622.28 1.30327 -0.886154 0
M  V30 6441 C 623.19 2.31854 -0.357866 0
M  V30 6442 C 624.206 1.65392 0.540502 0
M  V30 6443 O 625.382 1.96683 0.433339 0
M  V30 6444 C 622.447 3.44171 0.417999 0
M  V30 6445 C 621.508 4.26257 -0.510263 0
M  V30 6446 C 620.741 5.3321 0.228669 0
M  V30 6447 O 620.964 5.51542 1.45458 0
M  V30 6448 O 619.898 6.0042 -0.421832 0
M  V30 6449 H 623.724 2.78995 -1.19982 0
M  V30 6450 H 621.309 1.34518 -0.650028 0
M  V30 6451 H 623.191 4.12588 0.857251 0
M  V30 6452 H 621.866 2.99164 1.23623 0
M  V30 6453 H 620.773 3.60533 -0.99835 0
M  V30 6454 H 622.106 4.74871 -1.29454 0
M  V30 6455 N 623.758 0.647228 1.43697 0
M  V30 6456 C 624.668 -0.0487997 2.34549 0
M  V30 6457 C 625.684 -0.818586 1.53542 0
M  V30 6458 O 626.86 -0.767195 1.86215 0
M  V30 6459 C 623.925 -1.00734 3.31743 0
M  V30 6460 C 622.986 -0.23515 4.28655 0
M  V30 6461 C 622.219 -1.14803 5.21206 0
M  V30 6462 O 622.442 -2.38717 5.18045 0
M  V30 6463 O 621.376 -0.623667 5.9866 0
M  V30 6464 H 625.202 0.698863 2.9555 0
M  V30 6465 H 622.787 0.407412 1.43738 0
M  V30 6466 H 624.669 -1.55837 3.91526 0
M  V30 6467 H 623.344 -1.73534 2.73254 0
M  V30 6468 H 622.251 0.359319 3.7237 0
M  V30 6469 H 623.584 0.453152 4.9011 0
M  V30 6470 N 625.236 -1.5273 0.388769 0
M  V30 6471 C 626.484 -2.01174 -0.193208 0
M  V30 6472 C 626.805 -1.27705 -1.47365 0
M  V30 6473 O 626.075 -0.396966 -1.91836 0
M  V30 6474 H 624.655 -0.743287 -0.0743871 0
M  V30 6475 H 627.317 -1.87826 0.520336 0
M  V30 6476 H 626.413 -3.09477 -0.403803 0
M  V30 6477 N 626.714 -0.118576 -1.57153 0
M  V30 6478 C 627.644 0.828436 -2.1831 0
M  V30 6479 C 628.625 1.27758 -1.12303 0
M  V30 6480 O 629.81 1.34026 -1.40537 0
M  V30 6481 C 626.94 2.07876 -2.78217 0
M  V30 6482 C 625.894 1.76742 -3.89803 0
M  V30 6483 C 625.22 3.08801 -4.36516 0
M  V30 6484 C 626.52 1.03606 -5.11921 0
M  V30 6485 H 628.214 0.318824 -2.97698 0
M  V30 6486 H 625.76 0.151911 -1.43196 0
M  V30 6487 H 627.713 2.74584 -3.19659 0
M  V30 6488 H 626.437 2.61161 -1.96118 0
M  V30 6489 H 625.096 1.12424 -3.48936 0
M  V30 6490 H 624.744 3.6002 -3.51276 0
M  V30 6491 H 624.444 2.88743 -5.11763 0
M  V30 6492 H 625.968 3.76627 -4.80608 0
M  V30 6493 H 627.382 1.60467 -5.50385 0
M  V30 6494 H 625.779 0.936454 -5.92748 0
M  V30 6495 H 626.849 0.0227421 -4.84895 0
M  V30 6496 N 628.193 1.56834 0.155195 0
M  V30 6497 C 629.604 1.72421 0.716082 0
M  V30 6498 C 629.955 0.731685 1.82046 0
M  V30 6499 O 629.08 -0.103481 2.16152 0
M  V30 6500 C 629.675 3.12629 1.30571 0
M  V30 6501 C 628.234 3.29846 1.81325 0
M  V30 6502 C 627.381 2.68359 0.698494 0
M  V30 6503 H 630.332 1.58544 -0.0703861 0
M  V30 6504 H 630.353 3.12174 2.1755 0
M  V30 6505 H 629.865 3.84844 0.501701 0
M  V30 6506 H 627.966 2.62614 2.64319 0
M  V30 6507 H 628.079 4.37727 1.9476 0
M  V30 6508 H 626.443 2.28604 1.12305 0
M  V30 6509 H 627.226 3.43171 -0.0939366 0
M  V30 6510 N 629.671 -0.424282 1.51781 0
M  V30 6511 C 631.082 -1.00368 1.57427 0
M  V30 6512 C 631.433 -1.91962 0.40558 0
M  V30 6513 O 630.558 -2.111 -0.47601 0
M  V30 6514 C 631.153 -1.82707 2.85313 0
M  V30 6515 C 629.712 -2.35675 2.93487 0
M  V30 6516 C 628.859 -1.1524 2.5222 0
M  V30 6517 H 631.81 -0.205064 1.5737 0
M  V30 6518 H 631.831 -2.68294 2.69812 0
M  V30 6519 H 631.343 -1.16017 3.70353 0
M  V30 6520 H 629.444 -3.05781 2.12906 0
M  V30 6521 H 629.557 -2.67578 3.97415 0
M  V30 6522 H 627.921 -1.50174 2.05718 0
M  V30 6523 H 628.704 -0.5014 3.39619 0
M  V30 6524 N 631.149 -1.42148 -0.680565 0
M  V30 6525 C 632.096 -1.45175 -1.79424 0
M  V30 6526 C 633.066 -0.304352 -1.63288 0
M  V30 6527 O 634.251 -0.507591 -1.83924 0
M  V30 6528 C 631.391 -1.35429 -3.17416 0
M  V30 6529 C 630.504 -2.60158 -3.4488 0
M  V30 6530 C 629.639 -2.42596 -4.72568 0
M  V30 6531 C 628.678 -3.62727 -4.93047 0
M  V30 6532 N 627.815 -3.44143 -6.11973 0
M  V30 6533 H 632.655 -2.40349 -1.76172 0
M  V30 6534 H 630.192 -1.19334 -0.860107 0
M  V30 6535 H 632.15 -1.27777 -3.97151 0
M  V30 6536 H 630.78 -0.438536 -3.19807 0
M  V30 6537 H 629.832 -2.78199 -2.5944 0
M  V30 6538 H 631.144 -3.49473 -3.55908 0
M  V30 6539 H 630.298 -2.32497 -5.60384 0
M  V30 6540 H 629.037 -1.50761 -4.63813 0
M  V30 6541 H 628.042 -3.73264 -4.03676 0
M  V30 6542 H 629.267 -4.55534 -5.03652 0
M  V30 6543 H 627.213 -2.5502 -6.04401 0
M  V30 6544 H 627.13 -4.27041 -6.23836 0
M  V30 6545 H 628.398 -3.37845 -7.02482 0
M  V30 6546 N 632.627 0.916307 -1.28225 0
M  V30 6547 C 633.537 2.05165 -1.13775 0
M  V30 6548 C 634.553 1.73879 -0.0649418 0
M  V30 6549 O 635.729 1.99531 -0.273722 0
M  V30 6550 C 632.794 3.37385 -0.798267 0
M  V30 6551 C 631.855 3.82296 -1.95316 0
M  V30 6552 C 631.088 5.08206 -1.62978 0
M  V30 6553 O 631.311 5.6781 -0.542948 0
M  V30 6554 O 630.245 5.48768 -2.47261 0
M  V30 6555 H 634.071 2.20273 -2.09078 0
M  V30 6556 H 631.656 1.0373 -1.07519 0
M  V30 6557 H 633.538 4.16773 -0.62278 0
M  V30 6558 H 632.213 3.23458 0.125139 0
M  V30 6559 H 631.12 3.03746 -2.18378 0
M  V30 6560 H 632.453 4.00782 -2.85718 0
M  V30 6561 N 634.105 1.10431 1.1244 0
M  V30 6562 C 635.068 0.756542 2.16354 0
M  V30 6563 C 636.068 -0.21899 1.59302 0
M  V30 6564 O 637.258 0.00415969 1.742 0
M  V30 6565 C 634.39 0.120612 3.40687 0
M  V30 6566 H 635.583 1.67696 2.48632 0
M  V30 6567 H 633.136 0.904832 1.27446 0
M  V30 6568 H 633.871 -0.810536 3.14008 0
M  V30 6569 H 633.656 0.822693 3.83372 0
M  V30 6570 H 635.146 -0.106945 4.17463 0
M  V30 6571 N 635.583 -1.29855 0.893053 0
M  V30 6572 C 636.811 -1.99976 0.530788 0
M  V30 6573 C 637.226 -1.66889 -0.882799 0
M  V30 6574 O 636.583 -0.910352 -1.58173 0
M  V30 6575 C 636.634 -3.54547 0.705587 0
M  V30 6576 O 636.355 -3.86458 2.06353 0
M  V30 6577 C 637.856 -4.41937 0.347387 0
M  V30 6578 H 635.076 -0.639129 0.204339 0
M  V30 6579 H 637.62 -1.65549 1.20057 0
M  V30 6580 H 635.775 -3.87311 0.0830685 0
M  V30 6581 H 636.189 -4.81146 2.08803 0
M  V30 6582 H 637.663 -5.4954 0.520557 0
M  V30 6583 H 638.14 -4.33339 -0.715139 0
M  V30 6584 H 638.746 -4.14633 0.946567 0
M  V30 6585 N 637.061 -0.65484 -1.43351 0
M  V30 6586 C 638.477 -0.32255 -1.56307 0
M  V30 6587 C 638.677 1.17324 -1.63821 0
M  V30 6588 O 637.733 1.95813 -1.59417 0
M  V30 6589 C 639.046 -1.03533 -2.82314 0
M  V30 6590 C 640.594 -1.01574 -2.9606 0
M  V30 6591 C 641.069 -1.70945 -4.24902 0
M  V30 6592 N 642.56 -1.67716 -4.3177 0
M  V30 6593 C 643.295 -2.18265 -5.30234 0
M  V30 6594 N 642.791 -2.7711 -6.34966 0
M  V30 6595 N 644.584 -2.08756 -5.21898 0
M  V30 6596 H 636.735 -1.62549 -1.36717 0
M  V30 6597 H 638.998 -0.683676 -0.656727 0
M  V30 6598 H 638.704 -2.09045 -2.8283 0
M  V30 6599 H 638.578 -0.587913 -3.7259 0
M  V30 6600 H 640.965 0.0309834 -2.95084 0
M  V30 6601 H 641.046 -1.50186 -2.07069 0
M  V30 6602 H 640.69 -2.75574 -4.26639 0
M  V30 6603 H 640.62 -1.19797 -5.12793 0
M  V30 6604 H 643.111 -1.24777 -3.56706 0
M  V30 6605 H 643.424 -3.13353 -7.06421 0
M  V30 6606 H 641.769 -2.81171 -6.35585 0
M  V30 6607 H 644.96 -1.62488 -4.38994 0
M  V30 6608 H 645.133 -2.48459 -5.98475 0
M  V30 6609 N 638.539 1.52521 -0.396863 0
M  V30 6610 C 639.486 2.26671 0.434624 0
M  V30 6611 C 640.456 1.28584 1.05144 0
M  V30 6612 O 641.641 1.57426 1.07804 0
M  V30 6613 C 638.781 3.08234 1.55196 0
M  V30 6614 C 637.894 4.21261 0.957262 0
M  V30 6615 C 637.029 4.90205 2.04627 0
M  V30 6616 C 636.068 5.95213 1.42787 0
M  V30 6617 N 635.205 6.57723 2.45651 0
M  V30 6618 H 640.045 2.973 -0.204139 0
M  V30 6619 H 637.582 1.46669 -0.112505 0
M  V30 6620 H 639.54 3.53819 2.2106 0
M  V30 6621 H 638.17 2.398 2.16092 0
M  V30 6622 H 637.222 3.79935 0.188005 0
M  V30 6623 H 638.534 4.96624 0.465416 0
M  V30 6624 H 637.688 5.39133 2.78246 0
M  V30 6625 H 636.427 4.14383 2.57174 0
M  V30 6626 H 635.432 5.45616 0.676968 0
M  V30 6627 H 636.657 6.72972 0.910255 0
M  V30 6628 H 634.603 5.84737 2.97353 0
M  V30 6629 H 634.52 7.28723 2.01243 0
M  V30 6630 H 635.788 7.11293 3.18876 0
M  V30 6631 N 640.017 0.126909 1.57088 0
M  V30 6632 C 641.242 -0.53997 2.00248 0
M  V30 6633 C 641.667 -1.58927 1.00618 0
M  V30 6634 O 641.025 -1.81288 -0.0210131 0
M  V30 6635 C 641.073 -1.13565 3.4225 0
M  V30 6636 O 640.177 -2.25103 3.45547 0
M  V30 6637 H 639.518 -0.13412 0.650314 0
M  V30 6638 H 642.048 0.217718 2.03438 0
M  V30 6639 H 642.058 -1.46925 3.80627 0
M  V30 6640 H 640.733 -0.367122 4.14277 0
M  V30 6641 H 639.31 -1.93123 3.18995 0
M  V30 6642 N 641.495 -1.56914 -0.146875 0
M  V30 6643 C 642.428 -1.93425 -1.21087 0
M  V30 6644 C 643.406 -0.800106 -1.41552 0
M  V30 6645 O 644.59 -1.05572 -1.56162 0
M  V30 6646 C 641.717 -2.20639 -2.56975 0
M  V30 6647 C 640.763 -3.43279 -2.53104 0
M  V30 6648 S 641.596 -4.96836 -1.99786 0
M  V30 6649 C 642.752 -5.27172 -3.37403 0
M  V30 6650 H 642.985 -2.8337 -0.899378 0
M  V30 6651 H 640.518 -1.50322 -0.352494 0
M  V30 6652 H 642.476 -2.36998 -3.35175 0
M  V30 6653 H 641.137 -1.31357 -2.85314 0
M  V30 6654 H 640.33 -3.59599 -3.53136 0
M  V30 6655 H 639.932 -3.26163 -1.83012 0
M  V30 6656 H 642.224 -5.20647 -4.33513 0
M  V30 6657 H 643.167 -6.28626 -3.25937 0
M  V30 6658 H 643.575 -4.54687 -3.34544 0
M  V30 6659 N 642.974 0.416227 -1.52004 0
M  V30 6660 C 644.222 1.16153 -1.65387 0
M  V30 6661 C 644.543 1.91208 -0.382669 0
M  V30 6662 O 643.813 1.86413 0.602231 0
M  V30 6663 H 642.393 0.431765 -0.60958 0
M  V30 6664 H 645.055 0.475151 -1.89019 0
M  V30 6665 H 644.151 1.87952 -2.4916 0
M  V30 6666 N 644.452 1.42507 0.673017 0
M  V30 6667 C 645.384 1.42074 1.79854 0
M  V30 6668 C 646.397 0.319569 1.59633 0
M  V30 6669 O 647.586 0.582769 1.68719 0
M  V30 6670 C 644.686 1.19886 3.16987 0
M  V30 6671 C 643.859 2.42471 3.64042 0
M  V30 6672 C 642.918 2.15802 4.79913 0
M  V30 6673 O 641.944 2.89015 4.90366 0
M  V30 6674 N 643.146 1.16225 5.68746 0
M  V30 6675 H 645.911 2.3909 1.8071 0
M  V30 6676 H 643.472 1.37409 0.856171 0
M  V30 6677 H 645.464 0.999591 3.92161 0
M  V30 6678 H 644.034 0.313879 3.1102 0
M  V30 6679 H 643.254 2.77954 2.79526 0
M  V30 6680 H 644.542 3.24097 3.92223 0
M  V30 6681 H 643.94 0.556756 5.62954 0
M  V30 6682 H 642.497 1.02285 6.43724 0
M  V30 6683 N 645.93 -0.909495 1.28709 0
M  V30 6684 C 647.179 -1.65365 1.15487 0
M  V30 6685 C 647.492 -1.93364 -0.294941 0
M  V30 6686 O 648.698 -2.65905 -0.548338 0
M  V30 6687 C 647.154 -2.97923 2.01916 0
M  V30 6688 C 646.762 -2.77556 3.51663 0
M  V30 6689 C 648.506 -3.75814 1.97393 0
M  V30 6690 C 646.413 -4.0578 4.30229 0
M  V30 6691 H 645.343 -0.620323 0.42862 0
M  V30 6692 H 647.994 -1.00894 1.53273 0
M  V30 6693 H 646.376 -3.63552 1.5699 0
M  V30 6694 H 647.55 -2.2058 4.04575 0
M  V30 6695 H 645.865 -2.13072 3.57756 0
M  V30 6696 H 648.462 -4.70866 2.53357 0
M  V30 6697 H 648.805 -4.05277 0.951643 0
M  V30 6698 H 649.338 -3.1701 2.40311 0
M  V30 6699 H 646.077 -3.81488 5.33055 0
M  V30 6700 H 645.597 -4.62351 3.82089 0
M  V30 6701 H 647.276 -4.74004 4.40374 0
M  V30 6702 N 647.408 -1.11026 -1.11852 0
M  V30 6703 C 648.34 -0.72249 -2.17515 0
M  V30 6704 C 649.353 0.243782 -1.60964 0
M  V30 6705 O 650.542 0.0273252 -1.78479 0
M  V30 6706 C 647.642 -0.0463979 -3.38868 0
M  V30 6707 C 646.815 -1.0384 -4.24895 0
M  V30 6708 C 645.874 -0.392659 -5.24733 0
M  V30 6709 O 644.9 -1.0453 -5.5952 0
M  V30 6710 N 646.102 0.846296 -5.74298 0
M  V30 6711 H 648.867 -1.63161 -2.51393 0
M  V30 6712 H 646.428 -0.999899 -1.27333 0
M  V30 6713 H 648.42 0.397215 -4.02746 0
M  V30 6714 H 646.99 0.765231 -3.03089 0
M  V30 6715 H 646.21 -1.6601 -3.57539 0
M  V30 6716 H 647.498 -1.70968 -4.79215 0
M  V30 6717 H 646.896 1.39578 -5.4821 0
M  V30 6718 H 645.453 1.23296 -6.40032 0
M  V30 6719 N 648.886 1.2938 -0.899927 0
M  V30 6720 C 650.134 1.95164 -0.524924 0
M  V30 6721 C 650.455 1.71292 0.931888 0
M  V30 6722 O 649.725 1.04481 1.65712 0
M  V30 6723 H 648.305 0.722133 -0.191135 0
M  V30 6724 H 650.967 1.57628 -1.14627 0
M  V30 6725 H 650.063 3.0397 -0.707711 0
M  V30 6726 N 650.364 0.662433 1.43002 0
M  V30 6727 C 651.327 -0.0142016 2.29196 0
M  V30 6728 C 652.327 -0.741394 1.42688 0
M  V30 6729 O 653.517 -0.581257 1.64216 0
M  V30 6730 C 650.649 -1.03084 3.24941 0
M  V30 6731 H 651.842 0.7443 2.90517 0
M  V30 6732 H 649.395 0.424133 1.50435 0
M  V30 6733 H 650.13 -1.81826 2.68533 0
M  V30 6734 H 649.915 -0.512946 3.8873 0
M  V30 6735 H 651.405 -1.50308 3.89612 0
M  V30 6736 N 651.842 -1.52309 0.404946 0
M  V30 6737 C 652.772 -2.29805 -0.41376 0
M  V30 6738 C 653.753 -1.3384 -1.0498 0
M  V30 6739 O 654.938 -1.62745 -1.05961 0
M  V30 6740 C 652.068 -3.11639 -1.53292 0
M  V30 6741 C 651.022 -4.15616 -1.02211 0
M  V30 6742 C 650.348 -4.8577 -2.23455 0
M  V30 6743 C 651.648 -5.2224 -0.0790725 0
M  V30 6744 H 653.342 -2.98493 0.232878 0
M  V30 6745 H 650.888 -1.43552 0.113441 0
M  V30 6746 H 652.841 -3.64618 -2.11262 0
M  V30 6747 H 651.565 -2.40712 -2.20738 0
M  V30 6748 H 650.224 -3.63641 -0.46484 0
M  V30 6749 H 649.872 -4.11376 -2.89445 0
M  V30 6750 H 649.572 -5.56058 -1.89929 0
M  V30 6751 H 651.096 -5.4156 -2.82038 0
M  V30 6752 H 652.51 -5.70485 -0.567438 0
M  V30 6753 H 650.907 -5.99867 0.167167 0
M  V30 6754 H 651.977 -4.77078 0.867447 0
M  V30 6755 N 653.32 -0.135238 -1.57019 0
M  V30 6756 C 654.566 0.519563 -1.96032 0
M  V30 6757 C 654.899 1.65284 -1.01955 0
M  V30 6758 O 654.174 1.94408 -0.059727 0
M  V30 6759 C 654.457 1.0369 -3.44848 0
M  V30 6760 C 654.31 -0.0940754 -4.49702 0
M  V30 6761 C 655.629 1.92254 -3.95887 0
M  V30 6762 H 652.748 0.18739 -0.712779 0
M  V30 6763 H 655.39 -0.214086 -1.8879 0
M  V30 6764 H 653.54 1.66209 -3.5115 0
M  V30 6765 H 655.212 -0.73 -4.55487 0
M  V30 6766 H 653.455 -0.754924 -4.27181 0
M  V30 6767 H 654.126 0.309419 -5.51132 0
M  V30 6768 H 656.602 1.39581 -3.9199 0
M  V30 6769 H 655.478 2.25364 -5.00502 0
M  V30 6770 H 655.739 2.85513 -3.37543 0
M  V30 6771 N 654.798 1.5699 0.138552 0
M  V30 6772 C 656.046 1.83446 0.848053 0
M  V30 6773 C 656.367 0.71744 1.81322 0
M  V30 6774 O 655.637 -0.260228 1.94164 0
M  V30 6775 H 654.217 0.676792 0.316166 0
M  V30 6776 H 656.879 1.94462 0.130538 0
M  V30 6777 H 655.975 2.78677 1.40518 0
M  V30 6778 N 656.276 -0.40816 1.52223 0
M  V30 6779 C 657.525 -1.15212 1.65557 0
M  V30 6780 C 657.838 -1.9163 0.392096 0
M  V30 6781 O 659.044 -2.68458 0.405256 0
M  V30 6782 C 657.5 -2.09691 2.92502 0
M  V30 6783 C 657.108 -1.38785 4.25961 0
M  V30 6784 C 658.852 -2.8434 3.152 0
M  V30 6785 C 656.759 -2.31919 5.44029 0
M  V30 6786 H 655.689 -0.433776 0.616729 0
M  V30 6787 H 658.34 -0.4165 1.78711 0
M  V30 6788 H 656.722 -2.8681 2.7305 0
M  V30 6789 H 657.896 -0.670248 4.55899 0
M  V30 6790 H 656.211 -0.761741 4.09373 0
M  V30 6791 H 658.808 -3.54166 4.00587 0
M  V30 6792 H 659.151 -3.47344 2.29473 0
M  V30 6793 H 659.684 -2.14321 3.35129 0
M  V30 6794 H 656.423 -1.7356 6.32105 0
M  V30 6795 H 655.943 -3.0165 5.18428 0
M  V30 6796 H 657.622 -2.92424 5.77146 0
M  V30 6797 N 657.755 -1.42862 -0.66545 0
M  V30 6798 C 658.718 -1.46756 -1.76055 0
M  V30 6799 C 659.718 -0.353866 -1.56858 0
M  V30 6800 O 660.908 -0.615099 -1.62979 0
M  V30 6801 C 658.04 -1.30829 -3.14796 0
M  V30 6802 H 659.233 -2.44271 -1.73987 0
M  V30 6803 H 656.786 -1.29447 -0.875965 0
M  V30 6804 H 657.521 -0.342733 -3.22484 0
M  V30 6805 H 657.306 -2.11551 -3.30134 0
M  V30 6806 H 658.796 -1.36458 -3.94676 0
M  V30 6807 N 659.233 0.902656 -1.29189 0
M  V30 6808 C 660.166 2.00816 -1.0839 0
M  V30 6809 C 661.144 1.626 0.00335266 0
M  V30 6810 O 662.328 1.87928 -0.146765 0
M  V30 6811 C 659.455 3.32415 -0.649435 0
M  V30 6812 C 658.501 3.89617 -1.73496 0
M  V30 6813 S 659.334 4.19091 -3.33351 0
M  V30 6814 C 660.49 5.53736 -2.91766 0
M  V30 6815 H 660.723 2.18151 -2.01984 0
M  V30 6816 H 658.256 1.0489 -1.13303 0
M  V30 6817 H 660.214 4.08492 -0.405479 0
M  V30 6818 H 658.875 3.12964 0.266857 0
M  V30 6819 H 658.068 4.84658 -1.38284 0
M  V30 6820 H 657.67 3.20217 -1.93229 0
M  V30 6821 H 659.962 6.34085 -2.38627 0
M  V30 6822 H 660.905 5.93871 -3.85647 0
M  V30 6823 H 661.313 5.15453 -2.30149 0
M  V30 6824 N 660.711 1.11618 1.11262 0
M  V30 6825 C 661.957 0.867463 1.83311 0
M  V30 6826 C 662.29 -0.605366 1.84524 0
M  V30 6827 O 661.565 -1.44704 1.29965 0
M  V30 6828 C 661.848 1.43207 3.30399 0
M  V30 6829 C 661.701 2.97265 3.3757 0
M  V30 6830 C 663.02 1.08454 4.26528 0
M  V30 6831 H 660.139 0.316578 0.665543 0
M  V30 6832 H 662.781 1.38137 1.30454 0
M  V30 6833 H 660.931 0.994982 3.75543 0
M  V30 6834 H 662.603 3.49591 3.00971 0
M  V30 6835 H 660.846 3.33237 2.77733 0
M  V30 6836 H 661.517 3.31859 4.41105 0
M  V30 6837 H 663.993 1.4619 3.89574 0
M  V30 6838 H 662.869 1.50633 5.27826 0
M  V30 6839 H 663.13 -0.00444568 4.421 0
M  V30 6840 N 662.189 -1.289 0.906776 0
M  V30 6841 C 663.119 -2.29932 0.406659 0
M  V30 6842 C 664.1 -1.6189 -0.522061 0
M  V30 6843 O 665.285 -1.8935 -0.431283 0
M  V30 6844 C 662.415 -3.45425 -0.360366 0
M  V30 6845 C 661.369 -4.25316 0.478574 0
M  V30 6846 C 660.695 -5.33076 -0.416373 0
M  V30 6847 C 661.995 -4.92739 1.7322 0
M  V30 6848 H 663.689 -2.72013 1.25097 0
M  V30 6849 H 661.235 -1.30768 0.602977 0
M  V30 6850 H 663.188 -4.15186 -0.721029 0
M  V30 6851 H 661.912 -3.02206 -1.23852 0
M  V30 6852 H 660.571 -3.57273 0.821662 0
M  V30 6853 H 660.219 -4.86101 -1.29287 0
M  V30 6854 H 659.919 -5.8743 0.141309 0
M  V30 6855 H 661.443 -6.05686 -0.773072 0
M  V30 6856 H 662.857 -5.54898 1.44086 0
M  V30 6857 H 661.254 -5.57057 2.23175 0
M  V30 6858 H 662.324 -4.17625 2.46408 0
M  V30 6859 N 663.667 -0.670007 -1.42649 0
M  V30 6860 C 664.892 -0.196955 -2.06463 0
M  V30 6861 C 665.317 1.1352 -1.49983 0
M  V30 6862 O 664.675 1.705 -0.616397 0
M  V30 6863 C 664.723 -0.137381 -3.60338 0
M  V30 6864 O 663.827 0.895523 -4.02559 0
M  V30 6865 H 663.168 -0.102579 -0.656029 0
M  V30 6866 H 665.698 -0.917669 -1.82866 0
M  V30 6867 H 665.708 0.0403625 -4.0798 0
M  V30 6868 H 664.383 -1.10977 -4.0082 0
M  V30 6869 H 662.96 0.689209 -3.66476 0
M  V30 6870 N 665.145 1.52092 -0.413018 0
M  V30 6871 C 666.108 2.25706 0.398687 0
M  V30 6872 C 667.108 1.28221 0.970368 0
M  V30 6873 O 668.298 1.52131 0.848635 0
M  V30 6874 C 665.43 3.03029 1.5616 0
M  V30 6875 H 666.623 2.98888 -0.246131 0
M  V30 6876 H 664.176 1.5542 -0.165622 0
M  V30 6877 H 664.911 2.34205 2.24317 0
M  V30 6878 H 664.696 3.74606 1.15812 0
M  V30 6879 H 666.186 3.58857 2.13569 0
M  V30 6880 N 666.623 0.143563 1.56945 0
M  V30 6881 C 667.869 -0.50916 1.96304 0
M  V30 6882 C 668.202 -1.64741 1.0283 0
M  V30 6883 O 667.477 -1.94374 0.0700361 0
M  V30 6884 C 667.76 -1.0186 3.45393 0
M  V30 6885 C 667.613 0.117923 4.49645 0
M  V30 6886 C 668.932 -1.90151 3.96901 0
M  V30 6887 H 666.051 -0.183608 0.713763 0
M  V30 6888 H 668.693 0.224095 1.88674 0
M  V30 6889 H 666.843 -1.64345 3.52027 0
M  V30 6890 H 668.515 0.754145 4.55094 0
M  V30 6891 H 666.758 0.777568 4.26774 0
M  V30 6892 H 667.429 -0.280187 5.51288 0
M  V30 6893 H 669.905 -1.375 3.92725 0
M  V30 6894 H 668.781 -2.22707 5.0169 0
M  V30 6895 H 669.042 -2.83718 3.39052 0
M  V30 6896 N 668.101 -1.57061 -0.130224 0
M  V30 6897 C 669.348 -1.84257 -0.839972 0
M  V30 6898 C 669.676 -0.726986 -1.80403 0
M  V30 6899 O 668.931 0.282632 -1.93648 0
M  V30 6900 C 669.23 -3.17878 -1.63365 0
M  V30 6901 C 668.896 -4.43475 -0.814891 0
M  V30 6902 C 667.558 -4.77581 -0.589066 0
M  V30 6903 C 669.91 -5.20631 -0.243437 0
M  V30 6904 C 667.238 -5.86292 0.218648 0
M  V30 6905 C 669.59 -6.30192 0.551408 0
M  V30 6906 C 668.254 -6.62837 0.787653 0
M  V30 6907 H 667.524 -0.674245 -0.307367 0
M  V30 6908 H 670.171 -1.91224 -0.102832 0
M  V30 6909 H 668.476 -3.06437 -2.44138 0
M  V30 6910 H 670.173 -3.3614 -2.18658 0
M  V30 6911 H 666.763 -4.16747 -1.00098 0
M  V30 6912 H 670.947 -4.94644 -0.405145 0
M  V30 6913 H 666.203 -6.10017 0.411016 0
M  V30 6914 H 670.377 -6.89165 1.00126 0
M  V30 6915 H 668.004 -7.46908 1.41537 0
M  V30 6916 N 669.579 0.400081 -1.52437 0
M  V30 6917 C 670.825 1.14788 -1.67187 0
M  V30 6918 C 671.158 1.89928 -0.405074 0
M  V30 6919 O 670.433 1.85118 0.596804 0
M  V30 6920 C 670.716 2.13507 -2.89977 0
M  V30 6921 C 670.569 1.42204 -4.2673 0
M  V30 6922 C 671.888 3.14069 -3.083 0
M  V30 6923 H 669.007 0.415939 -0.608411 0
M  V30 6924 H 671.649 0.432542 -1.85011 0
M  V30 6925 H 669.799 2.7451 -2.74912 0
M  V30 6926 H 671.471 0.842503 -4.53541 0
M  V30 6927 H 669.714 0.723939 -4.27717 0
M  V30 6928 H 670.385 2.14281 -5.08712 0
M  V30 6929 H 672.861 2.63148 -3.22323 0
M  V30 6930 H 671.737 3.80398 -3.95713 0
M  V30 6931 H 671.998 3.82309 -2.22018 0
M  V30 6932 N 671.057 1.43213 0.657864 0
M  V30 6933 C 672.468 1.39669 1.23893 0
M  V30 6934 C 672.819 0.0984217 1.95953 0
M  V30 6935 O 671.944 -0.8023 2.00978 0
M  V30 6936 C 672.539 2.53004 2.25332 0
M  V30 6937 C 671.098 2.5274 2.78926 0
M  V30 6938 C 670.245 2.30941 1.53497 0
M  V30 6939 H 673.196 1.52181 0.450172 0
M  V30 6940 H 673.217 2.24226 3.07413 0
M  V30 6941 H 672.729 3.4748 1.72856 0
M  V30 6942 H 670.83 1.6213 3.35477 0
M  V30 6943 H 670.943 3.50352 3.26787 0
M  V30 6944 H 669.307 1.7952 1.80678 0
M  V30 6945 H 670.09 3.27496 1.02963 0
M  V30 6946 N 672.536 -0.895792 1.29666 0
M  V30 6947 C 673.469 -2.00238 1.09453 0
M  V30 6948 C 674.447 -1.62599 0.00527044 0
M  V30 6949 O 675.631 -1.87847 0.156729 0
M  V30 6950 C 672.758 -3.32066 0.667054 0
M  V30 6951 C 671.804 -3.88691 1.7556 0
M  V30 6952 S 672.637 -4.17317 3.35569 0
M  V30 6953 C 673.793 -5.52181 2.94698 0
M  V30 6954 H 674.026 -2.17076 2.03138 0
M  V30 6955 H 671.559 -1.04287 1.13858 0
M  V30 6956 H 673.517 -4.08272 0.427136 0
M  V30 6957 H 672.178 -3.13101 -0.250256 0
M  V30 6958 H 671.371 -4.83918 1.40853 0
M  V30 6959 H 670.973 -3.19187 1.94924 0
M  V30 6960 H 673.265 -6.3281 2.41986 0
M  V30 6961 H 674.208 -5.91817 3.88791 0
M  V30 6962 H 674.616 -5.14225 2.32879 0
M  V30 6963 N 674.014 -1.12206 -1.10668 0
M  V30 6964 C 674.977 -0.790867 -2.15123 0
M  V30 6965 C 675.977 0.193618 -1.5963 0
M  V30 6966 O 677.167 -0.0318728 -1.74171 0
M  V30 6967 C 674.299 -0.174797 -3.40452 0
M  V30 6968 H 675.492 -1.7163 -2.45933 0
M  V30 6969 H 673.045 -0.924993 -1.2599 0
M  V30 6970 H 673.78 0.760478 -3.15257 0
M  V30 6971 H 673.565 -0.88358 -3.82015 0
M  V30 6972 H 675.055 0.0405162 -4.1758 0
M  V30 6973 N 675.492 1.28418 -0.913599 0
M  V30 6974 C 676.739 1.94981 -0.546674 0
M  V30 6975 C 677.067 1.7192 0.909606 0
M  V30 6976 O 676.322 1.03314 1.66207 0
M  V30 6977 C 676.621 3.48283 -0.802099 0
M  V30 6978 C 676.287 3.91444 -2.2379 0
M  V30 6979 C 674.949 4.02939 -2.63046 0
M  V30 6980 C 677.301 4.13542 -3.17227 0
M  V30 6981 C 674.629 4.3391 -3.94891 0
M  V30 6982 C 676.981 4.45992 -4.48636 0
M  V30 6983 C 675.645 4.55698 -4.87746 0
M  V30 6984 H 674.915 0.713487 -0.200042 0
M  V30 6985 H 677.562 1.52756 -1.15489 0
M  V30 6986 H 675.867 3.91643 -0.111076 0
M  V30 6987 H 677.564 3.97903 -0.497375 0
M  V30 6988 H 674.154 3.83024 -1.9233 0
M  V30 6989 H 678.338 4.04114 -2.88107 0
M  V30 6990 H 673.594 4.39631 -4.24894 0
M  V30 6991 H 677.768 4.62038 -5.21051 0
M  V30 6992 H 675.395 4.79451 -5.89942 0
M  V30 6993 N 676.97 0.677563 1.42291 0
M  V30 6994 C 678.217 0.200975 2.015 0
M  V30 6995 C 678.545 -1.19342 1.53583 0
M  V30 6996 O 677.8 -1.81579 0.7299 0
M  V30 6997 C 678.099 0.187229 3.56909 0
M  V30 6998 C 677.765 1.52667 4.24268 0
M  V30 6999 C 676.427 1.89341 4.42384 0
M  V30 7000 C 678.779 2.40869 4.62203 0
M  V30 7001 C 676.107 3.13836 4.95705 0
M  V30 7002 C 678.459 3.64679 5.16906 0
M  V30 7003 C 677.123 4.01519 5.33234 0
M  V30 7004 H 676.393 0.0735418 0.737342 0
M  V30 7005 H 679.04 0.873095 1.70439 0
M  V30 7006 H 677.345 -0.568407 3.87655 0
M  V30 7007 H 679.042 -0.198773 4.00507 0
M  V30 7008 H 675.632 1.23138 4.1053 0
M  V30 7009 H 679.816 2.1382 4.47878 0
M  V30 7010 H 675.072 3.42396 5.06532 0
M  V30 7011 H 679.246 4.33224 5.45243 0
M  V30 7012 H 676.873 4.98062 5.74316 0
M  V30 7013 N 678.448 -1.51871 0.421078 0
M  V30 7014 C 679.696 -2.01539 -0.150492 0
M  V30 7015 C 680.017 -1.30803 -1.44623 0
M  V30 7016 O 679.287 -0.437568 -1.90951 0
M  V30 7017 H 677.867 -0.744698 -0.0586041 0
M  V30 7018 H 680.529 -1.8668 0.560059 0
M  V30 7019 H 679.625 -3.10264 -0.338068 0
M  V30 7020 N 679.926 -0.151884 -1.56866 0
M  V30 7021 C 681.174 0.497021 -1.95893 0
M  V30 7022 C 681.495 1.65078 -1.03799 0
M  V30 7023 O 680.765 1.95642 -0.10049 0
M  V30 7024 H 679.345 0.186603 -0.723318 0
M  V30 7025 H 682.007 -0.228525 -1.93556 0
M  V30 7026 H 681.103 0.869933 -2.99731 0
M  V30 7027 N 681.404 1.57128 0.121893 0
M  V30 7028 C 682.629 1.89254 0.848385 0
M  V30 7029 C 683.054 0.743527 1.72781 0
M  V30 7030 O 682.412 -0.306056 1.78698 0
M  V30 7031 C 682.46 3.20113 1.66012 0
M  V30 7032 O 681.564 3.05815 2.76679 0
M  V30 7033 H 680.905 0.621103 0.234793 0
M  V30 7034 H 683.435 2.0433 0.10516 0
M  V30 7035 H 683.445 3.52761 2.04996 0
M  V30 7036 H 682.12 4.03336 1.01452 0
M  V30 7037 H 680.697 2.84627 2.40918 0
M  V30 7038 N 682.882 -0.391992 1.52647 0
M  V30 7039 C 684.11 -1.1586 1.71418 0
M  V30 7040 C 684.525 -1.8381 0.431216 0
M  V30 7041 O 683.882 -1.7256 -0.594085 0
M  V30 7042 C 683.933 -2.20888 2.86165 0
M  V30 7043 O 683.654 -1.5571 4.09495 0
M  V30 7044 C 685.155 -3.103 3.1659 0
M  V30 7045 H 682.375 -0.347494 0.574011 0
M  V30 7046 H 684.919 -0.458972 1.99283 0
M  V30 7047 H 683.074 -2.86492 2.6077 0
M  V30 7048 H 683.488 -2.25474 4.73563 0
M  V30 7049 H 684.962 -3.8003 4.00351 0
M  V30 7050 H 685.439 -3.73639 2.30848 0
M  V30 7051 H 686.045 -2.50345 3.43813 0
M  V30 7052 N 684.36 -1.4356 -0.65026 0
M  V30 7053 C 685.608 -1.45046 -1.40734 0
M  V30 7054 C 685.929 -0.0769822 -1.94848 0
M  V30 7055 O 685.199 0.888098 -1.74613 0
M  V30 7056 H 683.779 -0.534034 -0.522318 0
M  V30 7057 H 686.441 -1.79186 -0.766703 0
M  V30 7058 H 685.537 -2.16476 -2.24822 0
M  V30 7059 N 685.838 0.888903 -1.30139 0
M  V30 7060 C 686.801 1.97576 -1.16174 0
M  V30 7061 C 687.801 1.60525 -0.094086 0
M  V30 7062 O 688.991 1.70812 -0.341889 0
M  V30 7063 C 686.123 3.3188 -0.778983 0
M  V30 7064 H 687.316 2.11393 -2.12728 0
M  V30 7065 H 684.869 1.0748 -1.1348 0
M  V30 7066 H 685.604 3.23765 0.186225 0
M  V30 7067 H 685.389 3.60141 -1.55051 0
M  V30 7068 H 686.879 4.11612 -0.704631 0
M  V30 7069 N 687.317 1.12792 1.10072 0
M  V30 7070 C 688.566 0.880232 1.81479 0
M  V30 7071 C 688.879 -0.595575 1.86312 0
M  V30 7072 O 690.085 -0.959979 2.53962 0
M  V30 7073 C 688.541 1.52514 3.25987 0
M  V30 7074 C 688.149 3.036 3.29441 0
M  V30 7075 C 689.893 1.35788 4.02196 0
M  V30 7076 C 687.8 3.61007 4.68431 0
M  V30 7077 H 686.73 0.325654 0.680048 0
M  V30 7078 H 689.381 1.35485 1.23758 0
M  V30 7079 H 687.763 0.978188 3.83728 0
M  V30 7080 H 688.937 3.64819 2.81502 0
M  V30 7081 H 687.252 3.19765 2.66719 0
M  V30 7082 H 689.849 1.76096 5.0487 0
M  V30 7083 H 690.192 0.301972 4.15203 0
M  V30 7084 H 690.725 1.87426 3.50879 0
M  V30 7085 H 687.464 4.66375 4.60625 0
M  V30 7086 H 686.984 3.04564 5.16721 0
M  V30 7087 H 688.663 3.60289 5.37402 0
M  V30 7088 N 688.795 -1.27931 0.920396 0
M  V30 7089 C 690.025 -1.98516 0.572256 0
M  V30 7090 C 690.433 -1.68912 -0.852375 0
M  V30 7091 O 689.776 -0.94203 -1.57707 0
M  V30 7092 C 689.838 -3.5243 0.709485 0
M  V30 7093 C 689.502 -4.0564 2.10489 0
M  V30 7094 C 690.499 -4.1897 3.07831 0
M  V30 7095 C 688.184 -4.40168 2.41986 0
M  V30 7096 C 690.178 -4.66093 4.34783 0
M  V30 7097 C 687.865 -4.86983 3.69176 0
M  V30 7098 C 688.863 -4.99903 4.65388 0
M  V30 7099 O 688.551 -5.45694 5.90316 0
M  V30 7100 H 688.283 -0.64047 0.216274 0
M  V30 7101 H 690.837 -1.6393 1.23758 0
M  V30 7102 H 689.067 -3.86698 -0.0129263 0
M  V30 7103 H 690.756 -4.04233 0.367474 0
M  V30 7104 H 691.522 -3.92562 2.84816 0
M  V30 7105 H 687.401 -4.29358 1.67846 0
M  V30 7106 H 690.945 -4.76092 5.09884 0
M  V30 7107 H 686.842 -5.12832 3.92012 0
M  V30 7108 H 687.61 -5.63965 5.932 0
M  V30 7109 N 690.273 -0.685099 -1.4193 0
M  V30 7110 C 691.689 -0.355632 -1.55587 0
M  V30 7111 C 691.889 1.13823 -1.66273 0
M  V30 7112 O 690.945 1.92387 -1.63534 0
M  V30 7113 C 692.258 -1.09498 -2.80055 0
M  V30 7114 C 693.806 -1.07831 -2.93839 0
M  V30 7115 C 694.281 -1.79919 -4.21181 0
M  V30 7116 N 695.772 -1.76837 -4.28115 0
M  V30 7117 C 696.507 -2.29463 -5.25485 0
M  V30 7118 N 696.003 -2.90516 -6.28945 0
M  V30 7119 N 697.796 -2.19779 -5.17353 0
M  V30 7120 H 689.947 -1.65412 -1.33239 0
M  V30 7121 H 692.21 -0.697453 -0.642078 0
M  V30 7122 H 691.916 -2.14997 -2.78333 0
M  V30 7123 H 691.79 -0.666813 -3.71259 0
M  V30 7124 H 694.177 -0.0316152 -2.95083 0
M  V30 7125 H 694.258 -1.54545 -2.03837 0
M  V30 7126 H 693.902 -2.84562 -4.20698 0
M  V30 7127 H 693.832 -1.30647 -5.10136 0
M  V30 7128 H 696.323 -1.32315 -3.53979 0
M  V30 7129 H 696.636 -3.28266 -6.99615 0
M  V30 7130 H 694.981 -2.94589 -6.29478 0
M  V30 7131 H 698.172 -1.71763 -4.35448 0
M  V30 7132 H 698.345 -2.61097 -5.9307 0
M  V30 7133 N 691.751 1.51645 -0.429126 0
M  V30 7134 C 692.683 2.25279 0.422124 0
M  V30 7135 C 693.696 1.28986 0.993299 0
M  V30 7136 O 694.885 1.54797 0.888836 0
M  V30 7137 C 691.985 2.98666 1.60162 0
M  V30 7138 C 691.158 4.2199 1.15078 0
M  V30 7139 C 690.217 4.78028 2.19946 0
M  V30 7140 O 689.243 5.40084 1.79716 0
M  V30 7141 N 690.445 4.61342 3.5234 0
M  V30 7142 H 693.21 2.98971 -0.208931 0
M  V30 7143 H 690.771 1.59838 -0.257568 0
M  V30 7144 H 692.763 3.33044 2.29922 0
M  V30 7145 H 691.333 2.28036 2.13818 0
M  V30 7146 H 690.553 3.932 0.280552 0
M  V30 7147 H 691.841 5.02037 0.826831 0
M  V30 7148 H 691.239 4.11894 3.87763 0
M  V30 7149 H 689.796 5.00104 4.18019 0
M  V30 7150 N 693.229 0.160201 1.56784 0
M  V30 7151 C 694.476 -0.487588 1.96542 0
M  V30 7152 C 694.804 -1.63999 1.04569 0
M  V30 7153 O 694.059 -1.95546 0.0775211 0
M  V30 7154 C 694.358 -1.02259 3.42459 0
M  V30 7155 C 694.024 0.0127436 4.50898 0
M  V30 7156 C 692.686 0.297318 4.80281 0
M  V30 7157 C 695.038 0.716078 5.16257 0
M  V30 7158 C 692.366 1.29081 5.72324 0
M  V30 7159 C 694.718 1.69847 6.09372 0
M  V30 7160 C 693.382 1.99061 6.37127 0
M  V30 7161 H 692.652 -0.178421 0.719199 0
M  V30 7162 H 695.299 0.249818 1.89864 0
M  V30 7163 H 693.604 -1.8376 3.46034 0
M  V30 7164 H 695.301 -1.53261 3.70556 0
M  V30 7165 H 691.891 -0.219235 4.28039 0
M  V30 7166 H 696.075 0.509428 4.93679 0
M  V30 7167 H 691.331 1.52344 5.92116 0
M  V30 7168 H 695.505 2.2489 6.59088 0
M  V30 7169 H 693.132 2.76194 7.08252 0
M  V30 7170 N 694.707 -1.5719 -0.113559 0
M  V30 7171 C 695.932 -1.89702 -0.838336 0
M  V30 7172 C 696.357 -0.752679 -1.72384 0
M  V30 7173 O 695.715 0.296575 -1.78858 0
M  V30 7174 C 695.763 -3.20989 -1.64312 0
M  V30 7175 O 694.867 -3.07278 -2.75053 0
M  V30 7176 H 694.208 -0.622339 -0.231496 0
M  V30 7177 H 696.738 -2.04382 -0.0943228 0
M  V30 7178 H 696.748 -3.53843 -2.03123 0
M  V30 7179 H 695.423 -4.03869 -0.993119 0
M  V30 7180 H 694 -2.85901 -2.39406 0
M  V30 7181 N 696.185 0.383891 -1.52853 0
M  V30 7182 C 697.434 1.12563 -1.67369 0
M  V30 7183 C 697.747 1.90982 -0.422533 0
M  V30 7184 O 698.953 2.6778 -0.447914 0
M  V30 7185 C 697.409 2.05011 -2.95801 0
M  V30 7186 C 697.017 1.31991 -4.28115 0
M  V30 7187 C 698.761 2.79289 -3.19684 0
M  V30 7188 C 696.668 2.23235 -5.4765 0
M  V30 7189 H 695.598 0.42391 -0.623552 0
M  V30 7190 H 698.249 0.388016 -1.79351 0
M  V30 7191 H 696.631 2.82429 -2.77578 0
M  V30 7192 H 697.805 0.597633 -4.56908 0
M  V30 7193 H 696.12 0.696517 -4.10533 0
M  V30 7194 H 698.717 3.47749 -4.06171 0
M  V30 7195 H 699.06 3.43649 -2.3497 0
M  V30 7196 H 699.593 2.08962 -3.38496 0
M  V30 7197 H 696.332 1.63482 -6.34786 0
M  V30 7198 H 695.852 2.93364 -5.23161 0
M  V30 7199 H 697.531 2.83205 -5.81725 0
M  V30 7200 N 697.663 1.43903 0.642637 0
M  V30 7201 C 698.891 1.4954 1.42988 0
M  V30 7202 C 699.306 0.116588 1.8844 0
M  V30 7203 O 698.663 -0.875285 1.60141 0
M  V30 7204 C 698.714 2.45031 2.65785 0
M  V30 7205 O 698.435 3.77551 2.22232 0
M  V30 7206 C 699.936 2.60017 3.59035 0
M  V30 7207 H 697.156 0.507544 0.438907 0
M  V30 7208 H 699.7 1.88752 0.786942 0
M  V30 7209 H 697.855 2.08985 3.26196 0
M  V30 7210 H 698.269 4.29001 3.01759 0
M  V30 7211 H 699.743 3.30887 4.41835 0
M  V30 7212 H 700.22 1.64861 4.07084 0
M  V30 7213 H 700.826 2.96918 3.045 0
M  V30 7214 N 699.141 -0.881989 1.30609 0
M  V30 7215 C 700.39 -1.62878 1.18969 0
M  V30 7216 C 700.703 -1.93946 -0.253859 0
M  V30 7217 O 701.909 -2.67008 -0.491813 0
M  V30 7218 C 700.365 -2.93573 2.0819 0
M  V30 7219 C 699.973 -2.70034 3.57471 0
M  V30 7220 C 701.717 -3.71543 2.0532 0
M  V30 7221 C 699.624 -3.96563 4.38739 0
M  V30 7222 H 698.554 -0.611092 0.441682 0
M  V30 7223 H 701.205 -0.976201 1.55379 0
M  V30 7224 H 699.587 -3.6014 1.64666 0
M  V30 7225 H 700.761 -2.11949 4.09163 0
M  V30 7226 H 699.076 -2.05435 3.62195 0
M  V30 7227 H 701.673 -4.65386 2.63288 0
M  V30 7228 H 702.016 -4.03167 1.03739 0
M  V30 7229 H 702.549 -3.11842 2.46981 0
M  V30 7230 H 699.288 -3.70095 5.41027 0
M  V30 7231 H 698.808 -4.54142 3.9181 0
M  V30 7232 H 700.487 -4.64557 4.50329 0
M  V30 7233 N 700.619 -1.13374 -1.09472 0
M  V30 7234 C 701.865 -0.896516 -1.81908 0
M  V30 7235 C 702.198 0.575933 -1.85463 0
M  V30 7236 O 701.473 1.42618 -1.32251 0
M  V30 7237 C 701.756 -1.48445 -3.28079 0
M  V30 7238 C 701.609 -3.02598 -3.32798 0
M  V30 7239 C 702.928 -1.15226 -4.24748 0
M  V30 7240 H 700.047 -0.327127 -0.660422 0
M  V30 7241 H 702.689 -1.40195 -1.2824 0
M  V30 7242 H 700.839 -1.0546 -3.73912 0
M  V30 7243 H 702.511 -3.54335 -2.95372 0
M  V30 7244 H 700.754 -3.37613 -2.72397 0
M  V30 7245 H 701.425 -3.38835 -4.3577 0
M  V30 7246 H 703.901 -1.52369 -3.87199 0
M  V30 7247 H 702.777 -1.59012 -5.25363 0
M  V30 7248 H 703.038 -0.0658891 -4.42051 0
M  V30 7249 N 702.098 1.27442 -0.927168 0
M  V30 7250 C 703.323 1.99036 -0.583042 0
M  V30 7251 C 703.748 1.68711 0.83176 0
M  V30 7252 O 703.106 0.927081 1.55804 0
M  V30 7253 C 703.154 3.51271 -0.814925 0
M  V30 7254 O 702.258 4.12226 0.119742 0
M  V30 7255 H 701.599 0.624883 -0.224538 0
M  V30 7256 H 704.129 1.62263 -1.24628 0
M  V30 7257 H 704.139 4.01411 -0.730282 0
M  V30 7258 H 702.814 3.72676 -1.84623 0
M  V30 7259 H 701.391 3.72897 -0.0147688 0
M  V30 7260 N 703.576 0.692616 1.41565 0
M  V30 7261 C 704.539 0.0344174 2.29174 0
M  V30 7262 C 705.539 -0.710961 1.44229 0
M  V30 7263 O 706.729 -0.546293 1.65412 0
M  V30 7264 C 703.861 -0.961682 3.27054 0
M  V30 7265 H 705.054 0.805755 2.88873 0
M  V30 7266 H 702.607 0.455947 1.49502 0
M  V30 7267 H 703.342 -1.76089 2.72329 0
M  V30 7268 H 703.127 -0.430375 3.89731 0
M  V30 7269 H 704.617 -1.4201 3.92712 0
M  V30 7270 N 705.054 -1.51416 0.437162 0
M  V30 7271 C 705.987 -2.24309 -0.419602 0
M  V30 7272 C 706.965 -1.26236 -1.02485 0
M  V30 7273 O 708.149 -1.5537 -1.06735 0
M  V30 7274 C 705.276 -2.99335 -1.58482 0
M  V30 7275 C 704.322 -4.12064 -1.10027 0
M  V30 7276 S 705.155 -5.35483 -0.0424476 0
M  V30 7277 C 706.311 -6.14047 -1.21234 0
M  V30 7278 H 706.544 -2.96632 0.199259 0
M  V30 7279 H 704.077 -1.528 0.22168 0
M  V30 7280 H 706.035 -3.43159 -2.25282 0
M  V30 7281 H 704.696 -2.26602 -2.17509 0
M  V30 7282 H 703.889 -4.63836 -1.97161 0
M  V30 7283 H 703.491 -3.70499 -0.510507 0
M  V30 7284 H 705.783 -6.43123 -2.13072 0
M  V30 7285 H 706.726 -7.04279 -0.734582 0
M  V30 7286 H 707.134 -5.45538 -1.45082 0
M  V30 7287 N 706.532 -0.168513 -1.56696 0
M  V30 7288 C 707.495 0.748928 -2.16619 0
M  V30 7289 C 708.495 1.16007 -1.11351 0
M  V30 7290 O 709.685 1.07748 -1.3688 0
M  V30 7291 C 706.817 2.01904 -2.74677 0
M  V30 7292 H 708.01 0.227317 -2.99037 0
M  V30 7293 H 705.563 0.0810372 -1.5609 0
M  V30 7294 H 706.298 2.58381 -1.95985 0
M  V30 7295 H 706.083 1.73323 -3.51712 0
M  V30 7296 H 707.573 2.67383 -3.20774 0
M  V30 7297 N 708.01 1.57248 0.105221 0
M  V30 7298 C 708.94 2.04374 1.12931 0
M  V30 7299 C 709.921 0.93074 1.42377 0
M  V30 7300 O 711.106 1.20136 1.52581 0
M  V30 7301 C 708.236 2.45967 2.45189 0
M  V30 7302 C 707.19 3.60838 2.30174 0
M  V30 7303 C 706.516 3.88374 3.67518 0
M  V30 7304 C 707.816 4.92084 1.75073 0
M  V30 7305 H 709.51 2.9018 0.737287 0
M  V30 7306 H 707.056 1.39601 0.353211 0
M  V30 7307 H 709.009 2.77542 3.17094 0
M  V30 7308 H 707.733 1.57148 2.86308 0
M  V30 7309 H 706.392 3.29493 1.60716 0
M  V30 7310 H 706.04 2.96739 4.06147 0
M  V30 7311 H 705.74 4.65703 3.58321 0
M  V30 7312 H 707.264 4.22415 4.40906 0
M  V30 7313 H 708.678 5.22106 2.36809 0
M  V30 7314 H 707.075 5.73507 1.76662 0
M  V30 7315 H 708.145 4.79684 0.709347 0
M  V30 7316 N 709.488 -0.375779 1.53054 0
M  V30 7317 C 710.713 -1.14484 1.7294 0
M  V30 7318 C 711.138 -1.82572 0.452668 0
M  V30 7319 O 710.496 -1.71343 -0.592567 0
M  V30 7320 C 710.544 -2.15857 2.88857 0
M  V30 7321 O 709.648 -3.22725 2.56753 0
M  V30 7322 H 708.989 -0.332666 0.574656 0
M  V30 7323 H 711.519 -0.436025 1.999 0
M  V30 7324 H 711.529 -2.59631 3.14731 0
M  V30 7325 H 710.204 -1.65689 3.81471 0
M  V30 7326 H 708.781 -2.83996 2.41663 0
M  V30 7327 N 710.966 -1.44241 -0.634997 0
M  V30 7328 C 712.212 -1.47038 -1.39669 0
M  V30 7329 C 712.545 -0.101122 -1.93937 0
M  V30 7330 O 711.82 0.880699 -1.73418 0
M  V30 7331 C 712.103 -2.52763 -2.56482 0
M  V30 7332 C 711.956 -3.99032 -2.07589 0
M  V30 7333 C 713.275 -2.55031 -3.58674 0
M  V30 7334 H 710.394 -0.53537 -0.506506 0
M  V30 7335 H 713.036 -1.75898 -0.718317 0
M  V30 7336 H 711.186 -2.28284 -3.14354 0
M  V30 7337 H 712.858 -4.3463 -1.54577 0
M  V30 7338 H 711.101 -4.10994 -1.38804 0
M  V30 7339 H 711.772 -4.68649 -2.91671 0
M  V30 7340 H 714.248 -2.76893 -3.10595 0
M  V30 7341 H 713.124 -3.30916 -4.37934 0
M  V30 7342 H 713.385 -1.59085 -4.12486 0
M  V30 7343 N 712.444 0.87505 -1.31075 0
M  V30 7344 C 713.374 1.99775 -1.20881 0
M  V30 7345 C 714.355 1.69822 -0.0971612 0
M  V30 7346 O 715.54 1.92158 -0.280895 0
M  V30 7347 C 712.67 3.35163 -0.910118 0
M  V30 7348 C 711.624 3.79406 -1.98078 0
M  V30 7349 C 710.95 5.12197 -1.53488 0
M  V30 7350 C 712.25 3.97061 -3.39323 0
M  V30 7351 H 713.944 2.08562 -2.14808 0
M  V30 7352 H 711.49 1.00207 -1.03415 0
M  V30 7353 H 713.443 4.13237 -0.825423 0
M  V30 7354 H 712.167 3.26536 0.064822 0
M  V30 7355 H 710.826 3.03568 -2.05528 0
M  V30 7356 H 710.474 5.00007 -0.547941 0
M  V30 7357 H 710.174 5.4277 -2.2511 0
M  V30 7358 H 711.698 5.92785 -1.46417 0
M  V30 7359 H 713.112 4.65545 -3.34576 0
M  V30 7360 H 711.509 4.39025 -4.09118 0
M  V30 7361 H 712.579 3.00601 -3.80483 0
M  V30 7362 N 713.922 1.13953 1.08869 0
M  V30 7363 C 715.168 0.906151 1.8143 0
M  V30 7364 C 715.501 -0.566089 1.85766 0
M  V30 7365 O 714.776 -1.41915 1.33006 0
M  V30 7366 C 715.059 1.50183 3.27287 0
M  V30 7367 C 714.912 3.04359 3.31189 0
M  V30 7368 C 716.231 1.17477 4.24131 0
M  V30 7369 H 713.35 0.330624 0.658678 0
M  V30 7370 H 715.992 1.40873 1.27495 0
M  V30 7371 H 714.142 1.07442 3.73348 0
M  V30 7372 H 715.814 3.55896 2.93488 0
M  V30 7373 H 714.057 3.39053 2.70602 0
M  V30 7374 H 714.728 3.41141 4.33966 0
M  V30 7375 H 717.204 1.5442 3.86385 0
M  V30 7376 H 716.08 1.61795 5.24513 0
M  V30 7377 H 716.341 0.0893312 4.4201 0
M  V30 7378 N 715.4 -1.26948 0.933913 0
M  V30 7379 C 716.363 -2.24889 0.442457 0
M  V30 7380 C 717.363 -1.54594 -0.442426 0
M  V30 7381 O 718.553 -1.72502 -0.242629 0
M  V30 7382 C 715.685 -3.3896 -0.363173 0
M  V30 7383 H 716.878 -2.69879 1.30787 0
M  V30 7384 H 714.431 -1.38978 0.715187 0
M  V30 7385 H 715.166 -2.99361 -1.24714 0
M  V30 7386 H 714.951 -3.9116 0.271366 0
M  V30 7387 H 716.441 -4.11739 -0.697186 0
M  V30 7388 N 716.879 -0.700114 -1.41195 0
M  V30 7389 C 717.809 -0.0521132 -2.33442 0
M  V30 7390 C 718.79 0.76228 -1.52063 0
M  V30 7391 O 719.975 0.714336 -1.80585 0
M  V30 7392 C 717.105 0.881693 -3.35922 0
M  V30 7393 C 716.059 0.174062 -4.27646 0
M  V30 7394 C 715.385 1.22254 -5.20536 0
M  V30 7395 C 716.685 -0.962396 -5.13357 0
M  V30 7396 H 718.379 -0.822574 -2.87879 0
M  V30 7397 H 715.925 -0.397011 -1.38419 0
M  V30 7398 H 717.878 1.34429 -3.99383 0
M  V30 7399 H 716.602 1.68387 -2.79845 0
M  V30 7400 H 715.261 -0.268551 -3.65615 0
M  V30 7401 H 714.909 2.01736 -4.60773 0
M  V30 7402 H 714.609 0.754038 -5.82742 0
M  V30 7403 H 716.133 1.68555 -5.86874 0
M  V30 7404 H 717.547 -0.579875 -5.7036 0
M  V30 7405 H 715.944 -1.35828 -5.84526 0
M  V30 7406 H 717.014 -1.80003 -4.50252 0
M  V30 7407 N 718.357 1.51182 -0.445186 0
M  V30 7408 C 719.606 2.01342 0.120189 0
M  V30 7409 C 719.919 1.33353 1.43095 0
M  V30 7410 O 721.125 1.74525 2.07974 0
M  V30 7411 C 719.581 3.58925 0.264732 0
M  V30 7412 C 719.189 4.35855 -1.03606 0
M  V30 7413 C 720.933 4.17208 0.783455 0
M  V30 7414 C 718.84 5.85162 -0.856731 0
M  V30 7415 H 717.77 0.752426 0.0486922 0
M  V30 7416 H 720.421 1.74221 -0.576143 0
M  V30 7417 H 718.803 3.82525 1.02425 0
M  V30 7418 H 719.977 4.23997 -1.80452 0
M  V30 7419 H 718.292 3.89062 -1.48391 0
M  V30 7420 H 720.889 5.26475 0.934239 0
M  V30 7421 H 721.232 3.76892 1.768 0
M  V30 7422 H 721.765 3.97715 0.0820346 0
M  V30 7423 H 718.504 6.29904 -1.81388 0
M  V30 7424 H 718.024 5.99663 -0.128206 0
M  V30 7425 H 719.703 6.44963 -0.513027 0
M  V30 7426 N 719.835 0.176821 1.56605 0
M  V30 7427 C 720.765 -0.746841 2.21234 0
M  V30 7428 C 721.746 -1.23502 1.16967 0
M  V30 7429 O 722.931 -1.28718 1.45414 0
M  V30 7430 C 720.061 -1.97407 2.8574 0
M  V30 7431 C 719.015 -1.62153 3.96094 0
M  V30 7432 C 718.341 -2.92387 4.47676 0
M  V30 7433 C 719.641 -0.845353 5.15413 0
M  V30 7434 H 721.335 -0.208116 2.98676 0
M  V30 7435 H 718.881 -0.0986594 1.43662 0
M  V30 7436 H 720.834 -2.62531 3.2963 0
M  V30 7437 H 719.558 -2.53703 2.05676 0
M  V30 7438 H 718.217 -0.993964 3.52868 0
M  V30 7439 H 717.865 -3.46734 3.64396 0
M  V30 7440 H 717.565 -2.69551 5.22127 0
M  V30 7441 H 719.089 -3.5853 4.94255 0
M  V30 7442 H 720.503 -1.39929 5.55961 0
M  V30 7443 H 718.9 -0.715814 5.95815 0
M  V30 7444 H 719.97 0.157239 4.84645 0
M  V30 7445 N 721.313 -1.57302 -0.09688 0
M  V30 7446 C 722.541 -1.90202 -0.814295 0
M  V30 7447 C 722.956 -0.770344 -1.72369 0
M  V30 7448 O 722.313 0.257764 -1.8067 0
M  V30 7449 C 722.364 -3.22708 -1.62916 0
M  V30 7450 O 722.085 -4.31522 -0.756343 0
M  V30 7451 C 723.586 -3.69459 -2.44979 0
M  V30 7452 H 720.806 -0.629275 -0.232925 0
M  V30 7453 H 723.35 -2.04364 -0.0746482 0
M  V30 7454 H 721.505 -3.1015 -2.32133 0
M  V30 7455 H 721.919 -5.07604 -1.32054 0
M  V30 7456 H 723.393 -4.64875 -2.9765 0
M  V30 7457 H 723.87 -2.97211 -3.23361 0
M  V30 7458 H 724.476 -3.84879 -1.80964 0
M  V30 7459 N 722.791 0.367657 -1.53252 0
M  V30 7460 C 724.202 0.944563 -1.61043 0
M  V30 7461 C 724.553 1.90325 -0.476546 0
M  V30 7462 O 723.678 2.12721 0.397333 0
M  V30 7463 C 724.273 1.71992 -2.91898 0
M  V30 7464 C 722.832 2.2462 -3.02031 0
M  V30 7465 C 721.979 1.05799 -2.56324 0
M  V30 7466 H 724.93 0.146516 -1.58022 0
M  V30 7467 H 724.951 2.58095 -2.79584 0
M  V30 7468 H 724.463 1.02192 -3.74404 0
M  V30 7469 H 722.564 2.97668 -2.24108 0
M  V30 7470 H 722.677 2.52644 -4.07073 0
M  V30 7471 H 721.041 1.42435 -2.1115 0
M  V30 7472 H 721.824 0.375008 -3.41246 0
M  V30 7473 N 724.269 1.44576 0.627338 0
M  V30 7474 C 725.232 1.51372 1.72102 0
M  V30 7475 C 726.232 0.395329 1.55865 0
M  V30 7476 O 727.422 0.658094 1.61291 0
M  V30 7477 C 724.554 1.39129 3.11217 0
M  V30 7478 H 725.747 2.48798 1.6745 0
M  V30 7479 H 723.3 1.31724 0.841336 0
M  V30 7480 H 724.035 0.428114 3.21462 0
M  V30 7481 H 723.82 2.20229 3.24409 0
M  V30 7482 H 725.31 1.46874 3.90919 0
M  V30 7483 N 725.747 -0.868086 1.31537 0
M  V30 7484 C 726.677 -1.99131 1.21939 0
M  V30 7485 C 727.658 -1.69768 0.106166 0
M  V30 7486 O 728.843 -1.92006 0.291081 0
M  V30 7487 C 725.973 -3.34676 0.927879 0
M  V30 7488 C 724.927 -3.7835 2.00088 0
M  V30 7489 C 724.253 -5.11375 1.56203 0
M  V30 7490 C 725.553 -3.95256 3.41424 0
M  V30 7491 H 727.247 -2.07419 2.15911 0
M  V30 7492 H 724.793 -0.996569 1.03945 0
M  V30 7493 H 726.746 -4.12793 0.847327 0
M  V30 7494 H 725.47 -3.26565 -0.0475042 0
M  V30 7495 H 724.129 -3.02474 2.07135 0
M  V30 7496 H 723.777 -4.99709 0.57445 0
M  V30 7497 H 723.477 -5.41568 2.27985 0
M  V30 7498 H 725.001 -5.92001 1.49558 0
M  V30 7499 H 726.415 -4.63764 3.3704 0
M  V30 7500 H 724.812 -4.36849 4.1144 0
M  V30 7501 H 725.882 -2.98579 3.82072 0
M  V30 7502 N 727.225 -1.14528 -1.08264 0
M  V30 7503 C 728.465 -0.924808 -1.82282 0
M  V30 7504 C 728.829 0.538881 -1.84283 0
M  V30 7505 O 730.03 0.877355 -2.54079 0
M  V30 7506 C 728.301 -1.51102 -3.23887 0
M  V30 7507 S 729.86 -1.43232 -4.14765 0
M  V30 7508 H 726.678 -0.333052 -0.62817 0
M  V30 7509 H 729.28 -1.45905 -1.30123 0
M  V30 7510 H 727.984 -2.56942 -3.20014 0
M  V30 7511 H 727.515 -0.975234 -3.8112 0
M  V30 7512 H 729.53 -0.418843 -4.94429 0
M  V30 7513 N 728.703 1.26451 -0.940633 0
M  V30 7514 C 729.666 2.24651 -0.454378 0
M  V30 7515 C 730.666 1.54826 0.434222 0
M  V30 7516 O 731.856 1.72628 0.233477 0
M  V30 7517 C 728.988 3.39148 0.345192 0
M  V30 7518 H 730.181 2.69182 -1.32217 0
M  V30 7519 H 727.734 1.38596 -0.722547 0
M  V30 7520 H 728.469 3.00018 1.23125 0
M  V30 7521 H 728.254 3.9101 -0.292107 0
M  V30 7522 H 729.744 4.12103 0.675341 0
M  V30 7523 N 730.181 0.707592 1.40822 0
M  V30 7524 C 731.409 0.253073 2.05346 0
M  V30 7525 C 731.824 -1.10218 1.53289 0
M  V30 7526 O 731.181 -1.69112 0.686105 0
M  V30 7527 C 731.232 0.215411 3.60858 0
M  V30 7528 O 730.953 1.51714 4.10992 0
M  V30 7529 C 732.454 -0.258636 4.42545 0
M  V30 7530 H 729.674 0.115256 0.661027 0
M  V30 7531 H 732.218 0.963555 1.80377 0
M  V30 7532 H 730.373 -0.445978 3.84824 0
M  V30 7533 H 730.787 1.41226 5.05129 0
M  V30 7534 H 732.261 -0.233849 5.51504 0
M  V30 7535 H 732.738 -1.2995 4.19535 0
M  V30 7536 H 733.344 0.372186 4.23668 0
M  V30 7537 N 731.66 -1.50943 0.453197 0
M  V30 7538 C 732.593 -2.24742 -0.395787 0
M  V30 7539 C 733.571 -1.27316 -1.01141 0
M  V30 7540 O 734.755 -1.56494 -1.05081 0
M  V30 7541 C 731.882 -3.00999 -1.55298 0
M  V30 7542 C 730.928 -4.13207 -1.0565 0
M  V30 7543 S 731.761 -5.35498 0.01435 0
M  V30 7544 C 732.917 -6.15298 -1.14714 0
M  V30 7545 H 733.15 -2.96403 0.23071 0
M  V30 7546 H 730.683 -1.52557 0.237874 0
M  V30 7547 H 732.641 -3.45529 -2.2163 0
M  V30 7548 H 731.302 -2.28896 -2.15094 0
M  V30 7549 H 730.495 -4.65901 -1.9223 0
M  V30 7550 H 730.097 -3.7102 -0.471182 0
M  V30 7551 H 732.389 -6.45346 -2.06239 0
M  V30 7552 H 733.332 -7.05019 -0.659842 0
M  V30 7553 H 733.74 -5.47046 -1.39288 0
M  V30 7554 N 733.138 -0.185124 -1.56509 0
M  V30 7555 C 734.068 0.735098 -2.21627 0
M  V30 7556 C 735.049 1.2288 -1.1762 0
M  V30 7557 O 736.234 1.27945 -1.46095 0
M  V30 7558 C 733.364 1.95889 -2.86783 0
M  V30 7559 C 732.318 1.6005 -3.96948 0
M  V30 7560 C 731.644 2.90009 -4.4922 0
M  V30 7561 C 732.944 0.818008 -5.15855 0
M  V30 7562 H 734.638 0.192274 -2.98782 0
M  V30 7563 H 732.184 0.0910393 -1.43712 0
M  V30 7564 H 734.137 2.60779 -3.31017 0
M  V30 7565 H 732.861 2.52608 -2.07018 0
M  V30 7566 H 731.52 0.975237 -3.5339 0
M  V30 7567 H 731.168 3.44797 -3.6623 0
M  V30 7568 H 730.868 2.66778 -5.23549 0
M  V30 7569 H 732.392 3.55904 -4.9615 0
M  V30 7570 H 733.806 1.36979 -5.56695 0
M  V30 7571 H 732.203 0.684207 -5.96187 0
M  V30 7572 H 733.273 -0.182939 -4.84555 0
M  V30 7573 N 734.616 1.57351 0.0885366 0
M  V30 7574 C 735.563 2.02523 1.10693 0
M  V30 7575 C 736.533 0.902736 1.39427 0
M  V30 7576 O 737.718 1.16921 1.50779 0
M  V30 7577 C 734.858 2.46013 2.42016 0
M  V30 7578 C 733.971 3.7181 2.19957 0
M  V30 7579 C 733.106 4.04152 3.44724 0
M  V30 7580 C 732.145 5.2304 3.17956 0
M  V30 7581 N 731.282 5.51102 4.35007 0
M  V30 7582 H 736.122 2.89302 0.714742 0
M  V30 7583 H 733.659 1.43084 0.341378 0
M  V30 7584 H 735.617 2.69274 3.18665 0
M  V30 7585 H 734.247 1.62235 2.79069 0
M  V30 7586 H 733.299 3.55987 1.34079 0
M  V30 7587 H 734.611 4.58604 1.96173 0
M  V30 7588 H 733.765 4.28225 4.29777 0
M  V30 7589 H 732.504 3.15893 3.71568 0
M  V30 7590 H 731.509 4.98781 2.31296 0
M  V30 7591 H 732.734 6.12902 2.92451 0
M  V30 7592 H 730.68 4.65802 4.61914 0
M  V30 7593 H 730.597 6.3228 4.14437 0
M  V30 7594 H 731.865 5.79714 5.21106 0
M  V30 7595 N 736.094 -0.359525 1.53444 0
M  V30 7596 C 737.505 -0.936009 1.61542 0
M  V30 7597 C 737.856 -1.90069 0.486633 0
M  V30 7598 O 736.981 -2.12929 -0.386047 0
M  V30 7599 C 737.576 -1.70441 2.92806 0
M  V30 7600 C 736.135 -2.23015 3.03218 0
M  V30 7601 C 735.282 -1.04438 2.56881 0
M  V30 7602 H 738.233 -0.138134 1.58098 0
M  V30 7603 H 738.254 -2.56609 2.80948 0
M  V30 7604 H 737.766 -1.00205 3.74941 0
M  V30 7605 H 735.867 -2.96475 2.25684 0
M  V30 7606 H 735.98 -2.50481 4.08407 0
M  V30 7607 H 734.344 -1.41314 2.11902 0
M  V30 7608 H 735.127 -0.356905 3.4144 0
M  V30 7609 N 737.572 -1.44907 -0.619662 0
M  V30 7610 C 738.821 -1.47569 -1.37501 0
M  V30 7611 C 739.134 -0.116707 -1.95252 0
M  V30 7612 O 740.34 -0.020909 -2.71492 0
M  V30 7613 C 738.796 -2.59851 -2.49009 0
M  V30 7614 C 738.404 -4.02008 -1.97722 0
M  V30 7615 C 740.148 -2.71746 -3.2612 0
M  V30 7616 C 738.055 -5.05693 -3.0664 0
M  V30 7617 H 736.985 -0.549068 -0.51676 0
M  V30 7618 H 739.636 -1.71009 -0.665437 0
M  V30 7619 H 738.018 -2.29671 -3.22594 0
M  V30 7620 H 739.192 -4.41809 -1.30925 0
M  V30 7621 H 737.507 -3.94456 -1.33392 0
M  V30 7622 H 740.104 -3.46382 -4.07337 0
M  V30 7623 H 740.447 -1.77959 -3.76346 0
M  V30 7624 H 740.98 -3.01392 -2.5963 0
M  V30 7625 H 737.719 -6.01148 -2.61345 0
M  V30 7626 H 737.239 -4.70473 -3.72042 0
M  V30 7627 H 738.918 -5.29906 -3.71226 0
M  V30 7628 N 739.05 0.861098 -1.31996 0
M  V30 7629 C 740.013 1.95068 -1.20338 0
M  V30 7630 C 741.013 1.60289 -0.128114 0
M  V30 7631 O 742.203 1.70048 -0.378044 0
M  V30 7632 C 739.335 3.30153 -0.849205 0
M  V30 7633 H 740.528 2.06833 -2.17164 0
M  V30 7634 H 738.081 1.05049 -1.15734 0
M  V30 7635 H 738.816 3.24087 0.117508 0
M  V30 7636 H 738.601 3.56771 -1.62655 0
M  V30 7637 H 740.091 4.10025 -0.791782 0
M  V30 7638 N 740.528 1.15101 1.07655 0
M  V30 7639 C 741.475 0.844958 2.14777 0
M  V30 7640 C 742.445 -0.200798 1.64882 0
M  V30 7641 O 743.63 -0.0690278 1.90675 0
M  V30 7642 C 740.77 0.337018 3.4345 0
M  V30 7643 C 739.883 1.44398 4.07153 0
M  V30 7644 C 739.018 0.892487 5.23649 0
M  V30 7645 C 738.057 1.9766 5.79307 0
M  V30 7646 N 737.194 1.44171 6.87138 0
M  V30 7647 H 742.034 1.76242 2.40297 0
M  V30 7648 H 739.571 0.879435 1.17917 0
M  V30 7649 H 741.529 0.024256 4.17193 0
M  V30 7650 H 740.159 -0.543531 3.18191 0
M  V30 7651 H 739.211 1.87299 3.31094 0
M  V30 7652 H 740.523 2.26262 4.4453 0
M  V30 7653 H 739.677 0.532083 6.04362 0
M  V30 7654 H 738.416 0.0429854 4.87681 0
M  V30 7655 H 737.421 2.34586 4.97242 0
M  V30 7656 H 738.646 2.82982 6.17331 0
M  V30 7657 H 736.592 0.614518 6.53115 0
M  V30 7658 H 736.509 2.19665 7.23383 0
M  V30 7659 H 737.777 1.10945 7.71564 0
M  V30 7660 N 742.006 -1.2595 0.947325 0
M  V30 7661 C 743.254 -1.93081 0.596996 0
M  V30 7662 C 743.575 -1.74632 -0.867672 0
M  V30 7663 O 742.845 -1.1056 -1.6172 0
M  V30 7664 H 741.425 -0.714542 0.217805 0
M  V30 7665 H 744.087 -1.53265 1.20398 0
M  V30 7666 H 743.183 -3.01134 0.82004 0
M  V30 7667 N 743.484 -0.715051 -1.40445 0
M  V30 7668 C 744.761 -0.181503 -1.94756 0
M  V30 7669 C 745.141 1.31268 -1.65324 0
M  V30 7670 O 744.489 2.0686 -0.970631 0
M  V30 7671 C 744.699 -0.493663 -3.45491 0
M  V30 7672 C 746.047 -0.432032 -4.22396 0
M  V30 7673 O 747.071 -0.429692 -3.53599 0
M  V30 7674 O 745.93 -0.409091 -5.44967 0
M  V30 7675 H 743.024 -0.0263989 -0.826579 0
M  V30 7676 H 745.57 -0.792546 -1.50056 0
M  V30 7677 H 744.342 -1.52713 -3.6027 0
M  V30 7678 H 743.965 0.14737 -3.97327 0
M  V30 7679 N 744.962 1.50701 -0.461195 0
M  V30 7680 C 745.912 2.25195 0.35653 0
M  V30 7681 C 746.896 1.2838 0.96992 0
M  V30 7682 O 748.088 1.53338 0.884108 0
M  V30 7683 C 745.217 3.11471 1.44364 0
M  V30 7684 C 744.303 4.15729 0.83847 0
M  V30 7685 N 744.694 5.05788 -0.0353198 0
M  V30 7686 C 742.992 4.32133 1.1035 0
M  V30 7687 C 743.693 5.80472 -0.37774 0
M  V30 7688 N 742.669 5.43049 0.24463 0
M  V30 7689 H 746.471 2.92188 -0.316746 0
M  V30 7690 H 743.985 1.60059 -0.274725 0
M  V30 7691 H 745.982 3.63436 2.04255 0
M  V30 7692 H 744.642 2.46025 2.11901 0
M  V30 7693 H 745.653 5.16326 -0.403465 0
M  V30 7694 H 742.33 3.77908 1.77458 0
M  V30 7695 H 743.72 6.62996 -1.09024 0
M  V30 7696 N 746.441 0.193421 1.56409 0
M  V30 7697 C 747.689 -0.444908 1.97142 0
M  V30 7698 C 748.01 -1.62268 1.08139 0
M  V30 7699 O 747.28 -1.95307 0.152326 0
M  V30 7700 H 745.86 -0.16736 0.728011 0
M  V30 7701 H 748.522 0.279763 1.92882 0
M  V30 7702 H 747.618 -0.790159 3.01932 0
M  V30 7703 N 747.919 -1.57396 -0.0801906 0
M  V30 7704 C 748.829 -2.06451 -1.11423 0
M  V30 7705 C 749.845 -0.992352 -1.42928 0
M  V30 7706 O 751.021 -1.30651 -1.53272 0
M  V30 7707 C 748.086 -2.49164 -2.41077 0
M  V30 7708 C 747.147 -3.70641 -2.16619 0
M  V30 7709 C 746.38 -4.11307 -3.40092 0
M  V30 7710 O 746.603 -3.51922 -4.48895 0
M  V30 7711 O 745.537 -5.04157 -3.288 0
M  V30 7712 H 749.363 -2.94857 -0.727519 0
M  V30 7713 H 746.948 -1.46484 -0.293743 0
M  V30 7714 H 748.83 -2.77196 -3.17396 0
M  V30 7715 H 747.505 -1.6389 -2.79145 0
M  V30 7716 H 746.412 -3.47703 -1.38033 0
M  V30 7717 H 747.745 -4.5674 -1.83437 0
M  V30 7718 N 749.397 0.351382 -1.53633 0
M  V30 7719 C 750.645 1.09034 -1.70165 0
M  V30 7720 C 750.966 1.89413 -0.463422 0
M  V30 7721 O 750.236 1.888 0.522624 0
M  V30 7722 H 748.816 0.405522 -0.627344 0
M  V30 7723 H 751.478 0.394554 -1.90865 0
M  V30 7724 H 750.574 1.77215 -2.56907 0
M  V30 7725 N 750.875 1.45233 0.611969 0
M  V30 7726 C 751.822 1.5357 1.72293 0
M  V30 7727 C 752.792 0.381912 1.6165 0
M  V30 7728 O 753.977 0.594765 1.81293 0
M  V30 7729 C 751.117 1.50419 3.10593 0
M  V30 7730 C 750.23 2.76316 3.32074 0
M  V30 7731 C 749.365 2.64866 4.60456 0
M  V30 7732 C 748.404 3.85838 4.7518 0
M  V30 7733 N 747.541 3.72949 5.94856 0
M  V30 7734 H 752.381 2.4848 1.64504 0
M  V30 7735 H 749.918 1.23302 0.802191 0
M  V30 7736 H 751.876 1.4658 3.90602 0
M  V30 7737 H 750.506 0.590621 3.17351 0
M  V30 7738 H 749.558 2.90261 2.45872 0
M  V30 7739 H 750.87 3.66055 3.38829 0
M  V30 7740 H 750.024 2.58969 5.48653 0
M  V30 7741 H 748.763 1.72719 4.56092 0
M  V30 7742 H 747.768 3.92099 3.85407 0
M  V30 7743 H 748.993 4.79045 4.81344 0
M  V30 7744 H 746.939 2.83567 5.91545 0
M  V30 7745 H 746.856 4.56319 6.02751 0
M  V30 7746 H 748.124 3.70976 6.85563 0
M  V30 7747 N 752.353 -0.854086 1.3245 0
M  V30 7748 C 753.3 -1.96271 1.21434 0
M  V30 7749 C 754.27 -1.6582 0.0963851 0
M  V30 7750 O 755.455 -1.88851 0.27203 0
M  V30 7751 C 752.595 -3.31939 0.943952 0
M  V30 7752 C 751.708 -3.74885 2.14675 0
M  V30 7753 C 750.843 -4.99347 1.81179 0
M  V30 7754 C 749.882 -5.34785 2.97777 0
M  V30 7755 N 749.019 -6.50425 2.6437 0
M  V30 7756 H 753.859 -2.05025 2.16261 0
M  V30 7757 H 751.396 -1.00348 1.07558 0
M  V30 7758 H 753.354 -4.10076 0.767675 0
M  V30 7759 H 751.984 -3.22784 0.0324763 0
M  V30 7760 H 751.036 -2.92396 2.43328 0
M  V30 7761 H 752.348 -3.97068 3.01891 0
M  V30 7762 H 751.502 -5.85193 1.60107 0
M  V30 7763 H 750.241 -4.79101 0.911777 0
M  V30 7764 H 749.246 -4.47451 3.1948 0
M  V30 7765 H 750.471 -5.56988 3.88511 0
M  V30 7766 H 748.417 -6.31695 1.7691 0
M  V30 7767 H 748.334 -6.7263 3.45116 0
M  V30 7768 H 749.602 -7.39422 2.46729 0
M  V30 7769 N 753.831 -1.1567 -1.07043 0
M  V30 7770 C 755.079 -0.931673 -1.79344 0
M  V30 7771 C 755.4 0.542421 -1.87304 0
M  V30 7772 O 754.67 1.39418 -1.37621 0
M  V30 7773 H 753.25 -0.34171 -0.664262 0
M  V30 7774 H 755.912 -1.45795 -1.29344 0
M  V30 7775 H 755.008 -1.34379 -2.81689 0
M  V30 7776 N 755.309 1.25446 -0.953992 0
M  V30 7777 C 756.556 1.93143 -0.608429 0
M  V30 7778 C 756.884 1.74727 0.854451 0
M  V30 7779 O 756.139 1.0855 1.62836 0
M  V30 7780 C 756.438 3.45555 -0.912496 0
M  V30 7781 C 756.104 3.84126 -2.36131 0
M  V30 7782 C 754.766 3.94367 -2.75732 0
M  V30 7783 C 757.118 4.0324 -3.30223 0
M  V30 7784 C 754.446 4.21127 -4.08496 0
M  V30 7785 C 756.798 4.31493 -4.62598 0
M  V30 7786 C 755.462 4.3995 -5.01996 0
M  V30 7787 H 754.732 0.706762 -0.22264 0
M  V30 7788 H 757.379 1.49005 -1.20291 0
M  V30 7789 H 755.684 3.91091 -0.235618 0
M  V30 7790 H 757.381 3.9612 -0.623714 0
M  V30 7791 H 753.971 3.76711 -2.04418 0
M  V30 7792 H 758.155 3.94744 -3.00817 0
M  V30 7793 H 753.411 4.2589 -4.38665 0
M  V30 7794 H 757.585 4.45227 -5.35486 0
M  V30 7795 H 755.212 4.60439 -6.04896 0
M  V30 7796 N 756.787 0.722489 1.40064 0
M  V30 7797 C 758.034 0.264979 2.00759 0
M  V30 7798 C 758.362 -1.14395 1.57302 0
M  V30 7799 O 757.617 -1.79165 0.787298 0
M  V30 7800 C 757.916 0.300682 3.56133 0
M  V30 7801 C 757.582 1.66087 4.19197 0
M  V30 7802 C 756.244 2.03319 4.36136 0
M  V30 7803 C 758.596 2.55452 4.54306 0
M  V30 7804 C 755.924 3.29448 4.8547 0
M  V30 7805 C 758.276 3.8094 5.05042 0
M  V30 7806 C 756.94 4.1828 5.2019 0
M  V30 7807 H 756.21 0.0969625 0.734629 0
M  V30 7808 H 758.857 0.926877 1.67575 0
M  V30 7809 H 757.162 -0.44479 3.89267 0
M  V30 7810 H 758.859 -0.0712542 4.00937 0
M  V30 7811 H 755.449 1.36137 4.06405 0
M  V30 7812 H 759.633 2.27961 4.40849 0
M  V30 7813 H 754.889 3.58338 4.95382 0
M  V30 7814 H 759.063 4.50351 5.31184 0
M  V30 7815 H 756.69 5.16081 5.58179 0
M  V30 7816 N 758.265 -1.50454 0.469181 0
M  V30 7817 C 759.513 -2.01916 -0.0862982 0
M  V30 7818 C 759.834 -1.35337 -1.40388 0
M  V30 7819 O 759.104 -0.498096 -1.89462 0
M  V30 7820 H 757.684 -0.746185 -0.0348825 0
M  V30 7821 H 760.346 -1.84804 0.619167 0
M  V30 7822 H 759.442 -3.11182 -0.239189 0
M  V30 7823 N 759.743 -0.201713 -1.56304 0
M  V30 7824 C 760.989 0.429292 -1.98818 0
M  V30 7825 C 761.344 1.58779 -1.08659 0
M  V30 7826 O 760.637 1.91142 -0.132365 0
M  V30 7827 C 760.831 0.931432 -3.45049 0
M  V30 7828 C 760.66 -0.176878 -4.49352 0
M  V30 7829 C 759.43 -0.636712 -5.01272 0
M  V30 7830 C 761.628 -0.988177 -5.04717 0
M  V30 7831 N 759.61 -1.72215 -5.8925 0
M  V30 7832 C 760.981 -1.92288 -5.89428 0
M  V30 7833 C 763.036 -1.02985 -4.87133 0
M  V30 7834 C 761.739 -2.89582 -6.58434 0
M  V30 7835 C 763.765 -1.99087 -5.56883 0
M  V30 7836 C 763.127 -2.913 -6.41345 0
M  V30 7837 H 759.226 0.124322 -0.772054 0
M  V30 7838 H 761.81 -0.308929 -1.92234 0
M  V30 7839 H 759.981 1.63907 -3.52121 0
M  V30 7840 H 761.713 1.5336 -3.74517 0
M  V30 7841 H 758.468 -0.228861 -4.73047 0
M  V30 7842 H 758.892 -2.26627 -6.37941 0
M  V30 7843 H 763.534 -0.330894 -4.21503 0
M  V30 7844 H 761.252 -3.6045 -7.23258 0
M  V30 7845 H 764.838 -2.0296 -5.45251 0
M  V30 7846 H 763.718 -3.6445 -6.94367 0
M  V30 7847 N 761.222 1.57436 0.0718424 0
M  V30 7848 C 762.469 1.87248 0.771007 0
M  V30 7849 C 762.797 0.793441 1.7758 0
M  V30 7850 O 762.052 -0.210565 1.94564 0
M  V30 7851 C 762.351 3.23723 1.51455 0
M  V30 7852 C 762.017 4.46194 0.649736 0
M  V30 7853 C 760.679 4.79438 0.411409 0
M  V30 7854 C 763.031 5.21176 0.05004 0
M  V30 7855 C 760.359 5.85077 -0.436096 0
M  V30 7856 C 762.711 6.27712 -0.784919 0
M  V30 7857 C 761.375 6.59457 -1.03312 0
M  V30 7858 H 760.645 0.685188 0.282132 0
M  V30 7859 H 763.292 1.91474 0.0317896 0
M  V30 7860 H 761.597 3.15287 2.32597 0
M  V30 7861 H 763.294 3.44023 2.06031 0
M  V30 7862 H 759.884 4.20175 0.84562 0
M  V30 7863 H 764.068 4.95806 0.221282 0
M  V30 7864 H 759.324 6.08071 -0.637136 0
M  V30 7865 H 763.498 6.84974 -1.25635 0
M  V30 7866 H 761.125 7.4114 -1.6916 0
M  V30 7867 N 762.7 -0.34323 1.53817 0
M  V30 7868 C 763.648 -1.44176 1.82527 0
M  V30 7869 C 764.642 -1.54452 0.695772 0
M  V30 7870 O 765.848 -1.57072 0.879114 0
M  V30 7871 H 762.223 -0.480729 0.578277 0
M  V30 7872 H 764.194 -1.17176 2.74431 0
M  V30 7873 C 762.943 -2.80695 2.05197 0
M  V30 7874 H 762.266 -2.73554 2.91561 0
M  V30 7875 H 763.706 -3.56679 2.29251 0
M  V30 7876 C 762.165 -3.26322 0.837589 0
M  V30 7877 O 762.695 -4.01683 0.0371631 0
M  V30 7878 N 760.901 -2.83128 0.654724 0
M  V30 7879 H 760.448 -2.21965 1.30725 0
M  V30 7880 H 760.406 -3.14011 -0.156345 0
M  V30 7881 N 764.178 -1.45556 -0.604258 0
M  V30 7882 C 765.594 -1.30035 -0.925368 0
M  V30 7883 C 765.794 -0.255833 -1.99869 0
M  V30 7884 O 764.85 0.349076 -2.50075 0
M  V30 7885 C 766.163 -2.68028 -1.36314 0
M  V30 7886 C 767.711 -2.75951 -1.47717 0
M  V30 7887 C 768.186 -4.14476 -1.94868 0
M  V30 7888 N 769.677 -4.16787 -2.02097 0
M  V30 7889 C 770.412 -5.20845 -2.39809 0
M  V30 7890 N 769.908 -6.35246 -2.76467 0
M  V30 7891 N 771.701 -5.08204 -2.40177 0
M  V30 7892 H 763.852 -2.1214 0.10512 0
M  V30 7893 H 766.115 -0.947871 -0.0156303 0
M  V30 7894 H 765.821 -3.45667 -0.648628 0
M  V30 7895 H 765.695 -2.96711 -2.329 0
M  V30 7896 H 768.082 -1.98613 -2.18258 0
M  V30 7897 H 768.163 -2.50977 -0.494371 0
M  V30 7898 H 767.807 -4.923 -1.24912 0
M  V30 7899 H 767.737 -4.36843 -2.94068 0
M  V30 7900 H 770.228 -3.34233 -1.76343 0
M  V30 7901 H 770.541 -7.10438 -3.04134 0
M  V30 7902 H 768.886 -6.38642 -2.74155 0
M  V30 7903 H 772.077 -4.17874 -2.10947 0
M  V30 7904 H 772.25 -5.89417 -2.69242 0
M  V30 7905 N 765.656 0.84705 -1.32902 0
M  V30 7906 C 766.589 1.96038 -1.1681 0
M  V30 7907 C 767.567 1.62468 -0.0656144 0
M  V30 7908 O 768.751 1.87136 -0.226339 0
M  V30 7909 C 765.878 3.29362 -0.789839 0
M  V30 7910 C 764.924 3.81908 -1.89865 0
M  V30 7911 S 765.757 4.04576 -3.50826 0
M  V30 7912 C 766.913 5.40863 -3.14989 0
M  V30 7913 H 767.146 2.09387 -2.11055 0
M  V30 7914 H 764.679 0.999896 -1.1765 0
M  V30 7915 H 766.637 4.06405 -0.578369 0
M  V30 7916 H 765.298 3.13815 0.133878 0
M  V30 7917 H 764.491 4.78357 -1.58716 0
M  V30 7918 H 764.093 3.11733 -2.06636 0
M  V30 7919 H 766.385 6.23393 -2.65306 0
M  V30 7920 H 767.328 5.7698 -4.10488 0
M  V30 7921 H 767.736 5.05228 -2.51804 0
M  V30 7922 N 767.134 1.16236 1.06428 0
M  V30 7923 C 768.381 0.943034 1.79201 0
M  V30 7924 C 768.709 -0.529243 1.87161 0
M  V30 7925 O 767.964 -1.40874 1.35842 0
M  V30 7926 C 768.263 1.51396 3.2375 0
M  V30 7927 C 767.929 3.00833 3.35873 0
M  V30 7928 C 766.591 3.41626 3.38888 0
M  V30 7929 C 768.943 3.96825 3.37904 0
M  V30 7930 C 766.271 4.77033 3.4155 0
M  V30 7931 C 768.623 5.32116 3.42104 0
M  V30 7932 C 767.287 5.72392 3.43401 0
M  V30 7933 H 766.557 0.34508 0.655744 0
M  V30 7934 H 769.204 1.44929 1.25171 0
M  V30 7935 H 767.509 0.929114 3.80624 0
M  V30 7936 H 769.206 1.31996 3.78653 0
M  V30 7937 H 765.796 2.68306 3.3423 0
M  V30 7938 H 769.98 3.66376 3.34787 0
M  V30 7939 H 765.236 5.07569 3.40858 0
M  V30 7940 H 769.41 6.06286 3.42623 0
M  V30 7941 H 767.037 6.77296 3.45216 0
M  V30 7942 N 768.612 -1.24939 0.960631 0
M  V30 7943 C 769.522 -2.29374 0.492435 0
M  V30 7944 C 770.538 -1.68262 -0.443154 0
M  V30 7945 O 771.714 -1.98875 -0.31793 0
M  V30 7946 C 768.779 -3.46023 -0.216626 0
M  V30 7947 C 767.84 -4.22557 0.757915 0
M  V30 7948 C 767.073 -5.33636 0.0825969 0
M  V30 7949 O 767.296 -5.59084 -1.13054 0
M  V30 7950 O 766.23 -5.96939 0.771177 0
M  V30 7951 H 770.056 -2.71525 1.36044 0
M  V30 7952 H 767.641 -1.30499 0.72735 0
M  V30 7953 H 769.523 -4.16885 -0.615241 0
M  V30 7954 H 768.198 -3.05862 -1.05971 0
M  V30 7955 H 767.105 -3.54099 1.20685 0
M  V30 7956 H 768.438 -4.66516 1.5692 0
M  V30 7957 N 770.09 -0.729906 -1.39679 0
M  V30 7958 C 771.037 -0.0866063 -2.30637 0
M  V30 7959 C 772.007 0.735115 -1.48947 0
M  V30 7960 O 773.192 0.696125 -1.77648 0
M  V30 7961 C 770.332 0.818524 -3.35252 0
M  V30 7962 C 769.445 -0.0152635 -4.31997 0
M  V30 7963 C 768.58 0.890669 -5.2368 0
M  V30 7964 C 767.619 0.0518246 -6.12078 0
M  V30 7965 N 766.756 0.913411 -6.96133 0
M  V30 7966 H 771.596 -0.867925 -2.85081 0
M  V30 7967 H 769.133 -0.439673 -1.40376 0
M  V30 7968 H 771.091 1.3577 -3.9449 0
M  V30 7969 H 769.721 1.56587 -2.82277 0
M  V30 7970 H 768.773 -0.671794 -3.74421 0
M  V30 7971 H 770.085 -0.664086 -4.9436 0
M  V30 7972 H 769.239 1.49787 -5.87919 0
M  V30 7973 H 767.978 1.57328 -4.61627 0
M  V30 7974 H 766.983 -0.568209 -5.46856 0
M  V30 7975 H 768.208 -0.627497 -6.76195 0
M  V30 7976 H 766.154 1.58141 -6.36653 0
M  V30 7977 H 766.071 0.320952 -7.55318 0
M  V30 7978 H 767.339 1.50633 -7.64807 0
M  V30 7979 N 771.568 1.50203 -0.477153 0
M  V30 7980 C 772.793 2.07263 0.0754986 0
M  V30 7981 C 773.218 1.33801 1.32208 0
M  V30 7982 O 772.576 0.387482 1.77111 0
M  V30 7983 C 772.624 3.59028 0.336348 0
M  V30 7984 O 771.728 3.87339 1.4157 0
M  V30 7985 H 771.069 0.663815 -0.015662 0
M  V30 7986 H 773.599 1.93321 -0.669936 0
M  V30 7987 H 773.609 4.03927 0.575034 0
M  V30 7988 H 772.284 4.11912 -0.574551 0
M  V30 7989 H 770.861 3.54272 1.16385 0
M  V30 7990 N 773.046 0.209999 1.56195 0
M  V30 7991 C 774.274 -0.429996 2.02382 0
M  V30 7992 C 774.689 -1.54159 1.08998 0
M  V30 7993 O 774.046 -1.82239 0.0974856 0
M  V30 7994 C 774.097 -0.972433 3.48175 0
M  V30 7995 O 773.818 0.0948231 4.37997 0
M  V30 7996 C 775.319 -1.68683 4.09952 0
M  V30 7997 H 772.539 -0.106475 0.662498 0
M  V30 7998 H 775.083 0.323072 2.01932 0
M  V30 7999 H 773.238 -1.67582 3.49278 0
M  V30 8000 H 773.652 -0.31113 5.23576 0
M  V30 8001 H 775.126 -2.01851 5.13771 0
M  V30 8002 H 775.603 -2.59587 3.54276 0
M  V30 8003 H 776.209 -1.02893 4.12666 0
M  V30 8004 N 774.524 -1.57472 -0.0634922 0
M  V30 8005 C 775.474 -2.00709 -1.08166 0
M  V30 8006 C 776.458 -0.890498 -1.34011 0
M  V30 8007 O 777.65 -1.15441 -1.34173 0
M  V30 8008 C 774.779 -2.46148 -2.39303 0
M  V30 8009 C 773.865 -3.64559 -2.16697 0
M  V30 8010 N 774.256 -4.78459 -1.64043 0
M  V30 8011 C 772.554 -3.71269 -2.47135 0
M  V30 8012 C 773.255 -5.60268 -1.56445 0
M  V30 8013 N 772.231 -5.04357 -2.02792 0
M  V30 8014 H 776.033 -2.86208 -0.668016 0
M  V30 8015 H 773.547 -1.60133 -0.270426 0
M  V30 8016 H 775.544 -2.75367 -3.13016 0
M  V30 8017 H 774.204 -1.62041 -2.81377 0
M  V30 8018 H 775.215 -5.00587 -1.32791 0
M  V30 8019 H 771.892 -2.97891 -2.92518 0
M  V30 8020 H 773.282 -6.6172 -1.16519 0
M  V30 8021 N 776.003 0.335068 -1.53997 0
M  V30 8022 C 776.953 1.4127 -1.7896 0
M  V30 8023 C 777.937 1.474 -0.64513 0
M  V30 8024 O 779.129 1.52127 -0.904785 0
M  V30 8025 C 776.258 2.78292 -2.01018 0
M  V30 8026 C 775.344 2.7652 -3.21555 0
M  V30 8027 N 775.735 2.44374 -4.42849 0
M  V30 8028 C 774.033 3.0766 -3.22895 0
M  V30 8029 C 774.734 2.51049 -5.24737 0
M  V30 8030 N 773.71 2.8702 -4.6165 0
M  V30 8031 H 777.512 1.15327 -2.70327 0
M  V30 8032 H 775.026 0.543483 -1.53036 0
M  V30 8033 H 777.023 3.55949 -2.17039 0
M  V30 8034 H 775.683 3.05175 -1.10898 0
M  V30 8035 H 776.694 2.17422 -4.70051 0
M  V30 8036 H 773.371 3.3966 -2.42771 0
M  V30 8037 H 774.761 2.29283 -6.31569 0
M  V30 8038 N 777.481 1.45874 0.596531 0
M  V30 8039 C 778.711 1.5379 1.37958 0
M  V30 8040 C 779.119 0.173086 1.88407 0
M  V30 8041 O 778.462 -0.837498 1.63498 0
M  V30 8042 C 778.524 2.47044 2.61169 0
M  V30 8043 C 778.188 3.93565 2.32283 0
M  V30 8044 C 779.185 4.83162 1.91965 0
M  V30 8045 C 776.87 4.38579 2.44854 0
M  V30 8046 C 778.864 6.15782 1.64593 0
M  V30 8047 C 776.551 5.71238 2.17095 0
M  V30 8048 C 777.549 6.59659 1.77028 0
M  V30 8049 O 777.237 7.89857 1.49601 0
M  V30 8050 H 776.969 0.523 0.428307 0
M  V30 8051 H 779.523 1.91855 0.733529 0
M  V30 8052 H 777.753 2.0397 3.28532 0
M  V30 8053 H 779.442 2.4552 3.23226 0
M  V30 8054 H 780.208 4.49646 1.8178 0
M  V30 8055 H 776.087 3.6999 2.75006 0
M  V30 8056 H 779.631 6.84757 1.33245 0
M  V30 8057 H 775.528 6.04306 2.26901 0
M  V30 8058 H 776.296 8.01991 1.63561 0
M  V30 8059 N 778.959 -0.83999 1.33349 0
M  V30 8060 C 780.187 -1.62728 1.27778 0
M  V30 8061 C 780.602 -1.88191 -0.151505 0
M  V30 8062 O 779.959 -1.46128 -1.09329 0
M  V30 8063 C 780.01 -2.97813 2.04913 0
M  V30 8064 O 779.731 -2.73469 3.42266 0
M  V30 8065 C 781.232 -3.92245 2.0654 0
M  V30 8066 H 778.452 -0.506374 0.440257 0
M  V30 8067 H 780.996 -1.04637 1.75703 0
M  V30 8068 H 779.151 -3.52509 1.60674 0
M  V30 8069 H 779.565 -3.59483 3.81932 0
M  V30 8070 H 781.039 -4.84249 2.64966 0
M  V30 8071 H 781.516 -4.26332 1.05537 0
M  V30 8072 H 782.122 -3.43487 2.50793 0
M  V30 8073 N 780.437 -1.16799 -1.0581 0
M  V30 8074 C 781.714 -0.862616 -1.75551 0
M  V30 8075 C 782.094 0.6385 -2.01212 0
M  V30 8076 O 781.442 1.58784 -1.64317 0
M  V30 8077 C 781.652 -1.6907 -3.05314 0
M  V30 8078 C 783 -1.90675 -3.79379 0
M  V30 8079 O 784.024 -1.65976 -3.15167 0
M  V30 8080 O 782.883 -2.32145 -4.94743 0
M  V30 8081 H 779.977 -0.318789 -0.763088 0
M  V30 8082 H 782.523 -1.27461 -1.12034 0
M  V30 8083 H 781.295 -2.70912 -2.82352 0
M  V30 8084 H 780.918 -1.27606 -3.76567 0
M  V30 8085 N 781.915 1.24427 -0.967243 0
M  V30 8086 C 783.14 1.9708 -0.646069 0
M  V30 8087 C 783.565 1.71272 0.777665 0
M  V30 8088 O 782.923 0.976179 1.52776 0
M  V30 8089 C 782.971 3.48501 -0.926266 0
M  V30 8090 O 782.075 4.12398 -0.0114653 0
M  V30 8091 H 781.416 0.617423 -0.244304 0
M  V30 8092 H 783.946 1.58215 -1.29727 0
M  V30 8093 H 783.956 3.98885 -0.857619 0
M  V30 8094 H 782.631 3.66613 -1.96386 0
M  V30 8095 H 781.208 3.72661 -0.133396 0
M  V30 8096 N 783.393 0.737304 1.3929 0
M  V30 8097 C 784.639 0.286681 2.00763 0
M  V30 8098 C 784.972 -1.12388 1.58375 0
M  V30 8099 O 784.247 -1.76661 0.813699 0
M  V30 8100 C 784.53 0.391147 3.57969 0
M  V30 8101 C 784.383 1.84165 4.1037 0
M  V30 8102 C 785.702 -0.225072 4.39524 0
M  V30 8103 H 782.821 0.105642 0.729389 0
M  V30 8104 H 785.463 0.933892 1.65464 0
M  V30 8105 H 783.613 -0.159875 3.88171 0
M  V30 8106 H 785.285 2.44972 3.90879 0
M  V30 8107 H 783.528 2.3622 3.63844 0
M  V30 8108 H 784.199 1.866 5.19504 0
M  V30 8109 H 786.675 0.244677 4.1538 0
M  V30 8110 H 785.551 -0.121646 5.48765 0
M  V30 8111 H 785.812 -1.31141 4.22202 0
M  V30 8112 N 784.871 -1.49948 0.485112 0
M  V30 8113 C 786.119 -2.01996 -0.0648775 0
M  V30 8114 C 786.44 -1.36819 -1.38945 0
M  V30 8115 O 785.71 -0.518163 -1.88923 0
M  V30 8116 H 784.29 -0.746513 -0.0269662 0
M  V30 8117 H 786.952 -1.84136 0.638733 0
M  V30 8118 H 786.048 -3.11418 -0.20617 0
M  V30 8119 N 786.349 -0.21828 -1.56081 0
M  V30 8120 C 787.597 0.413488 -1.97825 0
M  V30 8121 C 787.918 1.60527 -1.10707 0
M  V30 8122 O 787.188 1.9504 -0.183378 0
M  V30 8123 H 785.768 0.155757 -0.730581 0
M  V30 8124 H 788.43 -0.310413 -1.92412 0
M  V30 8125 H 787.526 0.742024 -3.03151 0
M  V30 8126 N 787.827 1.57504 0.0551401 0
M  V30 8127 C 789.076 1.87237 0.750009 0
M  V30 8128 C 789.389 0.813268 1.77891 0
M  V30 8129 O 790.595 0.99898 2.52453 0
M  V30 8130 C 789.051 3.32187 1.38491 0
M  V30 8131 C 788.659 4.46267 0.393707 0
M  V30 8132 C 790.403 3.71101 2.06117 0
M  V30 8133 C 788.31 5.82265 1.03547 0
M  V30 8134 H 787.24 0.698524 0.283866 0
M  V30 8135 H 789.891 1.835 0.00365997 0
M  V30 8136 H 788.273 3.30588 2.18008 0
M  V30 8137 H 789.447 4.59289 -0.372865 0
M  V30 8138 H 787.762 4.16015 -0.17902 0
M  V30 8139 H 790.359 4.70012 2.54937 0
M  V30 8140 H 790.702 3.01751 2.86796 0
M  V30 8141 H 791.235 3.74762 1.33409 0
M  V30 8142 H 787.974 6.54949 0.268644 0
M  V30 8143 H 787.494 5.73012 1.7725 0
M  V30 8144 H 789.173 6.28148 1.55047 0
M  V30 8145 N 789.305 -0.326896 1.54172 0
M  V30 8146 C 790.235 -1.40741 1.86317 0
M  V30 8147 C 791.216 -1.54125 0.719684 0
M  V30 8148 O 792.401 -1.6806 0.973117 0
M  V30 8149 C 789.531 -2.77557 2.08757 0
M  V30 8150 C 788.485 -2.78965 3.24596 0
M  V30 8151 C 787.811 -4.18824 3.32401 0
M  V30 8152 C 789.111 -2.4301 4.62324 0
M  V30 8153 H 790.805 -1.14088 2.76811 0
M  V30 8154 H 788.351 -0.547389 1.3319 0
M  V30 8155 H 790.304 -3.53209 2.29829 0
M  V30 8156 H 789.028 -3.0568 1.15009 0
M  V30 8157 H 787.687 -2.05767 3.03406 0
M  V30 8158 H 787.335 -4.44083 2.36218 0
M  V30 8159 H 787.035 -4.20673 4.10253 0
M  V30 8160 H 788.559 -4.96294 3.55703 0
M  V30 8161 H 789.973 -3.08375 4.83299 0
M  V30 8162 H 788.37 -2.56116 5.42701 0
M  V30 8163 H 789.44 -1.38165 4.64799 0
M  V30 8164 N 790.784 -1.46188 -0.588786 0
M  V30 8165 C 792.2 -1.31009 -0.911524 0
M  V30 8166 C 792.4 -0.277017 -1.99587 0
M  V30 8167 O 791.456 0.322532 -2.50432 0
M  V30 8168 C 792.769 -2.69459 -1.33463 0
M  V30 8169 C 794.317 -2.77502 -1.44782 0
M  V30 8170 C 794.792 -4.1652 -1.90461 0
M  V30 8171 N 796.283 -4.18907 -1.97665 0
M  V30 8172 C 797.018 -5.23359 -2.34271 0
M  V30 8173 N 796.514 -6.38143 -2.69714 0
M  V30 8174 N 798.307 -5.10723 -2.34774 0
M  V30 8175 H 790.458 -2.12016 0.127614 0
M  V30 8176 H 792.721 -0.947984 -0.00557599 0
M  V30 8177 H 792.427 -3.46336 -0.611929 0
M  V30 8178 H 792.301 -2.99165 -2.2974 0
M  V30 8179 H 794.688 -2.00917 -2.1614 0
M  V30 8180 H 794.769 -2.51488 -0.467724 0
M  V30 8181 H 794.413 -4.93597 -1.19684 0
M  V30 8182 H 794.343 -4.39937 -2.89418 0
M  V30 8183 H 796.834 -3.36084 -1.72789 0
M  V30 8184 H 797.147 -7.13624 -2.96582 0
M  V30 8185 H 795.492 -6.41514 -2.67366 0
M  V30 8186 H 798.683 -4.20088 -2.06503 0
M  V30 8187 H 798.856 -5.9224 -2.62975 0
M  V30 8188 N 792.262 0.832906 -1.33792 0
M  V30 8189 C 793.487 1.62568 -1.28788 0
M  V30 8190 C 793.912 1.87599 0.137246 0
M  V30 8191 O 793.27 1.44436 1.0958 0
M  V30 8192 C 793.318 2.9495 -2.07453 0
M  V30 8193 O 792.422 3.86546 -1.43722 0
M  V30 8194 H 791.763 0.494809 -0.442787 0
M  V30 8195 H 794.293 1.03578 -1.76445 0
M  V30 8196 H 794.303 3.44599 -2.1844 0
M  V30 8197 H 792.978 2.76055 -3.11073 0
M  V30 8198 H 791.555 3.45044 -1.41417 0
M  V30 8199 N 793.74 1.17359 1.05189 0
M  V30 8200 C 794.968 0.986529 1.81866 0
M  V30 8201 C 795.383 -0.46522 1.82979 0
M  V30 8202 O 794.74 -1.32305 1.25705 0
M  V30 8203 C 794.791 1.52021 3.27982 0
M  V30 8204 O 794.512 2.91511 3.27037 0
M  V30 8205 C 796.013 1.37774 4.21347 0
M  V30 8206 H 793.233 0.349021 0.573084 0
M  V30 8207 H 795.777 1.55648 1.32643 0
M  V30 8208 H 793.932 0.992287 3.74476 0
M  V30 8209 H 794.346 3.16178 4.18488 0
M  V30 8210 H 795.82 1.7993 5.21852 0
M  V30 8211 H 796.297 0.32483 4.37997 0
M  V30 8212 H 796.903 1.89583 3.80708 0
M  V30 8213 N 795.218 -1.23913 0.973828 0
M  V30 8214 C 796.466 -1.91771 0.637817 0
M  V30 8215 C 796.787 -1.76434 -0.830435 0
M  V30 8216 O 796.057 -1.13965 -1.59339 0
M  V30 8217 H 794.637 -0.709761 0.232912 0
M  V30 8218 H 797.299 -1.50677 1.23622 0
M  V30 8219 H 796.395 -2.99327 0.883731 0
M  V30 8220 N 796.696 -0.74468 -1.38897 0
M  V30 8221 C 798.112 -0.421302 -1.53939 0
M  V30 8222 C 798.312 1.06668 -1.70951 0
M  V30 8223 O 797.368 1.85278 -1.71547 0
M  V30 8224 C 798.681 -1.21278 -2.75159 0
M  V30 8225 C 800.229 -1.20196 -2.89001 0
M  V30 8226 C 800.704 -1.97621 -4.13171 0
M  V30 8227 N 802.195 -1.94836 -4.2023 0
M  V30 8228 C 802.93 -2.51545 -5.15279 0
M  V30 8229 N 802.426 -3.1693 -6.16058 0
M  V30 8230 N 804.219 -2.41524 -5.07565 0
M  V30 8231 H 796.37 -1.70914 -1.26103 0
M  V30 8232 H 798.633 -0.724058 -0.611919 0
M  V30 8233 H 798.339 -2.26609 -2.68963 0
M  V30 8234 H 798.213 -0.823677 -3.68097 0
M  V30 8235 H 800.6 -0.156742 -2.94683 0
M  V30 8236 H 800.681 -1.63051 -1.97099 0
M  V30 8237 H 800.325 -3.02149 -4.0825 0
M  V30 8238 H 800.255 -1.52166 -5.04136 0
M  V30 8239 H 802.746 -1.4721 -3.48048 0
M  V30 8240 H 803.059 -3.57644 -6.85062 0
M  V30 8241 H 801.404 -3.21023 -6.16417 0
M  V30 8242 H 804.595 -1.90077 -4.27771 0
M  V30 8243 H 804.768 -2.86016 -5.81462 0
M  V30 8244 N 798.174 1.49689 -0.493057 0
M  V30 8245 C 799.404 2.06536 0.0512397 0
M  V30 8246 C 799.812 1.35459 1.32089 0
M  V30 8247 O 799.155 0.424145 1.78736 0
M  V30 8248 C 799.217 3.57452 0.383231 0
M  V30 8249 C 798.881 4.50163 -0.787555 0
M  V30 8250 C 799.878 4.92151 -1.67582 0
M  V30 8251 C 797.563 4.92565 -0.984109 0
M  V30 8252 C 799.557 5.7527 -2.74487 0
M  V30 8253 C 797.244 5.75463 -2.05634 0
M  V30 8254 C 798.242 6.16719 -2.93507 0
M  V30 8255 O 797.93 6.97961 -3.98881 0
M  V30 8256 H 797.662 0.675862 -0.0136516 0
M  V30 8257 H 800.216 1.9356 -0.687298 0
M  V30 8258 H 798.446 3.68408 1.17526 0
M  V30 8259 H 800.135 3.96572 0.8652 0
M  V30 8260 H 800.901 4.60043 -1.53575 0
M  V30 8261 H 796.78 4.5996 -0.309541 0
M  V30 8262 H 800.324 6.07392 -3.43104 0
M  V30 8263 H 796.221 6.06983 -2.19639 0
M  V30 8264 H 796.989 7.16253 -3.96137 0
M  V30 8265 N 799.652 0.226554 1.55963 0
M  V30 8266 C 800.582 -0.676079 2.23498 0
M  V30 8267 C 801.563 -1.19718 1.20837 0
M  V30 8268 O 802.748 -1.24027 1.49436 0
M  V30 8269 C 799.878 -1.88217 2.91876 0
M  V30 8270 C 798.832 -1.4947 4.01052 0
M  V30 8271 C 798.158 -2.77997 4.56751 0
M  V30 8272 C 799.458 -0.680951 5.17842 0
M  V30 8273 H 801.152 -0.112989 2.99187 0
M  V30 8274 H 798.698 -0.0529046 1.43903 0
M  V30 8275 H 800.651 -2.51911 3.37815 0
M  V30 8276 H 799.375 -2.47031 2.13643 0
M  V30 8277 H 798.034 -0.881199 3.55852 0
M  V30 8278 H 797.682 -3.34966 3.75243 0
M  V30 8279 H 797.382 -2.52803 5.30438 0
M  V30 8280 H 798.906 -3.42625 5.05411 0
M  V30 8281 H 800.32 -1.22171 5.60131 0
M  V30 8282 H 798.717 -0.525898 5.97791 0
M  V30 8283 H 799.787 0.311346 4.83899 0
M  V30 8284 N 801.13 -1.57531 -0.0467866 0
M  V30 8285 C 802.376 -1.8873 -0.742218 0
M  V30 8286 C 802.709 -0.822084 -1.75941 0
M  V30 8287 O 801.984 0.164922 -1.938 0
M  V30 8288 C 802.267 -3.30586 -1.42776 0
M  V30 8289 C 802.12 -4.47785 -0.425285 0
M  V30 8290 C 803.439 -3.71068 -2.36636 0
M  V30 8291 H 800.558 -0.686406 -0.268359 0
M  V30 8292 H 803.2 -1.89999 -0.00511341 0
M  V30 8293 H 801.35 -3.29634 -2.05605 0
M  V30 8294 H 803.022 -4.60867 0.199721 0
M  V30 8295 H 801.265 -4.33037 0.25713 0
M  V30 8296 H 801.936 -5.43884 -0.943086 0
M  V30 8297 H 804.412 -3.73273 -1.83866 0
M  V30 8298 H 803.288 -4.71165 -2.81593 0
M  V30 8299 H 803.549 -3.02355 -3.22542 0
M  V30 8300 N 802.608 0.318715 -1.54344 0
M  V30 8301 C 803.538 1.39751 -1.87061 0
M  V30 8302 C 804.519 1.53741 -0.727848 0
M  V30 8303 O 805.704 1.67541 -0.982016 0
M  V30 8304 C 802.834 2.76446 -2.10226 0
M  V30 8305 C 801.788 2.77239 -3.26071 0
M  V30 8306 C 801.114 4.17056 -3.34617 0
M  V30 8307 C 802.414 2.40555 -4.63606 0
M  V30 8308 H 804.108 1.12619 -2.77412 0
M  V30 8309 H 801.654 0.540318 -1.33479 0
M  V30 8310 H 803.607 3.51985 -2.31699 0
M  V30 8311 H 802.331 3.05066 -1.16629 0
M  V30 8312 H 800.99 2.04155 -3.04493 0
M  V30 8313 H 800.638 4.42824 -2.3857 0
M  V30 8314 H 800.338 4.18492 -4.12478 0
M  V30 8315 H 801.862 4.94401 -3.5833 0
M  V30 8316 H 803.276 3.05808 -4.84927 0
M  V30 8317 H 801.673 2.53234 -5.44052 0
M  V30 8318 H 802.743 1.35698 -4.65526 0
M  V30 8319 N 804.086 1.46499 0.581025 0
M  V30 8320 C 805.316 1.55244 1.36319 0
M  V30 8321 C 805.724 0.193059 1.88212 0
M  V30 8322 O 805.067 -0.820109 1.64377 0
M  V30 8323 C 805.129 2.498 2.58535 0
M  V30 8324 C 804.793 3.96007 2.28096 0
M  V30 8325 C 805.79 4.85171 1.8683 0
M  V30 8326 C 803.475 4.41152 2.40189 0
M  V30 8327 C 805.469 6.17493 1.58053 0
M  V30 8328 C 803.156 5.73508 2.11024 0
M  V30 8329 C 804.154 6.615 1.70021 0
M  V30 8330 O 803.842 7.914 1.41215 0
M  V30 8331 H 803.574 0.527513 0.422736 0
M  V30 8332 H 806.128 1.92623 0.713139 0
M  V30 8333 H 804.358 2.07443 3.2635 0
M  V30 8334 H 806.047 2.48934 3.20604 0
M  V30 8335 H 806.813 4.51548 1.77001 0
M  V30 8336 H 802.692 3.72886 2.71066 0
M  V30 8337 H 806.236 6.86131 1.25974 0
M  V30 8338 H 802.133 6.06679 2.20478 0
M  V30 8339 H 802.901 8.03681 1.55046 0
M  V30 8340 N 805.565 -0.825799 1.34232 0
M  V30 8341 C 806.495 -1.95151 1.28212 0
M  V30 8342 C 807.476 -1.69345 0.160123 0
M  V30 8343 O 808.661 -1.90983 0.352019 0
M  V30 8344 C 805.791 -3.31554 1.03388 0
M  V30 8345 C 804.745 -3.71793 2.12023 0
M  V30 8346 C 804.071 -5.06147 1.72392 0
M  V30 8347 C 805.371 -3.84193 3.53826 0
M  V30 8348 H 807.065 -2.00445 2.22401 0
M  V30 8349 H 804.611 -0.962996 1.07063 0
M  V30 8350 H 806.564 -4.09889 0.978225 0
M  V30 8351 H 805.288 -3.26551 0.0564142 0
M  V30 8352 H 803.947 -2.95731 2.16654 0
M  V30 8353 H 803.595 -4.97628 0.733137 0
M  V30 8354 H 803.295 -5.34041 2.451 0
M  V30 8355 H 804.819 -5.86943 1.68317 0
M  V30 8356 H 806.233 -4.52806 3.51624 0
M  V30 8357 H 804.63 -4.23538 4.2513 0
M  V30 8358 H 805.7 -2.86272 3.91377 0
M  V30 8359 N 807.043 -1.17915 -1.04565 0
M  V30 8360 C 808.292 -0.965816 -1.77073 0
M  V30 8361 C 808.605 0.506005 -1.88942 0
M  V30 8362 O 809.811 0.837717 -2.58253 0
M  V30 8363 C 808.267 -1.67894 -3.18339 0
M  V30 8364 C 807.875 -3.18972 -3.1458 0
M  V30 8365 C 809.619 -1.54823 -3.9526 0
M  V30 8366 C 807.526 -3.82946 -4.50674 0
M  V30 8367 H 806.456 -0.357729 -0.663736 0
M  V30 8368 H 809.107 -1.41235 -1.17153 0
M  V30 8369 H 807.489 -1.16016 -3.78624 0
M  V30 8370 H 808.663 -3.77835 -2.63776 0
M  V30 8371 H 806.978 -3.32127 -2.51159 0
M  V30 8372 H 809.575 -1.99984 -4.95894 0
M  V30 8373 H 809.918 -0.499727 -4.1329 0
M  V30 8374 H 810.451 -2.03953 -3.41538 0
M  V30 8375 H 807.19 -4.8782 -4.37849 0
M  V30 8376 H 806.71 -3.2887 -5.01602 0
M  V30 8377 H 808.389 -3.85518 -5.196 0
M  V30 8378 N 808.521 1.23394 -0.980386 0
M  V30 8379 C 809.77 1.91116 -0.644785 0
M  V30 8380 C 810.083 1.77333 0.825367 0
M  V30 8381 O 811.289 2.39858 1.27203 0
M  V30 8382 C 809.745 3.42592 -1.10266 0
M  V30 8383 C 809.353 3.65037 -2.59715 0
M  V30 8384 C 811.097 4.1609 -0.8408 0
M  V30 8385 C 809.004 5.10148 -2.9917 0
M  V30 8386 H 807.934 0.715632 -0.23746 0
M  V30 8387 H 810.585 1.39829 -1.18828 0
M  V30 8388 H 808.967 3.92989 -0.487372 0
M  V30 8389 H 810.141 3.25186 -3.26482 0
M  V30 8390 H 808.456 3.04849 -2.83647 0
M  V30 8391 H 811.053 5.23021 -1.11143 0
M  V30 8392 H 811.396 4.15702 0.223085 0
M  V30 8393 H 811.929 3.71681 -1.41767 0
M  V30 8394 H 808.668 5.15668 -4.04682 0
M  V30 8395 H 808.188 5.50949 -2.37097 0
M  V30 8396 H 809.867 5.7848 -2.89775 0
M  V30 8397 N 809.999 0.752036 1.385 0
M  V30 8398 C 811.245 0.307958 2.00448 0
M  V30 8399 C 811.578 -1.10702 1.59558 0
M  V30 8400 O 810.853 -1.75788 0.832391 0
M  V30 8401 C 811.136 0.429092 3.57534 0
M  V30 8402 C 810.989 1.88507 4.08393 0
M  V30 8403 C 812.308 -0.178442 4.39738 0
M  V30 8404 H 809.427 0.113373 0.728228 0
M  V30 8405 H 812.069 0.951389 1.64465 0
M  V30 8406 H 810.219 -0.118695 3.88319 0
M  V30 8407 H 811.891 2.49104 3.88259 0
M  V30 8408 H 810.134 2.40066 3.61318 0
M  V30 8409 H 810.805 1.92099 5.17496 0
M  V30 8410 H 813.281 0.28872 4.15097 0
M  V30 8411 H 812.157 -0.0634349 5.48863 0
M  V30 8412 H 812.418 -1.26655 4.23569 0
M  V30 8413 N 811.477 -1.49425 0.500989 0
M  V30 8414 C 812.723 -2.02753 -0.0436 0
M  V30 8415 C 813.056 -1.37991 -1.36646 0
M  V30 8416 O 812.331 -0.515597 -1.87542 0
M  V30 8417 C 812.614 -3.59565 -0.19616 0
M  V30 8418 C 812.467 -4.34855 1.14982 0
M  V30 8419 C 813.786 -4.30014 -0.936795 0
M  V30 8420 H 810.905 -0.73686 -0.0143711 0
M  V30 8421 H 813.547 -1.78448 0.652397 0
M  V30 8422 H 811.697 -3.80405 -0.788959 0
M  V30 8423 H 813.369 -4.25512 1.7815 0
M  V30 8424 H 811.612 -3.97414 1.73911 0
M  V30 8425 H 812.283 -5.42933 0.996385 0
M  V30 8426 H 814.759 -4.1383 -0.434036 0
M  V30 8427 H 813.635 -5.39483 -1.01238 0
M  V30 8428 H 813.896 -3.95257 -1.9805 0
M  V30 8429 N 812.955 -0.234822 -1.55841 0
M  V30 8430 C 814.203 0.392483 -1.98252 0
M  V30 8431 C 814.524 1.59344 -1.12404 0
M  V30 8432 O 813.794 1.94834 -0.204055 0
M  V30 8433 H 812.374 0.147999 -0.732192 0
M  V30 8434 H 815.036 -0.330804 -1.92072 0
M  V30 8435 H 814.132 0.709829 -3.03921 0
M  V30 8436 N 814.433 1.57553 0.0384317 0
M  V30 8437 C 815.366 2.01307 1.07475 0
M  V30 8438 C 816.344 0.895717 1.35704 0
M  V30 8439 O 817.528 1.16079 1.48519 0
M  V30 8440 C 814.655 2.37817 2.41165 0
M  V30 8441 C 813.701 3.599 2.28855 0
M  V30 8442 S 814.534 5.09418 1.65086 0
M  V30 8443 C 815.69 5.49162 3.00286 0
M  V30 8444 H 815.923 2.88892 0.702034 0
M  V30 8445 H 813.456 1.52394 0.248103 0
M  V30 8446 H 815.414 2.59524 3.18053 0
M  V30 8447 H 814.075 1.507 2.75587 0
M  V30 8448 H 813.268 3.83071 3.27525 0
M  V30 8449 H 812.87 3.37996 1.60109 0
M  V30 8450 H 815.162 5.49274 3.96617 0
M  V30 8451 H 816.105 6.49586 2.81858 0
M  V30 8452 H 816.513 4.76653 3.02427 0
M  V30 8453 N 815.911 -0.310526 1.54511 0
M  V30 8454 C 816.874 -1.3657 1.84068 0
M  V30 8455 C 817.874 -1.44123 0.713097 0
M  V30 8456 O 819.064 -1.43924 0.981399 0
M  V30 8457 C 816.196 -2.75162 2.01243 0
M  V30 8458 H 817.389 -1.1161 2.78358 0
M  V30 8459 H 814.942 -0.546699 1.46427 0
M  V30 8460 H 815.677 -3.05359 1.09208 0
M  V30 8461 H 815.462 -2.71071 2.83307 0
M  V30 8462 H 816.952 -3.51473 2.25514 0
M  V30 8463 N 817.389 -1.46805 -0.573248 0
M  V30 8464 C 818.619 -1.55965 -1.35494 0
M  V30 8465 C 819.027 -0.203038 -1.88107 0
M  V30 8466 O 818.37 0.81138 -1.6481 0
M  V30 8467 C 818.432 -2.51168 -2.57206 0
M  V30 8468 C 818.096 -3.97211 -2.25993 0
M  V30 8469 C 819.093 -4.86155 -1.84254 0
M  V30 8470 C 816.778 -4.42419 -2.37846 0
M  V30 8471 C 818.772 -6.18323 -1.54776 0
M  V30 8472 C 816.459 -5.74619 -2.0798 0
M  V30 8473 C 817.457 -6.62392 -1.66511 0
M  V30 8474 O 817.145 -7.92137 -1.37016 0
M  V30 8475 H 816.877 -0.529748 -0.419932 0
M  V30 8476 H 819.431 -1.92998 -0.702914 0
M  V30 8477 H 817.661 -2.09171 -3.25245 0
M  V30 8478 H 819.35 -2.50631 -3.19279 0
M  V30 8479 H 820.116 -4.52481 -1.74603 0
M  V30 8480 H 815.995 -3.74319 -2.69085 0
M  V30 8481 H 819.539 -6.8679 -1.22334 0
M  V30 8482 H 815.436 -6.0784 -2.17258 0
M  V30 8483 H 816.204 -8.04492 -1.50782 0
M  V30 8484 N 818.867 0.818669 -1.34668 0
M  V30 8485 C 819.797 1.94468 -1.29245 0
M  V30 8486 C 820.778 1.69257 -0.169101 0
M  V30 8487 O 821.963 1.90794 -0.362143 0
M  V30 8488 C 819.093 3.31001 -1.05145 0
M  V30 8489 C 818.047 3.70663 -2.13992 0
M  V30 8490 C 817.373 5.05226 -1.75074 0
M  V30 8491 C 818.673 3.82312 -3.55858 0
M  V30 8492 H 820.367 1.99263 -2.2346 0
M  V30 8493 H 817.913 0.957304 -1.07572 0
M  V30 8494 H 819.866 4.09364 -0.999949 0
M  V30 8495 H 818.59 3.26517 -0.0737312 0
M  V30 8496 H 817.249 2.94578 -2.18219 0
M  V30 8497 H 816.897 4.97233 -0.759518 0
M  V30 8498 H 816.597 5.32734 -2.47928 0
M  V30 8499 H 818.121 5.86042 -1.71427 0
M  V30 8500 H 819.535 4.50935 -3.5402 0
M  V30 8501 H 817.932 4.21278 -4.2737 0
M  V30 8502 H 819.002 2.84193 -3.9289 0
M  V30 8503 N 820.346 1.18468 1.03938 0
M  V30 8504 C 821.593 0.980833 1.77161 0
M  V30 8505 C 821.921 -0.489425 1.88242 0
M  V30 8506 O 821.176 -1.37961 1.388 0
M  V30 8507 C 821.475 1.58229 3.20466 0
M  V30 8508 C 821.141 3.07889 3.29416 0
M  V30 8509 C 819.803 3.48737 3.31566 0
M  V30 8510 C 822.155 4.03903 3.29411 0
M  V30 8511 C 819.483 4.84171 3.31355 0
M  V30 8512 C 821.835 5.39253 3.3074 0
M  V30 8513 C 820.499 5.79547 3.31182 0
M  V30 8514 H 819.769 0.358912 0.648277 0
M  V30 8515 H 822.416 1.47552 1.22069 0
M  V30 8516 H 820.721 1.00964 3.78568 0
M  V30 8517 H 822.418 1.39998 3.75768 0
M  V30 8518 H 819.008 2.75335 3.28464 0
M  V30 8519 H 823.192 3.73395 3.2694 0
M  V30 8520 H 818.448 5.14685 3.30015 0
M  V30 8521 H 822.622 6.13417 3.29686 0
M  V30 8522 H 820.249 6.84466 3.30772 0
M  V30 8523 N 821.824 -1.22873 0.986916 0
M  V30 8524 C 823.07 -1.91746 0.660401 0
M  V30 8525 C 823.403 -1.76738 -0.804812 0
M  V30 8526 O 822.678 -1.13246 -1.58131 0
M  V30 8527 C 822.961 -3.44156 1.05966 0
M  V30 8528 C 822.814 -3.68242 2.58298 0
M  V30 8529 C 824.133 -4.35874 0.60842 0
M  V30 8530 H 821.252 -0.696347 0.241391 0
M  V30 8531 H 823.894 -1.44867 1.22937 0
M  V30 8532 H 822.044 -3.84213 0.575534 0
M  V30 8533 H 823.716 -3.37626 3.14335 0
M  V30 8534 H 821.959 -3.12728 3.00638 0
M  V30 8535 H 822.63 -4.74956 2.81285 0
M  V30 8536 H 825.106 -4.03299 1.02417 0
M  V30 8537 H 823.982 -5.41201 0.916142 0
M  V30 8538 H 824.243 -4.39364 -0.491086 0
M  V30 8539 N 823.302 -0.75937 -1.38099 0
M  V30 8540 C 824.718 -0.437606 -1.53483 0
M  V30 8541 C 824.918 1.04849 -1.72072 0
M  V30 8542 O 823.974 1.83448 -1.73502 0
M  V30 8543 C 825.287 -1.24189 -2.73857 0
M  V30 8544 C 826.835 -1.23255 -2.8771 0
M  V30 8545 C 827.31 -2.01992 -4.11051 0
M  V30 8546 N 828.801 -1.99282 -4.1814 0
M  V30 8547 C 829.536 -2.56996 -5.12583 0
M  V30 8548 N 829.032 -3.23446 -6.12662 0
M  V30 8549 N 830.825 -2.46894 -5.04975 0
M  V30 8550 H 822.976 -1.72242 -1.24283 0
M  V30 8551 H 825.239 -0.730507 -0.604205 0
M  V30 8552 H 824.945 -2.29449 -2.66545 0
M  V30 8553 H 824.819 -0.862672 -3.67203 0
M  V30 8554 H 827.206 -0.187988 -2.94501 0
M  V30 8555 H 827.287 -1.65132 -1.95359 0
M  V30 8556 H 826.931 -3.06462 -4.05023 0
M  V30 8557 H 826.861 -1.57505 -5.02494 0
M  V30 8558 H 829.352 -1.50893 -3.46467 0
M  V30 8559 H 829.665 -3.6489 -6.81231 0
M  V30 8560 H 828.01 -3.27543 -6.12977 0
M  V30 8561 H 831.201 -1.94604 -4.25731 0
M  V30 8562 H 831.374 -2.92168 -5.78396 0
M  V30 8563 N 824.78 1.49157 -0.508906 0
M  V30 8564 C 825.71 2.32109 0.254469 0
M  V30 8565 C 826.691 1.40754 0.955111 0
M  V30 8566 O 827.876 1.69658 0.944983 0
M  V30 8567 C 825.006 3.21458 1.3146 0
M  V30 8568 C 823.96 4.2167 0.733368 0
M  V30 8569 C 823.286 5.00009 1.8946 0
M  V30 8570 C 824.586 5.21544 -0.280875 0
M  V30 8571 H 826.28 2.9618 -0.43795 0
M  V30 8572 H 823.826 1.4243 -0.212062 0
M  V30 8573 H 825.779 3.78305 1.85643 0
M  V30 8574 H 824.503 2.55346 2.03632 0
M  V30 8575 H 823.162 3.65979 0.213231 0
M  V30 8576 H 822.81 4.30338 2.60419 0
M  V30 8577 H 822.51 5.67821 1.51173 0
M  V30 8578 H 824.034 5.59702 2.44061 0
M  V30 8579 H 825.448 5.73039 0.173095 0
M  V30 8580 H 823.845 5.97291 -0.580006 0
M  V30 8581 H 824.915 4.69969 -1.19404 0
M  V30 8582 N 826.258 0.243083 1.55714 0
M  V30 8583 C 827.669 -0.260788 1.8487 0
M  V30 8584 C 828.02 -1.57879 1.16485 0
M  V30 8585 O 827.145 -2.1184 0.441908 0
M  V30 8586 C 827.74 -0.479954 3.35383 0
M  V30 8587 C 826.299 -0.928096 3.64778 0
M  V30 8588 C 825.446 -0.00316416 2.773 0
M  V30 8589 H 828.397 0.465743 1.51712 0
M  V30 8590 H 828.418 -1.32308 3.56756 0
M  V30 8591 H 827.93 0.479468 3.85127 0
M  V30 8592 H 826.031 -1.90012 3.20509 0
M  V30 8593 H 826.144 -0.7876 4.72582 0
M  V30 8594 H 824.508 -0.513849 2.49463 0
M  V30 8595 H 825.291 0.951562 3.29849 0
M  V30 8596 N 827.736 -1.57571 -0.0300757 0
M  V30 8597 C 828.961 -1.93879 -0.736601 0
M  V30 8598 C 829.386 -0.842998 -1.68152 0
M  V30 8599 O 828.744 0.20135 -1.80178 0
M  V30 8600 C 828.792 -3.29247 -1.47066 0
M  V30 8601 O 827.896 -3.21426 -2.58378 0
M  V30 8602 H 827.237 -0.633735 -0.198181 0
M  V30 8603 H 829.767 -2.04595 0.0141485 0
M  V30 8604 H 829.777 -3.64113 -1.84081 0
M  V30 8605 H 828.452 -4.08565 -0.77764 0
M  V30 8606 H 827.029 -2.98189 -2.23914 0
M  V30 8607 N 829.214 0.302327 -1.54673 0
M  V30 8608 C 830.439 1.06103 -1.78205 0
M  V30 8609 C 830.864 1.80204 -0.53926 0
M  V30 8610 O 830.222 1.73975 0.510142 0
M  V30 8611 C 830.27 2.01829 -2.98827 0
M  V30 8612 O 829.374 3.10108 -2.71858 0
M  V30 8613 H 828.715 0.30487 -0.589873 0
M  V30 8614 H 831.245 0.340153 -2.01753 0
M  V30 8615 H 831.255 2.44319 -3.2676 0
M  V30 8616 H 829.93 1.473 -3.88942 0
M  V30 8617 H 828.507 2.72142 -2.54937 0
M  V30 8618 N 830.692 1.47107 0.565454 0
M  V30 8619 C 831.939 1.53308 1.32299 0
M  V30 8620 C 832.267 0.1919 1.93551 0
M  V30 8621 O 831.522 -0.81435 1.77952 0
M  V30 8622 C 831.821 2.59309 2.45954 0
M  V30 8623 C 831.487 4.02827 2.02586 0
M  V30 8624 C 830.149 4.41897 1.90474 0
M  V30 8625 C 832.501 4.92913 1.6937 0
M  V30 8626 C 829.829 5.68898 1.4343 0
M  V30 8627 C 832.181 6.20368 1.238 0
M  V30 8628 C 830.845 6.58327 1.10278 0
M  V30 8629 H 830.115 0.560993 0.484116 0
M  V30 8630 H 832.762 1.80667 0.634965 0
M  V30 8631 H 831.067 2.25676 3.20277 0
M  V30 8632 H 832.764 2.61332 3.04149 0
M  V30 8633 H 829.354 3.71953 2.12952 0
M  V30 8634 H 833.538 4.63433 1.77605 0
M  V30 8635 H 828.794 5.97065 1.31618 0
M  V30 8636 H 832.968 6.89589 0.971586 0
M  V30 8637 H 830.595 7.56628 0.736027 0
M  V30 8638 N 832.17 -0.811516 1.35101 0
M  V30 8639 C 833.1 -1.9378 1.30275 0
M  V30 8640 C 834.081 -1.69165 0.178075 0
M  V30 8641 O 835.266 -1.90599 0.372256 0
M  V30 8642 C 832.396 -3.30439 1.06899 0
M  V30 8643 C 831.35 -3.69523 2.15955 0
M  V30 8644 C 830.676 -5.0429 1.77751 0
M  V30 8645 C 831.976 -3.80419 3.57881 0
M  V30 8646 H 833.67 -1.98075 2.24514 0
M  V30 8647 H 831.216 -0.951586 1.08078 0
M  V30 8648 H 833.169 -4.08828 1.02164 0
M  V30 8649 H 831.893 -3.26473 0.0910462 0
M  V30 8650 H 830.552 -2.93416 2.19778 0
M  V30 8651 H 830.2 -4.96823 0.785876 0
M  V30 8652 H 829.9 -5.31411 2.5075 0
M  V30 8653 H 831.424 -5.85125 1.74533 0
M  V30 8654 H 832.838 -4.49051 3.56407 0
M  V30 8655 H 831.235 -4.19005 4.29598 0
M  V30 8656 H 832.305 -2.82105 3.94391 0
M  V30 8657 N 833.648 -1.19017 -1.03309 0
M  V30 8658 C 835.059 -0.993206 -1.5809 0
M  V30 8659 C 835.41 0.45505 -1.9085 0
M  V30 8660 O 834.535 1.33372 -1.70414 0
M  V30 8661 C 835.13 -1.79661 -2.87241 0
M  V30 8662 C 833.689 -1.64377 -3.38611 0
M  V30 8663 C 832.836 -1.78628 -2.12102 0
M  V30 8664 H 835.787 -1.3345 -0.858879 0
M  V30 8665 H 835.808 -1.29019 -3.57958 0
M  V30 8666 H 835.32 -2.85061 -2.63366 0
M  V30 8667 H 833.421 -0.615447 -3.67482 0
M  V30 8668 H 833.534 -2.44651 -4.11926 0
M  V30 8669 H 831.898 -1.21648 -2.23772 0
M  V30 8670 H 832.681 -2.8548 -1.90673 0
M  V30 8671 N 835.127 1.22348 -0.993418 0
M  V30 8672 C 836.404 1.86632 -0.585495 0
M  V30 8673 C 836.784 1.89156 0.937187 0
M  V30 8674 O 836.132 1.38247 1.81934 0
M  V30 8675 C 836.342 3.27481 -1.20652 0
M  V30 8676 C 837.69 4.03971 -1.30738 0
M  V30 8677 O 838.714 3.3675 -1.16096 0
M  V30 8678 O 837.573 5.24302 -1.54173 0
M  V30 8679 H 834.667 0.802704 -0.198984 0
M  V30 8680 H 837.213 1.30122 -1.08933 0
M  V30 8681 H 835.985 3.20281 -2.24802 0
M  V30 8682 H 835.608 3.91597 -0.688312 0
M  V30 8683 N 836.605 0.766683 1.37694 0
M  V30 8684 C 837.515 0.150158 2.34119 0
M  V30 8685 C 838.531 -0.685513 1.59927 0
M  V30 8686 O 839.707 -0.606616 1.92047 0
M  V30 8687 C 836.772 -0.722562 3.39087 0
M  V30 8688 C 835.833 0.128983 4.29106 0
M  V30 8689 C 835.066 -0.702178 5.29061 0
M  V30 8690 O 835.289 -1.93954 5.36412 0
M  V30 8691 O 834.223 -0.114056 6.01792 0
M  V30 8692 H 838.049 0.946829 2.88563 0
M  V30 8693 H 835.634 0.527765 1.39768 0
M  V30 8694 H 837.516 -1.22095 4.03325 0
M  V30 8695 H 836.191 -1.49751 2.86978 0
M  V30 8696 H 835.098 0.673612 3.67985 0
M  V30 8697 H 836.431 0.866892 4.84506 0
M  V30 8698 N 838.083 -1.48885 0.516809 0
M  V30 8699 C 839.36 -1.95412 -0.0858293 0
M  V30 8700 C 839.74 -1.45875 -1.5259 0
M  V30 8701 O 839.088 -0.679415 -2.18166 0
M  V30 8702 C 839.298 -3.48995 0.0178194 0
M  V30 8703 C 840.646 -4.24342 -0.14813 0
M  V30 8704 O 841.67 -3.56155 -0.0566125 0
M  V30 8705 O 840.529 -5.45454 -0.338035 0
M  V30 8706 H 837.623 -0.822455 -0.0865884 0
M  V30 8707 H 840.169 -1.59464 0.580472 0
M  V30 8708 H 838.941 -3.77732 1.02147 0
M  V30 8709 H 838.564 -3.91604 -0.687924 0
M  V30 8710 N 839.561 -0.251338 -1.55583 0
M  V30 8711 C 840.493 0.679167 -2.18906 0
M  V30 8712 C 841.506 1.13545 -1.16667 0
M  V30 8713 O 842.695 1.06146 -1.4351 0
M  V30 8714 C 839.795 1.93544 -2.78198 0
M  V30 8715 C 838.968 1.62987 -4.05899 0
M  V30 8716 C 838.027 2.73618 -4.49466 0
M  V30 8717 O 837.053 2.40815 -5.15749 0
M  V30 8718 N 838.255 4.03204 -4.1762 0
M  V30 8719 H 841.02 0.137328 -2.99385 0
M  V30 8720 H 838.581 -0.0714754 -1.61742 0
M  V30 8721 H 840.573 2.66804 -3.04299 0
M  V30 8722 H 839.143 2.38695 -2.0185 0
M  V30 8723 H 838.363 0.732237 -3.8734 0
M  V30 8724 H 839.651 1.40041 -4.89148 0
M  V30 8725 H 839.049 4.32686 -3.64416 0
M  V30 8726 H 837.606 4.72916 -4.48547 0
M  V30 8727 N 841.039 1.57585 0.0217189 0
M  V30 8728 C 842.287 1.89231 0.709641 0
M  V30 8729 C 842.608 0.849964 1.75501 0
M  V30 8730 O 841.878 -0.115485 1.95559 0
M  V30 8731 H 840.458 0.69838 0.265092 0
M  V30 8732 H 843.12 1.94895 -0.0140688 0
M  V30 8733 H 842.216 2.88333 1.19459 0
M  V30 8734 N 842.517 -0.29412 1.54831 0
M  V30 8735 C 843.763 -1.02999 1.74697 0
M  V30 8736 C 844.096 -1.86687 0.534949 0
M  V30 8737 O 843.371 -1.88789 -0.467863 0
M  V30 8738 C 843.654 -1.93024 3.03996 0
M  V30 8739 C 843.507 -1.1247 4.35512 0
M  V30 8740 C 844.826 -2.92085 3.29203 0
M  V30 8741 H 841.945 -0.373039 0.635618 0
M  V30 8742 H 844.587 -0.304065 1.87551 0
M  V30 8743 H 842.737 -2.5492 2.93169 0
M  V30 8744 H 844.409 -0.528067 4.58268 0
M  V30 8745 H 842.652 -0.427574 4.31688 0
M  V30 8746 H 843.323 -1.78728 5.22265 0
M  V30 8747 H 845.799 -2.40319 3.39685 0
M  V30 8748 H 844.675 -3.52234 4.20978 0
M  V30 8749 H 844.936 -3.66107 2.47827 0
M  V30 8750 N 843.995 -1.47404 -0.557645 0
M  V30 8751 C 845.242 -1.54007 -1.31484 0
M  V30 8752 C 845.57 -0.202162 -1.93447 0
M  V30 8753 O 844.825 0.804901 -1.78381 0
M  V30 8754 C 845.124 -2.6061 -2.44575 0
M  V30 8755 C 844.79 -4.03896 -2.00446 0
M  V30 8756 C 843.452 -4.42901 -1.88127 0
M  V30 8757 C 845.804 -4.93804 -1.66754 0
M  V30 8758 C 843.132 -5.6965 -1.40411 0
M  V30 8759 C 845.484 -6.21016 -1.20509 0
M  V30 8760 C 844.148 -6.58903 -1.06786 0
M  V30 8761 H 843.418 -0.563552 -0.481134 0
M  V30 8762 H 846.065 -1.81001 -0.625375 0
M  V30 8763 H 844.37 -2.27371 -3.19076 0
M  V30 8764 H 846.067 -2.62941 -3.02759 0
M  V30 8765 H 842.657 -3.73077 -2.10977 0
M  V30 8766 H 846.841 -4.64369 -1.75144 0
M  V30 8767 H 842.097 -5.97755 -1.2845 0
M  V30 8768 H 846.271 -6.90095 -0.935001 0
M  V30 8769 H 843.898 -7.57008 -0.695891 0
M  V30 8770 N 845.473 0.80434 -1.35529 0
M  V30 8771 C 846.406 1.92222 -1.22987 0
M  V30 8772 C 847.384 1.62177 -0.117269 0
M  V30 8773 O 848.568 1.86321 -0.285761 0
M  V30 8774 C 845.695 3.26682 -0.894223 0
M  V30 8775 C 844.741 3.75674 -2.01919 0
M  V30 8776 S 845.574 3.93209 -3.6352 0
M  V30 8777 C 846.73 5.30568 -3.32037 0
M  V30 8778 H 846.963 2.02567 -2.1761 0
M  V30 8779 H 844.496 0.961961 -1.20771 0
M  V30 8780 H 846.454 4.04359 -0.707371 0
M  V30 8781 H 845.115 3.14082 0.0339729 0
M  V30 8782 H 844.308 4.73065 -1.73854 0
M  V30 8783 H 843.91 3.05001 -2.16449 0
M  V30 8784 H 846.202 6.14637 -2.85004 0
M  V30 8785 H 847.145 5.63628 -4.28636 0
M  V30 8786 H 847.553 4.96961 -2.6775 0
M  V30 8787 N 846.951 1.19563 1.02676 0
M  V30 8788 C 848.179 1.02488 1.79732 0
M  V30 8789 C 848.594 -0.426302 1.83924 0
M  V30 8790 O 847.951 -1.29609 1.28483 0
M  V30 8791 C 848.002 1.58944 3.24683 0
M  V30 8792 O 847.723 2.98382 3.2078 0
M  V30 8793 C 849.224 1.46681 4.1833 0
M  V30 8794 H 846.444 0.361098 0.565552 0
M  V30 8795 H 848.988 1.58426 1.29311 0
M  V30 8796 H 847.143 1.0715 3.72287 0
M  V30 8797 H 847.557 3.24983 4.11687 0
M  V30 8798 H 849.031 1.90959 5.17918 0
M  V30 8799 H 849.508 0.417663 4.3721 0
M  V30 8800 H 850.114 1.97616 3.76601 0
M  V30 8801 N 848.429 -1.21819 0.999893 0
M  V30 8802 C 849.362 -2.22635 0.500887 0
M  V30 8803 C 850.34 -1.56459 -0.442636 0
M  V30 8804 O 851.524 -1.84902 -0.366551 0
M  V30 8805 C 848.651 -3.37598 -0.273046 0
M  V30 8806 C 847.697 -4.22006 0.617511 0
M  V30 8807 S 848.53 -4.93583 2.07693 0
M  V30 8808 C 849.686 -6.1198 1.31269 0
M  V30 8809 H 849.919 -2.64618 1.35516 0
M  V30 8810 H 847.452 -1.31606 0.807419 0
M  V30 8811 H 849.41 -4.04251 -0.713515 0
M  V30 8812 H 848.071 -2.94108 -1.10268 0
M  V30 8813 H 847.264 -5.03995 0.0216543 0
M  V30 8814 H 846.866 -3.6052 0.99504 0
M  V30 8815 H 849.158 -6.74979 0.583933 0
M  V30 8816 H 850.101 -6.75991 2.10811 0
M  V30 8817 H 850.509 -5.5847 0.822901 0
M  V30 8818 N 849.908 -0.773975 -1.37286 0
M  V30 8819 C 851.154 -0.339809 -1.99933 0
M  V30 8820 C 851.487 1.0815 -1.61299 0
M  V30 8821 O 850.762 1.74442 -0.860252 0
M  V30 8822 C 851.045 -0.485919 -3.56806 0
M  V30 8823 C 850.898 -1.9498 -4.05343 0
M  V30 8824 C 852.217 0.108461 -4.39966 0
M  V30 8825 H 849.336 -0.124944 -0.726332 0
M  V30 8826 H 851.978 -0.977433 -1.6293 0
M  V30 8827 H 850.128 0.0569023 -3.88458 0
M  V30 8828 H 851.8 -2.5525 -3.84246 0
M  V30 8829 H 850.043 -2.45784 -3.57453 0
M  V30 8830 H 850.714 -2.00308 -5.14374 0
M  V30 8831 H 853.19 -0.354722 -4.14585 0
M  V30 8832 H 852.066 -0.0238926 -5.48895 0
M  V30 8833 H 852.327 1.19901 -4.25531 0
M  V30 8834 N 851.386 1.48609 -0.524698 0
M  V30 8835 C 852.318 2.27508 0.278 0
M  V30 8836 C 853.331 1.35042 0.909258 0
M  V30 8837 O 854.52 1.60136 0.788592 0
M  V30 8838 C 851.62 3.08247 1.40843 0
M  V30 8839 C 850.793 4.28455 0.880083 0
M  V30 8840 C 849.852 4.91048 1.891 0
M  V30 8841 O 848.878 5.5042 1.45005 0
M  V30 8842 N 850.08 4.82816 3.22288 0
M  V30 8843 H 852.845 2.97037 -0.398642 0
M  V30 8844 H 850.406 1.57876 -0.358698 0
M  V30 8845 H 852.398 3.46992 2.08276 0
M  V30 8846 H 850.968 2.41173 1.98883 0
M  V30 8847 H 850.188 3.94189 0.0299228 0
M  V30 8848 H 851.476 5.06279 0.505881 0
M  V30 8849 H 850.874 4.3572 3.60783 0
M  V30 8850 H 849.431 5.25676 3.85368 0
M  V30 8851 N 852.864 0.259585 1.55447 0
M  V30 8852 C 853.794 -0.62852 2.24882 0
M  V30 8853 C 854.775 -1.17128 1.23349 0
M  V30 8854 O 855.96 -1.20829 1.52033 0
M  V30 8855 C 853.09 -1.81983 2.95803 0
M  V30 8856 C 852.044 -1.40929 4.04132 0
M  V30 8857 C 851.37 -2.68246 4.62545 0
M  V30 8858 C 852.67 -0.570956 5.1917 0
M  V30 8859 H 854.364 -0.0495021 2.99359 0
M  V30 8860 H 851.91 -0.0223688 1.43983 0
M  V30 8861 H 853.863 -2.44689 3.43082 0
M  V30 8862 H 852.587 -2.42444 2.18835 0
M  V30 8863 H 851.246 -0.805519 3.57641 0
M  V30 8864 H 850.894 -3.26931 3.82263 0
M  V30 8865 H 850.594 -2.41495 5.35681 0
M  V30 8866 H 852.118 -3.31827 5.12565 0
M  V30 8867 H 853.532 -1.10262 5.62597 0
M  V30 8868 H 851.929 -0.398979 5.98772 0
M  V30 8869 H 852.999 0.413918 4.8313 0
M  V30 8870 N 854.342 -1.57594 -0.0133615 0
M  V30 8871 C 855.753 -1.78168 -0.557937 0
M  V30 8872 C 856.104 -0.892616 -1.74719 0
M  V30 8873 O 855.229 -0.0915491 -2.16206 0
M  V30 8874 C 855.824 -3.23115 -1.01894 0
M  V30 8875 C 854.383 -3.44831 -1.50892 0
M  V30 8876 C 853.53 -2.73558 -0.454044 0
M  V30 8877 H 856.481 -1.57266 0.212843 0
M  V30 8878 H 856.502 -3.30493 -1.8856 0
M  V30 8879 H 856.014 -3.87798 -0.153175 0
M  V30 8880 H 854.115 -2.85345 -2.39602 0
M  V30 8881 H 854.228 -4.53485 -1.54559 0
M  V30 8882 H 852.592 -2.37787 -0.912666 0
M  V30 8883 H 853.375 -3.40932 0.402524 0
M  V30 8884 N 855.82 0.285905 -1.54985 0
M  V30 8885 C 856.783 1.33625 -1.86218 0
M  V30 8886 C 857.783 1.42971 -0.735936 0
M  V30 8887 O 858.973 1.42345 -1.00417 0
M  V30 8888 C 856.105 2.71926 -2.05595 0
M  V30 8889 H 857.298 1.07167 -2.80099 0
M  V30 8890 H 854.851 0.523335 -1.47278 0
M  V30 8891 H 855.586 3.03583 -1.14053 0
M  V30 8892 H 855.371 2.6653 -2.87583 0
M  V30 8893 H 856.861 3.47841 -2.31077 0
M  V30 8894 N 857.298 1.47698 0.54982 0
M  V30 8895 C 858.546 1.54397 1.30407 0
M  V30 8896 C 858.867 0.211026 1.93855 0
M  V30 8897 O 858.137 -0.765701 1.80316 0
M  V30 8898 H 856.717 0.568747 0.484289 0
M  V30 8899 H 859.379 1.84042 0.641444 0
M  V30 8900 H 858.475 2.31449 2.09375 0
M  V30 8901 N 858.776 -0.797141 1.35954 0
M  V30 8902 C 859.739 -1.89104 1.29508 0
M  V30 8903 C 860.739 -1.59495 0.204444 0
M  V30 8904 O 861.929 -1.68051 0.458746 0
M  V30 8905 C 859.061 -3.25726 1.00576 0
M  V30 8906 H 860.254 -1.96237 2.26785 0
M  V30 8907 H 857.807 -0.994075 1.20614 0
M  V30 8908 H 858.542 -3.24279 0.0372519 0
M  V30 8909 H 858.327 -3.48604 1.79492 0
M  V30 8910 H 859.817 -4.0578 0.986508 0
M  V30 8911 N 860.254 -1.20106 -1.0204 0
M  V30 8912 C 861.482 -1.0344 -1.79186 0
M  V30 8913 C 861.897 0.416542 -1.84148 0
M  V30 8914 O 861.254 1.28925 -1.29168 0
M  V30 8915 C 861.305 -1.60663 -3.23836 0
M  V30 8916 O 861.026 -3.00079 -3.19193 0
M  V30 8917 C 862.527 -1.48897 -4.17546 0
M  V30 8918 H 859.747 -0.364093 -0.563629 0
M  V30 8919 H 862.291 -1.5911 -1.28469 0
M  V30 8920 H 860.446 -1.09122 -3.71714 0
M  V30 8921 H 860.86 -3.27162 -4.09958 0
M  V30 8922 H 862.334 -1.93703 -5.16898 0
M  V30 8923 H 862.811 -0.440843 -4.36982 0
M  V30 8924 H 863.417 -1.9961 -3.75547 0
M  V30 8925 N 861.732 1.21287 -1.00634 0
M  V30 8926 C 862.664 2.2308 -0.526094 0
M  V30 8927 C 863.677 1.58157 0.386031 0
M  V30 8928 O 864.866 1.77528 0.186016 0
M  V30 8929 C 861.966 3.37937 0.255289 0
M  V30 8930 C 861.139 4.32449 -0.656236 0
M  V30 8931 C 860.198 5.26145 0.0757714 0
M  V30 8932 O 859.224 5.66601 -0.543325 0
M  V30 8933 N 860.426 5.6449 1.35391 0
M  V30 8934 H 863.191 2.64913 -1.40147 0
M  V30 8935 H 860.752 1.35724 -0.882641 0
M  V30 8936 H 862.744 3.97614 0.753977 0
M  V30 8937 H 861.314 2.95078 1.03187 0
M  V30 8938 H 860.534 3.70892 -1.3354 0
M  V30 8939 H 861.822 4.92526 -1.27653 0
M  V30 8940 H 861.22 5.33617 1.878 0
M  V30 8941 H 859.777 6.26524 1.79753 0
M  V30 8942 N 863.21 0.781244 1.36873 0
M  V30 8943 C 864.12 0.174981 2.33947 0
M  V30 8944 C 865.136 -0.668512 1.60645 0
M  V30 8945 O 866.312 -0.586213 1.9268 0
M  V30 8946 C 863.377 -0.686557 3.39834 0
M  V30 8947 C 862.438 0.174489 4.28945 0
M  V30 8948 C 861.671 -0.646024 5.29776 0
M  V30 8949 O 861.894 -1.88254 5.38439 0
M  V30 8950 O 860.828 -0.0502214 6.01879 0
M  V30 8951 H 864.654 0.977382 2.87543 0
M  V30 8952 H 862.239 0.542559 1.392 0
M  V30 8953 H 864.121 -1.1781 4.04597 0
M  V30 8954 H 862.796 -1.46699 2.8855 0
M  V30 8955 H 861.703 0.712604 3.6725 0
M  V30 8956 H 863.036 0.918232 4.83559 0
M  V30 8957 N 864.689 -1.48329 0.532571 0
M  V30 8958 C 866.105 -1.58458 0.190605 0
M  V30 8959 C 866.305 -1.53427 -1.30623 0
M  V30 8960 O 865.361 -1.4247 -2.08467 0
M  V30 8961 C 866.674 -2.89989 0.79543 0
M  V30 8962 C 868.222 -3.03523 0.7644 0
M  V30 8963 C 868.697 -4.37718 1.34785 0
M  V30 8964 N 870.188 -4.44292 1.30993 0
M  V30 8965 C 870.923 -5.4664 1.73124 0
M  V30 8966 N 870.419 -6.5593 2.22997 0
M  V30 8967 N 872.212 -5.37538 1.64346 0
M  V30 8968 H 864.363 -1.49842 1.50537 0
M  V30 8969 H 866.626 -0.71164 0.626316 0
M  V30 8970 H 866.332 -2.99333 1.84642 0
M  V30 8971 H 866.206 -3.76203 0.27403 0
M  V30 8972 H 868.593 -2.93789 -0.277831 0
M  V30 8973 H 868.674 -2.18912 1.3233 0
M  V30 8974 H 868.318 -4.48206 2.38902 0
M  V30 8975 H 868.248 -5.21019 0.764609 0
M  V30 8976 H 870.739 -3.65897 0.944868 0
M  V30 8977 H 871.052 -7.30167 2.53133 0
M  V30 8978 H 869.397 -6.56886 2.26992 0
M  V30 8979 H 872.588 -4.51052 1.25178 0
M  V30 8980 H 872.761 -6.17169 1.97501 0
M  V30 8981 N 866.167 -0.267825 -1.55308 0
M  V30 8982 C 867.395 0.354587 -2.03839 0
M  V30 8983 C 867.81 1.50007 -1.14644 0
M  V30 8984 O 867.167 1.81752 -0.165055 0
M  V30 8985 C 867.218 0.84254 -3.51544 0
M  V30 8986 O 866.939 -0.257318 -4.37344 0
M  V30 8987 C 868.44 1.53351 -4.15931 0
M  V30 8988 H 865.66 0.0818131 -0.665994 0
M  V30 8989 H 868.204 -0.397795 -2.00594 0
M  V30 8990 H 866.359 1.54503 -3.55257 0
M  V30 8991 H 866.773 0.116593 -5.2437 0
M  V30 8992 H 868.247 1.82643 -5.20908 0
M  V30 8993 H 868.724 2.4626 -3.63666 0
M  V30 8994 H 869.33 0.87506 -4.162 0
M  V30 8995 N 867.645 1.57599 0.00500368 0
M  V30 8996 C 868.577 2.04949 1.02609 0
M  V30 8997 C 869.59 0.966507 1.31006 0
M  V30 8998 O 870.779 1.2434 1.2807 0
M  V30 8999 C 867.879 2.43023 2.36206 0
M  V30 9000 C 867.052 3.73993 2.26821 0
M  V30 9001 C 866.111 3.9899 3.43065 0
M  V30 9002 O 865.137 4.69725 3.21477 0
M  V30 9003 N 866.339 3.46496 4.65748 0
M  V30 9004 H 869.104 2.93167 0.622336 0
M  V30 9005 H 866.665 1.60752 0.192488 0
M  V30 9006 H 868.657 2.56863 3.12735 0
M  V30 9007 H 867.227 1.60349 2.68341 0
M  V30 9008 H 866.447 3.70277 1.35235 0
M  V30 9009 H 867.735 4.59865 2.17719 0
M  V30 9010 H 867.133 2.89206 4.86186 0
M  V30 9011 H 865.69 3.65675 5.3956 0
M  V30 9012 N 869.123 -0.277682 1.55134 0
M  V30 9013 C 870.07 -1.34313 1.87693 0
M  V30 9014 C 871.04 -1.49298 0.727973 0
M  V30 9015 O 872.225 -1.6378 0.978807 0
M  V30 9016 C 869.365 -2.69922 2.15026 0
M  V30 9017 C 868.478 -2.63197 3.42565 0
M  V30 9018 C 867.613 -3.90955 3.59622 0
M  V30 9019 C 866.652 -3.78722 4.8087 0
M  V30 9020 N 865.789 -4.98303 4.94609 0
M  V30 9021 H 870.629 -1.05847 2.78569 0
M  V30 9022 H 868.166 -0.511469 1.37922 0
M  V30 9023 H 870.124 -3.48817 2.28872 0
M  V30 9024 H 868.754 -2.966 1.2739 0
M  V30 9025 H 867.806 -1.76038 3.37216 0
M  V30 9026 H 869.118 -2.50056 4.31594 0
M  V30 9027 H 868.272 -4.78291 3.7326 0
M  V30 9028 H 867.011 -4.06957 2.6877 0
M  V30 9029 H 866.016 -2.89769 4.67241 0
M  V30 9030 H 867.241 -3.64242 5.73153 0
M  V30 9031 H 865.187 -5.14725 4.06687 0
M  V30 9032 H 865.104 -4.87675 5.77676 0
M  V30 9033 H 866.372 -5.87225 5.12628 0
M  V30 9034 N 870.601 -1.47988 -0.541979 0
M  V30 9035 C 871.847 -1.55623 -1.30036 0
M  V30 9036 C 872.18 -0.224254 -1.92901 0
M  V30 9037 O 871.455 0.768629 -1.78668 0
M  V30 9038 C 871.738 -2.68562 -2.39888 0
M  V30 9039 C 871.591 -4.11426 -1.81792 0
M  V30 9040 C 872.91 -2.77325 -3.41729 0
M  V30 9041 H 870.029 -0.566498 -0.471433 0
M  V30 9042 H 872.671 -1.8011 -0.604998 0
M  V30 9043 H 870.821 -2.47814 -2.992 0
M  V30 9044 H 872.493 -4.43581 -1.26624 0
M  V30 9045 H 870.736 -4.18989 -1.12386 0
M  V30 9046 H 871.407 -4.8625 -2.61276 0
M  V30 9047 H 873.883 -2.96085 -2.92357 0
M  V30 9048 H 872.759 -3.58097 -4.16002 0
M  V30 9049 H 873.02 -1.84995 -4.01534 0
M  V30 9050 N 872.079 0.78992 -1.36375 0
M  V30 9051 C 873.009 1.91683 -1.33341 0
M  V30 9052 C 873.99 1.68861 -0.204965 0
M  V30 9053 O 875.175 1.89982 -0.402531 0
M  V30 9054 C 872.305 3.28696 -1.12143 0
M  V30 9055 C 871.259 3.66041 -2.21806 0
M  V30 9056 C 870.585 5.01399 -1.85751 0
M  V30 9057 C 871.885 3.74677 -3.63888 0
M  V30 9058 H 873.579 1.94478 -2.27637 0
M  V30 9059 H 871.125 0.934271 -1.09578 0
M  V30 9060 H 873.078 4.07151 -1.08656 0
M  V30 9061 H 871.802 3.26287 -0.142974 0
M  V30 9062 H 870.461 2.89883 -2.24418 0
M  V30 9063 H 870.109 4.9551 -0.864817 0
M  V30 9064 H 869.809 5.27355 -2.59173 0
M  V30 9065 H 871.333 5.82274 -1.83819 0
M  V30 9066 H 872.747 4.43324 -3.63506 0
M  V30 9067 H 871.144 4.12118 -4.3621 0
M  V30 9068 H 872.214 2.75795 -3.9883 0
M  V30 9069 N 873.557 1.20646 1.01402 0
M  V30 9070 C 874.505 0.954493 2.12114 0
M  V30 9071 C 875.499 -0.0950737 1.69133 0
M  V30 9072 O 876.705 0.0555153 1.79914 0
M  V30 9073 H 873.08 0.29135 0.693267 0
M  V30 9074 H 875.051 1.89447 2.30548 0
M  V30 9075 C 873.8 0.525944 3.43699 0
M  V30 9076 H 873.123 1.32516 3.772 0
M  V30 9077 H 874.563 0.388883 4.22213 0
M  V30 9078 C 873.022 -0.761997 3.28169 0
M  V30 9079 O 873.552 -1.81979 3.58115 0
M  V30 9080 N 871.758 -0.725017 2.8141 0
M  V30 9081 H 871.305 0.13607 2.5724 0
M  V30 9082 H 871.263 -1.5871 2.71401 0
M  V30 9083 N 875.035 -1.20752 1.01276 0
M  V30 9084 C 875.945 -2.27079 0.589277 0
M  V30 9085 C 876.961 -1.6999 -0.371389 0
M  V30 9086 O 878.137 -2.00044 -0.233294 0
M  V30 9087 C 875.202 -3.4663 -0.0696715 0
M  V30 9088 C 874.263 -4.18962 0.936454 0
M  V30 9089 C 873.496 -5.32806 0.308856 0
M  V30 9090 O 873.719 -5.63376 -0.8924 0
M  V30 9091 O 872.653 -5.93131 1.02367 0
M  V30 9092 H 876.479 -2.6551 1.47438 0
M  V30 9093 H 874.064 -1.27297 0.782045 0
M  V30 9094 H 875.946 -4.19119 -0.437873 0
M  V30 9095 H 874.621 -3.10082 -0.929029 0
M  V30 9096 H 873.528 -3.48661 1.35595 0
M  V30 9097 H 874.861 -4.59441 1.76565 0
M  V30 9098 N 876.513 -0.788492 -1.36457 0
M  V30 9099 C 877.759 -0.360995 -1.99561 0
M  V30 9100 C 878.092 1.06433 -1.62437 0
M  V30 9101 O 877.367 1.7352 -0.878705 0
M  V30 9102 C 877.65 -0.523735 -3.56271 0
M  V30 9103 C 877.503 -1.99268 -4.03252 0
M  V30 9104 C 878.822 0.0617908 -4.40057 0
M  V30 9105 H 875.941 -0.13264 -0.724966 0
M  V30 9106 H 878.583 -0.994659 -1.61884 0
M  V30 9107 H 876.733 0.0156979 -3.88497 0
M  V30 9108 H 878.405 -2.59311 -3.81518 0
M  V30 9109 H 876.648 -2.49561 -3.54826 0
M  V30 9110 H 877.319 -2.05752 -5.12221 0
M  V30 9111 H 879.795 -0.398674 -4.14186 0
M  V30 9112 H 878.671 -0.0821089 -5.48839 0
M  V30 9113 H 878.932 1.15381 -4.26778 0
M  V30 9114 N 877.991 1.48044 -0.54043 0
M  V30 9115 C 879.219 2.06895 -0.0145153 0
M  V30 9116 C 879.634 1.39552 1.27164 0
M  V30 9117 O 878.991 0.486454 1.75897 0
M  V30 9118 C 879.042 3.60934 0.202278 0
M  V30 9119 O 878.763 4.25749 -1.03293 0
M  V30 9120 C 880.264 4.36607 0.767387 0
M  V30 9121 H 877.484 0.66991 -0.0382368 0
M  V30 9122 H 880.028 1.90288 -0.749057 0
M  V30 9123 H 878.183 3.77111 0.886897 0
M  V30 9124 H 878.597 5.18048 -0.820167 0
M  V30 9125 H 880.071 5.45126 0.86845 0
M  V30 9126 H 880.548 4.01745 1.77477 0
M  V30 9127 H 881.154 4.25133 0.119002 0
M  V30 9128 N 879.47 0.276058 1.55163 0
M  V30 9129 C 880.42 -0.625549 2.19251 0
M  V30 9130 C 881.404 -1.11769 1.15744 0
M  V30 9131 O 882.596 -1.0626 1.41555 0
M  V30 9132 C 879.725 -1.80879 2.91784 0
M  V30 9133 C 878.811 -1.33379 4.0258 0
M  V30 9134 N 879.202 -0.575002 5.02521 0
M  V30 9135 C 877.5 -1.61666 4.15668 0
M  V30 9136 C 878.201 -0.325164 5.8079 0
M  V30 9137 N 877.177 -0.897851 5.36134 0
M  V30 9138 H 880.979 -0.0379943 2.93875 0
M  V30 9139 H 878.493 0.079661 1.62205 0
M  V30 9140 H 880.49 -2.466 3.36146 0
M  V30 9141 H 879.15 -2.40028 2.1867 0
M  V30 9142 H 880.161 -0.222256 5.17423 0
M  V30 9143 H 876.838 -2.21745 3.53745 0
M  V30 9144 H 878.228 0.282598 6.71305 0
M  V30 9145 N 880.948 -1.576 0.00335426 0
M  V30 9146 C 882.178 -1.94713 -0.690682 0
M  V30 9147 C 882.586 -0.876915 -1.67651 0
M  V30 9148 O 881.929 0.152434 -1.83066 0
M  V30 9149 C 881.991 -3.27833 -1.47532 0
M  V30 9150 C 881.655 -4.52344 -0.650704 0
M  V30 9151 C 882.652 -5.19862 0.0630537 0
M  V30 9152 C 880.337 -4.98755 -0.595687 0
M  V30 9153 C 882.331 -6.32093 0.820779 0
M  V30 9154 C 880.018 -6.10875 0.165761 0
M  V30 9155 C 881.016 -6.77401 0.872724 0
M  V30 9156 O 880.704 -7.87372 1.62174 0
M  V30 9157 H 880.436 -0.646627 -0.197104 0
M  V30 9158 H 882.99 -2.05335 0.0516082 0
M  V30 9159 H 881.22 -3.13628 -2.26217 0
M  V30 9160 H 882.909 -3.50034 -2.05501 0
M  V30 9161 H 883.675 -4.84991 0.0297223 0
M  V30 9162 H 879.554 -4.46797 -1.13549 0
M  V30 9163 H 883.098 -6.83953 1.37312 0
M  V30 9164 H 878.995 -6.45187 0.200901 0
M  V30 9165 H 879.763 -8.03905 1.5388 0
M  V30 9166 N 882.426 0.269451 -1.5528 0
M  V30 9167 C 883.656 1.01724 -1.79821 0
M  V30 9168 C 884.064 1.80298 -0.573532 0
M  V30 9169 O 883.407 1.77666 0.466963 0
M  V30 9170 C 883.469 2.02043 -2.97353 0
M  V30 9171 C 883.133 1.42375 -4.34256 0
M  V30 9172 C 884.13 0.837611 -5.13108 0
M  V30 9173 C 881.815 1.44988 -4.8092 0
M  V30 9174 C 883.809 0.285557 -6.3676 0
M  V30 9175 C 881.496 0.893969 -6.04526 0
M  V30 9176 C 882.494 0.312809 -6.82283 0
M  V30 9177 O 882.182 -0.234582 -8.03558 0
M  V30 9178 H 881.914 0.30604 -0.602757 0
M  V30 9179 H 884.468 0.30454 -2.0313 0
M  V30 9180 H 882.698 2.77082 -2.69745 0
M  V30 9181 H 884.387 2.6298 -3.09187 0
M  V30 9182 H 885.153 0.81009 -4.78187 0
M  V30 9183 H 881.032 1.89162 -4.20403 0
M  V30 9184 H 884.576 -0.168696 -6.97396 0
M  V30 9185 H 880.473 0.918742 -6.38928 0
M  V30 9186 H 881.241 -0.124282 -8.18406 0
M  V30 9187 N 883.904 1.48273 0.534124 0
M  V30 9188 C 884.834 1.6538 1.64839 0
M  V30 9189 C 885.815 0.502741 1.62501 0
M  V30 9190 O 887 0.734799 1.79762 0
M  V30 9191 C 884.13 1.68949 3.03436 0
M  V30 9192 C 883.084 2.83513 3.20631 0
M  V30 9193 C 882.41 2.72169 4.60248 0
M  V30 9194 C 883.71 4.24858 3.03797 0
M  V30 9195 H 885.404 2.58663 1.50777 0
M  V30 9196 H 882.95 1.24479 0.723937 0
M  V30 9197 H 884.903 1.79505 3.81256 0
M  V30 9198 H 883.627 0.722415 3.1851 0
M  V30 9199 H 882.286 2.72505 2.45227 0
M  V30 9200 H 881.934 1.7344 4.72152 0
M  V30 9201 H 881.634 3.49042 4.72698 0
M  V30 9202 H 883.158 2.84687 5.40172 0
M  V30 9203 H 884.572 4.36721 3.71413 0
M  V30 9204 H 882.969 5.02697 3.27743 0
M  V30 9205 H 884.039 4.41611 2.0027 0
M  V30 9206 N 885.382 -0.782676 1.36792 0
M  V30 9207 C 886.61 -1.57162 1.34565 0
M  V30 9208 C 887.025 -1.88664 -0.0715501 0
M  V30 9209 O 886.382 -1.50633 -1.03033 0
M  V30 9210 C 886.433 -2.88854 2.1736 0
M  V30 9211 O 886.154 -2.58707 3.53557 0
M  V30 9212 C 887.655 -3.83132 2.2299 0
M  V30 9213 H 884.875 -0.487245 0.461338 0
M  V30 9214 H 887.419 -0.970905 1.79982 0
M  V30 9215 H 885.574 -3.45377 1.7548 0
M  V30 9216 H 885.988 -3.42961 3.96835 0
M  V30 9217 H 887.462 -4.72575 2.85266 0
M  V30 9218 H 887.939 -4.21472 1.23524 0
M  V30 9219 H 888.545 -3.32541 2.65135 0
M  V30 9220 N 886.86 -1.21182 -1.00761 0
M  V30 9221 C 887.807 -0.968741 -2.09485 0
M  V30 9222 C 888.777 0.104325 -1.65772 0
M  V30 9223 O 889.962 -0.0422587 -1.90753 0
M  V30 9224 C 887.102 -0.536686 -3.40901 0
M  V30 9225 C 886.215 -1.6789 -3.98041 0
M  V30 9226 C 885.35 -1.19627 -5.17555 0
M  V30 9227 C 884.389 -2.31099 -5.66798 0
M  V30 9228 N 883.526 -1.83988 -6.77564 0
M  V30 9229 H 888.366 -1.89952 -2.29613 0
M  V30 9230 H 885.903 -0.946688 -1.12589 0
M  V30 9231 H 887.861 -0.26745 -4.16342 0
M  V30 9232 H 886.491 0.357092 -3.20819 0
M  V30 9233 H 885.543 -2.06284 -3.19611 0
M  V30 9234 H 886.855 -2.51794 -4.30582 0
M  V30 9235 H 886.009 -0.883539 -6.00232 0
M  V30 9236 H 884.748 -0.327244 -4.86601 0
M  V30 9237 H 883.753 -2.63178 -4.82719 0
M  V30 9238 H 884.978 -3.18493 -5.99782 0
M  V30 9239 H 882.924 -0.994257 -6.48422 0
M  V30 9240 H 882.841 -2.61466 -7.09346 0
M  V30 9241 H 884.109 -1.55741 -7.63783 0
M  V30 9242 N 888.338 1.20213 -1.01915 0
M  V30 9243 C 889.248 2.26763 -0.601311 0
M  V30 9244 C 890.264 1.70185 0.362369 0
M  V30 9245 O 891.44 2.00165 0.222682 0
M  V30 9246 C 888.505 3.46662 0.0512879 0
M  V30 9247 C 887.566 4.18459 -0.958659 0
M  V30 9248 C 886.799 5.32634 -0.337107 0
M  V30 9249 O 887.022 5.63841 0.86251 0
M  V30 9250 O 885.956 5.9258 -1.05511 0
M  V30 9251 H 889.782 2.64725 -1.48844 0
M  V30 9252 H 887.367 1.2688 -0.788784 0
M  V30 9253 H 889.249 4.19345 0.41564 0
M  V30 9254 H 887.924 3.1057 0.912572 0
M  V30 9255 H 886.831 3.47937 -1.37442 0
M  V30 9256 H 888.164 4.58498 -1.78999 0
M  V30 9257 N 889.816 0.795718 1.36037 0
M  V30 9258 C 890.763 0.196548 2.29962 0
M  V30 9259 C 891.733 -0.663213 1.52285 0
M  V30 9260 O 892.918 -0.610574 1.80767 0
M  V30 9261 C 890.058 -0.657639 3.38776 0
M  V30 9262 C 889.171 0.221358 4.31433 0
M  V30 9263 C 888.306 -0.6398 5.27333 0
M  V30 9264 C 887.345 0.240265 6.11628 0
M  V30 9265 N 886.482 -0.580237 6.99698 0
M  V30 9266 H 891.322 1.00295 2.80615 0
M  V30 9267 H 888.859 0.506147 1.38118 0
M  V30 9268 H 890.817 -1.16793 4.00519 0
M  V30 9269 H 889.447 -1.42941 2.89426 0
M  V30 9270 H 888.499 0.84967 3.70789 0
M  V30 9271 H 889.811 0.899195 4.90628 0
M  V30 9272 H 888.965 -1.21566 5.94396 0
M  V30 9273 H 887.704 -1.35124 4.68607 0
M  V30 9274 H 886.709 0.828474 5.43522 0
M  V30 9275 H 887.934 0.949403 6.72431 0
M  V30 9276 H 885.88 -1.27585 6.43473 0
M  V30 9277 H 885.797 0.0397853 7.5599 0
M  V30 9278 H 887.065 -1.13972 7.71123 0
M  V30 9279 N 891.294 -1.47756 0.548274 0
M  V30 9280 C 892.242 -2.3158 -0.217584 0
M  V30 9281 C 893.236 -1.42372 -0.917957 0
M  V30 9282 O 894.442 -1.59184 -0.840259 0
M  V30 9283 H 890.817 -0.74671 -0.0890388 0
M  V30 9284 H 892.788 -2.94032 0.508719 0
M  V30 9285 C 891.537 -3.24834 -1.24008 0
M  V30 9286 H 890.86 -3.93435 -0.710572 0
M  V30 9287 H 892.3 -3.86336 -1.74701 0
M  V30 9288 C 890.759 -2.47724 -2.2833 0
M  V30 9289 O 891.289 -2.21522 -3.35098 0
M  V30 9290 N 889.495 -2.08891 -2.02022 0
M  V30 9291 H 889.042 -2.30401 -1.1521 0
M  V30 9292 H 889 -1.57613 -2.7204 0
M  V30 9293 N 892.772 -0.284283 -1.55015 0
M  V30 9294 C 893.72 0.615091 -2.2432 0
M  V30 9295 C 894.714 1.15051 -1.24337 0
M  V30 9296 O 895.92 1.10308 -1.4224 0
M  V30 9297 H 892.295 0.216927 -0.720033 0
M  V30 9298 H 894.266 0.00783216 -2.98399 0
M  V30 9299 C 893.015 1.78355 -2.98471 0
M  V30 9300 H 892.338 1.38076 -3.752 0
M  V30 9301 H 893.778 2.38927 -3.50271 0
M  V30 9302 C 892.237 2.67757 -2.04469 0
M  V30 9303 O 892.767 3.6838 -1.60185 0
M  V30 9304 N 890.973 2.35125 -1.70776 0
M  V30 9305 H 890.52 1.53346 -2.06985 0
M  V30 9306 H 890.478 2.95212 -1.08153 0
M  V30 9307 N 894.251 1.57596 -0.0117121 0
M  V30 9308 C 895.497 1.91355 0.671661 0
M  V30 9309 C 895.83 0.886818 1.72769 0
M  V30 9310 O 895.105 -0.0928813 1.94278 0
M  V30 9311 C 895.388 3.35657 1.30409 0
M  V30 9312 C 895.241 4.49055 0.2588 0
M  V30 9313 C 896.56 3.79595 2.22701 0
M  V30 9314 H 893.679 0.695893 0.242698 0
M  V30 9315 H 896.321 1.89887 -0.0654071 0
M  V30 9316 H 894.471 3.37038 1.9323 0
M  V30 9317 H 896.143 4.59809 -0.370631 0
M  V30 9318 H 894.386 4.31785 -0.417672 0
M  V30 9319 H 895.057 5.4701 0.740578 0
M  V30 9320 H 897.533 3.7984 1.69885 0
M  V30 9321 H 896.409 4.81292 2.63912 0
M  V30 9322 H 896.67 3.14118 3.11098 0
M  V30 9323 N 895.729 -0.261212 1.5542 0
M  V30 9324 C 896.639 -1.34493 1.92221 0
M  V30 9325 C 897.655 -1.53421 0.82086 0
M  V30 9326 O 898.831 -1.6732 1.12099 0
M  V30 9327 C 895.896 -2.68209 2.19692 0
M  V30 9328 C 894.957 -2.57927 3.43179 0
M  V30 9329 C 894.19 -3.85266 3.69331 0
M  V30 9330 O 894.413 -4.86493 2.97793 0
M  V30 9331 O 893.347 -3.8476 4.62865 0
M  V30 9332 H 897.173 -1.06278 2.84497 0
M  V30 9333 H 894.758 -0.460752 1.42118 0
M  V30 9334 H 896.64 -3.47252 2.38734 0
M  V30 9335 H 895.315 -2.96186 1.30597 0
M  V30 9336 H 894.222 -1.77219 3.2946 0
M  V30 9337 H 895.555 -2.34898 4.32532 0
M  V30 9338 N 897.207 -1.48554 -0.526253 0
M  V30 9339 C 898.432 -1.60686 -1.31129 0
M  V30 9340 C 898.857 -0.268701 -1.86171 0
M  V30 9341 O 898.215 0.760167 -1.64594 0
M  V30 9342 C 898.263 -2.65938 -2.43536 0
M  V30 9343 O 897.367 -2.23356 -3.46678 0
M  V30 9344 H 896.708 -0.538691 -0.388211 0
M  V30 9345 H 899.238 -1.94567 -0.632826 0
M  V30 9346 H 899.248 -2.87327 -2.89668 0
M  V30 9347 H 897.923 -3.63085 -2.02835 0
M  V30 9348 H 896.5 -2.12196 -3.06639 0
M  V30 9349 N 898.685 0.775411 -1.37205 0
M  V30 9350 C 899.931 1.53611 -1.32407 0
M  V30 9351 C 900.264 1.9398 0.0924103 0
M  V30 9352 O 899.539 1.63791 1.04893 0
M  V30 9353 C 899.822 2.80367 -2.25979 0
M  V30 9354 C 899.675 2.46275 -3.76389 0
M  V30 9355 C 900.994 3.82277 -2.18064 0
M  V30 9356 H 898.113 0.557278 -0.482297 0
M  V30 9357 H 900.755 0.889826 -1.67875 0
M  V30 9358 H 898.905 3.35515 -1.95862 0
M  V30 9359 H 900.577 1.9707 -4.17087 0
M  V30 9360 H 898.82 1.79023 -3.95137 0
M  V30 9361 H 899.491 3.36868 -4.37291 0
M  V30 9362 H 901.967 3.36613 -2.44604 0
M  V30 9363 H 900.843 4.68696 -2.85684 0
M  V30 9364 H 901.104 4.26272 -1.17239 0
M  V30 9365 N 900.163 1.21714 1.00117 0
M  V30 9366 C 901.41 1.0367 1.73951 0
M  V30 9367 C 901.738 -0.429289 1.89703 0
M  V30 9368 O 900.993 -1.33475 1.43119 0
M  V30 9369 C 901.292 1.68345 3.15269 0
M  V30 9370 C 900.958 3.18214 3.19454 0
M  V30 9371 C 899.62 3.59109 3.20303 0
M  V30 9372 C 901.972 4.14179 3.16394 0
M  V30 9373 C 899.3 4.94467 3.15783 0
M  V30 9374 C 901.652 5.49502 3.13416 0
M  V30 9375 C 900.316 5.8979 3.12577 0
M  V30 9376 H 899.586 0.379355 0.63653 0
M  V30 9377 H 902.233 1.51361 1.17312 0
M  V30 9378 H 900.538 1.12957 3.75164 0
M  V30 9379 H 902.235 1.51882 3.71124 0
M  V30 9380 H 898.825 2.85646 3.19538 0
M  V30 9381 H 903.009 3.83607 3.14895 0
M  V30 9382 H 898.265 5.24923 3.13473 0
M  V30 9383 H 902.439 6.23595 3.10003 0
M  V30 9384 H 900.066 6.94643 3.08829 0
M  V30 9385 N 901.641 -1.19671 1.02551 0
M  V30 9386 C 902.604 -2.20987 0.608055 0
M  V30 9387 C 903.604 -1.5745 -0.326534 0
M  V30 9388 O 904.794 -1.73827 -0.114003 0
M  V30 9389 C 901.926 -3.4072 -0.11074 0
M  V30 9390 H 903.119 -2.59434 1.50446 0
M  V30 9391 H 900.672 -1.3329 0.816307 0
M  V30 9392 H 901.407 -3.07787 -1.02165 0
M  V30 9393 H 901.192 -3.88069 0.560772 0
M  V30 9394 H 902.682 -4.15776 -0.389848 0
M  V30 9395 N 903.119 -0.802921 -1.35613 0
M  V30 9396 C 904.365 -0.382141 -1.99167 0
M  V30 9397 C 904.698 1.04704 -1.63556 0
M  V30 9398 O 903.973 1.72578 -0.89706 0
M  V30 9399 C 904.256 -0.561493 -3.55695 0
M  V30 9400 C 904.109 -2.03534 -4.01116 0
M  V30 9401 C 905.428 0.0151135 -4.40097 0
M  V30 9402 H 902.547 -0.140322 -0.723518 0
M  V30 9403 H 905.189 -1.01177 -1.6082 0
M  V30 9404 H 903.339 -0.0255083 -3.88492 0
M  V30 9405 H 905.011 -2.63343 -3.78746 0
M  V30 9406 H 903.254 -2.5331 -3.52159 0
M  V30 9407 H 903.925 -2.11173 -5.1001 0
M  V30 9408 H 906.401 -0.442582 -4.1374 0
M  V30 9409 H 905.277 -0.140316 -5.48721 0
M  V30 9410 H 905.538 1.10848 -4.27978 0
M  V30 9411 N 904.597 1.47463 -0.556102 0
M  V30 9412 C 905.545 2.31692 0.205299 0
M  V30 9413 C 906.539 1.42857 0.910394 0
M  V30 9414 O 907.745 1.59628 0.831806 0
M  V30 9415 H 904.12 0.747172 0.0850775 0
M  V30 9416 H 906.091 2.93758 -0.524305 0
M  V30 9417 C 904.84 3.25487 1.22283 0
M  V30 9418 H 904.163 3.93806 0.689697 0
M  V30 9419 H 905.603 3.87257 1.7265 0
M  V30 9420 C 904.062 2.48931 2.27013 0
M  V30 9421 O 904.592 2.23296 3.33919 0
M  V30 9422 N 902.798 2.0996 2.00911 0
M  V30 9423 H 902.345 2.31008 1.13986 0
M  V30 9424 H 902.303 1.59053 2.712 0
M  V30 9425 N 906.075 0.2925 1.54862 0
M  V30 9426 C 907.323 -0.318633 1.99572 0
M  V30 9427 C 907.644 -1.55062 1.1824 0
M  V30 9428 O 906.914 -1.93943 0.276226 0
M  V30 9429 H 905.494 -0.120722 0.737181 0
M  V30 9430 H 908.156 0.401862 1.90712 0
M  V30 9431 H 907.252 -0.596542 3.06346 0
M  V30 9432 N 907.553 -1.57587 0.0200696 0
M  V30 9433 C 908.8 -1.91424 -0.660525 0
M  V30 9434 C 909.128 -0.895626 -1.72652 0
M  V30 9435 O 908.383 0.096771 -1.95461 0
M  V30 9436 C 908.682 -3.32002 -1.32323 0
M  V30 9437 C 908.348 -4.49223 -0.388487 0
M  V30 9438 C 907.01 -4.81021 -0.131184 0
M  V30 9439 C 909.362 -5.20581 0.253906 0
M  V30 9440 C 906.69 -5.81539 0.776471 0
M  V30 9441 C 909.042 -6.22067 1.14956 0
M  V30 9442 C 907.706 -6.52311 1.41584 0
M  V30 9443 H 906.976 -0.700472 -0.241703 0
M  V30 9444 H 909.623 -1.91333 0.0798991 0
M  V30 9445 H 907.928 -3.28312 -2.13819 0
M  V30 9446 H 909.625 -3.5545 -1.85623 0
M  V30 9447 H 906.215 -4.24391 -0.599207 0
M  V30 9448 H 910.399 -4.96253 0.068164 0
M  V30 9449 H 905.655 -6.03322 0.990575 0
M  V30 9450 H 909.829 -6.76484 1.65357 0
M  V30 9451 H 907.456 -7.30017 2.12083 0
M  V30 9452 N 909.032 0.252966 -1.55557 0
M  V30 9453 C 910.28 0.979912 -1.76754 0
M  V30 9454 C 910.601 1.86083 -0.582944 0
M  V30 9455 O 909.871 1.91742 0.401497 0
M  V30 9456 H 908.451 0.364805 -0.651864 0
M  V30 9457 H 911.113 0.272372 -1.92987 0
M  V30 9458 H 910.209 1.60518 -2.67657 0
M  V30 9459 N 910.51 1.48831 0.518367 0
M  V30 9460 C 911.757 1.57439 1.27355 0
M  V30 9461 C 912.085 0.25338 1.92843 0
M  V30 9462 O 911.34 -0.757323 1.80452 0
M  V30 9463 C 911.639 2.67003 2.3758 0
M  V30 9464 C 911.305 4.09069 1.89667 0
M  V30 9465 C 909.967 4.47733 1.76319 0
M  V30 9466 C 912.319 4.98052 1.53603 0
M  V30 9467 C 909.647 5.73173 1.25258 0
M  V30 9468 C 911.999 6.23992 1.04001 0
M  V30 9469 C 910.663 6.61503 0.892784 0
M  V30 9470 H 909.933 0.57611 0.466023 0
M  V30 9471 H 912.58 1.82595 0.577166 0
M  V30 9472 H 910.885 2.35751 3.12936 0
M  V30 9473 H 912.582 2.70876 2.95681 0
M  V30 9474 H 909.172 3.7854 2.01011 0
M  V30 9475 H 913.356 4.68849 1.62771 0
M  V30 9476 H 908.612 6.0095 1.12557 0
M  V30 9477 H 912.786 6.92331 0.751706 0
M  V30 9478 H 910.413 7.58587 0.494939 0
M  V30 9479 N 911.988 -0.768124 1.37614 0
M  V30 9480 C 912.951 -1.86314 1.3349 0
M  V30 9481 C 913.951 -1.59025 0.23823 0
M  V30 9482 O 915.141 -1.6704 0.494288 0
M  V30 9483 C 912.273 -3.23519 1.07462 0
M  V30 9484 H 913.466 -1.91382 2.30896 0
M  V30 9485 H 911.019 -0.968267 1.22696 0
M  V30 9486 H 911.754 -3.24127 0.106028 0
M  V30 9487 H 911.539 -3.44719 1.86846 0
M  V30 9488 H 913.029 -4.03597 1.07236 0
M  V30 9489 N 913.466 -1.22244 -0.994698 0
M  V30 9490 C 914.714 -1.04384 -1.73056 0
M  V30 9491 C 915.035 0.422204 -1.90374 0
M  V30 9492 O 914.305 1.30383 -1.46209 0
M  V30 9493 H 912.885 -0.383263 -0.641185 0
M  V30 9494 H 915.547 -1.53725 -1.1981 0
M  V30 9495 H 914.643 -1.52021 -2.72573 0
M  V30 9496 N 914.944 1.19125 -1.03184 0
M  V30 9497 C 916.36 1.40909 -0.749447 0
M  V30 9498 C 916.56 1.9022 0.664729 0
M  V30 9499 O 915.616 2.08085 1.43028 0
M  V30 9500 C 916.929 2.41761 -1.78807 0
M  V30 9501 C 918.477 2.55503 -1.80796 0
M  V30 9502 C 918.952 3.59612 -2.83626 0
M  V30 9503 N 920.443 3.6711 -2.82461 0
M  V30 9504 C 921.178 4.47366 -3.5868 0
M  V30 9505 N 920.674 5.31302 -4.44623 0
M  V30 9506 N 922.467 4.42044 -3.47208 0
M  V30 9507 H 914.618 0.854399 -1.94458 0
M  V30 9508 H 916.881 0.437753 -0.840878 0
M  V30 9509 H 916.587 2.12559 -2.80199 0
M  V30 9510 H 916.461 3.40981 -1.61283 0
M  V30 9511 H 918.848 2.84027 -0.800803 0
M  V30 9512 H 918.929 1.56427 -2.02396 0
M  V30 9513 H 918.573 3.3183 -3.84515 0
M  V30 9514 H 918.503 4.58345 -2.59283 0
M  V30 9515 H 920.994 3.07166 -2.2013 0
M  V30 9516 H 921.307 5.89667 -4.99512 0
M  V30 9517 H 919.652 5.30753 -4.48694 0
M  V30 9518 H 922.843 3.75513 -2.79477 0
M  V30 9519 H 923.016 5.0435 -4.06859 0
M  V30 9520 N 916.422 0.810101 1.35185 0
M  V30 9521 C 917.67 0.391343 1.98275 0
M  V30 9522 C 917.991 -1.04592 1.64577 0
M  V30 9523 O 917.261 -1.72417 0.93001 0
M  V30 9524 H 915.841 0.141715 0.733434 0
M  V30 9525 H 918.503 1.03672 1.6504 0
M  V30 9526 H 917.599 0.49991 3.0807 0
M  V30 9527 N 917.9 -1.47166 0.563914 0
M  V30 9528 C 918.832 -2.28165 -0.217583 0
M  V30 9529 C 919.845 -1.37405 -0.873134 0
M  V30 9530 O 921.034 -1.6217 -0.745857 0
M  V30 9531 C 918.134 -3.11873 -1.32621 0
M  V30 9532 C 917.307 -4.30637 -0.766177 0
M  V30 9533 C 916.366 -4.95889 -1.76014 0
M  V30 9534 O 915.392 -5.54071 -1.3036 0
M  V30 9535 N 916.594 -4.91191 -3.09373 0
M  V30 9536 H 919.359 -2.95876 0.477256 0
M  V30 9537 H 916.92 -1.5687 0.40043 0
M  V30 9538 H 918.912 -3.52392 -1.99003 0
M  V30 9539 H 917.482 -2.46361 -1.92419 0
M  V30 9540 H 916.702 -3.94129 0.0745998 0
M  V30 9541 H 917.99 -5.07442 -0.371472 0
M  V30 9542 H 917.388 -4.45133 -3.49104 0
M  V30 9543 H 915.945 -5.35708 -3.71295 0
M  V30 9544 N 919.378 -0.300708 -1.54705 0
M  V30 9545 C 920.326 0.591264 -2.2496 0
M  V30 9546 C 921.32 1.13725 -1.2555 0
M  V30 9547 O 922.526 1.08793 -1.43402 0
M  V30 9548 H 918.901 0.209278 -0.722293 0
M  V30 9549 H 920.872 -0.0238175 -2.9839 0
M  V30 9550 C 919.621 1.75179 -3.00346 0
M  V30 9551 H 918.944 1.34089 -3.76643 0
M  V30 9552 H 920.384 2.35198 -3.52786 0
M  V30 9553 C 918.843 2.65574 -2.07298 0
M  V30 9554 O 919.373 3.6666 -1.64083 0
M  V30 9555 N 917.579 2.33301 -1.7326 0
M  V30 9556 H 917.126 1.51142 -2.08599 0
M  V30 9557 H 917.084 2.94049 -1.11278 0
M  V30 9558 N 920.856 1.57574 -0.0284266 0
M  V30 9559 C 922.084 1.96071 0.660575 0
M  V30 9560 C 922.499 0.904881 1.65703 0
M  V30 9561 O 921.856 -0.113379 1.82147 0
M  V30 9562 C 921.907 3.34634 1.36756 0
M  V30 9563 O 921.628 4.36167 0.411041 0
M  V30 9564 C 923.129 3.87758 2.14845 0
M  V30 9565 H 920.349 0.645794 0.182183 0
M  V30 9566 H 922.893 2.04311 -0.0879858 0
M  V30 9567 H 921.048 3.27616 2.06753 0
M  V30 9568 H 921.462 5.16493 0.913 0
M  V30 9569 H 922.936 4.87058 2.59767 0
M  V30 9570 H 923.413 3.21967 2.9872 0
M  V30 9571 H 924.019 3.98043 1.49807 0
M  V30 9572 N 922.334 -0.244713 1.55689 0
M  V30 9573 C 923.582 -0.970525 1.77272 0
M  V30 9574 C 923.903 -1.85771 0.592804 0
M  V30 9575 O 923.173 -1.91952 -0.391323 0
M  V30 9576 H 921.753 -0.361342 0.653789 0
M  V30 9577 H 924.415 -0.262134 1.93129 0
M  V30 9578 H 923.511 -1.59096 2.68505 0
M  V30 9579 N 923.813 -1.49104 -0.510467 0
M  V30 9580 C 925.062 -1.57362 -1.26175 0
M  V30 9581 C 925.375 -0.261218 -1.93848 0
M  V30 9582 O 926.581 -0.222238 -2.70589 0
M  V30 9583 C 925.037 -2.77606 -2.29048 0
M  V30 9584 C 924.645 -4.15567 -1.67357 0
M  V30 9585 C 926.389 -2.95188 -3.05064 0
M  V30 9586 C 924.296 -5.27046 -2.68285 0
M  V30 9587 H 923.226 -0.585887 -0.474608 0
M  V30 9588 H 925.877 -1.75474 -0.536753 0
M  V30 9589 H 924.259 -2.52968 -3.04669 0
M  V30 9590 H 925.433 -4.50304 -0.977924 0
M  V30 9591 H 923.748 -4.03264 -1.03765 0
M  V30 9592 H 926.345 -3.75643 -3.80521 0
M  V30 9593 H 926.688 -2.05385 -3.62108 0
M  V30 9594 H 927.221 -3.19821 -2.36558 0
M  V30 9595 H 923.96 -6.18878 -2.16034 0
M  V30 9596 H 923.48 -4.96774 -3.36118 0
M  V30 9597 H 925.159 -5.55983 -3.30896 0
M  V30 9598 N 925.291 0.760815 -1.38019 0
M  V30 9599 C 926.254 1.85604 -1.34476 0
M  V30 9600 C 927.254 1.58897 -0.24666 0
M  V30 9601 O 928.444 1.66776 -0.50314 0
M  V30 9602 C 925.576 3.22945 -1.09176 0
M  V30 9603 H 926.769 1.90155 -2.31908 0
M  V30 9604 H 924.322 0.961746 -1.23208 0
M  V30 9605 H 925.057 3.24066 -0.123216 0
M  V30 9606 H 924.842 3.43723 -1.88672 0
M  V30 9607 H 926.332 4.03022 -1.09375 0
M  V30 9608 N 926.769 1.22769 0.988202 0
M  V30 9609 C 928.016 1.05509 1.72841 0
M  V30 9610 C 928.344 -0.409145 1.90148 0
M  V30 9611 O 927.599 -1.3195 1.44526 0
M  V30 9612 C 927.898 1.71679 3.13466 0
M  V30 9613 C 927.564 3.21584 3.16061 0
M  V30 9614 C 926.226 3.62486 3.16476 0
M  V30 9615 C 928.578 4.17511 3.11984 0
M  V30 9616 C 925.906 4.97789 3.10521 0
M  V30 9617 C 928.258 5.52796 3.0757 0
M  V30 9618 C 926.922 5.93072 3.06304 0
M  V30 9619 H 926.192 0.386085 0.632471 0
M  V30 9620 H 928.839 1.52596 1.157 0
M  V30 9621 H 927.144 1.1693 3.73945 0
M  V30 9622 H 928.841 1.55809 3.69492 0
M  V30 9623 H 925.431 2.89019 3.1649 0
M  V30 9624 H 929.615 3.86926 3.10809 0
M  V30 9625 H 924.871 5.28218 3.07888 0
M  V30 9626 H 929.045 6.26848 3.03372 0
M  V30 9627 H 926.672 6.97879 3.01444 0
M  V30 9628 N 928.247 -1.18576 1.03814 0
M  V30 9629 C 929.493 -1.88773 0.741132 0
M  V30 9630 C 929.826 -1.79993 -0.729127 0
M  V30 9631 O 929.101 -1.19851 -1.53186 0
M  V30 9632 C 929.384 -3.39352 1.20468 0
M  V30 9633 C 929.237 -3.56955 2.73684 0
M  V30 9634 C 930.556 -4.32901 0.792741 0
M  V30 9635 H 927.675 -0.685482 0.270708 0
M  V30 9636 H 930.317 -1.39523 1.2897 0
M  V30 9637 H 928.467 -3.81427 0.737974 0
M  V30 9638 H 930.139 -3.2399 3.28372 0
M  V30 9639 H 928.382 -2.99696 3.13632 0
M  V30 9640 H 929.053 -4.62598 3.01176 0
M  V30 9641 H 931.529 -3.98592 1.1943 0
M  V30 9642 H 930.405 -5.36828 1.14486 0
M  V30 9643 H 930.666 -4.41052 -0.304295 0
M  V30 9644 N 929.725 -0.817259 -1.34754 0
M  V30 9645 C 930.95 -0.414423 -2.03217 0
M  V30 9646 C 931.375 0.970037 -1.61158 0
M  V30 9647 O 930.733 1.63016 -0.793436 0
M  V30 9648 C 930.781 -0.518087 -3.56859 0
M  V30 9649 O 929.885 0.464314 -4.09778 0
M  V30 9650 H 929.226 -0.171454 -0.641482 0
M  V30 9651 H 931.756 -1.10611 -1.72123 0
M  V30 9652 H 931.766 -0.391779 -4.06115 0
M  V30 9653 H 930.441 -1.52786 -3.86819 0
M  V30 9654 H 929.018 0.297361 -3.71712 0
M  V30 9655 N 931.203 1.46865 -0.571711 0
M  V30 9656 C 932.133 2.3298 0.155795 0
M  V30 9657 C 933.114 1.44678 0.894553 0
M  V30 9658 O 934.299 1.73513 0.872176 0
M  V30 9659 C 931.429 3.26745 1.17708 0
M  V30 9660 C 930.383 4.24401 0.553863 0
M  V30 9661 C 929.709 5.07595 1.68083 0
M  V30 9662 C 931.009 5.19884 -0.501827 0
M  V30 9663 H 932.703 2.94056 -0.563176 0
M  V30 9664 H 930.249 1.41402 -0.27228 0
M  V30 9665 H 932.202 3.85838 1.6943 0
M  V30 9666 H 930.926 2.63753 1.92618 0
M  V30 9667 H 929.585 3.66554 0.057815 0
M  V30 9668 H 929.233 4.40996 2.41933 0
M  V30 9669 H 928.933 5.73722 1.26953 0
M  V30 9670 H 930.457 5.6955 2.20103 0
M  V30 9671 H 931.871 5.73257 -0.0701057 0
M  V30 9672 H 930.268 5.94293 -0.832815 0
M  V30 9673 H 931.338 4.64482 -1.39229 0
M  V30 9674 N 932.681 0.308908 1.54543 0
M  V30 9675 C 933.628 -0.563659 2.23811 0
M  V30 9676 C 934.598 -1.12332 1.22355 0
M  V30 9677 O 935.783 -1.16638 1.50997 0
M  V30 9678 C 932.923 -1.72585 2.98845 0
M  V30 9679 C 932.036 -1.19682 4.1509 0
M  V30 9680 C 931.171 -2.32351 4.77688 0
M  V30 9681 C 930.21 -1.76623 5.86064 0
M  V30 9682 N 929.347 -2.82896 6.42584 0
M  V30 9683 H 934.187 0.0336288 2.97981 0
M  V30 9684 H 931.724 0.0283666 1.47073 0
M  V30 9685 H 933.682 -2.40951 3.40586 0
M  V30 9686 H 932.312 -2.29464 2.27037 0
M  V30 9687 H 931.364 -0.405173 3.78236 0
M  V30 9688 H 932.676 -0.748923 4.93146 0
M  V30 9689 H 931.83 -3.0865 5.22322 0
M  V30 9690 H 930.569 -2.80472 3.98982 0
M  V30 9691 H 929.574 -0.988171 5.40847 0
M  V30 9692 H 930.799 -1.29398 6.66658 0
M  V30 9693 H 928.745 -3.30336 5.66758 0
M  V30 9694 H 928.662 -2.42626 7.16009 0
M  V30 9695 H 929.93 -3.59068 6.91875 0
M  V30 9696 N 934.159 -1.57557 0.0367827 0
M  V30 9697 C 935.436 -1.83427 -0.679261 0
M  V30 9698 C 935.816 -0.922274 -1.89888 0
M  V30 9699 O 935.164 0.02025 -2.28491 0
M  V30 9700 C 935.374 -3.32823 -1.05022 0
M  V30 9701 C 936.722 -3.99486 -1.43861 0
M  V30 9702 O 937.746 -3.37364 -1.14297 0
M  V30 9703 O 936.605 -5.0899 -1.98977 0
M  V30 9704 H 933.699 -0.756581 -0.333936 0
M  V30 9705 H 936.245 -1.69575 0.0650494 0
M  V30 9706 H 935.017 -3.90874 -0.182509 0
M  V30 9707 H 934.64 -3.5181 -1.85244 0
M  V30 9708 N 935.637 0.236453 -1.55816 0
M  V30 9709 C 936.883 0.960127 -1.79313 0
M  V30 9710 C 937.238 1.8256 -0.607406 0
M  V30 9711 O 936.531 1.87398 0.399046 0
M  V30 9712 C 936.725 1.84549 -3.06066 0
M  V30 9713 C 936.554 1.06721 -4.36853 0
M  V30 9714 C 935.324 0.76811 -4.99428 0
M  V30 9715 C 937.522 0.439715 -5.12417 0
M  V30 9716 N 935.504 -0.0331365 -6.13891 0
M  V30 9717 C 936.875 -0.225616 -6.19589 0
M  V30 9718 C 938.93 0.351237 -4.9666 0
M  V30 9719 C 937.633 -0.970943 -7.12717 0
M  V30 9720 C 939.659 -0.380585 -5.90174 0
M  V30 9721 C 939.021 -1.03451 -6.96762 0
M  V30 9722 H 935.12 0.332095 -0.707981 0
M  V30 9723 H 937.704 0.232311 -1.93309 0
M  V30 9724 H 935.875 2.54525 -2.93379 0
M  V30 9725 H 937.607 2.50552 -3.17814 0
M  V30 9726 H 934.362 1.08248 -4.61063 0
M  V30 9727 H 934.786 -0.422159 -6.75682 0
M  V30 9728 H 939.428 0.842469 -4.14321 0
M  V30 9729 H 937.146 -1.47374 -7.94548 0
M  V30 9730 H 940.732 -0.449851 -5.80058 0
M  V30 9731 H 939.612 -1.59175 -7.67876 0
M  V30 9732 N 937.115 1.49373 0.502552 0
M  V30 9733 C 938.078 1.65413 1.58654 0
M  V30 9734 C 939.078 0.526003 1.51953 0
M  V30 9735 O 940.268 0.792421 1.55133 0
M  V30 9736 C 937.4 1.65005 2.98306 0
M  V30 9737 H 938.593 2.62095 1.45762 0
M  V30 9738 H 936.146 1.38381 0.726672 0
M  V30 9739 H 936.881 0.699014 3.16677 0
M  V30 9740 H 936.666 2.46931 3.04578 0
M  V30 9741 H 938.156 1.79477 3.77065 0
M  V30 9742 N 938.594 -0.753485 1.38421 0
M  V30 9743 C 939.871 -1.50318 1.25155 0
M  V30 9744 C 940.251 -2.10588 -0.147003 0
M  V30 9745 O 939.599 -1.97071 -1.15651 0
M  V30 9746 C 939.809 -2.56946 2.36177 0
M  V30 9747 C 941.157 -3.23846 2.74607 0
M  V30 9748 O 942.181 -2.67251 2.3549 0
M  V30 9749 O 941.04 -4.2621 3.42064 0
M  V30 9750 H 938.134 -0.666624 0.48943 0
M  V30 9751 H 940.68 -0.788887 1.50249 0
M  V30 9752 H 939.452 -2.1066 3.29754 0
M  V30 9753 H 939.075 -3.35956 2.12648 0
M  V30 9754 N 940.072 -1.23292 -0.981677 0
M  V30 9755 C 941.488 -0.995295 -1.24764 0
M  V30 9756 C 941.688 0.304379 -1.99188 0
M  V30 9757 O 940.744 1.02414 -2.30798 0
M  V30 9758 C 942.057 -2.20135 -2.04844 0
M  V30 9759 C 943.605 -2.24612 -2.17988 0
M  V30 9760 C 944.08 -3.448 -3.01458 0
M  V30 9761 N 945.571 -3.45031 -3.09044 0
M  V30 9762 C 946.306 -4.34683 -3.7395 0
M  V30 9763 N 945.802 -5.34569 -4.4069 0
M  V30 9764 N 947.595 -4.22429 -3.70823 0
M  V30 9765 H 939.746 -2.06834 -0.483052 0
M  V30 9766 H 942.009 -0.906929 -0.276014 0
M  V30 9767 H 941.715 -3.14446 -1.57532 0
M  V30 9768 H 941.589 -2.21115 -3.05594 0
M  V30 9769 H 943.976 -1.30841 -2.64508 0
M  V30 9770 H 944.057 -2.27664 -1.16631 0
M  V30 9771 H 943.701 -4.38877 -2.55635 0
M  V30 9772 H 943.631 -3.38988 -4.02982 0
M  V30 9773 H 946.122 -2.72759 -2.61555 0
M  V30 9774 H 946.435 -5.99236 -4.87991 0
M  V30 9775 H 944.78 -5.3847 -4.39403 0
M  V30 9776 H 947.971 -3.43639 -3.17851 0
M  V30 9777 H 948.144 -4.92501 -4.21126 0
M  V30 9778 N 941.55 1.18024 -1.04442 0
M  V30 9779 C 942.961 1.69749 -0.777312 0
M  V30 9780 C 943.312 1.83234 0.701399 0
M  V30 9781 O 942.437 1.51452 1.54568 0
M  V30 9782 C 943.032 3.08321 -1.40441 0
M  V30 9783 C 941.591 3.57243 -1.18553 0
M  V30 9784 C 940.738 2.33695 -1.49271 0
M  V30 9785 H 943.689 1.02647 -1.21035 0
M  V30 9786 H 943.71 3.71787 -0.809628 0
M  V30 9787 H 943.222 2.98474 -2.48062 0
M  V30 9788 H 941.323 3.72379 -0.128221 0
M  V30 9789 H 941.436 4.40451 -1.88519 0
M  V30 9790 H 939.8 2.37792 -0.912526 0
M  V30 9791 H 940.583 2.26464 -2.5801 0
M  V30 9792 N 943.028 0.824394 1.34319 0
M  V30 9793 C 944.276 0.41235 1.97849 0
M  V30 9794 C 944.597 -1.02841 1.65677 0
M  V30 9795 O 943.867 -1.71421 0.948245 0
M  V30 9796 H 942.447 0.149486 0.73189 0
M  V30 9797 H 945.109 1.05416 1.63931 0
M  V30 9798 H 944.205 0.532557 3.07523 0
M  V30 9799 N 944.506 -1.46559 0.579492 0
M  V30 9800 C 945.416 -2.34066 -0.15816 0
M  V30 9801 C 946.432 -1.49556 -0.88932 0
M  V30 9802 O 947.608 -1.82434 -0.853226 0
M  V30 9803 C 944.673 -3.26683 -1.161 0
M  V30 9804 C 943.734 -4.27092 -0.434855 0
M  V30 9805 C 942.967 -5.15283 -1.38992 0
M  V30 9806 O 943.19 -5.06345 -2.62623 0
M  V30 9807 O 942.124 -5.95099 -0.902253 0
M  V30 9808 H 945.95 -2.98488 0.560234 0
M  V30 9809 H 943.535 -1.45482 0.339918 0
M  V30 9810 H 945.417 -3.8383 -1.73932 0
M  V30 9811 H 944.092 -2.64862 -1.86091 0
M  V30 9812 H 942.999 -3.73641 0.185224 0
M  V30 9813 H 944.332 -4.9169 0.224031 0
M  V30 9814 N 945.984 -0.3171 -1.54377 0
M  V30 9815 C 946.894 0.560867 -2.27797 0
M  V30 9816 C 947.91 1.13473 -1.31908 0
M  V30 9817 O 949.086 1.15608 -1.64914 0
M  V30 9818 C 946.151 1.70886 -3.0166 0
M  V30 9819 C 945.212 1.16745 -4.13121 0
M  V30 9820 C 944.445 2.26073 -4.83453 0
M  V30 9821 O 944.668 3.46292 -4.53252 0
M  V30 9822 O 943.602 1.91856 -5.70504 0
M  V30 9823 H 947.428 -0.035193 -3.0368 0
M  V30 9824 H 945.013 -0.0830062 -1.49169 0
M  V30 9825 H 946.895 2.37736 -3.47936 0
M  V30 9826 H 945.57 2.29122 -2.28658 0
M  V30 9827 H 944.477 0.464224 -3.71209 0
M  V30 9828 H 945.81 0.630307 -4.88147 0
M  V30 9829 N 947.462 1.57535 -0.0451378 0
M  V30 9830 C 948.41 2.12351 0.949205 0
M  V30 9831 C 949.404 1.05386 1.32628 0
M  V30 9832 O 950.61 1.23802 1.30664 0
M  V30 9833 H 946.985 0.678648 0.323945 0
M  V30 9834 H 948.956 2.94806 0.461718 0
M  V30 9835 C 947.705 2.67862 2.21687 0
M  V30 9836 H 947.028 3.49826 1.93551 0
M  V30 9837 H 948.468 3.09844 2.89435 0
M  V30 9838 C 946.927 1.61353 2.95748 0
M  V30 9839 O 947.457 1.02276 3.88462 0
M  V30 9840 N 945.663 1.33017 2.5837 0
M  V30 9841 H 945.21 1.81246 1.83051 0
M  V30 9842 H 945.168 0.619812 3.0823 0
M  V30 9843 N 948.94 -0.228186 1.55939 0
M  V30 9844 C 949.887 -1.28274 1.91871 0
M  V30 9845 C 950.857 -1.46906 0.775103 0
M  V30 9846 O 952.042 -1.60583 1.03042 0
M  V30 9847 C 949.182 -2.62945 2.23504 0
M  V30 9848 C 948.295 -2.52166 3.50766 0
M  V30 9849 C 947.43 -3.79316 3.71878 0
M  V30 9850 C 946.469 -3.63231 4.92676 0
M  V30 9851 N 945.606 -4.82315 5.10212 0
M  V30 9852 H 950.446 -0.96931 2.81795 0
M  V30 9853 H 947.983 -0.467331 1.39479 0
M  V30 9854 H 949.941 -3.41359 2.39854 0
M  V30 9855 H 948.571 -2.92397 1.36762 0
M  V30 9856 H 947.623 -1.65221 3.42646 0
M  V30 9857 H 948.935 -2.36199 4.39331 0
M  V30 9858 H 948.089 -4.66173 3.88288 0
M  V30 9859 H 946.828 -3.982 2.81581 0
M  V30 9860 H 945.833 -2.74757 4.76223 0
M  V30 9861 H 947.058 -3.45823 5.84451 0
M  V30 9862 H 945.004 -5.01526 4.22856 0
M  V30 9863 H 944.921 -4.6905 5.92898 0
M  V30 9864 H 946.189 -5.70618 5.31051 0
M  V30 9865 N 950.418 -1.49637 -0.494624 0
M  V30 9866 C 951.664 -1.59681 -1.25019 0
M  V30 9867 C 951.997 -0.285511 -1.9209 0
M  V30 9868 O 951.272 0.711398 -1.81023 0
M  V30 9869 C 951.555 -2.76058 -2.31222 0
M  V30 9870 C 951.408 -4.17002 -1.68611 0
M  V30 9871 C 952.727 -2.88056 -3.32734 0
M  V30 9872 H 949.846 -0.581209 -0.453172 0
M  V30 9873 H 952.488 -1.81944 -0.547391 0
M  V30 9874 H 950.638 -2.57207 -2.91164 0
M  V30 9875 H 952.31 -4.47385 -1.12447 0
M  V30 9876 H 950.553 -4.22352 -0.989991 0
M  V30 9877 H 951.224 -4.94316 -2.45674 0
M  V30 9878 H 953.7 -3.05237 -2.82789 0
M  V30 9879 H 952.576 -3.71151 -4.04399 0
M  V30 9880 H 952.837 -1.97676 -3.95445 0
M  V30 9881 N 951.896 0.746133 -1.38819 0
M  V30 9882 C 952.806 1.89063 -1.38897 0
M  V30 9883 C 953.822 1.71648 -0.28513 0
M  V30 9884 O 954.998 1.94443 -0.524783 0
M  V30 9885 C 952.063 3.24523 -1.22007 0
M  V30 9886 C 951.124 3.54411 -2.42263 0
M  V30 9887 C 950.357 4.83408 -2.26169 0
M  V30 9888 O 950.58 5.56325 -1.25931 0
M  V30 9889 O 949.514 5.12943 -3.14918 0
M  V30 9890 H 953.34 1.91951 -2.35347 0
M  V30 9891 H 950.925 0.892433 -1.19816 0
M  V30 9892 H 952.807 4.05496 -1.14677 0
M  V30 9893 H 951.482 3.2243 -0.286455 0
M  V30 9894 H 950.389 2.73569 -2.55168 0
M  V30 9895 H 951.722 3.61273 -3.3428 0
M  V30 9896 N 953.375 1.23811 0.975125 0
M  V30 9897 C 954.338 1.02505 2.05001 0
M  V30 9898 C 955.338 -0.0150084 1.60793 0
M  V30 9899 O 956.528 0.225246 1.72738 0
M  V30 9900 C 953.66 0.552087 3.364 0
M  V30 9901 H 954.853 1.979 2.25335 0
M  V30 9902 H 952.406 1.05929 1.1493 0
M  V30 9903 H 953.141 -0.405394 3.21756 0
M  V30 9904 H 952.926 1.30267 3.69828 0
M  V30 9905 H 954.416 0.423828 4.15444 0
M  V30 9906 N 954.853 -1.17469 1.05066 0
M  V30 9907 C 956.102 -1.87032 0.755114 0
M  V30 9908 C 956.415 -1.81844 -0.720572 0
M  V30 9909 O 957.621 -2.46866 -1.13002 0
M  V30 9910 C 956.077 -3.35581 1.30052 0
M  V30 9911 C 955.685 -3.49274 2.80556 0
M  V30 9912 C 957.429 -4.1048 1.08196 0
M  V30 9913 C 955.336 -4.91838 3.28404 0
M  V30 9914 H 954.266 -0.70057 0.278779 0
M  V30 9915 H 956.917 -1.32663 1.26779 0
M  V30 9916 H 955.299 -3.89479 0.715667 0
M  V30 9917 H 956.473 -3.05598 3.44886 0
M  V30 9918 H 954.788 -2.87793 3.00939 0
M  V30 9919 H 957.385 -5.15652 1.41447 0
M  V30 9920 H 957.728 -4.16295 0.0196603 0
M  V30 9921 H 958.261 -3.62784 1.63195 0
M  V30 9922 H 955 -4.91196 4.34058 0
M  V30 9923 H 954.52 -5.36189 2.68815 0
M  V30 9924 H 956.199 -5.60602 3.23009 0
M  V30 9925 N 956.331 -0.831506 -1.3388 0
M  V30 9926 C 957.559 -0.436925 -2.02234 0
M  V30 9927 C 957.974 0.959689 -1.6259 0
M  V30 9928 O 957.331 1.62248 -0.835576 0
M  V30 9929 C 957.382 -0.539429 -3.57453 0
M  V30 9930 O 957.103 -1.88101 -3.95664 0
M  V30 9931 C 958.604 -0.140852 -4.43076 0
M  V30 9932 H 955.824 -0.174302 -0.647966 0
M  V30 9933 H 958.368 -1.12204 -1.70969 0
M  V30 9934 H 956.523 0.0976959 -3.87277 0
M  V30 9935 H 956.937 -1.86131 -4.90363 0
M  V30 9936 H 958.411 -0.26364 -5.5137 0
M  V30 9937 H 958.888 0.916505 -4.29531 0
M  V30 9938 H 959.494 -0.752117 -4.18597 0
M  V30 9939 N 957.809 1.4625 -0.587256 0
M  V30 9940 C 958.742 2.27392 0.191837 0
M  V30 9941 C 959.72 1.35905 0.89267 0
M  V30 9942 O 960.904 1.65319 0.905643 0
M  V30 9943 C 958.031 3.13758 1.27567 0
M  V30 9944 C 957.077 4.21041 0.680186 0
M  V30 9945 S 957.91 5.33194 -0.496419 0
M  V30 9946 C 959.066 6.23127 0.588506 0
M  V30 9947 H 959.299 2.93123 -0.496635 0
M  V30 9948 H 956.832 1.49795 -0.37426 0
M  V30 9949 H 958.79 3.6408 1.8962 0
M  V30 9950 H 957.451 2.47332 1.93612 0
M  V30 9951 H 956.644 4.81316 1.49503 0
M  V30 9952 H 956.246 3.73755 0.135227 0
M  V30 9953 H 958.538 6.61294 1.47298 0
M  V30 9954 H 959.481 7.08096 0.0224093 0
M  V30 9955 H 959.889 5.57365 0.894696 0
M  V30 9956 N 959.287 0.325282 1.54207 0
M  V30 9957 C 960.703 -0.0273036 1.59577 0
M  V30 9958 C 960.903 -1.50329 1.34177 0
M  V30 9959 O 959.959 -2.25951 1.12705 0
M  V30 9960 C 961.272 0.392468 2.98128 0
M  V30 9961 C 962.82 0.343269 3.11112 0
M  V30 9962 C 963.295 0.738229 4.52011 0
M  V30 9963 N 964.786 0.691701 4.58006 0
M  V30 9964 C 965.521 0.969479 5.65145 0
M  V30 9965 N 965.017 1.31448 6.80216 0
M  V30 9966 N 966.81 0.894926 5.5493 0
M  V30 9967 H 958.961 1.28692 1.68974 0
M  V30 9968 H 961.224 0.523399 0.790416 0
M  V30 9969 H 960.93 1.42089 3.2172 0
M  V30 9970 H 960.804 -0.241651 3.76425 0
M  V30 9971 H 963.191 -0.675946 2.87254 0
M  V30 9972 H 963.272 1.01235 2.34915 0
M  V30 9973 H 962.916 1.75537 4.76602 0
M  V30 9974 H 962.846 0.0468226 5.26579 0
M  V30 9975 H 965.337 0.436975 3.75365 0
M  V30 9976 H 965.65 1.51177 7.57869 0
M  V30 9977 H 963.995 1.35276 6.81708 0
M  V30 9978 H 967.186 0.624876 4.6391 0
M  V30 9979 H 967.359 1.11476 6.38339 0
M  V30 9980 N 960.765 -1.57509 0.0534917 0
M  V30 9981 C 961.728 -2.10563 -0.905307 0
M  V30 9982 C 962.728 -1.02571 -1.23838 0
M  V30 9983 O 963.918 -1.28635 -1.17468 0
M  V30 9984 C 961.05 -2.5918 -2.21447 0
M  V30 9985 H 962.243 -2.96575 -0.445354 0
M  V30 9986 H 959.796 -1.55079 -0.194947 0
M  V30 9987 H 960.531 -1.76568 -2.72019 0
M  V30 9988 H 960.316 -3.38098 -1.98575 0
M  V30 9989 H 961.806 -3.00365 -2.90122 0
M  V30 9990 N 962.243 0.219913 -1.56058 0
M  V30 9991 C 963.471 0.960915 -1.83232 0
M  V30 9992 C 963.886 1.77878 -0.632828 0
M  V30 9993 O 963.243 1.78093 0.398624 0
M  V30 9994 C 963.294 1.87716 -3.08942 0
M  V30 9995 O 963.015 1.09235 -4.24263 0
M  V30 9996 C 964.516 2.73192 -3.49115 0
M  V30 9997 H 961.736 0.281546 -0.609075 0
M  V30 9998 H 964.28 0.234648 -2.03149 0
M  V30 9999 H 962.435 2.55736 -2.90995 0
M  V30 10000 H 962.849 1.71446 -4.95688 0
M  V30 10001 H 964.323 3.33181 -4.40107 0
M  V30 10002 H 964.8 3.45668 -2.70943 0
M  V30 10003 H 965.406 2.10583 -3.69506 0
M  V30 10004 N 963.721 1.49897 0.486681 0
M  V30 10005 C 965.137 1.36977 0.819109 0
M  V30 10006 C 965.337 0.41385 1.97204 0
M  V30 10007 O 964.393 -0.149249 2.52059 0
M  V30 10008 C 965.706 2.78013 1.14584 0
M  V30 10009 C 967.254 2.86816 1.25321 0
M  V30 10010 C 967.729 4.28651 1.61316 0
M  V30 10011 N 969.22 4.31528 1.68337 0
M  V30 10012 C 969.955 5.38254 1.97662 0
M  V30 10013 N 969.451 6.55207 2.25113 0
M  V30 10014 N 971.244 5.25683 1.99033 0
M  V30 10015 H 963.395 2.10634 -0.273364 0
M  V30 10016 H 965.658 0.946116 -0.0597418 0
M  V30 10017 H 965.364 3.49728 0.371892 0
M  V30 10018 H 965.238 3.1428 2.08585 0
M  V30 10019 H 967.625 2.15329 2.01785 0
M  V30 10020 H 967.706 2.54112 0.293368 0
M  V30 10021 H 967.35 5.00669 0.853968 0
M  V30 10022 H 967.28 4.5883 2.58424 0
M  V30 10023 H 969.771 3.47189 1.49226 0
M  V30 10024 H 970.084 7.32359 2.46717 0
M  V30 10025 H 968.429 6.58408 2.22538 0
M  V30 10026 H 971.62 4.33316 1.77074 0
M  V30 10027 H 971.793 6.08949 2.21552 0
M  V30 10028 N 965.199 -0.738761 1.39212 0
M  V30 10029 C 966.162 -1.83441 1.37412 0
M  V30 10030 C 967.162 -1.58484 0.271908 0
M  V30 10031 O 968.352 -1.65954 0.529609 0
M  V30 10032 C 965.484 -3.21167 1.143 0
M  V30 10033 H 966.677 -1.86441 2.34904 0
M  V30 10034 H 964.23 -0.942023 1.24722 0
M  V30 10035 H 964.965 -3.23829 0.174756 0
M  V30 10036 H 964.75 -3.40678 1.94116 0
M  V30 10037 H 966.24 -4.01231 1.15773 0
M  V30 10038 N 966.677 -1.24326 -0.968545 0
M  V30 10039 C 967.924 -1.08245 -1.71141 0
M  V30 10040 C 968.252 0.378842 -1.90775 0
M  V30 10041 O 967.507 1.29634 -1.46607 0
M  V30 10042 C 967.806 -1.76644 -3.10695 0
M  V30 10043 C 967.472 -3.26572 -3.10905 0
M  V30 10044 C 966.134 -3.67475 -3.10669 0
M  V30 10045 C 968.486 -4.22422 -3.05302 0
M  V30 10046 C 965.814 -5.02666 -3.02562 0
M  V30 10047 C 968.166 -5.57619 -2.98737 0
M  V30 10048 C 966.83 -5.9787 -2.9683 0
M  V30 10049 H 966.1 -0.396098 -0.626249 0
M  V30 10050 H 968.747 -1.54418 -1.13258 0
M  V30 10051 H 967.052 -1.22864 -3.72037 0
M  V30 10052 H 968.749 -1.61668 -3.66967 0
M  V30 10053 H 965.339 -2.94017 -3.11852 0
M  V30 10054 H 969.523 -3.91821 -3.04614 0
M  V30 10055 H 964.779 -5.3305 -2.99446 0
M  V30 10056 H 968.953 -6.31595 -2.93361 0
M  V30 10057 H 966.58 -7.02587 -2.90303 0
M  V30 10058 N 968.156 1.1691 -1.05688 0
M  V30 10059 C 969.381 1.91745 -0.790478 0
M  V30 10060 C 969.806 1.76568 0.648478 0
M  V30 10061 O 969.164 1.08682 1.45114 0
M  V30 10062 C 969.212 3.4067 -1.18222 0
M  V30 10063 O 968.316 4.11177 -0.317341 0
M  V30 10064 H 967.657 0.5976 -0.28943 0
M  V30 10065 H 970.187 1.48157 -1.41105 0
M  V30 10066 H 970.197 3.91424 -1.15114 0
M  V30 10067 H 968.872 3.51036 -2.2304 0
M  V30 10068 H 967.449 3.70645 -0.409459 0
M  V30 10069 N 969.634 0.838594 1.33437 0
M  V30 10070 C 970.566 0.229006 2.28053 0
M  V30 10071 C 971.579 -0.590103 1.51729 0
M  V30 10072 O 972.768 -0.417218 1.73556 0
M  V30 10073 C 969.868 -0.696251 3.31671 0
M  V30 10074 C 969.041 0.0834606 4.3732 0
M  V30 10075 C 968.1 -0.765097 5.20608 0
M  V30 10076 O 967.126 -0.2044 5.68833 0
M  V30 10077 N 968.328 -2.08249 5.4186 0
M  V30 10078 H 971.093 1.04196 2.81004 0
M  V30 10079 H 968.654 0.697031 1.46127 0
M  V30 10080 H 970.646 -1.26889 3.84293 0
M  V30 10081 H 969.216 -1.40992 2.78998 0
M  V30 10082 H 968.436 0.837481 3.85201 0
M  V30 10083 H 969.724 0.619613 5.05013 0
M  V30 10084 H 969.122 -2.56156 5.04381 0
M  V30 10085 H 967.679 -2.60362 5.97541 0
M  V30 10086 N 971.112 -1.45937 0.595003 0
M  V30 10087 C 972.361 -2.01529 0.0829531 0
M  V30 10088 C 972.674 -1.47071 -1.28955 0
M  V30 10089 O 973.88 -1.94561 -1.89363 0
M  V30 10090 C 972.336 -3.59767 0.0976597 0
M  V30 10091 C 971.944 -4.23223 1.46924 0
M  V30 10092 C 973.688 -4.22972 -0.359805 0
M  V30 10093 C 971.595 -5.73576 1.44101 0
M  V30 10094 H 970.525 -0.753508 0.0272425 0
M  V30 10095 H 973.176 -1.67541 0.748473 0
M  V30 10096 H 971.558 -3.90888 -0.634268 0
M  V30 10097 H 972.732 -4.03695 2.22187 0
M  V30 10098 H 971.047 -3.72161 1.86775 0
M  V30 10099 H 973.644 -5.33202 -0.39991 0
M  V30 10100 H 973.987 -3.92765 -1.37991 0
M  V30 10101 H 974.52 -3.96523 0.31845 0
M  V30 10102 H 971.259 -6.08462 2.43831 0
M  V30 10103 H 970.779 -5.95332 0.730767 0
M  V30 10104 H 972.458 -6.36531 1.1592 0
M  V30 10105 N 972.59 -0.333456 -1.54032 0
M  V30 10106 C 973.537 0.527981 -2.2468 0
M  V30 10107 C 974.507 1.10371 -1.24127 0
M  V30 10108 O 975.692 1.14221 -1.52834 0
M  V30 10109 C 972.832 1.67808 -3.01553 0
M  V30 10110 C 971.945 1.13064 -4.16942 0
M  V30 10111 C 971.08 2.24722 -4.81325 0
M  V30 10112 C 970.119 1.67277 -5.88799 0
M  V30 10113 N 969.256 2.72638 -6.47003 0
M  V30 10114 H 974.096 -0.0810308 -2.9789 0
M  V30 10115 H 971.633 -0.051761 -1.47009 0
M  V30 10116 H 973.591 2.35502 -3.44376 0
M  V30 10117 H 972.221 2.25823 -2.30659 0
M  V30 10118 H 971.273 0.344948 -3.78833 0
M  V30 10119 H 972.585 0.670373 -4.94275 0
M  V30 10120 H 971.739 3.00301 -5.27166 0
M  V30 10121 H 970.478 2.74089 -4.03394 0
M  V30 10122 H 969.483 0.902002 -5.4235 0
M  V30 10123 H 970.708 1.18775 -6.68632 0
M  V30 10124 H 968.654 3.21277 -5.71941 0
M  V30 10125 H 968.571 2.31204 -7.19778 0
M  V30 10126 H 969.839 3.48015 -6.97499 0
M  V30 10127 N 974.068 1.57479 -0.061844 0
M  V30 10128 C 975.345 1.84484 0.649993 0
M  V30 10129 C 975.725 0.952366 1.88396 0
M  V30 10130 O 975.073 0.0161035 2.28494 0
M  V30 10131 C 975.283 3.34452 0.997133 0
M  V30 10132 C 976.631 4.01724 1.37488 0
M  V30 10133 O 977.655 3.3914 1.08916 0
M  V30 10134 O 976.514 5.12091 1.90854 0
M  V30 10135 H 973.608 0.761798 0.321858 0
M  V30 10136 H 976.154 1.6945 -0.0920192 0
M  V30 10137 H 974.926 3.91115 0.120301 0
M  V30 10138 H 974.549 3.54713 1.79624 0
M  V30 10139 N 975.546 -0.211634 1.56173 0
M  V30 10140 C 976.509 -1.24588 1.92381 0
M  V30 10141 C 977.509 -1.39297 0.803311 0
M  V30 10142 O 978.699 -1.37392 1.07094 0
M  V30 10143 C 975.831 -2.61807 2.18335 0
M  V30 10144 H 977.024 -0.936814 2.84893 0
M  V30 10145 H 974.577 -0.452471 1.49607 0
M  V30 10146 H 975.312 -2.97795 1.28407 0
M  V30 10147 H 975.097 -2.52506 2.99972 0
M  V30 10148 H 976.587 -3.3642 2.4741 0
M  V30 10149 N 977.024 -1.50153 -0.478725 0
M  V30 10150 C 977.957 -1.63089 -1.59616 0
M  V30 10151 C 978.935 -0.479211 -1.55378 0
M  V30 10152 O 980.119 -0.697715 -1.75112 0
M  V30 10153 C 977.246 -1.60643 -2.9818 0
M  V30 10154 C 976.292 -2.81279 -3.206 0
M  V30 10155 S 977.125 -4.42681 -3.0132 0
M  V30 10156 C 978.281 -4.42915 -4.42241 0
M  V30 10157 H 978.514 -2.57612 -1.48402 0
M  V30 10158 H 976.047 -1.39321 -0.665513 0
M  V30 10159 H 978.005 -1.59917 -3.7807 0
M  V30 10160 H 976.666 -0.673684 -3.0679 0
M  V30 10161 H 975.859 -2.7585 -4.21809 0
M  V30 10162 H 975.461 -2.79533 -2.4847 0
M  V30 10163 H 977.753 -4.16007 -5.34737 0
M  V30 10164 H 978.696 -5.44477 -4.52715 0
M  V30 10165 H 979.104 -3.72715 -4.23962 0
M  V30 10166 N 978.502 0.731368 -1.39602 0
M  V30 10167 C 979.748 1.49321 -1.37227 0
M  V30 10168 C 980.081 1.94176 0.0306502 0
M  V30 10169 O 979.356 1.67046 0.996294 0
M  V30 10170 C 979.639 2.73035 -2.34784 0
M  V30 10171 C 979.492 2.34176 -3.84033 0
M  V30 10172 C 980.811 3.75146 -2.30116 0
M  V30 10173 H 977.93 0.541652 -0.499783 0
M  V30 10174 H 980.572 0.835968 -1.70621 0
M  V30 10175 H 978.722 3.29114 -2.06437 0
M  V30 10176 H 980.394 1.83701 -4.23145 0
M  V30 10177 H 978.637 1.66361 -4.00633 0
M  V30 10178 H 979.308 3.22786 -4.47787 0
M  V30 10179 H 981.784 3.28661 -2.55189 0
M  V30 10180 H 980.66 4.5937 -3.00451 0
M  V30 10181 H 980.921 4.22326 -1.30741 0
M  V30 10182 N 979.98 1.24838 0.961938 0
M  V30 10183 C 981.227 1.09151 1.70564 0
M  V30 10184 C 981.555 -0.368719 1.90973 0
M  V30 10185 O 980.81 -1.28854 1.47293 0
M  V30 10186 C 981.109 1.78289 3.09754 0
M  V30 10187 C 980.775 3.28216 3.09169 0
M  V30 10188 C 979.437 3.69118 3.08716 0
M  V30 10189 C 981.789 4.24035 3.03058 0
M  V30 10190 C 979.117 5.04263 2.99892 0
M  V30 10191 C 981.469 5.59195 2.95776 0
M  V30 10192 C 980.133 5.99436 2.93655 0
M  V30 10193 H 979.403 0.399414 0.624139 0
M  V30 10194 H 982.05 1.55016 1.12438 0
M  V30 10195 H 980.355 1.24835 3.7138 0
M  V30 10196 H 982.052 1.63612 3.66104 0
M  V30 10197 H 978.642 2.95667 3.10289 0
M  V30 10198 H 982.826 3.93431 3.02532 0
M  V30 10199 H 978.082 5.3463 2.96615 0
M  V30 10200 H 982.256 6.33142 2.90007 0
M  V30 10201 H 979.883 7.04116 2.86573 0
M  V30 10202 N 981.458 -1.16348 1.06306 0
M  V30 10203 C 982.421 -2.18941 0.678053 0
M  V30 10204 C 983.421 -1.58409 -0.276277 0
M  V30 10205 O 984.611 -1.74101 -0.0586435 0
M  V30 10206 C 981.743 -3.409 -0.00228684 0
M  V30 10207 H 982.936 -2.54516 1.58624 0
M  V30 10208 H 980.489 -1.30625 0.858298 0
M  V30 10209 H 981.224 -3.10881 -0.923212 0
M  V30 10210 H 981.009 -3.86089 0.683949 0
M  V30 10211 H 982.499 -4.16806 -0.257374 0
M  V30 10212 N 982.937 -0.845659 -1.3299 0
M  V30 10213 C 984.184 -0.444653 -1.97558 0
M  V30 10214 C 984.512 0.997682 -1.66963 0
M  V30 10215 O 983.767 1.71349 -0.94541 0
M  V30 10216 C 984.066 -0.6201 -3.51979 0
M  V30 10217 C 983.732 -2.03155 -4.02541 0
M  V30 10218 C 982.394 -2.4176 -4.16059 0
M  V30 10219 C 984.746 -2.95317 -4.29462 0
M  V30 10220 C 982.074 -3.71818 -4.53837 0
M  V30 10221 C 984.426 -4.24863 -4.68694 0
M  V30 10222 C 983.09 -4.63416 -4.80419 0
M  V30 10223 H 982.36 -0.16271 -0.722915 0
M  V30 10224 H 985.007 -1.07399 -1.58549 0
M  V30 10225 H 983.312 0.092513 -3.91691 0
M  V30 10226 H 985.009 -0.290012 -3.9995 0
M  V30 10227 H 981.599 -1.72174 -3.92497 0
M  V30 10228 H 985.783 -2.66726 -4.18534 0
M  V30 10229 H 981.039 -4.01484 -4.61108 0
M  V30 10230 H 985.213 -4.96347 -4.8848 0
M  V30 10231 H 982.84 -5.6424 -5.09448 0
M  V30 10232 N 984.415 1.45619 -0.602734 0
M  V30 10233 C 985.363 2.32228 0.131484 0
M  V30 10234 C 986.357 1.45681 0.864484 0
M  V30 10235 O 987.563 1.62193 0.7806 0
M  V30 10236 H 983.938 0.7495 0.0612638 0
M  V30 10237 H 985.909 2.91941 -0.617496 0
M  V30 10238 C 984.658 3.29213 1.11866 0
M  V30 10239 H 983.981 3.95801 0.564061 0
M  V30 10240 H 985.421 3.92554 1.60242 0
M  V30 10241 C 983.88 2.56028 2.18978 0
M  V30 10242 O 984.41 2.33806 3.26646 0
M  V30 10243 N 982.616 2.16245 1.94129 0
M  V30 10244 H 982.163 2.34518 1.06579 0
M  V30 10245 H 982.121 1.67601 2.66003 0
M  V30 10246 N 985.893 0.34162 1.53853 0
M  V30 10247 C 986.823 -0.508431 2.27897 0
M  V30 10248 C 987.804 -1.10425 1.29384 0
M  V30 10249 O 988.989 -1.126 1.58224 0
M  V30 10250 C 986.119 -1.66048 3.05034 0
M  V30 10251 C 985.073 -1.19309 4.11035 0
M  V30 10252 C 984.399 -2.4335 4.76114 0
M  V30 10253 C 985.699 -0.294952 5.21467 0
M  V30 10254 H 987.393 0.109251 2.99201 0
M  V30 10255 H 984.939 0.0539847 1.43899 0
M  V30 10256 H 986.892 -2.26158 3.5557 0
M  V30 10257 H 985.616 -2.30503 2.31379 0
M  V30 10258 H 984.275 -0.614809 3.61408 0
M  V30 10259 H 983.923 -3.06208 3.99056 0
M  V30 10260 H 983.623 -2.1276 5.47729 0
M  V30 10261 H 985.147 -3.0419 5.29434 0
M  V30 10262 H 986.561 -0.80285 5.67651 0
M  V30 10263 H 984.958 -0.0810221 6.00045 0
M  V30 10264 H 986.028 0.669433 4.80257 0
M  V30 10265 N 987.371 -1.57444 0.0701946 0
M  V30 10266 C 988.782 -1.80875 -0.462709 0
M  V30 10267 C 989.133 -0.983975 -1.69742 0
M  V30 10268 O 988.258 -0.206027 -2.15417 0
M  V30 10269 C 988.853 -3.28062 -0.84623 0
M  V30 10270 C 987.412 -3.52345 -1.32401 0
M  V30 10271 C 986.559 -2.7558 -0.308399 0
M  V30 10272 H 989.51 -1.55917 0.295907 0
M  V30 10273 H 989.531 -3.40023 -1.70776 0
M  V30 10274 H 989.043 -3.88064 0.0526033 0
M  V30 10275 H 987.144 -2.97645 -2.24139 0
M  V30 10276 H 987.257 -4.6104 -1.30304 0
M  V30 10277 H 985.621 -2.4229 -0.785337 0
M  V30 10278 H 986.404 -3.38319 0.582679 0
M  V30 10279 N 988.849 0.203349 -1.56283 0
M  V30 10280 C 989.812 1.23566 -1.93039 0
M  V30 10281 C 990.812 1.38869 -0.810687 0
M  V30 10282 O 992.002 1.36822 -1.07821 0
M  V30 10283 C 989.134 2.60645 -2.1972 0
M  V30 10284 H 990.327 0.921692 -2.85385 0
M  V30 10285 H 987.88 0.44453 -1.49845 0
M  V30 10286 H 988.615 2.9711 -1.29985 0
M  V30 10287 H 988.4 2.50911 -3.01307 0
M  V30 10288 H 989.89 3.35103 -2.4919 0
M  V30 10289 N 990.327 1.50405 0.470755 0
M  V30 10290 C 991.576 1.60652 1.21959 0
M  V30 10291 C 991.889 0.312521 1.93087 0
M  V30 10292 O 993.095 0.293901 2.69905 0
M  V30 10293 C 991.551 2.83581 2.21607 0
M  V30 10294 C 991.159 4.19858 1.5628 0
M  V30 10295 C 992.903 3.03173 2.9713 0
M  V30 10296 C 990.81 5.33974 2.54217 0
M  V30 10297 H 989.74 0.598264 0.458907 0
M  V30 10298 H 992.391 1.76836 0.490041 0
M  V30 10299 H 990.773 2.60957 2.97855 0
M  V30 10300 H 991.947 4.52738 0.85819 0
M  V30 10301 H 990.262 4.05873 0.930366 0
M  V30 10302 H 992.859 3.856 3.70428 0
M  V30 10303 H 993.202 2.14914 3.56536 0
M  V30 10304 H 993.735 3.2598 2.27995 0
M  V30 10305 H 990.474 6.24388 1.99549 0
M  V30 10306 H 989.994 5.05511 3.22829 0
M  V30 10307 H 991.673 5.64561 3.16039 0
M  V30 10308 N 991.805 -0.723954 1.39988 0
M  V30 10309 C 993.051 -1.48591 1.38017 0
M  V30 10310 C 993.384 -1.94189 -0.0203522 0
M  V30 10311 O 992.659 -1.67572 -0.987422 0
M  V30 10312 C 992.942 -2.71786 2.36229 0
M  V30 10313 C 992.795 -2.32136 3.8527 0
M  V30 10314 C 994.114 -3.73921 2.32102 0
M  V30 10315 H 991.233 -0.538993 0.502648 0
M  V30 10316 H 993.875 -0.826908 1.71062 0
M  V30 10317 H 992.025 -3.28015 2.0818 0
M  V30 10318 H 993.697 -1.81454 4.24113 0
M  V30 10319 H 991.94 -1.64234 4.01509 0
M  V30 10320 H 992.611 -3.20406 4.49493 0
M  V30 10321 H 995.087 -3.27303 2.56928 0
M  V30 10322 H 993.963 -4.5777 3.02882 0
M  V30 10323 H 994.224 -4.21627 1.32979 0
M  V30 10324 N 993.283 -1.25346 -0.955304 0
M  V30 10325 C 994.193 -1.07412 -2.08566 0
M  V30 10326 C 995.209 -0.0114424 -1.73996 0
M  V30 10327 O 996.385 -0.212236 -2.00279 0
M  V30 10328 C 993.45 -0.694141 -3.3968 0
M  V30 10329 C 992.511 -1.83468 -3.88121 0
M  V30 10330 C 991.744 -1.47274 -5.12978 0
M  V30 10331 O 991.967 -0.368086 -5.69211 0
M  V30 10332 O 990.901 -2.30269 -5.56111 0
M  V30 10333 H 994.727 -2.02206 -2.26598 0
M  V30 10334 H 992.312 -1.04279 -1.06988 0
M  V30 10335 H 994.194 -0.494325 -4.18491 0
M  V30 10336 H 992.869 0.224545 -3.2292 0
M  V30 10337 H 991.776 -2.08935 -3.10318 0
M  V30 10338 H 993.109 -2.73258 -4.09379 0
M  V30 10339 N 994.761 1.15782 -1.06922 0
M  V30 10340 C 995.691 2.22538 -0.707045 0
M  V30 10341 C 996.672 1.67371 0.303471 0
M  V30 10342 O 997.857 1.9339 0.177189 0
M  V30 10343 C 994.987 3.47158 -0.0994269 0
M  V30 10344 C 993.941 4.15257 -1.03661 0
M  V30 10345 C 993.267 5.33902 -0.291974 0
M  V30 10346 C 994.567 4.65516 -2.36837 0
M  V30 10347 H 996.261 2.53089 -1.59958 0
M  V30 10348 H 993.807 1.21649 -0.770552 0
M  V30 10349 H 995.76 4.21073 0.165852 0
M  V30 10350 H 994.484 3.15926 0.828155 0
M  V30 10351 H 993.143 3.43276 -1.28674 0
M  V30 10352 H 992.791 4.98926 0.638928 0
M  V30 10353 H 992.491 5.80407 -0.916613 0
M  V30 10354 H 994.015 6.1059 -0.0343915 0
M  V30 10355 H 995.429 5.30981 -2.16175 0
M  V30 10356 H 993.826 5.22666 -2.94856 0
M  V30 10357 H 994.896 3.81387 -2.99453 0
M  V30 10358 N 996.239 0.8527 1.3254 0
M  V30 10359 C 997.487 0.454224 1.96929 0
M  V30 10360 C 997.808 -0.993034 1.67821 0
M  V30 10361 O 997.078 -1.69371 0.984393 0
M  V30 10362 H 995.658 0.164977 0.728554 0
M  V30 10363 H 998.32 1.0887 1.61658 0
M  V30 10364 H 997.416 0.597667 3.06324 0
M  V30 10365 N 997.718 -1.45297 0.610449 0
M  V30 10366 C 998.946 -2.0659 0.113211 0
M  V30 10367 C 999.361 -1.4546 -1.20361 0
M  V30 10368 O 998.718 -0.569823 -1.73376 0
M  V30 10369 C 998.769 -3.61488 -0.0298411 0
M  V30 10370 O 998.49 -4.20336 1.23488 0
M  V30 10371 C 999.991 -4.39772 -0.558202 0
M  V30 10372 H 997.211 -0.667322 0.0701555 0
M  V30 10373 H 999.755 -1.86497 0.838993 0
M  V30 10374 H 997.91 -3.80913 -0.705963 0
M  V30 10375 H 998.324 -5.13545 1.0664 0
M  V30 10376 H 999.798 -5.48648 -0.607375 0
M  V30 10377 H 1000.27 -4.09755 -1.58107 0
M  V30 10378 H 1000.88 -4.25217 0.0839704 0
M  V30 10379 N 999.196 -0.349774 -1.5367 0
M  V30 10380 C 1000.16 0.491676 -2.23864 0
M  V30 10381 C 1001.16 1.02256 -1.24098 0
M  V30 10382 O 1002.35 0.910816 -1.48492 0
M  V30 10383 C 999.481 1.68557 -2.96313 0
M  V30 10384 H 1000.67 -0.12233 -2.9965 0
M  V30 10385 H 998.227 -0.101214 -1.55972 0
M  V30 10386 H 998.962 2.3381 -2.2473 0
M  V30 10387 H 998.747 1.31203 -3.69497 0
M  V30 10388 H 1000.24 2.28225 -3.49718 0
M  V30 10389 N 1000.67 1.57404 -0.0785433 0
M  V30 10390 C 1001.9 1.98074 0.597862 0
M  V30 10391 C 1002.32 0.95714 1.6274 0
M  V30 10392 O 1001.67 -0.0553728 1.82416 0
M  V30 10393 C 1001.72 3.38815 1.26041 0
M  V30 10394 O 1001.45 4.37254 0.27207 0
M  V30 10395 C 1002.95 3.94397 2.024 0
M  V30 10396 H 1000.17 0.651263 0.161546 0
M  V30 10397 H 1002.71 2.03927 -0.152941 0
M  V30 10398 H 1000.87 3.34028 1.96225 0
M  V30 10399 H 1001.28 5.19136 0.74822 0
M  V30 10400 H 1002.75 4.95075 2.4414 0
M  V30 10401 H 1003.23 3.31308 2.88326 0
M  V30 10402 H 1003.84 4.02607 1.37068 0
M  V30 10403 N 1002.15 -0.195058 1.56388 0
M  V30 10404 C 1003.4 -0.913636 1.8027 0
M  V30 10405 C 1003.72 -1.83791 0.651606 0
M  V30 10406 O 1002.99 -1.931 -0.330057 0
M  V30 10407 H 1001.57 -0.34036 0.664954 0
M  V30 10408 H 1004.23 -0.200559 1.93865 0
M  V30 10409 H 1003.33 -1.50473 2.7343 0
M  V30 10410 N 1003.63 -1.50653 -0.462772 0
M  V30 10411 C 1004.88 -1.62057 -1.21424 0
M  V30 10412 C 1005.2 -0.324778 -1.91769 0
M  V30 10413 O 1004.46 0.689828 -1.83139 0
M  V30 10414 C 1004.76 -2.75637 -2.27507 0
M  V30 10415 C 1004.42 -4.15826 -1.74354 0
M  V30 10416 C 1003.09 -4.53969 -1.5958 0
M  V30 10417 C 1005.44 -5.03409 -1.35012 0
M  V30 10418 C 1002.77 -5.77427 -1.03899 0
M  V30 10419 C 1005.12 -6.27422 -0.807704 0
M  V30 10420 C 1003.78 -6.6436 -0.646657 0
M  V30 10421 H 1003.05 -0.59301 -0.44432 0
M  V30 10422 H 1005.7 -1.84612 -0.508999 0
M  V30 10423 H 1004 -2.47203 -3.0397 0
M  V30 10424 H 1005.7 -2.81663 -2.85424 0
M  V30 10425 H 1002.29 -3.85739 -1.86823 0
M  V30 10426 H 1006.48 -4.74567 -1.45258 0
M  V30 10427 H 1001.73 -6.04713 -0.901751 0
M  V30 10428 H 1005.91 -6.94644 -0.494234 0
M  V30 10429 H 1003.53 -7.59901 -0.213053 0
M  V30 10430 N 1005.11 0.71652 -1.4037 0
M  V30 10431 C 1006.39 1.46947 -1.29097 0
M  V30 10432 C 1006.77 2.10903 0.0911182 0
M  V30 10433 O 1006.11 2.00068 1.10385 0
M  V30 10434 C 1006.32 2.50594 -2.42907 0
M  V30 10435 C 1007.67 3.16451 -2.83097 0
M  V30 10436 O 1008.7 2.60913 -2.42493 0
M  V30 10437 O 1007.55 4.16991 -3.53244 0
M  V30 10438 H 1004.65 0.653413 -0.506932 0
M  V30 10439 H 1007.19 0.748774 -1.52287 0
M  V30 10440 H 1005.97 2.01843 -3.35224 0
M  V30 10441 H 1005.59 3.302 -2.21481 0
M  V30 10442 N 1006.59 1.25851 0.948643 0
M  V30 10443 C 1007.83 1.10954 1.69397 0
M  V30 10444 C 1008.16 -0.348443 1.91353 0
M  V30 10445 O 1007.42 -1.27285 1.48651 0
M  V30 10446 C 1007.72 1.81565 3.07846 0
M  V30 10447 C 1007.38 3.31477 3.0567 0
M  V30 10448 C 1006.04 3.72371 3.04784 0
M  V30 10449 C 1008.4 4.27225 2.98543 0
M  V30 10450 C 1005.72 5.07416 2.94527 0
M  V30 10451 C 1008.08 5.62301 2.89828 0
M  V30 10452 C 1006.74 6.02516 2.87281 0
M  V30 10453 H 1006.01 0.406011 0.619868 0
M  V30 10454 H 1008.66 1.562 1.10787 0
M  V30 10455 H 1006.96 1.28767 3.70035 0
M  V30 10456 H 1008.66 1.67486 3.64348 0
M  V30 10457 H 1005.25 2.98941 3.07135 0
M  V30 10458 H 1009.43 3.96618 2.98342 0
M  V30 10459 H 1004.69 5.37746 2.90928 0
M  V30 10460 H 1008.86 6.36182 2.83276 0
M  V30 10461 H 1006.49 7.07116 2.79089 0
M  V30 10462 N 1008.06 -1.15214 1.07534 0
M  V30 10463 C 1008.97 -2.23636 0.708818 0
M  V30 10464 C 1009.99 -1.7172 -0.280759 0
M  V30 10465 O 1011.17 -2.01 -0.126927 0
M  V30 10466 C 1008.23 -3.46512 0.114167 0
M  V30 10467 C 1007.29 -4.13409 1.15722 0
M  V30 10468 C 1006.53 -5.30419 0.59085 0
M  V30 10469 O 1006.75 -5.67314 -0.592512 0
M  V30 10470 O 1005.68 -5.86871 1.33663 0
M  V30 10471 H 1009.51 -2.57322 1.61305 0
M  V30 10472 H 1007.09 -1.22972 0.848422 0
M  V30 10473 H 1008.98 -4.20851 -0.215091 0
M  V30 10474 H 1007.65 -3.1457 -0.763356 0
M  V30 10475 H 1006.56 -3.40984 1.53886 0
M  V30 10476 H 1007.89 -4.49435 2.00671 0
M  V30 10477 N 1009.54 -0.859717 -1.32086 0
M  V30 10478 C 1010.47 -0.323502 -2.31248 0
M  V30 10479 C 1011.45 0.580085 -1.59903 0
M  V30 10480 O 1012.64 0.499265 -1.87673 0
M  V30 10481 C 1009.77 0.484661 -3.43902 0
M  V30 10482 C 1008.72 -0.324933 -4.26765 0
M  V30 10483 C 1008.05 0.608281 -5.31229 0
M  V30 10484 C 1009.35 -1.55344 -4.98664 0
M  V30 10485 H 1011.04 -1.15209 -2.76346 0
M  V30 10486 H 1008.59 -0.555442 -1.32856 0
M  V30 10487 H 1010.54 0.870238 -4.12316 0
M  V30 10488 H 1009.27 1.34666 -2.97544 0
M  V30 10489 H 1007.92 -0.692328 -3.60003 0
M  V30 10490 H 1007.57 1.46727 -4.81124 0
M  V30 10491 H 1007.27 0.0705571 -5.87558 0
M  V30 10492 H 1008.8 0.990925 -6.02506 0
M  V30 10493 H 1010.21 -1.23987 -5.59732 0
M  V30 10494 H 1008.61 -2.02947 -5.64741 0
M  V30 10495 H 1009.68 -2.31192 -4.26237 0
M  V30 10496 N 1011.02 1.44971 -0.618145 0
M  V30 10497 C 1012.27 2.01372 -0.115004 0
M  V30 10498 C 1012.58 1.49104 1.26599 0
M  V30 10499 O 1013.79 1.97549 1.86244 0
M  V30 10500 C 1012.24 3.59567 -0.154883 0
M  V30 10501 C 1011.85 4.20832 -1.53639 0
M  V30 10502 C 1013.6 4.23491 0.292468 0
M  V30 10503 C 1011.5 5.7121 -1.53208 0
M  V30 10504 H 1010.43 0.752979 -0.0392267 0
M  V30 10505 H 1013.08 1.66329 -0.775032 0
M  V30 10506 H 1011.47 3.91847 0.572001 0
M  V30 10507 H 1012.64 4.00109 -2.28582 0
M  V30 10508 H 1010.96 3.69143 -1.92672 0
M  V30 10509 H 1013.55 5.33771 0.315032 0
M  V30 10510 H 1013.9 3.9491 1.31725 0
M  V30 10511 H 1014.43 3.95967 -0.381493 0
M  V30 10512 H 1011.17 6.04506 -2.53481 0
M  V30 10513 H 1010.69 5.94094 -0.825387 0
M  V30 10514 H 1012.37 6.34606 -1.26032 0
M  V30 10515 N 1012.5 0.357919 1.53482 0
M  V30 10516 C 1013.78 -0.290164 1.93436 0
M  V30 10517 C 1014.16 -1.67039 1.29079 0
M  V30 10518 O 1013.5 -2.24085 0.447017 0
M  V30 10519 C 1013.71 -0.348055 3.4726 0
M  V30 10520 C 1015.06 -0.59206 4.20452 0
M  V30 10521 O 1016.09 -0.429581 3.536 0
M  V30 10522 O 1014.94 -0.907855 5.38907 0
M  V30 10523 H 1012.04 -0.172312 0.80885 0
M  V30 10524 H 1014.58 0.410144 1.64669 0
M  V30 10525 H 1013.36 0.619953 3.86358 0
M  V30 10526 H 1012.98 -1.09457 3.82237 0
M  V30 10527 N 1013.98 -1.5736 0.0868897 0
M  V30 10528 C 1014.91 -2.10582 -0.904858 0
M  V30 10529 C 1015.92 -1.04124 -1.25148 0
M  V30 10530 O 1017.11 -1.31595 -1.20603 0
M  V30 10531 C 1014.21 -2.56381 -2.21635 0
M  V30 10532 C 1013.38 -3.86581 -2.04631 0
M  V30 10533 C 1012.44 -4.18313 -3.19219 0
M  V30 10534 O 1011.47 -4.87669 -2.93544 0
M  V30 10535 N 1012.67 -3.73061 -4.44754 0
M  V30 10536 H 1015.44 -2.96297 -0.450352 0
M  V30 10537 H 1013 -1.616 -0.0984376 0
M  V30 10538 H 1014.99 -2.7466 -2.97227 0
M  V30 10539 H 1013.56 -1.75721 -2.58536 0
M  V30 10540 H 1012.78 -3.77532 -1.13417 0
M  V30 10541 H 1014.07 -4.71777 -1.90537 0
M  V30 10542 H 1013.46 -3.1706 -4.68497 0
M  V30 10543 H 1012.02 -3.96511 -5.17322 0
M  V30 10544 N 1015.45 0.186762 -1.56489 0
M  V30 10545 C 1016.42 1.21511 -1.94339 0
M  V30 10546 C 1017.42 1.38001 -0.82537 0
M  V30 10547 O 1018.61 1.3567 -1.09266 0
M  V30 10548 C 1015.74 2.583 -2.22472 0
M  V30 10549 H 1016.93 0.891371 -2.86347 0
M  V30 10550 H 1014.49 0.428612 -1.50308 0
M  V30 10551 H 1015.22 2.95715 -1.33129 0
M  V30 10552 H 1015.01 2.47701 -3.03951 0
M  V30 10553 H 1016.5 3.32441 -2.5273 0
M  V30 10554 N 1016.93 1.50896 0.454776 0
M  V30 10555 C 1018.18 1.62378 1.20324 0
M  V30 10556 C 1018.5 0.333883 1.9212 0
M  V30 10557 O 1017.77 -0.649477 1.8482 0
M  V30 10558 H 1016.35 0.598395 0.447139 0
M  V30 10559 H 1019.01 1.87749 0.523102 0
M  V30 10560 H 1018.11 2.44296 1.94232 0
M  V30 10561 N 1018.41 -0.709066 1.40748 0
M  V30 10562 C 1019.34 -1.83583 1.4429 0
M  V30 10563 C 1020.32 -1.67378 0.303067 0
M  V30 10564 O 1021.51 -1.87312 0.512612 0
M  V30 10565 C 1018.64 -3.21599 1.31116 0
M  V30 10566 C 1017.59 -3.52486 2.4277 0
M  V30 10567 C 1016.92 -4.89716 2.14668 0
M  V30 10568 C 1018.22 -3.52824 3.85113 0
M  V30 10569 H 1019.91 -1.80876 2.38588 0
M  V30 10570 H 1017.46 -0.868795 1.14839 0
M  V30 10571 H 1019.41 -4.00123 1.32209 0
M  V30 10572 H 1018.13 -3.24898 0.332965 0
M  V30 10573 H 1016.79 -2.76305 2.40937 0
M  V30 10574 H 1016.44 -4.89625 1.15224 0
M  V30 10575 H 1016.14 -5.11347 2.89478 0
M  V30 10576 H 1017.66 -5.70566 2.17455 0
M  V30 10577 H 1019.08 -4.21377 3.88734 0
M  V30 10578 H 1017.48 -3.85984 4.59496 0
M  V30 10579 H 1018.55 -2.52073 4.14231 0
M  V30 10580 N 1019.89 -1.26353 -0.941956 0
M  V30 10581 C 1021.14 -1.1163 -1.68473 0
M  V30 10582 C 1021.46 0.34108 -1.91994 0
M  V30 10583 O 1020.73 1.24065 -1.51607 0
M  V30 10584 H 1019.31 -0.410113 -0.624353 0
M  V30 10585 H 1021.97 -1.58669 -1.13182 0
M  V30 10586 H 1021.07 -1.63445 -2.6588 0
M  V30 10587 N 1021.37 1.14642 -1.08144 0
M  V30 10588 C 1022.32 2.17665 -0.678661 0
M  V30 10589 C 1023.3 1.58072 0.300336 0
M  V30 10590 O 1024.49 1.7664 0.112781 0
M  V30 10591 C 1021.62 3.43191 -0.0866362 0
M  V30 10592 C 1020.71 4.0982 -1.09126 0
M  V30 10593 N 1021.1 4.51814 -2.27372 0
M  V30 10594 C 1019.4 4.36272 -0.926411 0
M  V30 10595 C 1020.1 5.03581 -2.91172 0
M  V30 10596 N 1019.07 4.97624 -2.18795 0
M  V30 10597 H 1022.88 2.47872 -1.57914 0
M  V30 10598 H 1020.39 1.31296 -0.955772 0
M  V30 10599 H 1022.39 4.1632 0.219859 0
M  V30 10600 H 1021.05 3.14464 0.80886 0
M  V30 10601 H 1022.06 4.44941 -2.65044 0
M  V30 10602 H 1018.74 4.17414 -0.084492 0
M  V30 10603 H 1020.13 5.45969 -3.91621 0
M  V30 10604 N 1022.85 0.866709 1.31628 0
M  V30 10605 C 1023.76 0.323408 2.3236 0
M  V30 10606 C 1024.77 -0.564995 1.64572 0
M  V30 10607 O 1025.95 -0.462489 1.96018 0
M  V30 10608 C 1023.01 -0.469045 3.43513 0
M  V30 10609 C 1022.07 0.446928 4.26967 0
M  V30 10610 C 1021.31 -0.307799 5.32812 0
M  V30 10611 O 1021.53 -1.5363 5.49321 0
M  V30 10612 O 1020.46 0.332653 6.0098 0
M  V30 10613 H 1024.29 1.15827 2.80745 0
M  V30 10614 H 1021.87 0.629987 1.35468 0
M  V30 10615 H 1023.76 -0.918405 4.1127 0
M  V30 10616 H 1022.43 -1.28051 2.97296 0
M  V30 10617 H 1021.34 0.944719 3.61975 0
M  V30 10618 H 1022.67 1.2239 4.76741 0
M  V30 10619 N 1024.32 -1.44642 0.625825 0
M  V30 10620 C 1025.27 -2.30653 -0.082259 0
M  V30 10621 C 1026.24 -1.43174 -0.842052 0
M  V30 10622 O 1027.43 -1.72082 -0.824151 0
M  V30 10623 C 1024.57 -3.2837 -1.06146 0
M  V30 10624 C 1023.68 -4.30953 -0.300638 0
M  V30 10625 C 1022.81 -5.15766 -1.27118 0
M  V30 10626 C 1021.85 -6.10061 -0.499215 0
M  V30 10627 N 1020.99 -6.87591 -1.41995 0
M  V30 10628 H 1025.83 -2.90664 0.657161 0
M  V30 10629 H 1023.37 -1.43215 0.335859 0
M  V30 10630 H 1025.32 -3.83507 -1.6425 0
M  V30 10631 H 1023.95 -2.70072 -1.76807 0
M  V30 10632 H 1023.01 -3.78331 0.396234 0
M  V30 10633 H 1024.32 -4.97892 0.300851 0
M  V30 10634 H 1023.47 -5.75394 -1.92372 0
M  V30 10635 H 1022.21 -4.48888 -1.9066 0
M  V30 10636 H 1021.22 -5.49547 0.166848 0
M  V30 10637 H 1022.44 -6.78973 0.131409 0
M  V30 10638 H 1020.39 -6.23387 -2.04267 0
M  V30 10639 H 1020.3 -7.5095 -0.872354 0
M  V30 10640 H 1021.57 -7.51746 -2.0615 0
M  V30 10641 N 1025.8 -0.366053 -1.5329 0
M  V30 10642 C 1026.73 0.47211 -2.28677 0
M  V30 10643 C 1027.71 1.08353 -1.31125 0
M  V30 10644 O 1028.9 1.10069 -1.59995 0
M  V30 10645 C 1026.03 1.61174 -3.07637 0
M  V30 10646 C 1024.98 1.12755 -4.12881 0
M  V30 10647 C 1024.31 2.35745 -4.79925 0
M  V30 10648 C 1025.61 0.211954 -5.2187 0
M  V30 10649 H 1027.3 -0.156838 -2.98989 0
M  V30 10650 H 1024.85 -0.0768709 -1.43795 0
M  V30 10651 H 1026.8 2.20473 -3.59123 0
M  V30 10652 H 1025.52 2.26793 -2.35016 0
M  V30 10653 H 1024.18 0.557234 -3.6234 0
M  V30 10654 H 1023.83 2.99821 -4.03877 0
M  V30 10655 H 1023.53 2.04019 -5.51044 0
M  V30 10656 H 1025.06 2.95729 -5.34207 0
M  V30 10657 H 1026.47 0.71244 -5.68856 0
M  V30 10658 H 1024.87 -0.0144501 -6.00098 0
M  V30 10659 H 1025.94 -0.745753 -4.79131 0
M  V30 10660 N 1027.28 1.57312 -0.0952337 0
M  V30 10661 C 1028.51 1.98697 0.57682 0
M  V30 10662 C 1028.92 0.974347 1.61716 0
M  V30 10663 O 1028.28 -0.036022 1.82464 0
M  V30 10664 C 1028.33 3.40133 1.2244 0
M  V30 10665 O 1028.05 4.37518 0.225678 0
M  V30 10666 C 1029.55 3.96522 1.98205 0
M  V30 10667 H 1026.77 0.65294 0.154629 0
M  V30 10668 H 1029.32 2.03754 -0.174562 0
M  V30 10669 H 1027.47 3.3609 1.92671 0
M  V30 10670 H 1027.89 5.199 0.693116 0
M  V30 10671 H 1029.36 4.97637 2.38875 0
M  V30 10672 H 1029.84 3.34347 2.84796 0
M  V30 10673 H 1030.44 4.04038 1.3279 0
M  V30 10674 N 1028.76 -0.17846 1.56586 0
M  V30 10675 C 1029.69 -1.24547 1.92408 0
M  V30 10676 C 1030.7 -1.40849 0.816421 0
M  V30 10677 O 1031.89 -1.40979 1.09486 0
M  V30 10678 C 1028.99 -2.61523 2.15544 0
M  V30 10679 C 1028.16 -2.66613 3.46751 0
M  V30 10680 C 1027.22 -3.84901 3.588 0
M  V30 10681 O 1026.25 -3.71231 4.31482 0
M  V30 10682 N 1027.45 -5.0106 2.9312 0
M  V30 10683 H 1030.22 -0.941275 2.84535 0
M  V30 10684 H 1027.78 -0.368275 1.57656 0
M  V30 10685 H 1029.77 -3.3911 2.20876 0
M  V30 10686 H 1028.34 -2.84362 1.29835 0
M  V30 10687 H 1027.56 -1.75174 3.5314 0
M  V30 10688 H 1028.85 -2.67018 4.33104 0
M  V30 10689 H 1028.25 -5.15067 2.33928 0
M  V30 10690 H 1026.8 -5.76535 3.04057 0
M  V30 10691 N 1030.24 -1.51135 -0.446768 0
M  V30 10692 C 1031.2 -1.71187 -1.52406 0
M  V30 10693 C 1032.2 -0.582037 -1.49897 0
M  V30 10694 O 1033.39 -0.849452 -1.52085 0
M  V30 10695 C 1030.52 -1.75962 -2.91976 0
M  V30 10696 H 1031.71 -2.67324 -1.35934 0
M  V30 10697 H 1029.27 -1.40982 -0.674813 0
M  V30 10698 H 1030 -0.816065 -3.13864 0
M  V30 10699 H 1029.79 -2.58065 -2.95203 0
M  V30 10700 H 1031.28 -1.93347 -3.70144 0
M  V30 10701 N 1031.71 0.701592 -1.41122 0
M  V30 10702 C 1033.13 1.01143 -1.23459 0
M  V30 10703 C 1033.33 2.01144 -0.11968 0
M  V30 10704 O 1032.39 2.47132 0.517889 0
M  V30 10705 C 1033.7 1.54179 -2.58165 0
M  V30 10706 C 1035.25 1.66093 -2.65296 0
M  V30 10707 C 1035.72 2.22532 -4.00304 0
M  V30 10708 N 1037.21 2.299 -4.0212 0
M  V30 10709 C 1037.95 2.74584 -5.0338 0
M  V30 10710 N 1037.44 3.18917 -6.15032 0
M  V30 10711 N 1039.24 2.74094 -4.90743 0
M  V30 10712 H 1031.39 0.0390087 -2.12364 0
M  V30 10713 H 1033.65 0.0798848 -0.944628 0
M  V30 10714 H 1033.36 0.881587 -3.40472 0
M  V30 10715 H 1033.23 2.52488 -2.80231 0
M  V30 10716 H 1035.62 2.31227 -1.83352 0
M  V30 10717 H 1035.7 0.663461 -2.47046 0
M  V30 10718 H 1035.34 1.58016 -4.82694 0
M  V30 10719 H 1035.27 3.2302 -4.15891 0
M  V30 10720 H 1037.76 1.98607 -3.21502 0
M  V30 10721 H 1038.08 3.5162 -6.88174 0
M  V30 10722 H 1036.42 3.1684 -6.18577 0
M  V30 10723 H 1039.61 2.38804 -4.02604 0
M  V30 10724 H 1039.79 3.086 -5.69798 0
M  V30 10725 N 1033.19 1.2685 0.935242 0
M  V30 10726 C 1034.14 1.08746 2.05614 0
M  V30 10727 C 1035.13 0.012681 1.69395 0
M  V30 10728 O 1036.34 0.169822 1.79197 0
M  V30 10729 H 1032.71 0.33485 0.673335 0
M  V30 10730 H 1034.69 2.03725 2.18033 0
M  V30 10731 C 1033.43 0.74346 3.39659 0
M  V30 10732 H 1032.76 1.56236 3.68008 0
M  V30 10733 H 1034.2 0.656607 4.18885 0
M  V30 10734 C 1032.66 -0.551751 3.32351 0
M  V30 10735 O 1033.19 -1.58836 3.68963 0
M  V30 10736 N 1031.39 -0.544583 2.85452 0
M  V30 10737 H 1030.94 0.29939 2.55854 0
M  V30 10738 H 1030.9 -1.41129 2.80945 0
M  V30 10739 N 1034.67 -1.14067 1.0875 0
M  V30 10740 C 1035.6 -2.18926 0.67852 0
M  V30 10741 C 1036.62 -1.60441 -0.276163 0
M  V30 10742 O 1037.8 -1.78388 -0.0632788 0
M  V30 10743 C 1034.9 -3.38893 -0.0218852 0
M  V30 10744 C 1034.08 -4.26901 0.952582 0
M  V30 10745 C 1033.14 -5.25418 0.286859 0
M  V30 10746 O 1032.16 -5.61512 0.932354 0
M  V30 10747 N 1033.36 -5.72476 -0.961831 0
M  V30 10748 H 1036.13 -2.54629 1.58063 0
M  V30 10749 H 1033.69 -1.29321 0.974042 0
M  V30 10750 H 1035.68 -4.01864 -0.478278 0
M  V30 10751 H 1034.25 -3.01486 -0.826141 0
M  V30 10752 H 1033.47 -3.60812 1.58772 0
M  V30 10753 H 1034.76 -4.82563 1.61279 0
M  V30 10754 H 1034.16 -5.45287 -1.50594 0
M  V30 10755 H 1032.72 -6.37418 -1.36166 0
M  V30 10756 N 1036.15 -0.873678 -1.31166 0
M  V30 10757 C 1037.08 -0.348011 -2.30892 0
M  V30 10758 C 1038.06 0.563092 -1.60509 0
M  V30 10759 O 1039.24 0.479332 -1.88192 0
M  V30 10760 C 1036.37 0.448158 -3.44396 0
M  V30 10761 C 1035.33 -0.370179 -4.26396 0
M  V30 10762 C 1034.65 0.551903 -5.31844 0
M  V30 10763 C 1035.95 -1.60624 -4.96988 0
M  V30 10764 H 1037.65 -1.18134 -2.75109 0
M  V30 10765 H 1035.19 -0.569502 -1.3226 0
M  V30 10766 H 1037.15 0.826458 -4.13216 0
M  V30 10767 H 1035.87 1.31503 -2.98956 0
M  V30 10768 H 1034.53 -0.730472 -3.59249 0
M  V30 10769 H 1034.18 1.41616 -4.82653 0
M  V30 10770 H 1033.88 0.00823478 -5.87599 0
M  V30 10771 H 1035.4 0.926965 -6.03523 0
M  V30 10772 H 1036.82 -1.29917 -5.58386 0
M  V30 10773 H 1035.21 -2.08926 -5.62557 0
M  V30 10774 H 1036.28 -2.357 -4.23761 0
M  V30 10775 N 1037.63 1.44308 -0.633487 0
M  V30 10776 C 1038.56 2.33431 0.0568402 0
M  V30 10777 C 1039.54 1.48342 0.832386 0
M  V30 10778 O 1040.72 1.77056 0.797798 0
M  V30 10779 C 1037.85 3.31443 1.03743 0
M  V30 10780 C 1036.81 4.26368 0.373362 0
M  V30 10781 C 1036.13 5.14267 1.46403 0
M  V30 10782 C 1037.43 5.17287 -0.721876 0
M  V30 10783 H 1039.13 2.91402 -0.687388 0
M  V30 10784 H 1036.67 1.4012 -0.332009 0
M  V30 10785 H 1038.63 3.92677 1.52913 0
M  V30 10786 H 1037.35 2.71686 1.81258 0
M  V30 10787 H 1036.01 3.6647 -0.0977053 0
M  V30 10788 H 1035.66 4.50861 2.23011 0
M  V30 10789 H 1035.36 5.7859 1.02506 0
M  V30 10790 H 1036.88 5.78373 1.95748 0
M  V30 10791 H 1038.29 5.72444 -0.313181 0
M  V30 10792 H 1036.69 5.90226 -1.08413 0
M  V30 10793 H 1037.76 4.58159 -1.58804 0
M  V30 10794 N 1039.1 0.374177 1.53094 0
M  V30 10795 C 1040.07 -0.455999 2.24618 0
M  V30 10796 C 1041.07 -1.00269 1.25709 0
M  V30 10797 O 1042.26 -0.887077 1.49922 0
M  V30 10798 C 1039.39 -1.63822 2.98957 0
M  V30 10799 H 1040.58 0.169986 2.99418 0
M  V30 10800 H 1038.14 0.126015 1.55791 0
M  V30 10801 H 1038.87 -2.30205 2.28421 0
M  V30 10802 H 1038.66 -1.25308 3.71538 0
M  V30 10803 H 1040.15 -2.22633 3.53305 0
M  V30 10804 N 1040.58 -1.57259 0.103575 0
M  V30 10805 C 1041.49 -2.18018 -0.866327 0
M  V30 10806 C 1042.51 -1.15198 -1.30404 0
M  V30 10807 O 1043.68 -1.47605 -1.37021 0
M  V30 10808 C 1040.75 -2.75533 -2.10434 0
M  V30 10809 C 1039.81 -3.93337 -1.72002 0
M  V30 10810 C 1039.04 -4.481 -2.89901 0
M  V30 10811 O 1039.27 -4.01784 -4.04877 0
M  V30 10812 O 1038.2 -5.39004 -2.67877 0
M  V30 10813 H 1042.03 -3.01322 -0.379338 0
M  V30 10814 H 1039.61 -1.48907 -0.121228 0
M  V30 10815 H 1041.49 -3.12259 -2.8297 0
M  V30 10816 H 1040.17 -1.9527 -2.58169 0
M  V30 10817 H 1039.08 -3.61408 -0.966193 0
M  V30 10818 H 1040.41 -4.74989 -1.29022 0
M  V30 10819 N 1042.06 0.170153 -1.56679 0
M  V30 10820 C 1043.02 1.19443 -1.95617 0
M  V30 10821 C 1044.02 1.37118 -0.83996 0
M  V30 10822 O 1045.21 1.34504 -1.10699 0
M  V30 10823 C 1042.35 2.55926 -2.25199 0
M  V30 10824 H 1043.54 0.86095 -2.87276 0
M  V30 10825 H 1041.09 0.412646 -1.50755 0
M  V30 10826 H 1041.83 2.94286 -1.36257 0
M  V30 10827 H 1041.61 2.44464 -3.06562 0
M  V30 10828 H 1043.1 3.29742 -2.56242 0
M  V30 10829 N 1043.54 1.5137 0.438746 0
M  V30 10830 C 1044.5 1.71993 1.51496 0
M  V30 10831 C 1045.5 0.589978 1.49586 0
M  V30 10832 O 1046.69 0.857505 1.51633 0
M  V30 10833 C 1043.82 1.77508 2.91039 0
M  V30 10834 H 1045.02 2.68041 1.34514 0
M  V30 10835 H 1042.57 1.41338 0.667326 0
M  V30 10836 H 1043.3 0.832698 3.13427 0
M  V30 10837 H 1043.09 2.59627 2.9383 0
M  V30 10838 H 1044.58 1.95308 3.69113 0
M  V30 10839 N 1045.02 -0.694098 1.41492 0
M  V30 10840 C 1045.96 -1.80801 1.43456 0
M  V30 10841 C 1046.93 -1.63571 0.288757 0
M  V30 10842 O 1048.12 -1.844 0.490017 0
M  V30 10843 C 1045.26 -3.18694 1.32394 0
M  V30 10844 C 1044.37 -3.47346 2.56855 0
M  V30 10845 C 1043.51 -4.74862 2.38075 0
M  V30 10846 C 1042.55 -4.96486 3.58005 0
M  V30 10847 N 1041.68 -6.15229 3.38287 0
M  V30 10848 H 1046.52 -1.78457 2.38657 0
M  V30 10849 H 1044.06 -0.871455 1.18508 0
M  V30 10850 H 1046.02 -3.98352 1.23982 0
M  V30 10851 H 1044.65 -3.20211 0.407999 0
M  V30 10852 H 1043.7 -2.62083 2.75711 0
M  V30 10853 H 1045.01 -3.59226 3.4606 0
M  V30 10854 H 1044.17 -5.62577 2.27139 0
M  V30 10855 H 1042.9 -4.6523 1.46329 0
M  V30 10856 H 1041.91 -4.07219 3.69395 0
M  V30 10857 H 1043.13 -5.07976 4.50708 0
M  V30 10858 H 1041.08 -6.06807 2.49242 0
M  V30 10859 H 1041 -6.27883 4.21069 0
M  V30 10860 H 1042.27 -7.05674 3.31126 0
M  V30 10861 N 1046.49 -1.27344 -0.928501 0
M  V30 10862 C 1047.44 -1.06656 -2.01515 0
M  V30 10863 C 1048.43 0.00516619 -1.60899 0
M  V30 10864 O 1049.62 -0.213277 -1.7571 0
M  V30 10865 C 1046.75 -0.714935 -3.35773 0
M  V30 10866 C 1045.84 -1.82476 -3.82836 0
M  V30 10867 N 1046.23 -3.06421 -4.02417 0
M  V30 10868 C 1044.52 -1.71126 -4.11864 0
M  V30 10869 C 1045.23 -3.78637 -4.41598 0
M  V30 10870 N 1044.2 -3.06396 -4.49024 0
M  V30 10871 H 1048 -2.00718 -2.14685 0
M  V30 10872 H 1045.52 -1.18048 -1.11528 0
M  V30 10873 H 1047.51 -0.54784 -4.13285 0
M  V30 10874 H 1046.17 0.218069 -3.23967 0
M  V30 10875 H 1047.19 -3.42191 -3.88749 0
M  V30 10876 H 1043.86 -0.849031 -4.08776 0
M  V30 10877 H 1045.25 -4.85159 -4.64834 0
M  V30 10878 N 1047.97 1.13488 -1.09353 0
M  V30 10879 C 1049.38 1.66299 -0.848609 0
M  V30 10880 C 1049.73 1.86044 0.623051 0
M  V30 10881 O 1048.86 1.57871 1.48005 0
M  V30 10882 C 1049.45 3.02087 -1.53391 0
M  V30 10883 C 1048.01 3.51893 -1.33598 0
M  V30 10884 C 1047.16 2.27154 -1.59048 0
M  V30 10885 H 1050.11 0.974208 -1.25279 0
M  V30 10886 H 1050.13 3.68018 -0.966587 0
M  V30 10887 H 1049.64 2.87684 -2.60498 0
M  V30 10888 H 1047.75 3.715 -0.286045 0
M  V30 10889 H 1047.86 4.32059 -2.0703 0
M  V30 10890 H 1046.22 2.33708 -1.01256 0
M  V30 10891 H 1047.01 2.15317 -2.67383 0
M  V30 10892 N 1049.45 0.880621 1.30701 0
M  V30 10893 C 1050.73 0.41712 1.91101 0
M  V30 10894 C 1051.11 -1.10177 1.80067 0
M  V30 10895 O 1050.46 -1.93513 1.21511 0
M  V30 10896 C 1050.67 0.910364 3.36917 0
M  V30 10897 C 1052.01 0.942764 4.14001 0
M  V30 10898 O 1053.04 0.856733 3.45743 0
M  V30 10899 O 1051.9 1.06913 5.3594 0
M  V30 10900 H 1048.99 0.126775 0.817225 0
M  V30 10901 H 1051.54 0.969236 1.39298 0
M  V30 10902 H 1050.31 1.95414 3.39012 0
M  V30 10903 H 1049.93 0.337164 3.96168 0
M  V30 10904 N 1050.93 -1.4397 0.641131 0
M  V30 10905 C 1051.86 -2.27948 -0.10731 0
M  V30 10906 C 1052.84 -1.39124 -0.841615 0
M  V30 10907 O 1054.02 -1.68566 -0.843662 0
M  V30 10908 C 1051.15 -3.18277 -1.15835 0
M  V30 10909 C 1050.2 -4.23276 -0.52345 0
M  V30 10910 S 1051.03 -5.30984 0.693969 0
M  V30 10911 C 1052.19 -6.24882 -0.356831 0
M  V30 10912 H 1052.42 -2.91077 0.605083 0
M  V30 10913 H 1049.95 -1.48303 0.429598 0
M  V30 10914 H 1051.91 -3.70867 -1.75977 0
M  V30 10915 H 1050.57 -2.54348 -1.84299 0
M  V30 10916 H 1049.76 -4.86533 -1.31536 0
M  V30 10917 H 1049.37 -3.74 0.00358355 0
M  V30 10918 H 1051.66 -6.66305 -1.22653 0
M  V30 10919 H 1052.6 -7.07692 0.240412 0
M  V30 10920 H 1053.01 -5.60301 -0.687217 0
M  V30 10921 N 1052.41 -0.382291 -1.52893 0
M  V30 10922 C 1053.34 0.447829 -2.29165 0
M  V30 10923 C 1054.32 1.06956 -1.32267 0
M  V30 10924 O 1055.5 1.08365 -1.61154 0
M  V30 10925 C 1052.63 1.57902 -3.09329 0
M  V30 10926 C 1051.59 1.08369 -4.14053 0
M  V30 10927 C 1050.91 2.30641 -4.82399 0
M  V30 10928 C 1052.21 0.156591 -5.22065 0
M  V30 10929 H 1053.91 -0.188541 -2.98806 0
M  V30 10930 H 1051.45 -0.0921179 -1.43705 0
M  V30 10931 H 1053.41 2.16652 -3.61442 0
M  V30 10932 H 1052.13 2.24287 -2.37409 0
M  V30 10933 H 1050.79 0.518772 -3.62911 0
M  V30 10934 H 1050.44 2.9552 -4.07034 0
M  V30 10935 H 1050.14 1.98163 -5.53177 0
M  V30 10936 H 1051.66 2.90047 -5.37313 0
M  V30 10937 H 1053.08 0.652065 -5.6958 0
M  V30 10938 H 1051.47 -0.0780978 -6.00049 0
M  V30 10939 H 1052.54 -0.796529 -4.78313 0
M  V30 10940 N 1053.89 1.57202 -0.111913 0
M  V30 10941 C 1055.11 1.99297 0.555713 0
M  V30 10942 C 1055.53 0.991444 1.60673 0
M  V30 10943 O 1054.89 -0.0166672 1.82492 0
M  V30 10944 C 1054.94 3.41413 1.18826 0
M  V30 10945 O 1054.66 4.37733 0.179261 0
M  V30 10946 C 1056.16 3.98602 1.93989 0
M  V30 10947 H 1053.38 0.654543 0.147695 0
M  V30 10948 H 1055.92 2.03557 -0.196163 0
M  V30 10949 H 1054.08 3.38115 1.89096 0
M  V30 10950 H 1054.49 5.20606 0.637935 0
M  V30 10951 H 1055.97 5.00143 2.33584 0
M  V30 10952 H 1056.44 3.37349 2.81233 0
M  V30 10953 H 1057.05 4.05424 1.28497 0
M  V30 10954 N 1055.36 -0.161842 1.56767 0
M  V30 10955 C 1056.59 -0.896274 1.87034 0
M  V30 10956 C 1057.01 -1.74617 0.699314 0
M  V30 10957 O 1056.37 -1.77861 -0.351435 0
M  V30 10958 C 1056.42 -1.74105 3.15784 0
M  V30 10959 O 1055.52 -2.84372 2.98674 0
M  V30 10960 H 1054.86 -0.250523 0.614926 0
M  V30 10961 H 1057.39 -0.157127 2.03996 0
M  V30 10962 H 1057.4 -2.13907 3.4743 0
M  V30 10963 H 1056.08 -1.11684 4.00624 0
M  V30 10964 H 1054.66 -2.48084 2.78404 0
M  V30 10965 N 1056.84 -1.516 -0.430713 0
M  V30 10966 C 1058.09 -1.6484 -1.18134 0
M  V30 10967 C 1058.42 -0.366725 -1.90706 0
M  V30 10968 O 1057.7 0.63398 -1.83878 0
M  V30 10969 C 1057.98 -2.85617 -2.19306 0
M  V30 10970 C 1057.83 -4.23778 -1.50773 0
M  V30 10971 C 1059.15 -3.01909 -3.20217 0
M  V30 10972 H 1056.27 -0.599907 -0.428113 0
M  V30 10973 H 1058.91 -1.84102 -0.46973 0
M  V30 10974 H 1057.06 -2.69325 -2.79993 0
M  V30 10975 H 1058.73 -4.51752 -0.93371 0
M  V30 10976 H 1056.98 -4.26171 -0.809966 0
M  V30 10977 H 1057.65 -5.04291 -2.24487 0
M  V30 10978 H 1060.12 -3.16956 -2.69589 0
M  V30 10979 H 1059 -3.87968 -3.88293 0
M  V30 10980 H 1059.26 -2.1427 -3.86705 0
M  V30 10981 N 1058.32 0.686584 -1.41858 0
M  V30 10982 C 1059.74 0.998283 -1.24525 0
M  V30 10983 C 1059.94 2.01006 -0.141007 0
M  V30 10984 O 1058.99 2.47667 0.491648 0
M  V30 10985 C 1060.3 1.51432 -2.59786 0
M  V30 10986 C 1061.85 1.6327 -2.67043 0
M  V30 10987 C 1062.33 2.18274 -4.02642 0
M  V30 10988 N 1063.82 2.25622 -4.04535 0
M  V30 10989 C 1064.55 2.69229 -5.06264 0
M  V30 10990 N 1064.05 3.12375 -6.1838 0
M  V30 10991 N 1065.84 2.68873 -4.93623 0
M  V30 10992 H 1057.99 0.0164825 -2.12394 0
M  V30 10993 H 1060.26 0.0698613 -0.945422 0
M  V30 10994 H 1059.96 0.845426 -3.41388 0
M  V30 10995 H 1059.84 2.49502 -2.82894 0
M  V30 10996 H 1062.22 2.29269 -1.85794 0
M  V30 10997 H 1062.3 0.637221 -2.47736 0
M  V30 10998 H 1061.95 1.52887 -4.84343 0
M  V30 10999 H 1061.88 3.18591 -4.19294 0
M  V30 11000 H 1064.37 1.95186 -3.23591 0
M  V30 11001 H 1064.68 3.44301 -6.91864 0
M  V30 11002 H 1063.03 3.10262 -6.21902 0
M  V30 11003 H 1066.22 2.34521 -4.05114 0
M  V30 11004 H 1066.39 3.02539 -5.7304 0
M  V30 11005 N 1059.8 1.27835 0.921735 0
M  V30 11006 C 1061.21 1.13151 1.48505 0
M  V30 11007 C 1061.56 -0.281373 1.94172 0
M  V30 11008 O 1060.68 -1.17487 1.8173 0
M  V30 11009 C 1061.28 2.04792 2.69899 0
M  V30 11010 C 1059.84 1.94196 3.22436 0
M  V30 11011 C 1058.99 1.96999 1.95158 0
M  V30 11012 H 1061.94 1.40641 0.735241 0
M  V30 11013 H 1061.96 1.60724 3.44889 0
M  V30 11014 H 1061.47 3.07615 2.36631 0
M  V30 11015 H 1059.57 0.943805 3.60448 0
M  V30 11016 H 1059.68 2.80744 3.88226 0
M  V30 11017 H 1058.05 1.41301 2.11911 0
M  V30 11018 H 1058.83 3.01487 1.64196 0
M  V30 11019 N 1061.28 -1.12907 1.09954 0
M  V30 11020 C 1062.22 -2.20561 0.73863 0
M  V30 11021 C 1063.22 -1.67347 -0.262944 0
M  V30 11022 O 1064.42 -1.79574 -0.123834 0
M  V30 11023 H 1060.8 -0.718823 0.220901 0
M  V30 11024 H 1062.77 -2.4826 1.65559 0
M  V30 11025 C 1061.52 -3.47227 0.181239 0
M  V30 11026 H 1060.84 -3.88516 0.943144 0
M  V30 11027 H 1062.28 -4.23987 -0.0332888 0
M  V30 11028 C 1060.74 -3.18956 -1.08485 0
M  V30 11029 O 1061.27 -3.38224 -2.1672 0
M  V30 11030 N 1059.48 -2.72797 -1.00151 0
M  V30 11031 H 1059.02 -2.57317 -0.120645 0
M  V30 11032 H 1058.98 -2.54256 -1.84935 0
M  V30 11033 N 1062.75 -0.88754 -1.30232 0
M  V30 11034 C 1064 -0.506277 -1.95656 0
M  V30 11035 C 1064.32 0.948191 -1.70395 0
M  V30 11036 O 1063.59 1.66701 -1.02895 0
M  V30 11037 H 1062.17 -0.184235 -0.723924 0
M  V30 11038 H 1064.83 -1.13118 -1.58715 0
M  V30 11039 H 1063.93 -0.678673 -3.04632 0
M  V30 11040 N 1064.23 1.43628 -0.648757 0
M  V30 11041 C 1065.16 2.33478 0.0320785 0
M  V30 11042 C 1066.14 1.49217 0.816605 0
M  V30 11043 O 1067.33 1.77892 0.778974 0
M  V30 11044 C 1064.46 3.32525 1.00222 0
M  V30 11045 C 1063.41 4.2674 0.328119 0
M  V30 11046 C 1062.74 5.15791 1.4094 0
M  V30 11047 C 1064.04 5.16493 -0.776701 0
M  V30 11048 H 1065.73 2.90657 -0.718257 0
M  V30 11049 H 1063.28 1.3976 -0.346852 0
M  V30 11050 H 1065.23 3.94277 1.4874 0
M  V30 11051 H 1063.96 2.73593 1.78366 0
M  V30 11052 H 1062.61 3.66346 -0.136569 0
M  V30 11053 H 1062.26 4.53201 2.18216 0
M  V30 11054 H 1061.96 5.79645 0.963631 0
M  V30 11055 H 1063.49 5.80416 1.89603 0
M  V30 11056 H 1064.9 5.7208 -0.373878 0
M  V30 11057 H 1063.3 5.89043 -1.14667 0
M  V30 11058 H 1064.37 4.56448 -1.63654 0
M  V30 11059 N 1065.71 0.390394 1.52688 0
M  V30 11060 C 1066.62 -0.451543 2.30213 0
M  V30 11061 C 1067.64 -1.07051 1.37172 0
M  V30 11062 O 1068.81 -1.07609 1.70242 0
M  V30 11063 C 1065.88 -1.56299 3.0947 0
M  V30 11064 C 1064.94 -0.969017 4.18221 0
M  V30 11065 C 1064.17 -2.0275 4.93688 0
M  V30 11066 O 1064.39 -3.24273 4.69258 0
M  V30 11067 O 1063.33 -1.64418 5.79008 0
M  V30 11068 H 1067.15 0.180042 3.03166 0
M  V30 11069 H 1064.74 0.154082 1.48603 0
M  V30 11070 H 1066.62 -2.20864 3.58883 0
M  V30 11071 H 1065.3 -2.17952 2.3933 0
M  V30 11072 H 1064.2 -0.286587 3.73001 0
M  V30 11073 H 1065.54 -0.396687 4.90599 0
M  V30 11074 N 1067.19 -1.57141 0.120249 0
M  V30 11075 C 1068.47 -1.8677 -0.581075 0
M  V30 11076 C 1068.85 -1.02163 -1.84732 0
M  V30 11077 O 1068.19 -0.100897 -2.28277 0
M  V30 11078 C 1068.4 -3.37923 -0.872316 0
M  V30 11079 C 1069.75 -4.0655 -1.22483 0
M  V30 11080 O 1070.78 -3.42948 -0.962539 0
M  V30 11081 O 1069.63 -5.18821 -1.71717 0
M  V30 11082 H 1066.73 -0.773219 -0.293362 0
M  V30 11083 H 1069.27 -1.68992 0.154846 0
M  V30 11084 H 1068.05 -3.91292 0.0249416 0
M  V30 11085 H 1067.67 -3.61135 -1.66335 0
M  V30 11086 N 1068.67 0.153526 -1.5685 0
M  V30 11087 C 1069.89 0.882335 -1.87143 0
M  V30 11088 C 1070.31 1.75034 -0.707702 0
M  V30 11089 O 1069.67 1.79624 0.32273 0
M  V30 11090 C 1069.72 1.74444 -3.16625 0
M  V30 11091 O 1069.44 0.911419 -4.28515 0
M  V30 11092 C 1070.94 2.58139 -3.60388 0
M  V30 11093 H 1068.16 0.25546 -0.620469 0
M  V30 11094 H 1070.7 0.148275 -2.03962 0
M  V30 11095 H 1068.86 2.43163 -3.0158 0
M  V30 11096 H 1069.27 1.50268 -5.02513 0
M  V30 11097 H 1070.75 3.14215 -4.53842 0
M  V30 11098 H 1071.22 3.33865 -2.85361 0
M  V30 11099 H 1071.83 1.94721 -3.78105 0
M  V30 11100 N 1070.14 1.51827 0.422667 0
M  V30 11101 C 1071.56 1.57533 1.00201 0
M  V30 11102 C 1071.91 0.407623 1.91919 0
M  V30 11103 O 1071.03 -0.473763 2.1115 0
M  V30 11104 C 1071.63 2.85508 1.82403 0
M  V30 11105 C 1070.19 2.93737 2.35362 0
M  V30 11106 C 1069.33 2.52343 1.14971 0
M  V30 11107 H 1072.28 1.57391 0.20339 0
M  V30 11108 H 1072.3 2.70097 2.68007 0
M  V30 11109 H 1071.82 3.70477 1.15623 0
M  V30 11110 H 1069.92 2.13231 3.05554 0
M  V30 11111 H 1070.03 3.977 2.67155 0
M  V30 11112 H 1068.39 2.05878 1.49955 0
M  V30 11113 H 1069.18 3.39672 0.497786 0
M  V30 11114 N 1071.62 -0.679052 1.4222 0
M  V30 11115 C 1072.55 -1.80455 1.41311 0
M  V30 11116 C 1073.57 -1.59767 0.312799 0
M  V30 11117 O 1074.76 -1.68964 0.575612 0
M  V30 11118 C 1071.86 -3.17492 1.18541 0
M  V30 11119 C 1071.03 -3.65066 2.40926 0
M  V30 11120 C 1070.09 -4.80823 2.13765 0
M  V30 11121 O 1069.11 -4.91587 2.86934 0
M  V30 11122 N 1070.32 -5.69233 1.13813 0
M  V30 11123 H 1073.08 -1.81722 2.38322 0
M  V30 11124 H 1070.64 -0.861988 1.37045 0
M  V30 11125 H 1072.63 -3.92581 0.982958 0
M  V30 11126 H 1071.2 -3.1115 0.300691 0
M  V30 11127 H 1070.42 -2.80702 2.76767 0
M  V30 11128 H 1071.71 -3.93593 3.22431 0
M  V30 11129 H 1071.11 -5.63185 0.532887 0
M  V30 11130 H 1069.67 -6.44152 0.995554 0
M  V30 11131 N 1073.1 -1.28322 -0.914942 0
M  V30 11132 C 1074.35 -1.15407 -1.66396 0
M  V30 11133 C 1074.68 0.297587 -1.9221 0
M  V30 11134 O 1073.93 1.23299 -1.51973 0
M  V30 11135 C 1074.23 -1.89663 -3.02924 0
M  V30 11136 C 1073.9 -3.39464 -2.96774 0
M  V30 11137 C 1072.56 -3.80321 -2.94804 0
M  V30 11138 C 1074.91 -4.3499 -2.87111 0
M  V30 11139 C 1072.24 -5.15046 -2.8097 0
M  V30 11140 C 1074.59 -5.69788 -2.74818 0
M  V30 11141 C 1073.25 -6.09921 -2.71205 0
M  V30 11142 H 1072.52 -0.422303 -0.608885 0
M  V30 11143 H 1075.17 -1.59082 -1.06607 0
M  V30 11144 H 1073.48 -1.38533 -3.66491 0
M  V30 11145 H 1075.17 -1.77087 -3.59779 0
M  V30 11146 H 1071.76 -3.06979 -2.99101 0
M  V30 11147 H 1075.95 -4.04389 -2.87721 0
M  V30 11148 H 1071.2 -5.45271 -2.76568 0
M  V30 11149 H 1075.38 -6.43469 -2.66309 0
M  V30 11150 H 1073 -7.14267 -2.60243 0
M  V30 11151 N 1074.58 1.12322 -1.10551 0
M  V30 11152 C 1075.53 2.18087 -0.755424 0
M  V30 11153 C 1076.5 1.6391 0.268805 0
M  V30 11154 O 1077.68 1.90227 0.147813 0
M  V30 11155 C 1074.82 3.4455 -0.194713 0
M  V30 11156 C 1073.93 4.12775 -1.27439 0
M  V30 11157 C 1073.07 5.26891 -0.675194 0
M  V30 11158 C 1072.11 5.86985 -1.73536 0
M  V30 11159 N 1071.24 6.92512 -1.15635 0
M  V30 11160 H 1076.08 2.47379 -1.66155 0
M  V30 11161 H 1073.62 1.21452 -0.829924 0
M  V30 11162 H 1075.58 4.16936 0.148275 0
M  V30 11163 H 1074.21 3.15671 0.674638 0
M  V30 11164 H 1073.26 3.38556 -1.73448 0
M  V30 11165 H 1074.57 4.53506 -2.07687 0
M  V30 11166 H 1073.73 6.06046 -0.281723 0
M  V30 11167 H 1072.47 4.87442 0.158708 0
M  V30 11168 H 1071.47 5.06517 -2.13825 0
M  V30 11169 H 1072.7 6.28505 -2.57213 0
M  V30 11170 H 1070.64 6.55098 -0.343928 0
M  V30 11171 H 1070.56 7.31848 -1.89565 0
M  V30 11172 H 1071.83 7.75492 -0.789463 0
M  V30 11173 N 1076.06 0.894434 1.2976 0
M  V30 11174 C 1077.31 0.513673 1.95049 0
M  V30 11175 C 1077.62 -0.943744 1.71327 0
M  V30 11176 O 1078.82 -1.43179 2.30678 0
M  V30 11177 C 1077.28 0.867751 3.49282 0
M  V30 11178 C 1076.89 2.34358 3.81812 0
M  V30 11179 C 1078.63 0.556645 4.20835 0
M  V30 11180 C 1076.54 2.63879 5.29265 0
M  V30 11181 H 1075.47 0.188375 0.73009 0
M  V30 11182 H 1078.12 1.09071 1.47566 0
M  V30 11183 H 1076.5 0.2197 3.9539 0
M  V30 11184 H 1077.68 3.03674 3.46581 0
M  V30 11185 H 1075.99 2.62318 3.23386 0
M  V30 11186 H 1078.59 0.754123 5.29355 0
M  V30 11187 H 1078.93 -0.504526 4.13231 0
M  V30 11188 H 1079.46 1.1623 3.80441 0
M  V30 11189 H 1076.2 3.68774 5.41928 0
M  V30 11190 H 1075.72 1.99182 5.65762 0
M  V30 11191 H 1077.4 2.49871 5.96803 0
M  V30 11192 N 1077.53 -1.43282 0.656365 0
M  V30 11193 C 1078.81 -1.9534 0.100816 0
M  V30 11194 C 1079.19 -1.59755 -1.37992 0
M  V30 11195 O 1078.54 -0.884264 -2.10697 0
M  V30 11196 C 1078.75 -3.47237 0.35038 0
M  V30 11197 C 1080.1 -4.23822 0.257001 0
M  V30 11198 O 1081.12 -3.55073 0.283111 0
M  V30 11199 O 1079.98 -5.46192 0.183397 0
M  V30 11200 H 1077.07 -0.826963 -0.00780287 0
M  V30 11201 H 1079.62 -1.53205 0.72982 0
M  V30 11202 H 1078.39 -3.66276 1.37685 0
M  V30 11203 H 1078.02 -3.96378 -0.311539 0
M  V30 11204 N 1079.01 -0.398486 -1.52479 0
M  V30 11205 C 1080.26 0.182046 -2.00877 0
M  V30 11206 C 1080.58 1.47128 -1.2889 0
M  V30 11207 O 1081.78 2.13242 -1.68048 0
M  V30 11208 C 1080.24 0.374978 -3.57941 0
M  V30 11209 C 1079.85 -0.901544 -4.38835 0
M  V30 11210 C 1081.59 0.911378 -4.14601 0
M  V30 11211 C 1079.5 -0.676385 -5.87519 0
M  V30 11212 H 1078.43 0.0718068 -0.750573 0
M  V30 11213 H 1081.08 -0.522297 -1.7591 0
M  V30 11214 H 1079.46 1.14139 -3.79194 0
M  V30 11215 H 1080.63 -1.67329 -4.29346 0
M  V30 11216 H 1078.95 -1.36357 -3.93441 0
M  V30 11217 H 1081.55 1.09569 -5.23353 0
M  V30 11218 H 1081.89 1.88306 -3.71277 0
M  V30 11219 H 1082.42 0.204296 -3.97275 0
M  V30 11220 H 1079.16 -1.61933 -6.35184 0
M  V30 11221 H 1078.68 0.0562542 -5.99774 0
M  V30 11222 H 1080.36 -0.314454 -6.46235 0
M  V30 11223 N 1080.49 1.57075 -0.12858 0
M  V30 11224 C 1081.77 1.87075 0.571162 0
M  V30 11225 C 1082.15 1.03141 1.84188 0
M  V30 11226 O 1081.5 0.113001 2.2822 0
M  V30 11227 C 1081.71 3.3838 0.854383 0
M  V30 11228 C 1083.05 4.07194 1.20326 0
M  V30 11229 O 1084.08 3.43454 0.944338 0
M  V30 11230 O 1082.94 5.19725 1.68963 0
M  V30 11231 H 1080.03 0.774764 0.289258 0
M  V30 11232 H 1082.58 1.68908 -0.163806 0
M  V30 11233 H 1081.35 3.91273 -0.0456925 0
M  V30 11234 H 1080.97 3.62012 1.64418 0
M  V30 11235 N 1081.97 -0.145205 1.5693 0
M  V30 11236 C 1082.9 -1.20438 1.95006 0
M  V30 11237 C 1083.91 -1.39085 0.846114 0
M  V30 11238 O 1085.1 -1.38625 1.12452 0
M  V30 11239 C 1082.2 -2.56892 2.21043 0
M  V30 11240 C 1081.38 -2.59197 3.52329 0
M  V30 11241 C 1080.44 -3.77204 3.66884 0
M  V30 11242 O 1079.46 -3.61995 4.39259 0
M  V30 11243 N 1080.66 -4.9473 3.03682 0
M  V30 11244 H 1083.43 -0.880709 2.86467 0
M  V30 11245 H 1080.99 -0.334751 1.58401 0
M  V30 11246 H 1082.98 -3.34349 2.2802 0
M  V30 11247 H 1081.55 -2.81544 1.35838 0
M  V30 11248 H 1080.77 -1.67644 3.56776 0
M  V30 11249 H 1082.06 -2.57771 4.3867 0
M  V30 11250 H 1081.46 -5.09989 2.44801 0
M  V30 11251 H 1080.01 -5.69956 3.16218 0
M  V30 11252 N 1083.45 -1.52049 -0.414609 0
M  V30 11253 C 1084.36 -1.7788 -1.52958 0
M  V30 11254 C 1085.37 -0.66408 -1.60829 0
M  V30 11255 O 1086.55 -0.948882 -1.77646 0
M  V30 11256 C 1083.61 -1.91906 -2.88744 0
M  V30 11257 C 1082.68 -3.15803 -2.90804 0
M  V30 11258 C 1081.91 -3.29151 -4.20114 0
M  V30 11259 O 1082.13 -2.47892 -5.13718 0
M  V30 11260 O 1081.07 -4.2227 -4.28919 0
M  V30 11261 H 1084.89 -2.72506 -1.34067 0
M  V30 11262 H 1082.48 -1.36826 -0.599918 0
M  V30 11263 H 1084.36 -2.02986 -3.6929 0
M  V30 11264 H 1083.03 -1.00468 -3.07714 0
M  V30 11265 H 1081.94 -3.10185 -2.09131 0
M  V30 11266 H 1083.27 -4.07004 -2.76783 0
M  V30 11267 N 1084.93 0.6715 -1.42579 0
M  V30 11268 C 1085.87 1.78496 -1.46314 0
M  V30 11269 C 1086.84 1.63091 -0.314743 0
M  V30 11270 O 1088.03 1.83597 -0.519292 0
M  V30 11271 C 1085.17 3.16548 -1.37447 0
M  V30 11272 C 1084.28 3.43216 -2.62348 0
M  V30 11273 C 1083.42 4.71014 -2.456 0
M  V30 11274 C 1082.45 4.90728 -3.65859 0
M  V30 11275 N 1081.59 6.09769 -3.48032 0
M  V30 11276 H 1086.43 1.74638 -2.41466 0
M  V30 11277 H 1083.97 0.852491 -1.19879 0
M  V30 11278 H 1085.93 3.96329 -1.30303 0
M  V30 11279 H 1084.56 3.19522 -0.458891 0
M  V30 11280 H 1083.61 2.57664 -2.79846 0
M  V30 11281 H 1084.92 3.53675 -3.51732 0
M  V30 11282 H 1084.07 5.58892 -2.3606 0
M  V30 11283 H 1082.81 4.62843 -1.53712 0
M  V30 11284 H 1081.82 4.01291 -3.75827 0
M  V30 11285 H 1083.04 5.00741 -4.58732 0
M  V30 11286 H 1080.99 6.02765 -2.58864 0
M  V30 11287 H 1080.91 6.21104 -4.31005 0
M  V30 11288 H 1082.17 7.00317 -3.42311 0
M  V30 11289 N 1086.4 1.28806 0.908124 0
M  V30 11290 C 1087.37 1.13228 1.99279 0
M  V30 11291 C 1088.37 0.0702456 1.60646 0
M  V30 11292 O 1089.56 0.316494 1.71301 0
M  V30 11293 C 1086.69 0.729629 3.33 0
M  V30 11294 H 1087.88 2.09566 2.14528 0
M  V30 11295 H 1085.43 1.11872 1.09153 0
M  V30 11296 H 1086.17 -0.234268 3.23453 0
M  V30 11297 H 1085.95 1.49688 3.62403 0
M  V30 11298 H 1087.44 0.643449 4.12613 0
M  V30 11299 N 1087.88 -1.11734 1.11145 0
M  V30 11300 C 1088.81 -2.17438 0.724804 0
M  V30 11301 C 1089.83 -1.6099 -0.242069 0
M  V30 11302 O 1091.02 -1.78482 -0.0254259 0
M  V30 11303 C 1088.12 -3.38863 0.050004 0
M  V30 11304 C 1087.29 -4.24785 1.04292 0
M  V30 11305 C 1086.35 -5.24691 0.398243 0
M  V30 11306 O 1085.37 -5.59408 1.05125 0
M  V30 11307 N 1086.58 -5.74388 -0.840184 0
M  V30 11308 H 1089.34 -2.51219 1.63429 0
M  V30 11309 H 1086.9 -1.27226 1.00125 0
M  V30 11310 H 1088.89 -4.02788 -0.392929 0
M  V30 11311 H 1087.46 -3.0317 -0.762005 0
M  V30 11312 H 1086.68 -3.57363 1.6639 0
M  V30 11313 H 1087.97 -4.79033 1.71478 0
M  V30 11314 H 1087.37 -5.48359 -1.38994 0
M  V30 11315 H 1085.93 -6.40163 -1.22615 0
M  V30 11316 N 1089.36 -0.901303 -1.29284 0
M  V30 11317 C 1090.32 -0.385081 -2.25942 0
M  V30 11318 C 1091.32 0.481626 -1.53418 0
M  V30 11319 O 1092.51 0.286451 -1.71829 0
M  V30 11320 C 1089.64 0.449319 -3.37926 0
M  V30 11321 H 1090.84 -1.23877 -2.7312 0
M  V30 11322 H 1088.39 -0.679586 -1.40753 0
M  V30 11323 H 1089.13 1.32292 -2.9609 0
M  V30 11324 H 1088.91 -0.171731 -3.91724 0
M  V30 11325 H 1090.4 0.801746 -4.09831 0
M  V30 11326 N 1090.84 1.42931 -0.663954 0
M  V30 11327 C 1091.77 2.33499 0.00731327 0
M  V30 11328 C 1092.75 1.50074 0.800733 0
M  V30 11329 O 1093.93 1.78708 0.760062 0
M  V30 11330 C 1091.06 3.33569 0.966897 0
M  V30 11331 C 1090.02 4.27064 0.282839 0
M  V30 11332 C 1089.34 5.17257 1.35461 0
M  V30 11333 C 1090.64 5.1564 -0.831438 0
M  V30 11334 H 1092.34 2.89879 -0.749044 0
M  V30 11335 H 1089.88 1.39385 -0.361656 0
M  V30 11336 H 1091.84 3.95833 1.44549 0
M  V30 11337 H 1090.56 2.75469 1.75455 0
M  V30 11338 H 1089.22 3.6618 -0.175417 0
M  V30 11339 H 1088.87 4.5549 2.13397 0
M  V30 11340 H 1088.57 5.80634 0.902098 0
M  V30 11341 H 1090.09 5.82395 1.83436 0
M  V30 11342 H 1091.51 5.71651 -0.434534 0
M  V30 11343 H 1089.9 5.87794 -1.20908 0
M  V30 11344 H 1090.97 4.54687 -1.68487 0
M  V30 11345 N 1092.32 0.406567 1.52266 0
M  V30 11346 C 1093.56 -0.169717 2.01386 0
M  V30 11347 C 1093.88 -1.45864 1.29417 0
M  V30 11348 O 1093.15 -1.9136 0.419327 0
M  V30 11349 H 1091.73 -0.0657075 0.744105 0
M  V30 11350 H 1094.4 0.542221 1.87206 0
M  V30 11351 H 1093.49 -0.367659 3.09927 0
M  V30 11352 N 1093.79 -1.57004 0.136909 0
M  V30 11353 C 1095.04 -1.96087 -0.517477 0
M  V30 11354 C 1095.37 -1.0213 -1.65176 0
M  V30 11355 O 1094.65 -0.0617958 -1.94402 0
M  V30 11356 C 1094.93 -3.44958 -1.03323 0
M  V30 11357 C 1094.78 -4.49691 0.0988609 0
M  V30 11358 C 1096.1 -3.96091 -1.91832 0
M  V30 11359 H 1093.22 -0.712978 -0.186632 0
M  V30 11360 H 1095.86 -1.88767 0.216095 0
M  V30 11361 H 1094.01 -3.51327 -1.65836 0
M  V30 11362 H 1095.69 -4.55409 0.734847 0
M  V30 11363 H 1093.93 -4.271 0.75947 0
M  V30 11364 H 1094.6 -5.51165 -0.303554 0
M  V30 11365 H 1097.08 -3.92139 -1.39164 0
M  V30 11366 H 1095.95 -5.00742 -2.24831 0
M  V30 11367 H 1096.21 -3.37846 -2.85153 0
M  V30 11368 N 1095.27 0.136881 -1.57004 0
M  V30 11369 C 1096.5 0.866405 -1.88436 0
M  V30 11370 C 1096.92 1.73483 -0.727006 0
M  V30 11371 O 1096.28 1.78398 0.323094 0
M  V30 11372 C 1096.33 1.69059 -3.18514 0
M  V30 11373 O 1095.43 2.79584 -3.03161 0
M  V30 11374 H 1094.77 0.240709 -0.618834 0
M  V30 11375 H 1097.3 0.124653 -2.0422 0
M  V30 11376 H 1097.31 2.08353 -3.50789 0
M  V30 11377 H 1095.99 1.05296 -4.0235 0
M  V30 11378 H 1094.57 2.43623 -2.82315 0
M  V30 11379 N 1096.75 1.52266 0.40654 0
M  V30 11380 C 1098 1.6568 1.15035 0
M  V30 11381 C 1098.31 0.394135 1.91588 0
M  V30 11382 O 1099.52 0.408113 2.68415 0
M  V30 11383 C 1097.97 2.92725 2.0938 0
M  V30 11384 C 1097.58 4.26108 1.38332 0
M  V30 11385 C 1099.33 3.15502 2.84004 0
M  V30 11386 C 1097.23 5.44275 2.3134 0
M  V30 11387 H 1096.16 0.61719 0.43312 0
M  V30 11388 H 1098.81 1.78755 0.414598 0
M  V30 11389 H 1097.2 2.73355 2.86519 0
M  V30 11390 H 1098.37 4.55971 0.665396 0
M  V30 11391 H 1096.69 4.09454 0.757384 0
M  V30 11392 H 1099.28 4.00964 3.5374 0
M  V30 11393 H 1099.63 2.29842 3.471 0
M  V30 11394 H 1100.16 3.35357 2.13964 0
M  V30 11395 H 1096.9 6.3229 1.72887 0
M  V30 11396 H 1096.42 5.18749 3.01098 0
M  V30 11397 H 1098.1 5.77457 2.91809 0
M  V30 11398 N 1098.23 -0.663929 1.42933 0
M  V30 11399 C 1099.18 -1.79843 1.4751 0
M  V30 11400 C 1100.17 -1.65751 0.349727 0
M  V30 11401 O 1101.38 -1.72227 0.523239 0
M  V30 11402 H 1097.75 -0.593176 0.462219 0
M  V30 11403 H 1099.72 -1.73102 2.4306 0
M  V30 11404 C 1098.47 -3.18053 1.4049 0
M  V30 11405 H 1097.79 -3.29529 2.26386 0
M  V30 11406 H 1099.23 -3.97423 1.47754 0
M  V30 11407 C 1097.69 -3.36682 0.121076 0
M  V30 11408 O 1098.22 -3.93202 -0.821874 0
M  V30 11409 N 1096.43 -2.90579 0.0347141 0
M  V30 11410 H 1095.98 -2.44769 0.802852 0
M  V30 11411 H 1095.93 -3.03421 -0.823607 0
M  V30 11412 N 1099.71 -1.29285 -0.901281 0
M  V30 11413 C 1100.98 -1.07847 -1.63182 0
M  V30 11414 C 1101.36 0.377927 -2.07689 0
M  V30 11415 O 1100.71 1.36642 -1.83143 0
M  V30 11416 C 1100.92 -2.06457 -2.81383 0
M  V30 11417 C 1102.27 -2.37289 -3.52107 0
M  V30 11418 O 1103.29 -2.0464 -2.91549 0
M  V30 11419 O 1102.15 -2.93067 -4.61274 0
M  V30 11420 H 1099.25 -0.413073 -0.71645 0
M  V30 11421 H 1101.79 -1.40651 -0.949488 0
M  V30 11422 H 1100.56 -3.04561 -2.4568 0
M  V30 11423 H 1100.19 -1.74374 -3.57323 0
M  V30 11424 N 1101.18 1.11143 -1.11736 0
M  V30 11425 C 1102.43 1.82311 -0.862875 0
M  V30 11426 C 1102.75 1.85735 0.613326 0
M  V30 11427 O 1103.95 2.53034 0.984168 0
M  V30 11428 C 1102.41 3.27427 -1.49396 0
M  V30 11429 C 1102.02 3.32323 -3.00443 0
M  V30 11430 C 1103.76 4.03474 -1.31944 0
M  V30 11431 C 1101.67 4.71855 -3.56521 0
M  V30 11432 H 1100.6 0.683124 -0.31915 0
M  V30 11433 H 1103.25 1.25045 -1.34298 0
M  V30 11434 H 1101.63 3.84644 -0.941528 0
M  V30 11435 H 1102.8 2.84971 -3.62117 0
M  V30 11436 H 1101.12 2.69758 -3.17206 0
M  V30 11437 H 1103.72 5.06528 -1.71271 0
M  V30 11438 H 1104.06 4.15473 -0.262339 0
M  V30 11439 H 1104.59 3.52652 -1.84069 0
M  V30 11440 H 1101.33 4.65054 -4.61958 0
M  V30 11441 H 1100.85 5.19604 -2.99619 0
M  V30 11442 H 1102.53 5.40816 -3.55144 0
M  V30 11443 N 1102.66 0.908147 1.28804 0
M  V30 11444 C 1103.61 0.382315 2.29437 0
M  V30 11445 C 1104.6 -0.523033 1.61123 0
M  V30 11446 O 1105.81 -0.404898 1.75387 0
M  V30 11447 H 1102.19 0.105022 0.74463 0
M  V30 11448 H 1104.16 1.24425 2.71221 0
M  V30 11449 C 1102.91 -0.367475 3.45753 0
M  V30 11450 H 1102.23 0.319957 3.98518 0
M  V30 11451 H 1103.67 -0.700131 4.1818 0
M  V30 11452 C 1102.13 -1.57329 2.97908 0
M  V30 11453 O 1102.66 -2.67248 2.99902 0
M  V30 11454 N 1100.86 -1.41835 2.53636 0
M  V30 11455 H 1100.41 -0.524099 2.52212 0
M  V30 11456 H 1100.37 -2.22645 2.21984 0
M  V30 11457 N 1104.14 -1.42577 0.671525 0
M  V30 11458 C 1105.37 -2.05924 0.200731 0
M  V30 11459 C 1105.78 -1.50434 -1.14083 0
M  V30 11460 O 1105.14 -0.642845 -1.70803 0
M  V30 11461 C 1105.19 -3.61289 0.123505 0
M  V30 11462 O 1104.91 -4.1472 1.41205 0
M  V30 11463 C 1106.41 -4.41743 -0.371178 0
M  V30 11464 H 1103.63 -0.663746 0.0983958 0
M  V30 11465 H 1106.18 -1.82771 0.917338 0
M  V30 11466 H 1104.33 -3.83565 -0.543769 0
M  V30 11467 H 1104.75 -5.0856 1.28325 0
M  V30 11468 H 1106.22 -5.50731 -0.374128 0
M  V30 11469 H 1106.7 -4.16092 -1.40585 0
M  V30 11470 H 1107.3 -4.24478 0.264244 0
M  V30 11471 N 1105.62 -0.414636 -1.52048 0
M  V30 11472 C 1106.85 0.158686 -2.06291 0
M  V30 11473 C 1107.26 1.38397 -1.2842 0
M  V30 11474 O 1106.62 1.79351 -0.337539 0
M  V30 11475 C 1106.67 0.503634 -3.57975 0
M  V30 11476 O 1106.39 -0.672996 -4.329 0
M  V30 11477 C 1107.89 1.13009 -4.28653 0
M  V30 11478 H 1105.11 0.0179622 -0.67076 0
M  V30 11479 H 1107.66 -0.587177 -1.95889 0
M  V30 11480 H 1105.81 1.19939 -3.68366 0
M  V30 11481 H 1106.22 -0.383735 -5.23094 0
M  V30 11482 H 1107.7 1.32162 -5.35945 0
M  V30 11483 H 1108.18 2.10476 -3.85482 0
M  V30 11484 H 1108.78 0.474379 -4.22646 0
M  V30 11485 N 1107.1 1.56929 -0.145233 0
M  V30 11486 C 1108.03 2.19685 0.791263 0
M  V30 11487 C 1109.01 1.14455 1.25833 0
M  V30 11488 O 1110.19 1.42791 1.31622 0
M  V30 11489 C 1107.32 2.81705 2.03124 0
M  V30 11490 C 1106.28 3.92746 1.70101 0
M  V30 11491 C 1105.6 4.41694 3.01347 0
M  V30 11492 C 1106.9 5.13606 0.949025 0
M  V30 11493 H 1108.6 2.98196 0.26825 0
M  V30 11494 H 1106.14 1.43434 0.127584 0
M  V30 11495 H 1108.1 3.24273 2.69119 0
M  V30 11496 H 1106.82 2.00523 2.57795 0
M  V30 11497 H 1105.48 3.50794 1.06486 0
M  V30 11498 H 1105.13 3.57336 3.54006 0
M  V30 11499 H 1104.83 5.1659 2.80016 0
M  V30 11500 H 1106.35 4.86931 3.68416 0
M  V30 11501 H 1107.76 5.53029 1.51102 0
M  V30 11502 H 1106.16 5.94252 0.835711 0
M  V30 11503 H 1107.23 4.84863 -0.0595631 0
M  V30 11504 N 1108.58 -0.128553 1.57075 0
M  V30 11505 C 1109.82 -0.836355 1.83982 0
M  V30 11506 C 1110.14 -1.80862 0.728971 0
M  V30 11507 O 1109.41 -1.94326 -0.247859 0
M  V30 11508 H 1107.99 -0.31185 0.678792 0
M  V30 11509 H 1110.66 -0.118153 1.94542 0
M  V30 11510 H 1109.75 -1.38741 2.79567 0
M  V30 11511 N 1110.05 -1.5248 -0.398459 0
M  V30 11512 C 1111.02 -1.75949 -1.46883 0
M  V30 11513 C 1112.02 -0.629431 -1.47969 0
M  V30 11514 O 1113.21 -0.897407 -1.49306 0
M  V30 11515 C 1110.34 -1.85162 -2.8623 0
M  V30 11516 H 1111.53 -2.71513 -1.2736 0
M  V30 11517 H 1109.08 -1.43058 -0.629619 0
M  V30 11518 H 1109.82 -0.915505 -3.11109 0
M  V30 11519 H 1109.6 -2.67326 -2.86844 0
M  V30 11520 H 1111.09 -2.05025 -3.63805 0
M  V30 11521 N 1111.53 0.65634 -1.43283 0
M  V30 11522 C 1112.49 1.75117 -1.47874 0
M  V30 11523 C 1113.49 1.56629 -0.363846 0
M  V30 11524 O 1114.68 1.62584 -0.625464 0
M  V30 11525 C 1111.82 3.13957 -1.32831 0
M  V30 11526 H 1113.01 1.72429 -2.45374 0
M  V30 11527 H 1110.56 0.867704 -1.30002 0
M  V30 11528 H 1111.3 3.22259 -0.36326 0
M  V30 11529 H 1111.08 3.28781 -2.13649 0
M  V30 11530 H 1112.57 3.93799 -1.38969 0
M  V30 11531 N 1113.01 1.29761 0.894412 0
M  V30 11532 C 1114.26 1.19224 1.64794 0
M  V30 11533 C 1114.61 -0.252648 1.90734 0
M  V30 11534 O 1113.9 -1.17881 1.51045 0
M  V30 11535 C 1114.1 1.94458 2.99868 0
M  V30 11536 C 1113.93 3.46115 2.87114 0
M  V30 11537 C 1112.7 4.15469 2.87599 0
M  V30 11538 C 1114.89 4.41518 2.63754 0
M  V30 11539 N 1112.88 5.53453 2.65637 0
M  V30 11540 C 1114.25 5.66999 2.50823 0
M  V30 11541 C 1116.3 4.31221 2.48903 0
M  V30 11542 C 1115.01 6.83351 2.24554 0
M  V30 11543 C 1117.03 5.4733 2.24018 0
M  V30 11544 C 1116.39 6.71786 2.11856 0
M  V30 11545 H 1112.49 0.491294 0.608403 0
M  V30 11546 H 1115.08 1.63656 1.05474 0
M  V30 11547 H 1113.25 1.52432 3.57238 0
M  V30 11548 H 1114.98 1.76142 3.64357 0
M  V30 11549 H 1111.73 3.67217 2.9908 0
M  V30 11550 H 1112.16 6.26037 2.57695 0
M  V30 11551 H 1116.8 3.35689 2.57046 0
M  V30 11552 H 1114.52 7.78933 2.15149 0
M  V30 11553 H 1118.1 5.41265 2.13363 0
M  V30 11554 H 1116.98 7.60113 1.92867 0
M  V30 11555 N 1114.49 -1.10549 1.12324 0
M  V30 11556 C 1115.74 -1.82124 0.876083 0
M  V30 11557 C 1116.06 -1.85547 -0.599761 0
M  V30 11558 O 1115.33 -1.33269 -1.43584 0
M  V30 11559 H 1113.91 -0.674455 0.321122 0
M  V30 11560 H 1116.57 -1.33766 1.41748 0
M  V30 11561 H 1115.66 -2.85688 1.25653 0
M  V30 11562 N 1115.97 -0.914965 -1.28321 0
M  V30 11563 C 1117.21 -0.547665 -1.94538 0
M  V30 11564 C 1117.53 0.911834 -1.72368 0
M  V30 11565 O 1116.8 1.64481 -1.06408 0
M  V30 11566 H 1115.38 -0.199549 -0.719853 0
M  V30 11567 H 1118.05 -1.16459 -1.5628 0
M  V30 11568 H 1117.14 -0.743138 -3.03124 0
M  V30 11569 N 1117.44 1.42219 -0.679077 0
M  V30 11570 C 1118.67 2.06333 -0.210097 0
M  V30 11571 C 1119.09 1.50703 1.12562 0
M  V30 11572 O 1118.45 0.627241 1.70104 0
M  V30 11573 C 1118.5 3.60243 -0.160322 0
M  V30 11574 O 1117.6 4.03122 0.869872 0
M  V30 11575 H 1116.94 0.655362 -0.106754 0
M  V30 11576 H 1119.47 1.82278 -0.929294 0
M  V30 11577 H 1119.48 4.07997 0.014384 0
M  V30 11578 H 1118.16 4.00106 -1.13526 0
M  V30 11579 H 1116.74 3.66907 0.66586 0
M  V30 11580 N 1118.92 0.422693 1.51826 0
M  V30 11581 C 1120.15 -0.14753 2.06073 0
M  V30 11582 C 1120.56 -1.38264 1.2915 0
M  V30 11583 O 1119.9 -1.8052 0.340306 0
M  V30 11584 C 1119.96 -0.549558 3.55275 0
M  V30 11585 C 1119.63 0.576704 4.53347 0
M  V30 11586 C 1120.63 1.44442 4.99432 0
M  V30 11587 C 1118.31 0.753264 4.9662 0
M  V30 11588 C 1120.3 2.47352 5.87448 0
M  V30 11589 C 1117.99 1.78566 5.84429 0
M  V30 11590 C 1118.99 2.64419 6.29739 0
M  V30 11591 O 1118.68 3.65888 7.15808 0
M  V30 11592 H 1118.41 -0.0178911 0.675763 0
M  V30 11593 H 1120.96 0.596258 1.96555 0
M  V30 11594 H 1119.19 -1.34583 3.62525 0
M  V30 11595 H 1120.88 -1.04925 3.92104 0
M  V30 11596 H 1121.65 1.31948 4.66706 0
M  V30 11597 H 1117.53 0.0946405 4.60903 0
M  V30 11598 H 1121.07 3.14397 6.22736 0
M  V30 11599 H 1116.97 1.91086 6.16568 0
M  V30 11600 H 1117.74 3.62294 7.33952 0
M  V30 11601 N 1120.4 -1.5685 0.153553 0
M  V30 11602 C 1121.65 -1.96625 -0.49665 0
M  V30 11603 C 1121.98 -1.03877 -1.64083 0
M  V30 11604 O 1121.25 -0.0824112 -1.94325 0
M  V30 11605 C 1121.54 -3.46035 -0.996585 0
M  V30 11606 C 1121.39 -4.49561 0.146551 0
M  V30 11607 C 1122.71 -3.98104 -1.8762 0
M  V30 11608 H 1119.83 -0.714917 -0.179059 0
M  V30 11609 H 1122.47 -1.88527 0.236104 0
M  V30 11610 H 1120.62 -3.53066 -1.621 0
M  V30 11611 H 1122.29 -4.54604 0.783108 0
M  V30 11612 H 1120.53 -4.26271 0.804727 0
M  V30 11613 H 1121.21 -5.51456 -0.245078 0
M  V30 11614 H 1123.68 -3.93593 -1.34997 0
M  V30 11615 H 1122.56 -5.03098 -2.19508 0
M  V30 11616 H 1122.82 -3.40852 -2.81554 0
M  V30 11617 N 1121.88 0.120221 -1.57141 0
M  V30 11618 C 1122.83 1.16654 -2.01233 0
M  V30 11619 C 1123.82 1.42943 -0.909053 0
M  V30 11620 O 1125.03 1.4292 -1.09426 0
M  V30 11621 H 1121.4 0.393289 -0.640958 0
M  V30 11622 H 1123.37 0.768156 -2.88343 0
M  V30 11623 C 1122.12 2.4854 -2.43152 0
M  V30 11624 H 1121.44 2.29149 -3.27614 0
M  V30 11625 H 1122.88 3.20315 -2.77802 0
M  V30 11626 C 1121.34 3.1103 -1.29468 0
M  V30 11627 O 1121.87 3.97042 -0.609982 0
M  V30 11628 N 1120.08 2.70888 -1.05205 0
M  V30 11629 H 1119.63 2.01039 -1.61062 0
M  V30 11630 H 1119.58 3.13028 -0.293347 0
M  V30 11631 N 1123.36 1.52689 0.390367 0
M  V30 11632 C 1124.63 1.58246 1.14968 0
M  V30 11633 C 1125.01 0.374808 2.07746 0
M  V30 11634 O 1124.36 -0.636969 2.19442 0
M  V30 11635 C 1124.57 2.92059 1.91056 0
M  V30 11636 C 1125.92 3.45745 2.46466 0
M  V30 11637 O 1126.94 2.93924 2.01214 0
M  V30 11638 O 1125.8 4.3628 3.29122 0
M  V30 11639 H 1122.9 0.638189 0.52597 0
M  V30 11640 H 1125.44 1.65024 0.39563 0
M  V30 11641 H 1124.21 3.71399 1.23201 0
M  V30 11642 H 1123.84 2.8866 2.73425 0
M  V30 11643 N 1124.83 -0.648732 1.43629 0
M  V30 11644 C 1126.08 -1.40857 1.45483 0
M  V30 11645 C 1126.41 -1.94332 0.0807963 0
M  V30 11646 O 1125.66 -1.72999 -0.914875 0
M  V30 11647 C 1125.96 -2.60394 2.44806 0
M  V30 11648 C 1125.63 -2.25311 3.90571 0
M  V30 11649 C 1124.29 -2.15456 4.3027 0
M  V30 11650 C 1126.64 -1.97307 4.8241 0
M  V30 11651 C 1123.97 -1.75759 5.59755 0
M  V30 11652 C 1126.32 -1.59108 6.12264 0
M  V30 11653 C 1124.99 -1.47781 6.50936 0
M  V30 11654 H 1124.26 -0.515434 0.532362 0
M  V30 11655 H 1126.9 -0.737339 1.76736 0
M  V30 11656 H 1125.21 -3.3267 2.06973 0
M  V30 11657 H 1126.91 -3.18609 2.43494 0
M  V30 11658 H 1123.5 -2.33894 3.59154 0
M  V30 11659 H 1127.68 -2.0384 4.52507 0
M  V30 11660 H 1122.94 -1.65579 5.88552 0
M  V30 11661 H 1127.11 -1.36472 6.82897 0
M  V30 11662 H 1124.74 -1.16792 7.51175 0
M  V30 11663 N 1126.31 -1.30234 -0.887518 0
M  V30 11664 C 1127.56 -1.18277 -1.63381 0
M  V30 11665 C 1127.87 0.262079 -1.93836 0
M  V30 11666 O 1129.08 0.503127 -2.66797 0
M  V30 11667 C 1127.54 -2.06944 -2.94452 0
M  V30 11668 C 1127.14 -3.56323 -2.71547 0
M  V30 11669 C 1128.89 -2.03743 -3.7241 0
M  V30 11670 C 1126.8 -4.37054 -3.98419 0
M  V30 11671 H 1125.73 -0.439087 -0.612959 0
M  V30 11672 H 1128.38 -1.54964 -0.982779 0
M  V30 11673 H 1126.76 -1.63138 -3.60835 0
M  V30 11674 H 1127.93 -4.08261 -2.13681 0
M  V30 11675 H 1126.25 -3.61321 -2.06969 0
M  V30 11676 H 1128.84 -2.61312 -4.66497 0
M  V30 11677 H 1129.19 -1.02029 -4.03603 0
M  V30 11678 H 1129.72 -2.45657 -3.12886 0
M  V30 11679 H 1126.46 -5.39453 -3.72385 0
M  V30 11680 H 1125.98 -3.89881 -4.55799 0
M  V30 11681 H 1127.66 -4.48356 -4.66462 0
M  V30 11682 N 1127.79 1.09952 -1.12909 0
M  V30 11683 C 1129.07 1.78547 -0.798767 0
M  V30 11684 C 1129.45 1.9878 0.710624 0
M  V30 11685 O 1128.8 1.58485 1.64604 0
M  V30 11686 C 1129.01 3.1121 -1.57953 0
M  V30 11687 C 1130.35 3.86006 -1.76874 0
M  V30 11688 O 1131.38 3.20946 -1.54506 0
M  V30 11689 O 1130.24 5.02791 -2.14158 0
M  V30 11690 H 1127.33 0.774084 -0.291072 0
M  V30 11691 H 1129.88 1.16557 -1.2334 0
M  V30 11692 H 1128.65 2.91935 -2.60557 0
M  V30 11693 H 1128.27 3.80922 -1.13948 0
M  V30 11694 N 1129.27 0.921757 1.27833 0
M  V30 11695 C 1130.68 0.621102 1.47019 0
M  V30 11696 C 1130.88 -0.831338 1.83551 0
M  V30 11697 O 1129.94 -1.60974 1.94534 0
M  V30 11698 C 1131.25 1.56588 2.56712 0
M  V30 11699 C 1132.8 1.57346 2.70576 0
M  V30 11700 C 1133.28 2.50505 3.8342 0
M  V30 11701 N 1134.77 2.48678 3.90786 0
M  V30 11702 C 1135.5 3.17454 4.77505 0
M  V30 11703 N 1135 3.95588 5.68755 0
M  V30 11704 N 1136.79 3.06501 4.71183 0
M  V30 11705 H 1128.94 1.86085 1.02403 0
M  V30 11706 H 1131.21 0.798595 0.510833 0
M  V30 11707 H 1130.91 2.60175 2.36647 0
M  V30 11708 H 1130.79 1.30305 3.53978 0
M  V30 11709 H 1133.17 0.544919 2.90025 0
M  V30 11710 H 1133.25 1.87675 1.73815 0
M  V30 11711 H 1132.9 3.53466 3.64725 0
M  V30 11712 H 1132.83 2.17474 4.79596 0
M  V30 11713 H 1135.32 1.91928 3.25534 0
M  V30 11714 H 1135.63 4.45066 6.31772 0
M  V30 11715 H 1133.98 3.99692 5.6857 0
M  V30 11716 H 1137.17 2.44958 3.9889 0
M  V30 11717 H 1137.34 3.60372 5.3855 0
M  V30 11718 N 1130.75 -1.41857 0.686609 0
M  V30 11719 C 1131.99 -2.0097 0.213378 0
M  V30 11720 C 1132.32 -1.54618 -1.1882 0
M  V30 11721 O 1131.59 -0.772916 -1.80008 0
M  V30 11722 H 1130.17 -0.743134 0.0758968 0
M  V30 11723 H 1132.83 -1.73609 0.885763 0
M  V30 11724 H 1131.92 -3.11296 0.223826 0
M  V30 11725 N 1132.22 -0.430739 -1.51599 0
M  V30 11726 C 1133.64 -0.0826902 -1.59386 0
M  V30 11727 C 1133.84 1.40729 -1.44214 0
M  V30 11728 O 1132.9 2.1765 -1.28002 0
M  V30 11729 C 1134.21 -0.59691 -2.94716 0
M  V30 11730 C 1135.76 -0.556772 -3.08008 0
M  V30 11731 C 1136.23 -1.04786 -4.45852 0
M  V30 11732 N 1137.72 -1.00557 -4.52153 0
M  V30 11733 C 1138.46 -1.35649 -5.57124 0
M  V30 11734 N 1137.95 -1.77994 -6.69545 0
M  V30 11735 N 1139.75 -1.27508 -5.47447 0
M  V30 11736 H 1131.9 -1.40027 -1.59707 0
M  V30 11737 H 1134.16 -0.576606 -0.752482 0
M  V30 11738 H 1133.87 -1.63914 -3.11167 0
M  V30 11739 H 1133.74 -0.0182342 -3.77196 0
M  V30 11740 H 1136.13 0.476457 -2.91228 0
M  V30 11741 H 1136.21 -1.17177 -2.27383 0
M  V30 11742 H 1135.85 -2.07952 -4.63377 0
M  V30 11743 H 1135.78 -0.409461 -5.25006 0
M  V30 11744 H 1138.27 -0.694518 -3.71463 0
M  V30 11745 H 1138.59 -2.03026 -7.45654 0
M  V30 11746 H 1136.93 -1.81916 -6.70769 0
M  V30 11747 H 1140.12 -0.942969 -4.58504 0
M  V30 11748 H 1140.3 -1.55185 -6.29143 0
M  V30 11749 N 1133.7 1.56767 -0.161869 0
M  V30 11750 C 1134.95 1.96885 0.486215 0
M  V30 11751 C 1135.28 1.04745 1.6353 0
M  V30 11752 O 1134.56 0.0927156 1.94279 0
M  V30 11753 C 1134.84 3.46559 0.97822 0
M  V30 11754 C 1134.69 4.49477 -0.17039 0
M  V30 11755 C 1136.01 3.99093 1.85506 0
M  V30 11756 H 1133.13 0.715857 0.175265 0
M  V30 11757 H 1135.77 1.88399 -0.246098 0
M  V30 11758 H 1133.92 3.53921 1.60225 0
M  V30 11759 H 1135.59 4.54183 -0.807205 0
M  V30 11760 H 1133.84 4.25838 -0.827322 0
M  V30 11761 H 1134.51 5.51578 0.21583 0
M  V30 11762 H 1136.98 3.94303 1.32908 0
M  V30 11763 H 1135.86 5.04255 2.16837 0
M  V30 11764 H 1136.12 3.4234 2.79742 0
M  V30 11765 N 1135.18 -0.111886 1.57202 0
M  V30 11766 C 1136.13 -1.13688 2.00858 0
M  V30 11767 C 1137.1 -1.40752 0.881939 0
M  V30 11768 O 1138.28 -1.52498 1.14669 0
M  V30 11769 C 1135.42 -2.45641 2.42393 0
M  V30 11770 C 1134.54 -2.25452 3.68504 0
M  V30 11771 C 1133.67 -3.50686 3.9899 0
M  V30 11772 C 1132.71 -3.25685 5.18262 0
M  V30 11773 N 1131.85 -4.4314 5.44583 0
M  V30 11774 H 1136.69 -0.757611 2.88209 0
M  V30 11775 H 1134.22 -0.362582 1.42561 0
M  V30 11776 H 1136.18 -3.22627 2.64514 0
M  V30 11777 H 1134.81 -2.81447 1.58074 0
M  V30 11778 H 1133.86 -1.39349 3.53958 0
M  V30 11779 H 1135.18 -2.0296 4.55641 0
M  V30 11780 H 1134.33 -4.36087 4.21797 0
M  V30 11781 H 1133.07 -3.76216 3.10343 0
M  V30 11782 H 1132.07 -2.38675 4.95292 0
M  V30 11783 H 1133.3 -3.01518 6.08493 0
M  V30 11784 H 1131.24 -4.68778 4.58893 0
M  V30 11785 H 1131.16 -4.23778 6.26058 0
M  V30 11786 H 1132.43 -5.29654 5.71915 0
M  V30 11787 N 1136.66 -1.52894 -0.382264 0
M  V30 11788 C 1137.61 -1.78151 -1.46734 0
M  V30 11789 C 1138.58 -0.625034 -1.53891 0
M  V30 11790 O 1139.76 -0.865467 -1.70042 0
M  V30 11791 C 1136.9 -1.96223 -2.83885 0
M  V30 11792 C 1136.01 -3.23925 -2.85826 0
M  V30 11793 C 1135.15 -3.32277 -4.14446 0
M  V30 11794 C 1134.19 -4.54076 -4.10465 0
M  V30 11795 N 1133.32 -4.59672 -5.30703 0
M  V30 11796 H 1138.16 -2.70748 -1.24497 0
M  V30 11797 H 1135.7 -1.34135 -0.603838 0
M  V30 11798 H 1137.66 -2.04686 -3.63537 0
M  V30 11799 H 1136.29 -1.0698 -3.04557 0
M  V30 11800 H 1135.34 -3.245 -1.98505 0
M  V30 11801 H 1136.65 -4.1364 -2.78754 0
M  V30 11802 H 1135.81 -3.3996 -5.02506 0
M  V30 11803 H 1134.55 -2.40548 -4.2425 0
M  V30 11804 H 1133.55 -4.46511 -3.20793 0
M  V30 11805 H 1134.78 -5.47128 -4.02278 0
M  V30 11806 H 1132.72 -3.70838 -5.41124 0
M  V30 11807 H 1132.64 -5.43268 -5.25734 0
M  V30 11808 H 1133.91 -4.71618 -6.20642 0
M  V30 11809 N 1138.14 0.641106 -1.43971 0
M  V30 11810 C 1139.38 1.40291 -1.46445 0
M  V30 11811 C 1139.72 1.93978 -0.0929004 0
M  V30 11812 O 1138.99 1.73043 0.888043 0
M  V30 11813 C 1139.27 2.57551 -2.51673 0
M  V30 11814 C 1139.13 2.09279 -3.98149 0
M  V30 11815 C 1140.45 3.59752 -2.53508 0
M  V30 11816 H 1137.57 0.508771 -0.533218 0
M  V30 11817 H 1140.21 0.725767 -1.75592 0
M  V30 11818 H 1138.36 3.15319 -2.2695 0
M  V30 11819 H 1140.03 1.56418 -4.33971 0
M  V30 11820 H 1138.27 1.40545 -4.10402 0
M  V30 11821 H 1138.94 2.93655 -4.67409 0
M  V30 11822 H 1141.42 3.11766 -2.75574 0
M  V30 11823 H 1140.3 4.39332 -3.29057 0
M  V30 11824 H 1140.56 4.13156 -1.57335 0
M  V30 11825 N 1139.62 1.30703 0.880598 0
M  V30 11826 C 1140.85 1.22536 1.66339 0
M  V30 11827 C 1141.25 -0.213507 1.87991 0
M  V30 11828 O 1140.6 -1.15236 1.43061 0
M  V30 11829 C 1140.66 1.88798 3.05934 0
M  V30 11830 C 1140.32 3.38131 3.07435 0
M  V30 11831 C 1141.32 4.34053 2.86171 0
M  V30 11832 C 1139 3.79651 3.28893 0
M  V30 11833 C 1141 5.69469 2.86328 0
M  V30 11834 C 1138.69 5.15182 3.2868 0
M  V30 11835 C 1139.68 6.09902 3.07423 0
M  V30 11836 O 1139.37 7.42957 3.07034 0
M  V30 11837 H 1139.1 0.425018 0.525677 0
M  V30 11838 H 1141.66 1.72939 1.1082 0
M  V30 11839 H 1139.89 1.3293 3.63134 0
M  V30 11840 H 1141.58 1.74691 3.66385 0
M  V30 11841 H 1142.34 4.03307 2.69385 0
M  V30 11842 H 1138.22 3.06365 3.44473 0
M  V30 11843 H 1141.77 6.43375 2.69655 0
M  V30 11844 H 1137.66 5.45567 3.45002 0
M  V30 11845 H 1138.43 7.52 3.23169 0
M  V30 11846 N 1141.09 -1.09351 1.1349 0
M  V30 11847 C 1142.34 -1.81812 0.898452 0
M  V30 11848 C 1142.67 -1.85525 -0.573959 0
M  V30 11849 O 1141.95 -1.32403 -1.42477 0
M  V30 11850 C 1142.23 -3.27921 1.48794 0
M  V30 11851 C 1142.08 -3.32476 3.02952 0
M  V30 11852 C 1143.4 -4.24625 1.15678 0
M  V30 11853 H 1140.52 -0.660074 0.327829 0
M  V30 11854 H 1143.16 -1.28091 1.40331 0
M  V30 11855 H 1141.31 -3.738 1.05858 0
M  V30 11856 H 1142.99 -2.94994 3.54649 0
M  V30 11857 H 1141.23 -2.72037 3.37903 0
M  V30 11858 H 1141.9 -4.35409 3.39298 0
M  V30 11859 H 1144.38 -3.87036 1.52781 0
M  V30 11860 H 1143.25 -5.25194 1.59571 0
M  V30 11861 H 1143.51 -4.42044 0.0705933 0
M  V30 11862 N 1142.57 -0.928524 -1.27343 0
M  V30 11863 C 1143.5 -0.372628 -2.25137 0
M  V30 11864 C 1144.48 0.531468 -1.53669 0
M  V30 11865 O 1145.67 0.471788 -1.825 0
M  V30 11866 C 1142.79 0.465841 -3.35481 0
M  V30 11867 C 1141.84 -0.374941 -4.24849 0
M  V30 11868 S 1142.67 -1.791 -5.04662 0
M  V30 11869 C 1143.83 -0.960233 -6.1849 0
M  V30 11870 H 1144.06 -1.20147 -2.71941 0
M  V30 11871 H 1141.59 -0.730764 -1.36012 0
M  V30 11872 H 1143.55 0.943741 -3.99504 0
M  V30 11873 H 1142.21 1.26922 -2.87314 0
M  V30 11874 H 1141.41 0.266871 -5.03293 0
M  V30 11875 H 1141.01 -0.787045 -3.65625 0
M  V30 11876 H 1143.3 -0.196615 -6.77215 0
M  V30 11877 H 1144.24 -1.71771 -6.8695 0
M  V30 11878 H 1144.65 -0.501881 -5.62265 0
M  V30 11879 N 1144.05 1.41491 -0.694123 0
M  V30 11880 C 1145.27 2.06099 -0.23197 0
M  V30 11881 C 1145.7 1.51888 1.10958 0
M  V30 11882 O 1145.06 0.645247 1.69429 0
M  V30 11883 C 1145.11 3.60053 -0.198522 0
M  V30 11884 O 1144.21 4.04021 0.827067 0
M  V30 11885 H 1143.55 0.654193 -0.113699 0
M  V30 11886 H 1146.08 1.81282 -0.948575 0
M  V30 11887 H 1146.09 4.0799 -0.0288904 0
M  V30 11888 H 1144.77 3.98879 -1.17764 0
M  V30 11889 H 1143.34 3.67593 0.626908 0
M  V30 11890 N 1145.53 0.438773 1.51369 0
M  V30 11891 C 1146.44 -0.378074 2.31534 0
M  V30 11892 C 1147.45 -1.02632 1.40508 0
M  V30 11893 O 1148.63 -1.02138 1.73579 0
M  V30 11894 C 1145.69 -1.46374 3.14286 0
M  V30 11895 C 1144.76 -0.835473 4.21092 0
M  V30 11896 C 1143.99 -1.86941 4.99889 0
M  V30 11897 O 1144.21 -3.0918 4.79337 0
M  V30 11898 O 1143.15 -1.45914 5.83946 0
M  V30 11899 H 1146.97 0.276401 3.0244 0
M  V30 11900 H 1144.56 0.201281 1.48038 0
M  V30 11901 H 1146.44 -2.09335 3.65728 0
M  V30 11902 H 1145.11 -2.10227 2.46143 0
M  V30 11903 H 1144.02 -0.167775 3.73724 0
M  V30 11904 H 1145.35 -0.240406 4.91613 0
M  V30 11905 N 1147.01 -1.56678 0.170181 0
M  V30 11906 C 1147.97 -2.16698 -0.746622 0
M  V30 11907 C 1148.97 -1.11475 -1.15888 0
M  V30 11908 O 1150.16 -1.36994 -1.07602 0
M  V30 11909 C 1147.29 -2.74892 -2.01612 0
M  V30 11910 H 1148.48 -2.99061 -0.224135 0
M  V30 11911 H 1146.04 -1.56098 -0.0793761 0
M  V30 11912 H 1146.77 -1.96259 -2.58172 0
M  V30 11913 H 1146.56 -3.51896 -1.72949 0
M  V30 11914 H 1148.05 -3.21058 -2.67042 0
M  V30 11915 N 1148.48 0.103547 -1.57259 0
M  V30 11916 C 1149.43 1.12621 -2.01458 0
M  V30 11917 C 1150.4 1.40282 -0.889391 0
M  V30 11918 O 1151.59 1.51887 -1.15477 0
M  V30 11919 C 1148.73 2.44352 -2.43692 0
M  V30 11920 C 1147.84 2.23495 -3.69695 0
M  V30 11921 C 1146.97 3.48565 -4.00844 0
M  V30 11922 C 1146.01 3.22932 -5.19982 0
M  V30 11923 N 1145.15 4.40246 -5.46926 0
M  V30 11924 H 1149.99 0.742315 -2.88606 0
M  V30 11925 H 1147.53 0.355016 -1.42752 0
M  V30 11926 H 1149.48 3.2122 -2.66221 0
M  V30 11927 H 1148.11 2.80605 -1.59565 0
M  V30 11928 H 1147.17 1.3747 -3.54692 0
M  V30 11929 H 1148.48 2.0054 -4.56711 0
M  V30 11930 H 1147.63 4.33844 -4.24104 0
M  V30 11931 H 1146.37 3.74565 -3.12333 0
M  V30 11932 H 1145.38 2.36045 -4.96551 0
M  V30 11933 H 1146.6 2.98286 -6.10084 0
M  V30 11934 H 1144.55 4.66338 -4.61373 0
M  V30 11935 H 1144.46 4.20452 -6.28296 0
M  V30 11936 H 1145.73 5.26614 -5.74716 0
M  V30 11937 N 1149.96 1.53094 0.37415 0
M  V30 11938 C 1151.19 1.72508 1.13687 0
M  V30 11939 C 1151.6 0.449922 1.83773 0
M  V30 11940 O 1150.94 -0.586391 1.74089 0
M  V30 11941 C 1151 2.82965 2.21746 0
M  V30 11942 C 1150.67 4.23599 1.71501 0
M  V30 11943 C 1151.67 5.06245 1.1837 0
M  V30 11944 C 1149.35 4.69978 1.77273 0
M  V30 11945 C 1151.34 6.33357 0.71679 0
M  V30 11946 C 1149.03 5.9707 1.30194 0
M  V30 11947 C 1150.03 6.7859 0.774856 0
M  V30 11948 O 1149.72 8.03298 0.310981 0
M  V30 11949 H 1149.45 0.580611 0.346218 0
M  V30 11950 H 1152 2.00596 0.441614 0
M  V30 11951 H 1150.23 2.5033 2.9474 0
M  V30 11952 H 1151.92 2.90638 2.83345 0
M  V30 11953 H 1152.69 4.71591 1.13256 0
M  V30 11954 H 1148.57 4.06605 2.17241 0
M  V30 11955 H 1152.11 6.96934 0.30471 0
M  V30 11956 H 1148.01 6.31225 1.34999 0
M  V30 11957 H 1148.78 8.17364 0.431098 0
M  V30 11958 N 1151.44 -0.633461 1.44309 0
M  V30 11959 C 1152.86 -0.951379 1.28144 0
M  V30 11960 C 1153.06 -2.00344 0.215512 0
M  V30 11961 O 1152.11 -2.49321 -0.399389 0
M  V30 11962 C 1153.42 -1.41686 2.65227 0
M  V30 11963 C 1154.97 -1.53247 2.72918 0
M  V30 11964 C 1155.45 -2.03179 4.10466 0
M  V30 11965 N 1156.94 -2.10453 4.1263 0
M  V30 11966 C 1157.67 -2.50254 5.15907 0
M  V30 11967 N 1157.17 -2.89209 6.29547 0
M  V30 11968 N 1158.96 -2.50368 5.03262 0
M  V30 11969 H 1151.11 0.0623574 2.12308 0
M  V30 11970 H 1153.38 -0.0347244 0.947364 0
M  V30 11971 H 1153.08 -0.71814 3.4429 0
M  V30 11972 H 1152.96 -2.3883 2.91959 0
M  V30 11973 H 1155.34 -2.22216 1.94176 0
M  V30 11974 H 1155.42 -0.544836 2.4993 0
M  V30 11975 H 1155.07 -1.34806 4.89683 0
M  V30 11976 H 1155 -3.02809 4.3083 0
M  V30 11977 H 1157.49 -1.83042 3.30612 0
M  V30 11978 H 1157.8 -3.18386 7.04166 0
M  V30 11979 H 1156.15 -2.86966 6.32989 0
M  V30 11980 H 1159.34 -2.19324 4.13539 0
M  V30 11981 H 1159.51 -2.81062 5.83873 0
M  V30 11982 N 1152.92 -1.31168 -0.873655 0
M  V30 11983 C 1153.85 -1.12836 -1.98351 0
M  V30 11984 C 1154.83 -0.0328679 -1.62567 0
M  V30 11985 O 1156.01 -0.18859 -1.87554 0
M  V30 11986 C 1153.14 -0.72332 -3.30886 0
M  V30 11987 C 1152.19 -1.82132 -3.85656 0
M  V30 11988 S 1153.02 -3.42604 -4.11562 0
M  V30 11989 C 1154.18 -3.04028 -5.471 0
M  V30 11990 H 1154.41 -2.06793 -2.13597 0
M  V30 11991 H 1151.94 -1.15611 -1.0234 0
M  V30 11992 H 1153.9 -0.496371 -4.07488 0
M  V30 11993 H 1152.56 0.197077 -3.13481 0
M  V30 11994 H 1151.75 -1.49046 -4.81458 0
M  V30 11995 H 1151.36 -2.00314 -3.15833 0
M  V30 11996 H 1153.65 -2.52692 -6.28612 0
M  V30 11997 H 1154.59 -3.9878 -5.85133 0
M  V30 11998 H 1155 -2.41574 -5.10198 0
M  V30 11999 N 1154.4 1.08748 -1.14068 0
M  V30 12000 C 1155.33 2.17591 -0.84714 0
M  V30 12001 C 1156.31 1.68962 0.196415 0
M  V30 12002 O 1157.49 1.94125 0.0538415 0
M  V30 12003 C 1154.62 3.45823 -0.320005 0
M  V30 12004 C 1153.58 4.07824 -1.2986 0
M  V30 12005 C 1152.9 5.30965 -0.630925 0
M  V30 12006 C 1154.2 4.49512 -2.65963 0
M  V30 12007 H 1155.9 2.42404 -1.75729 0
M  V30 12008 H 1153.44 1.16502 -0.846356 0
M  V30 12009 H 1155.4 4.21276 -0.102271 0
M  V30 12010 H 1154.12 3.20553 0.625561 0
M  V30 12011 H 1152.78 3.34398 -1.50245 0
M  V30 12012 H 1152.43 5.01979 0.320337 0
M  V30 12013 H 1152.13 5.73402 -1.28388 0
M  V30 12014 H 1153.65 6.09136 -0.422635 0
M  V30 12015 H 1155.06 5.16159 -2.49506 0
M  V30 12016 H 1153.46 5.02857 -3.27498 0
M  V30 12017 H 1154.53 3.6157 -3.23102 0
M  V30 12018 N 1155.87 0.935264 1.26849 0
M  V30 12019 C 1157.29 0.623198 1.75992 0
M  V30 12020 C 1157.64 -0.861647 1.76267 0
M  V30 12021 O 1156.76 -1.6743 1.37099 0
M  V30 12022 C 1157.36 1.12451 3.19594 0
M  V30 12023 C 1155.92 0.862974 3.66374 0
M  V30 12024 C 1155.06 1.27886 2.4605 0
M  V30 12025 H 1158.01 1.11422 1.13008 0
M  V30 12026 H 1158.03 0.475626 3.77516 0
M  V30 12027 H 1157.55 2.20522 3.19361 0
M  V30 12028 H 1155.65 -0.203606 3.72043 0
M  V30 12029 H 1155.76 1.48582 4.55478 0
M  V30 12030 H 1154.12 0.697335 2.44968 0
M  V30 12031 H 1154.91 2.36837 2.48522 0
M  V30 12032 N 1157.35 -1.41121 0.701616 0
M  V30 12033 C 1158.63 -1.9492 0.162911 0
M  V30 12034 C 1159.01 -1.64064 -1.32839 0
M  V30 12035 O 1158.36 -0.950848 -2.07777 0
M  V30 12036 C 1158.57 -3.45946 0.460673 0
M  V30 12037 C 1159.92 -4.22789 0.391706 0
M  V30 12038 O 1160.94 -3.53993 0.395931 0
M  V30 12039 O 1159.8 -5.45332 0.357071 0
M  V30 12040 H 1156.89 -0.826793 0.0185103 0
M  V30 12041 H 1159.44 -1.50805 0.778192 0
M  V30 12042 H 1158.21 -3.61711 1.49269 0
M  V30 12043 H 1157.83 -3.97168 -0.185277 0
M  V30 12044 N 1158.83 -0.446794 -1.51134 0
M  V30 12045 C 1160.11 0.176892 -1.94798 0
M  V30 12046 C 1160.49 1.59229 -1.38598 0
M  V30 12047 O 1159.84 2.21097 -0.576905 0
M  V30 12048 C 1160.05 0.145 -3.48699 0
M  V30 12049 C 1161.39 0.345917 -4.23189 0
M  V30 12050 O 1162.42 0.222691 -3.55503 0
M  V30 12051 O 1161.28 0.592112 -5.43283 0
M  V30 12052 H 1158.37 0.12486 -0.81752 0
M  V30 12053 H 1160.92 -0.505453 -1.61998 0
M  V30 12054 H 1159.69 -0.844156 -3.82086 0
M  V30 12055 H 1159.31 0.869851 -3.87968 0
M  V30 12056 N 1160.31 1.56586 -0.178487 0
M  V30 12057 C 1161.56 1.96273 0.464745 0
M  V30 12058 C 1161.87 1.0675 1.63902 0
M  V30 12059 O 1163.08 1.36148 2.34896 0
M  V30 12060 C 1161.53 3.49021 0.878207 0
M  V30 12061 C 1161.14 4.4718 -0.270861 0
M  V30 12062 C 1162.88 3.97512 1.48946 0
M  V30 12063 C 1160.79 5.91176 0.162632 0
M  V30 12064 H 1159.72 0.732834 0.177398 0
M  V30 12065 H 1162.37 1.81534 -0.267861 0
M  V30 12066 H 1160.75 3.59203 1.667 0
M  V30 12067 H 1161.93 4.48718 -1.04826 0
M  V30 12068 H 1160.24 4.08788 -0.792529 0
M  V30 12069 H 1162.84 5.02556 1.82595 0
M  V30 12070 H 1163.18 3.40861 2.38997 0
M  V30 12071 H 1163.72 3.90376 0.76496 0
M  V30 12072 H 1160.46 6.51716 -0.703286 0
M  V30 12073 H 1159.98 5.9293 0.905243 0
M  V30 12074 H 1161.65 6.44174 0.604084 0
M  V30 12075 N 1161.79 -0.095206 1.57312 0
M  V30 12076 C 1163.03 -0.797142 1.85715 0
M  V30 12077 C 1163.36 -1.79275 0.767171 0
M  V30 12078 O 1162.63 -1.94808 -0.206584 0
M  V30 12079 H 1161.21 -0.297382 0.685254 0
M  V30 12080 H 1163.87 -0.0768617 1.94748 0
M  V30 12081 H 1162.96 -1.32779 2.82447 0
M  V30 12082 N 1163.26 -1.53291 -0.366026 0
M  V30 12083 C 1164.54 -1.60055 -1.12436 0
M  V30 12084 C 1164.92 -0.407811 -2.07123 0
M  V30 12085 O 1164.27 0.601977 -2.20428 0
M  V30 12086 C 1164.48 -2.95062 -1.86385 0
M  V30 12087 C 1165.83 -3.49623 -2.40934 0
M  V30 12088 O 1166.85 -2.97088 -1.96512 0
M  V30 12089 O 1165.71 -4.41461 -3.2214 0
M  V30 12090 H 1162.8 -0.646476 -0.51575 0
M  V30 12091 H 1165.35 -1.65632 -0.369326 0
M  V30 12092 H 1164.12 -3.73312 -1.17277 0
M  V30 12093 H 1163.75 -2.92973 -2.68798 0
M  V30 12094 N 1164.74 0.6258 -1.44643 0
M  V30 12095 C 1165.99 1.38546 -1.48918 0
M  V30 12096 C 1166.34 1.92013 -0.122019 0
M  V30 12097 O 1165.64 1.71038 0.863521 0
M  V30 12098 C 1165.83 2.56466 -2.48917 0
M  V30 12099 C 1165.66 2.14545 -3.95222 0
M  V30 12100 C 1164.43 2.01572 -4.63354 0
M  V30 12101 C 1166.63 1.73128 -4.84284 0
M  V30 12102 N 1164.61 1.53269 -5.94459 0
M  V30 12103 C 1165.98 1.36109 -6.04875 0
M  V30 12104 C 1168.04 1.60556 -4.71303 0
M  V30 12105 C 1166.74 0.877756 -7.13924 0
M  V30 12106 C 1168.76 1.13627 -5.80382 0
M  V30 12107 C 1168.13 0.775617 -7.00117 0
M  V30 12108 H 1164.23 0.501582 -0.599949 0
M  V30 12109 H 1166.81 0.717359 -1.81003 0
M  V30 12110 H 1164.98 3.20897 -2.18814 0
M  V30 12111 H 1166.71 3.23283 -2.43454 0
M  V30 12112 H 1163.47 2.22192 -4.18244 0
M  V30 12113 H 1163.89 1.31402 -6.64125 0
M  V30 12114 H 1168.53 1.8707 -3.79163 0
M  V30 12115 H 1166.25 0.60014 -8.05868 0
M  V30 12116 H 1169.84 1.04351 -5.72365 0
M  V30 12117 H 1168.72 0.418047 -7.83085 0
M  V30 12118 N 1166.22 1.31629 0.866686 0
M  V30 12119 C 1167.45 1.24293 1.6503 0
M  V30 12120 C 1167.86 -0.193556 1.88207 0
M  V30 12121 O 1167.2 -1.13712 1.44275 0
M  V30 12122 C 1167.26 1.92032 3.03914 0
M  V30 12123 C 1166.93 3.41373 3.03831 0
M  V30 12124 C 1167.92 4.37064 2.81551 0
M  V30 12125 C 1165.61 3.83118 3.24848 0
M  V30 12126 C 1167.6 5.72474 2.80272 0
M  V30 12127 C 1165.29 5.18639 3.23197 0
M  V30 12128 C 1166.29 6.13128 3.00936 0
M  V30 12129 O 1165.98 7.46172 2.99137 0
M  V30 12130 H 1165.71 0.430569 0.521139 0
M  V30 12131 H 1168.26 1.74105 1.0898 0
M  V30 12132 H 1166.49 1.36774 3.61704 0
M  V30 12133 H 1168.18 1.78567 3.64512 0
M  V30 12134 H 1168.95 4.06142 2.65093 0
M  V30 12135 H 1164.83 3.10001 3.41204 0
M  V30 12136 H 1168.37 6.46199 2.62816 0
M  V30 12137 H 1164.27 5.49196 3.39197 0
M  V30 12138 H 1165.04 7.55385 3.15175 0
M  V30 12139 N 1167.7 -1.08142 1.14644 0
M  V30 12140 C 1168.95 -1.80849 0.917685 0
M  V30 12141 C 1169.28 -1.86123 -0.554249 0
M  V30 12142 O 1168.55 -1.33907 -1.41065 0
M  V30 12143 C 1168.84 -3.26325 1.52264 0
M  V30 12144 C 1168.69 -3.29244 3.06461 0
M  V30 12145 C 1170.01 -4.23375 1.20175 0
M  V30 12146 H 1167.13 -0.656559 0.334812 0
M  V30 12147 H 1169.77 -1.26595 1.41682 0
M  V30 12148 H 1167.92 -3.72656 1.09817 0
M  V30 12149 H 1169.59 -2.91216 3.57758 0
M  V30 12150 H 1167.83 -2.68438 3.40769 0
M  V30 12151 H 1168.51 -4.31785 3.43897 0
M  V30 12152 H 1170.98 -3.85394 1.56877 0
M  V30 12153 H 1169.86 -5.23472 1.65132 0
M  V30 12154 H 1170.12 -4.41944 0.117474 0
M  V30 12155 N 1169.18 -0.941978 -1.26351 0
M  V30 12156 C 1170.59 -0.644413 -1.46012 0
M  V30 12157 C 1170.79 0.802031 -1.84851 0
M  V30 12158 O 1169.85 1.57859 -1.9707 0
M  V30 12159 C 1171.16 -1.60652 -2.54188 0
M  V30 12160 C 1172.71 -1.6163 -2.68038 0
M  V30 12161 C 1173.19 -2.56573 -3.79387 0
M  V30 12162 N 1174.68 -2.54863 -3.8678 0
M  V30 12163 C 1175.41 -3.2501 -4.72394 0
M  V30 12164 N 1174.91 -4.04586 -5.6239 0
M  V30 12165 N 1176.7 -3.13958 -4.66247 0
M  V30 12166 H 1168.85 -1.8769 -0.994293 0
M  V30 12167 H 1171.11 -0.806621 -0.498063 0
M  V30 12168 H 1170.82 -2.63907 -2.32478 0
M  V30 12169 H 1170.69 -1.3592 -3.5186 0
M  V30 12170 H 1173.08 -0.59099 -2.89122 0
M  V30 12171 H 1173.16 -1.90417 -1.70807 0
M  V30 12172 H 1172.81 -3.59223 -3.59056 0
M  V30 12173 H 1172.74 -2.25077 -4.76076 0
M  V30 12174 H 1175.23 -1.97082 -3.22439 0
M  V30 12175 H 1175.54 -4.55061 -6.24612 0
M  V30 12176 H 1173.89 -4.08687 -5.62139 0
M  V30 12177 H 1177.08 -2.51273 -3.94943 0
M  V30 12178 H 1177.25 -3.68894 -5.32749 0
M  V30 12179 N 1170.66 1.40747 -0.709091 0
M  V30 12180 C 1171.62 2.29118 -0.0611607 0
M  V30 12181 C 1172.62 1.45049 0.694081 0
M  V30 12182 O 1173.81 1.66039 0.526952 0
M  V30 12183 C 1170.94 3.28154 0.923447 0
M  V30 12184 H 1172.13 2.87913 -0.839413 0
M  V30 12185 H 1169.69 1.4896 -0.473363 0
M  V30 12186 H 1170.42 2.74366 1.72899 0
M  V30 12187 H 1170.21 3.90207 0.384862 0
M  V30 12188 H 1171.7 3.94343 1.37417 0
M  V30 12189 N 1172.13 0.454803 1.50895 0
M  V30 12190 C 1173.1 -0.336293 2.26719 0
M  V30 12191 C 1174.1 -0.93464 1.30848 0
M  V30 12192 O 1175.29 -0.80636 1.54413 0
M  V30 12193 C 1172.42 -1.47744 3.07221 0
M  V30 12194 H 1173.61 0.328462 2.98096 0
M  V30 12195 H 1171.16 0.208419 1.54904 0
M  V30 12196 H 1171.9 -2.17773 2.40302 0
M  V30 12197 H 1171.68 -1.05438 3.77658 0
M  V30 12198 H 1173.17 -2.03592 3.6461 0
M  V30 12199 N 1173.61 -1.56489 0.186789 0
M  V30 12200 C 1174.89 -1.89066 -0.501337 0
M  V30 12201 C 1175.27 -1.09906 -1.80233 0
M  V30 12202 O 1174.62 -0.197626 -2.27644 0
M  V30 12203 C 1174.83 -3.41318 -0.728207 0
M  V30 12204 C 1176.17 -4.11379 -1.0513 0
M  V30 12205 O 1177.2 -3.46722 -0.816216 0
M  V30 12206 O 1176.06 -5.25638 -1.49557 0
M  V30 12207 H 1173.15 -0.784966 -0.260303 0
M  V30 12208 H 1175.7 -1.68183 0.226382 0
M  V30 12209 H 1174.47 -3.90834 0.19088 0
M  V30 12210 H 1174.09 -3.67865 -1.50869 0
M  V30 12211 N 1175.09 0.086862 -1.5736 0
M  V30 12212 C 1176.34 0.787281 -1.86135 0
M  V30 12213 C 1176.66 1.78866 -0.776667 0
M  V30 12214 O 1175.93 1.94915 0.19625 0
M  V30 12215 H 1174.51 0.293744 -0.686821 0
M  V30 12216 H 1177.17 0.0665326 -1.94786 0
M  V30 12217 H 1176.27 1.3128 -2.83147 0
M  V30 12218 N 1176.57 1.53483 0.357892 0
M  V30 12219 C 1177.5 1.76757 1.4591 0
M  V30 12220 C 1178.51 0.648502 1.49326 0
M  V30 12221 O 1179.7 0.924932 1.52667 0
M  V30 12222 C 1176.8 1.83938 2.8464 0
M  V30 12223 C 1175.97 3.13683 3.04831 0
M  V30 12224 C 1175.03 3.12007 4.23719 0
M  V30 12225 O 1174.06 3.8578 4.18524 0
M  V30 12226 N 1175.26 2.33366 5.31527 0
M  V30 12227 H 1178.03 2.71778 1.2632 0
M  V30 12228 H 1175.59 1.52355 0.547673 0
M  V30 12229 H 1177.58 1.80285 3.62325 0
M  V30 12230 H 1176.15 0.961675 2.9744 0
M  V30 12231 H 1175.37 3.30576 2.14739 0
M  V30 12232 H 1176.66 3.99412 3.15194 0
M  V30 12233 H 1176.06 1.72954 5.38613 0
M  V30 12234 H 1174.61 2.35524 6.07759 0
M  V30 12235 N 1178.05 -0.61812 1.44973 0
M  V30 12236 C 1178.98 -1.74277 1.47318 0
M  V30 12237 C 1179.96 -1.59203 0.330627 0
M  V30 12238 O 1181.14 -1.80909 0.529558 0
M  V30 12239 C 1178.27 -3.11994 1.31823 0
M  V30 12240 C 1177.31 -3.45685 2.49809 0
M  V30 12241 S 1178.15 -3.41704 4.12309 0
M  V30 12242 C 1179.3 -4.82019 3.9926 0
M  V30 12243 H 1179.54 -1.72023 2.42478 0
M  V30 12244 H 1177.07 -0.793867 1.32428 0
M  V30 12245 H 1179.03 -3.9146 1.2357 0
M  V30 12246 H 1177.69 -3.11774 0.381521 0
M  V30 12247 H 1176.88 -4.45931 2.34864 0
M  V30 12248 H 1176.48 -2.73711 2.54869 0
M  V30 12249 H 1178.77 -5.71567 3.63754 0
M  V30 12250 H 1179.72 -5.02019 4.99382 0
M  V30 12251 H 1180.13 -4.57205 3.31095 0
M  V30 12252 N 1179.52 -1.32087 -0.859693 0
M  V30 12253 C 1180.77 -1.22542 -1.6159 0
M  V30 12254 C 1181.1 0.213533 -1.93022 0
M  V30 12255 O 1180.38 1.14931 -1.56911 0
M  V30 12256 C 1180.66 -2.08004 -2.93949 0
M  V30 12257 C 1180.51 -3.60252 -2.6933 0
M  V30 12258 C 1181.83 -1.93732 -3.95166 0
M  V30 12259 H 1178.95 -0.446504 -0.586347 0
M  V30 12260 H 1181.59 -1.61982 -0.993064 0
M  V30 12261 H 1179.74 -1.74498 -3.47106 0
M  V30 12262 H 1181.42 -4.03947 -2.22766 0
M  V30 12263 H 1179.66 -3.83169 -2.03382 0
M  V30 12264 H 1180.33 -4.1537 -3.63555 0
M  V30 12265 H 1182.81 -2.23075 -3.5125 0
M  V30 12266 H 1181.68 -2.55815 -4.85644 0
M  V30 12267 H 1181.94 -0.903528 -4.32769 0
M  V30 12268 N 1181 1.07532 -1.15215 0
M  V30 12269 C 1182.41 1.61567 -0.935568 0
M  V30 12270 C 1182.76 1.89085 0.523557 0
M  V30 12271 O 1181.89 1.65495 1.39429 0
M  V30 12272 C 1182.48 2.93531 -1.69189 0
M  V30 12273 C 1181.04 3.44316 -1.52063 0
M  V30 12274 C 1180.19 2.18404 -1.70866 0
M  V30 12275 H 1183.14 0.906431 -1.30267 0
M  V30 12276 H 1183.16 3.62377 -1.16031 0
M  V30 12277 H 1182.67 2.73471 -2.75381 0
M  V30 12278 H 1180.77 3.69462 -0.482567 0
M  V30 12279 H 1180.89 4.20478 -2.29642 0
M  V30 12280 H 1179.25 2.28012 -1.13502 0
M  V30 12281 H 1180.03 2.00841 -2.7842 0
M  V30 12282 N 1182.48 0.948665 1.2585 0
M  V30 12283 C 1183.73 0.600236 1.934 0
M  V30 12284 C 1184.06 -0.86185 1.74363 0
M  V30 12285 O 1183.31 -1.63294 1.07858 0
M  V30 12286 C 1183.61 0.89784 3.45939 0
M  V30 12287 C 1183.28 2.345 3.85124 0
M  V30 12288 C 1181.94 2.74058 3.95532 0
M  V30 12289 C 1184.29 3.2851 4.04636 0
M  V30 12290 C 1181.62 4.06707 4.22855 0
M  V30 12291 C 1183.97 4.60764 4.3345 0
M  V30 12292 C 1182.63 5.00127 4.42074 0
M  V30 12293 H 1181.9 0.219642 0.707699 0
M  V30 12294 H 1184.55 1.19658 1.49513 0
M  V30 12295 H 1182.86 0.219037 3.91187 0
M  V30 12296 H 1184.55 0.606916 3.96381 0
M  V30 12297 H 1181.14 2.02819 3.77574 0
M  V30 12298 H 1185.33 2.99141 3.96015 0
M  V30 12299 H 1180.58 4.36856 4.27746 0
M  V30 12300 H 1184.76 5.33594 4.47493 0
M  V30 12301 H 1182.38 6.02939 4.63 0
M  V30 12302 N 1183.96 -1.40369 0.716545 0
M  V30 12303 C 1185.18 -2.05704 0.264729 0
M  V30 12304 C 1185.61 -1.53634 -1.08527 0
M  V30 12305 O 1184.97 -0.67212 -1.68381 0
M  V30 12306 C 1185.01 -3.59692 0.255778 0
M  V30 12307 O 1184.12 -4.05286 -0.762686 0
M  V30 12308 H 1183.46 -0.652301 0.124092 0
M  V30 12309 H 1185.99 -1.7975 0.977295 0
M  V30 12310 H 1186 -4.07892 0.0937944 0
M  V30 12311 H 1184.67 -3.96955 1.24095 0
M  V30 12312 H 1183.25 -3.68543 -0.568347 0
M  V30 12313 N 1185.44 -0.462799 -1.50652 0
M  V30 12314 C 1186.4 0.324264 -2.26895 0
M  V30 12315 C 1187.4 0.927687 -1.31342 0
M  V30 12316 O 1188.59 0.798159 -1.54839 0
M  V30 12317 C 1185.72 1.46113 -3.08 0
M  V30 12318 H 1186.91 -0.344266 -2.97917 0
M  V30 12319 H 1184.47 -0.216631 -1.54791 0
M  V30 12320 H 1185.2 2.16496 -2.41454 0
M  V30 12321 H 1184.99 1.03433 -3.78212 0
M  V30 12322 H 1186.48 2.01655 -3.65684 0
M  V30 12323 N 1186.91 1.56388 -0.195085 0
M  V30 12324 C 1188.16 1.9758 0.443686 0
M  V30 12325 C 1188.49 1.08196 1.61629 0
M  V30 12326 O 1187.74 0.121061 1.95325 0
M  V30 12327 C 1188.04 3.44651 0.946051 0
M  V30 12328 C 1187.71 4.50758 -0.11318 0
M  V30 12329 C 1186.37 4.79499 -0.404229 0
M  V30 12330 C 1188.72 5.14534 -0.830899 0
M  V30 12331 C 1186.05 5.69307 -1.41797 0
M  V30 12332 C 1188.4 6.05438 -1.83379 0
M  V30 12333 C 1187.07 6.32535 -2.13204 0
M  V30 12334 H 1186.34 0.722995 0.162356 0
M  V30 12335 H 1188.98 1.8926 -0.292049 0
M  V30 12336 H 1187.29 3.50042 1.76006 0
M  V30 12337 H 1188.99 3.73878 1.44969 0
M  V30 12338 H 1185.58 4.28421 0.123833 0
M  V30 12339 H 1189.76 4.92421 -0.61927 0
M  V30 12340 H 1185.02 5.88575 -1.65496 0
M  V30 12341 H 1189.19 6.53915 -2.39516 0
M  V30 12342 H 1186.82 7.01924 -2.91902 0
M  V30 12343 N 1188.39 -0.0785156 1.57404 0
M  V30 12344 C 1189.62 -0.795871 1.91522 0
M  V30 12345 C 1190.04 -1.70665 0.790892 0
M  V30 12346 O 1189.4 -1.79474 -0.25666 0
M  V30 12347 C 1189.45 -1.57121 3.24569 0
M  V30 12348 O 1188.55 -2.6814 3.13328 0
M  V30 12349 H 1187.89 -0.217575 0.627341 0
M  V30 12350 H 1190.42 -0.0487724 2.04542 0
M  V30 12351 H 1190.43 -1.9519 3.5828 0
M  V30 12352 H 1189.11 -0.902909 4.05981 0
M  V30 12353 H 1187.69 -2.32978 2.91163 0
M  V30 12354 N 1189.87 -1.5367 -0.349747 0
M  V30 12355 C 1191.1 -1.74858 -1.11532 0
M  V30 12356 C 1191.52 -0.483591 -1.81777 0
M  V30 12357 O 1190.88 0.563399 -1.72324 0
M  V30 12358 C 1190.93 -2.92479 -2.10923 0
M  V30 12359 O 1190.03 -2.62194 -3.18321 0
M  V30 12360 H 1189.37 -0.580219 -0.322865 0
M  V30 12361 H 1191.9 -2.00611 -0.402033 0
M  V30 12362 H 1191.91 -3.19093 -2.54252 0
M  V30 12363 H 1190.59 -3.84228 -1.59191 0
M  V30 12364 H 1189.16 -2.46448 -2.79853 0
M  V30 12365 N 1191.35 0.610423 -1.45298 0
M  V30 12366 C 1192.57 1.40112 -1.52917 0
M  V30 12367 C 1193 1.87404 -0.161696 0
M  V30 12368 O 1192.36 1.59973 0.853135 0
M  V30 12369 C 1192.4 2.58359 -2.51561 0
M  V30 12370 O 1191.51 3.58895 -2.03146 0
M  V30 12371 H 1190.85 0.41841 -0.515586 0
M  V30 12372 H 1193.38 0.743159 -1.90626 0
M  V30 12373 H 1193.39 3.0564 -2.70275 0
M  V30 12374 H 1192.06 2.23286 -3.50879 0
M  V30 12375 H 1190.64 3.18282 -1.94296 0
M  V30 12376 N 1192.83 1.32541 0.852676 0
M  V30 12377 C 1194.24 1.11575 1.14119 0
M  V30 12378 C 1194.44 -0.102469 2.01239 0
M  V30 12379 O 1193.5 -0.786786 2.39929 0
M  V30 12380 C 1194.81 2.39624 1.81661 0
M  V30 12381 C 1196.36 2.454 1.94288 0
M  V30 12382 C 1196.83 3.73375 2.65245 0
M  V30 12383 N 1198.33 3.74368 2.72769 0
M  V30 12384 C 1199.06 4.70094 3.28328 0
M  V30 12385 N 1198.56 5.76187 3.84682 0
M  V30 12386 N 1200.35 4.57588 3.26449 0
M  V30 12387 H 1192.5 2.10644 0.272544 0
M  V30 12388 H 1194.76 0.930094 0.183385 0
M  V30 12389 H 1194.47 3.28698 1.25102 0
M  V30 12390 H 1194.34 2.50734 2.81802 0
M  V30 12391 H 1196.73 1.56784 2.50005 0
M  V30 12392 H 1196.81 2.38241 0.931379 0
M  V30 12393 H 1196.46 4.62366 2.10191 0
M  V30 12394 H 1196.39 3.77806 3.66838 0
M  V30 12395 H 1198.88 2.97685 2.32791 0
M  V30 12396 H 1199.19 6.45285 4.25238 0
M  V30 12397 H 1197.53 5.79939 3.83008 0
M  V30 12398 H 1200.73 3.7387 2.81672 0
M  V30 12399 H 1200.9 5.32365 3.69448 0
M  V30 12400 N 1194.3 -1.0692 1.15784 0
M  V30 12401 C 1195.55 -1.8002 0.946795 0
M  V30 12402 C 1195.91 -1.85232 -0.520268 0
M  V30 12403 O 1195.2 -1.32825 -1.38087 0
M  V30 12404 C 1195.39 -3.24389 1.50022 0
M  V30 12405 C 1195.22 -3.33245 3.01957 0
M  V30 12406 C 1193.99 -3.43549 3.70543 0
M  V30 12407 C 1196.19 -3.23634 3.99707 0
M  V30 12408 N 1194.17 -3.41354 5.10246 0
M  V30 12409 C 1195.54 -3.28608 5.25754 0
M  V30 12410 C 1197.6 -3.07475 3.91617 0
M  V30 12411 C 1196.3 -3.19084 6.44653 0
M  V30 12412 C 1198.33 -2.99286 5.1008 0
M  V30 12413 C 1197.69 -3.04876 6.35004 0
M  V30 12414 H 1193.79 -0.671859 0.400162 0
M  V30 12415 H 1196.37 -1.27592 1.47066 0
M  V30 12416 H 1194.54 -3.75228 1.00293 0
M  V30 12417 H 1196.27 -3.85633 1.22756 0
M  V30 12418 H 1193.03 -3.48079 3.21151 0
M  V30 12419 H 1193.45 -3.43772 5.83223 0
M  V30 12420 H 1198.1 -3.02004 2.95895 0
M  V30 12421 H 1195.81 -3.23313 7.40604 0
M  V30 12422 H 1199.4 -2.8788 5.05585 0
M  V30 12423 H 1198.28 -2.9859 7.2513 0
M  V30 12424 N 1195.78 -0.955326 -1.25345 0
M  V30 12425 C 1196.69 -0.482707 -2.2958 0
M  V30 12426 C 1197.71 0.450283 -1.68073 0
M  V30 12427 O 1198.88 0.326358 -1.98738 0
M  V30 12428 C 1195.95 0.231293 -3.45928 0
M  V30 12429 C 1195.01 -0.739995 -4.22874 0
M  V30 12430 C 1194.24 -0.0599748 -5.33666 0
M  V30 12431 O 1194.47 1.15423 -5.586 0
M  V30 12432 O 1193.4 -0.745865 -5.97261 0
M  V30 12433 H 1197.23 -1.34892 -2.72099 0
M  V30 12434 H 1194.81 -0.721812 -1.30806 0
M  V30 12435 H 1196.69 0.632908 -4.1662 0
M  V30 12436 H 1195.37 1.07267 -3.0541 0
M  V30 12437 H 1194.28 -1.19183 -3.54607 0
M  V30 12438 H 1195.61 -1.54941 -4.67177 0
M  V30 12439 N 1197.26 1.39987 -0.723979 0
M  V30 12440 C 1198.49 2.0474 -0.276618 0
M  V30 12441 C 1198.9 1.54675 1.0896 0
M  V30 12442 O 1198.24 0.701956 1.69759 0
M  V30 12443 C 1198.3 3.59009 -0.187912 0
M  V30 12444 C 1197.97 4.32 -1.49079 0
M  V30 12445 C 1198.97 4.59385 -2.43436 0
M  V30 12446 C 1196.65 4.70753 -1.75204 0
M  V30 12447 C 1198.64 5.24519 -3.62159 0
M  V30 12448 C 1196.33 5.35617 -2.94206 0
M  V30 12449 C 1197.33 5.62431 -3.87506 0
M  V30 12450 O 1197.02 6.25952 -5.0442 0
M  V30 12451 H 1196.75 0.665164 -0.120554 0
M  V30 12452 H 1199.3 1.80226 -0.98527 0
M  V30 12453 H 1197.53 3.82375 0.576753 0
M  V30 12454 H 1199.22 4.0527 0.225993 0
M  V30 12455 H 1199.99 4.29902 -2.24519 0
M  V30 12456 H 1195.87 4.49247 -1.03433 0
M  V30 12457 H 1199.41 5.45364 -4.34999 0
M  V30 12458 H 1195.31 5.64521 -3.13029 0
M  V30 12459 H 1196.08 6.44448 -5.04608 0
M  V30 12460 N 1198.74 0.470782 1.50404 0
M  V30 12461 C 1199.99 -0.0841494 2.01925 0
M  V30 12462 C 1200.31 -1.40244 1.35487 0
M  V30 12463 O 1199.58 -1.89409 0.500111 0
M  V30 12464 H 1198.16 -0.0340884 0.746222 0
M  V30 12465 H 1200.82 0.621133 1.84738 0
M  V30 12466 H 1199.92 -0.235877 3.11207 0
M  V30 12467 N 1200.22 -1.56282 0.203376 0
M  V30 12468 C 1201.44 -2.02643 -0.441658 0
M  V30 12469 C 1201.87 -1.0825 -1.5383 0
M  V30 12470 O 1201.23 -0.0674337 -1.81175 0
M  V30 12471 C 1201.27 -3.47382 -0.967369 0
M  V30 12472 O 1200.38 -3.56115 -2.07981 0
M  V30 12473 H 1199.72 -0.656081 -0.102242 0
M  V30 12474 H 1202.25 -2.02134 0.316684 0
M  V30 12475 H 1202.26 -3.8734 -1.28186 0
M  V30 12476 H 1200.93 -4.15574 -0.164625 0
M  V30 12477 H 1199.51 -3.28035 -1.77334 0
M  V30 12478 N 1201.7 0.070167 -1.57444 0
M  V30 12479 C 1203.11 0.621805 -1.76041 0
M  V30 12480 C 1203.46 1.77824 -0.829047 0
M  V30 12481 O 1202.58 2.16396 -0.0135453 0
M  V30 12482 C 1203.18 1.13476 -3.19231 0
M  V30 12483 C 1201.74 1.63225 -3.39167 0
M  V30 12484 C 1200.88 0.552369 -2.71743 0
M  V30 12485 H 1203.83 -0.156009 -1.57931 0
M  V30 12486 H 1203.86 2.00352 -3.2348 0
M  V30 12487 H 1203.37 0.29288 -3.86993 0
M  V30 12488 H 1201.47 2.49733 -2.76522 0
M  V30 12489 H 1201.58 1.70807 -4.47618 0
M  V30 12490 H 1199.95 0.997797 -2.34342 0
M  V30 12491 H 1200.73 -0.279354 -3.42162 0
M  V30 12492 N 1203.17 1.53854 0.341593 0
M  V30 12493 C 1204.59 1.44161 0.684821 0
M  V30 12494 C 1204.79 0.599929 1.92362 0
M  V30 12495 O 1203.85 0.0916771 2.52334 0
M  V30 12496 C 1205.16 2.87668 0.875637 0
M  V30 12497 C 1206.71 2.97455 0.974131 0
M  V30 12498 C 1207.18 4.42075 1.19725 0
M  V30 12499 N 1208.67 4.45609 1.2644 0
M  V30 12500 C 1209.41 5.54643 1.45459 0
M  V30 12501 N 1208.9 6.7368 1.61637 0
M  V30 12502 N 1210.7 5.4226 1.48022 0
M  V30 12503 H 1202.85 2.07069 -0.472883 0
M  V30 12504 H 1205.11 0.936114 -0.149648 0
M  V30 12505 H 1204.82 3.51681 0.0368595 0
M  V30 12506 H 1204.69 3.32731 1.7768 0
M  V30 12507 H 1207.08 2.33582 1.80343 0
M  V30 12508 H 1207.16 2.55751 0.0498282 0
M  V30 12509 H 1206.8 5.06529 0.372872 0
M  V30 12510 H 1206.73 4.81372 2.13515 0
M  V30 12511 H 1209.22 3.59831 1.15455 0
M  V30 12512 H 1209.54 7.52541 1.7579 0
M  V30 12513 H 1207.88 6.76622 1.5877 0
M  V30 12514 H 1211.07 4.48221 1.34966 0
M  V30 12515 H 1211.25 6.27293 1.62502 0
M  V30 12516 N 1204.65 -0.602709 1.4562 0
M  V30 12517 C 1205.58 -1.72374 1.5751 0
M  V30 12518 C 1206.56 -1.64669 0.426389 0
M  V30 12519 O 1207.75 -1.82994 0.650143 0
M  V30 12520 C 1204.88 -3.10987 1.5461 0
M  V30 12521 C 1203.83 -3.33507 2.68248 0
M  V30 12522 C 1203.16 -4.72443 2.50403 0
M  V30 12523 C 1204.46 -3.23285 4.10224 0
M  V30 12524 H 1206.15 -1.62679 2.51348 0
M  V30 12525 H 1203.7 -0.781217 1.20967 0
M  V30 12526 H 1205.65 -3.89214 1.61525 0
M  V30 12527 H 1204.37 -3.21533 0.573049 0
M  V30 12528 H 1203.03 -2.57672 2.60769 0
M  V30 12529 H 1202.68 -4.79729 1.51226 0
M  V30 12530 H 1202.38 -4.88466 3.26611 0
M  V30 12531 H 1203.91 -5.52864 2.59179 0
M  V30 12532 H 1205.32 -3.91381 4.1892 0
M  V30 12533 H 1203.72 -3.50837 4.86861 0
M  V30 12534 H 1204.79 -2.20652 4.31788 0
M  V30 12535 N 1206.13 -1.32992 -0.845635 0
M  V30 12536 C 1207.04 -1.24701 -1.98713 0
M  V30 12537 C 1208.06 -0.158864 -1.73273 0
M  V30 12538 O 1209.23 -0.381209 -1.97759 0
M  V30 12539 C 1206.3 -0.979524 -3.32575 0
M  V30 12540 C 1205.36 -2.15701 -3.71176 0
M  V30 12541 C 1204.59 -1.90219 -4.98651 0
M  V30 12542 O 1204.81 -0.849171 -5.64044 0
M  V30 12543 O 1203.75 -2.76571 -5.34595 0
M  V30 12544 H 1207.57 -2.20683 -2.08645 0
M  V30 12545 H 1205.16 -1.12971 -0.97765 0
M  V30 12546 H 1207.04 -0.847219 -4.12796 0
M  V30 12547 H 1205.72 -0.0499398 -3.23661 0
M  V30 12548 H 1204.62 -2.34483 -2.91494 0
M  V30 12549 H 1205.96 -3.0697 -3.84747 0
M  V30 12550 N 1207.61 1.06304 -1.1635 0
M  V30 12551 C 1209.02 1.31227 -0.90838 0
M  V30 12552 C 1209.22 1.96665 0.438779 0
M  V30 12553 O 1208.28 2.2332 1.17833 0
M  V30 12554 C 1209.59 2.19303 -2.05734 0
M  V30 12555 C 1211.14 2.3272 -2.09309 0
M  V30 12556 C 1211.62 3.24151 -3.23559 0
M  V30 12557 N 1213.11 3.31734 -3.23275 0
M  V30 12558 C 1213.84 4.02572 -4.08318 0
M  V30 12559 N 1213.34 4.75933 -5.03448 0
M  V30 12560 N 1215.13 3.98621 -3.96305 0
M  V30 12561 H 1207.28 0.622228 -2.03081 0
M  V30 12562 H 1209.54 0.336892 -0.886119 0
M  V30 12563 H 1209.25 1.78497 -3.03037 0
M  V30 12564 H 1209.12 3.19888 -1.99879 0
M  V30 12565 H 1211.51 2.72774 -1.12599 0
M  V30 12566 H 1211.59 1.31804 -2.19229 0
M  V30 12567 H 1211.24 2.84813 -4.20528 0
M  V30 12568 H 1211.17 4.25046 -3.10875 0
M  V30 12569 H 1213.66 2.79453 -2.5439 0
M  V30 12570 H 1213.97 5.27512 -5.64758 0
M  V30 12571 H 1212.32 4.74913 -5.07427 0
M  V30 12572 H 1215.51 3.40427 -3.21289 0
M  V30 12573 H 1215.68 4.5356 -4.62804 0
M  V30 12574 N 1209.09 0.96196 1.24836 0
M  V30 12575 C 1210.32 0.637214 1.96528 0
M  V30 12576 C 1210.72 -0.79638 1.71623 0
M  V30 12577 O 1210.07 -1.54524 0.993372 0
M  V30 12578 C 1210.13 0.824972 3.49906 0
M  V30 12579 C 1209.79 2.23711 3.985 0
M  V30 12580 C 1210.79 3.21439 4.08623 0
M  V30 12581 C 1208.47 2.56327 4.31974 0
M  V30 12582 C 1210.47 4.49872 4.51546 0
M  V30 12583 C 1208.16 3.84987 4.74582 0
M  V30 12584 C 1209.15 4.81572 4.84332 0
M  V30 12585 O 1208.84 6.07938 5.25991 0
M  V30 12586 H 1208.57 0.237214 0.633013 0
M  V30 12587 H 1211.13 1.29081 1.59773 0
M  V30 12588 H 1209.36 0.114219 3.86531 0
M  V30 12589 H 1211.05 0.500179 4.02806 0
M  V30 12590 H 1211.81 2.97569 3.82985 0
M  V30 12591 H 1207.69 1.81872 4.23608 0
M  V30 12592 H 1211.24 5.25261 4.59071 0
M  V30 12593 H 1207.13 4.08661 4.99666 0
M  V30 12594 H 1207.9 6.11421 5.44157 0
M  V30 12595 N 1210.56 -1.39601 0.731392 0
M  V30 12596 C 1211.51 -2.32469 0.0781328 0
M  V30 12597 C 1212.51 -1.52873 -0.729811 0
M  V30 12598 O 1213.71 -1.68563 -0.631402 0
M  V30 12599 H 1210.09 -0.751972 0.00646515 0
M  V30 12600 H 1212.06 -2.85196 0.877833 0
M  V30 12601 C 1210.81 -3.37948 -0.817717 0
M  V30 12602 H 1210.13 -3.99272 -0.205417 0
M  V30 12603 H 1211.57 -4.05387 -1.24248 0
M  V30 12604 C 1210.03 -2.74703 -1.95038 0
M  V30 12605 O 1210.56 -2.62266 -3.04269 0
M  V30 12606 N 1208.76 -2.32845 -1.73872 0
M  V30 12607 H 1208.31 -2.43161 -0.850321 0
M  V30 12608 H 1208.27 -1.90869 -2.49833 0
M  V30 12609 N 1212.04 -0.478751 -1.50152 0
M  V30 12610 C 1213.29 0.0734397 -2.01967 0
M  V30 12611 C 1213.61 1.39523 -1.36229 0
M  V30 12612 O 1212.88 1.89141 -0.510149 0
M  V30 12613 H 1211.46 0.0301305 -0.746392 0
M  V30 12614 H 1214.12 -0.630921 -1.84406 0
M  V30 12615 H 1213.22 0.21937 -3.11328 0
M  V30 12616 N 1213.52 1.56172 -0.211661 0
M  V30 12617 C 1214.45 2.22843 0.697375 0
M  V30 12618 C 1215.43 1.19689 1.20866 0
M  V30 12619 O 1216.62 1.48245 1.25447 0
M  V30 12620 C 1213.75 2.90067 1.90993 0
M  V30 12621 C 1212.7 3.99608 1.5329 0
M  V30 12622 C 1212.03 4.54078 2.82343 0
M  V30 12623 C 1213.33 5.17169 0.730333 0
M  V30 12624 H 1215.02 2.99065 0.141533 0
M  V30 12625 H 1212.57 1.43846 0.0666337 0
M  V30 12626 H 1214.52 3.35396 2.55123 0
M  V30 12627 H 1213.24 2.11276 2.49058 0
M  V30 12628 H 1211.9 3.54995 0.915115 0
M  V30 12629 H 1211.55 3.72029 3.38531 0
M  V30 12630 H 1211.25 5.28001 2.57853 0
M  V30 12631 H 1212.77 5.02119 3.47432 0
M  V30 12632 H 1214.19 5.5894 1.2751 0
M  V30 12633 H 1212.59 5.97262 0.582916 0
M  V30 12634 H 1213.66 4.84174 -0.265157 0
M  V30 12635 N 1215 -0.0618163 1.57479 0
M  V30 12636 C 1216.41 -0.612461 1.76368 0
M  V30 12637 C 1216.76 -1.77381 0.838466 0
M  V30 12638 O 1215.89 -2.16386 0.0250211 0
M  V30 12639 C 1216.48 -1.11782 3.19829 0
M  V30 12640 C 1215.04 -1.61424 3.40028 0
M  V30 12641 C 1214.19 -0.53795 2.72032 0
M  V30 12642 H 1217.14 0.164382 1.57846 0
M  V30 12643 H 1217.16 -1.98634 3.24538 0
M  V30 12644 H 1216.67 -0.272353 3.87143 0
M  V30 12645 H 1214.77 -2.48263 2.77842 0
M  V30 12646 H 1214.88 -1.68431 4.48517 0
M  V30 12647 H 1213.25 -0.985355 2.34868 0
M  V30 12648 H 1214.03 0.297495 3.42009 0
M  V30 12649 N 1216.48 -1.54033 -0.333429 0
M  V30 12650 C 1217.7 -1.76031 -1.09672 0
M  V30 12651 C 1218.13 -0.502844 -1.81254 0
M  V30 12652 O 1217.48 0.54509 -1.72912 0
M  V30 12653 C 1217.53 -2.947 -2.07809 0
M  V30 12654 O 1216.64 -2.65555 -3.15522 0
M  V30 12655 H 1215.98 -0.583611 -0.316692 0
M  V30 12656 H 1218.51 -2.01026 -0.380732 0
M  V30 12657 H 1218.52 -3.21771 -2.50853 0
M  V30 12658 H 1217.19 -3.85895 -1.55106 0
M  V30 12659 H 1215.77 -2.49403 -2.77223 0
M  V30 12660 N 1217.95 0.594978 -1.45938 0
M  V30 12661 C 1218.89 1.71911 -1.50072 0
M  V30 12662 C 1219.87 1.58657 -0.355913 0
M  V30 12663 O 1221.05 1.80043 -0.558272 0
M  V30 12664 C 1218.18 3.09858 -1.3677 0
M  V30 12665 C 1217.22 3.41667 -2.55277 0
M  V30 12666 S 1218.06 3.35101 -4.17693 0
M  V30 12667 C 1219.21 4.75606 -4.06878 0
M  V30 12668 H 1219.44 1.68143 -2.45184 0
M  V30 12669 H 1216.98 0.772698 -1.33674 0
M  V30 12670 H 1218.94 3.89444 -1.29782 0
M  V30 12671 H 1217.6 3.11128 -0.431073 0
M  V30 12672 H 1216.79 4.42138 -2.41929 0
M  V30 12673 H 1216.39 2.69622 -2.59191 0
M  V30 12674 H 1218.68 5.65708 -3.72801 0
M  V30 12675 H 1219.63 4.9401 -5.07306 0
M  V30 12676 H 1220.03 4.5188 -3.38327 0
M  V30 12677 N 1219.43 1.33438 0.838571 0
M  V30 12678 C 1220.34 1.25753 1.98049 0
M  V30 12679 C 1221.36 0.168051 1.73187 0
M  V30 12680 O 1222.53 0.391691 1.97554 0
M  V30 12681 C 1219.6 0.997148 3.32051 0
M  V30 12682 C 1218.66 2.17667 3.70027 0
M  V30 12683 C 1217.89 1.92861 4.97635 0
M  V30 12684 O 1218.12 0.879072 5.63585 0
M  V30 12685 O 1217.05 2.79402 5.33121 0
M  V30 12686 H 1220.88 2.21786 2.07472 0
M  V30 12687 H 1218.46 1.13488 0.971645 0
M  V30 12688 H 1220.34 0.869099 4.1234 0
M  V30 12689 H 1219.02 0.0671036 3.2363 0
M  V30 12690 H 1217.93 2.36025 2.90246 0
M  V30 12691 H 1219.26 3.09006 3.83114 0
M  V30 12692 N 1220.91 -1.05686 1.16912 0
M  V30 12693 C 1222.16 -1.77987 0.948875 0
M  V30 12694 C 1222.47 -1.8845 -0.524011 0
M  V30 12695 O 1223.68 -2.57442 -0.862322 0
M  V30 12696 C 1222.13 -3.19927 1.64848 0
M  V30 12697 C 1221.74 -3.1761 3.15956 0
M  V30 12698 C 1223.49 -3.96719 1.51044 0
M  V30 12699 C 1221.39 -4.54307 3.78628 0
M  V30 12700 H 1220.32 -0.667119 0.35138 0
M  V30 12701 H 1222.97 -1.18496 1.40111 0
M  V30 12702 H 1221.36 -3.79714 1.12397 0
M  V30 12703 H 1222.53 -2.67369 3.75301 0
M  V30 12704 H 1220.85 -2.54317 3.29715 0
M  V30 12705 H 1223.44 -4.97779 1.95243 0
M  V30 12706 H 1223.79 -4.13748 0.460268 0
M  V30 12707 H 1224.32 -3.43468 2.00685 0
M  V30 12708 H 1221.06 -4.42484 4.8362 0
M  V30 12709 H 1220.58 -5.04717 3.24069 0
M  V30 12710 H 1222.26 -5.23255 3.80543 0
M  V30 12711 N 1222.39 -0.968567 -1.24324 0
M  V30 12712 C 1223.32 -0.518323 -2.27674 0
M  V30 12713 C 1224.3 0.442479 -1.64244 0
M  V30 12714 O 1225.48 0.338416 -1.91229 0
M  V30 12715 C 1222.61 0.191459 -3.46772 0
M  V30 12716 C 1221.57 -0.685449 -4.22476 0
M  V30 12717 C 1220.89 0.155873 -5.34473 0
M  V30 12718 C 1222.19 -1.97047 -4.83704 0
M  V30 12719 H 1223.89 -1.38215 -2.65588 0
M  V30 12720 H 1221.43 -0.66604 -1.27671 0
M  V30 12721 H 1223.39 0.517667 -4.18208 0
M  V30 12722 H 1222.11 1.08965 -3.07887 0
M  V30 12723 H 1220.77 -0.994942 -3.52841 0
M  V30 12724 H 1220.42 1.05424 -4.91828 0
M  V30 12725 H 1220.12 -0.427655 -5.86042 0
M  V30 12726 H 1221.64 0.476733 -6.08736 0
M  V30 12727 H 1223.06 -1.70979 -5.4721 0
M  V30 12728 H 1221.45 -2.50079 -5.45509 0
M  V30 12729 H 1222.52 -2.66484 -4.0511 0
M  V30 12730 N 1223.87 1.39211 -0.738786 0
M  V30 12731 C 1225.11 2.0004 -0.28782 0
M  V30 12732 C 1225.44 1.58921 1.13 0
M  V30 12733 O 1224.71 0.839193 1.77015 0
M  V30 12734 H 1223.29 0.739805 -0.103425 0
M  V30 12735 H 1225.95 1.70202 -0.949587 0
M  V30 12736 H 1225.04 3.10251 -0.339208 0
M  V30 12737 N 1225.34 0.486708 1.49896 0
M  V30 12738 C 1226.28 -0.335809 2.26727 0
M  V30 12739 C 1227.29 -0.94333 1.32684 0
M  V30 12740 O 1228.48 -0.82909 1.58077 0
M  V30 12741 C 1225.58 -1.48642 3.04563 0
M  V30 12742 C 1224.75 -0.988837 4.26076 0
M  V30 12743 C 1223.81 -2.01535 4.86076 0
M  V30 12744 O 1222.84 -1.58966 5.46552 0
M  V30 12745 N 1224.04 -3.34471 4.74457 0
M  V30 12746 H 1226.8 0.322919 2.97955 0
M  V30 12747 H 1224.36 0.318403 1.58738 0
M  V30 12748 H 1226.36 -2.17039 3.41579 0
M  V30 12749 H 1224.93 -2.04956 2.36033 0
M  V30 12750 H 1224.15 -0.130232 3.93985 0
M  V30 12751 H 1225.43 -0.634562 5.04827 0
M  V30 12752 H 1224.83 -3.71755 4.26398 0
M  V30 12753 H 1223.39 -3.98621 5.15698 0
M  V30 12754 N 1226.82 -1.56058 0.219941 0
M  V30 12755 C 1227.79 -2.18964 -0.677303 0
M  V30 12756 C 1228.79 -1.15105 -1.12283 0
M  V30 12757 O 1229.98 -1.40348 -1.03189 0
M  V30 12758 C 1227.11 -2.81167 -1.92764 0
M  V30 12759 H 1228.3 -2.99623 -0.128877 0
M  V30 12760 H 1225.85 -1.56272 -0.0296744 0
M  V30 12761 H 1226.59 -2.04374 -2.51797 0
M  V30 12762 H 1226.37 -3.5722 -1.61666 0
M  V30 12763 H 1227.86 -3.29391 -2.56693 0
M  V30 12764 N 1228.3 0.053464 -1.57509 0
M  V30 12765 C 1229.26 1.04604 -2.03938 0
M  V30 12766 C 1230.26 1.30509 -0.939357 0
M  V30 12767 O 1231.45 1.25922 -1.20371 0
M  V30 12768 C 1228.59 2.38516 -2.43563 0
M  V30 12769 H 1229.78 0.645484 -2.92871 0
M  V30 12770 H 1227.33 0.299683 -1.534 0
M  V30 12771 H 1228.07 2.83368 -1.57712 0
M  V30 12772 H 1227.85 2.2105 -3.23851 0
M  V30 12773 H 1229.34 3.09826 -2.79996 0
M  V30 12774 N 1229.78 1.54207 0.325255 0
M  V30 12775 C 1231.19 1.63587 0.899793 0
M  V30 12776 C 1231.54 0.528851 1.88938 0
M  V30 12777 O 1230.67 -0.33852 2.13736 0
M  V30 12778 C 1231.26 2.9653 1.63877 0
M  V30 12779 C 1229.82 3.08111 2.16205 0
M  V30 12780 C 1228.97 2.59144 0.986903 0
M  V30 12781 H 1231.92 1.58366 0.102883 0
M  V30 12782 H 1231.94 2.86595 2.50287 0
M  V30 12783 H 1231.45 3.7708 0.918279 0
M  V30 12784 H 1229.55 2.32232 2.91375 0
M  V30 12785 H 1229.67 4.13885 2.41322 0
M  V30 12786 H 1228.03 2.14997 1.36558 0
M  V30 12787 H 1228.81 3.4215 0.28076 0
M  V30 12788 N 1231.26 -0.58723 1.46251 0
M  V30 12789 C 1232.51 -1.34294 1.51028 0
M  V30 12790 C 1232.83 -1.94329 0.161623 0
M  V30 12791 O 1232.1 -1.78309 -0.811342 0
M  V30 12792 H 1230.68 -0.498607 0.556238 0
M  V30 12793 H 1233.34 -0.688074 1.8235 0
M  V30 12794 H 1232.43 -2.15197 2.26045 0
M  V30 12795 N 1232.74 -1.33881 -0.831482 0
M  V30 12796 C 1233.68 -1.24748 -1.94182 0
M  V30 12797 C 1234.65 -0.124516 -1.65633 0
M  V30 12798 O 1235.84 -0.304045 -1.88362 0
M  V30 12799 C 1232.98 -1.00016 -3.30289 0
M  V30 12800 C 1232.09 -2.21007 -3.71187 0
M  V30 12801 C 1231.23 -1.89629 -4.962 0
M  V30 12802 C 1230.26 -3.06811 -5.29654 0
M  V30 12803 N 1229.4 -2.75372 -6.45844 0
M  V30 12804 H 1234.24 -2.19709 -2.01325 0
M  V30 12805 H 1231.78 -1.09245 -0.985081 0
M  V30 12806 H 1233.74 -0.837167 -4.08714 0
M  V30 12807 H 1232.37 -0.0872582 -3.22682 0
M  V30 12808 H 1231.42 -2.48256 -2.88224 0
M  V30 12809 H 1232.73 -3.08587 -3.91887 0
M  V30 12810 H 1231.88 -1.70016 -5.82391 0
M  V30 12811 H 1230.62 -0.992964 -4.77485 0
M  V30 12812 H 1229.63 -3.27029 -4.41964 0
M  V30 12813 H 1230.85 -3.97909 -5.50314 0
M  V30 12814 H 1228.8 -1.87607 -6.28601 0
M  V30 12815 H 1228.72 -3.56483 -6.66675 0
M  V30 12816 H 1229.98 -2.59244 -7.35128 0
M  V30 12817 N 1234.21 1.05064 -1.1747 0
M  V30 12818 C 1235.44 1.82299 -0.98903 0
M  V30 12819 C 1235.86 1.82441 0.457907 0
M  V30 12820 O 1235.22 1.23433 1.32793 0
M  V30 12821 C 1235.27 3.26239 -1.53624 0
M  V30 12822 O 1234.37 4.05507 -0.750857 0
M  V30 12823 H 1233.71 0.563601 -0.35107 0
M  V30 12824 H 1236.24 1.32386 -1.55997 0
M  V30 12825 H 1236.25 3.77038 -1.55906 0
M  V30 12826 H 1234.93 3.25451 -2.58949 0
M  V30 12827 H 1233.51 3.64227 -0.799548 0
M  V30 12828 N 1235.69 0.975146 1.23809 0
M  V30 12829 C 1236.92 0.658978 1.96125 0
M  V30 12830 C 1237.33 -0.773044 1.72248 0
M  V30 12831 O 1236.69 -1.51956 1.01072 0
M  V30 12832 C 1236.74 0.933355 3.49243 0
M  V30 12833 O 1236.46 2.30909 3.72307 0
M  V30 12834 C 1237.96 0.632408 4.38766 0
M  V30 12835 H 1235.18 0.245237 0.62458 0
M  V30 12836 H 1237.73 1.3051 1.5744 0
M  V30 12837 H 1235.88 0.333323 3.85963 0
M  V30 12838 H 1236.3 2.39476 4.66638 0
M  V30 12839 H 1237.77 0.874791 5.45024 0
M  V30 12840 H 1238.25 -0.433453 4.37056 0
M  V30 12841 H 1238.85 1.21268 4.07645 0
M  V30 12842 N 1237.17 -1.38817 0.746158 0
M  V30 12843 C 1238.42 -1.99885 0.298425 0
M  V30 12844 C 1238.74 -1.59518 -1.12156 0
M  V30 12845 O 1238.01 -0.848568 -1.76568 0
M  V30 12846 H 1236.59 -0.739247 0.107347 0
M  V30 12847 H 1239.25 -1.69696 0.9586 0
M  V30 12848 H 1238.35 -3.10067 0.355656 0
M  V30 12849 N 1238.65 -0.49465 -1.49636 0
M  V30 12850 C 1239.56 0.291881 -2.32777 0
M  V30 12851 C 1240.57 0.973468 -1.44221 0
M  V30 12852 O 1241.75 0.956252 -1.77251 0
M  V30 12853 C 1238.81 1.34609 -3.19502 0
M  V30 12854 C 1237.88 0.678611 -4.23903 0
M  V30 12855 C 1237.11 1.68259 -5.06483 0
M  V30 12856 O 1237.33 2.91176 -4.90482 0
M  V30 12857 O 1236.27 1.24141 -5.88959 0
M  V30 12858 H 1240.09 -0.388459 -3.01205 0
M  V30 12859 H 1237.68 -0.256086 -1.47189 0
M  V30 12860 H 1239.56 1.95617 -3.73245 0
M  V30 12861 H 1238.23 2.00947 -2.53775 0
M  V30 12862 H 1237.14 0.0289541 -3.74089 0
M  V30 12863 H 1238.47 0.0577817 -4.92166 0
M  V30 12864 N 1240.13 1.55939 -0.228214 0
M  V30 12865 C 1241.09 2.1932 0.665681 0
M  V30 12866 C 1242.09 1.15699 1.11671 0
M  V30 12867 O 1243.28 1.40893 1.02444 0
M  V30 12868 C 1240.41 2.82185 1.9127 0
M  V30 12869 H 1241.6 2.99687 0.112986 0
M  V30 12870 H 1239.16 1.56285 0.0213865 0
M  V30 12871 H 1239.89 2.05706 2.5071 0
M  V30 12872 H 1239.68 3.58073 1.5977 0
M  V30 12873 H 1241.17 3.30748 2.54942 0
M  V30 12874 N 1241.6 -0.0451101 1.57535 0
M  V30 12875 C 1242.54 -1.08327 2.00849 0
M  V30 12876 C 1243.52 -1.36083 0.889957 0
M  V30 12877 O 1244.7 -1.49009 1.15449 0
M  V30 12878 C 1241.83 -2.42171 2.36793 0
M  V30 12879 C 1240.87 -2.30378 3.58926 0
M  V30 12880 S 1241.71 -1.67244 5.08714 0
M  V30 12881 C 1242.86 -3.02611 5.47885 0
M  V30 12882 H 1243.09 -0.714274 2.88592 0
M  V30 12883 H 1240.63 -0.254561 1.52287 0
M  V30 12884 H 1242.59 -3.1915 2.58174 0
M  V30 12885 H 1241.25 -2.76224 1.49531 0
M  V30 12886 H 1240.44 -3.29146 3.81679 0
M  V30 12887 H 1240.04 -1.6154 3.37314 0
M  V30 12888 H 1242.33 -3.98941 5.47587 0
M  V30 12889 H 1243.28 -2.84609 6.48385 0
M  V30 12890 H 1243.68 -3.04445 4.75367 0
M  V30 12891 N 1243.08 -1.54377 -0.317073 0
M  V30 12892 C 1243.99 -1.87247 -1.41335 0
M  V30 12893 C 1245.01 -0.765017 -1.5628 0
M  V30 12894 O 1246.18 -1.05994 -1.71252 0
M  V30 12895 C 1243.25 -2.0988 -2.75955 0
M  V30 12896 C 1242.31 -3.33658 -2.70131 0
M  V30 12897 C 1241.54 -3.55202 -3.9833 0
M  V30 12898 O 1241.77 -2.80061 -4.96913 0
M  V30 12899 O 1240.7 -4.48693 -4.01196 0
M  V30 12900 H 1244.53 -2.80481 -1.16465 0
M  V30 12901 H 1242.11 -1.40364 -0.511687 0
M  V30 12902 H 1243.99 -2.2606 -3.55633 0
M  V30 12903 H 1242.67 -1.19834 -3.00702 0
M  V30 12904 H 1241.58 -3.22857 -1.88981 0
M  V30 12905 H 1242.91 -4.23782 -2.50338 0
M  V30 12906 N 1244.56 0.579466 -1.4656 0
M  V30 12907 C 1245.49 1.69846 -1.60233 0
M  V30 12908 C 1246.47 1.6397 -0.452533 0
M  V30 12909 O 1247.66 1.81936 -0.679174 0
M  V30 12910 C 1244.79 3.08488 -1.59538 0
M  V30 12911 C 1243.74 3.29197 -2.7352 0
M  V30 12912 C 1243.07 4.684 -2.57887 0
M  V30 12913 C 1244.37 3.16718 -4.15315 0
M  V30 12914 H 1246.06 1.5866 -2.53904 0
M  V30 12915 H 1243.61 0.761873 -1.22194 0
M  V30 12916 H 1245.56 3.86595 -1.67696 0
M  V30 12917 H 1244.28 3.20581 -0.62413 0
M  V30 12918 H 1242.94 2.53491 -2.64836 0
M  V30 12919 H 1242.59 4.77262 -1.58839 0
M  V30 12920 H 1242.29 4.83208 -3.34341 0
M  V30 12921 H 1243.81 5.48671 -2.67942 0
M  V30 12922 H 1245.23 3.84666 -4.25094 0
M  V30 12923 H 1243.63 3.43047 -4.92381 0
M  V30 12924 H 1244.7 2.13755 -4.35244 0
M  V30 12925 N 1246.04 1.3432 0.824371 0
M  V30 12926 C 1246.97 1.2012 1.94027 0
M  V30 12927 C 1247.95 0.0931808 1.62333 0
M  V30 12928 O 1249.13 0.258069 1.86725 0
M  V30 12929 C 1246.26 0.845628 3.27974 0
M  V30 12930 C 1245.31 1.9632 3.7863 0
M  V30 12931 S 1246.14 3.57642 3.98563 0
M  V30 12932 C 1247.3 3.24124 5.35439 0
M  V30 12933 H 1247.53 2.14579 2.05775 0
M  V30 12934 H 1245.06 1.1933 0.979783 0
M  V30 12935 H 1247.02 0.647266 4.05365 0
M  V30 12936 H 1245.68 -0.0805948 3.13997 0
M  V30 12937 H 1244.87 1.66812 4.75594 0
M  V30 12938 H 1244.48 2.11897 3.08181 0
M  V30 12939 H 1246.77 2.75848 6.188 0
M  V30 12940 H 1247.71 4.20222 5.69929 0
M  V30 12941 H 1248.12 2.60343 5.00881 0
M  V30 12942 N 1247.52 -1.0444 1.18026 0
M  V30 12943 C 1248.43 -2.15862 0.918747 0
M  V30 12944 C 1249.44 -1.73614 -0.115808 0
M  V30 12945 O 1250.62 -2.01294 0.0652312 0
M  V30 12946 C 1247.68 -3.43846 0.443922 0
M  V30 12947 C 1246.74 -4.00497 1.54599 0
M  V30 12948 C 1245.98 -5.22373 1.09372 0
M  V30 12949 O 1246.2 -5.70379 -0.049085 0
M  V30 12950 O 1245.13 -5.71459 1.88992 0
M  V30 12951 H 1248.96 -2.40776 1.85097 0
M  V30 12952 H 1246.55 -1.14326 0.961769 0
M  V30 12953 H 1248.43 -4.20985 0.187017 0
M  V30 12954 H 1247.1 -3.20414 -0.460051 0
M  V30 12955 H 1246.01 -3.24764 1.85686 0
M  V30 12956 H 1247.34 -4.28262 2.42595 0
M  V30 12957 N 1248.99 -0.981699 -1.2329 0
M  V30 12958 C 1249.93 -0.481042 -2.24095 0
M  V30 12959 C 1250.94 0.417818 -1.57347 0
M  V30 12960 O 1252.13 0.221746 -1.77117 0
M  V30 12961 C 1249.23 0.323324 -3.37354 0
M  V30 12962 C 1248.4 -0.568975 -4.33684 0
M  V30 12963 C 1247.46 0.181761 -5.25886 0
M  V30 12964 O 1246.49 -0.429059 -5.67581 0
M  V30 12965 N 1247.69 1.46737 -5.61648 0
M  V30 12966 H 1250.45 -1.34781 -2.67683 0
M  V30 12967 H 1248.01 -0.855117 -1.37475 0
M  V30 12968 H 1250.01 0.833934 -3.96015 0
M  V30 12969 H 1248.58 1.09111 -2.9294 0
M  V30 12970 H 1247.8 -1.2604 -3.73507 0
M  V30 12971 H 1249.08 -1.17704 -4.94998 0
M  V30 12972 H 1248.48 1.98513 -5.29725 0
M  V30 12973 H 1247.04 1.92339 -6.22775 0
M  V30 12974 N 1250.47 1.3842 -0.753509 0
M  V30 12975 C 1251.4 2.33073 -0.141198 0
M  V30 12976 C 1252.38 1.54863 0.70367 0
M  V30 12977 O 1253.57 1.8318 0.644872 0
M  V30 12978 C 1250.7 3.39043 0.752802 0
M  V30 12979 C 1249.65 4.27999 0.0106692 0
M  V30 12980 C 1248.98 5.24824 1.02291 0
M  V30 12981 C 1250.28 5.09308 -1.15768 0
M  V30 12982 H 1251.97 2.84528 -0.93188 0
M  V30 12983 H 1249.52 1.36802 -0.449567 0
M  V30 12984 H 1251.47 4.04224 1.19083 0
M  V30 12985 H 1250.2 2.8607 1.57581 0
M  V30 12986 H 1248.85 3.64323 -0.407939 0
M  V30 12987 H 1248.5 4.68139 1.83998 0
M  V30 12988 H 1248.2 5.85196 0.53101 0
M  V30 12989 H 1249.73 5.92882 1.46026 0
M  V30 12990 H 1251.14 5.6773 -0.797203 0
M  V30 12991 H 1249.54 5.78914 -1.58044 0
M  V30 12992 H 1250.61 4.43051 -1.97062 0
M  V30 12993 N 1251.95 0.502579 1.49372 0
M  V30 12994 C 1252.91 -0.263993 2.27675 0
M  V30 12995 C 1253.91 -0.892538 1.33755 0
M  V30 12996 O 1255.1 -0.756826 1.56901 0
M  V30 12997 C 1252.24 -1.37895 3.11765 0
M  V30 12998 H 1253.43 0.423132 2.969 0
M  V30 12999 H 1250.98 0.257595 1.54163 0
M  V30 13000 H 1251.72 -2.10018 2.47109 0
M  V30 13001 H 1251.5 -0.933694 3.80821 0
M  V30 13002 H 1252.99 -1.91889 3.70902 0
M  V30 13003 N 1253.43 -1.55816 0.23648 0
M  V30 13004 C 1254.65 -2.03534 -0.398575 0
M  V30 13005 C 1255.08 -1.11488 -1.51499 0
M  V30 13006 O 1254.44 -0.105848 -1.80991 0
M  V30 13007 C 1254.48 -3.49356 -0.893467 0
M  V30 13008 O 1253.59 -3.60446 -2.00381 0
M  V30 13009 H 1252.93 -0.658102 -0.0883021 0
M  V30 13010 H 1255.46 -2.01417 0.359488 0
M  V30 13011 H 1255.47 -3.89972 -1.19941 0
M  V30 13012 H 1254.14 -4.1583 -0.0764388 0
M  V30 13013 H 1252.72 -3.31723 -1.70336 0
M  V30 13014 N 1254.91 0.036755 -1.57557 0
M  V30 13015 C 1255.85 1.03975 -2.06053 0
M  V30 13016 C 1256.82 1.36384 -0.948089 0
M  V30 13017 O 1258.01 1.46853 -1.21815 0
M  V30 13018 C 1255.15 2.33796 -2.53837 0
M  V30 13019 C 1254.26 2.07614 -3.78841 0
M  V30 13020 C 1253.4 3.3125 -4.15267 0
M  V30 13021 C 1252.44 3.00587 -5.33211 0
M  V30 13022 N 1251.57 4.16653 -5.65106 0
M  V30 13023 H 1256.41 0.61924 -2.91495 0
M  V30 13024 H 1253.95 0.294151 -1.44129 0
M  V30 13025 H 1255.91 3.09639 -2.79606 0
M  V30 13026 H 1254.54 2.73584 -1.71323 0
M  V30 13027 H 1253.59 1.22302 -3.60203 0
M  V30 13028 H 1254.9 1.80989 -4.64806 0
M  V30 13029 H 1254.06 4.15466 -4.42123 0
M  V30 13030 H 1252.79 3.60981 -3.27939 0
M  V30 13031 H 1251.8 2.14772 -5.06115 0
M  V30 13032 H 1253.02 2.72142 -6.22186 0
M  V30 13033 H 1250.97 4.4635 -4.80737 0
M  V30 13034 H 1250.89 3.93425 -6.45564 0
M  V30 13035 H 1252.16 5.01764 -5.96534 0
M  V30 13036 N 1256.39 1.54543 0.308881 0
M  V30 13037 C 1257.32 1.87947 1.38557 0
M  V30 13038 C 1258.3 0.737622 1.53275 0
M  V30 13039 O 1259.48 0.992664 1.66913 0
M  V30 13040 C 1256.61 2.11982 2.75102 0
M  V30 13041 C 1255.57 3.2783 2.75158 0
M  V30 13042 C 1254.89 3.37266 4.14917 0
M  V30 13043 C 1256.19 4.65129 2.37598 0
M  V30 13044 H 1257.89 2.78123 1.1085 0
M  V30 13045 H 1255.43 1.3382 0.531808 0
M  V30 13046 H 1257.38 2.33935 3.50503 0
M  V30 13047 H 1256.11 1.18569 3.04317 0
M  V30 13048 H 1254.77 3.05787 2.02212 0
M  V30 13049 H 1254.42 2.41384 4.41296 0
M  V30 13050 H 1254.12 4.15135 4.15857 0
M  V30 13051 H 1255.64 3.61471 4.92109 0
M  V30 13052 H 1257.05 4.86865 3.02714 0
M  V30 13053 H 1255.45 5.45653 2.49765 0
M  V30 13054 H 1256.52 4.6638 1.32731 0
M  V30 13055 N 1257.86 -0.571685 1.46866 0
M  V30 13056 C 1259.27 -1.15383 1.46778 0
M  V30 13057 C 1259.63 -1.95023 0.214576 0
M  V30 13058 O 1258.75 -2.05386 -0.681574 0
M  V30 13059 C 1259.35 -2.09915 2.65935 0
M  V30 13060 C 1257.9 -2.6343 2.68852 0
M  V30 13061 C 1257.05 -1.39517 2.39646 0
M  V30 13062 H 1260 -0.359036 1.54585 0
M  V30 13063 H 1260.02 -2.9356 2.42081 0
M  V30 13064 H 1259.54 -1.51923 3.57129 0
M  V30 13065 H 1257.64 -3.2526 1.8176 0
M  V30 13066 H 1257.75 -3.05412 3.69134 0
M  V30 13067 H 1256.11 -1.69702 1.8993 0
M  V30 13068 H 1256.9 -0.833399 3.33031 0
M  V30 13069 N 1259.34 -1.34755 -0.817236 0
M  V30 13070 C 1260.57 -1.30522 -1.60536 0
M  V30 13071 C 1260.98 0.119541 -1.88421 0
M  V30 13072 O 1260.34 1.06833 -1.47962 0
M  V30 13073 C 1260.39 -2.09939 -2.94292 0
M  V30 13074 O 1260.11 -3.46858 -2.67621 0
M  V30 13075 C 1261.61 -2.13168 -3.88683 0
M  V30 13076 H 1258.83 -0.448789 -0.498828 0
M  V30 13077 H 1261.38 -1.77453 -1.01639 0
M  V30 13078 H 1259.53 -1.66634 -3.49731 0
M  V30 13079 H 1259.95 -3.87979 -3.52949 0
M  V30 13080 H 1261.42 -2.73147 -4.79682 0
M  V30 13081 H 1261.9 -1.12758 -4.24479 0
M  V30 13082 H 1262.5 -2.56587 -3.39181 0
M  V30 13083 N 1260.82 1.03812 -1.18578 0
M  V30 13084 C 1262.07 1.76706 -0.980776 0
M  V30 13085 C 1262.39 1.88729 0.490562 0
M  V30 13086 O 1261.66 1.41413 1.35569 0
M  V30 13087 H 1260.24 0.654586 -0.359898 0
M  V30 13088 H 1262.9 1.25274 -1.49306 0
M  V30 13089 H 1262 2.77876 -1.42096 0
M  V30 13090 N 1262.3 0.988223 1.22768 0
M  V30 13091 C 1263.54 0.662441 1.91676 0
M  V30 13092 C 1263.88 -0.802931 1.76824 0
M  V30 13093 O 1263.15 -1.58011 1.13415 0
M  V30 13094 C 1263.43 1.06332 3.44043 0
M  V30 13095 C 1263.29 2.5869 3.67967 0
M  V30 13096 C 1264.61 0.613058 4.35809 0
M  V30 13097 H 1261.73 0.242132 0.69609 0
M  V30 13098 H 1264.37 1.23091 1.44736 0
M  V30 13099 H 1262.52 0.579623 3.84152 0
M  V30 13100 H 1264.19 3.14694 3.37291 0
M  V30 13101 H 1262.43 3.00971 3.12408 0
M  V30 13102 H 1263.1 2.8179 4.74656 0
M  V30 13103 H 1265.58 1.02846 4.0319 0
M  V30 13104 H 1264.46 0.921901 5.41103 0
M  V30 13105 H 1264.72 -0.48641 4.39416 0
M  V30 13106 N 1263.78 -1.38018 0.760839 0
M  V30 13107 C 1265.02 -1.99557 0.319609 0
M  V30 13108 C 1265.34 -1.60699 -1.10457 0
M  V30 13109 O 1264.61 -0.867248 -1.75658 0
M  V30 13110 H 1263.19 -0.738066 0.115182 0
M  V30 13111 H 1265.86 -1.6867 0.976544 0
M  V30 13112 H 1264.95 -3.09672 0.388523 0
M  V30 13113 N 1265.25 -0.510493 -1.49103 0
M  V30 13114 C 1266.48 0.0271324 -2.06582 0
M  V30 13115 C 1266.89 1.30499 -1.36991 0
M  V30 13116 O 1266.23 1.78229 -0.444976 0
M  V30 13117 C 1266.3 0.341488 -3.57874 0
M  V30 13118 C 1265.96 -0.840037 -4.49213 0
M  V30 13119 C 1266.96 -1.73315 -4.90161 0
M  V30 13120 C 1264.64 -1.04153 -4.91383 0
M  V30 13121 C 1266.64 -2.81182 -5.72028 0
M  V30 13122 C 1264.32 -2.12336 -5.73024 0
M  V30 13123 C 1265.32 -3.00684 -6.13252 0
M  V30 13124 O 1265.01 -4.06999 -6.93258 0
M  V30 13125 H 1264.74 -0.0215383 -0.675657 0
M  V30 13126 H 1267.3 -0.709841 -1.92744 0
M  V30 13127 H 1265.53 1.13218 -3.69755 0
M  V30 13128 H 1267.21 0.818859 -3.97554 0
M  V30 13129 H 1267.98 -1.58934 -4.58219 0
M  V30 13130 H 1263.86 -0.363199 -4.59567 0
M  V30 13131 H 1267.4 -3.50169 -6.03347 0
M  V30 13132 H 1263.3 -2.26708 -6.04379 0
M  V30 13133 H 1264.07 -4.04469 -7.11581 0
M  V30 13134 N 1266.73 1.55688 -0.24474 0
M  V30 13135 C 1268.01 1.90796 0.430821 0
M  V30 13136 C 1268.39 1.1652 1.76029 0
M  V30 13137 O 1267.74 0.281978 2.26753 0
M  V30 13138 C 1267.95 3.43786 0.601027 0
M  V30 13139 C 1269.29 4.14998 0.897894 0
M  V30 13140 O 1270.32 3.49513 0.68697 0
M  V30 13141 O 1269.18 5.30826 1.29945 0
M  V30 13142 H 1266.27 0.794086 0.230991 0
M  V30 13143 H 1268.82 1.67227 -0.288646 0
M  V30 13144 H 1267.59 3.89856 -0.335804 0
M  V30 13145 H 1267.21 3.73211 1.37112 0
M  V30 13146 N 1268.21 -0.0283989 1.57574 0
M  V30 13147 C 1269.46 -0.714661 1.90432 0
M  V30 13148 C 1269.81 -1.72929 0.843409 0
M  V30 13149 O 1269.1 -1.91029 -0.147815 0
M  V30 13150 C 1269.3 -1.4247 3.27776 0
M  V30 13151 C 1269.13 -0.480353 4.47127 0
M  V30 13152 C 1267.9 -0.101157 5.05199 0
M  V30 13153 C 1270.09 0.241526 5.13733 0
M  V30 13154 N 1268.08 0.844371 6.08065 0
M  V30 13155 C 1269.45 1.04269 6.11169 0
M  V30 13156 C 1271.5 0.308398 4.96944 0
M  V30 13157 C 1270.21 1.90459 6.93627 0
M  V30 13158 C 1272.23 1.15742 5.79964 0
M  V30 13159 C 1271.59 1.94651 6.76971 0
M  V30 13160 H 1267.69 -0.23559 0.745668 0
M  V30 13161 H 1270.28 0.0252703 1.94684 0
M  V30 13162 H 1268.45 -2.13509 3.24451 0
M  V30 13163 H 1270.18 -2.0634 3.48146 0
M  V30 13164 H 1266.93 -0.463482 4.71327 0
M  V30 13165 H 1267.36 1.31166 6.64172 0
M  V30 13166 H 1272 -0.287369 4.21822 0
M  V30 13167 H 1269.72 2.51115 7.68093 0
M  V30 13168 H 1273.3 1.2127 5.69021 0
M  V30 13169 H 1272.18 2.59286 7.40095 0
M  V30 13170 N 1269.69 -1.54705 -0.300681 0
M  V30 13171 C 1270.92 -1.77993 -1.0548 0
M  V30 13172 C 1271.33 -0.539574 -1.80926 0
M  V30 13173 O 1270.69 0.490597 -1.75782 0
M  V30 13174 C 1270.74 -2.98774 -2.0351 0
M  V30 13175 O 1270.46 -4.18016 -1.31126 0
M  V30 13176 C 1271.96 -3.34452 -2.90958 0
M  V30 13177 H 1269.18 -0.593628 -0.312805 0
M  V30 13178 H 1271.72 -2.01656 -0.339858 0
M  V30 13179 H 1269.88 -2.77318 -2.70506 0
M  V30 13180 H 1270.29 -4.86113 -1.96963 0
M  V30 13181 H 1271.77 -4.22206 -3.55593 0
M  V30 13182 H 1272.24 -2.52622 -3.59275 0
M  V30 13183 H 1272.85 -3.58069 -2.29493 0
M  V30 13184 N 1271.17 0.563888 -1.47167 0
M  V30 13185 C 1272.41 1.31875 -1.53145 0
M  V30 13186 C 1272.74 1.94047 -0.192518 0
M  V30 13187 O 1272.01 1.79577 0.782872 0
M  V30 13188 H 1270.59 0.489694 -0.5641 0
M  V30 13189 H 1273.25 0.658976 -1.83422 0
M  V30 13190 H 1272.34 2.11574 -2.2944 0
M  V30 13191 N 1272.64 1.35187 0.810078 0
M  V30 13192 C 1273.58 1.22171 1.92742 0
M  V30 13193 C 1274.56 0.110393 1.62225 0
M  V30 13194 O 1275.74 0.27786 1.86441 0
M  V30 13195 C 1272.87 0.880367 3.27058 0
M  V30 13196 C 1271.91 2.00325 3.76527 0
M  V30 13197 S 1272.75 3.6185 3.94747 0
M  V30 13198 C 1273.9 3.29784 5.31971 0
M  V30 13199 H 1274.13 2.16749 2.03488 0
M  V30 13200 H 1271.67 1.20362 0.967072 0
M  V30 13201 H 1273.63 0.690224 4.04656 0
M  V30 13202 H 1272.29 -0.0472868 3.14064 0
M  V30 13203 H 1271.48 1.71847 4.73798 0
M  V30 13204 H 1271.08 2.15154 3.05916 0
M  V30 13205 H 1273.37 2.82396 6.1584 0
M  V30 13206 H 1274.32 4.26243 5.6544 0
M  V30 13207 H 1274.72 2.65641 4.98092 0
M  V30 13208 N 1274.12 -1.03182 1.19127 0
M  V30 13209 C 1275.35 -1.80703 1.01791 0
M  V30 13210 C 1275.77 -1.83147 -0.428824 0
M  V30 13211 O 1275.13 -1.2553 -1.30812 0
M  V30 13212 C 1275.18 -3.23754 1.58794 0
M  V30 13213 O 1274.28 -4.04261 0.815274 0
M  V30 13214 H 1273.62 -0.557944 0.359992 0
M  V30 13215 H 1276.15 -1.29887 1.58084 0
M  V30 13216 H 1276.16 -3.7451 1.61884 0
M  V30 13217 H 1274.84 -3.2129 2.64094 0
M  V30 13218 H 1273.42 -3.62909 0.857392 0
M  V30 13219 N 1275.6 -0.99472 -1.22242 0
M  V30 13220 C 1276.83 -0.689096 -1.94769 0
M  V30 13221 C 1277.24 0.750597 -1.73674 0
M  V30 13222 O 1276.58 1.51836 -1.03399 0
M  V30 13223 C 1276.64 -0.917454 -3.47596 0
M  V30 13224 C 1276.31 -2.34198 -3.92429 0
M  V30 13225 C 1277.3 -3.3216 -3.99957 0
M  V30 13226 C 1274.99 -2.6769 -4.25026 0
M  V30 13227 C 1276.98 -4.61686 -4.3946 0
M  V30 13228 C 1274.67 -3.97435 -4.64208 0
M  V30 13229 C 1275.67 -4.94244 -4.71394 0
M  V30 13230 O 1275.36 -6.2167 -5.09688 0
M  V30 13231 H 1275.09 -0.253914 -0.626501 0
M  V30 13232 H 1277.64 -1.33271 -1.56294 0
M  V30 13233 H 1275.87 -0.21666 -3.86093 0
M  V30 13234 H 1277.56 -0.6068 -4.01339 0
M  V30 13235 H 1278.33 -3.07619 -3.74961 0
M  V30 13236 H 1274.21 -1.93039 -4.18637 0
M  V30 13237 H 1277.75 -5.37248 -4.44983 0
M  V30 13238 H 1273.65 -4.21765 -4.88656 0
M  V30 13239 H 1274.42 -6.25634 -5.27755 0
M  V30 13240 N 1277.08 1.37613 -0.768148 0
M  V30 13241 C 1278.01 2.28935 -0.110234 0
M  V30 13242 C 1279.02 1.48459 0.668122 0
M  V30 13243 O 1280.21 1.71154 0.506808 0
M  V30 13244 C 1277.31 3.27606 0.867598 0
M  V30 13245 C 1276.49 4.37163 0.143819 0
M  V30 13246 C 1275.54 5.15931 1.03449 0
M  V30 13247 O 1274.57 5.67003 0.499605 0
M  V30 13248 N 1275.77 5.30311 2.36114 0
M  V30 13249 H 1278.54 2.86037 -0.894585 0
M  V30 13250 H 1276.1 1.4955 -0.620185 0
M  V30 13251 H 1278.09 3.77183 1.4668 0
M  V30 13252 H 1276.66 2.71298 1.55294 0
M  V30 13253 H 1275.88 3.89031 -0.636257 0
M  V30 13254 H 1277.17 5.0755 -0.356446 0
M  V30 13255 H 1276.57 4.90394 2.82011 0
M  V30 13256 H 1275.12 5.83209 2.9105 0
M  V30 13257 N 1278.56 0.518393 1.4883 0
M  V30 13258 C 1279.47 -0.254811 2.33212 0
M  V30 13259 C 1280.48 -0.950401 1.45751 0
M  V30 13260 O 1281.66 -0.927932 1.78749 0
M  V30 13261 C 1278.72 -1.29509 3.21603 0
M  V30 13262 C 1277.78 -0.611086 4.24928 0
M  V30 13263 C 1277.02 -1.6018 5.09095 0
M  V30 13264 O 1277.24 -2.83336 4.95052 0
M  V30 13265 O 1276.17 -1.14756 5.90859 0
M  V30 13266 H 1280 0.436329 3.00549 0
M  V30 13267 H 1277.59 0.27947 1.46763 0
M  V30 13268 H 1279.47 -1.89654 3.7631 0
M  V30 13269 H 1278.14 -1.96884 2.5694 0
M  V30 13270 H 1277.05 0.0305638 3.74088 0
M  V30 13271 H 1278.38 0.0205249 4.92196 0
M  V30 13272 N 1280.03 -1.55556 0.252993 0
M  V30 13273 C 1281.45 -1.59276 -0.101714 0
M  V30 13274 C 1281.65 -1.27018 -1.56424 0
M  V30 13275 O 1280.71 -1.02042 -2.30963 0
M  V30 13276 C 1282.02 -2.99634 0.252969 0
M  V30 13277 C 1283.57 -3.12375 0.197767 0
M  V30 13278 C 1284.04 -4.54963 0.52657 0
M  V30 13279 N 1285.53 -4.60734 0.477296 0
M  V30 13280 C 1286.27 -5.69052 0.704793 0
M  V30 13281 N 1285.76 -6.85607 0.99574 0
M  V30 13282 N 1287.56 -5.58501 0.635086 0
M  V30 13283 H 1279.71 -1.74793 1.2067 0
M  V30 13284 H 1281.97 -0.813971 0.485958 0
M  V30 13285 H 1281.68 -3.27998 1.26926 0
M  V30 13286 H 1281.55 -3.74888 -0.416984 0
M  V30 13287 H 1283.94 -2.83788 -0.809209 0
M  V30 13288 H 1284.02 -2.39382 0.901659 0
M  V30 13289 H 1283.66 -4.84271 1.53113 0
M  V30 13290 H 1283.59 -5.26224 -0.198869 0
M  V30 13291 H 1286.08 -3.76995 0.261398 0
M  V30 13292 H 1286.4 -7.64096 1.15659 0
M  V30 13293 H 1284.74 -6.87276 1.03328 0
M  V30 13294 H 1287.93 -4.6632 0.407789 0
M  V30 13295 H 1288.11 -6.42845 0.815777 0
M  V30 13296 N 1281.51 0.0200419 -1.57587 0
M  V30 13297 C 1282.44 1.01715 -2.10181 0
M  V30 13298 C 1283.42 1.37136 -1.00636 0
M  V30 13299 O 1284.61 1.45862 -1.2821 0
M  V30 13300 C 1281.74 2.31531 -2.58865 0
M  V30 13301 C 1280.69 2.10327 -3.72755 0
M  V30 13302 C 1280.02 3.45981 -4.07678 0
M  V30 13303 C 1281.32 1.4821 -5.0083 0
M  V30 13304 H 1283.01 0.579307 -2.93742 0
M  V30 13305 H 1280.56 0.277211 -1.41307 0
M  V30 13306 H 1282.51 3.01623 -2.94281 0
M  V30 13307 H 1281.24 2.77392 -1.72399 0
M  V30 13308 H 1279.89 1.42665 -3.37701 0
M  V30 13309 H 1279.54 3.89508 -3.18265 0
M  V30 13310 H 1279.24 3.32616 -4.84397 0
M  V30 13311 H 1280.77 4.17421 -4.45637 0
M  V30 13312 H 1282.18 2.08232 -5.34146 0
M  V30 13313 H 1280.58 1.45393 -5.82221 0
M  V30 13314 H 1281.65 0.448942 -4.82817 0
M  V30 13315 N 1282.99 1.54862 0.292472 0
M  V30 13316 C 1284.22 1.78877 1.04966 0
M  V30 13317 C 1284.64 0.550724 1.79857 0
M  V30 13318 O 1284 -0.499054 1.74296 0
M  V30 13319 C 1284.05 3.00106 1.99922 0
M  V30 13320 O 1283.15 2.73827 3.0837 0
M  V30 13321 H 1282.49 0.591802 0.301108 0
M  V30 13322 H 1285.02 2.01965 0.3273 0
M  V30 13323 H 1285.03 3.28309 2.42233 0
M  V30 13324 H 1283.71 3.89872 1.44821 0
M  V30 13325 H 1282.28 2.56665 2.70513 0
M  V30 13326 N 1284.47 -0.556076 1.47464 0
M  V30 13327 C 1285.72 -1.31061 1.53842 0
M  V30 13328 C 1286.04 -1.93943 0.202806 0
M  V30 13329 O 1285.31 -1.7999 -0.773338 0
M  V30 13330 H 1283.89 -0.486696 0.566689 0
M  V30 13331 H 1286.55 -0.64924 1.83769 0
M  V30 13332 H 1285.65 -2.10354 2.30559 0
M  V30 13333 N 1285.95 -1.35615 -0.802897 0
M  V30 13334 C 1286.9 -1.28877 -1.93632 0
M  V30 13335 C 1287.89 -0.183014 -1.68408 0
M  V30 13336 O 1289.1 -0.349218 -1.7658 0
M  V30 13337 H 1285.47 -0.400883 -0.636236 0
M  V30 13338 H 1287.44 -2.24624 -1.96435 0
M  V30 13339 C 1286.19 -1.08136 -3.30457 0
M  V30 13340 H 1285.51 -1.92463 -3.50426 0
M  V30 13341 H 1286.95 -1.07464 -4.10155 0
M  V30 13342 C 1285.41 0.214635 -3.36216 0
M  V30 13343 O 1285.94 1.20916 -3.8307 0
M  V30 13344 N 1284.15 0.25468 -2.89482 0
M  V30 13345 H 1283.7 -0.555239 -2.51545 0
M  V30 13346 H 1283.65 1.12152 -2.93716 0
M  V30 13347 N 1287.43 1.02549 -1.19673 0
M  V30 13348 C 1288.36 2.10991 -0.8953 0
M  V30 13349 C 1289.37 1.62405 0.113373 0
M  V30 13350 O 1290.56 1.7812 -0.116485 0
M  V30 13351 C 1287.66 3.37394 -0.319124 0
M  V30 13352 C 1286.83 4.15154 -1.37718 0
M  V30 13353 C 1285.89 5.19867 -0.81393 0
M  V30 13354 O 1284.92 5.49285 -1.49246 0
M  V30 13355 N 1286.12 5.79248 0.381089 0
M  V30 13356 H 1288.88 2.37438 -1.82875 0
M  V30 13357 H 1286.45 1.18867 -1.09919 0
M  V30 13358 H 1288.44 4.04637 0.0716106 0
M  V30 13359 H 1287.01 3.08267 0.518681 0
M  V30 13360 H 1286.23 3.4301 -1.94262 0
M  V30 13361 H 1287.52 4.63892 -2.09003 0
M  V30 13362 H 1286.91 5.5767 0.949791 0
M  V30 13363 H 1285.47 6.47882 0.713563 0
M  V30 13364 N 1288.9 1.00119 1.21713 0
M  V30 13365 C 1289.87 0.563409 2.22167 0
M  V30 13366 C 1290.87 -0.35819 1.5676 0
M  V30 13367 O 1292.06 -0.149001 1.73562 0
M  V30 13368 C 1289.19 -0.179365 3.40428 0
M  V30 13369 H 1290.38 1.45189 2.62412 0
M  V30 13370 H 1287.93 0.789286 1.34907 0
M  V30 13371 H 1288.67 -1.08345 3.05666 0
M  V30 13372 H 1288.45 0.482471 3.8912 0
M  V30 13373 H 1289.94 -0.473537 4.14906 0
M  V30 13374 N 1290.38 -1.37203 0.775435 0
M  V30 13375 C 1291.79 -1.82224 0.406372 0
M  V30 13376 C 1292.14 -1.64587 -1.06796 0
M  V30 13377 O 1291.27 -1.15903 -1.82744 0
M  V30 13378 C 1291.86 -3.30824 0.730819 0
M  V30 13379 C 1290.42 -3.74108 0.414766 0
M  V30 13380 C 1289.57 -2.59679 0.972747 0
M  V30 13381 H 1292.52 -1.25623 0.969775 0
M  V30 13382 H 1292.54 -3.80496 0.0168066 0
M  V30 13383 H 1292.05 -3.43628 1.80392 0
M  V30 13384 H 1290.15 -3.66871 -0.650866 0
M  V30 13385 H 1290.27 -4.70074 0.925595 0
M  V30 13386 H 1288.63 -2.51591 0.396772 0
M  V30 13387 H 1289.41 -2.75274 2.05132 0
M  V30 13388 N 1291.86 -0.526279 -1.48553 0
M  V30 13389 C 1293.08 0.00731432 -2.07399 0
M  V30 13390 C 1293.51 1.27737 -1.38075 0
M  V30 13391 O 1292.87 1.75741 -0.445503 0
M  V30 13392 C 1292.92 0.218126 -3.5994 0
M  V30 13393 O 1292.02 1.28759 -3.91784 0
M  V30 13394 H 1291.36 -0.0374784 -0.662941 0
M  V30 13395 H 1293.89 -0.733133 -1.91014 0
M  V30 13396 H 1293.9 0.44192 -4.056 0
M  V30 13397 H 1292.58 -0.709668 -4.09801 0
M  V30 13398 H 1291.15 1.04674 -3.57907 0
M  V30 13399 N 1293.34 1.5542 -0.261239 0
M  V30 13400 C 1294.27 2.24949 0.626126 0
M  V30 13401 C 1295.25 1.23474 1.16997 0
M  V30 13402 O 1296.43 1.52161 1.20667 0
M  V30 13403 C 1293.56 2.95996 1.81669 0
M  V30 13404 C 1292.52 4.04282 1.40499 0
M  V30 13405 C 1291.84 4.62831 2.67753 0
M  V30 13406 C 1293.14 5.1923 0.56543 0
M  V30 13407 H 1294.84 2.99364 0.0463164 0
M  V30 13408 H 1292.38 1.43985 0.0208366 0
M  V30 13409 H 1294.34 3.43343 2.44323 0
M  V30 13410 H 1293.06 2.19093 2.42211 0
M  V30 13411 H 1291.72 3.57726 0.801712 0
M  V30 13412 H 1291.37 3.82611 3.26524 0
M  V30 13413 H 1291.07 5.35938 2.40925 0
M  V30 13414 H 1292.59 5.12918 3.31281 0
M  V30 13415 H 1294.01 5.62714 1.09663 0
M  V30 13416 H 1292.4 5.98814 0.392607 0
M  V30 13417 H 1293.47 4.83086 -0.419059 0
M  V30 13418 N 1294.82 -0.0116844 1.57596 0
M  V30 13419 C 1296.05 -0.70923 1.94045 0
M  V30 13420 C 1296.45 -1.6848 0.860877 0
M  V30 13421 O 1295.8 -1.82913 -0.169896 0
M  V30 13422 C 1295.86 -1.50653 3.2641 0
M  V30 13423 C 1295.52 -0.693838 4.51702 0
M  V30 13424 C 1296.52 0.0134445 5.19898 0
M  V30 13425 C 1294.2 -0.643252 4.98164 0
M  V30 13426 C 1296.2 0.760426 6.32848 0
M  V30 13427 C 1293.89 0.107462 6.11006 0
M  V30 13428 C 1294.88 0.808045 6.78203 0
M  V30 13429 O 1294.57 1.54654 7.88884 0
M  V30 13430 H 1294.3 -0.203265 0.644716 0
M  V30 13431 H 1296.86 0.0320123 2.05375 0
M  V30 13432 H 1295.09 -2.29199 3.11456 0
M  V30 13433 H 1296.78 -2.08832 3.48058 0
M  V30 13434 H 1297.54 -0.016558 4.84997 0
M  V30 13435 H 1293.42 -1.17807 4.45693 0
M  V30 13436 H 1296.97 1.30779 6.85232 0
M  V30 13437 H 1292.86 0.139327 6.4535 0
M  V30 13438 H 1293.63 1.46202 8.05337 0
M  V30 13439 N 1296.29 -1.55015 -0.284256 0
M  V30 13440 C 1297.26 -1.8636 -1.33426 0
M  V30 13441 C 1298.26 -0.737457 -1.42892 0
M  V30 13442 O 1299.45 -1.00569 -1.42238 0
M  V30 13443 C 1296.58 -2.05884 -2.71707 0
M  V30 13444 H 1297.77 -2.80212 -1.06869 0
M  V30 13445 H 1295.32 -1.47334 -0.521767 0
M  V30 13446 H 1296.06 -1.14376 -3.03461 0
M  V30 13447 H 1295.84 -2.87867 -2.66224 0
M  V30 13448 H 1297.33 -2.31447 -3.47595 0
M  V30 13449 N 1297.77 0.548248 -1.47757 0
M  V30 13450 C 1299.02 1.30139 -1.54099 0
M  V30 13451 C 1299.33 1.9445 -0.2118 0
M  V30 13452 O 1300.54 2.71067 -0.153302 0
M  V30 13453 C 1299 2.36039 -2.71687 0
M  V30 13454 C 1298.6 1.77879 -4.11173 0
M  V30 13455 C 1300.35 3.12478 -2.87329 0
M  V30 13456 C 1298.25 2.81611 -5.20047 0
M  V30 13457 H 1297.18 0.489364 -0.573619 0
M  V30 13458 H 1299.84 0.581237 -1.74051 0
M  V30 13459 H 1298.22 3.11008 -2.45132 0
M  V30 13460 H 1299.39 1.09221 -4.47669 0
M  V30 13461 H 1297.71 1.13994 -4.00493 0
M  V30 13462 H 1300.3 3.89958 -3.65837 0
M  V30 13463 H 1300.65 3.67218 -1.96103 0
M  V30 13464 H 1301.18 2.4462 -3.13697 0
M  V30 13465 H 1297.92 2.31714 -6.13179 0
M  V30 13466 H 1297.44 3.48652 -4.88059 0
M  V30 13467 H 1299.12 3.44938 -5.47382 0
M  V30 13468 N 1299.25 1.36039 0.795694 0
M  V30 13469 C 1300.47 1.33222 1.58955 0
M  V30 13470 C 1300.9 -0.0854596 1.87906 0
M  V30 13471 O 1300.26 -1.05555 1.47403 0
M  V30 13472 C 1300.31 2.15508 2.89117 0
M  V30 13473 O 1299.41 1.54327 3.82436 0
M  V30 13474 H 1298.75 0.456264 0.48241 0
M  V30 13475 H 1301.28 1.79234 0.986726 0
M  V30 13476 H 1301.29 2.2786 3.38444 0
M  V30 13477 H 1299.97 3.18568 2.67371 0
M  V30 13478 H 1298.54 1.50879 3.41013 0
M  V30 13479 N 1300.73 -1.01913 1.20215 0
M  V30 13480 C 1301.66 -2.12282 0.97256 0
M  V30 13481 C 1302.64 -1.6982 -0.0975709 0
M  V30 13482 O 1303.82 -1.94109 0.0594307 0
M  V30 13483 C 1300.95 -3.43369 0.521085 0
M  V30 13484 C 1299.91 -3.99559 1.53417 0
M  V30 13485 C 1299.23 -5.26383 0.93942 0
M  V30 13486 C 1300.53 -4.33241 2.91718 0
M  V30 13487 H 1302.23 -2.31746 1.89563 0
M  V30 13488 H 1299.77 -1.1137 0.912841 0
M  V30 13489 H 1301.73 -4.19963 0.347713 0
M  V30 13490 H 1300.45 -3.23655 -0.437605 0
M  V30 13491 H 1299.11 -3.25069 1.69486 0
M  V30 13492 H 1298.76 -5.02993 -0.0271236 0
M  V30 13493 H 1298.46 -5.64942 1.616 0
M  V30 13494 H 1299.98 -6.05635 0.777059 0
M  V30 13495 H 1301.4 -5.00734 2.79175 0
M  V30 13496 H 1299.79 -4.82907 3.56259 0
M  V30 13497 H 1300.86 -3.42118 3.43633 0
M  V30 13498 N 1302.21 -1.00763 -1.2118 0
M  V30 13499 C 1303.46 -0.687197 -1.89633 0
M  V30 13500 C 1303.77 0.78566 -1.79128 0
M  V30 13501 O 1304.97 1.21828 -2.42632 0
M  V30 13502 C 1303.43 -1.1787 -3.40051 0
M  V30 13503 C 1303.04 -2.67782 -3.59161 0
M  V30 13504 C 1304.78 -0.933277 -4.14114 0
M  V30 13505 C 1302.69 -3.10459 -5.03358 0
M  V30 13506 H 1301.62 -0.253342 -0.710165 0
M  V30 13507 H 1304.27 -1.21914 -1.37147 0
M  V30 13508 H 1302.65 -0.574791 -3.91806 0
M  V30 13509 H 1303.83 -3.33645 -3.17833 0
M  V30 13510 H 1302.14 -2.90368 -2.98455 0
M  V30 13511 H 1304.74 -1.22766 -5.20416 0
M  V30 13512 H 1305.08 0.130431 -4.16096 0
M  V30 13513 H 1305.61 -1.50011 -3.68431 0
M  V30 13514 H 1302.35 -4.16068 -5.06525 0
M  V30 13515 H 1301.87 -2.4931 -5.45531 0
M  V30 13516 H 1303.55 -3.02589 -5.71882 0
M  V30 13517 N 1303.68 1.3679 -0.7827 0
M  V30 13518 C 1304.93 1.99712 -0.352533 0
M  V30 13519 C 1305.26 1.61984 1.0712 0
M  V30 13520 O 1304.54 0.871342 1.7389 0
M  V30 13521 C 1304.82 3.5649 -0.508628 0
M  V30 13522 C 1304.67 4.04093 -1.97557 0
M  V30 13523 C 1305.99 4.40026 0.0804447 0
M  V30 13524 H 1303.11 0.725522 -0.129566 0
M  V30 13525 H 1305.75 1.62305 -0.987788 0
M  V30 13526 H 1303.9 3.88487 0.0321664 0
M  V30 13527 H 1305.58 3.82613 -2.57691 0
M  V30 13528 H 1303.82 3.55881 -2.48055 0
M  V30 13529 H 1304.49 5.13088 -2.03579 0
M  V30 13530 H 1306.97 4.14351 -0.381113 0
M  V30 13531 H 1305.84 5.48868 -0.0588424 0
M  V30 13532 H 1306.1 4.26285 1.17189 0
M  V30 13533 N 1305.16 0.53415 1.48272 0
M  V30 13534 C 1306.41 0.00157492 2.028 0
M  V30 13535 C 1306.74 -1.33538 1.41001 0
M  V30 13536 O 1306.02 -1.86347 0.557245 0
M  V30 13537 C 1306.3 -0.116016 3.59913 0
M  V30 13538 C 1306.15 1.2464 4.32186 0
M  V30 13539 C 1307.47 -0.840775 4.31994 0
M  V30 13540 H 1304.59 0.00204634 0.736997 0
M  V30 13541 H 1307.23 0.691985 1.76951 0
M  V30 13542 H 1305.38 -0.704027 3.82068 0
M  V30 13543 H 1307.05 1.87584 4.21438 0
M  V30 13544 H 1305.3 1.8272 3.93441 0
M  V30 13545 H 1305.97 1.11708 5.40579 0
M  V30 13546 H 1308.44 -0.341746 4.14694 0
M  V30 13547 H 1307.32 -0.89196 5.41604 0
M  V30 13548 H 1307.58 -1.89197 3.99571 0
M  V30 13549 N 1306.64 -1.55279 0.269478 0
M  V30 13550 C 1307.89 -1.99471 -0.348913 0
M  V30 13551 C 1308.22 -1.15784 -1.56283 0
M  V30 13552 O 1307.47 -0.214115 -1.94525 0
M  V30 13553 C 1307.77 -3.48773 -0.780535 0
M  V30 13554 C 1307.44 -4.49705 0.328113 0
M  V30 13555 C 1306.1 -4.77024 0.632544 0
M  V30 13556 C 1308.45 -5.09984 1.07544 0
M  V30 13557 C 1305.78 -5.61893 1.68798 0
M  V30 13558 C 1308.13 -5.95999 2.12057 0
M  V30 13559 C 1306.79 -6.21642 2.4314 0
M  V30 13560 H 1306.06 -0.729918 -0.127676 0
M  V30 13561 H 1308.71 -1.87651 0.382015 0
M  V30 13562 H 1307.02 -3.5804 -1.59105 0
M  V30 13563 H 1308.71 -3.80369 -1.26966 0
M  V30 13564 H 1305.3 -4.28524 0.0807131 0
M  V30 13565 H 1309.49 -4.88906 0.853506 0
M  V30 13566 H 1304.74 -5.80009 1.93389 0
M  V30 13567 H 1308.92 -6.41743 2.70442 0
M  V30 13568 H 1306.54 -6.87198 3.25059 0
M  V30 13569 N 1308.12 0.00332656 -1.576 0
M  V30 13570 C 1309.05 0.994803 -2.11248 0
M  V30 13571 C 1310.03 1.36061 -1.02085 0
M  V30 13572 O 1311.21 1.44494 -1.2975 0
M  V30 13573 C 1308.34 2.28772 -2.61306 0
M  V30 13574 C 1307.3 2.06362 -3.74965 0
M  V30 13575 C 1306.62 3.41638 -4.11324 0
M  V30 13576 C 1307.92 1.4289 -5.02374 0
M  V30 13577 H 1309.62 0.548119 -2.9434 0
M  V30 13578 H 1307.16 0.262208 -1.41593 0
M  V30 13579 H 1309.12 2.98485 -2.97464 0
M  V30 13580 H 1307.84 2.75547 -1.75332 0
M  V30 13581 H 1306.5 1.39076 -3.39195 0
M  V30 13582 H 1306.15 3.8611 -3.22379 0
M  V30 13583 H 1305.85 3.2746 -4.87897 0
M  V30 13584 H 1307.37 4.12671 -4.50039 0
M  V30 13585 H 1308.79 2.02555 -5.36325 0
M  V30 13586 H 1307.18 1.3921 -5.8373 0
M  V30 13587 H 1308.25 0.397708 -4.83266 0
M  V30 13588 N 1309.6 1.55164 0.276031 0
M  V30 13589 C 1310.84 1.77377 1.01572 0
M  V30 13590 C 1311.2 0.56142 1.83608 0
M  V30 13591 O 1312.4 0.661745 2.60527 0
M  V30 13592 C 1310.67 3.0412 1.87738 0
M  V30 13593 S 1312.23 3.4744 2.68013 0
M  V30 13594 H 1309.05 0.62326 0.342153 0
M  V30 13595 H 1311.65 1.9339 0.286456 0
M  V30 13596 H 1310.36 3.90453 1.26389 0
M  V30 13597 H 1309.89 2.90764 2.6499 0
M  V30 13598 H 1311.9 3.06474 3.90241 0
M  V30 13599 N 1311.07 -0.540404 1.48045 0
M  V30 13600 C 1312 -1.65538 1.6468 0
M  V30 13601 C 1312.99 -1.62713 0.495847 0
M  V30 13602 O 1314.17 -1.80072 0.727172 0
M  V30 13603 C 1311.3 -3.0415 1.67661 0
M  V30 13604 C 1310.25 -3.2183 2.82152 0
M  V30 13605 C 1309.58 -4.61397 2.70216 0
M  V30 13606 C 1310.88 -3.05596 4.23567 0
M  V30 13607 H 1312.57 -1.51873 2.58021 0
M  V30 13608 H 1310.12 -0.729208 1.24171 0
M  V30 13609 H 1312.07 -3.82013 1.77887 0
M  V30 13610 H 1310.8 -3.18814 0.708907 0
M  V30 13611 H 1309.46 -2.4638 2.71463 0
M  V30 13612 H 1309.1 -4.72883 1.71437 0
M  V30 13613 H 1308.8 -4.74174 3.47035 0
M  V30 13614 H 1310.33 -5.41374 2.82395 0
M  V30 13615 H 1311.74 -3.73261 4.35143 0
M  V30 13616 H 1310.14 -3.29871 5.01303 0
M  V30 13617 H 1311.21 -2.0214 4.40758 0
M  V30 13618 N 1312.55 -1.36459 -0.788468 0
M  V30 13619 C 1313.52 -1.3071 -1.88275 0
M  V30 13620 C 1314.52 -0.214596 -1.59362 0
M  V30 13621 O 1315.71 -0.469437 -1.67756 0
M  V30 13622 C 1312.84 -1.02648 -3.25079 0
M  V30 13623 H 1314.03 -2.28029 -1.94788 0
M  V30 13624 H 1311.58 -1.21245 -0.986375 0
M  V30 13625 H 1312.32 -0.0578992 -3.24248 0
M  V30 13626 H 1312.1 -1.81708 -3.47454 0
M  V30 13627 H 1313.59 -1.01233 -4.05144 0
M  V30 13628 N 1314.03 1.01274 -1.20754 0
M  V30 13629 C 1314.99 2.08056 -0.961528 0
M  V30 13630 C 1315.99 1.60671 0.0644461 0
M  V30 13631 O 1317.18 1.73349 -0.172022 0
M  V30 13632 C 1314.32 3.37938 -0.448381 0
M  V30 13633 H 1315.51 2.31314 -1.90877 0
M  V30 13634 H 1313.06 1.18133 -1.02344 0
M  V30 13635 H 1313.8 3.20357 0.504144 0
M  V30 13636 H 1313.58 3.73659 -1.18833 0
M  V30 13637 H 1315.07 4.16551 -0.295876 0
M  V30 13638 N 1315.51 1.01404 1.20644 0
M  V30 13639 C 1316.44 0.602465 2.25594 0
M  V30 13640 C 1317.42 -0.381216 1.65773 0
M  V30 13641 O 1318.61 -0.267209 1.92353 0
M  V30 13642 C 1315.74 -0.0626245 3.47244 0
M  V30 13643 C 1314.69 0.841776 4.1964 0
M  V30 13644 C 1314.02 0.0426002 5.34683 0
M  V30 13645 C 1315.32 2.14864 4.76058 0
M  V30 13646 H 1317.01 1.47977 2.60275 0
M  V30 13647 H 1314.56 0.712966 1.25111 0
M  V30 13648 H 1316.51 -0.362095 4.19841 0
M  V30 13649 H 1315.23 -0.974627 3.11719 0
M  V30 13650 H 1313.89 1.12521 3.48905 0
M  V30 13651 H 1313.54 -0.870973 4.95402 0
M  V30 13652 H 1313.24 0.644866 5.84051 0
M  V30 13653 H 1314.76 -0.250476 6.10086 0
M  V30 13654 H 1316.18 1.9117 5.40488 0
M  V30 13655 H 1314.57 2.70153 5.35852 0
M  V30 13656 H 1315.64 2.81336 3.9494 0
M  V30 13657 N 1316.99 -1.36373 0.789944 0
M  V30 13658 C 1318.22 -2.03187 0.373987 0
M  V30 13659 C 1318.63 -1.59697 -1.01457 0
M  V30 13660 O 1317.97 -0.782151 -1.66217 0
M  V30 13661 C 1318.03 -3.57703 0.358985 0
M  V30 13662 C 1317.69 -4.24396 1.69521 0
M  V30 13663 C 1318.69 -4.47247 2.65077 0
M  V30 13664 C 1316.38 -4.61858 1.97465 0
M  V30 13665 C 1318.37 -5.06642 3.86772 0
M  V30 13666 C 1316.06 -5.2097 3.19426 0
M  V30 13667 C 1317.06 -5.43302 4.13899 0
M  V30 13668 O 1316.74 -6.01173 5.3371 0
M  V30 13669 H 1316.48 -0.658654 0.152153 0
M  V30 13670 H 1319.03 -1.7532 1.07014 0
M  V30 13671 H 1317.26 -3.84691 -0.39366 0
M  V30 13672 H 1318.95 -4.05887 -0.0323762 0
M  V30 13673 H 1319.71 -4.18701 2.44775 0
M  V30 13674 H 1315.59 -4.438 1.2475 0
M  V30 13675 H 1319.14 -5.23989 4.60523 0
M  V30 13676 H 1315.03 -5.48943 3.39606 0
M  V30 13677 H 1315.8 -6.19638 5.34781 0
M  V30 13678 N 1318.47 -0.542005 -1.47987 0
M  V30 13679 C 1319.38 0.217677 -2.33588 0
M  V30 13680 C 1320.39 0.927093 -1.47245 0
M  V30 13681 O 1321.57 0.899378 -1.80203 0
M  V30 13682 C 1318.63 1.24376 -3.23622 0
M  V30 13683 C 1317.69 0.543407 -4.25847 0
M  V30 13684 C 1316.93 1.5206 -5.11579 0
M  V30 13685 O 1317.15 2.75425 -4.99497 0
M  V30 13686 O 1316.08 1.05341 -5.9261 0
M  V30 13687 H 1319.91 -0.484089 -2.99817 0
M  V30 13688 H 1317.49 -0.302783 -1.463 0
M  V30 13689 H 1319.38 1.83644 -3.7928 0
M  V30 13690 H 1318.05 1.92772 -2.6004 0
M  V30 13691 H 1316.96 -0.090074 -3.73992 0
M  V30 13692 H 1318.29 -0.0988264 -4.92101 0
M  V30 13693 N 1319.94 1.55134 -0.277709 0
M  V30 13694 C 1321.17 2.04519 0.344472 0
M  V30 13695 C 1321.59 1.15466 1.4849 0
M  V30 13696 O 1320.95 0.153798 1.80646 0
M  V30 13697 C 1321 3.51602 0.800527 0
M  V30 13698 O 1320.1 3.65632 1.90754 0
M  V30 13699 H 1319.44 0.660212 0.0708226 0
M  V30 13700 H 1321.97 2.00393 -0.412764 0
M  V30 13701 H 1321.98 3.93015 1.09559 0
M  V30 13702 H 1320.66 4.15886 -0.033838 0
M  V30 13703 H 1319.24 3.36122 1.61481 0
M  V30 13704 N 1321.42 0.00503138 1.57599 0
M  V30 13705 C 1322.67 -0.674107 1.91905 0
M  V30 13706 C 1323.02 -1.71101 0.8799 0
M  V30 13707 O 1322.32 -1.913 -0.107261 0
M  V30 13708 C 1322.51 -1.35485 3.30724 0
M  V30 13709 C 1322.34 -0.385403 4.48045 0
M  V30 13710 C 1321.11 0.00602574 5.053 0
M  V30 13711 C 1323.31 0.350442 5.13105 0
M  V30 13712 N 1321.29 0.97316 6.06138 0
M  V30 13713 C 1322.66 1.1721 6.0882 0
M  V30 13714 C 1324.71 0.413738 4.96178 0
M  V30 13715 C 1323.42 2.05129 6.89431 0
M  V30 13716 C 1325.44 1.28018 5.77378 0
M  V30 13717 C 1324.81 2.08967 6.7269 0
M  V30 13718 H 1320.9 -0.219721 0.750498 0
M  V30 13719 H 1323.49 0.0665598 1.94586 0
M  V30 13720 H 1321.66 -2.06578 3.28907 0
M  V30 13721 H 1323.39 -1.98909 3.52445 0
M  V30 13722 H 1320.15 -0.363403 4.72204 0
M  V30 13723 H 1320.57 1.45225 6.6124 0
M  V30 13724 H 1325.21 -0.19783 4.22337 0
M  V30 13725 H 1322.93 2.67351 7.62594 0
M  V30 13726 H 1326.52 1.33313 5.66321 0
M  V30 13727 H 1325.4 2.74926 7.34428 0
M  V30 13728 N 1322.9 -1.55308 -0.267798 0
M  V30 13729 C 1324.12 -1.80524 -1.02107 0
M  V30 13730 C 1324.55 -0.579268 -1.78958 0
M  V30 13731 O 1323.91 0.471262 -1.75068 0
M  V30 13732 C 1323.96 -3.03248 -1.95123 0
M  V30 13733 O 1323.06 -2.78699 -3.03975 0
M  V30 13734 H 1322.4 -0.596518 -0.291655 0
M  V30 13735 H 1324.93 -2.0246 -0.295128 0
M  V30 13736 H 1324.94 -3.32121 -2.3698 0
M  V30 13737 H 1323.62 -3.92126 -1.386 0
M  V30 13738 H 1322.19 -2.60936 -2.66396 0
M  V30 13739 N 1324.38 0.532545 -1.4833 0
M  V30 13740 C 1325.63 1.28498 -1.55471 0
M  V30 13741 C 1325.94 1.94214 -0.232412 0
M  V30 13742 O 1327.15 2.70889 -0.182044 0
M  V30 13743 C 1325.6 2.33144 -2.74175 0
M  V30 13744 C 1325.21 1.73508 -4.13036 0
M  V30 13745 C 1326.95 3.09413 -2.90627 0
M  V30 13746 C 1324.86 2.76079 -5.23005 0
M  V30 13747 H 1323.79 0.483253 -0.578777 0
M  V30 13748 H 1326.44 0.562744 -1.74658 0
M  V30 13749 H 1324.82 3.08391 -2.48417 0
M  V30 13750 H 1326 1.04466 -4.48802 0
M  V30 13751 H 1324.31 1.0974 -4.01679 0
M  V30 13752 H 1326.91 3.86056 -3.69953 0
M  V30 13753 H 1327.25 3.65118 -1.99987 0
M  V30 13754 H 1327.79 2.4128 -3.16274 0
M  V30 13755 H 1324.52 2.25197 -6.15602 0
M  V30 13756 H 1324.04 3.43456 -4.9173 0
M  V30 13757 H 1325.72 3.39113 -5.51009 0
M  V30 13758 N 1325.86 1.36875 0.78122 0
M  V30 13759 C 1327.27 1.28236 1.35692 0
M  V30 13760 C 1327.62 -0.0742286 1.9606 0
M  V30 13761 O 1326.74 -0.97588 1.93146 0
M  V30 13762 C 1327.34 2.32215 2.46702 0
M  V30 13763 C 1325.9 2.2724 3.00065 0
M  V30 13764 C 1325.04 2.16553 1.73206 0
M  V30 13765 H 1327.99 1.47634 0.582217 0
M  V30 13766 H 1328.02 1.96333 3.25935 0
M  V30 13767 H 1327.53 3.30938 2.02735 0
M  V30 13768 H 1325.63 1.3201 3.48431 0
M  V30 13769 H 1325.74 3.20267 3.56323 0
M  V30 13770 H 1324.11 1.62941 1.95761 0
M  V30 13771 H 1324.89 3.17176 1.31356 0
M  V30 13772 N 1327.33 -1.00632 1.21289 0
M  V30 13773 C 1328.58 -1.74388 1.02932 0
M  V30 13774 C 1328.91 -1.8952 -0.437327 0
M  V30 13775 O 1328.16 -1.42551 -1.3408 0
M  V30 13776 C 1328.46 -3.1598 1.67007 0
M  V30 13777 C 1328.13 -3.208 3.16857 0
M  V30 13778 C 1326.79 -3.21823 3.57748 0
M  V30 13779 C 1329.14 -3.18147 4.12834 0
M  V30 13780 C 1326.47 -3.17877 4.93124 0
M  V30 13781 C 1328.82 -3.15743 5.48169 0
M  V30 13782 C 1327.49 -3.15074 5.88459 0
M  V30 13783 H 1326.76 -0.638133 0.376653 0
M  V30 13784 H 1329.4 -1.17953 1.50862 0
M  V30 13785 H 1327.71 -3.75639 1.11365 0
M  V30 13786 H 1329.41 -3.71764 1.50307 0
M  V30 13787 H 1326 -3.20746 2.84289 0
M  V30 13788 H 1330.18 -3.16519 3.82269 0
M  V30 13789 H 1325.44 -3.15696 5.2359 0
M  V30 13790 H 1329.61 -3.12644 6.22275 0
M  V30 13791 H 1327.24 -3.11771 6.93327 0
M  V30 13792 N 1328.81 -1.02043 -1.20104 0
M  V30 13793 C 1330.04 -0.731142 -1.94085 0
M  V30 13794 C 1330.46 0.702467 -1.74491 0
M  V30 13795 O 1329.82 1.48387 -1.04168 0
M  V30 13796 C 1329.87 -1.07691 -3.44144 0
M  V30 13797 O 1328.97 -0.190751 -4.11959 0
M  V30 13798 H 1328.31 -0.270917 -0.606218 0
M  V30 13799 H 1330.84 -1.36483 -1.52426 0
M  V30 13800 H 1330.85 -1.03023 -3.94779 0
M  V30 13801 H 1329.53 -2.1214 -3.57728 0
M  V30 13802 H 1328.1 -0.29529 -3.71729 0
M  V30 13803 N 1330.29 1.35952 -0.797165 0
M  V30 13804 C 1331.54 1.99327 -0.373695 0
M  V30 13805 C 1331.87 1.63111 1.05396 0
M  V30 13806 O 1331.14 0.889736 1.72956 0
M  V30 13807 C 1331.43 3.5593 -0.54641 0
M  V30 13808 C 1331.28 4.01975 -2.01832 0
M  V30 13809 C 1332.6 4.40087 0.0337694 0
M  V30 13810 H 1329.72 0.724107 -0.137254 0
M  V30 13811 H 1332.36 1.61248 -1.00495 0
M  V30 13812 H 1330.51 3.88499 -0.00903959 0
M  V30 13813 H 1332.18 3.79859 -2.61735 0
M  V30 13814 H 1330.43 3.5323 -2.51815 0
M  V30 13815 H 1331.1 5.109 -2.09009 0
M  V30 13816 H 1333.57 4.13923 -0.425039 0
M  V30 13817 H 1332.45 5.48775 -0.117054 0
M  V30 13818 H 1332.71 4.27504 1.12661 0
M  V30 13819 N 1331.77 0.549846 1.47697 0
M  V30 13820 C 1332.7 -0.249645 2.2683 0
M  V30 13821 C 1333.68 -0.926968 1.33589 0
M  V30 13822 O 1334.86 -0.947423 1.62961 0
M  V30 13823 C 1331.99 -1.35511 3.1041 0
M  V30 13824 C 1331.04 -0.787118 4.19174 0
M  V30 13825 S 1331.87 0.360564 5.34285 0
M  V30 13826 C 1333.03 -0.746898 6.21428 0
M  V30 13827 H 1333.26 0.421876 2.94292 0
M  V30 13828 H 1330.79 0.336017 1.50699 0
M  V30 13829 H 1332.75 -1.98825 3.59137 0
M  V30 13830 H 1331.41 -1.99844 2.42325 0
M  V30 13831 H 1330.6 -1.61704 4.77355 0
M  V30 13832 H 1330.21 -0.230301 3.7329 0
M  V30 13833 H 1332.5 -1.6408 6.57331 0
M  V30 13834 H 1333.44 -0.202608 7.0781 0
M  V30 13835 H 1333.85 -1.03625 5.54907 0
M  V30 13836 N 1333.25 -1.54984 0.285932 0
M  V30 13837 C 1334.18 -2.25916 -0.590259 0
M  V30 13838 C 1335.16 -1.25319 -1.15018 0
M  V30 13839 O 1336.34 -1.54062 -1.18231 0
M  V30 13840 C 1333.47 -2.98849 -1.76936 0
M  V30 13841 C 1332.43 -4.06466 -1.3405 0
M  V30 13842 C 1331.75 -4.67032 -2.60356 0
M  V30 13843 C 1333.05 -5.20064 -0.482754 0
M  V30 13844 H 1334.75 -2.994 0.00131571 0
M  V30 13845 H 1332.29 -1.44 0.00207281 0
M  V30 13846 H 1334.25 -3.47186 -2.3883 0
M  V30 13847 H 1332.97 -2.22918 -2.38694 0
M  V30 13848 H 1331.63 -3.58957 -0.7447 0
M  V30 13849 H 1331.28 -3.87757 -3.20396 0
M  V30 13850 H 1330.98 -5.39703 -2.32368 0
M  V30 13851 H 1332.5 -5.18124 -3.23079 0
M  V30 13852 H 1333.91 -5.64387 -1.00697 0
M  V30 13853 H 1332.31 -5.99363 -0.297291 0
M  V30 13854 H 1333.38 -4.82358 0.495861 0
M  V30 13855 N 1334.72 -0.0133892 -1.57594 0
M  V30 13856 C 1335.97 0.669624 -1.91426 0
M  V30 13857 C 1336.3 1.72675 -0.888656 0
M  V30 13858 O 1335.58 1.94288 0.0908138 0
M  V30 13859 C 1335.86 1.30051 -3.35796 0
M  V30 13860 C 1335.71 0.254021 -4.49082 0
M  V30 13861 C 1337.03 2.22297 -3.79832 0
M  V30 13862 H 1334.15 0.241958 -0.69615 0
M  V30 13863 H 1336.79 -0.0674278 -1.8988 0
M  V30 13864 H 1334.94 1.92871 -3.37243 0
M  V30 13865 H 1336.62 -0.375524 -4.59769 0
M  V30 13866 H 1334.86 -0.422267 -4.3174 0
M  V30 13867 H 1335.53 0.734756 -5.47088 0
M  V30 13868 H 1338.01 1.69481 -3.8002 0
M  V30 13869 H 1336.88 2.634 -4.81572 0
M  V30 13870 H 1337.14 3.10764 -3.14449 0
M  V30 13871 N 1336.2 1.55448 0.259558 0
M  V30 13872 C 1337.45 1.76948 0.990816 0
M  V30 13873 C 1337.78 0.576401 1.85449 0
M  V30 13874 O 1337.06 -0.425693 1.89784 0
M  V30 13875 C 1337.34 3.08221 1.86204 0
M  V30 13876 C 1337.19 4.37909 1.0274 0
M  V30 13877 C 1338.51 3.35627 2.84679 0
M  V30 13878 H 1335.63 0.64377 0.358788 0
M  V30 13879 H 1338.27 1.88182 0.262211 0
M  V30 13880 H 1336.42 2.98775 2.48326 0
M  V30 13881 H 1338.09 4.5933 0.425855 0
M  V30 13882 H 1336.34 4.32533 0.331308 0
M  V30 13883 H 1337.01 5.26116 1.6705 0
M  V30 13884 H 1339.48 3.44954 2.32693 0
M  V30 13885 H 1338.36 4.28719 3.42769 0
M  V30 13886 H 1338.62 2.55921 3.60496 0
M  V30 13887 N 1337.68 -0.524672 1.4861 0
M  V30 13888 C 1339.09 -1.10655 1.50374 0
M  V30 13889 C 1339.44 -1.94242 0.276512 0
M  V30 13890 O 1338.57 -2.07451 -0.615887 0
M  V30 13891 C 1339.16 -2.01348 2.72478 0
M  V30 13892 C 1337.72 -2.54743 2.77097 0
M  V30 13893 C 1336.87 -1.31822 2.43964 0
M  V30 13894 H 1339.82 -0.309674 1.55649 0
M  V30 13895 H 1339.84 -2.85709 2.51297 0
M  V30 13896 H 1339.35 -1.40485 3.61781 0
M  V30 13897 H 1337.45 -3.19313 1.92016 0
M  V30 13898 H 1337.57 -2.93514 3.78664 0
M  V30 13899 H 1335.93 -1.63574 1.95233 0
M  V30 13900 H 1336.71 -0.727026 3.35513 0
M  V30 13901 N 1339.16 -1.37287 -0.77395 0
M  V30 13902 C 1340.09 -1.35569 -1.90114 0
M  V30 13903 C 1341.07 -0.224658 -1.6861 0
M  V30 13904 O 1342.25 -0.424676 -1.895 0
M  V30 13905 C 1339.38 -1.15971 -3.27365 0
M  V30 13906 C 1338.34 -2.26063 -3.63427 0
M  V30 13907 C 1337.66 -1.9159 -4.99197 0
M  V30 13908 C 1338.96 -3.68236 -3.70405 0
M  V30 13909 H 1340.66 -2.29891 -1.91808 0
M  V30 13910 H 1338.2 -1.10661 -0.92142 0
M  V30 13911 H 1340.16 -1.134 -4.05855 0
M  V30 13912 H 1338.88 -0.181043 -3.26098 0
M  V30 13913 H 1337.54 -2.27786 -2.87244 0
M  V30 13914 H 1337.19 -0.922586 -4.94467 0
M  V30 13915 H 1336.89 -2.65309 -5.24294 0
M  V30 13916 H 1338.41 -1.90602 -5.80089 0
M  V30 13917 H 1339.83 -3.68655 -4.39052 0
M  V30 13918 H 1338.22 -4.4099 -4.06999 0
M  V30 13919 H 1339.29 -4.02021 -2.71122 0
M  V30 13920 N 1340.64 0.999871 -1.21821 0
M  V30 13921 C 1341.88 1.73497 -1.0365 0
M  V30 13922 C 1342.21 1.90194 0.430271 0
M  V30 13923 O 1341.48 1.45655 1.31002 0
M  V30 13924 H 1340.06 0.642804 -0.380541 0
M  V30 13925 H 1342.72 1.20461 -1.53216 0
M  V30 13926 H 1341.81 2.73215 -1.50864 0
M  V30 13927 N 1342.11 1.02678 1.19562 0
M  V30 13928 C 1343.36 0.723086 1.89471 0
M  V30 13929 C 1343.69 -0.746269 1.79289 0
M  V30 13930 O 1342.97 -1.54322 1.18384 0
M  V30 13931 C 1343.25 1.17224 3.40486 0
M  V30 13932 C 1343.1 2.70266 3.5955 0
M  V30 13933 C 1344.42 0.751397 4.33638 0
M  V30 13934 H 1341.54 0.264155 0.688034 0
M  V30 13935 H 1344.18 1.27633 1.40747 0
M  V30 13936 H 1342.33 0.701544 3.82113 0
M  V30 13937 H 1344.01 3.25266 3.27108 0
M  V30 13938 H 1342.25 3.10758 3.02675 0
M  V30 13939 H 1342.92 2.96748 4.65451 0
M  V30 13940 H 1345.4 1.15621 3.99714 0
M  V30 13941 H 1344.27 1.09358 5.37896 0
M  V30 13942 H 1344.53 -0.346367 4.40741 0
M  V30 13943 N 1343.59 -1.35528 0.804364 0
M  V30 13944 C 1344.84 -1.98084 0.380196 0
M  V30 13945 C 1345.15 -1.64531 -1.05778 0
M  V30 13946 O 1346.36 -2.20435 -1.58495 0
M  V30 13947 C 1344.82 -3.54364 0.628848 0
M  V30 13948 C 1344.42 -3.96828 2.07921 0
M  V30 13949 C 1346.17 -4.23641 0.269927 0
M  V30 13950 C 1344.08 -5.45944 2.27374 0
M  V30 13951 H 1343.01 -0.741185 0.138422 0
M  V30 13952 H 1345.66 -1.54624 0.988107 0
M  V30 13953 H 1344.04 -3.9597 -0.0489837 0
M  V30 13954 H 1345.21 -3.6638 2.79467 0
M  V30 13955 H 1343.53 -3.40433 2.39779 0
M  V30 13956 H 1346.12 -5.33251 0.393344 0
M  V30 13957 H 1346.47 -4.08858 -0.783644 0
M  V30 13958 H 1347 -3.87448 0.901588 0
M  V30 13959 H 1343.74 -5.65693 3.31168 0
M  V30 13960 H 1343.26 -5.77969 1.6035 0
M  V30 13961 H 1344.94 -6.12376 2.08817 0
M  V30 13962 N 1345.07 -0.557671 -1.47404 0
M  V30 13963 C 1346.32 -0.0337216 -2.02072 0
M  V30 13964 C 1346.64 1.32106 -1.43433 0
M  V30 13965 O 1345.91 1.86171 -0.609692 0
M  V30 13966 H 1344.49 -0.00947648 -0.74694 0
M  V30 13967 H 1347.15 -0.727784 -1.80802 0
M  V30 13968 H 1346.25 0.0540331 -3.12053 0
M  V30 13969 N 1346.55 1.54831 -0.294147 0
M  V30 13970 C 1347.51 2.21946 0.572061 0
M  V30 13971 C 1348.51 1.20331 1.06663 0
M  V30 13972 O 1349.7 1.45112 0.963757 0
M  V30 13973 C 1346.83 2.90044 1.7913 0
M  V30 13974 H 1348.03 2.99897 -0.0142234 0
M  V30 13975 H 1345.58 1.56235 -0.0449187 0
M  V30 13976 H 1346.32 2.16154 2.4176 0
M  V30 13977 H 1346.1 3.64527 1.44439 0
M  V30 13978 H 1347.59 3.41263 2.40684 0
M  V30 13979 N 1348.03 0.0217466 1.57585 0
M  V30 13980 C 1348.96 -0.961069 2.12804 0
M  V30 13981 C 1349.94 -1.3442 1.04237 0
M  V30 13982 O 1351.12 -1.42412 1.32032 0
M  V30 13983 C 1348.25 -2.24586 2.64912 0
M  V30 13984 C 1347.21 -2.0037 3.78201 0
M  V30 13985 C 1346.53 -3.35051 4.16708 0
M  V30 13986 C 1347.83 -1.34879 5.04584 0
M  V30 13987 H 1349.53 -0.501222 2.95175 0
M  V30 13988 H 1347.07 -0.239649 1.41992 0
M  V30 13989 H 1349.03 -2.93715 3.02175 0
M  V30 13990 H 1347.75 -2.72723 1.79693 0
M  V30 13991 H 1346.41 -1.33662 3.41365 0
M  V30 13992 H 1346.06 -3.80932 3.28481 0
M  V30 13993 H 1345.76 -3.19656 4.93045 0
M  V30 13994 H 1347.28 -4.05459 4.56547 0
M  V30 13995 H 1348.7 -1.93997 5.3948 0
M  V30 13996 H 1347.09 -1.29906 5.85871 0
M  V30 13997 H 1348.16 -0.320774 4.83838 0
M  V30 13998 N 1349.51 -1.55583 -0.251311 0
M  V30 13999 C 1350.44 -1.9296 -1.31486 0
M  V30 14000 C 1351.42 -0.794001 -1.50431 0
M  V30 14001 O 1352.6 -1.05393 -1.63113 0
M  V30 14002 C 1349.73 -2.22046 -2.67045 0
M  V30 14003 C 1348.69 -3.37816 -2.62801 0
M  V30 14004 C 1348.01 -3.52433 -4.02113 0
M  V30 14005 C 1349.31 -4.73626 -2.20171 0
M  V30 14006 H 1351.01 -2.82046 -1.00451 0
M  V30 14007 H 1348.55 -1.35702 -0.481775 0
M  V30 14008 H 1350.5 -2.46783 -3.41579 0
M  V30 14009 H 1349.23 -1.29782 -2.99707 0
M  V30 14010 H 1347.89 -3.13081 -1.90724 0
M  V30 14011 H 1347.54 -2.57597 -4.32034 0
M  V30 14012 H 1347.24 -4.30283 -4.00163 0
M  V30 14013 H 1348.76 -3.79486 -4.78354 0
M  V30 14014 H 1350.17 -4.97764 -2.84436 0
M  V30 14015 H 1348.57 -5.54547 -2.29341 0
M  V30 14016 H 1349.64 -4.70985 -1.1533 0
M  V30 14017 N 1350.98 0.516783 -1.48886 0
M  V30 14018 C 1351.95 1.60226 -1.63891 0
M  V30 14019 C 1352.95 1.52448 -0.511479 0
M  V30 14020 O 1354.14 1.55882 -0.777582 0
M  V30 14021 C 1351.27 2.99867 -1.62151 0
M  V30 14022 H 1352.46 1.48256 -2.60692 0
M  V30 14023 H 1350.01 0.739844 -1.37681 0
M  V30 14024 H 1350.75 3.1733 -0.668764 0
M  V30 14025 H 1350.53 3.0692 -2.44013 0
M  V30 14026 H 1352.02 3.7876 -1.7587 0
M  V30 14027 N 1352.46 1.37696 0.766659 0
M  V30 14028 C 1353.42 1.33688 1.86172 0
M  V30 14029 C 1354.42 0.239922 1.59 0
M  V30 14030 O 1355.61 0.496066 1.66988 0
M  V30 14031 C 1352.75 1.07807 3.23405 0
M  V30 14032 H 1353.94 2.311 1.91136 0
M  V30 14033 H 1351.49 1.22799 0.966961 0
M  V30 14034 H 1352.23 0.109477 3.24115 0
M  V30 14035 H 1352.01 1.87213 3.4452 0
M  V30 14036 H 1353.5 1.07665 4.03482 0
M  V30 14037 N 1353.94 -0.993397 1.22349 0
M  V30 14038 C 1355.17 -1.76838 1.07406 0
M  V30 14039 C 1355.58 -1.8503 -0.37542 0
M  V30 14040 O 1354.94 -1.32008 -1.26016 0
M  V30 14041 C 1354.99 -3.20177 1.67837 0
M  V30 14042 O 1354.71 -3.12429 3.07115 0
M  V30 14043 C 1356.21 -4.14125 1.58161 0
M  V30 14044 H 1353.43 -0.555379 0.376557 0
M  V30 14045 H 1355.98 -1.24893 1.61932 0
M  V30 14046 H 1354.13 -3.69191 1.17375 0
M  V30 14047 H 1354.55 -4.02568 3.36213 0
M  V30 14048 H 1356.02 -5.12455 2.05169 0
M  V30 14049 H 1356.5 -4.35892 0.538073 0
M  V30 14050 H 1357.1 -3.71008 2.07926 0
M  V30 14051 N 1355.42 -1.03311 -1.19015 0
M  V30 14052 C 1356.66 -0.732039 -1.88805 0
M  V30 14053 C 1356.99 0.739688 -1.79886 0
M  V30 14054 O 1356.25 1.55476 -1.18851 0
M  V30 14055 C 1356.55 -1.13402 -3.38932 0
M  V30 14056 C 1356.21 -2.60473 -3.68055 0
M  V30 14057 C 1354.87 -3.00654 -3.75713 0
M  V30 14058 C 1357.23 -3.55604 -3.81045 0
M  V30 14059 C 1354.55 -4.3487 -3.93833 0
M  V30 14060 C 1356.91 -4.89529 -4.00679 0
M  V30 14061 C 1355.57 -5.29392 -4.06571 0
M  V30 14062 H 1354.84 -0.267872 -0.690888 0
M  V30 14063 H 1357.49 -1.29673 -1.40915 0
M  V30 14064 H 1355.79 -0.487997 -3.88749 0
M  V30 14065 H 1357.49 -0.878532 -3.91258 0
M  V30 14066 H 1354.08 -2.28348 -3.62706 0
M  V30 14067 H 1358.26 -3.25711 -3.74467 0
M  V30 14068 H 1353.52 -4.65285 -3.96636 0
M  V30 14069 H 1357.69 -5.63153 -4.09672 0
M  V30 14070 H 1355.32 -6.33402 -4.20364 0
M  V30 14071 N 1356.9 1.35099 -0.81154 0
M  V30 14072 C 1358.31 1.51701 -0.495883 0
M  V30 14073 C 1358.51 1.7595 0.982035 0
M  V30 14074 O 1357.57 1.8038 1.7669 0
M  V30 14075 C 1358.88 2.68916 -1.34554 0
M  V30 14076 C 1360.43 2.82795 -1.34149 0
M  V30 14077 C 1360.9 4.0304 -2.17538 0
M  V30 14078 N 1362.39 4.10227 -2.151 0
M  V30 14079 C 1363.13 5.02397 -2.76377 0
M  V30 14080 N 1362.63 5.99866 -3.46601 0
M  V30 14081 N 1364.42 4.95181 -2.65992 0
M  V30 14082 H 1356.57 1.17617 -1.76862 0
M  V30 14083 H 1358.83 0.575875 -0.753042 0
M  V30 14084 H 1358.54 2.57591 -2.39458 0
M  V30 14085 H 1358.41 3.63641 -1.00223 0
M  V30 14086 H 1360.8 2.93568 -0.300285 0
M  V30 14087 H 1360.88 1.88912 -1.7247 0
M  V30 14088 H 1360.52 3.93027 -3.21702 0
M  V30 14089 H 1360.45 4.96114 -1.76574 0
M  V30 14090 H 1362.95 3.40454 -1.6401 0
M  V30 14091 H 1363.26 6.66803 -3.90632 0
M  V30 14092 H 1361.6 6.00025 -3.50706 0
M  V30 14093 H 1364.79 4.17991 -2.10715 0
M  V30 14094 H 1364.97 5.6682 -3.14036 0
M  V30 14095 N 1358.37 0.56548 1.47106 0
M  V30 14096 C 1359.62 0.0444375 2.02051 0
M  V30 14097 C 1359.94 -1.31344 1.44131 0
M  V30 14098 O 1359.21 -1.85845 0.619556 0
M  V30 14099 H 1357.79 0.0134375 0.746879 0
M  V30 14100 H 1360.45 0.737362 1.80413 0
M  V30 14101 H 1359.55 -0.0374834 3.12077 0
M  V30 14102 N 1359.85 -1.54672 0.302354 0
M  V30 14103 C 1360.78 -2.2653 -0.566265 0
M  V30 14104 C 1361.76 -1.26532 -1.13682 0
M  V30 14105 O 1362.95 -1.55307 -1.1659 0
M  V30 14106 C 1360.08 -3.00709 -1.73757 0
M  V30 14107 C 1359.03 -4.07865 -1.29731 0
M  V30 14108 C 1358.36 -4.69767 -2.55388 0
M  V30 14109 C 1359.66 -5.20547 -0.427567 0
M  V30 14110 H 1361.35 -2.99382 0.033071 0
M  V30 14111 H 1358.9 -1.4399 0.0173458 0
M  V30 14112 H 1360.85 -3.497 -2.35134 0
M  V30 14113 H 1359.58 -2.25437 -2.36317 0
M  V30 14114 H 1358.23 -3.59726 -0.706586 0
M  V30 14115 H 1357.88 -3.91134 -3.16265 0
M  V30 14116 H 1357.58 -5.42137 -2.26631 0
M  V30 14117 H 1359.11 -5.21521 -3.17566 0
M  V30 14118 H 1360.52 -5.65424 -0.947053 0
M  V30 14119 H 1358.92 -5.99645 -0.233704 0
M  V30 14120 H 1359.99 -4.81805 0.546993 0
M  V30 14121 N 1361.33 -0.0301034 -1.57571 0
M  V30 14122 C 1362.56 0.658488 -1.96142 0
M  V30 14123 C 1362.97 1.65606 -0.906644 0
M  V30 14124 O 1362.33 1.82159 0.111441 0
M  V30 14125 C 1362.38 1.364 -3.34779 0
M  V30 14126 O 1362.1 0.4064 -4.36211 0
M  V30 14127 C 1363.6 2.14432 -3.87987 0
M  V30 14128 H 1360.82 0.181496 -0.645988 0
M  V30 14129 H 1363.37 -0.09016 -2.04301 0
M  V30 14130 H 1361.52 2.06404 -3.27836 0
M  V30 14131 H 1361.94 0.907503 -5.16589 0
M  V30 14132 H 1363.41 2.59248 -4.87334 0
M  V30 14133 H 1363.89 2.98377 -3.22285 0
M  V30 14134 H 1364.49 1.49383 -3.98202 0
M  V30 14135 N 1362.81 1.55714 0.243056 0
M  V30 14136 C 1363.76 1.91467 1.32072 0
M  V30 14137 C 1364.75 0.794182 1.4963 0
M  V30 14138 O 1365.96 0.978835 1.51059 0
M  V30 14139 H 1362.33 0.60815 0.442333 0
M  V30 14140 H 1364.3 2.81433 0.991865 0
M  V30 14141 C 1363.05 2.22917 2.6684 0
M  V30 14142 H 1362.37 3.08639 2.5413 0
M  V30 14143 H 1363.81 2.51833 3.4111 0
M  V30 14144 C 1362.27 1.04683 3.20223 0
M  V30 14145 O 1362.8 0.296806 4.00602 0
M  V30 14146 N 1361.01 0.836419 2.78303 0
M  V30 14147 H 1360.56 1.44804 2.13048 0
M  V30 14148 H 1360.51 0.0470167 3.14365 0
M  V30 14149 N 1364.29 -0.50888 1.49158 0
M  V30 14150 C 1365.56 -1.27021 1.48745 0
M  V30 14151 C 1365.94 -2.10045 0.210772 0
M  V30 14152 O 1365.29 -2.13773 -0.807061 0
M  V30 14153 C 1365.5 -2.13367 2.76181 0
M  V30 14154 C 1366.85 -2.72815 3.25357 0
M  V30 14155 O 1367.87 -2.23639 2.77243 0
M  V30 14156 O 1366.73 -3.62316 4.09133 0
M  V30 14157 H 1363.83 -0.574387 0.594986 0
M  V30 14158 H 1366.37 -0.523798 1.61414 0
M  V30 14159 H 1365.14 -1.51941 3.60596 0
M  V30 14160 H 1364.77 -2.95215 2.66334 0
M  V30 14161 N 1365.76 -1.381 -0.759346 0
M  V30 14162 C 1367.01 -1.3419 -1.52055 0
M  V30 14163 C 1367.34 0.0697657 -1.94075 0
M  V30 14164 O 1366.62 1.02975 -1.65004 0
M  V30 14165 C 1366.9 -2.29236 -2.7771 0
M  V30 14166 C 1366.75 -3.79237 -2.41866 0
M  V30 14167 C 1368.07 -2.22511 -3.79706 0
M  V30 14168 H 1365.19 -0.488768 -0.551611 0
M  V30 14169 H 1367.83 -1.68902 -0.870174 0
M  V30 14170 H 1365.98 -1.99764 -3.33206 0
M  V30 14171 H 1367.66 -4.19358 -1.92189 0
M  V30 14172 H 1365.9 -3.97199 -1.74399 0
M  V30 14173 H 1366.57 -4.41193 -3.31742 0
M  V30 14174 H 1369.05 -2.48516 -3.33735 0
M  V30 14175 H 1367.92 -2.91134 -4.6533 0
M  V30 14176 H 1368.18 -1.22206 -4.24874 0
M  V30 14177 N 1367.24 0.986894 -1.22875 0
M  V30 14178 C 1368.47 1.7601 -1.08185 0
M  V30 14179 C 1368.88 1.85545 0.370088 0
M  V30 14180 O 1368.22 1.32915 1.26804 0
M  V30 14181 C 1368.29 3.20661 -1.62532 0
M  V30 14182 C 1367.95 3.34655 -3.11216 0
M  V30 14183 C 1368.95 3.21493 -4.08581 0
M  V30 14184 C 1366.63 3.59512 -3.50794 0
M  V30 14185 C 1368.63 3.32983 -5.43508 0
M  V30 14186 C 1366.31 3.70642 -4.85868 0
M  V30 14187 C 1367.31 3.57387 -5.82034 0
M  V30 14188 O 1367 3.68135 -7.14655 0
M  V30 14189 H 1366.73 0.559402 -0.379533 0
M  V30 14190 H 1369.28 1.24905 -1.63058 0
M  V30 14191 H 1367.51 3.72985 -1.02073 0
M  V30 14192 H 1369.2 3.7972 -1.43415 0
M  V30 14193 H 1369.97 3.02193 -3.79347 0
M  V30 14194 H 1365.85 3.68904 -2.76461 0
M  V30 14195 H 1369.39 3.22553 -6.18551 0
M  V30 14196 H 1365.29 3.89451 -5.1478 0
M  V30 14197 H 1366.06 3.84971 -7.22316 0
M  V30 14198 N 1368.72 1.0394 1.18466 0
M  V30 14199 C 1369.97 0.742042 1.88414 0
M  V30 14200 C 1370.3 -0.730138 1.80275 0
M  V30 14201 O 1369.55 -1.54844 1.19674 0
M  V30 14202 C 1369.85 1.15198 3.38326 0
M  V30 14203 C 1369.52 2.62422 3.66668 0
M  V30 14204 C 1368.18 3.02643 3.74113 0
M  V30 14205 C 1370.53 3.5762 3.79153 0
M  V30 14206 C 1367.86 4.36953 3.91522 0
M  V30 14207 C 1370.21 4.91647 3.98077 0
M  V30 14208 C 1368.87 5.31541 4.03758 0
M  V30 14209 H 1368.14 0.271532 0.689457 0
M  V30 14210 H 1370.79 1.30419 1.40225 0
M  V30 14211 H 1369.1 0.508607 3.88485 0
M  V30 14212 H 1370.79 0.899269 3.90787 0
M  V30 14213 H 1367.38 2.30268 3.61489 0
M  V30 14214 H 1371.57 3.27693 3.72735 0
M  V30 14215 H 1366.82 4.67382 3.94163 0
M  V30 14216 H 1371 5.65318 4.0668 0
M  V30 14217 H 1368.62 6.35622 4.16999 0
M  V30 14218 N 1370.2 -1.34667 0.818693 0
M  V30 14219 C 1371.13 -2.28368 0.195126 0
M  V30 14220 C 1372.14 -1.50836 -0.612562 0
M  V30 14221 O 1373.33 -1.72917 -0.442936 0
M  V30 14222 C 1370.43 -3.30601 -0.745411 0
M  V30 14223 C 1369.61 -4.37396 0.0185308 0
M  V30 14224 C 1368.66 -5.19415 -0.842298 0
M  V30 14225 O 1367.69 -5.68467 -0.288821 0
M  V30 14226 N 1368.89 -5.38709 -2.1627 0
M  V30 14227 H 1371.66 -2.8252 1.00013 0
M  V30 14228 H 1369.22 -1.47146 0.675262 0
M  V30 14229 H 1371.21 -3.82367 -1.3258 0
M  V30 14230 H 1369.78 -2.76875 -1.45118 0
M  V30 14231 H 1369 -3.86402 0.780205 0
M  V30 14232 H 1370.29 -5.05877 0.544575 0
M  V30 14233 H 1369.69 -5.00523 -2.63616 0
M  V30 14234 H 1368.24 -5.9361 -2.69204 0
M  V30 14235 N 1371.68 -0.573274 -1.46804 0
M  V30 14236 C 1372.92 -0.0553432 -2.02724 0
M  V30 14237 C 1373.26 1.29753 -1.44492 0
M  V30 14238 O 1372.53 1.84804 -0.606455 0
M  V30 14239 C 1372.81 0.0205511 -3.60094 0
M  V30 14240 C 1372.67 -1.36055 -4.2873 0
M  V30 14241 C 1373.99 0.725944 -4.34071 0
M  V30 14242 H 1371.1 -0.0215858 -0.736684 0
M  V30 14243 H 1373.75 -0.738657 -1.75054 0
M  V30 14244 H 1371.9 0.602481 -3.838 0
M  V30 14245 H 1373.57 -1.98692 -4.16316 0
M  V30 14246 H 1371.81 -1.93087 -3.88458 0
M  V30 14247 H 1372.48 -1.26001 -5.37427 0
M  V30 14248 H 1374.96 0.231677 -4.15455 0
M  V30 14249 H 1373.83 0.74805 -5.43779 0
M  V30 14250 H 1374.1 1.78536 -4.04447 0
M  V30 14251 N 1373.15 1.5451 -0.310553 0
M  V30 14252 C 1374.4 1.99931 0.29532 0
M  V30 14253 C 1374.72 1.20042 1.53672 0
M  V30 14254 O 1373.99 0.298841 1.93607 0
M  V30 14255 H 1372.57 0.738539 0.112111 0
M  V30 14256 H 1375.24 1.9023 -0.424092 0
M  V30 14257 H 1374.33 3.07021 0.560749 0
M  V30 14258 N 1374.63 0.0384594 1.57553 0
M  V30 14259 C 1375.56 -0.938444 2.13812 0
M  V30 14260 C 1376.54 -1.33307 1.05657 0
M  V30 14261 O 1377.73 -1.41003 1.33535 0
M  V30 14262 C 1374.86 -2.21764 2.67279 0
M  V30 14263 C 1373.81 -1.96347 3.80305 0
M  V30 14264 C 1373.14 -3.30612 4.20238 0
M  V30 14265 C 1374.44 -1.2952 5.05986 0
M  V30 14266 H 1376.13 -0.469887 2.9569 0
M  V30 14267 H 1373.68 -0.224576 1.42238 0
M  V30 14268 H 1375.63 -2.90493 3.05273 0
M  V30 14269 H 1374.36 -2.70802 1.82576 0
M  V30 14270 H 1373.02 -1.30033 3.42764 0
M  V30 14271 H 1372.66 -3.77427 3.32502 0
M  V30 14272 H 1372.36 -3.14409 4.96408 0
M  V30 14273 H 1373.89 -4.00594 4.60822 0
M  V30 14274 H 1375.3 -1.88264 5.41507 0
M  V30 14275 H 1373.7 -1.23685 5.87216 0
M  V30 14276 H 1374.77 -0.269439 4.84151 0
M  V30 14277 N 1376.11 -1.55841 -0.234795 0
M  V30 14278 C 1377.04 -1.94344 -1.29432 0
M  V30 14279 C 1378.02 -0.809912 -1.49581 0
M  V30 14280 O 1379.21 -1.07117 -1.61986 0
M  V30 14281 C 1376.34 -2.24866 -2.64675 0
M  V30 14282 C 1375.29 -3.40584 -2.59203 0
M  V30 14283 C 1374.62 -3.56678 -3.98353 0
M  V30 14284 C 1375.92 -4.75935 -2.15135 0
M  V30 14285 H 1377.61 -2.83096 -0.97454 0
M  V30 14286 H 1375.16 -1.36205 -0.467355 0
M  V30 14287 H 1377.11 -2.50392 -3.38942 0
M  V30 14288 H 1375.83 -1.32953 -2.98314 0
M  V30 14289 H 1374.49 -3.15087 -1.87393 0
M  V30 14290 H 1374.14 -2.62164 -4.29277 0
M  V30 14291 H 1373.84 -4.34503 -3.95577 0
M  V30 14292 H 1375.37 -3.84538 -4.74302 0
M  V30 14293 H 1376.78 -5.00753 -2.7914 0
M  V30 14294 H 1375.18 -5.56949 -2.23446 0
M  V30 14295 H 1376.25 -4.72182 -1.10328 0
M  V30 14296 N 1377.59 0.500963 -1.49426 0
M  V30 14297 C 1378.82 1.27911 -1.62624 0
M  V30 14298 C 1379.23 1.86439 -0.297651 0
M  V30 14299 O 1378.59 1.67831 0.716879 0
M  V30 14300 C 1378.64 2.40934 -2.69505 0
M  V30 14301 O 1378.36 1.84811 -3.97211 0
M  V30 14302 C 1379.86 3.32305 -2.93408 0
M  V30 14303 H 1377.08 0.387951 -0.547481 0
M  V30 14304 H 1379.63 0.601372 -1.95458 0
M  V30 14305 H 1377.78 3.04537 -2.39449 0
M  V30 14306 H 1378.2 2.59011 -4.56085 0
M  V30 14307 H 1379.67 4.0789 -3.71927 0
M  V30 14308 H 1380.15 3.89301 -2.03325 0
M  V30 14309 H 1380.75 2.74467 -3.24881 0
M  V30 14310 N 1379.07 1.38501 0.752011 0
M  V30 14311 C 1380.3 1.38032 1.54125 0
M  V30 14312 C 1380.71 -0.0295066 1.88777 0
M  V30 14313 O 1380.07 -0.996522 1.52891 0
M  V30 14314 C 1380.12 2.23741 2.83941 0
M  V30 14315 O 1379.84 3.59232 2.50767 0
M  V30 14316 C 1381.34 2.31469 3.7807 0
M  V30 14317 H 1378.56 0.472077 0.476848 0
M  V30 14318 H 1381.1 1.82101 0.930572 0
M  V30 14319 H 1379.26 1.8313 3.41383 0
M  V30 14320 H 1379.67 4.04376 3.34036 0
M  V30 14321 H 1381.15 2.95722 4.66103 0
M  V30 14322 H 1381.62 1.32882 4.18616 0
M  V30 14323 H 1382.23 2.72477 3.26552 0
M  V30 14324 N 1380.55 -0.980364 1.23396 0
M  V30 14325 C 1381.79 -1.71592 1.06015 0
M  V30 14326 C 1382.11 -1.91401 -0.403103 0
M  V30 14327 O 1383.31 -2.62405 -0.696853 0
M  V30 14328 C 1381.77 -3.08795 1.84861 0
M  V30 14329 C 1381.38 -2.96873 3.35515 0
M  V30 14330 C 1383.12 -3.8631 1.75968 0
M  V30 14331 C 1381.03 -4.29308 4.06753 0
M  V30 14332 H 1379.96 -0.643423 0.393095 0
M  V30 14333 H 1382.61 -1.09345 1.47363 0
M  V30 14334 H 1380.99 -3.71797 1.36318 0
M  V30 14335 H 1382.17 -2.4296 3.91544 0
M  V30 14336 H 1380.48 -2.32833 3.45221 0
M  V30 14337 H 1383.08 -4.84355 2.26504 0
M  V30 14338 H 1383.42 -4.09983 0.722464 0
M  V30 14339 H 1383.95 -3.3001 2.22122 0
M  V30 14340 H 1380.69 -4.10831 5.10782 0
M  V30 14341 H 1380.21 -4.83086 3.55511 0
M  V30 14342 H 1381.89 -4.97995 4.1305 0
M  V30 14343 N 1382.02 -1.04567 -1.17913 0
M  V30 14344 C 1383.27 -0.750538 -1.87647 0
M  V30 14345 C 1383.59 0.72423 -1.81052 0
M  V30 14346 O 1382.86 1.52292 -1.23223 0
M  V30 14347 H 1381.44 -0.274636 -0.694683 0
M  V30 14348 H 1384.1 -1.32349 -1.43072 0
M  V30 14349 H 1383.2 -1.05987 -2.93553 0
M  V30 14350 N 1383.5 1.34231 -0.825823 0
M  V30 14351 C 1384.43 2.31997 -0.264546 0
M  V30 14352 C 1385.41 1.58375 0.620592 0
M  V30 14353 O 1386.6 1.86341 0.546865 0
M  V30 14354 C 1383.73 3.42557 0.572025 0
M  V30 14355 C 1382.68 4.27454 -0.216219 0
M  V30 14356 C 1382.01 5.29509 0.743279 0
M  V30 14357 C 1383.31 5.02456 -1.42603 0
M  V30 14358 H 1385 2.79189 -1.08139 0
M  V30 14359 H 1382.55 1.34227 -0.521451 0
M  V30 14360 H 1384.5 4.09968 0.974889 0
M  V30 14361 H 1383.22 2.94021 1.42195 0
M  V30 14362 H 1381.88 3.61649 -0.600485 0
M  V30 14363 H 1381.53 4.77234 1.58924 0
M  V30 14364 H 1381.23 5.87188 0.220064 0
M  V30 14365 H 1382.76 5.99789 1.14394 0
M  V30 14366 H 1384.17 5.62706 -1.09702 0
M  V30 14367 H 1382.57 5.69723 -1.88509 0
M  V30 14368 H 1383.64 4.31983 -2.2027 0
M  V30 14369 N 1384.98 0.581051 1.46498 0
M  V30 14370 C 1386.2 0.0696654 2.07283 0
M  V30 14371 C 1386.63 -1.22525 1.42721 0
M  V30 14372 O 1385.99 -1.73967 0.510421 0
M  V30 14373 C 1386.04 -0.0843864 3.60501 0
M  V30 14374 O 1385.14 -1.14129 3.96293 0
M  V30 14375 H 1384.48 0.0620572 0.661094 0
M  V30 14376 H 1387.01 0.803522 1.88161 0
M  V30 14377 H 1387.02 -0.29108 4.0696 0
M  V30 14378 H 1385.7 0.861274 4.06884 0
M  V30 14379 H 1384.27 -0.913186 3.61546 0
M  V30 14380 N 1386.46 -1.54343 0.318742 0
M  V30 14381 C 1387.42 -2.22828 -0.536679 0
M  V30 14382 C 1388.42 -1.22013 -1.04735 0
M  V30 14383 O 1389.61 -1.46626 -0.940549 0
M  V30 14384 C 1386.74 -2.92857 -1.74493 0
M  V30 14385 H 1387.94 -2.99836 0.0619325 0
M  V30 14386 H 1385.49 -1.56144 0.0697687 0
M  V30 14387 H 1386.22 -2.19973 -2.3829 0
M  V30 14388 H 1386.01 -3.66779 -1.38621 0
M  V30 14389 H 1387.5 -3.45049 -2.35225 0
M  V30 14390 N 1387.94 -0.0468143 -1.5753 0
M  V30 14391 C 1388.88 0.929065 -2.11275 0
M  V30 14392 C 1389.85 1.31166 -1.01905 0
M  V30 14393 O 1391.04 1.40189 -1.29428 0
M  V30 14394 C 1388.18 2.20012 -2.65873 0
M  V30 14395 C 1387.29 1.8724 -3.89314 0
M  V30 14396 C 1386.43 3.08772 -4.32242 0
M  V30 14397 C 1385.46 2.719 -5.48395 0
M  V30 14398 N 1384.6 3.86112 -5.86397 0
M  V30 14399 H 1389.44 0.463854 -2.94368 0
M  V30 14400 H 1386.98 0.217338 -1.45486 0
M  V30 14401 H 1388.94 2.94383 -2.95626 0
M  V30 14402 H 1387.57 2.64118 -1.85584 0
M  V30 14403 H 1386.62 1.03037 -3.6618 0
M  V30 14404 H 1387.93 1.56096 -4.73746 0
M  V30 14405 H 1387.08 3.91446 -4.63525 0
M  V30 14406 H 1385.82 3.4309 -3.46613 0
M  V30 14407 H 1384.83 1.87642 -5.16789 0
M  V30 14408 H 1386.05 2.38779 -6.35737 0
M  V30 14409 H 1384 4.2024 -5.03721 0
M  V30 14410 H 1383.92 3.58652 -6.65511 0
M  V30 14411 H 1385.18 4.69438 -6.22293 0
M  V30 14412 N 1389.41 1.55964 0.226527 0
M  V30 14413 C 1390.36 1.92857 1.30034 0
M  V30 14414 C 1391.36 0.810008 1.48779 0
M  V30 14415 O 1392.56 0.994801 1.50012 0
M  V30 14416 H 1388.94 0.612807 0.435857 0
M  V30 14417 H 1390.91 2.82469 0.96196 0
M  V30 14418 C 1389.66 2.25735 2.6446 0
M  V30 14419 H 1388.98 3.11317 2.50842 0
M  V30 14420 H 1390.42 2.55437 3.3842 0
M  V30 14421 C 1388.88 1.08074 3.19095 0
M  V30 14422 O 1389.41 0.339279 4.00265 0
M  V30 14423 N 1387.62 0.86589 2.774 0
M  V30 14424 H 1387.16 1.47055 2.11501 0
M  V30 14425 H 1387.12 0.0803566 3.14297 0
M  V30 14426 N 1390.89 -0.493031 1.4969 0
M  V30 14427 C 1391.86 -1.57598 1.6642 0
M  V30 14428 C 1392.86 -1.51615 0.535668 0
M  V30 14429 O 1394.05 -1.54626 0.802283 0
M  V30 14430 C 1391.18 -2.97249 1.66901 0
M  V30 14431 H 1392.37 -1.4409 2.63017 0
M  V30 14432 H 1389.92 -0.717846 1.3884 0
M  V30 14433 H 1390.66 -3.16225 0.719164 0
M  V30 14434 H 1390.44 -3.02999 2.48865 0
M  V30 14435 H 1391.93 -3.75914 1.81874 0
M  V30 14436 N 1392.37 -1.38898 -0.744656 0
M  V30 14437 C 1393.62 -1.34909 -1.49941 0
M  V30 14438 C 1393.93 0.0553979 -1.95522 0
M  V30 14439 O 1395.14 0.21785 -2.70625 0
M  V30 14440 C 1393.59 -2.36954 -2.70889 0
M  V30 14441 C 1393.2 -3.83069 -2.32298 0
M  V30 14442 C 1394.95 -2.42024 -3.48747 0
M  V30 14443 C 1392.85 -4.76777 -3.4991 0
M  V30 14444 H 1391.78 -0.501512 -0.563029 0
M  V30 14445 H 1394.43 -1.64497 -0.813201 0
M  V30 14446 H 1392.82 -2.00421 -3.41537 0
M  V30 14447 H 1393.99 -4.28588 -1.69259 0
M  V30 14448 H 1392.31 -3.81202 -1.67554 0
M  V30 14449 H 1394.9 -3.0923 -4.36212 0
M  V30 14450 H 1395.25 -1.44184 -3.90534 0
M  V30 14451 H 1395.78 -2.774 -2.85121 0
M  V30 14452 H 1392.52 -5.75844 -3.13183 0
M  V30 14453 H 1392.04 -4.35944 -4.11962 0
M  V30 14454 H 1393.72 -4.95219 -4.16374 0
M  V30 14455 N 1393.85 0.973806 -1.23914 0
M  V30 14456 C 1394.78 2.08526 -1.05068 0
M  V30 14457 C 1395.76 1.70065 0.0344761 0
M  V30 14458 O 1396.94 1.93755 -0.131432 0
M  V30 14459 C 1394.07 3.41198 -0.648165 0
M  V30 14460 C 1393.03 3.9359 -1.6814 0
M  V30 14461 C 1392.35 5.22534 -1.13414 0
M  V30 14462 C 1393.65 4.22116 -3.07597 0
M  V30 14463 H 1395.35 2.24551 -1.98034 0
M  V30 14464 H 1392.89 1.07905 -0.953546 0
M  V30 14465 H 1394.85 4.18383 -0.50334 0
M  V30 14466 H 1393.57 3.25056 0.317182 0
M  V30 14467 H 1392.23 3.18555 -1.81434 0
M  V30 14468 H 1391.88 5.02747 -0.159578 0
M  V30 14469 H 1391.58 5.58555 -1.82456 0
M  V30 14470 H 1393.1 6.02334 -1.0013 0
M  V30 14471 H 1394.52 4.90027 -2.97567 0
M  V30 14472 H 1392.91 4.69352 -3.73937 0
M  V30 14473 H 1393.98 3.29128 -3.56094 0
M  V30 14474 N 1395.33 1.05191 1.17357 0
M  V30 14475 C 1396.58 0.757104 1.86951 0
M  V30 14476 C 1396.89 -0.718637 1.8192 0
M  V30 14477 O 1398.09 -1.12739 2.46986 0
M  V30 14478 C 1396.55 1.30409 3.35442 0
M  V30 14479 C 1396.16 2.80928 3.48975 0
M  V30 14480 C 1397.9 1.08633 4.10365 0
M  V30 14481 C 1395.81 3.28927 4.91488 0
M  V30 14482 H 1394.74 0.279525 0.700273 0
M  V30 14483 H 1397.39 1.2692 1.32528 0
M  V30 14484 H 1395.77 0.719812 3.89403 0
M  V30 14485 H 1396.95 3.45211 3.05231 0
M  V30 14486 H 1395.26 3.01245 2.87473 0
M  V30 14487 H 1397.86 1.41996 5.15501 0
M  V30 14488 H 1398.2 0.0240903 4.16293 0
M  V30 14489 H 1398.73 1.63581 3.6261 0
M  V30 14490 H 1395.47 4.34581 4.90734 0
M  V30 14491 H 1394.99 2.69386 5.35902 0
M  V30 14492 H 1396.67 3.23605 5.60258 0
M  V30 14493 N 1396.8 -1.33791 0.83293 0
M  V30 14494 C 1398.05 -1.98266 0.426412 0
M  V30 14495 C 1398.38 -1.65848 -1.01035 0
M  V30 14496 O 1397.66 -0.93528 -1.70537 0
M  V30 14497 C 1397.94 -3.54356 0.640586 0
M  V30 14498 C 1397.79 -3.96482 2.12419 0
M  V30 14499 C 1399.11 -4.40022 0.0829237 0
M  V30 14500 H 1396.23 -0.720213 0.156404 0
M  V30 14501 H 1398.87 -1.58527 1.04735 0
M  V30 14502 H 1397.02 -3.88338 0.11204 0
M  V30 14503 H 1398.7 -3.72786 2.71714 0
M  V30 14504 H 1396.94 -3.46429 2.61092 0
M  V30 14505 H 1397.61 -5.05179 2.22482 0
M  V30 14506 H 1400.09 -4.12651 0.534634 0
M  V30 14507 H 1398.96 -5.48272 0.262511 0
M  V30 14508 H 1399.22 -4.30341 -1.01287 0
M  V30 14509 N 1398.28 -0.588812 -1.46187 0
M  V30 14510 C 1399.19 0.143253 -2.34162 0
M  V30 14511 C 1400.21 0.879779 -1.5012 0
M  V30 14512 O 1401.38 0.841592 -1.82973 0
M  V30 14513 C 1398.45 1.14017 -3.27416 0
M  V30 14514 C 1397.51 0.407651 -4.2736 0
M  V30 14515 C 1396.74 1.35708 -5.16158 0
M  V30 14516 O 1396.97 2.59394 -5.08007 0
M  V30 14517 O 1395.9 0.864343 -5.95662 0
M  V30 14518 H 1399.73 -0.579228 -2.98125 0
M  V30 14519 H 1397.31 -0.349174 -1.45262 0
M  V30 14520 H 1399.19 1.71484 -3.8493 0
M  V30 14521 H 1397.87 1.84401 -2.66041 0
M  V30 14522 H 1396.78 -0.209011 -3.73516 0
M  V30 14523 H 1398.11 -0.255334 -4.91537 0
M  V30 14524 N 1399.76 1.54172 -0.326923 0
M  V30 14525 C 1401.01 2.00629 0.274641 0
M  V30 14526 C 1401.34 1.21505 1.51878 0
M  V30 14527 O 1400.59 0.286164 1.93596 0
M  V30 14528 C 1400.89 3.51429 0.650553 0
M  V30 14529 C 1400.56 4.48177 -0.494792 0
M  V30 14530 C 1399.22 4.74348 -0.809153 0
M  V30 14531 C 1401.57 5.05641 -1.26398 0
M  V30 14532 C 1398.9 5.55241 -1.89536 0
M  V30 14533 C 1401.25 5.87718 -2.34031 0
M  V30 14534 C 1399.91 6.1219 -2.66045 0
M  V30 14535 H 1399.18 0.734153 0.100498 0
M  V30 14536 H 1401.83 1.86104 -0.451397 0
M  V30 14537 H 1400.14 3.63699 1.45706 0
M  V30 14538 H 1401.83 3.84819 1.12761 0
M  V30 14539 H 1398.42 4.27929 -0.239701 0
M  V30 14540 H 1402.61 4.85401 -1.03437 0
M  V30 14541 H 1397.86 5.72432 -2.14783 0
M  V30 14542 H 1402.04 6.31264 -2.94074 0
M  V30 14543 H 1399.66 6.7466 -3.5034 0
M  V30 14544 N 1401.24 0.0551678 1.57503 0
M  V30 14545 C 1402.2 -0.903065 2.10659 0
M  V30 14546 C 1403.2 -1.23728 1.02703 0
M  V30 14547 O 1404.39 -1.17331 1.2876 0
M  V30 14548 C 1401.52 -2.21171 2.59415 0
M  V30 14549 H 1402.72 -0.442197 2.96622 0
M  V30 14550 H 1400.27 -0.193297 1.551 0
M  V30 14551 H 1401 -2.71831 1.76858 0
M  V30 14552 H 1400.79 -1.98216 3.38309 0
M  V30 14553 H 1402.28 -2.89802 3.00674 0
M  V30 14554 N 1402.72 -1.56081 -0.218252 0
M  V30 14555 C 1403.66 -1.92684 -1.27049 0
M  V30 14556 C 1404.63 -0.784441 -1.46409 0
M  V30 14557 O 1405.82 -1.04062 -1.59924 0
M  V30 14558 C 1402.96 -2.25174 -2.61516 0
M  V30 14559 C 1402.07 -3.52364 -2.49927 0
M  V30 14560 C 1401.21 -3.74286 -3.7694 0
M  V30 14561 C 1400.25 -4.94979 -3.60087 0
M  V30 14562 N 1399.38 -5.13273 -4.79057 0
M  V30 14563 H 1404.22 -2.82406 -0.951347 0
M  V30 14564 H 1401.76 -1.39774 -0.458441 0
M  V30 14565 H 1403.72 -2.42022 -3.39825 0
M  V30 14566 H 1402.35 -1.38621 -2.9152 0
M  V30 14567 H 1401.4 -3.43691 -1.63036 0
M  V30 14568 H 1402.71 -4.40826 -2.33397 0
M  V30 14569 H 1401.87 -3.91248 -4.63692 0
M  V30 14570 H 1400.6 -2.84111 -3.96399 0
M  V30 14571 H 1399.61 -4.77963 -2.71719 0
M  V30 14572 H 1400.83 -5.86641 -3.42095 0
M  V30 14573 H 1398.78 -4.26041 -4.98824 0
M  V30 14574 H 1398.7 -5.95873 -4.65265 0
M  V30 14575 H 1399.97 -5.34673 -5.67226 0
M  V30 14576 N 1404.2 0.485086 -1.49949 0
M  V30 14577 C 1405.47 1.24639 -1.50747 0
M  V30 14578 C 1405.85 2.09683 -0.244162 0
M  V30 14579 O 1405.2 2.1503 0.772949 0
M  V30 14580 C 1405.41 2.08946 -2.7954 0
M  V30 14581 C 1406.76 2.67604 -3.29656 0
M  V30 14582 O 1407.78 2.192 -2.80766 0
M  V30 14583 O 1406.64 3.55761 -4.14845 0
M  V30 14584 H 1403.74 0.564849 -0.604049 0
M  V30 14585 H 1406.28 0.498052 -1.62227 0
M  V30 14586 H 1405.05 1.46185 -3.62968 0
M  V30 14587 H 1404.68 2.90941 -2.70997 0
M  V30 14588 N 1405.67 1.39291 0.737279 0
M  V30 14589 C 1406.6 1.40562 1.86452 0
M  V30 14590 C 1407.58 0.269283 1.67955 0
M  V30 14591 O 1408.77 0.474769 1.88307 0
M  V30 14592 C 1405.9 1.2461 3.24175 0
M  V30 14593 C 1404.85 2.35619 3.57306 0
M  V30 14594 C 1404.18 2.04758 4.93941 0
M  V30 14595 C 1405.48 3.77927 3.60512 0
M  V30 14596 H 1407.17 2.34896 1.85646 0
M  V30 14597 H 1404.72 1.13065 0.891756 0
M  V30 14598 H 1406.67 1.2412 4.02706 0
M  V30 14599 H 1405.4 0.267438 3.25503 0
M  V30 14600 H 1404.06 2.35322 2.81104 0
M  V30 14601 H 1403.7 1.05336 4.91847 0
M  V30 14602 H 1403.4 2.79117 5.17076 0
M  V30 14603 H 1404.93 2.05915 5.74832 0
M  V30 14604 H 1406.34 3.80166 4.29123 0
M  V30 14605 H 1404.74 4.51626 3.95164 0
M  V30 14606 H 1405.81 4.09068 2.60368 0
M  V30 14607 N 1407.15 -0.967221 1.24429 0
M  V30 14608 C 1408.08 -2.06071 0.980314 0
M  V30 14609 C 1409.06 -1.62372 -0.0860829 0
M  V30 14610 O 1410.25 -1.88431 0.0509524 0
M  V30 14611 C 1407.37 -3.35289 0.479452 0
M  V30 14612 C 1406.42 -3.9794 1.53447 0
M  V30 14613 S 1407.25 -4.3551 3.11595 0
M  V30 14614 C 1408.41 -5.67865 2.63212 0
M  V30 14615 H 1408.64 -2.28145 1.90623 0
M  V30 14616 H 1406.17 -1.10519 1.07819 0
M  V30 14617 H 1408.13 -4.10027 0.197103 0
M  V30 14618 H 1406.79 -3.11201 -0.425755 0
M  V30 14619 H 1405.99 -4.91067 1.13445 0
M  V30 14620 H 1405.59 -3.29634 1.76685 0
M  V30 14621 H 1407.88 -6.45405 2.06054 0
M  V30 14622 H 1408.82 -6.12724 3.5493 0
M  V30 14623 H 1409.23 -5.26496 2.03623 0
M  V30 14624 N 1408.63 -1.05812 -1.16797 0
M  V30 14625 C 1409.91 -0.685551 -1.83193 0
M  V30 14626 C 1410.29 0.833539 -1.93947 0
M  V30 14627 O 1409.63 1.74193 -1.47882 0
M  V30 14628 C 1409.84 -1.38183 -3.20479 0
M  V30 14629 C 1411.19 -1.52389 -3.96311 0
M  V30 14630 O 1412.22 -1.34134 -3.2998 0
M  V30 14631 O 1411.08 -1.82297 -5.15199 0
M  V30 14632 H 1408.17 -0.242095 -0.790771 0
M  V30 14633 H 1410.72 -1.15809 -1.24041 0
M  V30 14634 H 1409.49 -2.41791 -3.07657 0
M  V30 14635 H 1409.11 -0.899043 -3.87302 0
M  V30 14636 N 1410.11 1.33347 -0.840014 0
M  V30 14637 C 1411.05 2.29191 -0.272048 0
M  V30 14638 C 1412.02 1.54383 0.612787 0
M  V30 14639 O 1413.21 1.82676 0.550812 0
M  V30 14640 C 1410.35 3.40755 0.545901 0
M  V30 14641 C 1409.46 4.30471 -0.363084 0
M  V30 14642 C 1408.6 5.29151 0.466078 0
M  V30 14643 C 1407.64 6.10508 -0.441225 0
M  V30 14644 N 1406.77 7.01228 0.349877 0
M  V30 14645 H 1411.61 2.77166 -1.09467 0
M  V30 14646 H 1409.15 1.36379 -0.551284 0
M  V30 14647 H 1411.11 4.04142 1.03562 0
M  V30 14648 H 1409.74 2.9397 1.33348 0
M  V30 14649 H 1408.79 3.67795 -0.971119 0
M  V30 14650 H 1410.1 4.87406 -1.06002 0
M  V30 14651 H 1409.26 5.98072 1.01957 0
M  V30 14652 H 1408 4.72796 1.19644 0
M  V30 14653 H 1407 5.40504 -1.00672 0
M  V30 14654 H 1408.23 6.68946 -1.16997 0
M  V30 14655 H 1406.17 6.4732 1.0636 0
M  V30 14656 H 1406.09 7.5545 -0.288317 0
M  V30 14657 H 1407.36 7.74453 0.885573 0
M  V30 14658 N 1411.59 0.596556 1.45873 0
M  V30 14659 C 1412.5 -0.130832 2.34235 0
M  V30 14660 C 1413.51 -0.871805 1.50584 0
M  V30 14661 O 1414.69 -0.831877 1.83417 0
M  V30 14662 C 1411.75 -1.12279 3.28016 0
M  V30 14663 C 1410.81 -0.384982 4.2757 0
M  V30 14664 C 1410.05 -1.32969 5.1687 0
M  V30 14665 O 1410.27 -2.56696 5.09375 0
M  V30 14666 O 1409.2 -0.832741 5.96112 0
M  V30 14667 H 1413.03 0.59503 2.97814 0
M  V30 14668 H 1410.61 0.356873 1.45075 0
M  V30 14669 H 1412.5 -1.6944 3.85834 0
M  V30 14670 H 1411.17 -1.82988 2.67015 0
M  V30 14671 H 1410.08 0.228816 3.734 0
M  V30 14672 H 1411.41 0.281398 4.91395 0
M  V30 14673 N 1413.06 -1.53996 0.335095 0
M  V30 14674 C 1414.31 -2.00375 -0.263475 0
M  V30 14675 C 1414.63 -1.22471 -1.51742 0
M  V30 14676 O 1413.9 -0.329604 -1.93107 0
M  V30 14677 H 1412.48 -0.740229 -0.100347 0
M  V30 14678 H 1415.14 -1.89531 0.454302 0
M  V30 14679 H 1414.24 -3.07874 -0.511834 0
M  V30 14680 N 1414.54 -0.0635198 -1.57472 0
M  V30 14681 C 1415.49 0.906604 -2.12248 0
M  V30 14682 C 1416.46 1.30078 -1.0329 0
M  V30 14683 O 1417.64 1.38809 -1.30907 0
M  V30 14684 C 1414.78 2.1718 -2.68192 0
M  V30 14685 C 1413.9 1.831 -3.91278 0
M  V30 14686 C 1413.03 3.0417 -4.35493 0
M  V30 14687 C 1412.07 2.66069 -5.51248 0
M  V30 14688 N 1411.21 3.79871 -5.9046 0
M  V30 14689 H 1416.05 0.432606 -2.94843 0
M  V30 14690 H 1413.58 0.201895 -1.45708 0
M  V30 14691 H 1415.54 2.91231 -2.98732 0
M  V30 14692 H 1414.17 2.62135 -1.88375 0
M  V30 14693 H 1413.22 0.991473 -3.67252 0
M  V30 14694 H 1414.54 1.51063 -4.75375 0
M  V30 14695 H 1413.69 3.86507 -4.6765 0
M  V30 14696 H 1412.43 3.39395 -3.50232 0
M  V30 14697 H 1411.43 1.82151 -5.1875 0
M  V30 14698 H 1412.66 2.32023 -6.38234 0
M  V30 14699 H 1410.61 4.14873 -5.0815 0
M  V30 14700 H 1410.52 3.51573 -6.69277 0
M  V30 14701 H 1411.79 4.62811 -6.27237 0
M  V30 14702 N 1416.02 1.56195 0.209972 0
M  V30 14703 C 1417.27 1.7939 0.930796 0
M  V30 14704 C 1417.59 0.634038 1.84404 0
M  V30 14705 O 1416.86 -0.348467 1.92776 0
M  V30 14706 H 1415.44 0.661676 0.346689 0
M  V30 14707 H 1418.1 1.93665 0.219049 0
M  V30 14708 H 1417.2 2.71982 1.53075 0
M  V30 14709 N 1417.5 -0.477127 1.50204 0
M  V30 14710 C 1418.43 -1.58405 1.71552 0
M  V30 14711 C 1419.41 -1.60463 0.564413 0
M  V30 14712 O 1420.59 -1.76826 0.802893 0
M  V30 14713 C 1417.72 -2.96765 1.8041 0
M  V30 14714 C 1416.68 -3.09573 2.95548 0
M  V30 14715 C 1416 -4.49522 2.89542 0
M  V30 14716 C 1417.3 -2.87356 4.36147 0
M  V30 14717 H 1419 -1.40792 2.64231 0
M  V30 14718 H 1416.54 -0.675886 1.27153 0
M  V30 14719 H 1418.5 -3.74125 1.9393 0
M  V30 14720 H 1417.22 -3.1552 0.843489 0
M  V30 14721 H 1415.88 -2.34645 2.81669 0
M  V30 14722 H 1415.53 -4.65186 1.91339 0
M  V30 14723 H 1415.23 -4.59028 3.66834 0
M  V30 14724 H 1416.75 -5.28909 3.05102 0
M  V30 14725 H 1418.17 -3.54469 4.50583 0
M  V30 14726 H 1416.56 -3.08313 5.14843 0
M  V30 14727 H 1417.63 -1.83264 4.48935 0
M  V30 14728 N 1418.98 -1.3968 -0.729882 0
M  V30 14729 C 1420.23 -1.36492 -1.48502 0
M  V30 14730 C 1420.54 0.0346572 -1.95569 0
M  V30 14731 O 1421.74 0.189135 -2.7084 0
M  V30 14732 C 1420.2 -2.39813 -2.68361 0
M  V30 14733 C 1419.81 -3.85511 -2.28222 0
M  V30 14734 C 1421.55 -2.45709 -3.46161 0
M  V30 14735 C 1419.46 -4.80462 -3.44834 0
M  V30 14736 H 1418.39 -0.507455 -0.557679 0
M  V30 14737 H 1421.04 -1.6535 -0.795708 0
M  V30 14738 H 1419.42 -2.04033 -3.39392 0
M  V30 14739 H 1420.6 -4.30359 -1.64704 0
M  V30 14740 H 1418.91 -3.82957 -1.63501 0
M  V30 14741 H 1421.51 -3.1384 -4.32907 0
M  V30 14742 H 1421.85 -1.48318 -3.88983 0
M  V30 14743 H 1422.38 -2.80409 -2.82163 0
M  V30 14744 H 1419.12 -5.79134 -3.07057 0
M  V30 14745 H 1418.64 -4.40289 -4.07315 0
M  V30 14746 H 1420.32 -4.99607 -4.11098 0
M  V30 14747 N 1420.45 0.960609 -1.2494 0
M  V30 14748 C 1421.36 2.0902 -1.06527 0
M  V30 14749 C 1422.38 1.74 -0.00406641 0
M  V30 14750 O 1423.56 2.00367 -0.203744 0
M  V30 14751 C 1420.62 3.39971 -0.679736 0
M  V30 14752 C 1419.68 3.88895 -1.81821 0
M  V30 14753 C 1418.92 5.13597 -1.45098 0
M  V30 14754 O 1419.14 5.69362 -0.343954 0
M  V30 14755 O 1418.07 5.57083 -2.27909 0
M  V30 14756 H 1421.9 2.27453 -2.01243 0
M  V30 14757 H 1419.48 1.07429 -1.03824 0
M  V30 14758 H 1421.37 4.18696 -0.47658 0
M  V30 14759 H 1420.04 3.22822 0.238231 0
M  V30 14760 H 1418.95 3.11201 -2.07617 0
M  V30 14761 H 1420.28 4.10533 -2.7152 0
M  V30 14762 N 1421.93 1.0643 1.16234 0
M  V30 14763 C 1422.9 0.680383 2.18869 0
M  V30 14764 C 1423.9 -0.274591 1.58438 0
M  V30 14765 O 1425.09 -0.0567907 1.74107 0
M  V30 14766 C 1422.22 0.00134091 3.409 0
M  V30 14767 H 1423.41 1.58894 2.54347 0
M  V30 14768 H 1420.96 0.859688 1.30534 0
M  V30 14769 H 1421.7 -0.919903 3.1098 0
M  V30 14770 H 1421.48 0.688057 3.86016 0
M  V30 14771 H 1422.97 -0.252938 4.16833 0
M  V30 14772 N 1423.41 -1.329 0.847073 0
M  V30 14773 C 1424.64 -2.0171 0.460497 0
M  V30 14774 C 1425.05 -1.63699 -0.940649 0
M  V30 14775 O 1424.41 -0.854454 -1.61262 0
M  V30 14776 C 1424.46 -3.56799 0.581108 0
M  V30 14777 O 1424.18 -3.93442 1.92705 0
M  V30 14778 C 1425.68 -4.42882 0.192552 0
M  V30 14779 H 1422.9 -0.645887 0.181853 0
M  V30 14780 H 1425.45 -1.69648 1.14192 0
M  V30 14781 H 1423.6 -3.87364 -0.0524924 0
M  V30 14782 H 1424.02 -4.88157 1.91841 0
M  V30 14783 H 1425.49 -5.51025 0.327969 0
M  V30 14784 H 1425.97 -4.30571 -0.866315 0
M  V30 14785 H 1426.57 -4.17691 0.800918 0
M  V30 14786 N 1424.89 -0.604284 -1.45555 0
M  V30 14787 C 1425.82 0.103859 -2.33269 0
M  V30 14788 C 1426.8 0.862104 -1.46635 0
M  V30 14789 O 1427.98 0.833308 -1.75413 0
M  V30 14790 C 1425.11 1.104 -3.29286 0
M  V30 14791 C 1424.07 0.459189 -4.2553 0
M  V30 14792 C 1423.39 1.56734 -5.11213 0
M  V30 14793 C 1424.69 -0.617509 -5.18637 0
M  V30 14794 H 1426.39 -0.628538 -2.92728 0
M  V30 14795 H 1423.93 -0.303711 -1.40761 0
M  V30 14796 H 1425.89 1.60794 -3.89517 0
M  V30 14797 H 1424.61 1.86695 -2.67979 0
M  V30 14798 H 1423.27 -0.0238508 -3.66592 0
M  V30 14799 H 1422.92 2.32049 -4.46276 0
M  V30 14800 H 1422.62 1.14142 -5.76407 0
M  V30 14801 H 1424.14 2.07361 -5.74312 0
M  V30 14802 H 1425.56 -0.197784 -5.72959 0
M  V30 14803 H 1423.95 -0.96499 -5.9229 0
M  V30 14804 H 1425.02 -1.49541 -4.61265 0
M  V30 14805 N 1426.37 1.53816 -0.343257 0
M  V30 14806 C 1427.64 1.9315 0.308609 0
M  V30 14807 C 1428.02 1.27479 1.68263 0
M  V30 14808 O 1427.37 0.425614 2.24501 0
M  V30 14809 C 1427.58 3.46912 0.381176 0
M  V30 14810 C 1428.93 4.19868 0.632153 0
M  V30 14811 O 1429.95 3.53174 0.463303 0
M  V30 14812 O 1428.81 5.38016 0.959237 0
M  V30 14813 H 1425.91 0.807169 0.180022 0
M  V30 14814 H 1428.45 1.65053 -0.394412 0
M  V30 14815 H 1427.22 3.86932 -0.583058 0
M  V30 14816 H 1426.85 3.81175 1.13099 0
M  V30 14817 N 1427.84 0.0718701 1.57436 0
M  V30 14818 C 1428.81 -0.880671 2.11605 0
M  V30 14819 C 1429.81 -1.22632 1.0401 0
M  V30 14820 O 1431 -1.15958 1.29997 0
M  V30 14821 C 1428.13 -2.18407 2.61746 0
M  V30 14822 H 1429.32 -0.410712 2.97074 0
M  V30 14823 H 1426.88 -0.176836 1.55296 0
M  V30 14824 H 1427.61 -2.6994 1.79731 0
M  V30 14825 H 1427.4 -1.94616 3.40392 0
M  V30 14826 H 1428.89 -2.86596 3.03731 0
M  V30 14827 N 1429.32 -1.56304 -0.201686 0
M  V30 14828 C 1430.57 -1.80504 -0.92446 0
M  V30 14829 C 1430.9 -0.644832 -1.83182 0
M  V30 14830 O 1430.18 0.354963 -1.91234 0
M  V30 14831 C 1430.46 -3.14919 -1.74636 0
M  V30 14832 C 1430.31 -4.41421 -0.864169 0
M  V30 14833 C 1431.63 -3.45962 -2.72026 0
M  V30 14834 H 1428.75 -0.656643 -0.334648 0
M  V30 14835 H 1431.39 -1.89025 -0.192188 0
M  V30 14836 H 1429.54 -3.07785 -2.37066 0
M  V30 14837 H 1431.21 -4.60594 -0.255084 0
M  V30 14838 H 1429.46 -4.33465 -0.170548 0
M  V30 14839 H 1430.13 -5.31954 -1.47409 0
M  V30 14840 H 1432.6 -3.53353 -2.1973 0
M  V30 14841 H 1431.48 -4.41146 -3.26622 0
M  V30 14842 H 1431.74 -2.69124 -3.50749 0
M  V30 14843 N 1430.8 0.469154 -1.50455 0
M  V30 14844 C 1432.22 0.803067 -1.37924 0
M  V30 14845 C 1432.42 1.96708 -0.436837 0
M  V30 14846 O 1431.47 2.52216 0.119823 0
M  V30 14847 C 1432.79 1.11332 -2.79331 0
M  V30 14848 C 1434.33 1.21965 -2.88259 0
M  V30 14849 C 1434.81 1.56302 -4.30504 0
M  V30 14850 N 1436.3 1.6329 -4.33464 0
M  V30 14851 C 1437.03 1.91367 -5.40524 0
M  V30 14852 N 1436.53 2.17451 -6.57789 0
M  V30 14853 N 1438.32 1.92885 -5.2797 0
M  V30 14854 H 1430.47 -0.297928 -2.103 0
M  V30 14855 H 1432.74 -0.0707794 -0.945354 0
M  V30 14856 H 1432.44 0.331052 -3.50138 0
M  V30 14857 H 1432.32 2.04903 -3.16693 0
M  V30 14858 H 1434.7 1.99259 -2.17669 0
M  V30 14859 H 1434.79 0.263692 -2.54437 0
M  V30 14860 H 1434.43 0.795479 -5.01632 0
M  V30 14861 H 1434.36 2.53052 -4.61814 0
M  V30 14862 H 1436.85 1.45164 -3.48907 0
M  V30 14863 H 1437.16 2.38154 -7.35189 0
M  V30 14864 H 1435.51 2.14839 -6.60961 0
M  V30 14865 H 1438.7 1.72005 -4.35353 0
M  V30 14866 H 1438.87 2.1443 -6.11493 0
M  V30 14867 N 1432.28 1.40065 0.722464 0
M  V30 14868 C 1433.21 1.34182 1.84582 0
M  V30 14869 C 1434.19 0.213339 1.61194 0
M  V30 14870 O 1435.37 0.395867 1.84296 0
M  V30 14871 C 1432.5 1.08658 3.20798 0
M  V30 14872 C 1431.55 2.23865 3.63024 0
M  V30 14873 S 1432.38 3.86221 3.70936 0
M  V30 14874 C 1433.54 3.62948 5.09921 0
M  V30 14875 H 1433.77 2.29251 1.89291 0
M  V30 14876 H 1431.3 1.26269 0.888568 0
M  V30 14877 H 1433.26 0.946172 3.99447 0
M  V30 14878 H 1431.92 0.152542 3.13729 0
M  V30 14879 H 1431.11 2.01631 4.6191 0
M  V30 14880 H 1430.72 2.34174 2.91614 0
M  V30 14881 H 1433.01 3.20989 5.96634 0
M  V30 14882 H 1433.95 4.6134 5.37188 0
M  V30 14883 H 1434.36 2.9678 4.8019 0
M  V30 14884 N 1433.76 -0.95397 1.25448 0
M  V30 14885 C 1435.17 -1.22516 1.02284 0
M  V30 14886 C 1435.37 -1.99816 -0.259933 0
M  V30 14887 O 1434.43 -2.33022 -0.972479 0
M  V30 14888 C 1435.74 -1.9989 2.24643 0
M  V30 14889 C 1437.29 -2.1293 2.29412 0
M  V30 14890 C 1437.77 -2.93703 3.51429 0
M  V30 14891 N 1439.26 -3.01281 3.51829 0
M  V30 14892 C 1439.99 -3.64174 4.42905 0
M  V30 14893 N 1439.49 -4.28673 5.44253 0
M  V30 14894 N 1441.28 -3.61321 4.30585 0
M  V30 14895 H 1433.43 -0.436859 2.07859 0
M  V30 14896 H 1435.69 -0.255744 0.912852 0
M  V30 14897 H 1435.4 -1.50489 3.17877 0
M  V30 14898 H 1435.27 -3.00593 2.27868 0
M  V30 14899 H 1437.66 -2.61528 1.367 0
M  V30 14900 H 1437.74 -1.1153 2.30206 0
M  V30 14901 H 1437.39 -2.45795 4.44463 0
M  V30 14902 H 1437.32 -3.95331 3.47881 0
M  V30 14903 H 1439.81 -2.55414 2.78517 0
M  V30 14904 H 1440.12 -4.74522 6.09958 0
M  V30 14905 H 1438.47 -4.27299 5.48125 0
M  V30 14906 H 1441.66 -3.10118 3.50634 0
M  V30 14907 H 1441.83 -4.1005 5.0176 0
M  V30 14908 N 1435.24 -1.07045 -1.15668 0
M  V30 14909 C 1436.17 -0.709413 -2.22463 0
M  V30 14910 C 1437.15 0.30169 -1.67403 0
M  V30 14911 O 1438.33 0.175131 -1.93409 0
M  V30 14912 C 1435.46 -0.103121 -3.47147 0
M  V30 14913 C 1434.42 -1.04103 -4.15146 0
M  V30 14914 C 1433.74 -0.297656 -5.33871 0
M  V30 14915 C 1435.04 -2.37332 -4.65264 0
M  V30 14916 H 1436.74 -1.60227 -2.52918 0
M  V30 14917 H 1434.28 -0.771846 -1.21567 0
M  V30 14918 H 1436.23 0.161371 -4.21091 0
M  V30 14919 H 1434.96 0.824792 -3.16014 0
M  V30 14920 H 1433.62 -1.2904 -3.43139 0
M  V30 14921 H 1433.27 0.633618 -4.98993 0
M  V30 14922 H 1432.97 -0.922789 -5.80309 0
M  V30 14923 H 1434.49 -0.0408892 -6.10586 0
M  V30 14924 H 1435.9 -2.1674 -5.30751 0
M  V30 14925 H 1434.3 -2.95412 -5.22352 0
M  V30 14926 H 1435.37 -2.99859 -3.81068 0
M  V30 14927 N 1436.71 1.32449 -0.85411 0
M  V30 14928 C 1438.13 1.50046 -0.543895 0
M  V30 14929 C 1438.33 1.78985 0.925561 0
M  V30 14930 O 1437.39 1.85909 1.70862 0
M  V30 14931 C 1438.7 2.64499 -1.43041 0
M  V30 14932 C 1440.25 2.78384 -1.43078 0
M  V30 14933 C 1440.72 3.95915 -2.3025 0
M  V30 14934 N 1442.21 4.03176 -2.28043 0
M  V30 14935 C 1442.95 4.9335 -2.92221 0
M  V30 14936 N 1442.44 5.88536 -3.6551 0
M  V30 14937 N 1444.24 4.86468 -2.81612 0
M  V30 14938 H 1436.39 1.11931 -1.80514 0
M  V30 14939 H 1438.65 0.551626 -0.770982 0
M  V30 14940 H 1438.36 2.49842 -2.47532 0
M  V30 14941 H 1438.23 3.60269 -1.11742 0
M  V30 14942 H 1440.62 2.92464 -0.393529 0
M  V30 14943 H 1440.7 1.83329 -1.78393 0
M  V30 14944 H 1440.34 3.82594 -3.34043 0
M  V30 14945 H 1440.27 4.90245 -1.92268 0
M  V30 14946 H 1442.76 3.35064 -1.74759 0
M  V30 14947 H 1443.08 6.54038 -4.11648 0
M  V30 14948 H 1441.42 5.88564 -3.69618 0
M  V30 14949 H 1444.61 4.11076 -2.23907 0
M  V30 14950 H 1444.79 5.56542 -3.3191 0
M  V30 14951 N 1438.19 0.611994 1.45232 0
M  V30 14952 C 1439.6 0.193464 1.85695 0
M  V30 14953 C 1439.95 -1.25069 1.5117 0
M  V30 14954 O 1439.08 -1.94894 0.940497 0
M  V30 14955 C 1439.67 0.344334 3.37046 0
M  V30 14956 C 1438.23 -0.0195378 3.76395 0
M  V30 14957 C 1437.38 0.666714 2.69166 0
M  V30 14958 H 1440.33 0.818395 1.35971 0
M  V30 14959 H 1440.35 -0.422209 3.7815 0
M  V30 14960 H 1439.86 1.3955 3.62143 0
M  V30 14961 H 1437.96 -1.06971 3.56915 0
M  V30 14962 H 1438.08 0.377184 4.77613 0
M  V30 14963 H 1436.44 0.103912 2.54488 0
M  V30 14964 H 1437.22 1.7201 2.97099 0
M  V30 14965 N 1439.67 -1.53632 0.351409 0
M  V30 14966 C 1440.92 -2.00222 -0.243731 0
M  V30 14967 C 1441.23 -1.24305 -1.51022 0
M  V30 14968 O 1442.44 -1.61411 -2.18309 0
M  V30 14969 C 1440.89 -3.56619 -0.48487 0
M  V30 14970 C 1440.5 -4.414 0.766173 0
M  V30 14971 C 1442.25 -4.11603 -1.03844 0
M  V30 14972 C 1440.15 -5.89321 0.4954 0
M  V30 14973 H 1439.08 -0.74801 -0.0948534 0
M  V30 14974 H 1441.73 -1.77433 0.467957 0
M  V30 14975 H 1440.12 -3.75505 -1.25746 0
M  V30 14976 H 1441.29 -4.34288 1.54047 0
M  V30 14977 H 1439.6 -3.97448 1.24194 0
M  V30 14978 H 1442.2 -5.19736 -1.25611 0
M  V30 14979 H 1442.54 -3.65311 -1.99634 0
M  V30 14980 H 1443.08 -3.96459 -0.326363 0
M  V30 14981 H 1439.82 -6.39863 1.42324 0
M  V30 14982 H 1439.34 -5.99317 -0.240662 0
M  V30 14983 H 1441.02 -6.46897 0.115584 0
M  V30 14984 N 1441.15 -0.0802183 -1.57396 0
M  V30 14985 C 1442.08 0.881426 -2.16225 0
M  V30 14986 C 1443.06 1.30459 -1.09154 0
M  V30 14987 O 1444.24 1.37413 -1.37227 0
M  V30 14988 C 1441.37 2.14599 -2.73065 0
M  V30 14989 C 1440.33 1.86195 -3.85377 0
M  V30 14990 C 1439.65 3.19354 -4.28856 0
M  V30 14991 C 1440.95 1.16059 -5.09242 0
M  V30 14992 H 1442.65 0.391325 -2.96832 0
M  V30 14993 H 1440.19 0.186785 -1.42783 0
M  V30 14994 H 1442.15 2.82297 -3.12868 0
M  V30 14995 H 1440.87 2.65866 -1.89691 0
M  V30 14996 H 1439.53 1.209 -3.46091 0
M  V30 14997 H 1439.18 3.68479 -3.42392 0
M  V30 14998 H 1438.88 3.01137 -5.04569 0
M  V30 14999 H 1440.4 3.88235 -4.71281 0
M  V30 15000 H 1441.82 1.7384 -5.46308 0
M  V30 15001 H 1440.21 1.08072 -5.90288 0
M  V30 15002 H 1441.28 0.14098 -4.84695 0
M  V30 15003 N 1442.63 1.56409 0.193394 0
M  V30 15004 C 1443.56 1.89745 1.26776 0
M  V30 15005 C 1444.54 0.75773 1.43865 0
M  V30 15006 O 1445.72 1.0089 1.59228 0
M  V30 15007 C 1442.85 2.12913 2.63412 0
M  V30 15008 C 1441.89 3.35614 2.63183 0
M  V30 15009 S 1442.73 4.90686 2.14448 0
M  V30 15010 C 1443.88 5.16923 3.52904 0
M  V30 15011 H 1444.12 2.80575 0.983105 0
M  V30 15012 H 1441.65 1.4921 0.396965 0
M  V30 15013 H 1443.61 2.26943 3.42063 0
M  V30 15014 H 1442.27 1.2283 2.89088 0
M  V30 15015 H 1441.46 3.48957 3.63655 0
M  V30 15016 H 1441.06 3.20586 1.92615 0
M  V30 15017 H 1443.35 5.07548 4.48778 0
M  V30 15018 H 1444.3 6.18673 3.44455 0
M  V30 15019 H 1444.71 4.44555 3.47895 0
M  V30 15020 N 1444.1 -0.461169 1.50702 0
M  V30 15021 C 1445.33 -1.23554 1.65958 0
M  V30 15022 C 1445.75 -1.85584 0.346977 0
M  V30 15023 O 1445.1 -1.69672 -0.672129 0
M  V30 15024 C 1445.15 -2.33704 2.75799 0
M  V30 15025 O 1444.88 -1.74215 4.01971 0
M  V30 15026 C 1446.38 -3.24409 3.02116 0
M  V30 15027 H 1443.6 -0.373299 0.557574 0
M  V30 15028 H 1446.14 -0.549338 1.96984 0
M  V30 15029 H 1444.3 -2.98081 2.47439 0
M  V30 15030 H 1444.71 -2.46827 4.62792 0
M  V30 15031 H 1446.18 -3.97885 3.82611 0
M  V30 15032 H 1446.66 -3.83774 2.13576 0
M  V30 15033 H 1447.27 -2.65757 3.32044 0
M  V30 15034 N 1445.58 -1.40446 -0.715026 0
M  V30 15035 C 1446.81 -1.42263 -1.50917 0
M  V30 15036 C 1447.23 -0.0242402 -1.88084 0
M  V30 15037 O 1446.59 0.967817 -1.53307 0
M  V30 15038 C 1446.64 -2.31998 -2.7606 0
M  V30 15039 O 1445.74 -1.76361 -3.72787 0
M  V30 15040 H 1445.08 -0.483614 -0.454988 0
M  V30 15041 H 1447.61 -1.84682 -0.880549 0
M  V30 15042 H 1447.62 -2.47204 -3.24583 0
M  V30 15043 H 1446.3 -3.33614 -2.48343 0
M  V30 15044 H 1444.87 -1.70504 -3.31636 0
M  V30 15045 N 1447.06 0.947303 -1.25952 0
M  V30 15046 C 1447.99 2.0625 -1.09467 0
M  V30 15047 C 1448.97 1.701 -0.00160498 0
M  V30 15048 O 1450.16 1.93432 -0.172501 0
M  V30 15049 C 1447.29 3.39746 -0.720392 0
M  V30 15050 C 1446.24 3.89935 -1.76451 0
M  V30 15051 C 1445.57 5.2001 -1.24472 0
M  V30 15052 C 1446.87 4.15496 -3.16481 0
M  V30 15053 H 1448.56 2.203 -2.02752 0
M  V30 15054 H 1446.11 1.05858 -0.97622 0
M  V30 15055 H 1448.06 4.17221 -0.591972 0
M  V30 15056 H 1446.78 3.25656 0.248161 0
M  V30 15057 H 1445.44 3.14635 -1.8815 0
M  V30 15058 H 1445.09 5.02295 -0.266182 0
M  V30 15059 H 1444.79 5.54559 -1.94263 0
M  V30 15060 H 1446.31 6.00075 -1.12884 0
M  V30 15061 H 1447.73 4.83605 -3.07894 0
M  V30 15062 H 1446.12 4.61315 -3.83808 0
M  V30 15063 H 1447.19 3.21501 -3.62995 0
M  V30 15064 N 1448.54 1.07657 1.15099 0
M  V30 15065 C 1449.5 0.703558 2.18135 0
M  V30 15066 C 1450.5 -0.257771 1.5872 0
M  V30 15067 O 1451.69 -0.0383211 1.74158 0
M  V30 15068 C 1448.82 0.0374978 3.40879 0
M  V30 15069 H 1450.02 1.61583 2.52648 0
M  V30 15070 H 1447.57 0.873484 1.29615 0
M  V30 15071 H 1448.3 -0.886868 3.11938 0
M  V30 15072 H 1448.09 0.728961 3.85264 0
M  V30 15073 H 1449.58 -0.208714 4.17078 0
M  V30 15074 N 1450.02 -1.31994 0.861122 0
M  V30 15075 C 1451.26 -1.97025 0.467678 0
M  V30 15076 C 1451.59 -1.68116 -0.978129 0
M  V30 15077 O 1450.85 -0.965342 -1.70234 0
M  V30 15078 C 1451.15 -3.51232 0.661135 0
M  V30 15079 C 1450.81 -4.00142 2.07839 0
M  V30 15080 C 1449.47 -4.1321 2.466 0
M  V30 15081 C 1451.83 -4.25986 3.00309 0
M  V30 15082 C 1449.15 -4.49467 3.7709 0
M  V30 15083 C 1451.51 -4.63704 4.30304 0
M  V30 15084 C 1450.17 -4.74978 4.68991 0
M  V30 15085 H 1449.44 -0.720967 0.171136 0
M  V30 15086 H 1452.09 -1.57285 1.09242 0
M  V30 15087 H 1450.39 -3.91772 -0.0467947 0
M  V30 15088 H 1452.09 -3.99584 0.336669 0
M  V30 15089 H 1448.68 -3.90461 1.76743 0
M  V30 15090 H 1452.86 -4.15393 2.71592 0
M  V30 15091 H 1448.12 -4.56391 4.06838 0
M  V30 15092 H 1452.29 -4.82654 5.02014 0
M  V30 15093 H 1449.92 -5.02828 5.70147 0
M  V30 15094 N 1451.49 -0.619688 -1.44906 0
M  V30 15095 C 1452.74 -0.117147 -2.0136 0
M  V30 15096 C 1453.06 1.2644 -1.49239 0
M  V30 15097 O 1454.26 1.86034 -1.97747 0
M  V30 15098 C 1452.72 -0.15871 -3.5955 0
M  V30 15099 C 1452.33 -1.54086 -4.20668 0
M  V30 15100 C 1454.07 0.287961 -4.23522 0
M  V30 15101 C 1451.98 -1.53816 -5.71047 0
M  V30 15102 H 1450.91 -0.040028 -0.752937 0
M  V30 15103 H 1453.56 -0.776802 -1.66247 0
M  V30 15104 H 1451.94 0.56783 -3.91908 0
M  V30 15105 H 1453.11 -2.29007 -3.99865 0
M  V30 15106 H 1451.43 -1.93065 -3.68938 0
M  V30 15107 H 1454.03 0.309351 -5.33804 0
M  V30 15108 H 1454.37 1.31305 -3.9505 0
M  V30 15109 H 1454.9 -0.385707 -3.95926 0
M  V30 15110 H 1451.64 -2.54124 -6.04236 0
M  V30 15111 H 1451.16 -0.831708 -5.94006 0
M  V30 15112 H 1452.84 -1.26708 -6.34472 0
M  V30 15113 N 1452.97 1.53444 -0.359552 0
M  V30 15114 C 1453.9 2.28475 0.4818 0
M  V30 15115 C 1454.88 1.30664 1.08908 0
M  V30 15116 O 1456.07 1.59527 1.10746 0
M  V30 15117 C 1453.2 3.06951 1.62477 0
M  V30 15118 C 1452.15 4.12399 1.14504 0
M  V30 15119 C 1451.48 4.78922 2.37777 0
M  V30 15120 C 1452.78 5.21775 0.234075 0
M  V30 15121 H 1454.47 2.99053 -0.144162 0
M  V30 15122 H 1452.02 1.43826 -0.0707746 0
M  V30 15123 H 1453.97 3.58186 2.21993 0
M  V30 15124 H 1452.7 2.34053 2.27787 0
M  V30 15125 H 1451.35 3.62101 0.572589 0
M  V30 15126 H 1451 4.02602 3.0153 0
M  V30 15127 H 1450.7 5.50175 2.06353 0
M  V30 15128 H 1452.23 5.32948 2.97991 0
M  V30 15129 H 1453.64 5.68549 0.736548 0
M  V30 15130 H 1452.04 6.00099 0.0109887 0
M  V30 15131 H 1453.11 4.79443 -0.725435 0
M  V30 15132 N 1454.45 0.0885642 1.57351 0
M  V30 15133 C 1455.7 -0.575536 1.93732 0
M  V30 15134 C 1456.02 -1.69126 0.970644 0
M  V30 15135 O 1455.29 -1.95888 0.0215907 0
M  V30 15136 H 1453.87 -0.215592 0.715213 0
M  V30 15137 H 1456.53 0.150362 1.94319 0
M  V30 15138 H 1455.63 -0.989979 2.95983 0
M  V30 15139 N 1455.93 -1.56509 -0.185096 0
M  V30 15140 C 1457.17 -1.81474 -0.905263 0
M  V30 15141 C 1457.51 -0.664225 -1.82488 0
M  V30 15142 O 1456.78 0.33466 -1.91599 0
M  V30 15143 C 1457.07 -3.16754 -1.71287 0
M  V30 15144 C 1456.92 -4.42312 -0.817302 0
M  V30 15145 C 1458.24 -3.48828 -2.68342 0
M  V30 15146 H 1455.36 -0.660155 -0.327664 0
M  V30 15147 H 1458 -1.89219 -0.172129 0
M  V30 15148 H 1456.15 -3.10282 -2.33789 0
M  V30 15149 H 1457.82 -4.60839 -0.206218 0
M  V30 15150 H 1456.06 -4.33621 -0.124564 0
M  V30 15151 H 1456.73 -5.33487 -1.41758 0
M  V30 15152 H 1459.21 -3.55663 -2.15969 0
M  V30 15153 H 1458.09 -4.44585 -3.21924 0
M  V30 15154 H 1458.35 -2.72829 -3.47875 0
M  V30 15155 N 1457.41 0.45317 -1.50944 0
M  V30 15156 C 1458.34 1.56825 -1.65775 0
M  V30 15157 C 1459.32 1.54542 -0.505515 0
M  V30 15158 O 1460.5 1.73902 -0.727336 0
M  V30 15159 C 1457.63 2.95411 -1.65681 0
M  V30 15160 C 1456.67 3.1578 -2.8668 0
M  V30 15161 S 1457.51 2.93763 -4.47731 0
M  V30 15162 C 1458.66 4.34659 -4.50358 0
M  V30 15163 H 1458.9 1.44008 -2.60094 0
M  V30 15164 H 1456.43 0.64177 -1.4043 0
M  V30 15165 H 1458.39 3.75301 -1.66311 0
M  V30 15166 H 1457.05 3.05603 -0.725659 0
M  V30 15167 H 1456.24 4.17066 -2.8297 0
M  V30 15168 H 1455.84 2.4369 -2.8371 0
M  V30 15169 H 1458.14 5.27599 -4.25024 0
M  V30 15170 H 1459.08 4.43408 -5.52082 0
M  V30 15171 H 1459.49 4.17575 -3.79857 0
M  V30 15172 N 1458.88 1.40823 0.707568 0
M  V30 15173 C 1460.3 1.35249 1.28704 0
M  V30 15174 C 1460.65 0.0298026 1.96177 0
M  V30 15175 O 1459.77 -0.872126 1.98048 0
M  V30 15176 C 1460.37 2.44965 2.34046 0
M  V30 15177 C 1458.93 2.42826 2.87598 0
M  V30 15178 C 1458.07 2.25429 1.61483 0
M  V30 15179 H 1461.02 1.50513 0.503141 0
M  V30 15180 H 1461.04 2.13334 3.1507 0
M  V30 15181 H 1460.56 3.41219 1.84908 0
M  V30 15182 H 1458.66 1.50294 3.40944 0
M  V30 15183 H 1458.77 3.38704 3.38845 0
M  V30 15184 H 1457.13 1.73089 1.86848 0
M  V30 15185 H 1457.92 3.23693 1.14359 0
M  V30 15186 N 1460.36 -0.94061 1.26453 0
M  V30 15187 C 1461.29 -2.05667 1.10559 0
M  V30 15188 C 1462.27 -1.70097 0.0106258 0
M  V30 15189 O 1463.46 -1.93338 0.182756 0
M  V30 15190 C 1460.59 -3.3936 0.7384 0
M  V30 15191 C 1459.54 -3.88993 1.78517 0
M  V30 15192 C 1458.87 -5.19343 1.27228 0
M  V30 15193 C 1460.17 -4.13812 3.1868 0
M  V30 15194 H 1461.86 -2.19221 2.03918 0
M  V30 15195 H 1459.41 -1.05339 0.98182 0
M  V30 15196 H 1461.36 -4.16902 0.61409 0
M  V30 15197 H 1460.09 -3.25783 -0.230887 0
M  V30 15198 H 1458.74 -3.13633 1.89816 0
M  V30 15199 H 1458.39 -5.02147 0.292816 0
M  V30 15200 H 1458.09 -5.53521 1.97201 0
M  V30 15201 H 1459.62 -5.99468 1.16065 0
M  V30 15202 H 1461.03 -4.81966 3.10455 0
M  V30 15203 H 1459.43 -4.59273 3.86249 0
M  V30 15204 H 1460.5 -3.19571 3.64695 0
M  V30 15205 N 1461.84 -1.08266 -1.14527 0
M  V30 15206 C 1463.09 -0.812661 -1.85805 0
M  V30 15207 C 1463.42 0.659878 -1.82645 0
M  V30 15208 O 1462.69 1.48498 -1.25612 0
M  V30 15209 C 1462.98 -1.33335 -3.34505 0
M  V30 15210 C 1462.83 -2.87113 -3.46246 0
M  V30 15211 C 1464.15 -0.957435 -4.29559 0
M  V30 15212 H 1461.27 -0.296681 -0.674648 0
M  V30 15213 H 1463.91 -1.34203 -1.34497 0
M  V30 15214 H 1462.06 -0.883056 -3.78331 0
M  V30 15215 H 1463.73 -3.40502 -3.11217 0
M  V30 15216 H 1461.98 -3.24845 -2.87504 0
M  V30 15217 H 1462.65 -3.18618 -4.50762 0
M  V30 15218 H 1465.12 -1.3456 -3.93742 0
M  V30 15219 H 1464 -1.34897 -5.32066 0
M  V30 15220 H 1464.26 0.135689 -4.41892 0
M  V30 15221 N 1463.32 1.31536 -0.86811 0
M  V30 15222 C 1464.57 1.96045 -0.474271 0
M  V30 15223 C 1464.88 1.6939 0.978071 0
M  V30 15224 O 1466.09 2.27746 1.47797 0
M  V30 15225 C 1464.54 3.5096 -0.797203 0
M  V30 15226 C 1464.15 3.86456 -2.26618 0
M  V30 15227 C 1465.9 4.21871 -0.471745 0
M  V30 15228 C 1463.8 5.34474 -2.53162 0
M  V30 15229 H 1462.73 0.733737 -0.173627 0
M  V30 15230 H 1465.38 1.49734 -1.06076 0
M  V30 15231 H 1463.77 3.95752 -0.139994 0
M  V30 15232 H 1464.94 3.52629 -2.9663 0
M  V30 15233 H 1463.25 3.28605 -2.55749 0
M  V30 15234 H 1465.85 5.30767 -0.647317 0
M  V30 15235 H 1466.19 4.12131 0.58768 0
M  V30 15236 H 1466.73 3.82706 -1.08542 0
M  V30 15237 H 1463.47 5.49248 -3.57781 0
M  V30 15238 H 1462.99 5.6966 -1.87743 0
M  V30 15239 H 1464.67 6.01716 -2.37797 0
M  V30 15240 N 1464.8 0.627364 1.44575 0
M  V30 15241 C 1466.02 0.135576 2.06956 0
M  V30 15242 C 1466.45 -1.17922 1.46547 0
M  V30 15243 O 1465.81 -1.72255 0.565509 0
M  V30 15244 C 1465.85 0.030347 3.60587 0
M  V30 15245 O 1464.96 -1.01464 3.99724 0
M  V30 15246 H 1464.3 0.083058 0.658785 0
M  V30 15247 H 1466.83 0.862977 1.8551 0
M  V30 15248 H 1466.84 -0.161461 4.0768 0
M  V30 15249 H 1465.51 0.990285 4.03938 0
M  V30 15250 H 1464.09 -0.797701 3.64268 0
M  V30 15251 N 1466.28 -1.53251 0.367684 0
M  V30 15252 C 1467.5 -2.05705 -0.222047 0
M  V30 15253 C 1467.92 -1.24104 -1.4228 0
M  V30 15254 O 1467.28 -0.282228 -1.80305 0
M  V30 15255 C 1467.33 -3.56257 -0.613475 0
M  V30 15256 O 1467.05 -4.34765 0.539558 0
M  V30 15257 C 1468.55 -4.24976 -1.26137 0
M  V30 15258 H 1465.77 -0.66989 -0.0385799 0
M  V30 15259 H 1468.31 -1.97602 0.526663 0
M  V30 15260 H 1466.47 -3.64503 -1.3121 0
M  V30 15261 H 1466.88 -5.24027 0.222699 0
M  V30 15262 H 1468.36 -5.31628 -1.4858 0
M  V30 15263 H 1468.83 -3.78828 -2.2223 0
M  V30 15264 H 1469.44 -4.20987 -0.604121 0
M  V30 15265 N 1467.75 -0.0969077 -1.57302 0
M  V30 15266 C 1469 0.565254 -1.94034 0
M  V30 15267 C 1469.32 1.68609 -0.9796 0
M  V30 15268 O 1468.59 1.95874 -0.0319788 0
M  V30 15269 H 1467.17 0.211796 -0.716346 0
M  V30 15270 H 1469.83 -0.160665 -1.94237 0
M  V30 15271 H 1468.93 0.974268 -2.96504 0
M  V30 15272 N 1469.23 1.56605 0.176793 0
M  V30 15273 C 1470.19 1.95109 1.20271 0
M  V30 15274 C 1471.19 0.83414 1.37473 0
M  V30 15275 O 1472.38 1.10128 1.34972 0
M  V30 15276 C 1469.52 2.24112 2.56878 0
M  V30 15277 H 1470.71 2.86909 0.87312 0
M  V30 15278 H 1468.26 1.50578 0.419033 0
M  V30 15279 H 1469 1.35009 2.94861 0
M  V30 15280 H 1468.78 3.05523 2.45761 0
M  V30 15281 H 1470.27 2.54842 3.30825 0
M  V30 15282 N 1470.71 -0.445159 1.51182 0
M  V30 15283 C 1471.96 -1.19288 1.6314 0
M  V30 15284 C 1472.28 -1.91904 0.346109 0
M  V30 15285 O 1471.55 -1.8523 -0.637695 0
M  V30 15286 H 1470.13 -0.443319 0.601229 0
M  V30 15287 H 1472.79 -0.511136 1.88078 0
M  V30 15288 H 1471.89 -1.92672 2.45528 0
M  V30 15289 N 1472.19 -1.41197 -0.700089 0
M  V30 15290 C 1473.41 -1.43856 -1.494 0
M  V30 15291 C 1473.84 -0.0441877 -1.88048 0
M  V30 15292 O 1473.2 0.951503 -1.54325 0
M  V30 15293 C 1473.24 -2.34913 -2.73584 0
M  V30 15294 O 1472.35 -1.80305 -3.70896 0
M  V30 15295 H 1471.69 -0.488412 -0.449833 0
M  V30 15296 H 1474.22 -1.85606 -0.860911 0
M  V30 15297 H 1474.23 -2.50633 -3.21943 0
M  V30 15298 H 1472.9 -3.36229 -2.44791 0
M  V30 15299 H 1471.48 -1.74012 -3.29809 0
M  V30 15300 N 1473.67 0.933891 -1.2695 0
M  V30 15301 C 1474.91 1.67759 -1.12701 0
M  V30 15302 C 1475.23 1.92207 0.328848 0
M  V30 15303 O 1474.5 1.52394 1.23097 0
M  V30 15304 H 1473.08 0.621729 -0.41408 0
M  V30 15305 H 1475.75 1.1217 -1.59386 0
M  V30 15306 H 1474.84 2.64834 -1.65135 0
M  V30 15307 N 1475.14 1.08871 1.13951 0
M  V30 15308 C 1476.11 0.726655 2.17376 0
M  V30 15309 C 1477.11 -0.240922 1.58985 0
M  V30 15310 O 1478.3 -0.0198472 1.74189 0
M  V30 15311 C 1475.43 0.0736505 3.4082 0
M  V30 15312 H 1476.62 1.64254 2.5092 0
M  V30 15313 H 1474.17 0.887183 1.28681 0
M  V30 15314 H 1474.91 -0.853733 3.12861 0
M  V30 15315 H 1474.69 0.769782 3.84469 0
M  V30 15316 H 1476.18 -0.164465 4.17276 0
M  V30 15317 N 1476.62 -1.31073 0.875073 0
M  V30 15318 C 1477.55 -2.27335 0.291809 0
M  V30 15319 C 1478.57 -1.53298 -0.548036 0
M  V30 15320 O 1479.76 -1.7464 -0.369198 0
M  V30 15321 C 1476.86 -3.33465 -0.604521 0
M  V30 15322 C 1476.03 -4.36924 0.204029 0
M  V30 15323 C 1475.09 -5.2252 -0.621238 0
M  V30 15324 O 1474.11 -5.6918 -0.0474551 0
M  V30 15325 N 1475.32 -5.47397 -1.93227 0
M  V30 15326 H 1478.08 -2.78024 1.11906 0
M  V30 15327 H 1475.64 -1.44149 0.737064 0
M  V30 15328 H 1477.63 -3.87646 -1.16243 0
M  V30 15329 H 1476.2 -2.8278 -1.33244 0
M  V30 15330 H 1475.42 -3.82745 0.943389 0
M  V30 15331 H 1476.71 -5.03112 0.758644 0
M  V30 15332 H 1476.11 -5.11253 -2.4215 0
M  V30 15333 H 1474.67 -6.04493 -2.43785 0
M  V30 15334 N 1478.1 -0.635022 -1.4424 0
M  V30 15335 C 1479.05 0.0797218 -2.32463 0
M  V30 15336 C 1480.04 0.831818 -1.47571 0
M  V30 15337 O 1481.25 0.744277 -1.63892 0
M  V30 15338 H 1477.62 0.0445532 -0.750679 0
M  V30 15339 H 1479.59 -0.682374 -2.90493 0
M  V30 15340 C 1478.34 1.04505 -3.31623 0
M  V30 15341 H 1477.67 0.475755 -3.96959 0
M  V30 15342 H 1479.11 1.51458 -3.96026 0
M  V30 15343 C 1477.57 2.13221 -2.60842 0
M  V30 15344 O 1478.1 3.21357 -2.41025 0
M  V30 15345 N 1476.3 1.89264 -2.20516 0
M  V30 15346 H 1475.85 1.01329 -2.36834 0
M  V30 15347 H 1475.81 2.62203 -1.73484 0
M  V30 15348 N 1479.58 1.53054 -0.375806 0
M  V30 15349 C 1480.54 2.24666 0.453608 0
M  V30 15350 C 1481.54 1.25816 1.00135 0
M  V30 15351 O 1482.73 1.50016 0.885481 0
M  V30 15352 C 1479.86 2.99131 1.63503 0
M  V30 15353 H 1481.06 2.994 -0.173172 0
M  V30 15354 H 1478.61 1.55778 -0.127673 0
M  V30 15355 H 1479.34 2.28666 2.29962 0
M  V30 15356 H 1479.13 3.71671 1.24913 0
M  V30 15357 H 1480.62 3.53542 2.22256 0
M  V30 15358 N 1481.06 0.105248 1.57248 0
M  V30 15359 C 1482.3 -0.556878 1.95004 0
M  V30 15360 C 1482.64 -1.672 0.987818 0
M  V30 15361 O 1481.91 -1.94487 0.022616 0
M  V30 15362 C 1482.19 -1.10252 3.42807 0
M  V30 15363 C 1482.05 0.00823908 4.49799 0
M  V30 15364 C 1483.37 -1.99774 3.92146 0
M  V30 15365 H 1480.48 -0.200959 0.709073 0
M  V30 15366 H 1483.13 0.178019 1.89164 0
M  V30 15367 H 1481.28 -1.7288 3.47915 0
M  V30 15368 H 1482.95 0.642944 4.56797 0
M  V30 15369 H 1481.19 0.673265 4.28544 0
M  V30 15370 H 1481.86 -0.414538 5.50441 0
M  V30 15371 H 1484.34 -1.47036 3.89255 0
M  V30 15372 H 1483.21 -2.34874 4.9611 0
M  V30 15373 H 1483.48 -2.91902 3.32033 0
M  V30 15374 N 1482.53 -1.56697 -0.168486 0
M  V30 15375 C 1483.78 -1.81794 -0.882907 0
M  V30 15376 C 1484.1 -0.682707 -1.82658 0
M  V30 15377 O 1483.37 0.297234 -1.93632 0
M  V30 15378 H 1481.95 -0.670636 -0.329024 0
M  V30 15379 H 1484.62 -1.94178 -0.167625 0
M  V30 15380 H 1483.71 -2.75945 -1.45811 0
M  V30 15381 N 1484.01 0.437135 -1.51416 0
M  V30 15382 C 1485.24 1.20898 -1.67903 0
M  V30 15383 C 1485.66 1.85009 -0.376458 0
M  V30 15384 O 1485.01 1.7072 0.645051 0
M  V30 15385 C 1485.06 2.29286 -2.79482 0
M  V30 15386 O 1484.78 1.67798 -4.04692 0
M  V30 15387 C 1486.29 3.19561 -3.07238 0
M  V30 15388 H 1483.51 0.364381 -0.563442 0
M  V30 15389 H 1486.05 0.517931 -1.97833 0
M  V30 15390 H 1484.2 2.94107 -2.5215 0
M  V30 15391 H 1484.62 2.39433 -4.6666 0
M  V30 15392 H 1486.09 3.91748 -3.88893 0
M  V30 15393 H 1486.57 3.80327 -2.19654 0
M  V30 15394 H 1487.18 2.60441 -3.3623 0
M  V30 15395 N 1485.49 1.41566 0.692592 0
M  V30 15396 C 1486.74 1.40805 1.44978 0
M  V30 15397 C 1487.06 0.0191039 1.94991 0
M  V30 15398 O 1486.33 -0.939544 1.71899 0
M  V30 15399 H 1484.91 0.518293 0.537942 0
M  V30 15400 H 1487.57 1.76831 0.81956 0
M  V30 15401 H 1486.67 2.09706 2.31149 0
M  V30 15402 N 1486.97 -0.927146 1.27443 0
M  V30 15403 C 1488.21 -1.67738 1.13982 0
M  V30 15404 C 1488.55 -1.91653 -0.313511 0
M  V30 15405 O 1487.82 -1.50729 -1.22926 0
M  V30 15406 C 1488.11 -3.04357 1.92454 0
M  V30 15407 C 1487.96 -2.8768 3.45775 0
M  V30 15408 C 1489.28 -4.04696 1.72944 0
M  V30 15409 H 1486.4 -0.608749 0.415444 0
M  V30 15410 H 1489.04 -1.07587 1.56605 0
M  V30 15411 H 1487.19 -3.55702 1.56232 0
M  V30 15412 H 1488.86 -2.43449 3.9183 0
M  V30 15413 H 1487.1 -2.23011 3.72087 0
M  V30 15414 H 1487.77 -3.8464 3.95924 0
M  V30 15415 H 1490.25 -3.62364 2.04528 0
M  V30 15416 H 1489.13 -4.98276 2.30243 0
M  V30 15417 H 1489.39 -4.36878 0.677505 0
M  V30 15418 N 1488.45 -1.09474 -1.13372 0
M  V30 15419 C 1489.38 -0.678539 -2.17879 0
M  V30 15420 C 1490.36 0.315208 -1.59516 0
M  V30 15421 O 1491.54 0.216467 -1.87253 0
M  V30 15422 C 1488.67 0.000305902 -3.387 0
M  V30 15423 C 1487.71 -0.95533 -4.15663 0
M  V30 15424 S 1488.55 -2.46765 -4.75255 0
M  V30 15425 C 1489.7 -1.80123 -5.99422 0
M  V30 15426 H 1489.94 -1.56385 -2.52846 0
M  V30 15427 H 1487.47 -0.910774 -1.24677 0
M  V30 15428 H 1489.43 0.385671 -4.08684 0
M  V30 15429 H 1488.09 0.862267 -3.02033 0
M  V30 15430 H 1487.28 -0.427431 -5.02184 0
M  V30 15431 H 1486.88 -1.28212 -3.51337 0
M  V30 15432 H 1489.18 -1.12557 -6.68085 0
M  V30 15433 H 1490.12 -2.64561 -6.5682 0
M  V30 15434 H 1490.53 -1.26994 -5.5003 0
M  V30 15435 N 1489.92 1.30607 -0.882012 0
M  V30 15436 C 1491.17 1.95869 -0.497978 0
M  V30 15437 C 1491.49 1.69991 0.955405 0
M  V30 15438 O 1490.76 1.02188 1.67136 0
M  V30 15439 H 1489.34 0.724699 -0.181165 0
M  V30 15440 H 1492.01 1.59193 -1.12444 0
M  V30 15441 H 1491.1 3.04917 -0.665754 0
M  V30 15442 N 1491.4 0.642663 1.43901 0
M  V30 15443 C 1492.65 0.151478 2.01532 0
M  V30 15444 C 1492.97 -1.23519 1.50891 0
M  V30 15445 O 1492.24 -1.82299 0.717197 0
M  V30 15446 H 1490.82 0.0530091 0.745117 0
M  V30 15447 H 1493.48 0.831958 1.76251 0
M  V30 15448 H 1492.58 0.127995 3.11837 0
M  V30 15449 N 1492.88 -1.52852 0.383918 0
M  V30 15450 C 1493.81 -2.22704 -0.497825 0
M  V30 15451 C 1494.79 -1.22573 -1.06839 0
M  V30 15452 O 1495.98 -1.51541 -1.12105 0
M  V30 15453 C 1493.1 -2.93606 -1.68858 0
M  V30 15454 C 1492.15 -4.07962 -1.24376 0
M  V30 15455 S 1492.98 -5.35007 -0.229773 0
M  V30 15456 C 1494.14 -6.09429 -1.42643 0
M  V30 15457 H 1494.37 -2.97147 0.0953535 0
M  V30 15458 H 1491.9 -1.53482 0.168084 0
M  V30 15459 H 1493.86 -3.35067 -2.3715 0
M  V30 15460 H 1492.52 -2.18853 -2.25304 0
M  V30 15461 H 1491.72 -4.56654 -2.13269 0
M  V30 15462 H 1491.32 -3.68486 -0.639823 0
M  V30 15463 H 1493.61 -6.35274 -2.35443 0
M  V30 15464 H 1494.55 -7.01278 -0.980541 0
M  V30 15465 H 1494.96 -5.40128 -1.6408 0
M  V30 15466 N 1494.36 -0.113586 -1.5719 0
M  V30 15467 C 1495.61 0.546529 -1.95297 0
M  V30 15468 C 1495.94 1.66674 -0.996671 0
M  V30 15469 O 1495.21 1.94472 -0.0329298 0
M  V30 15470 C 1495.5 1.08433 -3.43387 0
M  V30 15471 C 1495.35 -0.0320929 -4.49789 0
M  V30 15472 C 1496.67 1.97691 -3.932 0
M  V30 15473 H 1493.79 0.197195 -0.710129 0
M  V30 15474 H 1496.43 -0.188048 -1.89067 0
M  V30 15475 H 1494.58 1.71033 -3.48827 0
M  V30 15476 H 1496.25 -0.66716 -4.5645 0
M  V30 15477 H 1494.49 -0.695983 -4.2818 0
M  V30 15478 H 1495.17 0.385341 -5.50653 0
M  V30 15479 H 1497.64 1.4497 -3.90029 0
M  V30 15480 H 1496.52 2.3224 -4.97349 0
M  V30 15481 H 1496.78 2.90137 -3.33576 0
M  V30 15482 N 1495.84 1.56784 0.160173 0
M  V30 15483 C 1497.07 1.86767 0.89026 0
M  V30 15484 C 1497.48 0.700276 1.75333 0
M  V30 15485 O 1496.84 -0.330342 1.79485 0
M  V30 15486 C 1496.89 3.15883 1.75784 0
M  V30 15487 O 1496.61 4.28124 0.929575 0
M  V30 15488 C 1498.11 3.5929 2.59664 0
M  V30 15489 H 1495.33 0.61938 0.258088 0
M  V30 15490 H 1497.87 2.03897 0.156919 0
M  V30 15491 H 1496.03 3.00546 2.4444 0
M  V30 15492 H 1496.44 5.01872 1.52397 0
M  V30 15493 H 1497.92 4.52506 3.16136 0
M  V30 15494 H 1498.39 2.83943 3.35072 0
M  V30 15495 H 1499 3.77277 1.96323 0
M  V30 15496 N 1497.32 -0.429099 1.51646 0
M  V30 15497 C 1498.28 -1.50398 1.72954 0
M  V30 15498 C 1499.28 -1.49207 0.599491 0
M  V30 15499 O 1500.47 -1.51084 0.867143 0
M  V30 15500 C 1497.6 -2.89903 1.79358 0
M  V30 15501 H 1498.79 -1.32805 2.68892 0
M  V30 15502 H 1496.35 -0.658313 1.4176 0
M  V30 15503 H 1497.08 -3.12891 0.852639 0
M  V30 15504 H 1496.87 -2.92171 2.61492 0
M  V30 15505 H 1498.36 -3.67862 1.97654 0
M  V30 15506 N 1498.79 -1.41931 -0.685074 0
M  V30 15507 C 1500.02 -1.45229 -1.47364 0
M  V30 15508 C 1500.44 -0.060595 -1.88703 0
M  V30 15509 O 1499.79 0.92244 -1.57472 0
M  V30 15510 C 1499.84 -2.37033 -2.72942 0
M  V30 15511 O 1499.57 -3.70787 -2.33342 0
M  V30 15512 C 1501.07 -2.49244 -3.66596 0
M  V30 15513 H 1498.29 -0.494291 -0.453781 0
M  V30 15514 H 1500.83 -1.86333 -0.84263 0
M  V30 15515 H 1498.99 -1.9921 -3.32256 0
M  V30 15516 H 1499.4 -4.19853 -3.14362 0
M  V30 15517 H 1500.87 -3.17624 -4.51463 0
M  V30 15518 H 1501.35 -1.52703 -4.11799 0
M  V30 15519 H 1501.96 -2.87747 -3.1318 0
M  V30 15520 N 1500.27 0.920374 -1.27933 0
M  V30 15521 C 1501.52 1.67131 -1.1487 0
M  V30 15522 C 1501.85 1.91816 0.303343 0
M  V30 15523 O 1501.13 1.51379 1.22125 0
M  V30 15524 C 1501.41 3.03332 -1.94066 0
M  V30 15525 C 1501.26 2.85842 -3.47296 0
M  V30 15526 C 1502.58 4.03773 -1.75087 0
M  V30 15527 H 1499.7 0.606537 -0.418666 0
M  V30 15528 H 1502.34 1.06755 -1.57173 0
M  V30 15529 H 1500.49 3.54869 -1.58116 0
M  V30 15530 H 1502.16 2.41367 -3.93115 0
M  V30 15531 H 1500.41 2.21035 -3.73264 0
M  V30 15532 H 1501.08 3.82535 -3.97958 0
M  V30 15533 H 1503.55 3.61274 -2.06447 0
M  V30 15534 H 1502.43 4.97048 -2.32882 0
M  V30 15535 H 1502.69 4.36512 -0.700665 0
M  V30 15536 N 1501.75 1.10074 1.1279 0
M  V30 15537 C 1502.68 0.768146 2.20503 0
M  V30 15538 C 1503.66 -0.257199 1.68144 0
M  V30 15539 O 1504.85 -0.12379 1.93805 0
M  V30 15540 C 1501.98 0.195125 3.46751 0
M  V30 15541 C 1500.93 1.15074 4.1224 0
M  V30 15542 C 1500.26 0.439098 5.32894 0
M  V30 15543 C 1501.56 2.49584 4.58808 0
M  V30 15544 H 1503.25 1.66876 2.48581 0
M  V30 15545 H 1500.8 0.803806 1.19478 0
M  V30 15546 H 1502.75 -0.0496695 4.21371 0
M  V30 15547 H 1501.47 -0.740717 3.1809 0
M  V30 15548 H 1500.13 1.38092 3.39597 0
M  V30 15549 H 1499.78 -0.501096 5.00498 0
M  V30 15550 H 1499.48 1.07632 5.77658 0
M  V30 15551 H 1501 0.202761 6.10263 0
M  V30 15552 H 1502.42 2.30736 5.24818 0
M  V30 15553 H 1500.81 3.09157 5.14336 0
M  V30 15554 H 1501.88 3.09857 3.72984 0
M  V30 15555 N 1503.23 -1.30138 0.888926 0
M  V30 15556 C 1504.19 -2.26299 0.363504 0
M  V30 15557 C 1505.19 -1.52951 -0.496244 0
M  V30 15558 O 1506.38 -1.71548 -0.302834 0
M  V30 15559 C 1503.51 -3.37482 -0.481544 0
M  V30 15560 H 1504.71 -2.7429 1.21265 0
M  V30 15561 H 1502.26 -1.41395 0.666124 0
M  V30 15562 H 1502.99 -2.94814 -1.35112 0
M  V30 15563 H 1502.78 -3.9187 0.134344 0
M  V30 15564 H 1504.27 -4.09048 -0.840816 0
M  V30 15565 N 1504.71 -0.650285 -1.43559 0
M  V30 15566 C 1505.95 -0.159832 -2.01066 0
M  V30 15567 C 1506.27 1.23246 -1.51887 0
M  V30 15568 O 1507.47 1.81797 -2.01648 0
M  V30 15569 C 1505.93 -0.23494 -3.59132 0
M  V30 15570 C 1505.54 -1.62975 -4.17305 0
M  V30 15571 C 1507.28 0.198061 -4.24038 0
M  V30 15572 C 1505.19 -1.65894 -5.67656 0
M  V30 15573 H 1504.12 -0.0559899 -0.751918 0
M  V30 15574 H 1506.77 -0.811891 -1.64562 0
M  V30 15575 H 1505.15 0.484573 -3.93024 0
M  V30 15576 H 1506.33 -2.37438 -3.94918 0
M  V30 15577 H 1504.64 -2.00847 -3.64759 0
M  V30 15578 H 1507.24 0.196054 -5.3434 0
M  V30 15579 H 1507.58 1.22896 -3.97747 0
M  V30 15580 H 1508.11 -0.469602 -3.95018 0
M  V30 15581 H 1504.85 -2.66883 -5.9871 0
M  V30 15582 H 1504.37 -0.957519 -5.92108 0
M  V30 15583 H 1506.05 -1.40137 -6.31641 0
M  V30 15584 N 1506.18 1.52647 -0.392018 0
M  V30 15585 C 1507.43 2.01613 0.1893 0
M  V30 15586 C 1507.76 1.27837 1.46588 0
M  V30 15587 O 1507.01 0.368018 1.92209 0
M  V30 15588 C 1507.31 3.53872 0.500914 0
M  V30 15589 C 1506.98 4.45675 -0.684434 0
M  V30 15590 C 1505.64 4.70489 -1.00961 0
M  V30 15591 C 1507.99 4.99825 -1.4773 0
M  V30 15592 C 1505.32 5.46703 -2.12915 0
M  V30 15593 C 1507.67 5.77263 -2.58747 0
M  V30 15594 C 1506.34 6.00355 -2.9177 0
M  V30 15595 H 1505.61 0.737755 0.0692697 0
M  V30 15596 H 1508.25 1.84022 -0.529924 0
M  V30 15597 H 1506.56 3.69551 1.3015 0
M  V30 15598 H 1508.26 3.89256 0.963382 0
M  V30 15599 H 1504.85 4.26527 -0.420985 0
M  V30 15600 H 1509.03 4.80577 -1.23932 0
M  V30 15601 H 1504.29 5.62807 -2.38868 0
M  V30 15602 H 1508.46 6.18223 -3.20583 0
M  V30 15603 H 1506.09 6.59194 -3.7864 0
M  V30 15604 N 1507.66 0.121921 1.57128 0
M  V30 15605 C 1508.91 -0.535371 1.95295 0
M  V30 15606 C 1509.24 -1.665 1.00539 0
M  V30 15607 O 1508.49 -1.95677 0.0298129 0
M  V30 15608 C 1508.79 -1.10579 3.39863 0
M  V30 15609 C 1508.46 -0.0972144 4.50795 0
M  V30 15610 C 1507.12 0.180111 4.80863 0
M  V30 15611 C 1509.47 0.589973 5.1785 0
M  V30 15612 C 1506.8 1.15086 5.75302 0
M  V30 15613 C 1509.15 1.54937 6.13333 0
M  V30 15614 C 1507.82 1.83465 6.41792 0
M  V30 15615 H 1507.09 -0.195906 0.714634 0
M  V30 15616 H 1509.73 0.203445 1.90416 0
M  V30 15617 H 1508.04 -1.92143 3.4145 0
M  V30 15618 H 1509.73 -1.62252 3.66709 0
M  V30 15619 H 1506.32 -0.32355 4.27377 0
M  V30 15620 H 1510.51 0.38889 4.94774 0
M  V30 15621 H 1505.76 1.3786 5.95655 0
M  V30 15622 H 1509.94 2.08751 6.64376 0
M  V30 15623 H 1507.57 2.58841 7.14777 0
M  V30 15624 N 1509.14 -1.56867 -0.151857 0
M  V30 15625 C 1510.39 -1.83353 -0.866566 0
M  V30 15626 C 1510.72 -0.702784 -1.81038 0
M  V30 15627 O 1509.99 0.293944 -1.92266 0
M  V30 15628 C 1510.28 -3.20316 -1.64529 0
M  V30 15629 C 1510.13 -4.43946 -0.723297 0
M  V30 15630 C 1511.45 -3.54441 -2.60882 0
M  V30 15631 H 1508.57 -0.666957 -0.313588 0
M  V30 15632 H 1511.21 -1.89541 -0.131954 0
M  V30 15633 H 1509.36 -3.15172 -2.27154 0
M  V30 15634 H 1511.03 -4.61173 -0.10842 0
M  V30 15635 H 1509.28 -4.33788 -0.0325582 0
M  V30 15636 H 1509.95 -5.36374 -1.3041 0
M  V30 15637 H 1512.42 -3.60164 -2.08377 0
M  V30 15638 H 1511.3 -4.51314 -3.12422 0
M  V30 15639 H 1511.56 -2.80146 -3.42009 0
M  V30 15640 N 1510.62 0.421051 -1.51871 0
M  V30 15641 C 1512.03 1.00033 -1.5764 0
M  V30 15642 C 1512.38 1.91875 -0.409665 0
M  V30 15643 O 1511.51 2.11201 0.471516 0
M  V30 15644 C 1512.1 1.82099 -2.85701 0
M  V30 15645 C 1510.66 2.35049 -2.93988 0
M  V30 15646 C 1509.81 1.14703 -2.52465 0
M  V30 15647 H 1512.76 0.201715 -1.57413 0
M  V30 15648 H 1512.78 2.67719 -2.70382 0
M  V30 15649 H 1512.29 1.15229 -3.706 0
M  V30 15650 H 1510.39 3.05327 -2.13556 0
M  V30 15651 H 1510.5 2.66731 -3.97984 0
M  V30 15652 H 1508.87 1.49736 -2.06037 0
M  V30 15653 H 1509.65 0.494171 -3.39725 0
M  V30 15654 N 1512.1 1.42293 0.677538 0
M  V30 15655 C 1513.34 1.42827 1.43973 0
M  V30 15656 C 1513.68 0.0435041 1.94151 0
M  V30 15657 O 1512.95 -0.931794 1.70727 0
M  V30 15658 C 1513.23 2.45037 2.63873 0
M  V30 15659 C 1513.09 3.92694 2.19344 0
M  V30 15660 C 1514.41 2.4427 3.66087 0
M  V30 15661 H 1511.52 0.520097 0.522176 0
M  V30 15662 H 1514.17 1.73688 0.770219 0
M  V30 15663 H 1512.32 2.18851 3.20993 0
M  V30 15664 H 1513.99 4.2985 1.67412 0
M  V30 15665 H 1512.23 4.06692 1.50944 0
M  V30 15666 H 1512.9 4.59784 3.05455 0
M  V30 15667 H 1515.38 2.67551 3.18678 0
M  V30 15668 H 1514.25 3.17769 4.47564 0
M  V30 15669 H 1514.52 1.46769 4.17027 0
M  V30 15670 N 1513.57 -0.913576 1.28419 0
M  V30 15671 C 1514.82 -1.66273 1.15584 0
M  V30 15672 C 1515.15 -1.92242 -0.295541 0
M  V30 15673 O 1514.4 -1.52104 -1.23137 0
M  V30 15674 C 1514.7 -3.02722 1.89985 0
M  V30 15675 C 1514.37 -2.96413 3.3978 0
M  V30 15676 C 1513.03 -2.94399 3.80635 0
M  V30 15677 C 1515.38 -2.86648 4.35296 0
M  V30 15678 C 1512.71 -2.80422 5.15345 0
M  V30 15679 C 1515.06 -2.74211 5.7008 0
M  V30 15680 C 1513.73 -2.70556 6.1021 0
M  V30 15681 H 1513 -0.608435 0.422951 0
M  V30 15682 H 1515.64 -1.06438 1.59196 0
M  V30 15683 H 1513.95 -3.66344 1.38923 0
M  V30 15684 H 1515.65 -3.59591 1.7747 0
M  V30 15685 H 1512.24 -2.98775 3.07297 0
M  V30 15686 H 1516.42 -2.87291 4.04695 0
M  V30 15687 H 1511.68 -2.75987 5.45565 0
M  V30 15688 H 1515.85 -2.65624 6.43752 0
M  V30 15689 H 1513.48 -2.59483 7.14544 0
M  V30 15690 N 1515.05 -1.1067 -1.12204 0
M  V30 15691 C 1516.3 -0.85063 -1.83768 0
M  V30 15692 C 1516.63 0.62379 -1.84226 0
M  V30 15693 O 1515.88 1.47603 -1.28498 0
M  V30 15694 C 1516.18 -1.34727 -3.31034 0
M  V30 15695 C 1515.85 -2.83353 -3.50745 0
M  V30 15696 C 1514.51 -3.2394 -3.55832 0
M  V30 15697 C 1516.86 -3.79118 -3.57658 0
M  V30 15698 C 1514.19 -4.59036 -3.6538 0
M  V30 15699 C 1516.54 -5.1402 -3.68736 0
M  V30 15700 C 1515.21 -5.54177 -3.72081 0
M  V30 15701 H 1514.48 -0.311268 -0.672453 0
M  V30 15702 H 1517.12 -1.38373 -1.32383 0
M  V30 15703 H 1515.43 -0.73424 -3.84859 0
M  V30 15704 H 1517.12 -1.12558 -3.84879 0
M  V30 15705 H 1513.71 -2.50952 -3.47449 0
M  V30 15706 H 1517.9 -3.48867 -3.52995 0
M  V30 15707 H 1513.15 -4.89568 -3.66243 0
M  V30 15708 H 1517.33 -5.88067 -3.73028 0
M  V30 15709 H 1514.96 -6.58853 -3.79232 0
M  V30 15710 N 1516.53 1.29665 -0.895815 0
M  V30 15711 C 1517.78 1.96006 -0.520522 0
M  V30 15712 C 1518.11 1.7048 0.930068 0
M  V30 15713 O 1517.38 1.01558 1.6588 0
M  V30 15714 C 1517.67 3.50897 -0.808925 0
M  V30 15715 C 1517.52 3.85896 -2.31093 0
M  V30 15716 C 1518.84 4.39125 -0.292769 0
M  V30 15717 H 1515.96 0.711931 -0.190588 0
M  V30 15718 H 1518.6 1.53349 -1.12179 0
M  V30 15719 H 1516.75 3.87362 -0.297194 0
M  V30 15720 H 1518.42 3.59397 -2.89191 0
M  V30 15721 H 1516.67 3.33578 -2.77323 0
M  V30 15722 H 1517.34 4.93989 -2.46331 0
M  V30 15723 H 1519.81 4.0963 -0.730906 0
M  V30 15724 H 1518.69 5.46395 -0.523799 0
M  V30 15725 H 1518.95 4.34683 0.806393 0
M  V30 15726 N 1518.01 0.657889 1.43212 0
M  V30 15727 C 1519.25 0.173443 2.02057 0
M  V30 15728 C 1519.59 -1.21108 1.51811 0
M  V30 15729 O 1518.86 -1.80953 0.71317 0
M  V30 15730 C 1519.15 0.189429 3.59601 0
M  V30 15731 C 1519 1.6082 4.20068 0
M  V30 15732 C 1520.32 -0.471633 4.37566 0
M  V30 15733 H 1517.44 0.0644999 0.734172 0
M  V30 15734 H 1520.08 0.839462 1.7045 0
M  V30 15735 H 1518.23 -0.377689 3.8666 0
M  V30 15736 H 1519.9 2.22627 4.04024 0
M  V30 15737 H 1518.14 2.15407 3.7654 0
M  V30 15738 H 1518.81 1.5712 5.29167 0
M  V30 15739 H 1521.29 0.0109387 4.16099 0
M  V30 15740 H 1520.17 -0.429739 5.47215 0
M  V30 15741 H 1520.43 -1.54652 4.14168 0
M  V30 15742 N 1519.49 -1.52437 0.400108 0
M  V30 15743 C 1520.73 -2.0201 -0.17887 0
M  V30 15744 C 1521.07 -1.2856 -1.45554 0
M  V30 15745 O 1520.34 -0.389236 -1.90565 0
M  V30 15746 C 1520.62 -3.57453 -0.435784 0
M  V30 15747 C 1520.48 -4.41562 0.85693 0
M  V30 15748 C 1521.8 -4.228 -1.2218 0
M  V30 15749 H 1518.91 -0.734256 -0.063535 0
M  V30 15750 H 1521.56 -1.82406 0.531801 0
M  V30 15751 H 1519.71 -3.74288 -1.04117 0
M  V30 15752 H 1521.38 -4.36456 1.49344 0
M  V30 15753 H 1519.62 -4.08138 1.46989 0
M  V30 15754 H 1520.29 -5.48374 0.631675 0
M  V30 15755 H 1522.77 -4.10009 -0.709359 0
M  V30 15756 H 1521.64 -5.3152 -1.37031 0
M  V30 15757 H 1521.91 -3.81153 -2.23998 0
M  V30 15758 N 1520.96 -0.130252 -1.57061 0
M  V30 15759 C 1522.38 0.226279 -1.57988 0
M  V30 15760 C 1522.58 1.65902 -1.14363 0
M  V30 15761 O 1521.64 2.38252 -0.836191 0
M  V30 15762 C 1522.95 -0.0172647 -3.00695 0
M  V30 15763 C 1524.5 0.0477572 -3.12964 0
M  V30 15764 C 1524.97 -0.168238 -4.57691 0
M  V30 15765 N 1526.46 -0.114591 -4.63058 0
M  V30 15766 C 1527.2 -0.256462 -5.72826 0
M  V30 15767 N 1526.69 -0.455129 -6.91303 0
M  V30 15768 N 1528.49 -0.195243 -5.61761 0
M  V30 15769 H 1520.64 -1.06594 -1.83716 0
M  V30 15770 H 1522.9 -0.420643 -0.849567 0
M  V30 15771 H 1522.61 -1.00819 -3.3694 0
M  V30 15772 H 1522.48 0.709629 -3.70465 0
M  V30 15773 H 1524.87 1.02922 -2.7657 0
M  V30 15774 H 1524.95 -0.711198 -2.45714 0
M  V30 15775 H 1524.59 -1.14673 -4.94785 0
M  V30 15776 H 1524.52 0.610839 -5.23045 0
M  V30 15777 H 1527.01 0.0349873 -3.77884 0
M  V30 15778 H 1527.33 -0.553943 -7.70812 0
M  V30 15779 H 1525.67 -0.491244 -6.93262 0
M  V30 15780 H 1528.86 -0.0409186 -4.68082 0
M  V30 15781 H 1529.04 -0.309248 -6.47262 0
M  V30 15782 N 1522.44 1.56945 0.143535 0
M  V30 15783 C 1523.86 1.51688 0.496291 0
M  V30 15784 C 1524.06 0.839251 1.83191 0
M  V30 15785 O 1523.12 0.411235 2.49129 0
M  V30 15786 C 1524.43 2.96456 0.503402 0
M  V30 15787 C 1525.98 3.07414 0.588676 0
M  V30 15788 C 1526.45 4.53696 0.626416 0
M  V30 15789 N 1527.94 4.58054 0.688543 0
M  V30 15790 C 1528.68 5.68621 0.738786 0
M  V30 15791 N 1528.17 6.88748 0.748163 0
M  V30 15792 N 1529.97 5.56663 0.779931 0
M  V30 15793 H 1522.12 1.99392 -0.731901 0
M  V30 15794 H 1524.38 0.909546 -0.267263 0
M  V30 15795 H 1524.09 3.49304 -0.409845 0
M  V30 15796 H 1523.96 3.52593 1.34008 0
M  V30 15797 H 1526.35 2.54584 1.49234 0
M  V30 15798 H 1526.43 2.54315 -0.275213 0
M  V30 15799 H 1526.07 5.07165 -0.273108 0
M  V30 15800 H 1526 5.04581 1.50684 0
M  V30 15801 H 1528.49 3.71576 0.688455 0
M  V30 15802 H 1528.81 7.68767 0.788444 0
M  V30 15803 H 1527.15 6.91302 0.715982 0
M  V30 15804 H 1530.34 4.61727 0.769799 0
M  V30 15805 H 1530.52 6.42847 0.815621 0
M  V30 15806 N 1523.92 -0.412991 1.52093 0
M  V30 15807 C 1525.34 -0.751324 1.40809 0
M  V30 15808 C 1525.54 -1.94951 0.509543 0
M  V30 15809 O 1524.59 -2.52486 -0.026132 0
M  V30 15810 C 1525.91 -1.00888 2.8327 0
M  V30 15811 C 1527.45 -1.11183 2.92587 0
M  V30 15812 C 1527.93 -1.40217 4.36008 0
M  V30 15813 N 1529.42 -1.4709 4.39225 0
M  V30 15814 C 1530.16 -1.71174 5.47254 0
M  V30 15815 N 1529.65 -1.92887 6.65407 0
M  V30 15816 N 1531.44 -1.73157 5.34765 0
M  V30 15817 H 1523.6 0.375774 2.0905 0
M  V30 15818 H 1525.86 0.105817 0.942076 0
M  V30 15819 H 1525.56 -0.200872 3.51126 0
M  V30 15820 H 1525.44 -1.93008 3.2408 0
M  V30 15821 H 1527.83 -1.91043 2.24915 0
M  V30 15822 H 1527.91 -0.169078 2.55241 0
M  V30 15823 H 1527.55 -0.608754 5.04239 0
M  V30 15824 H 1527.48 -2.35737 4.70888 0
M  V30 15825 H 1529.97 -1.32114 3.54054 0
M  V30 15826 H 1530.28 -2.10704 7.43521 0
M  V30 15827 H 1528.63 -1.9016 6.68479 0
M  V30 15828 H 1531.82 -1.55728 4.41437 0
M  V30 15829 H 1531.99 -1.91587 6.1903 0
M  V30 15830 N 1525.4 -1.4265 -0.669982 0
M  V30 15831 C 1526.65 -1.43376 -1.43002 0
M  V30 15832 C 1526.97 -0.0519386 -1.94431 0
M  V30 15833 O 1526.23 0.940456 -1.71621 0
M  V30 15834 C 1526.53 -2.40913 -2.63999 0
M  V30 15835 C 1526.19 -3.87183 -2.31085 0
M  V30 15836 C 1524.86 -4.27024 -2.21819 0
M  V30 15837 C 1527.21 -4.79428 -2.04447 0
M  V30 15838 C 1524.54 -5.57084 -1.84049 0
M  V30 15839 C 1526.89 -6.09835 -1.68179 0
M  V30 15840 C 1525.55 -6.4867 -1.57428 0
M  V30 15841 H 1524.82 -0.524651 -0.52328 0
M  V30 15842 H 1527.47 -1.75622 -0.763494 0
M  V30 15843 H 1525.77 -2.02012 -3.35706 0
M  V30 15844 H 1527.47 -2.38737 -3.22189 0
M  V30 15845 H 1524.06 -3.55642 -2.392 0
M  V30 15846 H 1528.25 -4.49431 -2.10535 0
M  V30 15847 H 1523.5 -5.86029 -1.74298 0
M  V30 15848 H 1527.68 -6.80796 -1.46594 0
M  V30 15849 H 1525.3 -7.49358 -1.2793 0
M  V30 15850 N 1526.88 0.906753 -1.28902 0
M  V30 15851 C 1528.1 1.69547 -1.19452 0
M  V30 15852 C 1528.53 1.86531 0.242418 0
M  V30 15853 O 1527.89 1.38052 1.17521 0
M  V30 15854 C 1527.93 3.06139 -1.90556 0
M  V30 15855 O 1527.04 3.9401 -1.21779 0
M  V30 15856 H 1526.38 0.518902 -0.41429 0
M  V30 15857 H 1528.91 1.13327 -1.70347 0
M  V30 15858 H 1528.92 3.56326 -1.98736 0
M  V30 15859 H 1527.59 2.93094 -2.95074 0
M  V30 15860 H 1526.17 3.52444 -1.2181 0
M  V30 15861 N 1528.36 1.11264 1.11616 0
M  V30 15862 C 1529.77 0.846176 1.35322 0
M  V30 15863 C 1529.97 -0.530043 1.94404 0
M  V30 15864 O 1529.03 -1.28122 2.1758 0
M  V30 15865 C 1530.34 1.9528 2.28662 0
M  V30 15866 C 1531.89 1.98225 2.42231 0
M  V30 15867 C 1532.36 3.08086 3.38891 0
M  V30 15868 N 1533.85 3.07448 3.46453 0
M  V30 15869 C 1534.59 3.89094 4.21181 0
M  V30 15870 N 1534.09 4.80698 4.989 0
M  V30 15871 N 1535.88 3.77279 4.16674 0
M  V30 15872 H 1528.03 1.99958 0.716284 0
M  V30 15873 H 1530.29 0.869439 0.377862 0
M  V30 15874 H 1530 2.94381 1.92439 0
M  V30 15875 H 1529.87 1.84739 3.28864 0
M  V30 15876 H 1532.26 0.997517 2.77729 0
M  V30 15877 H 1532.34 2.12842 1.41887 0
M  V30 15878 H 1531.98 4.06784 3.0412 0
M  V30 15879 H 1531.91 2.90709 4.39085 0
M  V30 15880 H 1534.41 2.41077 2.91016 0
M  V30 15881 H 1534.72 5.39535 5.53282 0
M  V30 15882 H 1533.06 4.84721 4.98067 0
M  V30 15883 H 1536.25 3.05059 3.55044 0
M  V30 15884 H 1536.43 4.41142 4.74655 0
M  V30 15885 N 1529.83 -1.29188 0.902679 0
M  V30 15886 C 1530.78 -2.27632 0.381088 0
M  V30 15887 C 1531.75 -1.57131 -0.538431 0
M  V30 15888 O 1532.94 -1.85096 -0.463027 0
M  V30 15889 C 1530.08 -3.42971 -0.382701 0
M  V30 15890 C 1529.19 -4.28249 0.568054 0
M  V30 15891 C 1528.32 -5.30772 -0.213082 0
M  V30 15892 C 1527.36 -6.07707 0.732004 0
M  V30 15893 N 1526.5 -7.02098 -0.0149139 0
M  V30 15894 H 1531.34 -2.71628 1.22566 0
M  V30 15895 H 1528.88 -1.33594 0.615724 0
M  V30 15896 H 1530.83 -4.08623 -0.841619 0
M  V30 15897 H 1529.46 -2.99997 -1.19171 0
M  V30 15898 H 1528.52 -3.62743 1.14549 0
M  V30 15899 H 1529.83 -4.81794 1.29136 0
M  V30 15900 H 1528.98 -6.02255 -0.733065 0
M  V30 15901 H 1527.72 -4.77966 -0.969504 0
M  V30 15902 H 1526.73 -5.35086 1.26346 0
M  V30 15903 H 1527.95 -6.62602 1.4878 0
M  V30 15904 H 1525.9 -6.51658 -0.753548 0
M  V30 15905 H 1525.81 -7.53214 0.648423 0
M  V30 15906 H 1527.08 -7.77796 -0.515062 0
M  V30 15907 N 1531.31 -0.665475 -1.42861 0
M  V30 15908 C 1532.26 0.030395 -2.3258 0
M  V30 15909 C 1533.25 0.800329 -1.49302 0
M  V30 15910 O 1534.46 0.709346 -1.65434 0
M  V30 15911 H 1530.83 0.0286201 -0.751455 0
M  V30 15912 H 1532.81 -0.743838 -2.8898 0
M  V30 15913 C 1531.55 0.974474 -3.33765 0
M  V30 15914 H 1530.88 0.391447 -3.97879 0
M  V30 15915 H 1532.32 1.43023 -3.99149 0
M  V30 15916 C 1530.78 2.0764 -2.65306 0
M  V30 15917 O 1531.31 3.16172 -2.47787 0
M  V30 15918 N 1529.51 1.84544 -2.24481 0
M  V30 15919 H 1529.06 0.962826 -2.3893 0
M  V30 15920 H 1529.02 2.58464 -1.79007 0
M  V30 15921 N 1532.79 1.52222 -0.408187 0
M  V30 15922 C 1533.7 2.30725 0.424645 0
M  V30 15923 C 1534.72 1.38412 1.05442 0
M  V30 15924 O 1535.89 1.71486 1.05614 0
M  V30 15925 C 1532.96 3.11273 1.52677 0
M  V30 15926 C 1532.02 4.19323 0.920143 0
M  V30 15927 C 1531.25 4.96021 1.96974 0
M  V30 15928 O 1531.47 4.73011 3.18774 0
M  V30 15929 O 1530.41 5.80887 1.5765 0
M  V30 15930 H 1534.23 3.02935 -0.215411 0
M  V30 15931 H 1531.82 1.48413 -0.171414 0
M  V30 15932 H 1533.7 3.61436 2.16661 0
M  V30 15933 H 1532.38 2.41857 2.15144 0
M  V30 15934 H 1531.28 3.7331 0.243037 0
M  V30 15935 H 1532.62 4.91028 0.339405 0
M  V30 15936 N 1534.27 0.138579 1.5699 0
M  V30 15937 C 1535.54 -0.559239 1.87435 0
M  V30 15938 C 1535.92 -1.83527 1.04312 0
M  V30 15939 O 1535.27 -2.28144 0.127531 0
M  V30 15940 C 1535.48 -0.83282 3.38918 0
M  V30 15941 C 1536.83 -1.1773 4.07952 0
M  V30 15942 O 1537.85 -0.92245 3.44048 0
M  V30 15943 O 1536.71 -1.6565 5.2079 0
M  V30 15944 H 1533.81 -0.284318 0.77659 0
M  V30 15945 H 1536.35 0.174558 1.688 0
M  V30 15946 H 1535.13 0.0706054 3.91236 0
M  V30 15947 H 1534.75 -1.62109 3.63051 0
M  V30 15948 N 1535.75 -1.57019 -0.13521 0
M  V30 15949 C 1536.99 -1.83178 -0.844308 0
M  V30 15950 C 1537.31 -0.7217 -1.81799 0
M  V30 15951 O 1538.51 -0.869232 -2.57209 0
M  V30 15952 C 1536.97 -3.2471 -1.55214 0
M  V30 15953 C 1536.58 -4.43685 -0.620268 0
M  V30 15954 C 1538.32 -3.60133 -2.24732 0
M  V30 15955 C 1536.23 -5.76242 -1.3304 0
M  V30 15956 H 1535.16 -0.683175 -0.319041 0
M  V30 15957 H 1537.81 -1.83243 -0.0970242 0
M  V30 15958 H 1536.19 -3.19067 -2.34547 0
M  V30 15959 H 1537.37 -4.60591 0.138685 0
M  V30 15960 H 1535.68 -4.16387 -0.0328906 0
M  V30 15961 H 1538.28 -4.56431 -2.78522 0
M  V30 15962 H 1538.62 -2.86767 -3.01779 0
M  V30 15963 H 1539.15 -3.67489 -1.52305 0
M  V30 15964 H 1535.89 -6.52734 -0.60155 0
M  V30 15965 H 1535.41 -5.63251 -2.06176 0
M  V30 15966 H 1537.09 -6.19445 -1.86808 0
M  V30 15967 N 1537.22 0.404919 -1.52309 0
M  V30 15968 C 1538.13 1.51822 -1.7885 0
M  V30 15969 C 1539.15 1.60403 -0.674307 0
M  V30 15970 O 1540.33 1.77038 -0.960175 0
M  V30 15971 C 1537.39 2.87516 -1.9374 0
M  V30 15972 C 1536.45 2.88787 -3.17648 0
M  V30 15973 C 1535.69 4.18009 -3.31819 0
M  V30 15974 O 1535.91 5.12129 -2.51158 0
M  V30 15975 O 1534.84 4.26222 -4.24992 0
M  V30 15976 H 1538.67 1.32329 -2.73354 0
M  V30 15977 H 1536.25 0.591193 -1.37205 0
M  V30 15978 H 1538.14 3.6799 -2.05333 0
M  V30 15979 H 1536.81 3.07068 -1.02425 0
M  V30 15980 H 1535.72 2.07152 -3.11511 0
M  V30 15981 H 1537.05 2.74185 -4.08758 0
M  V30 15982 N 1538.7 1.43003 0.662408 0
M  V30 15983 C 1539.65 1.43898 1.76854 0
M  V30 15984 C 1540.64 0.308629 1.57912 0
M  V30 15985 O 1541.83 0.551757 1.6818 0
M  V30 15986 C 1538.96 1.35585 3.15391 0
M  V30 15987 C 1538.04 2.53614 3.39913 0
M  V30 15988 N 1538.43 3.78998 3.34954 0
M  V30 15989 C 1536.73 2.48141 3.70597 0
M  V30 15990 C 1537.43 4.57467 3.59303 0
M  V30 15991 N 1536.41 3.8806 3.80671 0
M  V30 15992 H 1540.21 2.38722 1.71432 0
M  V30 15993 H 1537.73 1.37526 0.863728 0
M  V30 15994 H 1539.72 1.34308 3.94673 0
M  V30 15995 H 1538.38 0.417735 3.22002 0
M  V30 15996 H 1539.39 4.11417 3.14574 0
M  V30 15997 H 1536.07 1.62971 3.84379 0
M  V30 15998 H 1537.46 5.66475 3.61326 0
M  V30 15999 N 1540.18 -0.899904 1.29381 0
M  V30 16000 C 1541.41 -1.68911 1.20349 0
M  V30 16001 C 1541.83 -1.86657 -0.232523 0
M  V30 16002 O 1541.19 -1.38674 -1.16787 0
M  V30 16003 C 1541.24 -3.05124 1.92177 0
M  V30 16004 O 1540.34 -3.93358 1.23867 0
M  V30 16005 H 1539.68 -0.516698 0.417036 0
M  V30 16006 H 1542.21 -1.12422 1.70946 0
M  V30 16007 H 1542.22 -3.55267 2.00623 0
M  V30 16008 H 1540.9 -2.91525 2.96624 0
M  V30 16009 H 1539.47 -3.51793 1.23677 0
M  V30 16010 N 1541.66 -1.11854 -1.11024 0
M  V30 16011 C 1542.61 -0.749858 -2.15316 0
M  V30 16012 C 1543.59 0.248202 -1.58974 0
M  V30 16013 O 1544.78 0.054644 -1.76916 0
M  V30 16014 C 1541.91 -0.199423 -3.4272 0
M  V30 16015 C 1541 -1.22541 -4.06011 0
M  V30 16016 N 1541.39 -2.42104 -4.44094 0
M  V30 16017 C 1539.69 -1.06935 -4.32991 0
M  V30 16018 C 1540.39 -3.07572 -4.93735 0
M  V30 16019 N 1539.37 -2.35038 -4.90161 0
M  V30 16020 H 1543.17 -1.65978 -2.42546 0
M  V30 16021 H 1540.68 -0.998423 -1.28083 0
M  V30 16022 H 1542.68 0.0828628 -4.16818 0
M  V30 16023 H 1541.34 0.705033 -3.16953 0
M  V30 16024 H 1542.35 -2.79529 -4.35986 0
M  V30 16025 H 1539.03 -0.221683 -4.16911 0
M  V30 16026 H 1540.42 -4.0936 -5.32799 0
M  V30 16027 N 1543.14 1.28707 -0.909517 0
M  V30 16028 C 1544.36 1.99283 -0.556211 0
M  V30 16029 C 1544.78 1.68 0.861475 0
M  V30 16030 O 1544.14 0.930421 1.57001 0
M  V30 16031 C 1544.19 3.5362 -0.75068 0
M  V30 16032 O 1543.91 3.83799 -2.11258 0
M  V30 16033 C 1545.41 4.41459 -0.403637 0
M  V30 16034 H 1542.63 0.636476 -0.212462 0
M  V30 16035 H 1545.17 1.64007 -1.22156 0
M  V30 16036 H 1543.33 3.87174 -0.132384 0
M  V30 16037 H 1543.74 4.78448 -2.14913 0
M  V30 16038 H 1545.22 5.48833 -0.590496 0
M  V30 16039 H 1545.69 4.34214 0.659897 0
M  V30 16040 H 1546.3 4.13394 -0.999292 0
M  V30 16041 N 1544.61 0.673042 1.42506 0
M  V30 16042 C 1545.86 0.194864 2.01862 0
M  V30 16043 C 1546.19 -1.19491 1.53087 0
M  V30 16044 O 1545.47 -1.80187 0.732322 0
M  V30 16045 C 1545.75 0.227559 3.5938 0
M  V30 16046 C 1545.6 1.65266 4.18338 0
M  V30 16047 C 1546.92 -0.425197 4.38041 0
M  V30 16048 H 1544.04 0.0722831 0.733447 0
M  V30 16049 H 1546.68 0.857493 1.6955 0
M  V30 16050 H 1544.83 -0.336658 3.87039 0
M  V30 16051 H 1546.51 2.26899 4.0164 0
M  V30 16052 H 1544.75 2.19388 3.74234 0
M  V30 16053 H 1545.42 1.62724 5.2747 0
M  V30 16054 H 1547.9 0.0550709 4.16064 0
M  V30 16055 H 1546.77 -0.371675 5.4764 0
M  V30 16056 H 1547.03 -1.50251 4.15785 0
M  V30 16057 N 1546.09 -1.52004 0.416254 0
M  V30 16058 C 1547.37 -1.94403 -0.216103 0
M  V30 16059 C 1547.75 -1.35362 -1.61989 0
M  V30 16060 O 1547.1 -0.532242 -2.22215 0
M  V30 16061 C 1547.31 -3.48336 -0.215225 0
M  V30 16062 C 1548.66 -4.22406 -0.431109 0
M  V30 16063 O 1549.68 -3.54982 -0.294271 0
M  V30 16064 O 1548.54 -5.4198 -0.70145 0
M  V30 16065 H 1545.63 -0.814838 -0.141306 0
M  V30 16066 H 1548.18 -1.62983 0.472712 0
M  V30 16067 H 1546.95 -3.83709 0.767004 0
M  V30 16068 H 1546.57 -3.86137 -0.947841 0
M  V30 16069 N 1547.57 -0.146903 -1.56914 0
M  V30 16070 C 1548.52 0.804576 -2.13332 0
M  V30 16071 C 1549.5 1.2095 -1.06112 0
M  V30 16072 O 1550.7 1.17594 -1.3229 0
M  V30 16073 C 1547.83 2.0437 -2.7584 0
M  V30 16074 C 1546.91 1.66188 -3.90183 0
M  V30 16075 N 1547.3 0.988267 -4.96051 0
M  V30 16076 C 1545.6 1.9546 -4.00888 0
M  V30 16077 C 1546.3 0.803957 -5.76118 0
M  V30 16078 N 1545.28 1.33779 -5.26882 0
M  V30 16079 H 1549.08 0.280693 -2.92557 0
M  V30 16080 H 1546.59 0.0546404 -1.62308 0
M  V30 16081 H 1548.59 2.73532 -3.1462 0
M  V30 16082 H 1547.25 2.57276 -1.98089 0
M  V30 16083 H 1548.26 0.64904 -5.13817 0
M  V30 16084 H 1544.94 2.50216 -3.34213 0
M  V30 16085 H 1546.33 0.273065 -6.71345 0
M  V30 16086 N 1549.05 1.57088 0.126881 0
M  V30 16087 C 1550 1.96188 1.16164 0
M  V30 16088 C 1550.98 0.835786 1.3749 0
M  V30 16089 O 1552.17 1.09942 1.38714 0
M  V30 16090 C 1549.3 2.36308 2.49025 0
M  V30 16091 C 1548.39 3.55533 2.31208 0
M  V30 16092 N 1548.78 4.71462 1.83186 0
M  V30 16093 C 1547.08 3.61011 2.61891 0
M  V30 16094 C 1547.78 5.5351 1.7889 0
M  V30 16095 N 1546.76 4.95778 2.22946 0
M  V30 16096 H 1550.56 2.83284 0.782778 0
M  V30 16097 H 1548.07 1.58913 0.334719 0
M  V30 16098 H 1550.07 2.62533 3.23855 0
M  V30 16099 H 1548.73 1.50573 2.87677 0
M  V30 16100 H 1549.74 4.94831 1.5285 0
M  V30 16101 H 1546.42 2.85865 3.04282 0
M  V30 16102 H 1547.81 6.56488 1.43083 0
M  V30 16103 O 1550.57 -0.271318 1.59205 0
M  V30 16104 H 1551.26 -0.916383 1.70652 0
M  V30 END ATOM
M  V30 BEGIN BOND
M  V30 END BOND
M  V30 END CTAB
M  END
$$$$
