drugbank_target|P21397 Amine oxidase [flavin-containing] A (DB00191; DB00752; DB00780; DB00805; DB00909; DB01037; DB01171; DB01247; DB01363; DB01442; DB01472; DB01577; DB01626; DB03147; DB04017; DB04820; DB04821; DB04832; DB04850; DB05205; DB07641; DB07919; DB09244; DB09245; DB13876; DB14914)
 OpenBabel12092120073D

  0  0  0     0  0            999 V3000
M  V30 BEGIN CTAB
M  V30 COUNTS 8406 8509 0 0 0
M  V30 BEGIN ATOM
M  V30 1 H -0.908 1.98254 -0.117106 0
M  V30 2 N 0 1.576 0 0
M  V30 3 C 0.933 2.03868 1.02534 0
M  V30 4 C 1.911 0.928543 1.3348 0
M  V30 5 O 3.095 1.19667 1.45644 0
M  V30 6 C 0.222 2.43627 2.35294 0
M  V30 7 C -0.732 3.65373 2.2001 0
M  V30 8 S 0.101 5.13292 1.52614 0
M  V30 9 C 1.257 5.56322 2.86805 0
M  V30 10 H 1.49 2.90518 0.631377 0
M  V30 11 H -0.977 1.52953 0.210867 0
M  V30 12 H 0.981 2.67203 3.11629 0
M  V30 13 H -0.358 1.57376 2.7183 0
M  V30 14 H -1.165 3.90944 3.18086 0
M  V30 15 H -1.563 3.418 1.51819 0
M  V30 16 H 0.729 5.58782 3.83104 0
M  V30 17 H 1.672 6.56266 2.65933 0
M  V30 18 H 2.08 4.83886 2.90714 0
M  V30 19 N 1.4781 -0.272755 1.55222 0
M  V30 20 C 2.3881 -1.35918 1.91216 0
M  V30 21 C 3.4041 -1.54026 0.809436 0
M  V30 22 O 4.5801 -1.68148 1.10852 0
M  V30 23 C 1.6451 -2.69834 2.17693 0
M  V30 24 C 0.7061 -2.6047 3.41253 0
M  V30 25 C -0.0609 -3.88 3.66458 0
M  V30 26 O 0.1621 -4.88693 2.94169 0
M  V30 27 O -0.9039 -3.88189 4.59992 0
M  V30 28 H 2.9221 -1.0839 2.83699 0
M  V30 29 H 0.5071 -0.471301 1.41771 0
M  V30 30 H 2.3891 -3.49017 2.36147 0
M  V30 31 H 1.0641 -2.97148 1.28392 0
M  V30 32 H -0.0289 -1.79663 3.28134 0
M  V30 33 H 1.3041 -2.38106 4.30774 0
M  V30 34 N 2.9562 -1.48159 -0.537278 0
M  V30 35 C 3.9042 -1.62573 -1.66352 0
M  V30 36 C 4.8982 -0.492366 -1.62087 0
M  V30 37 O 6.1042 -0.670847 -1.67032 0
M  V30 38 H 2.4792 -0.511992 -0.550789 0
M  V30 39 H 4.4502 -2.57176 -1.51337 0
M  V30 40 C 3.1992 -1.67583 -3.04649 0
M  V30 41 H 2.5222 -2.54151 -3.08622 0
M  V30 42 H 3.9622 -1.81713 -3.83088 0
M  V30 43 C 2.4212 -0.413039 -3.34358 0
M  V30 44 O 2.9512 0.477259 -3.98855 0
M  V30 45 N 1.1572 -0.286961 -2.8918 0
M  V30 46 H 0.7042 -1.01241 -2.36871 0
M  V30 47 H 0.6622 0.556963 -3.09427 0
M  V30 48 N 4.4343 0.785586 -1.36625 0
M  V30 49 C 5.3663 1.90711 -1.2713 0
M  V30 50 C 6.3793 1.61688 -0.189986 0
M  V30 51 O 7.5683 1.72864 -0.445014 0
M  V30 52 C 4.6683 3.25611 -0.939713 0
M  V30 53 C 3.8413 3.82385 -2.12369 0
M  V30 54 C 2.9003 4.95732 -1.76456 0
M  V30 55 O 1.9263 5.12047 -2.48589 0
M  V30 56 N 3.1283 5.76258 -0.700492 0
M  V30 57 H 5.8933 1.99376 -2.23762 0
M  V30 58 H 3.4543 0.964041 -1.30069 0
M  V30 59 H 5.4463 3.98937 -0.680554 0
M  V30 60 H 4.0163 3.12538 -0.0624074 0
M  V30 61 H 3.2363 3.01001 -2.54543 0
M  V30 62 H 4.5243 4.17047 -2.9146 0
M  V30 63 H 3.9223 5.65609 -0.101624 0
M  V30 64 H 2.4793 6.4987 -0.501165 0
M  V30 65 N 5.9124 1.20967 1.01018 0
M  V30 66 C 6.8224 0.980157 2.13143 0
M  V30 67 C 7.8384 -0.0660665 1.73875 0
M  V30 68 O 9.0144 0.122821 2.01025 0
M  V30 69 C 6.0794 0.54216 3.42435 0
M  V30 70 C 5.1404 1.65999 3.95908 0
M  V30 71 C 4.3734 1.2428 5.19028 0
M  V30 72 O 4.5964 0.114196 5.70286 0
M  V30 73 O 3.5304 2.05271 5.65816 0
M  V30 74 H 7.3564 1.91913 2.35379 0
M  V30 75 H 4.9414 0.994099 1.11526 0
M  V30 76 H 6.8234 0.30744 4.20277 0
M  V30 77 H 5.4984 -0.36815 3.216 0
M  V30 78 H 4.4054 1.94906 3.19316 0
M  V30 79 H 5.7384 2.54753 4.21143 0
M  V30 80 N 7.3905 -1.2043 1.01659 0
M  V30 81 C 8.3375 -2.23215 0.586822 0
M  V30 82 C 9.3075 -1.61382 -0.393085 0
M  V30 83 O 10.4925 -1.88544 -0.292525 0
M  V30 84 C 7.6325 -3.45032 -0.0687464 0
M  V30 85 C 6.7455 -4.21296 0.955724 0
M  V30 86 C 5.8805 -5.30507 0.271208 0
M  V30 87 C 4.9195 -5.98515 1.28244 0
M  V30 88 N 4.0565 -6.99316 0.62459 0
M  V30 89 H 8.8965 -2.59336 1.46796 0
M  V30 90 H 6.4335 -1.27431 0.734836 0
M  V30 91 H 8.3915 -4.1459 -0.465965 0
M  V30 92 H 7.0215 -3.09604 -0.913529 0
M  V30 93 H 6.0735 -3.50803 1.4711 0
M  V30 94 H 7.3855 -4.6803 1.72479 0
M  V30 95 H 6.5395 -6.06428 -0.18151 0
M  V30 96 H 5.2785 -4.8481 -0.530163 0
M  V30 97 H 4.2835 -5.21355 1.74554 0
M  V30 98 H 5.5085 -6.46298 2.08509 0
M  V30 99 H 3.4545 -6.55812 -0.156914 0
M  V30 100 H 3.3715 -7.44178 1.33172 0
M  V30 101 H 4.6395 -7.79255 0.195462 0
M  V30 102 N 8.8686 -0.792821 -1.36206 0
M  V30 103 C 9.8316 -0.199459 -2.2833 0
M  V30 104 C 10.8316 0.605189 -1.48977 0
M  V30 105 O 12.0216 0.425685 -1.68919 0
M  V30 106 C 9.1536 0.723523 -3.33134 0
M  V30 107 H 10.3466 -1.01181 -2.82316 0
M  V30 108 H 7.8996 -0.562485 -1.45828 0
M  V30 109 H 8.6346 1.56008 -2.84309 0
M  V30 110 H 8.4196 0.148436 -3.91819 0
M  V30 111 H 9.9096 1.13344 -4.01924 0
M  V30 112 N 10.3467 1.47872 -0.545128 0
M  V30 113 C 11.5717 2.07391 -0.0190611 0
M  V30 114 C 11.9967 1.39688 1.25971 0
M  V30 115 O 11.3547 0.467816 1.7516 0
M  V30 116 C 11.4027 3.60188 0.172335 0
M  V30 117 O 10.5067 3.9339 1.23766 0
M  V30 118 H 9.8477 0.662411 -0.0459059 0
M  V30 119 H 12.3777 1.90066 -0.757365 0
M  V30 120 H 12.3877 4.06129 0.390305 0
M  V30 121 H 11.0627 4.08865 -0.761725 0
M  V30 122 H 9.6397 3.5921 1.00114 0
M  V30 123 N 11.8248 0.280983 1.55075 0
M  V30 124 C 13.0738 -0.334784 1.98902 0
M  V30 125 C 13.3868 -1.56534 1.17288 0
M  V30 126 O 14.5928 -2.25443 1.51287 0
M  V30 127 C 13.0488 -0.646994 3.54037 0
M  V30 128 C 12.6568 0.564085 4.44435 0
M  V30 129 C 14.4008 -1.22506 4.06439 0
M  V30 130 C 12.3078 0.226137 5.90967 0
M  V30 131 H 11.2378 -0.128866 0.742906 0
M  V30 132 H 13.8888 0.386556 1.79382 0
M  V30 133 H 12.2708 -1.42739 3.6938 0
M  V30 134 H 13.4448 1.34082 4.40861 0
M  V30 135 H 11.7598 1.0594 4.02698 0
M  V30 136 H 14.3568 -1.49182 5.13468 0
M  V30 137 H 14.6998 -2.16085 3.55827 0
M  V30 138 H 15.2328 -0.50682 3.94558 0
M  V30 139 H 11.9718 1.12996 6.45687 0
M  V30 140 H 11.4918 -0.513717 5.97596 0
M  V30 141 H 13.1708 -0.179539 6.46751 0
M  V30 142 N 13.3029 -1.57598 0.00835791 0
M  V30 143 C 14.2659 -2.07884 -0.965242 0
M  V30 144 C 15.2659 -0.989825 -1.26725 0
M  V30 145 O 16.4559 -1.25218 -1.21104 0
M  V30 146 C 13.5879 -2.52731 -2.28779 0
M  V30 147 H 14.7809 -2.95178 -0.530112 0
M  V30 148 H 12.3339 -1.54458 -0.239283 0
M  V30 149 H 13.0689 -1.68705 -2.76964 0
M  V30 150 H 12.8539 -3.32272 -2.08177 0
M  V30 151 H 14.3439 -2.91933 -2.98605 0
M  V30 152 N 14.781 0.264519 -1.55364 0
M  V30 153 C 16.029 0.993021 -1.76021 0
M  V30 154 C 16.35 1.86511 -0.569099 0
M  V30 155 O 15.62 1.91438 0.415735 0
M  V30 156 H 14.2 0.369639 -0.649135 0
M  V30 157 H 16.862 0.286707 -1.9278 0
M  V30 158 H 15.958 1.62502 -2.66457 0
M  V30 159 N 16.2591 1.48442 0.529413 0
M  V30 160 C 17.2091 1.59407 1.63014 0
M  V30 161 C 18.1931 0.451166 1.54445 0
M  V30 162 O 19.3851 0.702635 1.62456 0
M  V30 163 C 16.5141 1.63746 3.01732 0
M  V30 164 C 15.6001 2.83518 3.15402 0
M  V30 165 N 15.9911 4.07929 2.99045 0
M  V30 166 C 14.2891 2.80862 3.46457 0
M  V30 167 C 14.9901 4.8829 3.16146 0
M  V30 168 N 13.9661 4.21117 3.43746 0
M  V30 169 H 17.7681 2.53343 1.48978 0
M  V30 170 H 15.2821 1.44821 0.734885 0
M  V30 171 H 17.2791 1.69695 3.80801 0
M  V30 172 H 15.9391 0.709264 3.16859 0
M  V30 173 H 16.9501 4.38357 2.75796 0
M  V30 174 H 13.6271 1.97301 3.67938 0
M  V30 175 H 15.0171 5.97028 3.08232 0
M  V30 176 N 17.7372 -0.778329 1.37039 0
M  V30 177 C 18.6702 -1.8984 1.26633 0
M  V30 178 C 19.6482 -1.61923 0.148197 0
M  V30 179 O 20.8322 -1.85742 0.321265 0
M  V30 180 C 17.9592 -3.24916 0.956403 0
M  V30 181 C 17.0052 -3.71752 2.09051 0
M  V30 182 S 17.8382 -3.86201 3.70957 0
M  V30 183 C 18.9942 -5.24135 3.42101 0
M  V30 184 H 19.2272 -1.98377 2.21436 0
M  V30 185 H 16.7602 -0.938738 1.22585 0
M  V30 186 H 18.7182 -4.02936 0.784409 0
M  V30 187 H 17.3792 -3.14089 0.0259713 0
M  V30 188 H 16.5722 -4.69661 1.8285 0
M  V30 189 H 16.1742 -3.00815 2.2223 0
M  V30 190 H 18.4662 -6.09086 2.96682 0
M  V30 191 H 19.4092 -5.55346 4.39314 0
M  V30 192 H 19.8172 -4.91761 2.77185 0
M  V30 193 N 19.2153 -1.21501 -1.00376 0
M  V30 194 C 20.4623 -1.03299 -1.74171 0
M  V30 195 C 20.7903 0.433326 -1.89612 0
M  V30 196 O 20.0453 1.33779 -1.42834 0
M  V30 197 C 20.3443 -1.67673 -3.15627 0
M  V30 198 C 20.0103 -3.17533 -3.2013 0
M  V30 199 C 18.6723 -3.58427 -3.21067 0
M  V30 200 C 21.0243 -4.13504 -3.17275 0
M  V30 201 C 18.3523 -4.93794 -3.16835 0
M  V30 202 C 20.7043 -5.48834 -3.14585 0
M  V30 203 C 19.3683 -5.89123 -3.13831 0
M  V30 204 H 18.6383 -0.377999 -0.637336 0
M  V30 205 H 21.2853 -1.51111 -1.17634 0
M  V30 206 H 19.5903 -1.12158 -3.75404 0
M  V30 207 H 21.2873 -1.51091 -3.71446 0
M  V30 208 H 17.8773 -2.84965 -3.20145 0
M  V30 209 H 22.0613 -3.82936 -3.15711 0
M  V30 210 H 17.3173 -5.24255 -3.1459 0
M  V30 211 H 21.4913 -6.22934 -3.1133 0
M  V30 212 H 19.1183 -6.93984 -3.10307 0
M  V30 213 N 20.6934 1.19889 -1.02296 0
M  V30 214 C 21.9704 1.85148 -0.630832 0
M  V30 215 C 22.3504 1.91385 0.890782 0
M  V30 216 O 21.6984 1.42642 1.78509 0
M  V30 217 C 21.9084 3.24442 -1.28602 0
M  V30 218 C 23.2564 4.00663 -1.4055 0
M  V30 219 O 24.2804 3.33818 -1.24273 0
M  V30 220 O 23.1394 5.20387 -1.66913 0
M  V30 221 H 20.2334 0.797613 -0.218499 0
M  V30 222 H 22.7794 1.27427 -1.12074 0
M  V30 223 H 21.5514 3.14704 -2.32545 0
M  V30 224 H 21.1744 3.89802 -0.7836 0
M  V30 225 N 22.1715 0.800033 1.35784 0
M  V30 226 C 23.4175 0.377901 1.99248 0
M  V30 227 C 23.7505 -1.05052 1.63333 0
M  V30 228 O 23.0255 -1.72768 0.893385 0
M  V30 229 C 23.3085 0.553922 3.55814 0
M  V30 230 C 23.1615 2.0268 4.01548 0
M  V30 231 C 24.4805 -0.0244802 4.40093 0
M  V30 232 H 21.5995 0.138782 0.723815 0
M  V30 233 H 24.2415 1.00835 1.61035 0
M  V30 234 H 22.3915 0.0172398 3.88496 0
M  V30 235 H 24.0635 2.62536 3.79305 0
M  V30 236 H 22.3065 2.5256 3.52698 0
M  V30 237 H 22.9775 2.10087 5.10458 0
M  V30 238 H 25.4535 0.433775 4.13833 0
M  V30 239 H 24.3295 0.128637 5.48749 0
M  V30 240 H 24.5905 -1.11758 4.27741 0
M  V30 241 N 23.6496 -1.47581 0.552962 0
M  V30 242 C 24.8956 -2.02782 0.0273648 0
M  V30 243 C 25.2286 -1.42687 -1.31734 0
M  V30 244 O 24.5036 -0.580897 -1.85623 0
M  V30 245 C 24.7866 -3.60031 -0.0702371 0
M  V30 246 C 24.6396 -4.30566 1.30126 0
M  V30 247 C 25.9586 -4.33028 -0.785771 0
M  V30 248 H 23.0776 -0.736912 0.0114185 0
M  V30 249 H 25.7196 -1.76056 0.714432 0
M  V30 250 H 23.8696 -3.82932 -0.655382 0
M  V30 251 H 25.5416 -4.19018 1.92929 0
M  V30 252 H 23.7846 -3.91086 1.87709 0
M  V30 253 H 24.4556 -5.39114 1.18573 0
M  V30 254 H 26.9316 -4.15095 -0.288982 0
M  V30 255 H 25.8076 -5.42695 -0.823013 0
M  V30 256 H 26.0686 -4.01945 -1.841 0
M  V30 257 N 25.1277 -0.289203 -1.54924 0
M  V30 258 C 26.3737 0.323998 -2.00195 0
M  V30 259 C 26.7067 1.54441 -1.17735 0
M  V30 260 O 25.9817 1.92875 -0.250878 0
M  V30 261 C 26.2647 0.692276 -3.53383 0
M  V30 262 C 26.1177 -0.536457 -4.46589 0
M  V30 263 C 27.4367 1.52335 -4.12895 0
M  V30 264 H 24.5557 0.116289 -0.727768 0
M  V30 265 H 27.1977 -0.398954 -1.85764 0
M  V30 266 H 25.3477 1.30822 -3.65811 0
M  V30 267 H 27.0197 -1.17499 -4.46085 0
M  V30 268 H 25.2627 -1.17192 -4.1767 0
M  V30 269 H 25.9337 -0.234806 -5.515 0
M  V30 270 H 28.4097 1.00302 -4.0383 0
M  V30 271 H 27.2857 1.74982 -5.20262 0
M  V30 272 H 27.5467 2.50886 -3.64018 0
M  V30 273 N 26.6058 1.57591 -0.0167156 0
M  V30 274 C 27.8548 1.90461 0.663877 0
M  V30 275 C 28.1678 0.893515 1.73999 0
M  V30 276 O 29.3738 1.11302 2.47637 0
M  V30 277 C 27.8298 3.38155 1.23204 0
M  V30 278 C 27.4378 4.47597 0.189866 0
M  V30 279 C 29.1818 3.80111 1.88986 0
M  V30 280 C 27.0888 5.86379 0.768964 0
M  V30 281 H 26.0188 0.710738 0.251729 0
M  V30 282 H 28.6698 1.83326 -0.0799926 0
M  V30 283 H 27.0518 3.40182 2.02712 0
M  V30 284 H 28.2258 4.57112 -0.581846 0
M  V30 285 H 26.5408 4.14766 -0.368475 0
M  V30 286 H 29.1378 4.81145 2.33247 0
M  V30 287 H 29.4808 3.14511 2.72743 0
M  V30 288 H 30.0138 3.80454 1.16187 0
M  V30 289 H 26.7528 6.55493 -0.0301957 0
M  V30 290 H 26.2728 5.80496 1.50945 0
M  V30 291 H 27.9518 6.34563 1.26251 0
M  V30 292 N 28.0839 -0.256276 1.55502 0
M  V30 293 C 29.3319 -0.983672 1.76545 0
M  V30 294 C 29.6529 -1.86206 0.578982 0
M  V30 295 O 28.9229 -1.91656 -0.405577 0
M  V30 296 H 27.5029 -0.366191 0.651086 0
M  V30 297 H 30.1649 -0.276479 1.92929 0
M  V30 298 H 29.2609 -1.61087 2.67315 0
M  V30 299 N 29.562 -1.4872 -0.521534 0
M  V30 300 C 30.81 -1.56857 -1.27437 0
M  V30 301 C 31.131 -0.247982 -1.93417 0
M  V30 302 O 30.401 0.731151 -1.81744 0
M  V30 303 H 28.981 -0.577885 -0.473347 0
M  V30 304 H 31.643 -1.85233 -0.606205 0
M  V30 305 H 30.739 -2.35402 -2.0492 0
M  V30 306 N 31.0401 0.771051 -1.3745 0
M  V30 307 C 32.2881 1.52661 -1.32435 0
M  V30 308 C 32.6091 1.9479 0.0905024 0
M  V30 309 O 31.8791 1.66348 1.03466 0
M  V30 310 H 30.4591 0.566218 -0.487244 0
M  V30 311 H 33.1211 0.917636 -1.71946 0
M  V30 312 H 32.2171 2.42568 -1.96385 0
M  V30 313 N 32.5182 1.22032 0.997298 0
M  V30 314 C 33.7672 1.03637 1.73038 0
M  V30 315 C 34.0802 -0.429475 1.90827 0
M  V30 316 O 35.2862 -0.732995 2.61418 0
M  V30 317 C 33.7422 1.80582 3.11317 0
M  V30 318 C 33.3502 3.31387 3.01474 0
M  V30 319 C 35.0942 1.70621 3.88701 0
M  V30 320 C 33.0012 4.00791 4.3488 0
M  V30 321 H 31.9312 0.384179 0.648785 0
M  V30 322 H 34.5822 1.4584 1.11368 0
M  V30 323 H 32.9642 1.31175 3.73643 0
M  V30 324 H 34.1382 3.88155 2.4834 0
M  V30 325 H 32.4532 3.41976 2.37575 0
M  V30 326 H 35.0502 2.19799 4.87434 0
M  V30 327 H 35.3932 0.665823 4.10941 0
M  V30 328 H 35.9262 2.17547 3.33044 0
M  V30 329 H 32.6652 5.05064 4.1784 0
M  V30 330 H 32.1852 3.48811 4.87945 0
M  V30 331 H 33.8642 4.06139 5.03647 0
M  V30 332 N 33.9963 -1.19345 1.0293 0
M  V30 333 C 35.2213 -1.93538 0.745511 0
M  V30 334 C 35.6463 -1.75007 -0.689511 0
M  V30 335 O 35.0043 -1.05265 -1.47611 0
M  V30 336 C 35.0523 -3.43336 1.10239 0
M  V30 337 O 34.1563 -4.11806 0.221289 0
M  V30 338 H 33.4973 -0.604193 0.275404 0
M  V30 339 H 36.0273 -1.5141 1.37609 0
M  V30 340 H 36.0373 -3.94004 1.05947 0
M  V30 341 H 34.7123 -3.56146 2.14786 0
M  V30 342 H 33.2893 -3.715 0.322842 0
M  V30 343 N 35.4744 -0.807222 -1.35358 0
M  V30 344 C 36.7224 -0.387122 -1.98358 0
M  V30 345 C 37.0434 1.04942 -1.64354 0
M  V30 346 O 36.3134 1.72615 -0.926339 0
M  V30 347 H 34.8934 -0.140154 -0.733734 0
M  V30 348 H 37.5554 -1.0332 -1.6526 0
M  V30 349 H 36.6514 -0.493352 -3.08176 0
M  V30 350 N 36.9525 1.47285 -0.560781 0
M  V30 351 C 37.8825 2.32857 0.173105 0
M  V30 352 C 38.8635 1.44009 0.905281 0
M  V30 353 O 40.0485 1.7286 0.885046 0
M  V30 354 C 37.1785 3.25861 1.20133 0
M  V30 355 C 36.1325 4.23978 0.585388 0
M  V30 356 C 35.4585 5.06332 1.7185 0
M  V30 357 C 36.7585 5.20242 -0.463178 0
M  V30 358 H 38.4525 2.94466 -0.541307 0
M  V30 359 H 35.9985 1.41601 -0.261764 0
M  V30 360 H 37.9515 3.84569 1.72293 0
M  V30 361 H 36.6755 2.62315 1.94573 0
M  V30 362 H 35.3345 3.66501 0.085054 0
M  V30 363 H 34.9825 4.39186 2.45203 0
M  V30 364 H 34.6825 5.72762 1.31213 0
M  V30 365 H 36.2065 5.67899 2.24329 0
M  V30 366 H 37.6205 5.73293 -0.027502 0
M  V30 367 H 36.0175 5.94896 -0.788627 0
M  V30 368 H 37.0875 4.65504 -1.35773 0
M  V30 369 N 38.4306 0.297415 1.54768 0
M  V30 370 C 39.6556 -0.318435 2.04941 0
M  V30 371 C 40.0806 -1.4701 1.17345 0
M  V30 372 O 39.4386 -1.80436 0.176758 0
M  V30 373 C 39.4866 -0.755749 3.52592 0
M  V30 374 O 38.5906 -1.86088 3.68028 0
M  V30 375 H 37.9316 -0.062421 0.661059 0
M  V30 376 H 40.4616 0.438215 1.99852 0
M  V30 377 H 40.4716 -1.04552 3.94376 0
M  V30 378 H 39.1466 0.0867233 4.1581 0
M  V30 379 H 37.7236 -1.57193 3.38149 0
M  V30 380 N 39.9087 -1.5758 0.0250728 0
M  V30 381 C 40.8717 -2.08896 -0.943139 0
M  V30 382 C 41.8717 -1.00321 -1.25668 0
M  V30 383 O 43.0617 -1.26495 -1.19769 0
M  V30 384 C 40.1937 -2.55143 -2.26086 0
M  V30 385 H 41.3867 -2.95723 -0.498775 0
M  V30 386 H 38.9397 -1.54703 -0.222888 0
M  V30 387 H 39.6747 -1.71633 -2.75159 0
M  V30 388 H 39.4597 -3.34461 -2.04641 0
M  V30 389 H 40.9497 -2.95083 -2.95492 0
M  V30 390 N 41.3868 0.248026 -1.55636 0
M  V30 391 C 42.3498 1.29044 -1.89421 0
M  V30 392 C 43.3498 1.41134 -0.770581 0
M  V30 393 O 44.5398 1.39854 -1.03858 0
M  V30 394 C 41.6718 2.66831 -2.12165 0
M  V30 395 H 42.8648 1.00305 -2.82629 0
M  V30 396 H 40.4178 0.487265 -1.48511 0
M  V30 397 H 41.1528 3.00711 -1.21422 0
M  V30 398 H 40.9378 2.59438 -2.93997 0
M  V30 399 H 42.4278 3.42103 -2.3949 0
M  V30 400 N 42.8649 1.48995 0.513639 0
M  V30 401 C 43.8119 1.6473 1.61656 0
M  V30 402 C 44.7819 0.488984 1.58739 0
M  V30 403 O 45.9669 0.714478 1.76918 0
M  V30 404 C 43.1069 1.7082 2.99858 0
M  V30 405 C 42.2199 2.9787 3.12885 0
M  V30 406 C 41.3549 2.95017 4.41744 0
M  V30 407 C 40.3939 4.16702 4.48359 0
M  V30 408 N 39.5309 4.11832 5.68629 0
M  V30 409 H 44.3709 2.58909 1.47547 0
M  V30 410 H 41.9079 1.28382 0.71808 0
M  V30 411 H 43.8659 1.72331 3.79944 0
M  V30 412 H 42.4959 0.801181 3.12699 0
M  V30 413 H 41.5479 3.06029 2.25944 0
M  V30 414 H 42.8599 3.8786 3.13633 0
M  V30 415 H 42.0139 2.95021 5.30139 0
M  V30 416 H 40.7529 2.02784 4.43542 0
M  V30 417 H 39.7579 4.16955 3.58369 0
M  V30 418 H 40.9829 5.10113 4.48287 0
M  V30 419 H 38.9289 3.22428 5.71293 0
M  V30 420 H 38.8459 4.95543 5.7094 0
M  V30 421 H 40.1139 4.1592 6.59266 0
M  V30 422 N 44.343 -0.763751 1.37857 0
M  V30 423 C 45.273 -1.89103 1.36975 0
M  V30 424 C 46.254 -1.68439 0.237152 0
M  V30 425 O 47.439 -1.8918 0.438713 0
M  V30 426 C 44.569 -3.26496 1.18395 0
M  V30 427 C 43.523 -3.61741 2.28751 0
M  V30 428 C 42.849 -4.97762 1.95286 0
M  V30 429 C 44.149 -3.67665 3.70972 0
M  V30 430 H 45.843 -1.90099 2.31307 0
M  V30 431 H 43.389 -0.91319 1.11341 0
M  V30 432 H 45.342 -4.05003 1.16406 0
M  V30 433 H 44.066 -3.25955 0.205215 0
M  V30 434 H 42.725 -2.85547 2.29909 0
M  V30 435 H 42.373 -4.93769 0.959221 0
M  V30 436 H 42.073 -5.22313 2.69189 0
M  V30 437 H 43.597 -5.7866 1.94898 0
M  V30 438 H 45.011 -4.36307 3.719 0
M  V30 439 H 43.408 -4.03718 4.43995 0
M  V30 440 H 44.478 -2.68134 4.0402 0
M  V30 441 N 45.8211 -1.22559 -0.990812 0
M  V30 442 C 46.7511 -1.0218 -2.09956 0
M  V30 443 C 47.7321 0.0579394 -1.70001 0
M  V30 444 O 48.9171 -0.104684 -1.93918 0
M  V30 445 C 46.0471 -0.601023 -3.4206 0
M  V30 446 C 45.0011 -1.62694 -3.95872 0
M  V30 447 C 44.3271 -1.06193 -5.24049 0
M  V30 448 C 45.6271 -3.01743 -4.2632 0
M  V30 449 H 47.3211 -1.94916 -2.27262 0
M  V30 450 H 44.8671 -0.938566 -1.09211 0
M  V30 451 H 46.8201 -0.445561 -4.19038 0
M  V30 452 H 45.5441 0.362005 -3.24588 0
M  V30 453 H 44.2031 -1.77021 -3.21028 0
M  V30 454 H 43.8511 -0.0901903 -5.02919 0
M  V30 455 H 43.5511 -1.74732 -5.61019 0
M  V30 456 H 45.0751 -0.918092 -6.03658 0
M  V30 457 H 46.4891 -2.90777 -4.94087 0
M  V30 458 H 44.8861 -3.67425 -4.74467 0
M  V30 459 H 45.9561 -3.51518 -3.34011 0
M  V30 460 N 47.2992 1.18797 -1.03562 0
M  V30 461 C 48.5272 1.92599 -0.755869 0
M  V30 462 C 48.9422 1.75886 0.686271 0
M  V30 463 O 48.2992 1.08517 1.46732 0
M  V30 464 C 48.3502 3.44159 -1.10619 0
M  V30 465 O 48.0712 3.60341 -2.4917 0
M  V30 466 C 49.5722 4.3507 -0.850214 0
M  V30 467 H 46.7922 0.611587 -0.276048 0
M  V30 468 H 49.3362 1.50742 -1.38192 0
M  V30 469 H 47.4912 3.83823 -0.525194 0
M  V30 470 H 47.9052 4.54128 -2.62427 0
M  V30 471 H 49.3792 5.39989 -1.14523 0
M  V30 472 H 49.8562 4.38673 0.215176 0
M  V30 473 H 50.4622 4.01097 -1.41426 0
M  V30 474 N 48.7773 0.814389 1.34928 0
M  V30 475 C 49.6873 0.231978 2.3345 0
M  V30 476 C 50.7033 -0.629139 1.62228 0
M  V30 477 O 51.8793 -0.539052 1.94052 0
M  V30 478 C 48.9443 -0.603482 3.41407 0
M  V30 479 C 48.0053 0.279037 4.28392 0
M  V30 480 C 47.2383 -0.516643 5.31193 0
M  V30 481 O 47.4613 -1.75068 5.4287 0
M  V30 482 O 46.3953 0.0965652 6.01823 0
M  V30 483 H 50.2213 1.04721 2.85074 0
M  V30 484 H 47.8063 0.576343 1.37836 0
M  V30 485 H 49.6883 -1.07908 4.0735 0
M  V30 486 H 48.3633 -1.39618 2.92042 0
M  V30 487 H 47.2703 0.801948 3.65403 0
M  V30 488 H 48.6033 1.03588 4.81176 0
M  V30 489 N 50.2554 -1.46986 0.568584 0
M  V30 490 C 51.4854 -2.0653 0.0539173 0
M  V30 491 C 51.8934 -1.42004 -1.25026 0
M  V30 492 O 51.2364 -0.514541 -1.76347 0
M  V30 493 C 51.2984 -3.58938 -0.200854 0
M  V30 494 C 50.9624 -4.45572 1.01559 0
M  V30 495 C 51.9594 -4.82986 1.92407 0
M  V30 496 C 49.6444 -4.8692 1.23346 0
M  V30 497 C 51.6384 -5.60559 3.03402 0
M  V30 498 C 49.3254 -5.64255 2.34649 0
M  V30 499 C 50.3234 -6.00986 3.24507 0
M  V30 500 O 50.0114 -6.76761 4.33878 0
M  V30 501 H 49.7434 -0.674292 0.0480234 0
M  V30 502 H 52.2974 -1.89812 0.784896 0
M  V30 503 H 50.5274 -3.73911 -0.986279 0
M  V30 504 H 52.2164 -4.0046 -0.662294 0
M  V30 505 H 52.9824 -4.51633 1.76785 0
M  V30 506 H 48.8614 -4.57789 0.543178 0
M  V30 507 H 52.4054 -5.89147 3.73565 0
M  V30 508 H 48.3024 -5.95021 2.5024 0
M  V30 509 H 49.0704 -6.95168 4.32068 0
M  V30 510 N 51.7335 -0.305618 -1.54608 0
M  V30 511 C 52.9815 0.301701 -1.99835 0
M  V30 512 C 53.3025 1.54054 -1.19551 0
M  V30 513 O 52.5725 1.93702 -0.292658 0
M  V30 514 H 51.1525 0.114468 -0.738178 0
M  V30 515 H 53.8145 -0.418016 -1.90364 0
M  V30 516 H 52.9105 0.570548 -3.06841 0
M  V30 517 N 53.2116 1.57565 -0.0334293 0
M  V30 518 C 54.4576 1.92262 0.645226 0
M  V30 519 C 54.7906 0.910543 1.71531 0
M  V30 520 O 54.0656 -0.066099 1.94388 0
M  V30 521 C 54.3486 3.37422 1.2577 0
M  V30 522 C 54.2016 4.49369 0.196891 0
M  V30 523 C 55.5206 3.82628 2.17449 0
M  V30 524 H 52.6396 0.699171 0.233085 0
M  V30 525 H 55.2816 1.89779 -0.0915694 0
M  V30 526 H 53.4316 3.39669 1.88566 0
M  V30 527 H 55.1036 4.59254 -0.433962 0
M  V30 528 H 53.3466 4.31168 -0.477137 0
M  V30 529 H 54.0176 5.47978 0.665124 0
M  V30 530 H 56.4936 3.82145 1.64634 0
M  V30 531 H 55.3696 4.84883 2.57254 0
M  V30 532 H 55.6306 3.18376 3.0674 0
M  V30 533 N 54.6897 -0.239769 1.55765 0
M  V30 534 C 55.9147 -0.988373 1.82335 0
M  V30 535 C 56.3397 -1.77886 0.611421 0
M  V30 536 O 55.6977 -1.75889 -0.439639 0
M  V30 537 C 55.7457 -1.89627 3.06715 0
M  V30 538 O 54.8497 -2.98904 2.84131 0
M  V30 539 H 54.1907 -0.280858 0.601677 0
M  V30 540 H 56.7207 -0.258597 2.02959 0
M  V30 541 H 56.7307 -2.30957 3.36338 0
M  V30 542 H 55.4057 -1.31511 3.9456 0
M  V30 543 H 53.9827 -2.61651 2.65694 0
M  V30 544 N 56.1678 -1.49265 -0.50573 0
M  V30 545 C 57.4138 -1.58748 -1.26202 0
M  V30 546 C 57.7468 -0.271227 -1.92297 0
M  V30 547 O 57.0218 0.724831 -1.80489 0
M  V30 548 C 57.3048 -2.74332 -2.33268 0
M  V30 549 C 57.1578 -4.15737 -1.71705 0
M  V30 550 C 58.4768 -2.85576 -3.34865 0
M  V30 551 H 55.5958 -0.577826 -0.457478 0
M  V30 552 H 58.2378 -1.81532 -0.560897 0
M  V30 553 H 56.3878 -2.55036 -2.93068 0
M  V30 554 H 58.0598 -4.46537 -1.15769 0
M  V30 555 H 56.3028 -4.21605 -1.02135 0
M  V30 556 H 56.9738 -4.92477 -2.49341 0
M  V30 557 H 59.4498 -3.03127 -2.8505 0
M  V30 558 H 58.3258 -3.68135 -4.07146 0
M  V30 559 H 58.5868 -1.94732 -3.96903 0
M  V30 560 N 57.6459 0.756429 -1.3826 0
M  V30 561 C 58.5759 1.88374 -1.37976 0
M  V30 562 C 59.5569 1.68311 -0.246082 0
M  V30 563 O 60.7419 1.88944 -0.44874 0
M  V30 564 C 57.8719 3.25864 -1.20125 0
M  V30 565 C 56.8259 3.60523 -2.30666 0
M  V30 566 C 56.1519 4.9672 -1.97923 0
M  V30 567 C 57.4519 3.65692 -3.72916 0
M  V30 568 H 59.1459 1.88869 -2.32312 0
M  V30 569 H 56.6919 0.907272 -1.11824 0
M  V30 570 H 58.6449 4.0438 -1.18552 0
M  V30 571 H 57.3689 3.25841 -0.222498 0
M  V30 572 H 56.0279 2.84324 -2.3142 0
M  V30 573 H 55.6759 4.93253 -0.985393 0
M  V30 574 H 55.3759 5.20878 -2.71955 0
M  V30 575 H 56.8999 5.77618 -1.97964 0
M  V30 576 H 58.3139 4.34328 -3.74208 0
M  V30 577 H 56.7109 4.01358 -4.4613 0
M  V30 578 H 57.7809 2.65987 -4.05436 0
M  V30 579 N 59.124 1.23083 0.984299 0
M  V30 580 C 60.37 1.06214 1.72761 0
M  V30 581 C 60.703 -0.400584 1.90024 0
M  V30 582 O 59.978 -1.29672 1.44967 0
M  V30 583 C 60.261 1.78375 3.12817 0
M  V30 584 C 60.114 3.32296 3.03149 0
M  V30 585 C 61.433 1.54309 4.12161 0
M  V30 586 H 58.552 0.387251 0.627061 0
M  V30 587 H 61.194 1.51536 1.14616 0
M  V30 588 H 59.344 1.39848 3.62457 0
M  V30 589 H 61.016 3.8032 2.61064 0
M  V30 590 H 59.259 3.6153 2.39747 0
M  V30 591 H 59.93 3.77972 4.02295 0
M  V30 592 H 62.406 1.87791 3.71314 0
M  V30 593 H 61.282 2.07281 5.08258 0
M  V30 594 H 61.543 0.477572 4.39513 0
M  V30 595 N 60.6021 -1.18246 1.0419 0
M  V30 596 C 61.5321 -2.24127 0.654914 0
M  V30 597 C 62.5131 -1.66617 -0.342451 0
M  V30 598 O 63.6981 -1.92924 -0.222277 0
M  V30 599 C 60.8281 -3.47295 0.0183757 0
M  V30 600 C 59.7821 -4.17563 0.939414 0
M  V30 601 C 59.1081 -5.34438 0.167286 0
M  V30 602 C 60.4081 -4.70917 2.25908 0
M  V30 603 H 62.1021 -2.56753 1.54007 0
M  V30 604 H 59.6481 -1.23414 0.74195 0
M  V30 605 H 61.6011 -4.20572 -0.264082 0
M  V30 606 H 60.3251 -3.13907 -0.901664 0
M  V30 607 H 58.9841 -3.46186 1.20628 0
M  V30 608 H 58.6321 -4.97298 -0.7552 0
M  V30 609 H 58.3321 -5.82388 0.780901 0
M  V30 610 H 59.8561 -6.10504 -0.108125 0
M  V30 611 H 61.2701 -5.35882 2.03724 0
M  V30 612 H 59.6671 -5.29406 2.82577 0
M  V30 613 H 60.7371 -3.88272 2.9047 0
M  V30 614 N 62.0802 -0.821533 -1.34494 0
M  V30 615 C 62.9902 -0.244355 -2.33324 0
M  V30 616 C 64.0062 0.620527 -1.62559 0
M  V30 617 O 65.1822 0.528754 -1.94335 0
M  V30 618 C 62.2472 0.585368 -3.41723 0
M  V30 619 C 61.3082 -0.301752 -4.28238 0
M  V30 620 C 60.5412 0.488466 -5.3146 0
M  V30 621 O 60.7642 1.72186 -5.4379 0
M  V30 622 O 59.6982 -0.12848 -6.01763 0
M  V30 623 H 63.5242 -1.06231 -2.84515 0
M  V30 624 H 61.1092 -0.583645 -1.37528 0
M  V30 625 H 62.9912 1.05747 -4.07916 0
M  V30 626 H 61.6662 1.38068 -2.92778 0
M  V30 627 H 60.5732 -0.821315 -3.64973 0
M  V30 628 H 61.9062 -1.06138 -4.8062 0
M  V30 629 N 63.5583 1.46682 -0.576371 0
M  V30 630 C 64.5213 2.28707 0.150239 0
M  V30 631 C 65.5213 1.38035 0.824794 0
M  V30 632 O 66.7113 1.60476 0.677719 0
M  V30 633 C 63.8433 3.18248 1.22192 0
M  V30 634 H 65.0363 2.94423 -0.570521 0
M  V30 635 H 62.5893 1.52688 -0.334078 0
M  V30 636 H 63.3243 2.57265 1.97447 0
M  V30 637 H 63.1093 3.85 0.742812 0
M  V30 638 H 64.5993 3.80001 1.73172 0
M  V30 639 N 65.0364 0.313813 1.54444 0
M  V30 640 C 66.4524 -0.0391619 1.59552 0
M  V30 641 C 66.6524 -1.51322 1.33056 0
M  V30 642 O 65.7084 -2.26782 1.11022 0
M  V30 643 C 67.0214 0.370302 2.98411 0
M  V30 644 C 68.5694 0.320139 3.11358 0
M  V30 645 C 69.0444 0.704617 4.52547 0
M  V30 646 N 70.5354 0.657645 4.58508 0
M  V30 647 C 71.2704 0.927453 5.6585 0
M  V30 648 N 70.7664 1.26389 6.81174 0
M  V30 649 N 72.5594 0.853662 5.5558 0
M  V30 650 H 64.7104 1.27433 1.69925 0
M  V30 651 H 66.9734 0.517511 0.794284 0
M  V30 652 H 66.6794 1.39694 3.22767 0
M  V30 653 H 66.5534 -0.269619 3.76235 0
M  V30 654 H 68.9404 -0.697275 2.86744 0
M  V30 655 H 69.0214 0.99486 2.35661 0
M  V30 656 H 68.6654 1.7199 4.77893 0
M  V30 657 H 68.5954 0.00768843 5.26599 0
M  V30 658 H 71.0864 0.409067 3.75679 0
M  V30 659 H 71.3994 1.4554 7.58972 0
M  V30 660 H 69.7444 1.30206 6.82694 0
M  V30 661 H 72.9354 0.590383 4.64362 0
M  V30 662 H 73.1084 1.0673 6.3915 0
M  V30 663 N 66.5145 -1.57545 0.0417849 0
M  V30 664 C 67.7915 -1.83642 -0.673433 0
M  V30 665 C 68.1715 -0.928298 -1.89594 0
M  V30 666 O 67.5195 0.0129955 -2.28496 0
M  V30 667 C 67.7295 -3.33155 -1.03964 0
M  V30 668 C 69.0775 -3.99941 -1.42592 0
M  V30 669 O 70.1015 -3.37725 -1.13226 0
M  V30 670 O 68.9605 -5.09619 -1.9736 0
M  V30 671 H 66.0545 -0.757638 -0.331533 0
M  V30 672 H 68.6005 -1.69554 0.070433 0
M  V30 673 H 67.3725 -3.9093 -0.170098 0
M  V30 674 H 66.9955 -3.52396 -1.84126 0
M  V30 675 N 67.9926 0.231505 -1.5589 0
M  V30 676 C 69.4086 0.580748 -1.48659 0
M  V30 677 C 69.6086 1.87617 -0.73498 0
M  V30 678 O 68.6646 2.51046 -0.270586 0
M  V30 679 C 69.9776 0.669202 -2.93159 0
M  V30 680 C 71.5256 0.760499 -3.03621 0
M  V30 681 C 72.0006 0.880383 -4.49459 0
M  V30 682 N 73.4916 0.944861 -4.53461 0
M  V30 683 C 74.2266 1.05716 -5.63571 0
M  V30 684 N 73.7226 1.13403 -6.83456 0
M  V30 685 N 75.5156 1.09152 -5.514 0
M  V30 686 H 67.6666 -0.618695 -2.03189 0
M  V30 687 H 69.9296 -0.215728 -0.923128 0
M  V30 688 H 69.6356 -0.212904 -3.51055 0
M  V30 689 H 69.5096 1.5361 -3.44505 0
M  V30 690 H 71.8966 1.63305 -2.45796 0
M  V30 691 H 71.9776 -0.131864 -2.5546 0
M  V30 692 H 71.6216 0.0123284 -5.07899 0
M  V30 693 H 71.5516 1.78802 -4.95316 0
M  V30 694 H 74.0426 0.896176 -3.6712 0
M  V30 695 H 74.3556 1.21921 -7.63122 0
M  V30 696 H 72.7006 1.10333 -6.86186 0
M  V30 697 H 75.8916 1.02805 -4.56671 0
M  V30 698 H 76.0646 1.17558 -6.37247 0
M  V30 699 N 69.4707 1.49531 0.497807 0
M  V30 700 C 70.7167 1.59415 1.25358 0
M  V30 701 C 71.0497 0.281422 1.9215 0
M  V30 702 O 70.3247 -0.715249 1.80871 0
M  V30 703 C 70.6077 2.75566 2.3181 0
M  V30 704 C 70.4607 4.16642 1.69498 0
M  V30 705 C 71.7797 2.87347 3.33346 0
M  V30 706 H 68.8987 0.580244 0.454408 0
M  V30 707 H 71.5407 1.81827 0.551262 0
M  V30 708 H 69.6907 2.56587 2.91711 0
M  V30 709 H 71.3627 4.47145 1.13399 0
M  V30 710 H 69.6057 4.22141 0.998978 0
M  V30 711 H 70.2767 4.93792 2.46725 0
M  V30 712 H 72.7527 3.04634 2.83438 0
M  V30 713 H 71.6287 3.70289 4.05188 0
M  V30 714 H 71.8897 1.96834 3.95865 0
M  V30 715 N 70.9488 -0.749086 1.3866 0
M  V30 716 C 72.1968 -1.50535 1.34847 0
M  V30 717 C 72.5178 -1.94909 -0.0595016 0
M  V30 718 O 71.7878 -1.67973 -1.00806 0
M  V30 719 H 70.3678 -0.558395 0.49619 0
M  V30 720 H 73.0298 -0.890165 1.73384 0
M  V30 721 H 72.1258 -2.39413 2.00219 0
M  V30 722 N 72.4269 -1.23603 -0.977757 0
M  V30 723 C 73.6749 -1.06759 -1.71601 0
M  V30 724 C 73.9959 0.395929 -1.90938 0
M  V30 725 O 73.2659 1.28356 -1.47992 0
M  V30 726 H 71.8459 -0.392062 -0.635843 0
M  V30 727 H 74.5079 -1.55362 -1.1768 0
M  V30 728 H 73.6039 -1.55763 -2.70452 0
M  V30 729 N 73.905 1.17692 -1.04816 0
M  V30 730 C 75.321 1.39863 -0.768794 0
M  V30 731 C 75.521 1.91118 0.638451 0
M  V30 732 O 74.577 2.10036 1.40146 0
M  V30 733 C 75.89 2.39274 -1.82122 0
M  V30 734 C 77.438 2.52987 -1.843 0
M  V30 735 C 77.913 3.55669 -2.88555 0
M  V30 736 N 79.404 3.63183 -2.87493 0
M  V30 737 C 80.139 4.42381 -3.64811 0
M  V30 738 N 79.635 5.25125 -4.51903 0
M  V30 739 N 81.428 4.37217 -3.53267 0
M  V30 740 H 73.579 0.82752 -1.95617 0
M  V30 741 H 75.842 0.426123 -0.846831 0
M  V30 742 H 75.548 2.08678 -2.83102 0
M  V30 743 H 75.422 3.38725 -1.65967 0
M  V30 744 H 77.809 2.82896 -0.839869 0
M  V30 745 H 77.89 1.53623 -2.04532 0
M  V30 746 H 77.534 3.26499 -3.89051 0
M  V30 747 H 77.464 4.54728 -2.65575 0
M  V30 748 H 79.955 3.04103 -2.24343 0
M  V30 749 H 80.268 5.82728 -5.07591 0
M  V30 750 H 78.613 5.24519 -4.55966 0
M  V30 751 H 81.804 3.71626 -2.84625 0
M  V30 752 H 81.977 4.98696 -4.13771 0
M  V30 753 N 75.3831 0.828654 1.34056 0
M  V30 754 C 76.6111 0.43262 2.02326 0
M  V30 755 C 77.0261 -0.963147 1.62385 0
M  V30 756 O 76.3831 -1.62425 0.832121 0
M  V30 757 C 76.4341 0.53182 3.57567 0
M  V30 758 O 76.1551 1.87258 3.96063 0
M  V30 759 C 77.6561 0.131422 4.43105 0
M  V30 760 H 74.8761 0.172923 0.648335 0
M  V30 761 H 77.4201 1.1184 1.71208 0
M  V30 762 H 75.5751 -0.105938 3.87255 0
M  V30 763 H 75.9891 1.85087 4.90758 0
M  V30 764 H 77.4631 0.251904 5.51425 0
M  V30 765 H 77.9401 -0.925645 4.29335 0
M  V30 766 H 78.5461 0.743207 4.18756 0
M  V30 767 N 76.8612 -1.46375 0.584142 0
M  V30 768 C 78.0912 -2.06461 0.0758195 0
M  V30 769 C 78.4992 -1.43322 -1.23512 0
M  V30 770 O 77.8422 -0.533216 -1.75791 0
M  V30 771 C 77.9042 -3.59131 -0.162773 0
M  V30 772 C 77.5682 -4.4447 1.06279 0
M  V30 773 C 78.5652 -4.80918 1.97519 0
M  V30 774 C 76.2502 -4.85584 1.28504 0
M  V30 775 C 78.2442 -5.57309 3.09331 0
M  V30 776 C 75.9312 -5.61734 2.4062 0
M  V30 777 C 76.9292 -5.9751 3.30863 0
M  V30 778 O 76.6172 -6.72121 4.41032 0
M  V30 779 H 76.3492 -0.673745 0.0551725 0
M  V30 780 H 78.9032 -1.88969 0.804984 0
M  V30 781 H 77.1332 -3.74936 -0.946565 0
M  V30 782 H 78.8222 -4.0114 -0.619782 0
M  V30 783 H 79.5882 -4.49732 1.81565 0
M  V30 784 H 75.4672 -4.57187 0.591702 0
M  V30 785 H 79.0112 -5.85152 3.79793 0
M  V30 786 H 74.9082 -5.92334 2.56537 0
M  V30 787 H 75.6762 -6.90547 4.39417 0
M  V30 788 N 78.3393 -0.321999 -1.54275 0
M  V30 789 C 79.5673 0.283052 -2.04955 0
M  V30 790 C 79.9823 1.45904 -1.19823 0
M  V30 791 O 79.3393 1.81063 -0.228545 0
M  V30 792 C 79.3903 0.719028 -3.54277 0
M  V30 793 O 79.1113 -0.410175 -4.36176 0
M  V30 794 C 80.6123 1.38705 -4.21041 0
M  V30 795 H 77.8323 0.0584616 -0.668448 0
M  V30 796 H 80.3763 -0.467734 -1.99079 0
M  V30 797 H 78.5313 1.41979 -3.60445 0
M  V30 798 H 78.9453 -0.0669416 -5.24457 0
M  V30 799 H 80.4193 1.64306 -5.2698 0
M  V30 800 H 80.8963 2.33385 -3.72059 0
M  V30 801 H 81.5023 0.728906 -4.19007 0
M  V30 802 N 79.8174 1.5752 -0.0501392 0
M  V30 803 C 81.0664 1.91827 0.623328 0
M  V30 804 C 81.3794 0.930222 1.72065 0
M  V30 805 O 82.5854 1.1653 2.4522 0
M  V30 806 C 81.0414 3.40692 1.16003 0
M  V30 807 C 80.6494 4.479 0.0948811 0
M  V30 808 C 82.3934 3.84034 1.80881 0
M  V30 809 C 80.3004 5.87879 0.644411 0
M  V30 810 H 79.2304 0.715918 0.236596 0
M  V30 811 H 81.8814 1.83115 -0.118861 0
M  V30 812 H 80.2634 3.44405 1.9545 0
M  V30 813 H 81.4374 4.55775 -0.678675 0
M  V30 814 H 79.7524 4.13892 -0.45637 0
M  V30 815 H 82.3494 4.85984 2.22988 0
M  V30 816 H 82.6924 3.20225 2.6601 0
M  V30 817 H 83.2254 3.82833 1.0809 0
M  V30 818 H 79.9644 6.55282 -0.169229 0
M  V30 819 H 79.4844 5.83567 1.38598 0
M  V30 820 H 81.1634 6.37098 1.12763 0
M  V30 821 N 81.2955 -0.223234 1.56011 0
M  V30 822 C 82.7115 -0.572856 1.48965 0
M  V30 823 C 82.9115 -1.87225 0.74492 0
M  V30 824 O 81.9675 -2.50899 0.283896 0
M  V30 825 C 83.2805 -0.653646 2.9351 0
M  V30 826 C 84.8285 -0.744386 3.0402 0
M  V30 827 C 85.3035 -0.856535 4.49919 0
M  V30 828 N 86.7945 -0.9208 4.53955 0
M  V30 829 C 87.5295 -1.02726 5.64123 0
M  V30 830 N 87.0255 -1.09777 6.84047 0
M  V30 831 N 88.8185 -1.06226 5.51971 0
M  V30 832 H 80.9695 0.629462 2.02858 0
M  V30 833 H 83.2325 0.220621 0.921971 0
M  V30 834 H 82.9385 0.231518 3.50937 0
M  V30 835 H 82.8125 -1.51781 3.45315 0
M  V30 836 H 85.1995 -1.61999 2.46658 0
M  V30 837 H 85.2805 0.14541 2.55386 0
M  V30 838 H 84.9245 0.0146069 5.07898 0
M  V30 839 H 84.8545 -1.76172 4.96257 0
M  V30 840 H 87.3455 -0.876694 3.6759 0
M  V30 841 H 87.6585 -1.17872 7.63758 0
M  V30 842 H 86.0035 -1.06693 6.86762 0
M  V30 843 H 89.1945 -1.00382 4.5721 0
M  V30 844 H 89.3675 -1.14177 6.37862 0
M  V30 845 N 82.7736 -1.49793 -0.48987 0
M  V30 846 C 83.7216 -1.67783 -1.61095 0
M  V30 847 C 84.7156 -0.543683 -1.60438 0
M  V30 848 O 85.9216 -0.723647 -1.64813 0
M  V30 849 H 82.2966 -0.529255 -0.534222 0
M  V30 850 H 84.2676 -2.61861 -1.43078 0
M  V30 851 C 83.0166 -1.77191 -2.99164 0
M  V30 852 H 82.3396 -2.63841 -3.0038 0
M  V30 853 H 83.7796 -1.93809 -3.77113 0
M  V30 854 C 82.2386 -0.519203 -3.32875 0
M  V30 855 O 82.7686 0.350124 -4.00171 0
M  V30 856 N 80.9746 -0.378816 -2.8812 0
M  V30 857 H 80.5216 -1.08725 -2.33531 0
M  V30 858 H 80.4796 0.458239 -3.11043 0
M  V30 859 N 84.2517 0.741722 -1.39055 0
M  V30 860 C 85.1617 1.88621 -1.39496 0
M  V30 861 C 86.1777 1.71557 -0.290578 0
M  V30 862 O 87.3537 1.94275 -0.530954 0
M  V30 863 C 84.4187 3.24134 -1.23037 0
M  V30 864 C 83.4797 3.5364 -2.43387 0
M  V30 865 C 82.7127 4.82687 -2.27703 0
M  V30 866 O 82.9357 5.55922 -1.27696 0
M  V30 867 O 81.8697 5.1194 -3.16545 0
M  V30 868 H 85.6957 1.91203 -2.35956 0
M  V30 869 H 83.2807 0.888625 -1.20099 0
M  V30 870 H 85.1627 4.0513 -1.15964 0
M  V30 871 H 83.8377 3.22337 -0.296691 0
M  V30 872 H 82.7447 2.72758 -2.56035 0
M  V30 873 H 84.0777 3.60209 -3.35425 0
M  V30 874 N 85.7298 1.2412 0.971189 0
M  V30 875 C 86.6798 0.997551 2.05019 0
M  V30 876 C 87.6638 -0.0597747 1.60789 0
M  V30 877 O 88.8558 0.153516 1.76333 0
M  V30 878 C 85.9848 0.600557 3.38006 0
M  V30 879 C 85.0708 1.69377 3.88809 0
M  V30 880 N 85.4618 2.92586 4.12586 0
M  V30 881 C 83.7598 1.57048 4.17435 0
M  V30 882 C 84.4608 3.63431 4.54195 0
M  V30 883 N 83.4368 2.90979 4.59165 0
M  V30 884 H 87.2388 1.93316 2.21374 0
M  V30 885 H 84.7528 1.14194 1.1547 0
M  V30 886 H 86.7498 0.40725 4.14906 0
M  V30 887 H 85.4098 -0.327903 3.2304 0
M  V30 888 H 86.4208 3.288 4.00139 0
M  V30 889 H 83.0978 0.709798 4.11422 0
M  V30 890 H 84.4878 4.69102 4.81033 0
M  V30 891 N 87.2079 -1.17134 1.05439 0
M  V30 892 C 88.4539 -1.87733 0.767077 0
M  V30 893 C 88.7869 -1.8098 -0.704253 0
M  V30 894 O 88.0619 -1.21951 -1.5152 0
M  V30 895 C 88.3449 -3.37659 1.25133 0
M  V30 896 C 88.1979 -3.53149 2.78578 0
M  V30 897 C 89.5169 -4.31768 0.852324 0
M  V30 898 H 86.6359 -0.681687 0.280129 0
M  V30 899 H 89.2779 -1.37732 1.30881 0
M  V30 900 H 87.4279 -3.80373 0.790469 0
M  V30 901 H 89.0999 -3.19434 3.32806 0
M  V30 902 H 87.3429 -2.95345 3.17732 0
M  V30 903 H 88.0139 -4.58403 3.07523 0
M  V30 904 H 90.4899 -3.96909 1.24911 0
M  V30 905 H 89.3659 -5.35199 1.21873 0
M  V30 906 H 89.6269 -4.41429 -0.243485 0
M  V30 907 N 88.686 -0.835752 -1.33615 0
M  V30 908 C 89.963 -0.352017 -1.92406 0
M  V30 909 C 90.343 1.16225 -1.76224 0
M  V30 910 O 89.691 1.97526 -1.14873 0
M  V30 911 C 89.901 -0.795485 -3.39813 0
M  V30 912 C 91.249 -0.801703 -4.16963 0
M  V30 913 O 92.273 -0.738889 -3.48452 0
M  V30 914 O 91.132 -0.886607 -5.3926 0
M  V30 915 H 88.226 -0.0989641 -0.821057 0
M  V30 916 H 90.772 -0.921397 -1.42507 0
M  V30 917 H 89.544 -1.83795 -3.45449 0
M  V30 918 H 89.167 -0.202505 -3.97084 0
M  V30 919 N 90.1641 1.46063 -0.591896 0
M  V30 920 C 91.3941 2.06418 -0.0867676 0
M  V30 921 C 91.8021 1.43975 1.22751 0
M  V30 922 O 91.1451 0.542531 1.75506 0
M  V30 923 C 91.2071 3.59213 0.143725 0
M  V30 924 C 90.8711 4.439 -1.08635 0
M  V30 925 C 91.8681 4.79864 -2.00067 0
M  V30 926 C 89.5531 4.84896 -1.31077 0
M  V30 927 C 91.5471 5.55661 -3.12282 0
M  V30 928 C 89.2341 5.6045 -2.43596 0
M  V30 929 C 90.2321 5.95747 -3.34027 0
M  V30 930 O 89.9201 6.69772 -4.4459 0
M  V30 931 H 89.6521 0.673443 -0.0587447 0
M  V30 932 H 92.2061 1.88539 -0.814994 0
M  V30 933 H 90.4361 3.75433 0.926668 0
M  V30 934 H 92.1251 4.01463 0.5985 0
M  V30 935 H 92.8911 4.48763 -1.83947 0
M  V30 936 H 88.7701 4.56867 -0.61594 0
M  V30 937 H 92.3141 5.8313 -3.82891 0
M  V30 938 H 88.2111 5.90965 -2.59674 0
M  V30 939 H 88.9791 6.88207 -4.43073 0
M  V30 940 N 91.6422 0.330177 1.54103 0
M  V30 941 C 92.8882 -0.270806 2.00984 0
M  V30 942 C 93.2212 -1.51265 1.21789 0
M  V30 943 O 92.4962 -1.92142 0.301927 0
M  V30 944 C 92.7792 -0.598339 3.55094 0
M  V30 945 C 92.6322 0.654674 4.4501 0
M  V30 946 C 93.9512 -1.41334 4.16789 0
M  V30 947 H 91.0702 -0.0969531 0.730595 0
M  V30 948 H 93.7122 0.448066 1.84641 0
M  V30 949 H 91.8622 -1.21078 3.69151 0
M  V30 950 H 93.5342 1.29285 4.42813 0
M  V30 951 H 91.7772 1.28224 4.14416 0
M  V30 952 H 92.4482 0.380944 5.50684 0
M  V30 953 H 94.9242 -0.895597 4.06347 0
M  V30 954 H 93.8002 -1.61127 5.24718 0
M  V30 955 H 94.0612 -2.41146 3.70541 0
M  V30 956 N 93.1203 -1.57491 0.0584922 0
M  V30 957 C 94.3973 -1.84346 -0.653918 0
M  V30 958 C 94.7773 -0.948355 -1.88599 0
M  V30 959 O 94.1253 -0.0112403 -2.28497 0
M  V30 960 C 94.3353 -3.34239 -1.00425 0
M  V30 961 C 95.6833 -4.01431 -1.38342 0
M  V30 962 O 96.7073 -3.38907 -1.09637 0
M  V30 963 O 95.5663 -5.11683 -1.91943 0
M  V30 964 H 92.6603 -0.761112 -0.323478 0
M  V30 965 H 95.2063 -1.6947 0.0884125 0
M  V30 966 H 93.9783 -3.91089 -0.128625 0
M  V30 967 H 93.6013 -3.54329 -1.80378 0
M  V30 968 N 94.5984 0.214957 -1.56127 0
M  V30 969 C 95.8444 0.939762 -1.79712 0
M  V30 970 C 96.1774 1.83723 -0.629247 0
M  V30 971 O 95.4524 1.90925 0.371197 0
M  V30 972 C 95.7354 1.77306 -3.13424 0
M  V30 973 C 95.5884 0.90164 -4.40671 0
M  V30 974 C 96.9074 2.74956 -3.43638 0
M  V30 975 H 94.0264 0.340214 -0.653776 0
M  V30 976 H 96.6684 0.20824 -1.88855 0
M  V30 977 H 94.8184 2.39673 -3.0576 0
M  V30 978 H 96.4904 0.294206 -4.60361 0
M  V30 979 H 94.7334 0.207368 -4.33304 0
M  V30 980 H 95.4044 1.51923 -5.30682 0
M  V30 981 H 97.8804 2.22724 -3.51473 0
M  V30 982 H 96.7564 3.30358 -4.38355 0
M  V30 983 H 97.0174 3.53023 -2.66134 0
M  V30 984 N 96.0765 1.50051 0.48192 0
M  V30 985 C 97.3245 1.60181 1.23234 0
M  V30 986 C 97.6455 0.299176 1.92691 0
M  V30 987 O 96.9155 -0.682708 1.83619 0
M  V30 988 H 95.4955 0.590232 0.457859 0
M  V30 989 H 98.1575 1.86775 0.556881 0
M  V30 990 H 97.2535 2.40753 1.98607 0
M  V30 991 N 97.5546 -0.734337 1.39446 0
M  V30 992 C 98.8026 -1.49096 1.36436 0
M  V30 993 C 99.1236 -1.94961 -0.0388255 0
M  V30 994 O 98.3936 -1.69033 -0.990191 0
M  V30 995 H 96.9736 -0.5531 0.502085 0
M  V30 996 H 99.6356 -0.871725 1.74319 0
M  V30 997 H 98.7316 -2.37276 2.02747 0
M  V30 998 N 99.0327 -1.24633 -0.964593 0
M  V30 999 C 99.9957 -1.0424 -2.04124 0
M  V30 1000 C 100.996 0.00137563 -1.608 0
M  V30 1001 O 102.186 -0.239883 -1.7254 0
M  V30 1002 C 99.3177 -0.580588 -3.3592 0
M  V30 1003 H 100.511 -1.99803 -2.23649 0
M  V30 1004 H 98.0637 -1.06899 -1.14027 0
M  V30 1005 H 98.7987 0.3781 -3.22088 0
M  V30 1006 H 98.5837 -1.33398 -3.6871 0
M  V30 1007 H 100.074 -0.459034 -4.15069 0
M  V30 1008 N 100.511 1.16574 -1.06058 0
M  V30 1009 C 101.741 1.90675 -0.795397 0
M  V30 1010 C 102.149 1.77547 0.653735 0
M  V30 1011 O 101.492 1.11611 1.45907 0
M  V30 1012 C 101.554 3.42011 -1.10764 0
M  V30 1013 C 101.218 3.78924 -2.55471 0
M  V30 1014 C 102.215 3.81042 -3.53699 0
M  V30 1015 C 99.8998 4.09626 -2.90708 0
M  V30 1016 C 101.894 4.13346 -4.85205 0
M  V30 1017 C 99.5808 4.41597 -4.22416 0
M  V30 1018 C 100.579 4.43436 -5.19474 0
M  V30 1019 O 100.267 4.74649 -6.48817 0
M  V30 1020 H 99.9988 0.611554 -0.288058 0
M  V30 1021 H 102.553 1.48711 -1.41683 0
M  V30 1022 H 100.783 3.84312 -0.429128 0
M  V30 1023 H 102.472 3.97384 -0.827077 0
M  V30 1024 H 103.238 3.57437 -3.27817 0
M  V30 1025 H 99.1168 4.07361 -2.15819 0
M  V30 1026 H 102.661 4.14696 -5.60957 0
M  V30 1027 H 98.5578 4.64667 -4.48056 0
M  V30 1028 H 99.3258 4.9247 -6.5377 0
M  V30 1029 N 101.989 0.842826 1.3317 0
M  V30 1030 C 103.235 0.441099 1.97945 0
M  V30 1031 C 103.568 -0.998024 1.66593 0
M  V30 1032 O 102.843 -1.69839 0.947898 0
M  V30 1033 C 103.126 0.666841 3.53872 0
M  V30 1034 C 102.979 2.15352 3.94897 0
M  V30 1035 C 104.298 0.115544 4.39948 0
M  V30 1036 H 101.417 0.161739 0.719034 0
M  V30 1037 H 104.059 1.05907 1.57746 0
M  V30 1038 H 102.209 0.140828 3.88245 0
M  V30 1039 H 103.881 2.7447 3.70761 0
M  V30 1040 H 102.124 2.63653 3.44484 0
M  V30 1041 H 102.795 2.26221 5.03516 0
M  V30 1042 H 105.271 0.565213 4.12243 0
M  V30 1043 H 104.147 0.303152 5.48062 0
M  V30 1044 H 104.408 -0.980935 4.3108 0
M  V30 1045 N 103.467 -1.45747 0.599634 0
M  V30 1046 C 104.715 -2.01893 0.0915472 0
M  V30 1047 C 105.036 -1.47155 -1.27946 0
M  V30 1048 O 104.306 -0.66273 -1.84349 0
M  V30 1049 H 102.886 -0.746363 0.0308524 0
M  V30 1050 H 105.548 -1.78645 0.779237 0
M  V30 1051 H 104.644 -3.1208 0.0353086 0
M  V30 1052 N 104.945 -0.338344 -1.53925 0
M  V30 1053 C 106.356 0.146651 -1.86123 0
M  V30 1054 C 106.707 1.5042 -1.2597 0
M  V30 1055 O 105.832 2.08723 -0.571294 0
M  V30 1056 C 106.427 0.272879 -3.37699 0
M  V30 1057 C 104.986 0.702103 -3.69794 0
M  V30 1058 C 104.133 -0.167304 -2.76795 0
M  V30 1059 H 107.084 -0.558123 -1.48562 0
M  V30 1060 H 107.105 1.10128 -3.64214 0
M  V30 1061 H 106.617 -0.715307 -3.81451 0
M  V30 1062 H 104.718 1.6995 -3.31584 0
M  V30 1063 H 104.831 0.495604 -4.7653 0
M  V30 1064 H 103.195 0.359527 -2.5215 0
M  V30 1065 H 103.978 -1.15253 -3.23375 0
M  V30 1066 N 106.423 1.57458 -0.0668435 0
M  V30 1067 C 107.651 1.97624 0.612565 0
M  V30 1068 C 108.066 0.94502 1.63447 0
M  V30 1069 O 107.423 -0.0689276 1.8237 0
M  V30 1070 C 107.474 3.37869 1.28555 0
M  V30 1071 O 107.195 4.3704 0.304557 0
M  V30 1072 C 108.696 3.92882 2.05325 0
M  V30 1073 H 105.916 0.650045 0.166381 0
M  V30 1074 H 108.46 2.04035 -0.137782 0
M  V30 1075 H 106.615 3.3256 1.98702 0
M  V30 1076 H 107.029 5.18565 0.786779 0
M  V30 1077 H 108.503 4.93247 2.47812 0
M  V30 1078 H 108.98 3.29156 2.9078 0
M  V30 1079 H 109.586 4.01577 1.40056 0
M  V30 1080 N 107.901 -0.206675 1.56239 0
M  V30 1081 C 108.833 -1.27997 1.9013 0
M  V30 1082 C 109.846 -1.42299 0.790883 0
M  V30 1083 O 111.035 -1.42931 1.06925 0
M  V30 1084 C 108.135 -2.65368 2.10792 0
M  V30 1085 C 107.308 -2.72824 3.41886 0
M  V30 1086 C 106.367 -3.9131 3.51799 0
M  V30 1087 O 105.393 -3.78953 4.24716 0
M  V30 1088 N 106.595 -5.06265 2.84035 0
M  V30 1089 H 109.36 -0.992444 2.82791 0
M  V30 1090 H 106.921 -0.396652 1.56966 0
M  V30 1091 H 108.913 -3.43039 2.14724 0
M  V30 1092 H 107.483 -2.86657 1.24685 0
M  V30 1093 H 106.703 -1.81515 3.49923 0
M  V30 1094 H 107.991 -2.74786 4.28217 0
M  V30 1095 H 107.389 -5.19203 2.246 0
M  V30 1096 H 105.946 -5.81925 2.93609 0
M  V30 1097 N 109.379 -1.50304 -0.473955 0
M  V30 1098 C 110.327 -1.69482 -1.59307 0
M  V30 1099 C 111.321 -0.560669 -1.59853 0
M  V30 1100 O 112.527 -0.741087 -1.64036 0
M  V30 1101 H 108.902 -0.534892 -0.528578 0
M  V30 1102 H 110.873 -2.63364 -1.40293 0
M  V30 1103 C 109.622 -1.80354 -2.97267 0
M  V30 1104 H 108.945 -2.67012 -2.97564 0
M  V30 1105 H 110.385 -1.97798 -3.75036 0
M  V30 1106 C 108.844 -0.55448 -3.32306 0
M  V30 1107 O 109.374 0.307661 -4.0052 0
M  V30 1108 N 107.58 -0.409354 -2.87702 0
M  V30 1109 H 107.127 -1.11196 -2.32364 0
M  V30 1110 H 107.085 0.425223 -3.11511 0
M  V30 1111 N 110.857 0.726932 -1.39834 0
M  V30 1112 C 112.273 1.03354 -1.21615 0
M  V30 1113 C 112.473 2.01327 -0.08338 0
M  V30 1114 O 111.529 2.46158 0.56238 0
M  V30 1115 C 112.842 1.58811 -2.55342 0
M  V30 1116 C 114.39 1.70851 -2.62257 0
M  V30 1117 C 114.865 2.29716 -3.96225 0
M  V30 1118 N 116.356 2.37116 -3.97907 0
M  V30 1119 C 117.091 2.83619 -4.98345 0
M  V30 1120 N 116.587 3.29958 -6.09179 0
M  V30 1121 N 118.38 2.82901 -4.8572 0
M  V30 1122 H 110.531 0.0773069 -2.12259 0
M  V30 1123 H 112.794 0.0969102 -0.943034 0
M  V30 1124 H 112.5 0.942855 -3.38826 0
M  V30 1125 H 112.374 2.57502 -2.75632 0
M  V30 1126 H 114.761 2.34497 -1.79152 0
M  V30 1127 H 114.842 0.707913 -2.45809 0
M  V30 1128 H 114.486 1.66696 -4.79765 0
M  V30 1129 H 114.416 3.30469 -4.09997 0
M  V30 1130 H 116.907 2.04374 -3.17868 0
M  V30 1131 H 117.22 3.63976 -6.8172 0
M  V30 1132 H 115.565 3.27946 -6.12761 0
M  V30 1133 H 118.756 2.46027 -3.98231 0
M  V30 1134 H 118.929 3.18827 -5.6414 0
M  V30 1135 N 112.336 1.25143 0.95797 0
M  V30 1136 C 113.585 1.0909 1.69654 0
M  V30 1137 C 113.898 -0.368548 1.92097 0
M  V30 1138 O 115.104 -0.649455 2.63618 0
M  V30 1139 C 113.56 1.90395 3.05414 0
M  V30 1140 C 113.168 3.4081 2.90779 0
M  V30 1141 C 114.912 1.82901 3.83076 0
M  V30 1142 C 112.819 4.14423 4.21909 0
M  V30 1143 H 111.749 0.404625 0.636235 0
M  V30 1144 H 114.4 1.4931 1.06672 0
M  V30 1145 H 112.782 1.42996 3.69281 0
M  V30 1146 H 113.956 3.95859 2.35865 0
M  V30 1147 H 112.271 3.49361 2.26575 0
M  V30 1148 H 114.868 2.35196 4.80195 0
M  V30 1149 H 115.211 0.796224 4.08615 0
M  V30 1150 H 115.744 2.28033 3.25954 0
M  V30 1151 H 112.483 5.18102 4.01561 0
M  V30 1152 H 112.003 3.64159 4.76601 0
M  V30 1153 H 113.682 4.21956 4.90471 0
M  V30 1154 N 113.814 -1.1601 1.06675 0
M  V30 1155 C 114.744 -2.22688 0.702307 0
M  V30 1156 C 115.725 -1.67306 -0.307032 0
M  V30 1157 O 116.91 -1.93352 -0.181305 0
M  V30 1158 C 114.04 -3.47178 0.092038 0
M  V30 1159 C 112.994 -4.15477 1.02777 0
M  V30 1160 C 112.32 -5.33963 0.28061 0
M  V30 1161 C 113.62 -4.66019 2.35846 0
M  V30 1162 H 115.314 -2.53429 1.59419 0
M  V30 1163 H 112.86 -1.21813 0.767961 0
M  V30 1164 H 114.813 -4.21037 -0.174814 0
M  V30 1165 H 113.537 -3.15749 -0.834877 0
M  V30 1166 H 112.196 -3.43549 1.27944 0
M  V30 1167 H 111.844 -4.98788 -0.649545 0
M  V30 1168 H 111.544 -5.806 0.904258 0
M  V30 1169 H 113.068 -6.10596 0.021396 0
M  V30 1170 H 114.482 -5.3144 2.15045 0
M  V30 1171 H 112.879 -5.23293 2.93743 0
M  V30 1172 H 113.949 -3.82023 2.98641 0
M  V30 1173 N 115.292 -0.849877 -1.32721 0
M  V30 1174 C 116.708 -0.539102 -1.50219 0
M  V30 1175 C 116.908 0.931271 -1.78689 0
M  V30 1176 O 115.964 1.71455 -1.85363 0
M  V30 1177 C 117.277 -1.42196 -2.64954 0
M  V30 1178 C 118.825 -1.42189 -2.78839 0
M  V30 1179 C 119.3 -2.28985 -3.96648 0
M  V30 1180 N 120.791 -2.26754 -4.03902 0
M  V30 1181 C 121.526 -2.90644 -4.94281 0
M  V30 1182 N 121.022 -3.63629 -5.897 0
M  V30 1183 N 122.815 -2.80057 -4.87365 0
M  V30 1184 H 114.966 -1.80156 -1.12506 0
M  V30 1185 H 117.229 -0.769217 -0.554085 0
M  V30 1186 H 116.935 -2.46733 -2.50631 0
M  V30 1187 H 116.809 -1.10591 -3.60624 0
M  V30 1188 H 119.196 -0.38419 -2.92588 0
M  V30 1189 H 119.277 -1.77807 -1.83898 0
M  V30 1190 H 118.921 -3.32819 -3.83658 0
M  V30 1191 H 118.851 -1.90702 -4.90857 0
M  V30 1192 H 121.342 -1.73688 -3.3562 0
M  V30 1193 H 121.655 -4.09558 -6.55349 0
M  V30 1194 H 120 -3.67737 -5.89741 0
M  V30 1195 H 123.191 -2.22593 -4.11789 0
M  V30 1196 H 123.364 -3.30132 -5.57599 0
M  V30 1197 N 116.77 1.45427 -0.607355 0
M  V30 1198 C 117.7 2.3329 0.0989352 0
M  V30 1199 C 118.681 1.46816 0.859007 0
M  V30 1200 O 119.866 1.75588 0.829604 0
M  V30 1201 C 116.996 3.29518 1.09705 0
M  V30 1202 C 115.95 4.25626 0.450206 0
M  V30 1203 C 115.276 5.11542 1.55655 0
M  V30 1204 C 116.576 5.18505 -0.628455 0
M  V30 1205 H 118.27 2.92595 -0.634716 0
M  V30 1206 H 115.816 1.40696 -0.306681 0
M  V30 1207 H 117.769 3.89855 1.59971 0
M  V30 1208 H 116.493 2.68372 1.86129 0
M  V30 1209 H 115.152 3.66586 -0.0315886 0
M  V30 1210 H 114.8 4.46765 2.31107 0
M  V30 1211 H 114.5 5.76647 1.12925 0
M  V30 1212 H 116.024 5.74748 2.06148 0
M  V30 1213 H 117.438 5.72916 -0.209877 0
M  V30 1214 H 115.835 5.92085 -0.977489 0
M  V30 1215 H 116.905 4.60948 -1.50514 0
M  V30 1216 N 118.248 0.346503 1.53744 0
M  V30 1217 C 119.473 -0.253074 2.0585 0
M  V30 1218 C 119.898 -1.43202 1.21962 0
M  V30 1219 O 119.256 -1.79783 0.234073 0
M  V30 1220 C 119.304 -0.643193 3.54817 0
M  V30 1221 O 118.408 -1.74286 3.73762 0
M  V30 1222 H 117.749 -0.0413583 0.662711 0
M  V30 1223 H 120.279 0.501574 1.98357 0
M  V30 1224 H 120.289 -0.919526 3.97503 0
M  V30 1225 H 118.964 0.218966 4.15323 0
M  V30 1226 H 117.541 -1.46356 3.42979 0
M  V30 1227 N 119.726 -1.57421 0.075193 0
M  V30 1228 C 120.673 -2.12915 -0.890843 0
M  V30 1229 C 121.643 -1.04252 -1.29309 0
M  V30 1230 O 122.828 -1.31933 -1.37834 0
M  V30 1231 C 119.968 -2.69795 -2.15186 0
M  V30 1232 C 119.081 -3.92624 -1.80194 0
M  V30 1233 C 118.216 -4.37736 -3.00933 0
M  V30 1234 C 117.255 -5.53205 -2.61974 0
M  V30 1235 N 116.392 -5.9326 -3.75483 0
M  V30 1236 H 121.232 -2.95156 -0.410735 0
M  V30 1237 H 118.769 -1.45854 -0.191086 0
M  V30 1238 H 120.727 -3.00883 -2.89008 0
M  V30 1239 H 119.357 -1.90313 -2.60731 0
M  V30 1240 H 118.409 -3.67977 -0.964218 0
M  V30 1241 H 119.721 -4.76482 -1.47534 0
M  V30 1242 H 118.875 -4.70503 -3.8303 0
M  V30 1243 H 117.614 -3.52739 -3.36789 0
M  V30 1244 H 116.619 -5.20086 -1.783 0
M  V30 1245 H 117.844 -6.39936 -2.27284 0
M  V30 1246 H 115.79 -5.11212 -4.11094 0
M  V30 1247 H 115.707 -6.71865 -3.46602 0
M  V30 1248 H 116.975 -6.30651 -4.58148 0
M  V30 1249 N 121.204 0.198386 -1.56346 0
M  V30 1250 C 122.114 1.2664 -1.97483 0
M  V30 1251 C 123.13 1.49989 -0.882002 0
M  V30 1252 O 124.306 1.62668 -1.18748 0
M  V30 1253 C 121.371 2.59141 -2.30319 0
M  V30 1254 C 120.432 2.43892 -3.53292 0
M  V30 1255 C 119.665 3.70074 -3.84553 0
M  V30 1256 O 119.888 4.74101 -3.1715 0
M  V30 1257 O 118.822 3.658 -4.7799 0
M  V30 1258 H 122.648 0.947304 -2.88548 0
M  V30 1259 H 120.233 0.403123 -1.43859 0
M  V30 1260 H 122.115 3.37352 -2.5253 0
M  V30 1261 H 120.79 2.90684 -1.42423 0
M  V30 1262 H 119.697 1.63803 -3.36332 0
M  V30 1263 H 121.03 2.17282 -4.41644 0
M  V30 1264 N 122.682 1.50554 0.465978 0
M  V30 1265 C 123.612 1.72722 1.57128 0
M  V30 1266 C 124.593 0.576294 1.6004 0
M  V30 1267 O 125.778 0.81598 1.76225 0
M  V30 1268 C 122.908 1.82605 2.95419 0
M  V30 1269 C 121.862 2.97835 3.07373 0
M  V30 1270 C 121.188 2.92867 4.47363 0
M  V30 1271 C 122.488 4.38265 2.84114 0
M  V30 1272 H 124.182 2.65267 1.38829 0
M  V30 1273 H 121.728 1.2765 0.666441 0
M  V30 1274 H 123.681 1.96698 3.72677 0
M  V30 1275 H 122.405 0.866858 3.14886 0
M  V30 1276 H 121.064 2.83401 2.3255 0
M  V30 1277 H 120.712 1.94783 4.63755 0
M  V30 1278 H 120.412 3.70227 4.56296 0
M  V30 1279 H 121.936 3.09015 5.26633 0
M  V30 1280 H 123.35 4.53198 3.51118 0
M  V30 1281 H 121.747 5.17115 3.04487 0
M  V30 1282 H 122.817 4.50281 1.7993 0
M  V30 1283 N 124.16 -0.719506 1.40217 0
M  V30 1284 C 125.408 -1.47641 1.3801 0
M  V30 1285 C 125.729 -1.94992 -0.018145 0
M  V30 1286 O 124.999 -1.70073 -0.972207 0
M  V30 1287 H 123.579 -0.547744 0.507923 0
M  V30 1288 H 126.241 -0.853187 1.75233 0
M  V30 1289 H 125.337 -2.35112 2.05253 0
M  V30 1290 N 125.638 -1.25649 -0.95132 0
M  V30 1291 C 126.887 -1.09988 -1.69073 0
M  V30 1292 C 127.2 0.358355 -1.92289 0
M  V30 1293 O 128.406 0.635466 -2.63958 0
M  V30 1294 C 126.862 -1.92012 -3.044 0
M  V30 1295 C 126.47 -3.42347 -2.88968 0
M  V30 1296 C 128.214 -1.8493 -3.82101 0
M  V30 1297 C 126.121 -4.16655 -4.19705 0
M  V30 1298 H 125.051 -0.407993 -0.63408 0
M  V30 1299 H 127.702 -1.49873 -1.05879 0
M  V30 1300 H 126.084 -1.44952 -3.68517 0
M  V30 1301 H 127.258 -3.97104 -2.33762 0
M  V30 1302 H 125.573 -3.50557 -2.24719 0
M  V30 1303 H 128.17 -2.37739 -4.78941 0
M  V30 1304 H 128.513 -0.817883 -4.08187 0
M  V30 1305 H 129.046 -2.29758 -3.2474 0
M  V30 1306 H 125.785 -5.20224 -3.98807 0
M  V30 1307 H 125.305 -3.66681 -4.74663 0
M  V30 1308 H 126.984 -4.24551 -4.88227 0
M  V30 1309 N 127.117 1.15442 -1.07289 0
M  V30 1310 C 128.027 2.23786 -0.704057 0
M  V30 1311 C 129.043 1.7166 0.284413 0
M  V30 1312 O 130.219 2.00972 0.131205 0
M  V30 1313 C 127.284 3.46535 -0.106792 0
M  V30 1314 C 126.345 4.13654 -1.14842 0
M  V30 1315 C 125.578 5.30544 -0.57956 0
M  V30 1316 O 125.801 5.67187 0.604585 0
M  V30 1317 O 124.735 5.87154 -1.32414 0
M  V30 1318 H 128.561 2.57664 -1.60757 0
M  V30 1319 H 126.146 1.23152 -0.845803 0
M  V30 1320 H 128.028 4.20804 0.224048 0
M  V30 1321 H 126.703 3.14407 0.770049 0
M  V30 1322 H 125.61 3.4131 -1.5316 0
M  V30 1323 H 126.943 4.49861 -1.99714 0
M  V30 1324 N 128.595 0.856903 1.32268 0
M  V30 1325 C 129.823 0.475439 2.01363 0
M  V30 1326 C 130.238 -0.928486 1.64392 0
M  V30 1327 O 129.595 -1.60624 0.866387 0
M  V30 1328 C 129.646 0.607545 3.56358 0
M  V30 1329 O 129.367 1.95617 3.92002 0
M  V30 1330 C 130.868 0.225382 4.42727 0
M  V30 1331 H 128.088 0.186636 0.644521 0
M  V30 1332 H 130.632 1.15446 1.68797 0
M  V30 1333 H 128.787 -0.0237719 3.87393 0
M  V30 1334 H 129.201 1.95455 4.86721 0
M  V30 1335 H 130.675 0.368813 5.50767 0
M  V30 1336 H 131.152 -0.834369 4.31202 0
M  V30 1337 H 131.758 0.831864 4.17085 0
M  V30 1338 N 130.073 -1.45103 0.615059 0
M  V30 1339 C 131.303 -2.06254 0.119596 0
M  V30 1340 C 131.711 -1.4591 -1.20445 0
M  V30 1341 O 131.054 -0.570384 -1.7462 0
M  V30 1342 C 131.116 -3.59396 -0.0865591 0
M  V30 1343 C 130.78 -4.42116 1.15683 0
M  V30 1344 C 131.777 -4.7662 2.07676 0
M  V30 1345 C 129.462 -4.82749 1.38775 0
M  V30 1346 C 131.456 -5.50622 3.21082 0
M  V30 1347 C 129.143 -5.56504 2.52481 0
M  V30 1348 C 130.141 -5.90358 3.43463 0
M  V30 1349 O 129.829 -6.62615 4.55189 0
M  V30 1350 H 129.561 -0.672423 0.0694512 0
M  V30 1351 H 132.115 -1.87219 0.844885 0
M  V30 1352 H 130.345 -3.76859 -0.866823 0
M  V30 1353 H 132.034 -4.02365 -0.534555 0
M  V30 1354 H 132.8 -4.4578 1.91063 0
M  V30 1355 H 128.679 -4.55829 0.688545 0
M  V30 1356 H 132.223 -5.76965 3.92119 0
M  V30 1357 H 128.12 -5.86759 2.69043 0
M  V30 1358 H 128.888 -6.81071 4.53966 0
M  V30 1359 N 131.551 -0.354651 -1.53558 0
M  V30 1360 C 132.498 0.496968 -2.25386 0
M  V30 1361 C 133.468 1.0865 -1.25636 0
M  V30 1362 O 134.653 1.12104 -1.54394 0
M  V30 1363 C 131.793 1.63637 -3.03837 0
M  V30 1364 C 130.906 1.07307 -4.18461 0
M  V30 1365 C 130.041 2.18068 -4.84376 0
M  V30 1366 C 129.08 1.59147 -5.91049 0
M  V30 1367 N 128.217 2.63695 -6.50699 0
M  V30 1368 H 133.057 -0.122075 -2.9775 0
M  V30 1369 H 130.594 -0.0720154 -1.46924 0
M  V30 1370 H 132.552 2.30734 -3.47589 0
M  V30 1371 H 131.182 2.22623 -2.33749 0
M  V30 1372 H 130.234 0.292708 -3.79272 0
M  V30 1373 H 131.546 0.602193 -4.95152 0
M  V30 1374 H 130.7 2.93007 -5.31255 0
M  V30 1375 H 129.439 2.68504 -4.07133 0
M  V30 1376 H 128.444 0.827175 -5.43542 0
M  V30 1377 H 129.669 1.09549 -6.70206 0
M  V30 1378 H 127.615 3.13365 -5.76315 0
M  V30 1379 H 127.532 2.21263 -7.22896 0
M  V30 1380 H 128.8 3.3837 -7.02229 0
M  V30 1381 N 133.029 1.57378 -0.0835403 0
M  V30 1382 C 134.275 1.94217 0.583733 0
M  V30 1383 C 134.608 0.964653 1.68547 0
M  V30 1384 O 133.883 -0.00422258 1.945 0
M  V30 1385 C 134.166 3.41253 1.14972 0
M  V30 1386 C 134.019 4.49768 0.0538277 0
M  V30 1387 C 135.338 3.89352 2.05166 0
M  V30 1388 H 132.457 0.706233 0.210724 0
M  V30 1389 H 135.099 1.89392 -0.1519 0
M  V30 1390 H 133.249 3.45496 1.77665 0
M  V30 1391 H 134.921 4.57641 -0.579851 0
M  V30 1392 H 133.164 4.29432 -0.614068 0
M  V30 1393 H 133.835 5.49817 0.490452 0
M  V30 1394 H 136.311 3.87189 1.52393 0
M  V30 1395 H 135.187 4.92822 2.41698 0
M  V30 1396 H 135.448 3.27973 2.96456 0
M  V30 1397 N 134.507 -0.190092 1.56449 0
M  V30 1398 C 135.455 -1.25501 1.95837 0
M  V30 1399 C 136.449 -1.4685 0.844485 0
M  V30 1400 O 137.655 -1.47651 1.02952 0
M  V30 1401 H 134.03 -0.421447 0.622805 0
M  V30 1402 H 136.001 -0.895821 2.84636 0
M  V30 1403 C 134.75 -2.59124 2.31841 0
M  V30 1404 H 134.073 -2.43514 3.17082 0
M  V30 1405 H 135.513 -3.32371 2.6326 0
M  V30 1406 C 133.972 -3.16488 1.15486 0
M  V30 1407 O 134.502 -3.99365 0.432535 0
M  V30 1408 N 132.708 -2.75305 0.930349 0
M  V30 1409 H 132.255 -2.08013 1.51948 0
M  V30 1410 H 132.213 -3.14024 0.153634 0
M  V30 1411 N 135.985 -1.50799 -0.457987 0
M  V30 1412 C 137.231 -1.62683 -1.21088 0
M  V30 1413 C 137.564 -0.332268 -1.91336 0
M  V30 1414 O 136.839 0.667043 -1.82704 0
M  V30 1415 C 137.122 -2.81615 -2.24422 0
M  V30 1416 C 136.975 -4.20989 -1.58392 0
M  V30 1417 C 138.294 -2.96085 -3.2561 0
M  V30 1418 H 135.413 -0.592087 -0.438864 0
M  V30 1419 H 138.055 -1.83225 -0.50286 0
M  V30 1420 H 136.205 -2.64231 -2.84806 0
M  V30 1421 H 137.877 -4.49994 -1.01504 0
M  V30 1422 H 136.12 -4.24641 -0.886704 0
M  V30 1423 H 136.791 -5.0016 -2.33547 0
M  V30 1424 H 139.267 -3.12042 -2.75262 0
M  V30 1425 H 138.143 -3.80902 -3.95228 0
M  V30 1426 H 138.404 -2.0726 -3.90507 0
M  V30 1427 N 137.463 0.71206 -1.40597 0
M  V30 1428 C 138.688 1.50617 -1.42581 0
M  V30 1429 C 139.113 1.88079 -0.0282102 0
M  V30 1430 O 138.471 1.53511 0.964579 0
M  V30 1431 C 138.519 2.7557 -2.3258 0
M  V30 1432 O 137.623 3.72414 -1.77148 0
M  V30 1433 H 136.964 0.453966 -0.484573 0
M  V30 1434 H 139.494 0.876649 -1.84868 0
M  V30 1435 H 139.504 3.2406 -2.47889 0
M  V30 1436 H 138.179 2.47639 -3.34138 0
M  V30 1437 H 136.756 3.31276 -1.71204 0
M  V30 1438 N 138.941 1.26152 0.944643 0
M  V30 1439 C 139.851 1.09176 2.07648 0
M  V30 1440 C 140.867 0.0261935 1.7398 0
M  V30 1441 O 142.043 0.229208 2.00091 0
M  V30 1442 C 139.108 0.722915 3.39079 0
M  V30 1443 C 138.169 1.86752 3.86552 0
M  V30 1444 C 137.402 1.51617 5.11711 0
M  V30 1445 O 137.625 0.416331 5.68879 0
M  V30 1446 O 136.559 2.34975 5.54139 0
M  V30 1447 H 140.385 2.0412 2.24875 0
M  V30 1448 H 137.97 1.05182 1.061 0
M  V30 1449 H 139.852 0.529787 4.18056 0
M  V30 1450 H 138.527 -0.197159 3.23099 0
M  V30 1451 H 137.434 2.11558 3.08535 0
M  V30 1452 H 138.767 2.76719 4.07047 0
M  V30 1453 N 140.419 -1.14872 1.07899 0
M  V30 1454 C 141.835 -1.37776 0.805606 0
M  V30 1455 C 142.035 -1.92743 -0.587555 0
M  V30 1456 O 141.091 -2.13678 -1.34528 0
M  V30 1457 C 142.404 -2.34361 1.88402 0
M  V30 1458 C 143.952 -2.48012 1.90942 0
M  V30 1459 C 144.427 -3.47893 2.97883 0
M  V30 1460 N 145.918 -3.55433 2.97021 0
M  V30 1461 C 146.653 -4.32553 3.76412 0
M  V30 1462 N 146.149 -5.12959 4.65666 0
M  V30 1463 N 147.942 -4.27697 3.64735 0
M  V30 1464 H 140.093 -0.775365 1.97742 0
M  V30 1465 H 142.356 -0.403521 0.857831 0
M  V30 1466 H 142.062 -2.01098 2.88535 0
M  V30 1467 H 141.936 -3.34206 1.74889 0
M  V30 1468 H 144.323 -2.8057 0.914579 0
M  V30 1469 H 144.404 -1.48147 2.08534 0
M  V30 1470 H 144.048 -3.16069 3.97571 0
M  V30 1471 H 143.978 -4.47527 2.77538 0
M  V30 1472 H 146.469 -2.98048 2.32326 0
M  V30 1473 H 146.782 -5.69065 5.22862 0
M  V30 1474 H 145.127 -5.12245 4.69712 0
M  V30 1475 H 148.318 -3.63949 2.94378 0
M  V30 1476 H 148.491 -4.8755 4.26848 0
M  V30 1477 N 141.898 -0.863906 -1.31812 0
M  V30 1478 C 142.828 -0.330843 -2.31144 0
M  V30 1479 C 143.809 0.575005 -1.60087 0
M  V30 1480 O 144.994 0.493304 -1.8783 0
M  V30 1481 C 142.124 0.47374 -3.44054 0
M  V30 1482 C 141.078 -0.338481 -4.26659 0
M  V30 1483 C 140.404 0.591412 -5.31419 0
M  V30 1484 C 141.704 -1.56926 -4.98168 0
M  V30 1485 H 143.398 -1.16086 -2.75979 0
M  V30 1486 H 140.944 -0.559657 -1.32679 0
M  V30 1487 H 142.897 0.857143 -4.12591 0
M  V30 1488 H 141.621 1.33721 -2.9797 0
M  V30 1489 H 140.28 -0.703754 -3.59782 0
M  V30 1490 H 139.928 1.45199 -4.81587 0
M  V30 1491 H 139.628 0.0519022 -5.87577 0
M  V30 1492 H 141.152 0.97179 -6.02817 0
M  V30 1493 H 142.566 -1.25764 -5.59336 0
M  V30 1494 H 140.963 -2.04739 -5.64094 0
M  V30 1495 H 142.033 -2.32544 -4.25501 0
M  V30 1496 N 143.376 1.44774 -0.622745 0
M  V30 1497 C 144.622 2.0242 -0.124083 0
M  V30 1498 C 144.955 1.4881 1.24777 0
M  V30 1499 O 144.23 0.668799 1.8264 0
M  V30 1500 C 144.513 3.59957 -0.101619 0
M  V30 1501 C 144.366 4.23867 -1.50521 0
M  V30 1502 C 145.685 4.36284 0.578272 0
M  V30 1503 H 142.804 0.735528 -0.0465645 0
M  V30 1504 H 145.446 1.72447 -0.797617 0
M  V30 1505 H 143.596 3.85623 0.471934 0
M  V30 1506 H 145.268 4.09336 -2.12701 0
M  V30 1507 H 143.511 3.81684 -2.06154 0
M  V30 1508 H 144.182 5.32843 -1.4416 0
M  V30 1509 H 146.658 4.16001 0.0906057 0
M  V30 1510 H 145.534 5.46004 0.563149 0
M  V30 1511 H 145.795 4.10271 1.64713 0
M  V30 1512 N 144.854 0.36279 1.53368 0
M  V30 1513 C 145.786 -0.519668 2.23231 0
M  V30 1514 C 146.799 -1.04844 1.24546 0
M  V30 1515 O 147.988 -0.955296 1.50786 0
M  V30 1516 C 145.088 -1.72995 2.9142 0
M  V30 1517 C 144.261 -1.33316 4.16588 0
M  V30 1518 C 143.32 -2.40521 4.68013 0
M  V30 1519 O 142.346 -2.03027 5.3176 0
M  V30 1520 N 143.548 -3.72065 4.45587 0
M  V30 1521 H 146.313 0.078751 2.99597 0
M  V30 1522 H 143.874 0.187833 1.60807 0
M  V30 1523 H 145.866 -2.44184 3.22733 0
M  V30 1524 H 144.436 -2.2353 2.18525 0
M  V30 1525 H 143.656 -0.451236 3.91609 0
M  V30 1526 H 144.944 -1.04432 4.97967 0
M  V30 1527 H 144.342 -4.05304 3.94646 0
M  V30 1528 H 142.899 -4.39366 4.81457 0
M  V30 1529 N 146.332 -1.57332 0.0918853 0
M  V30 1530 C 147.562 -1.98286 -0.580205 0
M  V30 1531 C 147.97 -0.969713 -1.6246 0
M  V30 1532 O 147.313 0.0493501 -1.83634 0
M  V30 1533 C 147.375 -3.35603 -1.28882 0
M  V30 1534 C 147.039 -4.55285 -0.395559 0
M  V30 1535 C 148.036 -5.18687 0.355002 0
M  V30 1536 C 145.721 -5.01314 -0.314556 0
M  V30 1537 C 147.715 -6.26484 1.17458 0
M  V30 1538 C 145.402 -6.08979 0.508677 0
M  V30 1539 C 146.4 -6.71429 1.2519 0
M  V30 1540 O 146.088 -7.77018 2.06151 0
M  V30 1541 H 145.82 -0.656678 -0.160466 0
M  V30 1542 H 148.374 -2.04721 0.16688 0
M  V30 1543 H 146.604 -3.25842 -2.08241 0
M  V30 1544 H 148.293 -3.61026 -1.85512 0
M  V30 1545 H 149.059 -4.84058 0.302134 0
M  V30 1546 H 144.938 -4.5247 -0.882697 0
M  V30 1547 H 148.482 -6.75159 1.75518 0
M  V30 1548 H 144.379 -6.4304 0.563037 0
M  V30 1549 H 145.147 -7.93991 1.98799 0
M  V30 1550 N 147.81 0.181792 -1.56548 0
M  V30 1551 C 149.056 0.901431 -1.81665 0
M  V30 1552 C 149.389 1.82347 -0.668075 0
M  V30 1553 O 148.664 1.91669 0.330615 0
M  V30 1554 C 148.947 1.70618 -3.17115 0
M  V30 1555 C 148.8 0.807964 -4.42484 0
M  V30 1556 C 150.119 2.67605 -3.49393 0
M  V30 1557 H 147.238 0.32627 -0.660846 0
M  V30 1558 H 149.88 0.168134 -1.89255 0
M  V30 1559 H 148.03 2.33133 -3.10775 0
M  V30 1560 H 149.702 0.19649 -4.60881 0
M  V30 1561 H 147.945 0.115411 -4.33646 0
M  V30 1562 H 148.616 1.40632 -5.33785 0
M  V30 1563 H 151.092 2.15218 -3.56118 0
M  V30 1564 H 149.968 3.20985 -4.45264 0
M  V30 1565 H 150.229 3.47298 -2.73563 0
M  V30 1566 N 149.288 1.51039 0.449983 0
M  V30 1567 C 150.235 1.71439 1.54523 0
M  V30 1568 C 151.205 0.555871 1.56522 0
M  V30 1569 O 152.39 0.788871 1.73728 0
M  V30 1570 C 149.53 1.83384 2.92343 0
M  V30 1571 C 148.643 3.10873 2.9997 0
M  V30 1572 C 147.778 3.13488 4.28834 0
M  V30 1573 C 146.817 4.35343 4.30282 0
M  V30 1574 N 145.954 4.35579 5.5065 0
M  V30 1575 H 150.794 2.64934 1.36433 0
M  V30 1576 H 148.331 1.31312 0.662982 0
M  V30 1577 H 150.289 1.88291 3.72293 0
M  V30 1578 H 148.919 0.933086 3.0902 0
M  V30 1579 H 147.971 3.15336 2.12761 0
M  V30 1580 H 149.283 4.00814 2.96901 0
M  V30 1581 H 148.437 3.17241 5.17149 0
M  V30 1582 H 147.176 2.21414 4.34543 0
M  V30 1583 H 146.181 4.3178 3.40362 0
M  V30 1584 H 147.406 5.28668 4.26248 0
M  V30 1585 H 145.352 3.46369 5.57104 0
M  V30 1586 H 145.269 5.19313 5.49409 0
M  V30 1587 H 146.537 4.43507 6.41032 0
M  V30 1588 N 150.766 -0.704594 1.40972 0
M  V30 1589 C 152.014 -1.46169 1.39568 0
M  V30 1590 C 152.335 -1.95 0.00253745 0
M  V30 1591 O 151.605 -1.71095 -0.954114 0
M  V30 1592 H 150.185 -0.542326 0.513704 0
M  V30 1593 H 152.847 -0.834553 1.76128 0
M  V30 1594 H 151.943 -2.32922 2.07735 0
M  V30 1595 N 152.244 -1.26651 -0.937939 0
M  V30 1596 C 153.191 -1.0849 -2.03712 0
M  V30 1597 C 154.161 0.011033 -1.66096 0
M  V30 1598 O 155.346 -0.149353 -1.90215 0
M  V30 1599 C 152.486 -0.72735 -3.37348 0
M  V30 1600 C 151.599 -1.89986 -3.87981 0
M  V30 1601 C 150.734 -1.48513 -5.10017 0
M  V30 1602 C 149.773 -2.62575 -5.5292 0
M  V30 1603 N 148.91 -2.21762 -6.66158 0
M  V30 1604 H 153.75 -2.02551 -2.18579 0
M  V30 1605 H 151.287 -1.00844 -1.07093 0
M  V30 1606 H 153.245 -0.50092 -4.14182 0
M  V30 1607 H 151.875 0.176298 -3.22318 0
M  V30 1608 H 150.927 -2.23913 -3.07518 0
M  V30 1609 H 152.239 -2.75586 -4.15757 0
M  V30 1610 H 151.393 -1.21934 -5.94321 0
M  V30 1611 H 150.132 -0.60009 -4.83994 0
M  V30 1612 H 149.137 -2.8988 -4.67172 0
M  V30 1613 H 150.362 -3.51685 -5.80943 0
M  V30 1614 H 148.308 -1.35696 -6.41812 0
M  V30 1615 H 148.225 -3.00903 -6.93537 0
M  V30 1616 H 149.493 -1.98403 -7.53828 0
M  V30 1617 N 153.722 1.14298 -1.08507 0
M  V30 1618 C 154.95 1.89219 -0.836876 0
M  V30 1619 C 155.365 1.78638 0.611054 0
M  V30 1620 O 154.722 1.14643 1.41998 0
M  V30 1621 C 154.773 3.39158 -1.25116 0
M  V30 1622 O 154.494 3.49449 -2.64229 0
M  V30 1623 C 155.995 4.31073 -1.03398 0
M  V30 1624 H 153.215 0.599328 -0.301739 0
M  V30 1625 H 155.759 1.44746 -1.44461 0
M  V30 1626 H 153.914 3.81251 -0.687514 0
M  V30 1627 H 154.328 4.42589 -2.81452 0
M  V30 1628 H 155.802 5.34646 -1.37323 0
M  V30 1629 H 156.279 4.3919 0.0289259 0
M  V30 1630 H 156.885 3.94738 -1.58311 0
M  V30 1631 N 155.201 0.870884 1.31352 0
M  V30 1632 C 156.431 0.496049 2.00557 0
M  V30 1633 C 156.839 -0.916241 1.65534 0
M  V30 1634 O 156.182 -1.61188 0.881134 0
M  V30 1635 C 156.244 0.574418 3.54881 0
M  V30 1636 C 155.908 1.94849 4.1338 0
M  V30 1637 C 156.905 2.91611 4.30417 0
M  V30 1638 C 154.59 2.25005 4.49086 0
M  V30 1639 C 156.584 4.16672 4.82352 0
M  V30 1640 C 154.271 3.50315 5.00722 0
M  V30 1641 C 155.269 4.45964 5.17306 0
M  V30 1642 O 154.957 5.69052 5.67833 0
M  V30 1643 H 154.689 0.191664 0.64826 0
M  V30 1644 H 157.243 1.17409 1.68536 0
M  V30 1645 H 155.473 -0.160549 3.86367 0
M  V30 1646 H 157.162 0.212879 4.05341 0
M  V30 1647 H 157.928 2.69622 4.03149 0
M  V30 1648 H 153.807 1.51332 4.35453 0
M  V30 1649 H 157.351 4.91336 4.95211 0
M  V30 1650 H 153.248 3.72147 5.27424 0
M  V30 1651 H 154.016 5.71236 5.86201 0
M  V30 1652 N 156.679 -1.44442 0.630414 0
M  V30 1653 C 158.09 -1.85434 0.217063 0
M  V30 1654 C 158.441 -1.52748 -1.23136 0
M  V30 1655 O 157.566 -0.965205 -1.93682 0
M  V30 1656 C 158.161 -3.36581 0.387168 0
M  V30 1657 C 156.72 -3.76389 0.0283297 0
M  V30 1658 C 155.867 -2.68296 0.700889 0
M  V30 1659 H 158.818 -1.34919 0.83562 0
M  V30 1660 H 158.839 -3.78657 -0.374086 0
M  V30 1661 H 158.351 -3.60339 1.44144 0
M  V30 1662 H 156.452 -3.58246 -1.02423 0
M  V30 1663 H 156.565 -4.77095 0.437892 0
M  V30 1664 H 154.929 -2.54335 0.136267 0
M  V30 1665 H 155.712 -2.94887 1.75774 0
M  V30 1666 N 158.157 -0.370918 -1.53173 0
M  V30 1667 C 159.404 0.217102 -2.01333 0
M  V30 1668 C 159.732 1.48338 -1.25802 0
M  V30 1669 O 158.987 1.92698 -0.34146 0
M  V30 1670 C 159.286 0.549696 -3.53147 0
M  V30 1671 C 158.952 -0.622872 -4.46577 0
M  V30 1672 C 157.614 -0.944595 -4.71838 0
M  V30 1673 C 159.966 -1.40819 -5.01816 0
M  V30 1674 C 157.294 -2.05351 -5.49589 0
M  V30 1675 C 159.646 -2.50757 -5.80778 0
M  V30 1676 C 158.31 -2.83458 -6.04324 0
M  V30 1677 H 157.58 0.0794431 -0.736729 0
M  V30 1678 H 160.227 -0.504481 -1.84736 0
M  V30 1679 H 158.532 1.35237 -3.6772 0
M  V30 1680 H 160.229 1.017 -3.87889 0
M  V30 1681 H 156.819 -0.36209 -4.27068 0
M  V30 1682 H 161.003 -1.17289 -4.82242 0
M  V30 1683 H 156.259 -2.3108 -5.6605 0
M  V30 1684 H 160.433 -3.12022 -6.22588 0
M  V30 1685 H 158.06 -3.69508 -6.64355 0
M  V30 1686 N 159.635 1.57281 -0.100228 0
M  V30 1687 C 161.051 1.57527 0.256416 0
M  V30 1688 C 161.251 1.11173 1.68056 0
M  V30 1689 O 160.307 0.79053 2.39806 0
M  V30 1690 C 161.62 3.00673 0.0401747 0
M  V30 1691 C 163.168 3.12815 0.107528 0
M  V30 1692 C 163.643 4.57929 -0.0807834 0
M  V30 1693 N 165.134 4.63193 -0.0261207 0
M  V30 1694 C 165.869 5.73212 -0.146999 0
M  V30 1695 N 165.365 6.92047 -0.322999 0
M  V30 1696 N 167.158 5.62031 -0.0879044 0
M  V30 1697 H 159.309 1.85718 -1.03065 0
M  V30 1698 H 161.572 0.857446 -0.404339 0
M  V30 1699 H 161.278 3.38804 -0.943649 0
M  V30 1700 H 161.152 3.69042 0.780262 0
M  V30 1701 H 163.539 2.74554 1.08186 0
M  V30 1702 H 163.62 2.47028 -0.664134 0
M  V30 1703 H 163.264 4.96886 -1.05201 0
M  V30 1704 H 163.194 5.21783 0.710635 0
M  V30 1705 H 165.685 3.77748 0.107161 0
M  V30 1706 H 165.998 7.7173 -0.406608 0
M  V30 1707 H 164.343 6.94074 -0.358733 0
M  V30 1708 H 167.534 4.68075 0.048498 0
M  V30 1709 H 167.707 6.47734 -0.185557 0
M  V30 1710 N 161.113 -0.173488 1.56642 0
M  V30 1711 C 162.361 -0.888706 1.81512 0
M  V30 1712 C 162.682 -1.82875 0.676872 0
M  V30 1713 O 161.952 -1.93536 -0.303414 0
M  V30 1714 H 160.532 -0.331164 0.669582 0
M  V30 1715 H 163.194 -0.173823 1.94123 0
M  V30 1716 H 162.29 -1.46691 2.75478 0
M  V30 1717 N 162.591 -1.51276 -0.441967 0
M  V30 1718 C 163.554 -1.7167 -1.51862 0
M  V30 1719 C 164.554 -0.586793 -1.49711 0
M  V30 1720 O 165.744 -0.854276 -1.51815 0
M  V30 1721 C 162.876 -1.76889 -2.91416 0
M  V30 1722 H 164.069 -2.67754 -1.35084 0
M  V30 1723 H 161.622 -1.41196 -0.670333 0
M  V30 1724 H 162.357 -0.826026 -3.13604 0
M  V30 1725 H 162.142 -2.59001 -2.94382 0
M  V30 1726 H 163.632 -1.94522 -3.69528 0
M  V30 1727 N 164.069 0.697108 -1.41344 0
M  V30 1728 C 165.316 1.45714 -1.40619 0
M  V30 1729 C 165.644 1.94494 -0.0147907 0
M  V30 1730 O 164.899 1.69794 0.973066 0
M  V30 1731 C 165.198 2.68553 -2.35826 0
M  V30 1732 C 164.864 2.38438 -3.82698 0
M  V30 1733 C 163.526 2.29936 -4.22709 0
M  V30 1734 C 165.878 2.13567 -4.75435 0
M  V30 1735 C 163.206 1.94656 -5.53467 0
M  V30 1736 C 165.558 1.79797 -6.06511 0
M  V30 1737 C 164.222 1.69789 -6.45545 0
M  V30 1738 H 163.492 0.533206 -0.51456 0
M  V30 1739 H 166.139 0.796901 -1.74131 0
M  V30 1740 H 164.444 3.39503 -1.95563 0
M  V30 1741 H 166.141 3.2669 -2.32539 0
M  V30 1742 H 162.731 2.4595 -3.51008 0
M  V30 1743 H 166.915 2.19082 -4.45328 0
M  V30 1744 H 162.171 1.8546 -5.82593 0
M  V30 1745 H 166.345 1.59572 -6.77872 0
M  V30 1746 H 163.972 1.4222 -7.46778 0
M  V30 1747 N 165.547 1.27147 0.931209 0
M  V30 1748 C 166.958 1.12044 1.49342 0
M  V30 1749 C 167.309 -0.295795 1.93957 0
M  V30 1750 O 166.434 -1.18835 1.80852 0
M  V30 1751 C 167.029 2.02781 2.71414 0
M  V30 1752 C 165.588 1.91794 3.2387 0
M  V30 1753 C 164.735 1.95543 1.96617 0
M  V30 1754 H 167.686 1.40091 0.745672 0
M  V30 1755 H 167.707 1.58156 3.46074 0
M  V30 1756 H 167.219 3.05848 2.38911 0
M  V30 1757 H 165.32 0.916992 3.6114 0
M  V30 1758 H 165.433 2.77852 3.90302 0
M  V30 1759 H 163.797 1.39722 2.12955 0
M  V30 1760 H 164.58 3.00259 1.66432 0
M  V30 1761 N 167.025 -1.13721 1.09112 0
M  V30 1762 C 168.436 -1.6648 0.845068 0
M  V30 1763 C 168.787 -1.85911 -0.62701 0
M  V30 1764 O 167.912 -1.57556 -1.48341 0
M  V30 1765 C 168.507 -3.02413 1.52748 0
M  V30 1766 C 167.066 -3.52176 1.32849 0
M  V30 1767 C 166.213 -2.27492 1.58564 0
M  V30 1768 H 169.164 -0.976872 1.25072 0
M  V30 1769 H 169.185 -3.68223 0.958752 0
M  V30 1770 H 168.697 -2.88238 2.59885 0
M  V30 1771 H 166.798 -3.7156 0.278137 0
M  V30 1772 H 166.911 -4.32499 2.0611 0
M  V30 1773 H 165.275 -2.33923 1.00758 0
M  V30 1774 H 166.058 -2.15886 2.66924 0
M  V30 1775 N 168.503 -0.877838 -1.30888 0
M  V30 1776 C 169.749 -0.493426 -1.96706 0
M  V30 1777 C 170.082 0.953504 -1.6918 0
M  V30 1778 O 169.357 1.67266 -0.992594 0
M  V30 1779 C 169.64 -0.760429 -3.51979 0
M  V30 1780 C 169.493 -2.25747 -3.89048 0
M  V30 1781 C 170.812 -0.232148 -4.39487 0
M  V30 1782 H 167.931 -0.180746 -0.714493 0
M  V30 1783 H 170.573 -1.10052 -1.54882 0
M  V30 1784 H 168.723 -0.243715 -3.87735 0
M  V30 1785 H 170.395 -2.84204 -3.63354 0
M  V30 1786 H 168.638 -2.72694 -3.37373 0
M  V30 1787 H 169.309 -2.39491 -4.97341 0
M  V30 1788 H 171.785 -0.674314 -4.106 0
M  V30 1789 H 170.661 -0.448355 -5.47066 0
M  V30 1790 H 170.922 0.866297 -4.33529 0
M  V30 1791 N 169.982 1.44106 -0.638065 0
M  V30 1792 C 171.228 2.02815 -0.15409 0
M  V30 1793 C 171.583 1.49342 1.21304 0
M  V30 1794 O 170.876 0.670699 1.79478 0
M  V30 1795 C 171.07 3.5729 -0.0887327 0
M  V30 1796 C 170.899 4.2575 -1.44799 0
M  V30 1797 C 169.669 4.62443 -2.03653 0
M  V30 1798 C 171.867 4.55746 -2.38327 0
M  V30 1799 N 169.849 5.15903 -3.32741 0
M  V30 1800 C 171.22 5.10364 -3.52036 0
M  V30 1801 C 173.275 4.37703 -2.3732 0
M  V30 1802 C 171.978 5.48837 -4.64941 0
M  V30 1803 C 174.004 4.77229 -3.49294 0
M  V30 1804 C 173.366 5.31966 -4.61726 0
M  V30 1805 H 169.465 0.775519 -0.100466 0
M  V30 1806 H 172.049 1.755 -0.843071 0
M  V30 1807 H 170.22 3.84201 0.569548 0
M  V30 1808 H 171.952 4.02671 0.404711 0
M  V30 1809 H 168.707 4.46987 -1.56523 0
M  V30 1810 H 169.131 5.47102 -3.98758 0
M  V30 1811 H 173.773 3.94671 -1.51641 0
M  V30 1812 H 171.491 5.9082 -5.51323 0
M  V30 1813 H 175.077 4.64976 -3.49698 0
M  V30 1814 H 173.957 5.61986 -5.46939 0
M  V30 1815 N 171.46 0.379036 1.52974 0
M  V30 1816 C 172.408 -0.476033 2.27677 0
M  V30 1817 C 173.402 -1.0719 1.31174 0
M  V30 1818 O 174.608 -1.01355 1.48752 0
M  V30 1819 H 170.983 -0.172255 0.732006 0
M  V30 1820 H 172.954 0.175615 2.97883 0
M  V30 1821 C 171.703 -1.5967 3.0887 0
M  V30 1822 H 171.026 -1.1475 3.82978 0
M  V30 1823 H 172.466 -2.16943 3.64296 0
M  V30 1824 C 170.925 -2.54682 2.20542 0
M  V30 1825 O 171.455 -3.57836 1.82527 0
M  V30 1826 N 169.661 -2.24183 1.84907 0
M  V30 1827 H 169.208 -1.40333 2.1602 0
M  V30 1828 H 169.166 -2.88006 1.26096 0
M  V30 1829 N 172.938 -1.57226 0.108567 0
M  V30 1830 C 174.349 -1.8195 -0.418464 0
M  V30 1831 C 174.7 -1.02508 -1.67292 0
M  V30 1832 O 173.825 -0.258496 -2.14851 0
M  V30 1833 C 174.42 -3.30028 -0.765979 0
M  V30 1834 C 172.979 -3.55469 -1.23769 0
M  V30 1835 C 172.126 -2.7625 -0.241106 0
M  V30 1836 H 175.077 -1.55149 0.33384 0
M  V30 1837 H 175.098 -3.44086 -1.62434 0
M  V30 1838 H 174.61 -3.87821 0.147219 0
M  V30 1839 H 172.711 -3.03022 -2.16814 0
M  V30 1840 H 172.824 -4.6408 -1.19022 0
M  V30 1841 H 171.188 -2.44133 -0.72602 0
M  V30 1842 H 171.971 -3.36797 0.665007 0
M  V30 1843 N 174.416 0.165178 -1.56732 0
M  V30 1844 C 175.665 0.879143 -1.81532 0
M  V30 1845 C 175.978 1.83144 -0.686842 0
M  V30 1846 O 177.184 2.58823 -0.819944 0
M  V30 1847 C 175.64 1.61388 -3.21686 0
M  V30 1848 C 175.248 0.704904 -4.4242 0
M  V30 1849 C 176.992 2.3157 -3.55774 0
M  V30 1850 C 174.899 1.44022 -5.73595 0
M  V30 1851 H 173.829 0.332033 -0.676957 0
M  V30 1852 H 176.48 0.132008 -1.83025 0
M  V30 1853 H 174.862 2.40599 -3.14529 0
M  V30 1854 H 176.036 -0.0506815 -4.60772 0
M  V30 1855 H 174.351 0.112419 -4.16248 0
M  V30 1856 H 176.948 2.8719 -4.51028 0
M  V30 1857 H 177.291 3.07201 -2.8095 0
M  V30 1858 H 177.824 1.59297 -3.64513 0
M  V30 1859 H 174.563 0.72612 -6.51466 0
M  V30 1860 H 174.083 2.16898 -5.5921 0
M  V30 1861 H 175.762 1.98606 -6.15764 0
M  V30 1862 N 175.894 1.51508 0.433938 0
M  V30 1863 C 176.857 1.72473 1.50949 0
M  V30 1864 C 177.857 0.594725 1.49398 0
M  V30 1865 O 179.047 0.862315 1.5136 0
M  V30 1866 C 176.179 1.78431 2.90474 0
M  V30 1867 H 177.372 2.68467 1.33662 0
M  V30 1868 H 174.925 1.41549 0.662836 0
M  V30 1869 H 175.66 0.842645 3.13161 0
M  V30 1870 H 175.445 2.60558 2.93005 0
M  V30 1871 H 176.935 1.96479 3.68491 0
M  V30 1872 N 177.372 -0.689602 1.41712 0
M  V30 1873 C 178.602 -1.47613 1.44548 0
M  V30 1874 C 179.01 -1.89132 0.0509034 0
M  V30 1875 O 178.353 -1.57741 -0.94146 0
M  V30 1876 C 178.415 -2.76596 2.2964 0
M  V30 1877 C 178.079 -2.57245 3.77722 0
M  V30 1878 C 179.076 -2.22804 4.69739 0
M  V30 1879 C 176.761 -2.727 4.2183 0
M  V30 1880 C 178.755 -2.04064 6.03851 0
M  V30 1881 C 176.442 -2.53576 5.56006 0
M  V30 1882 C 177.44 -2.1931 6.46832 0
M  V30 1883 O 177.128 -2.00359 7.78532 0
M  V30 1884 H 176.86 -0.461227 0.494212 0
M  V30 1885 H 179.414 -0.856045 1.86711 0
M  V30 1886 H 177.644 -3.41033 1.82301 0
M  V30 1887 H 179.333 -3.38424 2.24107 0
M  V30 1888 H 180.099 -2.10473 4.36951 0
M  V30 1889 H 175.978 -2.98353 3.51435 0
M  V30 1890 H 179.522 -1.77241 6.74708 0
M  V30 1891 H 175.419 -2.65499 5.88371 0
M  V30 1892 H 176.187 -2.15075 7.89737 0
M  V30 1893 N 178.85 -1.27639 -0.924453 0
M  V30 1894 C 179.78 -1.13166 -2.04244 0
M  V30 1895 C 180.761 -0.032256 -1.70069 0
M  V30 1896 O 181.946 -0.207328 -1.9309 0
M  V30 1897 C 179.076 -0.781496 -3.38393 0
M  V30 1898 C 178.03 -1.83449 -3.86692 0
M  V30 1899 C 177.356 -1.33822 -5.17683 0
M  V30 1900 C 178.656 -3.23917 -4.09726 0
M  V30 1901 H 180.35 -2.06689 -2.1661 0
M  V30 1902 H 177.896 -0.995136 -1.04082 0
M  V30 1903 H 179.849 -0.667057 -4.16087 0
M  V30 1904 H 178.573 0.189439 -3.2605 0
M  V30 1905 H 177.232 -1.93789 -3.11193 0
M  V30 1906 H 176.88 -0.35665 -5.01734 0
M  V30 1907 H 176.58 -2.04224 -5.50968 0
M  V30 1908 H 178.104 -1.23679 -5.97943 0
M  V30 1909 H 179.518 -3.16559 -4.77978 0
M  V30 1910 H 177.915 -3.92059 -4.54324 0
M  V30 1911 H 178.985 -3.68729 -3.14908 0
M  V30 1912 N 180.328 1.1314 -1.09713 0
M  V30 1913 C 181.605 1.80762 -0.747302 0
M  V30 1914 C 181.985 1.96663 0.767265 0
M  V30 1915 O 181.333 1.53706 1.69076 0
M  V30 1916 C 181.543 3.15606 -1.48975 0
M  V30 1917 C 182.891 3.90914 -1.65746 0
M  V30 1918 O 183.915 3.25239 -1.45251 0
M  V30 1919 O 182.774 5.08718 -1.9967 0
M  V30 1920 H 179.868 0.782103 -0.268782 0
M  V30 1921 H 182.414 1.20041 -1.19951 0
M  V30 1922 H 181.186 2.99278 -2.52088 0
M  V30 1923 H 180.809 3.84029 -1.02991 0
M  V30 1924 N 181.806 0.884767 1.30421 0
M  V30 1925 C 183.036 0.517293 2.00019 0
M  V30 1926 C 183.444 -0.898632 1.66497 0
M  V30 1927 O 182.787 -1.60245 0.898181 0
M  V30 1928 C 182.849 0.612025 3.54252 0
M  V30 1929 C 182.513 1.99222 4.1129 0
M  V30 1930 C 183.51 2.9616 4.273 0
M  V30 1931 C 181.195 2.29755 4.46674 0
M  V30 1932 C 183.189 4.21764 4.77906 0
M  V30 1933 C 180.876 3.55606 4.96979 0
M  V30 1934 C 181.874 4.51425 5.12547 0
M  V30 1935 O 181.562 5.75043 5.61766 0
M  V30 1936 H 181.294 0.198529 0.64619 0
M  V30 1937 H 183.848 1.1919 1.67281 0
M  V30 1938 H 182.078 -0.119561 3.86515 0
M  V30 1939 H 183.767 0.255859 4.05093 0
M  V30 1940 H 184.533 2.73882 4.00267 0
M  V30 1941 H 180.412 1.55942 4.33824 0
M  V30 1942 H 183.956 4.96561 4.89972 0
M  V30 1943 H 179.853 3.7772 5.23448 0
M  V30 1944 H 180.621 5.77422 5.80109 0
M  V30 1945 N 183.284 -1.43765 0.645699 0
M  V30 1946 C 184.232 -2.32516 -0.0624849 0
M  V30 1947 C 185.226 -1.48183 -0.820855 0
M  V30 1948 O 186.432 -1.64439 -0.732106 0
M  V30 1949 H 182.807 -0.750989 -0.0389864 0
M  V30 1950 H 184.778 -2.89979 0.703892 0
M  V30 1951 C 183.527 -3.32389 -1.02044 0
M  V30 1952 H 182.85 -3.97301 -0.446312 0
M  V30 1953 H 184.29 -3.97138 -1.48517 0
M  V30 1954 C 182.749 -2.62416 -2.11281 0
M  V30 1955 O 183.279 -2.434 -3.19561 0
M  V30 1956 N 181.485 -2.21913 -1.87624 0
M  V30 1957 H 181.032 -2.37578 -0.995703 0
M  V30 1958 H 180.99 -1.75424 -2.6091 0
M  V30 1959 N 184.763 -0.387143 -1.52771 0
M  V30 1960 C 185.711 0.463953 -2.27926 0
M  V30 1961 C 186.705 1.06493 -1.31741 0
M  V30 1962 O 187.911 1.00565 -1.49287 0
M  V30 1963 H 184.286 0.16837 -0.732909 0
M  V30 1964 H 186.257 -0.19141 -2.97785 0
M  V30 1965 C 185.006 1.5803 -3.09713 0
M  V30 1966 H 184.329 1.12718 -3.83581 0
M  V30 1967 H 185.769 2.15008 -3.65442 0
M  V30 1968 C 184.228 2.53509 -2.2189 0
M  V30 1969 O 184.758 3.56863 -1.84422 0
M  V30 1970 N 182.964 2.23199 -1.86093 0
M  V30 1971 H 182.511 1.39185 -2.16761 0
M  V30 1972 H 182.469 2.87333 -1.27621 0
M  V30 1973 N 186.241 1.57166 -0.116904 0
M  V30 1974 C 187.171 2.18222 0.830759 0
M  V30 1975 C 188.152 1.12167 1.27877 0
M  V30 1976 O 189.337 1.40394 1.34176 0
M  V30 1977 C 186.467 2.77996 2.08172 0
M  V30 1978 C 185.421 3.89614 1.77157 0
M  V30 1979 C 184.747 4.36187 3.09265 0
M  V30 1980 C 186.047 5.1181 1.04151 0
M  V30 1981 H 187.741 2.97664 0.321992 0
M  V30 1982 H 185.287 1.4318 0.153434 0
M  V30 1983 H 187.24 3.19366 2.74924 0
M  V30 1984 H 185.964 1.9584 2.6137 0
M  V30 1985 H 184.623 3.48816 1.12796 0
M  V30 1986 H 184.271 3.50893 3.60393 0
M  V30 1987 H 183.971 5.11455 2.89288 0
M  V30 1988 H 185.495 4.80207 3.77139 0
M  V30 1989 H 186.909 5.50214 1.61052 0
M  V30 1990 H 185.306 5.92648 0.942762 0
M  V30 1991 H 186.376 4.84892 0.0279022 0
M  V30 1992 N 187.719 -0.156864 1.56817 0
M  V30 1993 C 188.965 -0.867645 1.83966 0
M  V30 1994 C 189.32 -1.79233 0.699511 0
M  V30 1995 O 188.613 -1.89186 -0.303176 0
M  V30 1996 C 188.807 -1.68737 3.1506 0
M  V30 1997 C 188.636 -0.843548 4.41718 0
M  V30 1998 C 187.406 -0.512994 5.02689 0
M  V30 1999 C 189.604 -0.178416 5.1399 0
M  V30 2000 N 187.586 0.345456 6.12927 0
M  V30 2001 C 188.957 0.540586 6.17639 0
M  V30 2002 C 191.012 -0.0980696 4.97803 0
M  V30 2003 C 189.715 1.33233 7.06853 0
M  V30 2004 C 191.741 0.680387 5.87473 0
M  V30 2005 C 191.103 1.3877 6.90596 0
M  V30 2006 H 187.202 -0.295642 0.723961 0
M  V30 2007 H 189.786 -0.13365 1.94241 0
M  V30 2008 H 187.957 -2.39268 3.0595 0
M  V30 2009 H 189.689 -2.34056 3.30151 0
M  V30 2010 H 186.444 -0.846476 4.65974 0
M  V30 2011 H 186.868 0.765415 6.72659 0
M  V30 2012 H 191.51 -0.630562 4.18071 0
M  V30 2013 H 189.228 1.87612 7.8602 0
M  V30 2014 H 192.814 0.744415 5.77018 0
M  V30 2015 H 191.694 1.9804 7.58782 0
M  V30 2016 N 189.197 -1.51736 -0.425897 0
M  V30 2017 C 190.613 -1.40166 -0.76326 0
M  V30 2018 C 190.813 -0.492962 -1.95377 0
M  V30 2019 O 189.869 0.0475815 -2.52455 0
M  V30 2020 C 191.182 -2.82403 -1.03291 0
M  V30 2021 C 192.73 -2.91632 -1.13665 0
M  V30 2022 C 193.205 -4.34801 -1.43916 0
M  V30 2023 N 194.696 -4.3796 -1.50816 0
M  V30 2024 C 195.431 -5.4578 -1.75817 0
M  V30 2025 N 194.927 -6.63744 -1.98534 0
M  V30 2026 N 196.72 -5.33274 -1.77694 0
M  V30 2027 H 188.871 -2.09361 0.358 0
M  V30 2028 H 191.134 -0.942941 0.0978094 0
M  V30 2029 H 190.84 -3.50943 -0.230696 0
M  V30 2030 H 190.714 -3.22428 -1.95754 0
M  V30 2031 H 193.101 -2.23284 -1.92947 0
M  V30 2032 H 193.182 -2.55088 -0.190756 0
M  V30 2033 H 192.826 -5.03703 -0.65157 0
M  V30 2034 H 192.756 -4.68868 -2.39729 0
M  V30 2035 H 195.247 -3.52919 -1.35118 0
M  V30 2036 H 195.56 -7.41704 -2.17013 0
M  V30 2037 H 193.905 -6.66839 -1.95832 0
M  V30 2038 H 197.096 -4.40098 -1.59473 0
M  V30 2039 H 197.269 -6.1738 -1.9684 0
M  V30 2040 N 190.675 0.682077 -1.42076 0
M  V30 2041 C 191.903 1.47057 -1.4554 0
M  V30 2042 C 192.318 1.8869 -0.0645779 0
M  V30 2043 O 191.675 1.57666 0.919115 0
M  V30 2044 C 191.726 2.72442 -2.37609 0
M  V30 2045 O 191.447 2.32559 -3.71279 0
M  V30 2046 C 192.948 3.66069 -2.50017 0
M  V30 2047 H 190.168 0.452737 -0.495248 0
M  V30 2048 H 192.712 0.838695 -1.8651 0
M  V30 2049 H 190.867 3.31835 -1.9991 0
M  V30 2050 H 191.281 3.13475 -4.20516 0
M  V30 2051 H 192.755 4.50792 -3.18576 0
M  V30 2052 H 193.232 4.11476 -1.53572 0
M  V30 2053 H 193.838 3.12572 -2.88407 0
M  V30 2054 N 192.153 1.28127 0.917671 0
M  V30 2055 C 193.402 1.14432 1.66097 0
M  V30 2056 C 193.715 -0.307247 1.93172 0
M  V30 2057 O 194.921 -0.565259 2.65551 0
M  V30 2058 C 193.377 2.00015 2.99202 0
M  V30 2059 C 192.985 3.49889 2.79789 0
M  V30 2060 C 194.729 1.94996 3.77064 0
M  V30 2061 C 192.636 4.27636 4.08511 0
M  V30 2062 H 191.566 0.424662 0.62304 0
M  V30 2063 H 194.217 1.52628 1.01868 0
M  V30 2064 H 192.599 1.54672 3.64544 0
M  V30 2065 H 193.773 4.03162 2.23152 0
M  V30 2066 H 192.088 3.56392 2.15345 0
M  V30 2067 H 194.685 2.50354 4.72469 0
M  V30 2068 H 195.028 0.925819 4.05875 0
M  V30 2069 H 195.561 2.38287 3.18534 0
M  V30 2070 H 192.3 5.30615 3.84874 0
M  V30 2071 H 191.82 3.79137 4.64774 0
M  V30 2072 H 193.499 4.37346 4.76799 0
M  V30 2073 N 193.631 -1.12557 1.10312 0
M  V30 2074 C 194.908 -1.80363 0.756878 0
M  V30 2075 C 195.288 -1.97067 -0.756824 0
M  V30 2076 O 194.636 -1.54601 -1.68259 0
M  V30 2077 C 194.846 -3.14812 1.50647 0
M  V30 2078 C 196.194 -3.90029 1.67817 0
M  V30 2079 O 197.218 -3.24464 1.46974 0
M  V30 2080 O 196.077 -5.07652 2.02365 0
M  V30 2081 H 193.171 -0.780667 0.272926 0
M  V30 2082 H 195.717 -1.19404 1.20586 0
M  V30 2083 H 194.489 -2.97936 2.53672 0
M  V30 2084 H 194.112 -3.83478 1.05026 0
M  V30 2085 N 195.109 -0.891671 -1.2995 0
M  V30 2086 C 196.057 -0.353066 -2.29905 0
M  V30 2087 C 197.051 0.543509 -1.60444 0
M  V30 2088 O 198.257 0.4272 -1.74857 0
M  V30 2089 H 194.632 -0.095531 -0.745907 0
M  V30 2090 H 196.603 -1.20961 -2.72784 0
M  V30 2091 C 195.352 0.411475 -3.45257 0
M  V30 2092 H 194.675 -0.269182 -3.98893 0
M  V30 2093 H 196.115 0.753328 -4.17254 0
M  V30 2094 C 194.574 1.6111 -2.9588 0
M  V30 2095 O 195.104 2.71045 -2.96475 0
M  V30 2096 N 193.31 1.45054 -2.51809 0
M  V30 2097 H 192.857 0.556175 -2.51524 0
M  V30 2098 H 192.815 2.25453 -2.1913 0
M  V30 2099 N 196.587 1.43421 -0.653314 0
M  V30 2100 C 197.52 2.2803 0.0879804 0
M  V30 2101 C 198.498 1.39833 0.82979 0
M  V30 2102 O 199.682 1.69275 0.829341 0
M  V30 2103 C 196.809 3.19247 1.13132 0
M  V30 2104 C 195.855 4.23704 0.487546 0
M  V30 2105 S 196.688 5.30377 -0.738961 0
M  V30 2106 C 197.844 6.25162 0.30384 0
M  V30 2107 H 198.077 2.90554 -0.629739 0
M  V30 2108 H 195.61 1.47934 -0.442156 0
M  V30 2109 H 197.568 3.72346 1.72827 0
M  V30 2110 H 196.229 2.55901 1.82136 0
M  V30 2111 H 195.422 4.87631 1.27407 0
M  V30 2112 H 195.024 3.73983 -0.0352915 0
M  V30 2113 H 197.316 6.67321 1.17 0
M  V30 2114 H 198.259 7.07463 -0.300402 0
M  V30 2115 H 198.667 5.60864 0.63969 0
M  V30 2116 N 198.065 0.39524 1.52563 0
M  V30 2117 C 199.313 -0.184678 2.01254 0
M  V30 2118 C 199.634 -1.46822 1.28329 0
M  V30 2119 O 198.904 -1.91666 0.405094 0
M  V30 2120 H 197.484 -0.0712355 0.743596 0
M  V30 2121 H 200.146 0.528293 1.87603 0
M  V30 2122 H 199.242 -0.390681 3.09645 0
M  V30 2123 N 199.544 -1.57102 0.125237 0
M  V30 2124 C 200.491 -2.15641 -0.822655 0
M  V30 2125 C 201.461 -1.08313 -1.25927 0
M  V30 2126 O 202.646 -1.36251 -1.33567 0
M  V30 2127 C 199.786 -2.76504 -2.06494 0
M  V30 2128 C 198.899 -3.98158 -1.67612 0
M  V30 2129 C 198.034 -4.47088 -2.86854 0
M  V30 2130 C 197.073 -5.6126 -2.44242 0
M  V30 2131 N 196.21 -6.04905 -3.56419 0
M  V30 2132 H 201.05 -2.96313 -0.316625 0
M  V30 2133 H 198.587 -1.46388 -0.144588 0
M  V30 2134 H 200.545 -3.09925 -2.79289 0
M  V30 2135 H 199.175 -1.98512 -2.54545 0
M  V30 2136 H 198.227 -3.70858 -0.846661 0
M  V30 2137 H 199.539 -4.80934 -1.32301 0
M  V30 2138 H 198.693 -4.82451 -3.67867 0
M  V30 2139 H 197.432 -3.63275 -3.25396 0
M  V30 2140 H 196.437 -5.25495 -1.61663 0
M  V30 2141 H 197.662 -6.46843 -2.0681 0
M  V30 2142 H 195.608 -5.24032 -3.94623 0
M  V30 2143 H 195.525 -6.82552 -3.25051 0
M  V30 2144 H 196.793 -6.44907 -4.37853 0
M  V30 2145 N 201.022 0.148545 -1.56898 0
M  V30 2146 C 201.932 1.20293 -2.01412 0
M  V30 2147 C 202.948 1.47107 -0.929273 0
M  V30 2148 O 204.124 1.58807 -1.23863 0
M  V30 2149 C 201.189 2.51682 -2.38447 0
M  V30 2150 C 200.25 2.32529 -3.60872 0
M  V30 2151 C 199.483 3.57653 -3.96132 0
M  V30 2152 O 199.706 4.63771 -3.32073 0
M  V30 2153 O 198.64 3.50408 -4.89385 0
M  V30 2154 H 202.466 0.855025 -2.91416 0
M  V30 2155 H 200.051 0.357151 -1.45068 0
M  V30 2156 H 201.933 3.29147 -2.63135 0
M  V30 2157 H 200.608 2.86006 -1.51599 0
M  V30 2158 H 199.515 1.53019 -3.41373 0
M  V30 2159 H 200.848 2.03121 -4.48333 0
M  V30 2160 N 202.5 1.5196 0.417844 0
M  V30 2161 C 203.749 1.6482 1.16264 0
M  V30 2162 C 204.062 0.379886 1.91876 0
M  V30 2163 O 205.268 0.388154 2.68711 0
M  V30 2164 C 203.724 2.91161 2.1155 0
M  V30 2165 C 203.332 4.25068 1.41495 0
M  V30 2166 C 205.076 3.13383 2.86341 0
M  V30 2167 C 202.983 5.42541 2.35379 0
M  V30 2168 H 201.913 0.613954 0.437694 0
M  V30 2169 H 204.564 1.78442 0.427871 0
M  V30 2170 H 202.946 2.71218 2.88543 0
M  V30 2171 H 204.12 4.55463 0.699263 0
M  V30 2172 H 202.435 4.0888 0.787792 0
M  V30 2173 H 205.032 3.98324 3.5671 0
M  V30 2174 H 205.375 2.27256 3.48798 0
M  V30 2175 H 205.908 3.33757 2.1645 0
M  V30 2176 H 202.647 6.30987 1.77582 0
M  V30 2177 H 202.167 5.16497 3.04945 0
M  V30 2178 H 203.846 5.75272 2.96093 0
M  V30 2179 N 203.978 -0.674533 1.42435 0
M  V30 2180 C 205.389 -1.25514 1.38214 0
M  V30 2181 C 205.74 -1.96055 0.0755464 0
M  V30 2182 O 204.865 -2.00028 -0.8257 0
M  V30 2183 C 205.46 -2.28269 2.50357 0
M  V30 2184 C 204.019 -2.81856 2.49467 0
M  V30 2185 C 203.166 -1.56182 2.29134 0
M  V30 2186 H 206.117 -0.467902 1.51646 0
M  V30 2187 H 206.138 -3.10009 2.20624 0
M  V30 2188 H 205.65 -1.769 3.45439 0
M  V30 2189 H 203.751 -3.37346 1.58204 0
M  V30 2190 H 203.864 -3.30854 3.46515 0
M  V30 2191 H 202.228 -1.82761 1.774 0
M  V30 2192 H 203.011 -1.06778 3.26272 0
M  V30 2193 N 205.456 -1.28612 -0.910864 0
M  V30 2194 C 206.684 -1.18792 -1.69399 0
M  V30 2195 C 207.099 0.253039 -1.87097 0
M  V30 2196 O 206.456 1.17071 -1.40003 0
M  V30 2197 C 206.507 -1.88511 -3.08457 0
M  V30 2198 O 206.228 -3.26979 -2.91576 0
M  V30 2199 C 207.729 -1.85029 -4.02839 0
M  V30 2200 H 204.949 -0.412233 -0.529438 0
M  V30 2201 H 207.493 -1.69788 -1.13984 0
M  V30 2202 H 205.648 -1.41379 -3.60681 0
M  V30 2203 H 206.062 -3.61936 -3.79608 0
M  V30 2204 H 207.536 -2.38395 -4.97867 0
M  V30 2205 H 208.013 -0.823303 -4.31414 0
M  V30 2206 H 208.619 -2.31853 -3.56545 0
M  V30 2207 N 206.934 1.1197 -1.10907 0
M  V30 2208 C 208.211 1.79959 -0.766432 0
M  V30 2209 C 208.591 1.97466 0.746363 0
M  V30 2210 O 207.939 1.55491 1.67436 0
M  V30 2211 C 208.149 3.14009 -1.52314 0
M  V30 2212 C 209.497 3.89134 -1.69883 0
M  V30 2213 O 210.521 3.2368 -1.48692 0
M  V30 2214 O 209.38 5.06572 -2.05054 0
M  V30 2215 H 206.474 0.779208 -0.277062 0
M  V30 2216 H 209.02 1.18762 -1.21217 0
M  V30 2217 H 207.792 2.96587 -2.55249 0
M  V30 2218 H 207.415 3.82915 -1.07059 0
M  V30 2219 N 208.412 0.89855 1.29475 0
M  V30 2220 C 209.375 0.380272 2.26023 0
M  V30 2221 C 210.375 -0.484891 1.53315 0
M  V30 2222 O 211.565 -0.290108 1.71767 0
M  V30 2223 C 208.697 -0.45651 3.3783 0
M  V30 2224 H 209.89 1.23295 2.73383 0
M  V30 2225 H 207.443 0.676589 1.40897 0
M  V30 2226 H 208.178 -1.32922 2.95808 0
M  V30 2227 H 207.963 0.163393 3.91759 0
M  V30 2228 H 209.453 -0.810466 4.0966 0
M  V30 2229 N 209.89 -1.43072 0.660911 0
M  V30 2230 C 211.301 -1.84932 0.256348 0
M  V30 2231 C 211.652 -1.55325 -1.19868 0
M  V30 2232 O 210.777 -1.00607 -1.91591 0
M  V30 2233 C 211.372 -3.35684 0.458475 0
M  V30 2234 C 209.931 -3.76245 0.108161 0
M  V30 2235 C 209.078 -2.66749 0.757641 0
M  V30 2236 H 212.029 -1.33116 0.864051 0
M  V30 2237 H 212.05 -3.79365 -0.293683 0
M  V30 2238 H 211.562 -3.572 1.51755 0
M  V30 2239 H 209.663 -3.60338 -0.948014 0
M  V30 2240 H 209.776 -4.76058 0.538992 0
M  V30 2241 H 208.14 -2.53989 0.190185 0
M  V30 2242 H 208.923 -2.91092 1.81989 0
M  V30 2243 N 211.368 -0.403325 -1.52352 0
M  V30 2244 C 212.614 0.167015 -2.02713 0
M  V30 2245 C 212.969 1.43296 -1.28391 0
M  V30 2246 O 212.262 1.87796 -0.379885 0
M  V30 2247 C 212.456 0.474665 -3.54234 0
M  V30 2248 C 212.285 -0.759909 -4.43233 0
M  V30 2249 C 211.055 -1.28338 -4.88731 0
M  V30 2250 C 213.253 -1.63634 -4.87574 0
M  V30 2251 N 211.235 -2.47404 -5.6184 0
M  V30 2252 C 212.606 -2.67329 -5.59406 0
M  V30 2253 C 214.661 -1.65478 -4.69597 0
M  V30 2254 C 213.364 -3.72773 -6.15169 0
M  V30 2255 C 215.39 -2.69837 -5.26253 0
M  V30 2256 C 214.752 -3.72253 -5.98002 0
M  V30 2257 H 210.851 0.0228343 -0.781667 0
M  V30 2258 H 213.435 -0.556368 -1.86581 0
M  V30 2259 H 211.606 1.16709 -3.7045 0
M  V30 2260 H 213.338 1.03338 -3.91284 0
M  V30 2261 H 210.093 -0.842273 -4.6605 0
M  V30 2262 H 210.517 -3.07688 -6.0304 0
M  V30 2263 H 215.159 -0.876389 -4.13617 0
M  V30 2264 H 212.877 -4.51471 -6.70223 0
M  V30 2265 H 216.463 -2.72164 -5.14216 0
M  V30 2266 H 215.343 -4.51679 -6.41058 0
M  V30 2267 N 212.846 1.57033 -0.133567 0
M  V30 2268 C 213.756 2.19632 0.824564 0
M  V30 2269 C 214.772 1.17666 1.28182 0
M  V30 2270 O 215.948 1.50193 1.3418 0
M  V30 2271 C 213.013 2.79499 2.05137 0
M  V30 2272 C 212.074 3.96548 1.64464 0
M  V30 2273 C 211.307 4.5355 2.81297 0
M  V30 2274 O 211.53 4.09438 3.97136 0
M  V30 2275 O 210.464 5.44018 2.57542 0
M  V30 2276 H 214.29 3.01991 0.321766 0
M  V30 2277 H 211.875 1.49112 0.0927889 0
M  V30 2278 H 213.757 3.17602 2.7696 0
M  V30 2279 H 212.432 2.00162 2.54395 0
M  V30 2280 H 211.339 3.63186 0.897048 0
M  V30 2281 H 212.672 4.77364 1.19934 0
M  V30 2282 N 214.325 -0.140222 1.56975 0
M  V30 2283 C 215.288 -1.15689 1.97861 0
M  V30 2284 C 216.288 -1.3549 0.865974 0
M  V30 2285 O 217.478 -1.32367 1.13246 0
M  V30 2286 C 214.61 -2.51582 2.30042 0
M  V30 2287 H 215.803 -0.805971 2.88867 0
M  V30 2288 H 213.356 -0.383801 1.51515 0
M  V30 2289 H 214.091 -2.91632 1.41849 0
M  V30 2290 H 213.876 -2.38569 3.11171 0
M  V30 2291 H 215.366 -3.24792 2.62488 0
M  V30 2292 N 215.803 -1.52179 -0.40978 0
M  V30 2293 C 216.735 -1.71703 -1.51825 0
M  V30 2294 C 217.748 -0.597445 -1.51441 0
M  V30 2295 O 218.937 -0.872582 -1.55719 0
M  V30 2296 C 216.037 -1.74171 -2.90719 0
M  V30 2297 C 215.21 -3.03156 -3.15302 0
M  V30 2298 C 214.269 -2.97445 -4.34065 0
M  V30 2299 O 213.295 -3.71352 -4.31377 0
M  V30 2300 N 214.497 -2.15191 -5.39141 0
M  V30 2301 H 217.262 -2.67334 -1.35472 0
M  V30 2302 H 214.823 -1.50409 -0.599069 0
M  V30 2303 H 216.815 -1.67884 -3.68235 0
M  V30 2304 H 215.385 -0.860166 -3.00533 0
M  V30 2305 H 214.605 -3.23097 -2.25836 0
M  V30 2306 H 215.893 -3.88484 -3.28569 0
M  V30 2307 H 215.291 -1.54573 -5.44173 0
M  V30 2308 H 213.848 -2.1476 -6.15403 0
M  V30 2309 N 217.281 0.66697 -1.42791 0
M  V30 2310 C 218.231 1.77313 -1.43332 0
M  V30 2311 C 219.215 1.5801 -0.303586 0
M  V30 2312 O 220.407 1.68356 -0.546385 0
M  V30 2313 C 217.536 3.15822 -1.34578 0
M  V30 2314 C 216.622 3.40721 -2.52528 0
M  V30 2315 N 217.013 3.36162 -3.77927 0
M  V30 2316 C 215.311 3.71387 -2.46956 0
M  V30 2317 C 216.012 3.60762 -4.56318 0
M  V30 2318 N 214.988 3.81908 -3.86843 0
M  V30 2319 H 218.79 1.72193 -2.38174 0
M  V30 2320 H 216.304 0.868114 -1.3725 0
M  V30 2321 H 218.301 3.951 -1.33048 0
M  V30 2322 H 216.961 3.22133 -0.407453 0
M  V30 2323 H 217.972 3.15885 -4.10411 0
M  V30 2324 H 214.649 3.84897 -1.61743 0
M  V30 2325 H 216.039 3.63132 -5.65318 0
M  V30 2326 N 218.759 1.29093 0.90403 0
M  V30 2327 C 219.722 1.1386 1.98919 0
M  V30 2328 C 220.722 0.0753457 1.60623 0
M  V30 2329 O 221.912 0.321931 1.71199 0
M  V30 2330 C 219.044 0.740198 3.32767 0
M  V30 2331 H 220.237 2.10246 2.13861 0
M  V30 2332 H 217.79 1.12218 1.08797 0
M  V30 2333 H 218.525 -0.223997 3.23525 0
M  V30 2334 H 218.31 1.50838 3.61926 0
M  V30 2335 H 219.8 0.656546 4.12407 0
M  V30 2336 N 220.237 -1.11381 1.11499 0
M  V30 2337 C 221.514 -1.7955 0.775965 0
M  V30 2338 C 221.894 -1.97859 -0.73588 0
M  V30 2339 O 221.242 -1.56376 -1.66609 0
M  V30 2340 C 221.452 -3.13196 1.53977 0
M  V30 2341 C 222.8 -3.88227 1.71944 0
M  V30 2342 O 223.824 -3.22887 1.50407 0
M  V30 2343 O 222.683 -5.05477 2.07738 0
M  V30 2344 H 219.777 -0.777728 0.28119 0
M  V30 2345 H 222.323 -1.18118 1.21845 0
M  V30 2346 H 221.095 -2.95229 2.56818 0
M  V30 2347 H 220.718 -3.82342 1.09088 0
M  V30 2348 N 221.715 -0.905404 -1.28997 0
M  V30 2349 C 222.662 -0.385892 -2.27551 0
M  V30 2350 C 223.632 0.535113 -1.57244 0
M  V30 2351 O 224.817 0.459119 -1.85194 0
M  V30 2352 C 221.957 0.375461 -3.43051 0
M  V30 2353 C 221.07 -0.577092 -4.28128 0
M  V30 2354 C 220.205 0.201879 -5.30816 0
M  V30 2355 C 219.244 -0.744829 -6.07551 0
M  V30 2356 N 218.381 9.42587e-05 -7.021 0
M  V30 2357 H 223.221 -1.23139 -2.71368 0
M  V30 2358 H 220.758 -0.618542 -1.33463 0
M  V30 2359 H 222.716 0.832992 -4.088 0
M  V30 2360 H 221.346 1.18537 -3.00248 0
M  V30 2361 H 220.398 -1.15315 -3.62501 0
M  V30 2362 H 221.71 -1.30152 -4.8152 0
M  V30 2363 H 220.864 0.720351 -6.02408 0
M  V30 2364 H 219.603 0.959413 -4.7817 0
M  V30 2365 H 218.608 -1.27475 -5.34818 0
M  V30 2366 H 219.833 -1.50178 -6.62286 0
M  V30 2367 H 217.779 0.739791 -6.51815 0
M  V30 2368 H 217.696 -0.664321 -7.53076 0
M  V30 2369 H 218.964 0.498644 -7.77903 0
M  V30 2370 N 223.193 1.4272 -0.668489 0
M  V30 2371 C 224.439 2.02443 -0.197076 0
M  V30 2372 C 224.794 1.51882 1.18109 0
M  V30 2373 O 224.087 0.708618 1.78015 0
M  V30 2374 C 224.281 3.57021 -0.164499 0
M  V30 2375 C 224.11 4.22583 -1.53797 0
M  V30 2376 C 222.88 4.58019 -2.13416 0
M  V30 2377 C 225.078 4.50588 -2.47941 0
M  V30 2378 N 223.06 5.08729 -3.4361 0
M  V30 2379 C 224.431 5.02782 -3.62782 0
M  V30 2380 C 226.486 4.32571 -2.46551 0
M  V30 2381 C 225.189 5.38852 -4.76478 0
M  V30 2382 C 227.215 4.69713 -3.59338 0
M  V30 2383 C 226.577 5.22053 -4.72906 0
M  V30 2384 H 222.676 0.773214 -0.116894 0
M  V30 2385 H 225.26 1.73673 -0.880108 0
M  V30 2386 H 223.431 3.85323 0.487925 0
M  V30 2387 H 225.163 4.03439 0.319207 0
M  V30 2388 H 221.918 4.43566 -1.65969 0
M  V30 2389 H 222.342 5.38521 -4.10273 0
M  V30 2390 H 226.984 3.91365 -1.59978 0
M  V30 2391 H 224.702 5.78993 -5.63731 0
M  V30 2392 H 228.288 4.57454 -3.59482 0
M  V30 2393 H 227.168 5.50258 -5.58736 0
M  V30 2394 N 224.671 0.411399 1.52136 0
M  V30 2395 C 225.948 -0.222308 1.94333 0
M  V30 2396 C 226.328 -1.6242 1.34844 0
M  V30 2397 O 225.676 -2.22384 0.525145 0
M  V30 2398 C 225.886 -0.226345 3.48265 0
M  V30 2399 C 227.234 -0.444592 4.22266 0
M  V30 2400 O 228.258 -0.305602 3.54887 0
M  V30 2401 O 227.117 -0.718749 5.41753 0
M  V30 2402 H 224.211 -0.143907 0.814383 0
M  V30 2403 H 226.757 0.467506 1.63133 0
M  V30 2404 H 225.529 0.75475 3.83952 0
M  V30 2405 H 225.152 -0.960163 3.85832 0
M  V30 2406 N 226.149 -1.5696 0.141893 0
M  V30 2407 C 227.096 -2.16501 -0.799737 0
M  V30 2408 C 228.066 -1.09643 -1.24771 0
M  V30 2409 O 229.251 -1.3766 -1.32115 0
M  V30 2410 C 226.391 -2.78679 -2.03549 0
M  V30 2411 C 225.504 -3.99914 -1.6338 0
M  V30 2412 C 224.639 -4.50106 -2.82096 0
M  V30 2413 C 223.678 -5.63819 -2.38275 0
M  V30 2414 N 222.815 -6.08651 -3.49983 0
M  V30 2415 H 227.655 -2.96632 -0.285179 0
M  V30 2416 H 225.192 -1.46533 -0.129053 0
M  V30 2417 H 227.15 -3.1287 -2.75986 0
M  V30 2418 H 225.78 -2.012 -2.52425 0
M  V30 2419 H 224.832 -3.71735 -0.807279 0
M  V30 2420 H 226.144 -4.82311 -1.27192 0
M  V30 2421 H 225.298 -4.86325 -3.62729 0
M  V30 2422 H 224.037 -3.66706 -3.21525 0
M  V30 2423 H 223.042 -5.2718 -1.56081 0
M  V30 2424 H 224.267 -6.49 -1.99938 0
M  V30 2425 H 222.213 -5.28188 -3.89042 0
M  V30 2426 H 222.13 -6.85961 -3.17794 0
M  V30 2427 H 223.398 -6.49515 -4.30988 0
M  V30 2428 N 227.627 0.131896 -1.57047 0
M  V30 2429 C 228.56 1.19236 -1.94571 0
M  V30 2430 C 229.538 1.40782 -0.813576 0
M  V30 2431 O 230.722 1.55148 -1.07058 0
M  V30 2432 C 227.849 2.54858 -2.23081 0
M  V30 2433 C 226.895 2.49817 -3.45679 0
M  V30 2434 S 227.728 1.95036 -4.98719 0
M  V30 2435 C 228.884 3.32357 -5.30367 0
M  V30 2436 H 229.117 0.872297 -2.84215 0
M  V30 2437 H 226.65 0.338134 -1.50652 0
M  V30 2438 H 228.608 3.32898 -2.40185 0
M  V30 2439 H 227.269 2.84047 -1.34074 0
M  V30 2440 H 226.462 3.49688 -3.62952 0
M  V30 2441 H 226.064 1.79892 -3.27895 0
M  V30 2442 H 228.356 4.28525 -5.2476 0
M  V30 2443 H 229.299 3.19923 -6.31708 0
M  V30 2444 H 229.707 3.3019 -4.57859 0
M  V30 2445 N 229.106 1.52395 0.401703 0
M  V30 2446 C 230.334 1.70676 1.16949 0
M  V30 2447 C 230.749 0.419503 1.8408 0
M  V30 2448 O 230.106 -0.605061 1.72178 0
M  V30 2449 C 230.157 2.84753 2.22706 0
M  V30 2450 O 229.878 4.08495 1.58314 0
M  V30 2451 C 231.379 3.14608 3.12309 0
M  V30 2452 H 228.599 0.571787 0.351142 0
M  V30 2453 H 231.143 1.98987 0.471652 0
M  V30 2454 H 229.298 2.58941 2.88147 0
M  V30 2455 H 229.712 4.72117 2.28485 0
M  V30 2456 H 231.186 3.97923 3.82572 0
M  V30 2457 H 231.663 2.28464 3.75101 0
M  V30 2458 H 232.269 3.42212 2.52529 0
M  V30 2459 N 230.584 -0.659388 1.43143 0
M  V30 2460 C 231.517 -1.78425 1.42267 0
M  V30 2461 C 232.495 -1.60085 0.284894 0
M  V30 2462 O 233.679 -1.82351 0.477527 0
M  V30 2463 C 230.806 -3.15642 1.22833 0
M  V30 2464 C 229.852 -3.52698 2.39806 0
M  V30 2465 S 230.685 -3.53372 4.02353 0
M  V30 2466 C 231.841 -4.93256 3.85291 0
M  V30 2467 H 232.074 -1.78897 2.37452 0
M  V30 2468 H 229.607 -0.831469 1.301 0
M  V30 2469 H 231.565 -3.94838 1.12308 0
M  V30 2470 H 230.226 -3.12739 0.29207 0
M  V30 2471 H 229.419 -4.52475 2.21996 0
M  V30 2472 H 229.021 -2.80899 2.46925 0
M  V30 2473 H 231.313 -5.81751 3.47235 0
M  V30 2474 H 232.256 -5.16115 4.84799 0
M  V30 2475 H 232.664 -4.665 3.17865 0
M  V30 2476 N 232.062 -1.29571 -0.897171 0
M  V30 2477 C 233.009 -1.14916 -2.00158 0
M  V30 2478 C 233.979 -0.0418149 -1.66047 0
M  V30 2479 O 235.164 -0.209793 -1.89643 0
M  V30 2480 C 232.304 -0.834307 -3.34863 0
M  V30 2481 C 231.417 -2.02234 -3.8174 0
M  V30 2482 C 230.552 -1.64664 -5.05034 0
M  V30 2483 C 229.591 -2.80033 -5.44286 0
M  V30 2484 N 228.728 -2.42843 -6.58765 0
M  V30 2485 H 233.568 -2.09403 -2.12025 0
M  V30 2486 H 231.105 -1.042 -1.0383 0
M  V30 2487 H 233.063 -0.632436 -4.12379 0
M  V30 2488 H 231.693 0.0736656 -3.22716 0
M  V30 2489 H 230.745 -2.33583 -3.00238 0
M  V30 2490 H 232.057 -2.88673 -4.06779 0
M  V30 2491 H 231.211 -1.4078 -5.9014 0
M  V30 2492 H 229.95 -0.753766 -4.8184 0
M  V30 2493 H 228.955 -3.04596 -4.57713 0
M  V30 2494 H 230.18 -3.69989 -5.6946 0
M  V30 2495 H 228.126 -1.56046 -6.3717 0
M  V30 2496 H 228.043 -3.22815 -6.83613 0
M  V30 2497 H 229.311 -2.22285 -7.47134 0
M  V30 2498 N 233.54 1.10788 -1.12088 0
M  V30 2499 C 234.45 2.20599 -0.798338 0
M  V30 2500 C 235.466 1.72712 0.21135 0
M  V30 2501 O 236.642 2.01348 0.0458477 0
M  V30 2502 C 233.707 3.45771 -0.253674 0
M  V30 2503 C 232.768 4.08411 -1.32283 0
M  V30 2504 C 232.001 5.27608 -0.80406 0
M  V30 2505 O 232.224 5.69241 0.363478 0
M  V30 2506 O 231.158 5.8101 -1.57198 0
M  V30 2507 H 234.984 2.50614 -1.7154 0
M  V30 2508 H 232.569 1.19454 -0.897275 0
M  V30 2509 H 234.451 4.21376 0.0453691 0
M  V30 2510 H 233.126 3.1739 0.636005 0
M  V30 2511 H 232.033 3.34507 -1.67499 0
M  V30 2512 H 233.366 4.40986 -2.18614 0
M  V30 2513 N 235.018 0.912232 1.28515 0
M  V30 2514 C 235.948 0.416403 2.29757 0
M  V30 2515 C 236.929 -0.515194 1.6211 0
M  V30 2516 O 238.114 -0.423253 1.89532 0
M  V30 2517 C 235.244 -0.34572 3.45575 0
M  V30 2518 C 234.198 0.496599 4.25109 0
M  V30 2519 C 233.524 -0.393771 5.33248 0
M  V30 2520 C 234.824 1.75307 4.92001 0
M  V30 2521 H 236.518 1.26249 2.7148 0
M  V30 2522 H 234.064 0.608515 1.30511 0
M  V30 2523 H 236.017 -0.703422 4.15488 0
M  V30 2524 H 234.741 -1.2257 3.02728 0
M  V30 2525 H 233.4 0.8368 3.56922 0
M  V30 2526 H 233.048 -1.27225 4.86644 0
M  V30 2527 H 232.748 0.166209 5.87365 0
M  V30 2528 H 234.272 -0.747389 6.06009 0
M  V30 2529 H 235.686 1.46437 5.54283 0
M  V30 2530 H 234.083 2.25534 5.56106 0
M  V30 2531 H 235.153 2.48176 4.16577 0
M  V30 2532 N 236.496 -1.42363 0.676048 0
M  V30 2533 C 237.745 -2.00745 0.196037 0
M  V30 2534 C 238.058 -1.54083 -1.20489 0
M  V30 2535 O 239.264 -2.04891 -1.78134 0
M  V30 2536 C 237.72 -3.58651 0.299616 0
M  V30 2537 C 237.328 -4.143 1.70468 0
M  V30 2538 C 239.072 -4.24326 -0.121619 0
M  V30 2539 C 236.979 -5.64574 1.76096 0
M  V30 2540 H 235.909 -0.750787 0.0695301 0
M  V30 2541 H 238.56 -1.63072 0.841412 0
M  V30 2542 H 236.942 -3.93833 -0.413673 0
M  V30 2543 H 238.116 -3.90575 2.44515 0
M  V30 2544 H 236.431 -3.61081 2.07387 0
M  V30 2545 H 239.028 -5.34607 -0.0997362 0
M  V30 2546 H 239.371 -3.99897 -1.15708 0
M  V30 2547 H 239.904 -3.94108 0.540706 0
M  V30 2548 H 236.643 -5.93804 2.77628 0
M  V30 2549 H 236.163 -5.90286 1.06406 0
M  V30 2550 H 237.842 -6.29013 1.51496 0
M  V30 2551 N 237.974 -0.419461 -1.51915 0
M  V30 2552 C 239.251 0.211999 -1.94448 0
M  V30 2553 C 239.631 1.61703 -1.35703 0
M  V30 2554 O 238.979 2.22102 -0.536931 0
M  V30 2555 C 239.189 0.207872 -3.4838 0
M  V30 2556 C 240.537 0.422192 -4.22496 0
M  V30 2557 O 241.561 0.286778 -3.55044 0
M  V30 2558 O 240.42 0.690009 -5.42126 0
M  V30 2559 H 237.514 0.139586 -0.815135 0
M  V30 2560 H 240.06 -0.476151 -1.62883 0
M  V30 2561 H 238.832 -0.775102 -3.83546 0
M  V30 2562 H 238.455 0.939688 -3.86336 0
M  V30 2563 N 239.452 1.56882 -0.150215 0
M  V30 2564 C 240.399 2.16922 0.788244 0
M  V30 2565 C 241.369 1.10303 1.24187 0
M  V30 2566 O 242.554 1.38359 1.31383 0
M  V30 2567 C 239.694 2.79754 2.02068 0
M  V30 2568 C 238.807 4.00775 1.61257 0
M  V30 2569 C 237.942 4.51595 2.79705 0
M  V30 2570 C 236.981 5.65074 2.35282 0
M  V30 2571 N 236.118 6.10499 3.4675 0
M  V30 2572 H 240.958 2.96779 0.269444 0
M  V30 2573 H 238.495 1.46599 0.12128 0
M  V30 2574 H 240.453 3.14329 2.74323 0
M  V30 2575 H 239.083 2.02536 2.51354 0
M  V30 2576 H 238.135 3.72158 0.787553 0
M  V30 2577 H 239.447 4.82978 1.24633 0
M  V30 2578 H 238.601 4.88242 3.60145 0
M  V30 2579 H 237.34 3.68406 3.19576 0
M  V30 2580 H 236.345 5.28 1.53283 0
M  V30 2581 H 237.57 6.50052 1.96493 0
M  V30 2582 H 235.516 5.30243 3.86236 0
M  V30 2583 H 235.433 6.87637 3.14152 0
M  V30 2584 H 236.701 6.51791 4.27537 0
M  V30 2585 N 240.93 -0.123565 1.57115 0
M  V30 2586 C 242.179 -0.830704 1.83799 0
M  V30 2587 C 242.492 -1.81259 0.735158 0
M  V30 2588 O 243.698 -2.56558 0.888278 0
M  V30 2589 C 242.154 -1.52802 3.25852 0
M  V30 2590 C 241.762 -0.587356 4.44133 0
M  V30 2591 C 243.506 -2.22056 3.61789 0
M  V30 2592 C 241.413 -1.28764 5.77212 0
M  V30 2593 H 240.343 -0.313967 0.685522 0
M  V30 2594 H 242.994 -0.0834359 1.8331 0
M  V30 2595 H 241.376 -2.32175 3.20797 0
M  V30 2596 H 242.55 0.172829 4.60476 0
M  V30 2597 H 240.865 -0.00201892 4.164 0
M  V30 2598 H 243.462 -2.75131 4.58483 0
M  V30 2599 H 243.805 -2.99644 2.88997 0
M  V30 2600 H 244.338 -1.49576 3.68608 0
M  V30 2601 H 241.077 -0.55314 6.53162 0
M  V30 2602 H 240.597 -2.01995 5.64764 0
M  V30 2603 H 242.276 -1.8221 6.20813 0
M  V30 2604 N 242.408 -1.52605 -0.393616 0
M  V30 2605 C 243.648 -1.6911 -1.1481 0
M  V30 2606 C 244.012 -0.41969 -1.87357 0
M  V30 2607 O 245.213 -0.461034 -2.64817 0
M  V30 2608 C 243.484 -2.88909 -2.10395 0
M  V30 2609 S 245.043 -3.25977 -2.93742 0
M  V30 2610 H 241.861 -0.595337 -0.38871 0
M  V30 2611 H 244.463 -1.90641 -0.433178 0
M  V30 2612 H 243.167 -3.79672 -1.55812 0
M  V30 2613 H 242.698 -2.69698 -2.86403 0
M  V30 2614 H 244.713 -2.75806 -4.12487 0
M  V30 2615 N 243.887 0.651787 -1.4349 0
M  V30 2616 C 245.133 1.4121 -1.46395 0
M  V30 2617 C 245.488 1.92202 -0.087366 0
M  V30 2618 O 244.781 1.69452 0.894231 0
M  V30 2619 C 244.975 2.60914 -2.44251 0
M  V30 2620 C 244.804 2.21639 -3.91288 0
M  V30 2621 C 243.574 2.09897 -4.59643 0
M  V30 2622 C 245.772 1.81835 -4.81083 0
M  V30 2623 N 243.754 1.63967 -5.91598 0
M  V30 2624 C 245.125 1.46998 -6.02322 0
M  V30 2625 C 247.18 1.69031 -4.6833 0
M  V30 2626 C 245.883 1.00638 -7.12225 0
M  V30 2627 C 247.909 1.24077 -5.78238 0
M  V30 2628 C 247.271 0.901772 -6.98604 0
M  V30 2629 H 243.37 0.512322 -0.590805 0
M  V30 2630 H 245.954 0.74989 -1.7968 0
M  V30 2631 H 244.125 3.24792 -2.1299 0
M  V30 2632 H 245.857 3.27622 -2.37584 0
M  V30 2633 H 242.612 2.297 -4.14168 0
M  V30 2634 H 243.036 1.43359 -6.61647 0
M  V30 2635 H 247.678 1.93878 -3.75727 0
M  V30 2636 H 245.396 0.745399 -8.04655 0
M  V30 2637 H 248.982 1.14657 -5.7039 0
M  V30 2638 H 247.862 0.559226 -7.82203 0
M  V30 2639 N 245.365 1.30045 0.890287 0
M  V30 2640 C 246.593 1.21472 1.67487 0
M  V30 2641 C 247.008 -0.223241 1.87476 0
M  V30 2642 O 246.365 -1.14828 1.41847 0
M  V30 2643 C 246.416 1.93394 3.05419 0
M  V30 2644 O 246.137 3.31576 2.86337 0
M  V30 2645 C 247.638 1.91414 3.99844 0
M  V30 2646 H 244.858 0.420604 0.522813 0
M  V30 2647 H 247.402 1.7158 1.11268 0
M  V30 2648 H 245.557 1.47099 3.58386 0
M  V30 2649 H 245.971 3.67929 3.73802 0
M  V30 2650 H 247.445 2.46285 4.94012 0
M  V30 2651 H 247.922 0.891833 4.3005 0
M  V30 2652 H 248.528 2.37496 3.52811 0
M  V30 2653 N 246.843 -1.10192 1.12674 0
M  V30 2654 C 247.79 -2.16606 0.796906 0
M  V30 2655 C 248.76 -1.64394 -0.237476 0
M  V30 2656 O 249.945 -1.90474 -0.111484 0
M  V30 2657 C 247.085 -3.44116 0.26043 0
M  V30 2658 C 246.198 -4.10268 1.35293 0
M  V30 2659 C 245.333 -5.25507 0.775621 0
M  V30 2660 C 244.372 -5.83567 1.84706 0
M  V30 2661 N 243.509 -6.90179 1.28829 0
M  V30 2662 H 248.349 -2.44163 1.70846 0
M  V30 2663 H 245.886 -1.19846 0.85295 0
M  V30 2664 H 247.844 -4.17143 -0.0686814 0
M  V30 2665 H 246.474 -3.16901 -0.614274 0
M  V30 2666 H 245.526 -3.35184 1.79877 0
M  V30 2667 H 246.838 -4.4946 2.16303 0
M  V30 2668 H 245.992 -6.05398 0.397327 0
M  V30 2669 H 244.731 -4.87656 -0.0656581 0
M  V30 2670 H 243.736 -5.02344 2.23452 0
M  V30 2671 H 244.961 -6.23482 2.69161 0
M  V30 2672 H 242.907 -6.54322 0.468881 0
M  V30 2673 H 242.824 -7.28097 2.03497 0
M  V30 2674 H 244.092 -7.73844 0.937311 0
M  V30 2675 N 248.321 -0.919034 -1.28029 0
M  V30 2676 C 249.549 -0.570971 -1.98866 0
M  V30 2677 C 249.964 0.848996 -1.68634 0
M  V30 2678 O 249.321 1.56307 -0.942036 0
M  V30 2679 C 249.372 -0.776876 -3.53054 0
M  V30 2680 O 249.093 -2.14097 -3.82222 0
M  V30 2681 C 250.594 -0.436356 -4.41147 0
M  V30 2682 H 247.814 -0.217175 -0.634883 0
M  V30 2683 H 250.358 -1.23368 -1.63097 0
M  V30 2684 H 248.513 -0.161085 -3.87065 0
M  V30 2685 H 248.927 -2.18455 -4.76841 0
M  V30 2686 H 250.401 -0.63117 -5.4838 0
M  V30 2687 H 250.878 0.627686 -4.34692 0
M  V30 2688 H 251.484 -1.02991 -4.12641 0
M  V30 2689 N 249.799 1.42003 -0.683588 0
M  V30 2690 C 250.762 2.29191 -0.0198243 0
M  V30 2691 C 251.762 1.43773 0.72013 0
M  V30 2692 O 252.952 1.65061 0.556815 0
M  V30 2693 C 250.084 3.26435 0.982487 0
M  V30 2694 H 251.277 2.8938 -0.787345 0
M  V30 2695 H 248.83 1.49789 -0.446418 0
M  V30 2696 H 249.565 2.71203 1.77819 0
M  V30 2697 H 249.35 3.89449 0.455182 0
M  V30 2698 H 250.84 3.918 1.44508 0
M  V30 2699 N 251.277 0.427512 1.51691 0
M  V30 2700 C 252.693 0.0792977 1.59403 0
M  V30 2701 C 252.893 -1.41035 1.43914 0
M  V30 2702 O 251.949 -2.17922 1.27539 0
M  V30 2703 C 253.262 0.590636 2.94842 0
M  V30 2704 C 254.81 0.550215 3.08126 0
M  V30 2705 C 255.285 1.03836 4.46074 0
M  V30 2706 N 256.776 0.995943 4.52366 0
M  V30 2707 C 257.511 1.34463 5.57411 0
M  V30 2708 N 257.007 1.76569 6.69922 0
M  V30 2709 N 258.8 1.26343 5.47717 0
M  V30 2710 H 250.951 1.39687 1.60004 0
M  V30 2711 H 253.214 0.575003 0.753708 0
M  V30 2712 H 252.92 1.63251 3.11516 0
M  V30 2713 H 252.794 0.0102061 3.77199 0
M  V30 2714 H 255.181 -0.482654 2.91126 0
M  V30 2715 H 255.262 1.16693 2.27632 0
M  V30 2716 H 254.906 2.06965 4.63819 0
M  V30 2717 H 254.836 0.398286 5.25092 0
M  V30 2718 H 257.327 0.68661 3.7161 0
M  V30 2719 H 257.64 2.01438 7.46085 0
M  V30 2720 H 255.985 1.80488 6.71155 0
M  V30 2721 H 259.176 0.933209 4.58703 0
M  V30 2722 H 259.349 1.53846 6.29472 0
M  V30 2723 N 252.755 -1.56801 0.158532 0
M  V30 2724 C 254.171 -1.5837 -0.197774 0
M  V30 2725 C 254.371 -1.17334 -1.63814 0
M  V30 2726 O 253.427 -0.878988 -2.36707 0
M  V30 2727 C 254.74 -3.00615 0.0714459 0
M  V30 2728 C 256.288 -3.12999 0.00864533 0
M  V30 2729 C 256.763 -4.57313 0.250685 0
M  V30 2730 N 258.254 -4.62777 0.198014 0
M  V30 2731 C 258.989 -5.72271 0.359642 0
M  V30 2732 N 258.485 -6.90371 0.579625 0
M  V30 2733 N 260.278 -5.61318 0.296438 0
M  V30 2734 H 252.429 -1.81765 1.09887 0
M  V30 2735 H 254.692 -0.841849 0.435884 0
M  V30 2736 H 254.398 -3.35068 1.06874 0
M  V30 2737 H 254.272 -3.71683 -0.642757 0
M  V30 2738 H 256.659 -2.7838 -0.979217 0
M  V30 2739 H 256.74 -2.44393 0.755359 0
M  V30 2740 H 256.384 -4.92639 1.2357 0
M  V30 2741 H 256.314 -5.24061 -0.516489 0
M  V30 2742 H 258.805 -3.77885 0.0331115 0
M  V30 2743 H 259.118 -7.69689 0.69275 0
M  V30 2744 H 257.463 -6.92264 0.616087 0
M  V30 2745 H 260.654 -4.67932 0.125258 0
M  V30 2746 H 260.827 -6.46599 0.425831 0
M  V30 2747 N 254.233 0.115231 -1.57178 0
M  V30 2748 C 255.48 0.822351 -1.8505 0
M  V30 2749 C 255.808 1.79701 -0.744168 0
M  V30 2750 O 255.063 1.93909 0.26414 0
M  V30 2751 C 255.362 1.60324 -3.19423 0
M  V30 2752 C 255.028 0.772536 -4.44233 0
M  V30 2753 C 253.69 0.543468 -4.78121 0
M  V30 2754 C 256.042 0.193746 -5.2084 0
M  V30 2755 C 253.37 -0.274583 -5.86057 0
M  V30 2756 C 255.722 -0.611517 -6.29637 0
M  V30 2757 C 254.386 -0.850867 -6.62055 0
M  V30 2758 H 253.656 0.30092 -0.677147 0
M  V30 2759 H 256.303 0.0845802 -1.91313 0
M  V30 2760 H 254.608 2.41203 -3.08753 0
M  V30 2761 H 256.305 2.1544 -3.38211 0
M  V30 2762 H 252.895 0.96117 -4.17683 0
M  V30 2763 H 257.079 0.357926 -4.95008 0
M  V30 2764 H 252.335 -0.469206 -6.09597 0
M  V30 2765 H 256.509 -1.06697 -6.88178 0
M  V30 2766 H 254.136 -1.48657 -7.45523 0
M  V30 2767 N 255.711 1.52812 0.385517 0
M  V30 2768 C 256.674 1.77188 1.45386 0
M  V30 2769 C 257.674 0.641953 1.4743 0
M  V30 2770 O 258.864 0.910033 1.4854 0
M  V30 2771 C 255.996 1.87582 2.8465 0
M  V30 2772 H 257.189 2.72583 1.25054 0
M  V30 2773 H 254.742 1.43586 0.617467 0
M  V30 2774 H 255.477 0.941849 3.10322 0
M  V30 2775 H 255.262 2.69748 2.84567 0
M  V30 2776 H 256.752 2.08102 3.62054 0
M  V30 2777 N 257.189 -0.644168 1.43834 0
M  V30 2778 C 258.419 -1.42939 1.49171 0
M  V30 2779 C 258.827 -1.88874 0.111048 0
M  V30 2780 O 258.17 -1.60656 -0.8908 0
M  V30 2781 C 258.232 -2.69151 2.38324 0
M  V30 2782 C 257.896 -2.45097 3.85715 0
M  V30 2783 C 258.893 -2.07747 4.76589 0
M  V30 2784 C 256.578 -2.59141 4.30292 0
M  V30 2785 C 258.572 -1.8475 6.10038 0
M  V30 2786 C 256.259 -2.35759 5.63792 0
M  V30 2787 C 257.257 -1.9862 6.53482 0
M  V30 2788 O 256.945 -1.75489 7.84512 0
M  V30 2789 H 256.677 -0.445271 0.508635 0
M  V30 2790 H 259.231 -0.79621 1.8934 0
M  V30 2791 H 257.461 -3.3506 1.93058 0
M  V30 2792 H 259.15 -3.31123 2.3476 0
M  V30 2793 H 259.916 -1.96465 4.43426 0
M  V30 2794 H 255.795 -2.87022 3.60749 0
M  V30 2795 H 259.339 -1.55686 6.80006 0
M  V30 2796 H 255.236 -2.46646 5.9652 0
M  V30 2797 H 256.004 -1.89841 7.9618 0
M  V30 2798 N 258.668 -1.30515 -0.883378 0
M  V30 2799 C 259.598 -1.19607 -2.00541 0
M  V30 2800 C 260.579 -0.086346 -1.69881 0
M  V30 2801 O 261.764 -0.268654 -1.92333 0
M  V30 2802 C 258.894 -0.888758 -3.35736 0
M  V30 2803 C 257.848 -1.95659 -3.8066 0
M  V30 2804 C 257.174 -1.50224 -5.13164 0
M  V30 2805 C 258.474 -3.36788 -3.99213 0
M  V30 2806 H 260.168 -2.13476 -2.09925 0
M  V30 2807 H 257.714 -1.02775 -1.00863 0
M  V30 2808 H 259.667 -0.799094 -4.13754 0
M  V30 2809 H 258.391 0.0856125 -3.26488 0
M  V30 2810 H 257.05 -2.03591 -3.04871 0
M  V30 2811 H 256.698 -0.516092 -5.00345 0
M  V30 2812 H 256.398 -2.2165 -5.44192 0
M  V30 2813 H 257.922 -1.42639 -5.93706 0
M  V30 2814 H 259.336 -3.31605 -4.67665 0
M  V30 2815 H 257.733 -4.06314 -4.41621 0
M  V30 2816 H 258.803 -3.78561 -3.03017 0
M  V30 2817 N 260.146 1.09593 -1.13257 0
M  V30 2818 C 261.393 1.81734 -0.893257 0
M  V30 2819 C 261.721 1.8563 0.580656 0
M  V30 2820 O 260.976 1.31906 1.44566 0
M  V30 2821 C 261.275 3.27802 -1.42411 0
M  V30 2822 C 260.941 3.44041 -2.91456 0
M  V30 2823 C 259.603 3.48181 -3.3215 0
M  V30 2824 C 261.955 3.48719 -3.87356 0
M  V30 2825 C 259.283 3.54575 -4.67433 0
M  V30 2826 C 261.635 3.56648 -5.2248 0
M  V30 2827 C 260.299 3.59055 -5.62704 0
M  V30 2828 H 259.569 0.665011 -0.326866 0
M  V30 2829 H 262.216 1.2912 -1.41422 0
M  V30 2830 H 260.521 3.83042 -0.823795 0
M  V30 2831 H 262.218 3.82149 -1.21503 0
M  V30 2832 H 258.808 3.41502 -2.58987 0
M  V30 2833 H 262.992 3.44763 -3.57004 0
M  V30 2834 H 258.248 3.54725 -4.97976 0
M  V30 2835 H 262.422 3.59212 -5.96607 0
M  V30 2836 H 260.049 3.63763 -6.67518 0
M  V30 2837 N 261.624 0.925811 1.2754 0
M  V30 2838 C 262.87 0.566092 1.94739 0
M  V30 2839 C 263.203 -0.890057 1.72603 0
M  V30 2840 O 262.478 -1.63467 1.05399 0
M  V30 2841 C 262.761 0.89054 3.48915 0
M  V30 2842 C 262.614 2.4003 3.80402 0
M  V30 2843 C 263.933 0.395101 4.38323 0
M  V30 2844 H 261.052 0.20714 0.707292 0
M  V30 2845 H 263.694 1.15725 1.50691 0
M  V30 2846 H 261.844 0.387452 3.86563 0
M  V30 2847 H 263.516 2.97494 3.52555 0
M  V30 2848 H 261.759 2.85028 3.2702 0
M  V30 2849 H 262.43 2.57785 4.8811 0
M  V30 2850 H 264.906 0.826241 4.07814 0
M  V30 2851 H 263.782 0.651086 5.45025 0
M  V30 2852 H 264.043 -0.704798 4.36446 0
M  V30 2853 N 263.102 -1.41638 0.69111 0
M  V30 2854 C 264.05 -2.32597 0.0115199 0
M  V30 2855 C 265.044 -1.5072 -0.773296 0
M  V30 2856 O 266.25 -1.66685 -0.67942 0
M  V30 2857 H 262.625 -0.751849 -0.0150746 0
M  V30 2858 H 264.596 -2.87593 0.795791 0
M  V30 2859 C 263.345 -3.35467 -0.914172 0
M  V30 2860 H 262.668 -3.9852 -0.319687 0
M  V30 2861 H 264.108 -4.01662 -1.35808 0
M  V30 2862 C 262.567 -2.69004 -2.02826 0
M  V30 2863 O 263.097 -2.53444 -3.11655 0
M  V30 2864 N 261.303 -2.2777 -1.80469 0
M  V30 2865 H 260.85 -2.40626 -0.919615 0
M  V30 2866 H 260.808 -1.83635 -2.55197 0
M  V30 2867 N 264.58 -0.43555 -1.51462 0
M  V30 2868 C 265.829 0.133007 -2.01261 0
M  V30 2869 C 266.142 1.43942 -1.32439 0
M  V30 2870 O 267.348 2.09081 -1.73198 0
M  V30 2871 C 265.804 0.287581 -3.58749 0
M  V30 2872 C 265.412 -1.00829 -4.36506 0
M  V30 2873 C 267.156 0.810004 -4.167 0
M  V30 2874 C 265.063 -0.819454 -5.85695 0
M  V30 2875 H 263.993 0.0534822 -0.752101 0
M  V30 2876 H 266.644 -0.565038 -1.74584 0
M  V30 2877 H 265.026 1.04859 -3.81865 0
M  V30 2878 H 266.2 -1.77749 -4.25138 0
M  V30 2879 H 264.515 -1.45911 -3.89999 0
M  V30 2880 H 267.112 0.967743 -5.2587 0
M  V30 2881 H 267.455 1.79196 -3.75758 0
M  V30 2882 H 267.988 0.107357 -3.97655 0
M  V30 2883 H 264.727 -1.77374 -6.31046 0
M  V30 2884 H 264.247 -0.0900208 -5.99732 0
M  V30 2885 H 265.926 -0.471949 -6.45276 0
M  V30 2886 N 266.058 1.56714 -0.166846 0
M  V30 2887 C 267.006 2.19056 0.782123 0
M  V30 2888 C 268 1.15328 1.24079 0
M  V30 2889 O 269.206 1.33537 1.20697 0
M  V30 2890 H 265.581 0.70167 0.270486 0
M  V30 2891 H 267.552 2.97494 0.232322 0
M  V30 2892 C 266.301 2.84206 2.00306 0
M  V30 2893 H 265.624 3.63748 1.65914 0
M  V30 2894 H 267.064 3.31302 2.64604 0
M  V30 2895 C 265.523 1.83744 2.82382 0
M  V30 2896 O 266.053 1.32014 3.79388 0
M  V30 2897 N 264.259 1.52601 2.47308 0
M  V30 2898 H 263.806 1.9486 1.68485 0
M  V30 2899 H 263.764 0.856351 3.02513 0
M  V30 2900 N 267.536 -0.106894 1.57237 0
M  V30 2901 C 268.782 -0.81373 1.85759 0
M  V30 2902 C 269.115 -1.78952 0.754315 0
M  V30 2903 O 268.39 -1.93029 -0.23879 0
M  V30 2904 C 268.673 -1.55293 3.24894 0
M  V30 2905 C 268.526 -0.595929 4.45835 0
M  V30 2906 C 269.845 -2.5063 3.61763 0
M  V30 2907 H 266.964 -0.294369 0.67566 0
M  V30 2908 H 269.606 -0.0776472 1.89841 0
M  V30 2909 H 267.756 -2.1804 3.21544 0
M  V30 2910 H 269.428 0.0236262 4.61294 0
M  V30 2911 H 267.671 0.0916191 4.33703 0
M  V30 2912 H 268.342 -1.15004 5.39887 0
M  V30 2913 H 270.818 -1.97982 3.65981 0
M  V30 2914 H 269.694 -2.99376 4.60071 0
M  V30 2915 H 269.955 -3.3385 2.89821 0
M  V30 2916 N 269.014 -1.53014 -0.377408 0
M  V30 2917 C 270.242 -1.72515 -1.14219 0
M  V30 2918 C 270.657 -0.448735 -1.8339 0
M  V30 2919 O 270.014 0.577592 -1.73119 0
M  V30 2920 C 270.065 -2.8826 -2.18148 0
M  V30 2921 O 269.786 -4.10962 -1.51795 0
M  V30 2922 C 271.287 -3.19536 -3.07264 0
M  V30 2923 H 268.507 -0.577301 -0.342001 0
M  V30 2924 H 271.051 -1.99712 -0.439935 0
M  V30 2925 H 269.206 -2.63492 -2.83991 0
M  V30 2926 H 269.62 -4.75693 -2.20945 0
M  V30 2927 H 271.094 -4.03959 -3.76193 0
M  V30 2928 H 271.571 -2.34403 -3.71419 0
M  V30 2929 H 272.177 -3.46186 -2.47053 0
M  V30 2930 N 270.492 0.636531 -1.44174 0
M  V30 2931 C 271.717 1.42847 -1.50364 0
M  V30 2932 C 272.142 1.87665 -0.127867 0
M  V30 2933 O 271.5 1.58408 0.88185 0
M  V30 2934 C 271.548 2.62854 -2.4686 0
M  V30 2935 O 270.652 3.62501 -1.9664 0
M  V30 2936 H 269.993 0.427642 -0.507955 0
M  V30 2937 H 272.523 0.777422 -1.89255 0
M  V30 2938 H 272.533 3.10465 -2.64718 0
M  V30 2939 H 271.208 2.29578 -3.46795 0
M  V30 2940 H 269.785 3.21735 -1.88523 0
M  V30 2941 N 271.97 1.30982 0.876444 0
M  V30 2942 C 272.88 1.2003 2.01569 0
M  V30 2943 C 273.896 0.11838 1.73597 0
M  V30 2944 O 275.072 0.33495 1.98595 0
M  V30 2945 C 272.137 0.901637 3.34771 0
M  V30 2946 C 271.198 2.06979 3.76109 0
M  V30 2947 C 270.431 1.78529 5.02954 0
M  V30 2948 O 270.654 0.717296 5.65872 0
M  V30 2949 O 269.588 2.64019 5.40905 0
M  V30 2950 H 273.414 2.15753 2.13739 0
M  V30 2951 H 270.999 1.10658 1.00375 0
M  V30 2952 H 272.881 0.750645 4.1466 0
M  V30 2953 H 271.556 -0.0256141 3.2369 0
M  V30 2954 H 270.463 2.27616 2.96887 0
M  V30 2955 H 271.796 2.97907 3.91807 0
M  V30 2956 N 273.449 -1.08991 1.13837 0
M  V30 2957 C 274.86 -1.62746 0.914917 0
M  V30 2958 C 275.211 -1.88403 -0.547594 0
M  V30 2959 O 274.336 -1.63706 -1.41525 0
M  V30 2960 C 274.931 -2.95662 1.65437 0
M  V30 2961 C 273.49 -3.46225 1.47666 0
M  V30 2962 C 272.637 -2.20562 1.6807 0
M  V30 2963 H 275.588 -0.922946 1.29102 0
M  V30 2964 H 275.609 -3.63825 1.11407 0
M  V30 2965 H 275.121 -2.76956 2.71877 0
M  V30 2966 H 273.222 -3.70046 0.435478 0
M  V30 2967 H 273.335 -4.23368 2.24268 0
M  V30 2968 H 271.699 -2.29439 1.10589 0
M  V30 2969 H 272.482 -2.0437 2.7584 0
M  V30 2970 N 274.927 -0.932562 -1.27047 0
M  V30 2971 C 275.877 -0.406392 -2.24349 0
M  V30 2972 C 276.861 0.492066 -1.53191 0
M  V30 2973 O 278.053 0.328717 -1.73921 0
M  V30 2974 C 275.182 0.335214 -3.41659 0
M  V30 2975 C 274.268 -0.58004 -4.20115 0
M  V30 2976 N 274.659 -1.70203 -4.76303 0
M  V30 2977 C 272.957 -0.383974 -4.44344 0
M  V30 2978 C 273.658 -2.27167 -5.35509 0
M  V30 2979 N 272.634 -1.56068 -5.20715 0
M  V30 2980 H 276.436 -1.26299 -2.65378 0
M  V30 2981 H 273.95 -0.787408 -1.42034 0
M  V30 2982 H 275.947 0.729142 -4.10474 0
M  V30 2983 H 274.607 1.18868 -3.0216 0
M  V30 2984 H 275.618 -2.08433 -4.74106 0
M  V30 2985 H 272.295 0.428436 -4.15296 0
M  V30 2986 H 273.685 -3.21654 -5.89905 0
M  V30 2987 N 276.405 1.4127 -0.698611 0
M  V30 2988 C 277.315 2.34573 -0.0357891 0
M  V30 2989 C 278.331 1.56393 0.762701 0
M  V30 2990 O 279.507 1.8886 0.699564 0
M  V30 2991 C 276.572 3.35159 0.887089 0
M  V30 2992 C 275.633 4.29225 0.0804634 0
M  V30 2993 C 274.866 5.25006 0.959387 0
M  V30 2994 O 275.089 5.26314 2.19886 0
M  V30 2995 O 274.023 6.00519 0.407439 0
M  V30 2996 H 277.849 2.92838 -0.804957 0
M  V30 2997 H 275.434 1.42175 -0.458966 0
M  V30 2998 H 277.316 3.9689 1.41621 0
M  V30 2999 H 275.991 2.79333 1.6357 0
M  V30 3000 H 274.898 3.70833 -0.493328 0
M  V30 3001 H 276.231 4.88157 -0.629547 0
M  V30 3002 N 277.883 0.443576 1.51229 0
M  V30 3003 C 279.129 -0.120975 2.02439 0
M  V30 3004 C 279.462 -1.41815 1.32674 0
M  V30 3005 O 278.737 -1.89373 0.443622 0
M  V30 3006 C 279.02 -0.333291 3.58554 0
M  V30 3007 C 278.873 0.982968 4.38928 0
M  V30 3008 C 280.192 -1.10028 4.26124 0
M  V30 3009 H 277.311 -0.0424923 0.735774 0
M  V30 3010 H 279.953 0.583794 1.80809 0
M  V30 3011 H 278.103 -0.933614 3.77115 0
M  V30 3012 H 279.775 1.61775 4.32003 0
M  V30 3013 H 278.018 1.58611 4.03763 0
M  V30 3014 H 278.689 0.788379 5.46341 0
M  V30 3015 H 281.165 -0.591711 4.11871 0
M  V30 3016 H 280.041 -1.21761 5.35225 0
M  V30 3017 H 280.302 -2.12996 3.87408 0
M  V30 3018 N 279.361 -1.56624 0.175154 0
M  V30 3019 C 280.586 -2.01813 -0.478137 0
M  V30 3020 C 281.011 -1.05457 -1.55757 0
M  V30 3021 O 280.369 -0.0347439 -1.81267 0
M  V30 3022 C 280.417 -3.45581 -1.02987 0
M  V30 3023 O 279.521 -3.52305 -2.14371 0
M  V30 3024 H 278.862 -0.65413 -0.114059 0
M  V30 3025 H 281.392 -2.02673 0.280173 0
M  V30 3026 H 281.402 -3.84965 -1.35151 0
M  V30 3027 H 280.077 -4.1521 -0.239556 0
M  V30 3028 H 278.654 -3.24783 -1.83222 0
M  V30 3029 N 280.839 0.0985539 -1.57292 0
M  V30 3030 C 281.802 1.10402 -2.00858 0
M  V30 3031 C 282.802 1.33146 -0.901593 0
M  V30 3032 O 283.992 1.29318 -1.16716 0
M  V30 3033 C 281.124 2.45394 -2.36632 0
M  V30 3034 H 282.317 0.729099 -2.90902 0
M  V30 3035 H 279.87 0.343495 -1.52479 0
M  V30 3036 H 280.605 2.87769 -1.49531 0
M  V30 3037 H 280.39 2.30235 -3.17387 0
M  V30 3038 H 281.88 3.17718 -2.71007 0
M  V30 3039 N 282.317 1.53212 0.369288 0
M  V30 3040 C 283.247 1.82365 1.45826 0
M  V30 3041 C 284.228 0.676907 1.56051 0
M  V30 3042 O 285.413 0.926401 1.70679 0
M  V30 3043 C 282.543 2.01023 2.83208 0
M  V30 3044 C 281.497 3.1678 2.8781 0
M  V30 3045 C 280.823 3.20724 4.27832 0
M  V30 3046 C 282.123 4.55447 2.55667 0
M  V30 3047 H 283.817 2.73559 1.21678 0
M  V30 3048 H 281.363 1.3163 0.583911 0
M  V30 3049 H 283.316 2.20001 3.59413 0
M  V30 3050 H 282.04 1.06536 3.08736 0
M  V30 3051 H 280.699 2.97616 2.14056 0
M  V30 3052 H 280.347 2.23882 4.50429 0
M  V30 3053 H 280.047 3.98496 4.31827 0
M  V30 3054 H 281.571 3.41881 5.05915 0
M  V30 3055 H 282.985 4.74611 3.21586 0
M  V30 3056 H 281.382 5.35432 2.70984 0
M  V30 3057 H 282.452 4.60812 1.5093 0
M  V30 3058 N 283.795 -0.628877 1.44509 0
M  V30 3059 C 285.041 -1.38863 1.48623 0
M  V30 3060 C 285.396 -1.92038 0.117933 0
M  V30 3061 O 284.689 -1.70853 -0.86716 0
M  V30 3062 C 284.883 -2.56995 2.48371 0
M  V30 3063 C 284.712 -2.15385 3.94765 0
M  V30 3064 C 283.482 -2.02558 4.62924 0
M  V30 3065 C 285.68 -1.74158 4.83915 0
M  V30 3066 N 283.662 -1.54534 5.94132 0
M  V30 3067 C 285.033 -1.37396 6.04584 0
M  V30 3068 C 287.088 -1.61559 4.7096 0
M  V30 3069 C 285.791 -0.892948 7.13736 0
M  V30 3070 C 287.817 -1.14862 5.80139 0
M  V30 3071 C 287.179 -0.790516 6.9995 0
M  V30 3072 H 283.278 -0.502858 0.59888 0
M  V30 3073 H 285.862 -0.72121 1.8085 0
M  V30 3074 H 284.033 -3.21362 2.1813 0
M  V30 3075 H 285.765 -3.23801 2.42766 0
M  V30 3076 H 282.52 -2.23082 4.1777 0
M  V30 3077 H 282.944 -1.32815 6.63844 0
M  V30 3078 H 287.586 -1.87876 3.78764 0
M  V30 3079 H 285.304 -0.617291 8.05739 0
M  V30 3080 H 288.89 -1.05569 5.72142 0
M  V30 3081 H 287.77 -0.434713 7.82994 0
M  V30 3082 N 285.273 -1.31445 -0.869486 0
M  V30 3083 C 286.52 -1.21158 -1.62256 0
M  V30 3084 C 286.848 0.230155 -1.93133 0
M  V30 3085 O 286.103 1.17906 -1.56194 0
M  V30 3086 C 286.402 -2.00145 -2.96102 0
M  V30 3087 C 286.068 -3.4964 -2.84715 0
M  V30 3088 C 284.73 -3.90403 -2.81317 0
M  V30 3089 C 287.082 -4.44769 -2.71716 0
M  V30 3090 C 284.41 -5.24561 -2.62778 0
M  V30 3091 C 286.762 -5.79054 -2.54714 0
M  V30 3092 C 285.426 -6.19037 -2.49699 0
M  V30 3093 H 284.696 -0.443348 -0.593737 0
M  V30 3094 H 287.343 -1.62715 -1.00976 0
M  V30 3095 H 285.648 -1.5127 -3.6142 0
M  V30 3096 H 287.345 -1.89566 -3.53363 0
M  V30 3097 H 283.935 -3.17256 -2.88178 0
M  V30 3098 H 288.119 -4.14208 -2.73397 0
M  V30 3099 H 283.375 -5.54613 -2.57321 0
M  V30 3100 H 287.549 -6.52393 -2.43632 0
M  V30 3101 H 285.176 -7.22935 -2.35093 0
M  V30 3102 N 286.751 1.08385 -1.14413 0
M  V30 3103 C 287.681 2.17321 -0.854044 0
M  V30 3104 C 288.662 1.69024 0.191049 0
M  V30 3105 O 289.847 1.94141 0.0476779 0
M  V30 3106 C 286.977 3.45719 -0.330983 0
M  V30 3107 C 285.931 4.07409 -1.31155 0
M  V30 3108 C 285.257 5.30762 -0.64778 0
M  V30 3109 C 286.557 4.48665 -2.67388 0
M  V30 3110 H 288.251 2.41845 -1.76498 0
M  V30 3111 H 285.797 1.16233 -0.850051 0
M  V30 3112 H 287.75 4.21241 -0.115645 0
M  V30 3113 H 286.474 3.2075 0.615381 0
M  V30 3114 H 285.133 3.33919 -1.51306 0
M  V30 3115 H 284.781 5.02078 0.304398 0
M  V30 3116 H 284.481 5.72992 -1.30207 0
M  V30 3117 H 286.005 6.08998 -0.441972 0
M  V30 3118 H 287.419 5.15364 -2.51143 0
M  V30 3119 H 285.816 5.01814 -3.29093 0
M  V30 3120 H 286.886 3.60543 -3.24248 0
M  V30 3121 N 288.23 0.939286 1.26551 0
M  V30 3122 C 289.476 0.596234 1.94465 0
M  V30 3123 C 289.831 -0.855013 1.72358 0
M  V30 3124 O 289.124 -1.6034 1.04889 0
M  V30 3125 C 289.318 0.872106 3.46596 0
M  V30 3126 C 289.147 2.34862 3.83497 0
M  V30 3127 C 287.917 3.00344 4.06352 0
M  V30 3128 C 290.115 3.32697 3.92195 0
M  V30 3129 N 288.097 4.38027 4.30123 0
M  V30 3130 C 289.468 4.55631 4.20476 0
M  V30 3131 C 291.523 3.27747 3.74815 0
M  V30 3132 C 290.226 5.74233 4.33185 0
M  V30 3133 C 292.252 4.45672 3.88755 0
M  V30 3134 C 291.614 5.67388 4.17433 0
M  V30 3135 H 287.713 0.268515 0.734455 0
M  V30 3136 H 290.297 1.2083 1.5267 0
M  V30 3137 H 288.468 0.289102 3.87323 0
M  V30 3138 H 290.2 0.490513 4.01716 0
M  V30 3139 H 286.955 2.50969 4.01636 0
M  V30 3140 H 287.379 5.09288 4.46044 0
M  V30 3141 H 292.021 2.34703 3.51673 0
M  V30 3142 H 289.739 6.67731 4.55149 0
M  V30 3143 H 293.325 4.43372 3.76713 0
M  V30 3144 H 292.205 6.57115 4.27983 0
M  V30 3145 N 289.708 -1.40897 0.706093 0
M  V30 3146 C 290.938 -2.05075 0.250523 0
M  V30 3147 C 291.346 -1.53275 -1.10921 0
M  V30 3148 O 290.689 -0.680281 -1.7064 0
M  V30 3149 C 290.751 -3.59219 0.142178 0
M  V30 3150 C 290.415 -4.33864 1.43566 0
M  V30 3151 C 291.412 -4.62448 2.37566 0
M  V30 3152 C 289.097 -4.72946 1.69195 0
M  V30 3153 C 291.091 -5.29088 3.5545 0
M  V30 3154 C 288.778 -5.3932 2.87362 0
M  V30 3155 C 289.776 -5.6732 3.80312 0
M  V30 3156 O 289.464 -6.32325 4.96408 0
M  V30 3157 H 289.196 -0.666645 0.112074 0
M  V30 3158 H 291.75 -1.81467 0.962239 0
M  V30 3159 H 289.98 -3.81609 -0.6254 0
M  V30 3160 H 291.669 -4.0495 -0.277584 0
M  V30 3161 H 292.435 -4.32727 2.19027 0
M  V30 3162 H 288.314 -4.50527 0.977042 0
M  V30 3163 H 291.858 -5.50859 4.28018 0
M  V30 3164 H 287.755 -5.68461 3.05814 0
M  V30 3165 H 288.523 -6.50821 4.9636 0
M  V30 3166 N 291.186 -0.45159 -1.50991 0
M  V30 3167 C 292.432 0.110237 -2.025 0
M  V30 3168 C 292.765 1.41109 -1.33424 0
M  V30 3169 O 292.04 1.89135 -0.453659 0
M  V30 3170 C 292.323 0.314271 -3.58726 0
M  V30 3171 C 292.176 -1.00623 -4.38401 0
M  V30 3172 C 293.495 1.07767 -4.26702 0
M  V30 3173 H 290.614 0.0385897 -0.735989 0
M  V30 3174 H 293.256 -0.593374 -1.80497 0
M  V30 3175 H 291.406 0.913601 -3.77605 0
M  V30 3176 H 293.078 -1.64064 -4.31139 0
M  V30 3177 H 291.321 -1.6075 -4.02917 0
M  V30 3178 H 291.992 -0.817341 -5.45915 0
M  V30 3179 H 294.468 0.56986 -4.12179 0
M  V30 3180 H 293.344 1.18921 -5.35863 0
M  V30 3181 H 293.605 2.10939 -3.88532 0
M  V30 3182 N 292.664 1.56529 -0.183458 0
M  V30 3183 C 293.611 2.18546 0.742055 0
M  V30 3184 C 294.581 1.12912 1.2182 0
M  V30 3185 O 295.766 1.41115 1.28418 0
M  V30 3186 C 292.906 2.83977 1.96089 0
M  V30 3187 C 292.019 4.04105 1.52719 0
M  V30 3188 C 291.154 4.57427 2.70063 0
M  V30 3189 C 290.193 5.69938 2.23243 0
M  V30 3190 N 289.33 6.17717 3.33722 0
M  V30 3191 H 294.17 2.97284 0.206432 0
M  V30 3192 H 291.707 1.46823 0.0901571 0
M  V30 3193 H 293.665 3.20077 2.67594 0
M  V30 3194 H 292.295 2.07822 2.47002 0
M  V30 3195 H 291.347 3.73745 0.708436 0
M  V30 3196 H 292.659 4.85513 1.1436 0
M  V30 3197 H 291.813 4.95772 3.49708 0
M  V30 3198 H 290.552 3.75101 3.11689 0
M  V30 3199 H 289.557 5.31133 1.42048 0
M  V30 3200 H 290.782 6.54073 1.82661 0
M  V30 3201 H 288.728 5.38317 3.74902 0
M  V30 3202 H 288.645 6.94146 2.99495 0
M  V30 3203 H 289.913 6.60713 4.13616 0
M  V30 3204 N 294.142 -0.090211 1.57342 0
M  V30 3205 C 295.074 -1.13541 1.99101 0
M  V30 3206 C 296.087 -1.3604 0.894258 0
M  V30 3207 O 297.276 -1.34606 1.17233 0
M  V30 3208 C 294.376 -2.49001 2.29895 0
M  V30 3209 C 293.549 -2.46712 3.61182 0
M  V30 3210 C 292.608 -3.64136 3.79857 0
M  V30 3211 O 291.634 -3.46405 4.51655 0
M  V30 3212 N 292.836 -4.83802 3.20806 0
M  V30 3213 H 295.601 -0.779942 2.89373 0
M  V30 3214 H 293.162 -0.279125 1.59476 0
M  V30 3215 H 295.154 -3.26166 2.39578 0
M  V30 3216 H 293.724 -2.76619 1.45605 0
M  V30 3217 H 292.944 -1.55058 3.62423 0
M  V30 3218 H 294.232 -2.42265 4.4742 0
M  V30 3219 H 293.63 -5.01112 2.62494 0
M  V30 3220 H 292.187 -5.58543 3.35966 0
M  V30 3221 N 295.62 -1.53406 -0.361157 0
M  V30 3222 C 296.86 -1.71507 -1.11197 0
M  V30 3223 C 297.224 -0.459337 -1.86425 0
M  V30 3224 O 298.425 -0.517102 -2.63779 0
M  V30 3225 C 296.696 -2.93307 -2.0422 0
M  V30 3226 S 298.255 -3.32135 -2.86761 0
M  V30 3227 H 295.073 -0.603448 -0.375995 0
M  V30 3228 H 297.675 -1.91516 -0.392642 0
M  V30 3229 H 296.379 -3.82891 -1.47724 0
M  V30 3230 H 295.91 -2.75712 -2.80618 0
M  V30 3231 H 297.925 -2.84493 -4.06544 0
M  V30 3232 N 297.098 0.621204 -1.44841 0
M  V30 3233 C 298.346 1.37783 -1.47852 0
M  V30 3234 C 298.667 1.94653 -0.116224 0
M  V30 3235 O 297.937 1.76367 0.852737 0
M  V30 3236 H 296.517 0.511453 -0.544449 0
M  V30 3237 H 299.179 0.730446 -1.80694 0
M  V30 3238 H 298.275 2.20414 -2.20961 0
M  V30 3239 N 298.576 1.31904 0.862503 0
M  V30 3240 C 299.824 1.21776 1.61292 0
M  V30 3241 C 300.145 -0.222413 1.93727 0
M  V30 3242 O 299.415 -1.1451 1.58947 0
M  V30 3243 H 297.995 0.447717 0.597962 0
M  V30 3244 H 300.657 1.65326 1.03215 0
M  V30 3245 H 299.753 1.7948 2.5533 0
M  V30 3246 N 300.054 -1.07777 1.14986 0
M  V30 3247 C 301.282 -1.84018 0.945773 0
M  V30 3248 C 301.697 -1.81897 -0.505863 0
M  V30 3249 O 301.054 -1.22726 -1.35072 0
M  V30 3250 C 301.105 -3.31287 1.44677 0
M  V30 3251 O 300.826 -3.33449 2.84154 0
M  V30 3252 C 302.327 -4.24311 1.28355 0
M  V30 3253 H 299.547 -0.580716 0.336169 0
M  V30 3254 H 302.091 -1.36077 1.52654 0
M  V30 3255 H 300.246 -3.76594 0.908625 0
M  V30 3256 H 300.66 -4.25427 3.06777 0
M  V30 3257 H 302.134 -5.2573 1.68261 0
M  V30 3258 H 302.611 -4.38612 0.227184 0
M  V30 3259 H 303.217 -3.84836 1.81056 0
M  V30 3260 N 301.532 -0.945985 -1.26051 0
M  V30 3261 C 302.76 -0.613025 -1.9761 0
M  V30 3262 C 303.175 0.813035 -1.70397 0
M  V30 3263 O 302.532 1.54274 -0.974979 0
M  V30 3264 C 302.583 -0.85159 -3.51326 0
M  V30 3265 O 302.304 -2.22157 -3.77595 0
M  V30 3266 C 303.805 -0.529831 -4.40122 0
M  V30 3267 H 301.025 -0.230593 -0.630133 0
M  V30 3268 H 303.569 -1.268 -1.60443 0
M  V30 3269 H 301.724 -0.243151 -3.86636 0
M  V30 3270 H 302.138 -2.2852 -4.721 0
M  V30 3271 H 303.612 -0.747348 -5.46917 0
M  V30 3272 H 304.089 0.535341 -4.35925 0
M  V30 3273 H 304.695 -1.11721 -4.10364 0
M  V30 3274 N 303.011 1.40521 -0.713556 0
M  V30 3275 C 304.427 1.54839 -0.386907 0
M  V30 3276 C 304.627 1.68532 1.1045 0
M  V30 3277 O 303.683 1.67377 1.89053 0
M  V30 3278 C 304.996 2.77792 -1.15118 0
M  V30 3279 C 306.544 2.91607 -1.13729 0
M  V30 3280 C 307.019 4.1747 -1.88368 0
M  V30 3281 N 308.51 4.24466 -1.85427 0
M  V30 3282 C 309.245 5.20755 -2.40004 0
M  V30 3283 N 308.741 6.22965 -3.03129 0
M  V30 3284 N 310.534 5.1282 -2.30158 0
M  V30 3285 H 302.685 1.29879 -1.68063 0
M  V30 3286 H 304.948 0.627896 -0.710247 0
M  V30 3287 H 304.654 2.73944 -2.20561 0
M  V30 3288 H 304.528 3.6984 -0.741477 0
M  V30 3289 H 306.915 2.94959 -0.0910608 0
M  V30 3290 H 306.996 2.00682 -1.5862 0
M  V30 3291 H 306.64 4.1488 -2.9298 0
M  V30 3292 H 306.57 5.074 -1.40898 0
M  V30 3293 H 309.061 3.51241 -1.3942 0
M  V30 3294 H 309.374 6.92859 -3.42295 0
M  V30 3295 H 307.719 6.23415 -3.07212 0
M  V30 3296 H 310.91 4.31899 -1.80501 0
M  V30 3297 H 311.083 5.87689 -2.72993 0
M  V30 3298 N 304.489 0.459591 1.5075 0
M  V30 3299 C 305.738 -0.100971 2.01447 0
M  V30 3300 C 306.051 -1.41816 1.34713 0
M  V30 3301 O 307.257 -2.06299 1.76502 0
M  V30 3302 C 305.713 -0.23047 3.59161 0
M  V30 3303 C 305.321 1.0776 4.34847 0
M  V30 3304 C 307.065 -0.743608 4.17936 0
M  V30 3305 C 304.972 0.91253 5.84317 0
M  V30 3306 H 303.902 -0.0415102 0.752856 0
M  V30 3307 H 306.553 0.592742 1.73663 0
M  V30 3308 H 304.935 -0.987703 3.83485 0
M  V30 3309 H 306.109 1.8449 4.22256 0
M  V30 3310 H 304.424 1.52097 3.87628 0
M  V30 3311 H 307.021 -0.883959 5.27343 0
M  V30 3312 H 307.364 -1.73196 3.78562 0
M  V30 3313 H 307.897 -0.04408 3.97776 0
M  V30 3314 H 304.636 1.87391 6.28144 0
M  V30 3315 H 304.156 0.185422 5.99513 0
M  V30 3316 H 305.835 0.574547 6.44444 0
M  V30 3317 N 305.967 -1.56429 0.191757 0
M  V30 3318 C 307.214 -1.97485 -0.447891 0
M  V30 3319 C 307.542 -1.07852 -1.61859 0
M  V30 3320 O 306.797 -0.116903 -1.95351 0
M  V30 3321 C 307.096 -3.44449 -0.953384 0
M  V30 3322 C 306.762 -4.50781 0.103586 0
M  V30 3323 C 305.424 -4.79584 0.394023 0
M  V30 3324 C 307.776 -5.1471 0.819946 0
M  V30 3325 C 305.104 -5.69607 1.40585 0
M  V30 3326 C 307.456 -6.05827 1.8209 0
M  V30 3327 C 306.12 -6.32987 2.11857 0
M  V30 3328 H 305.39 -0.722648 -0.163895 0
M  V30 3329 H 308.037 -1.89322 0.28802 0
M  V30 3330 H 306.342 -3.49666 -1.76751 0
M  V30 3331 H 308.039 -3.73569 -1.45765 0
M  V30 3332 H 304.629 -4.28394 -0.132951 0
M  V30 3333 H 308.813 -4.92552 0.608789 0
M  V30 3334 H 304.069 -5.88926 1.64243 0
M  V30 3335 H 308.243 -6.54424 2.38123 0
M  V30 3336 H 305.87 -7.02544 2.90407 0
M  V30 3337 N 307.445 0.0818655 -1.57387 0
M  V30 3338 C 308.67 0.799946 -1.91352 0
M  V30 3339 C 309.095 1.70833 -0.787258 0
M  V30 3340 O 308.453 1.79419 0.26048 0
M  V30 3341 C 308.501 1.57812 -3.24234 0
M  V30 3342 O 307.605 2.68806 -3.12757 0
M  V30 3343 H 306.946 0.21891 -0.626877 0
M  V30 3344 H 309.476 0.0531256 -2.04531 0
M  V30 3345 H 309.486 1.95952 -3.57864 0
M  V30 3346 H 308.161 0.911548 -4.05788 0
M  V30 3347 H 306.738 2.33597 -2.90666 0
M  V30 3348 N 308.923 1.53595 0.353017 0
M  V30 3349 C 310.169 1.70638 1.09593 0
M  V30 3350 C 310.502 0.463286 1.88593 0
M  V30 3351 O 309.777 -0.539597 1.86865 0
M  V30 3352 C 310.06 2.96406 2.04489 0
M  V30 3353 C 309.913 4.30901 1.29014 0
M  V30 3354 C 311.232 3.17812 3.0444 0
M  V30 3355 H 308.351 0.620913 0.397034 0
M  V30 3356 H 310.993 1.86254 0.375446 0
M  V30 3357 H 309.143 2.83223 2.65927 0
M  V30 3358 H 310.815 4.55917 0.702638 0
M  V30 3359 H 309.058 4.29741 0.592071 0
M  V30 3360 H 309.729 5.1506 1.98537 0
M  V30 3361 H 312.205 3.30263 2.53112 0
M  V30 3362 H 311.081 4.07223 3.6805 0
M  V30 3363 H 311.342 2.33669 3.75301 0
M  V30 3364 N 310.401 -0.613514 1.45168 0
M  V30 3365 C 311.629 -1.39946 1.5239 0
M  V30 3366 C 312.044 -1.88167 0.154531 0
M  V30 3367 O 311.401 -1.61872 -0.842843 0
M  V30 3368 C 311.452 -2.60795 2.50337 0
M  V30 3369 O 311.173 -2.1458 3.81952 0
M  V30 3370 C 312.674 -3.53723 2.67198 0
M  V30 3371 H 309.894 -0.428593 0.516284 0
M  V30 3372 H 312.438 -0.748753 1.903 0
M  V30 3373 H 310.593 -3.21919 2.15515 0
M  V30 3374 H 311.007 -2.93055 4.34993 0
M  V30 3375 H 312.481 -4.35079 3.39721 0
M  V30 3376 H 312.958 -4.0368 1.73029 0
M  V30 3377 H 313.564 -2.98456 3.02992 0
M  V30 3378 N 311.879 -1.3236 -0.855495 0
M  V30 3379 C 312.827 -1.2118 -1.9854 0
M  V30 3380 C 313.821 -0.116788 -1.68997 0
M  V30 3381 O 315.027 -0.279657 -1.77814 0
M  V30 3382 H 311.402 -0.375608 -0.651477 0
M  V30 3383 H 313.373 -2.16743 -2.05098 0
M  V30 3384 C 312.122 -0.950849 -3.34446 0
M  V30 3385 H 311.445 -1.78563 -3.57708 0
M  V30 3386 H 312.885 -0.912863 -4.14057 0
M  V30 3387 C 311.344 0.346404 -3.35114 0
M  V30 3388 O 311.874 1.35855 -3.7803 0
M  V30 3389 N 310.08 0.36808 -2.88259 0
M  V30 3390 H 309.627 -0.456102 -2.5353 0
M  V30 3391 H 309.585 1.23591 -2.89089 0
M  V30 3392 N 313.357 1.07166 -1.15556 0
M  V30 3393 C 314.605 1.79443 -0.929764 0
M  V30 3394 C 314.926 1.87246 0.544414 0
M  V30 3395 O 314.196 1.37473 1.39564 0
M  V30 3396 H 312.776 0.664625 -0.341003 0
M  V30 3397 H 315.438 1.29499 -1.45657 0
M  V30 3398 H 314.534 2.81832 -1.34079 0
M  V30 3399 N 314.835 0.952656 1.25548 0
M  V30 3400 C 316.083 0.605176 1.92826 0
M  V30 3401 C 316.404 -0.860261 1.74999 0
M  V30 3402 O 315.674 -1.6125 1.11244 0
M  V30 3403 H 314.254 0.220832 0.713612 0
M  V30 3404 H 316.916 1.21047 1.52754 0
M  V30 3405 H 316.012 0.832798 3.00784 0
M  V30 3406 N 316.313 -1.40141 0.720998 0
M  V30 3407 C 317.245 -2.29177 0.0324669 0
M  V30 3408 C 318.258 -1.46105 -0.718126 0
M  V30 3409 O 319.447 -1.69335 -0.564608 0
M  V30 3410 C 316.547 -3.24473 -0.978292 0
M  V30 3411 C 315.72 -4.36423 -0.292115 0
M  V30 3412 C 314.779 -5.12122 -1.20901 0
M  V30 3413 O 313.805 -5.64981 -0.691766 0
M  V30 3414 N 315.007 -5.21992 -2.53978 0
M  V30 3415 H 317.772 -2.88909 0.796984 0
M  V30 3416 H 315.333 -1.51569 0.569068 0
M  V30 3417 H 317.325 -3.71987 -1.59398 0
M  V30 3418 H 315.895 -2.65871 -1.64413 0
M  V30 3419 H 315.115 -3.90967 0.503847 0
M  V30 3420 H 316.403 -5.08467 0.183971 0
M  V30 3421 H 315.801 -4.8054 -2.98493 0
M  V30 3422 H 314.358 -5.72995 -3.10677 0
M  V30 3423 N 317.792 -0.46758 -1.50504 0
M  V30 3424 C 318.702 0.33382 -2.32213 0
M  V30 3425 C 319.718 0.999323 -1.42441 0
M  V30 3426 O 320.894 0.988068 -1.75497 0
M  V30 3427 C 317.959 1.4035 -3.17022 0
M  V30 3428 C 317.02 0.754961 -4.2261 0
M  V30 3429 C 316.253 1.77367 -5.03365 0
M  V30 3430 O 316.476 2.99976 -4.8515 0
M  V30 3431 O 315.41 1.34744 -5.86624 0
M  V30 3432 H 319.236 -0.334067 -3.01857 0
M  V30 3433 H 316.821 -0.229496 -1.47627 0
M  V30 3434 H 318.703 2.02318 -3.69656 0
M  V30 3435 H 317.378 2.05492 -2.5011 0
M  V30 3436 H 316.285 0.0964244 -3.73976 0
M  V30 3437 H 317.618 0.146545 -4.91982 0
M  V30 3438 N 319.27 1.56325 -0.20005 0
M  V30 3439 C 320.686 1.58839 0.155716 0
M  V30 3440 C 320.886 1.21636 1.60645 0
M  V30 3441 O 319.942 0.941437 2.34293 0
M  V30 3442 C 321.255 3.0032 -0.151124 0
M  V30 3443 C 322.803 3.12866 -0.0916284 0
M  V30 3444 C 323.278 4.56488 -0.371845 0
M  V30 3445 N 324.769 4.62089 -0.320641 0
M  V30 3446 C 325.504 5.71116 -0.511243 0
M  V30 3447 N 325 6.88592 -0.762461 0
M  V30 3448 N 326.793 5.60335 -0.445157 0
M  V30 3449 H 318.944 1.78788 -1.14668 0
M  V30 3450 H 321.207 0.829996 -0.458051 0
M  V30 3451 H 320.913 3.32117 -1.15721 0
M  V30 3452 H 320.787 3.73257 0.543986 0
M  V30 3453 H 323.174 2.80878 0.905065 0
M  V30 3454 H 323.255 2.42304 -0.81989 0
M  V30 3455 H 322.899 4.89189 -1.36588 0
M  V30 3456 H 322.829 5.25246 0.377362 0
M  V30 3457 H 325.32 3.77665 -0.13329 0
M  V30 3458 H 325.633 7.67581 -0.896576 0
M  V30 3459 H 323.978 6.90387 -0.799412 0
M  V30 3460 H 327.169 4.67436 -0.249278 0
M  V30 3461 H 327.342 6.45243 -0.597116 0
M  V30 3462 N 320.748 -0.0735177 1.57428 0
M  V30 3463 C 321.695 -1.08756 2.0357 0
M  V30 3464 C 322.665 -1.38559 0.916 0
M  V30 3465 O 323.85 -1.49656 1.18354 0
M  V30 3466 C 320.99 -2.39657 2.48311 0
M  V30 3467 C 320.103 -2.16399 3.73892 0
M  V30 3468 C 319.238 -3.40852 4.07423 0
M  V30 3469 C 318.277 -3.1295 5.2605 0
M  V30 3470 N 317.414 -4.29729 5.55228 0
M  V30 3471 H 322.254 -0.687104 2.8997 0
M  V30 3472 H 319.791 -0.327709 1.43403 0
M  V30 3473 H 321.749 -3.16081 2.72303 0
M  V30 3474 H 320.379 -2.77508 1.64891 0
M  V30 3475 H 319.431 -1.30676 3.57251 0
M  V30 3476 H 320.743 -1.91788 4.60455 0
M  V30 3477 H 319.897 -4.25671 4.32306 0
M  V30 3478 H 318.636 -3.68537 3.19425 0
M  V30 3479 H 317.641 -2.26526 5.00965 0
M  V30 3480 H 318.866 -2.86589 6.15665 0
M  V30 3481 H 316.812 -4.57448 4.70188 0
M  V30 3482 H 316.729 -4.08385 6.36206 0
M  V30 3483 H 317.997 -5.1555 5.84661 0
M  V30 3484 N 322.226 -1.5378 -0.344866 0
M  V30 3485 C 323.473 -1.70963 -1.08526 0
M  V30 3486 C 323.801 -0.472126 -1.88683 0
M  V30 3487 O 323.056 0.546116 -1.87926 0
M  V30 3488 C 323.355 -2.92407 -2.05506 0
M  V30 3489 C 323.021 -4.28066 -1.41671 0
M  V30 3490 C 321.683 -4.64951 -1.2399 0
M  V30 3491 C 324.035 -5.12344 -0.956726 0
M  V30 3492 C 321.363 -5.83733 -0.589277 0
M  V30 3493 C 323.715 -6.3179 -0.320015 0
M  V30 3494 C 322.379 -6.67372 -0.130881 0
M  V30 3495 H 321.649 -0.625598 -0.397124 0
M  V30 3496 H 324.296 -1.87995 -0.36469 0
M  V30 3497 H 322.601 -2.69973 -2.8394 0
M  V30 3498 H 324.298 -3.02895 -2.62784 0
M  V30 3499 H 320.888 -3.99034 -1.56429 0
M  V30 3500 H 325.072 -4.8438 -1.08118 0
M  V30 3501 H 320.328 -6.09877 -0.431344 0
M  V30 3502 H 324.502 -6.96386 0.0445072 0
M  V30 3503 H 322.129 -7.59273 0.375318 0
M  V30 3504 N 323.704 0.605807 -1.45491 0
M  V30 3505 C 324.95 1.36679 -1.49823 0
M  V30 3506 C 325.283 1.93693 -0.140175 0
M  V30 3507 O 324.558 1.75158 0.845581 0
M  V30 3508 C 324.841 2.51337 -2.57879 0
M  V30 3509 C 324.694 1.99508 -4.03134 0
M  V30 3510 C 326.013 3.53463 -2.62205 0
M  V30 3511 H 323.132 0.495617 -0.545466 0
M  V30 3512 H 325.774 0.682732 -1.7731 0
M  V30 3513 H 323.924 3.09691 -2.34571 0
M  V30 3514 H 325.596 1.45789 -4.37656 0
M  V30 3515 H 323.839 1.30496 -4.13707 0
M  V30 3516 H 324.51 2.82169 -4.74431 0
M  V30 3517 H 326.986 3.04953 -2.83095 0
M  V30 3518 H 325.862 4.31178 -3.39672 0
M  V30 3519 H 326.123 4.09197 -1.67363 0
M  V30 3520 N 325.182 1.32811 0.848464 0
M  V30 3521 C 326.43 1.23479 1.59991 0
M  V30 3522 C 326.751 -0.201853 1.93952 0
M  V30 3523 O 326.021 -1.12818 1.60153 0
M  V30 3524 H 324.601 0.454034 0.593179 0
M  V30 3525 H 327.263 1.66412 1.01455 0
M  V30 3526 H 326.359 1.82178 2.53412 0
M  V30 3527 N 326.66 -1.06551 1.16123 0
M  V30 3528 C 327.908 -1.78947 0.939267 0
M  V30 3529 C 328.229 -1.87532 -0.534476 0
M  V30 3530 O 327.499 -1.38211 -1.38833 0
M  V30 3531 H 326.079 -0.662807 0.344523 0
M  V30 3532 H 328.741 -1.28725 1.46342 0
M  V30 3533 H 327.837 -2.81117 1.35572 0
M  V30 3534 N 328.138 -0.959301 -1.25041 0
M  V30 3535 C 329.363 -0.633507 -1.97488 0
M  V30 3536 C 329.788 0.788555 -1.70773 0
M  V30 3537 O 329.146 1.53394 -0.966431 0
M  V30 3538 C 329.194 -0.904057 -3.49083 0
M  V30 3539 O 328.298 0.0147939 -4.12397 0
M  V30 3540 H 327.639 -0.240368 -0.618966 0
M  V30 3541 H 330.169 -1.28717 -1.59038 0
M  V30 3542 H 330.179 -0.832203 -3.99423 0
M  V30 3543 H 328.854 -1.94048 -3.67856 0
M  V30 3544 H 327.431 -0.109664 -3.72739 0
M  V30 3545 N 329.616 1.39756 -0.72842 0
M  V30 3546 C 330.864 2.00248 -0.272946 0
M  V30 3547 C 331.185 1.58077 1.14178 0
M  V30 3548 O 330.455 0.826014 1.77634 0
M  V30 3549 H 329.035 0.740554 -0.0979247 0
M  V30 3550 H 331.697 1.70903 -0.936912 0
M  V30 3551 H 330.793 3.10495 -0.316142 0
M  V30 3552 N 331.094 0.475555 1.50254 0
M  V30 3553 C 332.026 -0.352649 2.26471 0
M  V30 3554 C 333.039 -0.953165 1.3198 0
M  V30 3555 O 334.228 -0.840815 1.57457 0
M  V30 3556 C 331.328 -1.50902 3.0345 0
M  V30 3557 C 330.501 -1.02047 4.25329 0
M  V30 3558 C 329.56 -2.05142 4.84565 0
M  V30 3559 O 328.586 -1.63023 5.45355 0
M  V30 3560 N 329.788 -3.37987 4.71959 0
M  V30 3561 H 332.553 0.300767 2.98187 0
M  V30 3562 H 330.114 0.306598 1.5897 0
M  V30 3563 H 332.106 -2.19572 3.39956 0
M  V30 3564 H 330.676 -2.06705 2.34504 0
M  V30 3565 H 329.896 -0.159507 3.93877 0
M  V30 3566 H 331.184 -0.672061 5.04342 0
M  V30 3567 H 330.582 -3.74913 4.23623 0
M  V30 3568 H 329.139 -4.02443 5.12721 0
M  V30 3569 N 332.573 -1.56217 0.208337 0
M  V30 3570 C 333.819 -1.98242 -0.427552 0
M  V30 3571 C 334.152 -1.09554 -1.60348 0
M  V30 3572 O 333.427 -0.15035 -1.93918 0
M  V30 3573 C 333.71 -3.4931 -0.874907 0
M  V30 3574 C 333.563 -4.48773 0.303751 0
M  V30 3575 C 334.882 -4.04424 -1.73577 0
M  V30 3576 H 332.001 -0.720744 -0.153936 0
M  V30 3577 H 334.643 -1.87586 0.30192 0
M  V30 3578 H 332.793 -3.58522 -1.49648 0
M  V30 3579 H 334.465 -4.51586 0.941682 0
M  V30 3580 H 332.708 -4.23194 0.953375 0
M  V30 3581 H 333.379 -5.51976 -0.0519883 0
M  V30 3582 H 335.855 -3.98075 -1.21143 0
M  V30 3583 H 334.731 -5.1047 -2.01771 0
M  V30 3584 H 334.992 -3.50494 -2.69456 0
M  V30 3585 N 334.051 0.0651679 -1.57465 0
M  V30 3586 C 335.276 0.779605 -1.9219 0
M  V30 3587 C 335.701 1.69988 -0.805333 0
M  V30 3588 O 335.059 1.79685 0.241435 0
M  V30 3589 C 335.107 1.54364 -3.2589 0
M  V30 3590 O 334.211 2.65474 -3.1559 0
M  V30 3591 H 333.552 0.212249 -0.629163 0
M  V30 3592 H 336.082 0.0314294 -2.04576 0
M  V30 3593 H 336.092 1.92146 -3.59922 0
M  V30 3594 H 334.767 0.868457 -4.06732 0
M  V30 3595 H 333.344 2.30501 -2.93128 0
M  V30 3596 N 335.529 1.53961 0.336706 0
M  V30 3597 C 336.439 1.85432 1.43708 0
M  V30 3598 C 337.455 0.745053 1.57242 0
M  V30 3599 O 338.631 1.03804 1.72588 0
M  V30 3600 C 335.696 2.06349 2.78605 0
M  V30 3601 C 334.757 3.30191 2.74358 0
M  V30 3602 C 333.99 3.50101 4.02822 0
M  V30 3603 O 334.213 2.7371 5.00439 0
M  V30 3604 O 333.147 4.43547 4.06878 0
M  V30 3605 H 336.973 2.78975 1.20028 0
M  V30 3606 H 334.558 1.39701 0.52952 0
M  V30 3607 H 336.44 2.21513 3.58483 0
M  V30 3608 H 335.115 1.15995 3.02203 0
M  V30 3609 H 334.022 3.20425 1.93078 0
M  V30 3610 H 335.355 4.2056 2.55715 0
M  V30 3611 N 337.007 -0.598083 1.45811 0
M  V30 3612 C 338.423 -0.919847 1.30426 0
M  V30 3613 C 338.623 -1.99759 0.264303 0
M  V30 3614 O 337.679 -2.50221 -0.338472 0
M  V30 3615 C 338.992 -1.35176 2.68603 0
M  V30 3616 C 340.54 -1.46546 2.76574 0
M  V30 3617 C 341.015 -1.9311 4.15298 0
M  V30 3618 N 342.506 -2.00328 4.1764 0
M  V30 3619 C 343.241 -2.37599 5.21856 0
M  V30 3620 N 342.737 -2.73771 6.36413 0
M  V30 3621 N 344.53 -2.38021 5.09218 0
M  V30 3622 H 336.681 0.114111 2.12093 0
M  V30 3623 H 338.944 -0.0116121 0.947929 0
M  V30 3624 H 338.65 -0.633969 3.45939 0
M  V30 3625 H 338.524 -2.3164 2.97696 0
M  V30 3626 H 340.911 -2.17415 1.99537 0
M  V30 3627 H 340.992 -0.483727 2.51185 0
M  V30 3628 H 340.636 -1.22824 4.92825 0
M  V30 3629 H 340.566 -2.92213 4.38086 0
M  V30 3630 H 343.057 -1.74925 3.34977 0
M  V30 3631 H 343.37 -3.0112 7.11721 0
M  V30 3632 H 341.715 -2.71445 6.39799 0
M  V30 3633 H 344.906 -2.09174 4.18765 0
M  V30 3634 H 345.079 -2.66741 5.90554 0
M  V30 3635 N 338.485 -1.33259 -0.841409 0
M  V30 3636 C 339.734 -1.23921 -1.59143 0
M  V30 3637 C 340.047 0.1941 -1.94635 0
M  V30 3638 O 341.253 0.409474 -2.68394 0
M  V30 3639 C 339.709 -2.17119 -2.87032 0
M  V30 3640 C 339.317 -3.65606 -2.58914 0
M  V30 3641 C 341.061 -2.16648 -3.65053 0
M  V30 3642 C 338.968 -4.50726 -3.82884 0
M  V30 3643 H 337.898 -0.460264 -0.597221 0
M  V30 3644 H 340.549 -1.58307 -0.927959 0
M  V30 3645 H 338.931 -1.75663 -3.54906 0
M  V30 3646 H 340.105 -4.15487 -1.99267 0
M  V30 3647 H 338.42 -3.68341 -1.942 0
M  V30 3648 H 341.017 -2.77474 -4.57069 0
M  V30 3649 H 341.36 -1.16088 -3.99787 0
M  V30 3650 H 341.893 -2.56453 -3.041 0
M  V30 3651 H 338.632 -5.52151 -3.53283 0
M  V30 3652 H 338.152 -4.0559 -4.41879 0
M  V30 3653 H 339.831 -4.64401 -4.50489 0
M  V30 3654 N 339.963 1.05934 -1.16686 0
M  V30 3655 C 340.896 2.1295 -0.820225 0
M  V30 3656 C 341.874 1.61242 0.209722 0
M  V30 3657 O 343.058 1.88271 0.0929688 0
M  V30 3658 C 340.185 3.3797 -0.22223 0
M  V30 3659 C 339.231 4.08488 -1.22637 0
M  V30 3660 S 340.064 4.58015 -2.77457 0
M  V30 3661 C 341.22 5.86292 -2.19117 0
M  V30 3662 H 341.453 2.42025 -1.72659 0
M  V30 3663 H 338.986 1.18423 -0.990722 0
M  V30 3664 H 340.944 4.10335 0.116322 0
M  V30 3665 H 339.605 3.07045 0.66196 0
M  V30 3666 H 338.798 4.98291 -0.756455 0
M  V30 3667 H 338.4 3.42154 -1.51019 0
M  V30 3668 H 340.692 6.59246 -1.56209 0
M  V30 3669 H 341.635 6.38019 -3.07144 0
M  V30 3670 H 342.043 5.40497 -1.62858 0
M  V30 3671 N 341.441 0.965919 1.2453 0
M  V30 3672 C 342.718 0.543777 1.87889 0
M  V30 3673 C 343.098 -0.97909 1.87021 0
M  V30 3674 O 342.446 -1.84969 1.3416 0
M  V30 3675 C 342.656 1.13327 3.30088 0
M  V30 3676 C 344.004 1.21707 4.06783 0
M  V30 3677 O 345.028 1.08566 3.39252 0
M  V30 3678 O 343.887 1.42456 5.27606 0
M  V30 3679 H 340.981 0.181054 0.806938 0
M  V30 3680 H 343.527 1.06007 1.32516 0
M  V30 3681 H 342.299 2.17612 3.25209 0
M  V30 3682 H 341.922 0.600911 3.93033 0
M  V30 3683 N 342.919 -1.39368 0.735821 0
M  V30 3684 C 343.849 -2.33234 0.111506 0
M  V30 3685 C 344.83 -1.53954 -0.723334 0
M  V30 3686 O 346.015 -1.82344 -0.668147 0
M  V30 3687 C 343.145 -3.38057 -0.795917 0
M  V30 3688 C 342.099 -4.2795 -0.065172 0
M  V30 3689 C 341.425 -5.23479 -1.08967 0
M  V30 3690 C 342.725 -5.10741 1.09273 0
M  V30 3691 H 344.419 -2.85692 0.895571 0
M  V30 3692 H 341.965 -1.37364 0.432109 0
M  V30 3693 H 343.918 -4.02675 -1.24221 0
M  V30 3694 H 342.642 -2.8404 -1.61211 0
M  V30 3695 H 341.301 -3.64813 0.361511 0
M  V30 3696 H 340.949 -4.65758 -1.89944 0
M  V30 3697 H 340.649 -5.84472 -0.605489 0
M  V30 3698 H 342.173 -5.90974 -1.53565 0
M  V30 3699 H 343.587 -5.68699 0.724841 0
M  V30 3700 H 341.984 -5.8088 1.50659 0
M  V30 3701 H 343.054 -4.45525 1.91404 0
M  V30 3702 N 344.397 -0.483516 -1.5 0
M  V30 3703 C 345.327 0.293829 -2.31644 0
M  V30 3704 C 346.308 0.978864 -1.39112 0
M  V30 3705 O 347.493 0.973644 -1.68029 0
M  V30 3706 C 344.623 1.36897 -3.19181 0
M  V30 3707 C 343.577 0.804833 -4.20365 0
M  V30 3708 C 342.903 1.9792 -4.96721 0
M  V30 3709 C 344.203 -0.192313 -5.21946 0
M  V30 3710 H 345.897 -0.387616 -2.9688 0
M  V30 3711 H 343.443 -0.187856 -1.42769 0
M  V30 3712 H 345.396 1.92037 -3.751 0
M  V30 3713 H 344.12 2.07936 -2.51853 0
M  V30 3714 H 342.779 0.275319 -3.65565 0
M  V30 3715 H 342.427 2.67686 -4.25856 0
M  V30 3716 H 342.127 1.60789 -5.65173 0
M  V30 3717 H 343.651 2.53526 -5.55479 0
M  V30 3718 H 345.065 0.270333 -5.72662 0
M  V30 3719 H 343.462 -0.478543 -5.98189 0
M  V30 3720 H 344.532 -1.11409 -4.71928 0
M  V30 3721 N 345.875 1.56104 -0.216619 0
M  V30 3722 C 347.123 1.97781 0.415593 0
M  V30 3723 C 347.444 1.10536 1.60645 0
M  V30 3724 O 346.714 0.181303 1.95059 0
M  V30 3725 H 345.294 0.730415 0.156534 0
M  V30 3726 H 347.956 1.92445 -0.308366 0
M  V30 3727 H 347.052 3.03072 0.74525 0
M  V30 3728 N 347.353 -0.0568162 1.57498 0
M  V30 3729 C 348.63 -0.786954 1.79071 0
M  V30 3730 C 349.01 -1.95028 0.80792 0
M  V30 3731 O 348.358 -2.27968 -0.155858 0
M  V30 3732 C 348.568 -1.24594 3.26002 0
M  V30 3733 C 349.916 -1.67323 3.90241 0
M  V30 3734 O 350.94 -1.34124 3.29984 0
M  V30 3735 O 349.799 -2.28842 4.9628 0
M  V30 3736 H 346.893 -0.378262 0.735423 0
M  V30 3737 H 349.439 -0.035734 1.69662 0
M  V30 3738 H 348.211 -0.41423 3.89101 0
M  V30 3739 H 347.834 -2.05803 3.40192 0
M  V30 3740 N 348.832 -1.54138 -0.328536 0
M  V30 3741 C 349.764 -1.79509 -1.4251 0
M  V30 3742 C 350.777 -0.67688 -1.48061 0
M  V30 3743 O 351.966 -0.953898 -1.50874 0
M  V30 3744 C 349.066 -1.89337 -2.81078 0
M  V30 3745 C 348.239 -3.19443 -2.98789 0
M  V30 3746 C 347.298 -3.20036 -4.17688 0
M  V30 3747 O 346.324 -3.93697 -4.11086 0
M  V30 3748 N 347.526 -2.43467 -5.26976 0
M  V30 3749 H 350.291 -2.74139 -1.21111 0
M  V30 3750 H 347.852 -1.53373 -0.518499 0
M  V30 3751 H 349.844 -1.87167 -3.58818 0
M  V30 3752 H 348.414 -1.01826 -2.95551 0
M  V30 3753 H 347.634 -3.34614 -2.08391 0
M  V30 3754 H 348.922 -4.05354 -3.07515 0
M  V30 3755 H 348.32 -1.83201 -5.35214 0
M  V30 3756 H 346.877 -2.4708 -6.03154 0
M  V30 3757 N 350.31 0.590341 -1.46126 0
M  V30 3758 C 351.556 1.35082 -1.51264 0
M  V30 3759 C 351.889 1.93534 -0.160711 0
M  V30 3760 O 351.164 1.76045 0.826956 0
M  V30 3761 C 351.447 2.48588 -2.6053 0
M  V30 3762 C 351.3 1.95221 -4.05227 0
M  V30 3763 C 352.619 3.50662 -2.6594 0
M  V30 3764 H 349.738 0.489803 -0.550692 0
M  V30 3765 H 352.38 0.663887 -1.78024 0
M  V30 3766 H 350.53 3.07186 -2.37843 0
M  V30 3767 H 352.202 1.41139 -4.39178 0
M  V30 3768 H 350.445 1.26101 -4.15068 0
M  V30 3769 H 351.116 2.77121 -4.77397 0
M  V30 3770 H 353.592 3.01934 -2.86313 0
M  V30 3771 H 352.468 4.27551 -3.44226 0
M  V30 3772 H 352.729 4.07399 -1.71694 0
M  V30 3773 N 351.788 1.33704 0.83433 0
M  V30 3774 C 352.735 1.24335 1.94447 0
M  V30 3775 C 353.705 0.120991 1.65659 0
M  V30 3776 O 354.89 0.300035 1.88426 0
M  V30 3777 C 352.03 0.993124 3.30501 0
M  V30 3778 C 351.143 2.20217 3.71657 0
M  V30 3779 C 350.278 1.88572 4.96602 0
M  V30 3780 C 349.317 3.05683 5.30306 0
M  V30 3781 N 348.454 2.73997 6.46429 0
M  V30 3782 H 353.294 2.1928 2.01792 0
M  V30 3783 H 350.831 1.09035 0.987404 0
M  V30 3784 H 352.789 0.828467 4.08892 0
M  V30 3785 H 351.419 0.0803902 3.227 0
M  V30 3786 H 350.471 2.47642 2.88752 0
M  V30 3787 H 351.783 3.07752 3.92543 0
M  V30 3788 H 350.937 1.68776 5.82752 0
M  V30 3789 H 349.676 0.982799 4.77695 0
M  V30 3790 H 348.681 3.26088 4.42659 0
M  V30 3791 H 349.906 3.96737 5.51159 0
M  V30 3792 H 347.852 1.86268 6.28999 0
M  V30 3793 H 347.769 3.55064 6.67432 0
M  V30 3794 H 349.037 2.57679 7.35678 0
M  V30 3795 N 353.266 -1.05314 1.17247 0
M  V30 3796 C 354.196 -2.1498 0.911362 0
M  V30 3797 C 355.177 -1.69471 -0.146169 0
M  V30 3798 O 356.362 -1.942 0.003812 0
M  V30 3799 C 353.492 -3.4472 0.422528 0
M  V30 3800 C 352.446 -4.03789 1.4191 0
M  V30 3801 C 351.772 -5.28858 0.788274 0
M  V30 3802 C 353.072 -4.41418 2.7919 0
M  V30 3803 H 354.766 -2.3708 1.82848 0
M  V30 3804 H 352.312 -1.13938 0.880569 0
M  V30 3805 H 354.265 -4.20787 0.227289 0
M  V30 3806 H 352.989 -3.22269 -0.530123 0
M  V30 3807 H 351.648 -3.2979 1.60106 0
M  V30 3808 H 351.296 -5.02709 -0.171173 0
M  V30 3809 H 350.996 -5.69338 1.45353 0
M  V30 3810 H 352.52 -6.07612 0.603282 0
M  V30 3811 H 353.934 -5.08524 2.64719 0
M  V30 3812 H 352.331 -4.92913 3.42282 0
M  V30 3813 H 353.401 -3.51819 3.33693 0
M  V30 3814 N 354.744 -0.972509 -1.24016 0
M  V30 3815 C 355.692 -0.498562 -2.27194 0
M  V30 3816 C 356.686 0.440372 -1.63576 0
M  V30 3817 O 357.892 0.315133 -1.7722 0
M  V30 3818 H 354.267 -0.142775 -0.738322 0
M  V30 3819 H 356.238 -1.38065 -2.64539 0
M  V30 3820 C 354.987 0.191072 -3.47175 0
M  V30 3821 H 354.31 -0.522318 -3.96373 0
M  V30 3822 H 355.75 0.486445 -4.212 0
M  V30 3823 C 354.209 1.41967 -3.05527 0
M  V30 3824 O 354.739 2.51642 -3.13112 0
M  V30 3825 N 352.945 1.28746 -2.60524 0
M  V30 3826 H 352.492 0.395089 -2.54552 0
M  V30 3827 H 352.45 2.11061 -2.33025 0
M  V30 3828 N 356.222 1.38976 -0.743202 0
M  V30 3829 C 357.172 2.27843 -0.084513 0
M  V30 3830 C 358.156 1.44677 0.704094 0
M  V30 3831 O 359.348 1.67511 0.571755 0
M  V30 3832 C 356.477 3.33466 0.815781 0
M  V30 3833 C 355.563 4.24095 0.0208844 0
M  V30 3834 N 355.954 4.95609 -1.0102 0
M  V30 3835 C 354.252 4.45303 0.249293 0
M  V30 3836 C 354.953 5.62287 -1.49024 0
M  V30 3837 N 353.929 5.37571 -0.807377 0
M  V30 3838 H 357.731 2.80593 -0.87436 0
M  V30 3839 H 355.245 1.51755 -0.578283 0
M  V30 3840 H 357.242 3.96008 1.30321 0
M  V30 3841 H 355.902 2.82276 1.6047 0
M  V30 3842 H 356.913 4.98849 -1.39176 0
M  V30 3843 H 353.59 4.0504 1.01237 0
M  V30 3844 H 354.98 6.29519 -2.34853 0
M  V30 3845 N 357.7 0.491464 1.49741 0
M  V30 3846 C 359.111 0.0413169 1.86654 0
M  V30 3847 C 359.462 -1.36985 1.40462 0
M  V30 3848 O 358.587 -2.01917 0.778354 0
M  V30 3849 C 359.182 0.0682023 3.38731 0
M  V30 3850 C 357.741 -0.32656 3.74981 0
M  V30 3851 C 356.888 0.444888 2.73708 0
M  V30 3852 H 359.839 0.704733 1.42194 0
M  V30 3853 H 359.86 -0.729322 3.73445 0
M  V30 3854 H 359.372 1.09539 3.72321 0
M  V30 3855 H 357.473 -1.35734 3.46997 0
M  V30 3856 H 357.586 -0.013741 4.79098 0
M  V30 3857 H 355.95 -0.104062 2.54487 0
M  V30 3858 H 356.733 1.47197 3.10142 0
M  V30 3859 N 359.178 -1.55987 0.224894 0
M  V30 3860 C 360.424 -1.98684 -0.406502 0
M  V30 3861 C 360.757 -1.11248 -1.59177 0
M  V30 3862 O 360.032 -0.170909 -1.93748 0
M  V30 3863 C 360.315 -3.50218 -0.837808 0
M  V30 3864 C 360.168 -4.48426 0.351332 0
M  V30 3865 C 361.487 -4.06243 -1.69278 0
M  V30 3866 H 358.606 -0.722337 -0.146283 0
M  V30 3867 H 361.248 -1.87255 0.321799 0
M  V30 3868 H 359.398 -3.60089 -1.45837 0
M  V30 3869 H 361.07 -4.50562 0.989526 0
M  V30 3870 H 359.313 -4.22159 0.998207 0
M  V30 3871 H 359.984 -5.52 0.00655905 0
M  V30 3872 H 362.46 -3.99337 -1.16914 0
M  V30 3873 H 361.336 -5.12581 -1.96346 0
M  V30 3874 H 361.597 -3.53332 -2.65723 0
M  V30 3875 N 360.656 0.0484629 -1.57525 0
M  V30 3876 C 361.884 0.755421 -1.92616 0
M  V30 3877 C 362.299 1.69919 -0.822984 0
M  V30 3878 O 361.656 1.81378 0.202085 0
M  V30 3879 C 361.707 1.52915 -3.27566 0
M  V30 3880 O 361.428 0.62329 -4.33644 0
M  V30 3881 C 362.929 2.33502 -3.76818 0
M  V30 3882 H 360.149 0.213465 -0.63614 0
M  V30 3883 H 362.693 0.0117698 -2.04497 0
M  V30 3884 H 360.848 2.22486 -3.17142 0
M  V30 3885 H 361.262 1.16383 -5.11425 0
M  V30 3886 H 362.736 2.83214 -4.73808 0
M  V30 3887 H 363.213 3.14068 -3.07014 0
M  V30 3888 H 363.819 1.69043 -3.90262 0
M  V30 3889 N 362.134 1.5431 0.320358 0
M  V30 3890 C 363.084 1.803 1.39556 0
M  V30 3891 C 364.068 0.659166 1.46778 0
M  V30 3892 O 365.26 0.91926 1.51257 0
M  V30 3893 C 362.389 2.03665 2.76361 0
M  V30 3894 C 361.475 3.24178 2.73439 0
M  V30 3895 N 361.866 4.4516 2.40137 0
M  V30 3896 C 360.164 3.25816 3.04565 0
M  V30 3897 C 360.865 5.27109 2.4603 0
M  V30 3898 N 359.841 4.64368 2.82601 0
M  V30 3899 H 363.643 2.71416 1.12742 0
M  V30 3900 H 361.157 1.53548 0.528856 0
M  V30 3901 H 363.154 2.20425 3.53862 0
M  V30 3902 H 361.814 1.13805 3.04103 0
M  V30 3903 H 362.825 4.72104 2.12927 0
M  V30 3904 H 359.502 2.46001 3.37328 0
M  V30 3905 H 360.892 6.33728 2.23246 0
M  V30 3906 N 363.613 -0.582584 1.46437 0
M  V30 3907 C 364.859 -1.34278 1.51978 0
M  V30 3908 C 365.192 -1.93446 0.170973 0
M  V30 3909 O 364.467 -1.76481 -0.817608 0
M  V30 3910 C 364.75 -2.47203 2.61845 0
M  V30 3911 C 364.603 -1.93069 4.06257 0
M  V30 3912 C 365.922 -3.49247 2.67795 0
M  V30 3913 H 363.041 -0.486876 0.553282 0
M  V30 3914 H 365.683 -0.654437 1.78374 0
M  V30 3915 H 363.833 -3.0592 2.39469 0
M  V30 3916 H 365.505 -1.38808 4.3992 0
M  V30 3917 H 363.748 -1.23898 4.1573 0
M  V30 3918 H 364.419 -2.74586 4.7886 0
M  V30 3919 H 366.895 -3.00411 2.8791 0
M  V30 3920 H 365.771 -4.25719 3.46489 0
M  V30 3921 H 366.032 -4.06482 1.73852 0
M  V30 3922 N 365.091 -1.34144 -0.827227 0
M  V30 3923 C 366.368 -1.16844 -1.56865 0
M  V30 3924 C 366.748 0.260654 -2.09485 0
M  V30 3925 O 366.096 1.26138 -1.9053 0
M  V30 3926 C 366.306 -2.21939 -2.6934 0
M  V30 3927 C 367.654 -2.56695 -3.3822 0
M  V30 3928 O 368.678 -2.20695 -2.79593 0
M  V30 3929 O 367.537 -3.18518 -4.44082 0
M  V30 3930 H 364.631 -0.452669 -0.692112 0
M  V30 3931 H 367.177 -1.45763 -0.868973 0
M  V30 3932 H 365.949 -3.17882 -2.28182 0
M  V30 3933 H 365.572 -1.94172 -3.46962 0
M  V30 3934 N 366.569 1.04691 -1.17803 0
M  V30 3935 C 367.501 2.12571 -0.857097 0
M  V30 3936 C 368.514 1.62174 0.142647 0
M  V30 3937 O 369.703 1.78301 -0.0843387 0
M  V30 3938 C 366.803 3.37915 -0.258216 0
M  V30 3939 C 365.976 4.1757 -1.30207 0
M  V30 3940 C 365.035 5.2125 -0.720029 0
M  V30 3941 O 364.061 5.51888 -1.39314 0
M  V30 3942 N 365.263 5.78466 0.485507 0
M  V30 3943 H 368.028 2.40698 -1.78562 0
M  V30 3944 H 365.589 1.20831 -1.07757 0
M  V30 3945 H 367.581 4.04442 0.144584 0
M  V30 3946 H 366.151 3.07281 0.574199 0
M  V30 3947 H 365.371 3.46458 -1.88043 0
M  V30 3948 H 366.659 4.67586 -2.00601 0
M  V30 3949 H 366.057 5.55866 1.05022 0
M  V30 3950 H 364.614 6.4649 0.830307 0
M  V30 3951 N 368.047 0.979072 1.23499 0
M  V30 3952 C 369.272 0.664845 1.96455 0
M  V30 3953 C 369.697 -0.761287 1.72006 0
M  V30 3954 O 369.055 -1.51837 0.990713 0
M  V30 3955 C 369.103 0.959479 3.47601 0
M  V30 3956 O 368.207 0.0508168 4.12369 0
M  V30 3957 H 367.548 0.250185 0.615064 0
M  V30 3958 H 370.078 1.31231 1.5697 0
M  V30 3959 H 370.088 0.895642 3.98048 0
M  V30 3960 H 368.763 1.99876 3.64723 0
M  V30 3961 H 367.34 0.16895 3.72517 0
M  V30 3962 N 369.525 -1.3858 0.750561 0
M  V30 3963 C 370.75 -2.04997 0.314812 0
M  V30 3964 C 371.175 -1.56235 -1.04749 0
M  V30 3965 O 370.533 -0.712981 -1.66692 0
M  V30 3966 C 370.581 -3.58961 0.343415 0
M  V30 3967 O 369.685 -4.07025 -0.663628 0
M  V30 3968 H 369.026 -0.649081 0.139962 0
M  V30 3969 H 371.556 -1.77313 1.02084 0
M  V30 3970 H 371.566 -4.07542 0.193233 0
M  V30 3971 H 370.241 -3.93811 1.33738 0
M  V30 3972 H 368.818 -3.6982 -0.478307 0
M  V30 3973 N 371.003 -0.499398 -1.49478 0
M  V30 3974 C 372.28 0.108629 -1.95298 0
M  V30 3975 C 372.66 1.54282 -1.44084 0
M  V30 3976 O 372.008 2.18944 -0.653908 0
M  V30 3977 C 372.218 0.0229111 -3.48992 0
M  V30 3978 C 373.566 0.197643 -4.2414 0
M  V30 3979 O 374.59 0.0981735 -3.56065 0
M  V30 3980 O 373.449 0.401669 -5.45022 0
M  V30 3981 H 370.543 0.096181 -0.821388 0
M  V30 3982 H 373.089 -0.561822 -1.6013 0
M  V30 3983 H 371.861 -0.977321 -3.78899 0
M  V30 3984 H 371.484 0.733579 -3.90774 0
M  V30 3985 N 372.481 1.55866 -0.233164 0
M  V30 3986 C 373.429 2.22176 0.68851 0
M  V30 3987 C 374.423 1.20487 1.19076 0
M  V30 3988 O 375.629 1.38536 1.14925 0
M  V30 3989 H 372.004 0.712511 0.240483 0
M  V30 3990 H 373.975 2.98212 0.105935 0
M  V30 3991 C 372.724 2.92446 1.88071 0
M  V30 3992 H 372.047 3.70458 1.50337 0
M  V30 3993 H 373.487 3.42226 2.50314 0
M  V30 3994 C 371.946 1.95555 2.74335 0
M  V30 3995 O 372.476 1.47986 3.73447 0
M  V30 3996 N 370.682 1.62953 2.40613 0
M  V30 3997 H 370.229 2.01831 1.60069 0
M  V30 3998 H 370.187 0.983886 2.98609 0
M  V30 3999 N 373.959 -0.0401083 1.57549 0
M  V30 4000 C 375.208 -0.732108 1.87944 0
M  V30 4001 C 375.521 -1.77107 0.830206 0
M  V30 4002 O 376.727 -2.51488 1.02302 0
M  V30 4003 C 375.183 -1.35315 3.33494 0
M  V30 4004 C 374.791 -0.351105 4.46622 0
M  V30 4005 C 376.535 -2.02566 3.73051 0
M  V30 4006 C 374.442 -0.979859 5.83226 0
M  V30 4007 H 373.372 -0.277188 0.701201 0
M  V30 4008 H 376.023 0.0138501 1.83495 0
M  V30 4009 H 374.405 -2.14844 3.32653 0
M  V30 4010 H 375.579 0.416674 4.58912 0
M  V30 4011 H 373.894 0.218708 4.15825 0
M  V30 4012 H 376.491 -2.50441 4.72423 0
M  V30 4013 H 376.834 -2.83904 3.04474 0
M  V30 4014 H 377.367 -1.29827 3.76018 0
M  V30 4015 H 374.106 -0.206135 6.55176 0
M  V30 4016 H 373.626 -1.71774 5.74677 0
M  V30 4017 H 375.305 -1.49046 6.29599 0
M  V30 4018 N 375.437 -1.54477 -0.31217 0
M  V30 4019 C 376.686 -1.72438 -1.04633 0
M  V30 4020 C 376.999 -0.511163 -1.88803 0
M  V30 4021 O 378.205 -0.572341 -2.65399 0
M  V30 4022 C 376.661 -3.05043 -1.9099 0
M  V30 4023 C 376.269 -4.33806 -1.11877 0
M  V30 4024 C 378.013 -3.32364 -2.64073 0
M  V30 4025 C 375.92 -5.57467 -1.97445 0
M  V30 4026 H 374.85 -0.642647 -0.394361 0
M  V30 4027 H 377.501 -1.80966 -0.303929 0
M  V30 4028 H 375.883 -2.90451 -2.69173 0
M  V30 4029 H 377.057 -4.59199 -0.383843 0
M  V30 4030 H 375.372 -4.13336 -0.504252 0
M  V30 4031 H 377.969 -4.21951 -3.28423 0
M  V30 4032 H 378.312 -2.50745 -3.32314 0
M  V30 4033 H 378.845 -3.47875 -1.92944 0
M  V30 4034 H 375.584 -6.41722 -1.33692 0
M  V30 4035 H 375.104 -5.36277 -2.6864 0
M  V30 4036 H 376.783 -5.94303 -2.5576 0
M  V30 4037 N 376.915 0.57481 -1.46744 0
M  V30 4038 C 378.164 1.32898 -1.51727 0
M  V30 4039 C 378.477 1.948 -0.176692 0
M  V30 4040 O 379.683 2.71299 -0.104385 0
M  V30 4041 C 378.139 2.40901 -2.67385 0
M  V30 4042 C 377.747 1.85266 -4.07898 0
M  V30 4043 C 379.491 3.17609 -2.81646 0
M  V30 4044 C 377.398 2.90945 -5.14883 0
M  V30 4045 H 376.328 0.499631 -0.564699 0
M  V30 4046 H 378.979 0.612536 -1.72975 0
M  V30 4047 H 377.361 3.15379 -2.39483 0
M  V30 4048 H 378.535 1.17278 -4.45626 0
M  V30 4049 H 376.85 1.21199 -3.98371 0
M  V30 4050 H 379.447 3.96493 -3.58744 0
M  V30 4051 H 379.79 3.70696 -1.89448 0
M  V30 4052 H 380.323 2.50239 -3.09233 0
M  V30 4053 H 377.062 2.42736 -6.089 0
M  V30 4054 H 376.582 3.57398 -4.81691 0
M  V30 4055 H 378.261 3.54755 -5.41071 0
M  V30 4056 N 378.394 1.34581 0.820102 0
M  V30 4057 C 379.304 1.28471 1.96297 0
M  V30 4058 C 380.32 0.191902 1.72939 0
M  V30 4059 O 381.496 0.418879 1.96996 0
M  V30 4060 C 378.561 1.04281 3.30645 0
M  V30 4061 C 377.622 2.22745 3.66992 0
M  V30 4062 C 376.855 1.997 4.9493 0
M  V30 4063 O 377.078 0.956656 5.6232 0
M  V30 4064 O 376.012 2.86723 5.2922 0
M  V30 4065 H 379.838 2.24624 2.04396 0
M  V30 4066 H 377.423 1.14816 0.955913 0
M  V30 4067 H 379.305 0.925841 4.11104 0
M  V30 4068 H 377.98 0.111697 3.23507 0
M  V30 4069 H 376.887 2.40003 2.86966 0
M  V30 4070 H 378.22 3.14257 3.78819 0
M  V30 4071 N 379.872 -1.04064 1.18357 0
M  V30 4072 C 381.1 -1.80916 1.00384 0
M  V30 4073 C 381.515 -1.83414 -0.447738 0
M  V30 4074 O 380.872 -1.26962 -1.31099 0
M  V30 4075 C 380.923 -3.26516 1.55144 0
M  V30 4076 O 380.644 -3.2424 2.94618 0
M  V30 4077 C 382.145 -4.20013 1.41789 0
M  V30 4078 H 379.365 -0.569728 0.354474 0
M  V30 4079 H 381.909 -1.31151 1.56906 0
M  V30 4080 H 380.064 -3.73512 1.02798 0
M  V30 4081 H 380.478 -4.15452 3.20156 0
M  V30 4082 H 381.952 -5.20111 1.84901 0
M  V30 4083 H 382.429 -4.37667 0.36661 0
M  V30 4084 H 383.035 -3.78881 1.93207 0
M  V30 4085 N 381.35 -0.985608 -1.22978 0
M  V30 4086 C 382.28 -0.549649 -2.26939 0
M  V30 4087 C 383.261 0.419803 -1.64838 0
M  V30 4088 O 384.446 0.31203 -1.91677 0
M  V30 4089 C 381.576 0.143652 -3.47003 0
M  V30 4090 C 380.53 -0.743606 -4.21491 0
M  V30 4091 C 379.856 0.0822027 -5.34637 0
M  V30 4092 C 381.156 -2.03694 -4.80943 0
M  V30 4093 H 382.85 -1.41862 -2.63658 0
M  V30 4094 H 380.396 -0.683571 -1.26741 0
M  V30 4095 H 382.349 0.459985 -4.18882 0
M  V30 4096 H 381.073 1.04711 -3.09359 0
M  V30 4097 H 379.732 -1.04347 -3.51436 0
M  V30 4098 H 379.38 0.986359 -4.93234 0
M  V30 4099 H 379.08 -0.508377 -5.85397 0
M  V30 4100 H 380.604 0.392797 -6.09335 0
M  V30 4101 H 382.018 -1.78504 -5.44802 0
M  V30 4102 H 380.415 -2.57573 -5.42011 0
M  V30 4103 H 381.485 -2.72042 -4.01399 0
M  V30 4104 N 382.828 1.3818 -0.7579 0
M  V30 4105 C 383.776 2.32277 -0.122482 0
M  V30 4106 C 384.77 1.54238 0.700505 0
M  V30 4107 O 385.976 1.69737 0.599119 0
M  V30 4108 H 382.351 0.751712 -0.0208143 0
M  V30 4109 H 384.322 2.83469 -0.932099 0
M  V30 4110 C 383.071 3.39447 0.753076 0
M  V30 4111 H 382.394 3.99591 0.129184 0
M  V30 4112 H 383.834 4.07684 1.16489 0
M  V30 4113 C 382.293 2.78375 1.8976 0
M  V30 4114 O 382.823 2.68025 2.99208 0
M  V30 4115 N 381.029 2.36121 1.69397 0
M  V30 4116 H 380.576 2.4474 0.803762 0
M  V30 4117 H 380.534 1.95602 2.46145 0
M  V30 4118 N 384.306 0.507319 1.49211 0
M  V30 4119 C 385.256 -0.287112 2.26185 0
M  V30 4120 C 386.24 -0.929983 1.31302 0
M  V30 4121 O 387.432 -0.836538 1.55984 0
M  V30 4122 C 384.561 -1.34718 3.15763 0
M  V30 4123 C 383.647 -0.710235 4.18111 0
M  V30 4124 N 384.038 0.190836 5.0544 0
M  V30 4125 C 382.336 -0.97009 4.35322 0
M  V30 4126 C 383.037 0.55606 5.79036 0
M  V30 4127 N 382.013 -0.0775232 5.43545 0
M  V30 4128 H 385.815 0.406445 2.91076 0
M  V30 4129 H 383.329 0.323814 1.59139 0
M  V30 4130 H 385.326 -1.92982 3.69545 0
M  V30 4131 H 383.986 -2.04235 2.52424 0
M  V30 4132 H 384.997 0.562047 5.14841 0
M  V30 4133 H 381.674 -1.65753 3.83187 0
M  V30 4134 H 383.064 1.2936 6.5933 0
M  V30 4135 N 385.784 -1.5574 0.241426 0
M  V30 4136 C 386.694 -2.2479 -0.671305 0
M  V30 4137 C 387.71 -1.26217 -1.19772 0
M  V30 4138 O 388.886 -1.59079 -1.23514 0
M  V30 4139 C 385.951 -2.92966 -1.85396 0
M  V30 4140 C 385.012 -4.06935 -1.36756 0
M  V30 4141 C 384.245 -4.71851 -2.49384 0
M  V30 4142 O 384.468 -4.35823 -3.67987 0
M  V30 4143 O 383.402 -5.60467 -2.19454 0
M  V30 4144 H 387.228 -3.0349 -0.112966 0
M  V30 4145 H 384.813 -1.49397 0.0101513 0
M  V30 4146 H 386.695 -3.35927 -2.54423 0
M  V30 4147 H 385.37 -2.17211 -2.40002 0
M  V30 4148 H 384.277 -3.68503 -0.644726 0
M  V30 4149 H 385.61 -4.84492 -0.867647 0
M  V30 4150 N 387.262 0.0317525 -1.57568 0
M  V30 4151 C 388.212 1.04101 -2.02847 0
M  V30 4152 C 389.196 1.3219 -0.917317 0
M  V30 4153 O 390.388 1.31819 -1.18121 0
M  V30 4154 C 387.517 2.34295 -2.5092 0
M  V30 4155 C 386.603 2.09308 -3.68851 0
M  V30 4156 N 386.994 1.5437 -4.81667 0
M  V30 4157 C 385.292 2.39604 -3.76172 0
M  V30 4158 C 385.993 1.45126 -5.63306 0
M  V30 4159 N 384.969 1.92589 -5.08341 0
M  V30 4160 H 388.771 0.610217 -2.87495 0
M  V30 4161 H 386.285 0.238108 -1.60645 0
M  V30 4162 H 388.282 3.07404 -2.81617 0
M  V30 4163 H 386.942 2.78055 -1.67677 0
M  V30 4164 H 387.953 1.22678 -5.03161 0
M  V30 4165 H 384.63 2.86457 -3.03724 0
M  V30 4166 H 386.02 1.03163 -6.63933 0
M  V30 4167 N 388.74 1.54641 0.303973 0
M  V30 4168 C 389.97 1.77511 1.05705 0
M  V30 4169 C 390.378 0.533228 1.81531 0
M  V30 4170 O 389.721 -0.506423 1.76582 0
M  V30 4171 C 389.783 2.92779 2.08617 0
M  V30 4172 C 389.447 4.30977 1.52013 0
M  V30 4173 C 390.444 5.11115 0.9517 0
M  V30 4174 C 388.129 4.77571 1.55665 0
M  V30 4175 C 390.123 6.35966 0.427327 0
M  V30 4176 C 387.81 6.02384 1.02841 0
M  V30 4177 C 388.808 6.81417 0.464713 0
M  V30 4178 O 388.496 8.03881 -0.0555283 0
M  V30 4179 H 388.228 0.59579 0.319391 0
M  V30 4180 H 390.782 2.02401 0.349712 0
M  V30 4181 H 389.012 2.63506 2.83022 0
M  V30 4182 H 390.701 3.03252 2.69802 0
M  V30 4183 H 391.467 4.76264 0.916407 0
M  V30 4184 H 387.346 4.16085 1.9848 0
M  V30 4185 H 390.89 6.97599 -0.0133062 0
M  V30 4186 H 386.787 6.36723 1.06084 0
M  V30 4187 H 387.555 8.18479 0.0580522 0
M  V30 4188 N 390.218 -0.567019 1.47046 0
M  V30 4189 C 391.128 -1.70247 1.6141 0
M  V30 4190 C 392.144 -1.66746 0.497157 0
M  V30 4191 O 393.32 -1.86371 0.763389 0
M  V30 4192 C 390.385 -3.06756 1.61561 0
M  V30 4193 C 389.446 -3.21399 2.84607 0
M  V30 4194 C 388.679 -4.51396 2.84741 0
M  V30 4195 O 388.902 -5.36255 1.94388 0
M  V30 4196 O 387.836 -4.69621 3.76483 0
M  V30 4197 H 391.662 -1.61073 2.57467 0
M  V30 4198 H 389.247 -0.735894 1.30019 0
M  V30 4199 H 391.129 -3.8801 1.64396 0
M  V30 4200 H 389.804 -3.16333 0.686684 0
M  V30 4201 H 388.711 -2.39579 2.8732 0
M  V30 4202 H 390.044 -3.16721 3.76761 0
M  V30 4203 N 391.696 -1.35014 -0.812953 0
M  V30 4204 C 392.936 -1.29289 -1.58315 0
M  V30 4205 C 393.3 0.132727 -1.91541 0
M  V30 4206 O 394.501 0.314269 -2.66957 0
M  V30 4207 C 392.772 -2.1681 -2.84127 0
M  V30 4208 S 394.331 -2.28538 -3.74588 0
M  V30 4209 H 391.149 -0.459569 -0.542511 0
M  V30 4210 H 393.751 -1.70336 -0.959467 0
M  V30 4211 H 392.455 -3.19379 -2.57731 0
M  V30 4212 H 391.986 -1.76697 -3.51485 0
M  V30 4213 H 394.001 -1.4655 -4.74065 0
M  V30 4214 N 393.175 1.03435 -1.18907 0
M  V30 4215 C 394.122 2.11591 -0.921837 0
M  V30 4216 C 395.092 1.65499 0.141226 0
M  V30 4217 O 396.277 1.908 0.000242829 0
M  V30 4218 C 393.417 3.42012 -0.460616 0
M  V30 4219 C 392.53 4.01682 -1.58982 0
M  V30 4220 C 391.665 5.20091 -1.08069 0
M  V30 4221 C 390.704 5.71805 -2.18416 0
M  V30 4222 N 389.841 6.81494 -1.68849 0
M  V30 4223 H 394.681 2.33787 -1.8479 0
M  V30 4224 H 392.218 1.1467 -0.921373 0
M  V30 4225 H 394.176 4.16834 -0.174642 0
M  V30 4226 H 392.806 3.19944 0.428467 0
M  V30 4227 H 391.858 3.24127 -1.99113 0
M  V30 4228 H 393.17 4.36084 -2.4214 0
M  V30 4229 H 392.324 6.02051 -0.749615 0
M  V30 4230 H 391.063 4.87209 -0.218771 0
M  V30 4231 H 390.068 4.88461 -2.5236 0
M  V30 4232 H 391.293 6.06728 -3.05054 0
M  V30 4233 H 389.239 6.50475 -0.849572 0
M  V30 4234 H 389.156 7.14994 -2.45601 0
M  V30 4235 H 390.424 7.67063 -1.38689 0
M  V30 4236 N 394.653 0.992116 1.22453 0
M  V30 4237 C 395.883 0.684949 1.94915 0
M  V30 4238 C 396.291 -0.754292 1.73514 0
M  V30 4239 O 395.634 -1.52056 1.03076 0
M  V30 4240 C 395.696 0.910054 3.47791 0
M  V30 4241 C 395.36 2.33363 3.92926 0
M  V30 4242 C 396.357 3.31308 4.00663 0
M  V30 4243 C 394.042 2.66785 4.25595 0
M  V30 4244 C 396.036 4.6075 4.40441 0
M  V30 4245 C 393.723 3.96446 4.65053 0
M  V30 4246 C 394.721 4.9324 4.72444 0
M  V30 4247 O 394.409 6.20584 5.1101 0
M  V30 4248 H 394.141 0.25258 0.62704 0
M  V30 4249 H 396.695 1.32939 1.56577 0
M  V30 4250 H 394.925 0.208443 3.86138 0
M  V30 4251 H 396.614 0.598257 4.01467 0
M  V30 4252 H 397.38 3.0682 3.75615 0
M  V30 4253 H 393.259 1.92148 4.19047 0
M  V30 4254 H 396.803 5.363 4.46126 0
M  V30 4255 H 392.7 4.20724 4.89552 0
M  V30 4256 H 393.468 6.24509 5.29085 0
M  V30 4257 N 396.131 -1.37776 0.765217 0
M  V30 4258 C 397.377 -2.00145 0.327072 0
M  V30 4259 C 397.71 -1.60607 -1.09175 0
M  V30 4260 O 396.985 -0.849127 -1.74986 0
M  V30 4261 C 397.268 -3.57109 0.46319 0
M  V30 4262 C 397.121 -4.06576 1.92395 0
M  V30 4263 C 398.44 -4.39888 -0.136473 0
M  V30 4264 H 395.559 -0.727113 0.120316 0
M  V30 4265 H 398.201 -1.63549 0.967039 0
M  V30 4266 H 396.351 -3.88414 -0.0816358 0
M  V30 4267 H 398.023 -3.85864 2.52798 0
M  V30 4268 H 396.266 -3.59011 2.43503 0
M  V30 4269 H 396.937 -5.15639 1.97028 0
M  V30 4270 H 399.413 -4.14803 0.328317 0
M  V30 4271 H 398.289 -5.48899 -0.0110582 0
M  V30 4272 H 398.55 -4.24758 -1.22608 0
M  V30 4273 N 397.609 -0.515225 -1.4894 0
M  V30 4274 C 398.858 0.0261361 -2.01683 0
M  V30 4275 C 399.171 1.36719 -1.39883 0
M  V30 4276 O 400.377 1.99606 -1.84037 0
M  V30 4277 C 398.833 0.0970111 -3.59769 0
M  V30 4278 C 398.441 -1.23825 -4.30548 0
M  V30 4279 C 400.185 0.587981 -4.20408 0
M  V30 4280 C 398.092 -1.12877 -5.80528 0
M  V30 4281 H 397.022 0.0135398 -0.753878 0
M  V30 4282 H 399.673 -0.656787 -1.71343 0
M  V30 4283 H 398.055 0.844694 -3.86886 0
M  V30 4284 H 399.229 -2.00034 -4.15118 0
M  V30 4285 H 397.544 -1.66379 -3.81716 0
M  V30 4286 H 400.141 0.68763 -5.3026 0
M  V30 4287 H 400.484 1.59026 -3.84729 0
M  V30 4288 H 401.017 -0.103582 -3.97665 0
M  V30 4289 H 397.756 -2.10575 -6.20756 0
M  V30 4290 H 397.276 -0.407799 -5.98412 0
M  V30 4291 H 398.955 -0.813332 -6.41868 0
M  V30 4292 N 399.087 1.5561 -0.249682 0
M  V30 4293 C 400.035 2.22894 0.664906 0
M  V30 4294 C 401.029 1.21743 1.17792 0
M  V30 4295 O 402.235 1.39748 1.13449 0
M  V30 4296 H 398.61 0.715022 0.232912 0
M  V30 4297 H 400.581 2.98307 0.0742998 0
M  V30 4298 C 399.33 2.94424 1.84959 0
M  V30 4299 H 398.653 3.72031 1.46399 0
M  V30 4300 H 400.093 3.44862 2.4667 0
M  V30 4301 C 398.552 1.98454 2.72245 0
M  V30 4302 O 399.082 1.51939 3.71857 0
M  V30 4303 N 397.288 1.65496 2.38871 0
M  V30 4304 H 396.835 2.03517 1.57919 0
M  V30 4305 H 396.793 1.0155 2.97548 0
M  V30 4306 N 400.565 -0.0233959 1.57583 0
M  V30 4307 C 401.528 -1.00693 2.05897 0
M  V30 4308 C 402.528 -1.28693 0.964092 0
M  V30 4309 O 403.718 -1.23602 1.22753 0
M  V30 4310 C 400.85 -2.33825 2.4807 0
M  V30 4311 H 402.043 -0.589476 2.9405 0
M  V30 4312 H 399.596 -0.270354 1.53944 0
M  V30 4313 H 400.331 -2.80307 1.6309 0
M  V30 4314 H 400.116 -2.1483 3.2801 0
M  V30 4315 H 401.606 -3.04426 2.85857 0
M  V30 4316 N 402.043 -1.548 -0.295768 0
M  V30 4317 C 403.292 -1.73538 -1.02798 0
M  V30 4318 C 403.605 -0.531159 -1.8825 0
M  V30 4319 O 404.811 -0.600458 -2.64777 0
M  V30 4320 C 403.267 -3.07051 -1.87744 0
M  V30 4321 C 402.875 -4.34968 -1.07269 0
M  V30 4322 C 404.619 -3.35146 -2.60533 0
M  V30 4323 C 402.526 -5.5953 -1.91521 0
M  V30 4324 H 401.456 -0.646794 -0.387522 0
M  V30 4325 H 404.107 -1.81278 -0.284718 0
M  V30 4326 H 402.489 -2.93289 -2.66078 0
M  V30 4327 H 403.663 -4.5958 -0.335117 0
M  V30 4328 H 401.978 -4.13847 -0.460384 0
M  V30 4329 H 404.575 -4.2541 -3.23929 0
M  V30 4330 H 404.918 -2.54255 -3.29636 0
M  V30 4331 H 405.451 -3.49902 -1.89244 0
M  V30 4332 H 402.19 -6.43103 -1.26878 0
M  V30 4333 H 401.71 -5.39096 -2.62937 0
M  V30 4334 H 403.389 -5.96982 -2.49442 0
M  V30 4335 N 403.521 0.559213 -1.47345 0
M  V30 4336 C 404.932 1.14134 -1.47751 0
M  V30 4337 C 405.283 1.94834 -0.231103 0
M  V30 4338 O 404.408 2.05957 0.664137 0
M  V30 4339 C 405.003 2.07653 -2.67705 0
M  V30 4340 C 403.562 2.61141 -2.71076 0
M  V30 4341 C 402.709 1.3748 -2.40821 0
M  V30 4342 H 405.66 0.345917 -1.54884 0
M  V30 4343 H 405.681 2.91497 -2.44561 0
M  V30 4344 H 405.193 1.4889 -3.58404 0
M  V30 4345 H 403.294 3.23707 -1.84511 0
M  V30 4346 H 403.407 3.02272 -3.7171 0
M  V30 4347 H 401.771 1.68086 -1.91362 0
M  V30 4348 H 402.554 0.805135 -3.33725 0
M  V30 4349 N 404.999 1.35443 0.805782 0
M  V30 4350 C 406.41 1.25768 1.37983 0
M  V30 4351 C 406.761 -0.10958 1.95894 0
M  V30 4352 O 405.886 -1.01056 1.91355 0
M  V30 4353 C 406.481 2.27727 2.5085 0
M  V30 4354 C 405.04 2.2179 3.04115 0
M  V30 4355 C 404.187 2.13393 1.77084 0
M  V30 4356 H 407.138 1.4656 0.608752 0
M  V30 4357 H 407.159 1.90422 3.29424 0
M  V30 4358 H 406.671 3.27227 2.08671 0
M  V30 4359 H 404.772 1.25703 3.50756 0
M  V30 4360 H 404.885 3.13788 3.62042 0
M  V30 4361 H 403.249 1.59384 1.98668 0
M  V30 4362 H 404.032 3.14755 1.37056 0
M  V30 4363 N 406.477 -1.02803 1.19454 0
M  V30 4364 C 407.705 -1.79841 1.02297 0
M  V30 4365 C 408.12 -1.83879 -0.428259 0
M  V30 4366 O 407.477 -1.28345 -1.29745 0
M  V30 4367 C 407.528 -3.24852 1.58598 0
M  V30 4368 O 407.249 -3.21097 2.98041 0
M  V30 4369 C 408.75 -4.18485 1.46236 0
M  V30 4370 H 405.97 -0.565936 0.360496 0
M  V30 4371 H 408.514 -1.2948 1.58288 0
M  V30 4372 H 406.669 -3.72401 1.06753 0
M  V30 4373 H 407.083 -4.12033 3.24545 0
M  V30 4374 H 408.557 -5.18121 1.90407 0
M  V30 4375 H 409.034 -4.37254 0.41301 0
M  V30 4376 H 409.64 -3.76811 1.97215 0
M  V30 4377 N 407.956 -0.998596 -1.21925 0
M  V30 4378 C 408.886 -0.573688 -2.26343 0
M  V30 4379 C 409.867 0.402296 -1.65274 0
M  V30 4380 O 411.052 0.291683 -1.91997 0
M  V30 4381 C 408.182 0.106839 -3.47136 0
M  V30 4382 C 407.136 -0.788269 -4.20678 0
M  V30 4383 C 406.462 0.0254927 -5.34694 0
M  V30 4384 C 407.762 -2.08784 -4.78755 0
M  V30 4385 H 409.456 -1.44651 -2.62138 0
M  V30 4386 H 407.002 -0.696975 -1.26009 0
M  V30 4387 H 408.955 0.415531 -4.19346 0
M  V30 4388 H 407.679 1.01424 -3.10452 0
M  V30 4389 H 406.338 -1.08069 -3.50309 0
M  V30 4390 H 405.986 0.933989 -4.94253 0
M  V30 4391 H 405.686 -0.570437 -5.84825 0
M  V30 4392 H 407.21 0.328147 -6.09718 0
M  V30 4393 H 408.624 -1.84272 -5.42878 0
M  V30 4394 H 407.021 -2.63307 -5.39249 0
M  V30 4395 H 408.091 -2.76284 -3.98491 0
M  V30 4396 N 409.434 1.37368 -0.772513 0
M  V30 4397 C 410.662 2.03942 -0.348588 0
M  V30 4398 C 411.077 1.58264 1.02947 0
M  V30 4399 O 410.434 0.764246 1.65727 0
M  V30 4400 C 410.485 3.5946 -0.38351 0
M  V30 4401 O 410.206 4.03468 -1.70721 0
M  V30 4402 C 411.707 4.4327 0.0519152 0
M  V30 4403 H 408.927 0.654931 -0.145966 0
M  V30 4404 H 411.471 1.75686 -1.04665 0
M  V30 4405 H 409.626 3.86486 0.265978 0
M  V30 4406 H 410.04 4.97991 -1.64636 0
M  V30 4407 H 411.514 5.51995 -0.0236733 0
M  V30 4408 H 411.991 4.2514 1.10238 0
M  V30 4409 H 412.597 4.21471 -0.569415 0
M  V30 4410 N 410.912 0.523116 1.48665 0
M  V30 4411 C 411.875 -0.232592 2.28017 0
M  V30 4412 C 412.875 -0.874021 1.34972 0
M  V30 4413 O 414.065 -0.735132 1.57929 0
M  V30 4414 C 411.197 -1.33586 3.13636 0
M  V30 4415 H 412.39 0.464008 2.96289 0
M  V30 4416 H 409.943 0.278816 1.53793 0
M  V30 4417 H 410.678 -2.06593 2.4998 0
M  V30 4418 H 410.463 -0.881125 3.82071 0
M  V30 4419 H 411.953 -1.86759 3.73511 0
M  V30 4420 N 412.39 -1.55475 0.257931 0
M  V30 4421 C 413.337 -2.21837 -0.636939 0
M  V30 4422 C 414.307 -1.18596 -1.16294 0
M  V30 4423 O 415.492 -1.47081 -1.21539 0
M  V30 4424 C 412.632 -2.9301 -1.82317 0
M  V30 4425 C 411.745 -4.10931 -1.33265 0
M  V30 4426 C 410.88 -4.69791 -2.47931 0
M  V30 4427 C 409.919 -5.7994 -1.95796 0
M  V30 4428 N 409.056 -6.32935 -3.0387 0
M  V30 4429 H 413.896 -2.9793 -0.0643591 0
M  V30 4430 H 411.433 -1.47086 -0.0200031 0
M  V30 4431 H 413.391 -3.3248 -2.52018 0
M  V30 4432 H 412.021 -2.1937 -2.36805 0
M  V30 4433 H 411.073 -3.76699 -0.52931 0
M  V30 4434 H 412.385 -4.90417 -0.910654 0
M  V30 4435 H 411.539 -5.11892 -3.25656 0
M  V30 4436 H 410.278 -3.89545 -2.93438 0
M  V30 4437 H 409.283 -5.37305 -1.16546 0
M  V30 4438 H 410.508 -6.62043 -1.51246 0
M  V30 4439 H 408.454 -5.55591 -3.48791 0
M  V30 4440 H 408.371 -7.07645 -2.66035 0
M  V30 4441 H 409.639 -6.79695 -3.81621 0
M  V30 4442 N 413.868 0.0150385 -1.57593 0
M  V30 4443 C 415.117 0.702115 -1.89085 0
M  V30 4444 C 415.43 1.75764 -0.858277 0
M  V30 4445 O 416.636 2.49829 -1.0629 0
M  V30 4446 C 415.092 1.29992 -3.35604 0
M  V30 4447 C 414.7 0.280007 -4.47124 0
M  V30 4448 C 416.444 1.96606 -3.76227 0
M  V30 4449 C 414.351 0.886949 -5.84711 0
M  V30 4450 H 413.281 0.265997 -0.705522 0
M  V30 4451 H 415.932 -0.0430408 -1.8345 0
M  V30 4452 H 414.314 2.09525 -3.36029 0
M  V30 4453 H 415.488 -0.489631 -4.58191 0
M  V30 4454 H 413.803 -0.284835 -4.15425 0
M  V30 4455 H 416.4 2.42893 -4.76347 0
M  V30 4456 H 416.743 2.79024 -3.08952 0
M  V30 4457 H 417.276 1.23828 -3.78036 0
M  V30 4458 H 414.015 0.101876 -6.55421 0
M  V30 4459 H 413.535 1.6261 -5.77337 0
M  V30 4460 H 415.214 1.39011 -6.3189 0
M  V30 4461 N 415.346 1.54954 0.287554 0
M  V30 4462 C 416.296 1.8322 1.357 0
M  V30 4463 C 417.28 0.690152 1.45347 0
M  V30 4464 O 418.472 0.951137 1.49273 0
M  V30 4465 C 415.601 2.09481 2.71979 0
M  V30 4466 C 414.687 3.29906 2.66502 0
M  V30 4467 N 415.078 4.50154 2.30641 0
M  V30 4468 C 413.376 3.32203 2.97585 0
M  V30 4469 C 414.077 5.32209 2.34794 0
M  V30 4470 N 413.053 4.70258 2.72688 0
M  V30 4471 H 416.855 2.73746 1.0696 0
M  V30 4472 H 414.369 1.54635 0.496167 0
M  V30 4473 H 416.366 2.27882 3.49107 0
M  V30 4474 H 415.026 1.2023 3.0162 0
M  V30 4475 H 416.037 4.76515 2.02865 0
M  V30 4476 H 412.714 2.53101 3.32034 0
M  V30 4477 H 414.104 6.38321 2.09753 0
M  V30 4478 N 416.824 -0.551391 1.4764 0
M  V30 4479 C 418.071 -1.3083 1.54563 0
M  V30 4480 C 418.399 -1.93359 0.210361 0
M  V30 4481 O 417.654 -1.78721 -0.797332 0
M  V30 4482 C 417.953 -2.43469 2.61644 0
M  V30 4483 C 417.619 -1.98732 4.04742 0
M  V30 4484 C 416.281 -1.86248 4.43695 0
M  V30 4485 C 418.633 -1.64659 4.94507 0
M  V30 4486 C 415.961 -1.37995 5.70241 0
M  V30 4487 C 418.313 -1.17875 6.21521 0
M  V30 4488 C 416.977 -1.03992 6.5935 0
M  V30 4489 H 416.247 -0.478741 0.565587 0
M  V30 4490 H 418.894 -0.617697 1.81264 0
M  V30 4491 H 417.199 -3.18109 2.28722 0
M  V30 4492 H 418.896 -3.01642 2.64222 0
M  V30 4493 H 415.486 -2.09393 3.73968 0
M  V30 4494 H 419.67 -1.73174 4.65107 0
M  V30 4495 H 414.926 -1.25915 5.98294 0
M  V30 4496 H 419.1 -0.905739 6.90485 0
M  V30 4497 H 416.727 -0.663794 7.57296 0
M  V30 4498 N 418.302 -1.35869 -0.798587 0
M  V30 4499 C 419.718 -1.16082 -1.09532 0
M  V30 4500 C 419.918 0.0213124 -2.01489 0
M  V30 4501 O 418.974 0.689488 -2.42904 0
M  V30 4502 C 420.287 -2.46748 -1.7186 0
M  V30 4503 C 421.835 -2.53028 -1.84244 0
M  V30 4504 C 422.31 -3.83758 -2.49988 0
M  V30 4505 N 423.801 -3.85053 -2.57465 0
M  V30 4506 C 424.536 -4.8294 -3.09122 0
M  V30 4507 N 424.032 -5.91217 -3.61157 0
M  V30 4508 N 425.825 -4.70369 -3.0775 0
M  V30 4509 H 417.976 -2.11571 -0.187461 0
M  V30 4510 H 420.239 -0.936726 -0.145765 0
M  V30 4511 H 419.945 -3.33471 -1.11759 0
M  V30 4512 H 419.819 -2.61883 -2.71472 0
M  V30 4513 H 422.206 -1.66729 -2.43486 0
M  V30 4514 H 422.287 -2.418 -0.834643 0
M  V30 4515 H 421.931 -4.70459 -1.91393 0
M  V30 4516 H 421.861 -3.92278 -3.5132 0
M  V30 4517 H 424.352 -3.06822 -2.20609 0
M  V30 4518 H 424.665 -6.61892 -3.98896 0
M  V30 4519 H 423.01 -5.94899 -3.59333 0
M  V30 4520 H 426.201 -3.84914 -2.66381 0
M  V30 4521 H 426.374 -5.46816 -3.47701 0
M  V30 4522 N 419.78 1.02168 -1.19998 0
M  V30 4523 C 421.191 1.57135 -1.00825 0
M  V30 4524 C 421.542 1.91276 0.436818 0
M  V30 4525 O 420.667 1.71679 1.3174 0
M  V30 4526 C 421.262 2.85514 -1.82393 0
M  V30 4527 C 419.821 3.37027 -1.67601 0
M  V30 4528 C 418.968 2.10388 -1.80644 0
M  V30 4529 H 421.919 0.846106 -1.34264 0
M  V30 4530 H 421.94 3.56711 -1.32429 0
M  V30 4531 H 421.452 2.60634 -2.87561 0
M  V30 4532 H 419.553 3.66878 -0.650485 0
M  V30 4533 H 419.666 4.09572 -2.4857 0
M  V30 4534 H 418.03 2.22601 -1.23778 0
M  V30 4535 H 418.813 1.8794 -2.87286 0
M  V30 4536 N 421.258 1.00505 1.21394 0
M  V30 4537 C 422.168 0.574806 2.27449 0
M  V30 4538 C 423.184 -0.382206 1.6975 0
M  V30 4539 O 424.36 -0.246027 1.99892 0
M  V30 4540 C 421.425 -0.0917414 3.46579 0
M  V30 4541 C 420.486 0.909758 4.1955 0
M  V30 4542 C 419.719 0.274924 5.32991 0
M  V30 4543 O 419.942 -0.928254 5.62796 0
M  V30 4544 O 418.876 0.985877 5.93771 0
M  V30 4545 H 422.702 1.45744 2.66444 0
M  V30 4546 H 420.287 0.773923 1.27792 0
M  V30 4547 H 422.169 -0.464551 4.18832 0
M  V30 4548 H 420.844 -0.948755 3.09484 0
M  V30 4549 H 419.751 1.33372 3.49518 0
M  V30 4550 H 421.084 1.73636 4.60555 0
M  V30 4551 N 422.737 -1.36956 0.779787 0
M  V30 4552 C 423.667 -2.32761 0.185651 0
M  V30 4553 C 424.648 -1.56177 -0.673989 0
M  V30 4554 O 425.833 -1.84378 -0.609797 0
M  V30 4555 C 422.963 -3.40418 -0.687964 0
M  V30 4556 C 421.917 -4.27941 0.0710102 0
M  V30 4557 C 421.243 -5.26681 -0.922573 0
M  V30 4558 C 422.543 -5.07006 1.25467 0
M  V30 4559 H 424.237 -2.82698 0.986008 0
M  V30 4560 H 421.783 -1.3592 0.475592 0
M  V30 4561 H 423.736 -4.06423 -1.11348 0
M  V30 4562 H 422.46 -2.89025 -1.52093 0
M  V30 4563 H 421.119 -3.63478 0.47739 0
M  V30 4564 H 420.767 -4.71565 -1.7503 0
M  V30 4565 H 420.467 -5.86103 -0.419237 0
M  V30 4566 H 421.991 -5.9556 -1.34686 0
M  V30 4567 H 423.405 -5.66105 0.905401 0
M  V30 4568 H 421.802 -5.75793 1.69063 0
M  V30 4569 H 422.872 -4.3921 2.05481 0
M  V30 4570 N 424.215 -0.530993 -1.48385 0
M  V30 4571 C 425.626 -0.0907905 -1.86479 0
M  V30 4572 C 425.977 1.33213 -1.44044 0
M  V30 4573 O 425.102 1.99783 -0.831615 0
M  V30 4574 C 425.697 -0.157987 -3.38431 0
M  V30 4575 C 424.256 0.227026 -3.75715 0
M  V30 4576 C 423.403 -0.5173 -2.72432 0
M  V30 4577 H 426.354 -0.742186 -1.40276 0
M  V30 4578 H 426.375 0.630053 -3.75247 0
M  V30 4579 H 425.887 -1.19372 -3.69286 0
M  V30 4580 H 423.988 1.26486 -3.50474 0
M  V30 4581 H 424.101 -0.113288 -4.78966 0
M  V30 4582 H 422.465 0.0365527 -2.54674 0
M  V30 4583 H 423.248 -1.55368 -3.0613 0
M  V30 4584 N 425.693 1.55336 -0.266172 0
M  V30 4585 C 426.656 2.20878 0.612001 0
M  V30 4586 C 427.656 1.18388 1.08816 0
M  V30 4587 O 428.846 1.4335 0.989774 0
M  V30 4588 C 425.978 2.86765 1.84332 0
M  V30 4589 H 427.171 2.99873 0.0398718 0
M  V30 4590 H 424.724 1.56291 -0.0167309 0
M  V30 4591 H 425.459 2.11759 2.45619 0
M  V30 4592 H 425.244 3.61862 1.5099 0
M  V30 4593 H 426.734 3.36867 2.46801 0
M  V30 4594 N 427.171 -0.0066808 1.57599 0
M  V30 4595 C 428.081 -1.01671 2.11424 0
M  V30 4596 C 429.097 -1.38143 1.05795 0
M  V30 4597 O 430.273 -1.47011 1.37658 0
M  V30 4598 C 427.338 -2.29192 2.60139 0
M  V30 4599 C 426.399 -1.99094 3.80342 0
M  V30 4600 C 425.632 -3.20535 4.26724 0
M  V30 4601 O 425.855 -4.3199 3.72479 0
M  V30 4602 O 424.789 -3.04924 5.18946 0
M  V30 4603 H 428.615 -0.589181 2.9793 0
M  V30 4604 H 426.2 -0.225091 1.47695 0
M  V30 4605 H 428.082 -3.0412 2.917 0
M  V30 4606 H 426.757 -2.71195 1.76733 0
M  V30 4607 H 425.664 -1.21663 3.53764 0
M  V30 4608 H 426.997 -1.61931 4.648 0
M  V30 4609 N 428.649 -1.55105 -0.279332 0
M  V30 4610 C 430.065 -1.46803 -0.626187 0
M  V30 4611 C 430.265 -0.676939 -1.89789 0
M  V30 4612 O 429.321 -0.19326 -2.51759 0
M  V30 4613 C 430.634 -2.90962 -0.759034 0
M  V30 4614 C 432.182 -3.01138 -0.853504 0
M  V30 4615 C 432.657 -4.46539 -1.01818 0
M  V30 4616 N 434.148 -4.50341 -1.08386 0
M  V30 4617 C 434.883 -5.60053 -1.22996 0
M  V30 4618 N 434.379 -6.79645 -1.34366 0
M  V30 4619 N 436.172 -5.47783 -1.26056 0
M  V30 4620 H 428.323 -2.04996 0.555921 0
M  V30 4621 H 430.586 -0.929325 0.187239 0
M  V30 4622 H 430.292 -3.51544 0.104852 0
M  V30 4623 H 430.166 -3.39619 -1.64131 0
M  V30 4624 H 432.553 -2.40658 -1.70786 0
M  V30 4625 H 432.634 -2.55745 0.0532466 0
M  V30 4626 H 432.278 -5.0762 -0.168504 0
M  V30 4627 H 432.208 -4.89583 -1.93948 0
M  V30 4628 H 434.699 -3.64191 -1.00864 0
M  V30 4629 H 435.012 -7.59012 -1.4533 0
M  V30 4630 H 433.357 -6.82469 -1.31382 0
M  V30 4631 H 436.548 -4.53294 -1.168 0
M  V30 4632 H 436.721 -6.33331 -1.37098 0
M  V30 4633 N 430.127 0.543554 -1.4793 0
M  V30 4634 C 431.075 1.67039 -1.61866 0
M  V30 4635 C 432.069 1.62294 -0.48549 0
M  V30 4636 O 433.275 1.67315 -0.66376 0
M  V30 4637 H 429.65 0.552954 -0.509652 0
M  V30 4638 H 431.621 1.52426 -2.56533 0
M  V30 4639 C 430.37 3.05357 -1.6629 0
M  V30 4640 H 429.693 3.09696 -2.5284 0
M  V30 4641 H 431.133 3.83855 -1.80088 0
M  V30 4642 C 429.592 3.34531 -0.398861 0
M  V30 4643 O 430.122 3.98649 0.494162 0
M  V30 4644 N 428.328 2.89299 -0.2747 0
M  V30 4645 H 427.875 2.37298 -1.00236 0
M  V30 4646 H 427.833 3.09188 0.570075 0
M  V30 4647 N 431.605 1.3629 0.791371 0
M  V30 4648 C 432.537 1.26321 1.91248 0
M  V30 4649 C 433.55 0.18313 1.61767 0
M  V30 4650 O 434.739 0.437682 1.73051 0
M  V30 4651 C 431.839 0.925901 3.26007 0
M  V30 4652 C 431.012 2.10746 3.83281 0
M  V30 4653 C 430.071 1.74352 4.96475 0
M  V30 4654 O 429.097 2.46416 5.13096 0
M  V30 4655 N 430.299 0.676058 5.7655 0
M  V30 4656 H 433.064 2.22915 2.00323 0
M  V30 4657 H 430.625 1.29659 0.969546 0
M  V30 4658 H 432.617 0.663636 3.99222 0
M  V30 4659 H 431.187 0.0491581 3.12561 0
M  V30 4660 H 430.407 2.53264 3.02077 0
M  V30 4661 H 431.695 2.8969 4.18279 0
M  V30 4662 H 431.093 0.0776467 5.65647 0
M  V30 4663 H 429.65 0.473612 6.50077 0
M  V30 4664 N 433.083 -1.0153 1.20538 0
M  V30 4665 C 434.013 -2.11972 0.979295 0
M  V30 4666 C 434.994 -1.6985 -0.0921787 0
M  V30 4667 O 436.179 -1.94089 0.0655932 0
M  V30 4668 C 433.309 -3.43201 0.531984 0
M  V30 4669 C 432.263 -3.9907 1.54685 0
M  V30 4670 C 431.589 -5.26082 0.956127 0
M  V30 4671 C 432.889 -4.32313 2.93092 0
M  V30 4672 H 434.583 -2.31143 1.90298 0
M  V30 4673 H 432.129 -1.11079 0.916372 0
M  V30 4674 H 434.082 -4.1985 0.361044 0
M  V30 4675 H 432.806 -3.23792 -0.427327 0
M  V30 4676 H 431.465 -3.2453 1.70517 0
M  V30 4677 H 431.113 -5.02999 -0.0111538 0
M  V30 4678 H 430.813 -5.64426 1.63393 0
M  V30 4679 H 432.337 -6.05386 0.796284 0
M  V30 4680 H 433.751 -4.99845 2.80763 0
M  V30 4681 H 432.148 -4.81774 3.57791 0
M  V30 4682 H 433.218 -3.41025 3.44717 0
M  V30 4683 N 434.561 -1.01147 -1.20859 0
M  V30 4684 C 435.81 -0.693214 -1.89413 0
M  V30 4685 C 436.123 0.779969 -1.79376 0
M  V30 4686 O 437.329 1.21057 -2.43017 0
M  V30 4687 C 435.785 -1.18949 -3.39675 0
M  V30 4688 C 435.393 -2.68921 -3.58309 0
M  V30 4689 C 437.137 -0.94642 -4.13815 0
M  V30 4690 C 435.044 -3.12056 -5.0237 0
M  V30 4691 H 433.974 -0.255595 -0.709357 0
M  V30 4692 H 436.625 -1.22349 -1.36759 0
M  V30 4693 H 435.007 -0.587228 -3.91622 0
M  V30 4694 H 436.181 -3.34652 -3.16772 0
M  V30 4695 H 434.496 -2.91314 -2.97532 0
M  V30 4696 H 437.093 -1.24417 -5.20023 0
M  V30 4697 H 437.436 0.117219 -4.16135 0
M  V30 4698 H 437.969 -1.5118 -3.67953 0
M  V30 4699 H 434.708 -4.17674 -5.05202 0
M  V30 4700 H 434.228 -2.51041 -5.44737 0
M  V30 4701 H 435.907 -3.04403 -5.70918 0
M  V30 4702 N 436.039 1.36541 -0.78704 0
M  V30 4703 C 436.971 2.28761 -0.141773 0
M  V30 4704 C 437.984 1.49365 0.647599 0
M  V30 4705 O 439.173 1.71836 0.483173 0
M  V30 4706 C 436.273 3.28771 0.822368 0
M  V30 4707 C 435.446 4.3732 0.0835594 0
M  V30 4708 C 434.505 5.17307 0.963296 0
M  V30 4709 O 433.531 5.67638 0.421419 0
M  V30 4710 N 434.733 5.33515 2.28784 0
M  V30 4711 H 437.498 2.84777 -0.933919 0
M  V30 4712 H 435.059 1.48682 -0.640735 0
M  V30 4713 H 437.051 3.79169 1.41468 0
M  V30 4714 H 435.621 2.73412 1.5154 0
M  V30 4715 H 434.841 3.88118 -0.689809 0
M  V30 4716 H 436.129 5.0701 -0.426358 0
M  V30 4717 H 435.527 4.94234 2.75226 0
M  V30 4718 H 434.084 5.87165 2.82985 0
M  V30 4719 N 437.518 0.538854 1.48102 0
M  V30 4720 C 438.934 0.19732 1.58376 0
M  V30 4721 C 439.134 -1.29971 1.5398 0
M  V30 4722 O 438.19 -2.07861 1.43352 0
M  V30 4723 C 439.503 0.807716 2.89649 0
M  V30 4724 C 441.051 0.77726 3.03196 0
M  V30 4725 C 441.526 1.36639 4.37143 0
M  V30 4726 N 443.017 1.32875 4.43732 0
M  V30 4727 C 443.752 1.7544 5.45901 0
M  V30 4728 N 443.248 2.25776 6.54979 0
M  V30 4729 N 445.041 1.66623 5.36836 0
M  V30 4730 H 437.192 1.5117 1.49202 0
M  V30 4731 H 439.455 0.629327 0.708979 0
M  V30 4732 H 439.161 1.85909 2.98548 0
M  V30 4733 H 439.035 0.289975 3.76084 0
M  V30 4734 H 441.422 -0.265374 2.93904 0
M  V30 4735 H 441.503 1.33256 2.18349 0
M  V30 4736 H 441.147 2.408 4.47189 0
M  V30 4737 H 441.077 0.786689 5.20691 0
M  V30 4738 H 443.568 0.96037 3.65493 0
M  V30 4739 H 443.881 2.56226 7.29087 0
M  V30 4740 H 442.226 2.29775 6.55918 0
M  V30 4741 H 445.417 1.27089 4.50517 0
M  V30 4742 H 445.59 2.00115 6.16326 0
M  V30 4743 N 438.996 -1.55193 0.274407 0
M  V30 4744 C 439.926 -2.25471 -0.607032 0
M  V30 4745 C 440.907 -1.24461 -1.15946 0
M  V30 4746 O 442.092 -1.53179 -1.19373 0
M  V30 4747 C 439.222 -2.97526 -1.79153 0
M  V30 4748 C 438.176 -4.05459 -1.37067 0
M  V30 4749 C 437.502 -4.65084 -2.6382 0
M  V30 4750 C 438.802 -5.19691 -0.521389 0
M  V30 4751 H 440.496 -2.99393 -0.0209343 0
M  V30 4752 H 438.042 -1.43997 -0.00862866 0
M  V30 4753 H 439.995 -3.45402 -2.41404 0
M  V30 4754 H 438.719 -2.21138 -2.40344 0
M  V30 4755 H 437.378 -3.58393 -0.771355 0
M  V30 4756 H 437.026 -3.85365 -3.23268 0
M  V30 4757 H 436.726 -5.37961 -2.36372 0
M  V30 4758 H 438.25 -5.15708 -3.26921 0
M  V30 4759 H 439.664 -5.63623 -1.04889 0
M  V30 4760 H 438.061 -5.99126 -0.341825 0
M  V30 4761 H 439.131 -4.82713 0.46 0
M  V30 4762 N 440.474 -0.00167713 -1.576 0
M  V30 4763 C 441.885 0.54091 -1.78693 0
M  V30 4764 C 442.236 1.7386 -0.909247 0
M  V30 4765 O 441.361 2.16109 -0.112176 0
M  V30 4766 C 441.956 0.98806 -3.24072 0
M  V30 4767 C 440.515 1.47594 -3.46256 0
M  V30 4768 C 439.662 0.42792 -2.73978 0
M  V30 4769 H 442.613 -0.22784 -1.57056 0
M  V30 4770 H 442.634 1.85398 -3.32277 0
M  V30 4771 H 442.146 0.116164 -3.87926 0
M  V30 4772 H 440.247 2.36868 -2.87618 0
M  V30 4773 H 440.36 1.50225 -4.54939 0
M  V30 4774 H 438.724 0.889934 -2.38647 0
M  V30 4775 H 439.507 -0.435038 -3.40532 0
M  V30 4776 N 441.952 1.55251 0.271103 0
M  V30 4777 C 442.885 1.83191 1.36075 0
M  V30 4778 C 443.863 0.685091 1.47463 0
M  V30 4779 O 445.047 0.928292 1.64058 0
M  V30 4780 C 442.174 1.99521 2.73696 0
M  V30 4781 C 441.22 3.22081 2.79582 0
M  V30 4782 S 442.053 4.79388 2.38636 0
M  V30 4783 C 443.209 4.98693 3.78228 0
M  V30 4784 H 443.442 2.75327 1.12171 0
M  V30 4785 H 440.975 1.47046 0.470833 0
M  V30 4786 H 442.933 2.09613 3.52948 0
M  V30 4787 H 441.594 1.0827 2.9485 0
M  V30 4788 H 440.787 3.304 3.80594 0
M  V30 4789 H 440.389 3.10589 2.08352 0
M  V30 4790 H 442.681 4.84551 4.73515 0
M  V30 4791 H 443.624 6.00738 3.7486 0
M  V30 4792 H 444.032 4.26665 3.69618 0
M  V30 4793 N 443.43 -0.535701 1.48216 0
M  V30 4794 C 444.678 -1.28928 1.55634 0
M  V30 4795 C 444.999 -1.93645 0.229514 0
M  V30 4796 O 444.269 -1.81038 -0.74846 0
M  V30 4797 H 442.849 -0.47884 0.573342 0
M  V30 4798 H 445.511 -0.623853 1.84646 0
M  V30 4799 H 444.607 -2.07157 2.33436 0
M  V30 4800 N 444.908 -1.36708 -0.784132 0
M  V30 4801 C 445.871 -1.31307 -1.87859 0
M  V30 4802 C 446.871 -0.219654 -1.59293 0
M  V30 4803 O 448.061 -0.47476 -1.67606 0
M  V30 4804 C 445.193 -1.03679 -3.24751 0
M  V30 4805 H 446.386 -2.28647 -1.94064 0
M  V30 4806 H 443.939 -1.21558 -0.98252 0
M  V30 4807 H 444.674 -0.0681936 -3.24228 0
M  V30 4808 H 444.459 -1.82811 -3.46876 0
M  V30 4809 H 445.949 -1.02518 -4.04821 0
M  V30 4810 N 446.386 1.0089 -1.21074 0
M  V30 4811 C 447.632 1.74866 -1.02712 0
M  V30 4812 C 447.965 1.89178 0.438787 0
M  V30 4813 O 447.24 1.42325 1.32567 0
M  V30 4814 C 447.523 3.16347 -1.72036 0
M  V30 4815 C 447.376 3.09782 -3.26121 0
M  V30 4816 C 448.695 4.15187 -1.45973 0
M  V30 4817 H 445.814 0.634736 -0.374539 0
M  V30 4818 H 448.456 1.17646 -1.49196 0
M  V30 4819 H 446.606 3.65201 -1.32517 0
M  V30 4820 H 448.278 2.68673 -3.74983 0
M  V30 4821 H 446.521 2.46982 -3.56626 0
M  V30 4822 H 447.192 4.09829 -3.6979 0
M  V30 4823 H 449.668 3.75022 -1.80272 0
M  V30 4824 H 448.544 5.12331 -1.96999 0
M  V30 4825 H 448.805 4.40386 -0.388924 0
M  V30 4826 N 447.864 1.01787 1.20321 0
M  V30 4827 C 449.113 0.703249 1.89043 0
M  V30 4828 C 449.426 -0.770445 1.79787 0
M  V30 4829 O 450.632 -1.19767 2.43656 0
M  V30 4830 C 449.088 1.20749 3.3904 0
M  V30 4831 C 448.696 2.70817 3.56878 0
M  V30 4832 C 450.44 0.968352 4.13308 0
M  V30 4833 C 448.347 3.14716 5.00708 0
M  V30 4834 H 447.277 0.259354 0.707991 0
M  V30 4835 H 449.928 1.23072 1.36108 0
M  V30 4836 H 448.31 0.607989 3.91305 0
M  V30 4837 H 449.484 3.36327 3.14993 0
M  V30 4838 H 447.799 2.92888 2.95983 0
M  V30 4839 H 450.396 1.27173 5.19356 0
M  V30 4840 H 450.739 -0.095149 4.16191 0
M  V30 4841 H 451.272 1.53129 3.67146 0
M  V30 4842 H 448.011 4.20347 5.02979 0
M  V30 4843 H 447.531 2.53927 5.43398 0
M  V30 4844 H 449.21 3.07426 5.69296 0
M  V30 4845 N 449.342 -1.36122 0.79427 0
M  V30 4846 C 450.289 -2.29982 0.194101 0
M  V30 4847 C 451.259 -1.52214 -0.664833 0
M  V30 4848 O 452.444 -1.80702 -0.612498 0
M  V30 4849 C 449.584 -3.38706 -0.661244 0
M  V30 4850 C 448.697 -4.31456 0.216766 0
M  V30 4851 C 447.832 -5.27265 -0.645411 0
M  V30 4852 C 446.871 -6.11653 0.233756 0
M  V30 4853 N 446.008 -6.99636 -0.587682 0
M  V30 4854 H 450.848 -2.80722 0.999965 0
M  V30 4855 H 448.385 -1.38172 0.504677 0
M  V30 4856 H 450.343 -4.00394 -1.17219 0
M  V30 4857 H 448.973 -2.89274 -1.43249 0
M  V30 4858 H 448.025 -3.7088 0.845724 0
M  V30 4859 H 449.337 -4.90724 0.893973 0
M  V30 4860 H 448.491 -5.94266 -1.22198 0
M  V30 4861 H 447.23 -4.68463 -1.35623 0
M  V30 4862 H 446.235 -5.4361 0.82269 0
M  V30 4863 H 447.46 -6.72531 0.942247 0
M  V30 4864 H 445.406 -6.43337 -1.2827 0
M  V30 4865 H 445.323 -7.55993 0.0317402 0
M  V30 4866 H 446.591 -7.71001 -1.14792 0
M  V30 4867 N 450.82 -0.546701 -1.47814 0
M  V30 4868 C 452.06 -0.0209604 -2.04389 0
M  V30 4869 C 452.424 1.29993 -1.413 0
M  V30 4870 O 453.625 1.91273 -1.8886 0
M  V30 4871 C 451.896 0.0812844 -3.57308 0
M  V30 4872 S 453.455 0.55467 -4.3528 0
M  V30 4873 H 450.273 -0.0200865 -0.710716 0
M  V30 4874 H 452.875 -0.731055 -1.81317 0
M  V30 4875 H 451.579 -0.884616 -4.00753 0
M  V30 4876 H 451.11 0.815253 -3.8486 0
M  V30 4877 H 453.125 1.81627 -4.61764 0
M  V30 4878 N 452.299 1.55045 -0.282633 0
M  V30 4879 C 453.232 2.18951 0.64311 0
M  V30 4880 C 454.21 1.15287 1.14664 0
M  V30 4881 O 455.394 1.43846 1.21822 0
M  V30 4882 C 452.521 2.81874 1.87789 0
M  V30 4883 C 451.567 3.98906 1.50919 0
M  V30 4884 S 452.4 5.3234 0.580884 0
M  V30 4885 C 453.556 5.98737 1.82387 0
M  V30 4886 H 453.789 2.97131 0.100138 0
M  V30 4887 H 451.322 1.54255 -0.0668514 0
M  V30 4888 H 453.28 3.18757 2.58658 0
M  V30 4889 H 451.941 2.03573 2.392 0
M  V30 4890 H 451.134 4.4165 2.42819 0
M  V30 4891 H 450.736 3.63485 0.88061 0
M  V30 4892 H 453.028 6.18427 2.76684 0
M  V30 4893 H 453.971 6.93318 1.4393 0
M  V30 4894 H 454.379 5.28177 1.99223 0
M  V30 4895 N 453.777 0.010035 1.57597 0
M  V30 4896 C 454.71 -1.01234 2.04516 0
M  V30 4897 C 455.688 -1.32886 0.937024 0
M  V30 4898 O 456.872 -1.44879 1.20592 0
M  V30 4899 C 453.999 -2.33738 2.45121 0
M  V30 4900 C 453.045 -2.17679 3.66767 0
M  V30 4901 S 453.878 -1.49343 5.14254 0
M  V30 4902 C 455.034 -2.83256 5.58137 0
M  V30 4903 H 455.267 -0.612866 2.90914 0
M  V30 4904 H 452.8 -0.201124 1.53084 0
M  V30 4905 H 454.758 -3.09922 2.69182 0
M  V30 4906 H 453.419 -2.70823 1.59103 0
M  V30 4907 H 452.612 -3.1559 3.92962 0
M  V30 4908 H 452.214 -1.4964 3.42759 0
M  V30 4909 H 454.506 -3.79538 5.6121 0
M  V30 4910 H 455.449 -2.61749 6.57946 0
M  V30 4911 H 455.857 -2.87627 4.85727 0
M  V30 4912 N 455.255 -1.55392 -0.262866 0
M  V30 4913 C 456.485 -1.80251 -1.00961 0
M  V30 4914 C 456.893 -0.58117 -1.80053 0
M  V30 4915 O 456.236 0.459427 -1.77862 0
M  V30 4916 C 456.298 -2.98207 -2.00781 0
M  V30 4917 C 455.962 -4.34856 -1.40533 0
M  V30 4918 C 456.959 -5.13459 -0.815853 0
M  V30 4919 C 454.644 -4.8153 -1.42948 0
M  V30 4920 C 456.638 -6.36875 -0.258562 0
M  V30 4921 C 454.325 -6.04899 -0.868334 0
M  V30 4922 C 455.323 -6.8241 -0.283884 0
M  V30 4923 O 455.011 -8.03451 0.268644 0
M  V30 4924 H 454.743 -0.604049 -0.303482 0
M  V30 4925 H 457.297 -2.03257 -0.295926 0
M  V30 4926 H 455.527 -2.70917 -2.75936 0
M  V30 4927 H 457.216 -3.10299 -2.61667 0
M  V30 4928 H 457.982 -4.78526 -0.789812 0
M  V30 4929 H 453.861 -4.21201 -1.87378 0
M  V30 4930 H 457.405 -6.97318 0.198257 0
M  V30 4931 H 453.302 -6.39312 -0.891649 0
M  V30 4932 H 454.07 -8.18346 0.158974 0
M  V30 4933 N 456.733 0.527833 -1.48498 0
M  V30 4934 C 457.963 1.30633 -1.60058 0
M  V30 4935 C 458.371 1.87394 -0.260786 0
M  V30 4936 O 457.714 1.67227 0.760317 0
M  V30 4937 C 457.776 2.49361 -2.58958 0
M  V30 4938 C 457.44 2.13671 -4.03972 0
M  V30 4939 C 458.437 1.69217 -4.91591 0
M  V30 4940 C 456.122 2.24129 -4.49524 0
M  V30 4941 C 458.116 1.35689 -6.2279 0
M  V30 4942 C 455.803 1.90212 -5.80743 0
M  V30 4943 C 456.801 1.46063 -6.67199 0
M  V30 4944 O 456.489 1.12593 -7.95976 0
M  V30 4945 H 456.221 0.403444 -0.54241 0
M  V30 4946 H 458.775 0.643233 -1.95068 0
M  V30 4947 H 457.005 3.18659 -2.19073 0
M  V30 4948 H 458.694 3.11421 -2.6033 0
M  V30 4949 H 459.46 1.60607 -4.57636 0
M  V30 4950 H 455.339 2.57447 -3.82416 0
M  V30 4951 H 458.883 1.01157 -6.90227 0
M  V30 4952 H 454.78 1.98464 -6.14233 0
M  V30 4953 H 455.548 1.25972 -8.08748 0
M  V30 4954 N 458.211 1.37122 0.776871 0
M  V30 4955 C 459.158 1.3247 1.88998 0
M  V30 4956 C 460.128 0.191143 1.64997 0
M  V30 4957 O 461.313 0.379683 1.86984 0
M  V30 4958 C 458.453 1.13241 3.25992 0
M  V30 4959 C 457.566 2.35782 3.61982 0
M  V30 4960 C 456.701 2.09465 4.88158 0
M  V30 4961 C 455.74 3.279 5.16864 0
M  V30 4962 N 454.877 3.01167 6.34226 0
M  V30 4963 H 459.717 2.27642 1.9231 0
M  V30 4964 H 457.254 1.13125 0.94027 0
M  V30 4965 H 459.212 1.00115 4.0501 0
M  V30 4966 H 457.842 0.217186 3.22069 0
M  V30 4967 H 456.894 2.59666 2.77989 0
M  V30 4968 H 458.206 3.24125 3.79137 0
M  V30 4969 H 457.36 1.93341 5.75069 0
M  V30 4970 H 456.099 1.18452 4.73097 0
M  V30 4971 H 455.104 3.44569 4.2843 0
M  V30 4972 H 456.329 4.19757 5.33836 0
M  V30 4973 H 454.275 2.12779 6.20533 0
M  V30 4974 H 454.192 3.83052 6.51772 0
M  V30 4975 H 455.46 2.88649 7.24087 0
M  V30 4976 N 459.689 -1.00246 1.21608 0
M  V30 4977 C 460.599 -2.12515 0.993709 0
M  V30 4978 C 461.615 -1.73913 -0.0549939 0
M  V30 4979 O 462.791 -2.00943 0.135619 0
M  V30 4980 C 459.856 -3.42083 0.563953 0
M  V30 4981 C 458.917 -3.94843 1.68516 0
M  V30 4982 C 458.15 -5.18226 1.27582 0
M  V30 4983 O 458.373 -5.70201 0.150506 0
M  V30 4984 O 457.307 -5.64497 2.0887 0
M  V30 4985 H 461.133 -2.34152 1.93407 0
M  V30 4986 H 458.718 -1.10891 1.00118 0
M  V30 4987 H 460.6 -4.20073 0.334194 0
M  V30 4988 H 459.275 -3.21828 -0.347665 0
M  V30 4989 H 458.182 -3.18068 1.96935 0
M  V30 4990 H 459.515 -4.19512 2.5743 0
M  V30 4991 N 461.167 -1.02423 -1.1978 0
M  V30 4992 C 462.13 -0.605703 -2.21052 0
M  V30 4993 C 463.13 0.328209 -1.57415 0
M  V30 4994 O 464.32 0.115853 -1.73814 0
M  V30 4995 C 461.452 0.114366 -3.40708 0
M  V30 4996 H 462.645 -1.5017 -2.59594 0
M  V30 4997 H 460.198 -0.814888 -1.33376 0
M  V30 4998 H 460.933 1.02492 -3.07678 0
M  V30 4999 H 460.718 -0.556641 -3.88129 0
M  V30 5000 H 462.208 0.394272 -4.15735 0
M  V30 5001 N 462.645 1.35699 -0.801477 0
M  V30 5002 C 463.892 1.98913 -0.379459 0
M  V30 5003 C 464.22 1.63592 1.05204 0
M  V30 5004 O 463.475 0.888563 1.74365 0
M  V30 5005 C 463.774 3.53828 -0.504041 0
M  V30 5006 C 463.44 4.09002 -1.8981 0
M  V30 5007 C 462.102 4.23783 -2.27951 0
M  V30 5008 C 464.454 4.38939 -2.81038 0
M  V30 5009 C 461.782 4.65816 -3.56696 0
M  V30 5010 C 464.134 4.82409 -4.09224 0
M  V30 5011 C 462.798 4.95395 -4.4737 0
M  V30 5012 H 462.068 0.727874 -0.138854 0
M  V30 5013 H 464.715 1.61994 -1.02128 0
M  V30 5014 H 463.02 3.91175 0.221242 0
M  V30 5015 H 464.717 4.00687 -0.158361 0
M  V30 5016 H 461.307 3.97946 -1.59176 0
M  V30 5017 H 465.491 4.27077 -2.52821 0
M  V30 5018 H 460.747 4.74059 -3.86106 0
M  V30 5019 H 464.921 5.04535 -4.80018 0
M  V30 5020 H 462.548 5.27724 -5.47185 0
M  V30 5021 N 464.123 0.554532 1.47522 0
M  V30 5022 C 465.369 0.0377449 2.03365 0
M  V30 5023 C 465.724 -1.29654 1.42154 0
M  V30 5024 O 465.017 -1.83022 0.566865 0
M  V30 5025 C 465.211 -0.115927 3.57212 0
M  V30 5026 C 465.04 1.20191 4.33341 0
M  V30 5027 C 463.81 1.76849 4.73342 0
M  V30 5028 C 466.008 2.11849 4.68641 0
M  V30 5029 N 463.99 3.02665 5.34104 0
M  V30 5030 C 465.361 3.22245 5.29677 0
M  V30 5031 C 467.416 2.11876 4.5057 0
M  V30 5032 C 466.119 4.32763 5.74551 0
M  V30 5033 C 468.145 3.21405 4.9644 0
M  V30 5034 C 467.507 4.30519 5.57523 0
M  V30 5035 H 463.606 0.0559107 0.779999 0
M  V30 5036 H 466.19 0.741232 1.80038 0
M  V30 5037 H 464.361 -0.788533 3.80311 0
M  V30 5038 H 466.093 -0.634538 3.99695 0
M  V30 5039 H 462.848 1.30681 4.55214 0
M  V30 5040 H 463.272 3.66788 5.69031 0
M  V30 5041 H 467.914 1.28801 4.02704 0
M  V30 5042 H 465.632 5.166 6.2141 0
M  V30 5043 H 469.218 3.22509 4.8423 0
M  V30 5044 H 468.098 5.13873 5.92371 0
M  V30 5045 N 465.601 -1.54893 0.290851 0
M  V30 5046 C 466.548 -2.23138 -0.58974 0
M  V30 5047 C 467.518 -1.21036 -1.13752 0
M  V30 5048 O 468.703 -1.49626 -1.18392 0
M  V30 5049 C 465.843 -2.96811 -1.76061 0
M  V30 5050 C 464.956 -4.13665 -1.24519 0
M  V30 5051 C 464.091 -4.74944 -2.3791 0
M  V30 5052 C 463.13 -5.83963 -1.83451 0
M  V30 5053 N 462.267 -6.39239 -2.90376 0
M  V30 5054 H 467.107 -2.98 -0.00114915 0
M  V30 5055 H 464.644 -1.47096 0.0112006 0
M  V30 5056 H 466.602 -3.37751 -2.44909 0
M  V30 5057 H 465.232 -2.24344 -2.32098 0
M  V30 5058 H 464.284 -3.77737 -0.449288 0
M  V30 5059 H 465.596 -4.92238 -0.806424 0
M  V30 5060 H 464.75 -5.18684 -3.14724 0
M  V30 5061 H 463.489 -3.95682 -2.85109 0
M  V30 5062 H 462.494 -5.39657 -1.05122 0
M  V30 5063 H 463.719 -6.65103 -1.37169 0
M  V30 5064 H 461.665 -5.62864 -3.36927 0
M  V30 5065 H 461.582 -7.13129 -2.50965 0
M  V30 5066 H 462.85 -6.87637 -3.67118 0
M  V30 5067 N 467.08 -0.0183926 -1.57589 0
M  V30 5068 C 468.027 0.967022 -2.09565 0
M  V30 5069 C 468.997 1.32983 -0.995225 0
M  V30 5070 O 470.182 1.42501 -1.26878 0
M  V30 5071 C 467.322 2.24772 -2.61861 0
M  V30 5072 C 466.435 1.94232 -3.85873 0
M  V30 5073 C 465.57 3.16518 -4.26603 0
M  V30 5074 C 464.609 2.81748 -5.43401 0
M  V30 5075 N 463.746 3.96626 -5.79338 0
M  V30 5076 H 468.586 0.516874 -2.93483 0
M  V30 5077 H 466.123 0.243544 -1.4507 0
M  V30 5078 H 468.081 2.99667 -2.90268 0
M  V30 5079 H 466.711 2.67423 -1.8079 0
M  V30 5080 H 465.763 1.09625 -3.64262 0
M  V30 5081 H 467.075 1.64616 -4.70853 0
M  V30 5082 H 466.229 3.99743 -4.56389 0
M  V30 5083 H 464.968 3.49286 -3.40368 0
M  V30 5084 H 463.973 1.96933 -5.1332 0
M  V30 5085 H 465.198 2.50207 -6.31327 0
M  V30 5086 H 463.144 4.29257 -4.96059 0
M  V30 5087 H 463.061 3.70598 -6.58933 0
M  V30 5088 H 464.329 4.80586 -6.13724 0
M  V30 5089 N 468.558 1.5553 0.254621 0
M  V30 5090 C 469.505 1.89666 1.31512 0
M  V30 5091 C 470.475 0.750057 1.482 0
M  V30 5092 O 471.66 1.00301 1.62309 0
M  V30 5093 C 468.8 2.19009 2.667 0
M  V30 5094 C 467.913 3.46435 2.58083 0
M  V30 5095 C 467.048 3.65386 3.85573 0
M  V30 5096 C 466.087 4.8644 3.71541 0
M  V30 5097 N 465.224 5.01952 4.90906 0
M  V30 5098 H 470.064 2.80109 1.017 0
M  V30 5099 H 467.601 1.38666 0.490938 0
M  V30 5100 H 469.559 2.34025 3.45381 0
M  V30 5101 H 468.189 1.31779 2.94676 0
M  V30 5102 H 467.241 3.39792 1.71013 0
M  V30 5103 H 468.553 4.35258 2.43622 0
M  V30 5104 H 467.707 3.80319 4.72697 0
M  V30 5105 H 466.446 2.74781 4.02922 0
M  V30 5106 H 465.451 4.71491 2.82801 0
M  V30 5107 H 466.676 5.78497 3.55694 0
M  V30 5108 H 464.622 4.14283 5.08631 0
M  V30 5109 H 464.539 5.84851 4.79046 0
M  V30 5110 H 465.807 5.21289 5.7955 0
M  V30 5111 N 470.036 -0.519951 1.48776 0
M  V30 5112 C 471.313 -1.28123 1.47797 0
M  V30 5113 C 471.693 -2.10196 0.195157 0
M  V30 5114 O 471.041 -2.13167 -0.822925 0
M  V30 5115 C 471.251 -2.15413 2.74587 0
M  V30 5116 C 472.599 -2.75225 3.23321 0
M  V30 5117 O 473.623 -2.25694 2.75574 0
M  V30 5118 O 472.482 -3.65346 4.06429 0
M  V30 5119 H 469.576 -0.578793 0.590701 0
M  V30 5120 H 472.122 -0.535779 1.6102 0
M  V30 5121 H 470.894 -1.54617 3.59457 0
M  V30 5122 H 470.517 -2.97186 2.64132 0
M  V30 5123 N 471.514 -1.37532 -0.769588 0
M  V30 5124 C 472.744 -1.35861 -1.55645 0
M  V30 5125 C 473.152 0.0574398 -1.89113 0
M  V30 5126 O 472.495 1.03021 -1.52093 0
M  V30 5127 C 472.557 -2.13431 -2.89288 0
M  V30 5128 C 472.221 -3.62378 -2.78444 0
M  V30 5129 C 473.218 -4.56215 -2.49326 0
M  V30 5130 C 470.903 -4.05529 -2.96398 0
M  V30 5131 C 472.897 -5.91181 -2.38294 0
M  V30 5132 C 470.584 -5.40579 -2.84987 0
M  V30 5133 C 471.582 -6.33218 -2.55975 0
M  V30 5134 O 471.27 -7.65787 -2.44594 0
M  V30 5135 H 471.002 -0.467001 -0.48876 0
M  V30 5136 H 473.556 -1.81505 -0.961515 0
M  V30 5137 H 471.786 -1.62481 -3.50909 0
M  V30 5138 H 473.475 -2.04368 -3.50697 0
M  V30 5139 H 474.241 -4.24187 -2.35139 0
M  V30 5140 H 470.12 -3.33781 -3.1798 0
M  V30 5141 H 473.664 -6.63457 -2.15571 0
M  V30 5142 H 469.561 -5.72209 -2.98743 0
M  V30 5143 H 470.329 -7.76132 -2.59927 0
M  V30 5144 N 472.992 0.995999 -1.22138 0
M  V30 5145 C 474.232 1.75032 -1.05561 0
M  V30 5146 C 474.596 1.87729 0.402698 0
M  V30 5147 O 475.797 2.59813 0.689234 0
M  V30 5148 C 474.068 3.11973 -1.74379 0
M  V30 5149 S 475.627 4.03182 -1.73175 0
M  V30 5150 H 472.445 0.602137 -0.37809 0
M  V30 5151 H 475.047 1.19107 -1.55028 0
M  V30 5152 H 473.751 3.00371 -2.79652 0
M  V30 5153 H 473.282 3.7297 -1.25128 0
M  V30 5154 H 475.297 4.90043 -0.77923 0
M  V30 5155 N 474.47 1.03057 1.19235 0
M  V30 5156 C 475.718 0.726581 1.88587 0
M  V30 5157 C 476.039 -0.747227 1.80115 0
M  V30 5158 O 475.309 -1.53849 1.21274 0
M  V30 5159 H 473.889 0.265768 0.698124 0
M  V30 5160 H 476.551 1.30516 1.44746 0
M  V30 5161 H 475.647 1.0224 2.94879 0
M  V30 5162 N 475.948 -1.35272 0.808662 0
M  V30 5163 C 477.188 -2.00534 0.395668 0
M  V30 5164 C 477.552 -1.62755 -1.01857 0
M  V30 5165 O 478.753 -2.20752 -1.53368 0
M  V30 5166 C 477.024 -3.52732 0.575771 0
M  V30 5167 S 478.583 -4.38067 0.253507 0
M  V30 5168 H 475.401 -0.694962 0.150165 0
M  V30 5169 H 478.003 -1.64823 1.05137 0
M  V30 5170 H 476.707 -3.77714 1.60499 0
M  V30 5171 H 476.238 -3.93285 -0.0951739 0
M  V30 5172 H 478.253 -4.87252 -0.938068 0
M  V30 5173 N 477.426 -0.562348 -1.47226 0
M  V30 5174 C 478.359 0.230405 -2.27034 0
M  V30 5175 C 479.337 0.915609 -1.3437 0
M  V30 5176 O 480.521 0.933573 -1.63758 0
M  V30 5177 C 477.648 1.32874 -3.11548 0
M  V30 5178 C 476.694 0.751552 -4.19826 0
M  V30 5179 S 477.527 -0.405848 -5.3396 0
M  V30 5180 C 478.683 0.694186 -6.22038 0
M  V30 5181 H 478.916 -0.446811 -2.93923 0
M  V30 5182 H 476.449 -0.348781 -1.50409 0
M  V30 5183 H 478.407 1.95773 -3.60809 0
M  V30 5184 H 477.068 1.97782 -2.44011 0
M  V30 5185 H 476.261 1.57651 -4.78709 0
M  V30 5186 H 475.863 0.198645 -3.73472 0
M  V30 5187 H 478.155 1.58501 -6.58698 0
M  V30 5188 H 479.098 0.142592 -7.07956 0
M  V30 5189 H 479.506 0.989169 -5.55766 0
M  V30 5190 N 478.904 1.54736 -0.299062 0
M  V30 5191 C 480.153 1.99279 0.311549 0
M  V30 5192 C 480.466 1.19107 1.55154 0
M  V30 5193 O 481.672 1.53908 2.23662 0
M  V30 5194 C 480.128 3.54768 0.605632 0
M  V30 5195 C 479.736 4.43746 -0.615914 0
M  V30 5196 C 481.48 4.07841 1.17754 0
M  V30 5197 C 479.387 5.90663 -0.29509 0
M  V30 5198 H 478.317 0.744359 0.120187 0
M  V30 5199 H 480.968 1.78919 -0.407464 0
M  V30 5200 H 479.35 3.71021 1.38419 0
M  V30 5201 H 480.524 4.39267 -1.39218 0
M  V30 5202 H 478.839 4.01434 -1.10633 0
M  V30 5203 H 481.436 5.15174 1.43179 0
M  V30 5204 H 481.779 3.58324 2.11918 0
M  V30 5205 H 482.312 3.95123 0.460739 0
M  V30 5206 H 479.051 6.44325 -1.20524 0
M  V30 5207 H 478.571 5.98155 0.44394 0
M  V30 5208 H 480.25 6.46916 0.104048 0
M  V30 5209 N 480.382 0.0267497 1.57577 0
M  V30 5210 C 481.631 -0.651736 1.9088 0
M  V30 5211 C 481.944 -1.73427 0.904576 0
M  V30 5212 O 483.15 -2.46923 1.12877 0
M  V30 5213 C 481.606 -1.21048 3.38933 0
M  V30 5214 C 481.214 -0.161362 4.47709 0
M  V30 5215 C 482.958 -1.86562 3.81307 0
M  V30 5216 C 480.865 -0.731611 5.86857 0
M  V30 5217 H 479.795 -0.247198 0.712326 0
M  V30 5218 H 482.446 0.0916641 1.83271 0
M  V30 5219 H 480.828 -2.00542 3.41466 0
M  V30 5220 H 482.002 0.61094 4.56732 0
M  V30 5221 H 480.317 0.394877 4.14523 0
M  V30 5222 H 482.914 -2.30178 4.8262 0
M  V30 5223 H 483.257 -2.70735 3.16241 0
M  V30 5224 H 483.79 -1.13762 3.81186 0
M  V30 5225 H 480.529 0.0719329 6.55461 0
M  V30 5226 H 480.049 -1.47245 5.81445 0
M  V30 5227 H 481.728 -1.22208 6.35354 0
M  V30 5228 N 481.861 -1.55662 -0.24637 0
M  V30 5229 C 482.771 -1.93495 -1.32653 0
M  V30 5230 C 483.787 -0.835462 -1.5263 0
M  V30 5231 O 484.963 -1.1369 -1.66242 0
M  V30 5232 C 482.028 -2.22242 -2.66101 0
M  V30 5233 C 481.089 -3.45625 -2.54641 0
M  V30 5234 C 480.322 -3.72991 -3.81724 0
M  V30 5235 O 480.545 -3.02421 -4.8363 0
M  V30 5236 O 479.479 -4.66515 -3.80325 0
M  V30 5237 H 483.305 -2.85498 -1.03559 0
M  V30 5238 H 480.89 -1.42551 -0.44717 0
M  V30 5239 H 482.772 -2.42037 -3.44958 0
M  V30 5240 H 481.447 -1.33417 -2.94926 0
M  V30 5241 H 480.354 -3.31136 -1.74067 0
M  V30 5242 H 481.687 -4.34754 -2.3076 0
M  V30 5243 N 483.339 0.512053 -1.4905 0
M  V30 5244 C 484.616 1.27337 -1.48474 0
M  V30 5245 C 484.996 2.1009 -0.206301 0
M  V30 5246 O 484.344 2.136 0.811609 0
M  V30 5247 C 484.554 2.13954 -2.75726 0
M  V30 5248 C 485.902 2.73507 -3.24776 0
M  V30 5249 O 486.926 2.24229 -2.76767 0
M  V30 5250 O 485.785 3.63186 -4.08361 0
M  V30 5251 H 482.879 0.575652 -0.593762 0
M  V30 5252 H 485.425 0.527232 -1.61302 0
M  V30 5253 H 484.197 1.52709 -3.60272 0
M  V30 5254 H 483.82 2.95782 -2.65705 0
M  V30 5255 N 484.817 1.37938 0.762283 0
M  V30 5256 C 485.727 1.36681 1.90671 0
M  V30 5257 C 486.743 0.265078 1.71969 0
M  V30 5258 O 487.919 0.502055 1.95042 0
M  V30 5259 C 484.984 1.18211 3.25925 0
M  V30 5260 C 484.045 2.3811 3.57214 0
M  V30 5261 C 483.278 2.20512 4.86014 0
M  V30 5262 O 483.501 1.19429 5.57757 0
M  V30 5263 O 482.435 3.08911 5.16583 0
M  V30 5264 H 486.261 2.33091 1.94685 0
M  V30 5265 H 483.846 1.18767 0.906356 0
M  V30 5266 H 485.728 1.09937 4.06807 0
M  V30 5267 H 484.403 0.248807 3.22742 0
M  V30 5268 H 483.31 2.51958 2.76529 0
M  V30 5269 H 484.643 3.30041 3.65149 0
M  V30 5270 N 486.295 -0.989507 1.22664 0
M  V30 5271 C 487.572 -1.70326 0.961688 0
M  V30 5272 C 487.952 -2.04537 -0.522279 0
M  V30 5273 O 487.3 -1.73136 -1.49118 0
M  V30 5274 C 487.51 -2.95135 1.86269 0
M  V30 5275 C 488.858 -3.67842 2.12078 0
M  V30 5276 O 489.882 -3.0515 1.83745 0
M  V30 5277 O 488.741 -4.80644 2.60083 0
M  V30 5278 H 485.835 -0.743589 0.361946 0
M  V30 5279 H 488.381 -1.04555 1.33665 0
M  V30 5280 H 487.153 -2.66382 2.8663 0
M  V30 5281 H 486.776 -3.68645 1.48952 0
M  V30 5282 N 487.773 -1.03688 -1.18687 0
M  V30 5283 C 488.736 -0.629115 -2.20397 0
M  V30 5284 C 489.736 0.311495 -1.57754 0
M  V30 5285 O 490.926 0.0974107 -1.73927 0
M  V30 5286 C 488.058 0.0782231 -3.4081 0
M  V30 5287 H 489.251 -1.52915 -2.57987 0
M  V30 5288 H 486.804 -0.828988 -1.32505 0
M  V30 5289 H 487.539 0.992233 -3.08748 0
M  V30 5290 H 487.324 -0.597776 -3.87517 0
M  V30 5291 H 488.814 0.350156 -4.16129 0
M  V30 5292 N 489.251 1.34841 -0.815825 0
M  V30 5293 C 490.662 1.80937 -0.46029 0
M  V30 5294 C 491.013 1.67685 1.01863 0
M  V30 5295 O 490.138 1.21277 1.79223 0
M  V30 5296 C 490.733 3.28509 -0.828708 0
M  V30 5297 C 489.292 3.72712 -0.525644 0
M  V30 5298 C 488.439 2.56676 -1.04941 0
M  V30 5299 H 491.39 1.22688 -1.00664 0
M  V30 5300 H 491.411 3.80279 -0.129757 0
M  V30 5301 H 490.923 3.38122 -1.90513 0
M  V30 5302 H 489.024 3.68642 0.541666 0
M  V30 5303 H 489.137 4.67119 -1.06474 0
M  V30 5304 H 487.501 2.50302 -0.471286 0
M  V30 5305 H 488.284 2.69063 -2.13214 0
M  V30 5306 N 490.729 0.570148 1.46925 0
M  V30 5307 C 491.978 0.0487352 2.01641 0
M  V30 5308 C 492.291 -1.31433 1.44861 0
M  V30 5309 O 493.497 -1.92638 1.91318 0
M  V30 5310 C 491.953 0.0365817 3.59881 0
M  V30 5311 C 491.561 1.39719 4.25655 0
M  V30 5312 C 493.305 -0.431545 4.22301 0
M  V30 5313 C 491.212 1.34345 5.75939 0
M  V30 5314 H 490.142 0.0144492 0.753862 0
M  V30 5315 H 492.793 0.719928 1.68788 0
M  V30 5316 H 491.175 -0.700522 3.89755 0
M  V30 5317 H 492.349 2.15303 4.07408 0
M  V30 5318 H 490.664 1.80431 3.75278 0
M  V30 5319 H 493.261 -0.490354 5.32447 0
M  V30 5320 H 493.604 -1.44638 3.90366 0
M  V30 5321 H 494.137 0.251102 3.97007 0
M  V30 5322 H 490.876 2.33469 6.12513 0
M  V30 5323 H 490.396 0.629615 5.96486 0
M  V30 5324 H 492.075 1.051 6.38407 0
M  V30 5325 N 492.207 -1.54576 0.307264 0
M  V30 5326 C 493.432 -2.05139 -0.305379 0
M  V30 5327 C 493.857 -1.18278 -1.46259 0
M  V30 5328 O 493.215 -0.188243 -1.8032 0
M  V30 5329 C 493.263 -3.53066 -0.733283 0
M  V30 5330 O 492.367 -3.69206 -1.83741 0
M  V30 5331 H 491.708 -0.661444 -0.0582105 0
M  V30 5332 H 494.238 -1.99569 0.450931 0
M  V30 5333 H 494.248 -3.95034 -1.02039 0
M  V30 5334 H 492.923 -4.15746 0.113198 0
M  V30 5335 H 491.5 -3.39143 -1.55037 0
M  V30 5336 N 493.685 -0.035106 -1.57561 0
M  V30 5337 C 494.934 0.641604 -1.91223 0
M  V30 5338 C 495.247 1.72944 -0.913761 0
M  V30 5339 O 496.453 2.46321 -1.14185 0
M  V30 5340 C 494.909 1.19249 -3.3957 0
M  V30 5341 C 494.517 0.137616 -4.47789 0
M  V30 5342 C 496.261 1.84537 -3.82291 0
M  V30 5343 C 494.168 0.700478 -5.87237 0
M  V30 5344 H 493.098 0.243417 -0.713627 0
M  V30 5345 H 495.749 -0.101382 -1.8322 0
M  V30 5346 H 494.131 1.98728 -3.42525 0
M  V30 5347 H 495.305 -0.635153 -4.56402 0
M  V30 5348 H 493.62 -0.416855 -4.14308 0
M  V30 5349 H 496.217 2.27616 -4.83834 0
M  V30 5350 H 496.56 2.69054 -3.17672 0
M  V30 5351 H 497.093 1.11739 -3.81784 0
M  V30 5352 H 493.832 -0.106693 -6.55413 0
M  V30 5353 H 493.352 1.4416 -5.82218 0
M  V30 5354 H 495.031 1.18837 -6.35993 0
M  V30 5355 N 495.163 1.55791 0.238111 0
M  V30 5356 C 496.391 1.82098 0.982233 0
M  V30 5357 C 496.806 0.612025 1.78605 0
M  V30 5358 O 496.163 -0.419381 1.77616 0
M  V30 5359 C 496.214 3.0673 1.91309 0
M  V30 5360 O 495.935 4.2296 1.14179 0
M  V30 5361 C 497.436 3.45903 2.77248 0
M  V30 5362 H 494.656 0.605748 0.288635 0
M  V30 5363 H 497.2 2.02862 0.258341 0
M  V30 5364 H 495.355 2.87991 2.59114 0
M  V30 5365 H 495.769 4.93653 1.7722 0
M  V30 5366 H 497.243 4.36189 3.38295 0
M  V30 5367 H 497.72 2.66891 3.48806 0
M  V30 5368 H 498.326 3.67024 2.14881 0
M  V30 5369 N 496.642 -0.504142 1.49319 0
M  V30 5370 C 497.572 -1.61473 1.68667 0
M  V30 5371 C 498.553 -1.61455 0.535378 0
M  V30 5372 O 499.738 -1.78245 0.770868 0
M  V30 5373 C 496.868 -2.99971 1.75028 0
M  V30 5374 C 495.822 -3.14854 2.89916 0
M  V30 5375 C 495.148 -4.54671 2.81387 0
M  V30 5376 C 496.448 -2.95176 4.30893 0
M  V30 5377 H 498.142 -1.45535 2.61648 0
M  V30 5378 H 495.688 -0.698711 1.25913 0
M  V30 5379 H 497.641 -3.77562 1.8715 0
M  V30 5380 H 496.365 -3.1699 0.786441 0
M  V30 5381 H 495.024 -2.39687 2.77391 0
M  V30 5382 H 494.672 -4.68562 1.82917 0
M  V30 5383 H 494.372 -4.6557 3.58494 0
M  V30 5384 H 495.896 -5.34327 2.95512 0
M  V30 5385 H 497.31 -3.62538 4.44116 0
M  V30 5386 H 495.707 -3.17549 5.09198 0
M  V30 5387 H 496.777 -1.91332 4.45556 0
M  V30 5388 N 498.12 -1.38341 -0.754957 0
M  V30 5389 C 499.397 -1.24995 -1.50451 0
M  V30 5390 C 499.777 0.149244 -2.10572 0
M  V30 5391 O 499.125 1.15861 -1.96948 0
M  V30 5392 C 499.335 -2.35904 -2.57197 0
M  V30 5393 C 500.683 -2.74262 -3.24138 0
M  V30 5394 O 501.707 -2.35205 -2.67501 0
M  V30 5395 O 500.566 -3.4161 -4.26574 0
M  V30 5396 H 497.66 -0.48872 -0.667144 0
M  V30 5397 H 500.206 -1.50165 -0.790486 0
M  V30 5398 H 498.978 -3.2953 -2.11011 0
M  V30 5399 H 498.601 -2.12291 -3.36182 0
M  V30 5400 N 499.598 0.982988 -1.23187 0
M  V30 5401 C 500.875 1.69814 -0.970707 0
M  V30 5402 C 501.255 2.04811 0.511424 0
M  V30 5403 O 500.603 1.73924 1.48198 0
M  V30 5404 C 500.813 2.94143 -1.87831 0
M  V30 5405 C 502.161 3.66712 -2.14026 0
M  V30 5406 O 503.185 3.04171 -1.8536 0
M  V30 5407 O 502.044 4.79258 -2.62629 0
M  V30 5408 H 499.138 0.741659 -0.365884 0
M  V30 5409 H 501.684 1.03844 -1.34218 0
M  V30 5410 H 500.456 2.64858 -2.88038 0
M  V30 5411 H 500.079 3.6785 -1.50905 0
M  V30 5412 N 501.076 1.04316 1.18135 0
M  V30 5413 C 502.304 0.768117 1.92113 0
M  V30 5414 C 502.719 -0.675057 1.76319 0
M  V30 5415 O 502.076 -1.46038 1.09449 0
M  V30 5416 C 502.127 1.12808 3.43448 0
M  V30 5417 O 501.848 2.5146 3.58747 0
M  V30 5418 C 503.349 0.8779 4.3452 0
M  V30 5419 H 500.569 0.279937 0.609817 0
M  V30 5420 H 503.113 1.39149 1.49859 0
M  V30 5421 H 501.268 0.549623 3.83481 0
M  V30 5422 H 501.682 2.65313 4.52448 0
M  V30 5423 H 503.156 1.17959 5.39249 0
M  V30 5424 H 503.633 -0.187239 4.38801 0
M  V30 5425 H 504.239 1.43977 4.00188 0
M  V30 5426 N 502.554 -1.34406 0.822964 0
M  V30 5427 C 503.501 -2.29519 0.24284 0
M  V30 5428 C 504.471 -1.5359 -0.632397 0
M  V30 5429 O 505.656 -1.8196 -0.57403 0
M  V30 5430 C 502.796 -3.40032 -0.58925 0
M  V30 5431 C 501.909 -4.30899 0.308236 0
M  V30 5432 C 501.044 -5.28515 -0.533425 0
M  V30 5433 C 500.083 -6.1102 0.363444 0
M  V30 5434 N 499.22 -7.00725 -0.439147 0
M  V30 5435 H 504.06 -2.78537 1.05929 0
M  V30 5436 H 501.597 -1.3707 0.533872 0
M  V30 5437 H 503.555 -4.0279 -1.087 0
M  V30 5438 H 502.185 -2.92248 -1.37081 0
M  V30 5439 H 501.237 -3.69002 0.924203 0
M  V30 5440 H 502.549 -4.88717 0.997862 0
M  V30 5441 H 501.703 -5.96725 -1.09565 0
M  V30 5442 H 500.442 -4.71235 -1.25656 0
M  V30 5443 H 499.447 -5.41743 0.937812 0
M  V30 5444 H 500.672 -6.70381 1.08469 0
M  V30 5445 H 498.618 -6.45913 -1.14595 0
M  V30 5446 H 498.535 -7.55756 0.19209 0
M  V30 5447 H 499.803 -7.73263 -0.984124 0
M  V30 5448 N 504.032 -0.577932 -1.46621 0
M  V30 5449 C 505.443 -0.150071 -1.86096 0
M  V30 5450 C 505.794 1.28563 -1.48209 0
M  V30 5451 O 504.919 1.97036 -0.894754 0
M  V30 5452 C 505.514 -0.265576 -3.37758 0
M  V30 5453 C 504.073 0.10738 -3.76247 0
M  V30 5454 C 503.22 -0.603711 -2.70649 0
M  V30 5455 H 506.171 -0.786438 -1.37844 0
M  V30 5456 H 506.192 0.510352 -3.77062 0
M  V30 5457 H 505.704 -1.3106 -3.65301 0
M  V30 5458 H 503.805 1.15272 -3.54321 0
M  V30 5459 H 503.918 -0.26561 -4.78363 0
M  V30 5460 H 502.282 -0.0444884 -2.54661 0
M  V30 5461 H 503.065 -1.65029 -3.01032 0
M  V30 5462 N 505.51 1.54411 -0.315457 0
M  V30 5463 C 506.787 1.92562 0.343398 0
M  V30 5464 C 507.167 1.24423 1.70535 0
M  V30 5465 O 506.515 0.385051 2.25232 0
M  V30 5466 C 506.725 3.46168 0.443687 0
M  V30 5467 C 508.073 4.18659 0.707783 0
M  V30 5468 O 509.097 3.52281 0.52693 0
M  V30 5469 O 507.956 5.36198 1.05612 0
M  V30 5470 H 505.05 0.80379 0.194552 0
M  V30 5471 H 507.596 1.65738 -0.364577 0
M  V30 5472 H 506.368 3.8792 -0.513172 0
M  V30 5473 H 505.991 3.79073 1.19956 0
M  V30 5474 N 506.988 0.0434614 1.5754 0
M  V30 5475 C 508.236 -0.630786 1.92004 0
M  V30 5476 C 508.557 -1.71836 0.921807 0
M  V30 5477 O 507.827 -1.9587 -0.034522 0
M  V30 5478 H 506.407 -0.235988 0.708745 0
M  V30 5479 H 509.069 0.0946462 1.9467 0
M  V30 5480 H 508.165 -1.07434 2.93026 0
M  V30 5481 N 508.466 -1.55915 -0.229846 0
M  V30 5482 C 509.691 -1.8296 -0.976743 0
M  V30 5483 C 510.116 -0.622735 -1.77493 0
M  V30 5484 O 509.474 0.428431 -1.76165 0
M  V30 5485 C 509.522 -3.07916 -1.8767 0
M  V30 5486 O 508.626 -2.86028 -2.97088 0
M  V30 5487 H 507.967 -0.603453 -0.277021 0
M  V30 5488 H 510.497 -2.0312 -0.245669 0
M  V30 5489 H 510.507 -3.37802 -2.2881 0
M  V30 5490 H 509.182 -3.95389 -1.28996 0
M  V30 5491 H 507.759 -2.67355 -2.59954 0
M  V30 5492 N 509.944 0.496216 -1.49584 0
M  V30 5493 C 510.874 1.60576 -1.69521 0
M  V30 5494 C 511.855 1.61169 -0.543933 0
M  V30 5495 O 513.04 1.77834 -0.78031 0
M  V30 5496 C 510.17 2.99038 -1.76616 0
M  V30 5497 C 509.124 3.13312 -2.91581 0
M  V30 5498 C 508.45 4.53172 -2.83794 0
M  V30 5499 C 509.75 2.92886 -4.32452 0
M  V30 5500 H 511.444 1.44146 -2.62416 0
M  V30 5501 H 508.99 0.692024 -1.26282 0
M  V30 5502 H 510.943 3.76564 -1.8915 0
M  V30 5503 H 509.667 3.16568 -0.80324 0
M  V30 5504 H 508.326 2.38213 -2.78658 0
M  V30 5505 H 507.974 4.67585 -1.854 0
M  V30 5506 H 507.674 4.63662 -3.60958 0
M  V30 5507 H 509.198 5.32752 -2.98342 0
M  V30 5508 H 510.612 3.60178 -4.46032 0
M  V30 5509 H 509.009 3.14844 -5.10875 0
M  V30 5510 H 510.079 1.88966 -4.46565 0
M  V30 5511 N 511.423 1.38739 0.74761 0
M  V30 5512 C 512.834 1.31507 1.32524 0
M  V30 5513 C 513.185 -0.0263963 1.96182 0
M  V30 5514 O 512.31 -0.92849 1.95469 0
M  V30 5515 C 512.905 2.38162 2.40966 0
M  V30 5516 C 511.464 2.34489 2.94434 0
M  V30 5517 C 510.611 2.20712 1.67873 0
M  V30 5518 H 513.562 1.4901 0.546043 0
M  V30 5519 H 513.583 2.04222 3.21051 0
M  V30 5520 H 513.095 3.35783 1.94605 0
M  V30 5521 H 511.196 1.40467 3.45108 0
M  V30 5522 H 511.309 3.28861 3.48407 0
M  V30 5523 H 509.673 1.67667 1.91729 0
M  V30 5524 H 510.456 3.20285 1.23582 0
M  V30 5525 N 512.901 -0.976442 1.23707 0
M  V30 5526 C 513.864 -2.0511 1.02287 0
M  V30 5527 C 514.864 -1.60791 -0.0167195 0
M  V30 5528 O 516.054 -1.72761 0.223408 0
M  V30 5529 C 513.186 -3.36458 0.548507 0
M  V30 5530 H 514.379 -2.25545 1.9766 0
M  V30 5531 H 511.932 -1.15042 1.05806 0
M  V30 5532 H 512.667 -3.21713 -0.408818 0
M  V30 5533 H 512.452 -3.69967 1.29874 0
M  V30 5534 H 513.942 -4.15489 0.419406 0
M  V30 5535 N 514.379 -1.04941 -1.1758 0
M  V30 5536 C 515.628 -0.753124 -1.87112 0
M  V30 5537 C 515.941 0.722507 -1.81767 0
M  V30 5538 O 517.147 1.13265 -2.46746 0
M  V30 5539 C 515.603 -1.29695 -3.35719 0
M  V30 5540 C 515.211 -2.80184 -3.49572 0
M  V30 5541 C 516.955 -1.07759 -4.10595 0
M  V30 5542 C 514.862 -3.2788 -4.92187 0
M  V30 5543 H 513.792 -0.278034 -0.700866 0
M  V30 5544 H 516.443 -1.26637 -1.32798 0
M  V30 5545 H 514.825 -0.711522 -3.89555 0
M  V30 5546 H 515.999 -3.44561 -3.05965 0
M  V30 5547 H 514.314 -3.00632 -2.88113 0
M  V30 5548 H 516.911 -1.40899 -5.15802 0
M  V30 5549 H 517.254 -0.0152302 -4.16297 0
M  V30 5550 H 517.787 -1.62809 -3.62957 0
M  V30 5551 H 514.526 -4.33535 -4.91658 0
M  V30 5552 H 514.046 -2.68245 -5.36475 0
M  V30 5553 H 515.725 -3.22412 -5.60945 0
M  V30 5554 N 515.857 1.33968 -0.830081 0
M  V30 5555 C 516.79 2.27303 -0.202182 0
M  V30 5556 C 517.768 1.49235 0.645581 0
M  V30 5557 O 518.952 1.78433 0.607762 0
M  V30 5558 C 516.079 3.31025 0.716932 0
M  V30 5559 C 515.125 4.26466 -0.0542271 0
M  V30 5560 S 515.958 5.16707 -1.40622 0
M  V30 5561 C 517.114 6.23962 -0.492167 0
M  V30 5562 H 517.347 2.8021 -0.99346 0
M  V30 5563 H 514.88 1.41124 -0.626359 0
M  V30 5564 H 516.838 3.91271 1.24165 0
M  V30 5565 H 515.499 2.76951 1.4818 0
M  V30 5566 H 514.692 4.99858 0.644785 0
M  V30 5567 H 514.294 3.7051 -0.509722 0
M  V30 5568 H 516.586 6.76774 0.31347 0
M  V30 5569 H 517.529 6.97927 -1.19599 0
M  V30 5570 H 517.937 5.64447 -0.0774176 0
M  V30 5571 N 517.335 0.585699 1.46312 0
M  V30 5572 C 518.583 0.072278 2.01971 0
M  V30 5573 C 518.904 -1.29345 1.45928 0
M  V30 5574 O 518.174 -1.84973 0.645109 0
M  V30 5575 H 516.754 0.023729 0.746623 0
M  V30 5576 H 519.416 0.762155 1.7938 0
M  V30 5577 H 518.512 0.00552767 3.121 0
M  V30 5578 N 518.813 -1.54241 0.323641 0
M  V30 5579 C 520.06 -2.0057 -0.27891 0
M  V30 5580 C 520.388 -1.21181 -1.52136 0
M  V30 5581 O 519.643 -0.282043 -1.93657 0
M  V30 5582 C 519.942 -3.5129 -0.658031 0
M  V30 5583 C 519.608 -4.48281 0.485252 0
M  V30 5584 C 518.27 -4.74519 0.799055 0
M  V30 5585 C 520.622 -5.05909 1.25322 0
M  V30 5586 C 517.95 -5.55643 1.88354 0
M  V30 5587 C 520.302 -5.88215 2.32779 0
M  V30 5588 C 518.966 -6.12755 2.64741 0
M  V30 5589 H 518.236 -0.733938 -0.10206 0
M  V30 5590 H 520.883 -1.862 0.447435 0
M  V30 5591 H 519.188 -3.63388 -1.4648 0
M  V30 5592 H 520.885 -3.84578 -1.1358 0
M  V30 5593 H 517.475 -4.27979 0.230593 0
M  V30 5594 H 521.659 -4.8562 1.02404 0
M  V30 5595 H 516.915 -5.72888 2.13564 0
M  V30 5596 H 521.089 -6.31888 2.92729 0
M  V30 5597 H 518.716 -6.75404 3.48904 0
M  V30 5598 N 520.291 -0.0518155 -1.57515 0
M  V30 5599 C 521.54 0.621286 -1.91893 0
M  V30 5600 C 521.853 1.71966 -0.932052 0
M  V30 5601 O 523.059 2.45096 -1.16791 0
M  V30 5602 C 521.515 1.15641 -3.40816 0
M  V30 5603 C 521.123 0.0901146 -4.47909 0
M  V30 5604 C 522.867 1.80472 -3.84227 0
M  V30 5605 C 520.774 0.638154 -5.87947 0
M  V30 5606 H 519.704 0.235835 -0.716169 0
M  V30 5607 H 522.355 -0.120809 -1.83102 0
M  V30 5608 H 520.737 1.95084 -3.44613 0
M  V30 5609 H 521.911 -0.683525 -4.55702 0
M  V30 5610 H 520.226 -0.460774 -4.13843 0
M  V30 5611 H 522.823 2.22471 -4.86221 0
M  V30 5612 H 523.166 2.65669 -3.20508 0
M  V30 5613 H 523.699 1.07683 -3.82948 0
M  V30 5614 H 520.438 -0.176202 -6.55263 0
M  V30 5615 H 519.958 1.37976 -5.83714 0
M  V30 5616 H 521.637 1.12085 -6.37217 0
M  V30 5617 N 521.769 1.56035 0.221574 0
M  V30 5618 C 522.699 1.95434 1.2778 0
M  V30 5619 C 523.68 0.822564 1.48889 0
M  V30 5620 O 524.865 1.08486 1.61072 0
M  V30 5621 C 521.995 2.27102 2.62759 0
M  V30 5622 C 520.949 3.4277 2.56306 0
M  V30 5623 C 520.275 3.60043 3.95314 0
M  V30 5624 C 521.575 4.77742 2.11093 0
M  V30 5625 H 523.269 2.83912 0.950504 0
M  V30 5626 H 520.815 1.36596 0.455791 0
M  V30 5627 H 522.768 2.53256 3.36807 0
M  V30 5628 H 521.492 1.35478 2.97176 0
M  V30 5629 H 520.151 3.16664 1.84715 0
M  V30 5630 H 519.799 2.65794 4.27039 0
M  V30 5631 H 519.499 4.37841 3.91879 0
M  V30 5632 H 521.023 3.88545 4.71025 0
M  V30 5633 H 522.437 5.03102 2.74885 0
M  V30 5634 H 520.834 5.58823 2.18716 0
M  V30 5635 H 521.904 4.731 1.06321 0
M  V30 5636 N 523.247 -0.488276 1.49845 0
M  V30 5637 C 524.21 -1.57069 1.66919 0
M  V30 5638 C 525.21 -1.51445 0.540479 0
M  V30 5639 O 526.4 -1.5437 0.807188 0
M  V30 5640 C 523.532 -2.96718 1.67844 0
M  V30 5641 H 524.725 -1.43254 2.63474 0
M  V30 5642 H 522.278 -0.713435 1.39068 0
M  V30 5643 H 523.013 -3.15996 0.7292 0
M  V30 5644 H 522.798 -3.02208 2.49826 0
M  V30 5645 H 524.288 -3.75335 1.83066 0
M  V30 5646 N 524.725 -1.39134 -0.740242 0
M  V30 5647 C 526.141 -1.20623 -1.0451 0
M  V30 5648 C 526.341 -0.0641651 -2.01398 0
M  V30 5649 O 525.397 0.585843 -2.4561 0
M  V30 5650 C 526.71 -2.53815 -1.6124 0
M  V30 5651 C 528.258 -2.60615 -1.73346 0
M  V30 5652 C 528.733 -3.94015 -2.33486 0
M  V30 5653 N 530.224 -3.95627 -2.40902 0
M  V30 5654 C 530.959 -4.95616 -2.88361 0
M  V30 5655 N 530.455 -6.06003 -3.35756 0
M  V30 5656 N 532.248 -4.82998 -2.87523 0
M  V30 5657 H 524.399 -2.12176 -0.0975576 0
M  V30 5658 H 526.662 -0.942066 -0.105904 0
M  V30 5659 H 526.368 -3.37911 -0.975144 0
M  V30 5660 H 526.242 -2.73162 -2.6012 0
M  V30 5661 H 528.629 -1.76906 -2.36195 0
M  V30 5662 H 528.71 -2.45123 -0.731336 0
M  V30 5663 H 528.354 -4.78153 -1.71267 0
M  V30 5664 H 528.284 -4.06825 -3.34366 0
M  V30 5665 H 530.775 -3.15903 -2.07398 0
M  V30 5666 H 531.088 -6.78215 -3.70464 0
M  V30 5667 H 529.433 -6.09604 -3.33778 0
M  V30 5668 H 532.624 -3.95866 -2.49816 0
M  V30 5669 H 532.797 -5.61072 -3.24196 0
M  V30 5670 N 526.204 0.969867 -1.24223 0
M  V30 5671 C 527.151 2.06407 -1.0327 0
M  V30 5672 C 528.121 1.66014 0.0533 0
M  V30 5673 O 529.306 1.90533 -0.100896 0
M  V30 5674 C 526.446 3.3909 -0.641262 0
M  V30 5675 C 525.559 3.9269 -1.80051 0
M  V30 5676 C 524.694 5.13631 -1.35486 0
M  V30 5677 C 523.733 5.59423 -2.48419 0
M  V30 5678 N 522.87 6.71586 -2.04737 0
M  V30 5679 H 527.71 2.23663 -1.96923 0
M  V30 5680 H 525.247 1.09624 -0.980862 0
M  V30 5681 H 527.205 4.15323 -0.395351 0
M  V30 5682 H 525.835 3.21765 0.258269 0
M  V30 5683 H 524.887 3.13116 -2.16014 0
M  V30 5684 H 526.199 4.22636 -2.64916 0
M  V30 5685 H 525.353 5.97231 -1.0677 0
M  V30 5686 H 524.092 4.85364 -0.476722 0
M  V30 5687 H 523.097 4.74398 -2.77897 0
M  V30 5688 H 524.322 5.89705 -3.36786 0
M  V30 5689 H 522.268 6.45058 -1.19318 0
M  V30 5690 H 522.185 7.0097 -2.83156 0
M  V30 5691 H 523.453 7.58633 -1.79154 0
M  V30 5692 N 527.682 1.05563 1.17022 0
M  V30 5693 C 528.645 0.664098 2.19368 0
M  V30 5694 C 529.645 -0.286358 1.5823 0
M  V30 5695 O 530.835 -0.069728 1.7406 0
M  V30 5696 C 527.967 -0.0239932 3.40892 0
M  V30 5697 H 529.16 1.57 2.55521 0
M  V30 5698 H 526.713 0.849964 1.31169 0
M  V30 5699 H 527.448 -0.942988 3.10287 0
M  V30 5700 H 527.233 0.659351 3.86516 0
M  V30 5701 H 528.723 -0.283909 4.16634 0
M  V30 5702 N 529.16 -1.33526 0.837174 0
M  V30 5703 C 530.437 -1.92369 0.354065 0
M  V30 5704 C 530.817 -1.76348 -1.16038 0
M  V30 5705 O 530.165 -1.15083 -1.97403 0
M  V30 5706 C 530.375 -3.39728 0.799101 0
M  V30 5707 C 531.723 -4.16877 0.806139 0
M  V30 5708 O 532.747 -3.48373 0.742597 0
M  V30 5709 O 531.606 -5.39166 0.892345 0
M  V30 5710 H 528.7 -0.820952 0.0998378 0
M  V30 5711 H 531.246 -1.42409 0.922913 0
M  V30 5712 H 530.018 -3.45254 1.84162 0
M  V30 5713 H 529.641 -3.97062 0.206731 0
M  V30 5714 N 530.638 -0.59345 -1.46 0
M  V30 5715 C 532.054 -0.255965 -1.57534 0
M  V30 5716 C 532.254 1.24167 -1.58697 0
M  V30 5717 O 531.31 2.02398 -1.50968 0
M  V30 5718 C 532.623 -0.91466 -2.86451 0
M  V30 5719 C 534.171 -0.889253 -3.00102 0
M  V30 5720 C 534.646 -1.52769 -4.3177 0
M  V30 5721 N 536.137 -1.49253 -4.38495 0
M  V30 5722 C 536.872 -1.9558 -5.39014 0
M  V30 5723 N 536.368 -2.49929 -6.46148 0
M  V30 5724 N 538.161 -1.86432 -5.30282 0
M  V30 5725 H 530.312 -1.56604 -1.43489 0
M  V30 5726 H 532.575 -0.655207 -0.685133 0
M  V30 5727 H 532.281 -1.96861 -2.91442 0
M  V30 5728 H 532.155 -0.429356 -3.74748 0
M  V30 5729 H 534.542 0.156111 -2.94687 0
M  V30 5730 H 534.623 -1.41268 -2.13253 0
M  V30 5731 H 534.267 -2.57231 -4.37944 0
M  V30 5732 H 534.197 -0.979398 -5.17412 0
M  V30 5733 H 536.688 -1.09536 -3.61677 0
M  V30 5734 H 537.001 -2.83109 -7.19075 0
M  V30 5735 H 535.346 -2.53961 -6.46938 0
M  V30 5736 H 538.537 -1.43722 -4.4549 0
M  V30 5737 H 538.71 -2.22852 -6.08474 0
M  V30 5738 N 532.116 1.54067 -0.331816 0
M  V30 5739 C 533.046 2.27569 0.522932 0
M  V30 5740 C 534.027 1.28679 1.11247 0
M  V30 5741 O 535.212 1.57504 1.13605 0
M  V30 5742 C 532.342 3.0397 1.67987 0
M  V30 5743 C 531.296 4.10267 1.21924 0
M  V30 5744 C 530.622 4.74555 2.46377 0
M  V30 5745 C 531.922 5.21268 0.32815 0
M  V30 5746 H 533.616 2.99264 -0.0901977 0
M  V30 5747 H 531.162 1.4393 -0.044821 0
M  V30 5748 H 533.115 3.54123 2.28418 0
M  V30 5749 H 531.839 2.29906 2.31971 0
M  V30 5750 H 530.498 3.61009 0.637809 0
M  V30 5751 H 530.146 3.97098 3.08743 0
M  V30 5752 H 529.846 5.46363 2.16243 0
M  V30 5753 H 531.37 5.27487 3.07555 0
M  V30 5754 H 532.784 5.67128 0.838978 0
M  V30 5755 H 531.181 5.99982 0.119228 0
M  V30 5756 H 532.251 4.80673 -0.638839 0
M  V30 5757 N 533.594 0.0601682 1.57485 0
M  V30 5758 C 534.557 -0.896373 2.10945 0
M  V30 5759 C 535.557 -1.23402 1.03095 0
M  V30 5760 O 536.747 -1.16921 1.29132 0
M  V30 5761 C 533.879 -2.20346 2.60116 0
M  V30 5762 H 535.072 -0.432778 2.96761 0
M  V30 5763 H 532.625 -0.188372 1.55161 0
M  V30 5764 H 533.36 -2.71268 1.7772 0
M  V30 5765 H 533.145 -1.9714 3.38937 0
M  V30 5766 H 534.635 -2.88846 3.01592 0
M  V30 5767 N 535.072 -1.5615 -0.213296 0
M  V30 5768 C 536.019 -1.93086 -1.26437 0
M  V30 5769 C 536.989 -0.789086 -1.4616 0
M  V30 5770 O 538.174 -1.04569 -1.59593 0
M  V30 5771 C 535.314 -2.26003 -2.608 0
M  V30 5772 C 534.427 -3.53156 -2.48807 0
M  V30 5773 C 533.562 -3.7548 -3.7575 0
M  V30 5774 C 532.601 -4.96119 -3.58514 0
M  V30 5775 N 531.738 -5.14791 -4.77425 0
M  V30 5776 H 536.578 -2.82707 -0.942376 0
M  V30 5777 H 534.115 -1.39919 -0.454001 0
M  V30 5778 H 536.073 -2.431 -3.39055 0
M  V30 5779 H 534.703 -1.39546 -2.91079 0
M  V30 5780 H 533.755 -3.44207 -1.61944 0
M  V30 5781 H 535.067 -4.41565 -2.31996 0
M  V30 5782 H 534.221 -3.92718 -4.62447 0
M  V30 5783 H 532.96 -2.85368 -3.95495 0
M  V30 5784 H 531.965 -4.78823 -2.70201 0
M  V30 5785 H 533.19 -5.87724 -3.40231 0
M  V30 5786 H 531.136 -4.27623 -4.97468 0
M  V30 5787 H 531.053 -5.97347 -4.63371 0
M  V30 5788 H 532.321 -5.36471 -5.65525 0
M  V30 5789 N 536.55 0.480323 -1.50102 0
M  V30 5790 C 537.48 1.58769 -1.71215 0
M  V30 5791 C 538.461 1.60583 -0.560997 0
M  V30 5792 O 539.646 1.76996 -0.799127 0
M  V30 5793 C 536.776 2.97148 -1.79778 0
M  V30 5794 C 535.73 3.10201 -2.94888 0
M  V30 5795 C 535.056 4.50137 -2.88584 0
M  V30 5796 C 536.356 2.88283 -4.35534 0
M  V30 5797 H 538.05 1.41354 -2.6393 0
M  V30 5798 H 535.596 0.678591 -1.27008 0
M  V30 5799 H 537.549 3.74536 -1.93133 0
M  V30 5800 H 536.273 3.15699 -0.836772 0
M  V30 5801 H 534.932 2.35244 -2.81169 0
M  V30 5802 H 534.58 4.65593 -1.90349 0
M  V30 5803 H 534.28 4.59808 -3.65856 0
M  V30 5804 H 535.804 5.29558 -3.03976 0
M  V30 5805 H 537.218 3.55427 -4.49827 0
M  V30 5806 H 535.615 3.09408 -5.14186 0
M  V30 5807 H 536.685 1.84219 -4.48544 0
M  V30 5808 N 538.028 1.39524 0.732853 0
M  V30 5809 C 538.978 1.34905 1.83806 0
M  V30 5810 C 539.962 0.229546 1.59254 0
M  V30 5811 O 541.154 0.467255 1.70721 0
M  V30 5812 C 538.283 1.19699 3.21756 0
M  V30 5813 C 537.369 2.36359 3.5213 0
M  V30 5814 N 537.76 3.61834 3.53426 0
M  V30 5815 C 536.058 2.29363 3.82503 0
M  V30 5816 C 536.759 4.38992 3.81655 0
M  V30 5817 N 535.735 3.68606 3.99538 0
M  V30 5818 H 539.537 2.29882 1.83116 0
M  V30 5819 H 537.051 1.33051 0.931194 0
M  V30 5820 H 539.048 1.14472 4.00876 0
M  V30 5821 H 537.708 0.256739 3.23683 0
M  V30 5822 H 538.719 3.95228 3.34686 0
M  V30 5823 H 535.396 1.43612 3.92023 0
M  V30 5824 H 536.786 5.47763 3.89108 0
M  V30 5825 N 539.506 -0.963266 1.24736 0
M  V30 5826 C 540.453 -2.05857 1.04363 0
M  V30 5827 C 541.423 -1.6604 -0.0444951 0
M  V30 5828 O 542.608 -1.90477 0.110999 0
M  V30 5829 C 539.748 -3.38745 0.659235 0
M  V30 5830 C 538.861 -3.9173 1.82131 0
M  V30 5831 C 537.996 -5.12906 1.38208 0
M  V30 5832 C 537.035 -5.58098 2.51382 0
M  V30 5833 N 536.172 -6.7049 2.08295 0
M  V30 5834 H 541.012 -2.22616 1.98107 0
M  V30 5835 H 538.549 -1.09103 0.986661 0
M  V30 5836 H 540.507 -4.15107 0.417371 0
M  V30 5837 H 539.137 -3.21898 -0.241201 0
M  V30 5838 H 538.189 -3.11966 2.17672 0
M  V30 5839 H 539.501 -4.21225 2.67153 0
M  V30 5840 H 538.655 -5.96657 1.09935 0
M  V30 5841 H 537.394 -4.85105 0.502456 0
M  V30 5842 H 536.399 -4.72917 2.80409 0
M  V30 5843 H 537.624 -5.87911 3.39909 0
M  V30 5844 H 535.57 -6.44416 1.22737 0
M  V30 5845 H 535.487 -6.99458 2.86869 0
M  V30 5846 H 536.755 -7.57672 1.83175 0
M  V30 5847 N 540.985 -1.06182 -1.16461 0
M  V30 5848 C 541.895 -0.682671 -2.24448 0
M  V30 5849 C 542.911 0.30078 -1.71381 0
M  V30 5850 O 544.087 0.150376 -2.00838 0
M  V30 5851 C 541.152 -0.0737202 -3.46622 0
M  V30 5852 C 540.213 -1.10889 -4.14731 0
M  V30 5853 C 539.446 -0.528908 -5.31073 0
M  V30 5854 O 539.669 0.65868 -5.66584 0
M  V30 5855 O 538.603 -1.26805 -5.88391 0
M  V30 5856 H 542.429 -1.58291 -2.59187 0
M  V30 5857 H 540.014 -0.834013 -1.23954 0
M  V30 5858 H 541.896 0.264192 -4.20571 0
M  V30 5859 H 540.571 0.800015 -3.13658 0
M  V30 5860 H 539.478 -1.49896 -3.42756 0
M  V30 5861 H 540.811 -1.95412 -4.51747 0
M  V30 5862 N 542.463 1.3308 -0.844243 0
M  V30 5863 C 543.712 1.96868 -0.438833 0
M  V30 5864 C 544.025 1.67599 1.00846 0
M  V30 5865 O 545.231 2.25043 1.51881 0
M  V30 5866 C 543.687 3.5234 -0.73377 0
M  V30 5867 C 543.295 3.90481 -2.1961 0
M  V30 5868 C 545.039 4.22653 -0.395574 0
M  V30 5869 C 542.946 5.38954 -2.43481 0
M  V30 5870 H 541.876 0.736749 -0.160364 0
M  V30 5871 H 544.527 1.51623 -1.03358 0
M  V30 5872 H 542.909 3.95941 -0.068589 0
M  V30 5873 H 544.083 3.57922 -2.90221 0
M  V30 5874 H 542.398 3.33165 -2.4978 0
M  V30 5875 H 544.995 5.31848 -0.551477 0
M  V30 5876 H 545.338 4.11004 0.661921 0
M  V30 5877 H 545.871 3.84601 -1.01621 0
M  V30 5878 H 542.61 5.55612 -3.47816 0
M  V30 5879 H 542.13 5.72954 -1.77437 0
M  V30 5880 H 543.809 6.05907 -2.26905 0
M  V30 5881 N 543.941 0.601185 1.45683 0
M  V30 5882 C 545.357 0.264315 1.57396 0
M  V30 5883 C 545.557 -1.23324 1.59353 0
M  V30 5884 O 544.613 -2.01594 1.52039 0
M  V30 5885 C 545.926 0.929839 2.85962 0
M  V30 5886 C 547.474 0.905156 2.99626 0
M  V30 5887 C 547.949 1.55057 4.30954 0
M  V30 5888 N 549.44 1.51576 4.37697 0
M  V30 5889 C 550.175 1.98436 5.37969 0
M  V30 5890 N 549.671 2.53352 6.44813 0
M  V30 5891 N 551.464 1.89242 5.29286 0
M  V30 5892 H 543.615 1.57363 1.42656 0
M  V30 5893 H 545.878 0.658831 0.681649 0
M  V30 5894 H 545.584 1.98404 2.90394 0
M  V30 5895 H 545.458 0.449224 3.74515 0
M  V30 5896 H 547.845 -0.14048 2.94765 0
M  V30 5897 H 547.926 1.42397 2.12501 0
M  V30 5898 H 547.57 2.5955 4.36573 0
M  V30 5899 H 547.5 1.00682 5.16886 0
M  V30 5900 H 549.991 1.11452 3.61091 0
M  V30 5901 H 550.304 2.86918 7.17564 0
M  V30 5902 H 548.649 2.57388 6.45582 0
M  V30 5903 H 551.84 1.46083 4.44722 0
M  V30 5904 H 552.013 2.26075 6.07284 0
M  V30 5905 N 545.419 -1.53889 0.339982 0
M  V30 5906 C 546.366 -2.24902 -0.518452 0
M  V30 5907 C 547.336 -1.24593 -1.09844 0
M  V30 5908 O 548.521 -1.53317 -1.13572 0
M  V30 5909 C 545.661 -3.02262 -1.66529 0
M  V30 5910 C 544.774 -4.17418 -1.11295 0
M  V30 5911 C 543.909 -4.82273 -2.2268 0
M  V30 5912 C 542.948 -5.89503 -1.6478 0
M  V30 5913 N 542.085 -6.48153 -2.69893 0
M  V30 5914 H 546.925 -2.97853 0.0936579 0
M  V30 5915 H 544.462 -1.46986 0.0579924 0
M  V30 5916 H 546.42 -3.45371 -2.3404 0
M  V30 5917 H 545.05 -2.31614 -2.24844 0
M  V30 5918 H 544.102 -3.78976 -0.328886 0
M  V30 5919 H 545.414 -4.94554 -0.649414 0
M  V30 5920 H 544.568 -5.28435 -2.98063 0
M  V30 5921 H 543.307 -4.04552 -2.72376 0
M  V30 5922 H 542.312 -5.42728 -0.879004 0
M  V30 5923 H 543.537 -6.6913 -1.1594 0
M  V30 5924 H 541.483 -5.73298 -3.1885 0
M  V30 5925 H 541.4 -7.20752 -2.28151 0
M  V30 5926 H 542.668 -6.98968 -3.45056 0
M  V30 5927 N 546.897 -0.0685191 -1.57451 0
M  V30 5928 C 547.844 0.899861 -2.12535 0
M  V30 5929 C 548.814 1.29749 -1.03703 0
M  V30 5930 O 549.999 1.38392 -1.31348 0
M  V30 5931 C 547.139 2.16328 -2.6888 0
M  V30 5932 C 546.252 1.81857 -3.91857 0
M  V30 5933 C 545.387 3.02786 -4.36457 0
M  V30 5934 C 544.426 2.64317 -5.5209 0
M  V30 5935 N 543.563 3.77994 -5.91663 0
M  V30 5936 H 548.403 0.423243 -2.94979 0
M  V30 5937 H 545.94 0.197268 -1.45771 0
M  V30 5938 H 547.898 2.90281 -2.99655 0
M  V30 5939 H 546.528 2.61536 -1.89206 0
M  V30 5940 H 545.58 0.979808 -3.67565 0
M  V30 5941 H 546.892 1.49553 -4.75852 0
M  V30 5942 H 546.046 3.85021 -4.68875 0
M  V30 5943 H 544.785 3.38281 -3.51308 0
M  V30 5944 H 543.79 1.80503 -5.19325 0
M  V30 5945 H 545.015 2.29995 -6.38967 0
M  V30 5946 H 542.961 4.13258 -5.09464 0
M  V30 5947 H 542.878 3.49447 -6.7039 0
M  V30 5948 H 544.146 4.60818 -6.28703 0
M  V30 5949 N 548.375 1.56261 0.205012 0
M  V30 5950 C 549.322 1.93754 1.25411 0
M  V30 5951 C 550.292 0.796826 1.45739 0
M  V30 5952 O 551.477 1.05414 1.59036 0
M  V30 5953 C 548.617 2.27383 2.59598 0
M  V30 5954 C 547.73 3.5447 2.46931 0
M  V30 5955 C 546.865 3.77468 3.73753 0
M  V30 5956 C 545.904 4.98014 3.55877 0
M  V30 5957 N 545.041 5.17316 4.74688 0
M  V30 5958 H 549.881 2.83203 0.92737 0
M  V30 5959 H 547.418 1.40158 0.446574 0
M  V30 5960 H 549.376 2.44895 3.37761 0
M  V30 5961 H 548.006 1.41088 2.90335 0
M  V30 5962 H 547.058 3.45061 1.60116 0
M  V30 5963 H 548.37 4.42789 2.29651 0
M  V30 5964 H 547.524 3.95165 4.60358 0
M  V30 5965 H 546.263 2.87461 3.93976 0
M  V30 5966 H 545.268 4.80249 2.67657 0
M  V30 5967 H 546.493 5.8952 3.37109 0
M  V30 5968 H 544.439 4.30255 4.95194 0
M  V30 5969 H 544.356 5.99796 4.60197 0
M  V30 5970 H 545.624 5.39463 5.62672 0
M  V30 5971 N 549.853 -0.472356 1.50355 0
M  V30 5972 C 551.102 -1.2213 1.60522 0
M  V30 5973 C 551.415 -1.9312 0.310466 0
M  V30 5974 O 552.621 -2.69936 0.291029 0
M  V30 5975 C 551.077 -2.21909 2.83345 0
M  V30 5976 C 550.685 -1.56727 4.19691 0
M  V30 5977 C 552.429 -2.97453 3.02856 0
M  V30 5978 C 550.336 -2.54785 5.33703 0
M  V30 5979 H 549.266 -0.459543 0.597776 0
M  V30 5980 H 551.917 -0.491922 1.76783 0
M  V30 5981 H 550.299 -2.98133 2.60639 0
M  V30 5982 H 551.473 -0.863007 4.52646 0
M  V30 5983 H 549.788 -0.934685 4.05774 0
M  V30 5984 H 552.385 -3.70838 3.85205 0
M  V30 5985 H 552.728 -3.56764 2.14534 0
M  V30 5986 H 553.261 -2.28342 3.25737 0
M  V30 5987 H 550 -2.00214 6.24175 0
M  V30 5988 H 549.52 -3.23367 5.05167 0
M  V30 5989 H 551.199 -3.16639 5.64224 0
M  V30 5990 N 551.331 -1.39911 -0.725443 0
M  V30 5991 C 552.571 -1.39096 -1.49772 0
M  V30 5992 C 552.935 0.0106452 -1.91997 0
M  V30 5993 O 554.136 0.143859 -2.68415 0
M  V30 5994 C 552.407 -2.34441 -2.69764 0
M  V30 5995 S 553.966 -2.51898 -3.59295 0
M  V30 5996 H 550.784 -0.49314 -0.512186 0
M  V30 5997 H 553.386 -1.76093 -0.849197 0
M  V30 5998 H 552.09 -3.35123 -2.36898 0
M  V30 5999 H 551.621 -1.98692 -3.39537 0
M  V30 6000 H 553.636 -1.76402 -4.63785 0
M  V30 6001 N 552.809 0.956637 -1.25245 0
M  V30 6002 C 553.719 2.0868 -1.0719 0
M  V30 6003 C 554.735 1.73997 -0.00959074 0
M  V30 6004 O 555.911 2.00301 -0.210104 0
M  V30 6005 C 552.976 3.39754 -0.690526 0
M  V30 6006 C 552.037 3.88316 -1.83055 0
M  V30 6007 C 551.27 5.13134 -1.46728 0
M  V30 6008 O 551.493 5.6925 -0.362029 0
M  V30 6009 O 550.427 5.56356 -2.29677 0
M  V30 6010 H 554.253 2.26813 -2.01965 0
M  V30 6011 H 551.838 1.07098 -1.04165 0
M  V30 6012 H 553.72 4.18543 -0.489871 0
M  V30 6013 H 552.395 3.22896 0.227981 0
M  V30 6014 H 551.302 3.1054 -2.08604 0
M  V30 6015 H 552.635 4.09669 -2.72822 0
M  V30 6016 N 554.287 1.06798 1.15896 0
M  V30 6017 C 555.217 0.704677 2.22613 0
M  V30 6018 C 556.198 -0.305252 1.67339 0
M  V30 6019 O 557.383 -0.179247 1.93371 0
M  V30 6020 C 554.513 0.0957325 3.47168 0
M  V30 6021 C 553.467 1.0322 4.15367 0
M  V30 6022 C 552.793 0.286293 5.33933 0
M  V30 6023 C 554.093 2.36341 4.65768 0
M  V30 6024 H 555.787 1.59688 2.53259 0
M  V30 6025 H 553.333 0.769257 1.21731 0
M  V30 6026 H 555.286 -0.170333 4.21056 0
M  V30 6027 H 554.01 -0.831516 3.15838 0
M  V30 6028 H 552.669 1.28309 3.43413 0
M  V30 6029 H 552.317 -0.644237 4.98857 0
M  V30 6030 H 552.017 0.910436 5.80504 0
M  V30 6031 H 553.541 0.0278938 6.10594 0
M  V30 6032 H 554.955 2.1561 5.31211 0
M  V30 6033 H 553.352 2.94299 5.2298 0
M  V30 6034 H 554.422 2.99047 3.81705 0
M  V30 6035 N 555.766 -1.3263 0.851289 0
M  V30 6036 C 556.996 -2.01271 0.466222 0
M  V30 6037 C 557.404 -1.64156 -0.940714 0
M  V30 6038 O 556.747 -0.857109 -1.62479 0
M  V30 6039 C 556.809 -3.55695 0.521672 0
M  V30 6040 C 556.473 -4.16227 1.88691 0
M  V30 6041 C 557.47 -4.34699 2.85189 0
M  V30 6042 C 555.155 -4.52377 2.18313 0
M  V30 6043 C 557.149 -4.88484 4.09465 0
M  V30 6044 C 554.836 -5.05868 3.42843 0
M  V30 6045 C 555.834 -5.23869 4.38235 0
M  V30 6046 O 555.522 -5.76218 5.6056 0
M  V30 6047 H 555.254 -0.651034 0.18202 0
M  V30 6048 H 557.808 -1.7026 1.14894 0
M  V30 6049 H 556.038 -3.86086 -0.217888 0
M  V30 6050 H 557.727 -4.05613 0.152682 0
M  V30 6051 H 558.493 -4.07107 2.63607 0
M  V30 6052 H 554.372 -4.37652 1.44851 0
M  V30 6053 H 557.916 -5.02451 4.83931 0
M  V30 6054 H 553.813 -5.32891 3.64277 0
M  V30 6055 H 554.581 -5.94616 5.62471 0
M  V30 6056 N 557.244 -0.608902 -1.45362 0
M  V30 6057 C 558.207 0.0992563 -2.28985 0
M  V30 6058 C 559.207 0.793841 -1.39838 0
M  V30 6059 O 560.397 0.641804 -1.61946 0
M  V30 6060 C 557.529 1.15073 -3.20891 0
M  V30 6061 H 558.722 -0.635964 -2.93079 0
M  V30 6062 H 556.275 -0.368007 -1.51906 0
M  V30 6063 H 557.01 1.91667 -2.616 0
M  V30 6064 H 556.795 0.656867 -3.86559 0
M  V30 6065 H 558.285 1.64665 -3.83765 0
M  V30 6066 N 558.722 1.53707 -0.348139 0
M  V30 6067 C 559.669 2.25173 0.506518 0
M  V30 6068 C 560.639 1.25174 1.09182 0
M  V30 6069 O 561.824 1.53917 1.12757 0
M  V30 6070 C 558.964 3.03141 1.64923 0
M  V30 6071 C 558.077 4.18002 1.0908 0
M  V30 6072 C 557.212 4.83447 2.20119 0
M  V30 6073 C 556.251 5.90369 1.61651 0
M  V30 6074 N 555.388 6.49575 2.66451 0
M  V30 6075 H 560.228 2.97799 -0.109452 0
M  V30 6076 H 557.765 1.46953 -0.0657866 0
M  V30 6077 H 559.723 3.46607 2.32205 0
M  V30 6078 H 558.353 2.32803 2.23612 0
M  V30 6079 H 557.405 3.79145 0.308783 0
M  V30 6080 H 558.717 4.94892 0.623178 0
M  V30 6081 H 557.871 5.30008 2.95257 0
M  V30 6082 H 556.61 4.05991 2.70227 0
M  V30 6083 H 555.615 5.43186 0.850209 0
M  V30 6084 H 556.84 6.69735 1.1239 0
M  V30 6085 H 554.786 5.74981 3.15805 0
M  V30 6086 H 554.703 7.21952 2.24325 0
M  V30 6087 H 555.971 7.00789 3.41344 0
M  V30 6088 N 560.2 0.0768682 1.57412 0
M  V30 6089 C 561.446 -0.591961 1.93968 0
M  V30 6090 C 561.779 -1.68954 0.9575 0
M  V30 6091 O 561.054 -1.94496 -0.0124675 0
M  V30 6092 C 561.337 -1.16418 3.40762 0
M  V30 6093 C 561.19 -0.0728933 4.49741 0
M  V30 6094 C 562.509 -2.06814 3.88479 0
M  V30 6095 H 559.628 -0.213716 0.705333 0
M  V30 6096 H 562.27 0.14387 1.89455 0
M  V30 6097 H 560.42 -1.79128 3.4474 0
M  V30 6098 H 562.092 0.560446 4.57883 0
M  V30 6099 H 560.335 0.595859 4.29688 0
M  V30 6100 H 561.006 -0.513755 5.49604 0
M  V30 6101 H 563.482 -1.54033 3.8654 0
M  V30 6102 H 562.358 -2.43785 4.91793 0
M  V30 6103 H 562.619 -2.97844 3.26713 0
M  V30 6104 N 561.678 -1.56367 -0.196722 0
M  V30 6105 C 562.608 -1.97442 -1.24655 0
M  V30 6106 C 563.589 -0.846147 -1.47561 0
M  V30 6107 O 564.774 -1.11035 -1.59326 0
M  V30 6108 C 561.904 -2.31253 -2.59112 0
M  V30 6109 C 560.858 -3.46804 -2.50821 0
M  V30 6110 C 560.184 -3.66286 -3.89536 0
M  V30 6111 C 561.484 -4.8104 -2.03465 0
M  V30 6112 H 563.178 -2.85388 -0.905216 0
M  V30 6113 H 560.724 -1.37304 -0.434002 0
M  V30 6114 H 562.677 -2.58583 -3.32736 0
M  V30 6115 H 561.401 -1.40188 -2.94983 0
M  V30 6116 H 560.06 -3.19563 -1.79653 0
M  V30 6117 H 559.708 -2.72555 -4.22756 0
M  V30 6118 H 559.408 -4.4402 -3.84864 0
M  V30 6119 H 560.932 -3.9599 -4.64784 0
M  V30 6120 H 562.346 -5.07411 -2.66846 0
M  V30 6121 H 560.743 -5.62232 -2.09798 0
M  V30 6122 H 561.813 -4.74732 -0.98781 0
M  V30 6123 N 563.156 0.464375 -1.50603 0
M  V30 6124 C 564.404 1.21356 -1.61608 0
M  V30 6125 C 564.725 1.92329 -0.321643 0
M  V30 6126 O 563.995 1.84403 0.661232 0
M  V30 6127 H 562.575 0.45094 -0.595535 0
M  V30 6128 H 565.237 0.535046 -1.87412 0
M  V30 6129 H 564.333 1.95783 -2.43054 0
M  V30 6130 N 564.634 1.40294 0.718013 0
M  V30 6131 C 565.859 1.41941 1.5122 0
M  V30 6132 C 566.284 0.0202371 1.88089 0
M  V30 6133 O 565.642 -0.971078 1.53101 0
M  V30 6134 C 565.69 2.3141 2.76554 0
M  V30 6135 O 564.794 1.75567 3.73162 0
M  V30 6136 H 564.135 0.482644 0.456016 0
M  V30 6137 H 566.665 1.84494 0.884478 0
M  V30 6138 H 566.675 2.46513 3.25108 0
M  V30 6139 H 565.35 3.33085 2.49053 0
M  V30 6140 H 563.927 1.69798 3.31999 0
M  V30 6141 N 566.112 -0.949982 1.2575 0
M  V30 6142 C 567.044 -2.05088 1.02331 0
M  V30 6143 C 568.057 -1.62795 -0.0133247 0
M  V30 6144 O 569.246 -1.77067 0.225759 0
M  V30 6145 C 566.346 -3.34794 0.525924 0
M  V30 6146 C 565.519 -4.05903 1.62978 0
M  V30 6147 C 564.578 -5.1388 1.13196 0
M  V30 6148 O 563.604 -5.39072 1.82729 0
M  V30 6149 N 564.806 -5.80495 -0.0242926 0
M  V30 6150 H 567.571 -2.25747 1.97125 0
M  V30 6151 H 565.132 -1.11886 1.17018 0
M  V30 6152 H 567.124 -4.04312 0.177263 0
M  V30 6153 H 565.694 -3.10872 -0.328202 0
M  V30 6154 H 564.914 -3.3042 2.1498 0
M  V30 6155 H 566.202 -4.50166 2.37124 0
M  V30 6156 H 565.6 -5.62454 -0.605184 0
M  V30 6157 H 564.157 -6.51043 -0.313947 0
M  V30 6158 N 567.59 -1.07411 -1.15328 0
M  V30 6159 C 568.5 -0.706438 -2.23711 0
M  V30 6160 C 569.516 0.282586 -1.7169 0
M  V30 6161 O 570.692 0.129066 -2.00986 0
M  V30 6162 C 567.757 -0.11048 -3.46524 0
M  V30 6163 C 566.818 -1.15282 -4.13532 0
M  V30 6164 C 566.051 -0.585205 -5.30482 0
M  V30 6165 O 566.274 0.598549 -5.67251 0
M  V30 6166 O 565.208 -1.33039 -5.87013 0
M  V30 6167 H 569.034 -1.61031 -2.57493 0
M  V30 6168 H 566.619 -0.847113 -1.23062 0
M  V30 6169 H 568.501 0.21957 -4.20828 0
M  V30 6170 H 567.176 0.766703 -3.14489 0
M  V30 6171 H 566.083 -1.53523 -3.41147 0
M  V30 6172 H 567.416 -2.00192 -4.49649 0
M  V30 6173 N 569.068 1.32177 -0.85831 0
M  V30 6174 C 570.031 2.27086 -0.310588 0
M  V30 6175 C 571.031 1.51751 0.531806 0
M  V30 6176 O 572.221 1.70794 0.34279 0
M  V30 6177 C 569.353 3.36266 0.560179 0
M  V30 6178 H 570.546 2.77045 -1.1483 0
M  V30 6179 H 568.099 1.42911 -0.632942 0
M  V30 6180 H 568.834 2.9158 1.41956 0
M  V30 6181 H 568.619 3.92077 -0.0428473 0
M  V30 6182 H 570.109 4.06974 0.936056 0
M  V30 6183 N 570.547 0.616602 1.45037 0
M  V30 6184 C 571.477 -0.0840787 2.33349 0
M  V30 6185 C 572.458 -0.849641 1.4736 0
M  V30 6186 O 573.643 -0.818407 1.76113 0
M  V30 6187 C 570.773 -1.07604 3.3021 0
M  V30 6188 C 569.727 -0.423096 4.25904 0
M  V30 6189 C 569.053 -1.52394 5.12523 0
M  V30 6190 C 570.353 0.661457 5.18095 0
M  V30 6191 H 572.047 0.653333 2.92185 0
M  V30 6192 H 569.593 0.315634 1.40498 0
M  V30 6193 H 571.546 -1.57485 3.90866 0
M  V30 6194 H 570.27 -1.84416 2.69552 0
M  V30 6195 H 568.929 0.05493 3.66559 0
M  V30 6196 H 568.577 -2.28257 4.48227 0
M  V30 6197 H 568.277 -1.09251 5.77354 0
M  V30 6198 H 569.801 -2.02485 5.76049 0
M  V30 6199 H 571.215 0.246353 5.7277 0
M  V30 6200 H 569.612 1.01517 5.91451 0
M  V30 6201 H 570.682 1.53446 4.59981 0
M  V30 6202 N 572.025 -1.5352 0.356285 0
M  V30 6203 C 572.975 -2.22204 -0.510815 0
M  V30 6204 C 573.959 -1.21393 -1.05605 0
M  V30 6205 O 575.151 -1.46883 -0.987639 0
M  V30 6206 C 572.28 -3.00786 -1.65478 0
M  V30 6207 C 571.366 -4.08965 -1.12287 0
M  V30 6208 N 571.757 -5.04829 -0.313191 0
M  V30 6209 C 570.055 -4.23505 -1.39856 0
M  V30 6210 C 570.756 -5.81695 -0.0230322 0
M  V30 6211 N 569.732 -5.40074 -0.618144 0
M  V30 6212 H 573.534 -2.93676 0.114711 0
M  V30 6213 H 571.048 -1.61572 0.163811 0
M  V30 6214 H 573.045 -3.48502 -2.28806 0
M  V30 6215 H 571.705 -2.30843 -2.28345 0
M  V30 6216 H 572.716 -5.17879 0.0468202 0
M  V30 6217 H 569.393 -3.64786 -2.0307 0
M  V30 6218 H 570.783 -6.68931 0.630927 0
M  V30 6219 N 573.503 -0.0852151 -1.57369 0
M  V30 6220 C 574.914 0.445428 -1.81309 0
M  V30 6221 C 575.265 1.68795 -1.00013 0
M  V30 6222 O 574.39 2.15211 -0.226573 0
M  V30 6223 C 574.985 0.814887 -3.28854 0
M  V30 6224 C 573.544 1.29032 -3.53592 0
M  V30 6225 C 572.691 0.282089 -2.75861 0
M  V30 6226 H 575.642 -0.310771 -1.55627 0
M  V30 6227 H 575.663 1.67524 -3.41637 0
M  V30 6228 H 575.175 -0.0896309 -3.87996 0
M  V30 6229 H 573.276 2.21289 -2.9977 0
M  V30 6230 H 573.389 1.25898 -4.62262 0
M  V30 6231 H 571.753 0.762182 -2.43029 0
M  V30 6232 H 572.536 -0.614936 -3.37748 0
M  V30 6233 N 574.981 1.5647 0.188427 0
M  V30 6234 C 576.227 1.81281 0.909124 0
M  V30 6235 C 576.56 0.66034 1.82628 0
M  V30 6236 O 575.835 -0.338737 1.91528 0
M  V30 6237 C 576.118 3.16388 1.7196 0
M  V30 6238 C 575.971 4.42137 0.826714 0
M  V30 6239 C 577.29 3.48256 2.69083 0
M  V30 6240 H 574.409 0.659457 0.329068 0
M  V30 6241 H 577.051 1.89182 0.176156 0
M  V30 6242 H 575.201 3.09784 2.34448 0
M  V30 6243 H 576.873 4.60794 0.216025 0
M  V30 6244 H 575.116 4.33594 0.133792 0
M  V30 6245 H 575.787 5.33184 1.42893 0
M  V30 6246 H 578.263 3.55203 2.16726 0
M  V30 6247 H 577.139 4.43899 3.2287 0
M  V30 6248 H 577.4 2.72088 3.48455 0
M  V30 6249 N 576.459 -0.456382 1.50847 0
M  V30 6250 C 577.409 -1.55045 1.67168 0
M  V30 6251 C 578.393 -1.52061 0.525958 0
M  V30 6252 O 579.585 -1.58836 0.781036 0
M  V30 6253 C 576.714 -2.93386 1.78268 0
M  V30 6254 C 575.8 -3.01198 2.98564 0
M  V30 6255 N 576.191 -2.78792 4.22029 0
M  V30 6256 C 574.489 -3.32346 2.97426 0
M  V30 6257 C 575.19 -2.91953 5.03128 0
M  V30 6258 N 574.166 -3.22797 4.37382 0
M  V30 6259 H 577.968 -1.36444 2.60308 0
M  V30 6260 H 575.482 -0.663375 1.48233 0
M  V30 6261 H 577.479 -3.72071 1.88067 0
M  V30 6262 H 576.139 -3.13022 0.862965 0
M  V30 6263 H 577.15 -2.54087 4.51287 0
M  V30 6264 H 573.827 -3.57877 2.15012 0
M  V30 6265 H 575.217 -2.78745 6.11351 0
M  V30 6266 N 577.937 -1.40673 -0.710563 0
M  V30 6267 C 579.167 -1.4234 -1.49742 0
M  V30 6268 C 579.575 -0.022821 -1.89186 0
M  V30 6269 O 578.918 0.964773 -1.56326 0
M  V30 6270 C 578.98 -2.25509 -2.79975 0
M  V30 6271 C 578.644 -3.73862 -2.62824 0
M  V30 6272 C 579.641 -4.66379 -2.29752 0
M  V30 6273 C 577.326 -4.17735 -2.78932 0
M  V30 6274 C 579.32 -6.00756 -2.13006 0
M  V30 6275 C 577.007 -5.5218 -2.61802 0
M  V30 6276 C 578.005 -6.43505 -2.28888 0
M  V30 6277 O 577.693 -7.75472 -2.11894 0
M  V30 6278 H 577.425 -0.487311 -0.468513 0
M  V30 6279 H 579.979 -1.8542 -0.883668 0
M  V30 6280 H 578.209 -1.77218 -3.43701 0
M  V30 6281 H 579.898 -2.19058 -3.41714 0
M  V30 6282 H 580.664 -4.33778 -2.16936 0
M  V30 6283 H 576.543 -3.46967 -3.03537 0
M  V30 6284 H 580.087 -6.72003 -1.87237 0
M  V30 6285 H 575.984 -5.84365 -2.74204 0
M  V30 6286 H 576.752 -7.86458 -2.26775 0
M  V30 6287 N 579.415 0.9433 -1.26252 0
M  V30 6288 C 580.325 2.07532 -1.09397 0
M  V30 6289 C 581.341 1.73977 -0.0280449 0
M  V30 6290 O 582.517 2.00067 -0.231337 0
M  V30 6291 C 579.582 3.39002 -0.726523 0
M  V30 6292 C 578.643 3.86353 -1.87163 0
M  V30 6293 C 577.876 5.11549 -1.52162 0
M  V30 6294 O 578.099 5.68834 -0.422385 0
M  V30 6295 O 577.033 5.53889 -2.35565 0
M  V30 6296 H 580.859 2.24658 -2.04359 0
M  V30 6297 H 578.444 1.05988 -1.05295 0
M  V30 6298 H 580.326 4.18 -0.534236 0
M  V30 6299 H 579.001 3.2312 0.193721 0
M  V30 6300 H 577.908 3.0831 -2.11886 0
M  V30 6301 H 579.241 4.06752 -2.77152 0
M  V30 6302 N 580.893 1.08022 1.14757 0
M  V30 6303 C 581.803 0.718292 2.23333 0
M  V30 6304 C 582.819 -0.273477 1.71837 0
M  V30 6305 O 583.995 -0.118406 2.01052 0
M  V30 6306 C 581.06 0.128855 3.4646 0
M  V30 6307 C 580.121 1.17473 4.12915 0
M  V30 6308 C 579.354 0.61333 5.30164 0
M  V30 6309 O 579.577 -0.568458 5.6756 0
M  V30 6310 O 578.511 1.3615 5.86299 0
M  V30 6311 H 582.337 1.62394 2.56636 0
M  V30 6312 H 579.922 0.853628 1.22611 0
M  V30 6313 H 581.804 -0.197249 4.20938 0
M  V30 6314 H 580.479 -0.750014 3.14891 0
M  V30 6315 H 579.386 1.5533 3.40328 0
M  V30 6316 H 580.719 2.02574 4.48581 0
M  V30 6317 N 582.371 -1.3172 0.865308 0
M  V30 6318 C 583.318 -2.2863 0.315736 0
M  V30 6319 C 584.288 -1.55524 -0.583213 0
M  V30 6320 O 585.473 -1.83694 -0.51585 0
M  V30 6321 C 582.613 -3.41735 -0.480773 0
M  V30 6322 C 581.726 -4.297 0.445167 0
M  V30 6323 C 580.861 -5.29944 -0.365012 0
M  V30 6324 C 579.9 -6.09554 0.557651 0
M  V30 6325 N 579.037 -7.01768 -0.215994 0
M  V30 6326 H 583.877 -2.75026 1.14736 0
M  V30 6327 H 581.414 -1.35302 0.577209 0
M  V30 6328 H 583.372 -4.06045 -0.958306 0
M  V30 6329 H 582.002 -2.96461 -1.27714 0
M  V30 6330 H 581.054 -3.65875 1.04113 0
M  V30 6331 H 582.366 -4.85295 1.15284 0
M  V30 6332 H 581.52 -5.99908 -0.905255 0
M  V30 6333 H 580.259 -4.74994 -1.106 0
M  V30 6334 H 579.264 -5.38485 1.10969 0
M  V30 6335 H 580.489 -6.66591 1.29742 0
M  V30 6336 H 578.435 -6.49232 -0.939878 0
M  V30 6337 H 578.352 -7.54762 0.432431 0
M  V30 6338 H 579.62 -7.76002 -0.737618 0
M  V30 6339 N 583.85 -0.624285 -1.44708 0
M  V30 6340 C 584.798 0.0969952 -2.32398 0
M  V30 6341 C 585.792 0.842762 -1.46949 0
M  V30 6342 O 586.998 0.756436 -1.63334 0
M  V30 6343 H 583.373 0.0501306 -0.750327 0
M  V30 6344 H 585.344 -0.660767 -2.90992 0
M  V30 6345 C 584.093 1.06967 -3.30837 0
M  V30 6346 H 583.416 0.505242 -3.96595 0
M  V30 6347 H 584.856 1.54397 -3.94889 0
M  V30 6348 C 583.315 2.15153 -2.5925 0
M  V30 6349 O 583.845 3.23139 -2.3863 0
M  V30 6350 N 582.051 1.90898 -2.19103 0
M  V30 6351 H 581.598 1.03086 -2.36074 0
M  V30 6352 H 581.556 2.63485 -1.71531 0
M  V30 6353 N 585.328 1.53329 -0.364422 0
M  V30 6354 C 586.574 2.02222 0.21855 0
M  V30 6355 C 586.929 1.24702 1.46517 0
M  V30 6356 O 586.222 0.331969 1.88702 0
M  V30 6357 C 586.416 3.52911 0.564661 0
M  V30 6358 C 586.245 4.45023 -0.646862 0
M  V30 6359 C 585.015 4.91838 -1.15858 0
M  V30 6360 C 587.213 4.91581 -1.51172 0
M  V30 6361 N 585.195 5.67955 -2.33025 0
M  V30 6362 C 586.566 5.66028 -2.53006 0
M  V30 6363 C 588.621 4.73656 -1.53473 0
M  V30 6364 C 587.324 6.24457 -3.56996 0
M  V30 6365 C 589.35 5.3295 -2.56356 0
M  V30 6366 C 588.712 6.07282 -3.56914 0
M  V30 6367 H 584.811 0.780832 0.0427199 0
M  V30 6368 H 587.395 1.87937 -0.508704 0
M  V30 6369 H 585.566 3.6736 1.26099 0
M  V30 6370 H 587.298 3.88528 1.13262 0
M  V30 6371 H 584.053 4.68043 -0.723393 0
M  V30 6372 H 584.477 6.10675 -2.92241 0
M  V30 6373 H 589.119 4.15714 -0.770842 0
M  V30 6374 H 586.837 6.81496 -4.34268 0
M  V30 6375 H 590.423 5.20976 -2.58989 0
M  V30 6376 H 589.303 6.52345 -4.35218 0
M  V30 6377 N 586.806 0.0935595 1.57322 0
M  V30 6378 C 588.046 -0.573901 1.96178 0
M  V30 6379 C 588.41 -1.65445 0.97426 0
M  V30 6380 O 589.611 -2.37901 1.25126 0
M  V30 6381 C 587.882 -1.11612 3.39526 0
M  V30 6382 S 589.441 -1.79566 4.00377 0
M  V30 6383 H 586.259 -0.187315 0.685882 0
M  V30 6384 H 588.861 0.172597 1.94737 0
M  V30 6385 H 587.565 -0.31815 4.09165 0
M  V30 6386 H 587.096 -1.89848 3.4456 0
M  V30 6387 H 589.111 -3.07978 3.89056 0
M  V30 6388 N 588.284 -1.56567 -0.180126 0
M  V30 6389 C 589.194 -1.98947 -1.24327 0
M  V30 6390 C 590.21 -0.899446 -1.4895 0
M  V30 6391 O 591.386 -1.20639 -1.61271 0
M  V30 6392 C 588.451 -2.33328 -2.56435 0
M  V30 6393 C 587.512 -3.56114 -2.39752 0
M  V30 6394 C 586.745 -3.88845 -3.65561 0
M  V30 6395 O 586.968 -3.22662 -4.70368 0
M  V30 6396 O 585.902 -4.82226 -3.60197 0
M  V30 6397 H 589.728 -2.89634 -0.913565 0
M  V30 6398 H 587.313 -1.44319 -0.386306 0
M  V30 6399 H 589.195 -2.5645 -3.34382 0
M  V30 6400 H 587.87 -1.45806 -2.89002 0
M  V30 6401 H 586.777 -3.38221 -1.59866 0
M  V30 6402 H 588.11 -4.4415 -2.12113 0
M  V30 6403 N 589.762 0.448376 -1.51087 0
M  V30 6404 C 590.672 1.56882 -1.74428 0
M  V30 6405 C 591.688 1.62268 -0.62809 0
M  V30 6406 O 592.864 1.79716 -0.909075 0
M  V30 6407 C 589.929 2.92947 -1.85426 0
M  V30 6408 C 588.99 2.97766 -3.09247 0
M  V30 6409 C 588.223 4.27341 -3.19711 0
M  V30 6410 O 588.446 5.19112 -2.36387 0
M  V30 6411 O 587.38 4.38219 -4.12611 0
M  V30 6412 H 591.206 1.40104 -2.69452 0
M  V30 6413 H 588.791 0.630247 -1.35456 0
M  V30 6414 H 590.673 3.73719 -1.94709 0
M  V30 6415 H 589.348 3.09876 -0.935887 0
M  V30 6416 H 588.255 2.15989 -3.0545 0
M  V30 6417 H 589.588 2.8578 -4.00738 0
M  V30 6418 N 591.24 1.41047 0.703093 0
M  V30 6419 C 592.172 1.38228 1.82827 0
M  V30 6420 C 593.185 0.285637 1.60275 0
M  V30 6421 O 594.374 0.54685 1.69917 0
M  V30 6422 C 591.474 1.13136 3.19458 0
M  V30 6423 C 590.647 2.34695 3.69103 0
M  V30 6424 C 589.706 2.05574 4.84382 0
M  V30 6425 O 588.732 2.78549 4.96386 0
M  V30 6426 N 589.934 1.04135 5.71083 0
M  V30 6427 H 592.699 2.35203 1.85741 0
M  V30 6428 H 590.26 1.35562 0.885125 0
M  V30 6429 H 592.252 0.916183 3.94193 0
M  V30 6430 H 590.822 0.247836 3.11616 0
M  V30 6431 H 590.042 2.71963 2.85359 0
M  V30 6432 H 591.33 3.15705 3.99009 0
M  V30 6433 H 590.728 0.43722 5.64008 0
M  V30 6434 H 589.285 0.886078 6.45749 0
M  V30 6435 N 592.718 -0.936591 1.26751 0
M  V30 6436 C 593.948 -1.71509 1.15188 0
M  V30 6437 C 594.356 -1.86885 -0.295037 0
M  V30 6438 O 593.699 -1.37915 -1.21347 0
M  V30 6439 C 593.761 -3.13853 1.75318 0
M  V30 6440 C 593.425 -3.21845 3.24445 0
M  V30 6441 C 594.422 -3.04771 4.21201 0
M  V30 6442 C 592.107 -3.45088 3.64992 0
M  V30 6443 C 594.101 -3.10816 5.56482 0
M  V30 6444 C 591.788 -3.50767 5.00405 0
M  V30 6445 C 592.786 -3.33648 5.9596 0
M  V30 6446 O 592.474 -3.39045 7.28906 0
M  V30 6447 H 592.206 -0.543658 0.401761 0
M  V30 6448 H 594.76 -1.18234 1.67958 0
M  V30 6449 H 592.99 -3.6857 1.17016 0
M  V30 6450 H 594.679 -3.73634 1.58596 0
M  V30 6451 H 595.445 -2.86665 3.91214 0
M  V30 6452 H 591.324 -3.57467 2.91098 0
M  V30 6453 H 594.868 -2.97372 6.31043 0
M  V30 6454 H 590.765 -3.68396 5.30052 0
M  V30 6455 H 591.533 -3.55558 7.37238 0
M  V30 6456 N 594.196 -1.08629 -1.14182 0
M  V30 6457 C 595.421 -0.83902 -1.89671 0
M  V30 6458 C 595.846 0.603332 -1.78161 0
M  V30 6459 O 595.204 1.42301 -1.12339 0
M  V30 6460 C 595.252 -1.26854 -3.37551 0
M  V30 6461 O 594.356 -0.42188 -4.10236 0
M  V30 6462 H 593.697 -0.304545 -0.590041 0
M  V30 6463 H 596.227 -1.4483 -1.44518 0
M  V30 6464 H 596.237 -1.25038 -3.88368 0
M  V30 6465 H 594.912 -2.31901 -3.45246 0
M  V30 6466 H 593.489 -0.503654 -3.69483 0
M  V30 6467 N 595.674 1.31259 -0.872281 0
M  V30 6468 C 596.922 1.96233 -0.483409 0
M  V30 6469 C 597.243 1.69276 0.968012 0
M  V30 6470 O 596.513 1.00943 1.67891 0
M  V30 6471 H 595.093 0.726025 -0.175774 0
M  V30 6472 H 597.755 1.60024 -1.11258 0
M  V30 6473 H 596.851 3.05403 -0.643075 0
M  V30 6474 N 597.152 0.631951 1.44375 0
M  V30 6475 C 598.4 0.136497 2.01639 0
M  V30 6476 C 598.721 -1.24637 1.49969 0
M  V30 6477 O 597.991 -1.82827 0.70363 0
M  V30 6478 H 596.571 0.0474703 0.74549 0
M  V30 6479 H 599.233 0.818837 1.76865 0
M  V30 6480 H 598.329 0.104817 3.11924 0
M  V30 6481 N 598.631 -1.53133 0.372548 0
M  V30 6482 C 599.871 -2.03267 -0.214943 0
M  V30 6483 C 600.235 -1.25362 -1.45425 0
M  V30 6484 O 601.436 -1.65536 -2.11781 0
M  V30 6485 C 599.707 -3.53985 -0.492897 0
M  V30 6486 S 601.266 -4.25977 -1.05307 0
M  V30 6487 H 598.084 -0.708289 -0.062029 0
M  V30 6488 H 600.686 -1.88539 0.517025 0
M  V30 6489 H 599.39 -4.08282 0.416442 0
M  V30 6490 H 598.921 -3.72887 -1.25375 0
M  V30 6491 H 600.936 -4.37731 -2.33679 0
M  V30 6492 N 600.109 -0.101901 -1.5727 0
M  V30 6493 C 601.339 0.567568 -1.98651 0
M  V30 6494 C 601.747 1.61839 -0.980037 0
M  V30 6495 O 601.09 1.83661 0.0376564 0
M  V30 6496 C 601.152 1.26742 -3.36417 0
M  V30 6497 C 600.816 0.366561 -4.55528 0
M  V30 6498 C 601.813 -0.388022 -5.1845 0
M  V30 6499 C 599.498 0.282629 -5.01504 0
M  V30 6500 C 601.492 -1.21445 -6.25724 0
M  V30 6501 C 599.179 -0.547443 -6.08643 0
M  V30 6502 C 600.177 -1.29462 -6.70618 0
M  V30 6503 O 599.865 -2.11095 -7.7569 0
M  V30 6504 H 599.597 0.156282 -0.657687 0
M  V30 6505 H 602.151 -0.179912 -2.04611 0
M  V30 6506 H 600.381 2.06162 -3.27161 0
M  V30 6507 H 602.07 1.8321 -3.622 0
M  V30 6508 H 602.836 -0.332949 -4.83856 0
M  V30 6509 H 598.715 0.853868 -4.53023 0
M  V30 6510 H 602.259 -1.79814 -6.74027 0
M  V30 6511 H 598.156 -0.603971 -6.42668 0
M  V30 6512 H 598.924 -2.03851 -7.92709 0
M  V30 6513 N 601.587 1.56661 0.17182 0
M  V30 6514 C 602.815 1.861 0.904115 0
M  V30 6515 C 603.23 0.687227 1.75848 0
M  V30 6516 O 602.587 -0.343671 1.79235 0
M  V30 6517 C 602.638 3.14568 1.78127 0
M  V30 6518 O 602.359 4.27422 0.961366 0
M  V30 6519 C 603.86 3.5735 2.62327 0
M  V30 6520 H 601.08 0.617445 0.262684 0
M  V30 6521 H 603.624 2.03775 0.172068 0
M  V30 6522 H 601.779 2.98721 2.46666 0
M  V30 6523 H 602.193 5.00725 1.56123 0
M  V30 6524 H 603.667 4.50144 3.1949 0
M  V30 6525 H 604.144 2.81445 3.37173 0
M  V30 6526 H 604.75 3.75807 1.99121 0
M  V30 6527 N 603.065 -0.440357 1.51323 0
M  V30 6528 C 604.028 -1.51679 1.71832 0
M  V30 6529 C 605.028 -1.49648 0.588386 0
M  V30 6530 O 606.218 -1.51724 0.855891 0
M  V30 6531 C 603.35 -2.91228 1.77199 0
M  V30 6532 H 604.543 -1.34799 2.67898 0
M  V30 6533 H 602.096 -0.66883 1.41267 0
M  V30 6534 H 602.831 -3.13516 0.829363 0
M  V30 6535 H 602.616 -2.94107 2.59314 0
M  V30 6536 H 604.106 -3.69321 1.94915 0
M  V30 6537 N 604.543 -1.41418 -0.695603 0
M  V30 6538 C 605.773 -1.43921 -1.48224 0
M  V30 6539 C 606.181 -0.0428855 -1.89151 0
M  V30 6540 O 605.524 0.948138 -1.5734 0
M  V30 6541 C 605.586 -2.28466 -2.77567 0
M  V30 6542 C 605.25 -3.76629 -2.58844 0
M  V30 6543 C 606.247 -4.6879 -2.24793 0
M  V30 6544 C 603.932 -4.2067 -2.74485 0
M  V30 6545 C 605.926 -6.02981 -2.06622 0
M  V30 6546 C 603.613 -5.54926 -2.55931 0
M  V30 6547 C 604.611 -6.45897 -2.2205 0
M  V30 6548 O 604.299 -7.77675 -2.03657 0
M  V30 6549 H 604.031 -0.492252 -0.463318 0
M  V30 6550 H 606.585 -1.86347 -0.863952 0
M  V30 6551 H 604.815 -1.80853 -3.41802 0
M  V30 6552 H 606.504 -2.2267 -3.39371 0
M  V30 6553 H 607.27 -4.36055 -2.12323 0
M  V30 6554 H 603.149 -3.50167 -2.9984 0
M  V30 6555 H 606.693 -6.73951 -1.80099 0
M  V30 6556 H 602.59 -5.8724 -2.67991 0
M  V30 6557 H 603.358 -7.88819 -2.1842 0
M  V30 6558 N 606.021 0.929856 -1.27246 0
M  V30 6559 C 607.268 1.67731 -1.13457 0
M  V30 6560 C 607.596 1.9185 0.319998 0
M  V30 6561 O 606.851 1.50524 1.25064 0
M  V30 6562 C 607.15 3.05116 -1.86115 0
M  V30 6563 C 606.816 3.00715 -3.35978 0
M  V30 6564 C 605.478 2.99222 -3.76855 0
M  V30 6565 C 607.83 2.92168 -4.3161 0
M  V30 6566 C 605.158 2.86962 -5.11732 0
M  V30 6567 C 607.51 2.81449 -5.66542 0
M  V30 6568 C 606.174 2.78305 -6.06715 0
M  V30 6569 H 605.444 0.613772 -0.415168 0
M  V30 6570 H 608.091 1.08456 -1.57827 0
M  V30 6571 H 606.396 3.68083 -1.34246 0
M  V30 6572 H 608.093 3.61822 -1.72876 0
M  V30 6573 H 604.683 3.02664 -3.03468 0
M  V30 6574 H 608.867 2.92421 -4.01003 0
M  V30 6575 H 604.123 2.82913 -5.42006 0
M  V30 6576 H 608.297 2.738 -6.40317 0
M  V30 6577 H 605.924 2.68561 -7.11181 0
M  V30 6578 N 607.499 1.09233 1.13605 0
M  V30 6579 C 608.91 0.846839 1.6639 0
M  V30 6580 C 609.261 -0.625031 1.85978 0
M  V30 6581 O 608.386 -1.48173 1.57714 0
M  V30 6582 C 608.981 1.5307 3.0225 0
M  V30 6583 C 607.54 1.33223 3.52035 0
M  V30 6584 C 606.687 1.58806 2.27323 0
M  V30 6585 H 609.638 1.25175 0.975541 0
M  V30 6586 H 609.659 0.96267 3.68121 0
M  V30 6587 H 609.171 2.60192 2.87961 0
M  V30 6588 H 607.272 0.282091 3.71531 0
M  V30 6589 H 607.385 2.0657 4.32279 0
M  V30 6590 H 605.749 1.01007 2.33815 0
M  V30 6591 H 606.532 2.67153 2.15602 0
M  V30 6592 N 608.977 -1.30795 0.87923 0
M  V30 6593 C 610.388 -1.78535 0.546093 0
M  V30 6594 C 610.739 -1.72354 -0.937467 0
M  V30 6595 O 609.864 -1.2969 -1.73233 0
M  V30 6596 C 610.459 -3.24181 0.9845 0
M  V30 6597 C 609.018 -3.69779 0.702871 0
M  V30 6598 C 608.165 -2.51377 1.17068 0
M  V30 6599 H 611.116 -1.17746 1.06403 0
M  V30 6600 H 611.137 -3.79227 0.311045 0
M  V30 6601 H 610.649 -3.28647 2.06429 0
M  V30 6602 H 608.75 -3.70806 -0.365166 0
M  V30 6603 H 608.863 -4.61507 1.28639 0
M  V30 6604 H 607.227 -2.47768 0.590172 0
M  V30 6605 H 608.01 -2.58584 2.25808 0
M  V30 6606 N 610.455 -0.639598 -1.44038 0
M  V30 6607 C 611.703 -0.147188 -2.01563 0
M  V30 6608 C 612.024 1.2384 -1.50628 0
M  V30 6609 O 611.294 1.82452 -0.713316 0
M  V30 6610 H 609.874 -0.0514231 -0.745228 0
M  V30 6611 H 612.536 -0.828205 -1.76428 0
M  V30 6612 H 611.632 -0.121358 -3.11864 0
M  V30 6613 N 611.933 1.52934 -0.380664 0
M  V30 6614 C 613.182 2.00651 0.205477 0
M  V30 6615 C 613.495 1.27164 1.48623 0
M  V30 6616 O 614.701 1.65547 2.15189 0
M  V30 6617 C 613.157 3.57479 0.416726 0
M  V30 6618 C 612.765 4.39857 -0.850268 0
M  V30 6619 C 614.509 4.13509 0.959702 0
M  V30 6620 C 612.416 5.88269 -0.607773 0
M  V30 6621 H 611.346 0.749684 0.0805614 0
M  V30 6622 H 613.997 1.76508 -0.501732 0
M  V30 6623 H 612.379 3.77836 1.18557 0
M  V30 6624 H 613.553 4.31269 -1.62307 0
M  V30 6625 H 611.868 3.95005 -1.31756 0
M  V30 6626 H 614.465 5.22039 1.15669 0
M  V30 6627 H 614.808 3.69054 1.92626 0
M  V30 6628 H 615.341 3.9701 0.250645 0
M  V30 6629 H 612.08 6.3703 -1.54509 0
M  V30 6630 H 611.6 5.99667 0.126247 0
M  V30 6631 H 613.279 6.46558 -0.239014 0
M  V30 6632 N 613.412 0.11024 1.57214 0
M  V30 6633 C 614.345 -0.880224 2.1054 0
M  V30 6634 C 615.323 -1.26658 1.01964 0
M  V30 6635 O 616.507 -1.36917 1.29561 0
M  V30 6636 C 613.634 -2.17676 2.59489 0
M  V30 6637 C 612.68 -1.93914 3.79868 0
M  V30 6638 S 613.513 -1.16336 5.2271 0
M  V30 6639 C 614.669 -2.47188 5.75021 0
M  V30 6640 H 614.902 -0.426614 2.94223 0
M  V30 6641 H 612.435 -0.10336 1.54054 0
M  V30 6642 H 614.393 -2.92175 2.88347 0
M  V30 6643 H 613.054 -2.60156 1.76005 0
M  V30 6644 H 612.247 -2.8996 4.12236 0
M  V30 6645 H 611.849 -1.27539 3.51582 0
M  V30 6646 H 614.141 -3.43079 5.84211 0
M  V30 6647 H 615.084 -2.19377 6.7326 0
M  V30 6648 H 615.492 -2.56154 5.03036 0
M  V30 6649 N 614.89 -1.56749 -0.16351 0
M  V30 6650 C 616.118 -1.86577 -0.894233 0
M  V30 6651 C 616.533 -0.696543 -1.75481 0
M  V30 6652 O 615.89 0.334161 -1.79415 0
M  V30 6653 C 615.941 -3.15508 -1.76456 0
M  V30 6654 O 615.662 -4.27926 -0.938685 0
M  V30 6655 C 617.163 -3.58737 -2.60428 0
M  V30 6656 H 614.383 -0.618829 -0.259405 0
M  V30 6657 H 616.927 -2.03863 -0.161259 0
M  V30 6658 H 615.082 -3.00025 -2.45079 0
M  V30 6659 H 615.496 -5.01546 -1.53465 0
M  V30 6660 H 616.97 -4.51832 -3.17099 0
M  V30 6661 H 617.447 -2.83229 -3.35675 0
M  V30 6662 H 618.053 -3.76858 -1.97125 0
M  V30 6663 N 616.368 0.432326 -1.51554 0
M  V30 6664 C 617.3 1.54357 -1.6943 0
M  V30 6665 C 618.313 1.52311 -0.574897 0
M  V30 6666 O 619.502 1.56997 -0.849369 0
M  V30 6667 C 616.602 2.93273 -1.69836 0
M  V30 6668 C 615.775 3.19768 -2.98442 0
M  V30 6669 C 614.834 4.38433 -2.90969 0
M  V30 6670 O 613.86 4.36842 -3.64908 0
M  V30 6671 N 615.062 5.42276 -2.07163 0
M  V30 6672 H 617.827 1.39426 -2.65293 0
M  V30 6673 H 615.388 0.621331 -1.49503 0
M  V30 6674 H 617.38 3.70687 -1.62399 0
M  V30 6675 H 615.95 3.01777 -0.815456 0
M  V30 6676 H 615.17 2.30607 -3.19709 0
M  V30 6677 H 616.458 3.343 -3.83563 0
M  V30 6678 H 615.856 5.46407 -1.46477 0
M  V30 6679 H 614.413 6.18524 -2.05601 0
M  V30 6680 N 617.846 1.41785 0.688094 0
M  V30 6681 C 619.076 1.44705 1.47459 0
M  V30 6682 C 619.484 0.052916 1.89126 0
M  V30 6683 O 618.827 -0.939781 1.57841 0
M  V30 6684 C 618.889 2.29935 2.76352 0
M  V30 6685 C 618.553 3.77996 2.56843 0
M  V30 6686 C 619.55 4.69976 2.22304 0
M  V30 6687 C 617.235 4.2212 2.7225 0
M  V30 6688 C 619.229 6.04068 2.03421 0
M  V30 6689 C 616.916 5.56275 2.52985 0
M  V30 6690 C 617.914 6.47065 2.18621 0
M  V30 6691 O 617.602 7.78744 1.9953 0
M  V30 6692 H 617.334 0.494703 0.460701 0
M  V30 6693 H 619.888 1.86802 0.854057 0
M  V30 6694 H 618.118 1.82664 3.40839 0
M  V30 6695 H 619.807 2.24467 3.38186 0
M  V30 6696 H 620.573 4.37175 2.10008 0
M  V30 6697 H 616.452 3.51752 2.97979 0
M  V30 6698 H 619.996 6.74897 1.76523 0
M  V30 6699 H 615.893 5.88653 2.64873 0
M  V30 6700 H 616.661 7.89966 2.14234 0
M  V30 6701 N 619.324 -0.923095 1.27737 0
M  V30 6702 C 620.572 -1.66797 1.14119 0
M  V30 6703 C 620.893 -1.92479 -0.312541 0
M  V30 6704 O 620.163 -1.53432 -1.218 0
M  V30 6705 H 618.743 -0.618196 0.419336 0
M  V30 6706 H 621.405 -1.10815 1.60331 0
M  V30 6707 H 620.501 -2.63424 1.67374 0
M  V30 6708 N 620.802 -1.09834 -1.13024 0
M  V30 6709 C 622.218 -0.828875 -1.36388 0
M  V30 6710 C 622.418 0.554756 -1.93713 0
M  V30 6711 O 621.474 1.30882 -2.15931 0
M  V30 6712 C 622.787 -1.92352 -2.3113 0
M  V30 6713 C 624.335 -1.95124 -2.44735 0
M  V30 6714 C 624.81 -3.03745 -3.42787 0
M  V30 6715 N 626.301 -3.03012 -3.5034 0
M  V30 6716 C 627.036 -3.83699 -4.26101 0
M  V30 6717 N 626.532 -4.74306 -5.04981 0
M  V30 6718 N 628.325 -3.71942 -4.21445 0
M  V30 6719 H 620.476 -1.99029 -0.74169 0
M  V30 6720 H 622.739 -0.864557 -0.388903 0
M  V30 6721 H 622.445 -2.91906 -1.96172 0
M  V30 6722 H 622.319 -1.80536 -3.3119 0
M  V30 6723 H 624.706 -0.962069 -2.78977 0
M  V30 6724 H 624.787 -2.11018 -1.44586 0
M  V30 6725 H 624.431 -4.02878 -3.09276 0
M  V30 6726 H 624.361 -2.85094 -4.42752 0
M  V30 6727 H 626.852 -2.37352 -2.94062 0
M  V30 6728 H 627.165 -5.32446 -5.60108 0
M  V30 6729 H 625.51 -4.78339 -5.04199 0
M  V30 6730 H 628.701 -3.00513 -3.589 0
M  V30 6731 H 628.874 -4.35062 -4.80235 0
M  V30 6732 N 622.28 1.30327 -0.886154 0
M  V30 6733 C 623.526 1.96388 -0.505941 0
M  V30 6734 C 623.859 1.69784 0.942712 0
M  V30 6735 O 623.134 1.00322 1.6663 0
M  V30 6736 C 623.417 3.51488 -0.782826 0
M  V30 6737 C 623.27 3.87603 -2.28219 0
M  V30 6738 C 624.589 4.39331 -0.260128 0
M  V30 6739 H 621.708 0.713327 -0.185292 0
M  V30 6740 H 624.35 1.54178 -1.11036 0
M  V30 6741 H 622.5 3.87572 -0.268399 0
M  V30 6742 H 624.172 3.61537 -2.86512 0
M  V30 6743 H 622.415 3.3563 -2.74837 0
M  V30 6744 H 623.086 4.95806 -2.42653 0
M  V30 6745 H 625.562 4.10162 -0.700444 0
M  V30 6746 H 624.438 5.46769 -0.483179 0
M  V30 6747 H 624.699 4.34072 0.838674 0
M  V30 6748 N 623.758 0.647228 1.43697 0
M  V30 6749 C 625.007 0.155552 2.01099 0
M  V30 6750 C 625.32 -1.23569 1.51624 0
M  V30 6751 O 626.526 -1.82226 2.01261 0
M  V30 6752 C 624.982 0.227296 3.59182 0
M  V30 6753 C 624.59 1.62086 4.17651 0
M  V30 6754 C 626.334 -0.207085 4.23995 0
M  V30 6755 C 624.241 1.64685 5.68008 0
M  V30 6756 H 623.171 0.0543895 0.752036 0
M  V30 6757 H 625.822 0.808386 1.64734 0
M  V30 6758 H 624.204 -0.492937 3.9292 0
M  V30 6759 H 625.378 2.36597 3.95422 0
M  V30 6760 H 623.693 2.0007 3.65186 0
M  V30 6761 H 626.29 -0.207426 5.34298 0
M  V30 6762 H 626.633 -1.23742 3.97484 0
M  V30 6763 H 627.166 0.461193 3.95118 0
M  V30 6764 H 623.905 2.65608 5.99277 0
M  V30 6765 H 623.425 0.944914 5.9231 0
M  V30 6766 H 625.104 1.38792 6.31938 0
M  V30 6767 N 625.236 -1.5273 0.388769 0
M  V30 6768 C 626.652 -1.59553 0.0387049 0
M  V30 6769 C 626.852 -1.40278 -1.44652 0
M  V30 6770 O 625.908 -1.21951 -2.21098 0
M  V30 6771 C 627.221 -2.9625 0.515409 0
M  V30 6772 C 628.769 -3.09426 0.471621 0
M  V30 6773 C 629.244 -4.48572 0.924505 0
M  V30 6774 N 630.735 -4.54754 0.880496 0
M  V30 6775 C 631.47 -5.60653 1.20234 0
M  V30 6776 N 630.966 -6.74198 1.59463 0
M  V30 6777 N 632.759 -5.50755 1.12363 0
M  V30 6778 H 624.91 -1.63508 1.35569 0
M  V30 6779 H 627.173 -0.768097 0.555636 0
M  V30 6780 H 626.879 -3.15569 1.5527 0
M  V30 6781 H 626.753 -3.77102 -0.085792 0
M  V30 6782 H 629.14 -2.89804 -0.556588 0
M  V30 6783 H 629.221 -2.30528 1.10862 0
M  V30 6784 H 628.865 -4.68936 1.95094 0
M  V30 6785 H 628.795 -5.25935 0.264524 0
M  V30 6786 H 631.286 -3.73237 0.591815 0
M  V30 6787 H 631.599 -7.5097 1.82385 0
M  V30 6788 H 629.944 -6.75531 1.63349 0
M  V30 6789 H 633.135 -4.6093 0.816169 0
M  V30 6790 H 633.308 -6.33184 1.37777 0
M  V30 6791 N 626.714 -0.118576 -1.57153 0
M  V30 6792 C 627.646 0.862247 -2.12363 0
M  V30 6793 C 628.659 1.23025 -1.06625 0
M  V30 6794 O 629.848 1.17927 -1.33998 0
M  V30 6795 C 626.948 2.16425 -2.60794 0
M  V30 6796 C 626.121 1.96801 -3.90626 0
M  V30 6797 C 625.18 3.10726 -4.2466 0
M  V30 6798 O 624.206 2.83659 -4.93484 0
M  V30 6799 N 625.408 4.37147 -3.81946 0
M  V30 6800 H 628.173 0.390564 -2.97144 0
M  V30 6801 H 625.734 0.0658591 -1.61766 0
M  V30 6802 H 627.726 2.91633 -2.80593 0
M  V30 6803 H 626.296 2.54943 -1.80895 0
M  V30 6804 H 625.516 1.05787 -3.7974 0
M  V30 6805 H 626.804 1.80993 -4.7552 0
M  V30 6806 H 626.202 4.62014 -3.26435 0
M  V30 6807 H 624.759 5.09229 -4.06853 0
M  V30 6808 N 628.193 1.56834 0.155195 0
M  V30 6809 C 629.604 1.72421 0.716082 0
M  V30 6810 C 629.955 0.731685 1.82046 0
M  V30 6811 O 629.08 -0.103481 2.16152 0
M  V30 6812 C 629.675 3.12629 1.30571 0
M  V30 6813 C 628.234 3.29846 1.81325 0
M  V30 6814 C 627.381 2.68359 0.698494 0
M  V30 6815 H 630.332 1.58544 -0.0703861 0
M  V30 6816 H 630.353 3.12174 2.1755 0
M  V30 6817 H 629.865 3.84844 0.501701 0
M  V30 6818 H 627.966 2.62614 2.64319 0
M  V30 6819 H 628.079 4.37727 1.9476 0
M  V30 6820 H 626.443 2.28604 1.12305 0
M  V30 6821 H 627.226 3.43171 -0.0939366 0
M  V30 6822 N 629.671 -0.424282 1.51781 0
M  V30 6823 C 630.917 -1.17434 1.6534 0
M  V30 6824 C 631.25 -1.90549 0.374806 0
M  V30 6825 O 630.525 -1.84145 -0.626179 0
M  V30 6826 C 630.808 -2.18093 2.86544 0
M  V30 6827 C 630.661 -1.48975 4.24413 0
M  V30 6828 C 631.98 -3.18934 3.03264 0
M  V30 6829 H 629.099 -0.425566 0.601716 0
M  V30 6830 H 631.741 -0.461921 1.84299 0
M  V30 6831 H 629.891 -2.78849 2.7051 0
M  V30 6832 H 631.563 -0.914551 4.52143 0
M  V30 6833 H 629.806 -0.791893 4.26511 0
M  V30 6834 H 630.477 -2.22347 5.05238 0
M  V30 6835 H 632.953 -2.68243 3.18096 0
M  V30 6836 H 631.829 -3.86645 3.89611 0
M  V30 6837 H 632.09 -3.85793 2.15908 0
M  V30 6838 N 631.149 -1.42148 -0.680565 0
M  V30 6839 C 632.397 -1.42029 -1.43779 0
M  V30 6840 C 632.718 -0.0356347 -1.94967 0
M  V30 6841 O 631.988 0.924936 -1.7269 0
M  V30 6842 H 630.568 -0.522835 -0.533529 0
M  V30 6843 H 633.23 -1.7752 -0.804538 0
M  V30 6844 H 632.326 -2.11658 -2.29363 0
M  V30 6845 N 632.627 0.916307 -1.28225 0
M  V30 6846 C 634.043 1.19425 -1.05876 0
M  V30 6847 C 634.243 2.005 0.2005 0
M  V30 6848 O 633.299 2.35806 0.902873 0
M  V30 6849 C 634.612 1.93133 -2.30478 0
M  V30 6850 C 636.16 2.06026 -2.35632 0
M  V30 6851 C 636.635 2.83141 -3.59994 0
M  V30 6852 N 638.126 2.90704 -3.60618 0
M  V30 6853 C 638.861 3.50865 -4.53521 0
M  V30 6854 N 638.357 4.12327 -5.56739 0
M  V30 6855 N 640.15 3.48379 -4.41122 0
M  V30 6856 H 632.301 0.37496 -2.09064 0
M  V30 6857 H 634.564 0.228531 -0.920042 0
M  V30 6858 H 634.27 1.40985 -3.22205 0
M  V30 6859 H 634.144 2.93696 -2.36691 0
M  V30 6860 H 636.531 2.57355 -1.44404 0
M  V30 6861 H 636.612 1.04647 -2.33415 0
M  V30 6862 H 636.256 2.32492 -4.51564 0
M  V30 6863 H 636.186 3.84829 -3.59464 0
M  V30 6864 H 638.677 2.47034 -2.85977 0
M  V30 6865 H 638.99 4.56205 -6.23776 0
M  V30 6866 H 637.335 4.10839 -5.60568 0
M  V30 6867 H 640.526 2.99572 -3.59686 0
M  V30 6868 H 640.699 3.94974 -5.13712 0
M  V30 6869 N 634.105 1.10431 1.1244 0
M  V30 6870 C 635.354 0.841539 1.83306 0
M  V30 6871 C 635.667 -0.634961 1.85007 0
M  V30 6872 O 636.873 -1.01363 2.51869 0
M  V30 6873 C 635.329 1.45565 3.29149 0
M  V30 6874 C 634.937 2.96544 3.35806 0
M  V30 6875 C 636.681 1.27227 4.04986 0
M  V30 6876 C 634.588 3.5099 4.75983 0
M  V30 6877 H 633.518 0.311156 0.686803 0
M  V30 6878 H 636.169 1.32829 1.26604 0
M  V30 6879 H 634.551 0.896574 3.85717 0
M  V30 6880 H 635.725 3.58766 2.89177 0
M  V30 6881 H 634.04 3.14036 2.73442 0
M  V30 6882 H 636.637 1.65348 5.08492 0
M  V30 6883 H 636.98 0.213834 4.1575 0
M  V30 6884 H 637.513 1.79941 3.54776 0
M  V30 6885 H 634.252 4.56499 4.70413 0
M  V30 6886 H 633.772 2.93535 5.23065 0
M  V30 6887 H 635.451 3.48808 5.44924 0
M  V30 6888 N 635.583 -1.29855 0.893053 0
M  V30 6889 C 636.83 -1.95826 0.515585 0
M  V30 6890 C 637.158 -1.70451 -0.936842 0
M  V30 6891 O 636.413 -1.00657 -1.67829 0
M  V30 6892 C 636.712 -3.49515 0.746588 0
M  V30 6893 C 636.378 -3.94955 2.17535 0
M  V30 6894 C 635.04 -4.07073 2.56603 0
M  V30 6895 C 637.392 -4.18536 3.10607 0
M  V30 6896 C 634.72 -4.40138 3.87938 0
M  V30 6897 C 637.072 -4.53073 4.41484 0
M  V30 6898 C 635.736 -4.634 4.80434 0
M  V30 6899 H 635.006 -0.71658 0.188666 0
M  V30 6900 H 637.653 -1.54574 1.13045 0
M  V30 6901 H 635.958 -3.9177 0.0487551 0
M  V30 6902 H 637.655 -3.98644 0.434009 0
M  V30 6903 H 634.245 -3.86035 1.86212 0
M  V30 6904 H 638.429 -4.08646 2.81641 0
M  V30 6905 H 633.685 -4.46335 4.17846 0
M  V30 6906 H 637.859 -4.70269 5.13634 0
M  V30 6907 H 635.486 -4.88775 5.82239 0
M  V30 6908 N 637.061 -0.65484 -1.43351 0
M  V30 6909 C 638.308 -0.168892 -2.01794 0
M  V30 6910 C 638.636 1.2177 -1.51665 0
M  V30 6911 O 637.891 1.82717 -0.70092 0
M  V30 6912 C 638.19 -0.130424 -3.57162 0
M  V30 6913 C 637.856 -1.45898 -4.26643 0
M  V30 6914 C 636.518 -1.82279 -4.4534 0
M  V30 6915 C 638.87 -2.33485 -4.65976 0
M  V30 6916 C 636.198 -3.0591 -5.00635 0
M  V30 6917 C 638.55 -3.5641 -5.22642 0
M  V30 6918 C 637.214 -3.92985 -5.39555 0
M  V30 6919 H 636.484 -0.061802 -0.738418 0
M  V30 6920 H 639.131 -0.845869 -1.71806 0
M  V30 6921 H 637.436 0.630008 -3.86702 0
M  V30 6922 H 639.133 0.262465 -4.0014 0
M  V30 6923 H 635.723 -1.16591 -4.12437 0
M  V30 6924 H 639.907 -2.06668 -4.51223 0
M  V30 6925 H 635.163 -3.34295 -5.11915 0
M  V30 6926 H 639.337 -4.24495 -5.52066 0
M  V30 6927 H 636.964 -4.88862 -5.82167 0
M  V30 6928 N 638.539 1.52521 -0.396863 0
M  V30 6929 C 639.502 2.2527 0.422604 0
M  V30 6930 C 640.502 1.27184 0.983913 0
M  V30 6931 O 641.692 1.51222 0.864723 0
M  V30 6932 C 638.824 3.01356 1.59365 0
M  V30 6933 H 640.017 2.99133 -0.214416 0
M  V30 6934 H 637.57 1.55587 -0.149128 0
M  V30 6935 H 638.305 2.31813 2.26789 0
M  V30 6936 H 638.09 3.73357 1.19779 0
M  V30 6937 H 639.58 3.56571 2.17363 0
M  V30 6938 N 640.017 0.126909 1.57088 0
M  V30 6939 C 641.265 -0.528123 1.95078 0
M  V30 6940 C 641.586 -1.66708 1.0116 0
M  V30 6941 O 640.856 -1.95777 0.0693527 0
M  V30 6942 H 639.436 -0.198087 0.720257 0
M  V30 6943 H 642.098 0.197703 1.93895 0
M  V30 6944 H 641.194 -0.917507 2.98309 0
M  V30 6945 N 641.495 -1.56914 -0.146875 0
M  V30 6946 C 642.723 -1.87515 -0.874394 0
M  V30 6947 C 643.138 -0.715116 -1.74733 0
M  V30 6948 O 642.495 0.315113 -1.79759 0
M  V30 6949 C 642.546 -3.17362 -1.731 0
M  V30 6950 O 642.267 -4.28897 -0.893245 0
M  V30 6951 C 643.768 -3.61479 -2.56609 0
M  V30 6952 H 640.988 -0.621546 -0.252827 0
M  V30 6953 H 643.532 -2.04023 -0.139627 0
M  V30 6954 H 641.687 -3.02608 -2.41883 0
M  V30 6955 H 642.101 -5.03146 -1.48137 0
M  V30 6956 H 643.575 -4.5517 -3.12289 0
M  V30 6957 H 644.052 -2.86773 -3.32653 0
M  V30 6958 H 644.658 -3.78927 -1.93117 0
M  V30 6959 N 642.974 0.416227 -1.52004 0
M  V30 6960 C 643.884 1.53147 -1.77717 0
M  V30 6961 C 644.9 1.609 -0.662368 0
M  V30 6962 O 646.076 1.77747 -0.946991 0
M  V30 6963 C 643.141 2.88948 -1.91598 0
M  V30 6964 C 642.202 2.9114 -3.15493 0
M  V30 6965 C 641.435 4.20464 -3.28703 0
M  V30 6966 O 641.658 5.13981 -2.47345 0
M  V30 6967 O 640.592 4.29368 -4.21813 0
M  V30 6968 H 644.418 1.34357 -2.72363 0
M  V30 6969 H 642.003 0.601373 -1.36762 0
M  V30 6970 H 643.885 3.69505 -2.02593 0
M  V30 6971 H 642.56 3.07821 -1.00141 0
M  V30 6972 H 641.467 2.09461 -3.09962 0
M  V30 6973 H 642.8 2.77216 -4.06709 0
M  V30 6974 N 644.452 1.42507 0.673017 0
M  V30 6975 C 645.68 1.46473 1.46128 0
M  V30 6976 C 646.095 0.0765912 1.88645 0
M  V30 6977 O 645.452 -0.909057 1.58248 0
M  V30 6978 C 645.503 2.39339 2.70923 0
M  V30 6979 O 645.224 3.72752 2.3019 0
M  V30 6980 C 646.725 2.52343 3.64469 0
M  V30 6981 H 643.945 0.49812 0.449575 0
M  V30 6982 H 646.489 1.87041 0.826802 0
M  V30 6983 H 644.644 2.02019 3.30556 0
M  V30 6984 H 645.058 4.22503 3.10791 0
M  V30 6985 H 646.532 3.2144 4.48754 0
M  V30 6986 H 647.009 1.56189 4.1049 0
M  V30 6987 H 647.615 2.90392 3.10729 0
M  V30 6988 N 645.93 -0.909495 1.28709 0
M  V30 6989 C 646.893 -1.99399 1.13016 0
M  V30 6990 C 647.893 -1.60654 0.068536 0
M  V30 6991 O 649.083 -1.71334 0.314671 0
M  V30 6992 C 646.215 -3.33078 0.726085 0
M  V30 6993 H 647.408 -2.14751 2.09338 0
M  V30 6994 H 644.961 -1.09272 1.11756 0
M  V30 6995 H 645.696 -3.23428 -0.23771 0
M  V30 6996 H 645.481 -3.62562 1.49302 0
M  V30 6997 H 646.971 -4.12681 0.639058 0
M  V30 6998 N 647.408 -1.11026 -1.11852 0
M  V30 6999 C 648.636 -0.878818 -1.87308 0
M  V30 7000 C 649.051 0.57111 -1.79955 0
M  V30 7001 O 648.408 1.39409 -1.17777 0
M  V30 7002 C 648.459 -1.3264 -3.36287 0
M  V30 7003 O 648.18 -2.71948 -3.43476 0
M  V30 7004 C 649.681 -1.12974 -4.28663 0
M  V30 7005 H 646.901 -0.315015 -0.592458 0
M  V30 7006 H 649.445 -1.47649 -1.41492 0
M  V30 7007 H 647.6 -0.772269 -3.79625 0
M  V30 7008 H 648.014 -2.91241 -4.3621 0
M  V30 7009 H 649.488 -1.49198 -5.31454 0
M  V30 7010 H 649.965 -0.0689127 -4.39146 0
M  V30 7011 H 650.571 -1.67064 -3.91113 0
M  V30 7012 N 648.886 1.2938 -0.899927 0
M  V30 7013 C 649.833 2.27713 -0.376243 0
M  V30 7014 C 650.803 1.57016 0.541774 0
M  V30 7015 O 651.988 1.84997 0.466966 0
M  V30 7016 C 649.128 3.42889 0.39 0
M  V30 7017 C 648.241 4.28369 -0.558938 0
M  V30 7018 C 647.376 5.30726 0.224379 0
M  V30 7019 C 646.415 6.07862 -0.719068 0
M  V30 7020 N 645.552 7.02094 0.0298569 0
M  V30 7021 H 650.392 2.71888 -1.21988 0
M  V30 7022 H 647.929 1.33724 -0.612879 0
M  V30 7023 H 649.887 4.08443 0.850314 0
M  V30 7024 H 648.517 2.99743 1.19809 0
M  V30 7025 H 647.569 3.62986 -1.13777 0
M  V30 7026 H 648.881 4.82068 -1.2811 0
M  V30 7027 H 648.035 6.02098 0.745881 0
M  V30 7028 H 646.774 4.77759 0.979674 0
M  V30 7029 H 645.779 5.35353 -1.25207 0
M  V30 7030 H 647.004 6.62917 -1.4737 0
M  V30 7031 H 644.95 6.51496 0.767415 0
M  V30 7032 H 644.867 7.5335 -0.632391 0
M  V30 7033 H 646.135 7.77685 0.531615 0
M  V30 7034 N 650.364 0.662433 1.43002 0
M  V30 7035 C 651.61 0.188492 2.02525 0
M  V30 7036 C 651.965 -1.18752 1.51379 0
M  V30 7037 O 651.258 -1.78313 0.701065 0
M  V30 7038 C 651.452 0.149363 3.57088 0
M  V30 7039 C 651.281 1.52004 4.23231 0
M  V30 7040 C 650.051 2.11473 4.5892 0
M  V30 7041 C 652.249 2.46028 4.51635 0
M  V30 7042 N 650.231 3.4145 5.10181 0
M  V30 7043 C 651.602 3.60647 5.04315 0
M  V30 7044 C 653.657 2.44715 4.33612 0
M  V30 7045 C 652.36 4.74189 5.40867 0
M  V30 7046 C 654.386 3.57344 4.71232 0
M  V30 7047 C 653.748 4.70689 5.24053 0
M  V30 7048 H 649.847 0.113615 0.773703 0
M  V30 7049 H 652.431 0.872738 1.74044 0
M  V30 7050 H 650.602 -0.504255 3.85113 0
M  V30 7051 H 652.334 -0.336307 4.033 0
M  V30 7052 H 649.089 1.64087 4.44266 0
M  V30 7053 H 649.513 4.07987 5.40255 0
M  V30 7054 H 654.155 1.58318 3.9204 0
M  V30 7055 H 651.873 5.61271 5.81378 0
M  V30 7056 H 655.459 3.5754 4.58973 0
M  V30 7057 H 654.339 5.56398 5.52621 0
M  V30 7058 N 651.842 -1.52309 0.404946 0
M  V30 7059 C 653.067 -2.06666 -0.1743 0
M  V30 7060 C 653.492 -1.27341 -1.38441 0
M  V30 7061 O 652.85 -0.302539 -1.78758 0
M  V30 7062 C 652.898 -3.57014 -0.507262 0
M  V30 7063 O 652.002 -3.80144 -1.59889 0
M  V30 7064 H 651.343 -0.663807 -0.0160273 0
M  V30 7065 H 653.873 -1.96297 0.576937 0
M  V30 7066 H 653.883 -4.00724 -0.767098 0
M  V30 7067 H 652.558 -4.14184 0.377368 0
M  V30 7068 H 651.135 -3.48316 -1.33155 0
M  V30 7069 N 653.32 -0.135238 -1.57019 0
M  V30 7070 C 654.568 0.51777 -1.95355 0
M  V30 7071 C 654.889 1.6617 -1.02042 0
M  V30 7072 O 654.159 1.95738 -0.0797343 0
M  V30 7073 H 652.739 0.194264 -0.721298 0
M  V30 7074 H 655.401 -0.207983 -1.93787 0
M  V30 7075 H 654.497 0.901675 -2.98791 0
M  V30 7076 N 654.798 1.5699 0.138552 0
M  V30 7077 C 656.028 1.87704 0.863184 0
M  V30 7078 C 656.436 0.722411 1.74865 0
M  V30 7079 O 655.779 -0.316636 1.80951 0
M  V30 7080 C 655.841 3.13219 1.76449 0
M  V30 7081 C 655.505 4.44648 1.05532 0
M  V30 7082 C 656.502 5.18318 0.405252 0
M  V30 7083 C 654.187 4.91367 1.04231 0
M  V30 7084 C 656.181 6.36916 -0.24835 0
M  V30 7085 C 653.868 6.09887 0.384904 0
M  V30 7086 C 654.866 6.82508 -0.259292 0
M  V30 7087 O 654.554 7.98775 -0.906258 0
M  V30 7088 H 654.286 0.626255 0.254521 0
M  V30 7089 H 656.84 2.04966 0.133472 0
M  V30 7090 H 655.07 2.91988 2.53535 0
M  V30 7091 H 656.759 3.30111 2.36181 0
M  V30 7092 H 657.525 4.83289 0.407053 0
M  V30 7093 H 653.404 4.34759 1.53315 0
M  V30 7094 H 656.948 6.93538 -0.751755 0
M  V30 7095 H 652.845 6.44376 0.380799 0
M  V30 7096 H 653.613 8.14494 -0.80877 0
M  V30 7097 N 656.276 -0.40816 1.52223 0
M  V30 7098 C 657.209 -1.51834 1.70357 0
M  V30 7099 C 658.187 -1.52973 0.551171 0
M  V30 7100 O 659.371 -1.71667 0.778642 0
M  V30 7101 C 656.498 -2.90362 1.74378 0
M  V30 7102 C 655.544 -3.0713 2.95928 0
M  V30 7103 S 656.377 -2.80342 4.56255 0
M  V30 7104 C 657.533 -4.21098 4.63063 0
M  V30 7105 H 657.766 -1.36223 2.64255 0
M  V30 7106 H 655.299 -0.599798 1.42274 0
M  V30 7107 H 657.257 -3.70199 1.77379 0
M  V30 7108 H 655.918 -3.03314 0.816063 0
M  V30 7109 H 655.111 -4.08482 2.95226 0
M  V30 7110 H 654.713 -2.3516 2.90819 0
M  V30 7111 H 657.005 -5.14749 4.40499 0
M  V30 7112 H 657.948 -4.26823 5.65002 0
M  V30 7113 H 658.356 -4.06114 3.92086 0
M  V30 7114 N 657.755 -1.42862 -0.66545 0
M  V30 7115 C 658.665 -1.49491 -1.80803 0
M  V30 7116 C 659.681 -0.382914 -1.69734 0
M  V30 7117 O 660.857 -0.635223 -1.9112 0
M  V30 7118 C 657.922 -1.40383 -3.17007 0
M  V30 7119 C 656.983 -2.62152 -3.39963 0
M  V30 7120 C 656.216 -2.53469 -4.69669 0
M  V30 7121 O 656.439 -1.57568 -5.48205 0
M  V30 7122 O 655.373 -3.43763 -4.94075 0
M  V30 7123 H 659.199 -2.45949 -1.78165 0
M  V30 7124 H 656.784 -1.24728 -0.822387 0
M  V30 7125 H 658.666 -1.377 -3.98267 0
M  V30 7126 H 657.341 -0.470546 -3.20262 0
M  V30 7127 H 656.248 -2.70409 -2.58515 0
M  V30 7128 H 657.581 -3.54411 -3.41546 0
M  V30 7129 N 659.233 0.902656 -1.29189 0
M  V30 7130 C 660.481 1.6496 -1.16758 0
M  V30 7131 C 660.802 1.92952 0.28188 0
M  V30 7132 O 660.072 1.55351 1.19344 0
M  V30 7133 H 658.652 0.611447 -0.429118 0
M  V30 7134 H 661.314 1.0825 -1.62074 0
M  V30 7135 H 660.41 2.60728 -1.71544 0
M  V30 7136 N 660.711 1.11618 1.11262 0
M  V30 7137 C 661.674 0.779447 2.15539 0
M  V30 7138 C 662.674 -0.202081 1.59525 0
M  V30 7139 O 663.864 0.0226356 1.74185 0
M  V30 7140 C 660.996 0.15674 3.40539 0
M  V30 7141 H 662.189 1.70324 2.4684 0
M  V30 7142 H 659.742 0.918298 1.26479 0
M  V30 7143 H 660.477 -0.777186 3.1485 0
M  V30 7144 H 660.262 0.863308 3.82478 0
M  V30 7145 H 661.752 -0.062661 4.17553 0
M  V30 7146 N 662.189 -1.289 0.906776 0
M  V30 7147 C 663.435 -1.95558 0.53712 0
M  V30 7148 C 663.768 -1.71262 -0.915582 0
M  V30 7149 O 663.043 -1.02961 -1.65013 0
M  V30 7150 C 663.326 -3.50198 0.838645 0
M  V30 7151 C 663.179 -3.83923 2.34357 0
M  V30 7152 C 664.498 -4.38861 0.329988 0
M  V30 7153 H 661.617 -0.710289 0.196617 0
M  V30 7154 H 664.259 -1.52392 1.13475 0
M  V30 7155 H 662.409 -3.87096 0.330024 0
M  V30 7156 H 664.081 -3.56933 2.92227 0
M  V30 7157 H 662.324 -3.31215 2.80141 0
M  V30 7158 H 662.995 -4.91883 2.5051 0
M  V30 7159 H 665.471 -4.08996 0.765609 0
M  V30 7160 H 664.347 -5.45931 0.570105 0
M  V30 7161 H 664.608 -4.35352 -0.769511 0
M  V30 7162 N 663.667 -0.670007 -1.42649 0
M  V30 7163 C 664.577 0.0114788 -2.34597 0
M  V30 7164 C 665.593 0.794055 -1.54825 0
M  V30 7165 O 666.769 0.737472 -1.87412 0
M  V30 7166 C 663.834 0.954436 -3.33304 0
M  V30 7167 C 662.895 0.166925 -4.28975 0
M  V30 7168 C 662.128 1.06497 -5.22967 0
M  V30 7169 O 662.351 2.30446 -5.21777 0
M  V30 7170 O 661.285 0.528347 -5.99577 0
M  V30 7171 H 665.111 -0.745794 -2.944 0
M  V30 7172 H 662.696 -0.430228 -1.43071 0
M  V30 7173 H 664.578 1.49589 -3.93956 0
M  V30 7174 H 663.253 1.69164 -2.7598 0
M  V30 7175 H 662.16 -0.418515 -3.71752 0
M  V30 7176 H 663.493 -0.531067 -4.89327 0
M  V30 7177 N 665.145 1.52092 -0.413018 0
M  V30 7178 C 666.108 2.25706 0.398687 0
M  V30 7179 C 667.108 1.28221 0.970368 0
M  V30 7180 O 668.298 1.52131 0.848635 0
M  V30 7181 C 665.43 3.03029 1.5616 0
M  V30 7182 H 666.623 2.98888 -0.246131 0
M  V30 7183 H 664.176 1.5542 -0.165622 0
M  V30 7184 H 664.911 2.34205 2.24317 0
M  V30 7185 H 664.696 3.74606 1.15812 0
M  V30 7186 H 666.186 3.58857 2.13569 0
M  V30 7187 N 666.623 0.143563 1.56945 0
M  V30 7188 C 667.871 -0.507402 1.95627 0
M  V30 7189 C 668.192 -1.65626 1.02922 0
M  V30 7190 O 667.462 -1.95693 0.0901136 0
M  V30 7191 H 666.042 -0.190436 0.722318 0
M  V30 7192 H 668.704 0.218257 1.93674 0
M  V30 7193 H 667.8 -0.885816 2.99265 0
M  V30 7194 N 668.101 -1.57061 -0.130224 0
M  V30 7195 C 669.011 -2.02802 -1.17934 0
M  V30 7196 C 670.027 -0.946378 -1.46013 0
M  V30 7197 O 671.203 -1.25708 -1.57351 0
M  V30 7198 C 668.268 -2.41368 -2.48882 0
M  V30 7199 C 667.329 -3.63561 -2.28301 0
M  V30 7200 C 666.562 -4.00279 -3.53005 0
M  V30 7201 O 666.785 -3.37463 -4.59864 0
M  V30 7202 O 665.719 -4.93441 -3.44673 0
M  V30 7203 H 669.545 -2.92394 -0.820958 0
M  V30 7204 H 667.13 -1.45475 -0.340197 0
M  V30 7205 H 669.012 -2.66958 -3.26054 0
M  V30 7206 H 667.687 -1.54926 -2.84217 0
M  V30 7207 H 666.594 -3.43136 -1.49025 0
M  V30 7208 H 667.927 -4.50673 -1.97875 0
M  V30 7209 N 669.579 0.400081 -1.52437 0
M  V30 7210 C 670.995 0.739359 -1.41441 0
M  V30 7211 C 671.195 1.94512 -0.526053 0
M  V30 7212 O 670.251 2.525 0.00472502 0
M  V30 7213 C 671.564 0.984824 -2.84116 0
M  V30 7214 C 673.112 1.08698 -2.93519 0
M  V30 7215 C 673.587 1.36515 -4.37181 0
M  V30 7216 N 675.078 1.43361 -4.40457 0
M  V30 7217 C 675.813 1.66528 -5.48686 0
M  V30 7218 N 675.309 1.87239 -6.67018 0
M  V30 7219 N 677.102 1.68617 -5.36213 0
M  V30 7220 H 669.253 -0.393484 -2.08723 0
M  V30 7221 H 671.516 -0.1138 -0.941145 0
M  V30 7222 H 671.222 0.171096 -3.51284 0
M  V30 7223 H 671.096 1.90253 -3.25705 0
M  V30 7224 H 673.483 1.89129 -2.26526 0
M  V30 7225 H 673.564 0.147432 -2.55375 0
M  V30 7226 H 673.208 0.565982 -5.04737 0
M  V30 7227 H 673.138 2.31737 -4.7287 0
M  V30 7228 H 675.629 1.29108 -3.55161 0
M  V30 7229 H 675.942 2.04392 -7.45281 0
M  V30 7230 H 674.287 1.84486 -6.70067 0
M  V30 7231 H 677.478 1.5198 -4.42741 0
M  V30 7232 H 677.651 1.86332 -6.20632 0
M  V30 7233 N 671.057 1.43213 0.657864 0
M  V30 7234 C 672.02 1.47687 1.75275 0
M  V30 7235 C 673.02 0.362179 1.56668 0
M  V30 7236 O 674.21 0.623734 1.62651 0
M  V30 7237 C 671.342 1.32497 3.14098 0
M  V30 7238 H 672.535 2.4519 1.7269 0
M  V30 7239 H 670.088 1.2991 0.869087 0
M  V30 7240 H 670.823 0.359831 3.22298 0
M  V30 7241 H 670.608 2.13299 3.29008 0
M  V30 7242 H 672.098 1.38549 3.93946 0
M  V30 7243 N 672.536 -0.895792 1.29666 0
M  V30 7244 C 673.499 -1.98189 1.15124 0
M  V30 7245 C 674.499 -1.60572 0.0855717 0
M  V30 7246 O 675.689 -1.70991 0.332826 0
M  V30 7247 C 672.821 -3.32289 0.761372 0
M  V30 7248 H 674.014 -2.12518 2.11603 0
M  V30 7249 H 671.567 -1.0808 1.12908 0
M  V30 7250 H 672.302 -3.23662 -0.203393 0
M  V30 7251 H 672.087 -3.60958 1.53139 0
M  V30 7252 H 673.577 -4.1198 0.682792 0
M  V30 7253 N 674.014 -1.12206 -1.10668 0
M  V30 7254 C 675.43 -0.857619 -1.346 0
M  V30 7255 C 675.63 0.513542 -1.94846 0
M  V30 7256 O 674.686 1.26273 -2.18658 0
M  V30 7257 C 675.999 -1.97212 -2.26998 0
M  V30 7258 C 677.547 -2.00272 -2.40542 0
M  V30 7259 C 678.022 -3.10948 -3.36267 0
M  V30 7260 N 679.513 -3.10375 -3.43834 0
M  V30 7261 C 680.248 -3.92651 -4.17867 0
M  V30 7262 N 679.744 -4.84911 -4.94807 0
M  V30 7263 N 681.537 -3.80798 -4.1346 0
M  V30 7264 H 673.688 -2.00558 -0.699306 0
M  V30 7265 H 675.951 -0.872612 -0.370477 0
M  V30 7266 H 675.657 -2.96002 -1.89936 0
M  V30 7267 H 675.531 -1.87521 -3.27286 0
M  V30 7268 H 677.918 -1.02103 -2.76874 0
M  V30 7269 H 677.999 -2.14037 -1.40077 0
M  V30 7270 H 677.643 -4.09348 -3.00661 0
M  V30 7271 H 677.573 -2.94421 -4.36605 0
M  V30 7272 H 680.064 -2.43536 -2.88961 0
M  V30 7273 H 680.377 -5.44207 -5.48688 0
M  V30 7274 H 678.722 -4.88926 -4.93939 0
M  V30 7275 H 681.913 -3.08058 -3.52445 0
M  V30 7276 H 682.086 -4.4515 -4.70898 0
M  V30 7277 N 675.492 1.28418 -0.913599 0
M  V30 7278 C 676.402 2.31043 -0.406965 0
M  V30 7279 C 677.418 1.66501 0.505298 0
M  V30 7280 O 678.594 1.97558 0.391522 0
M  V30 7281 C 675.659 3.4498 0.344901 0
M  V30 7282 C 674.72 4.25078 -0.600563 0
M  V30 7283 C 673.953 5.33575 0.115516 0
M  V30 7284 O 674.176 5.54503 1.33727 0
M  V30 7285 O 673.11 5.9939 -0.549095 0
M  V30 7286 H 676.936 2.76387 -1.25873 0
M  V30 7287 H 674.521 1.33109 -0.678415 0
M  V30 7288 H 676.403 4.14314 0.769542 0
M  V30 7289 H 675.078 3.01719 1.1725 0
M  V30 7290 H 673.985 3.58334 -1.0746 0
M  V30 7291 H 675.318 4.72018 -1.39497 0
M  V30 7292 N 676.97 0.677563 1.42291 0
M  V30 7293 C 678.216 0.201272 2.01799 0
M  V30 7294 C 678.549 -1.19004 1.53465 0
M  V30 7295 O 677.824 -1.79953 0.738039 0
M  V30 7296 C 678.107 0.238968 3.59306 0
M  V30 7297 C 677.96 1.66594 4.17812 0
M  V30 7298 C 679.279 -0.411287 4.38174 0
M  V30 7299 H 676.398 0.0746114 0.733214 0
M  V30 7300 H 679.04 0.862872 1.69276 0
M  V30 7301 H 677.19 -0.324368 3.87144 0
M  V30 7302 H 678.862 2.28173 4.00917 0
M  V30 7303 H 677.105 2.20576 3.73536 0
M  V30 7304 H 677.776 1.64398 5.26951 0
M  V30 7305 H 680.252 0.0682804 4.16044 0
M  V30 7306 H 679.128 -0.354286 5.47755 0
M  V30 7307 H 679.389 -1.4893 4.1626 0
M  V30 7308 N 678.448 -1.51871 0.421078 0
M  V30 7309 C 679.378 -2.30231 -0.389363 0
M  V30 7310 C 680.359 -1.34946 -1.03555 0
M  V30 7311 O 681.544 -1.63859 -1.04229 0
M  V30 7312 C 678.674 -3.13247 -1.49979 0
M  V30 7313 C 677.628 -4.16677 -0.977966 0
M  V30 7314 C 676.954 -4.88112 -2.1829 0
M  V30 7315 C 678.254 -5.22295 -0.0236775 0
M  V30 7316 H 679.948 -2.98229 0.264524 0
M  V30 7317 H 677.494 -1.43424 0.12866 0
M  V30 7318 H 679.447 -3.66838 -2.07383 0
M  V30 7319 H 678.171 -2.4304 -2.18173 0
M  V30 7320 H 676.83 -3.64114 -0.426245 0
M  V30 7321 H 676.478 -4.14423 -2.85066 0
M  V30 7322 H 676.178 -5.58041 -1.84021 0
M  V30 7323 H 677.702 -5.44521 -2.76278 0
M  V30 7324 H 679.116 -5.71055 -0.506899 0
M  V30 7325 H 677.513 -5.99656 0.230782 0
M  V30 7326 H 678.583 -4.76131 0.917999 0
M  V30 7327 N 679.926 -0.151884 -1.56866 0
M  V30 7328 C 680.874 0.80299 -2.183 0
M  V30 7329 C 681.868 1.25174 -1.14139 0
M  V30 7330 O 683.074 1.21966 -1.3238 0
M  V30 7331 H 679.449 0.277169 -0.699057 0
M  V30 7332 H 681.42 0.260699 -2.97259 0
M  V30 7333 C 680.169 2.03009 -2.82281 0
M  V30 7334 H 679.492 1.69377 -3.62148 0
M  V30 7335 H 680.932 2.67753 -3.28762 0
M  V30 7336 C 679.391 2.84123 -1.81041 0
M  V30 7337 O 679.921 3.8063 -1.28388 0
M  V30 7338 N 678.127 2.48753 -1.50234 0
M  V30 7339 H 677.674 1.70337 -1.93244 0
M  V30 7340 H 677.632 3.03316 -0.827445 0
M  V30 7341 N 681.404 1.57128 0.121893 0
M  V30 7342 C 682.652 1.84335 0.828548 0
M  V30 7343 C 682.973 0.736632 1.80551 0
M  V30 7344 O 682.243 -0.23962 1.94429 0
M  V30 7345 H 680.823 0.680108 0.30897 0
M  V30 7346 H 683.485 1.9459 0.109906 0
M  V30 7347 H 682.581 2.80152 1.37554 0
M  V30 7348 N 682.882 -0.391992 1.52647 0
M  V30 7349 C 683.812 -1.48517 1.8018 0
M  V30 7350 C 684.793 -1.57039 0.653667 0
M  V30 7351 O 685.978 -1.72036 0.900962 0
M  V30 7352 C 683.108 -2.86161 1.96797 0
M  V30 7353 C 682.062 -2.92481 3.12472 0
M  V30 7354 C 681.388 -4.32546 3.14338 0
M  V30 7355 C 682.688 -2.624 4.51601 0
M  V30 7356 H 684.382 -1.25726 2.71723 0
M  V30 7357 H 681.928 -0.603387 1.30749 0
M  V30 7358 H 683.881 -3.62639 2.14641 0
M  V30 7359 H 682.605 -3.10283 1.01941 0
M  V30 7360 H 681.264 -2.18451 2.94406 0
M  V30 7361 H 680.912 -4.53703 2.1717 0
M  V30 7362 H 680.612 -4.37695 3.92042 0
M  V30 7363 H 682.136 -5.10934 3.34333 0
M  V30 7364 H 683.55 -3.28596 4.69785 0
M  V30 7365 H 681.947 -2.78903 5.3135 0
M  V30 7366 H 683.017 -1.57754 4.58521 0
M  V30 7367 N 684.36 -1.4356 -0.65026 0
M  V30 7368 C 685.608 -1.45046 -1.40734 0
M  V30 7369 C 685.929 -0.0769822 -1.94848 0
M  V30 7370 O 685.199 0.888098 -1.74613 0
M  V30 7371 H 683.779 -0.534034 -0.522318 0
M  V30 7372 H 686.441 -1.79186 -0.766703 0
M  V30 7373 H 685.537 -2.16476 -2.24822 0
M  V30 7374 N 685.838 0.888903 -1.30139 0
M  V30 7375 C 686.785 1.99422 -1.16188 0
M  V30 7376 C 687.755 1.66017 -0.0523869 0
M  V30 7377 O 688.94 1.89506 -0.221864 0
M  V30 7378 C 686.08 3.34325 -0.855612 0
M  V30 7379 C 685.193 3.80445 -2.0466 0
M  V30 7380 C 684.328 5.03975 -1.67876 0
M  V30 7381 C 683.367 5.42492 -2.83493 0
M  V30 7382 N 682.504 6.57206 -2.47032 0
M  V30 7383 H 687.344 2.10687 -2.10749 0
M  V30 7384 H 684.881 1.03165 -1.04859 0
M  V30 7385 H 686.839 4.11968 -0.658681 0
M  V30 7386 H 685.469 3.22756 0.0531155 0
M  V30 7387 H 684.521 2.98745 -2.3549 0
M  V30 7388 H 685.833 4.04933 -2.91257 0
M  V30 7389 H 684.987 5.89232 -1.44535 0
M  V30 7390 H 683.726 4.8135 -0.784431 0
M  V30 7391 H 682.731 4.55764 -3.07505 0
M  V30 7392 H 683.956 5.67093 -3.73607 0
M  V30 7393 H 681.902 6.36164 -1.601 0
M  V30 7394 H 681.819 6.81543 -3.27161 0
M  V30 7395 H 683.087 7.45704 -2.27038 0
M  V30 7396 N 687.317 1.12792 1.10072 0
M  V30 7397 C 688.563 0.886857 1.82381 0
M  V30 7398 C 688.896 -0.58576 1.85155 0
M  V30 7399 O 688.171 -1.43317 1.31493 0
M  V30 7400 C 688.454 1.46703 3.28862 0
M  V30 7401 C 688.307 3.00829 3.34398 0
M  V30 7402 C 689.626 1.12971 4.25353 0
M  V30 7403 H 686.745 0.32362 0.662148 0
M  V30 7404 H 689.387 1.39513 1.28982 0
M  V30 7405 H 687.537 1.03476 3.74466 0
M  V30 7406 H 689.209 3.52764 2.97247 0
M  V30 7407 H 687.452 3.36164 2.74183 0
M  V30 7408 H 688.123 3.36519 4.3756 0
M  V30 7409 H 690.599 1.50313 3.88001 0
M  V30 7410 H 689.475 1.56223 5.26199 0
M  V30 7411 H 689.736 0.0424452 4.4208 0
M  V30 7412 N 688.795 -1.27931 0.920396 0
M  V30 7413 C 690.023 -1.98805 0.573087 0
M  V30 7414 C 690.438 -1.68724 -0.847201 0
M  V30 7415 O 689.795 -0.943699 -1.56207 0
M  V30 7416 C 689.846 -3.52971 0.780633 0
M  V30 7417 O 689.567 -3.81994 2.14504 0
M  V30 7418 C 691.068 -4.411 0.44105 0
M  V30 7419 H 688.288 -0.634651 0.21785 0
M  V30 7420 H 690.832 -1.62965 1.23542 0
M  V30 7421 H 688.987 -3.87048 0.165204 0
M  V30 7422 H 689.401 -4.76609 2.18962 0
M  V30 7423 H 690.875 -5.48312 0.637006 0
M  V30 7424 H 691.352 -4.34758 -0.62306 0
M  V30 7425 H 691.958 -4.12532 1.0343 0
M  V30 7426 N 690.273 -0.685099 -1.4193 0
M  V30 7427 C 691.183 -0.013404 -2.34596 0
M  V30 7428 C 692.199 0.777589 -1.55658 0
M  V30 7429 O 693.375 0.717553 -1.88184 0
M  V30 7430 C 690.44 0.919031 -3.34297 0
M  V30 7431 C 689.501 0.121417 -4.29128 0
M  V30 7432 C 688.734 1.00944 -5.24067 0
M  V30 7433 O 688.957 2.24898 -5.24192 0
M  V30 7434 O 687.891 0.464724 -6.00103 0
M  V30 7435 H 691.717 -0.776978 -2.93593 0
M  V30 7436 H 689.302 -0.445379 -1.42607 0
M  V30 7437 H 691.184 1.45402 -3.9552 0
M  V30 7438 H 689.859 1.66228 -2.77759 0
M  V30 7439 H 688.766 -0.45792 -3.71287 0
M  V30 7440 H 690.099 -0.582937 -4.88736 0
M  V30 7441 N 691.751 1.51645 -0.429126 0
M  V30 7442 C 692.698 2.27542 0.386446 0
M  V30 7443 C 693.668 1.30786 1.02393 0
M  V30 7444 O 694.853 1.59678 1.0444 0
M  V30 7445 C 691.993 3.11457 1.48623 0
M  V30 7446 C 691.106 4.23196 0.867691 0
M  V30 7447 C 690.241 4.94435 1.94183 0
M  V30 7448 C 689.28 5.98108 1.30129 0
M  V30 7449 N 688.417 6.62786 2.31644 0
M  V30 7450 H 693.257 2.968 -0.267155 0
M  V30 7451 H 690.794 1.46397 -0.143591 0
M  V30 7452 H 692.752 3.58429 2.13506 0
M  V30 7453 H 691.382 2.44329 2.10957 0
M  V30 7454 H 690.434 3.80248 0.107373 0
M  V30 7455 H 691.746 4.97499 0.35997 0
M  V30 7456 H 690.9 5.44914 2.66747 0
M  V30 7457 H 689.639 4.19744 2.48326 0
M  V30 7458 H 688.644 5.4693 0.561082 0
M  V30 7459 H 689.869 6.74751 0.767303 0
M  V30 7460 H 687.815 5.90913 2.84883 0
M  V30 7461 H 687.732 7.32828 1.85741 0
M  V30 7462 H 689 7.17897 3.03717 0
M  V30 7463 N 693.229 0.160201 1.56784 0
M  V30 7464 C 694.506 -0.533355 1.88188 0
M  V30 7465 C 694.886 -1.82072 1.06831 0
M  V30 7466 O 694.234 -2.27946 0.158959 0
M  V30 7467 C 694.444 -0.786034 3.40033 0
M  V30 7468 C 695.792 -1.12097 4.09536 0
M  V30 7469 O 696.816 -0.874949 3.45287 0
M  V30 7470 O 695.675 -1.58457 5.23023 0
M  V30 7471 H 692.769 -0.273589 0.780434 0
M  V30 7472 H 695.315 0.197803 1.68543 0
M  V30 7473 H 694.087 0.124515 3.91102 0
M  V30 7474 H 693.71 -1.57091 3.65251 0
M  V30 7475 N 694.707 -1.5719 -0.113559 0
M  V30 7476 C 695.956 -1.84325 -0.818984 0
M  V30 7477 C 696.269 -0.746685 -1.80787 0
M  V30 7478 O 697.475 -0.904596 -2.55987 0
M  V30 7479 C 695.931 -3.26818 -1.50724 0
M  V30 7480 C 695.539 -4.44498 -0.559065 0
M  V30 7481 C 697.283 -3.63196 -2.19748 0
M  V30 7482 C 695.19 -5.7802 -1.25086 0
M  V30 7483 H 694.12 -0.687507 -0.309596 0
M  V30 7484 H 696.771 -1.8336 -0.0717621 0
M  V30 7485 H 695.153 -3.22269 -2.30128 0
M  V30 7486 H 696.327 -4.60356 0.202146 0
M  V30 7487 H 694.642 -4.16393 0.024495 0
M  V30 7488 H 697.239 -4.60226 -2.72206 0
M  V30 7489 H 697.582 -2.90899 -2.97798 0
M  V30 7490 H 698.115 -3.69553 -1.47226 0
M  V30 7491 H 694.854 -6.53501 -0.511539 0
M  V30 7492 H 694.374 -5.66038 -1.98395 0
M  V30 7493 H 696.053 -6.2196 -1.78253 0
M  V30 7494 N 696.185 0.383891 -1.52853 0
M  V30 7495 C 697.431 1.12667 -1.69345 0
M  V30 7496 C 697.786 1.87519 -0.430635 0
M  V30 7497 O 697.079 1.82742 0.575846 0
M  V30 7498 C 697.273 2.12881 -2.87082 0
M  V30 7499 C 697.102 1.47873 -4.24692 0
M  V30 7500 C 695.872 1.24064 -4.89833 0
M  V30 7501 C 698.07 0.926118 -5.05893 0
M  V30 7502 N 696.052 0.552138 -6.11412 0
M  V30 7503 C 697.423 0.365966 -6.18919 0
M  V30 7504 C 699.478 0.823023 -4.91051 0
M  V30 7505 C 698.181 -0.287204 -7.18726 0
M  V30 7506 C 700.207 0.183666 -5.91115 0
M  V30 7507 C 699.569 -0.365693 -7.0345 0
M  V30 7508 H 695.668 0.398064 -0.673104 0
M  V30 7509 H 698.252 0.415504 -1.90215 0
M  V30 7510 H 696.423 2.81329 -2.67784 0
M  V30 7511 H 698.155 2.79703 -2.92486 0
M  V30 7512 H 694.91 1.51701 -4.48647 0
M  V30 7513 H 695.334 0.223783 -6.7663 0
M  V30 7514 H 699.976 1.23354 -4.04405 0
M  V30 7515 H 697.694 -0.709719 -8.04977 0
M  V30 7516 H 701.28 0.105074 -5.81705 0
M  V30 7517 H 700.16 -0.85261 -7.79551 0
M  V30 7518 N 697.663 1.43903 0.642637 0
M  V30 7519 C 698.909 1.46296 1.40447 0
M  V30 7520 C 699.242 0.0908361 1.93987 0
M  V30 7521 O 698.517 -0.889884 1.72949 0
M  V30 7522 C 698.8 2.51399 2.57819 0
M  V30 7523 C 698.653 3.97926 2.09702 0
M  V30 7524 C 699.972 2.53125 3.60022 0
M  V30 7525 H 697.091 0.532676 0.509338 0
M  V30 7526 H 699.733 1.75515 0.727635 0
M  V30 7527 H 697.883 2.26614 3.1556 0
M  V30 7528 H 699.555 4.33804 1.5688 0
M  V30 7529 H 697.798 4.10252 1.40982 0
M  V30 7530 H 698.469 4.67096 2.94152 0
M  V30 7531 H 700.945 2.75242 3.12059 0
M  V30 7532 H 699.821 3.28589 4.39682 0
M  V30 7533 H 700.082 1.56895 4.13324 0
M  V30 7534 N 699.141 -0.881989 1.30609 0
M  V30 7535 C 700.073 -1.99375 1.13058 0
M  V30 7536 C 701.086 -1.62636 0.0729879 0
M  V30 7537 O 702.275 -1.75621 0.319301 0
M  V30 7538 C 699.375 -3.31536 0.702651 0
M  V30 7539 C 698.548 -3.96693 1.84265 0
M  V30 7540 C 697.607 -5.07158 1.40277 0
M  V30 7541 O 696.633 -5.28628 2.11048 0
M  V30 7542 N 697.835 -5.79808 0.283449 0
M  V30 7543 H 700.6 -2.14981 2.08814 0
M  V30 7544 H 698.161 -1.05526 1.22784 0
M  V30 7545 H 700.153 -4.02804 0.391331 0
M  V30 7546 H 698.723 -3.12175 -0.162954 0
M  V30 7547 H 697.943 -3.1856 2.32192 0
M  V30 7548 H 699.231 -4.36964 2.60653 0
M  V30 7549 H 698.629 -5.64871 -0.306189 0
M  V30 7550 H 697.186 -6.51792 0.0315985 0
M  V30 7551 N 700.619 -1.13374 -1.09472 0
M  V30 7552 C 701.529 -0.824029 -2.19652 0
M  V30 7553 C 702.545 0.19118 -1.72947 0
M  V30 7554 O 703.721 0.0223464 -2.01388 0
M  V30 7555 C 700.786 -0.294009 -3.45451 0
M  V30 7556 C 699.847 -1.3704 -4.0684 0
M  V30 7557 C 699.08 -0.86558 -5.26634 0
M  V30 7558 O 699.303 0.29702 -5.69626 0
M  V30 7559 O 698.237 -1.63968 -5.79136 0
M  V30 7560 H 702.063 -1.74454 -2.48595 0
M  V30 7561 H 699.648 -0.911155 -1.18399 0
M  V30 7562 H 701.53 -0.00381039 -4.214 0
M  V30 7563 H 700.205 0.598921 -3.18111 0
M  V30 7564 H 699.112 -1.71391 -3.3253 0
M  V30 7565 H 700.445 -2.23746 -4.38405 0
M  V30 7566 N 702.098 1.27442 -0.927168 0
M  V30 7567 C 703.509 1.76385 -0.611979 0
M  V30 7568 C 703.86 1.75715 0.872853 0
M  V30 7569 O 702.985 1.3603 1.683 0
M  V30 7570 C 703.58 3.20303 -1.10414 0
M  V30 7571 C 702.139 3.66916 -0.839628 0
M  V30 7572 C 701.286 2.46859 -1.26317 0
M  V30 7573 H 704.237 1.13716 -1.107 0
M  V30 7574 H 704.258 3.77811 -0.451578 0
M  V30 7575 H 703.77 3.20759 -2.18484 0
M  V30 7576 H 701.871 3.71906 0.227292 0
M  V30 7577 H 701.984 4.56415 -1.45679 0
M  V30 7578 H 700.348 2.45407 -0.681723 0
M  V30 7579 H 701.131 2.50025 -2.3525 0
M  V30 7580 N 703.576 0.692616 1.41565 0
M  V30 7581 C 704.486 0.0258451 2.34586 0
M  V30 7582 C 705.502 -0.769324 1.56069 0
M  V30 7583 O 706.678 -0.707563 1.88562 0
M  V30 7584 C 703.743 -0.901289 3.3478 0
M  V30 7585 C 702.804 -0.0986579 4.29187 0
M  V30 7586 C 702.037 -0.981634 5.24595 0
M  V30 7587 O 702.26 -2.22115 5.25377 0
M  V30 7588 O 701.194 -0.432892 6.00341 0
M  V30 7589 H 705.02 0.792537 2.93177 0
M  V30 7590 H 702.605 0.452935 1.42369 0
M  V30 7591 H 704.487 -1.43302 3.96286 0
M  V30 7592 H 703.162 -1.64752 2.78637 0
M  V30 7593 H 702.069 0.477604 3.71039 0
M  V30 7594 H 703.402 0.608848 4.8842 0
M  V30 7595 N 705.054 -1.51416 0.437162 0
M  V30 7596 C 706.279 -2.0699 -0.130424 0
M  V30 7597 C 706.704 -1.30249 -1.35709 0
M  V30 7598 O 706.062 -0.340388 -1.78076 0
M  V30 7599 C 706.11 -3.5801 -0.43142 0
M  V30 7600 O 705.214 -3.8345 -1.5179 0
M  V30 7601 H 704.555 -0.663997 -0.00194339 0
M  V30 7602 H 707.085 -1.95029 0.618445 0
M  V30 7603 H 707.095 -4.02261 -0.681926 0
M  V30 7604 H 705.77 -4.13291 0.465137 0
M  V30 7605 H 704.347 -3.51062 -1.25737 0
M  V30 7606 N 706.532 -0.168513 -1.56696 0
M  V30 7607 C 707.479 0.762875 -2.17828 0
M  V30 7608 C 708.449 1.22892 -1.11745 0
M  V30 7609 O 709.634 1.29759 -1.39883 0
M  V30 7610 C 706.774 1.9879 -2.82093 0
M  V30 7611 C 705.887 1.56568 -4.02629 0
M  V30 7612 C 705.022 2.74416 -4.54829 0
M  V30 7613 C 704.061 2.28671 -5.67782 0
M  V30 7614 N 703.198 3.39602 -6.14504 0
M  V30 7615 H 708.038 0.23479 -2.97074 0
M  V30 7616 H 705.575 0.104163 -1.46731 0
M  V30 7617 H 707.533 2.70636 -3.17509 0
M  V30 7618 H 706.163 2.48973 -2.05456 0
M  V30 7619 H 705.215 0.744067 -3.73052 0
M  V30 7620 H 706.527 1.18988 -4.844 0
M  V30 7621 H 705.681 3.54423 -4.92412 0
M  V30 7622 H 704.42 3.15254 -3.7211 0
M  V30 7623 H 703.425 1.4711 -5.29753 0
M  V30 7624 H 704.65 1.88894 -6.52301 0
M  V30 7625 H 702.596 3.80021 -5.34715 0
M  V30 7626 H 702.513 3.06105 -6.91257 0
M  V30 7627 H 703.781 4.19902 -6.56737 0
M  V30 7628 N 708.01 1.57248 0.105221 0
M  V30 7629 C 709.287 1.76566 0.841647 0
M  V30 7630 C 709.667 0.747566 1.9742 0
M  V30 7631 O 709.015 -0.225886 2.27381 0
M  V30 7632 C 709.225 3.22016 1.3456 0
M  V30 7633 C 710.573 3.84911 1.79244 0
M  V30 7634 O 711.597 3.25703 1.44207 0
M  V30 7635 O 710.456 4.89008 2.43995 0
M  V30 7636 H 707.55 0.723443 0.400698 0
M  V30 7637 H 710.096 1.69472 0.0878893 0
M  V30 7638 H 708.868 3.87644 0.533685 0
M  V30 7639 H 708.491 3.33703 2.16167 0
M  V30 7640 N 709.488 -0.375779 1.53054 0
M  V30 7641 C 710.734 -1.12114 1.68992 0
M  V30 7642 C 711.067 -1.8926 0.435238 0
M  V30 7643 O 710.342 -1.86044 -0.567278 0
M  V30 7644 C 710.625 -2.08867 2.93337 0
M  V30 7645 C 710.478 -1.35397 4.28938 0
M  V30 7646 C 711.797 -3.09124 3.13257 0
M  V30 7647 H 708.916 -0.406207 0.614951 0
M  V30 7648 H 711.558 -0.403054 1.85676 0
M  V30 7649 H 709.708 -2.70102 2.79244 0
M  V30 7650 H 711.38 -0.770242 4.54824 0
M  V30 7651 H 709.623 -0.655801 4.28814 0
M  V30 7652 H 710.294 -2.06161 5.12056 0
M  V30 7653 H 712.77 -2.57987 3.26469 0
M  V30 7654 H 711.646 -3.74054 4.01715 0
M  V30 7655 H 711.907 -3.78729 2.28072 0
M  V30 7656 N 710.966 -1.44241 -0.634997 0
M  V30 7657 C 712.377 -1.41622 -1.21655 0
M  V30 7658 C 712.728 -0.129584 -1.95772 0
M  V30 7659 O 711.853 0.770225 -2.02229 0
M  V30 7660 C 712.448 -2.56557 -2.21278 0
M  V30 7661 C 711.007 -2.57145 -2.7487 0
M  V30 7662 C 710.154 -2.33354 -1.49804 0
M  V30 7663 H 713.105 -1.52878 -0.425905 0
M  V30 7664 H 713.126 -2.29089 -3.03807 0
M  V30 7665 H 712.638 -3.50186 -1.67306 0
M  V30 7666 H 710.739 -1.67447 -3.32855 0
M  V30 7667 H 710.852 -3.55507 -3.21172 0
M  V30 7668 H 709.216 -1.82372 -1.77799 0
M  V30 7669 H 709.999 -3.29092 -0.977402 0
M  V30 7670 N 712.444 0.87505 -1.31075 0
M  V30 7671 C 713.407 1.96333 -1.18263 0
M  V30 7672 C 714.407 1.60416 -0.111106 0
M  V30 7673 O 715.597 1.7044 -0.359987 0
M  V30 7674 C 712.729 3.31036 -0.81414 0
M  V30 7675 H 713.922 2.09125 -2.14958 0
M  V30 7676 H 711.475 1.06271 -1.14614 0
M  V30 7677 H 712.21 3.23944 0.151875 0
M  V30 7678 H 711.995 3.58476 -1.58862 0
M  V30 7679 H 713.485 4.10842 -0.748249 0
M  V30 7680 N 713.922 1.13953 1.08869 0
M  V30 7681 C 715.168 0.906151 1.8143 0
M  V30 7682 C 715.501 -0.566089 1.85766 0
M  V30 7683 O 714.776 -1.41915 1.33006 0
M  V30 7684 C 715.059 1.50183 3.27287 0
M  V30 7685 C 714.912 3.04359 3.31189 0
M  V30 7686 C 716.231 1.17477 4.24131 0
M  V30 7687 H 713.35 0.330624 0.658678 0
M  V30 7688 H 715.992 1.40873 1.27495 0
M  V30 7689 H 714.142 1.07442 3.73348 0
M  V30 7690 H 715.814 3.55896 2.93488 0
M  V30 7691 H 714.057 3.39053 2.70602 0
M  V30 7692 H 714.728 3.41141 4.33966 0
M  V30 7693 H 717.204 1.5442 3.86385 0
M  V30 7694 H 716.08 1.61795 5.24513 0
M  V30 7695 H 716.341 0.0893312 4.4201 0
M  V30 7696 N 715.4 -1.26948 0.933913 0
M  V30 7697 C 716.31 -2.30366 0.443671 0
M  V30 7698 C 717.326 -1.67284 -0.478745 0
M  V30 7699 O 718.502 -1.98156 -0.360043 0
M  V30 7700 C 715.567 -3.45485 -0.289974 0
M  V30 7701 C 714.628 -4.24069 0.668114 0
M  V30 7702 C 713.861 -5.33691 -0.0306138 0
M  V30 7703 O 714.084 -5.5656 -1.24888 0
M  V30 7704 O 713.018 -5.98441 0.644384 0
M  V30 7705 H 716.844 -2.74349 1.30254 0
M  V30 7706 H 714.429 -1.32012 0.699506 0
M  V30 7707 H 716.311 -4.15486 -0.70353 0
M  V30 7708 H 714.986 -3.03546 -1.12435 0
M  V30 7709 H 713.893 -3.56579 1.13147 0
M  V30 7710 H 715.226 -4.69739 1.46989 0
M  V30 7711 N 716.879 -0.700114 -1.41195 0
M  V30 7712 C 718.128 -0.230082 -2.00383 0
M  V30 7713 C 718.441 1.17857 -1.56106 0
M  V30 7714 O 719.647 1.74631 -2.07885 0
M  V30 7715 C 718.103 -0.360447 -3.5809 0
M  V30 7716 C 717.711 -1.77475 -4.11347 0
M  V30 7717 C 719.455 0.0495799 -4.24471 0
M  V30 7718 C 717.362 -1.85653 -5.61504 0
M  V30 7719 H 716.292 -0.0822633 -0.749499 0
M  V30 7720 H 718.943 -0.868969 -1.6162 0
M  V30 7721 H 717.325 0.346768 -3.94479 0
M  V30 7722 H 718.499 -2.51109 -3.86369 0
M  V30 7723 H 716.814 -2.13486 -3.57509 0
M  V30 7724 H 719.411 0.00898219 -5.34699 0
M  V30 7725 H 719.754 1.08904 -4.01803 0
M  V30 7726 H 720.287 -0.607521 -3.93134 0
M  V30 7727 H 717.026 -2.87667 -5.89006 0
M  V30 7728 H 716.546 -1.1641 -5.88395 0
M  V30 7729 H 718.225 -1.62151 -6.26351 0
M  V30 7730 N 718.357 1.51182 -0.445186 0
M  V30 7731 C 719.585 2.06568 0.117091 0
M  V30 7732 C 720 1.31182 1.35781 0
M  V30 7733 O 719.357 0.373605 1.78635 0
M  V30 7734 C 719.408 3.58917 0.431408 0
M  V30 7735 O 719.129 4.31456 -0.760078 0
M  V30 7736 C 720.63 4.30843 1.0435 0
M  V30 7737 H 717.85 0.670985 0.00444436 0
M  V30 7738 H 720.394 1.94666 -0.626525 0
M  V30 7739 H 718.549 3.70708 1.12493 0
M  V30 7740 H 718.963 5.22215 -0.489048 0
M  V30 7741 H 720.437 5.38499 1.21337 0
M  V30 7742 H 720.914 3.89644 2.02667 0
M  V30 7743 H 721.52 4.23516 0.38913 0
M  V30 7744 N 719.835 0.176821 1.56605 0
M  V30 7745 C 720.785 -0.763718 2.14829 0
M  V30 7746 C 721.769 -1.18903 1.08401 0
M  V30 7747 O 722.961 -1.15048 1.3451 0
M  V30 7748 C 720.09 -1.99069 2.7969 0
M  V30 7749 C 719.176 -1.58711 3.93283 0
M  V30 7750 N 719.567 -0.893423 4.97847 0
M  V30 7751 C 717.865 -1.87774 4.04545 0
M  V30 7752 C 718.566 -0.693866 5.77547 0
M  V30 7753 N 717.542 -1.23699 5.29339 0
M  V30 7754 H 721.344 -0.224811 2.93039 0
M  V30 7755 H 718.858 -0.0236563 1.62383 0
M  V30 7756 H 720.855 -2.67478 3.19783 0
M  V30 7757 H 719.515 -2.53449 2.02962 0
M  V30 7758 H 720.526 -0.550868 5.14962 0
M  V30 7759 H 717.203 -2.43793 3.38927 0
M  V30 7760 H 718.593 -0.144899 6.71744 0
M  V30 7761 N 721.313 -1.57302 -0.09688 0
M  V30 7762 C 722.541 -1.90202 -0.814295 0
M  V30 7763 C 722.956 -0.770344 -1.72369 0
M  V30 7764 O 722.313 0.257764 -1.8067 0
M  V30 7765 C 722.364 -3.22708 -1.62916 0
M  V30 7766 O 722.085 -4.31522 -0.756343 0
M  V30 7767 C 723.586 -3.69459 -2.44979 0
M  V30 7768 H 720.806 -0.629275 -0.232925 0
M  V30 7769 H 723.35 -2.04364 -0.0746482 0
M  V30 7770 H 721.505 -3.1015 -2.32133 0
M  V30 7771 H 721.919 -5.07604 -1.32054 0
M  V30 7772 H 723.393 -4.64875 -2.9765 0
M  V30 7773 H 723.87 -2.97211 -3.23361 0
M  V30 7774 H 724.476 -3.84879 -1.80964 0
M  V30 7775 N 722.791 0.367657 -1.53252 0
M  V30 7776 C 724.038 1.11052 -1.69333 0
M  V30 7777 C 724.366 1.89363 -0.444064 0
M  V30 7778 O 723.621 1.87094 0.573953 0
M  V30 7779 C 723.92 2.09825 -2.89324 0
M  V30 7780 C 723.586 1.4801 -4.25915 0
M  V30 7781 C 722.248 1.30879 -4.6306 0
M  V30 7782 C 724.6 1.03268 -5.10867 0
M  V30 7783 C 721.928 0.675868 -5.82794 0
M  V30 7784 C 724.28 0.41377 -6.31245 0
M  V30 7785 C 722.944 0.229939 -6.67104 0
M  V30 7786 H 722.214 0.406367 -0.619634 0
M  V30 7787 H 724.861 0.392558 -1.87433 0
M  V30 7788 H 723.166 2.87917 -2.65728 0
M  V30 7789 H 724.863 2.67252 -2.98961 0
M  V30 7790 H 721.453 1.62336 -3.96667 0
M  V30 7791 H 725.637 1.15297 -4.82722 0
M  V30 7792 H 720.893 0.521833 -6.09169 0
M  V30 7793 H 725.067 0.0588768 -6.96375 0
M  V30 7794 H 722.694 -0.262562 -7.59746 0
M  V30 7795 N 724.269 1.44576 0.627338 0
M  V30 7796 C 725.515 1.4877 1.38705 0
M  V30 7797 C 725.87 0.119976 1.92026 0
M  V30 7798 O 725.163 -0.865341 1.70946 0
M  V30 7799 C 725.357 2.48644 2.56731 0
M  V30 7800 C 725.186 3.94994 2.14965 0
M  V30 7801 C 723.956 4.63139 2.02065 0
M  V30 7802 C 726.154 4.841 1.73643 0
M  V30 7803 N 724.136 5.94296 1.53902 0
M  V30 7804 C 725.507 6.0473 1.36753 0
M  V30 7805 C 727.562 4.71131 1.61058 0
M  V30 7806 C 726.265 7.13831 0.885353 0
M  V30 7807 C 728.291 5.8026 1.14244 0
M  V30 7808 C 727.653 7.00034 0.783067 0
M  V30 7809 H 723.752 0.599415 0.50222 0
M  V30 7810 H 726.336 1.80926 0.719285 0
M  V30 7811 H 724.507 2.18472 3.2113 0
M  V30 7812 H 726.239 2.4311 3.23542 0
M  V30 7813 H 722.994 4.18007 2.22637 0
M  V30 7814 H 723.418 6.63985 1.32108 0
M  V30 7815 H 728.06 3.78964 1.87473 0
M  V30 7816 H 725.778 8.05804 0.608716 0
M  V30 7817 H 729.364 5.72254 1.0496 0
M  V30 7818 H 728.244 7.8304 0.426381 0
M  V30 7819 N 725.747 -0.868086 1.31537 0
M  V30 7820 C 726.657 -2.00801 1.21311 0
M  V30 7821 C 727.673 -1.73518 0.129431 0
M  V30 7822 O 728.849 -1.98378 0.347588 0
M  V30 7823 C 725.914 -3.3419 0.922935 0
M  V30 7824 C 724.975 -3.74783 2.0937 0
M  V30 7825 C 724.208 -5.01807 1.81728 0
M  V30 7826 O 724.431 -5.65404 0.753313 0
M  V30 7827 O 723.365 -5.39213 2.67457 0
M  V30 7828 H 727.191 -2.12361 2.17109 0
M  V30 7829 H 724.776 -0.996684 1.11295 0
M  V30 7830 H 726.658 -4.14174 0.777033 0
M  V30 7831 H 725.333 -3.237 -0.00500301 0
M  V30 7832 H 724.24 -2.95432 2.29501 0
M  V30 7833 H 725.573 -3.89902 3.00396 0
M  V30 7834 N 727.225 -1.14528 -1.08264 0
M  V30 7835 C 728.641 -0.885976 -1.3275 0
M  V30 7836 C 728.841 0.472096 -1.95892 0
M  V30 7837 O 727.897 1.21606 -2.21288 0
M  V30 7838 C 729.21 -2.01982 -2.22764 0
M  V30 7839 C 730.758 -2.05329 -2.36239 0
M  V30 7840 C 731.233 -3.1801 -3.29596 0
M  V30 7841 N 732.724 -3.17598 -3.37173 0
M  V30 7842 C 733.459 -4.01426 -4.09444 0
M  V30 7843 N 732.955 -4.95297 -4.8441 0
M  V30 7844 N 734.748 -3.89482 -4.0529 0
M  V30 7845 H 726.899 -2.01996 -0.656607 0
M  V30 7846 H 729.162 -0.880274 -0.351884 0
M  V30 7847 H 728.868 -2.99964 -1.83615 0
M  V30 7848 H 728.742 -1.94421 -3.23234 0
M  V30 7849 H 731.129 -1.07953 -2.74646 0
M  V30 7850 H 731.21 -2.1696 -1.35506 0
M  V30 7851 H 730.854 -4.15633 -2.9191 0
M  V30 7852 H 730.784 -3.03616 -4.30261 0
M  V30 7853 H 733.275 -2.4961 -2.83731 0
M  V30 7854 H 733.588 -5.55723 -5.37021 0
M  V30 7855 H 731.933 -4.99293 -4.83457 0
M  V30 7856 H 735.124 -3.15465 -3.45832 0
M  V30 7857 H 735.297 -4.55039 -4.6135 0
M  V30 7858 N 728.703 1.26451 -0.940633 0
M  V30 7859 C 729.651 2.28389 -0.440581 0
M  V30 7860 C 730.645 1.62402 0.481859 0
M  V30 7861 O 731.851 1.76361 0.360132 0
M  V30 7862 H 728.226 0.741716 -0.123938 0
M  V30 7863 H 730.197 2.67967 -1.31288 0
M  V30 7864 C 728.946 3.46576 0.279364 0
M  V30 7865 H 728.269 3.97574 -0.421274 0
M  V30 7866 H 729.709 4.19826 0.59348 0
M  V30 7867 C 728.168 3.01815 1.49697 0
M  V30 7868 O 728.698 3.06607 2.59529 0
M  V30 7869 N 726.904 2.57163 1.35334 0
M  V30 7870 H 726.451 2.53464 0.459743 0
M  V30 7871 H 726.409 2.27578 2.16923 0
M  V30 7872 N 730.181 0.707592 1.40822 0
M  V30 7873 C 731.111 0.0644925 2.33411 0
M  V30 7874 C 732.092 -0.754205 1.52466 0
M  V30 7875 O 733.277 -0.704749 1.80961 0
M  V30 7876 C 730.407 -0.863865 3.36385 0
M  V30 7877 C 729.361 -0.15138 4.27732 0
M  V30 7878 C 728.687 -1.19491 5.21177 0
M  V30 7879 C 729.987 0.989607 5.12839 0
M  V30 7880 H 731.681 0.837829 2.87438 0
M  V30 7881 H 729.227 0.404346 1.38207 0
M  V30 7882 H 731.18 -1.32309 4.0009 0
M  V30 7883 H 729.904 -1.66901 2.80734 0
M  V30 7884 H 728.563 0.287937 3.65467 0
M  V30 7885 H 728.211 -1.9929 4.61836 0
M  V30 7886 H 727.911 -0.723123 5.83134 0
M  V30 7887 H 729.435 -1.6544 5.8776 0
M  V30 7888 H 730.849 0.610114 5.70044 0
M  V30 7889 H 729.246 1.38926 5.83798 0
M  V30 7890 H 730.316 1.82389 4.49291 0
M  V30 7891 N 731.66 -1.50943 0.453197 0
M  V30 7892 C 733.071 -1.86699 -0.00619892 0
M  V30 7893 C 733.422 -1.3693 -1.40515 0
M  V30 7894 O 732.547 -0.726715 -2.03833 0
M  V30 7895 C 733.142 -3.38795 -0.018025 0
M  V30 7896 C 731.701 -3.74028 -0.421885 0
M  V30 7897 C 730.848 -2.74752 0.375087 0
M  V30 7898 H 733.799 -1.43942 0.668317 0
M  V30 7899 H 733.82 -3.71468 -0.824125 0
M  V30 7900 H 733.332 -3.74988 1.00028 0
M  V30 7901 H 731.433 -3.43431 -1.44521 0
M  V30 7902 H 731.546 -4.78908 -0.135664 0
M  V30 7903 H 729.91 -2.5414 -0.168794 0
M  V30 7904 H 730.693 -3.13787 1.39256 0
M  V30 7905 N 733.138 -0.185124 -1.56509 0
M  V30 7906 C 734.363 0.465278 -2.02114 0
M  V30 7907 C 734.788 1.55083 -1.06447 0
M  V30 7908 O 734.146 1.81241 -0.0462852 0
M  V30 7909 C 734.194 1.00784 -3.46229 0
M  V30 7910 O 733.298 2.12123 -3.53663 0
M  V30 7911 H 732.639 0.109891 -0.654843 0
M  V30 7912 H 735.169 -0.293072 -2.0249 0
M  V30 7913 H 735.179 1.32697 -3.85818 0
M  V30 7914 H 733.854 0.213113 -4.15354 0
M  V30 7915 H 732.431 1.8115 -3.25943 0
M  V30 7916 N 734.616 1.57351 0.0885366 0
M  V30 7917 C 735.862 1.86696 0.791996 0
M  V30 7918 C 736.195 0.775148 1.78059 0
M  V30 7919 O 735.47 -0.216247 1.93294 0
M  V30 7920 C 735.753 3.26684 1.51491 0
M  V30 7921 C 735.606 4.465 0.543858 0
M  V30 7922 C 736.925 3.64664 2.46391 0
M  V30 7923 H 734.044 0.679049 0.286463 0
M  V30 7924 H 736.686 1.89919 0.0554866 0
M  V30 7925 H 734.836 3.24067 2.14273 0
M  V30 7926 H 736.508 4.61235 -0.0774597 0
M  V30 7927 H 734.751 4.33567 -0.142228 0
M  V30 7928 H 735.422 5.41192 1.08696 0
M  V30 7929 H 737.898 3.68267 1.93698 0
M  V30 7930 H 736.774 4.63534 2.93986 0
M  V30 7931 H 737.035 2.93698 3.30445 0
M  V30 7932 N 736.094 -0.359525 1.53444 0
M  V30 7933 C 737.319 -1.12644 1.74144 0
M  V30 7934 C 737.744 -1.82082 0.472007 0
M  V30 7935 O 737.102 -1.71962 -0.57436 0
M  V30 7936 C 737.15 -2.12781 2.9113 0
M  V30 7937 O 736.254 -3.19984 2.60162 0
M  V30 7938 H 735.595 -0.326553 0.578152 0
M  V30 7939 H 738.125 -0.414798 2.00351 0
M  V30 7940 H 738.135 -2.56278 3.17467 0
M  V30 7941 H 736.81 -1.61634 3.83207 0
M  V30 7942 H 735.387 -2.81417 2.44661 0
M  V30 7943 N 737.572 -1.44907 -0.619662 0
M  V30 7944 C 738.82 -1.47999 -1.37625 0
M  V30 7945 C 739.141 -0.118295 -1.94641 0
M  V30 7946 O 738.411 0.85086 -1.76457 0
M  V30 7947 H 736.991 -0.544993 -0.510873 0
M  V30 7948 H 739.653 -1.80772 -0.728522 0
M  V30 7949 H 738.749 -2.21196 -2.20179 0
M  V30 7950 N 739.05 0.861098 -1.31996 0
M  V30 7951 C 739.98 1.98482 -1.22993 0
M  V30 7952 C 740.961 1.6971 -0.115168 0
M  V30 7953 O 742.146 1.91849 -0.30126 0
M  V30 7954 C 739.276 3.34179 -0.945615 0
M  V30 7955 C 738.23 3.77284 -2.02091 0
M  V30 7956 C 737.556 5.1054 -1.58912 0
M  V30 7957 C 738.856 3.93439 -3.43515 0
M  V30 7958 H 740.55 2.06271 -2.17008 0
M  V30 7959 H 738.096 0.991043 -1.04472 0
M  V30 7960 H 740.049 4.12338 -0.869206 0
M  V30 7961 H 738.773 3.26586 0.0301849 0
M  V30 7962 H 737.432 3.01371 -2.08737 0
M  V30 7963 H 737.08 4.99397 -0.600942 0
M  V30 7964 H 736.78 5.40352 -2.30854 0
M  V30 7965 H 738.304 5.91199 -1.52696 0
M  V30 7966 H 739.718 4.6197 -3.39495 0
M  V30 7967 H 738.115 4.34661 -4.13751 0
M  V30 7968 H 739.185 2.96548 -3.8365 0
M  V30 7969 N 740.528 1.15101 1.07655 0
M  V30 7970 C 741.458 0.867864 2.16773 0
M  V30 7971 C 742.439 -0.180283 1.69142 0
M  V30 7972 O 743.624 -0.0353152 1.94168 0
M  V30 7973 C 740.754 0.35299 3.45501 0
M  V30 7974 C 739.708 1.33746 4.06566 0
M  V30 7975 C 739.034 0.681562 5.30338 0
M  V30 7976 C 740.334 2.7024 4.46954 0
M  V30 7977 H 742.028 1.78034 2.40716 0
M  V30 7978 H 739.574 0.857435 1.15689 0
M  V30 7979 H 741.527 0.142465 4.21159 0
M  V30 7980 H 740.251 -0.594945 3.21135 0
M  V30 7981 H 738.91 1.53429 3.32949 0
M  V30 7982 H 738.558 -0.272422 5.02262 0
M  V30 7983 H 738.258 1.33853 5.72151 0
M  V30 7984 H 739.782 0.48074 6.08705 0
M  V30 7985 H 741.196 2.5442 5.13754 0
M  V30 7986 H 739.593 3.32282 4.99709 0
M  V30 7987 H 740.663 3.26537 3.58471 0
M  V30 7988 N 742.006 -1.2595 0.947325 0
M  V30 7989 C 742.953 -2.26159 0.460497 0
M  V30 7990 C 743.923 -1.58919 -0.483125 0
M  V30 7991 O 745.108 -1.86603 -0.397983 0
M  V30 7992 C 742.248 -3.441 -0.26247 0
M  V30 7993 C 741.361 -4.25999 0.717539 0
M  V30 7994 C 740.496 -5.31193 -0.0272486 0
M  V30 7995 C 739.535 -6.04774 0.944177 0
M  V30 7996 N 738.672 -7.01721 0.230741 0
M  V30 7997 H 743.512 -2.67173 1.31995 0
M  V30 7998 H 741.049 -1.31358 0.662088 0
M  V30 7999 H 743.007 -4.11317 -0.698137 0
M  V30 8000 H 741.637 -3.03983 -1.08602 0
M  V30 8001 H 740.689 -3.58513 1.27171 0
M  V30 8002 H 742.001 -4.76981 1.45913 0
M  V30 8003 H 741.155 -6.04451 -0.521903 0
M  V30 8004 H 739.894 -4.81066 -0.801682 0
M  V30 8005 H 738.899 -5.30338 1.4499 0
M  V30 8006 H 740.124 -6.56991 1.71872 0
M  V30 8007 H 738.07 -6.53895 -0.525088 0
M  V30 8008 H 737.987 -7.50484 0.911556 0
M  V30 8009 H 739.255 -7.79122 -0.242616 0
M  V30 8010 N 743.484 -0.715051 -1.40445 0
M  V30 8011 C 744.733 -0.251322 -2.00128 0
M  V30 8012 C 745.046 1.16194 -1.57347 0
M  V30 8013 O 746.252 1.72416 -2.09726 0
M  V30 8014 C 744.708 -0.398407 -3.57688 0
M  V30 8015 C 744.316 -1.81828 -4.09442 0
M  V30 8016 C 746.06 0.00455625 -4.245 0
M  V30 8017 C 743.967 -1.91598 -5.59503 0
M  V30 8018 H 742.897 -0.0902081 -0.748584 0
M  V30 8019 H 745.548 -0.886062 -1.6069 0
M  V30 8020 H 743.93 0.304908 -3.94824 0
M  V30 8021 H 745.104 -2.55193 -3.83684 0
M  V30 8022 H 743.419 -2.17266 -3.55225 0
M  V30 8023 H 746.016 -0.0477303 -5.34679 0
M  V30 8024 H 746.359 1.04636 -4.02935 0
M  V30 8025 H 746.892 -0.649184 -3.92467 0
M  V30 8026 H 743.631 -2.93898 -5.85922 0
M  V30 8027 H 743.151 -1.22644 -5.87127 0
M  V30 8028 H 744.83 -1.68785 -6.24596 0
M  V30 8029 N 744.962 1.50701 -0.461195 0
M  V30 8030 C 746.211 2.01458 0.0988277 0
M  V30 8031 C 746.524 1.34863 1.41673 0
M  V30 8032 O 747.73 1.76721 2.06111 0
M  V30 8033 C 746.186 3.59186 0.226648 0
M  V30 8034 C 745.794 4.34732 -1.08223 0
M  V30 8035 C 747.538 4.18015 0.73916 0
M  V30 8036 C 745.445 5.8422 -0.918747 0
M  V30 8037 H 744.375 0.7529 0.040709 0
M  V30 8038 H 747.026 1.736 -0.594589 0
M  V30 8039 H 745.408 3.83589 0.983621 0
M  V30 8040 H 746.582 4.22059 -1.84939 0
M  V30 8041 H 744.897 3.87466 -1.52509 0
M  V30 8042 H 747.494 5.27436 0.878347 0
M  V30 8043 H 747.837 3.78746 1.72793 0
M  V30 8044 H 748.37 3.9778 0.0398469 0
M  V30 8045 H 745.109 6.27944 -1.88059 0
M  V30 8046 H 744.629 5.99493 -0.191801 0
M  V30 8047 H 746.308 6.44382 -0.581405 0
M  V30 8048 N 746.441 0.193421 1.56409 0
M  V30 8049 C 747.689 -0.444908 1.97142 0
M  V30 8050 C 748.01 -1.62268 1.08139 0
M  V30 8051 O 747.28 -1.95307 0.152326 0
M  V30 8052 H 745.86 -0.16736 0.728011 0
M  V30 8053 H 748.522 0.279763 1.92882 0
M  V30 8054 H 747.618 -0.790159 3.01932 0
M  V30 8055 N 747.919 -1.57396 -0.0801906 0
M  V30 8056 C 749.166 -1.86836 -0.780927 0
M  V30 8057 C 749.494 -0.784012 -1.77999 0
M  V30 8058 O 748.749 0.220881 -1.94449 0
M  V30 8059 C 749.048 -3.22915 -1.53169 0
M  V30 8060 C 748.714 -4.45843 -0.67339 0
M  V30 8061 C 747.376 -4.79213 -0.436829 0
M  V30 8062 C 749.728 -5.21142 -0.0776786 0
M  V30 8063 C 747.056 -5.853 0.405062 0
M  V30 8064 C 749.408 -6.28119 0.751619 0
M  V30 8065 C 748.072 -6.59995 0.998131 0
M  V30 8066 H 747.342 -0.683682 -0.285761 0
M  V30 8067 H 749.989 -1.91454 -0.0419435 0
M  V30 8068 H 748.294 -3.14049 -2.34265 0
M  V30 8069 H 749.991 -3.42926 -2.07853 0
M  V30 8070 H 746.581 -4.19721 -0.867891 0
M  V30 8071 H 750.765 -4.95682 -0.247572 0
M  V30 8072 H 746.021 -6.084 0.60488 0
M  V30 8073 H 750.195 -6.8563 1.22 0
M  V30 8074 H 747.822 -7.42027 1.65227 0
M  V30 8075 N 749.397 0.351382 -1.53633 0
M  V30 8076 C 750.622 1.11718 -1.74739 0
M  V30 8077 C 751.047 1.81829 -0.481657 0
M  V30 8078 O 750.405 1.72264 0.565233 0
M  V30 8079 C 750.453 2.11234 -2.92254 0
M  V30 8080 O 749.557 3.186 -2.61855 0
M  V30 8081 H 748.898 0.323482 -0.579875 0
M  V30 8082 H 751.428 0.404167 -2.00568 0
M  V30 8083 H 751.438 2.54591 -3.18822 0
M  V30 8084 H 750.113 1.59599 -3.84058 0
M  V30 8085 H 748.69 2.80115 -2.4615 0
M  V30 8086 N 750.875 1.45233 0.611969 0
M  V30 8087 C 752.103 1.52539 1.39784 0
M  V30 8088 C 752.518 0.156533 1.8815 0
M  V30 8089 O 751.875 -0.84112 1.61961 0
M  V30 8090 C 751.926 2.50614 2.60528 0
M  V30 8091 O 751.647 3.8218 2.14173 0
M  V30 8092 C 753.148 2.67574 3.53439 0
M  V30 8093 H 750.368 0.51674 0.428043 0
M  V30 8094 H 752.912 1.90379 0.746727 0
M  V30 8095 H 751.067 2.15858 3.2169 0
M  V30 8096 H 751.481 4.35305 2.92592 0
M  V30 8097 H 752.955 3.40184 4.34717 0
M  V30 8098 H 753.432 1.73458 4.03496 0
M  V30 8099 H 754.038 3.0331 2.98133 0
M  V30 8100 N 752.353 -0.854086 1.3245 0
M  V30 8101 C 753.578 -1.64597 1.26185 0
M  V30 8102 C 754.003 -1.87357 -0.167074 0
M  V30 8103 O 753.361 -1.42675 -1.11864 0
M  V30 8104 C 753.409 -2.98213 2.02734 0
M  V30 8105 O 752.513 -3.88784 1.37554 0
M  V30 8106 H 751.854 -0.50179 0.434859 0
M  V30 8107 H 754.384 -1.06372 1.74775 0
M  V30 8108 H 754.394 -3.4803 2.1293 0
M  V30 8109 H 753.069 -2.80969 3.06642 0
M  V30 8110 H 751.646 -3.4725 1.3591 0
M  V30 8111 N 753.831 -1.1567 -1.07043 0
M  V30 8112 C 755.077 -0.9349 -1.79965 0
M  V30 8113 C 755.41 0.536464 -1.86643 0
M  V30 8114 O 754.685 1.39781 -1.35247 0
M  V30 8115 C 754.968 -1.55371 -3.24857 0
M  V30 8116 C 754.821 -3.09589 -3.26305 0
M  V30 8117 C 756.14 -1.24209 -4.22209 0
M  V30 8118 H 753.259 -0.341061 -0.653335 0
M  V30 8119 H 755.901 -1.42883 -1.25237 0
M  V30 8120 H 754.051 -1.13368 -3.71591 0
M  V30 8121 H 755.723 -3.60521 -2.87789 0
M  V30 8122 H 753.966 -3.43315 -2.65174 0
M  V30 8123 H 754.637 -3.48002 -4.28484 0
M  V30 8124 H 757.113 -1.60548 -3.8388 0
M  V30 8125 H 755.989 -1.70119 -5.21872 0
M  V30 8126 H 756.25 -0.15964 -4.41812 0
M  V30 8127 N 755.309 1.25446 -0.953992 0
M  V30 8128 C 756.537 1.97215 -0.625595 0
M  V30 8129 C 756.952 1.70911 0.802168 0
M  V30 8130 O 756.309 0.984782 1.5365 0
M  V30 8131 C 756.36 3.50777 -0.873943 0
M  V30 8132 O 756.081 3.76173 -2.24556 0
M  V30 8133 C 757.582 4.39776 -0.557845 0
M  V30 8134 H 754.802 0.628652 -0.2346 0
M  V30 8135 H 757.346 1.59632 -1.27819 0
M  V30 8136 H 755.501 3.86474 -0.267765 0
M  V30 8137 H 755.915 4.70636 -2.31522 0
M  V30 8138 H 757.389 5.46431 -0.782157 0
M  V30 8139 H 757.866 4.36257 0.507573 0
M  V30 8140 H 758.472 4.09644 -1.14332 0
M  V30 8141 N 756.787 0.722489 1.40064 0
M  V30 8142 C 757.75 0.0830209 2.2905 0
M  V30 8143 C 758.75 -0.680208 1.45705 0
M  V30 8144 O 759.94 -0.511084 1.66534 0
M  V30 8145 C 757.072 -0.892092 3.29021 0
M  V30 8146 H 758.265 0.866848 2.87099 0
M  V30 8147 H 755.818 0.487556 1.48501 0
M  V30 8148 H 756.553 -1.70273 2.76003 0
M  V30 8149 H 756.338 -0.34761 3.90556 0
M  V30 8150 H 757.828 -1.33648 3.95636 0
M  V30 8151 N 758.265 -1.50454 0.469181 0
M  V30 8152 C 759.195 -2.31353 -0.31592 0
M  V30 8153 C 760.176 -1.38172 -0.992094 0
M  V30 8154 O 761.361 -1.67093 -0.989633 0
M  V30 8155 C 758.491 -3.1786 -1.39937 0
M  V30 8156 C 757.445 -4.19578 -0.844909 0
M  V30 8157 C 756.771 -4.9481 -2.0265 0
M  V30 8158 C 758.071 -5.22106 0.142499 0
M  V30 8159 H 759.765 -2.97237 0.359269 0
M  V30 8160 H 757.311 -1.42942 0.174224 0
M  V30 8161 H 759.264 -3.7325 -1.95607 0
M  V30 8162 H 757.988 -2.49858 -2.1033 0
M  V30 8163 H 756.647 -3.65285 -0.310189 0
M  V30 8164 H 756.295 -4.23282 -2.71737 0
M  V30 8165 H 755.995 -5.63613 -1.66174 0
M  V30 8166 H 757.519 -5.53035 -2.58815 0
M  V30 8167 H 758.933 -5.72378 -0.324966 0
M  V30 8168 H 757.33 -5.98618 0.421441 0
M  V30 8169 H 758.4 -4.7297 1.06901 0
M  V30 8170 N 759.743 -0.201713 -1.56304 0
M  V30 8171 C 760.991 0.434447 -1.97375 0
M  V30 8172 C 761.312 1.61692 -1.08998 0
M  V30 8173 O 760.582 1.95223 -0.162682 0
M  V30 8174 H 759.162 0.163497 -0.728888 0
M  V30 8175 H 761.824 -0.289988 -1.92731 0
M  V30 8176 H 760.92 0.774136 -3.02347 0
M  V30 8177 N 761.222 1.57436 0.0718424 0
M  V30 8178 C 762.469 1.87248 0.771007 0
M  V30 8179 C 762.797 0.793441 1.7758 0
M  V30 8180 O 762.052 -0.210565 1.94564 0
M  V30 8181 C 762.351 3.23723 1.51455 0
M  V30 8182 C 762.017 4.46194 0.649736 0
M  V30 8183 C 760.679 4.79438 0.411409 0
M  V30 8184 C 763.031 5.21176 0.05004 0
M  V30 8185 C 760.359 5.85077 -0.436096 0
M  V30 8186 C 762.711 6.27712 -0.784919 0
M  V30 8187 C 761.375 6.59457 -1.03312 0
M  V30 8188 H 760.645 0.685188 0.282132 0
M  V30 8189 H 763.292 1.91474 0.0317896 0
M  V30 8190 H 761.597 3.15287 2.32597 0
M  V30 8191 H 763.294 3.44023 2.06031 0
M  V30 8192 H 759.884 4.20175 0.84562 0
M  V30 8193 H 764.068 4.95806 0.221282 0
M  V30 8194 H 759.324 6.08071 -0.637136 0
M  V30 8195 H 763.498 6.84974 -1.25635 0
M  V30 8196 H 761.125 7.4114 -1.6916 0
M  V30 8197 N 762.7 -0.34323 1.53817 0
M  V30 8198 C 763.946 -1.08504 1.71332 0
M  V30 8199 C 764.279 -1.88294 0.475285 0
M  V30 8200 O 763.554 -1.87205 -0.527688 0
M  V30 8201 C 763.837 -2.02597 2.97702 0
M  V30 8202 C 763.69 -1.26268 4.31713 0
M  V30 8203 C 765.009 -3.0241 3.19744 0
M  V30 8204 H 762.128 -0.393072 0.623429 0
M  V30 8205 H 764.77 -0.363579 1.86489 0
M  V30 8206 H 762.92 -2.64118 2.8491 0
M  V30 8207 H 764.592 -0.673594 4.56356 0
M  V30 8208 H 762.835 -0.564696 4.30109 0
M  V30 8209 H 763.506 -1.95253 5.16314 0
M  V30 8210 H 765.982 -2.51004 3.31868 0
M  V30 8211 H 764.858 -3.65449 4.09558 0
M  V30 8212 H 765.119 -3.73806 2.36054 0
M  V30 8213 N 764.178 -1.45556 -0.604258 0
M  V30 8214 C 765.108 -1.57327 -1.72541 0
M  V30 8215 C 766.089 -0.424637 -1.64714 0
M  V30 8216 O 767.274 -0.648196 -1.83063 0
M  V30 8217 C 764.404 -1.54279 -3.11152 0
M  V30 8218 C 763.358 -2.67893 -3.33792 0
M  V30 8219 C 762.684 -2.499 -4.72709 0
M  V30 8220 C 763.984 -4.0988 -3.23722 0
M  V30 8221 H 765.678 -2.51175 -1.62947 0
M  V30 8222 H 763.224 -1.20884 -0.782504 0
M  V30 8223 H 765.177 -1.6111 -3.89386 0
M  V30 8224 H 763.901 -0.569627 -3.21594 0
M  V30 8225 H 762.56 -2.60495 -2.57949 0
M  V30 8226 H 762.208 -1.50715 -4.79889 0
M  V30 8227 H 761.908 -3.26091 -4.88813 0
M  V30 8228 H 763.432 -2.5859 -5.5314 0
M  V30 8229 H 764.846 -4.18503 -3.91826 0
M  V30 8230 H 763.243 -4.86487 -3.51355 0
M  V30 8231 H 764.313 -4.31553 -2.21111 0
M  V30 8232 N 765.656 0.84705 -1.32902 0
M  V30 8233 C 766.886 1.63166 -1.26729 0
M  V30 8234 C 767.294 1.88474 0.165595 0
M  V30 8235 O 766.637 1.45947 1.11558 0
M  V30 8236 C 766.699 3.0103 -1.96522 0
M  V30 8237 C 766.363 2.9873 -3.45846 0
M  V30 8238 C 767.36 2.75032 -4.41196 0
M  V30 8239 C 765.045 3.19125 -3.87898 0
M  V30 8240 C 767.039 2.71743 -5.76571 0
M  V30 8241 C 764.726 3.15462 -5.2338 0
M  V30 8242 C 765.724 2.91801 -6.17528 0
M  V30 8243 O 765.412 2.88027 -7.5053 0
M  V30 8244 H 765.144 0.51469 -0.438258 0
M  V30 8245 H 767.698 1.06383 -1.75704 0
M  V30 8246 H 765.928 3.59634 -1.42128 0
M  V30 8247 H 767.617 3.61821 -1.83958 0
M  V30 8248 H 768.383 2.59034 -4.10032 0
M  V30 8249 H 764.262 3.36565 -3.15032 0
M  V30 8250 H 767.806 2.53194 -6.5003 0
M  V30 8251 H 763.703 3.31006 -5.54171 0
M  V30 8252 H 764.471 3.03927 -7.59981 0
M  V30 8253 N 767.134 1.16236 1.06428 0
M  V30 8254 C 768.081 0.86769 2.13869 0
M  V30 8255 C 769.051 -0.183298 1.65086 0
M  V30 8256 O 770.236 -0.0488002 1.90738 0
M  V30 8257 C 767.376 0.373427 3.43074 0
M  V30 8258 C 766.489 1.48708 4.05598 0
M  V30 8259 C 765.624 0.947977 5.22673 0
M  V30 8260 C 764.663 2.03793 5.77178 0
M  V30 8261 N 763.8 1.51451 6.85571 0
M  V30 8262 H 768.64 1.78781 2.38414 0
M  V30 8263 H 766.177 0.891892 1.16977 0
M  V30 8264 H 768.135 0.0685035 4.17144 0
M  V30 8265 H 766.765 -0.509752 3.1875 0
M  V30 8266 H 765.817 1.908 3.29089 0
M  V30 8267 H 767.129 2.30964 4.42105 0
M  V30 8268 H 766.283 0.596154 6.03764 0
M  V30 8269 H 765.022 0.0947081 4.87608 0
M  V30 8270 H 764.027 2.39847 4.94726 0
M  V30 8271 H 765.252 2.89514 6.14295 0
M  V30 8272 H 763.198 0.683755 6.52427 0
M  V30 8273 H 763.115 2.27325 7.21013 0
M  V30 8274 H 764.383 1.19123 7.70344 0
M  V30 8275 N 768.612 -1.24939 0.960631 0
M  V30 8276 C 769.842 -1.96595 0.635123 0
M  V30 8277 C 770.25 -1.71538 -0.798206 0
M  V30 8278 O 769.593 -0.991727 -1.5463 0
M  V30 8279 C 769.655 -3.49994 0.821248 0
M  V30 8280 C 769.319 -3.98738 2.23287 0
M  V30 8281 C 770.316 -4.08965 3.21004 0
M  V30 8282 C 768.001 -4.32247 2.55867 0
M  V30 8283 C 769.995 -4.52025 4.49391 0
M  V30 8284 C 767.682 -4.74991 3.84482 0
M  V30 8285 C 768.68 -4.84844 4.81056 0
M  V30 8286 O 768.368 -5.26638 6.07378 0
M  V30 8287 H 768.1 -0.633265 0.23654 0
M  V30 8288 H 770.654 -1.5991 1.28911 0
M  V30 8289 H 768.884 -3.86543 0.110105 0
M  V30 8290 H 770.573 -4.02859 0.495892 0
M  V30 8291 H 771.339 -3.83302 2.97161 0
M  V30 8292 H 767.218 -4.23801 1.81421 0
M  V30 8293 H 770.762 -4.5963 5.24773 0
M  V30 8294 H 766.659 -5.00101 4.08129 0
M  V30 8295 H 767.427 -5.44807 6.10842 0
M  V30 8296 N 770.09 -0.729906 -1.39679 0
M  V30 8297 C 771.037 -0.0866063 -2.30637 0
M  V30 8298 C 772.007 0.735115 -1.48947 0
M  V30 8299 O 773.192 0.696125 -1.77648 0
M  V30 8300 C 770.332 0.818524 -3.35252 0
M  V30 8301 C 769.445 -0.0152635 -4.31997 0
M  V30 8302 C 768.58 0.890669 -5.2368 0
M  V30 8303 C 767.619 0.0518246 -6.12078 0
M  V30 8304 N 766.756 0.913411 -6.96133 0
M  V30 8305 H 771.596 -0.867925 -2.85081 0
M  V30 8306 H 769.133 -0.439673 -1.40376 0
M  V30 8307 H 771.091 1.3577 -3.9449 0
M  V30 8308 H 769.721 1.56587 -2.82277 0
M  V30 8309 H 768.773 -0.671794 -3.74421 0
M  V30 8310 H 770.085 -0.664086 -4.9436 0
M  V30 8311 H 769.239 1.49787 -5.87919 0
M  V30 8312 H 767.978 1.57328 -4.61627 0
M  V30 8313 H 766.983 -0.568209 -5.46856 0
M  V30 8314 H 768.208 -0.627497 -6.76195 0
M  V30 8315 H 766.154 1.58141 -6.36653 0
M  V30 8316 H 766.071 0.320952 -7.55318 0
M  V30 8317 H 767.339 1.50633 -7.64807 0
M  V30 8318 N 771.568 1.50203 -0.477153 0
M  V30 8319 C 772.498 2.31517 0.303646 0
M  V30 8320 C 773.479 1.38696 0.984753 0
M  V30 8321 O 774.664 1.67615 0.980758 0
M  V30 8322 C 771.794 3.18598 1.38249 0
M  V30 8323 C 770.748 4.2002 0.822645 0
M  V30 8324 C 770.074 4.95878 2.00024 0
M  V30 8325 C 771.374 5.22023 -0.170185 0
M  V30 8326 H 773.068 2.97042 -0.375027 0
M  V30 8327 H 770.614 1.42848 -0.181802 0
M  V30 8328 H 772.567 3.74282 1.93625 0
M  V30 8329 H 771.291 2.5097 2.09002 0
M  V30 8330 H 769.95 3.65445 0.290813 0
M  V30 8331 H 769.598 4.24717 2.69489 0
M  V30 8332 H 769.298 5.64487 1.63183 0
M  V30 8333 H 770.822 5.54399 2.55878 0
M  V30 8334 H 772.236 5.72543 0.294606 0
M  V30 8335 H 770.633 5.98386 -0.453181 0
M  V30 8336 H 771.703 4.72396 -1.09408 0
M  V30 8337 N 773.046 0.209999 1.56195 0
M  V30 8338 C 773.976 -0.699746 2.22769 0
M  V30 8339 C 774.957 -1.20993 1.1956 0
M  V30 8340 O 776.142 -1.25605 1.48112 0
M  V30 8341 C 773.272 -1.91302 2.89863 0
M  V30 8342 C 772.226 -1.53715 3.99444 0
M  V30 8343 C 771.552 -2.82826 4.53777 0
M  V30 8344 C 772.852 -0.735836 5.17091 0
M  V30 8345 H 774.546 -0.144716 2.9905 0
M  V30 8346 H 772.092 -0.0681645 1.43839 0
M  V30 8347 H 774.045 -2.5548 3.35124 0
M  V30 8348 H 772.769 -2.49283 2.11011 0
M  V30 8349 H 771.428 -0.918892 3.54897 0
M  V30 8350 H 771.076 -3.38927 3.71669 0
M  V30 8351 H 770.776 -2.58415 5.27727 0
M  V30 8352 H 772.3 -3.47966 5.01749 0
M  V30 8353 H 773.714 -1.28105 5.58804 0
M  V30 8354 H 772.111 -0.589272 5.972 0
M  V30 8355 H 773.181 0.260004 4.84202 0
M  V30 8356 N 774.524 -1.57472 -0.0634922 0
M  V30 8357 C 775.935 -1.76303 -0.614337 0
M  V30 8358 C 776.286 -0.836578 -1.77471 0
M  V30 8359 O 775.411 -0.0227184 -2.16388 0
M  V30 8360 C 776.006 -3.19709 -1.12122 0
M  V30 8361 C 774.565 -3.39856 -1.61786 0
M  V30 8362 C 773.712 -2.71975 -0.540845 0
M  V30 8363 H 776.663 -1.57864 0.162702 0
M  V30 8364 H 776.684 -3.24326 -1.98979 0
M  V30 8365 H 776.196 -3.87114 -0.276472 0
M  V30 8366 H 774.297 -2.77578 -2.48558 0
M  V30 8367 H 774.41 -4.48338 -1.68908 0
M  V30 8368 H 772.774 -2.34763 -0.987854 0
M  V30 8369 H 773.557 -3.4204 0.293856 0
M  V30 8370 N 776.003 0.335068 -1.53997 0
M  V30 8371 C 777.419 0.678704 -1.4445 0
M  V30 8372 C 777.619 1.92106 -0.608078 0
M  V30 8373 O 776.675 2.52292 -0.102373 0
M  V30 8374 C 777.988 0.863435 -2.88037 0
M  V30 8375 C 779.536 0.961513 -2.97866 0
M  V30 8376 C 780.011 1.1785 -4.42578 0
M  V30 8377 N 781.502 1.2455 -4.46141 0
M  V30 8378 C 782.237 1.43106 -5.55255 0
M  V30 8379 N 781.733 1.5878 -6.74359 0
M  V30 8380 N 783.526 1.45722 -5.42883 0
M  V30 8381 H 775.677 -0.481656 -2.06867 0
M  V30 8382 H 777.94 -0.153615 -0.935471 0
M  V30 8383 H 777.646 0.0219511 -3.51693 0
M  V30 8384 H 777.52 1.76268 -3.33481 0
M  V30 8385 H 779.907 1.79351 -2.34344 0
M  V30 8386 H 779.988 0.0389862 -2.5577 0
M  V30 8387 H 779.632 0.351397 -5.06683 0
M  V30 8388 H 779.562 2.11472 -4.82273 0
M  V30 8389 H 782.053 1.13928 -3.60318 0
M  V30 8390 H 782.366 1.72599 -7.53279 0
M  V30 8391 H 780.711 1.559 -6.77289 0
M  V30 8392 H 783.902 1.33065 -4.48789 0
M  V30 8393 H 784.075 1.59841 -6.27977 0
M  V30 8394 N 777.481 1.45874 0.596531 0
M  V30 8395 C 778.706 1.54247 1.38646 0
M  V30 8396 C 779.131 0.179571 1.87241 0
M  V30 8397 O 778.489 -0.837831 1.6078 0
M  V30 8398 C 778.537 2.54015 2.55946 0
M  V30 8399 O 777.641 2.06561 3.5694 0
M  V30 8400 H 776.982 0.519555 0.413471 0
M  V30 8401 H 779.512 1.91327 0.724936 0
M  V30 8402 H 779.522 2.73179 3.03047 0
M  V30 8403 H 778.197 3.52994 2.19928 0
M  V30 8404 H 776.774 1.97324 3.16414 0
M  V30 8405 O 778.998 -0.740596 1.43518 0
M  V30 8406 H 779.689 -1.39004 1.34898 0
M  V30 END ATOM
M  V30 BEGIN BOND
M  V30 END BOND
M  V30 END CTAB
M  END
$$$$
