drugbank_target|P03433 Polymerase acidic protein (DB13997)
 OpenBabel12092121203D

  0  0  0     0  0            999 V3000
M  V30 BEGIN CTAB
M  V30 COUNTS 11527 11650 0 0 0
M  V30 BEGIN ATOM
M  V30 1 H -0.908 1.98254 -0.117106 0
M  V30 2 N 0 1.576 0 0
M  V30 3 C 0.933 2.03868 1.02534 0
M  V30 4 C 1.911 0.928543 1.3348 0
M  V30 5 O 3.095 1.19667 1.45644 0
M  V30 6 C 0.222 2.43627 2.35294 0
M  V30 7 C -0.732 3.65373 2.2001 0
M  V30 8 S 0.101 5.13292 1.52614 0
M  V30 9 C 1.257 5.56322 2.86805 0
M  V30 10 H 1.49 2.90518 0.631377 0
M  V30 11 H -0.977 1.52953 0.210867 0
M  V30 12 H 0.981 2.67203 3.11629 0
M  V30 13 H -0.358 1.57376 2.7183 0
M  V30 14 H -1.165 3.90944 3.18086 0
M  V30 15 H -1.563 3.418 1.51819 0
M  V30 16 H 0.729 5.58782 3.83104 0
M  V30 17 H 1.672 6.56266 2.65933 0
M  V30 18 H 2.08 4.83886 2.90714 0
M  V30 19 N 1.4781 -0.272755 1.55222 0
M  V30 20 C 2.3881 -1.35918 1.91216 0
M  V30 21 C 3.4041 -1.54026 0.809436 0
M  V30 22 O 4.5801 -1.68148 1.10852 0
M  V30 23 C 1.6451 -2.69834 2.17693 0
M  V30 24 C 0.7061 -2.6047 3.41253 0
M  V30 25 C -0.0609 -3.88 3.66458 0
M  V30 26 O 0.1621 -4.88693 2.94169 0
M  V30 27 O -0.9039 -3.88189 4.59992 0
M  V30 28 H 2.9221 -1.0839 2.83699 0
M  V30 29 H 0.5071 -0.471301 1.41771 0
M  V30 30 H 2.3891 -3.49017 2.36147 0
M  V30 31 H 1.0641 -2.97148 1.28392 0
M  V30 32 H -0.0289 -1.79663 3.28134 0
M  V30 33 H 1.3041 -2.38106 4.30774 0
M  V30 34 N 2.9562 -1.48159 -0.537278 0
M  V30 35 C 4.2332 -1.46291 -1.29839 0
M  V30 36 C 4.6132 -0.170613 -2.10409 0
M  V30 37 O 3.9612 0.847746 -2.12192 0
M  V30 38 C 4.1712 -2.72055 -2.18603 0
M  V30 39 C 5.5192 -3.20087 -2.7898 0
M  V30 40 O 6.5432 -2.72921 -2.28894 0
M  V30 41 O 5.4022 -4.02138 -3.70064 0
M  V30 42 H 2.4962 -0.583906 -0.585647 0
M  V30 43 H 5.0422 -1.60384 -0.554534 0
M  V30 44 H 3.8142 -3.57628 -1.58801 0
M  V30 45 H 3.4372 -2.60646 -3.00249 0
M  V30 46 N 4.4343 0.785586 -1.36625 0
M  V30 47 C 5.6813 1.54362 -1.31067 0
M  V30 48 C 6.0093 1.94195 0.10893 0
M  V30 49 O 5.2643 1.63262 1.07908 0
M  V30 50 C 5.5633 2.83007 -2.1827 0
M  V30 51 C 5.2293 2.62294 -3.6676 0
M  V30 52 C 3.8913 2.56353 -4.0723 0
M  V30 53 C 6.2433 2.43371 -4.6089 0
M  V30 54 C 3.5713 2.29461 -5.39967 0
M  V30 55 C 5.9233 2.18005 -5.93849 0
M  V30 56 C 4.5873 2.105 -6.3344 0
M  V30 57 H 3.8573 0.564851 -0.479609 0
M  V30 58 H 6.5043 0.906028 -1.68711 0
M  V30 59 H 4.8093 3.51253 -1.73576 0
M  V30 60 H 6.5063 3.40817 -2.11292 0
M  V30 61 H 3.0963 2.67774 -3.34656 0
M  V30 62 H 7.2803 2.46959 -4.30494 0
M  V30 63 H 2.5363 2.22135 -5.69619 0
M  V30 64 H 6.7103 2.02359 -6.66351 0
M  V30 65 H 4.3373 1.89425 -7.36222 0
M  V30 66 N 5.9124 1.20967 1.01018 0
M  V30 67 C 7.1584 1.02526 1.74975 0
M  V30 68 C 7.4914 -0.4408 1.89131 0
M  V30 69 O 6.7664 -1.32718 1.42184 0
M  V30 70 C 7.0494 1.71699 3.1653 0
M  V30 71 C 6.9024 3.25791 3.10129 0
M  V30 72 C 8.2214 1.45531 4.15342 0
M  V30 73 H 5.3404 0.373863 0.635134 0
M  V30 74 H 7.9824 1.49071 1.17805 0
M  V30 75 H 6.1324 1.32128 3.65341 0
M  V30 76 H 7.8044 3.74697 2.69072 0
M  V30 77 H 6.0474 3.56363 2.47362 0
M  V30 78 H 6.7184 3.69353 4.10222 0
M  V30 79 H 9.1944 1.79872 3.75213 0
M  V30 80 H 8.0704 1.96453 5.1254 0
M  V30 81 H 8.3314 0.384237 4.40427 0
M  V30 82 N 7.3905 -1.2043 1.01659 0
M  V30 83 C 8.8065 -1.41852 0.731442 0
M  V30 84 C 9.0065 -1.89358 -0.688898 0
M  V30 85 O 8.0625 -2.06247 -1.45666 0
M  V30 86 C 9.3755 -2.44019 1.75714 0
M  V30 87 C 10.9235 -2.57785 1.77527 0
M  V30 88 C 11.3985 -3.63194 2.79023 0
M  V30 89 N 12.8895 -3.70678 2.77763 0
M  V30 90 C 13.6245 -4.51897 3.52954 0
M  V30 91 N 13.1205 -5.36921 4.37821 0
M  V30 92 N 14.9135 -4.4643 3.41551 0
M  V30 93 H 7.0645 -0.879093 1.93354 0
M  V30 94 H 9.3275 -0.448425 0.835236 0
M  V30 95 H 9.0335 -2.1611 2.77469 0
M  V30 96 H 8.9075 -3.43007 1.56927 0
M  V30 97 H 11.2945 -2.85023 0.764569 0
M  V30 98 H 11.3755 -1.58992 2.00387 0
M  V30 99 H 11.0195 -3.36699 3.80258 0
M  V30 100 H 10.9495 -4.61609 2.53425 0
M  V30 101 H 13.4405 -3.09944 2.16201 0
M  V30 102 H 13.7535 -5.95981 4.91962 0
M  V30 103 H 12.0985 -5.36424 4.41899 0
M  V30 104 H 15.2895 -3.79042 2.74672 0
M  V30 105 H 15.4625 -5.09491 4.00404 0
M  V30 106 N 8.8686 -0.792821 -1.36206 0
M  V30 107 C 9.8006 -0.151469 -2.28699 0
M  V30 108 C 10.8136 0.641262 -1.49638 0
M  V30 109 O 12.0026 0.475885 -1.72039 0
M  V30 110 C 9.1026 0.808424 -3.29117 0
M  V30 111 C 8.2756 0.0650202 -4.37352 0
M  V30 112 C 7.3346 0.941358 -5.17711 0
M  V30 113 O 6.3606 0.397352 -5.67811 0
M  V30 114 N 7.5626 2.2652 -5.3448 0
M  V30 115 H 10.3276 -0.945982 -2.84379 0
M  V30 116 H 7.8886 -0.647032 -1.48409 0
M  V30 117 H 9.8806 1.3986 -3.79765 0
M  V30 118 H 8.4506 1.5038 -2.74052 0
M  V30 119 H 7.6706 -0.706255 -3.87822 0
M  V30 120 H 8.9586 -0.447847 -5.06825 0
M  V30 121 H 8.3566 2.73128 -4.95396 0
M  V30 122 H 6.9136 2.80493 -5.88359 0
M  V30 123 N 10.3467 1.47872 -0.545128 0
M  V30 124 C 11.5867 2.04391 -0.0187854 0
M  V30 125 C 11.9507 1.41162 1.30144 0
M  V30 126 O 13.1517 1.88656 1.91474 0
M  V30 127 C 11.4227 3.57299 0.0850867 0
M  V30 128 S 12.9817 4.35221 0.559302 0
M  V30 129 H 9.7997 0.710737 -0.0193301 0
M  V30 130 H 12.4017 1.81395 -0.729125 0
M  V30 131 H 11.1057 4.00847 -0.880351 0
M  V30 132 H 10.6367 3.84773 0.819348 0
M  V30 133 H 12.6517 4.61571 1.82118 0
M  V30 134 N 11.8248 0.280983 1.55075 0
M  V30 135 C 13.0718 -0.334115 1.99725 0
M  V30 136 C 13.3998 -1.5542 1.1694 0
M  V30 137 O 12.6548 -1.94361 0.228531 0
M  V30 138 C 12.9538 -0.754656 3.49342 0
M  V30 139 C 12.6198 0.361445 4.49449 0
M  V30 140 C 11.2818 0.667893 4.76542 0
M  V30 141 C 13.6338 1.11322 5.09173 0
M  V30 142 C 10.9618 1.7296 5.60626 0
M  V30 143 C 13.3138 2.1647 5.9441 0
M  V30 144 C 11.9778 2.47742 6.19822 0
M  V30 145 H 11.2478 -0.122261 0.730844 0
M  V30 146 H 13.8948 0.395917 1.87363 0
M  V30 147 H 12.1998 -1.56446 3.5921 0
M  V30 148 H 13.8968 -1.24142 3.813 0
M  V30 149 H 10.4868 0.112481 4.28452 0
M  V30 150 H 14.6708 0.88973 4.8826 0
M  V30 151 H 9.9268 1.97684 5.78559 0
M  V30 152 H 14.1008 2.75193 6.3972 0
M  V30 153 H 11.7278 3.30145 6.84769 0
M  V30 154 N 13.3029 -1.57598 0.00835791 0
M  V30 155 C 14.2509 -2.10078 -0.998508 0
M  V30 156 C 15.2449 -1.02262 -1.35051 0
M  V30 157 O 16.4509 -1.20719 -1.33518 0
M  V30 158 H 12.8259 -0.670903 -0.339696 0
M  V30 159 H 14.7969 -2.93648 -0.530398 0
M  V30 160 C 13.5459 -2.62615 -2.27879 0
M  V30 161 H 12.8689 -3.45213 -2.01662 0
M  V30 162 H 14.3089 -3.03004 -2.96588 0
M  V30 163 C 12.7679 -1.54407 -2.99433 0
M  V30 164 O 13.2979 -0.931812 -3.90743 0
M  V30 165 N 11.5039 -1.2695 -2.61404 0
M  V30 166 H 11.0509 -1.76924 -1.87232 0
M  V30 167 H 11.0089 -0.547704 -3.09593 0
M  V30 168 N 14.781 0.264519 -1.55364 0
M  V30 169 C 16.192 0.834936 -1.6699 0
M  V30 170 C 16.543 1.86718 -0.602552 0
M  V30 171 O 15.668 2.14899 0.254425 0
M  V30 172 C 16.263 1.5212 -3.02729 0
M  V30 173 C 14.822 2.03954 -3.16354 0
M  V30 174 C 13.969 0.884498 -2.62815 0
M  V30 175 H 16.92 0.0406869 -1.58648 0
M  V30 176 H 16.941 2.38853 -2.96191 0
M  V30 177 H 16.453 0.769668 -3.80392 0
M  V30 178 H 14.554 2.82041 -2.43482 0
M  V30 179 H 14.667 2.24902 -4.23032 0
M  V30 180 H 13.031 1.2802 -2.20188 0
M  V30 181 H 13.814 0.14634 -3.42988 0
M  V30 182 N 16.2591 1.48442 0.529413 0
M  V30 183 C 17.1921 1.57577 1.65059 0
M  V30 184 C 18.1701 0.426198 1.56915 0
M  V30 185 O 19.3541 0.637877 1.77379 0
M  V30 186 C 16.4811 1.5043 3.03461 0
M  V30 187 C 15.5271 2.70235 3.29962 0
M  V30 188 S 16.3601 4.32198 3.16172 0
M  V30 189 C 17.5161 4.2765 4.57019 0
M  V30 190 H 17.7491 2.52427 1.5706 0
M  V30 191 H 15.2821 1.36982 0.712417 0
M  V30 192 H 17.2401 1.46992 3.8328 0
M  V30 193 H 15.9011 0.569167 3.089 0
M  V30 194 H 15.0941 2.61374 4.30929 0
M  V30 195 H 14.6961 2.70938 2.57815 0
M  V30 196 H 16.9881 3.97618 5.48549 0
M  V30 197 H 17.9311 5.28797 4.70934 0
M  V30 198 H 18.3391 3.5811 4.36368 0
M  V30 199 N 17.7372 -0.778329 1.37039 0
M  V30 200 C 18.9862 -1.53189 1.3121 0
M  V30 201 C 19.2992 -1.95328 -0.103095 0
M  V30 202 O 20.5052 -2.70012 -0.283826 0
M  V30 203 C 18.9612 -2.76591 2.30272 0
M  V30 204 C 18.5692 -2.41577 3.77286 0
M  V30 205 C 20.3132 -3.5455 2.33441 0
M  V30 206 C 18.2202 -3.61441 4.68096 0
M  V30 207 H 17.1502 -0.5751 0.487622 0
M  V30 208 H 19.8012 -0.853101 1.62464 0
M  V30 209 H 18.1832 -3.46326 1.92027 0
M  V30 210 H 19.3572 -1.79668 4.2433 0
M  V30 211 H 17.6722 -1.76806 3.76999 0
M  V30 212 H 20.2692 -4.43628 2.98493 0
M  V30 213 H 20.6122 -3.93936 1.34611 0
M  V30 214 H 21.1452 -2.91805 2.7036 0
M  V30 215 H 17.8842 -3.27142 5.6803 0
M  V30 216 H 17.4042 -4.22478 4.25761 0
M  V30 217 H 19.0832 -4.28335 4.8491 0
M  V30 218 N 19.2153 -1.21501 -1.00376 0
M  V30 219 C 20.4613 -1.03452 -1.74429 0
M  V30 220 C 20.7943 0.430764 -1.89362 0
M  V30 221 O 20.0693 1.31962 -1.42886 0
M  V30 222 C 20.3523 -1.73375 -3.15615 0
M  V30 223 C 20.2053 -3.27431 -3.08397 0
M  V30 224 C 21.5243 -1.47732 -4.14564 0
M  V30 225 H 18.6433 -0.377226 -0.633143 0
M  V30 226 H 21.2853 -1.49693 -1.17013 0
M  V30 227 H 19.4353 -1.34064 -3.64636 0
M  V30 228 H 21.1073 -3.76119 -2.67081 0
M  V30 229 H 19.3503 -3.5767 -2.45468 0
M  V30 230 H 20.0213 -3.71524 -4.08258 0
M  V30 231 H 22.4973 -1.8186 -3.74254 0
M  V30 232 H 21.3733 -1.99169 -5.11491 0
M  V30 233 H 21.6343 -0.407589 -4.40217 0
M  V30 234 N 20.6934 1.19889 -1.02296 0
M  V30 235 C 21.6034 2.26571 -0.608508 0
M  V30 236 C 22.6194 1.70299 0.356964 0
M  V30 237 O 23.7954 2.00235 0.216326 0
M  V30 238 C 20.8604 3.46677 0.0402814 0
M  V30 239 C 19.9214 4.18153 -0.97194 0
M  V30 240 C 19.1544 5.32525 -0.354016 0
M  V30 241 O 19.3774 5.64112 0.844604 0
M  V30 242 O 18.3114 5.92242 -1.07391 0
M  V30 243 H 22.1374 2.64251 -1.49684 0
M  V30 244 H 19.7224 1.26629 -0.792809 0
M  V30 245 H 21.6044 4.19475 0.402324 0
M  V30 246 H 20.2794 3.10858 0.902707 0
M  V30 247 H 19.1864 3.47499 -1.38546 0
M  V30 248 H 20.5194 4.57927 -1.80454 0
M  V30 249 N 22.1715 0.800033 1.35784 0
M  V30 250 C 23.1015 0.220184 2.3246 0
M  V30 251 C 24.0825 -0.65073 1.57161 0
M  V30 252 O 25.2675 -0.582359 1.85263 0
M  V30 253 C 22.3975 -0.637353 3.41402 0
M  V30 254 C 21.3515 0.134531 4.27789 0
M  V30 255 C 20.6775 -0.844285 5.27992 0
M  V30 256 C 21.9775 1.32979 5.05088 0
M  V30 257 H 23.6715 1.02787 2.81203 0
M  V30 258 H 21.2175 0.495717 1.35199 0
M  V30 259 H 23.1705 -1.05302 4.08031 0
M  V30 260 H 21.8945 -1.47785 2.91251 0
M  V30 261 H 20.5535 0.531296 3.6273 0
M  V30 262 H 20.2015 -1.68011 4.74111 0
M  V30 263 H 19.9015 -0.332184 5.8666 0
M  V30 264 H 21.4255 -1.2583 5.97494 0
M  V30 265 H 22.8395 0.98934 5.64699 0
M  V30 266 H 21.2365 1.77593 5.7322 0
M  V30 267 H 22.3065 2.11978 4.36111 0
M  V30 268 N 23.6496 -1.47581 0.552962 0
M  V30 269 C 24.6126 -2.28439 -0.186605 0
M  V30 270 C 25.6126 -1.36706 -0.84665 0
M  V30 271 O 26.8026 -1.59378 -0.703164 0
M  V30 272 C 23.9346 -3.16264 -1.2724 0
M  V30 273 H 25.1276 -2.95294 0.523609 0
M  V30 274 H 22.6806 -1.532 0.309745 0
M  V30 275 H 23.4156 -2.54091 -2.01514 0
M  V30 276 H 23.2006 -3.83769 -0.803968 0
M  V30 277 H 24.6906 -3.77198 -1.79196 0
M  V30 278 N 25.1277 -0.289203 -1.54924 0
M  V30 279 C 26.0377 0.601863 -2.26748 0
M  V30 280 C 27.0537 1.15834 -1.2984 0
M  V30 281 O 28.2297 1.18564 -1.62802 0
M  V30 282 C 25.2947 1.76299 -2.98529 0
M  V30 283 C 24.3557 1.24178 -4.10948 0
M  V30 284 C 23.5887 2.34757 -4.79296 0
M  V30 285 O 23.8117 3.54411 -4.46933 0
M  V30 286 O 22.7457 2.02115 -5.66951 0
M  V30 287 H 26.5717 0.0195879 -3.03694 0
M  V30 288 H 24.1567 -0.0560868 -1.49295 0
M  V30 289 H 26.0387 2.43973 -3.43592 0
M  V30 290 H 24.7137 2.33209 -2.24488 0
M  V30 291 H 23.6207 0.531104 -3.70311 0
M  V30 292 H 24.9537 0.718252 -4.86931 0
M  V30 293 N 26.6058 1.57591 -0.0167156 0
M  V30 294 C 27.5528 2.09462 0.969251 0
M  V30 295 C 28.5228 0.99381 1.33089 0
M  V30 296 O 29.7078 1.26726 1.42636 0
M  V30 297 C 26.8478 2.61622 2.25051 0
M  V30 298 C 25.9608 3.85666 1.94642 0
M  V30 299 C 25.0958 4.26266 3.16972 0
M  V30 300 C 24.1348 5.43101 2.82326 0
M  V30 301 N 23.2718 5.78915 3.97243 0
M  V30 302 H 28.1118 2.93428 0.519997 0
M  V30 303 H 25.6488 1.45044 0.245087 0
M  V30 304 H 27.6068 2.89949 2.99976 0
M  V30 305 H 26.2368 1.80505 2.67615 0
M  V30 306 H 25.2888 3.64145 1.10013 0
M  V30 307 H 26.6008 4.70678 1.65117 0
M  V30 308 H 25.7548 4.55963 4.00228 0
M  V30 309 H 24.4938 3.39996 3.49648 0
M  V30 310 H 23.4988 5.1311 1.97479 0
M  V30 311 H 24.7238 6.3106 2.50879 0
M  V30 312 H 22.6698 4.95602 4.29785 0
M  V30 313 H 22.5868 6.58539 3.71299 0
M  V30 314 H 23.8548 6.13212 4.81239 0
M  V30 315 N 28.0839 -0.256276 1.55502 0
M  V30 316 C 29.3119 -1.00342 1.8094 0
M  V30 317 C 29.7269 -1.79307 0.59114 0
M  V30 318 O 29.0839 -1.77114 -0.440081 0
M  V30 319 C 29.1349 -1.94875 3.04476 0
M  V30 320 O 28.8559 -1.19107 4.21598 0
M  V30 321 C 30.3569 -2.81266 3.42644 0
M  V30 322 H 27.5769 -0.295685 0.602338 0
M  V30 323 H 30.1209 -0.281998 2.02546 0
M  V30 324 H 28.2759 -2.62457 2.84947 0
M  V30 325 H 28.6899 -1.82969 4.91551 0
M  V30 326 H 30.1639 -3.43362 4.32211 0
M  V30 327 H 30.6409 -3.51897 2.62802 0
M  V30 328 H 31.2469 -2.1915 3.64491 0
M  V30 329 N 29.562 -1.4872 -0.521534 0
M  V30 330 C 30.495 -1.58451 -1.64221 0
M  V30 331 C 31.473 -0.434513 -1.56687 0
M  V30 332 O 32.657 -0.647275 -1.77038 0
M  V30 333 C 29.784 -1.52037 -3.02659 0
M  V30 334 C 28.83 -2.71981 -3.28525 0
M  V30 335 S 29.663 -4.33869 -3.13876 0
M  V30 336 C 30.819 -4.30067 -4.54745 0
M  V30 337 H 31.052 -2.53256 -1.55719 0
M  V30 338 H 28.585 -1.37358 -0.705143 0
M  V30 339 H 30.543 -1.49023 -3.82495 0
M  V30 340 H 29.204 -0.585541 -3.08594 0
M  V30 341 H 28.397 -2.63656 -4.29536 0
M  V30 342 H 27.999 -2.72302 -2.56374 0
M  V30 343 H 30.291 -4.00521 -5.46433 0
M  V30 344 H 31.234 -5.31287 -4.68123 0
M  V30 345 H 31.642 -3.60419 -4.34463 0
M  V30 346 N 31.0401 0.771051 -1.3745 0
M  V30 347 C 31.9871 1.88435 -1.3327 0
M  V30 348 C 32.9571 1.64914 -0.198136 0
M  V30 349 O 34.1421 1.86821 -0.387606 0
M  V30 350 C 31.2821 3.25509 -1.14622 0
M  V30 351 C 30.3951 3.60979 -2.37314 0
M  V30 352 C 29.5301 4.87265 -2.11533 0
M  V30 353 C 28.5691 5.15469 -3.30088 0
M  V30 354 N 27.7061 6.32944 -3.03853 0
M  V30 355 H 32.5461 1.91344 -2.28455 0
M  V30 356 H 30.0831 0.935466 -1.13523 0
M  V30 357 H 32.0411 4.04582 -1.01831 0
M  V30 358 H 30.6711 3.21974 -0.230837 0
M  V30 359 H 29.7231 2.76885 -2.60842 0
M  V30 360 H 31.0351 3.77759 -3.25729 0
M  V30 361 H 30.1891 5.74244 -1.95777 0
M  V30 362 H 28.9281 4.7259 -1.20457 0
M  V30 363 H 27.9331 4.26966 -3.46382 0
M  V30 364 H 29.1581 5.32052 -4.22016 0
M  V30 365 H 27.1041 6.19625 -2.15407 0
M  V30 366 H 27.0211 6.50143 -3.85812 0
M  V30 367 H 28.2891 7.22857 -2.91716 0
M  V30 368 N 32.5182 1.22032 0.997298 0
M  V30 369 C 33.4282 1.00271 2.12092 0
M  V30 370 C 34.4442 -0.047621 1.73935 0
M  V30 371 O 35.6202 0.144136 2.00884 0
M  V30 372 C 32.6852 0.578449 3.4184 0
M  V30 373 C 31.7462 1.70189 3.94125 0
M  V30 374 C 30.9792 1.29778 5.17681 0
M  V30 375 O 31.2022 0.174676 5.70132 0
M  V30 376 O 30.1362 2.11261 5.63607 0
M  V30 377 H 33.9622 1.94398 2.3333 0
M  V30 378 H 31.5472 1.00587 1.10465 0
M  V30 379 H 33.4292 0.351998 4.19927 0
M  V30 380 H 32.1042 -0.334019 3.21972 0
M  V30 381 H 31.0112 1.98282 3.1723 0
M  V30 382 H 32.3442 2.59206 4.18417 0
M  V30 383 N 33.9963 -1.19345 1.0293 0
M  V30 384 C 35.2263 -1.92717 0.744563 0
M  V30 385 C 35.6343 -1.75751 -0.700579 0
M  V30 386 O 34.9773 -1.07703 -1.48815 0
M  V30 387 C 35.0393 -3.44828 1.01657 0
M  V30 388 C 34.7033 -3.85564 2.45335 0
M  V30 389 C 35.7003 -3.90286 3.43472 0
M  V30 390 C 33.3853 -4.1719 2.79746 0
M  V30 391 C 35.3793 -4.26065 4.74075 0
M  V30 392 C 33.0663 -4.52642 4.10559 0
M  V30 393 C 34.0643 -4.57054 5.07534 0
M  V30 394 O 33.7523 -4.91685 6.36004 0
M  V30 395 H 33.4843 -0.618977 0.271742 0
M  V30 396 H 36.0383 -1.52415 1.37691 0
M  V30 397 H 34.2683 -3.85314 0.327084 0
M  V30 398 H 35.9573 -3.99437 0.721427 0
M  V30 399 H 36.7233 -3.66002 3.18225 0
M  V30 400 H 32.6023 -4.1294 2.04943 0
M  V30 401 H 36.1463 -4.29423 5.49765 0
M  V30 402 H 32.0433 -4.76383 4.35579 0
M  V30 403 H 32.8113 -5.09631 6.40483 0
M  V30 404 N 35.4744 -0.807222 -1.35358 0
M  V30 405 C 36.7224 -0.387122 -1.98358 0
M  V30 406 C 37.0434 1.04942 -1.64354 0
M  V30 407 O 36.3134 1.72615 -0.926339 0
M  V30 408 H 34.8934 -0.140154 -0.733734 0
M  V30 409 H 37.5554 -1.0332 -1.6526 0
M  V30 410 H 36.6514 -0.493352 -3.08176 0
M  V30 411 N 36.9525 1.47285 -0.560781 0
M  V30 412 C 37.8625 2.33846 0.187954 0
M  V30 413 C 38.8785 1.48412 0.908293 0
M  V30 414 O 40.0545 1.81332 0.876388 0
M  V30 415 C 37.1195 3.25178 1.2025 0
M  V30 416 C 36.1805 4.26504 0.489208 0
M  V30 417 C 35.4135 5.13472 1.45542 0
M  V30 418 O 35.6365 5.02959 2.6905 0
M  V30 419 O 34.5705 5.93902 0.977963 0
M  V30 420 H 38.3965 2.99177 -0.522177 0
M  V30 421 H 35.9815 1.45903 -0.321364 0
M  V30 422 H 37.8635 3.81584 1.78805 0
M  V30 423 H 36.5385 2.6247 1.89449 0
M  V30 424 H 35.4455 3.73847 -0.137627 0
M  V30 425 H 36.7785 4.91935 -0.161399 0
M  V30 426 N 38.4306 0.297415 1.54768 0
M  V30 427 C 39.7076 -0.365847 1.92148 0
M  V30 428 C 40.0876 -1.71975 1.22424 0
M  V30 429 O 39.4356 -2.25666 0.358739 0
M  V30 430 C 39.6456 -0.484056 3.45627 0
M  V30 431 C 40.9936 -0.756594 4.17805 0
M  V30 432 O 42.0176 -0.568007 3.51642 0
M  V30 433 O 40.8766 -1.11863 5.34929 0
M  V30 434 H 37.9706 -0.203919 0.801465 0
M  V30 435 H 40.5166 0.34521 1.66152 0
M  V30 436 H 39.2886 0.467865 3.88493 0
M  V30 437 H 38.9116 -1.24372 3.77647 0
M  V30 438 N 39.9087 -1.5758 0.0250728 0
M  V30 439 C 40.8387 -2.13007 -0.956575 0
M  V30 440 C 41.8197 -1.0452 -1.342 0
M  V30 441 O 43.0047 -1.32332 -1.42133 0
M  V30 442 C 40.1347 -2.65386 -2.24026 0
M  V30 443 C 39.0887 -3.78623 -1.99571 0
M  V30 444 C 38.4147 -4.17414 -3.3417 0
M  V30 445 C 39.7147 -5.04867 -1.33814 0
M  V30 446 H 41.4087 -2.9528 -0.494991 0
M  V30 447 H 38.9547 -1.42042 -0.236651 0
M  V30 448 H 40.9077 -3.02794 -2.93076 0
M  V30 449 H 39.6317 -1.80268 -2.72343 0
M  V30 450 H 38.2907 -3.41646 -1.32941 0
M  V30 451 H 37.9387 -3.29284 -3.80238 0
M  V30 452 H 37.6387 -4.93719 -3.18615 0
M  V30 453 H 39.1627 -4.57402 -4.04495 0
M  V30 454 H 40.5767 -5.39888 -1.92857 0
M  V30 455 H 38.9737 -5.86144 -1.28669 0
M  V30 456 H 40.0437 -4.83904 -0.310561 0
M  V30 457 N 41.3868 0.248026 -1.55636 0
M  V30 458 C 42.3338 1.30707 -1.90222 0
M  V30 459 C 43.3038 1.47881 -0.756332 0
M  V30 460 O 44.4888 1.61883 -1.00988 0
M  V30 461 C 41.6288 2.65769 -2.20138 0
M  V30 462 C 40.7418 2.56612 -3.47526 0
M  V30 463 C 39.8768 3.8402 -3.67017 0
M  V30 464 C 38.9158 3.69476 -4.8801 0
M  V30 465 N 38.0528 4.88774 -5.04029 0
M  V30 466 H 42.8928 1.00512 -2.80538 0
M  V30 467 H 40.4298 0.485055 -1.38873 0
M  V30 468 H 42.3878 3.44386 -2.35487 0
M  V30 469 H 41.0178 2.94115 -1.33027 0
M  V30 470 H 40.0698 1.69571 -3.40514 0
M  V30 471 H 41.3818 2.41774 -4.36287 0
M  V30 472 H 40.5358 4.7108 -3.8232 0
M  V30 473 H 39.2748 4.01754 -2.76487 0
M  V30 474 H 38.2798 2.80799 -4.72686 0
M  V30 475 H 39.5048 3.53238 -5.8 0
M  V30 476 H 37.4508 5.0687 -4.16435 0
M  V30 477 H 37.3678 4.76562 -5.86877 0
M  V30 478 H 38.6358 5.77335 -5.23741 0
M  V30 479 N 42.8649 1.48995 0.513639 0
M  V30 480 C 44.1139 1.57093 1.2651 0
M  V30 481 C 44.4269 0.257091 1.93903 0
M  V30 482 O 45.6329 0.216478 2.70636 0
M  V30 483 C 44.0889 2.77118 2.29638 0
M  V30 484 C 43.6969 4.15209 1.68241 0
M  V30 485 C 45.4409 2.94538 3.05692 0
M  V30 486 C 43.3479 5.26474 2.69406 0
M  V30 487 H 42.2779 0.584876 0.475854 0
M  V30 488 H 44.9289 1.7536 0.540487 0
M  V30 489 H 43.3109 2.52319 3.05207 0
M  V30 490 H 44.4849 4.50094 0.987505 0
M  V30 491 H 42.7999 4.03042 1.04623 0
M  V30 492 H 45.3969 3.74832 3.8132 0
M  V30 493 H 45.7399 2.04614 3.62545 0
M  V30 494 H 46.2729 3.19316 2.37238 0
M  V30 495 H 43.0119 6.18417 2.17351 0
M  V30 496 H 42.5319 4.96058 3.37175 0
M  V30 497 H 44.2109 5.55277 3.32078 0
M  V30 498 N 44.343 -0.763751 1.37857 0
M  V30 499 C 45.253 -1.90817 1.36478 0
M  V30 500 C 46.269 -1.71997 0.263248 0
M  V30 501 O 47.445 -1.95095 0.499979 0
M  V30 502 C 44.51 -3.2605 1.17864 0
M  V30 503 C 43.571 -3.57467 2.3773 0
M  V30 504 C 42.804 -4.86249 2.19995 0
M  V30 505 O 43.027 -5.57884 1.18836 0
M  V30 506 O 41.961 -5.16911 3.08361 0
M  V30 507 H 45.787 -1.94933 2.32884 0
M  V30 508 H 43.372 -0.907619 1.1867 0
M  V30 509 H 45.254 -4.06924 1.09504 0
M  V30 510 H 43.929 -3.22769 0.245372 0
M  V30 511 H 42.836 -2.76796 2.51664 0
M  V30 512 H 44.169 -3.655 3.29652 0
M  V30 513 N 45.8211 -1.22559 -0.990812 0
M  V30 514 C 47.0491 -1.07779 -1.76611 0
M  V30 515 C 47.4641 0.371513 -1.85109 0
M  V30 516 O 46.8211 1.25737 -1.32274 0
M  V30 517 C 46.8721 -1.68512 -3.19822 0
M  V30 518 O 46.5931 -3.07774 -3.1178 0
M  V30 519 C 48.0941 -1.59035 -4.13791 0
M  V30 520 H 45.3141 -0.377729 -0.554583 0
M  V30 521 H 47.8581 -1.62195 -1.24551 0
M  V30 522 H 46.0131 -1.18154 -3.68942 0
M  V30 523 H 46.4271 -3.37062 -4.01858 0
M  V30 524 H 47.9011 -2.0625 -5.1202 0
M  V30 525 H 48.3781 -0.547273 -4.35777 0
M  V30 526 H 48.9841 -2.08709 -3.70568 0
M  V30 527 N 47.2992 1.18797 -1.03562 0
M  V30 528 C 48.2472 2.24297 -0.615905 0
M  V30 529 C 49.2412 1.65643 0.354808 0
M  V30 530 O 50.4472 1.78618 0.22265 0
M  V30 531 H 46.8222 0.729909 -0.180934 0
M  V30 532 H 48.7932 2.5701 -1.5162 0
M  V30 533 C 47.5422 3.47698 0.0104735 0
M  V30 534 H 46.8652 3.93125 -0.727509 0
M  V30 535 H 48.3052 4.23159 0.266995 0
M  V30 536 C 46.7642 3.12489 1.25905 0
M  V30 537 O 47.2942 3.25761 2.35038 0
M  V30 538 N 45.5002 2.6686 1.15039 0
M  V30 539 H 45.0472 2.56261 0.262328 0
M  V30 540 H 45.0052 2.43674 1.98672 0
M  V30 541 N 48.7773 0.814389 1.34928 0
M  V30 542 C 49.7243 0.22822 2.29669 0
M  V30 543 C 50.6943 -0.642164 1.53184 0
M  V30 544 O 51.8793 -0.585605 1.81591 0
M  V30 545 C 49.0193 -0.61089 3.3965 0
M  V30 546 C 48.1323 0.280792 4.31086 0
M  V30 547 C 47.2673 -0.567067 5.28165 0
M  V30 548 C 46.3063 0.324531 6.11239 0
M  V30 549 N 45.4433 -0.483756 7.00431 0
M  V30 550 H 50.2833 1.04153 2.79206 0
M  V30 551 H 47.8203 0.525133 1.37407 0
M  V30 552 H 49.7783 -1.11263 4.0209 0
M  V30 553 H 48.4083 -1.38939 2.91369 0
M  V30 554 H 47.4603 0.900688 3.69583 0
M  V30 555 H 48.7723 0.966723 4.89342 0
M  V30 556 H 47.9263 -1.13363 5.96015 0
M  V30 557 H 46.6653 -1.28654 4.70425 0
M  V30 558 H 45.6703 0.903298 5.42329 0
M  V30 559 H 46.8953 1.04198 6.71059 0
M  V30 560 H 44.8413 -1.18706 6.45171 0
M  V30 561 H 44.7583 0.143965 7.55863 0
M  V30 562 H 46.0263 -1.03334 7.7262 0
M  V30 563 N 50.2554 -1.46986 0.568584 0
M  V30 564 C 51.5024 -2.02441 0.0487986 0
M  V30 565 C 51.8304 -1.44169 -1.30559 0
M  V30 566 O 51.0854 -0.591213 -1.86556 0
M  V30 567 C 51.3844 -3.57306 -0.081836 0
M  V30 568 C 51.0504 -4.34552 1.20313 0
M  V30 569 C 49.7124 -4.55376 1.5552 0
M  V30 570 C 52.0644 -4.79016 2.05411 0
M  V30 571 C 49.3924 -5.17913 2.7565 0
M  V30 572 C 51.7444 -5.42879 3.24754 0
M  V30 573 C 50.4084 -5.61933 3.60261 0
M  V30 574 H 49.6784 -0.740785 0.0178567 0
M  V30 575 H 52.3254 -1.76525 0.742384 0
M  V30 576 H 50.6304 -3.8228 -0.858463 0
M  V30 577 H 52.3274 -3.97876 -0.499546 0
M  V30 578 H 48.9174 -4.18631 0.919014 0
M  V30 579 H 53.1014 -4.62696 1.79516 0
M  V30 580 H 48.3574 -5.30858 3.03315 0
M  V30 581 H 52.5314 -5.76293 3.90973 0
M  V30 582 H 50.1584 -6.10161 4.53439 0
M  V30 583 N 51.7335 -0.305618 -1.54608 0
M  V30 584 C 52.6965 0.555591 -2.22364 0
M  V30 585 C 53.6965 1.05768 -1.21119 0
M  V30 586 O 54.8865 0.952972 -1.45822 0
M  V30 587 C 52.0185 1.76974 -2.91364 0
M  V30 588 H 53.2115 -0.0364572 -2.99878 0
M  V30 589 H 50.7645 -0.0565007 -1.56198 0
M  V30 590 H 51.4995 2.40151 -2.17941 0
M  V30 591 H 51.2845 1.41732 -3.65588 0
M  V30 592 H 52.7745 2.38148 -3.43038 0
M  V30 593 N 53.2116 1.57565 -0.0334293 0
M  V30 594 C 54.1746 2.09393 0.932048 0
M  V30 595 C 55.1746 1.00986 1.25134 0
M  V30 596 O 56.3646 1.27129 1.19096 0
M  V30 597 C 53.4966 2.56338 2.2473 0
M  V30 598 H 54.6896 2.95984 0.483085 0
M  V30 599 H 52.2426 1.54819 0.21468 0
M  V30 600 H 52.9776 1.7309 2.74245 0
M  V30 601 H 52.7626 3.35542 2.02865 0
M  V30 602 H 54.2526 2.96646 2.93923 0
M  V30 603 N 54.6897 -0.239769 1.55765 0
M  V30 604 C 55.9387 -0.964754 1.77131 0
M  V30 605 C 56.2517 -1.86213 0.59868 0
M  V30 606 O 57.4577 -2.6244 0.695522 0
M  V30 607 C 55.9137 -1.76552 3.1362 0
M  V30 608 C 55.5217 -0.915185 4.38553 0
M  V30 609 C 57.2657 -2.48281 3.44321 0
M  V30 610 C 55.1727 -1.71225 5.66071 0
M  V30 611 H 54.1027 -0.363953 0.660344 0
M  V30 612 H 56.7537 -0.219181 1.82186 0
M  V30 613 H 55.1357 -2.55331 3.02691 0
M  V30 614 H 56.3097 -0.169217 4.60489 0
M  V30 615 H 54.6247 -0.310889 4.15238 0
M  V30 616 H 57.2217 -3.08382 4.36812 0
M  V30 617 H 57.5647 -3.20256 2.65973 0
M  V30 618 H 58.0977 -1.76507 3.56497 0
M  V30 619 H 54.8367 -1.03612 6.4726 0
M  V30 620 H 54.3567 -2.43331 5.48224 0
M  V30 621 H 56.0357 -2.27758 6.05587 0
M  V30 622 N 56.1678 -1.49265 -0.50573 0
M  V30 623 C 57.4078 -1.60128 -1.27038 0
M  V30 624 C 57.7718 -0.279557 -1.89954 0
M  V30 625 O 58.9728 -0.263329 -2.67507 0
M  V30 626 C 57.2438 -2.72507 -2.31246 0
M  V30 627 S 58.8028 -3.0329 -3.17113 0
M  V30 628 H 55.6208 -0.564863 -0.4318 0
M  V30 629 H 58.2228 -1.86902 -0.573397 0
M  V30 630 H 56.9268 -3.67068 -1.83546 0
M  V30 631 H 56.4578 -2.4771 -3.05619 0
M  V30 632 H 58.4728 -2.44448 -4.31809 0
M  V30 633 N 57.6459 0.756429 -1.3826 0
M  V30 634 C 58.8739 1.54565 -1.3754 0
M  V30 635 C 59.2889 1.88767 0.0355331 0
M  V30 636 O 58.6459 1.52572 1.0014 0
M  V30 637 C 58.6969 2.84654 -2.22833 0
M  V30 638 O 58.4179 2.51912 -3.5843 0
M  V30 639 C 59.9189 3.78807 -2.30261 0
M  V30 640 H 57.1389 0.478353 -0.470553 0
M  V30 641 H 59.6829 0.936381 -1.81803 0
M  V30 642 H 57.8379 3.41965 -1.8204 0
M  V30 643 H 58.2519 3.35325 -4.03308 0
M  V30 644 H 59.7259 4.67045 -2.94233 0
M  V30 645 H 60.2029 4.19038 -1.31545 0
M  V30 646 H 60.8089 3.2742 -2.71433 0
M  V30 647 N 59.124 1.23083 0.984299 0
M  V30 648 C 60.074 0.975749 2.06066 0
M  V30 649 C 61.058 -0.0768251 1.60716 0
M  V30 650 O 62.25 0.134805 1.76486 0
M  V30 651 C 59.379 0.564673 3.38624 0
M  V30 652 C 58.465 1.65244 3.90583 0
M  V30 653 N 58.856 2.88193 4.15666 0
M  V30 654 C 57.154 1.52612 4.19077 0
M  V30 655 C 57.855 3.58593 4.58024 0
M  V30 656 N 56.831 2.86093 4.62225 0
M  V30 657 H 60.633 1.90957 2.23411 0
M  V30 658 H 58.147 1.12963 1.16675 0
M  V30 659 H 60.144 0.36322 4.15315 0
M  V30 660 H 58.804 -0.362147 3.22674 0
M  V30 661 H 59.815 3.24537 4.03604 0
M  V30 662 H 56.492 0.666121 4.12152 0
M  V30 663 H 57.882 4.63974 4.85982 0
M  V30 664 N 60.6021 -1.18246 1.0419 0
M  V30 665 C 61.5321 -2.24127 0.654914 0
M  V30 666 C 62.5131 -1.66617 -0.342451 0
M  V30 667 O 63.6981 -1.92924 -0.222277 0
M  V30 668 C 60.8281 -3.47295 0.0183757 0
M  V30 669 C 59.7821 -4.17563 0.939414 0
M  V30 670 C 59.1081 -5.34438 0.167286 0
M  V30 671 C 60.4081 -4.70917 2.25908 0
M  V30 672 H 62.1021 -2.56753 1.54007 0
M  V30 673 H 59.6481 -1.23414 0.74195 0
M  V30 674 H 61.6011 -4.20572 -0.264082 0
M  V30 675 H 60.3251 -3.13907 -0.901664 0
M  V30 676 H 58.9841 -3.46186 1.20628 0
M  V30 677 H 58.6321 -4.97298 -0.7552 0
M  V30 678 H 58.3321 -5.82388 0.780901 0
M  V30 679 H 59.8561 -6.10504 -0.108125 0
M  V30 680 H 61.2701 -5.35882 2.03724 0
M  V30 681 H 59.6671 -5.29406 2.82577 0
M  V30 682 H 60.7371 -3.88272 2.9047 0
M  V30 683 N 62.0802 -0.821533 -1.34494 0
M  V30 684 C 62.9902 -0.244355 -2.33324 0
M  V30 685 C 64.0062 0.620527 -1.62559 0
M  V30 686 O 65.1822 0.528754 -1.94335 0
M  V30 687 C 62.2472 0.585368 -3.41723 0
M  V30 688 C 61.3082 -0.301752 -4.28238 0
M  V30 689 C 60.5412 0.488466 -5.3146 0
M  V30 690 O 60.7642 1.72186 -5.4379 0
M  V30 691 O 59.6982 -0.12848 -6.01763 0
M  V30 692 H 63.5242 -1.06231 -2.84515 0
M  V30 693 H 61.1092 -0.583645 -1.37528 0
M  V30 694 H 62.9912 1.05747 -4.07916 0
M  V30 695 H 61.6662 1.38068 -2.92778 0
M  V30 696 H 60.5732 -0.821315 -3.64973 0
M  V30 697 H 61.9062 -1.06138 -4.8062 0
M  V30 698 N 63.5583 1.46682 -0.576371 0
M  V30 699 C 64.8043 2.02712 -0.0596221 0
M  V30 700 C 65.1373 1.44765 1.29448 0
M  V30 701 O 64.4123 0.610355 1.84675 0
M  V30 702 C 64.6953 3.60098 0.0129503 0
M  V30 703 C 64.5483 4.28441 -1.3696 0
M  V30 704 C 65.8673 4.34224 0.71678 0
M  V30 705 H 62.9863 0.736637 -0.0231407 0
M  V30 706 H 65.6283 1.74898 -0.742351 0
M  V30 707 H 63.7783 3.83926 0.594378 0
M  V30 708 H 65.4503 4.15896 -1.9957 0
M  V30 709 H 63.6933 3.8805 -1.93907 0
M  V30 710 H 64.3643 5.3716 -1.27135 0
M  V30 711 H 66.8403 4.15503 0.222908 0
M  V30 712 H 65.7163 5.43936 0.73657 0
M  V30 713 H 65.9773 4.04823 1.77682 0
M  V30 714 N 65.0364 0.313813 1.54444 0
M  V30 715 C 66.2764 -0.292389 2.02298 0
M  V30 716 C 66.6404 -1.50105 1.19719 0
M  V30 717 O 67.8414 -2.17947 1.5733 0
M  V30 718 C 66.1124 -0.627682 3.51845 0
M  V30 719 S 67.6714 -1.21493 4.21646 0
M  V30 720 H 64.4894 -0.0890247 0.705405 0
M  V30 721 H 67.0914 0.444668 1.90376 0
M  V30 722 H 65.7954 0.260265 4.09574 0
M  V30 723 H 65.3264 -1.39519 3.67829 0
M  V30 724 H 67.3414 -2.5022 4.28491 0
M  V30 725 N 66.5145 -1.57545 0.0417849 0
M  V30 726 C 67.7615 -1.92317 -0.634082 0
M  V30 727 C 68.0895 -0.919334 -1.71402 0
M  V30 728 O 67.3445 0.0698253 -1.95575 0
M  V30 729 C 67.6435 -3.33794 -1.27735 0
M  V30 730 C 67.3095 -4.49716 -0.326543 0
M  V30 731 C 65.9715 -4.81156 -0.0648814 0
M  V30 732 C 68.3235 -5.20182 0.325623 0
M  V30 733 C 65.6515 -5.80414 0.856539 0
M  V30 734 C 68.0035 -6.20424 1.23518 0
M  V30 735 C 66.6675 -6.50298 1.5056 0
M  V30 736 H 65.9375 -0.703736 -0.232027 0
M  V30 737 H 68.5845 -1.91205 0.106259 0
M  V30 738 H 66.8895 -3.31228 -2.09274 0
M  V30 739 H 68.5865 -3.57975 -1.80707 0
M  V30 740 H 65.1765 -4.25176 -0.540665 0
M  V30 741 H 69.3605 -4.96112 0.136546 0
M  V30 742 H 64.6165 -6.019 1.07363 0
M  V30 743 H 68.7905 -6.74141 1.74664 0
M  V30 744 H 66.4175 -7.27025 2.22123 0
M  V30 745 N 67.9926 0.231505 -1.5589 0
M  V30 746 C 68.9256 1.31369 -1.86595 0
M  V30 747 C 69.9036 1.45671 -0.722397 0
M  V30 748 O 71.0876 1.61642 -0.969743 0
M  V30 749 C 68.2146 2.68529 -2.06421 0
M  V30 750 C 67.2606 2.71295 -3.29092 0
M  V30 751 S 68.0936 2.26358 -4.85306 0
M  V30 752 C 69.2496 3.65414 -5.08157 0
M  V30 753 H 69.4826 1.05128 -2.78092 0
M  V30 754 H 67.0156 0.433259 -1.48197 0
M  V30 755 H 68.9736 3.47499 -2.18528 0
M  V30 756 H 67.6346 2.91999 -1.15738 0
M  V30 757 H 66.8276 3.72063 -3.39978 0
M  V30 758 H 66.4296 2.0038 -3.15791 0
M  V30 759 H 68.7216 4.6103 -4.96445 0
M  V30 760 H 69.6646 3.5945 -6.10083 0
M  V30 761 H 70.0726 3.5864 -4.35933 0
M  V30 762 N 69.4707 1.49531 0.497807 0
M  V30 763 C 70.7007 1.62657 1.27382 0
M  V30 764 C 71.1087 0.298488 1.86831 0
M  V30 765 O 70.4517 -0.72647 1.68725 0
M  V30 766 C 70.5137 2.6393 2.44093 0
M  V30 767 C 70.1777 4.08195 2.05489 0
M  V30 768 C 71.1747 4.949 1.59279 0
M  V30 769 C 68.8597 4.53948 2.15026 0
M  V30 770 C 70.8537 6.25397 1.23113 0
M  V30 771 C 68.5407 5.84458 1.78473 0
M  V30 772 C 69.5387 6.70006 1.32591 0
M  V30 773 O 69.2267 7.98083 0.965327 0
M  V30 774 H 68.9587 0.550429 0.392434 0
M  V30 775 H 71.5127 1.96325 0.603801 0
M  V30 776 H 69.7427 2.25449 3.14181 0
M  V30 777 H 71.4317 2.66552 3.06113 0
M  V30 778 H 72.1977 4.60779 1.51354 0
M  V30 779 H 68.0767 3.87525 2.4969 0
M  V30 780 H 71.6207 6.92125 0.872299 0
M  V30 781 H 67.5177 6.18107 1.86048 0
M  V30 782 H 68.2857 8.11122 1.09652 0
M  V30 783 N 70.9488 -0.749086 1.3866 0
M  V30 784 C 72.1738 -1.54344 1.38538 0
M  V30 785 C 72.5988 -1.88088 -0.0216655 0
M  V30 786 O 71.9568 -1.50899 -1.00494 0
M  V30 787 C 72.0048 -2.8164 2.25192 0
M  V30 788 O 71.1088 -3.7698 1.67212 0
M  V30 789 H 70.4498 -0.466654 0.472367 0
M  V30 790 H 72.9798 -0.925355 1.82478 0
M  V30 791 H 72.9898 -3.30519 2.3921 0
M  V30 792 H 71.6648 -2.56411 3.27454 0
M  V30 793 H 70.2418 -3.35699 1.6236 0
M  V30 794 N 72.4269 -1.23603 -0.977757 0
M  V30 795 C 73.7039 -0.977897 -1.69401 0
M  V30 796 C 74.0839 0.502738 -2.05026 0
M  V30 797 O 73.4319 1.47459 -1.74551 0
M  V30 798 C 73.6419 -1.89077 -2.93345 0
M  V30 799 C 74.9899 -2.15579 -3.65802 0
M  V30 800 O 76.0139 -1.86648 -3.03383 0
M  V30 801 O 74.8729 -2.64658 -4.78141 0
M  V30 802 H 71.9669 -0.369025 -0.740101 0
M  V30 803 H 74.5129 -1.34657 -1.03274 0
M  V30 804 H 73.2849 -2.89158 -2.63634 0
M  V30 805 H 72.9079 -1.52463 -3.67207 0
M  V30 806 N 73.905 1.17692 -1.04816 0
M  V30 807 C 75.152 1.87859 -0.75599 0
M  V30 808 C 75.48 1.80812 0.716752 0
M  V30 809 O 74.735 1.20819 1.53952 0
M  V30 810 C 75.034 3.37462 -1.17703 0
M  V30 811 C 74.7 3.64713 -2.65133 0
M  V30 812 C 73.362 3.71859 -3.05408 0
M  V30 813 C 75.714 3.76492 -3.60421 0
M  V30 814 C 73.042 3.88271 -4.39843 0
M  V30 815 C 75.394 3.94421 -4.94585 0
M  V30 816 C 74.058 3.99806 -5.3452 0
M  V30 817 H 73.328 0.687425 -0.276636 0
M  V30 818 H 75.975 1.39255 -1.31455 0
M  V30 819 H 74.28 3.88097 -0.537395 0
M  V30 820 H 75.977 3.90109 -0.928218 0
M  V30 821 H 72.567 3.59772 -2.32942 0
M  V30 822 H 76.751 3.70295 -3.30447 0
M  V30 823 H 72.007 3.90687 -4.70291 0
M  V30 824 H 76.181 4.02477 -5.68318 0
M  V30 825 H 73.808 4.12276 -6.38696 0
M  V30 826 N 75.3831 0.828654 1.34056 0
M  V30 827 C 76.3331 0.226828 2.26869 0
M  V30 828 C 77.3171 -0.612243 1.48796 0
M  V30 829 O 78.5091 -0.465884 1.70759 0
M  V30 830 C 75.6381 -0.605654 3.37915 0
M  V30 831 C 74.7241 0.244361 4.23395 0
M  V30 832 N 75.1151 1.31815 4.88322 0
M  V30 833 C 73.4131 0.0296616 4.4599 0
M  V30 834 C 74.1141 1.83895 5.51867 0
M  V30 835 N 73.0901 1.14196 5.3147 0
M  V30 836 H 76.8921 1.04811 2.74576 0
M  V30 837 H 74.4061 0.67205 1.47842 0
M  V30 838 H 76.4031 -1.05302 4.03382 0
M  V30 839 H 75.0631 -1.42504 2.91758 0
M  V30 840 H 76.0741 1.70099 4.8917 0
M  V30 841 H 72.7511 -0.757097 4.10578 0
M  V30 842 H 74.1411 2.7376 6.136 0
M  V30 843 N 76.8612 -1.46375 0.584142 0
M  V30 844 C 78.1082 -2.02378 0.0702675 0
M  V30 845 C 78.4362 -1.45545 -1.29023 0
M  V30 846 O 77.6912 -0.610967 -1.85918 0
M  V30 847 C 77.9902 -3.57373 -0.0439342 0
M  V30 848 C 77.6562 -4.33252 1.24915 0
M  V30 849 C 76.3182 -4.53701 1.60341 0
M  V30 850 C 78.6702 -4.7681 2.1048 0
M  V30 851 C 75.9982 -5.1496 2.81128 0
M  V30 852 C 78.3502 -5.39404 3.30494 0
M  V30 853 C 77.0142 -5.5808 3.66201 0
M  V30 854 H 76.2842 -0.740554 0.0257127 0
M  V30 855 H 78.9312 -1.75727 0.761065 0
M  V30 856 H 77.2362 -3.83169 -0.817869 0
M  V30 857 H 78.9332 -3.98384 -0.457318 0
M  V30 858 H 75.5232 -4.17633 0.963364 0
M  V30 859 H 79.7072 -4.60766 1.84414 0
M  V30 860 H 74.9632 -5.27611 3.08928 0
M  V30 861 H 79.1372 -5.72114 3.97063 0
M  V30 862 H 76.7642 -6.05318 4.59885 0
M  V30 863 N 78.3393 -0.321999 -1.54275 0
M  V30 864 C 79.5883 0.281931 -1.9972 0
M  V30 865 C 79.9013 1.53369 -1.21397 0
M  V30 866 O 81.1073 2.21352 -1.57211 0
M  V30 867 C 79.5633 0.5529 -3.55628 0
M  V30 868 C 79.1713 -0.681721 -4.42783 0
M  V30 869 C 80.9153 1.11687 -4.09544 0
M  V30 870 C 78.8223 -0.382742 -5.9016 0
M  V30 871 H 77.7523 0.109124 -0.746062 0
M  V30 872 H 80.4033 -0.43398 -1.78294 0
M  V30 873 H 78.7853 1.32896 -3.73035 0
M  V30 874 H 79.9593 -1.45723 -4.37151 0
M  V30 875 H 78.2743 -1.1658 -3.99748 0
M  V30 876 H 80.8713 1.35515 -5.17242 0
M  V30 877 H 81.2143 2.06575 -3.61431 0
M  V30 878 H 81.7473 0.402032 -3.95763 0
M  V30 879 H 78.4863 -1.30076 -6.42464 0
M  V30 880 H 78.0063 0.355094 -5.98748 0
M  V30 881 H 79.6853 0.00800157 -6.47 0
M  V30 882 N 79.8174 1.5752 -0.0501392 0
M  V30 883 C 80.7654 2.12651 0.942459 0
M  V30 884 C 81.7594 1.05807 1.32292 0
M  V30 885 O 82.9654 1.24217 1.3027 0
M  V30 886 H 79.3404 0.679673 0.321789 0
M  V30 887 H 81.3114 2.94951 0.452356 0
M  V30 888 C 80.0604 2.68565 2.20836 0
M  V30 889 H 79.3834 3.50439 1.92439 0
M  V30 890 H 80.8234 3.10761 2.8845 0
M  V30 891 C 79.2824 1.62291 2.95234 0
M  V30 892 O 79.8124 1.03508 3.88135 0
M  V30 893 N 78.0184 1.33836 2.57946 0
M  V30 894 H 77.5654 1.81826 1.82475 0
M  V30 895 H 77.5234 0.629595 3.08032 0
M  V30 896 N 81.2955 -0.223234 1.56011 0
M  V30 897 C 82.2055 -1.29766 1.95443 0
M  V30 898 C 83.2215 -1.51373 0.858028 0
M  V30 899 O 84.3975 -1.64536 1.16146 0
M  V30 900 C 81.4625 -2.62772 2.26167 0
M  V30 901 C 80.5235 -2.49482 3.49367 0
M  V30 902 C 79.7565 -3.76145 3.78616 0
M  V30 903 O 79.9795 -4.79087 3.09568 0
M  V30 904 O 78.9135 -3.73358 4.72109 0
M  V30 905 H 82.7395 -0.99309 2.87004 0
M  V30 906 H 80.3245 -0.425958 1.43199 0
M  V30 907 H 82.2065 -3.41327 2.47131 0
M  V30 908 H 80.8815 -2.92913 1.37781 0
M  V30 909 H 79.7885 -1.69133 3.33684 0
M  V30 910 H 81.1215 -2.2428 4.38131 0
M  V30 911 N 82.7736 -1.49793 -0.48987 0
M  V30 912 C 83.7056 -1.63413 -1.60713 0
M  V30 913 C 84.7186 -0.516329 -1.54395 0
M  V30 914 O 85.9076 -0.788812 -1.60125 0
M  V30 915 C 83.0076 -1.58516 -2.99543 0
M  V30 916 C 82.1806 -2.86016 -3.30928 0
M  V30 917 C 81.2396 -2.74018 -4.49222 0
M  V30 918 O 80.2656 -3.47964 -4.50455 0
M  V30 919 N 81.4676 -1.86309 -5.4979 0
M  V30 920 H 84.2326 -2.59777 -1.49452 0
M  V30 921 H 81.7936 -1.47022 -0.677955 0
M  V30 922 H 83.7856 -1.48128 -3.76617 0
M  V30 923 H 82.3556 -0.69965 -3.0467 0
M  V30 924 H 81.5756 -3.10672 -2.42645 0
M  V30 925 H 82.8636 -3.70521 -3.487 0
M  V30 926 H 82.2616 -1.2551 -5.51601 0
M  V30 927 H 80.8186 -1.81837 -6.25922 0
M  V30 928 N 84.2517 0.741722 -1.39055 0
M  V30 929 C 85.4997 1.49818 -1.35643 0
M  V30 930 C 85.8207 1.94938 0.0491642 0
M  V30 931 O 85.0907 1.68505 0.999141 0
M  V30 932 H 83.6707 0.555755 -0.499144 0
M  V30 933 H 86.3327 0.880957 -1.73854 0
M  V30 934 H 85.4287 2.38348 -2.01486 0
M  V30 935 N 85.7298 1.2412 0.971189 0
M  V30 936 C 86.6398 1.04747 2.09917 0
M  V30 937 C 87.6558 -0.0107162 1.73997 0
M  V30 938 O 88.8318 0.186714 2.00533 0
M  V30 939 C 85.8968 0.650828 3.40537 0
M  V30 940 C 84.9578 1.7851 3.90426 0
M  V30 941 C 84.1908 1.40729 5.14812 0
M  V30 942 O 84.4138 0.29557 5.69634 0
M  V30 943 O 83.3478 2.23168 5.58999 0
M  V30 944 H 87.1738 1.99304 2.29154 0
M  V30 945 H 84.7588 1.02908 1.08307 0
M  V30 946 H 86.6408 0.440992 4.19086 0
M  V30 947 H 85.3158 -0.265649 3.22608 0
M  V30 948 H 84.2228 2.04966 3.12953 0
M  V30 949 H 85.5558 2.68023 4.12825 0
M  V30 950 N 87.2079 -1.17134 1.05439 0
M  V30 951 C 88.4329 -1.91913 0.786396 0
M  V30 952 C 88.8579 -1.7643 -0.652234 0
M  V30 953 O 88.2159 -1.08372 -1.45345 0
M  V30 954 C 88.2639 -3.40921 1.17497 0
M  V30 955 O 87.3679 -4.11244 0.308589 0
M  V30 956 H 86.7089 -0.598215 0.288158 0
M  V30 957 H 89.2389 -1.48457 1.4079 0
M  V30 958 H 89.2489 -3.91668 1.14281 0
M  V30 959 H 87.9239 -3.5151 2.22292 0
M  V30 960 H 86.5009 -3.70731 0.40157 0
M  V30 961 N 88.686 -0.835752 -1.33615 0
M  V30 962 C 89.935 -0.426289 -1.97144 0
M  V30 963 C 90.248 1.01912 -1.66953 0
M  V30 964 O 91.454 1.53311 -2.24072 0
M  V30 965 C 89.91 -0.711321 -3.52801 0
M  V30 966 C 89.518 -2.1712 -3.91871 0
M  V30 967 C 91.262 -0.368654 -4.22896 0
M  V30 968 C 89.169 -2.40044 -5.40493 0
M  V30 969 H 88.099 -0.15567 -0.737755 0
M  V30 970 H 90.75 -1.0239 -1.52278 0
M  V30 971 H 89.132 -0.0433766 -3.95976 0
M  V30 972 H 90.306 -2.87936 -3.59763 0
M  V30 973 H 88.621 -2.47654 -3.34749 0
M  V30 974 H 91.218 -0.517601 -5.32189 0
M  V30 975 H 91.561 0.688078 -4.10574 0
M  V30 976 H 92.094 -0.991702 -3.8524 0
M  V30 977 H 88.833 -3.44271 -5.57815 0
M  V30 978 H 88.353 -1.73785 -5.74072 0
M  V30 979 H 90.032 -2.23042 -6.0734 0
M  V30 980 N 90.1641 1.46063 -0.591896 0
M  V30 981 C 91.4131 2.01547 -0.0786637 0
M  V30 982 C 91.7261 1.46796 1.29268 0
M  V30 983 O 92.9321 1.94157 1.89777 0
M  V30 984 C 91.3881 3.59787 -0.0900024 0
M  V30 985 C 90.9961 4.23534 -1.46023 0
M  V30 986 C 92.7401 4.22895 0.368806 0
M  V30 987 C 90.6471 5.73881 -1.4288 0
M  V30 988 H 89.5771 0.753564 -0.0256388 0
M  V30 989 H 92.2281 1.677 -0.744905 0
M  V30 990 H 90.6101 3.90752 0.642586 0
M  V30 991 H 91.7841 4.04167 -2.21328 0
M  V30 992 H 90.0991 3.72558 -1.85982 0
M  V30 993 H 92.6961 5.33116 0.411258 0
M  V30 994 H 93.0391 3.9247 1.38827 0
M  V30 995 H 93.5721 3.9659 -0.31001 0
M  V30 996 H 90.3111 6.0898 -2.42536 0
M  V30 997 H 89.8311 5.95486 -0.718095 0
M  V30 998 H 91.5101 6.36776 -1.14565 0
M  V30 999 N 91.6422 0.330177 1.54103 0
M  V30 1000 C 92.8882 -0.270806 2.00984 0
M  V30 1001 C 93.2212 -1.51265 1.21789 0
M  V30 1002 O 92.4962 -1.92142 0.301927 0
M  V30 1003 C 92.7792 -0.598339 3.55094 0
M  V30 1004 C 92.6322 0.654674 4.4501 0
M  V30 1005 C 93.9512 -1.41334 4.16789 0
M  V30 1006 H 91.0702 -0.0969531 0.730595 0
M  V30 1007 H 93.7122 0.448066 1.84641 0
M  V30 1008 H 91.8622 -1.21078 3.69151 0
M  V30 1009 H 93.5342 1.29285 4.42813 0
M  V30 1010 H 91.7772 1.28224 4.14416 0
M  V30 1011 H 92.4482 0.380944 5.50684 0
M  V30 1012 H 94.9242 -0.895597 4.06347 0
M  V30 1013 H 93.8002 -1.61127 5.24718 0
M  V30 1014 H 94.0612 -2.41146 3.70541 0
M  V30 1015 N 93.1203 -1.57491 0.0584922 0
M  V30 1016 C 94.0303 -2.15448 -0.928414 0
M  V30 1017 C 95.0463 -1.11416 -1.3365 0
M  V30 1018 O 96.2223 -1.4362 -1.41193 0
M  V30 1019 C 93.2873 -2.69393 -2.18239 0
M  V30 1020 C 92.3483 -3.88249 -1.83196 0
M  V30 1021 C 91.5813 -4.39613 -3.02616 0
M  V30 1022 O 91.8043 -3.90023 -4.16219 0
M  V30 1023 O 90.7383 -5.31111 -2.83204 0
M  V30 1024 H 94.5643 -3.00112 -0.465483 0
M  V30 1025 H 92.1493 -1.48499 -0.163826 0
M  V30 1026 H 94.0313 -3.04026 -2.91798 0
M  V30 1027 H 92.7063 -1.87796 -2.63656 0
M  V30 1028 H 91.6133 -3.58492 -1.06931 0
M  V30 1029 H 92.9463 -4.71098 -1.42573 0
M  V30 1030 N 94.5984 0.214957 -1.56127 0
M  V30 1031 C 95.5284 1.2695 -1.95974 0
M  V30 1032 C 96.5094 1.48539 -0.828868 0
M  V30 1033 O 97.6944 1.60611 -1.09168 0
M  V30 1034 C 94.8244 2.61794 -2.28214 0
M  V30 1035 C 93.7784 2.54851 -3.43853 0
M  V30 1036 C 93.1044 3.93785 -3.61715 0
M  V30 1037 C 94.4044 2.09065 -4.78632 0
M  V30 1038 H 96.0984 0.93846 -2.84312 0
M  V30 1039 H 93.6444 0.449996 -1.36788 0
M  V30 1040 H 95.5974 3.35731 -2.54682 0
M  V30 1041 H 94.3214 2.96599 -1.36736 0
M  V30 1042 H 92.9804 1.8337 -3.17444 0
M  V30 1043 H 92.6284 4.25908 -2.67602 0
M  V30 1044 H 92.3284 3.90019 -4.39498 0
M  V30 1045 H 93.8524 4.69374 -3.90539 0
M  V30 1046 H 95.2664 2.7275 -5.04262 0
M  V30 1047 H 93.6634 2.16346 -5.59745 0
M  V30 1048 H 94.7334 1.04315 -4.73547 0
M  V30 1049 N 96.0765 1.50051 0.48192 0
M  V30 1050 C 97.3245 1.60181 1.23234 0
M  V30 1051 C 97.6455 0.299176 1.92691 0
M  V30 1052 O 96.9155 -0.682708 1.83619 0
M  V30 1053 H 95.4955 0.590232 0.457859 0
M  V30 1054 H 98.1575 1.86775 0.556881 0
M  V30 1055 H 97.2535 2.40753 1.98607 0
M  V30 1056 N 97.5546 -0.734337 1.39446 0
M  V30 1057 C 98.8316 -1.48579 1.27215 0
M  V30 1058 C 99.2116 -2.1077 -0.117968 0
M  V30 1059 O 98.5596 -1.98646 -1.12924 0
M  V30 1060 C 98.7696 -2.53667 2.39696 0
M  V30 1061 C 100.118 -3.20031 2.79044 0
M  V30 1062 O 101.142 -2.6398 2.39151 0
M  V30 1063 O 100.001 -4.21455 3.47905 0
M  V30 1064 H 97.0946 -0.659816 0.49857 0
M  V30 1065 H 99.6406 -0.768106 1.51322 0
M  V30 1066 H 98.4126 -2.06096 3.32626 0
M  V30 1067 H 98.0356 -3.32994 2.17258 0
M  V30 1068 N 99.0327 -1.24633 -0.964593 0
M  V30 1069 C 100.444 -1.08045 -1.5226 0
M  V30 1070 C 100.795 0.347116 -1.93105 0
M  V30 1071 O 99.9197 1.23588 -1.77637 0
M  V30 1072 C 100.515 -1.95514 -2.76695 0
M  V30 1073 C 99.0737 -1.8314 -3.28841 0
M  V30 1074 C 98.2207 -1.90262 -2.01732 0
M  V30 1075 H 101.172 -1.38064 -0.782553 0
M  V30 1076 H 101.193 -1.48925 -3.50145 0
M  V30 1077 H 100.705 -2.99407 -2.46936 0
M  V30 1078 H 98.8057 -0.82092 -3.63444 0
M  V30 1079 H 98.9187 -2.67406 -3.97531 0
M  V30 1080 H 97.2827 -1.34027 -2.16584 0
M  V30 1081 H 98.0657 -2.9574 -1.74334 0
M  V30 1082 N 100.511 1.16574 -1.06058 0
M  V30 1083 C 101.459 2.22941 -0.663343 0
M  V30 1084 C 102.453 1.66358 0.319593 0
M  V30 1085 O 103.659 1.7905 0.184713 0
M  V30 1086 H 100.034 0.725907 -0.196376 0
M  V30 1087 H 102.005 2.53736 -1.57037 0
M  V30 1088 C 100.754 3.47642 -0.0632808 0
M  V30 1089 H 100.077 3.91493 -0.810733 0
M  V30 1090 H 101.517 4.2363 0.177177 0
M  V30 1091 C 99.9758 3.1509 1.19248 0
M  V30 1092 O 100.506 3.30673 2.28075 0
M  V30 1093 N 98.7118 2.6924 1.09353 0
M  V30 1094 H 98.2588 2.5676 0.207912 0
M  V30 1095 H 98.2168 2.47833 1.93458 0
M  V30 1096 N 101.989 0.842826 1.3317 0
M  V30 1097 C 102.952 0.284065 2.27433 0
M  V30 1098 C 103.952 -0.54948 1.5112 0
M  V30 1099 O 105.142 -0.362699 1.70382 0
M  V30 1100 C 102.274 -0.599384 3.35589 0
M  V30 1101 H 103.467 1.11589 2.78366 0
M  V30 1102 H 101.02 0.616221 1.4364 0
M  V30 1103 H 101.755 -1.45349 2.89904 0
M  V30 1104 H 101.54 -0.00291266 3.921 0
M  V30 1105 H 103.03 -0.983488 4.05854 0
M  V30 1106 N 103.467 -1.45747 0.599634 0
M  V30 1107 C 104.397 -2.33235 -0.111306 0
M  V30 1108 C 105.378 -1.46359 -0.866781 0
M  V30 1109 O 106.563 -1.75146 -0.838904 0
M  V30 1110 C 103.693 -3.28932 -1.11451 0
M  V30 1111 C 102.647 -4.25381 -0.472772 0
M  V30 1112 C 101.973 -5.1071 -1.58365 0
M  V30 1113 C 103.273 -5.18831 0.600948 0
M  V30 1114 H 104.967 -2.92927 0.61919 0
M  V30 1115 H 102.513 -1.40857 0.299215 0
M  V30 1116 H 104.466 -3.89002 -1.62036 0
M  V30 1117 H 103.19 -2.67381 -1.8755 0
M  V30 1118 H 101.849 -3.66598 0.0121472 0
M  V30 1119 H 101.497 -4.45533 -2.33473 0
M  V30 1120 H 101.197 -5.7604 -1.15982 0
M  V30 1121 H 102.721 -5.73647 -2.09194 0
M  V30 1122 H 104.135 -5.73019 0.179491 0
M  V30 1123 H 102.532 -5.92595 0.946076 0
M  V30 1124 H 103.602 -4.6174 1.48068 0
M  V30 1125 N 104.945 -0.338344 -1.53925 0
M  V30 1126 C 105.875 0.51328 -2.27789 0
M  V30 1127 C 106.856 1.107 -1.29149 0
M  V30 1128 O 108.041 1.12937 -1.57984 0
M  V30 1129 C 105.171 1.66697 -3.04679 0
M  V30 1130 C 104.125 1.20183 -4.1078 0
M  V30 1131 C 103.451 2.44363 -4.75595 0
M  V30 1132 C 104.751 0.30605 -5.21403 0
M  V30 1133 H 106.445 -0.102883 -2.99223 0
M  V30 1134 H 103.991 -0.0509219 -1.4391 0
M  V30 1135 H 105.944 2.26915 -3.55088 0
M  V30 1136 H 104.668 2.30995 -2.30887 0
M  V30 1137 H 103.327 0.622499 -3.61276 0
M  V30 1138 H 102.975 3.07057 -3.98403 0
M  V30 1139 H 102.675 2.13925 -5.47275 0
M  V30 1140 H 104.199 3.05317 -5.28786 0
M  V30 1141 H 105.613 0.814929 -5.67478 0
M  V30 1142 H 104.01 0.0937929 -6.00027 0
M  V30 1143 H 105.08 -0.65921 -4.80398 0
M  V30 1144 N 106.423 1.57458 -0.0668435 0
M  V30 1145 C 107.37 2.12439 0.902122 0
M  V30 1146 C 108.34 1.03565 1.2986 0
M  V30 1147 O 109.525 1.312 1.38532 0
M  V30 1148 C 106.665 2.6865 2.16614 0
M  V30 1149 C 105.778 3.91663 1.82274 0
M  V30 1150 C 104.913 4.36134 3.0325 0
M  V30 1151 C 103.952 5.51808 2.64904 0
M  V30 1152 N 103.089 5.9126 3.78624 0
M  V30 1153 H 107.929 2.94934 0.426382 0
M  V30 1154 H 105.466 1.4575 0.198819 0
M  V30 1155 H 107.424 2.99346 2.90599 0
M  V30 1156 H 106.054 1.88928 2.61737 0
M  V30 1157 H 105.106 3.6746 0.983719 0
M  V30 1158 H 106.418 4.75693 1.50059 0
M  V30 1159 H 105.572 4.68465 3.85519 0
M  V30 1160 H 104.311 3.50948 3.38655 0
M  V30 1161 H 103.316 5.19133 1.81055 0
M  V30 1162 H 104.541 6.38722 2.30675 0
M  V30 1163 H 102.487 5.09024 4.138 0
M  V30 1164 H 102.404 6.70018 3.5016 0
M  V30 1165 H 103.672 6.28212 4.61486 0
M  V30 1166 N 107.901 -0.206675 1.56239 0
M  V30 1167 C 108.851 -1.26 1.90021 0
M  V30 1168 C 109.835 -1.41566 0.764721 0
M  V30 1169 O 111.027 -1.44131 1.02739 0
M  V30 1170 C 108.156 -2.6073 2.23326 0
M  V30 1171 C 107.242 -2.49005 3.43304 0
M  V30 1172 N 107.633 -2.06946 4.61527 0
M  V30 1173 C 105.931 -2.79927 3.47213 0
M  V30 1174 C 106.632 -2.06832 5.43687 0
M  V30 1175 N 105.608 -2.47892 4.83788 0
M  V30 1176 H 109.41 -0.925955 2.78932 0
M  V30 1177 H 106.924 -0.415172 1.57003 0
M  V30 1178 H 108.921 -3.36798 2.45708 0
M  V30 1179 H 107.581 -2.94968 1.35735 0
M  V30 1180 H 108.592 -1.77839 4.86409 0
M  V30 1181 H 105.269 -3.18438 2.70006 0
M  V30 1182 H 106.659 -1.76312 6.48354 0
M  V30 1183 N 109.379 -1.50304 -0.473955 0
M  V30 1184 C 110.795 -1.37667 -0.807466 0
M  V30 1185 C 110.995 -0.430555 -1.96846 0
M  V30 1186 O 110.051 0.127874 -2.52176 0
M  V30 1187 C 111.364 -2.78974 -1.12223 0
M  V30 1188 C 112.912 -2.87868 -1.22885 0
M  V30 1189 C 113.387 -4.30003 -1.57676 0
M  V30 1190 N 114.878 -4.3294 -1.64673 0
M  V30 1191 C 115.613 -5.3991 -1.93091 0
M  V30 1192 N 115.109 -6.57092 -2.1955 0
M  V30 1193 N 116.902 -5.27351 -1.94569 0
M  V30 1194 H 109.053 -2.10394 0.291212 0
M  V30 1195 H 111.316 -0.945575 0.0677609 0
M  V30 1196 H 111.022 -3.50031 -0.342229 0
M  V30 1197 H 110.896 -3.16038 -2.05913 0
M  V30 1198 H 113.283 -2.17032 -1.99953 0
M  V30 1199 H 113.364 -2.54352 -0.271814 0
M  V30 1200 H 113.008 -5.01375 -0.81149 0
M  V30 1201 H 112.938 -4.61004 -2.54525 0
M  V30 1202 H 115.429 -3.48441 -1.46277 0
M  V30 1203 H 115.742 -7.34425 -2.405 0
M  V30 1204 H 114.087 -6.60272 -2.16948 0
M  V30 1205 H 117.278 -4.34801 -1.73394 0
M  V30 1206 H 117.451 -6.10805 -2.16381 0
M  V30 1207 N 110.857 0.726932 -1.39834 0
M  V30 1208 C 112.104 1.48664 -1.37496 0
M  V30 1209 C 112.432 1.94482 0.0264678 0
M  V30 1210 O 111.687 1.67692 1.00886 0
M  V30 1211 C 111.986 2.73495 -2.30077 0
M  V30 1212 C 111.652 2.46502 -3.77555 0
M  V30 1213 C 110.314 2.3885 -4.17737 0
M  V30 1214 C 112.666 2.23604 -4.70798 0
M  V30 1215 C 109.994 2.06352 -5.49214 0
M  V30 1216 C 112.346 1.92622 -6.02561 0
M  V30 1217 C 111.01 1.83444 -6.41798 0
M  V30 1218 H 110.28 0.544001 -0.503135 0
M  V30 1219 H 112.927 0.833657 -1.72402 0
M  V30 1220 H 111.232 3.43575 -1.88317 0
M  V30 1221 H 112.929 3.31549 -2.25558 0
M  V30 1222 H 109.519 2.5334 -3.45712 0
M  V30 1223 H 113.703 2.28479 -4.40581 0
M  V30 1224 H 108.959 1.97776 -5.78528 0
M  V30 1225 H 113.133 1.73914 -6.74334 0
M  V30 1226 H 110.76 1.58029 -7.43593 0
M  V30 1227 N 112.336 1.25143 0.95797 0
M  V30 1228 C 113.246 1.06968 2.08794 0
M  V30 1229 C 114.262 0.00773911 1.73998 0
M  V30 1230 O 115.438 0.207972 2.00323 0
M  V30 1231 C 112.503 0.68691 3.39827 0
M  V30 1232 C 111.564 1.82641 3.88511 0
M  V30 1233 C 110.797 1.46181 5.1329 0
M  V30 1234 O 111.02 0.355971 5.69288 0
M  V30 1235 O 109.954 2.29085 5.566 0
M  V30 1236 H 113.78 2.01723 2.27027 0
M  V30 1237 H 111.365 1.04051 1.07209 0
M  V30 1238 H 113.247 0.485417 4.18595 0
M  V30 1239 H 111.922 -0.231417 3.22872 0
M  V30 1240 H 110.829 2.08274 3.10762 0
M  V30 1241 H 112.162 2.72386 4.09959 0
M  V30 1242 N 113.814 -1.1601 1.06675 0
M  V30 1243 C 115.063 -1.85973 0.780818 0
M  V30 1244 C 115.376 -1.82819 -0.695444 0
M  V30 1245 O 116.582 -2.484 -1.09589 0
M  V30 1246 C 115.038 -3.33757 1.34665 0
M  V30 1247 C 114.646 -3.45374 2.85343 0
M  V30 1248 C 116.39 -4.0895 1.13843 0
M  V30 1249 C 114.297 -4.87266 3.35151 0
M  V30 1250 H 113.227 -0.696661 0.288407 0
M  V30 1251 H 115.878 -1.30903 1.28595 0
M  V30 1252 H 114.26 -3.88456 0.769274 0
M  V30 1253 H 115.434 -3.00816 3.49065 0
M  V30 1254 H 113.749 -2.83619 3.04876 0
M  V30 1255 H 116.346 -5.13654 1.4854 0
M  V30 1256 H 116.689 -4.16229 0.0770282 0
M  V30 1257 H 117.222 -3.605 1.68179 0
M  V30 1258 H 113.961 -4.85168 4.40786 0
M  V30 1259 H 113.481 -5.32433 2.76179 0
M  V30 1260 H 115.16 -5.56097 3.30704 0
M  V30 1261 N 115.292 -0.849877 -1.32721 0
M  V30 1262 C 116.541 -0.447175 -1.96681 0
M  V30 1263 C 116.854 1.00135 -1.68025 0
M  V30 1264 O 118.06 1.50926 -2.25685 0
M  V30 1265 C 116.516 -0.7487 -3.52026 0
M  V30 1266 C 116.124 -2.21264 -3.89546 0
M  V30 1267 C 117.868 -0.413487 -4.22481 0
M  V30 1268 C 115.775 -2.45763 -5.37917 0
M  V30 1269 H 114.705 -0.163486 -0.736063 0
M  V30 1270 H 117.356 -1.03999 -1.51183 0
M  V30 1271 H 115.738 -0.0853727 -3.95908 0
M  V30 1272 H 116.912 -2.91736 -3.56689 0
M  V30 1273 H 115.227 -2.5119 -3.32103 0
M  V30 1274 H 117.824 -0.574017 -5.3161 0
M  V30 1275 H 118.167 0.644492 -4.11281 0
M  V30 1276 H 118.7 -1.03251 -3.84167 0
M  V30 1277 H 115.439 -3.50168 -5.54132 0
M  V30 1278 H 114.959 -1.79864 -5.72197 0
M  V30 1279 H 116.638 -2.29471 -6.0494 0
M  V30 1280 N 116.77 1.45427 -0.607355 0
M  V30 1281 C 117.68 2.34325 0.113463 0
M  V30 1282 C 118.696 1.51226 0.860617 0
M  V30 1283 O 119.872 1.84029 0.818255 0
M  V30 1284 C 116.937 3.28839 1.09844 0
M  V30 1285 C 115.998 4.27844 0.353271 0
M  V30 1286 C 115.231 5.17842 1.29133 0
M  V30 1287 O 115.454 5.11264 2.52913 0
M  V30 1288 O 114.388 5.96713 0.788523 0
M  V30 1289 H 118.214 2.97364 -0.617094 0
M  V30 1290 H 115.799 1.44807 -0.367619 0
M  V30 1291 H 117.681 3.8708 1.66575 0
M  V30 1292 H 116.356 2.68365 1.81003 0
M  V30 1293 H 115.263 3.7322 -0.256494 0
M  V30 1294 H 116.596 4.91173 -0.317822 0
M  V30 1295 N 118.248 0.346503 1.53744 0
M  V30 1296 C 119.496 -0.248612 2.00565 0
M  V30 1297 C 119.817 -1.5083 1.23593 0
M  V30 1298 O 119.087 -1.92858 0.343912 0
M  V30 1299 H 117.667 -0.0948564 0.740953 0
M  V30 1300 H 120.329 0.468341 1.89189 0
M  V30 1301 H 119.425 -0.488994 3.08245 0
M  V30 1302 N 119.726 -1.57421 0.075193 0
M  V30 1303 C 121.142 -1.57099 -0.281444 0
M  V30 1304 C 121.342 -1.08486 -1.69803 0
M  V30 1305 O 120.398 -0.752279 -2.41033 0
M  V30 1306 C 121.711 -3.00571 -0.0880041 0
M  V30 1307 C 123.259 -3.12605 -0.157281 0
M  V30 1308 C 123.734 -4.57999 0.0079207 0
M  V30 1309 N 125.225 -4.63176 -0.0475725 0
M  V30 1310 C 125.96 -5.73373 0.0557876 0
M  V30 1311 N 125.456 -6.92473 0.21286 0
M  V30 1312 N 127.249 -5.621 -0.00152098 0
M  V30 1313 H 119.4 -1.87335 1.00098 0
M  V30 1314 H 121.663 -0.86377 0.390646 0
M  V30 1315 H 121.369 -3.40262 0.889629 0
M  V30 1316 H 121.243 -3.67754 -0.838875 0
M  V30 1317 H 123.63 -2.72798 -1.1254 0
M  V30 1318 H 123.711 -2.48053 0.62475 0
M  V30 1319 H 123.355 -4.98496 0.972824 0
M  V30 1320 H 123.285 -5.20586 -0.793556 0
M  V30 1321 H 125.776 -3.7753 -0.167244 0
M  V30 1322 H 126.089 -7.72279 0.283781 0
M  V30 1323 H 124.434 -6.94556 0.248267 0
M  V30 1324 H 127.625 -4.67938 -0.122958 0
M  V30 1325 H 127.798 -6.47948 0.0824844 0
M  V30 1326 N 121.204 0.198386 -1.56346 0
M  V30 1327 C 122.481 0.944982 -1.71258 0
M  V30 1328 C 122.861 2.0151 -0.629048 0
M  V30 1329 O 122.209 2.25639 0.360473 0
M  V30 1330 C 122.419 1.5344 -3.1346 0
M  V30 1331 C 123.767 2.01778 -3.73591 0
M  V30 1332 O 124.791 1.63288 -3.16568 0
M  V30 1333 O 123.65 2.72594 -4.73661 0
M  V30 1334 H 120.744 0.442939 -0.69838 0
M  V30 1335 H 123.29 0.188342 -1.68652 0
M  V30 1336 H 122.062 0.762869 -3.83792 0
M  V30 1337 H 121.685 2.35596 -3.20282 0
M  V30 1338 N 122.682 1.50554 0.465978 0
M  V30 1339 C 124.098 1.38093 0.800154 0
M  V30 1340 C 124.298 0.440988 1.96615 0
M  V30 1341 O 123.354 -0.114499 2.5224 0
M  V30 1342 C 124.667 2.79565 1.10742 0
M  V30 1343 C 126.215 2.88516 1.21357 0
M  V30 1344 C 126.69 4.30833 1.55393 0
M  V30 1345 N 128.181 4.33807 1.62375 0
M  V30 1346 C 128.916 5.40927 1.90225 0
M  V30 1347 N 128.412 6.58247 2.16062 0
M  V30 1348 N 130.205 5.28376 1.9177 0
M  V30 1349 H 122.356 2.10237 -0.302366 0
M  V30 1350 H 124.619 0.945203 -0.0727746 0
M  V30 1351 H 124.325 3.50208 0.323661 0
M  V30 1352 H 124.199 3.17125 2.04234 0
M  V30 1353 H 126.586 2.1809 1.98799 0
M  V30 1354 H 126.667 2.54492 0.258321 0
M  V30 1355 H 126.311 5.01799 0.784889 0
M  V30 1356 H 126.241 4.62347 2.52076 0
M  V30 1357 H 128.732 3.49212 1.44427 0
M  V30 1358 H 129.045 7.3569 2.36601 0
M  V30 1359 H 127.39 6.61413 2.13444 0
M  V30 1360 H 130.581 4.35715 1.71085 0
M  V30 1361 H 130.754 6.11944 2.13139 0
M  V30 1362 N 124.16 -0.719506 1.40217 0
M  V30 1363 C 125.388 -1.50864 1.41589 0
M  V30 1364 C 125.803 -1.88794 0.0145275 0
M  V30 1365 O 125.16 -1.55174 -0.960594 0
M  V30 1366 C 125.211 -2.78646 2.30302 0
M  V30 1367 O 124.932 -2.42321 3.64983 0
M  V30 1368 C 126.433 -3.72569 2.40224 0
M  V30 1369 H 123.653 -0.465709 0.48307 0
M  V30 1370 H 126.197 -0.88785 1.84221 0
M  V30 1371 H 124.352 -3.37019 1.91042 0
M  V30 1372 H 124.766 -3.24514 4.12057 0
M  V30 1373 H 126.24 -4.5908 3.06512 0
M  V30 1374 H 126.717 -4.15403 1.42608 0
M  V30 1375 H 127.323 -3.20109 2.80019 0
M  V30 1376 N 125.638 -1.25649 -0.95132 0
M  V30 1377 C 126.571 -1.00644 -2.04807 0
M  V30 1378 C 127.549 0.0654271 -1.62468 0
M  V30 1379 O 128.733 -0.074911 -1.88351 0
M  V30 1380 C 125.86 -0.522052 -3.34653 0
M  V30 1381 C 124.906 -1.58495 -3.95957 0
M  V30 1382 S 125.739 -3.17108 -4.31512 0
M  V30 1383 C 126.895 -2.70412 -5.64471 0
M  V30 1384 H 127.128 -1.93508 -2.25703 0
M  V30 1385 H 124.661 -1.09216 -1.09139 0
M  V30 1386 H 126.619 -0.24923 -4.09743 0
M  V30 1387 H 125.28 0.386146 -3.11717 0
M  V30 1388 H 124.473 -1.1968 -4.89584 0
M  V30 1389 H 124.075 -1.80862 -3.2736 0
M  V30 1390 H 126.367 -2.14245 -6.42733 0
M  V30 1391 H 127.31 -3.62693 -6.08161 0
M  V30 1392 H 127.718 -2.10302 -5.23864 0
M  V30 1393 N 127.117 1.15442 -1.07289 0
M  V30 1394 C 128.08 2.18358 -0.696591 0
M  V30 1395 C 129.08 1.58637 0.262837 0
M  V30 1396 O 130.27 1.74145 0.0438809 0
M  V30 1397 C 127.402 3.4089 -0.0266151 0
M  V30 1398 H 128.595 2.53162 -1.60776 0
M  V30 1399 H 126.148 1.29893 -0.869342 0
M  V30 1400 H 126.883 3.11653 0.896822 0
M  V30 1401 H 126.668 3.85495 -0.716657 0
M  V30 1402 H 128.158 4.17009 0.222028 0
M  V30 1403 N 128.595 0.856903 1.32268 0
M  V30 1404 C 129.841 0.471355 1.97863 0
M  V30 1405 C 130.196 -0.962896 1.66572 0
M  V30 1406 O 129.489 -1.66686 0.944797 0
M  V30 1407 C 129.683 0.649919 3.51441 0
M  V30 1408 C 129.512 2.09997 3.97657 0
M  V30 1409 C 128.282 2.73893 4.2463 0
M  V30 1410 C 130.48 3.07081 4.1256 0
M  V30 1411 N 128.462 4.09786 4.57109 0
M  V30 1412 C 129.833 4.27968 4.48602 0
M  V30 1413 C 131.888 3.03247 3.949 0
M  V30 1414 C 130.591 5.45521 4.68827 0
M  V30 1415 C 132.617 4.20046 4.16311 0
M  V30 1416 C 131.979 5.39692 4.52672 0
M  V30 1417 H 128.078 0.221263 0.750044 0
M  V30 1418 H 130.662 1.10876 1.60045 0
M  V30 1419 H 128.833 0.0421938 3.88377 0
M  V30 1420 H 130.565 0.234044 4.04023 0
M  V30 1421 H 127.32 2.24918 4.16784 0
M  V30 1422 H 127.744 4.7989 4.7753 0
M  V30 1423 H 132.386 2.11863 3.65888 0
M  V30 1424 H 130.104 6.37434 4.96693 0
M  V30 1425 H 133.69 4.18517 4.04147 0
M  V30 1426 H 132.57 6.28566 4.68907 0
M  V30 1427 N 130.073 -1.45103 0.615059 0
M  V30 1428 C 131.301 -2.06553 0.11977 0
M  V30 1429 C 131.716 -1.45842 -1.19898 0
M  V30 1430 O 131.073 -0.575325 -1.73194 0
M  V30 1431 C 131.124 -3.61495 -0.018364 0
M  V30 1432 O 130.845 -4.19942 1.24822 0
M  V30 1433 C 132.346 -4.39947 -0.544237 0
M  V30 1434 H 129.566 -0.667096 0.0722739 0
M  V30 1435 H 132.11 -1.8623 0.84491 0
M  V30 1436 H 130.265 -3.81135 -0.693865 0
M  V30 1437 H 130.679 -5.13204 1.0827 0
M  V30 1438 H 132.153 -5.48838 -0.589953 0
M  V30 1439 H 132.63 -4.10255 -1.56805 0
M  V30 1440 H 133.236 -4.25188 0.0974703 0
M  V30 1441 N 131.551 -0.354651 -1.53558 0
M  V30 1442 C 132.797 0.238797 -2.01389 0
M  V30 1443 C 133.13 1.49309 -1.2418 0
M  V30 1444 O 132.405 1.91638 -0.332457 0
M  V30 1445 C 132.688 0.541771 -3.56001 0
M  V30 1446 C 132.541 -0.725388 -4.43912 0
M  V30 1447 C 133.86 1.34685 -4.18984 0
M  V30 1448 H 130.979 0.0853177 -0.732045 0
M  V30 1449 H 133.621 -0.477384 -1.83905 0
M  V30 1450 H 131.771 1.15189 -3.71031 0
M  V30 1451 H 133.443 -1.36313 -4.407 0
M  V30 1452 H 131.686 -1.34801 -4.12324 0
M  V30 1453 H 132.357 -0.468505 -5.50008 0
M  V30 1454 H 134.833 0.830837 -4.07721 0
M  V30 1455 H 133.709 1.52759 -5.27215 0
M  V30 1456 H 133.97 2.35221 -3.74331 0
M  V30 1457 N 133.029 1.57378 -0.0835403 0
M  V30 1458 C 134.275 1.94217 0.583733 0
M  V30 1459 C 134.608 0.964653 1.68547 0
M  V30 1460 O 133.883 -0.00422258 1.945 0
M  V30 1461 C 134.166 3.41253 1.14972 0
M  V30 1462 C 134.019 4.49768 0.0538277 0
M  V30 1463 C 135.338 3.89352 2.05166 0
M  V30 1464 H 132.457 0.706233 0.210724 0
M  V30 1465 H 135.099 1.89392 -0.1519 0
M  V30 1466 H 133.249 3.45496 1.77665 0
M  V30 1467 H 134.921 4.57641 -0.579851 0
M  V30 1468 H 133.164 4.29432 -0.614068 0
M  V30 1469 H 133.835 5.49817 0.490452 0
M  V30 1470 H 136.311 3.87189 1.52393 0
M  V30 1471 H 135.187 4.92822 2.41698 0
M  V30 1472 H 135.448 3.27973 2.96456 0
M  V30 1473 N 134.507 -0.190092 1.56449 0
M  V30 1474 C 135.455 -1.25501 1.95837 0
M  V30 1475 C 136.449 -1.4685 0.844485 0
M  V30 1476 O 137.655 -1.47651 1.02952 0
M  V30 1477 H 134.03 -0.421447 0.622805 0
M  V30 1478 H 136.001 -0.895821 2.84636 0
M  V30 1479 C 134.75 -2.59124 2.31841 0
M  V30 1480 H 134.073 -2.43514 3.17082 0
M  V30 1481 H 135.513 -3.32371 2.6326 0
M  V30 1482 C 133.972 -3.16488 1.15486 0
M  V30 1483 O 134.502 -3.99365 0.432535 0
M  V30 1484 N 132.708 -2.75305 0.930349 0
M  V30 1485 H 132.255 -2.08013 1.51948 0
M  V30 1486 H 132.213 -3.14024 0.153634 0
M  V30 1487 N 135.985 -1.50799 -0.457987 0
M  V30 1488 C 137.21 -1.66496 -1.23668 0
M  V30 1489 C 137.635 -0.353288 -1.84752 0
M  V30 1490 O 136.993 0.684346 -1.67888 0
M  V30 1491 C 137.041 -2.76763 -2.3116 0
M  V30 1492 O 136.145 -2.38928 -3.36136 0
M  V30 1493 H 135.486 -0.555828 -0.363252 0
M  V30 1494 H 138.016 -1.9725 -0.543474 0
M  V30 1495 H 138.026 -3.00232 -2.76269 0
M  V30 1496 H 136.701 -3.71954 -1.86073 0
M  V30 1497 H 135.278 -2.25953 -2.96647 0
M  V30 1498 N 137.463 0.71206 -1.40597 0
M  V30 1499 C 138.712 1.46754 -1.38369 0
M  V30 1500 C 139.025 1.95598 0.0097839 0
M  V30 1501 O 140.231 2.71059 0.154677 0
M  V30 1502 C 138.687 2.65289 -2.43207 0
M  V30 1503 C 138.295 2.23301 -3.88382 0
M  V30 1504 C 140.039 3.43008 -2.50091 0
M  V30 1505 C 137.946 3.38696 -4.84808 0
M  V30 1506 H 136.876 0.55118 -0.514506 0
M  V30 1507 H 139.527 0.774616 -1.66349 0
M  V30 1508 H 137.909 3.36769 -2.08332 0
M  V30 1509 H 139.083 1.59218 -4.32419 0
M  V30 1510 H 137.398 1.58618 -3.85006 0
M  V30 1511 H 139.995 4.28881 -3.1932 0
M  V30 1512 H 140.338 3.87065 -1.53253 0
M  V30 1513 H 140.871 2.78574 -2.83974 0
M  V30 1514 H 137.61 2.99668 -5.82992 0
M  V30 1515 H 137.13 4.01683 -4.45433 0
M  V30 1516 H 138.809 4.04712 -5.04794 0
M  V30 1517 N 138.941 1.26152 0.944643 0
M  V30 1518 C 140.181 1.12708 1.70517 0
M  V30 1519 C 140.545 -0.324727 1.89234 0
M  V30 1520 O 141.746 -0.581211 2.62441 0
M  V30 1521 C 140.017 1.8713 3.04495 0
M  V30 1522 S 141.576 1.89698 3.95677 0
M  V30 1523 H 138.394 0.402665 0.585988 0
M  V30 1524 H 140.996 1.59821 1.12594 0
M  V30 1525 H 139.7 2.91833 2.88551 0
M  V30 1526 H 139.231 1.40444 3.67477 0
M  V30 1527 H 141.246 0.981198 4.86402 0
M  V30 1528 N 140.419 -1.14872 1.07899 0
M  V30 1529 C 141.367 -2.21857 0.698727 0
M  V30 1530 C 142.361 -1.66845 -0.293086 0
M  V30 1531 O 143.567 -1.79321 -0.156204 0
M  V30 1532 H 139.942 -0.722691 0.207899 0
M  V30 1533 H 141.913 -2.51205 1.61054 0
M  V30 1534 C 140.662 -3.47498 0.11858 0
M  V30 1535 H 139.985 -3.90154 0.872914 0
M  V30 1536 H 141.425 -4.23858 -0.109759 0
M  V30 1537 C 139.884 -3.16947 -1.1422 0
M  V30 1538 O 140.414 -3.3426 -2.22785 0
M  V30 1539 N 138.62 -2.70946 -1.05055 0
M  V30 1540 H 138.167 -2.57058 -0.167038 0
M  V30 1541 H 138.125 -2.50879 -1.89491 0
M  V30 1542 N 141.898 -0.863906 -1.31812 0
M  V30 1543 C 143.126 -0.486111 -2.01108 0
M  V30 1544 C 143.541 0.919755 -1.64882 0
M  V30 1545 O 142.898 1.60162 -0.874893 0
M  V30 1546 C 142.949 -0.626435 -3.56031 0
M  V30 1547 O 142.67 -1.97693 -3.90959 0
M  V30 1548 C 144.171 -0.248857 -4.42601 0
M  V30 1549 H 141.391 -0.190052 -0.643523 0
M  V30 1550 H 143.935 -1.1634 -1.68182 0
M  V30 1551 H 142.09 0.00322717 -3.874 0
M  V30 1552 H 142.504 -1.98034 -4.85678 0
M  V30 1553 H 143.978 -0.398016 -5.50563 0
M  V30 1554 H 144.455 0.811489 -4.31638 0
M  V30 1555 H 145.061 -0.853971 -4.16638 0
M  V30 1556 N 143.376 1.44774 -0.622745 0
M  V30 1557 C 144.604 2.06487 -0.130722 0
M  V30 1558 C 145.019 1.46476 1.19123 0
M  V30 1559 O 144.376 0.584502 1.72887 0
M  V30 1560 C 144.427 3.615 -0.000807207 0
M  V30 1561 O 144.148 4.19274 -1.27048 0
M  V30 1562 C 145.649 4.40229 0.520898 0
M  V30 1563 H 142.869 0.666704 -0.0758106 0
M  V30 1564 H 145.413 1.85779 -0.854774 0
M  V30 1565 H 143.568 3.81498 0.673643 0
M  V30 1566 H 143.982 5.12622 -1.1099 0
M  V30 1567 H 145.456 5.49144 0.560838 0
M  V30 1568 H 145.933 4.1108 1.54627 0
M  V30 1569 H 146.539 4.25131 -0.120018 0
M  V30 1570 N 144.854 0.36279 1.53368 0
M  V30 1571 C 146.102 -0.227326 2.00817 0
M  V30 1572 C 146.423 -1.49511 1.25186 0
M  V30 1573 O 145.693 -1.92482 0.364348 0
M  V30 1574 H 144.273 -0.0869923 0.741917 0
M  V30 1575 H 146.935 0.488381 1.88682 0
M  V30 1576 H 146.031 -0.456273 3.08747 0
M  V30 1577 N 146.332 -1.57332 0.0918853 0
M  V30 1578 C 147.295 -2.12708 -0.85369 0
M  V30 1579 C 148.295 -1.05561 -1.213 0
M  V30 1580 O 149.485 -1.31461 -1.14296 0
M  V30 1581 C 146.617 -2.64503 -2.15061 0
M  V30 1582 H 147.81 -2.97573 -0.3729 0
M  V30 1583 H 145.363 -1.55509 -0.157072 0
M  V30 1584 H 146.098 -1.83149 -2.67632 0
M  V30 1585 H 145.883 -3.4284 -1.90272 0
M  V30 1586 H 147.373 -3.07351 -2.82711 0
M  V30 1587 N 147.81 0.181792 -1.56548 0
M  V30 1588 C 148.72 1.24538 -1.98815 0
M  V30 1589 C 149.736 1.49045 -0.897861 0
M  V30 1590 O 150.912 1.61399 -1.20467 0
M  V30 1591 C 147.977 2.56683 -2.33055 0
M  V30 1592 C 147.038 2.40131 -3.55859 0
M  V30 1593 C 146.271 3.65975 -3.88456 0
M  V30 1594 O 146.494 4.70711 -3.22161 0
M  V30 1595 O 145.428 3.6071 -4.81842 0
M  V30 1596 H 149.254 0.916647 -2.89536 0
M  V30 1597 H 146.839 0.387842 -1.44278 0
M  V30 1598 H 148.721 3.34655 -2.56094 0
M  V30 1599 H 147.396 2.89157 -1.45498 0
M  V30 1600 H 146.303 1.60226 -3.38051 0
M  V30 1601 H 147.636 2.12585 -4.43924 0
M  V30 1602 N 149.288 1.51039 0.449983 0
M  V30 1603 C 150.235 1.71439 1.54523 0
M  V30 1604 C 151.205 0.555871 1.56522 0
M  V30 1605 O 152.39 0.788871 1.73728 0
M  V30 1606 C 149.53 1.83384 2.92343 0
M  V30 1607 C 148.643 3.10873 2.9997 0
M  V30 1608 C 147.778 3.13488 4.28834 0
M  V30 1609 C 146.817 4.35343 4.30282 0
M  V30 1610 N 145.954 4.35579 5.5065 0
M  V30 1611 H 150.794 2.64934 1.36433 0
M  V30 1612 H 148.331 1.31312 0.662982 0
M  V30 1613 H 150.289 1.88291 3.72293 0
M  V30 1614 H 148.919 0.933086 3.0902 0
M  V30 1615 H 147.971 3.15336 2.12761 0
M  V30 1616 H 149.283 4.00814 2.96901 0
M  V30 1617 H 148.437 3.17241 5.17149 0
M  V30 1618 H 147.176 2.21414 4.34543 0
M  V30 1619 H 146.181 4.3178 3.40362 0
M  V30 1620 H 147.406 5.28668 4.26248 0
M  V30 1621 H 145.352 3.46369 5.57104 0
M  V30 1622 H 145.269 5.19313 5.49409 0
M  V30 1623 H 146.537 4.43507 6.41032 0
M  V30 1624 N 150.766 -0.704594 1.40972 0
M  V30 1625 C 152.177 -1.28418 1.3552 0
M  V30 1626 C 152.528 -1.96171 0.0339434 0
M  V30 1627 O 151.653 -1.98231 -0.867944 0
M  V30 1628 C 152.248 -2.33528 2.45459 0
M  V30 1629 C 150.807 -2.87085 2.43433 0
M  V30 1630 C 149.954 -1.61007 2.2577 0
M  V30 1631 H 152.905 -0.499963 1.50619 0
M  V30 1632 H 152.926 -3.14619 2.13998 0
M  V30 1633 H 152.438 -1.84187 3.41609 0
M  V30 1634 H 150.539 -3.40626 1.51013 0
M  V30 1635 H 150.652 -3.3813 3.39419 0
M  V30 1636 H 149.016 -1.86482 1.73483 0
M  V30 1637 H 149.799 -1.13675 3.23933 0
M  V30 1638 N 152.244 -1.26651 -0.937939 0
M  V30 1639 C 153.191 -1.0849 -2.03712 0
M  V30 1640 C 154.161 0.011033 -1.66096 0
M  V30 1641 O 155.346 -0.149353 -1.90215 0
M  V30 1642 C 152.486 -0.72735 -3.37348 0
M  V30 1643 C 151.599 -1.89986 -3.87981 0
M  V30 1644 C 150.734 -1.48513 -5.10017 0
M  V30 1645 C 149.773 -2.62575 -5.5292 0
M  V30 1646 N 148.91 -2.21762 -6.66158 0
M  V30 1647 H 153.75 -2.02551 -2.18579 0
M  V30 1648 H 151.287 -1.00844 -1.07093 0
M  V30 1649 H 153.245 -0.50092 -4.14182 0
M  V30 1650 H 151.875 0.176298 -3.22318 0
M  V30 1651 H 150.927 -2.23913 -3.07518 0
M  V30 1652 H 152.239 -2.75586 -4.15757 0
M  V30 1653 H 151.393 -1.21934 -5.94321 0
M  V30 1654 H 150.132 -0.60009 -4.83994 0
M  V30 1655 H 149.137 -2.8988 -4.67172 0
M  V30 1656 H 150.362 -3.51685 -5.80943 0
M  V30 1657 H 148.308 -1.35696 -6.41812 0
M  V30 1658 H 148.225 -3.00903 -6.93537 0
M  V30 1659 H 149.493 -1.98403 -7.53828 0
M  V30 1660 N 153.722 1.14298 -1.08507 0
M  V30 1661 C 154.969 1.85359 -0.815373 0
M  V30 1662 C 155.297 1.83001 0.658865 0
M  V30 1663 O 154.552 1.25655 1.50031 0
M  V30 1664 C 154.851 3.33547 -1.28379 0
M  V30 1665 C 154.517 3.56093 -2.76602 0
M  V30 1666 C 153.179 3.61955 -3.17084 0
M  V30 1667 C 155.531 3.64834 -3.72217 0
M  V30 1668 C 152.859 3.74082 -4.51973 0
M  V30 1669 C 155.211 3.78487 -5.06883 0
M  V30 1670 C 153.875 3.82598 -5.46969 0
M  V30 1671 H 153.145 0.678276 -0.298366 0
M  V30 1672 H 155.792 1.35002 -1.35819 0
M  V30 1673 H 154.097 3.86191 -0.660593 0
M  V30 1674 H 155.794 3.86959 -1.05186 0
M  V30 1675 H 152.384 3.52179 -2.4427 0
M  V30 1676 H 156.568 3.59595 -3.42061 0
M  V30 1677 H 151.824 3.75527 -4.82483 0
M  V30 1678 H 155.998 3.84193 -5.80834 0
M  V30 1679 H 153.625 3.91747 -6.51489 0
M  V30 1680 N 155.201 0.870884 1.31352 0
M  V30 1681 C 156.131 0.343096 2.30966 0
M  V30 1682 C 157.112 -0.566507 1.60389 0
M  V30 1683 O 158.297 -0.483336 1.88089 0
M  V30 1684 C 155.427 -0.455487 3.443 0
M  V30 1685 C 154.381 0.361103 4.26474 0
M  V30 1686 C 153.707 -0.563221 5.31725 0
M  V30 1687 C 155.007 1.59566 4.97329 0
M  V30 1688 H 156.701 1.17548 2.75359 0
M  V30 1689 H 154.247 0.566686 1.32381 0
M  V30 1690 H 156.2 -0.83525 4.13039 0
M  V30 1691 H 154.924 -1.32139 2.98675 0
M  V30 1692 H 153.583 0.722825 3.59403 0
M  V30 1693 H 153.231 -1.42643 4.82351 0
M  V30 1694 H 152.931 -0.0207409 5.87596 0
M  V30 1695 H 154.455 -0.939808 6.03324 0
M  V30 1696 H 155.869 1.28728 5.58661 0
M  V30 1697 H 154.266 2.07728 5.63 0
M  V30 1698 H 155.336 2.34798 4.24262 0
M  V30 1699 N 156.679 -1.44442 0.630414 0
M  V30 1700 C 158.09 -1.85434 0.217063 0
M  V30 1701 C 158.441 -1.52748 -1.23136 0
M  V30 1702 O 157.566 -0.965205 -1.93682 0
M  V30 1703 C 158.161 -3.36581 0.387168 0
M  V30 1704 C 156.72 -3.76389 0.0283297 0
M  V30 1705 C 155.867 -2.68296 0.700889 0
M  V30 1706 H 158.818 -1.34919 0.83562 0
M  V30 1707 H 158.839 -3.78657 -0.374086 0
M  V30 1708 H 158.351 -3.60339 1.44144 0
M  V30 1709 H 156.452 -3.58246 -1.02423 0
M  V30 1710 H 156.565 -4.77095 0.437892 0
M  V30 1711 H 154.929 -2.54335 0.136267 0
M  V30 1712 H 155.712 -2.94887 1.75774 0
M  V30 1713 N 158.157 -0.370918 -1.53173 0
M  V30 1714 C 159.434 0.273754 -1.93675 0
M  V30 1715 C 159.814 1.65938 -1.3049 0
M  V30 1716 O 159.162 2.23698 -0.465999 0
M  V30 1717 C 159.372 0.318602 -3.47543 0
M  V30 1718 C 160.72 0.556392 -4.20939 0
M  V30 1719 O 161.744 0.399587 -3.53952 0
M  V30 1720 O 160.603 0.862133 -5.39657 0
M  V30 1721 H 157.697 0.165448 -0.810281 0
M  V30 1722 H 160.243 -0.42409 -1.64315 0
M  V30 1723 H 159.015 -0.652687 -3.85818 0
M  V30 1724 H 158.638 1.06212 -3.83151 0
M  V30 1725 N 159.635 1.57281 -0.100228 0
M  V30 1726 C 160.565 2.17328 0.853857 0
M  V30 1727 C 161.546 1.10804 1.2906 0
M  V30 1728 O 162.731 1.38963 1.35657 0
M  V30 1729 C 159.861 2.75772 2.11109 0
M  V30 1730 C 158.815 3.87713 1.81279 0
M  V30 1731 C 158.141 4.32882 3.13874 0
M  V30 1732 C 159.441 5.10677 1.09574 0
M  V30 1733 H 161.135 2.97305 0.353545 0
M  V30 1734 H 158.681 1.43009 0.168612 0
M  V30 1735 H 160.634 3.16433 2.78296 0
M  V30 1736 H 159.358 1.93057 2.63432 0
M  V30 1737 H 158.017 3.476 1.16489 0
M  V30 1738 H 157.665 3.47051 3.64095 0
M  V30 1739 H 157.365 5.08358 2.94696 0
M  V30 1740 H 158.889 4.7618 3.82211 0
M  V30 1741 H 160.303 5.48474 1.66879 0
M  V30 1742 H 158.7 5.91615 1.00557 0
M  V30 1743 H 159.77 4.84835 0.0793299 0
M  V30 1744 N 161.113 -0.173488 1.56642 0
M  V30 1745 C 162.343 -0.904781 1.85734 0
M  V30 1746 C 162.751 -1.76431 0.68328 0
M  V30 1747 O 162.094 -1.802 -0.356865 0
M  V30 1748 C 162.156 -1.83382 3.09211 0
M  V30 1749 C 161.82 -1.15411 4.42187 0
M  V30 1750 C 162.817 -0.520609 5.17287 0
M  V30 1751 C 160.502 -1.15151 4.88923 0
M  V30 1752 C 162.496 0.106412 6.37311 0
M  V30 1753 C 160.183 -0.520664 6.08878 0
M  V30 1754 C 161.181 0.107196 6.82916 0
M  V30 1755 O 160.869 0.728102 8.00596 0
M  V30 1756 H 160.601 -0.268408 0.62043 0
M  V30 1757 H 163.155 -0.179096 2.04618 0
M  V30 1758 H 161.385 -2.59976 2.86268 0
M  V30 1759 H 163.074 -2.43476 3.24768 0
M  V30 1760 H 163.84 -0.514606 4.82262 0
M  V30 1761 H 159.719 -1.62961 4.31236 0
M  V30 1762 H 163.263 0.597081 6.9504 0
M  V30 1763 H 159.16 -0.524242 6.43368 0
M  V30 1764 H 159.928 0.627138 8.16094 0
M  V30 1765 N 162.591 -1.51276 -0.441967 0
M  V30 1766 C 163.868 -1.54252 -1.20273 0
M  V30 1767 C 164.248 -0.30408 -2.08898 0
M  V30 1768 O 163.596 0.711084 -2.17154 0
M  V30 1769 C 163.806 -2.85406 -2.00859 0
M  V30 1770 C 165.154 -3.37181 -2.58059 0
M  V30 1771 O 166.178 -2.86925 -2.11074 0
M  V30 1772 O 165.037 -4.24858 -3.43741 0
M  V30 1773 H 162.131 -0.619969 -0.547328 0
M  V30 1774 H 164.677 -1.63586 -0.451413 0
M  V30 1775 H 163.449 -3.67003 -1.35736 0
M  V30 1776 H 163.072 -2.79213 -2.83065 0
M  V30 1777 N 164.069 0.697108 -1.41344 0
M  V30 1778 C 165.299 1.48377 -1.43763 0
M  V30 1779 C 165.707 1.89156 -0.0408726 0
M  V30 1780 O 165.05 1.57239 0.949812 0
M  V30 1781 C 165.112 2.7781 -2.2817 0
M  V30 1782 C 164.776 2.59244 -3.76353 0
M  V30 1783 C 165.773 2.25292 -4.68551 0
M  V30 1784 C 163.458 2.74933 -4.20378 0
M  V30 1785 C 165.452 2.07264 -6.02761 0
M  V30 1786 C 163.139 2.56521 -5.54653 0
M  V30 1787 C 164.137 2.22737 -6.4566 0
M  V30 1788 O 163.825 2.04485 -7.77458 0
M  V30 1789 H 163.557 0.463842 -0.491759 0
M  V30 1790 H 166.111 0.865934 -1.86255 0
M  V30 1791 H 164.341 3.41995 -1.8049 0
M  V30 1792 H 166.03 3.39608 -2.22309 0
M  V30 1793 H 166.796 2.12787 -4.35829 0
M  V30 1794 H 162.675 3.00213 -3.49848 0
M  V30 1795 H 166.219 1.80817 -6.73759 0
M  V30 1796 H 162.116 2.68616 -5.86955 0
M  V30 1797 H 162.884 2.1926 -7.88586 0
M  V30 1798 N 165.547 1.27147 0.931209 0
M  V30 1799 C 166.494 1.09568 2.03134 0
M  V30 1800 C 167.464 -0.00222433 1.661 0
M  V30 1801 O 168.649 0.159439 1.90133 0
M  V30 1802 C 165.789 0.745231 3.36957 0
M  V30 1803 C 164.902 1.92041 3.86968 0
M  V30 1804 C 164.037 1.51216 5.09222 0
M  V30 1805 C 163.076 2.65504 5.5152 0
M  V30 1806 N 162.213 2.25291 6.64972 0
M  V30 1807 H 167.053 2.03708 2.17502 0
M  V30 1808 H 164.59 1.01411 1.06556 0
M  V30 1809 H 166.548 0.522878 4.1391 0
M  V30 1810 H 165.178 -0.159202 3.22407 0
M  V30 1811 H 164.23 2.25541 3.06326 0
M  V30 1812 H 165.542 2.77787 4.1429 0
M  V30 1813 H 164.696 1.25084 5.93666 0
M  V30 1814 H 163.435 0.625749 4.83669 0
M  V30 1815 H 162.44 2.92354 4.65628 0
M  V30 1816 H 163.665 3.54761 5.7907 0
M  V30 1817 H 161.611 1.39098 6.41083 0
M  V30 1818 H 161.528 3.04577 6.91931 0
M  V30 1819 H 162.796 2.02398 7.52765 0
M  V30 1820 N 167.025 -1.13721 1.09112 0
M  V30 1821 C 167.935 -2.22638 0.73957 0
M  V30 1822 C 168.951 -1.72091 -0.257068 0
M  V30 1823 O 170.127 -2.01155 -0.0992154 0
M  V30 1824 C 167.192 -3.46322 0.16191 0
M  V30 1825 C 166.253 -4.11775 1.21408 0
M  V30 1826 C 165.486 -5.29555 0.663891 0
M  V30 1827 O 165.709 -5.68077 -0.514274 0
M  V30 1828 O 164.643 -5.84973 1.41738 0
M  V30 1829 H 168.469 -2.55074 1.64836 0
M  V30 1830 H 166.054 -1.21791 0.865289 0
M  V30 1831 H 167.936 -4.21107 -0.157073 0
M  V30 1832 H 166.611 -3.15593 -0.719932 0
M  V30 1833 H 165.518 -3.3883 1.58571 0
M  V30 1834 H 166.851 -4.46627 2.06845 0
M  V30 1835 N 168.503 -0.877838 -1.30888 0
M  V30 1836 C 169.451 -0.328662 -2.30266 0
M  V30 1837 C 170.445 0.560496 -1.59859 0
M  V30 1838 O 171.651 0.445722 -1.74394 0
M  V30 1839 H 168.026 -0.0876142 -0.746879 0
M  V30 1840 H 169.997 -1.18061 -2.74051 0
M  V30 1841 C 168.746 0.448071 -3.44801 0
M  V30 1842 H 168.069 -0.226859 -3.99156 0
M  V30 1843 H 169.509 0.797541 -4.16432 0
M  V30 1844 C 167.968 1.64239 -2.94155 0
M  V30 1845 O 168.498 2.74175 -2.93583 0
M  V30 1846 N 166.704 1.47716 -2.50256 0
M  V30 1847 H 166.251 0.582821 -2.5092 0
M  V30 1848 H 166.209 2.27765 -2.16727 0
M  V30 1849 N 169.982 1.44106 -0.638065 0
M  V30 1850 C 171.398 1.56672 -0.304286 0
M  V30 1851 C 171.598 1.6244 1.19228 0
M  V30 1852 O 170.654 1.57121 1.9766 0
M  V30 1853 C 171.967 2.83503 -1.00231 0
M  V30 1854 C 173.515 2.97226 -0.981116 0
M  V30 1855 C 173.99 4.26868 -1.65974 0
M  V30 1856 N 175.481 4.33698 -1.62666 0
M  V30 1857 C 176.216 5.32745 -2.12063 0
M  V30 1858 N 175.712 6.38157 -2.6968 0
M  V30 1859 N 177.505 5.24299 -2.02651 0
M  V30 1860 H 169.656 1.38605 -1.60942 0
M  V30 1861 H 171.919 0.664661 -0.675965 0
M  V30 1862 H 171.625 2.85251 -2.0573 0
M  V30 1863 H 171.499 3.73251 -0.54439 0
M  V30 1864 H 173.886 2.95027 0.0654188 0
M  V30 1865 H 173.967 2.08808 -1.47759 0
M  V30 1866 H 173.611 4.29826 -2.70576 0
M  V30 1867 H 173.541 5.14156 -1.13804 0
M  V30 1868 H 176.032 3.58138 -1.20606 0
M  V30 1869 H 176.345 7.10029 -3.05087 0
M  V30 1870 H 174.69 6.38823 -2.73734 0
M  V30 1871 H 177.881 4.4086 -1.57353 0
M  V30 1872 H 178.054 6.01334 -2.41457 0
M  V30 1873 N 171.46 0.379036 1.52974 0
M  V30 1874 C 172.707 -0.206421 2.01445 0
M  V30 1875 C 173.035 -1.47668 1.26587 0
M  V30 1876 O 172.29 -1.92514 0.351675 0
M  V30 1877 C 172.589 -0.53096 3.53434 0
M  V30 1878 C 172.255 0.646546 4.46241 0
M  V30 1879 C 170.917 0.969604 4.7133 0
M  V30 1880 C 173.269 1.43479 5.01062 0
M  V30 1881 C 170.597 2.08263 5.48492 0
M  V30 1882 C 172.949 2.53834 5.7944 0
M  V30 1883 C 171.613 2.86659 6.02812 0
M  V30 1884 H 170.883 -0.0755349 0.73714 0
M  V30 1885 H 173.53 0.514271 1.84465 0
M  V30 1886 H 171.835 -1.33285 3.68432 0
M  V30 1887 H 173.532 -0.996417 3.88423 0
M  V30 1888 H 170.122 0.384734 4.2687 0
M  V30 1889 H 174.306 1.19844 4.81613 0
M  V30 1890 H 169.562 2.34078 5.64816 0
M  V30 1891 H 173.736 3.15319 6.20924 0
M  V30 1892 H 171.363 3.73026 6.62387 0
M  V30 1893 N 172.938 -1.57226 0.108567 0
M  V30 1894 C 174.187 -1.94008 -0.551703 0
M  V30 1895 C 174.5 -0.993442 -1.68494 0
M  V30 1896 O 175.706 -1.25551 -2.40726 0
M  V30 1897 C 174.162 -3.44763 -1.03279 0
M  V30 1898 C 173.77 -4.47943 0.0714193 0
M  V30 1899 C 175.514 -3.90483 -1.66503 0
M  V30 1900 C 173.421 -5.89865 -0.425779 0
M  V30 1901 H 172.351 -0.724206 -0.209863 0
M  V30 1902 H 175.002 -1.82547 0.186741 0
M  V30 1903 H 173.384 -3.51422 -1.82533 0
M  V30 1904 H 174.558 -4.52942 0.847365 0
M  V30 1905 H 172.873 -4.11913 0.609669 0
M  V30 1906 H 175.47 -4.93925 -2.04798 0
M  V30 1907 H 175.813 -3.29877 -2.53942 0
M  V30 1908 H 176.346 -3.86581 -0.938074 0
M  V30 1909 H 173.085 -6.54202 0.412316 0
M  V30 1910 H 172.605 -5.88309 -1.16843 0
M  V30 1911 H 174.284 -6.40844 -0.890397 0
M  V30 1912 N 174.416 0.165178 -1.56732 0
M  V30 1913 C 175.326 1.22423 -2.00125 0
M  V30 1914 C 176.342 1.48084 -0.913619 0
M  V30 1915 O 177.518 1.60112 -1.22172 0
M  V30 1916 C 174.583 2.54197 -2.35764 0
M  V30 1917 C 173.644 2.36343 -3.58386 0
M  V30 1918 C 172.877 3.61834 -3.92316 0
M  V30 1919 O 173.1 4.67267 -3.27135 0
M  V30 1920 O 172.034 3.55579 -4.85641 0
M  V30 1921 H 175.86 0.885886 -2.90492 0
M  V30 1922 H 173.445 0.372518 -1.44681 0
M  V30 1923 H 175.327 3.3192 -2.59629 0
M  V30 1924 H 174.002 2.87598 -1.48557 0
M  V30 1925 H 172.909 1.56632 -3.39731 0
M  V30 1926 H 174.242 2.07865 -4.46154 0
M  V30 1927 N 175.894 1.51508 0.433938 0
M  V30 1928 C 177.143 1.63578 1.18005 0
M  V30 1929 C 177.456 0.359514 1.92268 0
M  V30 1930 O 178.662 0.359632 2.69108 0
M  V30 1931 C 177.118 2.88901 2.14626 0
M  V30 1932 C 176.726 4.23544 1.45995 0
M  V30 1933 C 178.47 3.10328 2.89649 0
M  V30 1934 C 176.377 5.40014 2.4112 0
M  V30 1935 H 175.307 0.609277 0.444182 0
M  V30 1936 H 177.958 1.77978 0.446773 0
M  V30 1937 H 176.34 2.68142 2.91403 0
M  V30 1938 H 177.514 4.54696 0.747532 0
M  V30 1939 H 175.829 4.08021 0.831115 0
M  V30 1940 H 178.426 3.94518 3.60915 0
M  V30 1941 H 178.769 2.23544 3.51189 0
M  V30 1942 H 179.302 3.31443 2.19978 0
M  V30 1943 H 176.041 6.29068 1.84264 0
M  V30 1944 H 175.561 5.13233 3.10406 0
M  V30 1945 H 177.24 5.72099 3.02177 0
M  V30 1946 N 177.372 -0.689602 1.41712 0
M  V30 1947 C 178.62 -1.4468 1.4111 0
M  V30 1948 C 178.941 -1.94986 0.0232196 0
M  V30 1949 O 178.211 -1.72097 -0.935913 0
M  V30 1950 H 176.791 -0.536847 0.519427 0
M  V30 1951 H 179.453 -0.815825 1.77004 0
M  V30 1952 H 178.549 -2.30706 2.10193 0
M  V30 1953 N 178.85 -1.27639 -0.924453 0
M  V30 1954 C 180.096 -1.14336 -1.67497 0
M  V30 1955 C 180.429 0.309465 -1.91718 0
M  V30 1956 O 179.704 1.22608 -1.50989 0
M  V30 1957 C 179.987 -1.93096 -3.0395 0
M  V30 1958 C 179.84 -3.46381 -2.8695 0
M  V30 1959 C 181.159 -1.73798 -4.0433 0
M  V30 1960 H 178.278 -0.416728 -0.607871 0
M  V30 1961 H 180.92 -1.56832 -1.07256 0
M  V30 1962 H 179.07 -1.56982 -3.55372 0
M  V30 1963 H 180.742 -3.92343 -2.42621 0
M  V30 1964 H 178.985 -3.72557 -2.22225 0
M  V30 1965 H 179.656 -3.96735 -3.83804 0
M  V30 1966 H 182.132 -2.05293 -3.61931 0
M  V30 1967 H 181.008 -2.31294 -4.97789 0
M  V30 1968 H 181.269 -0.686725 -4.36734 0
M  V30 1969 N 180.328 1.1314 -1.09713 0
M  V30 1970 C 181.556 1.88321 -0.856898 0
M  V30 1971 C 181.971 1.79276 0.592073 0
M  V30 1972 O 181.328 1.16142 1.40774 0
M  V30 1973 C 181.379 3.37812 -1.28706 0
M  V30 1974 O 181.1 3.46627 -2.67921 0
M  V30 1975 C 182.601 4.29952 -1.07964 0
M  V30 1976 H 179.821 0.596094 -0.308079 0
M  V30 1977 H 182.365 1.43205 -1.45988 0
M  V30 1978 H 180.52 3.805 -0.727912 0
M  V30 1979 H 180.934 4.39579 -2.8613 0
M  V30 1980 H 182.408 5.33159 -1.42986 0
M  V30 1981 H 182.885 4.39196 -0.0176577 0
M  V30 1982 H 183.491 3.93036 -1.62489 0
M  V30 1983 N 181.806 0.884767 1.30421 0
M  V30 1984 C 183.222 0.57874 1.48737 0
M  V30 1985 C 183.422 -0.883567 1.81095 0
M  V30 1986 O 182.478 -1.6648 1.89844 0
M  V30 1987 C 183.791 1.49171 2.61091 0
M  V30 1988 C 185.339 1.49532 2.74971 0
M  V30 1989 C 185.814 2.39421 3.90438 0
M  V30 1990 N 187.305 2.37383 3.97748 0
M  V30 1991 C 188.04 3.03647 4.86401 0
M  V30 1992 N 187.536 3.79136 5.79852 0
M  V30 1993 N 189.329 2.9288 4.79768 0
M  V30 1994 H 181.48 1.83075 1.0769 0
M  V30 1995 H 183.743 0.783637 0.533495 0
M  V30 1996 H 183.449 2.53291 2.44001 0
M  V30 1997 H 183.323 1.20113 3.57565 0
M  V30 1998 H 185.71 0.46163 2.91467 0
M  V30 1999 H 185.791 1.8262 1.79119 0
M  V30 2000 H 185.435 3.42874 3.74699 0
M  V30 2001 H 185.365 2.03649 4.85628 0
M  V30 2002 H 187.856 1.82525 3.30897 0
M  V30 2003 H 188.169 4.26789 6.4426 0
M  V30 2004 H 186.514 3.83243 5.79784 0
M  V30 2005 H 189.705 2.33433 4.05742 0
M  V30 2006 H 189.878 3.448 5.4865 0
M  V30 2007 N 183.284 -1.43765 0.645699 0
M  V30 2008 C 184.7 -1.56509 0.312591 0
M  V30 2009 C 184.9 -1.6307 -1.18365 0
M  V30 2010 O 183.956 -1.58167 -1.96824 0
M  V30 2011 C 185.269 -2.82968 1.01733 0
M  V30 2012 C 186.817 -2.96701 0.996865 0
M  V30 2013 C 187.292 -4.25982 1.68236 0
M  V30 2014 N 188.783 -4.32829 1.64964 0
M  V30 2015 C 189.518 -5.31613 2.14885 0
M  V30 2016 N 189.014 -6.36718 2.73061 0
M  V30 2017 N 190.807 -5.23217 2.05428 0
M  V30 2018 H 182.958 -1.3775 1.61675 0
M  V30 2019 H 185.221 -0.661067 0.679481 0
M  V30 2020 H 184.927 -2.84156 2.0724 0
M  V30 2021 H 184.801 -3.72957 0.564177 0
M  V30 2022 H 187.188 -2.95058 -0.0497719 0
M  V30 2023 H 187.269 -2.08022 1.48865 0
M  V30 2024 H 186.913 -4.28386 2.72852 0
M  V30 2025 H 186.843 -5.13545 1.16529 0
M  V30 2026 H 189.334 -3.57493 1.22503 0
M  V30 2027 H 189.647 -7.08401 3.08848 0
M  V30 2028 H 187.992 -6.37362 2.77118 0
M  V30 2029 H 191.183 -4.40019 1.59689 0
M  V30 2030 H 191.356 -6.00045 2.44643 0
M  V30 2031 N 184.763 -0.387143 -1.52771 0
M  V30 2032 C 185.673 0.456442 -2.30117 0
M  V30 2033 C 186.689 1.07342 -1.36944 0
M  V30 2034 O 187.865 1.07971 -1.70013 0
M  V30 2035 C 184.93 1.56957 -3.09136 0
M  V30 2036 C 183.991 0.977916 -4.18014 0
M  V30 2037 C 183.224 2.038 -4.93256 0
M  V30 2038 O 183.447 3.25271 -4.68567 0
M  V30 2039 O 182.381 1.6565 -5.78657 0
M  V30 2040 H 186.207 -0.17359 -3.03203 0
M  V30 2041 H 183.792 -0.150919 -1.48636 0
M  V30 2042 H 185.674 2.21628 -3.58412 0
M  V30 2043 H 184.349 2.18461 -2.38865 0
M  V30 2044 H 183.256 0.294525 -3.72939 0
M  V30 2045 H 184.589 0.407128 -4.90513 0
M  V30 2046 N 186.241 1.57166 -0.116904 0
M  V30 2047 C 187.487 1.95412 0.542405 0
M  V30 2048 C 187.82 1.00019 1.66463 0
M  V30 2049 O 187.095 0.0370346 1.94465 0
M  V30 2050 C 187.378 3.43615 1.07708 0
M  V30 2051 C 187.231 4.49781 -0.0415868 0
M  V30 2052 C 188.55 3.93616 1.96861 0
M  V30 2053 H 185.669 0.710543 0.195696 0
M  V30 2054 H 188.311 1.89027 -0.192038 0
M  V30 2055 H 186.461 3.49187 1.70296 0
M  V30 2056 H 188.133 4.56308 -0.676793 0
M  V30 2057 H 186.376 4.28033 -0.705019 0
M  V30 2058 H 187.047 5.50733 0.373717 0
M  V30 2059 H 189.523 3.90335 1.44146 0
M  V30 2060 H 188.399 4.97838 2.3119 0
M  V30 2061 H 188.66 3.34188 2.89432 0
M  V30 2062 N 187.719 -0.156864 1.56817 0
M  V30 2063 C 188.669 -1.19891 1.93934 0
M  V30 2064 C 189.653 -1.39061 0.809372 0
M  V30 2065 O 190.845 -1.40789 1.07273 0
M  V30 2066 C 187.974 -2.53493 2.31508 0
M  V30 2067 C 187.06 -2.37957 3.51052 0
M  V30 2068 N 187.451 -1.92158 4.67877 0
M  V30 2069 C 185.749 -2.68739 3.55943 0
M  V30 2070 C 186.45 -1.8943 5.49992 0
M  V30 2071 N 185.426 -2.32375 4.91429 0
M  V30 2072 H 189.228 -0.836746 2.81737 0
M  V30 2073 H 186.742 -0.365012 1.58245 0
M  V30 2074 H 188.739 -3.28811 2.56299 0
M  V30 2075 H 187.399 -2.905 1.45051 0
M  V30 2076 H 188.41 -1.62274 4.91821 0
M  V30 2077 H 185.087 -3.09687 2.80001 0
M  V30 2078 H 186.477 -1.55596 6.53636 0
M  V30 2079 N 189.197 -1.51736 -0.425897 0
M  V30 2080 C 190.446 -1.64201 -1.17136 0
M  V30 2081 C 190.759 -0.369705 -1.92074 0
M  V30 2082 O 191.965 -0.373898 -2.68913 0
M  V30 2083 C 190.421 -2.90035 -2.13091 0
M  V30 2084 C 190.029 -4.24312 -1.43747 0
M  V30 2085 C 191.773 -3.1186 -2.87999 0
M  V30 2086 C 189.68 -5.41285 -2.38253 0
M  V30 2087 H 188.61 -0.611624 -0.440944 0
M  V30 2088 H 191.261 -1.78212 -0.437328 0
M  V30 2089 H 189.643 -2.69684 -2.89977 0
M  V30 2090 H 190.817 -4.55086 -0.723408 0
M  V30 2091 H 189.132 -4.08456 -0.809465 0
M  V30 2092 H 191.729 -3.96427 -3.58817 0
M  V30 2093 H 192.072 -2.25403 -3.49999 0
M  V30 2094 H 192.605 -3.32605 -2.18217 0
M  V30 2095 H 189.344 -6.30037 -1.80925 0
M  V30 2096 H 188.864 -5.14872 -3.0768 0
M  V30 2097 H 190.543 -5.73694 -2.99139 0
M  V30 2098 N 190.675 0.682077 -1.42076 0
M  V30 2099 C 191.905 1.46844 -1.45329 0
M  V30 2100 C 192.313 1.89102 -0.0609328 0
M  V30 2101 O 191.656 1.58238 0.933082 0
M  V30 2102 C 191.718 2.75375 -2.31104 0
M  V30 2103 C 191.382 2.55238 -3.79081 0
M  V30 2104 C 192.379 2.20309 -4.70914 0
M  V30 2105 C 190.064 2.70459 -4.2327 0
M  V30 2106 C 192.058 2.00859 -6.04925 0
M  V30 2107 C 189.745 2.50624 -5.57343 0
M  V30 2108 C 190.743 2.15876 -6.47986 0
M  V30 2109 O 190.431 1.96227 -7.79583 0
M  V30 2110 H 190.163 0.4586 -0.496651 0
M  V30 2111 H 192.717 0.846131 -1.87162 0
M  V30 2112 H 190.947 3.40061 -1.84107 0
M  V30 2113 H 192.636 3.37231 -2.25898 0
M  V30 2114 H 193.402 2.08153 -4.38061 0
M  V30 2115 H 189.281 2.96485 -3.53012 0
M  V30 2116 H 192.825 1.7366 -6.75639 0
M  V30 2117 H 188.722 2.62375 -5.89771 0
M  V30 2118 H 189.49 2.10883 -7.90867 0
M  V30 2119 N 192.153 1.28127 0.917671 0
M  V30 2120 C 193.383 1.17722 1.6978 0
M  V30 2121 C 193.791 -0.267261 1.87303 0
M  V30 2122 O 193.134 -1.19286 1.39702 0
M  V30 2123 C 193.196 1.79958 3.11216 0
M  V30 2124 C 192.86 3.29187 3.16993 0
M  V30 2125 C 193.857 4.25679 2.98485 0
M  V30 2126 C 191.542 3.70075 3.39632 0
M  V30 2127 C 193.536 5.61035 3.02521 0
M  V30 2128 C 191.223 5.05557 3.433 0
M  V30 2129 C 192.221 6.00847 3.24764 0
M  V30 2130 O 191.909 7.33859 3.28187 0
M  V30 2131 H 191.641 0.409788 0.537634 0
M  V30 2132 H 194.195 1.69694 1.15728 0
M  V30 2133 H 192.425 1.22475 3.66793 0
M  V30 2134 H 194.114 1.64125 3.71238 0
M  V30 2135 H 194.88 3.95426 2.80826 0
M  V30 2136 H 190.759 2.96373 3.53106 0
M  V30 2137 H 194.303 6.35388 2.87971 0
M  V30 2138 H 190.2 5.35462 3.60486 0
M  V30 2139 H 190.968 7.42436 3.44575 0
M  V30 2140 N 193.631 -1.12557 1.10312 0
M  V30 2141 C 194.561 -2.20341 0.772798 0
M  V30 2142 C 195.542 -1.68198 -0.25365 0
M  V30 2143 O 196.727 -1.93831 -0.119699 0
M  V30 2144 C 193.857 -3.46709 0.202443 0
M  V30 2145 C 192.811 -4.11996 1.15943 0
M  V30 2146 C 192.137 -5.328 0.450345 0
M  V30 2147 C 193.437 -4.5828 2.50552 0
M  V30 2148 H 195.131 -2.48229 1.674 0
M  V30 2149 H 192.677 -1.19308 0.806326 0
M  V30 2150 H 194.63 -4.2138 -0.0407752 0
M  V30 2151 H 193.354 -3.18245 -0.734001 0
M  V30 2152 H 192.013 -3.39305 1.38808 0
M  V30 2153 H 191.661 -5.00602 -0.490531 0
M  V30 2154 H 191.361 -5.7743 1.08851 0
M  V30 2155 H 192.885 -6.10219 0.215642 0
M  V30 2156 H 194.299 -5.2433 2.31843 0
M  V30 2157 H 192.696 -5.13683 3.10242 0
M  V30 2158 H 193.766 -3.72329 3.10643 0
M  V30 2159 N 195.109 -0.891671 -1.2995 0
M  V30 2160 C 196.019 -0.367691 -2.31701 0
M  V30 2161 C 197.035 0.533486 -1.6562 0
M  V30 2162 O 198.211 0.424997 -1.96865 0
M  V30 2163 C 195.276 0.403406 -3.44345 0
M  V30 2164 C 194.337 -0.528328 -4.26037 0
M  V30 2165 C 193.57 0.206063 -5.33302 0
M  V30 2166 O 193.793 1.43119 -5.52153 0
M  V30 2167 O 192.727 -0.447281 -6.00236 0
M  V30 2168 H 196.553 -1.21163 -2.78484 0
M  V30 2169 H 194.138 -0.655725 -1.34241 0
M  V30 2170 H 196.02 0.839753 -4.12948 0
M  V30 2171 H 194.695 1.22354 -2.99685 0
M  V30 2172 H 193.602 -1.01362 -3.60106 0
M  V30 2173 H 194.935 -1.31465 -4.74318 0
M  V30 2174 N 196.587 1.43421 -0.653314 0
M  V30 2175 C 197.534 2.30768 0.0382271 0
M  V30 2176 C 198.504 1.44755 0.814576 0
M  V30 2177 O 199.689 1.73624 0.791162 0
M  V30 2178 C 196.829 3.30336 0.998599 0
M  V30 2179 C 195.942 4.31448 0.218342 0
M  V30 2180 C 195.077 5.18098 1.17252 0
M  V30 2181 C 194.116 6.10902 0.382702 0
M  V30 2182 N 193.253 6.90176 1.28848 0
M  V30 2183 H 198.093 2.89357 -0.712511 0
M  V30 2184 H 195.63 1.42548 -0.363128 0
M  V30 2185 H 197.588 3.86572 1.56901 0
M  V30 2186 H 196.218 2.73397 1.71621 0
M  V30 2187 H 195.27 3.77506 -0.46836 0
M  V30 2188 H 196.582 4.97227 -0.395812 0
M  V30 2189 H 195.736 5.7896 1.81356 0
M  V30 2190 H 194.475 4.52444 1.82058 0
M  V30 2191 H 193.48 5.49128 -0.27169 0
M  V30 2192 H 194.705 6.78598 -0.260957 0
M  V30 2193 H 192.651 6.27171 1.92334 0
M  V30 2194 H 192.568 7.52478 0.728887 0
M  V30 2195 H 193.836 7.55543 1.91766 0
M  V30 2196 N 198.065 0.39524 1.52563 0
M  V30 2197 C 199.028 -0.425001 2.25225 0
M  V30 2198 C 200.028 -0.985266 1.27079 0
M  V30 2199 O 201.218 -0.866332 1.5113 0
M  V30 2200 C 198.35 -1.59686 3.01186 0
M  V30 2201 H 199.543 0.211233 2.99155 0
M  V30 2202 H 197.096 0.147472 1.55603 0
M  V30 2203 H 197.831 -2.27035 2.31572 0
M  V30 2204 H 197.616 -1.20176 3.73229 0
M  V30 2205 H 199.106 -2.17743 3.5634 0
M  V30 2206 N 199.544 -1.57102 0.125237 0
M  V30 2207 C 200.492 -2.16905 -0.839927 0
M  V30 2208 C 201.486 -1.11998 -1.27094 0
M  V30 2209 O 202.692 -1.3029 -1.24195 0
M  V30 2210 H 199.067 -0.694252 -0.288995 0
M  V30 2211 H 201.038 -2.96774 -0.311115 0
M  V30 2212 C 199.787 -2.78795 -2.07771 0
M  V30 2213 H 199.11 -3.59221 -1.755 0
M  V30 2214 H 200.55 -3.2417 -2.73295 0
M  V30 2215 C 199.009 -1.76193 -2.87155 0
M  V30 2216 O 199.539 -1.21909 -3.82755 0
M  V30 2217 N 197.745 -1.45991 -2.51267 0
M  V30 2218 H 197.292 -1.90325 -1.73592 0
M  V30 2219 H 197.25 -0.775844 -3.04677 0
M  V30 2220 N 201.022 0.148545 -1.56898 0
M  V30 2221 C 201.969 1.18345 -1.98149 0
M  V30 2222 C 202.939 1.42772 -0.848848 0
M  V30 2223 O 204.124 1.55132 -1.11079 0
M  V30 2224 C 201.264 2.51231 -2.36594 0
M  V30 2225 C 200.377 2.33991 -3.63142 0
M  V30 2226 C 199.512 3.59902 -3.90697 0
M  V30 2227 C 198.551 3.37692 -5.1052 0
M  V30 2228 N 197.688 4.5573 -5.34092 0
M  V30 2229 H 202.528 0.82467 -2.86362 0
M  V30 2230 H 200.065 0.395756 -1.41676 0
M  V30 2231 H 202.023 3.28713 -2.56912 0
M  V30 2232 H 200.653 2.85059 -1.51463 0
M  V30 2233 H 199.705 1.47572 -3.50609 0
M  V30 2234 H 201.017 2.13539 -4.5078 0
M  V30 2235 H 200.171 4.45813 -4.11505 0
M  V30 2236 H 198.91 3.83357 -3.01477 0
M  V30 2237 H 197.915 2.5017 -4.89587 0
M  V30 2238 H 199.14 3.15637 -6.0129 0
M  V30 2239 H 197.086 4.79361 -4.47827 0
M  V30 2240 H 197.003 4.38274 -6.15996 0
M  V30 2241 H 198.271 5.42858 -5.59397 0
M  V30 2242 N 202.5 1.5196 0.417844 0
M  V30 2243 C 203.749 1.6482 1.16264 0
M  V30 2244 C 204.062 0.379886 1.91876 0
M  V30 2245 O 205.268 0.388154 2.68711 0
M  V30 2246 C 203.724 2.91161 2.1155 0
M  V30 2247 C 203.332 4.25068 1.41495 0
M  V30 2248 C 205.076 3.13383 2.86341 0
M  V30 2249 C 202.983 5.42541 2.35379 0
M  V30 2250 H 201.913 0.613954 0.437694 0
M  V30 2251 H 204.564 1.78442 0.427871 0
M  V30 2252 H 202.946 2.71218 2.88543 0
M  V30 2253 H 204.12 4.55463 0.699263 0
M  V30 2254 H 202.435 4.0888 0.787792 0
M  V30 2255 H 205.032 3.98324 3.5671 0
M  V30 2256 H 205.375 2.27256 3.48798 0
M  V30 2257 H 205.908 3.33757 2.1645 0
M  V30 2258 H 202.647 6.30987 1.77582 0
M  V30 2259 H 202.167 5.16497 3.04945 0
M  V30 2260 H 203.846 5.75272 2.96093 0
M  V30 2261 N 203.978 -0.674533 1.42435 0
M  V30 2262 C 204.925 -1.78807 1.45934 0
M  V30 2263 C 205.895 -1.63157 0.311271 0
M  V30 2264 O 207.08 -1.83707 0.515383 0
M  V30 2265 C 204.22 -3.16839 1.36773 0
M  V30 2266 C 203.333 -3.43774 2.61617 0
M  V30 2267 C 202.468 -4.71536 2.44597 0
M  V30 2268 C 201.507 -4.91505 3.64814 0
M  V30 2269 N 200.644 -6.10508 3.46734 0
M  V30 2270 H 205.484 -1.75151 2.41093 0
M  V30 2271 H 203.021 -0.85504 1.19697 0
M  V30 2272 H 204.979 -3.96606 1.29459 0
M  V30 2273 H 203.609 -3.19619 0.452089 0
M  V30 2274 H 202.661 -2.58259 2.79297 0
M  V30 2275 H 203.973 -3.54423 3.50978 0
M  V30 2276 H 203.127 -5.59393 2.3487 0
M  V30 2277 H 201.866 -4.6317 1.52726 0
M  V30 2278 H 200.871 -4.0209 3.74972 0
M  V30 2279 H 202.096 -5.01716 4.57665 0
M  V30 2280 H 200.042 -6.03315 2.5758 0
M  V30 2281 H 199.959 -6.2202 4.29682 0
M  V30 2282 H 201.227 -7.01044 3.40819 0
M  V30 2283 N 205.456 -1.28612 -0.910864 0
M  V30 2284 C 206.681 -1.1891 -1.69927 0
M  V30 2285 C 207.106 0.248372 -1.86453 0
M  V30 2286 O 206.464 1.17961 -1.37676 0
M  V30 2287 C 206.512 -1.89578 -3.06745 0
M  V30 2288 O 205.616 -1.20521 -3.94396 0
M  V30 2289 H 204.957 -0.412632 -0.520222 0
M  V30 2290 H 207.487 -1.69985 -1.1387 0
M  V30 2291 H 207.497 -1.97597 -3.56958 0
M  V30 2292 H 206.172 -2.94136 -2.94035 0
M  V30 2293 H 204.749 -1.20684 -3.52831 0
M  V30 2294 N 206.934 1.1197 -1.10907 0
M  V30 2295 C 207.844 2.21433 -0.774896 0
M  V30 2296 C 208.86 1.72478 0.229657 0
M  V30 2297 O 210.036 2.01288 0.0672008 0
M  V30 2298 C 207.101 3.4602 -0.216986 0
M  V30 2299 C 206.162 4.09791 -1.27944 0
M  V30 2300 C 205.395 5.28431 -0.748055 0
M  V30 2301 O 205.618 5.68823 0.423833 0
M  V30 2302 O 204.552 5.82644 -1.51027 0
M  V30 2303 H 208.378 2.5242 -1.68873 0
M  V30 2304 H 205.963 1.20399 -0.884555 0
M  V30 2305 H 207.845 4.21304 0.090059 0
M  V30 2306 H 206.52 3.16698 0.669633 0
M  V30 2307 H 205.427 3.36265 -1.63941 0
M  V30 2308 H 206.76 4.4328 -2.13925 0
M  V30 2309 N 208.412 0.89855 1.29475 0
M  V30 2310 C 209.359 0.373819 2.27753 0
M  V30 2311 C 210.329 -0.543444 1.56958 0
M  V30 2312 O 211.514 -0.468934 1.84948 0
M  V30 2313 C 208.654 -0.393648 3.42848 0
M  V30 2314 C 207.767 0.554379 4.28428 0
M  V30 2315 C 206.902 -0.230026 5.30702 0
M  V30 2316 C 205.941 0.712599 6.07938 0
M  V30 2317 N 205.078 -0.0373283 7.0209 0
M  V30 2318 H 209.918 1.21699 2.72017 0
M  V30 2319 H 207.455 0.611456 1.33789 0
M  V30 2320 H 209.413 -0.85466 4.08352 0
M  V30 2321 H 208.043 -1.20128 2.99615 0
M  V30 2322 H 207.095 1.13391 3.63107 0
M  V30 2323 H 208.407 1.27597 4.82204 0
M  V30 2324 H 207.561 -0.752288 6.02018 0
M  V30 2325 H 206.3 -0.984758 4.77654 0
M  V30 2326 H 205.305 1.24637 5.35486 0
M  V30 2327 H 206.53 1.46664 6.63074 0
M  V30 2328 H 204.476 -0.774348 6.51414 0
M  V30 2329 H 204.393 0.624374 7.53417 0
M  V30 2330 H 205.661 -0.539891 7.77628 0
M  V30 2331 N 209.89 -1.43072 0.660911 0
M  V30 2332 C 211.118 -2.06067 0.185422 0
M  V30 2333 C 211.533 -1.49582 -1.15198 0
M  V30 2334 O 210.89 -0.630134 -1.71276 0
M  V30 2335 C 210.941 -3.61371 0.0966523 0
M  V30 2336 O 210.662 -4.15758 1.38119 0
M  V30 2337 C 212.163 -4.41455 -0.403996 0
M  V30 2338 H 209.383 -0.664459 0.0934604 0
M  V30 2339 H 211.927 -1.83447 0.90373 0
M  V30 2340 H 210.082 -3.8315 -0.572259 0
M  V30 2341 H 210.496 -5.09499 1.24542 0
M  V30 2342 H 211.97 -5.50437 -0.415045 0
M  V30 2343 H 212.447 -4.15036 -1.43674 0
M  V30 2344 H 213.053 -4.24663 0.232691 0
M  V30 2345 N 211.368 -0.403325 -1.52352 0
M  V30 2346 C 212.318 0.442244 -2.2367 0
M  V30 2347 C 213.302 1.01823 -1.24583 0
M  V30 2348 O 214.494 0.942005 -1.49851 0
M  V30 2349 C 211.623 1.5615 -3.05732 0
M  V30 2350 C 210.709 0.996575 -4.12225 0
M  V30 2351 N 211.1 0.157804 -5.05554 0
M  V30 2352 C 209.398 1.26767 -4.27605 0
M  V30 2353 C 210.099 -0.155853 -5.81491 0
M  V30 2354 N 209.075 0.451775 -5.41719 0
M  V30 2355 H 212.877 -0.204964 -2.93184 0
M  V30 2356 H 210.391 -0.213418 -1.60992 0
M  V30 2357 H 212.388 2.17981 -3.55373 0
M  V30 2358 H 211.048 2.21139 -2.37755 0
M  V30 2359 H 212.059 -0.206049 -5.1749 0
M  V30 2360 H 208.736 1.91757 -3.70858 0
M  V30 2361 H 210.126 -0.836329 -6.66675 0
M  V30 2362 N 212.846 1.57033 -0.133567 0
M  V30 2363 C 214.095 1.94861 0.520768 0
M  V30 2364 C 214.408 1.02012 1.66892 0
M  V30 2365 O 215.614 1.29365 2.38699 0
M  V30 2366 C 214.07 3.46362 0.977809 0
M  V30 2367 C 213.678 4.47773 -0.142674 0
M  V30 2368 C 215.422 3.93083 1.60269 0
M  V30 2369 C 213.329 5.90468 0.331883 0
M  V30 2370 H 212.259 0.727453 0.198315 0
M  V30 2371 H 214.91 1.82227 -0.215759 0
M  V30 2372 H 213.292 3.54282 1.7692 0
M  V30 2373 H 214.466 4.51536 -0.919317 0
M  V30 2374 H 212.781 4.10891 -0.675124 0
M  V30 2375 H 215.378 4.97121 1.96914 0
M  V30 2376 H 215.721 3.33876 2.48662 0
M  V30 2377 H 216.254 3.88025 0.876453 0
M  V30 2378 H 212.993 6.53463 -0.516341 0
M  V30 2379 H 212.513 5.90094 1.07469 0
M  V30 2380 H 214.192 6.42179 0.788332 0
M  V30 2381 N 214.325 -0.140222 1.56975 0
M  V30 2382 C 215.275 -1.17827 1.95194 0
M  V30 2383 C 216.259 -1.38195 0.824075 0
M  V30 2384 O 217.451 -1.39643 1.0876 0
M  V30 2385 C 214.58 -2.51024 2.34184 0
M  V30 2386 C 213.666 -2.3422 3.53556 0
M  V30 2387 N 214.057 -1.87185 4.69889 0
M  V30 2388 C 212.355 -2.64949 3.58773 0
M  V30 2389 C 213.056 -1.83586 5.5197 0
M  V30 2390 N 212.032 -2.2715 4.93866 0
M  V30 2391 H 215.834 -0.806817 2.82609 0
M  V30 2392 H 213.348 -0.348208 1.58623 0
M  V30 2393 H 215.345 -3.26074 2.59772 0
M  V30 2394 H 214.005 -2.88945 1.48124 0
M  V30 2395 H 215.016 -1.57048 4.93514 0
M  V30 2396 H 211.693 -3.067 2.8327 0
M  V30 2397 H 213.083 -1.48655 6.55249 0
M  V30 2398 N 215.803 -1.52179 -0.40978 0
M  V30 2399 C 217.052 -1.65434 -1.15388 0
M  V30 2400 C 217.365 -0.390056 -1.91671 0
M  V30 2401 O 218.571 -0.402399 -2.68501 0
M  V30 2402 C 217.027 -2.92279 -2.10003 0
M  V30 2403 C 216.635 -4.25813 -1.39239 0
M  V30 2404 C 218.379 -3.14897 -2.84675 0
M  V30 2405 C 216.286 -5.43782 -2.32498 0
M  V30 2406 H 215.216 -0.616267 -0.434432 0
M  V30 2407 H 217.867 -1.78666 -0.418401 0
M  V30 2408 H 216.249 -2.72744 -2.871 0
M  V30 2409 H 217.423 -4.55828 -0.675099 0
M  V30 2410 H 215.738 -4.09292 -0.766097 0
M  V30 2411 H 218.335 -4.0021 -3.54593 0
M  V30 2412 H 218.678 -2.29103 -3.47588 0
M  V30 2413 H 219.211 -3.34901 -2.14677 0
M  V30 2414 H 215.95 -6.3192 -1.74233 0
M  V30 2415 H 215.47 -5.18106 -3.02201 0
M  V30 2416 H 217.149 -5.76834 -2.93038 0
M  V30 2417 N 217.281 0.66697 -1.42791 0
M  V30 2418 C 218.528 1.42699 -1.43678 0
M  V30 2419 C 218.856 1.94419 -0.0560425 0
M  V30 2420 O 218.111 1.7182 0.936831 0
M  V30 2421 C 218.41 2.6349 -2.4147 0
M  V30 2422 C 218.076 2.30267 -3.8767 0
M  V30 2423 C 216.738 2.20918 -4.27491 0
M  V30 2424 C 219.09 2.03435 -4.79858 0
M  V30 2425 C 216.418 1.82873 -5.57471 0
M  V30 2426 C 218.77 1.66892 -6.10188 0
M  V30 2427 C 217.434 1.56058 -6.49001 0
M  V30 2428 H 216.704 0.522171 -0.525755 0
M  V30 2429 H 219.351 0.759785 -1.75783 0
M  V30 2430 H 217.656 3.35279 -2.0272 0
M  V30 2431 H 219.353 3.21684 -2.39417 0
M  V30 2432 H 215.943 2.38449 -3.56146 0
M  V30 2433 H 220.127 2.09586 -4.49875 0
M  V30 2434 H 215.383 1.7306 -5.86396 0
M  V30 2435 H 219.557 1.45157 -6.81104 0
M  V30 2436 H 217.184 1.26348 -7.49627 0
M  V30 2437 N 218.759 1.29093 0.90403 0
M  V30 2438 C 219.984 1.19809 1.69294 0
M  V30 2439 C 220.409 -0.238481 1.86582 0
M  V30 2440 O 219.767 -1.1723 1.383 0
M  V30 2441 C 219.815 1.91202 3.05736 0
M  V30 2442 O 218.919 1.22611 3.93752 0
M  V30 2443 H 218.26 0.415385 0.518027 0
M  V30 2444 H 220.79 1.70586 1.12967 0
M  V30 2445 H 220.8 1.99487 3.55906 0
M  V30 2446 H 219.475 2.95692 2.92471 0
M  V30 2447 H 218.052 1.22554 3.52186 0
M  V30 2448 N 220.237 -1.11381 1.11499 0
M  V30 2449 C 221.484 -1.83132 0.864231 0
M  V30 2450 C 221.812 -1.84683 -0.610114 0
M  V30 2451 O 221.067 -1.29589 -1.46646 0
M  V30 2452 C 221.366 -3.30026 1.37177 0
M  V30 2453 C 221.032 -3.48634 2.85946 0
M  V30 2454 C 219.694 -3.53421 3.26569 0
M  V30 2455 C 222.046 -3.54837 3.81759 0
M  V30 2456 C 219.374 -3.61967 4.61733 0
M  V30 2457 C 221.726 -3.64915 5.1674 0
M  V30 2458 C 220.39 -3.67962 5.5692 0
M  V30 2459 H 219.66 -0.670127 0.316245 0
M  V30 2460 H 222.307 -1.31354 1.3935 0
M  V30 2461 H 220.612 -3.84304 0.762753 0
M  V30 2462 H 222.309 -3.84034 1.15408 0
M  V30 2463 H 218.899 -3.45579 2.53521 0
M  V30 2464 H 223.083 -3.50399 3.51474 0
M  V30 2465 H 218.339 -3.62603 4.92269 0
M  V30 2466 H 222.513 -3.68658 5.90816 0
M  V30 2467 H 220.14 -3.74336 6.61647 0
M  V30 2468 N 221.715 -0.905404 -1.28997 0
M  V30 2469 C 222.943 -0.549846 -1.9946 0
M  V30 2470 C 223.358 0.866834 -1.67724 0
M  V30 2471 O 222.715 1.57298 -0.925404 0
M  V30 2472 C 222.766 -0.739387 -3.53858 0
M  V30 2473 O 222.487 -2.10031 -3.84472 0
M  V30 2474 C 223.988 -0.389541 -4.41585 0
M  V30 2475 H 221.208 -0.210429 -0.637151 0
M  V30 2476 H 223.752 -1.21632 -1.64396 0
M  V30 2477 H 221.907 -0.120023 -3.87214 0
M  V30 2478 H 222.321 -2.13385 -4.79132 0
M  V30 2479 H 223.795 -0.572972 -5.49018 0
M  V30 2480 H 224.272 0.673756 -4.34001 0
M  V30 2481 H 224.878 -0.986089 -4.1371 0
M  V30 2482 N 223.193 1.4272 -0.668489 0
M  V30 2483 C 224.441 2.01226 -0.187769 0
M  V30 2484 C 224.762 1.53092 1.2078 0
M  V30 2485 O 224.032 0.74993 1.80977 0
M  V30 2486 H 222.612 0.744041 -0.0664272 0
M  V30 2487 H 225.274 1.74723 -0.863583 0
M  V30 2488 H 224.37 3.11556 -0.184166 0
M  V30 2489 N 224.671 0.411399 1.52136 0
M  V30 2490 C 225.581 -0.419774 2.30814 0
M  V30 2491 C 226.597 -1.0515 1.38634 0
M  V30 2492 O 227.773 -1.05252 1.71709 0
M  V30 2493 C 224.838 -1.52019 3.11594 0
M  V30 2494 C 223.899 -0.91129 4.19516 0
M  V30 2495 C 223.132 -1.95927 4.96436 0
M  V30 2496 O 223.355 -3.17775 4.73683 0
M  V30 2497 O 222.289 -1.56423 5.81219 0
M  V30 2498 H 226.115 0.221805 3.02889 0
M  V30 2499 H 223.7 0.174547 1.48377 0
M  V30 2500 H 225.582 -2.15898 3.61892 0
M  V30 2501 H 224.257 -2.14633 2.42311 0
M  V30 2502 H 223.164 -0.235157 3.7336 0
M  V30 2503 H 224.497 -0.32904 4.91099 0
M  V30 2504 N 226.149 -1.5696 0.141893 0
M  V30 2505 C 227.059 -2.20066 -0.812905 0
M  V30 2506 C 228.075 -1.18344 -1.27557 0
M  V30 2507 O 229.251 -1.50902 -1.33381 0
M  V30 2508 C 226.316 -2.80583 -2.03652 0
M  V30 2509 C 225.377 -3.97414 -1.62359 0
M  V30 2510 C 224.61 -4.55036 -2.78887 0
M  V30 2511 O 224.833 -4.11538 -3.94959 0
M  V30 2512 O 223.767 -5.45376 -2.54653 0
M  V30 2513 H 227.593 -3.02157 -0.305746 0
M  V30 2514 H 225.178 -1.49159 -0.0848799 0
M  V30 2515 H 227.06 -3.19067 -2.75272 0
M  V30 2516 H 225.735 -2.01508 -2.5333 0
M  V30 2517 H 224.642 -3.63656 -0.877775 0
M  V30 2518 H 225.975 -4.77994 -1.17401 0
M  V30 2519 N 227.627 0.131896 -1.57047 0
M  V30 2520 C 228.56 1.19236 -1.94571 0
M  V30 2521 C 229.538 1.40782 -0.813576 0
M  V30 2522 O 230.722 1.55148 -1.07058 0
M  V30 2523 C 227.849 2.54858 -2.23081 0
M  V30 2524 C 226.895 2.49817 -3.45679 0
M  V30 2525 S 227.728 1.95036 -4.98719 0
M  V30 2526 C 228.884 3.32357 -5.30367 0
M  V30 2527 H 229.117 0.872297 -2.84215 0
M  V30 2528 H 226.65 0.338134 -1.50652 0
M  V30 2529 H 228.608 3.32898 -2.40185 0
M  V30 2530 H 227.269 2.84047 -1.34074 0
M  V30 2531 H 226.462 3.49688 -3.62952 0
M  V30 2532 H 226.064 1.79892 -3.27895 0
M  V30 2533 H 228.356 4.28525 -5.2476 0
M  V30 2534 H 229.299 3.19923 -6.31708 0
M  V30 2535 H 229.707 3.3019 -4.57859 0
M  V30 2536 N 229.106 1.52395 0.401703 0
M  V30 2537 C 230.069 1.75636 1.47257 0
M  V30 2538 C 231.069 0.62628 1.48103 0
M  V30 2539 O 232.259 0.894227 1.49497 0
M  V30 2540 C 229.391 1.84553 2.86624 0
M  V30 2541 H 230.584 2.71241 1.27938 0
M  V30 2542 H 228.137 1.42923 0.632662 0
M  V30 2543 H 228.872 0.908882 3.11303 0
M  V30 2544 H 228.657 2.66715 2.87412 0
M  V30 2545 H 230.147 2.04251 3.64241 0
M  V30 2546 N 230.584 -0.659388 1.43143 0
M  V30 2547 C 231.812 -1.44723 1.47861 0
M  V30 2548 C 232.227 -1.88563 0.0945886 0
M  V30 2549 O 231.584 -1.59108 -0.893915 0
M  V30 2550 C 231.635 -2.68627 2.41913 0
M  V30 2551 O 231.356 -2.26623 3.74932 0
M  V30 2552 C 232.857 -3.62045 2.55809 0
M  V30 2553 H 230.077 -0.444801 0.502387 0
M  V30 2554 H 232.621 -0.808916 1.87821 0
M  V30 2555 H 230.776 -3.28613 2.05164 0
M  V30 2556 H 231.19 -3.06745 4.2545 0
M  V30 2557 H 232.664 -4.45666 3.25708 0
M  V30 2558 H 233.141 -4.08981 1.60099 0
M  V30 2559 H 233.747 -3.07944 2.93344 0
M  V30 2560 N 232.062 -1.29571 -0.897171 0
M  V30 2561 C 233.009 -1.14916 -2.00158 0
M  V30 2562 C 233.979 -0.0418149 -1.66047 0
M  V30 2563 O 235.164 -0.209793 -1.89643 0
M  V30 2564 C 232.304 -0.834307 -3.34863 0
M  V30 2565 C 231.417 -2.02234 -3.8174 0
M  V30 2566 C 230.552 -1.64664 -5.05034 0
M  V30 2567 C 229.591 -2.80033 -5.44286 0
M  V30 2568 N 228.728 -2.42843 -6.58765 0
M  V30 2569 H 233.568 -2.09403 -2.12025 0
M  V30 2570 H 231.105 -1.042 -1.0383 0
M  V30 2571 H 233.063 -0.632436 -4.12379 0
M  V30 2572 H 231.693 0.0736656 -3.22716 0
M  V30 2573 H 230.745 -2.33583 -3.00238 0
M  V30 2574 H 232.057 -2.88673 -4.06779 0
M  V30 2575 H 231.211 -1.4078 -5.9014 0
M  V30 2576 H 229.95 -0.753766 -4.8184 0
M  V30 2577 H 228.955 -3.04596 -4.57713 0
M  V30 2578 H 230.18 -3.69989 -5.6946 0
M  V30 2579 H 228.126 -1.56046 -6.3717 0
M  V30 2580 H 228.043 -3.22815 -6.83613 0
M  V30 2581 H 229.311 -2.22285 -7.47134 0
M  V30 2582 N 233.54 1.10788 -1.12088 0
M  V30 2583 C 234.503 2.15207 -0.788577 0
M  V30 2584 C 235.503 1.59609 0.195317 0
M  V30 2585 O 236.693 1.74174 -0.0300193 0
M  V30 2586 C 233.825 3.4047 -0.171174 0
M  V30 2587 H 235.018 2.46116 -1.71368 0
M  V30 2588 H 232.571 1.26089 -0.923652 0
M  V30 2589 H 233.306 3.15176 0.763832 0
M  V30 2590 H 233.091 3.82109 -0.879514 0
M  V30 2591 H 234.581 4.17576 0.04496 0
M  V30 2592 N 235.018 0.912232 1.28515 0
M  V30 2593 C 236.295 0.463597 1.90027 0
M  V30 2594 C 236.675 -1.05753 1.82701 0
M  V30 2595 O 236.023 -1.90492 1.26194 0
M  V30 2596 C 236.233 0.992253 3.34597 0
M  V30 2597 C 237.581 1.04344 4.11579 0
M  V30 2598 O 238.605 0.94079 3.43551 0
M  V30 2599 O 237.464 1.1995 5.33174 0
M  V30 2600 H 234.558 0.146666 0.813891 0
M  V30 2601 H 237.104 1.00292 1.36893 0
M  V30 2602 H 235.876 2.03623 3.34146 0
M  V30 2603 H 235.499 0.433672 3.95228 0
M  V30 2604 N 236.496 -1.42363 0.676048 0
M  V30 2605 C 237.726 -2.05561 0.206967 0
M  V30 2606 C 238.134 -1.50887 -1.14148 0
M  V30 2607 O 237.477 -0.643933 -1.72044 0
M  V30 2608 C 237.539 -3.5944 0.0659508 0
M  V30 2609 C 237.203 -4.36812 1.34331 0
M  V30 2610 C 238.2 -4.67383 2.27704 0
M  V30 2611 C 235.885 -4.76429 1.59125 0
M  V30 2612 C 237.879 -5.36509 3.44147 0
M  V30 2613 C 235.566 -5.45294 2.75857 0
M  V30 2614 C 236.564 -5.75259 3.68193 0
M  V30 2615 O 236.252 -6.42712 4.82883 0
M  V30 2616 H 235.984 -0.668872 0.0979084 0
M  V30 2617 H 238.538 -1.83467 0.923531 0
M  V30 2618 H 236.768 -3.80197 -0.706204 0
M  V30 2619 H 238.457 -4.0427 -0.363418 0
M  V30 2620 H 239.223 -4.37275 2.09799 0
M  V30 2621 H 235.102 -4.52498 0.881258 0
M  V30 2622 H 238.646 -5.59814 4.16238 0
M  V30 2623 H 234.543 -5.7482 2.93688 0
M  V30 2624 H 235.311 -6.61204 4.82444 0
M  V30 2625 N 237.974 -0.419461 -1.51915 0
M  V30 2626 C 239.202 0.152136 -2.0634 0
M  V30 2627 C 239.617 1.37988 -1.28859 0
M  V30 2628 O 238.974 1.79243 -0.343232 0
M  V30 2629 C 239.025 0.492266 -3.58133 0
M  V30 2630 O 238.746 -0.686736 -4.32684 0
M  V30 2631 C 240.247 1.11648 -4.2901 0
M  V30 2632 H 237.467 0.0158325 -0.670813 0
M  V30 2633 H 240.011 -0.593394 -1.95702 0
M  V30 2634 H 238.166 1.18769 -3.68745 0
M  V30 2635 H 238.58 -0.400341 -5.2297 0
M  V30 2636 H 240.054 1.3046 -5.36362 0
M  V30 2637 H 240.531 2.09251 -3.86148 0
M  V30 2638 H 241.137 0.460958 -4.22795 0
M  V30 2639 N 239.452 1.56882 -0.150215 0
M  V30 2640 C 240.382 2.19935 0.784284 0
M  V30 2641 C 241.363 1.14854 1.25469 0
M  V30 2642 O 242.548 1.43209 1.31168 0
M  V30 2643 C 239.678 2.82349 2.02229 0
M  V30 2644 C 238.632 3.93285 1.68853 0
M  V30 2645 C 237.958 4.42649 2.99944 0
M  V30 2646 C 239.258 5.13904 0.932714 0
M  V30 2647 H 240.952 2.9828 0.258781 0
M  V30 2648 H 238.498 1.43473 0.123029 0
M  V30 2649 H 240.451 3.25126 2.68088 0
M  V30 2650 H 239.175 2.0134 2.57157 0
M  V30 2651 H 237.834 3.5113 1.05371 0
M  V30 2652 H 237.482 3.58458 3.52869 0
M  V30 2653 H 237.182 5.17476 2.78374 0
M  V30 2654 H 238.706 4.88099 3.66868 0
M  V30 2655 H 240.12 5.53506 1.49345 0
M  V30 2656 H 238.517 5.94515 0.81684 0
M  V30 2657 H 239.587 4.84842 -0.0749568 0
M  V30 2658 N 240.93 -0.123565 1.57115 0
M  V30 2659 C 242.207 -0.862196 1.75572 0
M  V30 2660 C 242.587 -1.98279 0.724475 0
M  V30 2661 O 241.935 -2.27102 -0.252407 0
M  V30 2662 C 242.145 -1.38309 3.20424 0
M  V30 2663 C 243.493 -1.83724 3.82793 0
M  V30 2664 O 244.517 -1.47999 3.23998 0
M  V30 2665 O 243.376 -2.49685 4.86127 0
M  V30 2666 H 240.47 -0.409113 0.718718 0
M  V30 2667 H 243.016 -0.107661 1.69358 0
M  V30 2668 H 241.788 -0.578889 3.86994 0
M  V30 2669 H 241.411 -2.20046 3.31158 0
M  V30 2670 N 242.408 -1.52605 -0.393616 0
M  V30 2671 C 243.318 -1.79971 -1.50492 0
M  V30 2672 C 244.334 -0.686181 -1.59899 0
M  V30 2673 O 245.51 -0.973274 -1.76322 0
M  V30 2674 C 242.575 -1.95867 -2.86072 0
M  V30 2675 C 241.636 -3.19781 -2.86424 0
M  V30 2676 C 240.869 -3.34909 -4.15538 0
M  V30 2677 O 241.092 -2.54948 -5.10253 0
M  V30 2678 O 240.026 -4.28141 -4.23059 0
M  V30 2679 H 243.852 -2.74328 -1.30299 0
M  V30 2680 H 241.437 -1.3764 -0.581005 0
M  V30 2681 H 243.319 -2.08056 -3.66457 0
M  V30 2682 H 241.994 -1.04699 -3.063 0
M  V30 2683 H 240.901 -3.13038 -2.04837 0
M  V30 2684 H 242.234 -4.1078 -2.71147 0
M  V30 2685 N 243.887 0.651787 -1.4349 0
M  V30 2686 C 244.797 1.79368 -1.5121 0
M  V30 2687 C 245.813 1.69361 -0.399093 0
M  V30 2688 O 246.989 1.90505 -0.653431 0
M  V30 2689 C 244.054 3.15653 -1.43401 0
M  V30 2690 C 243.115 3.37446 -2.65384 0
M  V30 2691 C 242.348 4.67229 -2.57939 0
M  V30 2692 O 242.571 5.46676 -1.62792 0
M  V30 2693 O 241.505 4.90773 -3.48462 0
M  V30 2694 H 245.331 1.7581 -2.47638 0
M  V30 2695 H 242.916 0.810447 -1.25507 0
M  V30 2696 H 244.798 3.96935 -1.41494 0
M  V30 2697 H 243.473 3.19798 -0.501085 0
M  V30 2698 H 242.38 2.55923 -2.72863 0
M  V30 2699 H 243.713 3.38148 -3.57654 0
M  V30 2700 N 245.365 1.30045 0.890287 0
M  V30 2701 C 246.59 1.21598 1.68014 0
M  V30 2702 C 247.015 -0.218678 1.86825 0
M  V30 2703 O 246.373 -1.15756 1.39536 0
M  V30 2704 C 246.421 1.94434 3.03691 0
M  V30 2705 O 245.525 1.2678 3.92429 0
M  V30 2706 H 244.866 0.420856 0.513592 0
M  V30 2707 H 247.396 1.71775 1.11151 0
M  V30 2708 H 247.406 2.03251 3.5377 0
M  V30 2709 H 246.081 2.98777 2.89318 0
M  V30 2710 H 244.658 1.26282 3.50866 0
M  V30 2711 N 246.843 -1.10192 1.12674 0
M  V30 2712 C 248.259 -1.34235 0.863317 0
M  V30 2713 C 248.459 -1.95062 -0.505277 0
M  V30 2714 O 247.515 -2.19192 -1.25345 0
M  V30 2715 C 248.828 -2.2616 1.98172 0
M  V30 2716 C 250.376 -2.3969 2.0129 0
M  V30 2717 C 250.851 -3.34946 3.1237 0
M  V30 2718 N 252.342 -3.42515 3.11829 0
M  V30 2719 C 253.077 -4.16199 3.94419 0
M  V30 2720 N 252.573 -4.92747 4.87004 0
M  V30 2721 N 254.366 -4.11843 3.82547 0
M  V30 2722 H 246.517 -0.690798 2.00853 0
M  V30 2723 H 248.78 -0.366774 0.874174 0
M  V30 2724 H 248.486 -1.8868 2.96804 0
M  V30 2725 H 248.36 -3.26488 1.88906 0
M  V30 2726 H 250.747 -2.76438 1.03276 0
M  V30 2727 H 250.828 -1.39169 2.14629 0
M  V30 2728 H 250.472 -2.98923 4.10619 0
M  V30 2729 H 250.402 -4.35353 2.96269 0
M  V30 2730 H 252.893 -2.87926 2.44759 0
M  V30 2731 H 253.206 -5.46376 5.46528 0
M  V30 2732 H 251.551 -4.91862 4.91016 0
M  V30 2733 H 254.742 -3.51136 3.0955 0
M  V30 2734 H 254.915 -4.69007 4.47142 0
M  V30 2735 N 248.321 -0.919034 -1.28029 0
M  V30 2736 C 249.284 -0.416182 -2.2539 0
M  V30 2737 C 250.284 0.460438 -1.54067 0
M  V30 2738 O 251.474 0.262744 -1.72207 0
M  V30 2739 C 248.606 0.402707 -3.38513 0
M  V30 2740 H 249.799 -1.27629 -2.71387 0
M  V30 2741 H 247.352 -0.698919 -1.39803 0
M  V30 2742 H 248.087 1.282 -2.97885 0
M  V30 2743 H 247.872 -0.225698 -3.9145 0
M  V30 2744 H 249.362 0.745191 -4.10897 0
M  V30 2745 N 249.799 1.42003 -0.683588 0
M  V30 2746 C 251.215 1.55625 -0.353976 0
M  V30 2747 C 251.415 1.66151 1.14 0
M  V30 2748 O 250.471 1.63329 1.92561 0
M  V30 2749 C 251.784 2.80171 -1.092 0
M  V30 2750 C 253.332 2.93954 -1.07518 0
M  V30 2751 C 253.807 4.21372 -1.79471 0
M  V30 2752 N 255.298 4.28303 -1.76381 0
M  V30 2753 C 256.033 5.25729 -2.28904 0
M  V30 2754 N 255.529 6.29254 -2.89846 0
M  V30 2755 N 257.322 5.17586 -2.19228 0
M  V30 2756 H 249.473 1.33415 -1.6527 0
M  V30 2757 H 251.736 0.64282 -0.696769 0
M  V30 2758 H 251.442 2.78561 -2.14701 0
M  V30 2759 H 251.316 3.7133 -0.662862 0
M  V30 2760 H 253.703 2.95086 -0.028475 0
M  V30 2761 H 253.784 2.04002 -1.54328 0
M  V30 2762 H 253.428 4.21001 -2.84114 0
M  V30 2763 H 253.358 5.10275 -1.30104 0
M  V30 2764 H 255.849 3.54119 -1.31939 0
M  V30 2765 H 256.162 6.99964 -3.27522 0
M  V30 2766 H 254.507 6.29791 -2.93919 0
M  V30 2767 H 257.698 4.35631 -1.71299 0
M  V30 2768 H 257.871 5.93348 -2.60466 0
M  V30 2769 N 251.277 0.427512 1.51691 0
M  V30 2770 C 252.526 -0.143679 2.01188 0
M  V30 2771 C 252.839 -1.44642 1.31674 0
M  V30 2772 O 254.045 -2.09997 1.72086 0
M  V30 2773 C 252.501 -0.306602 3.58592 0
M  V30 2774 C 252.109 0.985125 4.37035 0
M  V30 2775 C 253.853 -0.832091 4.16265 0
M  V30 2776 C 251.76 0.788382 5.86122 0
M  V30 2777 H 250.69 -0.0574701 0.751807 0
M  V30 2778 H 253.341 0.555772 1.74881 0
M  V30 2779 H 251.723 -1.06882 3.81303 0
M  V30 2780 H 252.897 1.75492 4.26074 0
M  V30 2781 H 251.212 1.4384 3.90767 0
M  V30 2782 H 253.809 -0.995617 5.25349 0
M  V30 2783 H 254.152 -1.81186 3.74803 0
M  V30 2784 H 254.685 -0.128444 3.97593 0
M  V30 2785 H 251.424 1.74025 6.31978 0
M  V30 2786 H 250.944 0.0582143 5.99772 0
M  V30 2787 H 252.623 0.437722 6.45518 0
M  V30 2788 N 252.755 -1.56801 0.158532 0
M  V30 2789 C 253.702 -2.17337 -0.776729 0
M  V30 2790 C 254.672 -1.1096 -1.23601 0
M  V30 2791 O 255.857 -1.39054 -1.30647 0
M  V30 2792 C 252.997 -2.80822 -2.00582 0
M  V30 2793 C 252.11 -4.01624 -1.59129 0
M  V30 2794 C 251.245 -4.53072 -2.77306 0
M  V30 2795 C 250.284 -5.66314 -2.32282 0
M  V30 2796 N 249.421 -6.12329 -3.43508 0
M  V30 2797 H 254.261 -2.96918 -0.253701 0
M  V30 2798 H 251.798 -1.46661 -0.113504 0
M  V30 2799 H 253.756 -3.15779 -2.72652 0
M  V30 2800 H 252.386 -2.03866 -2.50277 0
M  V30 2801 H 251.438 -3.72571 -0.767806 0
M  V30 2802 H 252.75 -4.83633 -1.2207 0
M  V30 2803 H 251.904 -4.90145 -3.57551 0
M  V30 2804 H 250.643 -3.70095 -3.17617 0
M  V30 2805 H 249.648 -5.28806 -1.5048 0
M  V30 2806 H 250.873 -6.51085 -1.93043 0
M  V30 2807 H 248.819 -5.32284 -3.83418 0
M  V30 2808 H 248.736 -6.89293 -3.105 0
M  V30 2809 H 250.004 -6.5405 -4.24075 0
M  V30 2810 N 254.233 0.115231 -1.57178 0
M  V30 2811 C 255.461 0.836437 -1.89239 0
M  V30 2812 C 255.876 1.73256 -0.750175 0
M  V30 2813 O 255.233 1.80357 0.278832 0
M  V30 2814 C 255.284 1.66671 -3.20785 0
M  V30 2815 O 255.005 0.806652 -4.3061 0
M  V30 2816 C 256.506 2.49274 -3.66575 0
M  V30 2817 H 253.726 0.240253 -0.626514 0
M  V30 2818 H 256.27 0.0984932 -2.04263 0
M  V30 2819 H 254.425 2.35737 -3.0742 0
M  V30 2820 H 254.839 1.37969 -5.06028 0
M  V30 2821 H 256.313 3.03055 -4.6137 0
M  V30 2822 H 256.79 3.26807 -2.93417 0
M  V30 2823 H 257.396 1.85443 -3.82741 0
M  V30 2824 N 255.711 1.52812 0.385517 0
M  V30 2825 C 257.127 1.4214 0.725829 0
M  V30 2826 C 257.327 0.544589 1.94001 0
M  V30 2827 O 256.383 0.0193693 2.52493 0
M  V30 2828 C 257.696 2.85042 0.957668 0
M  V30 2829 C 259.244 2.94543 1.05892 0
M  V30 2830 C 259.719 4.38464 1.32337 0
M  V30 2831 N 261.21 4.41804 1.39151 0
M  V30 2832 C 261.945 5.5025 1.61285 0
M  V30 2833 N 261.441 6.68775 1.80866 0
M  V30 2834 N 263.234 5.37798 1.63492 0
M  V30 2835 H 255.385 2.08338 -0.413383 0
M  V30 2836 H 257.648 0.940016 -0.122775 0
M  V30 2837 H 257.354 3.51431 0.137568 0
M  V30 2838 H 257.228 3.27505 1.87137 0
M  V30 2839 H 259.615 2.28321 1.86959 0
M  V30 2840 H 259.696 2.55504 0.123057 0
M  V30 2841 H 259.34 5.05254 0.517793 0
M  V30 2842 H 259.27 4.75059 2.27214 0
M  V30 2843 H 261.761 3.56377 1.25713 0
M  V30 2844 H 262.074 7.47197 1.97271 0
M  V30 2845 H 260.419 6.71797 1.78083 0
M  V30 2846 H 263.61 4.44171 1.47749 0
M  V30 2847 H 263.783 6.22382 1.80402 0
M  V30 2848 N 257.189 -0.644168 1.43834 0
M  V30 2849 C 258.119 -1.76814 1.52509 0
M  V30 2850 C 259.1 -1.65823 0.379052 0
M  V30 2851 O 260.285 -1.84781 0.597466 0
M  V30 2852 C 257.415 -3.15288 1.4564 0
M  V30 2853 C 256.369 -3.41053 2.58586 0
M  V30 2854 C 255.695 -4.79421 2.36769 0
M  V30 2855 C 256.995 -3.34902 4.00797 0
M  V30 2856 H 258.689 -1.69812 2.46586 0
M  V30 2857 H 256.235 -0.815542 1.1868 0
M  V30 2858 H 258.188 -3.93681 1.50311 0
M  V30 2859 H 256.912 -3.23043 0.480725 0
M  V30 2860 H 255.571 -2.65035 2.53282 0
M  V30 2861 H 255.219 -4.83863 1.37424 0
M  V30 2862 H 254.919 -4.9762 3.12487 0
M  V30 2863 H 256.443 -5.6006 2.43238 0
M  V30 2864 H 257.857 -4.03218 4.07539 0
M  V30 2865 H 256.254 -3.64637 4.76613 0
M  V30 2866 H 257.324 -2.32928 4.25291 0
M  V30 2867 N 258.668 -1.30515 -0.883378 0
M  V30 2868 C 259.915 -1.1943 -1.63532 0
M  V30 2869 C 260.243 0.250627 -1.92878 0
M  V30 2870 O 259.498 1.19556 -1.54935 0
M  V30 2871 C 259.797 -1.96994 -2.98209 0
M  V30 2872 C 259.463 -3.466 -2.88408 0
M  V30 2873 C 258.125 -3.87397 -2.85442 0
M  V30 2874 C 260.477 -4.41863 -2.76418 0
M  V30 2875 C 257.805 -5.21745 -2.68327 0
M  V30 2876 C 260.157 -5.7632 -2.60841 0
M  V30 2877 C 258.821 -6.16354 -2.56251 0
M  V30 2878 H 258.091 -0.437025 -0.598406 0
M  V30 2879 H 260.738 -1.61635 -1.02696 0
M  V30 2880 H 259.043 -1.47429 -3.63004 0
M  V30 2881 H 260.74 -1.85808 -3.55354 0
M  V30 2882 H 257.33 -3.14182 -2.91527 0
M  V30 2883 H 261.514 -4.11285 -2.77775 0
M  V30 2884 H 256.77 -5.51853 -2.63189 0
M  V30 2885 H 260.944 -6.49772 -2.50538 0
M  V30 2886 H 258.571 -7.20401 -2.42748 0
M  V30 2887 N 260.146 1.09593 -1.13257 0
M  V30 2888 C 261.374 1.855 -0.916378 0
M  V30 2889 C 261.789 1.81069 0.534738 0
M  V30 2890 O 261.146 1.20562 1.37007 0
M  V30 2891 C 261.197 3.33546 -1.39388 0
M  V30 2892 O 260.918 3.37927 -2.78813 0
M  V30 2893 C 262.419 4.26299 -1.21588 0
M  V30 2894 H 259.639 0.585991 -0.326887 0
M  V30 2895 H 262.183 1.38488 -1.5047 0
M  V30 2896 H 260.338 3.77992 -0.848597 0
M  V30 2897 H 260.752 4.30254 -2.9997 0
M  V30 2898 H 262.226 5.28341 -1.59876 0
M  V30 2899 H 262.703 4.38918 -0.157376 0
M  V30 2900 H 263.309 3.87668 -1.7491 0
M  V30 2901 N 261.624 0.925811 1.2754 0
M  V30 2902 C 262.873 0.561084 1.93739 0
M  V30 2903 C 263.186 -0.901685 1.73577 0
M  V30 2904 O 264.392 -1.37511 2.34101 0
M  V30 2905 C 262.848 0.952668 3.47062 0
M  V30 2906 C 262.456 2.43599 3.75983 0
M  V30 2907 C 264.2 0.659103 4.19352 0
M  V30 2908 C 262.107 2.76707 5.22673 0
M  V30 2909 H 261.037 0.206122 0.725279 0
M  V30 2910 H 263.688 1.12637 1.44863 0
M  V30 2911 H 262.07 0.316053 3.94737 0
M  V30 2912 H 263.244 3.12035 3.39073 0
M  V30 2913 H 261.559 2.70125 3.16893 0
M  V30 2914 H 264.156 0.882985 5.27359 0
M  V30 2915 H 264.499 -0.403607 4.14339 0
M  V30 2916 H 265.032 1.25473 3.77494 0
M  V30 2917 H 261.771 3.8188 5.32774 0
M  V30 2918 H 261.291 2.12919 5.60737 0
M  V30 2919 H 262.97 2.6435 5.90532 0
M  V30 2920 N 263.102 -1.41638 0.69111 0
M  V30 2921 C 264.518 -1.55435 0.362224 0
M  V30 2922 C 264.718 -1.66754 -1.13117 0
M  V30 2923 O 263.774 -1.64348 -1.91692 0
M  V30 2924 C 265.087 -2.79588 1.10684 0
M  V30 2925 C 266.635 -2.9338 1.09075 0
M  V30 2926 C 267.11 -4.20414 1.81703 0
M  V30 2927 N 268.601 -4.27362 1.7865 0
M  V30 2928 C 269.336 -5.24507 2.31689 0
M  V30 2929 N 268.832 -6.27708 2.93179 0
M  V30 2930 N 270.625 -5.16416 2.2197 0
M  V30 2931 H 262.776 -1.32536 1.65976 0
M  V30 2932 H 265.039 -0.639115 0.700168 0
M  V30 2933 H 264.745 -2.77419 2.16175 0
M  V30 2934 H 264.619 -3.70973 0.682545 0
M  V30 2935 H 267.006 -2.95067 0.0441238 0
M  V30 2936 H 267.087 -2.0318 1.55407 0
M  V30 2937 H 266.731 -4.19488 2.86343 0
M  V30 2938 H 266.661 -5.09578 1.32808 0
M  V30 2939 H 269.152 -3.53415 1.33815 0
M  V30 2940 H 269.465 -6.98217 3.31229 0
M  V30 2941 H 267.81 -6.28223 2.97255 0
M  V30 2942 H 271.001 -4.34716 1.73607 0
M  V30 2943 H 271.174 -5.91958 2.63609 0
M  V30 2944 N 264.58 -0.43555 -1.51462 0
M  V30 2945 C 265.512 0.41257 -2.25456 0
M  V30 2946 C 266.525 0.987822 -1.29406 0
M  V30 2947 O 267.714 0.882266 -1.55172 0
M  V30 2948 C 264.814 1.58894 -2.99342 0
M  V30 2949 C 263.987 1.13288 -4.22474 0
M  V30 2950 C 263.046 2.17917 -4.78956 0
M  V30 2951 O 262.072 1.77425 -5.40841 0
M  V30 2952 N 263.274 3.50382 -4.62832 0
M  V30 2953 H 266.039 -0.221603 -2.9888 0
M  V30 2954 H 263.6 -0.264342 -1.59727 0
M  V30 2955 H 265.592 2.28508 -3.34015 0
M  V30 2956 H 264.162 2.12849 -2.28941 0
M  V30 2957 H 263.382 0.263881 -3.93316 0
M  V30 2958 H 264.67 0.805542 -5.02383 0
M  V30 2959 H 264.068 3.86013 -4.13534 0
M  V30 2960 H 262.625 4.15895 -5.01871 0
M  V30 2961 N 266.058 1.56714 -0.166846 0
M  V30 2962 C 266.968 2.21331 0.777791 0
M  V30 2963 C 267.984 1.20358 1.25658 0
M  V30 2964 O 269.16 1.53005 1.30964 0
M  V30 2965 C 266.225 2.83787 1.99163 0
M  V30 2966 C 265.286 3.99947 1.56016 0
M  V30 2967 C 264.519 4.59415 2.71613 0
M  V30 2968 O 264.742 4.17769 3.88362 0
M  V30 2969 O 263.676 5.49359 2.45945 0
M  V30 2970 H 267.502 3.02605 0.257636 0
M  V30 2971 H 265.087 1.49275 0.0611393 0
M  V30 2972 H 266.969 3.23405 2.70161 0
M  V30 2973 H 265.644 2.05513 2.50092 0
M  V30 2974 H 264.551 3.65007 0.819809 0
M  V30 2975 H 265.884 4.79801 1.09782 0
M  V30 2976 N 267.536 -0.106894 1.57237 0
M  V30 2977 C 268.469 -1.16125 1.96444 0
M  V30 2978 C 269.447 -1.3947 0.835871 0
M  V30 2979 O 270.631 -1.53425 1.09513 0
M  V30 2980 C 267.758 -2.51277 2.27107 0
M  V30 2981 C 266.804 -2.44285 3.4961 0
M  V30 2982 S 267.637 -1.87077 5.01759 0
M  V30 2983 C 268.793 -3.23877 5.35588 0
M  V30 2984 H 269.026 -0.826971 2.85567 0
M  V30 2985 H 266.559 -0.314124 1.51171 0
M  V30 2986 H 268.517 -3.29035 2.45451 0
M  V30 2987 H 267.178 -2.81879 1.38576 0
M  V30 2988 H 266.371 -3.4387 3.68469 0
M  V30 2989 H 265.973 -1.74652 3.30715 0
M  V30 2990 H 268.265 -4.20122 5.31511 0
M  V30 2991 H 269.208 -3.09833 6.36717 0
M  V30 2992 H 269.616 -3.22864 4.63054 0
M  V30 2993 N 269.014 -1.53014 -0.377408 0
M  V30 2994 C 269.977 -1.77957 -1.44444 0
M  V30 2995 C 270.977 -0.649763 -1.47087 0
M  V30 2996 O 272.167 -0.917897 -1.48055 0
M  V30 2997 C 269.299 -1.89089 -2.83651 0
M  V30 2998 H 270.492 -2.73243 -1.23606 0
M  V30 2999 H 268.045 -1.43912 -0.609844 0
M  V30 3000 H 268.78 -0.958293 -3.09818 0
M  V30 3001 H 268.565 -2.71254 -2.83132 0
M  V30 3002 H 270.055 -2.1002 -3.60945 0
M  V30 3003 N 270.492 0.636531 -1.44174 0
M  V30 3004 C 271.717 1.42847 -1.50364 0
M  V30 3005 C 272.142 1.87665 -0.127867 0
M  V30 3006 O 271.5 1.58408 0.88185 0
M  V30 3007 C 271.548 2.62854 -2.4686 0
M  V30 3008 O 270.652 3.62501 -1.9664 0
M  V30 3009 H 269.993 0.427642 -0.507955 0
M  V30 3010 H 272.523 0.777422 -1.89255 0
M  V30 3011 H 272.533 3.10465 -2.64718 0
M  V30 3012 H 271.208 2.29578 -3.46795 0
M  V30 3013 H 269.785 3.21735 -1.88523 0
M  V30 3014 N 271.97 1.30982 0.876444 0
M  V30 3015 C 273.386 1.09498 1.16113 0
M  V30 3016 C 273.586 -0.13875 2.01022 0
M  V30 3017 O 272.642 -0.829935 2.38471 0
M  V30 3018 C 273.955 2.36308 1.85954 0
M  V30 3019 C 275.503 2.41856 1.98683 0
M  V30 3020 C 275.978 3.6853 2.71937 0
M  V30 3021 N 277.469 3.69387 2.79477 0
M  V30 3022 C 278.204 4.64096 3.36753 0
M  V30 3023 N 277.7 5.69155 3.95012 0
M  V30 3024 N 279.493 4.51626 3.3465 0
M  V30 3025 H 271.644 2.10118 0.310494 0
M  V30 3026 H 273.907 0.926634 0.200131 0
M  V30 3027 H 273.613 3.26388 1.31011 0
M  V30 3028 H 273.487 2.4561 2.86278 0
M  V30 3029 H 275.874 1.52249 2.52793 0
M  V30 3030 H 275.955 2.36523 0.9742 0
M  V30 3031 H 275.599 4.58499 2.18496 0
M  V30 3032 H 275.529 3.71127 3.73593 0
M  V30 3033 H 278.02 2.93438 2.38123 0
M  V30 3034 H 278.333 6.3751 4.36808 0
M  V30 3035 H 276.678 5.72937 3.93406 0
M  V30 3036 H 279.869 3.68728 2.8837 0
M  V30 3037 H 280.042 5.25614 3.7899 0
M  V30 3038 N 273.449 -1.08991 1.13837 0
M  V30 3039 C 274.697 -1.80899 0.901098 0
M  V30 3040 C 275.018 -1.86356 -0.574134 0
M  V30 3041 O 274.288 -1.35235 -1.41733 0
M  V30 3042 H 272.868 -0.669966 0.330386 0
M  V30 3043 H 275.53 -1.318 1.43578 0
M  V30 3044 H 274.626 -2.83929 1.29578 0
M  V30 3045 N 274.927 -0.932562 -1.27047 0
M  V30 3046 C 275.857 -0.452902 -2.29066 0
M  V30 3047 C 276.838 0.489338 -1.62909 0
M  V30 3048 O 278.023 0.393046 -1.90181 0
M  V30 3049 C 275.153 0.290698 -3.46081 0
M  V30 3050 C 274.107 -0.564168 -4.24265 0
M  V30 3051 C 273.433 0.308886 -5.33807 0
M  V30 3052 C 274.733 -1.83112 -4.89149 0
M  V30 3053 H 276.427 -1.30552 -2.69437 0
M  V30 3054 H 273.973 -0.629201 -1.29526 0
M  V30 3055 H 275.926 0.637233 -4.16554 0
M  V30 3056 H 274.65 1.17738 -3.0464 0
M  V30 3057 H 273.309 -0.893477 -3.55545 0
M  V30 3058 H 272.957 1.19467 -4.88607 0
M  V30 3059 H 272.657 -0.259633 -5.87026 0
M  V30 3060 H 274.181 0.650884 -6.07121 0
M  V30 3061 H 275.595 -1.55236 -5.51883 0
M  V30 3062 H 273.992 -2.34353 -5.52448 0
M  V30 3063 H 275.062 -2.54772 -4.12576 0
M  V30 3064 N 276.405 1.4127 -0.698611 0
M  V30 3065 C 277.651 2.01979 -0.239972 0
M  V30 3066 C 278.006 1.54353 1.14861 0
M  V30 3067 O 277.299 0.746218 1.76471 0
M  V30 3068 C 277.493 3.56592 -0.240192 0
M  V30 3069 C 277.322 4.19226 -1.62726 0
M  V30 3070 C 276.092 4.53389 -2.23084 0
M  V30 3071 C 278.29 4.45228 -2.57443 0
M  V30 3072 N 276.272 5.01327 -3.54323 0
M  V30 3073 C 277.643 4.94973 -3.73365 0
M  V30 3074 C 279.698 4.27243 -2.55671 0
M  V30 3075 C 278.401 5.28624 -4.878 0
M  V30 3076 C 280.427 4.61985 -3.69221 0
M  V30 3077 C 279.789 5.11904 -4.83873 0
M  V30 3078 H 275.888 0.770561 -0.133269 0
M  V30 3079 H 278.472 1.71767 -0.916748 0
M  V30 3080 H 276.643 3.86271 0.406082 0
M  V30 3081 H 278.375 4.04025 0.23356 0
M  V30 3082 H 275.13 4.39946 -1.75341 0
M  V30 3083 H 275.554 5.29697 -4.21604 0
M  V30 3084 H 280.196 3.87884 -1.68243 0
M  V30 3085 H 277.914 5.66905 -5.75885 0
M  V30 3086 H 281.5 4.49725 -3.69105 0
M  V30 3087 H 280.38 5.38282 -5.70282 0
M  V30 3088 N 277.883 0.443576 1.51229 0
M  V30 3089 C 279.16 -0.181038 1.9476 0
M  V30 3090 C 279.54 -1.59523 1.38259 0
M  V30 3091 O 278.888 -2.2122 0.572198 0
M  V30 3092 C 279.098 -0.152422 3.48667 0
M  V30 3093 C 280.446 -0.354923 4.23114 0
M  V30 3094 O 281.47 -0.230257 3.55455 0
M  V30 3095 O 280.329 -0.603674 5.43156 0
M  V30 3096 H 277.423 -0.1266 0.817252 0
M  V30 3097 H 279.969 0.502004 1.62105 0
M  V30 3098 H 278.741 0.836022 3.82265 0
M  V30 3099 H 278.364 -0.878107 3.87782 0
M  V30 3100 N 279.361 -1.56624 0.175154 0
M  V30 3101 C 280.586 -2.01813 -0.478137 0
M  V30 3102 C 281.011 -1.05457 -1.55757 0
M  V30 3103 O 280.369 -0.0347439 -1.81267 0
M  V30 3104 C 280.417 -3.45581 -1.02987 0
M  V30 3105 O 279.521 -3.52305 -2.14371 0
M  V30 3106 H 278.862 -0.65413 -0.114059 0
M  V30 3107 H 281.392 -2.02673 0.280173 0
M  V30 3108 H 281.402 -3.84965 -1.35151 0
M  V30 3109 H 280.077 -4.1521 -0.239556 0
M  V30 3110 H 278.654 -3.24783 -1.83222 0
M  V30 3111 N 280.839 0.0985539 -1.57292 0
M  V30 3112 C 282.086 0.802678 -1.85912 0
M  V30 3113 C 282.414 1.78901 -0.763186 0
M  V30 3114 O 281.669 1.94178 0.243559 0
M  V30 3115 C 281.968 1.56927 -3.21105 0
M  V30 3116 C 281.634 0.725376 -4.45027 0
M  V30 3117 C 280.296 0.492726 -4.78671 0
M  V30 3118 C 282.648 0.138493 -5.21016 0
M  V30 3119 C 279.976 -0.336727 -5.85733 0
M  V30 3120 C 282.328 -0.678264 -6.28953 0
M  V30 3121 C 280.992 -0.921039 -6.61115 0
M  V30 3122 H 280.262 0.293721 -0.680301 0
M  V30 3123 H 282.909 0.0642841 -1.91392 0
M  V30 3124 H 281.214 2.37914 -3.11294 0
M  V30 3125 H 282.911 2.11841 -3.40477 0
M  V30 3126 H 279.501 0.916815 -4.18679 0
M  V30 3127 H 283.685 0.305404 -4.95359 0
M  V30 3128 H 278.941 -0.533836 -6.09065 0
M  V30 3129 H 283.115 -1.1399 -6.87007 0
M  V30 3130 H 280.742 -1.56556 -7.43905 0
M  V30 3131 N 282.317 1.53212 0.369288 0
M  V30 3132 C 283.733 1.42902 0.710712 0
M  V30 3133 C 283.933 0.565135 1.93413 0
M  V30 3134 O 282.989 0.0461484 2.52458 0
M  V30 3135 C 284.302 2.86042 0.927382 0
M  V30 3136 C 285.85 2.9565 1.02762 0
M  V30 3137 C 286.325 4.39843 1.27679 0
M  V30 3138 N 287.816 4.43256 1.34457 0
M  V30 3139 C 288.551 5.51929 1.55439 0
M  V30 3140 N 288.047 6.70655 1.73762 0
M  V30 3141 N 289.84 5.39502 1.57779 0
M  V30 3142 H 281.991 2.07888 -0.435457 0
M  V30 3143 H 284.254 0.938661 -0.132739 0
M  V30 3144 H 283.96 3.51557 0.100287 0
M  V30 3145 H 283.834 3.29472 1.83653 0
M  V30 3146 H 286.221 2.30291 1.84527 0
M  V30 3147 H 286.302 2.5562 0.0959504 0
M  V30 3148 H 285.946 5.05774 0.464175 0
M  V30 3149 H 285.876 4.77443 2.22162 0
M  V30 3150 H 288.367 3.5769 1.21926 0
M  V30 3151 H 288.68 7.49248 1.89335 0
M  V30 3152 H 287.025 6.73648 1.70948 0
M  V30 3153 H 290.216 4.45713 1.43029 0
M  V30 3154 H 290.389 6.2426 1.7379 0
M  V30 3155 N 283.795 -0.628877 1.44509 0
M  V30 3156 C 284.727 -1.754 1.47538 0
M  V30 3157 C 285.74 -1.58575 0.368506 0
M  V30 3158 O 286.929 -1.66847 0.634376 0
M  V30 3159 C 284.029 -3.1315 1.29577 0
M  V30 3160 C 283.202 -3.56413 2.53551 0
M  V30 3161 C 282.261 -4.7305 2.30457 0
M  V30 3162 O 281.287 -4.81247 3.03957 0
M  V30 3163 N 282.489 -5.64903 1.3366 0
M  V30 3164 H 285.254 -1.73272 2.44534 0
M  V30 3165 H 282.815 -0.813512 1.39977 0
M  V30 3166 H 284.807 -3.88902 1.11971 0
M  V30 3167 H 283.377 -3.09908 0.409371 0
M  V30 3168 H 282.597 -2.70847 2.86419 0
M  V30 3169 H 283.885 -3.82071 3.36005 0
M  V30 3170 H 283.283 -5.60975 0.729604 0
M  V30 3171 H 281.84 -6.40275 1.22032 0
M  V30 3172 N 285.273 -1.31445 -0.869486 0
M  V30 3173 C 286.498 -1.24256 -1.66058 0
M  V30 3174 C 286.923 0.188928 -1.87149 0
M  V30 3175 O 286.281 1.13522 -1.4136 0
M  V30 3176 C 286.329 -1.9924 -3.00559 0
M  V30 3177 O 285.433 -1.33007 -3.90362 0
M  V30 3178 H 284.774 -0.428973 -0.506831 0
M  V30 3179 H 287.304 -1.73521 -1.08404 0
M  V30 3180 H 287.314 -2.08854 -3.50491 0
M  V30 3181 H 285.989 -3.03342 -2.84528 0
M  V30 3182 H 284.566 -1.31848 -3.48813 0
M  V30 3183 N 286.751 1.08385 -1.14413 0
M  V30 3184 C 287.661 2.18856 -0.844951 0
M  V30 3185 C 288.677 1.73121 0.174668 0
M  V30 3186 O 289.853 2.014 0.00312857 0
M  V30 3187 C 286.918 3.45155 -0.32696 0
M  V30 3188 C 285.979 4.05513 -1.40916 0
M  V30 3189 C 285.212 5.25784 -0.915793 0
M  V30 3190 O 285.435 5.69884 0.242651 0
M  V30 3191 O 284.369 5.77545 -1.69487 0
M  V30 3192 H 288.195 2.46919 -1.76818 0
M  V30 3193 H 285.78 1.17524 -0.922411 0
M  V30 3194 H 287.662 4.21377 -0.0440211 0
M  V30 3195 H 286.337 3.18668 0.568539 0
M  V30 3196 H 285.244 3.30879 -1.74556 0
M  V30 3197 H 286.577 4.3625 -2.27919 0
M  V30 3198 N 288.23 0.939286 1.26551 0
M  V30 3199 C 289.646 0.641304 1.46149 0
M  V30 3200 C 289.846 -0.805964 1.84679 0
M  V30 3201 O 288.902 -1.58278 1.96734 0
M  V30 3202 C 290.215 1.6011 2.54529 0
M  V30 3203 C 291.763 1.6106 2.68382 0
M  V30 3204 C 292.238 2.55765 3.79932 0
M  V30 3205 N 293.729 2.5404 3.87322 0
M  V30 3206 C 294.464 3.24004 4.73085 0
M  V30 3207 N 293.96 4.03388 5.63249 0
M  V30 3208 N 295.753 3.12965 4.66914 0
M  V30 3209 H 287.904 1.87478 0.998285 0
M  V30 3210 H 290.167 0.805559 0.499779 0
M  V30 3211 H 289.873 2.63412 2.33039 0
M  V30 3212 H 289.747 1.35171 3.52149 0
M  V30 3213 H 292.134 0.584835 2.89247 0
M  V30 3214 H 292.215 1.90053 1.71212 0
M  V30 3215 H 291.859 3.58458 3.5982 0
M  V30 3216 H 291.789 2.24063 4.76554 0
M  V30 3217 H 294.28 1.96396 3.22858 0
M  V30 3218 H 294.593 4.5373 6.25579 0
M  V30 3219 H 292.938 4.07489 5.63008 0
M  V30 3220 H 296.129 2.50432 3.95476 0
M  V30 3221 H 296.302 3.67759 5.33533 0
M  V30 3222 N 289.708 -1.40897 0.706093 0
M  V30 3223 C 290.956 -2.00657 0.241054 0
M  V30 3224 C 291.277 -1.56241 -1.16678 0
M  V30 3225 O 290.547 -0.79765 -1.78926 0
M  V30 3226 H 289.127 -0.742018 0.0861308 0
M  V30 3227 H 291.789 -1.72372 0.909604 0
M  V30 3228 H 290.885 -3.10958 0.266705 0
M  V30 3229 N 291.186 -0.45159 -1.50991 0
M  V30 3230 C 292.096 0.358431 -2.31846 0
M  V30 3231 C 293.112 1.01438 -1.41373 0
M  V30 3232 O 294.288 1.00663 -1.74439 0
M  V30 3233 C 291.353 1.43704 -3.15515 0
M  V30 3234 C 290.414 0.799742 -4.21785 0
M  V30 3235 C 289.647 1.82696 -5.01456 0
M  V30 3236 O 289.87 3.05105 -4.81941 0
M  V30 3237 O 288.804 1.40958 -5.85162 0
M  V30 3238 H 292.63 -0.302032 -3.02194 0
M  V30 3239 H 290.215 -0.213825 -1.47862 0
M  V30 3240 H 292.097 2.06227 -3.67489 0
M  V30 3241 H 290.772 2.08133 -2.47916 0
M  V30 3242 H 289.679 0.136084 -3.73852 0
M  V30 3243 H 291.012 0.198718 -4.91799 0
M  V30 3244 N 292.664 1.56529 -0.183458 0
M  V30 3245 C 293.574 2.22144 0.754272 0
M  V30 3246 C 294.59 1.21684 1.24374 0
M  V30 3247 O 295.766 1.54385 1.29333 0
M  V30 3248 C 292.831 2.85884 1.96141 0
M  V30 3249 C 291.892 4.01579 1.51765 0
M  V30 3250 C 291.125 4.6227 2.66725 0
M  V30 3251 O 291.348 4.21865 3.83909 0
M  V30 3252 O 290.282 5.51936 2.40104 0
M  V30 3253 H 294.108 3.02861 0.225527 0
M  V30 3254 H 291.693 1.49331 0.0453032 0
M  V30 3255 H 293.575 3.26253 2.66715 0
M  V30 3256 H 292.25 2.08154 2.47899 0
M  V30 3257 H 291.157 3.65856 0.781049 0
M  V30 3258 H 292.49 4.80938 1.04686 0
M  V30 3259 N 294.142 -0.090211 1.57342 0
M  V30 3260 C 295.37 -0.806224 1.90546 0
M  V30 3261 C 295.785 -1.72041 0.777644 0
M  V30 3262 O 295.142 -1.80778 -0.250103 0
M  V30 3263 C 295.193 -1.61546 3.23396 0
M  V30 3264 O 294.914 -0.738043 4.31839 0
M  V30 3265 C 296.415 -2.4341 3.70495 0
M  V30 3266 H 293.635 -0.230256 0.630257 0
M  V30 3267 H 296.179 -0.0659843 2.04394 0
M  V30 3268 H 294.334 -2.30816 3.11131 0
M  V30 3269 H 294.748 -1.29901 5.08159 0
M  V30 3270 H 296.222 -2.95676 4.66133 0
M  V30 3271 H 296.699 -3.22098 2.98579 0
M  V30 3272 H 297.305 -1.79331 3.85643 0
M  V30 3273 N 295.62 -1.53406 -0.361157 0
M  V30 3274 C 296.869 -1.69022 -1.10066 0
M  V30 3275 C 297.182 -0.450838 -1.90333 0
M  V30 3276 O 298.388 -0.487617 -2.67085 0
M  V30 3277 C 296.844 -2.98812 -2.00598 0
M  V30 3278 C 296.452 -4.30027 -1.25621 0
M  V30 3279 C 298.196 -3.23795 -2.74513 0
M  V30 3280 C 296.103 -5.50903 -2.1508 0
M  V30 3281 H 295.033 -0.629776 -0.414606 0
M  V30 3282 H 297.684 -1.79907 -0.361348 0
M  V30 3283 H 296.066 -2.8174 -2.78278 0
M  V30 3284 H 297.24 -4.57745 -0.529739 0
M  V30 3285 H 295.555 -4.11522 -0.635496 0
M  V30 3286 H 298.152 -4.11289 -3.41681 0
M  V30 3287 H 298.495 -2.40045 -3.40123 0
M  V30 3288 H 299.028 -3.41561 -2.03914 0
M  V30 3289 H 295.767 -6.37143 -1.54041 0
M  V30 3290 H 295.287 -5.27459 -2.85565 0
M  V30 3291 H 296.966 -5.85865 -2.74538 0
M  V30 3292 N 297.098 0.621204 -1.44841 0
M  V30 3293 C 298.008 1.7612 -1.5498 0
M  V30 3294 C 299.024 1.68477 -0.434927 0
M  V30 3295 O 300.2 1.89076 -0.693693 0
M  V30 3296 C 297.265 3.1254 -1.50065 0
M  V30 3297 C 296.326 3.31741 -2.72482 0
M  V30 3298 C 295.559 4.61653 -2.67792 0
M  V30 3299 O 295.782 5.431 -1.74352 0
M  V30 3300 O 294.716 4.83271 -3.58794 0
M  V30 3301 H 298.542 1.70518 -2.51311 0
M  V30 3302 H 296.127 0.783643 -1.27198 0
M  V30 3303 H 298.009 3.93844 -1.49882 0
M  V30 3304 H 296.684 3.18663 -0.568806 0
M  V30 3305 H 295.591 2.50077 -2.7823 0
M  V30 3306 H 296.924 3.30486 -3.64746 0
M  V30 3307 N 298.576 1.31904 0.862503 0
M  V30 3308 C 299.486 1.22161 2.00285 0
M  V30 3309 C 300.502 0.136785 1.73462 0
M  V30 3310 O 301.678 0.355994 1.98229 0
M  V30 3311 C 298.743 0.937093 3.33796 0
M  V30 3312 C 297.804 2.10957 3.73893 0
M  V30 3313 C 297.037 1.83853 5.01033 0
M  V30 3314 O 297.26 0.777274 5.65079 0
M  V30 3315 O 296.194 2.69741 5.38074 0
M  V30 3316 H 300.02 2.18008 2.11439 0
M  V30 3317 H 297.605 1.11716 0.991957 0
M  V30 3318 H 299.487 0.794583 4.13841 0
M  V30 3319 H 298.162 0.00871894 3.23699 0
M  V30 3320 H 297.069 2.30752 2.94456 0
M  V30 3321 H 298.402 3.02046 3.88625 0
M  V30 3322 N 300.054 -1.07777 1.14986 0
M  V30 3323 C 301.47 -1.32373 0.891596 0
M  V30 3324 C 301.67 -1.9609 -0.463788 0
M  V30 3325 O 300.726 -2.21801 -1.20667 0
M  V30 3326 C 302.039 -2.21905 2.02925 0
M  V30 3327 C 303.587 -2.35367 2.06329 0
M  V30 3328 C 304.062 -3.28245 3.19405 0
M  V30 3329 N 305.553 -3.35824 3.19024 0
M  V30 3330 C 306.288 -4.07739 4.03158 0
M  V30 3331 N 305.784 -4.82306 4.97346 0
M  V30 3332 N 307.577 -4.03635 3.91197 0
M  V30 3333 H 299.728 -0.648039 2.02273 0
M  V30 3334 H 301.991 -0.348149 0.881757 0
M  V30 3335 H 301.697 -1.82342 3.0074 0
M  V30 3336 H 301.571 -3.22407 1.95789 0
M  V30 3337 H 303.958 -2.74186 1.09116 0
M  V30 3338 H 304.039 -1.34585 2.17533 0
M  V30 3339 H 303.683 -2.90146 4.16867 0
M  V30 3340 H 303.613 -4.28971 3.05437 0
M  V30 3341 H 306.104 -2.8267 2.50811 0
M  V30 3342 H 306.417 -5.34661 5.57994 0
M  V30 3343 H 304.762 -4.81337 5.01338 0
M  V30 3344 H 307.953 -3.44491 3.16928 0
M  V30 3345 H 308.126 -4.59417 4.5699 0
M  V30 3346 N 301.532 -0.945985 -1.26051 0
M  V30 3347 C 302.779 -0.596118 -1.93527 0
M  V30 3348 C 303.107 0.865559 -1.74179 0
M  V30 3349 O 302.362 1.63524 -1.0751 0
M  V30 3350 C 302.661 -0.890475 -3.46129 0
M  V30 3351 C 302.327 -2.3368 -3.85622 0
M  V30 3352 C 300.989 -2.73216 -3.96114 0
M  V30 3353 C 303.341 -3.27648 -4.05334 0
M  V30 3354 C 300.669 -4.05806 -4.2372 0
M  V30 3355 C 303.021 -4.59841 -4.3443 0
M  V30 3356 C 301.685 -4.99185 -4.43137 0
M  V30 3357 H 300.955 -0.218135 -0.708165 0
M  V30 3358 H 303.602 -1.1934 -1.49768 0
M  V30 3359 H 301.907 -0.210711 -3.91233 0
M  V30 3360 H 303.604 -0.598478 -3.96509 0
M  V30 3361 H 300.194 -2.02015 -3.78005 0
M  V30 3362 H 304.378 -2.98298 -3.96651 0
M  V30 3363 H 299.634 -4.35945 -4.28675 0
M  V30 3364 H 303.808 -5.32641 -4.48628 0
M  V30 3365 H 301.435 -6.01952 -4.64282 0
M  V30 3366 N 303.011 1.40521 -0.713556 0
M  V30 3367 C 303.921 2.34522 -0.0606667 0
M  V30 3368 C 304.937 1.57193 0.74607 0
M  V30 3369 O 306.113 1.89591 0.679493 0
M  V30 3370 C 303.178 3.36081 0.851491 0
M  V30 3371 C 302.239 4.29286 0.0349339 0
M  V30 3372 C 301.472 5.25994 0.903649 0
M  V30 3373 O 301.695 5.28616 2.14292 0
M  V30 3374 O 300.629 6.00918 0.343723 0
M  V30 3375 H 304.455 2.91968 -0.835972 0
M  V30 3376 H 302.04 1.41681 -0.47402 0
M  V30 3377 H 303.922 3.98369 1.37404 0
M  V30 3378 H 302.597 2.81052 1.60598 0
M  V30 3379 H 301.504 3.70289 -0.532633 0
M  V30 3380 H 302.837 4.87462 -0.681287 0
M  V30 3381 N 304.489 0.459591 1.5075 0
M  V30 3382 C 305.738 -0.100971 2.01447 0
M  V30 3383 C 306.051 -1.41816 1.34713 0
M  V30 3384 O 307.257 -2.06299 1.76502 0
M  V30 3385 C 305.713 -0.23047 3.59161 0
M  V30 3386 C 305.321 1.0776 4.34847 0
M  V30 3387 C 307.065 -0.743608 4.17936 0
M  V30 3388 C 304.972 0.91253 5.84317 0
M  V30 3389 H 303.902 -0.0415102 0.752856 0
M  V30 3390 H 306.553 0.592742 1.73663 0
M  V30 3391 H 304.935 -0.987703 3.83485 0
M  V30 3392 H 306.109 1.8449 4.22256 0
M  V30 3393 H 304.424 1.52097 3.87628 0
M  V30 3394 H 307.021 -0.883959 5.27343 0
M  V30 3395 H 307.364 -1.73196 3.78562 0
M  V30 3396 H 307.897 -0.04408 3.97776 0
M  V30 3397 H 304.636 1.87391 6.28144 0
M  V30 3398 H 304.156 0.185422 5.99513 0
M  V30 3399 H 305.835 0.574547 6.44444 0
M  V30 3400 N 305.967 -1.56429 0.191757 0
M  V30 3401 C 307.195 -2.01867 -0.453586 0
M  V30 3402 C 307.61 -1.07191 -1.5542 0
M  V30 3403 O 306.967 -0.0762108 -1.82341 0
M  V30 3404 C 307.018 -3.47017 -1.013 0
M  V30 3405 O 306.739 -4.38078 0.0437005 0
M  V30 3406 C 308.24 -4.07956 -1.73456 0
M  V30 3407 H 305.46 -0.661211 -0.114199 0
M  V30 3408 H 308.004 -2.02295 0.299483 0
M  V30 3409 H 306.159 -3.47298 -1.71647 0
M  V30 3410 H 306.573 -5.23178 -0.372212 0
M  V30 3411 H 308.047 -5.1138 -2.07833 0
M  V30 3412 H 308.524 -3.51222 -2.63704 0
M  V30 3413 H 309.13 -4.11437 -1.07702 0
M  V30 3414 N 307.445 0.0818655 -1.57387 0
M  V30 3415 C 308.693 0.781368 -1.86384 0
M  V30 3416 C 309.014 1.78618 -0.782342 0
M  V30 3417 O 308.284 1.94976 0.190061 0
M  V30 3418 H 306.864 0.291562 -0.687751 0
M  V30 3419 H 309.526 0.060348 -1.94807 0
M  V30 3420 H 308.622 1.3038 -2.83562 0
M  V30 3421 N 308.923 1.53595 0.353017 0
M  V30 3422 C 310.151 1.74311 1.1146 0
M  V30 3423 C 310.566 0.477854 1.82653 0
M  V30 3424 O 309.923 -0.549977 1.74016 0
M  V30 3425 C 309.974 2.91694 2.13534 0
M  V30 3426 O 309.695 4.13325 1.45238 0
M  V30 3427 C 311.196 3.24384 3.02142 0
M  V30 3428 H 308.416 0.582669 0.332773 0
M  V30 3429 H 310.96 2.00386 0.408107 0
M  V30 3430 H 309.115 2.67977 2.79763 0
M  V30 3431 H 309.529 4.79148 2.13349 0
M  V30 3432 H 311.003 4.09893 3.69718 0
M  V30 3433 H 311.48 2.40282 3.67643 0
M  V30 3434 H 312.086 3.50073 2.41514 0
M  V30 3435 N 310.401 -0.613514 1.45168 0
M  V30 3436 C 311.334 -1.73809 1.47871 0
M  V30 3437 C 312.312 -1.59097 0.33568 0
M  V30 3438 O 313.496 -1.8074 0.535299 0
M  V30 3439 C 310.623 -3.11574 1.32813 0
M  V30 3440 C 309.669 -3.4489 2.50905 0
M  V30 3441 S 310.502 -3.40393 4.13392 0
M  V30 3442 C 311.658 -4.80749 4.00789 0
M  V30 3443 H 311.891 -1.71252 2.43023 0
M  V30 3444 H 309.424 -0.789658 1.32679 0
M  V30 3445 H 311.382 -3.91065 1.24812 0
M  V30 3446 H 310.043 -3.11652 0.391418 0
M  V30 3447 H 309.236 -4.45183 2.36279 0
M  V30 3448 H 308.838 -2.72901 2.55736 0
M  V30 3449 H 311.13 -5.7041 3.65567 0
M  V30 3450 H 312.073 -5.00431 5.00974 0
M  V30 3451 H 312.481 -4.56151 3.32545 0
M  V30 3452 N 311.879 -1.3236 -0.855495 0
M  V30 3453 C 313.295 -1.11332 -1.14356 0
M  V30 3454 C 313.495 0.106751 -2.01217 0
M  V30 3455 O 312.551 0.791891 -2.39761 0
M  V30 3456 C 313.864 -2.39237 -1.82171 0
M  V30 3457 C 315.412 -2.44986 -1.9481 0
M  V30 3458 C 315.887 -3.7281 -2.66039 0
M  V30 3459 N 317.378 -3.73787 -2.73565 0
M  V30 3460 C 318.113 -4.69394 -3.29327 0
M  V30 3461 N 317.609 -5.75367 -3.85907 0
M  V30 3462 N 319.402 -4.56893 -3.27423 0
M  V30 3463 H 311.553 -2.10586 -0.277027 0
M  V30 3464 H 313.816 -0.929701 -0.185364 0
M  V30 3465 H 313.522 -3.28431 -1.25802 0
M  V30 3466 H 313.396 -2.50134 -2.82335 0
M  V30 3467 H 315.783 -1.56252 -2.50338 0
M  V30 3468 H 315.864 -2.38043 -0.936448 0
M  V30 3469 H 315.508 -4.61918 -2.11174 0
M  V30 3470 H 315.438 -3.77024 -3.67642 0
M  V30 3471 H 317.929 -2.97189 -2.33424 0
M  V30 3472 H 318.242 -6.44378 -4.26611 0
M  V30 3473 H 316.587 -5.79123 -3.84242 0
M  V30 3474 H 319.778 -3.73269 -2.82467 0
M  V30 3475 H 319.951 -5.31577 -3.7058 0
M  V30 3476 N 313.357 1.07166 -1.15556 0
M  V30 3477 C 314.304 2.14417 -0.854055 0
M  V30 3478 C 315.274 1.64965 0.193806 0
M  V30 3479 O 316.459 1.90703 0.0609443 0
M  V30 3480 C 313.599 3.43304 -0.351574 0
M  V30 3481 C 312.712 4.06537 -1.46123 0
M  V30 3482 C 311.847 5.23266 -0.914677 0
M  V30 3483 C 310.886 5.78464 -2.00114 0
M  V30 3484 N 310.023 6.86521 -1.47083 0
M  V30 3485 H 314.863 2.39548 -1.77259 0
M  V30 3486 H 312.4 1.17543 -0.884425 0
M  V30 3487 H 314.358 4.17179 -0.0419409 0
M  V30 3488 H 312.988 3.18419 0.530037 0
M  V30 3489 H 312.04 3.30297 -1.88701 0
M  V30 3490 H 313.352 4.43567 -2.28144 0
M  V30 3491 H 312.506 6.04131 -0.557698 0
M  V30 3492 H 311.245 4.87658 -0.0636583 0
M  V30 3493 H 310.25 4.96243 -2.36692 0
M  V30 3494 H 311.475 6.16126 -2.85597 0
M  V30 3495 H 309.421 6.52849 -0.642198 0
M  V30 3496 H 309.338 7.22446 -2.22729 0
M  V30 3497 H 310.606 7.71087 -1.14215 0
M  V30 3498 N 314.835 0.952656 1.25548 0
M  V30 3499 C 315.765 0.489287 2.28316 0
M  V30 3500 C 316.746 -0.463359 1.63667 0
M  V30 3501 O 317.931 -0.36274 1.90782 0
M  V30 3502 C 315.061 -0.235603 3.465 0
M  V30 3503 C 314.015 0.631593 4.23314 0
M  V30 3504 C 313.341 -0.223923 5.34231 0
M  V30 3505 C 314.641 1.90871 4.86174 0
M  V30 3506 H 316.335 1.34822 2.67326 0
M  V30 3507 H 313.881 0.649728 1.28509 0
M  V30 3508 H 315.834 -0.570882 4.17515 0
M  V30 3509 H 314.558 -1.12877 3.06474 0
M  V30 3510 H 313.217 0.949929 3.54079 0
M  V30 3511 H 312.865 -1.11678 4.90446 0
M  V30 3512 H 312.565 0.35299 5.86539 0
M  V30 3513 H 314.089 -0.554214 6.0808 0
M  V30 3514 H 315.503 1.63997 5.49343 0
M  V30 3515 H 313.9 2.43112 5.4865 0
M  V30 3516 H 314.97 2.61304 4.08471 0
M  V30 3517 N 316.313 -1.40141 0.720998 0
M  V30 3518 C 317.276 -2.29058 0.0805834 0
M  V30 3519 C 318.276 -1.45632 -0.681758 0
M  V30 3520 O 319.466 -1.6648 -0.512856 0
M  V30 3521 C 316.598 -3.28925 -0.895593 0
M  V30 3522 H 317.791 -2.87191 0.863793 0
M  V30 3523 H 315.344 -1.48553 0.485975 0
M  V30 3524 H 316.079 -2.75822 -1.70566 0
M  V30 3525 H 315.864 -3.90519 -0.351766 0
M  V30 3526 H 317.354 -3.95494 -1.34069 0
M  V30 3527 N 317.792 -0.46758 -1.50504 0
M  V30 3528 C 319.069 0.15003 -1.95024 0
M  V30 3529 C 319.449 1.57304 -1.40779 0
M  V30 3530 O 318.797 2.20281 -0.607319 0
M  V30 3531 C 319.007 0.0969324 -3.48865 0
M  V30 3532 C 320.355 0.287565 -4.23625 0
M  V30 3533 O 321.379 0.173678 -3.55776 0
M  V30 3534 O 320.238 0.517186 -5.44047 0
M  V30 3535 H 317.332 0.113582 -0.819163 0
M  V30 3536 H 319.878 -0.52773 -1.61286 0
M  V30 3537 H 318.65 -0.896732 -3.80886 0
M  V30 3538 H 318.273 0.816303 -3.8913 0
M  V30 3539 N 319.27 1.56325 -0.20005 0
M  V30 3540 C 320.202 2.16555 0.750771 0
M  V30 3541 C 321.215 1.12871 1.1732 0
M  V30 3542 O 322.404 1.39943 1.10807 0
M  V30 3543 C 319.504 2.71684 2.02586 0
M  V30 3544 C 318.677 4.00321 1.76244 0
M  V30 3545 C 317.736 4.40227 2.88248 0
M  V30 3546 O 316.762 5.07552 2.57642 0
M  V30 3547 N 317.964 4.04138 4.16717 0
M  V30 3548 H 320.729 2.98772 0.235685 0
M  V30 3549 H 318.29 1.6189 -0.0182594 0
M  V30 3550 H 320.282 2.95363 2.76664 0
M  V30 3551 H 318.852 1.93893 2.45202 0
M  V30 3552 H 318.072 3.84723 0.85919 0
M  V30 3553 H 319.36 4.84279 1.56048 0
M  V30 3554 H 318.758 3.49993 4.44434 0
M  V30 3555 H 317.315 4.32756 4.87407 0
M  V30 3556 N 320.748 -0.0735177 1.57428 0
M  V30 3557 C 321.973 -0.789787 1.91774 0
M  V30 3558 C 322.398 -1.70413 0.796306 0
M  V30 3559 O 321.756 -1.79555 -0.250961 0
M  V30 3560 C 321.804 -1.5609 3.25067 0
M  V30 3561 O 320.908 -2.67144 3.14178 0
M  V30 3562 H 320.249 -0.215582 0.628029 0
M  V30 3563 H 322.779 -0.0422781 2.04556 0
M  V30 3564 H 322.789 -1.94052 3.58898 0
M  V30 3565 H 321.464 -0.890015 4.06265 0
M  V30 3566 H 320.041 -2.32052 2.91901 0
M  V30 3567 N 322.226 -1.5378 -0.344866 0
M  V30 3568 C 323.156 -1.84662 -1.42906 0
M  V30 3569 C 324.137 -0.701648 -1.54955 0
M  V30 3570 O 325.322 -0.953438 -1.69184 0
M  V30 3571 C 322.452 -2.05503 -2.79974 0
M  V30 3572 C 321.406 -3.21318 -2.82734 0
M  V30 3573 C 320.732 -3.2749 -4.22675 0
M  V30 3574 C 322.032 -4.59456 -2.48389 0
M  V30 3575 H 323.726 -2.75461 -1.17311 0
M  V30 3576 H 321.272 -1.32542 -0.562896 0
M  V30 3577 H 323.225 -2.25691 -3.55867 0
M  V30 3578 H 321.949 -1.11434 -3.07002 0
M  V30 3579 H 320.608 -3.00984 -2.09294 0
M  V30 3580 H 320.256 -2.31019 -4.4681 0
M  V30 3581 H 319.956 -4.05316 -4.25433 0
M  V30 3582 H 321.48 -3.49887 -5.00412 0
M  V30 3583 H 322.894 -4.79667 -3.13995 0
M  V30 3584 H 321.291 -5.39675 -2.62432 0
M  V30 3585 H 322.361 -4.63155 -1.4358 0
M  V30 3586 N 323.704 0.605807 -1.45491 0
M  V30 3587 C 325.115 1.18777 -1.44045 0
M  V30 3588 C 325.466 1.95471 -0.169001 0
M  V30 3589 O 324.591 2.0374 0.729324 0
M  V30 3590 C 325.186 2.16064 -2.60963 0
M  V30 3591 C 323.745 2.69633 -2.62631 0
M  V30 3592 C 322.892 1.45072 -2.36325 0
M  V30 3593 H 325.843 0.395017 -1.53705 0
M  V30 3594 H 325.864 2.9913 -2.35163 0
M  V30 3595 H 325.376 1.60217 -3.53486 0
M  V30 3596 H 323.477 3.29414 -1.74119 0
M  V30 3597 H 323.59 3.13944 -3.61906 0
M  V30 3598 H 321.954 1.74089 -1.85917 0
M  V30 3599 H 322.737 0.910899 -3.30995 0
M  V30 3600 N 325.182 1.32811 0.848464 0
M  V30 3601 C 326.593 1.21315 1.41914 0
M  V30 3602 C 326.944 -0.171847 1.95446 0
M  V30 3603 O 326.069 -1.07093 1.88043 0
M  V30 3604 C 326.664 2.19631 2.57968 0
M  V30 3605 C 325.223 2.12003 3.11017 0
M  V30 3606 C 324.37 2.07651 1.83783 0
M  V30 3607 H 327.321 1.44549 0.655071 0
M  V30 3608 H 327.342 1.79845 3.35315 0
M  V30 3609 H 326.854 3.20423 2.18976 0
M  V30 3610 H 324.955 1.14481 3.54577 0
M  V30 3611 H 325.068 3.02111 3.71841 0
M  V30 3612 H 323.432 1.52983 2.03638 0
M  V30 3613 H 324.215 3.10235 1.47 0
M  V30 3614 N 326.66 -1.06551 1.16123 0
M  V30 3615 C 327.608 -2.16063 0.861371 0
M  V30 3616 C 328.602 -1.6856 -0.168517 0
M  V30 3617 O 329.808 -1.79986 -0.0227579 0
M  V30 3618 H 326.183 -0.705278 0.260934 0
M  V30 3619 H 328.154 -2.38567 1.79244 0
M  V30 3620 C 326.903 -3.45661 0.376018 0
M  V30 3621 H 326.226 -3.82604 1.15992 0
M  V30 3622 H 327.666 -4.23504 0.204951 0
M  V30 3623 C 326.125 -3.24546 -0.903954 0
M  V30 3624 O 326.655 -3.49865 -1.97377 0
M  V30 3625 N 324.861 -2.77992 -0.846679 0
M  V30 3626 H 324.408 -2.57589 0.0241017 0
M  V30 3627 H 324.366 -2.64244 -1.70359 0
M  V30 3628 N 328.138 -0.959301 -1.25041 0
M  V30 3629 C 329.385 -0.616611 -1.92884 0
M  V30 3630 C 329.713 0.847036 -1.75087 0
M  V30 3631 O 328.968 1.62374 -1.09239 0
M  V30 3632 C 329.267 -0.927136 -3.45165 0
M  V30 3633 C 328.933 -2.37757 -3.83122 0
M  V30 3634 C 327.595 -2.77402 -3.93194 0
M  V30 3635 C 329.947 -3.31929 -4.01836 0
M  V30 3636 C 327.275 -4.10277 -4.19392 0
M  V30 3637 C 329.627 -4.64423 -4.29528 0
M  V30 3638 C 328.291 -5.03857 -4.37818 0
M  V30 3639 H 327.561 -0.225634 -0.705812 0
M  V30 3640 H 330.208 -1.20921 -1.48493 0
M  V30 3641 H 328.513 -0.252195 -3.90987 0
M  V30 3642 H 330.21 -0.6405 -3.95852 0
M  V30 3643 H 326.8 -2.06013 -3.75841 0
M  V30 3644 H 330.984 -3.02488 -3.93465 0
M  V30 3645 H 326.24 -4.40467 -4.24027 0
M  V30 3646 H 330.414 -5.37369 -4.42953 0
M  V30 3647 H 328.041 -6.06843 -4.57871 0
M  V30 3648 N 329.616 1.39756 -0.72842 0
M  V30 3649 C 330.841 2.05472 -0.282159 0
M  V30 3650 C 331.266 1.54549 1.07221 0
M  V30 3651 O 330.624 0.686372 1.67805 0
M  V30 3652 C 330.672 3.59462 -0.286264 0
M  V30 3653 O 329.776 4.05918 0.728298 0
M  V30 3654 H 329.117 0.651226 -0.129618 0
M  V30 3655 H 331.647 1.78915 -0.992499 0
M  V30 3656 H 331.657 4.07798 -0.128373 0
M  V30 3657 H 330.332 3.95889 -1.27456 0
M  V30 3658 H 328.909 3.69012 0.537081 0
M  V30 3659 N 331.094 0.475555 1.50254 0
M  V30 3660 C 332.319 -0.0777042 2.07254 0
M  V30 3661 C 332.744 -1.3235 1.3366 0
M  V30 3662 O 332.102 -1.77152 0.385597 0
M  V30 3663 C 332.15 -0.340169 3.58992 0
M  V30 3664 O 331.254 -1.41982 3.87188 0
M  V30 3665 H 330.595 0.0149556 0.663832 0
M  V30 3666 H 333.125 0.667878 1.93392 0
M  V30 3667 H 333.135 -0.579332 4.03866 0
M  V30 3668 H 331.81 0.570167 4.11973 0
M  V30 3669 H 330.387 -1.16762 3.54148 0
M  V30 3670 N 332.573 -1.56217 0.208337 0
M  V30 3671 C 333.503 -2.22694 -0.702116 0
M  V30 3672 C 334.484 -1.19432 -1.2112 0
M  V30 3673 O 335.669 -1.47978 -1.25762 0
M  V30 3674 C 332.799 -2.8966 -1.9161 0
M  V30 3675 C 331.753 -3.9928 -1.5414 0
M  V30 3676 C 331.079 -4.53476 -2.83308 0
M  V30 3677 C 332.379 -5.17012 -0.741339 0
M  V30 3678 H 334.073 -2.99034 -0.147898 0
M  V30 3679 H 331.619 -1.43831 -0.0696951 0
M  V30 3680 H 333.572 -3.34852 -2.55836 0
M  V30 3681 H 332.296 -2.10746 -2.49507 0
M  V30 3682 H 330.955 -3.54799 -0.922668 0
M  V30 3683 H 330.603 -3.71308 -3.39322 0
M  V30 3684 H 330.303 -5.27451 -2.58976 0
M  V30 3685 H 331.827 -5.01378 -3.485 0
M  V30 3686 H 333.241 -5.58667 -1.28699 0
M  V30 3687 H 331.638 -5.97137 -0.595627 0
M  V30 3688 H 332.708 -4.8423 0.254851 0
M  V30 3689 N 334.051 0.0651679 -1.57465 0
M  V30 3690 C 334.961 1.09448 -2.07505 0
M  V30 3691 C 335.977 1.41974 -1.00595 0
M  V30 3692 O 337.153 1.52018 -1.32107 0
M  V30 3693 C 334.218 2.38689 -2.51453 0
M  V30 3694 C 333.279 2.13073 -3.72691 0
M  V30 3695 C 332.512 3.36152 -4.14533 0
M  V30 3696 O 332.735 4.45517 -3.56189 0
M  V30 3697 O 331.669 3.23974 -5.07272 0
M  V30 3698 H 335.495 0.69935 -2.95538 0
M  V30 3699 H 333.08 0.279752 -1.46757 0
M  V30 3700 H 334.962 3.14736 -2.80212 0
M  V30 3701 H 333.637 2.77568 -1.66546 0
M  V30 3702 H 332.544 1.34709 -3.49005 0
M  V30 3703 H 333.877 1.79071 -4.5847 0
M  V30 3704 N 335.529 1.53961 0.336706 0
M  V30 3705 C 336.477 1.83136 1.43401 0
M  V30 3706 C 337.471 0.702313 1.54156 0
M  V30 3707 O 338.677 0.885765 1.56698 0
M  V30 3708 H 335.052 0.580309 0.478273 0
M  V30 3709 H 337.023 2.74925 1.16012 0
M  V30 3710 C 335.772 2.06385 2.79822 0
M  V30 3711 H 335.095 2.92718 2.72316 0
M  V30 3712 H 336.535 2.30761 3.55704 0
M  V30 3713 C 334.994 0.851414 3.25964 0
M  V30 3714 O 335.524 0.0541904 4.01663 0
M  V30 3715 N 333.73 0.66672 2.82848 0
M  V30 3716 H 333.277 1.31665 2.21409 0
M  V30 3717 H 333.235 -0.143032 3.14074 0
M  V30 3718 N 337.007 -0.598083 1.45811 0
M  V30 3719 C 338.254 -1.35681 1.50323 0
M  V30 3720 C 338.582 -1.9393 0.148739 0
M  V30 3721 O 337.837 -1.76094 -0.853787 0
M  V30 3722 C 338.136 -2.51669 2.53766 0
M  V30 3723 C 337.802 -2.11508 3.98215 0
M  V30 3724 C 336.464 -2.0027 4.37545 0
M  V30 3725 C 338.816 -1.80308 4.89018 0
M  V30 3726 C 336.144 -1.56067 5.65562 0
M  V30 3727 C 338.496 -1.37589 6.17456 0
M  V30 3728 C 337.16 -1.24916 6.55708 0
M  V30 3729 H 336.43 -0.496492 0.550069 0
M  V30 3730 H 339.077 -0.675052 1.79207 0
M  V30 3731 H 337.382 -3.25225 2.18486 0
M  V30 3732 H 339.079 -3.09895 2.54492 0
M  V30 3733 H 335.669 -2.21185 3.67117 0
M  V30 3734 H 339.853 -1.87884 4.59362 0
M  V30 3735 H 335.109 -1.44886 5.93985 0
M  V30 3736 H 339.283 -1.12495 6.87254 0
M  V30 3737 H 336.91 -0.904386 7.54801 0
M  V30 3738 N 338.485 -1.33259 -0.841409 0
M  V30 3739 C 339.901 -1.12538 -1.13169 0
M  V30 3740 C 340.101 0.0854037 -2.01319 0
M  V30 3741 O 339.157 0.766417 -2.40587 0
M  V30 3742 C 340.47 -2.41156 -1.79623 0
M  V30 3743 C 342.018 -2.47038 -1.922 0
M  V30 3744 C 342.493 -3.7561 -2.6207 0
M  V30 3745 N 343.984 -3.76667 -2.69585 0
M  V30 3746 C 344.719 -4.72861 -3.2433 0
M  V30 3747 N 344.215 -5.79428 -3.79783 0
M  V30 3748 N 346.008 -4.6034 -3.22558 0
M  V30 3749 H 338.159 -2.10868 -0.254676 0
M  V30 3750 H 340.422 -0.931615 -0.175493 0
M  V30 3751 H 340.128 -3.29747 -1.22311 0
M  V30 3752 H 340.002 -2.53114 -2.79666 0
M  V30 3753 H 342.389 -1.58898 -2.48667 0
M  V30 3754 H 342.47 -2.39022 -0.911148 0
M  V30 3755 H 342.114 -4.64131 -2.06263 0
M  V30 3756 H 342.044 -3.80902 -3.63622 0
M  V30 3757 H 344.535 -2.99648 -2.30259 0
M  V30 3758 H 344.848 -6.48867 -4.19752 0
M  V30 3759 H 343.193 -5.83166 -3.78078 0
M  V30 3760 H 346.384 -3.76244 -2.78492 0
M  V30 3761 H 346.557 -5.35478 -3.64921 0
M  V30 3762 N 339.963 1.05934 -1.16686 0
M  V30 3763 C 340.926 2.11669 -0.879144 0
M  V30 3764 C 341.926 1.60294 0.127445 0
M  V30 3765 O 343.116 1.7389 -0.103865 0
M  V30 3766 C 340.248 3.39438 -0.315425 0
M  V30 3767 H 341.441 2.38626 -1.81653 0
M  V30 3768 H 338.994 1.22058 -0.976299 0
M  V30 3769 H 339.729 3.18132 0.629468 0
M  V30 3770 H 339.514 3.78034 -1.04079 0
M  V30 3771 H 341.004 4.17391 -0.132189 0
M  V30 3772 N 341.441 0.965919 1.2453 0
M  V30 3773 C 342.671 0.643451 1.96324 0
M  V30 3774 C 343.079 -0.790927 1.71875 0
M  V30 3775 O 342.422 -1.54208 0.998273 0
M  V30 3776 C 342.484 0.836078 3.49643 0
M  V30 3777 C 342.148 2.24975 3.97788 0
M  V30 3778 C 343.145 3.22735 4.07601 0
M  V30 3779 C 340.83 2.57697 4.31158 0
M  V30 3780 C 342.824 4.51303 4.50116 0
M  V30 3781 C 340.511 3.86492 4.73357 0
M  V30 3782 C 341.509 4.83107 4.828 0
M  V30 3783 O 341.197 6.09605 5.24058 0
M  V30 3784 H 340.929 0.239223 0.632257 0
M  V30 3785 H 343.483 1.29587 1.59362 0
M  V30 3786 H 341.713 0.12649 3.86493 0
M  V30 3787 H 343.402 0.512965 4.02646 0
M  V30 3788 H 344.168 2.98783 3.82039 0
M  V30 3789 H 340.047 1.83216 4.23028 0
M  V30 3790 H 343.591 5.26716 4.57401 0
M  V30 3791 H 339.488 4.10245 4.98366 0
M  V30 3792 H 340.256 6.13146 5.42213 0
M  V30 3793 N 342.919 -1.39368 0.735821 0
M  V30 3794 C 344.165 -2.00794 0.284544 0
M  V30 3795 C 344.498 -1.58255 -1.12557 0
M  V30 3796 O 343.773 -0.811819 -1.76748 0
M  V30 3797 C 344.056 -3.58011 0.387337 0
M  V30 3798 C 343.909 -4.10566 1.83728 0
M  V30 3799 C 345.228 -4.395 -0.22975 0
M  V30 3800 H 342.347 -0.729501 0.104866 0
M  V30 3801 H 344.989 -1.65564 0.93213 0
M  V30 3802 H 343.139 -3.88154 -0.164006 0
M  V30 3803 H 344.811 -3.91139 2.44556 0
M  V30 3804 H 343.054 -3.64095 2.35833 0
M  V30 3805 H 343.725 -5.19702 1.86047 0
M  V30 3806 H 346.201 -4.15406 0.240257 0
M  V30 3807 H 345.077 -5.48752 -0.127485 0
M  V30 3808 H 345.338 -4.22062 -1.3159 0
M  V30 3809 N 344.397 -0.483516 -1.5 0
M  V30 3810 C 345.674 0.129337 -1.95172 0
M  V30 3811 C 346.054 1.55802 -1.4244 0
M  V30 3812 O 345.402 2.19625 -0.630649 0
M  V30 3813 C 345.612 0.0599251 -3.48949 0
M  V30 3814 C 346.96 0.242617 -4.23906 0
M  V30 3815 O 347.984 0.135933 -3.55941 0
M  V30 3816 O 346.843 0.459454 -5.44565 0
M  V30 3817 H 343.937 0.104887 -0.820322 0
M  V30 3818 H 346.483 -0.544807 -1.60717 0
M  V30 3819 H 345.255 -0.937079 -3.79914 0
M  V30 3820 H 344.878 0.774984 -3.89974 0
M  V30 3821 N 345.875 1.56104 -0.216619 0
M  V30 3822 C 347.123 1.97781 0.415593 0
M  V30 3823 C 347.444 1.10536 1.60645 0
M  V30 3824 O 346.714 0.181303 1.95059 0
M  V30 3825 H 345.294 0.730415 0.156534 0
M  V30 3826 H 347.956 1.92445 -0.308366 0
M  V30 3827 H 347.052 3.03072 0.74525 0
M  V30 3828 N 347.353 -0.0568162 1.57498 0
M  V30 3829 C 348.6 -0.753104 1.87975 0
M  V30 3830 C 348.928 -1.76815 0.81035 0
M  V30 3831 O 348.183 -1.94756 -0.19199 0
M  V30 3832 C 348.482 -1.48359 3.25153 0
M  V30 3833 C 348.148 -0.60713 4.46794 0
M  V30 3834 C 346.81 -0.365642 4.79809 0
M  V30 3835 C 349.162 -0.000305978 5.212 0
M  V30 3836 C 346.49 0.491905 5.84634 0
M  V30 3837 C 348.842 0.844781 6.26934 0
M  V30 3838 C 347.506 1.096 6.58441 0
M  V30 3839 H 346.776 -0.27558 0.687849 0
M  V30 3840 H 349.423 -0.0135173 1.91495 0
M  V30 3841 H 347.728 -2.29577 3.17492 0
M  V30 3842 H 349.425 -2.02739 3.45974 0
M  V30 3843 H 346.015 -0.805487 4.20963 0
M  V30 3844 H 350.199 -0.173961 4.95995 0
M  V30 3845 H 345.455 0.695131 6.07436 0
M  V30 3846 H 349.629 1.32165 6.83744 0
M  V30 3847 H 347.256 1.76224 7.39492 0
M  V30 3848 N 348.832 -1.54138 -0.328536 0
M  V30 3849 C 349.742 -1.86192 -1.42723 0
M  V30 3850 C 350.758 -0.753382 -1.56844 0
M  V30 3851 O 351.934 -1.04718 -1.72035 0
M  V30 3852 C 348.999 -2.07824 -2.77507 0
M  V30 3853 C 348.06 -3.31641 -2.72603 0
M  V30 3854 C 347.293 -3.52232 -4.00959 0
M  V30 3855 O 347.516 -2.7636 -4.9898 0
M  V30 3856 O 346.45 -4.45699 -4.0452 0
M  V30 3857 H 350.276 -2.79608 -1.18547 0
M  V30 3858 H 347.861 -1.3998 -0.522104 0
M  V30 3859 H 349.743 -2.23411 -3.57303 0
M  V30 3860 H 348.418 -1.17596 -3.01584 0
M  V30 3861 H 347.325 -3.21444 -1.91376 0
M  V30 3862 H 348.658 -4.2191 -2.53481 0
M  V30 3863 N 350.31 0.590341 -1.46126 0
M  V30 3864 C 351.721 1.17243 -1.45296 0
M  V30 3865 C 352.072 1.95281 -0.189723 0
M  V30 3866 O 351.197 2.04502 0.707674 0
M  V30 3867 C 351.792 2.13284 -2.6324 0
M  V30 3868 C 350.351 2.66832 -2.65476 0
M  V30 3869 C 349.498 1.42557 -2.3785 0
M  V30 3870 H 352.449 0.378692 -1.54116 0
M  V30 3871 H 352.47 2.96619 -2.38323 0
M  V30 3872 H 351.982 1.56459 -3.55165 0
M  V30 3873 H 350.083 3.27548 -1.77603 0
M  V30 3874 H 350.196 3.10088 -3.65215 0
M  V30 3875 H 348.56 1.72107 -1.87753 0
M  V30 3876 H 349.343 0.875741 -3.31942 0
M  V30 3877 N 351.788 1.33704 0.83433 0
M  V30 3878 C 352.736 1.24323 1.96587 0
M  V30 3879 C 353.73 0.143659 1.6879 0
M  V30 3880 O 354.936 0.30791 1.77347 0
M  V30 3881 H 351.311 0.385925 0.645419 0
M  V30 3882 H 353.282 2.19978 2.01624 0
M  V30 3883 C 352.031 1.00394 3.32891 0
M  V30 3884 H 351.354 1.84231 3.54822 0
M  V30 3885 H 352.794 0.97862 4.12552 0
M  V30 3886 C 351.253 -0.293047 3.35623 0
M  V30 3887 O 351.783 -1.29823 3.80143 0
M  V30 3888 N 349.989 -0.322174 2.88809 0
M  V30 3889 H 349.536 0.496379 2.52772 0
M  V30 3890 H 349.494 -1.18977 2.91019 0
M  V30 3891 N 353.266 -1.05314 1.17247 0
M  V30 3892 C 354.514 -1.77941 0.958194 0
M  V30 3893 C 354.835 -1.88089 -0.514556 0
M  V30 3894 O 354.105 -1.39676 -1.37359 0
M  V30 3895 H 352.685 -0.659116 0.351533 0
M  V30 3896 H 355.347 -1.27166 1.47699 0
M  V30 3897 H 354.443 -2.79663 1.38546 0
M  V30 3898 N 354.744 -0.972509 -1.24016 0
M  V30 3899 C 355.974 -0.653853 -1.9598 0
M  V30 3900 C 356.382 0.781801 -1.72292 0
M  V30 3901 O 355.725 1.53677 -1.00644 0
M  V30 3902 C 355.787 -0.854608 -3.49194 0
M  V30 3903 C 355.451 -2.27082 -3.96589 0
M  V30 3904 C 356.448 -3.24892 -4.05883 0
M  V30 3905 C 354.133 -2.5998 -4.29786 0
M  V30 3906 C 356.127 -4.53684 -4.47716 0
M  V30 3907 C 353.814 -3.88997 -4.71301 0
M  V30 3908 C 354.812 -4.85661 -4.80232 0
M  V30 3909 O 354.5 -6.12376 -5.20818 0
M  V30 3910 H 354.232 -0.242572 -0.630979 0
M  V30 3911 H 356.786 -1.30431 -1.58673 0
M  V30 3912 H 355.016 -0.146985 -3.86421 0
M  V30 3913 H 356.705 -0.534311 -4.02368 0
M  V30 3914 H 357.471 -3.00805 -3.80449 0
M  V30 3915 H 353.35 -1.85457 -4.22051 0
M  V30 3916 H 356.894 -5.29135 -4.54601 0
M  V30 3917 H 352.791 -4.12882 -4.96184 0
M  V30 3918 H 353.559 -6.16013 -5.38953 0
M  V30 3919 N 356.222 1.38976 -0.743202 0
M  V30 3920 C 357.471 1.99581 -0.291592 0
M  V30 3921 C 357.784 1.59656 1.13001 0
M  V30 3922 O 358.99 2.13157 1.68156 0
M  V30 3923 C 357.446 3.56813 -0.470391 0
M  V30 3924 C 357.054 4.05695 -1.90041 0
M  V30 3925 C 358.798 4.24423 -0.0809709 0
M  V30 3926 C 356.705 5.5553 -2.02832 0
M  V30 3927 H 355.635 0.746615 -0.105272 0
M  V30 3928 H 358.286 1.58872 -0.918258 0
M  V30 3929 H 356.668 3.95359 0.225299 0
M  V30 3930 H 357.842 3.78464 -2.62872 0
M  V30 3931 H 356.157 3.50775 -2.24379 0
M  V30 3932 H 358.754 5.34474 -0.155445 0
M  V30 3933 H 359.097 4.04962 0.96497 0
M  V30 3934 H 359.63 3.9108 -0.728124 0
M  V30 3935 H 356.369 5.79881 -3.05643 0
M  V30 3936 H 355.889 5.84537 -1.34448 0
M  V30 3937 H 357.568 6.21069 -1.81335 0
M  V30 3938 N 357.7 0.491464 1.49741 0
M  V30 3939 C 358.61 -0.296835 2.32715 0
M  V30 3940 C 359.626 -0.976536 1.44013 0
M  V30 3941 O 360.802 -0.960023 1.77047 0
M  V30 3942 C 357.867 -1.35288 3.19215 0
M  V30 3943 C 356.928 -0.687632 4.23757 0
M  V30 3944 C 356.161 -1.69336 5.06123 0
M  V30 3945 O 356.384 -2.92219 4.89861 0
M  V30 3946 O 355.318 -1.25394 5.88693 0
M  V30 3947 H 359.144 0.382048 3.01287 0
M  V30 3948 H 356.729 0.252953 1.47243 0
M  V30 3949 H 358.611 -1.96411 3.72828 0
M  V30 3950 H 357.286 -2.01487 2.53347 0
M  V30 3951 H 356.193 -0.0369159 3.74082 0
M  V30 3952 H 357.526 -0.0682566 4.92153 0
M  V30 3953 N 359.178 -1.55987 0.224894 0
M  V30 3954 C 360.426 -1.97998 -0.405099 0
M  V30 3955 C 360.747 -1.11387 -1.60056 0
M  V30 3956 O 360.017 -0.191645 -1.9496 0
M  V30 3957 H 358.597 -0.731235 -0.152658 0
M  V30 3958 H 361.259 -1.92279 0.318567 0
M  V30 3959 H 360.355 -3.03463 -0.729167 0
M  V30 3960 N 360.656 0.0484629 -1.57525 0
M  V30 3961 C 361.603 1.05504 -2.05275 0
M  V30 3962 C 362.573 1.37084 -0.937927 0
M  V30 3963 O 363.758 1.47754 -1.2072 0
M  V30 3964 C 360.898 2.35676 -2.52093 0
M  V30 3965 C 360.011 2.10423 -3.77288 0
M  V30 3966 C 359.146 3.34327 -4.12794 0
M  V30 3967 C 358.185 3.04542 -5.30962 0
M  V30 3968 N 357.322 4.20841 -5.61994 0
M  V30 3969 H 362.162 0.640885 -2.91027 0
M  V30 3970 H 359.699 0.304854 -1.43906 0
M  V30 3971 H 361.657 3.11709 -2.77297 0
M  V30 3972 H 360.287 2.7485 -1.69285 0
M  V30 3973 H 359.339 1.24976 -3.59284 0
M  V30 3974 H 360.651 1.84438 -4.63448 0
M  V30 3975 H 359.805 4.1874 -4.39024 0
M  V30 3976 H 358.544 3.63408 -3.25247 0
M  V30 3977 H 357.549 2.18528 -5.04505 0
M  V30 3978 H 358.774 2.76758 -6.20146 0
M  V30 3979 H 356.72 4.4991 -4.77406 0
M  V30 3980 H 356.637 3.98212 -6.42622 0
M  V30 3981 H 357.905 5.06184 -5.92789 0
M  V30 3982 N 362.134 1.5431 0.320358 0
M  V30 3983 C 363.064 1.86912 1.3995 0
M  V30 3984 C 364.045 0.726211 1.53819 0
M  V30 3985 O 365.23 0.980233 1.67646 0
M  V30 3986 C 362.36 2.09932 2.7667 0
M  V30 3987 C 361.314 3.25776 2.77586 0
M  V30 3988 C 360.64 3.34173 4.17412 0
M  V30 3989 C 361.94 4.6335 2.41048 0
M  V30 3990 H 363.634 2.77292 1.12914 0
M  V30 3991 H 361.18 1.33421 0.541738 0
M  V30 3992 H 363.133 2.31324 3.52232 0
M  V30 3993 H 361.857 1.16304 3.0519 0
M  V30 3994 H 360.516 3.04276 2.04479 0
M  V30 3995 H 360.164 2.38098 4.43078 0
M  V30 3996 H 359.864 4.12033 4.18931 0
M  V30 3997 H 361.388 3.57803 4.94782 0
M  V30 3998 H 362.802 4.84602 3.06324 0
M  V30 3999 H 361.199 5.43782 2.53813 0
M  V30 4000 H 362.269 4.65381 1.36193 0
M  V30 4001 N 363.613 -0.582584 1.46437 0
M  V30 4002 C 364.838 -1.37168 1.55563 0
M  V30 4003 C 365.263 -1.87061 0.19743 0
M  V30 4004 O 364.621 -1.61572 -0.822451 0
M  V30 4005 C 364.669 -2.53511 2.56446 0
M  V30 4006 O 363.773 -3.54953 2.09958 0
M  V30 4007 H 363.114 -0.408494 0.523477 0
M  V30 4008 H 365.644 -0.706646 1.9201 0
M  V30 4009 H 365.654 -3.00426 2.76058 0
M  V30 4010 H 364.329 -2.16549 3.55076 0
M  V30 4011 H 362.906 -3.14516 2.00334 0
M  V30 4012 N 365.091 -1.34144 -0.827227 0
M  V30 4013 C 366.023 -1.21206 -1.9453 0
M  V30 4014 C 367.036 -0.140176 -1.62195 0
M  V30 4015 O 368.225 -0.391647 -1.7415 0
M  V30 4016 C 365.325 -0.839141 -3.28347 0
M  V30 4017 C 364.498 -2.0051 -3.88734 0
M  V30 4018 C 363.557 -1.61128 -5.00923 0
M  V30 4019 O 362.583 -2.32726 -5.19449 0
M  V30 4020 N 363.785 -0.522958 -5.7814 0
M  V30 4021 H 366.55 -2.17525 -2.06162 0
M  V30 4022 H 364.111 -1.27043 -1.00358 0
M  V30 4023 H 366.103 -0.557556 -4.00841 0
M  V30 4024 H 364.673 0.0337293 -3.12582 0
M  V30 4025 H 363.893 -2.45166 -3.08686 0
M  V30 4026 H 365.181 -2.78498 -4.25812 0
M  V30 4027 H 364.579 0.0723518 -5.65654 0
M  V30 4028 H 363.136 -0.301089 -6.51104 0
M  V30 4029 N 366.569 1.04691 -1.17803 0
M  V30 4030 C 367.502 2.12068 -0.842765 0
M  V30 4031 C 368.48 1.61455 0.192608 0
M  V30 4032 O 369.664 1.88359 0.072995 0
M  V30 4033 C 366.791 3.37715 -0.258063 0
M  V30 4034 C 365.837 4.07164 -1.26962 0
M  V30 4035 S 366.67 4.55047 -2.82299 0
M  V30 4036 C 367.826 5.83935 -2.25323 0
M  V30 4037 H 368.059 2.4018 -1.75217 0
M  V30 4038 H 365.592 1.17366 -1.00323 0
M  V30 4039 H 367.55 4.10435 0.0727935 0
M  V30 4040 H 366.211 3.0773 0.629357 0
M  V30 4041 H 365.404 4.9746 -0.809263 0
M  V30 4042 H 365.006 3.40533 -1.54639 0
M  V30 4043 H 367.298 6.57552 -1.63192 0
M  V30 4044 H 368.241 6.34725 -3.13894 0
M  V30 4045 H 368.649 5.3874 -1.68582 0
M  V30 4046 N 368.047 0.979072 1.23499 0
M  V30 4047 C 369.272 0.664845 1.96455 0
M  V30 4048 C 369.697 -0.761287 1.72006 0
M  V30 4049 O 369.055 -1.51837 0.990713 0
M  V30 4050 C 369.103 0.959479 3.47601 0
M  V30 4051 O 368.207 0.0508168 4.12369 0
M  V30 4052 H 367.548 0.250185 0.615064 0
M  V30 4053 H 370.078 1.31231 1.5697 0
M  V30 4054 H 370.088 0.895642 3.98048 0
M  V30 4055 H 368.763 1.99876 3.64723 0
M  V30 4056 H 367.34 0.16895 3.72517 0
M  V30 4057 N 369.525 -1.3858 0.750561 0
M  V30 4058 C 370.472 -2.30483 0.120835 0
M  V30 4059 C 371.442 -1.50022 -0.712923 0
M  V30 4060 O 372.627 -1.78662 -0.669676 0
M  V30 4061 C 369.767 -3.36431 -0.768666 0
M  V30 4062 C 368.88 -4.31927 0.0793922 0
M  V30 4063 C 368.015 -5.24944 -0.81283 0
M  V30 4064 C 367.054 -6.12088 0.0390447 0
M  V30 4065 N 366.191 -6.97412 -0.809969 0
M  V30 4066 H 371.031 -2.83761 0.91015 0
M  V30 4067 H 368.568 -1.39707 0.460463 0
M  V30 4068 H 370.526 -3.96462 -1.29898 0
M  V30 4069 H 369.156 -2.8457 -1.5238 0
M  V30 4070 H 368.208 -3.73382 0.727303 0
M  V30 4071 H 369.52 -4.93319 0.737401 0
M  V30 4072 H 368.674 -5.90078 -1.41042 0
M  V30 4073 H 367.413 -4.63911 -1.50458 0
M  V30 4074 H 366.418 -5.45952 0.649328 0
M  V30 4075 H 367.643 -6.75189 0.727809 0
M  V30 4076 H 365.589 -6.38931 -1.48672 0
M  V30 4077 H 365.506 -7.55712 -0.208789 0
M  V30 4078 H 366.774 -7.66959 -1.39263 0
M  V30 4079 N 371.003 -0.499398 -1.49478 0
M  V30 4080 C 371.913 0.284489 -2.32869 0
M  V30 4081 C 372.929 0.968885 -1.44529 0
M  V30 4082 O 374.105 0.95062 -1.77553 0
M  V30 4083 C 371.17 1.33594 -3.19928 0
M  V30 4084 C 370.231 0.665149 -4.24116 0
M  V30 4085 C 369.464 1.6665 -5.07014 0
M  V30 4086 O 369.687 2.89618 -4.91404 0
M  V30 4087 O 368.621 1.22271 -5.8935 0
M  V30 4088 H 372.447 -0.39802 -3.01081 0
M  V30 4089 H 370.032 -0.260758 -1.47107 0
M  V30 4090 H 371.914 1.94431 -3.73864 0
M  V30 4091 H 370.589 2.0014 -2.54412 0
M  V30 4092 H 369.496 0.0170769 -3.74096 0
M  V30 4093 H 370.829 0.0421555 -4.92182 0
M  V30 4094 N 372.481 1.55866 -0.233164 0
M  V30 4095 C 373.727 1.98897 0.395959 0
M  V30 4096 C 374.06 1.12091 1.58585 0
M  V30 4097 O 373.335 0.181182 1.93654 0
M  V30 4098 C 373.618 3.50658 0.819224 0
M  V30 4099 C 373.471 4.48233 -0.375109 0
M  V30 4100 C 374.79 4.07135 1.67121 0
M  V30 4101 H 371.909 0.723102 0.142451 0
M  V30 4102 H 374.551 1.87082 -0.331725 0
M  V30 4103 H 372.701 3.60857 1.43925 0
M  V30 4104 H 374.373 4.50031 -1.01341 0
M  V30 4105 H 372.616 4.21624 -1.02058 0
M  V30 4106 H 373.287 5.51988 -0.0358328 0
M  V30 4107 H 375.763 3.99952 1.14795 0
M  V30 4108 H 374.639 5.13615 1.93625 0
M  V30 4109 H 374.9 3.54736 2.63846 0
M  V30 4110 N 373.959 -0.0401083 1.57549 0
M  V30 4111 C 374.907 -1.06264 2.06908 0
M  V30 4112 C 375.901 -1.38132 0.980608 0
M  V30 4113 O 377.107 -1.37167 1.16556 0
M  V30 4114 H 373.482 -0.360166 0.660139 0
M  V30 4115 H 375.453 -0.620445 2.91878 0
M  V30 4116 C 374.202 -2.35846 2.55483 0
M  V30 4117 H 373.525 -2.12183 3.38849 0
M  V30 4118 H 374.965 -3.05765 2.93741 0
M  V30 4119 C 373.424 -3.0404 1.45126 0
M  V30 4120 O 373.954 -3.93424 0.811216 0
M  V30 4121 N 372.16 -2.65184 1.18852 0
M  V30 4122 H 371.707 -1.92584 1.71083 0
M  V30 4123 H 371.665 -3.1113 0.452244 0
M  V30 4124 N 375.437 -1.54477 -0.31217 0
M  V30 4125 C 376.4 -1.83923 -1.36766 0
M  V30 4126 C 377.4 -0.711563 -1.44199 0
M  V30 4127 O 378.59 -0.979866 -1.44029 0
M  V30 4128 C 375.722 -2.0095 -2.75376 0
M  V30 4129 H 376.915 -2.78239 -1.11906 0
M  V30 4130 H 374.468 -1.46369 -0.548257 0
M  V30 4131 H 375.203 -1.08883 -3.05475 0
M  V30 4132 H 374.988 -2.83018 -2.71373 0
M  V30 4133 H 376.478 -2.2514 -3.51713 0
M  V30 4134 N 376.915 0.57481 -1.46744 0
M  V30 4135 C 378.331 0.898981 -1.31873 0
M  V30 4136 C 378.531 1.99313 -0.29605 0
M  V30 4137 O 377.587 2.50728 0.298621 0
M  V30 4138 C 378.9 1.30886 -2.7072 0
M  V30 4139 C 380.448 1.42127 -2.78871 0
M  V30 4140 C 380.923 1.86478 -4.18318 0
M  V30 4141 N 382.414 1.93658 -4.20774 0
M  V30 4142 C 383.149 2.29267 -5.2557 0
M  V30 4143 N 382.645 2.63612 -6.40688 0
M  V30 4144 N 384.438 2.29889 -5.1294 0
M  V30 4145 H 376.589 -0.147839 -2.11885 0
M  V30 4146 H 378.852 -0.00347013 -0.947994 0
M  V30 4147 H 378.558 0.578853 -3.46904 0
M  V30 4148 H 378.432 2.26874 -3.01343 0
M  V30 4149 H 380.819 2.14213 -2.0297 0
M  V30 4150 H 380.9 0.443705 -2.51922 0
M  V30 4151 H 380.544 1.14968 -4.94717 0
M  V30 4152 H 380.474 2.85207 -4.42679 0
M  V30 4153 H 382.965 1.69574 -3.37718 0
M  V30 4154 H 383.278 2.89759 -7.16421 0
M  V30 4155 H 381.623 2.61232 -6.44036 0
M  V30 4156 H 384.814 2.02485 -4.22039 0
M  V30 4157 H 384.987 2.57312 -5.94722 0
M  V30 4158 N 378.394 1.34581 0.820102 0
M  V30 4159 C 379.643 1.26437 1.57151 0
M  V30 4160 C 379.956 -0.163111 1.94919 0
M  V30 4161 O 381.162 -0.366722 2.69012 0
M  V30 4162 C 379.618 2.21658 2.83541 0
M  V30 4163 C 379.226 3.69679 2.53065 0
M  V30 4164 C 380.97 2.22428 3.61561 0
M  V30 4165 C 378.877 4.56761 3.75664 0
M  V30 4166 H 377.807 0.469707 0.589823 0
M  V30 4167 H 380.458 1.59763 0.902656 0
M  V30 4168 H 378.84 1.81287 3.52067 0
M  V30 4169 H 380.014 4.18605 1.92631 0
M  V30 4170 H 378.329 3.71384 1.88316 0
M  V30 4171 H 380.926 2.8471 4.52597 0
M  V30 4172 H 381.269 1.22434 3.97889 0
M  V30 4173 H 381.802 2.61259 2.99981 0
M  V30 4174 H 378.541 5.57702 3.44454 0
M  V30 4175 H 378.061 4.12568 4.35371 0
M  V30 4176 H 379.74 4.71509 4.43044 0
M  V30 4177 N 379.872 -1.04064 1.18357 0
M  V30 4178 C 380.782 -2.15569 0.925596 0
M  V30 4179 C 381.798 -1.7365 -0.110295 0
M  V30 4180 O 382.974 -2.01273 0.0716218 0
M  V30 4181 C 380.039 -3.43704 0.454836 0
M  V30 4182 C 379.1 -4.00004 1.55869 0
M  V30 4183 C 378.333 -5.22023 1.1103 0
M  V30 4184 O 378.556 -5.70392 -0.0309756 0
M  V30 4185 O 377.49 -5.70856 1.90805 0
M  V30 4186 H 381.316 -2.40187 1.8586 0
M  V30 4187 H 378.901 -1.1402 0.965394 0
M  V30 4188 H 380.783 -4.20923 0.200382 0
M  V30 4189 H 379.458 -3.20559 -0.449876 0
M  V30 4190 H 378.365 -3.24172 1.86716 0
M  V30 4191 H 379.698 -4.2749 2.43953 0
M  V30 4192 N 381.35 -0.985608 -1.22978 0
M  V30 4193 C 382.761 -0.693593 -1.73338 0
M  V30 4194 C 383.112 0.789935 -1.79595 0
M  V30 4195 O 382.237 1.61771 -1.43733 0
M  V30 4196 C 382.832 -1.25235 -3.14804 0
M  V30 4197 C 381.391 -1.00987 -3.626 0
M  V30 4198 C 380.538 -1.37695 -2.40698 0
M  V30 4199 H 383.489 -1.15884 -1.08428 0
M  V30 4200 H 383.51 -0.627329 -3.75293 0
M  V30 4201 H 383.022 -2.33209 -3.10218 0
M  V30 4202 H 381.123 0.0535565 -3.72562 0
M  V30 4203 H 381.236 -1.66812 -4.49122 0
M  V30 4204 H 379.6 -0.795459 -2.4196 0
M  V30 4205 H 380.383 -2.46657 -2.38779 0
M  V30 4206 N 382.828 1.3818 -0.7579 0
M  V30 4207 C 384.075 2.00019 -0.315985 0
M  V30 4208 C 384.403 1.60163 1.10355 0
M  V30 4209 O 383.658 0.83264 1.77103 0
M  V30 4210 C 383.957 3.55252 -0.391218 0
M  V30 4211 C 383.623 4.14834 -1.76702 0
M  V30 4212 C 382.285 4.30821 -2.14353 0
M  V30 4213 C 384.637 4.47658 -2.66931 0
M  V30 4214 C 381.965 4.76928 -3.41696 0
M  V30 4215 C 384.317 4.95184 -3.93669 0
M  V30 4216 C 382.981 5.09377 -4.31383 0
M  V30 4217 H 382.251 0.731923 -0.115627 0
M  V30 4218 H 384.898 1.65161 -0.969223 0
M  V30 4219 H 383.203 3.90273 0.34558 0
M  V30 4220 H 384.9 4.00988 -0.030805 0
M  V30 4221 H 381.49 4.02808 -1.46435 0
M  V30 4222 H 385.674 4.34904 -2.39106 0
M  V30 4223 H 380.93 4.86103 -3.70829 0
M  V30 4224 H 385.104 5.19551 -4.63724 0
M  V30 4225 H 382.731 5.44865 -5.30119 0
M  V30 4226 N 384.306 0.507319 1.49211 0
M  V30 4227 C 385.236 -0.256939 2.32082 0
M  V30 4228 C 386.217 -0.956609 1.40652 0
M  V30 4229 O 387.402 -0.946788 1.69557 0
M  V30 4230 C 384.532 -1.31802 3.21318 0
M  V30 4231 C 383.486 -0.737855 4.21592 0
M  V30 4232 C 382.812 -1.89992 4.99807 0
M  V30 4233 C 384.112 0.275325 5.21574 0
M  V30 4234 H 385.806 0.434798 2.96226 0
M  V30 4235 H 383.352 0.210546 1.42452 0
M  V30 4236 H 385.305 -1.86045 3.78107 0
M  V30 4237 H 384.029 -2.03903 2.5513 0
M  V30 4238 H 382.688 -0.217126 3.65956 0
M  V30 4239 H 382.336 -2.60877 4.30061 0
M  V30 4240 H 382.036 -1.51777 5.6766 0
M  V30 4241 H 383.56 -2.44657 5.59442 0
M  V30 4242 H 384.974 -0.179193 5.7302 0
M  V30 4243 H 383.371 0.573649 5.97352 0
M  V30 4244 H 384.441 1.18903 4.70096 0
M  V30 4245 N 385.784 -1.5574 0.241426 0
M  V30 4246 C 386.731 -2.21149 -0.660432 0
M  V30 4247 C 387.701 -1.17356 -1.17545 0
M  V30 4248 O 388.886 -1.45784 -1.23093 0
M  V30 4249 C 386.026 -2.91059 -1.85414 0
M  V30 4250 C 385.139 -4.09495 -1.37616 0
M  V30 4251 C 384.274 -4.67135 -2.529 0
M  V30 4252 C 383.313 -5.77831 -2.01936 0
M  V30 4253 N 382.45 -6.29677 -3.10566 0
M  V30 4254 H 387.29 -2.97845 -0.095955 0
M  V30 4255 H 384.827 -1.47057 -0.0356024 0
M  V30 4256 H 386.785 -3.29788 -2.5553 0
M  V30 4257 H 385.415 -2.16846 -2.39118 0
M  V30 4258 H 384.467 -3.76117 -0.569235 0
M  V30 4259 H 385.779 -4.89423 -0.962618 0
M  V30 4260 H 384.933 -5.08409 -3.31067 0
M  V30 4261 H 383.672 -3.86411 -2.97553 0
M  V30 4262 H 382.677 -5.36039 -1.22238 0
M  V30 4263 H 383.902 -6.60402 -1.58259 0
M  V30 4264 H 381.848 -5.5186 -3.54664 0
M  V30 4265 H 381.765 -7.04783 -2.73526 0
M  V30 4266 H 383.033 -6.75609 -3.88809 0
M  V30 4267 N 387.262 0.0317525 -1.57568 0
M  V30 4268 C 388.49 0.734949 -1.93407 0
M  V30 4269 C 388.905 1.69036 -0.84096 0
M  V30 4270 O 388.262 1.81582 0.182836 0
M  V30 4271 C 388.313 1.49432 -3.29169 0
M  V30 4272 O 388.034 0.577261 -4.3428 0
M  V30 4273 C 389.535 2.29492 -3.79273 0
M  V30 4274 H 386.755 0.206706 -0.638368 0
M  V30 4275 H 389.299 -0.00992046 -2.04498 0
M  V30 4276 H 387.454 2.1911 -3.19483 0
M  V30 4277 H 387.868 1.10952 -5.1263 0
M  V30 4278 H 389.342 2.78172 -4.76785 0
M  V30 4279 H 389.819 3.10794 -3.10328 0
M  V30 4280 H 390.425 1.64894 -3.92033 0
M  V30 4281 N 388.74 1.54641 0.303973 0
M  V30 4282 C 389.968 1.77768 1.05858 0
M  V30 4283 C 390.383 0.535722 1.8104 0
M  V30 4284 O 389.74 -0.494337 1.75677 0
M  V30 4285 C 389.791 2.9834 2.04146 0
M  V30 4286 O 389.512 4.17736 1.32015 0
M  V30 4287 C 391.013 3.33832 2.91669 0
M  V30 4288 H 388.233 0.592961 0.314067 0
M  V30 4289 H 390.777 2.01583 0.344149 0
M  V30 4290 H 388.932 2.76742 2.71096 0
M  V30 4291 H 389.346 4.85693 1.97998 0
M  V30 4292 H 390.82 4.21448 3.56491 0
M  V30 4293 H 391.297 2.51857 3.59812 0
M  V30 4294 H 391.903 3.57579 2.30254 0
M  V30 4295 N 390.218 -0.567019 1.47046 0
M  V30 4296 C 391.629 -1.14916 1.47143 0
M  V30 4297 C 391.98 -1.94954 0.220767 0
M  V30 4298 O 391.105 -2.05602 -0.67505 0
M  V30 4299 C 391.7 -2.09069 2.666 0
M  V30 4300 C 390.259 -2.62575 2.69687 0
M  V30 4301 C 389.406 -1.38755 2.40088 0
M  V30 4302 H 392.357 -0.354126 1.54699 0
M  V30 4303 H 392.378 -2.92789 2.43011 0
M  V30 4304 H 391.89 -1.50789 3.57609 0
M  V30 4305 H 389.991 -3.24681 1.82792 0
M  V30 4306 H 390.104 -3.04239 3.70102 0
M  V30 4307 H 388.468 -1.69098 1.90468 0
M  V30 4308 H 389.251 -0.822822 3.33293 0
M  V30 4309 N 391.696 -1.35014 -0.812953 0
M  V30 4310 C 393.112 -1.14914 -1.10757 0
M  V30 4311 C 393.312 0.0426818 -2.01455 0
M  V30 4312 O 392.368 0.715212 -2.42159 0
M  V30 4313 C 393.681 -2.44911 -1.74468 0
M  V30 4314 C 395.229 -2.5106 -1.86917 0
M  V30 4315 C 395.704 -3.81085 -2.54044 0
M  V30 4316 N 397.195 -3.82301 -2.61535 0
M  V30 4317 C 397.93 -4.79634 -3.14227 0
M  V30 4318 N 397.426 -5.87353 -3.67407 0
M  V30 4319 N 399.219 -4.67078 -3.12721 0
M  V30 4320 H 391.37 -2.1136 -0.20989 0
M  V30 4321 H 393.633 -0.935128 -0.155692 0
M  V30 4322 H 393.339 -3.32267 -1.15289 0
M  V30 4323 H 393.213 -2.58989 -2.74234 0
M  V30 4324 H 395.6 -1.64137 -2.45241 0
M  V30 4325 H 395.681 -2.40901 -0.860242 0
M  V30 4326 H 395.325 -4.68402 -1.96372 0
M  V30 4327 H 395.255 -3.88529 -3.55461 0
M  V30 4328 H 397.746 -3.04465 -2.23851 0
M  V30 4329 H 398.059 -6.57624 -4.05894 0
M  V30 4330 H 396.404 -5.91054 -3.65623 0
M  V30 4331 H 399.595 -3.82067 -2.70449 0
M  V30 4332 H 399.768 -5.43098 -3.53481 0
M  V30 4333 N 393.175 1.03435 -1.18907 0
M  V30 4334 C 394.586 1.58195 -0.991523 0
M  V30 4335 C 394.937 1.90801 0.457081 0
M  V30 4336 O 394.062 1.70272 1.33553 0
M  V30 4337 C 394.657 2.87432 -1.79355 0
M  V30 4338 C 393.216 3.38785 -1.64017 0
M  V30 4339 C 392.363 2.12292 -1.78402 0
M  V30 4340 H 395.314 0.860299 -1.33359 0
M  V30 4341 H 395.335 3.58096 -1.28638 0
M  V30 4342 H 394.847 2.63669 -2.84781 0
M  V30 4343 H 392.948 3.67547 -0.611536 0
M  V30 4344 H 393.061 4.12186 -2.44212 0
M  V30 4345 H 391.425 2.23901 -1.2141 0
M  V30 4346 H 392.208 1.90977 -2.85277 0
M  V30 4347 N 394.653 0.992116 1.22453 0
M  V30 4348 C 395.583 0.561677 2.26644 0
M  V30 4349 C 396.564 -0.411055 1.65059 0
M  V30 4350 O 397.749 -0.301861 1.9184 0
M  V30 4351 C 394.879 -0.125247 3.47074 0
M  V30 4352 C 393.833 0.765948 4.21091 0
M  V30 4353 C 393.159 -0.0538484 5.34673 0
M  V30 4354 C 394.459 2.06242 4.79856 0
M  V30 4355 H 396.153 1.43259 2.62902 0
M  V30 4356 H 393.699 0.690283 1.26377 0
M  V30 4357 H 395.652 -0.437764 4.1912 0
M  V30 4358 H 394.376 -1.03069 3.0991 0
M  V30 4359 H 393.035 1.0621 3.50878 0
M  V30 4360 H 392.683 -0.960188 4.9375 0
M  V30 4361 H 392.383 0.539415 5.85119 0
M  V30 4362 H 393.907 -0.360477 6.09535 0
M  V30 4363 H 395.321 1.8139 5.43848 0
M  V30 4364 H 393.718 2.60444 5.40638 0
M  V30 4365 H 394.788 2.74167 3.99951 0
M  V30 4366 N 396.131 -1.37776 0.765217 0
M  V30 4367 C 397.547 -1.53297 0.444108 0
M  V30 4368 C 397.747 -1.72515 -1.04119 0
M  V30 4369 O 396.803 -1.74278 -1.82711 0
M  V30 4370 C 398.116 -2.73328 1.25349 0
M  V30 4371 C 399.664 -2.87185 1.24473 0
M  V30 4372 C 400.139 -4.10191 2.03733 0
M  V30 4373 N 401.63 -4.17291 2.01053 0
M  V30 4374 C 402.365 -5.11488 2.59166 0
M  V30 4375 N 401.861 -6.11285 3.26041 0
M  V30 4376 N 403.654 -5.03924 2.49032 0
M  V30 4377 H 395.805 -1.23552 1.72768 0
M  V30 4378 H 398.068 -0.601103 0.733062 0
M  V30 4379 H 397.774 -2.6557 2.30577 0
M  V30 4380 H 397.648 -3.66834 0.87823 0
M  V30 4381 H 400.035 -2.94418 0.20047 0
M  V30 4382 H 400.116 -1.94657 1.65959 0
M  V30 4383 H 399.76 -4.0372 3.08176 0
M  V30 4384 H 399.69 -5.01821 1.59633 0
M  V30 4385 H 402.181 -3.45825 1.5236 0
M  V30 4386 H 402.494 -6.79678 3.67774 0
M  V30 4387 H 400.839 -6.11583 3.30138 0
M  V30 4388 H 404.03 -4.24902 1.96407 0
M  V30 4389 H 404.203 -5.77152 2.94617 0
M  V30 4390 N 397.609 -0.515225 -1.4894 0
M  V30 4391 C 398.539 0.244628 -2.32215 0
M  V30 4392 C 399.52 0.949136 -1.41157 0
M  V30 4393 O 400.705 0.937783 -1.70057 0
M  V30 4394 C 397.835 1.30096 -3.22013 0
M  V30 4395 C 396.789 0.715486 -4.21977 0
M  V30 4396 C 396.115 1.87339 -5.00808 0
M  V30 4397 C 397.415 -0.302982 -5.2142 0
M  V30 4398 H 399.109 -0.450501 -2.95991 0
M  V30 4399 H 396.655 -0.218098 -1.42339 0
M  V30 4400 H 398.608 1.84037 -3.79089 0
M  V30 4401 H 397.332 2.02547 -2.56207 0
M  V30 4402 H 395.991 0.197715 -3.66066 0
M  V30 4403 H 395.639 2.58592 -4.31438 0
M  V30 4404 H 395.339 1.48764 -5.68457 0
M  V30 4405 H 396.863 2.41686 -5.60732 0
M  V30 4406 H 398.277 0.148802 -5.73107 0
M  V30 4407 H 396.674 -0.60532 -5.97039 0
M  V30 4408 H 397.744 -1.21395 -4.69459 0
M  V30 4409 N 399.087 1.5561 -0.249682 0
M  V30 4410 C 400.498 1.84979 0.252949 0
M  V30 4411 C 400.849 1.17153 1.57384 0
M  V30 4412 O 399.974 0.450884 2.11651 0
M  V30 4413 C 400.569 3.35584 0.465732 0
M  V30 4414 C 399.128 3.65169 0.912624 0
M  V30 4415 C 398.275 2.77299 -0.00859085 0
M  V30 4416 H 401.226 1.51513 -0.47217 0
M  V30 4417 H 401.247 3.57313 1.30795 0
M  V30 4418 H 400.759 3.8492 -0.49579 0
M  V30 4419 H 398.86 3.21312 1.88652 0
M  V30 4420 H 398.973 4.72912 0.767559 0
M  V30 4421 H 397.337 2.49678 0.50327 0
M  V30 4422 H 398.12 3.29442 -0.965537 0
M  V30 4423 N 400.565 -0.0233959 1.57583 0
M  V30 4424 C 401.513 -1.04063 2.08023 0
M  V30 4425 C 402.507 -1.37084 0.995204 0
M  V30 4426 O 403.713 -1.35923 1.18004 0
M  V30 4427 H 400.088 -0.353144 0.663922 0
M  V30 4428 H 402.059 -0.589453 2.9252 0
M  V30 4429 C 400.808 -2.33123 2.57971 0
M  V30 4430 H 400.131 -2.08577 3.4108 0
M  V30 4431 H 401.571 -3.02632 2.96967 0
M  V30 4432 C 400.03 -3.02483 1.48342 0
M  V30 4433 O 400.56 -3.92541 0.852898 0
M  V30 4434 N 398.766 -2.63909 1.21658 0
M  V30 4435 H 398.313 -1.90758 1.73116 0
M  V30 4436 H 398.271 -3.10633 0.485218 0
M  V30 4437 N 402.043 -1.548 -0.295768 0
M  V30 4438 C 403.291 -1.73985 -1.02828 0
M  V30 4439 C 403.612 -0.531406 -1.87619 0
M  V30 4440 O 402.882 0.454221 -1.90561 0
M  V30 4441 H 401.462 -0.641556 -0.382642 0
M  V30 4442 H 404.124 -1.92163 -0.325489 0
M  V30 4443 H 403.22 -2.63129 -1.67838 0
M  V30 4444 N 403.521 0.559213 -1.47345 0
M  V30 4445 C 404.932 1.14134 -1.47751 0
M  V30 4446 C 405.283 1.94834 -0.231103 0
M  V30 4447 O 404.408 2.05957 0.664137 0
M  V30 4448 C 405.003 2.07653 -2.67705 0
M  V30 4449 C 403.562 2.61141 -2.71076 0
M  V30 4450 C 402.709 1.3748 -2.40821 0
M  V30 4451 H 405.66 0.345917 -1.54884 0
M  V30 4452 H 405.681 2.91497 -2.44561 0
M  V30 4453 H 405.193 1.4889 -3.58404 0
M  V30 4454 H 403.294 3.23707 -1.84511 0
M  V30 4455 H 403.407 3.02272 -3.7171 0
M  V30 4456 H 401.771 1.68086 -1.91362 0
M  V30 4457 H 402.554 0.805135 -3.33725 0
M  V30 4458 N 404.999 1.35443 0.805782 0
M  V30 4459 C 406.41 1.25768 1.37983 0
M  V30 4460 C 406.761 -0.10958 1.95894 0
M  V30 4461 O 405.886 -1.01056 1.91355 0
M  V30 4462 C 406.481 2.27727 2.5085 0
M  V30 4463 C 405.04 2.2179 3.04115 0
M  V30 4464 C 404.187 2.13393 1.77084 0
M  V30 4465 H 407.138 1.4656 0.608752 0
M  V30 4466 H 407.159 1.90422 3.29424 0
M  V30 4467 H 406.671 3.27227 2.08671 0
M  V30 4468 H 404.772 1.25703 3.50756 0
M  V30 4469 H 404.885 3.13788 3.62042 0
M  V30 4470 H 403.249 1.59384 1.98668 0
M  V30 4471 H 404.032 3.14755 1.37056 0
M  V30 4472 N 406.477 -1.02803 1.19454 0
M  V30 4473 C 407.717 -1.77769 1.00883 0
M  V30 4474 C 408.081 -1.86596 -0.45233 0
M  V30 4475 O 409.282 -2.57895 -0.757877 0
M  V30 4476 C 407.553 -3.16486 1.66046 0
M  V30 4477 S 409.112 -4.07632 1.62424 0
M  V30 4478 H 405.93 -0.611949 0.361993 0
M  V30 4479 H 408.532 -1.23175 1.51816 0
M  V30 4480 H 407.236 -3.0768 2.7159 0
M  V30 4481 H 406.767 -3.76156 1.15196 0
M  V30 4482 H 408.782 -4.91937 0.64903 0
M  V30 4483 N 407.956 -0.998596 -1.21925 0
M  V30 4484 C 409.181 -0.696015 -1.95372 0
M  V30 4485 C 409.606 0.733826 -1.73195 0
M  V30 4486 O 408.964 1.50242 -1.01474 0
M  V30 4487 C 409.012 -1.01466 -3.4603 0
M  V30 4488 O 408.116 -0.116415 -4.12236 0
M  V30 4489 H 407.457 -0.259938 -0.611006 0
M  V30 4490 H 409.987 -1.33711 -1.54863 0
M  V30 4491 H 409.997 -0.958855 -3.96573 0
M  V30 4492 H 408.672 -2.05653 -3.61497 0
M  V30 4493 H 407.249 -0.228193 -3.72201 0
M  V30 4494 N 409.434 1.37368 -0.772513 0
M  V30 4495 C 410.366 2.28899 -0.117502 0
M  V30 4496 C 411.379 1.4867 0.663405 0
M  V30 4497 O 412.568 1.71314 0.501372 0
M  V30 4498 C 409.668 3.2788 0.857192 0
M  V30 4499 C 408.841 4.37207 0.129938 0
M  V30 4500 C 407.9 5.16257 1.01811 0
M  V30 4501 O 406.926 5.67159 0.481601 0
M  V30 4502 N 408.128 5.31058 2.3443 0
M  V30 4503 H 410.893 2.85752 -0.903662 0
M  V30 4504 H 408.454 1.49353 -0.62493 0
M  V30 4505 H 410.446 3.77647 1.45482 0
M  V30 4506 H 409.016 2.7179 1.54432 0
M  V30 4507 H 408.236 3.88827 -0.648605 0
M  V30 4508 H 409.524 5.07434 -0.372559 0
M  V30 4509 H 408.922 4.91287 2.80452 0
M  V30 4510 H 407.479 5.84131 2.89197 0
M  V30 4511 N 410.912 0.523116 1.48665 0
M  V30 4512 C 412.328 0.180511 1.58576 0
M  V30 4513 C 412.528 -1.31597 1.52592 0
M  V30 4514 O 411.584 -2.0937 1.4114 0
M  V30 4515 C 412.897 0.776949 2.90489 0
M  V30 4516 C 414.445 0.745058 3.04003 0
M  V30 4517 C 414.92 1.31995 4.38567 0
M  V30 4518 N 416.411 1.28162 4.45117 0
M  V30 4519 C 417.146 1.6964 5.47731 0
M  V30 4520 N 416.642 2.18816 6.57337 0
M  V30 4521 N 418.435 1.6092 5.38573 0
M  V30 4522 H 410.586 1.4958 1.50797 0
M  V30 4523 H 412.849 0.621772 0.715614 0
M  V30 4524 H 412.555 1.82732 3.00503 0
M  V30 4525 H 412.429 0.25007 3.7637 0
M  V30 4526 H 414.816 -0.296532 2.93606 0
M  V30 4527 H 414.897 1.30933 2.1975 0
M  V30 4528 H 414.541 2.36043 4.49718 0
M  V30 4529 H 414.471 0.731418 5.21496 0
M  V30 4530 H 416.962 0.92155 3.66491 0
M  V30 4531 H 417.275 2.48478 7.31764 0
M  V30 4532 H 415.62 2.22805 6.58318 0
M  V30 4533 H 418.811 1.22304 4.5184 0
M  V30 4534 H 418.984 1.93567 6.18414 0
M  V30 4535 N 412.39 -1.55475 0.257931 0
M  V30 4536 C 413.615 -2.04064 -0.370488 0
M  V30 4537 C 414.04 -1.13565 -1.49948 0
M  V30 4538 O 413.398 -0.130781 -1.80828 0
M  V30 4539 C 413.446 -3.50554 -0.845237 0
M  V30 4540 O 412.55 -3.63173 -1.95394 0
M  V30 4541 H 411.891 -0.659257 -0.0792243 0
M  V30 4542 H 414.421 -2.00903 0.387212 0
M  V30 4543 H 414.431 -3.91588 -1.14555 0
M  V30 4544 H 413.106 -4.15896 -0.0191259 0
M  V30 4545 H 411.683 -3.34039 -1.65748 0
M  V30 4546 N 413.868 0.0150385 -1.57593 0
M  V30 4547 C 414.815 1.01126 -2.07466 0
M  V30 4548 C 415.785 1.35064 -0.966794 0
M  V30 4549 O 416.97 1.4516 -1.23827 0
M  V30 4550 C 414.11 2.30276 -2.57035 0
M  V30 4551 C 413.223 2.02373 -3.81666 0
M  V30 4552 C 412.358 3.25496 -4.19793 0
M  V30 4553 C 411.397 2.93211 -5.37303 0
M  V30 4554 N 410.534 4.08826 -5.70794 0
M  V30 4555 H 415.374 0.57901 -2.92321 0
M  V30 4556 H 412.911 0.27426 -1.44521 0
M  V30 4557 H 414.869 3.05757 -2.83846 0
M  V30 4558 H 413.499 2.71197 -1.75077 0
M  V30 4559 H 412.551 1.17327 -3.61854 0
M  V30 4560 H 413.863 1.74567 -4.67256 0
M  V30 4561 H 413.017 4.09333 -4.47807 0
M  V30 4562 H 411.756 3.56428 -3.32882 0
M  V30 4563 H 410.761 2.07777 -5.09027 0
M  V30 4564 H 411.986 2.63542 -6.25877 0
M  V30 4565 H 409.932 4.39682 -4.86842 0
M  V30 4566 H 409.849 3.84491 -6.50924 0
M  V30 4567 H 411.117 4.93496 -6.03392 0
M  V30 4568 N 415.346 1.54954 0.287554 0
M  V30 4569 C 416.593 1.74873 1.02106 0
M  V30 4570 C 416.921 0.541829 1.86801 0
M  V30 4571 O 416.176 -0.475992 1.89823 0
M  V30 4572 C 416.475 2.99833 1.94512 0
M  V30 4573 C 416.141 4.33029 1.25686 0
M  V30 4574 C 414.803 4.69233 1.06649 0
M  V30 4575 C 417.155 5.15542 0.765913 0
M  V30 4576 C 414.483 5.85518 0.372222 0
M  V30 4577 C 416.835 6.32542 0.0853101 0
M  V30 4578 C 415.499 6.67398 -0.1169 0
M  V30 4579 H 414.769 0.639906 0.373632 0
M  V30 4580 H 417.416 1.89219 0.294665 0
M  V30 4581 H 415.721 2.80325 2.73725 0
M  V30 4582 H 417.418 3.1244 2.51361 0
M  V30 4583 H 414.008 4.04564 1.41512 0
M  V30 4584 H 418.192 4.88059 0.90066 0
M  V30 4585 H 413.448 6.11057 0.204695 0
M  V30 4586 H 417.622 6.95741 -0.302936 0
M  V30 4587 H 415.249 7.57357 -0.656859 0
M  V30 4588 N 416.824 -0.551391 1.4764 0
M  V30 4589 C 417.754 -1.66757 1.63445 0
M  V30 4590 C 418.735 -1.63077 0.483742 0
M  V30 4591 O 419.92 -1.80607 0.71377 0
M  V30 4592 C 417.05 -3.05387 1.65396 0
M  V30 4593 C 416.004 -3.23918 2.79752 0
M  V30 4594 C 415.33 -4.63393 2.66779 0
M  V30 4595 C 416.63 -3.08735 4.21284 0
M  V30 4596 H 418.324 -1.53786 2.56886 0
M  V30 4597 H 415.87 -0.738415 1.23626 0
M  V30 4598 H 417.823 -3.83325 1.75043 0
M  V30 4599 H 416.547 -3.19332 0.685195 0
M  V30 4600 H 415.206 -2.48391 2.69625 0
M  V30 4601 H 414.854 -4.74144 1.67918 0
M  V30 4602 H 414.554 -4.7674 3.43501 0
M  V30 4603 H 416.078 -5.43458 2.78364 0
M  V30 4604 H 417.492 -3.76484 4.32357 0
M  V30 4605 H 415.889 -3.33588 4.98838 0
M  V30 4606 H 416.959 -2.0541 4.39243 0
M  V30 4607 N 418.302 -1.35869 -0.798587 0
M  V30 4608 C 419.232 -1.32118 -1.92528 0
M  V30 4609 C 420.213 -0.194209 -1.68988 0
M  V30 4610 O 421.398 -0.390426 -1.90235 0
M  V30 4611 C 418.528 -1.10047 -3.29404 0
M  V30 4612 C 417.482 -2.19471 -3.67446 0
M  V30 4613 C 416.808 -1.82555 -5.02571 0
M  V30 4614 C 418.108 -3.61495 -3.76987 0
M  V30 4615 H 419.802 -2.26394 -1.95924 0
M  V30 4616 H 417.348 -1.08981 -0.94123 0
M  V30 4617 H 419.301 -1.06061 -4.07835 0
M  V30 4618 H 418.025 -0.122195 -3.26371 0
M  V30 4619 H 416.684 -2.22568 -2.91306 0
M  V30 4620 H 416.332 -0.833249 -4.9605 0
M  V30 4621 H 416.032 -2.5581 -5.28995 0
M  V30 4622 H 417.556 -1.80108 -5.83432 0
M  V30 4623 H 418.97 -3.60676 -4.4563 0
M  V30 4624 H 417.367 -4.33577 -4.14887 0
M  V30 4625 H 418.437 -3.97065 -2.78329 0
M  V30 4626 N 419.78 1.02168 -1.19998 0
M  V30 4627 C 420.713 2.10232 -0.887558 0
M  V30 4628 C 421.691 1.61827 0.158317 0
M  V30 4629 O 422.875 1.88471 0.0330249 0
M  V30 4630 C 420.002 3.37092 -0.32964 0
M  V30 4631 C 419.048 4.0438 -1.3557 0
M  V30 4632 S 419.881 4.48956 -2.91888 0
M  V30 4633 C 421.037 5.79024 -2.37658 0
M  V30 4634 H 421.27 2.36409 -1.80272 0
M  V30 4635 H 418.803 1.15211 -1.0279 0
M  V30 4636 H 420.761 4.10498 -0.0142824 0
M  V30 4637 H 419.422 3.08996 0.563941 0
M  V30 4638 H 418.615 4.95632 -0.9146 0
M  V30 4639 H 418.217 3.37176 -1.61828 0
M  V30 4640 H 420.509 6.53942 -1.77103 0
M  V30 4641 H 421.452 6.27924 -3.27287 0
M  V30 4642 H 421.86 5.35043 -1.79971 0
M  V30 4643 N 421.258 1.00505 1.21394 0
M  V30 4644 C 422.535 0.603277 1.86064 0
M  V30 4645 C 422.915 -0.919095 1.90042 0
M  V30 4646 O 422.263 -1.80607 1.39977 0
M  V30 4647 C 422.473 1.23772 3.26315 0
M  V30 4648 C 423.821 1.34586 4.02705 0
M  V30 4649 O 424.845 1.19304 3.35626 0
M  V30 4650 O 423.704 1.59169 5.22807 0
M  V30 4651 H 420.798 0.206634 0.800769 0
M  V30 4652 H 423.344 1.1017 1.29076 0
M  V30 4653 H 422.116 2.27848 3.18121 0
M  V30 4654 H 421.739 0.725648 3.90922 0
M  V30 4655 N 422.737 -1.36956 0.779787 0
M  V30 4656 C 423.7 -2.2851 0.177662 0
M  V30 4657 C 424.7 -1.48393 -0.619377 0
M  V30 4658 O 425.89 -1.68505 -0.441785 0
M  V30 4659 C 423.022 -3.32428 -0.755279 0
M  V30 4660 H 424.215 -2.83269 0.984823 0
M  V30 4661 H 421.768 -1.46358 0.548544 0
M  V30 4662 H 422.503 -2.82808 -1.58714 0
M  V30 4663 H 422.288 -3.91659 -0.185817 0
M  V30 4664 H 423.778 -4.00824 -1.17174 0
M  V30 4665 N 424.215 -0.530993 -1.48385 0
M  V30 4666 C 425.145 0.219985 -2.32461 0
M  V30 4667 C 426.126 0.934111 -1.42156 0
M  V30 4668 O 427.311 0.919694 -1.71042 0
M  V30 4669 C 424.441 1.26674 -3.23375 0
M  V30 4670 C 423.395 0.67069 -4.22712 0
M  V30 4671 C 422.721 1.82017 -5.02766 0
M  V30 4672 C 424.021 -0.358268 -5.2107 0
M  V30 4673 H 425.715 -0.48187 -2.95497 0
M  V30 4674 H 423.261 -0.233182 -1.42099 0
M  V30 4675 H 425.214 1.80006 -3.81019 0
M  V30 4676 H 423.938 1.99818 -2.58341 0
M  V30 4677 H 422.597 0.158878 -3.66256 0
M  V30 4678 H 422.245 2.54002 -4.34157 0
M  V30 4679 H 421.945 1.42727 -5.70003 0
M  V30 4680 H 423.469 2.35725 -5.63264 0
M  V30 4681 H 424.883 0.0880081 -5.73232 0
M  V30 4682 H 423.28 -0.66861 -5.96364 0
M  V30 4683 H 424.35 -1.26367 -4.68145 0
M  V30 4684 N 425.693 1.55336 -0.266172 0
M  V30 4685 C 426.64 2.22172 0.625165 0
M  V30 4686 C 427.61 1.19211 1.15663 0
M  V30 4687 O 428.795 1.47723 1.20758 0
M  V30 4688 C 425.935 2.93972 1.8076 0
M  V30 4689 C 425.048 4.11632 1.31084 0
M  V30 4690 C 424.183 4.71099 2.45436 0
M  V30 4691 C 423.222 5.8097 1.92718 0
M  V30 4692 N 422.359 6.34538 3.00509 0
M  V30 4693 H 427.199 2.9796 0.0485582 0
M  V30 4694 H 424.736 1.47095 0.0122024 0
M  V30 4695 H 426.694 3.33811 2.50251 0
M  V30 4696 H 425.324 2.20623 2.35638 0
M  V30 4697 H 424.376 3.76975 0.509326 0
M  V30 4698 H 425.688 4.90893 0.884633 0
M  V30 4699 H 424.842 5.13612 3.22936 0
M  V30 4700 H 423.581 3.91096 2.91368 0
M  V30 4701 H 422.586 5.37916 1.13695 0
M  V30 4702 H 423.811 6.62836 1.47733 0
M  V30 4703 H 421.757 5.57433 3.45839 0
M  V30 4704 H 421.674 7.09046 2.62279 0
M  V30 4705 H 422.942 6.81709 3.78011 0
M  V30 4706 N 427.171 -0.0066808 1.57599 0
M  V30 4707 C 428.101 -0.999296 2.11036 0
M  V30 4708 C 429.082 -1.36278 1.01795 0
M  V30 4709 O 430.267 -1.4477 1.29442 0
M  V30 4710 C 427.397 -2.29328 2.60818 0
M  V30 4711 C 426.351 -2.07159 3.74525 0
M  V30 4712 C 425.677 -3.42512 4.10596 0
M  V30 4713 C 426.977 -1.43959 5.02069 0
M  V30 4714 H 428.671 -0.554382 2.94223 0
M  V30 4715 H 426.217 -0.265221 1.41536 0
M  V30 4716 H 428.17 -2.99117 2.96828 0
M  V30 4717 H 426.894 -2.7592 1.74745 0
M  V30 4718 H 425.553 -1.39797 3.38899 0
M  V30 4719 H 425.201 -3.86795 3.21556 0
M  V30 4720 H 424.901 -3.28498 4.87199 0
M  V30 4721 H 426.425 -4.13628 4.4916 0
M  V30 4722 H 427.839 -2.03696 5.35893 0
M  V30 4723 H 426.236 -1.40452 5.83432 0
M  V30 4724 H 427.306 -0.407992 4.83181 0
M  V30 4725 N 428.649 -1.55105 -0.279332 0
M  V30 4726 C 429.874 -1.7976 -1.03446 0
M  V30 4727 C 430.299 -0.565952 -1.79384 0
M  V30 4728 O 429.657 0.484259 -1.74713 0
M  V30 4729 C 429.705 -3.0179 -1.97371 0
M  V30 4730 O 428.809 -2.76432 -3.06038 0
M  V30 4731 H 428.15 -0.594334 -0.29608 0
M  V30 4732 H 430.68 -2.02235 -0.310165 0
M  V30 4733 H 430.69 -3.30351 -2.39441 0
M  V30 4734 H 429.365 -3.91085 -1.4151 0
M  V30 4735 H 427.942 -2.58949 -2.68328 0
M  V30 4736 N 430.127 0.543554 -1.4793 0
M  V30 4737 C 431.376 1.29649 -1.54512 0
M  V30 4738 C 431.689 1.94382 -0.217973 0
M  V30 4739 O 432.895 2.71017 -0.161908 0
M  V30 4740 C 431.351 2.35175 -2.72435 0
M  V30 4741 C 430.959 1.76572 -4.11736 0
M  V30 4742 C 432.703 3.11564 -2.8832 0
M  V30 4743 C 430.61 2.79958 -5.20939 0
M  V30 4744 H 429.54 0.487541 -0.57517 0
M  V30 4745 H 432.191 0.575708 -1.74235 0
M  V30 4746 H 430.573 3.10229 -2.46118 0
M  V30 4747 H 431.747 1.07799 -4.48013 0
M  V30 4748 H 430.062 1.12722 -4.00852 0
M  V30 4749 H 432.659 3.88794 -3.67074 0
M  V30 4750 H 433.002 3.66594 -1.97268 0
M  V30 4751 H 433.535 2.43623 -3.14472 0
M  V30 4752 H 430.274 2.29766 -6.13912 0
M  V30 4753 H 429.794 3.47101 -4.89164 0
M  V30 4754 H 431.473 3.43198 -5.48474 0
M  V30 4755 N 431.605 1.3629 0.791371 0
M  V30 4756 C 432.515 1.32606 1.93527 0
M  V30 4757 C 433.531 0.228541 1.72493 0
M  V30 4758 O 434.707 0.460571 1.96063 0
M  V30 4759 C 431.772 1.11271 3.28359 0
M  V30 4760 C 430.833 2.3048 3.62185 0
M  V30 4761 C 430.066 2.10154 4.90583 0
M  V30 4762 O 430.289 1.07572 5.60165 0
M  V30 4763 O 429.223 2.97884 5.23019 0
M  V30 4764 H 433.049 2.28909 1.99585 0
M  V30 4765 H 430.634 1.16818 0.931344 0
M  V30 4766 H 432.516 1.01283 4.09047 0
M  V30 4767 H 431.191 0.180292 3.23198 0
M  V30 4768 H 430.098 2.46036 2.81811 0
M  V30 4769 H 431.431 3.22221 3.72068 0
M  V30 4770 N 433.083 -1.0153 1.20538 0
M  V30 4771 C 434.36 -1.72327 0.925343 0
M  V30 4772 C 434.74 -2.03383 -0.565547 0
M  V30 4773 O 434.088 -1.69934 -1.52757 0
M  V30 4774 C 434.298 -2.9902 1.79967 0
M  V30 4775 C 435.646 -3.72258 2.04228 0
M  V30 4776 O 436.67 -3.08979 1.77231 0
M  V30 4777 O 435.529 -4.86053 2.4983 0
M  V30 4778 H 432.623 -0.751099 0.346092 0
M  V30 4779 H 435.169 -1.07366 1.31417 0
M  V30 4780 H 433.941 -2.72402 2.80915 0
M  V30 4781 H 433.564 -3.71721 1.41099 0
M  V30 4782 N 434.561 -1.01147 -1.20859 0
M  V30 4783 C 435.972 -0.730205 -1.71828 0
M  V30 4784 C 436.323 0.751662 -1.8123 0
M  V30 4785 O 435.448 1.58686 -1.47132 0
M  V30 4786 C 436.043 -1.31885 -3.12077 0
M  V30 4787 C 434.602 -1.08656 -3.60376 0
M  V30 4788 C 433.749 -1.42769 -2.37723 0
M  V30 4789 H 436.7 -1.18158 -1.05945 0
M  V30 4790 H 436.721 -0.706793 -3.73878 0
M  V30 4791 H 436.233 -2.39737 -3.05201 0
M  V30 4792 H 434.334 -0.0254814 -3.72591 0
M  V30 4793 H 434.447 -1.76301 -4.45483 0
M  V30 4794 H 432.811 -0.846603 -2.40218 0
M  V30 4795 H 433.594 -2.51666 -2.33493 0
M  V30 4796 N 436.039 1.36541 -0.78704 0
M  V30 4797 C 437.264 2.0409 -0.369053 0
M  V30 4798 C 437.689 1.58957 1.00569 0
M  V30 4799 O 437.047 0.756926 1.64743 0
M  V30 4800 C 437.095 3.57924 -0.438466 0
M  V30 4801 O 436.199 4.08642 0.555479 0
M  V30 4802 H 435.54 0.645142 -0.157122 0
M  V30 4803 H 438.07 1.74545 -1.06749 0
M  V30 4804 H 438.08 4.06887 -0.301218 0
M  V30 4805 H 436.755 3.90127 -1.44132 0
M  V30 4806 H 435.332 3.70958 0.380088 0
M  V30 4807 N 437.518 0.538854 1.48102 0
M  V30 4808 C 438.468 -0.23907 2.26743 0
M  V30 4809 C 439.452 -0.901923 1.33245 0
M  V30 4810 O 440.644 -0.803263 1.57723 0
M  V30 4811 C 437.773 -1.2799 3.18549 0
M  V30 4812 C 436.859 -0.621388 4.19523 0
M  V30 4813 N 437.25 0.298004 5.04921 0
M  V30 4814 C 435.548 -0.877533 4.37282 0
M  V30 4815 C 436.249 0.678757 5.77726 0
M  V30 4816 N 435.225 0.0377881 5.43587 0
M  V30 4817 H 439.027 0.468096 2.90148 0
M  V30 4818 H 436.541 0.357497 1.58416 0
M  V30 4819 H 438.538 -1.851 3.73555 0
M  V30 4820 H 437.198 -1.98835 2.567 0
M  V30 4821 H 438.209 0.671126 5.13533 0
M  V30 4822 H 434.886 -1.57588 3.86616 0
M  V30 4823 H 436.276 1.43316 6.56437 0
M  V30 4824 N 438.996 -1.55193 0.274407 0
M  V30 4825 C 439.906 -2.26164 -0.623473 0
M  V30 4826 C 440.922 -1.28729 -1.17068 0
M  V30 4827 O 442.098 -1.61663 -1.20112 0
M  V30 4828 C 439.163 -2.96833 -1.7914 0
M  V30 4829 C 438.224 -4.09745 -1.28093 0
M  V30 4830 C 437.457 -4.77034 -2.3932 0
M  V30 4831 O 437.68 -4.4353 -3.5866 0
M  V30 4832 O 436.614 -5.64996 -2.07516 0
M  V30 4833 H 440.44 -3.03661 -0.0485661 0
M  V30 4834 H 438.025 -1.49341 0.0418382 0
M  V30 4835 H 439.907 -3.41248 -2.4724 0
M  V30 4836 H 438.582 -2.22253 -2.35341 0
M  V30 4837 H 437.489 -3.69787 -0.566416 0
M  V30 4838 H 438.822 -4.86224 -0.764683 0
M  V30 4839 N 440.474 -0.00167713 -1.576 0
M  V30 4840 C 441.722 0.681471 -1.90264 0
M  V30 4841 C 442.043 1.7422 -0.875924 0
M  V30 4842 O 441.313 1.95709 0.0864412 0
M  V30 4843 H 439.893 0.254696 -0.702239 0
M  V30 4844 H 442.555 -0.0429996 -1.94853 0
M  V30 4845 H 441.651 1.15166 -2.90075 0
M  V30 4846 N 441.952 1.55251 0.271103 0
M  V30 4847 C 442.862 1.9136 1.35714 0
M  V30 4848 C 443.878 0.811075 1.5394 0
M  V30 4849 O 445.054 1.11031 1.6803 0
M  V30 4850 C 442.119 2.1798 2.69603 0
M  V30 4851 C 441.18 3.4153 2.60107 0
M  V30 4852 C 440.413 3.66871 3.8761 0
M  V30 4853 O 440.636 2.94689 4.8838 0
M  V30 4854 O 439.57 4.60405 3.87699 0
M  V30 4855 H 443.396 2.83815 1.08088 0
M  V30 4856 H 440.981 1.41821 0.469792 0
M  V30 4857 H 442.863 2.36518 3.48765 0
M  V30 4858 H 441.538 1.28708 2.97012 0
M  V30 4859 H 440.445 3.28325 1.79314 0
M  V30 4860 H 441.778 4.31027 2.37647 0
M  V30 4861 N 443.43 -0.535701 1.48216 0
M  V30 4862 C 444.678 -1.28928 1.55634 0
M  V30 4863 C 444.999 -1.93645 0.229514 0
M  V30 4864 O 444.269 -1.81038 -0.74846 0
M  V30 4865 H 442.849 -0.47884 0.573342 0
M  V30 4866 H 445.511 -0.623853 1.84646 0
M  V30 4867 H 444.607 -2.07157 2.33436 0
M  V30 4868 N 444.908 -1.36708 -0.784132 0
M  V30 4869 C 446.157 -1.30559 -1.53744 0
M  V30 4870 C 446.47 0.111374 -1.95283 0
M  V30 4871 O 447.676 0.29527 -2.6989 0
M  V30 4872 C 446.132 -2.29098 -2.77565 0
M  V30 4873 C 445.74 -3.76258 -2.43174 0
M  V30 4874 C 447.484 -2.31936 -3.55536 0
M  V30 4875 C 445.391 -4.6656 -3.63422 0
M  V30 4876 H 444.321 -0.48518 -0.577162 0
M  V30 4877 H 446.972 -1.62101 -0.859981 0
M  V30 4878 H 445.354 -1.90557 -3.47137 0
M  V30 4879 H 446.528 -4.23565 -1.81465 0
M  V30 4880 H 444.843 -3.76246 -1.78403 0
M  V30 4881 H 447.44 -2.9661 -4.44889 0
M  V30 4882 H 447.783 -1.3294 -3.94503 0
M  V30 4883 H 448.316 -2.6912 -2.92949 0
M  V30 4884 H 445.055 -5.66638 -3.29547 0
M  V30 4885 H 444.575 -4.23966 -4.24279 0
M  V30 4886 H 446.254 -4.8309 -4.30387 0
M  V30 4887 N 446.386 1.0089 -1.21074 0
M  V30 4888 C 447.797 1.56056 -1.02486 0
M  V30 4889 C 448.148 1.91728 0.416506 0
M  V30 4890 O 447.273 1.73066 1.29912 0
M  V30 4891 C 447.868 2.83563 -1.85411 0
M  V30 4892 C 446.427 3.3523 -1.71166 0
M  V30 4893 C 445.574 2.0846 -1.82865 0
M  V30 4894 H 448.525 0.831818 -1.35154 0
M  V30 4895 H 448.546 3.55286 -1.36205 0
M  V30 4896 H 448.058 2.57569 -2.9031 0
M  V30 4897 H 446.159 3.66167 -0.689361 0
M  V30 4898 H 446.272 4.06913 -2.52901 0
M  V30 4899 H 444.636 2.21275 -1.26132 0
M  V30 4900 H 445.419 1.84883 -2.89263 0
M  V30 4901 N 447.864 1.01787 1.20321 0
M  V30 4902 C 448.794 0.609625 2.25401 0
M  V30 4903 C 449.775 -0.375951 1.65893 0
M  V30 4904 O 450.96 -0.261101 1.92437 0
M  V30 4905 C 448.09 -0.0515995 3.47262 0
M  V30 4906 C 447.044 0.855095 4.19371 0
M  V30 4907 C 446.37 0.0595757 5.34667 0
M  V30 4908 C 447.67 2.16374 4.75373 0
M  V30 4909 H 449.364 1.48803 2.59804 0
M  V30 4910 H 446.91 0.716934 1.24884 0
M  V30 4911 H 448.863 -0.348764 4.19954 0
M  V30 4912 H 447.587 -0.964726 3.12027 0
M  V30 4913 H 446.246 1.13628 3.48546 0
M  V30 4914 H 445.894 -0.85524 4.95676 0
M  V30 4915 H 445.594 0.663406 5.83843 0
M  V30 4916 H 447.118 -0.231105 6.10162 0
M  V30 4917 H 448.532 1.92885 5.39878 0
M  V30 4918 H 446.929 2.71853 5.34991 0
M  V30 4919 H 447.999 2.82589 3.94045 0
M  V30 4920 N 449.342 -1.36122 0.79427 0
M  V30 4921 C 450.572 -2.03067 0.380437 0
M  V30 4922 C 450.98 -1.60018 -1.00949 0
M  V30 4923 O 450.323 -0.787425 -1.65968 0
M  V30 4924 C 450.385 -3.57587 0.37034 0
M  V30 4925 C 450.049 -4.23855 1.70867 0
M  V30 4926 C 451.046 -4.46404 2.66496 0
M  V30 4927 C 448.731 -4.61229 1.9893 0
M  V30 4928 C 450.725 -5.05412 3.88378 0
M  V30 4929 C 448.412 -5.19953 3.21079 0
M  V30 4930 C 449.41 -5.41985 4.15621 0
M  V30 4931 O 449.098 -5.99475 5.35616 0
M  V30 4932 H 448.83 -0.658168 0.154243 0
M  V30 4933 H 451.384 -1.7498 1.0757 0
M  V30 4934 H 449.614 -3.84814 -0.381444 0
M  V30 4935 H 451.303 -4.05895 -0.0194894 0
M  V30 4936 H 452.069 -4.17921 2.46103 0
M  V30 4937 H 447.948 -4.43402 1.26158 0
M  V30 4938 H 451.492 -5.22524 4.62185 0
M  V30 4939 H 447.389 -5.47862 3.41347 0
M  V30 4940 H 448.157 -6.17937 5.36745 0
M  V30 4941 N 450.82 -0.546701 -1.47814 0
M  V30 4942 C 452.097 0.0464413 -1.95545 0
M  V30 4943 C 452.477 1.4962 -1.48919 0
M  V30 4944 O 451.825 2.16752 -0.723232 0
M  V30 4945 C 452.035 -0.0881298 -3.48889 0
M  V30 4946 C 453.383 0.0626059 -4.24554 0
M  V30 4947 O 454.407 -0.0151555 -3.56197 0
M  V30 4948 O 453.266 0.228071 -5.46024 0
M  V30 4949 H 450.36 0.0700004 -0.824032 0
M  V30 4950 H 452.906 -0.612482 -1.58262 0
M  V30 4951 H 451.678 -1.09737 -3.75597 0
M  V30 4952 H 451.301 0.608886 -3.9291 0
M  V30 4953 N 452.299 1.55045 -0.282633 0
M  V30 4954 C 453.262 2.21515 0.588539 0
M  V30 4955 C 454.262 1.19535 1.07554 0
M  V30 4956 O 455.452 1.44391 0.974514 0
M  V30 4957 C 452.584 2.88704 1.8128 0
M  V30 4958 H 453.777 2.99899 0.00806397 0
M  V30 4959 H 451.33 1.56265 -0.0333067 0
M  V30 4960 H 452.065 2.14352 2.43359 0
M  V30 4961 H 451.85 3.63443 1.47144 0
M  V30 4962 H 453.34 3.39465 2.43214 0
M  V30 4963 N 453.777 0.010035 1.57597 0
M  V30 4964 C 455.026 -0.671945 1.90178 0
M  V30 4965 C 455.339 -1.74376 0.886131 0
M  V30 4966 O 456.545 -2.48107 1.10252 0
M  V30 4967 C 455.001 -1.24636 3.3763 0
M  V30 4968 C 454.609 -0.208838 4.47513 0
M  V30 4969 C 456.353 -1.90595 3.79307 0
M  V30 4970 C 454.26 -0.793814 5.86048 0
M  V30 4971 H 453.19 -0.25474 0.709665 0
M  V30 4972 H 455.841 0.0722206 1.83358 0
M  V30 4973 H 454.223 -2.04152 3.3932 0
M  V30 4974 H 455.397 0.562463 4.57354 0
M  V30 4975 H 453.712 0.350889 4.14919 0
M  V30 4976 H 456.309 -2.35284 4.80151 0
M  V30 4977 H 456.652 -2.74074 3.13352 0
M  V30 4978 H 457.185 -1.17798 3.79958 0
M  V30 4979 H 453.924 0.00240855 6.555 0
M  V30 4980 H 453.444 -1.53404 5.79851 0
M  V30 4981 H 455.123 -1.2894 6.34022 0
M  V30 4982 N 455.255 -1.55392 -0.262866 0
M  V30 4983 C 456.202 -1.88966 -1.32516 0
M  V30 4984 C 457.172 -0.742187 -1.48596 0
M  V30 4985 O 458.357 -0.99439 -1.62839 0
M  V30 4986 C 455.497 -2.17592 -2.67858 0
M  V30 4987 C 454.61 -3.45061 -2.59917 0
M  V30 4988 C 453.745 -3.63336 -3.87505 0
M  V30 4989 C 452.784 -4.84462 -3.74116 0
M  V30 4990 N 451.921 -4.99342 -4.93561 0
M  V30 4991 H 456.761 -2.79566 -1.03184 0
M  V30 4992 H 454.298 -1.38404 -0.498285 0
M  V30 4993 H 456.256 -2.3219 -3.46617 0
M  V30 4994 H 454.886 -1.30215 -2.95371 0
M  V30 4995 H 453.938 -3.38881 -1.72812 0
M  V30 4996 H 455.25 -4.3396 -2.45926 0
M  V30 4997 H 454.404 -3.77807 -4.74707 0
M  V30 4998 H 453.143 -2.72641 -4.04374 0
M  V30 4999 H 452.148 -4.69985 -2.85297 0
M  V30 5000 H 453.373 -5.76603 -3.58757 0
M  V30 5001 H 451.319 -4.1158 -5.10821 0
M  V30 5002 H 451.236 -5.82303 -4.82141 0
M  V30 5003 H 452.504 -5.18208 -5.82306 0
M  V30 5004 N 456.733 0.527833 -1.48498 0
M  V30 5005 C 457.973 1.29401 -1.58224 0
M  V30 5006 C 458.337 1.90348 -0.251327 0
M  V30 5007 O 459.538 2.67868 -0.223588 0
M  V30 5008 C 457.809 2.35266 -2.69044 0
M  V30 5009 S 459.368 3.2158 -2.98549 0
M  V30 5010 H 456.186 0.440138 -0.558391 0
M  V30 5011 H 458.788 0.601079 -1.8603 0
M  V30 5012 H 457.492 1.88975 -3.64303 0
M  V30 5013 H 457.023 3.09263 -2.43146 0
M  V30 5014 H 459.038 4.35391 -2.38011 0
M  V30 5015 N 458.211 1.37122 0.776871 0
M  V30 5016 C 459.144 1.26835 1.89705 0
M  V30 5017 C 460.122 0.14992 1.61907 0
M  V30 5018 O 461.306 0.323242 1.85708 0
M  V30 5019 C 458.433 0.95986 3.24814 0
M  V30 5020 C 457.479 2.09447 3.7153 0
M  V30 5021 S 458.312 3.71368 3.85806 0
M  V30 5022 C 459.468 3.42659 5.23771 0
M  V30 5023 H 459.701 2.21647 1.98141 0
M  V30 5024 H 457.234 1.22685 0.937433 0
M  V30 5025 H 459.192 0.788696 4.02852 0
M  V30 5026 H 457.853 0.0293137 3.14086 0
M  V30 5027 H 457.046 1.8335 4.69467 0
M  V30 5028 H 456.648 2.2255 3.00578 0
M  V30 5029 H 458.94 2.9733 6.0877 0
M  V30 5030 H 459.883 4.39905 5.54878 0
M  V30 5031 H 460.291 2.77708 4.91466 0
M  V30 5032 N 459.689 -1.00246 1.21608 0
M  V30 5033 C 461.105 -1.26435 0.973975 0
M  V30 5034 C 461.305 -1.98642 -0.338143 0
M  V30 5035 O 460.361 -2.29026 -1.06317 0
M  V30 5036 C 461.674 -2.08551 2.16626 0
M  V30 5037 C 463.222 -2.21769 2.20879 0
M  V30 5038 C 463.697 -3.07267 3.39633 0
M  V30 5039 N 465.188 -3.14855 3.39736 0
M  V30 5040 C 465.923 -3.81274 4.28273 0
M  V30 5041 N 465.419 -4.497 5.27012 0
M  V30 5042 N 467.212 -3.7794 4.16074 0
M  V30 5043 H 459.363 -0.518089 2.05984 0
M  V30 5044 H 461.626 -0.291368 0.902113 0
M  V30 5045 H 461.332 -1.62847 3.11727 0
M  V30 5046 H 461.206 -3.09303 2.15897 0
M  V30 5047 H 463.593 -2.66691 1.26332 0
M  V30 5048 H 463.674 -1.20478 2.25652 0
M  V30 5049 H 463.318 -2.63047 4.34475 0
M  V30 5050 H 463.248 -4.08678 3.321 0
M  V30 5051 H 465.739 -2.66147 2.6828 0
M  V30 5052 H 466.052 -4.98092 5.90867 0
M  V30 5053 H 464.397 -4.48479 5.30935 0
M  V30 5054 H 467.588 -3.23638 3.38195 0
M  V30 5055 H 467.761 -4.29424 4.85282 0
M  V30 5056 N 461.167 -1.02423 -1.1978 0
M  V30 5057 C 462.395 -0.737456 -1.93311 0
M  V30 5058 C 462.81 0.703023 -1.75223 0
M  V30 5059 O 462.167 1.47761 -1.07112 0
M  V30 5060 C 462.218 -1.0733 -3.45199 0
M  V30 5061 O 461.939 -2.4572 -3.62702 0
M  V30 5062 C 463.44 -0.80866 -4.35862 0
M  V30 5063 H 460.66 -0.2702 -0.614193 0
M  V30 5064 H 463.204 -1.36747 -1.52054 0
M  V30 5065 H 461.359 -0.488545 -3.84307 0
M  V30 5066 H 461.773 -2.58081 -4.56612 0
M  V30 5067 H 463.247 -1.09365 -5.41057 0
M  V30 5068 H 463.724 0.257025 -4.38447 0
M  V30 5069 H 464.33 -1.37592 -4.02428 0
M  V30 5070 N 462.645 1.35699 -0.801477 0
M  V30 5071 C 463.892 1.98913 -0.379459 0
M  V30 5072 C 464.22 1.63592 1.05204 0
M  V30 5073 O 463.475 0.888563 1.74365 0
M  V30 5074 C 463.774 3.53828 -0.504041 0
M  V30 5075 C 463.44 4.09002 -1.8981 0
M  V30 5076 C 462.102 4.23783 -2.27951 0
M  V30 5077 C 464.454 4.38939 -2.81038 0
M  V30 5078 C 461.782 4.65816 -3.56696 0
M  V30 5079 C 464.134 4.82409 -4.09224 0
M  V30 5080 C 462.798 4.95395 -4.4737 0
M  V30 5081 H 462.068 0.727874 -0.138854 0
M  V30 5082 H 464.715 1.61994 -1.02128 0
M  V30 5083 H 463.02 3.91175 0.221242 0
M  V30 5084 H 464.717 4.00687 -0.158361 0
M  V30 5085 H 461.307 3.97946 -1.59176 0
M  V30 5086 H 465.491 4.27077 -2.52821 0
M  V30 5087 H 460.747 4.74059 -3.86106 0
M  V30 5088 H 464.921 5.04535 -4.80018 0
M  V30 5089 H 462.548 5.27724 -5.47185 0
M  V30 5090 N 464.123 0.554532 1.47522 0
M  V30 5091 C 465.37 0.029479 2.02479 0
M  V30 5092 C 465.698 -1.31929 1.42916 0
M  V30 5093 O 464.953 -1.87112 0.573385 0
M  V30 5094 C 465.252 -0.115927 3.57212 0
M  V30 5095 C 464.918 1.16161 4.3568 0
M  V30 5096 C 463.58 1.51168 4.56839 0
M  V30 5097 C 465.932 2.0083 4.80954 0
M  V30 5098 C 463.26 2.70696 5.2052 0
M  V30 5099 C 465.612 3.19559 5.45953 0
M  V30 5100 C 464.276 3.54882 5.65345 0
M  V30 5101 H 463.546 0.0107871 0.740921 0
M  V30 5102 H 466.193 0.725506 1.77225 0
M  V30 5103 H 464.498 -0.894902 3.81443 0
M  V30 5104 H 466.195 -0.53749 3.97381 0
M  V30 5105 H 462.785 0.879026 4.19489 0
M  V30 5106 H 466.969 1.75093 4.64388 0
M  V30 5107 H 462.225 2.98236 5.33728 0
M  V30 5108 H 466.399 3.85456 5.79997 0
M  V30 5109 H 464.026 4.47596 6.1446 0
M  V30 5110 N 465.601 -1.54893 0.290851 0
M  V30 5111 C 466.849 -1.99538 -0.320756 0
M  V30 5112 C 467.17 -1.18075 -1.55188 0
M  V30 5113 O 466.44 -0.274162 -1.93972 0
M  V30 5114 H 465.02 -0.737052 -0.121507 0
M  V30 5115 H 467.682 -1.90755 0.399832 0
M  V30 5116 H 466.778 -3.06282 -0.599802 0
M  V30 5117 N 467.08 -0.0183926 -1.57589 0
M  V30 5118 C 468.326 0.657813 -1.92469 0
M  V30 5119 C 468.681 1.70349 -0.894375 0
M  V30 5120 O 467.974 1.91384 0.0910389 0
M  V30 5121 C 468.168 1.32676 -3.31861 0
M  V30 5122 C 467.997 0.347403 -4.48356 0
M  V30 5123 C 466.767 -0.0488653 -5.05276 0
M  V30 5124 C 468.965 -0.393931 -5.12789 0
M  V30 5125 N 466.947 -1.02451 -6.05291 0
M  V30 5126 C 468.318 -1.22367 -6.07804 0
M  V30 5127 C 470.373 -0.455789 -4.95809 0
M  V30 5128 C 469.076 -2.10966 -6.87667 0
M  V30 5129 C 471.102 -1.32908 -5.76272 0
M  V30 5130 C 470.464 -2.14662 -6.70894 0
M  V30 5131 H 466.563 0.21335 -0.752334 0
M  V30 5132 H 469.147 -0.0830547 -1.94523 0
M  V30 5133 H 467.318 2.03782 -3.30647 0
M  V30 5134 H 469.05 1.95913 -3.54119 0
M  V30 5135 H 465.805 0.323356 -4.72495 0
M  V30 5136 H 466.229 -1.50826 -6.59985 0
M  V30 5137 H 470.871 0.162017 -4.22489 0
M  V30 5138 H 468.589 -2.73807 -7.603 0
M  V30 5139 H 472.175 -1.38109 -5.6517 0
M  V30 5140 H 471.055 -2.81143 -7.32071 0
M  V30 5141 N 468.558 1.5553 0.254621 0
M  V30 5142 C 469.505 1.89666 1.31512 0
M  V30 5143 C 470.475 0.750057 1.482 0
M  V30 5144 O 471.66 1.00301 1.62309 0
M  V30 5145 C 468.8 2.19009 2.667 0
M  V30 5146 C 467.913 3.46435 2.58083 0
M  V30 5147 C 467.048 3.65386 3.85573 0
M  V30 5148 C 466.087 4.8644 3.71541 0
M  V30 5149 N 465.224 5.01952 4.90906 0
M  V30 5150 H 470.064 2.80109 1.017 0
M  V30 5151 H 467.601 1.38666 0.490938 0
M  V30 5152 H 469.559 2.34025 3.45381 0
M  V30 5153 H 468.189 1.31779 2.94676 0
M  V30 5154 H 467.241 3.39792 1.71013 0
M  V30 5155 H 468.553 4.35258 2.43622 0
M  V30 5156 H 467.707 3.80319 4.72697 0
M  V30 5157 H 466.446 2.74781 4.02922 0
M  V30 5158 H 465.451 4.71491 2.82801 0
M  V30 5159 H 466.676 5.78497 3.55694 0
M  V30 5160 H 464.622 4.14283 5.08631 0
M  V30 5161 H 464.539 5.84851 4.79046 0
M  V30 5162 H 465.807 5.21289 5.7955 0
M  V30 5163 N 470.036 -0.519951 1.48776 0
M  V30 5164 C 470.946 -1.65025 1.66745 0
M  V30 5165 C 471.962 -1.6508 0.549954 0
M  V30 5166 O 473.138 -1.83848 0.822295 0
M  V30 5167 C 470.203 -3.0146 1.71238 0
M  V30 5168 C 469.264 -3.12182 2.94688 0
M  V30 5169 C 468.497 -4.42109 2.98958 0
M  V30 5170 O 468.72 -5.29799 2.1135 0
M  V30 5171 O 467.654 -4.57406 3.91233 0
M  V30 5172 H 471.48 -1.52801 2.62461 0
M  V30 5173 H 469.065 -0.694157 1.32294 0
M  V30 5174 H 470.947 -3.82584 1.76657 0
M  V30 5175 H 469.622 -3.13988 0.786975 0
M  V30 5176 H 468.529 -2.30316 2.94797 0
M  V30 5177 H 469.862 -3.04574 3.86646 0
M  V30 5178 N 471.514 -1.37532 -0.769588 0
M  V30 5179 C 472.925 -1.29382 -1.346 0
M  V30 5180 C 473.276 0.0576039 -1.96115 0
M  V30 5181 O 472.401 0.95947 -1.93967 0
M  V30 5182 C 472.996 -2.34298 -2.44724 0
M  V30 5183 C 471.555 -2.29776 -2.98128 0
M  V30 5184 C 470.702 -2.18013 -1.71364 0
M  V30 5185 H 473.653 -1.48123 -0.56968 0
M  V30 5186 H 473.674 -1.99089 -3.24259 0
M  V30 5187 H 473.186 -3.32645 -1.99922 0
M  V30 5188 H 471.287 -1.34959 -3.47299 0
M  V30 5189 H 471.4 -3.23276 -3.53595 0
M  V30 5190 H 469.764 -1.64595 -1.94372 0
M  V30 5191 H 470.547 -3.18278 -1.28662 0
M  V30 5192 N 472.992 0.995999 -1.22138 0
M  V30 5193 C 473.94 2.10673 -0.985876 0
M  V30 5194 C 474.934 1.69255 0.0699553 0
M  V30 5195 O 476.14 1.79812 -0.0822176 0
M  V30 5196 H 472.515 0.688865 -0.30161 0
M  V30 5197 H 474.486 2.27711 -1.92848 0
M  V30 5198 C 473.235 3.42881 -0.576909 0
M  V30 5199 H 472.558 3.75191 -1.38101 0
M  V30 5200 H 473.998 4.21589 -0.451518 0
M  V30 5201 C 472.457 3.29265 0.713196 0
M  V30 5202 O 472.987 3.60777 1.76643 0
M  V30 5203 N 471.193 2.82456 0.683162 0
M  V30 5204 H 470.74 2.5701 -0.174242 0
M  V30 5205 H 470.698 2.73727 1.54663 0
M  V30 5206 N 474.47 1.03057 1.19235 0
M  V30 5207 C 475.716 0.729098 1.89241 0
M  V30 5208 C 476.049 -0.740573 1.79525 0
M  V30 5209 O 475.324 -1.53946 1.18874 0
M  V30 5210 C 475.607 1.18304 3.40112 0
M  V30 5211 C 475.46 2.71406 3.5869 0
M  V30 5212 C 476.779 0.765161 4.33397 0
M  V30 5213 H 473.898 0.266338 0.687192 0
M  V30 5214 H 476.54 1.28079 1.40341 0
M  V30 5215 H 474.69 0.713672 3.81889 0
M  V30 5216 H 476.362 3.26303 3.26074 0
M  V30 5217 H 474.605 3.11717 3.01687 0
M  V30 5218 H 475.276 2.98225 4.64506 0
M  V30 5219 H 477.752 1.16889 3.99345 0
M  V30 5220 H 476.628 1.11065 5.37546 0
M  V30 5221 H 476.889 -0.332372 4.40849 0
M  V30 5222 N 475.948 -1.35272 0.808662 0
M  V30 5223 C 477.194 -1.99003 0.390581 0
M  V30 5224 C 477.527 -1.63999 -1.0401 0
M  V30 5225 O 476.802 -0.904368 -1.72196 0
M  V30 5226 C 477.085 -3.55454 0.576566 0
M  V30 5227 C 476.938 -4.00249 2.05233 0
M  V30 5228 C 478.257 -4.401 0.00354277 0
M  V30 5229 H 475.376 -0.722917 0.143388 0
M  V30 5230 H 478.018 -1.6039 1.01858 0
M  V30 5231 H 476.168 -3.88477 0.0419766 0
M  V30 5232 H 477.84 -3.77626 2.64946 0
M  V30 5233 H 476.083 -3.51082 2.54801 0
M  V30 5234 H 476.754 -5.0911 2.13333 0
M  V30 5235 H 479.23 -4.13548 0.460117 0
M  V30 5236 H 478.106 -5.48656 0.163575 0
M  V30 5237 H 478.367 -4.28444 -1.09032 0
M  V30 5238 N 477.426 -0.562348 -1.47226 0
M  V30 5239 C 478.373 0.182461 -2.30078 0
M  V30 5240 C 479.343 0.903503 -1.39377 0
M  V30 5241 O 480.528 0.898188 -1.68337 0
M  V30 5242 C 477.668 1.20322 -3.23445 0
M  V30 5243 C 476.781 0.487717 -4.29238 0
M  V30 5244 C 475.916 1.49422 -5.09752 0
M  V30 5245 C 474.955 0.763976 -6.07314 0
M  V30 5246 N 474.092 1.71755 -6.80768 0
M  V30 5247 H 478.932 -0.530169 -2.93246 0
M  V30 5248 H 476.469 -0.273276 -1.44539 0
M  V30 5249 H 478.427 1.80768 -3.76004 0
M  V30 5250 H 477.057 1.88382 -2.6213 0
M  V30 5251 H 476.109 -0.231374 -3.79696 0
M  V30 5252 H 477.421 -0.0841003 -4.98729 0
M  V30 5253 H 476.575 2.17206 -5.66486 0
M  V30 5254 H 475.314 2.09995 -4.40174 0
M  V30 5255 H 474.319 0.0722344 -5.49753 0
M  V30 5256 H 475.544 0.16391 -6.78902 0
M  V30 5257 H 473.49 2.31177 -6.13916 0
M  V30 5258 H 473.407 1.19802 -7.46447 0
M  V30 5259 H 474.675 2.38638 -7.42073 0
M  V30 5260 N 478.904 1.54736 -0.299062 0
M  V30 5261 C 480.315 1.8569 0.193971 0
M  V30 5262 C 480.666 1.22101 1.53577 0
M  V30 5263 O 479.791 0.51799 2.10109 0
M  V30 5264 C 480.386 3.36895 0.358733 0
M  V30 5265 C 478.945 3.67887 0.795986 0
M  V30 5266 C 478.092 2.77131 -0.096807 0
M  V30 5267 H 481.043 1.49934 -0.520134 0
M  V30 5268 H 481.064 3.61294 1.19361 0
M  V30 5269 H 480.576 3.83148 -0.617998 0
M  V30 5270 H 478.677 3.27151 1.78334 0
M  V30 5271 H 478.79 4.75114 0.616718 0
M  V30 5272 H 477.154 2.51153 0.423581 0
M  V30 5273 H 477.937 3.26204 -1.06986 0
M  V30 5274 N 480.382 0.0267497 1.57577 0
M  V30 5275 C 481.332 -0.965003 2.06571 0
M  V30 5276 C 482.316 -1.28694 0.965746 0
M  V30 5277 O 483.508 -1.27345 1.22932 0
M  V30 5278 C 480.637 -2.24821 2.59443 0
M  V30 5279 C 479.723 -1.95474 3.76365 0
M  V30 5280 N 480.114 -1.36387 4.87065 0
M  V30 5281 C 478.412 -2.25478 3.84806 0
M  V30 5282 C 479.113 -1.24119 5.68304 0
M  V30 5283 N 478.089 -1.7359 5.15138 0
M  V30 5284 H 481.891 -0.503095 2.89562 0
M  V30 5285 H 479.405 -0.178322 1.61418 0
M  V30 5286 H 481.402 -2.9674 2.92833 0
M  V30 5287 H 480.062 -2.7164 1.77881 0
M  V30 5288 H 481.073 -1.03919 5.07367 0
M  V30 5289 H 477.75 -2.74987 3.14147 0
M  V30 5290 H 479.14 -0.784504 6.67304 0
M  V30 5291 N 481.861 -1.55662 -0.24637 0
M  V30 5292 C 482.771 -1.93495 -1.32653 0
M  V30 5293 C 483.787 -0.835462 -1.5263 0
M  V30 5294 O 484.963 -1.1369 -1.66242 0
M  V30 5295 C 482.028 -2.22242 -2.66101 0
M  V30 5296 C 481.089 -3.45625 -2.54641 0
M  V30 5297 C 480.322 -3.72991 -3.81724 0
M  V30 5298 O 480.545 -3.02421 -4.8363 0
M  V30 5299 O 479.479 -4.66515 -3.80325 0
M  V30 5300 H 483.305 -2.85498 -1.03559 0
M  V30 5301 H 480.89 -1.42551 -0.44717 0
M  V30 5302 H 482.772 -2.42037 -3.44958 0
M  V30 5303 H 481.447 -1.33417 -2.94926 0
M  V30 5304 H 480.354 -3.31136 -1.74067 0
M  V30 5305 H 481.687 -4.34754 -2.3076 0
M  V30 5306 N 483.339 0.512053 -1.4905 0
M  V30 5307 C 484.286 1.6148 -1.64902 0
M  V30 5308 C 485.256 1.58687 -0.490673 0
M  V30 5309 O 486.441 1.76842 -0.71636 0
M  V30 5310 C 483.581 2.99676 -1.71139 0
M  V30 5311 C 482.694 3.12568 -2.98203 0
M  V30 5312 C 481.829 4.4143 -2.95487 0
M  V30 5313 C 480.868 4.47916 -4.17179 0
M  V30 5314 N 480.005 5.68191 -4.12437 0
M  V30 5315 H 484.845 1.47271 -2.59066 0
M  V30 5316 H 482.382 0.716713 -1.28459 0
M  V30 5317 H 484.34 3.79761 -1.72736 0
M  V30 5318 H 482.97 3.12614 -0.804508 0
M  V30 5319 H 482.022 2.25618 -3.06269 0
M  V30 5320 H 483.334 3.1322 -3.88194 0
M  V30 5321 H 482.488 5.29825 -2.95585 0
M  V30 5322 H 481.227 4.43326 -2.03256 0
M  V30 5323 H 480.232 3.57925 -4.17337 0
M  V30 5324 H 481.457 4.47744 -5.1059 0
M  V30 5325 H 479.403 5.7095 -3.23036 0
M  V30 5326 H 479.32 5.70413 -4.96151 0
M  V30 5327 H 480.588 6.58823 -4.16621 0
M  V30 5328 N 484.817 1.37938 0.762283 0
M  V30 5329 C 486.065 1.33404 1.51815 0
M  V30 5330 C 486.386 -0.0780975 1.94844 0
M  V30 5331 O 485.656 -1.02405 1.67003 0
M  V30 5332 H 484.236 0.490839 0.563104 0
M  V30 5333 H 486.898 1.72527 0.906669 0
M  V30 5334 H 485.994 1.97926 2.41313 0
M  V30 5335 N 486.295 -0.989507 1.22664 0
M  V30 5336 C 487.544 -1.72375 1.04737 0
M  V30 5337 C 487.857 -1.91096 -0.417316 0
M  V30 5338 O 489.063 -2.6188 -0.716334 0
M  V30 5339 C 487.519 -3.10161 1.82561 0
M  V30 5340 C 487.127 -2.99358 3.333 0
M  V30 5341 C 488.871 -3.87607 1.73093 0
M  V30 5342 C 486.778 -4.32319 4.03552 0
M  V30 5343 H 485.708 -0.646326 0.388302 0
M  V30 5344 H 488.359 -1.10437 1.46546 0
M  V30 5345 H 486.741 -3.728 1.33552 0
M  V30 5346 H 487.915 -2.45863 3.89728 0
M  V30 5347 H 486.23 -2.35392 3.43481 0
M  V30 5348 H 488.827 -4.86025 2.22899 0
M  V30 5349 H 489.17 -4.10509 0.691976 0
M  V30 5350 H 489.703 -3.31652 2.19663 0
M  V30 5351 H 486.442 -4.14616 5.07714 0
M  V30 5352 H 485.962 -4.85714 3.51911 0
M  V30 5353 H 487.641 -5.01051 4.09337 0
M  V30 5354 N 487.773 -1.03688 -1.18687 0
M  V30 5355 C 488.721 -0.618292 -2.24232 0
M  V30 5356 C 489.715 0.353045 -1.6568 0
M  V30 5357 O 490.921 0.220749 -1.78641 0
M  V30 5358 H 487.296 -0.181711 -0.729716 0
M  V30 5359 H 489.267 -1.51893 -2.56848 0
M  V30 5360 C 488.016 0.00677342 -3.47699 0
M  V30 5361 H 487.339 -0.731692 -3.93047 0
M  V30 5362 H 488.779 0.262492 -4.23187 0
M  V30 5363 C 487.238 1.25572 -3.12623 0
M  V30 5364 O 487.768 2.34691 -3.26011 0
M  V30 5365 N 485.974 1.14755 -2.66982 0
M  V30 5366 H 485.521 0.259601 -2.56289 0
M  V30 5367 H 485.479 1.98412 -2.43885 0
M  V30 5368 N 489.251 1.34841 -0.815825 0
M  V30 5369 C 490.662 1.80937 -0.46029 0
M  V30 5370 C 491.013 1.67685 1.01863 0
M  V30 5371 O 490.138 1.21277 1.79223 0
M  V30 5372 C 490.733 3.28509 -0.828708 0
M  V30 5373 C 489.292 3.72712 -0.525644 0
M  V30 5374 C 488.439 2.56676 -1.04941 0
M  V30 5375 H 491.39 1.22688 -1.00664 0
M  V30 5376 H 491.411 3.80279 -0.129757 0
M  V30 5377 H 490.923 3.38122 -1.90513 0
M  V30 5378 H 489.024 3.68642 0.541666 0
M  V30 5379 H 489.137 4.67119 -1.06474 0
M  V30 5380 H 487.501 2.50302 -0.471286 0
M  V30 5381 H 488.284 2.69063 -2.13214 0
M  V30 5382 N 490.729 0.570148 1.46925 0
M  V30 5383 C 491.677 -0.183181 2.31878 0
M  V30 5384 C 492.671 -0.896721 1.43719 0
M  V30 5385 O 493.877 -0.816536 1.60414 0
M  V30 5386 H 490.252 -0.077944 0.74795 0
M  V30 5387 H 492.223 0.552312 2.93244 0
M  V30 5388 C 490.972 -1.19172 3.2664 0
M  V30 5389 H 490.295 -0.652088 3.94446 0
M  V30 5390 H 491.735 -1.68946 3.88887 0
M  V30 5391 C 490.194 -2.24627 2.51086 0
M  V30 5392 O 490.724 -3.31773 2.26472 0
M  V30 5393 N 488.93 -1.98898 2.11867 0
M  V30 5394 H 488.477 -1.11777 2.32086 0
M  V30 5395 H 488.435 -2.6967 1.61634 0
M  V30 5396 N 492.207 -1.54576 0.307264 0
M  V30 5397 C 493.437 -2.04378 -0.302158 0
M  V30 5398 C 493.845 -1.18381 -1.47589 0
M  V30 5399 O 493.188 -0.20352 -1.82569 0
M  V30 5400 C 493.25 -3.50133 -0.815305 0
M  V30 5401 C 492.914 -4.56401 0.233977 0
M  V30 5402 C 493.911 -5.08884 1.06456 0
M  V30 5403 C 491.596 -5.0088 0.377478 0
M  V30 5404 C 493.59 -6.04394 2.02452 0
M  V30 5405 C 491.277 -5.96208 1.34088 0
M  V30 5406 C 492.275 -6.47849 2.16288 0
M  V30 5407 O 491.963 -7.41308 3.10994 0
M  V30 5408 H 491.695 -0.672502 -0.0686839 0
M  V30 5409 H 494.249 -2.00484 0.446682 0
M  V30 5410 H 492.479 -3.51371 -1.61478 0
M  V30 5411 H 494.168 -3.83098 -1.34129 0
M  V30 5412 H 494.934 -4.75311 0.964596 0
M  V30 5413 H 490.813 -4.60309 -0.252405 0
M  V30 5414 H 494.357 -6.44626 2.66652 0
M  V30 5415 H 490.254 -6.29198 1.44154 0
M  V30 5416 H 491.022 -7.5913 3.06045 0
M  V30 5417 N 493.685 -0.035106 -1.57561 0
M  V30 5418 C 494.615 0.942993 -2.13612 0
M  V30 5419 C 495.596 1.33531 -1.05373 0
M  V30 5420 O 496.781 1.41287 -1.33235 0
M  V30 5421 C 493.911 2.22332 -2.66807 0
M  V30 5422 C 492.865 1.97156 -3.79886 0
M  V30 5423 C 492.191 3.31506 -4.19533 0
M  V30 5424 C 493.491 1.30596 -5.05709 0
M  V30 5425 H 495.185 0.476179 -2.95589 0
M  V30 5426 H 492.731 0.227602 -1.4219 0
M  V30 5427 H 494.684 2.91142 -3.04654 0
M  V30 5428 H 493.408 2.7119 -1.81999 0
M  V30 5429 H 492.067 1.30763 -3.42486 0
M  V30 5430 H 491.715 3.78134 -3.31698 0
M  V30 5431 H 491.415 3.15465 -4.95738 0
M  V30 5432 H 492.939 4.01574 -4.59968 0
M  V30 5433 H 494.353 1.89416 -5.41105 0
M  V30 5434 H 492.75 1.24934 -5.86951 0
M  V30 5435 H 493.82 0.279742 -4.84092 0
M  V30 5436 N 495.163 1.55791 0.238111 0
M  V30 5437 C 496.093 1.94068 1.29846 0
M  V30 5438 C 497.074 0.806726 1.49753 0
M  V30 5439 O 498.259 1.06772 1.62214 0
M  V30 5440 C 495.389 2.24302 2.65153 0
M  V30 5441 C 494.343 3.40032 2.59927 0
M  V30 5442 C 493.669 3.55829 3.99111 0
M  V30 5443 C 494.969 4.75476 2.16148 0
M  V30 5444 H 496.663 2.82887 0.980563 0
M  V30 5445 H 494.209 1.36105 0.470253 0
M  V30 5446 H 496.162 2.4967 3.39475 0
M  V30 5447 H 494.886 1.32318 2.98596 0
M  V30 5448 H 493.545 3.14687 1.88063 0
M  V30 5449 H 493.193 2.6125 4.29834 0
M  V30 5450 H 492.893 4.3366 3.96501 0
M  V30 5451 H 494.417 3.83528 4.7512 0
M  V30 5452 H 495.831 5.00158 2.80205 0
M  V30 5453 H 494.228 5.56472 2.24631 0
M  V30 5454 H 495.298 4.71946 1.11333 0
M  V30 5455 N 496.642 -0.504142 1.49319 0
M  V30 5456 C 497.867 -1.28729 1.62615 0
M  V30 5457 C 498.292 -1.85752 0.296309 0
M  V30 5458 O 497.65 -1.65704 -0.735649 0
M  V30 5459 C 497.698 -2.39561 2.69524 0
M  V30 5460 O 496.802 -3.43324 2.28478 0
M  V30 5461 H 496.143 -0.380172 0.544395 0
M  V30 5462 H 498.673 -0.603872 1.95485 0
M  V30 5463 H 498.683 -2.8537 2.91595 0
M  V30 5464 H 497.358 -1.97423 3.66056 0
M  V30 5465 H 495.935 -3.03455 2.16725 0
M  V30 5466 N 498.12 -1.38341 -0.754957 0
M  V30 5467 C 499.366 -1.35678 -1.51536 0
M  V30 5468 C 499.721 0.0533985 -1.92326 0
M  V30 5469 O 499.014 1.01573 -1.6246 0
M  V30 5470 C 499.208 -2.2452 -2.78075 0
M  V30 5471 C 499.037 -3.74035 -2.49655 0
M  V30 5472 C 497.807 -4.43066 -2.42942 0
M  V30 5473 C 500.005 -4.665 -2.16523 0
M  V30 5474 N 497.987 -5.78026 -2.06783 0
M  V30 5475 C 499.358 -5.89962 -1.90644 0
M  V30 5476 C 501.413 -4.54718 -2.02821 0
M  V30 5477 C 500.116 -7.0296 -1.52444 0
M  V30 5478 C 502.142 -5.67618 -1.66023 0
M  V30 5479 C 501.504 -6.90141 -1.41015 0
M  V30 5480 H 497.603 -0.551764 -0.554148 0
M  V30 5481 H 500.187 -1.73716 -0.879258 0
M  V30 5482 H 498.358 -1.88673 -3.39496 0
M  V30 5483 H 500.09 -2.12993 -3.44116 0
M  V30 5484 H 496.845 -3.96264 -2.59367 0
M  V30 5485 H 497.269 -6.49394 -1.91353 0
M  V30 5486 H 501.911 -3.60546 -2.20831 0
M  V30 5487 H 499.629 -7.97051 -1.33174 0
M  V30 5488 H 503.215 -5.6048 -1.56055 0
M  V30 5489 H 502.095 -7.76021 -1.12965 0
M  V30 5490 N 499.598 0.982988 -1.23187 0
M  V30 5491 C 500.545 2.07491 -1.01075 0
M  V30 5492 C 501.515 1.65949 0.070905 0
M  V30 5493 O 502.7 1.90629 -0.0806822 0
M  V30 5494 C 499.84 3.39751 -0.605261 0
M  V30 5495 C 498.953 3.94578 -1.75876 0
M  V30 5496 C 498.088 5.15039 -1.3003 0
M  V30 5497 C 497.127 5.62027 -2.42472 0
M  V30 5498 N 496.264 6.73719 -1.97602 0
M  V30 5499 H 501.104 2.25739 -1.9454 0
M  V30 5500 H 498.641 1.10659 -0.969179 0
M  V30 5501 H 500.599 4.15719 -0.351279 0
M  V30 5502 H 499.229 3.21473 0.292382 0
M  V30 5503 H 498.281 3.1539 -2.12681 0
M  V30 5504 H 499.593 4.25422 -2.60418 0
M  V30 5505 H 498.747 5.9833 -1.00429 0
M  V30 5506 H 497.486 4.85843 -0.425216 0
M  V30 5507 H 496.491 4.77318 -2.7285 0
M  V30 5508 H 497.716 5.93244 -3.30512 0
M  V30 5509 H 495.662 6.46287 -1.1247 0
M  V30 5510 H 495.579 7.03934 -2.75705 0
M  V30 5511 H 496.847 7.6049 -1.71098 0
M  V30 5512 N 501.076 1.04316 1.18135 0
M  V30 5513 C 502.008 0.594444 2.21357 0
M  V30 5514 C 503.021 -0.337215 1.59269 0
M  V30 5515 O 504.21 -0.131337 1.78016 0
M  V30 5516 C 501.31 -0.151251 3.38562 0
M  V30 5517 C 500.483 0.788907 4.30227 0
M  V30 5518 C 499.542 0.0860572 5.2613 0
M  V30 5519 O 498.568 0.717302 5.64662 0
M  V30 5520 N 499.77 -1.17969 5.68387 0
M  V30 5521 H 502.535 1.48227 2.60478 0
M  V30 5522 H 500.096 0.92396 1.32946 0
M  V30 5523 H 502.088 -0.631352 3.99745 0
M  V30 5524 H 500.658 -0.940639 2.98112 0
M  V30 5525 H 499.878 1.44882 3.6661 0
M  V30 5526 H 501.166 1.42738 4.88368 0
M  V30 5527 H 500.564 -1.71302 5.3914 0
M  V30 5528 H 499.121 -1.60402 6.31755 0
M  V30 5529 N 502.554 -1.34406 0.822964 0
M  V30 5530 C 503.8 -1.98578 0.411666 0
M  V30 5531 C 504.133 -1.65093 -1.02264 0
M  V30 5532 O 503.408 -0.92258 -1.71227 0
M  V30 5533 C 503.691 -3.54823 0.614235 0
M  V30 5534 C 503.544 -3.9805 2.09466 0
M  V30 5535 C 504.863 -4.40071 0.050221 0
M  V30 5536 H 501.982 -0.721355 0.151047 0
M  V30 5537 H 504.624 -1.59301 1.03554 0
M  V30 5538 H 502.774 -3.88411 0.0831774 0
M  V30 5539 H 504.446 -3.74795 2.68936 0
M  V30 5540 H 502.689 -3.4836 2.5851 0
M  V30 5541 H 503.36 -5.06819 2.18721 0
M  V30 5542 H 505.836 -4.13037 0.503953 0
M  V30 5543 H 504.712 -5.48452 0.221759 0
M  V30 5544 H 504.973 -4.29576 -1.04482 0
M  V30 5545 N 504.032 -0.577932 -1.46621 0
M  V30 5546 C 504.962 0.145917 -2.33044 0
M  V30 5547 C 505.943 0.888412 -1.45056 0
M  V30 5548 O 507.128 0.864812 -1.73881 0
M  V30 5549 C 504.258 1.16322 -3.27241 0
M  V30 5550 C 503.212 0.535868 -4.24632 0
M  V30 5551 C 502.538 1.65929 -5.08303 0
M  V30 5552 C 503.838 -0.523861 -5.19666 0
M  V30 5553 H 505.532 -0.575636 -2.93814 0
M  V30 5554 H 503.078 -0.278272 -1.41286 0
M  V30 5555 H 505.031 1.67793 -3.86553 0
M  V30 5556 H 503.755 1.91498 -2.64567 0
M  V30 5557 H 502.414 0.0422759 -3.66576 0
M  V30 5558 H 502.062 2.40061 -4.42018 0
M  V30 5559 H 501.762 1.2452 -5.74255 0
M  V30 5560 H 503.286 2.17686 -5.70478 0
M  V30 5561 H 504.7 -0.0944059 -5.73222 0
M  V30 5562 H 503.097 -0.858 -5.93935 0
M  V30 5563 H 504.167 -1.41197 -4.63887 0
M  V30 5564 N 505.51 1.54411 -0.315457 0
M  V30 5565 C 506.473 2.22713 0.54142 0
M  V30 5566 C 507.473 1.2179 1.04995 0
M  V30 5567 O 508.663 1.46426 0.943667 0
M  V30 5568 C 505.795 2.92485 1.75116 0
M  V30 5569 H 506.988 2.99849 -0.0555508 0
M  V30 5570 H 504.541 1.56159 -0.0664453 0
M  V30 5571 H 505.276 2.19466 2.38758 0
M  V30 5572 H 505.061 3.66483 1.39401 0
M  V30 5573 H 506.551 3.44548 2.35959 0
M  V30 5574 N 506.988 0.0434614 1.5754 0
M  V30 5575 C 507.898 -0.94893 2.14552 0
M  V30 5576 C 508.914 -1.34707 1.10136 0
M  V30 5577 O 510.09 -1.42557 1.42266 0
M  V30 5578 C 507.155 -2.208 2.67298 0
M  V30 5579 C 506.216 -1.86893 3.86484 0
M  V30 5580 C 505.449 -3.06797 4.36705 0
M  V30 5581 O 505.672 -4.19921 3.86034 0
M  V30 5582 O 504.606 -2.8826 5.28384 0
M  V30 5583 H 508.432 -0.494099 2.99654 0
M  V30 5584 H 506.017 -0.177989 1.48336 0
M  V30 5585 H 507.899 -2.94686 3.01228 0
M  V30 5586 H 506.574 -2.65436 1.85272 0
M  V30 5587 H 505.481 -1.10347 3.57455 0
M  V30 5588 H 506.814 -1.47062 4.69716 0
M  V30 5589 N 508.466 -1.55915 -0.229846 0
M  V30 5590 C 509.396 -1.94754 -1.28815 0
M  V30 5591 C 510.377 -0.814657 -1.49323 0
M  V30 5592 O 511.562 -1.07631 -1.61645 0
M  V30 5593 C 508.692 -2.25705 -2.63959 0
M  V30 5594 C 507.646 -3.41406 -2.5812 0
M  V30 5595 C 506.972 -3.57941 -3.97218 0
M  V30 5596 C 508.272 -4.76616 -2.13623 0
M  V30 5597 H 509.966 -2.83404 -0.965547 0
M  V30 5598 H 507.512 -1.36353 -0.463028 0
M  V30 5599 H 509.465 -2.51467 -3.38146 0
M  V30 5600 H 508.189 -1.339 -2.9789 0
M  V30 5601 H 506.848 -3.1568 -1.86391 0
M  V30 5602 H 506.496 -2.63526 -4.28443 0
M  V30 5603 H 506.196 -4.35757 -3.94195 0
M  V30 5604 H 507.72 -3.86042 -4.73079 0
M  V30 5605 H 509.134 -5.01637 -2.77549 0
M  V30 5606 H 507.531 -5.57655 -2.21677 0
M  V30 5607 H 508.601 -4.7253 -1.08829 0
M  V30 5608 N 509.944 0.496216 -1.49584 0
M  V30 5609 C 510.876 1.61404 -1.62731 0
M  V30 5610 C 511.889 1.54613 -0.50978 0
M  V30 5611 O 513.078 1.60458 -0.782017 0
M  V30 5612 C 510.178 3.00212 -1.57245 0
M  V30 5613 C 509.351 3.32138 -2.84611 0
M  V30 5614 C 508.41 4.5038 -2.72112 0
M  V30 5615 O 507.436 4.51926 -3.46051 0
M  V30 5616 N 508.638 5.50575 -1.83977 0
M  V30 5617 H 511.403 1.50552 -2.59141 0
M  V30 5618 H 508.964 0.684182 -1.46733 0
M  V30 5619 H 510.956 3.77241 -1.4653 0
M  V30 5620 H 509.526 3.04964 -0.686729 0
M  V30 5621 H 508.746 2.4396 -3.09641 0
M  V30 5622 H 510.034 3.50268 -3.69039 0
M  V30 5623 H 509.432 5.52128 -1.23171 0
M  V30 5624 H 507.989 6.26687 -1.79182 0
M  V30 5625 N 511.423 1.38739 0.74761 0
M  V30 5626 C 512.7 1.25791 1.49786 0
M  V30 5627 C 513.08 -0.138075 2.10648 0
M  V30 5628 O 512.428 -1.14815 1.9756 0
M  V30 5629 C 512.638 2.37265 2.55942 0
M  V30 5630 C 513.986 2.75978 3.22679 0
M  V30 5631 O 515.01 2.36621 2.6625 0
M  V30 5632 O 513.869 3.43867 4.24756 0
M  V30 5633 H 510.963 0.492251 0.664543 0
M  V30 5634 H 513.509 1.50582 0.782511 0
M  V30 5635 H 512.281 3.30644 2.0926 0
M  V30 5636 H 511.904 2.14071 3.35051 0
M  V30 5637 N 512.901 -0.976442 1.23707 0
M  V30 5638 C 514.15 -1.71254 1.06559 0
M  V30 5639 C 514.463 -1.91528 -0.397024 0
M  V30 5640 O 515.669 -2.62625 -0.688518 0
M  V30 5641 C 514.125 -3.08207 1.8584 0
M  V30 5642 C 513.733 -2.95806 3.36456 0
M  V30 5643 C 515.477 -3.85749 1.77194 0
M  V30 5644 C 513.384 -4.28015 4.08114 0
M  V30 5645 H 512.314 -0.642171 0.395136 0
M  V30 5646 H 514.965 -1.08877 1.4771 0
M  V30 5647 H 513.347 -3.71363 1.37498 0
M  V30 5648 H 514.521 -2.41716 3.92314 0
M  V30 5649 H 512.836 -2.31736 3.45959 0
M  V30 5650 H 515.433 -4.83633 2.28041 0
M  V30 5651 H 515.776 -4.09752 0.735477 0
M  V30 5652 H 516.309 -3.29303 2.23169 0
M  V30 5653 H 513.048 -4.09208 5.12083 0
M  V30 5654 H 512.568 -4.81955 3.57043 0
M  V30 5655 H 514.247 -4.96681 4.14629 0
M  V30 5656 N 514.379 -1.04941 -1.1758 0
M  V30 5657 C 515.289 -0.658826 -2.25159 0
M  V30 5658 C 516.305 0.318941 -1.71052 0
M  V30 5659 O 517.481 0.171669 -2.00667 0
M  V30 5660 C 514.546 -0.0369522 -3.4668 0
M  V30 5661 C 513.607 -1.06484 -4.15884 0
M  V30 5662 C 512.84 -0.472551 -5.31604 0
M  V30 5663 O 513.063 0.718736 -5.65854 0
M  V30 5664 O 511.997 -1.20557 -5.89703 0
M  V30 5665 H 515.823 -1.55533 -2.60851 0
M  V30 5666 H 513.408 -0.820819 -1.24832 0
M  V30 5667 H 515.29 0.308784 -4.20267 0
M  V30 5668 H 513.965 0.833238 -3.12792 0
M  V30 5669 H 512.872 -1.46253 -3.44327 0
M  V30 5670 H 514.205 -1.9061 -4.53794 0
M  V30 5671 N 515.857 1.33968 -0.830081 0
M  V30 5672 C 516.805 2.31301 -0.245435 0
M  V30 5673 C 517.799 1.57734 0.617762 0
M  V30 5674 O 519.005 1.72674 0.508303 0
M  V30 5675 H 515.38 0.749552 -0.0606316 0
M  V30 5676 H 517.351 2.78129 -1.08105 0
M  V30 5677 C 516.1 3.42961 0.572084 0
M  V30 5678 H 515.423 3.99714 -0.0828118 0
M  V30 5679 H 516.863 4.13286 0.94715 0
M  V30 5680 C 515.322 2.88043 1.74737 0
M  V30 5681 O 515.852 2.83508 2.8458 0
M  V30 5682 N 514.058 2.44768 1.56642 0
M  V30 5683 H 513.605 2.48656 0.672901 0
M  V30 5684 H 513.563 2.08375 2.3543 0
M  V30 5685 N 517.335 0.585699 1.46312 0
M  V30 5686 C 518.245 -0.148236 2.34131 0
M  V30 5687 C 519.261 -0.882972 1.49932 0
M  V30 5688 O 520.437 -0.845484 1.82794 0
M  V30 5689 C 517.502 -1.14714 3.27172 0
M  V30 5690 C 516.563 -0.416746 4.27272 0
M  V30 5691 C 515.796 -1.36806 5.15868 0
M  V30 5692 O 516.019 -2.60475 5.07454 0
M  V30 5693 O 514.953 -0.877018 5.95476 0
M  V30 5694 H 518.779 0.572882 2.98248 0
M  V30 5695 H 516.364 0.346082 1.45336 0
M  V30 5696 H 518.246 -1.72303 3.84564 0
M  V30 5697 H 516.921 -1.84967 2.65648 0
M  V30 5698 H 515.828 0.201061 3.73559 0
M  V30 5699 H 517.161 0.244872 4.9159 0
M  V30 5700 N 518.813 -1.54241 0.323641 0
M  V30 5701 C 519.723 -2.28033 -0.551205 0
M  V30 5702 C 520.739 -1.32388 -1.12913 0
M  V30 5703 O 521.915 -1.65403 -1.14908 0
M  V30 5704 C 518.98 -3.02382 -1.69606 0
M  V30 5705 C 518.041 -4.13612 -1.14993 0
M  V30 5706 C 517.274 -4.84407 -2.24022 0
M  V30 5707 O 517.497 -4.54716 -3.44368 0
M  V30 5708 O 516.431 -5.71312 -1.89436 0
M  V30 5709 H 520.257 -3.03662 0.048066 0
M  V30 5710 H 517.842 -1.49133 0.0893289 0
M  V30 5711 H 519.724 -3.48941 -2.36259 0
M  V30 5712 H 518.399 -2.29628 -2.28151 0
M  V30 5713 H 517.306 -3.71402 -0.448484 0
M  V30 5714 H 518.639 -4.8841 -0.609608 0
M  V30 5715 N 520.291 -0.0518155 -1.57515 0
M  V30 5716 C 521.238 0.922352 -2.11569 0
M  V30 5717 C 522.208 1.30842 -1.02321 0
M  V30 5718 O 523.393 1.39778 -1.29872 0
M  V30 5719 C 520.533 2.19167 -2.6657 0
M  V30 5720 C 519.646 1.86003 -3.89906 0
M  V30 5721 C 518.781 3.07398 -4.33221 0
M  V30 5722 C 517.82 2.70158 -5.49255 0
M  V30 5723 N 516.957 3.84248 -5.8762 0
M  V30 5724 H 521.797 0.454506 -2.94514 0
M  V30 5725 H 519.334 0.212718 -1.45554 0
M  V30 5726 H 521.292 2.93443 -2.96559 0
M  V30 5727 H 519.922 2.63528 -1.86421 0
M  V30 5728 H 518.974 1.01874 -3.66505 0
M  V30 5729 H 520.286 1.54592 -4.74239 0
M  V30 5730 H 519.44 3.89972 -4.64765 0
M  V30 5731 H 518.179 3.41988 -3.477 0
M  V30 5732 H 517.184 1.86001 -5.17382 0
M  V30 5733 H 518.409 2.36759 -6.36492 0
M  V30 5734 H 516.355 4.18638 -5.05053 0
M  V30 5735 H 516.272 3.56538 -6.66646 0
M  V30 5736 H 517.54 4.6746 -6.2378 0
M  V30 5737 N 521.769 1.56035 0.221574 0
M  V30 5738 C 523.018 1.78245 0.944016 0
M  V30 5739 C 523.331 0.620371 1.85501 0
M  V30 5740 O 524.537 0.726103 2.6161 0
M  V30 5741 C 522.993 3.15659 1.7288 0
M  V30 5742 C 522.601 4.39591 0.863942 0
M  V30 5743 C 524.345 3.47195 2.44246 0
M  V30 5744 C 522.252 5.6803 1.64607 0
M  V30 5745 H 521.182 0.664547 0.356222 0
M  V30 5746 H 523.833 1.8243 0.197904 0
M  V30 5747 H 522.215 3.0565 2.51781 0
M  V30 5748 H 523.389 4.60655 0.115464 0
M  V30 5749 H 521.704 4.15572 0.262407 0
M  V30 5750 H 524.301 4.40381 3.03263 0
M  V30 5751 H 524.644 2.69693 3.1713 0
M  V30 5752 H 525.177 3.58533 1.72334 0
M  V30 5753 H 521.916 6.48425 0.960507 0
M  V30 5754 H 521.436 5.51027 2.36917 0
M  V30 5755 H 523.115 6.08203 2.20675 0
M  V30 5756 N 523.247 -0.488276 1.49845 0
M  V30 5757 C 524.658 -1.06955 1.53028 0
M  V30 5758 C 525.009 -1.9351 0.323797 0
M  V30 5759 O 524.134 -2.08891 -0.565116 0
M  V30 5760 C 524.729 -1.94643 2.77307 0
M  V30 5761 C 523.288 -2.4791 2.83227 0
M  V30 5762 C 522.435 -1.25833 2.47106 0
M  V30 5763 H 525.386 -0.271626 1.56358 0
M  V30 5764 H 525.407 -2.79496 2.5819 0
M  V30 5765 H 524.919 -1.31621 3.65099 0
M  V30 5766 H 523.02 -3.14535 1.99745 0
M  V30 5767 H 523.133 -2.84193 3.85709 0
M  V30 5768 H 521.497 -1.58764 1.99163 0
M  V30 5769 H 522.28 -0.644993 3.37186 0
M  V30 5770 N 524.725 -1.39134 -0.740242 0
M  V30 5771 C 525.672 -1.37434 -1.8542 0
M  V30 5772 C 526.642 -0.234822 -1.64432 0
M  V30 5773 O 527.827 -0.429125 -1.85912 0
M  V30 5774 C 524.967 -1.21844 -3.22875 0
M  V30 5775 C 524.08 -2.45296 -3.55603 0
M  V30 5776 C 523.215 -2.22334 -4.82432 0
M  V30 5777 C 522.254 -3.41488 -5.07988 0
M  V30 5778 N 521.391 -3.17877 -6.26018 0
M  V30 5779 H 526.231 -2.3266 -1.86207 0
M  V30 5780 H 523.768 -1.15578 -0.909946 0
M  V30 5781 H 525.726 -1.10818 -4.02213 0
M  V30 5782 H 524.356 -0.3025 -3.21379 0
M  V30 5783 H 523.408 -2.66945 -2.71006 0
M  V30 5784 H 524.72 -3.34063 -3.7041 0
M  V30 5785 H 523.874 -2.0852 -5.69741 0
M  V30 5786 H 522.613 -1.30954 -4.6979 0
M  V30 5787 H 521.618 -3.55807 -4.19144 0
M  V30 5788 H 522.843 -4.33763 -5.22519 0
M  V30 5789 H 520.789 -2.29156 -6.14673 0
M  V30 5790 H 520.706 -4.00198 -6.41387 0
M  V30 5791 H 521.974 -3.07746 -7.16179 0
M  V30 5792 N 526.204 0.969867 -1.24223 0
M  V30 5793 C 527.432 1.74756 -1.10761 0
M  V30 5794 C 527.847 1.85713 0.340041 0
M  V30 5795 O 527.204 1.34389 1.23474 0
M  V30 5796 C 527.255 3.16915 -1.73917 0
M  V30 5797 O 526.976 3.06511 -3.13021 0
M  V30 5798 C 528.477 4.11032 -1.66036 0
M  V30 5799 H 525.697 0.548092 -0.387087 0
M  V30 5800 H 528.241 1.2178 -1.64286 0
M  V30 5801 H 526.396 3.66884 -1.244 0
M  V30 5802 H 526.81 3.96079 -3.43834 0
M  V30 5803 H 528.284 5.08446 -2.14911 0
M  V30 5804 H 528.761 4.34785 -0.621159 0
M  V30 5805 H 529.367 3.66972 -2.14969 0
M  V30 5806 N 527.682 1.05563 1.17022 0
M  V30 5807 C 528.629 0.659893 2.21165 0
M  V30 5808 C 529.599 -0.339813 1.62587 0
M  V30 5809 O 530.784 -0.230378 1.89404 0
M  V30 5810 C 527.924 0.0447297 3.45071 0
M  V30 5811 C 527.037 1.09372 4.17926 0
M  V30 5812 C 526.172 0.445481 5.29329 0
M  V30 5813 C 525.211 1.47852 5.93975 0
M  V30 5814 N 524.348 0.854172 6.96885 0
M  V30 5815 H 529.188 1.55243 2.54369 0
M  V30 5816 H 526.725 0.776336 1.24946 0
M  V30 5817 H 528.683 -0.329404 4.15898 0
M  V30 5818 H 527.313 -0.811244 3.1244 0
M  V30 5819 H 526.365 1.58564 3.45777 0
M  V30 5820 H 527.677 1.87773 4.62107 0
M  V30 5821 H 526.831 0.0179688 6.06697 0
M  V30 5822 H 525.57 -0.370481 4.86291 0
M  V30 5823 H 524.575 1.91601 5.15334 0
M  V30 5824 H 525.8 2.29645 6.39093 0
M  V30 5825 H 523.746 0.0587882 6.55974 0
M  V30 5826 H 523.663 1.57567 7.39397 0
M  V30 5827 H 524.931 0.451559 7.78191 0
M  V30 5828 N 529.16 -1.33526 0.837174 0
M  V30 5829 C 530.108 -2.31168 0.257698 0
M  V30 5830 C 531.102 -1.5806 -0.609388 0
M  V30 5831 O 532.308 -1.72941 -0.499139 0
M  V30 5832 H 528.683 -0.74922 0.0646058 0
M  V30 5833 H 530.654 -2.77552 1.09578 0
M  V30 5834 C 529.403 -3.4326 -0.553887 0
M  V30 5835 H 528.726 -3.99665 0.104008 0
M  V30 5836 H 530.166 -4.13782 -0.925219 0
M  V30 5837 C 528.625 -2.88965 -1.73207 0
M  V30 5838 O 529.155 -2.85013 -2.83073 0
M  V30 5839 N 527.361 -2.45596 -1.55342 0
M  V30 5840 H 526.908 -2.49009 -0.659705 0
M  V30 5841 H 526.866 -2.0962 -2.34322 0
M  V30 5842 N 530.638 -0.59345 -1.46 0
M  V30 5843 C 531.571 0.182196 -2.27472 0
M  V30 5844 C 532.549 0.886901 -1.36282 0
M  V30 5845 O 533.733 0.898627 -1.65701 0
M  V30 5846 C 530.86 1.26236 -3.14296 0
M  V30 5847 C 529.906 0.662331 -4.21326 0
M  V30 5848 S 530.739 -0.519017 -5.32979 0
M  V30 5849 C 531.895 0.562086 -6.23371 0
M  V30 5850 H 532.128 -0.509056 -2.92909 0
M  V30 5851 H 529.661 -0.380607 -1.49635 0
M  V30 5852 H 531.619 1.88075 -3.64881 0
M  V30 5853 H 530.28 1.92562 -2.48151 0
M  V30 5854 H 529.473 1.47461 -4.81945 0
M  V30 5855 H 529.075 0.119381 -3.73809 0
M  V30 5856 H 531.367 1.44494 -6.61912 0
M  V30 5857 H 532.31 -0.00760776 -7.081 0
M  V30 5858 H 532.718 0.871061 -5.57739 0
M  V30 5859 N 532.116 1.54067 -0.331816 0
M  V30 5860 C 533.063 2.24623 0.530372 0
M  V30 5861 C 534.033 1.24009 1.10503 0
M  V30 5862 O 535.218 1.52712 1.14384 0
M  V30 5863 C 532.358 3.01374 1.68129 0
M  V30 5864 C 531.471 4.16821 1.13507 0
M  V30 5865 C 530.606 4.81085 2.25234 0
M  V30 5866 C 529.645 5.88621 1.67903 0
M  V30 5867 N 528.782 6.46713 2.73326 0
M  V30 5868 H 533.622 2.97898 -0.0778607 0
M  V30 5869 H 531.159 1.47014 -0.0501965 0
M  V30 5870 H 533.117 3.44125 2.35868 0
M  V30 5871 H 531.747 2.30419 2.26069 0
M  V30 5872 H 530.799 3.78796 0.348979 0
M  V30 5873 H 532.111 4.94203 0.675633 0
M  V30 5874 H 531.265 5.26846 3.00862 0
M  V30 5875 H 530.004 4.03102 2.74518 0
M  V30 5876 H 529.009 5.42254 0.907773 0
M  V30 5877 H 530.234 6.68506 1.19487 0
M  V30 5878 H 528.18 5.71599 3.21886 0
M  V30 5879 H 528.097 7.19532 2.3197 0
M  V30 5880 H 529.365 6.97129 3.48758 0
M  V30 5881 N 533.594 0.0601682 1.57485 0
M  V30 5882 C 534.541 -0.91112 2.12055 0
M  V30 5883 C 535.511 -1.30298 1.03013 0
M  V30 5884 O 536.696 -1.39087 1.30612 0
M  V30 5885 C 533.836 -2.1775 2.67729 0
M  V30 5886 C 532.949 -1.83933 3.90887 0
M  V30 5887 C 532.084 -3.05096 4.34845 0
M  V30 5888 C 531.123 -2.67241 5.5068 0
M  V30 5889 N 530.26 -3.81127 5.8965 0
M  V30 5890 H 535.1 -0.43888 2.9475 0
M  V30 5891 H 532.637 -0.204995 1.45665 0
M  V30 5892 H 534.595 -2.91866 2.98111 0
M  V30 5893 H 533.225 -2.62535 1.87816 0
M  V30 5894 H 532.277 -0.999287 3.6704 0
M  V30 5895 H 533.589 -1.52074 4.75052 0
M  V30 5896 H 532.743 -3.87502 4.66827 0
M  V30 5897 H 531.482 -3.40139 3.49509 0
M  V30 5898 H 530.487 -1.83254 5.18361 0
M  V30 5899 H 531.712 -2.3338 6.37738 0
M  V30 5900 H 529.658 -4.15954 5.07266 0
M  V30 5901 H 529.575 -3.52997 6.68528 0
M  V30 5902 H 530.843 -4.64145 6.2625 0
M  V30 5903 N 535.072 -1.5615 -0.213296 0
M  V30 5904 C 536.3 -1.83638 -0.953139 0
M  V30 5905 C 536.715 -0.640362 -1.77609 0
M  V30 5906 O 536.072 0.391071 -1.78261 0
M  V30 5907 C 536.123 -3.09735 -1.86405 0
M  V30 5908 O 535.844 -4.24723 -1.07435 0
M  V30 5909 C 537.345 -3.5027 -2.71709 0
M  V30 5910 H 534.565 -0.610263 -0.278962 0
M  V30 5911 H 537.109 -2.03247 -0.226035 0
M  V30 5912 H 535.264 -2.92077 -2.545 0
M  V30 5913 H 535.678 -4.9641 -1.69343 0
M  V30 5914 H 537.152 -4.41515 -3.31313 0
M  V30 5915 H 537.629 -2.72406 -3.44516 0
M  V30 5916 H 538.235 -3.70396 -2.09015 0
M  V30 5917 N 536.55 0.480323 -1.50102 0
M  V30 5918 C 537.775 1.26126 -1.64642 0
M  V30 5919 C 538.2 1.85257 -0.325823 0
M  V30 5920 O 537.558 1.66854 0.709194 0
M  V30 5921 C 537.606 2.35243 -2.73301 0
M  V30 5922 O 536.71 3.39646 -2.33911 0
M  V30 5923 H 536.051 0.371463 -0.550374 0
M  V30 5924 H 538.581 0.572696 -1.96421 0
M  V30 5925 H 538.591 2.80695 -2.96098 0
M  V30 5926 H 537.266 1.91574 -3.6915 0
M  V30 5927 H 535.843 2.99969 -2.21525 0
M  V30 5928 N 538.028 1.39524 0.732853 0
M  V30 5929 C 538.96 1.34318 1.85718 0
M  V30 5930 C 539.973 0.251576 1.60844 0
M  V30 5931 O 541.162 0.510685 1.71039 0
M  V30 5932 C 538.262 1.06334 3.21786 0
M  V30 5933 C 537.435 2.26813 3.73998 0
M  V30 5934 C 536.494 1.95253 4.88634 0
M  V30 5935 O 535.52 2.67957 5.02183 0
M  V30 5936 N 536.722 0.919984 5.73164 0
M  V30 5937 H 539.487 2.3121 1.90688 0
M  V30 5938 H 537.048 1.33654 0.91368 0
M  V30 5939 H 539.04 0.832363 3.96048 0
M  V30 5940 H 537.61 0.181682 3.12072 0
M  V30 5941 H 536.83 2.65849 2.91064 0
M  V30 5942 H 538.118 3.0717 4.05616 0
M  V30 5943 H 537.516 0.317487 5.64808 0
M  V30 5944 H 536.073 0.748905 6.47483 0
M  V30 5945 N 539.506 -0.963266 1.24736 0
M  V30 5946 C 540.436 -2.07628 1.06832 0
M  V30 5947 C 541.417 -1.70088 -0.0200566 0
M  V30 5948 O 542.602 -1.93636 0.147854 0
M  V30 5949 C 539.732 -3.40636 0.677069 0
M  V30 5950 C 538.686 -3.9215 1.71471 0
M  V30 5951 C 538.012 -5.21553 1.1784 0
M  V30 5952 C 539.312 -4.19493 3.11164 0
M  V30 5953 H 541.006 -2.22864 1.9993 0
M  V30 5954 H 538.552 -1.07093 0.96266 0
M  V30 5955 H 540.505 -4.17941 0.538792 0
M  V30 5956 H 539.229 -3.25313 -0.289612 0
M  V30 5957 H 537.888 -3.17005 1.84128 0
M  V30 5958 H 537.536 -5.02593 0.202195 0
M  V30 5959 H 537.236 -5.56988 1.87185 0
M  V30 5960 H 538.76 -6.01463 1.05233 0
M  V30 5961 H 540.174 -4.87487 3.01711 0
M  V30 5962 H 538.571 -4.66165 3.77902 0
M  V30 5963 H 539.641 -3.26097 3.58871 0
M  V30 5964 N 540.985 -1.06182 -1.16461 0
M  V30 5965 C 541.932 -0.671613 -2.20812 0
M  V30 5966 C 542.902 0.331186 -1.62765 0
M  V30 5967 O 544.087 0.22033 -1.89524 0
M  V30 5968 C 541.227 -0.063029 -3.45042 0
M  V30 5969 C 540.34 -1.11587 -4.1734 0
M  V30 5970 C 539.475 -0.473546 -5.29085 0
M  V30 5971 C 538.514 -1.51 -5.93182 0
M  V30 5972 N 537.651 -0.891118 -6.96422 0
M  V30 5973 H 542.491 -1.56589 -2.53542 0
M  V30 5974 H 540.028 -0.782951 -1.24532 0
M  V30 5975 H 541.986 0.307344 -4.16066 0
M  V30 5976 H 540.616 0.794663 -3.12866 0
M  V30 5977 H 539.668 -1.60396 -3.44931 0
M  V30 5978 H 540.98 -1.90221 -4.61104 0
M  V30 5979 H 540.134 -0.0501432 -6.06679 0
M  V30 5980 H 538.873 0.344687 -4.8648 0
M  V30 5981 H 537.878 -1.94331 -5.14311 0
M  V30 5982 H 539.103 -2.33031 -6.37866 0
M  V30 5983 H 537.049 -0.0935753 -6.55933 0
M  V30 5984 H 536.966 -1.61486 -7.38551 0
M  V30 5985 H 538.234 -0.492822 -7.77941 0
M  V30 5986 N 542.463 1.3308 -0.844243 0
M  V30 5987 C 543.709 1.98304 -0.452453 0
M  V30 5988 C 544.064 1.65645 0.978746 0
M  V30 5989 O 543.357 0.928849 1.6758 0
M  V30 5990 C 543.551 3.52045 -0.616354 0
M  V30 5991 C 543.38 3.99643 -2.06193 0
M  V30 5992 C 542.15 4.27224 -2.69829 0
M  V30 5993 C 544.348 4.15471 -3.03131 0
M  V30 5994 N 542.33 4.60998 -4.05406 0
M  V30 5995 C 543.701 4.52665 -4.23668 0
M  V30 5996 C 545.756 3.97776 -2.99465 0
M  V30 5997 C 544.459 4.74011 -5.41023 0
M  V30 5998 C 546.485 4.20301 -4.16055 0
M  V30 5999 C 545.847 4.57801 -5.35348 0
M  V30 6000 H 541.946 0.752122 -0.214096 0
M  V30 6001 H 544.53 1.61096 -1.09344 0
M  V30 6002 H 542.701 3.884 -0.00513205 0
M  V30 6003 H 544.433 4.04228 -0.19548 0
M  V30 6004 H 541.188 4.18911 -2.20931 0
M  V30 6005 H 541.612 4.82087 -4.75312 0
M  V30 6006 H 546.254 3.67893 -2.08362 0
M  V30 6007 H 543.972 5.02753 -6.32665 0
M  V30 6008 H 547.558 4.08122 -4.14641 0
M  V30 6009 H 546.438 4.74884 -6.24063 0
M  V30 6010 N 543.941 0.601185 1.45683 0
M  V30 6011 C 544.904 -0.111398 2.28929 0
M  V30 6012 C 545.904 -0.801246 1.39416 0
M  V30 6013 O 547.094 -0.650383 1.61603 0
M  V30 6014 C 544.226 -1.16773 3.20276 0
M  V30 6015 H 545.419 0.620412 2.93413 0
M  V30 6016 H 542.972 0.359946 1.52099 0
M  V30 6017 H 543.707 -1.93051 2.60579 0
M  V30 6018 H 543.492 -0.677358 3.86205 0
M  V30 6019 H 544.982 -1.66698 3.82886 0
M  V30 6020 N 545.419 -1.53889 0.339982 0
M  V30 6021 C 546.349 -2.27843 -0.510856 0
M  V30 6022 C 547.33 -1.29267 -1.10563 0
M  V30 6023 O 548.515 -1.58104 -1.12768 0
M  V30 6024 C 545.645 -3.04857 -1.66372 0
M  V30 6025 C 544.599 -4.10907 -1.19746 0
M  V30 6026 C 543.925 -4.75855 -2.43857 0
M  V30 6027 C 545.225 -5.21435 -0.300501 0
M  V30 6028 H 546.919 -2.99212 0.106067 0
M  V30 6029 H 544.465 -1.43904 0.0524533 0
M  V30 6030 H 546.418 -3.5533 -2.26537 0
M  V30 6031 H 545.142 -2.31133 -2.30749 0
M  V30 6032 H 543.801 -3.61342 -0.618654 0
M  V30 6033 H 543.449 -3.9873 -3.06633 0
M  V30 6034 H 543.149 -5.47502 -2.13343 0
M  V30 6035 H 544.673 -5.2911 -3.04754 0
M  V30 6036 H 546.087 -5.67565 -0.80889 0
M  V30 6037 H 544.484 -6.00036 -0.0874076 0
M  V30 6038 H 545.554 -4.80328 0.664321 0
M  V30 6039 N 546.897 -0.0685191 -1.57451 0
M  V30 6040 C 548.145 0.60016 -1.92983 0
M  V30 6041 C 548.466 1.70348 -0.949028 0
M  V30 6042 O 547.736 1.959 0.00335647 0
M  V30 6043 H 546.316 0.224682 -0.712409 0
M  V30 6044 H 548.978 -0.125605 -1.94495 0
M  V30 6045 H 548.074 1.02759 -2.94698 0
M  V30 6046 N 548.375 1.56261 0.205012 0
M  V30 6047 C 549.285 1.96944 1.27476 0
M  V30 6048 C 550.301 0.875636 1.50362 0
M  V30 6049 O 551.477 1.18058 1.6317 0
M  V30 6050 C 548.542 2.29219 2.60115 0
M  V30 6051 C 547.603 3.52255 2.45387 0
M  V30 6052 C 546.836 3.8298 3.71701 0
M  V30 6053 O 547.059 3.15138 4.75441 0
M  V30 6054 O 545.993 4.76435 3.67823 0
M  V30 6055 H 549.819 2.88144 0.959527 0
M  V30 6056 H 547.404 1.43686 0.409217 0
M  V30 6057 H 549.286 2.51098 3.3842 0
M  V30 6058 H 547.961 1.4119 2.91285 0
M  V30 6059 H 546.868 3.35635 1.65227 0
M  V30 6060 H 548.201 4.40719 2.19152 0
M  V30 6061 N 549.853 -0.472356 1.50355 0
M  V30 6062 C 550.801 -1.59126 1.69651 0
M  V30 6063 C 551.795 -1.59793 0.56237 0
M  V30 6064 O 553.001 -1.63957 0.742832 0
M  V30 6065 H 549.376 -0.528008 0.535454 0
M  V30 6066 H 551.347 -1.40013 2.63513 0
M  V30 6067 C 550.096 -2.97075 1.8067 0
M  V30 6068 H 549.419 -2.9728 2.67329 0
M  V30 6069 H 550.859 -3.74825 1.98197 0
M  V30 6070 C 549.318 -3.32247 0.558016 0
M  V30 6071 O 549.848 -4.00553 -0.303399 0
M  V30 6072 N 548.054 -2.87659 0.412415 0
M  V30 6073 H 547.601 -2.32246 1.11443 0
M  V30 6074 H 547.559 -3.11556 -0.421908 0
M  V30 6075 N 551.331 -1.39911 -0.725443 0
M  V30 6076 C 552.264 -1.33788 -1.84867 0
M  V30 6077 C 553.242 -0.209907 -1.61239 0
M  V30 6078 O 554.426 -0.391943 -1.8438 0
M  V30 6079 C 551.553 -1.07975 -3.21028 0
M  V30 6080 C 550.599 -2.23092 -3.635 0
M  V30 6081 S 551.432 -3.85431 -3.71757 0
M  V30 6082 C 552.588 -3.61862 -5.10692 0
M  V30 6083 H 552.821 -2.28848 -1.89779 0
M  V30 6084 H 550.354 -1.26079 -0.891254 0
M  V30 6085 H 552.312 -0.937669 -3.99647 0
M  V30 6086 H 550.973 -0.145865 -3.13761 0
M  V30 6087 H 550.166 -2.00647 -4.62338 0
M  V30 6088 H 549.768 -2.33553 -2.92112 0
M  V30 6089 H 552.06 -3.19719 -5.97316 0
M  V30 6090 H 553.003 -4.60196 -5.38169 0
M  V30 6091 H 553.411 -2.95757 -4.8082 0
M  V30 6092 N 552.809 0.956637 -1.25245 0
M  V30 6093 C 553.772 2.03457 -1.05537 0
M  V30 6094 C 554.772 1.60798 -0.00886317 0
M  V30 6095 O 555.962 1.72384 -0.250865 0
M  V30 6096 C 553.094 3.35543 -0.601965 0
M  V30 6097 H 554.287 2.22372 -2.01223 0
M  V30 6098 H 551.84 1.13344 -1.07623 0
M  V30 6099 H 552.575 3.22323 0.357584 0
M  V30 6100 H 552.36 3.67854 -1.35743 0
M  V30 6101 H 553.85 4.14769 -0.485454 0
M  V30 6102 N 554.287 1.06798 1.15896 0
M  V30 6103 C 555.698 0.811355 1.68149 0
M  V30 6104 C 556.049 -0.664339 1.8461 0
M  V30 6105 O 555.174 -1.51485 1.54535 0
M  V30 6106 C 555.769 1.46624 3.05429 0
M  V30 6107 C 554.328 1.25726 3.54781 0
M  V30 6108 C 553.475 1.53949 2.3064 0
M  V30 6109 H 556.426 1.23078 1.00187 0
M  V30 6110 H 556.447 0.88437 3.7008 0
M  V30 6111 H 555.959 2.54025 2.93416 0
M  V30 6112 H 554.06 0.20322 3.72045 0
M  V30 6113 H 554.173 1.97354 4.36564 0
M  V30 6114 H 552.537 0.96025 2.35905 0
M  V30 6115 H 553.32 2.6252 2.2122 0
M  V30 6116 N 555.766 -1.3263 0.851289 0
M  V30 6117 C 556.676 -2.32722 0.296268 0
M  V30 6118 C 557.692 -1.63901 -0.584162 0
M  V30 6119 O 558.868 -1.95465 -0.485334 0
M  V30 6120 C 555.933 -3.42942 -0.509103 0
M  V30 6121 C 554.994 -4.2746 0.397069 0
M  V30 6122 C 554.227 -5.32416 -0.36996 0
M  V30 6123 O 554.45 -5.47491 -1.6003 0
M  V30 6124 O 553.384 -6.01327 0.262493 0
M  V30 6125 H 557.21 -2.82078 1.12543 0
M  V30 6126 H 554.795 -1.36194 0.614135 0
M  V30 6127 H 556.677 -4.1017 -0.96634 0
M  V30 6128 H 555.352 -2.95781 -1.31512 0
M  V30 6129 H 554.259 -3.63053 0.902411 0
M  V30 6130 H 555.592 -4.78136 1.16818 0
M  V30 6131 N 557.244 -0.608902 -1.45362 0
M  V30 6132 C 558.191 0.109172 -2.30542 0
M  V30 6133 C 559.161 0.858704 -1.42181 0
M  V30 6134 O 560.346 0.844178 -1.71109 0
M  V30 6135 C 557.486 1.09971 -3.27109 0
M  V30 6136 C 556.599 0.350911 -4.30572 0
M  V30 6137 C 555.734 1.33129 -5.14247 0
M  V30 6138 C 554.773 0.570377 -6.09437 0
M  V30 6139 N 553.91 1.5001 -6.85887 0
M  V30 6140 H 558.75 -0.623195 -2.91411 0
M  V30 6141 H 556.287 -0.319122 -1.43597 0
M  V30 6142 H 558.245 1.68714 -3.81564 0
M  V30 6143 H 556.875 1.79947 -2.67991 0
M  V30 6144 H 555.927 -0.352054 -3.78767 0
M  V30 6145 H 557.239 -0.242725 -4.98209 0
M  V30 6146 H 556.393 1.99074 -5.73109 0
M  V30 6147 H 555.132 1.95885 -4.46632 0
M  V30 6148 H 554.137 -0.102702 -5.49704 0
M  V30 6149 H 555.362 -0.0521607 -6.7908 0
M  V30 6150 H 553.308 2.11529 -6.2096 0
M  V30 6151 H 553.225 0.959934 -7.49881 0
M  V30 6152 H 554.493 2.14909 -7.49289 0
M  V30 6153 N 558.722 1.53707 -0.348139 0
M  V30 6154 C 559.968 2.01286 0.247332 0
M  V30 6155 C 560.301 1.23546 1.49834 0
M  V30 6156 O 559.576 0.324331 1.91777 0
M  V30 6157 C 559.859 3.55768 0.556858 0
M  V30 6158 C 559.712 4.44216 -0.706564 0
M  V30 6159 C 561.031 4.1841 1.3646 0
M  V30 6160 H 558.15 0.731677 0.0884201 0
M  V30 6161 H 560.792 1.84106 -0.469584 0
M  V30 6162 H 558.942 3.70539 1.16761 0
M  V30 6163 H 560.614 4.41274 -1.34444 0
M  V30 6164 H 558.857 4.12892 -1.33052 0
M  V30 6165 H 559.528 5.50202 -0.445186 0
M  V30 6166 H 562.004 4.07365 0.848113 0
M  V30 6167 H 560.88 5.26563 1.54992 0
M  V30 6168 H 561.141 3.7333 2.36805 0
M  V30 6169 N 560.2 0.0768682 1.57412 0
M  V30 6170 C 561.477 -0.632359 1.85096 0
M  V30 6171 C 561.857 -1.87479 0.9703 0
M  V30 6172 O 561.205 -2.28469 0.0379062 0
M  V30 6173 C 561.415 -0.965174 3.35388 0
M  V30 6174 C 562.763 -1.33648 4.03018 0
M  V30 6175 O 563.787 -1.05675 3.40164 0
M  V30 6176 O 562.646 -1.85959 5.13889 0
M  V30 6177 H 559.74 -0.314574 0.764835 0
M  V30 6178 H 562.286 0.108184 1.69355 0
M  V30 6179 H 561.058 -0.0829745 3.91212 0
M  V30 6180 H 560.681 -1.76231 3.5641 0
M  V30 6181 N 561.678 -1.56367 -0.196722 0
M  V30 6182 C 562.925 -1.80529 -0.917366 0
M  V30 6183 C 563.253 -0.649817 -1.83324 0
M  V30 6184 O 562.508 0.36451 -1.92275 0
M  V30 6185 C 562.807 -3.10663 -1.767 0
M  V30 6186 C 562.473 -4.3962 -1.00225 0
M  V30 6187 C 561.135 -4.74653 -0.791095 0
M  V30 6188 C 563.487 -5.1913 -0.464035 0
M  V30 6189 C 560.815 -5.86692 -0.0302155 0
M  V30 6190 C 563.167 -6.31964 0.283625 0
M  V30 6191 C 561.831 -6.65581 0.505813 0
M  V30 6192 H 561.101 -0.660602 -0.335688 0
M  V30 6193 H 563.748 -1.90615 -0.183844 0
M  V30 6194 H 562.053 -2.95807 -2.56915 0
M  V30 6195 H 563.75 -3.26563 -2.32718 0
M  V30 6196 H 560.34 -4.12127 -1.17684 0
M  V30 6197 H 564.524 -4.9248 -0.614575 0
M  V30 6198 H 559.78 -6.11211 0.151917 0
M  V30 6199 H 563.954 -6.92791 0.708057 0
M  V30 6200 H 561.581 -7.52239 1.0973 0
M  V30 6201 N 563.156 0.464375 -1.50603 0
M  V30 6202 C 564.433 1.22549 -1.5245 0
M  V30 6203 C 564.813 2.09327 -0.273035 0
M  V30 6204 O 564.161 2.16074 0.743242 0
M  V30 6205 C 564.371 2.05074 -2.82393 0
M  V30 6206 C 565.719 2.63036 -3.33313 0
M  V30 6207 O 566.743 2.1531 -2.8376 0
M  V30 6208 O 565.602 3.5001 -4.19709 0
M  V30 6209 H 562.696 0.556471 -0.611775 0
M  V30 6210 H 565.242 0.475648 -1.62898 0
M  V30 6211 H 564.014 1.41169 -3.64948 0
M  V30 6212 H 563.637 2.87179 -2.7498 0
M  V30 6213 N 564.634 1.40294 0.718013 0
M  V30 6214 C 565.911 1.2894 1.47084 0
M  V30 6215 C 566.291 -0.0933625 2.10893 0
M  V30 6216 O 565.639 -1.10598 1.99951 0
M  V30 6217 C 565.849 2.4264 2.50852 0
M  V30 6218 C 567.197 2.8276 3.16752 0
M  V30 6219 O 568.221 2.42215 2.61171 0
M  V30 6220 O 567.08 3.528 4.17366 0
M  V30 6221 H 564.174 0.506236 0.653952 0
M  V30 6222 H 566.72 1.52208 0.750394 0
M  V30 6223 H 565.492 3.35009 2.022 0
M  V30 6224 H 565.115 2.21129 3.30435 0
M  V30 6225 N 566.112 -0.949982 1.2575 0
M  V30 6226 C 567.352 -1.70994 1.11984 0
M  V30 6227 C 567.716 -1.89095 -0.332746 0
M  V30 6228 O 568.917 -2.62192 -0.592331 0
M  V30 6229 C 567.188 -3.05286 1.85837 0
M  V30 6230 S 568.747 -3.96477 1.88019 0
M  V30 6231 H 565.565 -0.587689 0.400178 0
M  V30 6232 H 568.167 -1.13271 1.59342 0
M  V30 6233 H 566.871 -2.89785 2.90608 0
M  V30 6234 H 566.402 -3.68069 1.38885 0
M  V30 6235 H 568.417 -4.86814 0.96057 0
M  V30 6236 N 567.59 -1.07411 -1.15328 0
M  V30 6237 C 568.537 -0.694995 -2.20087 0
M  V30 6238 C 569.507 0.313904 -1.63107 0
M  V30 6239 O 570.692 0.200216 -1.89747 0
M  V30 6240 C 567.832 -0.0996218 -3.44956 0
M  V30 6241 C 566.945 -1.16007 -4.16133 0
M  V30 6242 C 566.08 -0.529636 -5.28553 0
M  V30 6243 C 565.119 -1.57283 -5.91548 0
M  V30 6244 N 564.256 -0.964932 -6.95438 0
M  V30 6245 H 569.096 -1.5927 -2.51867 0
M  V30 6246 H 566.633 -0.796115 -1.23695 0
M  V30 6247 H 568.591 0.263197 -4.16369 0
M  V30 6248 H 567.221 0.761435 -3.13691 0
M  V30 6249 H 566.273 -1.64045 -3.4321 0
M  V30 6250 H 567.585 -1.95101 -4.59061 0
M  V30 6251 H 566.739 -0.114487 -6.06592 0
M  V30 6252 H 565.478 0.29307 -4.86819 0
M  V30 6253 H 564.483 -1.99775 -5.12221 0
M  V30 6254 H 565.708 -2.39783 -6.35359 0
M  V30 6255 H 563.654 -0.16314 -6.55797 0
M  V30 6256 H 563.571 -1.69311 -7.36797 0
M  V30 6257 H 564.839 -0.575305 -7.77374 0
M  V30 6258 N 569.068 1.32177 -0.85831 0
M  V30 6259 C 570.345 1.91781 -0.384624 0
M  V30 6260 C 570.725 1.78171 1.13217 0
M  V30 6261 O 570.073 1.18209 1.95548 0
M  V30 6262 C 570.283 3.38414 -0.853047 0
M  V30 6263 C 571.631 4.15542 -0.872359 0
M  V30 6264 O 572.655 3.47148 -0.797926 0
M  V30 6265 O 571.514 5.37678 -0.978009 0
M  V30 6266 H 568.608 0.819259 -0.112886 0
M  V30 6267 H 571.154 1.40923 -0.945453 0
M  V30 6268 H 569.926 3.4228 -1.89632 0
M  V30 6269 H 569.549 3.96683 -0.269874 0
M  V30 6270 N 570.547 0.616602 1.45037 0
M  V30 6271 C 571.793 0.115501 2.02471 0
M  V30 6272 C 572.126 -1.25406 1.4828 0
M  V30 6273 O 571.401 -1.82922 0.661051 0
M  V30 6274 C 571.684 0.0863588 3.59996 0
M  V30 6275 C 571.537 1.48723 4.24501 0
M  V30 6276 C 572.856 -0.596762 4.36035 0
M  V30 6277 H 569.975 0.0434461 0.735718 0
M  V30 6278 H 572.617 0.7903 1.72784 0
M  V30 6279 H 570.767 -0.488277 3.85419 0
M  V30 6280 H 572.439 2.10964 4.10234 0
M  V30 6281 H 570.682 2.04534 3.82555 0
M  V30 6282 H 571.353 1.419 5.3345 0
M  V30 6283 H 573.829 -0.10824 4.15959 0
M  V30 6284 H 572.705 -0.586289 5.4576 0
M  V30 6285 H 572.966 -1.66451 4.09569 0
M  V30 6286 N 572.025 -1.5352 0.356285 0
M  V30 6287 C 573.273 -2.00719 -0.235837 0
M  V30 6288 C 573.594 -1.24551 -1.5004 0
M  V30 6289 O 572.864 -0.356185 -1.92635 0
M  V30 6290 H 571.444 -0.741542 -0.0901366 0
M  V30 6291 H 574.106 -1.88887 0.480378 0
M  V30 6292 H 573.202 -3.08551 -0.469357 0
M  V30 6293 N 573.503 -0.0852151 -1.57369 0
M  V30 6294 C 574.78 0.622534 -1.85429 0
M  V30 6295 C 575.16 1.86962 -0.980229 0
M  V30 6296 O 574.508 2.28445 -0.0500219 0
M  V30 6297 C 574.718 0.947374 -3.35896 0
M  V30 6298 C 576.066 1.31509 -4.03721 0
M  V30 6299 O 577.09 1.03869 -3.40719 0
M  V30 6300 O 575.949 1.83231 -5.14868 0
M  V30 6301 H 573.043 0.310513 -0.766492 0
M  V30 6302 H 575.589 -0.117164 -1.69295 0
M  V30 6303 H 574.361 0.0622264 -3.91251 0
M  V30 6304 H 573.984 1.74338 -3.5734 0
M  V30 6305 N 574.981 1.5647 0.188427 0
M  V30 6306 C 575.911 1.98101 1.23606 0
M  V30 6307 C 576.892 0.853961 1.47111 0
M  V30 6308 O 578.077 1.11879 1.58735 0
M  V30 6309 C 575.207 2.32624 2.57882 0
M  V30 6310 C 574.161 3.48129 2.48978 0
M  V30 6311 C 573.487 3.68347 3.87588 0
M  V30 6312 C 574.787 4.82112 2.00911 0
M  V30 6313 H 576.481 2.85864 0.890068 0
M  V30 6314 H 574.027 1.37532 0.426714 0
M  V30 6315 H 575.98 2.60343 3.3136 0
M  V30 6316 H 574.704 1.41751 2.94235 0
M  V30 6317 H 573.363 3.20511 1.77956 0
M  V30 6318 H 573.011 2.74793 4.21305 0
M  V30 6319 H 572.711 4.46055 3.82503 0
M  V30 6320 H 574.235 3.98449 4.62678 0
M  V30 6321 H 575.649 5.08819 2.64151 0
M  V30 6322 H 574.046 5.63337 2.06814 0
M  V30 6323 H 575.116 4.75249 0.96262 0
M  V30 6324 N 576.459 -0.456382 1.50847 0
M  V30 6325 C 577.406 -1.55249 1.70782 0
M  V30 6326 C 578.376 -1.56757 0.549231 0
M  V30 6327 O 579.561 -1.74061 0.7815 0
M  V30 6328 C 576.701 -2.93118 1.82143 0
M  V30 6329 C 575.814 -3.01285 3.09598 0
M  V30 6330 C 574.949 -4.30159 3.11667 0
M  V30 6331 C 573.988 -4.32124 4.33515 0
M  V30 6332 N 573.125 -5.52492 4.3324 0
M  V30 6333 H 577.965 -1.37555 2.64353 0
M  V30 6334 H 575.502 -0.668543 1.3103 0
M  V30 6335 H 577.46 -3.73088 1.86711 0
M  V30 6336 H 576.09 -3.09413 0.919978 0
M  V30 6337 H 575.142 -2.14096 3.14431 0
M  V30 6338 H 576.454 -2.98597 3.99551 0
M  V30 6339 H 575.608 -5.18489 3.15046 0
M  V30 6340 H 574.347 -4.35477 2.1957 0
M  V30 6341 H 573.352 -3.42189 4.30333 0
M  V30 6342 H 574.577 -4.28485 5.26856 0
M  V30 6343 H 572.523 -5.58567 3.44004 0
M  V30 6344 H 572.44 -5.51605 5.16979 0
M  V30 6345 H 573.708 -6.42906 4.40786 0
M  V30 6346 N 577.937 -1.40673 -0.710563 0
M  V30 6347 C 578.869 -1.37256 -1.83558 0
M  V30 6348 C 579.882 -0.277133 -1.60424 0
M  V30 6349 O 581.071 -0.537831 -1.70205 0
M  V30 6350 C 578.171 -1.1144 -3.20054 0
M  V30 6351 C 577.344 -2.32734 -3.70342 0
M  V30 6352 C 576.403 -2.03002 -4.85465 0
M  V30 6353 O 575.429 -2.75912 -4.97857 0
M  V30 6354 N 576.631 -1.01105 -5.71627 0
M  V30 6355 H 579.396 -2.34215 -1.86985 0
M  V30 6356 H 576.957 -1.35091 -0.892301 0
M  V30 6357 H 578.949 -0.895265 -3.94673 0
M  V30 6358 H 577.519 -0.231307 -3.11743 0
M  V30 6359 H 576.739 -2.70446 -2.86798 0
M  V30 6360 H 578.027 -3.13584 -4.00678 0
M  V30 6361 H 577.425 -0.407303 -5.64232 0
M  V30 6362 H 575.982 -0.85182 -6.4621 0
M  V30 6363 N 579.415 0.9433 -1.26252 0
M  V30 6364 C 580.645 1.72117 -1.14277 0
M  V30 6365 C 581.053 1.86726 0.304944 0
M  V30 6366 O 580.396 1.3727 1.22076 0
M  V30 6367 C 580.458 3.14778 -1.73651 0
M  V30 6368 C 580.122 3.23561 -3.22734 0
M  V30 6369 C 581.119 3.07001 -4.19579 0
M  V30 6370 C 578.804 3.47019 -3.63157 0
M  V30 6371 C 580.798 3.13763 -5.54826 0
M  V30 6372 C 578.485 3.53416 -4.98538 0
M  V30 6373 C 579.483 3.36804 -5.94182 0
M  V30 6374 O 579.171 3.42906 -7.27098 0
M  V30 6375 H 578.903 0.545781 -0.398873 0
M  V30 6376 H 581.457 1.19123 -1.67328 0
M  V30 6377 H 579.687 3.69186 -1.1506 0
M  V30 6378 H 581.376 3.74469 -1.56613 0
M  V30 6379 H 582.142 2.88736 -3.89688 0
M  V30 6380 H 578.021 3.59006 -2.89199 0
M  V30 6381 H 581.565 3.00714 -6.29458 0
M  V30 6382 H 577.462 3.71201 -5.28091 0
M  V30 6383 H 578.23 3.59463 -7.35342 0
M  V30 6384 N 580.893 1.08022 1.14757 0
M  V30 6385 C 582.17 0.720386 1.81851 0
M  V30 6386 C 582.55 -0.796375 1.95502 0
M  V30 6387 O 581.898 -1.71339 1.51179 0
M  V30 6388 C 582.108 1.44273 3.17783 0
M  V30 6389 C 583.456 1.59925 3.93331 0
M  V30 6390 O 584.48 1.40407 3.2736 0
M  V30 6391 O 583.339 1.92096 5.11626 0
M  V30 6392 H 580.433 0.257142 0.786007 0
M  V30 6393 H 582.979 1.18155 1.21809 0
M  V30 6394 H 581.751 2.47618 3.02987 0
M  V30 6395 H 581.374 0.97279 3.85516 0
M  V30 6396 N 582.371 -1.3172 0.865308 0
M  V30 6397 C 583.596 -2.01591 0.487415 0
M  V30 6398 C 584.021 -1.6455 -0.911307 0
M  V30 6399 O 583.379 -0.851689 -1.6005 0
M  V30 6400 C 583.427 -3.54759 0.646401 0
M  V30 6401 O 582.531 -4.11185 -0.316284 0
M  V30 6402 H 581.872 -0.634884 0.194468 0
M  V30 6403 H 584.402 -1.68024 1.16744 0
M  V30 6404 H 584.412 -4.04438 0.537932 0
M  V30 6405 H 583.087 -3.8106 1.66632 0
M  V30 6406 H 581.664 -3.72543 -0.163162 0
M  V30 6407 N 583.85 -0.624285 -1.44708 0
M  V30 6408 C 585.127 -0.0572781 -1.95516 0
M  V30 6409 C 585.507 1.41516 -1.56641 0
M  V30 6410 O 584.855 2.12614 -0.837111 0
M  V30 6411 C 585.065 -0.272944 -3.47931 0
M  V30 6412 C 586.413 -0.162529 -4.24289 0
M  V30 6413 O 587.437 -0.203946 -3.55616 0
M  V30 6414 O 586.296 -0.0616847 -5.46465 0
M  V30 6415 H 583.389 0.0262219 -0.826584 0
M  V30 6416 H 585.936 -0.695512 -1.54793 0
M  V30 6417 H 584.707 -1.29492 -3.69253 0
M  V30 6418 H 584.331 0.399756 -3.95585 0
M  V30 6419 N 585.328 1.53329 -0.364422 0
M  V30 6420 C 586.238 2.29414 0.490552 0
M  V30 6421 C 587.254 1.35335 1.09363 0
M  V30 6422 O 588.43 1.68391 1.10483 0
M  V30 6423 C 585.495 3.06772 1.61529 0
M  V30 6424 C 584.556 4.16516 1.03986 0
M  V30 6425 C 583.789 4.90176 2.111 0
M  V30 6426 O 584.012 4.63687 3.32191 0
M  V30 6427 O 582.946 5.76134 1.74222 0
M  V30 6428 H 586.772 3.03428 -0.12856 0
M  V30 6429 H 584.357 1.48843 -0.128837 0
M  V30 6430 H 586.239 3.55082 2.26924 0
M  V30 6431 H 584.914 2.35596 2.21983 0
M  V30 6432 H 583.821 3.7246 0.349856 0
M  V30 6433 H 585.154 4.89855 0.4799 0
M  V30 6434 N 586.806 0.0935595 1.57322 0
M  V30 6435 C 588.217 -0.435807 1.81542 0
M  V30 6436 C 588.568 -1.68263 1.00907 0
M  V30 6437 O 587.693 -2.15087 0.237983 0
M  V30 6438 C 588.288 -0.797436 3.29282 0
M  V30 6439 C 586.847 -1.27155 3.54272 0
M  V30 6440 C 585.994 -0.267455 2.76007 0
M  V30 6441 H 588.945 0.31902 1.5546 0
M  V30 6442 H 588.966 -1.6571 3.42521 0
M  V30 6443 H 588.478 0.110206 3.87943 0
M  V30 6444 H 586.579 -2.19696 3.00939 0
M  V30 6445 H 586.692 -1.23445 4.62923 0
M  V30 6446 H 585.056 -0.749282 2.43429 0
M  V30 6447 H 585.839 0.632839 3.37417 0
M  V30 6448 N 588.284 -1.56567 -0.180126 0
M  V30 6449 C 589.194 -1.98947 -1.24327 0
M  V30 6450 C 590.21 -0.899446 -1.4895 0
M  V30 6451 O 591.386 -1.20639 -1.61271 0
M  V30 6452 C 588.451 -2.33328 -2.56435 0
M  V30 6453 C 587.512 -3.56114 -2.39752 0
M  V30 6454 C 586.745 -3.88845 -3.65561 0
M  V30 6455 O 586.968 -3.22662 -4.70368 0
M  V30 6456 O 585.902 -4.82226 -3.60197 0
M  V30 6457 H 589.728 -2.89634 -0.913565 0
M  V30 6458 H 587.313 -1.44319 -0.386306 0
M  V30 6459 H 589.195 -2.5645 -3.34382 0
M  V30 6460 H 587.87 -1.45806 -2.89002 0
M  V30 6461 H 586.777 -3.38221 -1.59866 0
M  V30 6462 H 588.11 -4.4415 -2.12113 0
M  V30 6463 N 589.762 0.448376 -1.51087 0
M  V30 6464 C 590.692 1.55102 -1.74544 0
M  V30 6465 C 591.673 1.59357 -0.594932 0
M  V30 6466 O 592.858 1.75261 -0.836491 0
M  V30 6467 C 589.988 2.93268 -1.86041 0
M  V30 6468 C 588.942 3.03877 -3.01402 0
M  V30 6469 C 588.268 4.43914 -2.98068 0
M  V30 6470 C 589.568 2.7898 -4.41551 0
M  V30 6471 H 591.262 1.35724 -2.66869 0
M  V30 6472 H 588.808 0.651498 -1.28419 0
M  V30 6473 H 590.761 3.70356 -2.01034 0
M  V30 6474 H 589.485 3.13853 -0.903548 0
M  V30 6475 H 588.144 2.29227 -2.86096 0
M  V30 6476 H 587.792 4.6145 -2.00182 0
M  V30 6477 H 587.492 4.51944 -3.75527 0
M  V30 6478 H 589.016 5.22991 -3.1514 0
M  V30 6479 H 590.43 3.45805 -4.57265 0
M  V30 6480 H 588.827 2.98431 -5.20633 0
M  V30 6481 H 589.897 1.74663 -4.5235 0
M  V30 6482 N 591.24 1.41047 0.703093 0
M  V30 6483 C 592.656 1.23351 1.01275 0
M  V30 6484 C 592.856 0.11754 2.01157 0
M  V30 6485 O 591.912 -0.520518 2.47077 0
M  V30 6486 C 593.225 2.58001 1.54454 0
M  V30 6487 C 594.773 2.65119 1.66376 0
M  V30 6488 C 595.248 4.00067 2.22958 0
M  V30 6489 N 596.739 4.01875 2.30328 0
M  V30 6490 C 597.474 5.03087 2.75119 0
M  V30 6491 N 596.97 6.14692 3.19571 0
M  V30 6492 N 598.763 4.90451 2.74616 0
M  V30 6493 H 590.914 2.1236 0.0412686 0
M  V30 6494 H 593.177 0.944543 0.08089 0
M  V30 6495 H 592.883 3.40378 0.88521 0
M  V30 6496 H 592.757 2.79962 2.52786 0
M  V30 6497 H 595.144 1.83106 2.31422 0
M  V30 6498 H 595.225 2.46975 0.666089 0
M  V30 6499 H 594.869 4.82526 1.58529 0
M  V30 6500 H 594.799 4.15547 3.23462 0
M  V30 6501 H 597.29 3.21291 1.98949 0
M  V30 6502 H 597.603 6.87799 3.52352 0
M  V30 6503 H 595.948 6.18239 3.17498 0
M  V30 6504 H 599.139 4.0235 2.39233 0
M  V30 6505 H 599.312 5.6947 3.09206 0
M  V30 6506 N 592.718 -0.936591 1.26751 0
M  V30 6507 C 593.943 -1.72288 1.15462 0
M  V30 6508 C 594.368 -1.85915 -0.285887 0
M  V30 6509 O 593.726 -1.35272 -1.20711 0
M  V30 6510 C 593.774 -3.10503 1.83359 0
M  V30 6511 O 592.878 -3.96745 1.1255 0
M  V30 6512 H 592.219 -0.52843 0.402067 0
M  V30 6513 H 594.749 -1.17271 1.67656 0
M  V30 6514 H 594.759 -3.60867 1.90365 0
M  V30 6515 H 593.434 -2.99901 2.88153 0
M  V30 6516 H 592.011 -3.55191 1.13551 0
M  V30 6517 N 594.196 -1.08629 -1.14182 0
M  V30 6518 C 595.126 -0.740003 -2.21464 0
M  V30 6519 C 596.107 0.278591 -1.67803 0
M  V30 6520 O 597.292 0.148461 -1.93632 0
M  V30 6521 C 594.422 -0.150952 -3.46972 0
M  V30 6522 C 593.376 -1.09815 -4.13672 0
M  V30 6523 C 592.702 -0.3712 -5.3341 0
M  V30 6524 C 594.002 -2.43722 -4.61949 0
M  V30 6525 H 595.696 -1.63697 -2.50686 0
M  V30 6526 H 593.242 -0.788526 -1.20492 0
M  V30 6527 H 595.195 0.103325 -4.21273 0
M  V30 6528 H 593.919 0.781164 -3.1712 0
M  V30 6529 H 592.578 -1.33756 -3.41328 0
M  V30 6530 H 592.226 0.564792 -4.99819 0
M  V30 6531 H 591.926 -1.00267 -5.78982 0
M  V30 6532 H 593.45 -0.12503 -6.10472 0
M  V30 6533 H 594.864 -2.24034 -5.27714 0
M  V30 6534 H 593.261 -3.02582 -5.18232 0
M  V30 6535 H 594.331 -3.05082 -3.76899 0
M  V30 6536 N 595.674 1.31259 -0.872281 0
M  V30 6537 C 596.637 2.26744 -0.334656 0
M  V30 6538 C 597.637 1.52307 0.515681 0
M  V30 6539 O 598.827 1.71148 0.324656 0
M  V30 6540 C 595.959 3.36841 0.524482 0
M  V30 6541 H 597.152 2.75812 -1.17762 0
M  V30 6542 H 594.705 1.42232 -0.648064 0
M  V30 6543 H 595.44 2.93069 1.38855 0
M  V30 6544 H 595.225 3.92009 -0.0844299 0
M  V30 6545 H 596.715 4.07944 0.892838 0
M  V30 6546 N 597.152 0.631951 1.44375 0
M  V30 6547 C 598.377 0.142146 2.06912 0
M  V30 6548 C 598.802 -1.17456 1.4692 0
M  V30 6549 O 598.16 -1.72074 0.570975 0
M  V30 6550 C 598.208 0.0417952 3.60576 0
M  V30 6551 O 597.312 -1.00194 4.00044 0
M  V30 6552 H 596.653 0.0851491 0.658518 0
M  V30 6553 H 599.183 0.868863 1.85235 0
M  V30 6554 H 599.193 -0.148517 4.0773 0
M  V30 6555 H 597.868 1.0031 4.03622 0
M  V30 6556 H 596.445 -0.786131 3.64519 0
M  V30 6557 N 598.631 -1.53133 0.372548 0
M  V30 6558 C 599.877 -2.02336 -0.207823 0
M  V30 6559 C 600.232 -1.25477 -1.45853 0
M  V30 6560 O 599.525 -0.341971 -1.88524 0
M  V30 6561 C 599.719 -3.53206 -0.545938 0
M  V30 6562 C 599.548 -4.44674 0.670454 0
M  V30 6563 C 598.318 -4.91217 1.18465 0
M  V30 6564 C 600.516 -4.90772 1.53777 0
M  V30 6565 N 598.498 -5.66711 2.36034 0
M  V30 6566 C 599.869 -5.64678 2.56004 0
M  V30 6567 C 601.924 -4.72836 1.55983 0
M  V30 6568 C 600.627 -6.22555 3.60303 0
M  V30 6569 C 602.653 -5.31583 2.59179 0
M  V30 6570 C 602.015 -6.05381 3.6013 0
M  V30 6571 H 598.114 -0.781048 -0.0385783 0
M  V30 6572 H 600.698 -1.87665 0.518664 0
M  V30 6573 H 598.869 -3.68024 -1.24149 0
M  V30 6574 H 600.601 -3.89123 -1.112 0
M  V30 6575 H 597.356 -4.67652 0.748205 0
M  V30 6576 H 597.78 -6.09117 2.95475 0
M  V30 6577 H 602.422 -4.15299 0.792877 0
M  V30 6578 H 600.14 -6.79183 4.37876 0
M  V30 6579 H 603.726 -5.19595 2.61749 0
M  V30 6580 H 602.606 -6.50028 4.38672 0
M  V30 6581 N 600.109 -0.101901 -1.5727 0
M  V30 6582 C 601.358 0.559922 -1.93772 0
M  V30 6583 C 601.671 1.68913 -0.98629 0
M  V30 6584 O 602.877 2.41256 -1.24529 0
M  V30 6585 C 601.333 1.04739 -3.44322 0
M  V30 6586 C 600.941 -0.05243 -4.47969 0
M  V30 6587 C 602.685 1.68157 -3.89774 0
M  V30 6588 C 600.592 0.450781 -5.8968 0
M  V30 6589 H 599.522 0.212931 -0.723309 0
M  V30 6590 H 602.173 -0.179001 -1.82625 0
M  V30 6591 H 600.555 1.84021 -3.50645 0
M  V30 6592 H 601.729 -0.828157 -4.53297 0
M  V30 6593 H 600.044 -0.592202 -4.12167 0
M  V30 6594 H 602.641 2.0689 -4.93052 0
M  V30 6595 H 602.984 2.55338 -3.28798 0
M  V30 6596 H 603.517 0.954453 -3.8618 0
M  V30 6597 H 600.256 -0.38458 -6.54371 0
M  V30 6598 H 599.776 1.19336 -5.87809 0
M  V30 6599 H 601.455 0.917555 -6.40461 0
M  V30 6600 N 601.587 1.56661 0.17182 0
M  V30 6601 C 602.519 1.92934 1.2373 0
M  V30 6602 C 603.532 0.822385 1.40502 0
M  V30 6603 O 604.721 1.10083 1.40514 0
M  V30 6604 C 601.821 2.16651 2.60607 0
M  V30 6605 C 600.994 3.47878 2.6514 0
M  V30 6606 C 600.053 3.60429 3.83377 0
M  V30 6607 O 599.079 4.33051 3.69398 0
M  V30 6608 N 600.281 2.95241 4.99813 0
M  V30 6609 H 603.046 2.84931 0.929205 0
M  V30 6610 H 600.607 1.5781 0.361588 0
M  V30 6611 H 602.599 2.22312 3.38171 0
M  V30 6612 H 601.169 1.3104 2.83809 0
M  V30 6613 H 600.389 3.53879 1.73675 0
M  V30 6614 H 601.677 4.34232 2.6518 0
M  V30 6615 H 601.075 2.3611 5.14071 0
M  V30 6616 H 599.632 3.06499 5.75241 0
M  V30 6617 N 603.065 -0.440357 1.51323 0
M  V30 6618 C 604.013 -1.55492 1.72988 0
M  V30 6619 C 605.007 -1.58564 0.596138 0
M  V30 6620 O 606.213 -1.62345 0.777443 0
M  V30 6621 H 602.588 -0.516532 0.546533 0
M  V30 6622 H 604.559 -1.34392 2.66423 0
M  V30 6623 C 603.308 -2.93176 1.86931 0
M  V30 6624 H 602.631 -2.91543 2.73574 0
M  V30 6625 H 604.071 -3.70537 2.06103 0
M  V30 6626 C 602.53 -3.30988 0.628365 0
M  V30 6627 O 603.06 -4.01106 -0.218367 0
M  V30 6628 N 601.266 -2.86719 0.473339 0
M  V30 6629 H 600.813 -2.2983 1.16345 0
M  V30 6630 H 600.771 -3.12381 -0.355727 0
M  V30 6631 N 604.543 -1.41418 -0.695603 0
M  V30 6632 C 605.453 -1.45622 -1.83933 0
M  V30 6633 C 606.469 -0.346825 -1.70508 0
M  V30 6634 O 607.645 -0.59454 -1.92424 0
M  V30 6635 C 604.71 -1.33627 -3.19914 0
M  V30 6636 C 603.771 -2.54882 -3.45447 0
M  V30 6637 C 603.004 -2.43449 -4.7494 0
M  V30 6638 O 603.227 -1.45905 -5.51424 0
M  V30 6639 O 602.161 -3.33206 -5.01256 0
M  V30 6640 H 605.987 -2.42114 -1.83342 0
M  V30 6641 H 603.572 -1.22956 -0.848658 0
M  V30 6642 H 605.454 -1.29221 -4.01098 0
M  V30 6643 H 604.129 -0.402508 -3.21188 0
M  V30 6644 H 603.036 -2.64865 -2.64192 0
M  V30 6645 H 604.369 -3.47087 -3.48987 0
M  V30 6646 N 606.021 0.929856 -1.27246 0
M  V30 6647 C 607.268 1.67731 -1.13457 0
M  V30 6648 C 607.596 1.9185 0.319998 0
M  V30 6649 O 606.851 1.50524 1.25064 0
M  V30 6650 C 607.15 3.05116 -1.86115 0
M  V30 6651 C 606.816 3.00715 -3.35978 0
M  V30 6652 C 605.478 2.99222 -3.76855 0
M  V30 6653 C 607.83 2.92168 -4.3161 0
M  V30 6654 C 605.158 2.86962 -5.11732 0
M  V30 6655 C 607.51 2.81449 -5.66542 0
M  V30 6656 C 606.174 2.78305 -6.06715 0
M  V30 6657 H 605.444 0.613772 -0.415168 0
M  V30 6658 H 608.091 1.08456 -1.57827 0
M  V30 6659 H 606.396 3.68083 -1.34246 0
M  V30 6660 H 608.093 3.61822 -1.72876 0
M  V30 6661 H 604.683 3.02664 -3.03468 0
M  V30 6662 H 608.867 2.92421 -4.01003 0
M  V30 6663 H 604.123 2.82913 -5.42006 0
M  V30 6664 H 608.297 2.738 -6.40317 0
M  V30 6665 H 605.924 2.68561 -7.11181 0
M  V30 6666 N 607.499 1.09233 1.13605 0
M  V30 6667 C 608.447 0.724572 2.21027 0
M  V30 6668 C 609.441 -0.273595 1.67176 0
M  V30 6669 O 610.647 -0.135266 1.79491 0
M  V30 6670 H 607.022 0.216319 0.720215 0
M  V30 6671 H 608.993 1.63975 2.49309 0
M  V30 6672 C 607.742 0.159126 3.47336 0
M  V30 6673 H 607.065 0.918387 3.89109 0
M  V30 6674 H 608.505 -0.0602851 4.23957 0
M  V30 6675 C 606.964 -1.10514 3.18258 0
M  V30 6676 O 607.494 -2.18869 3.36837 0
M  V30 6677 N 605.7 -1.01886 2.72154 0
M  V30 6678 H 605.247 -0.137027 2.57235 0
M  V30 6679 H 605.205 -1.8655 2.53074 0
M  V30 6680 N 608.977 -1.30795 0.87923 0
M  V30 6681 C 609.924 -2.28282 0.339968 0
M  V30 6682 C 610.894 -1.56134 -0.566685 0
M  V30 6683 O 612.079 -1.84231 -0.496338 0
M  V30 6684 C 609.219 -3.42225 -0.444501 0
M  V30 6685 C 608.332 -4.29204 0.490717 0
M  V30 6686 C 607.467 -5.30302 -0.308784 0
M  V30 6687 C 606.506 -6.08929 0.622272 0
M  V30 6688 N 605.643 -7.01957 -0.14155 0
M  V30 6689 H 610.483 -2.73794 1.17647 0
M  V30 6690 H 608.02 -1.34682 0.591527 0
M  V30 6691 H 609.978 -4.07038 -0.915186 0
M  V30 6692 H 608.608 -2.97799 -1.24562 0
M  V30 6693 H 607.66 -3.6475 1.07988 0
M  V30 6694 H 608.972 -4.84045 1.20425 0
M  V30 6695 H 608.126 -6.00835 -0.841575 0
M  V30 6696 H 606.865 -4.7614 -1.05556 0
M  V30 6697 H 605.87 -5.37278 1.16674 0
M  V30 6698 H 607.095 -6.65178 1.36804 0
M  V30 6699 H 605.041 -6.50192 -0.870966 0
M  V30 6700 H 604.958 -7.54261 0.51246 0
M  V30 6701 H 606.226 -7.76741 -0.655271 0
M  V30 6702 N 610.455 -0.639598 -1.44038 0
M  V30 6703 C 611.418 0.0506628 -2.29144 0
M  V30 6704 C 612.418 0.764001 -1.41491 0
M  V30 6705 O 613.608 0.607309 -1.63271 0
M  V30 6706 C 610.74 1.0824 -3.2326 0
M  V30 6707 H 611.933 -0.697987 -2.91664 0
M  V30 6708 H 609.486 -0.400146 -1.51091 0
M  V30 6709 H 610.221 1.86075 -2.65606 0
M  V30 6710 H 610.006 0.574725 -3.87865 0
M  V30 6711 H 611.496 1.56487 -3.87171 0
M  V30 6712 N 611.933 1.52934 -0.380664 0
M  V30 6713 C 613.173 2.03378 0.204161 0
M  V30 6714 C 613.537 1.26132 1.44758 0
M  V30 6715 O 614.738 1.66657 2.109 0
M  V30 6716 C 613.009 3.54241 0.474118 0
M  V30 6717 S 614.568 4.26529 1.03046 0
M  V30 6718 H 611.386 0.708608 0.0582719 0
M  V30 6719 H 613.988 1.88263 -0.527017 0
M  V30 6720 H 612.692 4.08055 -0.438088 0
M  V30 6721 H 612.223 3.73547 1.23396 0
M  V30 6722 H 614.238 4.38964 2.31354 0
M  V30 6723 N 613.412 0.11024 1.57214 0
M  V30 6724 C 614.322 -0.857077 2.18383 0
M  V30 6725 C 615.338 -1.29915 1.1575 0
M  V30 6726 O 616.514 -1.36394 1.48184 0
M  V30 6727 C 613.579 -2.09264 2.76423 0
M  V30 6728 C 612.64 -1.70333 3.94063 0
M  V30 6729 C 611.873 -2.87999 4.49324 0
M  V30 6730 O 612.096 -4.0317 4.03497 0
M  V30 6731 O 611.03 -2.6559 5.40135 0
M  V30 6732 H 614.856 -0.366561 3.0148 0
M  V30 6733 H 612.441 -0.114914 1.48957 0
M  V30 6734 H 614.323 -2.81644 3.13456 0
M  V30 6735 H 612.998 -2.57339 1.96363 0
M  V30 6736 H 611.905 -0.950864 3.61814 0
M  V30 6737 H 613.238 -1.27007 4.75531 0
M  V30 6738 N 614.89 -1.56749 -0.16351 0
M  V30 6739 C 615.82 -2.00042 -1.20438 0
M  V30 6740 C 616.801 -0.877256 -1.45733 0
M  V30 6741 O 617.986 -1.1439 -1.56935 0
M  V30 6742 C 615.116 -2.36697 -2.54149 0
M  V30 6743 C 614.07 -3.52046 -2.43408 0
M  V30 6744 C 613.396 -3.74466 -3.81679 0
M  V30 6745 C 614.696 -4.85247 -1.93216 0
M  V30 6746 H 616.39 -2.87244 -0.844477 0
M  V30 6747 H 613.936 -1.38194 -0.40478 0
M  V30 6748 H 615.889 -2.65582 -3.27176 0
M  V30 6749 H 614.613 -1.46414 -2.91943 0
M  V30 6750 H 613.272 -3.23301 -1.72834 0
M  V30 6751 H 612.92 -2.81461 -4.1688 0
M  V30 6752 H 612.62 -4.52084 -3.75359 0
M  V30 6753 H 614.144 -4.0576 -4.5628 0
M  V30 6754 H 615.558 -5.12957 -2.56023 0
M  V30 6755 H 613.955 -5.66556 -1.97825 0
M  V30 6756 H 615.025 -4.7672 -0.88689 0
M  V30 6757 N 616.368 0.432326 -1.51554 0
M  V30 6758 C 617.596 1.20364 -1.68286 0
M  V30 6759 C 618.011 1.84888 -0.38233 0
M  V30 6760 O 617.368 1.70924 0.639627 0
M  V30 6761 C 617.419 2.28398 -2.80208 0
M  V30 6762 O 617.14 1.66512 -4.05223 0
M  V30 6763 C 618.641 3.18584 -3.08251 0
M  V30 6764 H 615.861 0.36259 -0.564596 0
M  V30 6765 H 618.405 0.511647 -1.97996 0
M  V30 6766 H 616.56 2.93305 -2.53083 0
M  V30 6767 H 616.974 2.37951 -4.67418 0
M  V30 6768 H 618.448 3.90511 -3.90135 0
M  V30 6769 H 618.925 3.79628 -2.2086 0
M  V30 6770 H 619.531 2.59372 -3.37055 0
M  V30 6771 N 617.846 1.41785 0.688094 0
M  V30 6772 C 619.123 1.32031 1.44316 0
M  V30 6773 C 619.503 -0.0486079 2.11044 0
M  V30 6774 O 618.851 -1.06332 2.02252 0
M  V30 6775 C 619.061 2.47906 2.45649 0
M  V30 6776 C 620.409 2.89415 3.10683 0
M  V30 6777 O 621.433 2.477 2.55975 0
M  V30 6778 O 620.292 3.61573 4.09789 0
M  V30 6779 H 617.386 0.519994 0.643067 0
M  V30 6780 H 619.932 1.53765 0.71794 0
M  V30 6781 H 618.704 3.39222 1.95048 0
M  V30 6782 H 618.327 2.28089 3.25671 0
M  V30 6783 N 619.324 -0.923095 1.27737 0
M  V30 6784 C 620.549 -1.71054 1.17283 0
M  V30 6785 C 620.974 -1.86208 -0.266153 0
M  V30 6786 O 620.332 -1.36545 -1.1927 0
M  V30 6787 C 620.38 -3.0854 1.86642 0
M  V30 6788 O 619.484 -3.95528 1.16752 0
M  V30 6789 H 618.825 -0.524136 0.407649 0
M  V30 6790 H 621.355 -1.15487 1.6889 0
M  V30 6791 H 621.365 -3.58828 1.94182 0
M  V30 6792 H 620.04 -2.96828 2.91317 0
M  V30 6793 H 618.617 -3.53967 1.17312 0
M  V30 6794 N 620.802 -1.09834 -1.13024 0
M  V30 6795 C 622.027 -0.85909 -1.88771 0
M  V30 6796 C 622.452 0.584402 -1.78791 0
M  V30 6797 O 621.81 1.41101 -1.13842 0
M  V30 6798 C 621.858 -1.30427 -3.36186 0
M  V30 6799 O 620.962 -0.465368 -4.09766 0
M  V30 6800 H 620.303 -0.310786 -0.586778 0
M  V30 6801 H 622.833 -1.46355 -1.42973 0
M  V30 6802 H 622.843 -1.2915 -3.8702 0
M  V30 6803 H 621.518 -2.3555 -3.42767 0
M  V30 6804 H 620.095 -0.542814 -3.68928 0
M  V30 6805 N 622.28 1.30327 -0.886154 0
M  V30 6806 C 623.526 1.96764 -0.515312 0
M  V30 6807 C 623.881 1.68675 0.925552 0
M  V30 6808 O 623.174 0.981693 1.6454 0
M  V30 6809 C 623.368 3.49906 -0.728042 0
M  V30 6810 C 623.197 3.92881 -2.18803 0
M  V30 6811 C 621.967 4.18424 -2.83284 0
M  V30 6812 C 624.165 4.05617 -3.16195 0
M  V30 6813 N 622.147 4.47867 -4.19867 0
M  V30 6814 C 623.518 4.38957 -4.37855 0
M  V30 6815 C 625.573 3.88047 -3.11968 0
M  V30 6816 C 624.276 4.56559 -5.55829 0
M  V30 6817 C 626.302 4.06851 -4.29215 0
M  V30 6818 C 625.664 4.40538 -5.49641 0
M  V30 6819 H 621.763 0.74493 -0.237916 0
M  V30 6820 H 624.347 1.57536 -1.14414 0
M  V30 6821 H 622.518 3.88187 -0.128696 0
M  V30 6822 H 624.25 4.03401 -0.323983 0
M  V30 6823 H 621.005 4.1167 -2.34146 0
M  V30 6824 H 621.429 4.66721 -4.90408 0
M  V30 6825 H 626.071 3.61078 -2.19961 0
M  V30 6826 H 623.789 4.8237 -6.4834 0
M  V30 6827 H 627.375 3.94724 -4.27416 0
M  V30 6828 H 626.255 4.54789 -6.38856 0
M  V30 6829 N 623.758 0.647228 1.43697 0
M  V30 6830 C 625.007 0.155552 2.01099 0
M  V30 6831 C 625.32 -1.23569 1.51624 0
M  V30 6832 O 626.526 -1.82226 2.01261 0
M  V30 6833 C 624.982 0.227296 3.59182 0
M  V30 6834 C 624.59 1.62086 4.17651 0
M  V30 6835 C 626.334 -0.207085 4.23995 0
M  V30 6836 C 624.241 1.64685 5.68008 0
M  V30 6837 H 623.171 0.0543895 0.752036 0
M  V30 6838 H 625.822 0.808386 1.64734 0
M  V30 6839 H 624.204 -0.492937 3.9292 0
M  V30 6840 H 625.378 2.36597 3.95422 0
M  V30 6841 H 623.693 2.0007 3.65186 0
M  V30 6842 H 626.29 -0.207426 5.34298 0
M  V30 6843 H 626.633 -1.23742 3.97484 0
M  V30 6844 H 627.166 0.461193 3.95118 0
M  V30 6845 H 623.905 2.65608 5.99277 0
M  V30 6846 H 623.425 0.944914 5.9231 0
M  V30 6847 H 625.104 1.38792 6.31938 0
M  V30 6848 N 625.236 -1.5273 0.388769 0
M  V30 6849 C 626.146 -2.30165 -0.453993 0
M  V30 6850 C 627.162 -1.37058 -1.07197 0
M  V30 6851 O 628.338 -1.70127 -1.0779 0
M  V30 6852 C 625.403 -3.09303 -1.56628 0
M  V30 6853 C 624.464 -4.18117 -0.973467 0
M  V30 6854 C 623.697 -4.93472 -2.03275 0
M  V30 6855 O 623.92 -4.68913 -3.24772 0
M  V30 6856 O 622.854 -5.78833 -1.65034 0
M  V30 6857 H 626.68 -3.03185 0.176816 0
M  V30 6858 H 624.265 -1.4862 0.152501 0
M  V30 6859 H 626.147 -3.58648 -2.21246 0
M  V30 6860 H 624.822 -2.39098 -2.18206 0
M  V30 6861 H 623.729 -3.7297 -0.290556 0
M  V30 6862 H 625.062 -4.90556 -0.401908 0
M  V30 6863 N 626.714 -0.118576 -1.57153 0
M  V30 6864 C 627.644 0.828436 -2.1831 0
M  V30 6865 C 628.625 1.27758 -1.12303 0
M  V30 6866 O 629.81 1.34026 -1.40537 0
M  V30 6867 C 626.94 2.07876 -2.78217 0
M  V30 6868 C 625.894 1.76742 -3.89803 0
M  V30 6869 C 625.22 3.08801 -4.36516 0
M  V30 6870 C 626.52 1.03606 -5.11921 0
M  V30 6871 H 628.214 0.318824 -2.97698 0
M  V30 6872 H 625.76 0.151911 -1.43196 0
M  V30 6873 H 627.713 2.74584 -3.19659 0
M  V30 6874 H 626.437 2.61161 -1.96118 0
M  V30 6875 H 625.096 1.12424 -3.48936 0
M  V30 6876 H 624.744 3.6002 -3.51276 0
M  V30 6877 H 624.444 2.88743 -5.11763 0
M  V30 6878 H 625.968 3.76627 -4.80608 0
M  V30 6879 H 627.382 1.60467 -5.50385 0
M  V30 6880 H 625.779 0.936454 -5.92748 0
M  V30 6881 H 626.849 0.0227421 -4.84895 0
M  V30 6882 N 628.193 1.56834 0.155195 0
M  V30 6883 C 629.47 1.73799 0.897395 0
M  V30 6884 C 629.85 0.684379 1.99698 0
M  V30 6885 O 629.198 -0.298111 2.26547 0
M  V30 6886 C 629.408 3.17572 1.44737 0
M  V30 6887 C 630.756 3.79014 1.91399 0
M  V30 6888 O 631.78 3.20951 1.54496 0
M  V30 6889 O 630.639 4.80998 2.59429 0
M  V30 6890 H 627.733 0.710329 0.423511 0
M  V30 6891 H 630.279 1.69107 0.141761 0
M  V30 6892 H 629.051 3.85749 0.656741 0
M  V30 6893 H 628.674 3.26657 2.26674 0
M  V30 6894 N 629.671 -0.424282 1.51781 0
M  V30 6895 C 630.581 -1.54087 1.76902 0
M  V30 6896 C 631.597 -1.61249 0.653826 0
M  V30 6897 O 632.773 -1.78247 0.937552 0
M  V30 6898 C 629.838 -2.8996 1.90063 0
M  V30 6899 C 628.899 -2.92809 3.13945 0
M  V30 6900 C 628.132 -4.22201 3.26469 0
M  V30 6901 O 628.355 -5.15286 2.44616 0
M  V30 6902 O 627.289 -4.31599 4.1953 0
M  V30 6903 H 631.115 -1.358 2.71647 0
M  V30 6904 H 628.7 -0.608618 1.36441 0
M  V30 6905 H 630.582 -3.70575 2.0063 0
M  V30 6906 H 629.257 -3.08347 0.985067 0
M  V30 6907 H 628.164 -2.11102 3.08847 0
M  V30 6908 H 629.497 -2.79369 4.05233 0
M  V30 6909 N 631.149 -1.42148 -0.680565 0
M  V30 6910 C 632.398 -1.41604 -1.43636 0
M  V30 6911 C 632.711 -0.0337887 -1.95571 0
M  V30 6912 O 633.917 0.0942588 -2.71336 0
M  V30 6913 C 632.373 -2.49056 -2.59806 0
M  V30 6914 C 631.981 -3.9326 -2.14594 0
M  V30 6915 C 633.725 -2.5767 -3.37352 0
M  V30 6916 C 631.632 -4.92232 -3.27813 0
M  V30 6917 H 630.562 -0.526656 -0.539583 0
M  V30 6918 H 633.213 -1.68033 -0.737369 0
M  V30 6919 H 631.595 -2.15782 -3.32045 0
M  V30 6920 H 632.769 -4.35858 -1.49546 0
M  V30 6921 H 631.084 -3.88443 -1.50002 0
M  V30 6922 H 633.681 -3.28794 -4.21662 0
M  V30 6923 H 634.024 -1.61837 -3.83555 0
M  V30 6924 H 634.557 -2.90109 -2.72179 0
M  V30 6925 H 631.296 -5.89522 -2.86607 0
M  V30 6926 H 630.816 -4.5427 -3.91661 0
M  V30 6927 H 632.495 -5.13684 -3.93367 0
M  V30 6928 N 632.627 0.916307 -1.28225 0
M  V30 6929 C 633.875 1.6619 -1.15002 0
M  V30 6930 C 634.196 1.92642 0.302329 0
M  V30 6931 O 633.466 1.54076 1.20985 0
M  V30 6932 H 632.046 0.615964 -0.422608 0
M  V30 6933 H 634.708 1.09963 -1.60917 0
M  V30 6934 H 633.804 2.62533 -1.68769 0
M  V30 6935 N 634.105 1.10431 1.1244 0
M  V30 6936 C 635.015 0.765502 2.21759 0
M  V30 6937 C 636.031 -0.236966 1.72379 0
M  V30 6938 O 637.207 -0.0757329 2.01258 0
M  V30 6939 C 634.272 0.202316 3.46109 0
M  V30 6940 C 633.333 1.26205 4.1033 0
M  V30 6941 C 632.566 0.725648 5.28744 0
M  V30 6942 O 632.789 -0.447942 5.68638 0
M  V30 6943 O 631.723 1.48555 5.83279 0
M  V30 6944 H 635.549 1.67801 2.53133 0
M  V30 6945 H 633.134 0.879443 1.20773 0
M  V30 6946 H 635.016 -0.107918 4.21262 0
M  V30 6947 H 633.691 -0.683052 3.16411 0
M  V30 6948 H 632.598 1.62514 3.36957 0
M  V30 6949 H 633.931 2.12044 4.44183 0
M  V30 6950 N 635.583 -1.29855 0.893053 0
M  V30 6951 C 636.86 -1.90694 0.435336 0
M  V30 6952 C 637.24 -1.8111 -1.08454 0
M  V30 6953 O 636.588 -1.23352 -1.92345 0
M  V30 6954 C 636.798 -3.36033 0.942472 0
M  V30 6955 C 638.146 -4.13083 0.982226 0
M  V30 6956 O 639.17 -3.4491 0.889686 0
M  V30 6957 O 638.029 -5.34896 1.12022 0
M  V30 6958 H 635.123 -0.815978 0.134567 0
M  V30 6959 H 637.669 -1.38367 0.982484 0
M  V30 6960 H 636.441 -3.37132 1.9864 0
M  V30 6961 H 636.064 -3.95828 0.374952 0
M  V30 6962 N 637.061 -0.65484 -1.43351 0
M  V30 6963 C 638.307 -0.169142 -2.02093 0
M  V30 6964 C 638.64 1.21431 -1.51553 0
M  V30 6965 O 637.915 1.81105 -0.709317 0
M  V30 6966 C 638.198 -0.181775 -3.59641 0
M  V30 6967 C 638.051 -1.59926 -4.20409 0
M  V30 6968 C 639.37 0.480945 -4.37464 0
M  V30 6969 H 636.489 -0.0629371 -0.734308 0
M  V30 6970 H 639.131 -0.835833 -1.70628 0
M  V30 6971 H 637.281 0.385918 -3.86578 0
M  V30 6972 H 638.953 -2.21766 -4.04497 0
M  V30 6973 H 637.196 -2.14605 -3.76998 0
M  V30 6974 H 637.867 -1.55994 -5.295 0
M  V30 6975 H 640.343 -0.00208273 -4.161 0
M  V30 6976 H 639.219 0.441384 -5.47122 0
M  V30 6977 H 639.48 1.55533 -4.13838 0
M  V30 6978 N 638.539 1.52521 -0.396863 0
M  V30 6979 C 639.502 2.2527 0.422604 0
M  V30 6980 C 640.502 1.27184 0.983913 0
M  V30 6981 O 641.692 1.51222 0.864723 0
M  V30 6982 C 638.824 3.01356 1.59365 0
M  V30 6983 H 640.017 2.99133 -0.214416 0
M  V30 6984 H 637.57 1.55587 -0.149128 0
M  V30 6985 H 638.305 2.31813 2.26789 0
M  V30 6986 H 638.09 3.73357 1.19779 0
M  V30 6987 H 639.58 3.56571 2.17363 0
M  V30 6988 N 640.017 0.126909 1.57088 0
M  V30 6989 C 641.428 -0.397201 1.82426 0
M  V30 6990 C 641.779 -1.66084 1.04453 0
M  V30 6991 O 640.904 -2.14534 0.283552 0
M  V30 6992 C 641.499 -0.727411 3.30899 0
M  V30 6993 C 640.058 -1.19612 3.56889 0
M  V30 6994 C 639.205 -0.20885 2.76512 0
M  V30 6995 H 642.156 0.351924 1.54749 0
M  V30 6996 H 642.177 -1.58407 3.45959 0
M  V30 6997 H 641.689 0.19247 3.87622 0
M  V30 6998 H 639.79 -2.13263 3.05532 0
M  V30 6999 H 639.903 -1.13598 4.65438 0
M  V30 7000 H 638.267 -0.697479 2.44964 0
M  V30 7001 H 639.05 0.704267 3.35998 0
M  V30 7002 N 641.495 -1.56914 -0.146875 0
M  V30 7003 C 642.744 -1.82546 -0.857898 0
M  V30 7004 C 643.057 -0.708169 -1.8233 0
M  V30 7005 O 644.263 -0.850093 -2.57848 0
M  V30 7006 C 642.719 -3.23548 -1.57623 0
M  V30 7007 C 642.327 -4.43212 -0.653224 0
M  V30 7008 C 644.071 -3.58453 -2.27402 0
M  V30 7009 C 641.978 -5.75237 -1.37318 0
M  V30 7010 H 640.908 -0.680786 -0.32411 0
M  V30 7011 H 643.559 -1.83166 -0.110639 0
M  V30 7012 H 641.941 -3.17315 -2.36912 0
M  V30 7013 H 643.115 -4.60682 0.104452 0
M  V30 7014 H 641.43 -4.16351 -0.0638336 0
M  V30 7015 H 644.027 -4.54349 -2.81907 0
M  V30 7016 H 644.37 -2.84516 -3.03901 0
M  V30 7017 H 644.903 -3.66347 -1.55032 0
M  V30 7018 H 641.642 -6.52269 -0.650041 0
M  V30 7019 H 641.162 -5.61703 -2.10357 0
M  V30 7020 H 642.841 -6.18039 -1.91406 0
M  V30 7021 N 642.974 0.416227 -1.52004 0
M  V30 7022 C 643.884 1.53147 -1.77717 0
M  V30 7023 C 644.9 1.609 -0.662368 0
M  V30 7024 O 646.076 1.77747 -0.946991 0
M  V30 7025 C 643.141 2.88948 -1.91598 0
M  V30 7026 C 642.202 2.9114 -3.15493 0
M  V30 7027 C 641.435 4.20464 -3.28703 0
M  V30 7028 O 641.658 5.13981 -2.47345 0
M  V30 7029 O 640.592 4.29368 -4.21813 0
M  V30 7030 H 644.418 1.34357 -2.72363 0
M  V30 7031 H 642.003 0.601373 -1.36762 0
M  V30 7032 H 643.885 3.69505 -2.02593 0
M  V30 7033 H 642.56 3.07821 -1.00141 0
M  V30 7034 H 641.467 2.09461 -3.09962 0
M  V30 7035 H 642.8 2.77216 -4.06709 0
M  V30 7036 N 644.452 1.42507 0.673017 0
M  V30 7037 C 645.402 1.4258 1.77919 0
M  V30 7038 C 646.386 0.296885 1.58137 0
M  V30 7039 O 647.578 0.539243 1.68586 0
M  V30 7040 C 644.707 1.33238 3.1639 0
M  V30 7041 C 643.793 2.51081 3.41788 0
M  V30 7042 N 644.184 3.76498 3.37761 0
M  V30 7043 C 642.482 2.4538 3.72431 0
M  V30 7044 C 643.183 4.54784 3.62693 0
M  V30 7045 N 642.159 3.8522 3.83544 0
M  V30 7046 H 645.961 2.37442 1.73201 0
M  V30 7047 H 643.475 1.36881 0.873924 0
M  V30 7048 H 645.472 1.31372 3.9566 0
M  V30 7049 H 644.132 0.393794 3.22303 0
M  V30 7050 H 645.143 4.09068 3.17622 0
M  V30 7051 H 641.82 1.60109 3.85579 0
M  V30 7052 H 643.21 5.63774 3.65525 0
M  V30 7053 N 645.93 -0.909495 1.28709 0
M  V30 7054 C 647.179 -1.65365 1.15487 0
M  V30 7055 C 647.492 -1.93364 -0.294941 0
M  V30 7056 O 648.698 -2.65905 -0.548338 0
M  V30 7057 C 647.154 -2.97923 2.01916 0
M  V30 7058 C 646.762 -2.77556 3.51663 0
M  V30 7059 C 648.506 -3.75814 1.97393 0
M  V30 7060 C 646.413 -4.0578 4.30229 0
M  V30 7061 H 645.343 -0.620323 0.42862 0
M  V30 7062 H 647.994 -1.00894 1.53273 0
M  V30 7063 H 646.376 -3.63552 1.5699 0
M  V30 7064 H 647.55 -2.2058 4.04575 0
M  V30 7065 H 645.865 -2.13072 3.57756 0
M  V30 7066 H 648.462 -4.70866 2.53357 0
M  V30 7067 H 648.805 -4.05277 0.951643 0
M  V30 7068 H 649.338 -3.1701 2.40311 0
M  V30 7069 H 646.077 -3.81488 5.33055 0
M  V30 7070 H 645.597 -4.62351 3.82089 0
M  V30 7071 H 647.276 -4.74004 4.40374 0
M  V30 7072 N 647.408 -1.11026 -1.11852 0
M  V30 7073 C 648.371 -0.768006 -2.1595 0
M  V30 7074 C 649.371 0.210538 -1.59416 0
M  V30 7075 O 650.561 -0.0133978 -1.74195 0
M  V30 7076 C 647.693 -0.138678 -3.40618 0
M  V30 7077 H 648.886 -1.69012 -2.4774 0
M  V30 7078 H 646.439 -0.911578 -1.26964 0
M  V30 7079 H 647.174 0.793872 -3.14433 0
M  V30 7080 H 646.959 -0.843012 -3.8293 0
M  V30 7081 H 648.449 0.0848039 -4.17514 0
M  V30 7082 N 648.886 1.2938 -0.899927 0
M  V30 7083 C 650.111 2.00228 -0.540692 0
M  V30 7084 C 650.536 1.66909 0.867359 0
M  V30 7085 O 649.894 0.893824 1.57735 0
M  V30 7086 C 649.942 3.52921 -0.740232 0
M  V30 7087 O 649.046 4.11879 0.207154 0
M  V30 7088 H 648.387 0.629505 -0.211233 0
M  V30 7089 H 650.917 1.6487 -1.21158 0
M  V30 7090 H 650.927 4.0287 -0.644973 0
M  V30 7091 H 649.602 3.76508 -1.76677 0
M  V30 7092 H 648.179 3.72845 0.0643315 0
M  V30 7093 N 650.364 0.662433 1.43002 0
M  V30 7094 C 651.297 -0.073459 2.28082 0
M  V30 7095 C 652.275 -0.820869 1.40358 0
M  V30 7096 O 653.459 -0.818545 1.698 0
M  V30 7097 C 650.586 -1.11097 3.19961 0
M  V30 7098 C 649.632 -0.460557 4.24006 0
M  V30 7099 S 650.465 0.772717 5.29896 0
M  V30 7100 C 651.621 -0.264028 6.25343 0
M  V30 7101 H 651.854 0.648227 2.90147 0
M  V30 7102 H 649.387 0.451566 1.47649 0
M  V30 7103 H 651.345 -1.70452 3.73439 0
M  V30 7104 H 650.006 -1.80503 2.57056 0
M  V30 7105 H 649.199 -1.24299 4.88432 0
M  V30 7106 H 648.801 0.0591038 3.73953 0
M  V30 7107 H 651.093 -1.12748 6.68052 0
M  V30 7108 H 652.036 0.345443 7.07257 0
M  V30 7109 H 652.444 -0.603964 5.6126 0
M  V30 7110 N 651.842 -1.52309 0.404946 0
M  V30 7111 C 653.258 -1.59503 0.0556255 0
M  V30 7112 C 653.458 -1.41805 -1.43156 0
M  V30 7113 O 652.514 -1.2429 -2.19792 0
M  V30 7114 C 653.827 -2.95687 0.546801 0
M  V30 7115 C 655.375 -3.08909 0.504413 0
M  V30 7116 C 655.85 -4.47566 0.97203 0
M  V30 7117 N 657.341 -4.53795 0.928679 0
M  V30 7118 C 658.076 -5.59346 1.26174 0
M  V30 7119 N 657.572 -6.72469 1.66604 0
M  V30 7120 N 659.365 -5.49532 1.18198 0
M  V30 7121 H 651.516 -1.6206 1.37296 0
M  V30 7122 H 653.779 -0.762161 0.563751 0
M  V30 7123 H 653.485 -3.13905 1.58609 0
M  V30 7124 H 653.359 -3.77172 -0.0457905 0
M  V30 7125 H 655.746 -2.90378 -0.525819 0
M  V30 7126 H 655.827 -2.2934 1.13301 0
M  V30 7127 H 655.471 -4.6684 2.00057 0
M  V30 7128 H 655.401 -5.25625 0.320292 0
M  V30 7129 H 657.892 -3.72588 0.631369 0
M  V30 7130 H 658.205 -7.48993 1.9034 0
M  V30 7131 H 656.55 -6.73761 1.70504 0
M  V30 7132 H 659.741 -4.60038 0.865011 0
M  V30 7133 H 659.914 -6.31687 1.44485 0
M  V30 7134 N 653.32 -0.135238 -1.57019 0
M  V30 7135 C 654.736 0.221262 -1.58059 0
M  V30 7136 C 654.936 1.65538 -1.14889 0
M  V30 7137 O 653.992 2.37985 -0.843751 0
M  V30 7138 C 655.305 -0.0268114 -3.00688 0
M  V30 7139 C 656.853 0.0378206 -3.12977 0
M  V30 7140 C 657.328 -0.182769 -4.57635 0
M  V30 7141 N 658.819 -0.129292 -4.6302 0
M  V30 7142 C 659.554 -0.274648 -5.72742 0
M  V30 7143 N 659.05 -0.477075 -6.91155 0
M  V30 7144 N 660.843 -0.213077 -5.61696 0
M  V30 7145 H 652.994 -1.07177 -1.83376 0
M  V30 7146 H 655.257 -0.423338 -0.848227 0
M  V30 7147 H 654.963 -1.01889 -3.36618 0
M  V30 7148 H 654.837 0.697863 -3.70688 0
M  V30 7149 H 657.224 1.02043 -2.76896 0
M  V30 7150 H 657.305 -0.718996 -2.45487 0
M  V30 7151 H 656.949 -1.16243 -4.94419 0
M  V30 7152 H 656.879 0.59423 -5.23237 0
M  V30 7153 H 659.37 0.0229896 -3.77893 0
M  V30 7154 H 659.683 -0.578413 -7.70632 0
M  V30 7155 H 658.028 -0.513252 -6.93102 0
M  V30 7156 H 661.219 -0.0557796 -4.68067 0
M  V30 7157 H 661.392 -0.329796 -6.4716 0
M  V30 7158 N 654.798 1.5699 0.138552 0
M  V30 7159 C 655.746 1.99858 1.18994 0
M  V30 7160 C 656.74 0.89231 1.43994 0
M  V30 7161 O 657.946 1.0775 1.44187 0
M  V30 7162 H 654.321 0.636325 0.400743 0
M  V30 7163 H 656.292 2.87427 0.801755 0
M  V30 7164 C 655.041 2.40235 2.51361 0
M  V30 7165 H 654.364 3.24917 2.32957 0
M  V30 7166 H 655.804 2.74045 3.23535 0
M  V30 7167 C 654.263 1.25829 3.1252 0
M  V30 7168 O 654.793 0.563604 3.97727 0
M  V30 7169 N 652.999 1.02036 2.72097 0
M  V30 7170 H 652.546 1.58705 2.02905 0
M  V30 7171 H 652.504 0.256796 3.1335 0
M  V30 7172 N 656.276 -0.40816 1.52223 0
M  V30 7173 C 657.506 -1.17501 1.69932 0
M  V30 7174 C 657.914 -1.84729 0.408874 0
M  V30 7175 O 657.257 -1.7274 -0.625025 0
M  V30 7176 C 657.319 -2.27994 2.77955 0
M  V30 7177 C 656.983 -1.80894 4.19674 0
M  V30 7178 C 657.98 -1.29618 5.03483 0
M  V30 7179 C 655.665 -1.87698 4.65913 0
M  V30 7180 C 657.659 -0.857695 6.31603 0
M  V30 7181 C 655.346 -1.43461 5.94022 0
M  V30 7182 C 656.344 -0.925822 6.76696 0
M  V30 7183 O 656.032 -0.489841 8.02406 0
M  V30 7184 H 655.764 -0.359065 0.572755 0
M  V30 7185 H 658.318 -0.486188 1.99563 0
M  V30 7186 H 656.548 -3.00243 2.43703 0
M  V30 7187 H 658.237 -2.89749 2.84254 0
M  V30 7188 H 659.003 -1.23733 4.68951 0
M  V30 7189 H 654.882 -2.26244 4.01665 0
M  V30 7190 H 658.426 -0.459879 6.96083 0
M  V30 7191 H 654.323 -1.49026 6.28062 0
M  V30 7192 H 655.091 -0.613062 8.16201 0
M  V30 7193 N 657.755 -1.42862 -0.66545 0
M  V30 7194 C 659.002 -1.4383 -1.42546 0
M  V30 7195 C 659.33 -0.0581114 -1.94413 0
M  V30 7196 O 658.585 0.935002 -1.71919 0
M  V30 7197 C 658.884 -2.4175 -2.63233 0
M  V30 7198 C 658.55 -3.87915 -2.29854 0
M  V30 7199 C 657.212 -4.27726 -2.20463 0
M  V30 7200 C 659.564 -4.80074 -2.02924 0
M  V30 7201 C 656.892 -5.57666 -1.82279 0
M  V30 7202 C 659.244 -6.10366 -1.66242 0
M  V30 7203 C 657.908 -6.49167 -1.55367 0
M  V30 7204 H 657.178 -0.52631 -0.521612 0
M  V30 7205 H 659.825 -1.75863 -0.757914 0
M  V30 7206 H 658.13 -2.03077 -3.35063 0
M  V30 7207 H 659.827 -2.39759 -3.21429 0
M  V30 7208 H 656.417 -3.564 -2.3807 0
M  V30 7209 H 660.601 -4.50097 -2.09108 0
M  V30 7210 H 655.857 -5.8658 -1.72436 0
M  V30 7211 H 660.031 -6.81258 -1.44432 0
M  V30 7212 H 657.658 -7.49761 -1.2555 0
M  V30 7213 N 659.233 0.902656 -1.29189 0
M  V30 7214 C 660.461 1.68639 -1.19869 0
M  V30 7215 C 660.876 1.87254 0.241121 0
M  V30 7216 O 660.233 1.40745 1.16177 0
M  V30 7217 C 660.284 3.07251 -1.90471 0
M  V30 7218 O 660.005 2.89488 -3.28829 0
M  V30 7219 C 661.506 4.01653 -1.8759 0
M  V30 7220 H 658.726 0.526802 -0.415596 0
M  V30 7221 H 661.27 1.12901 -1.7051 0
M  V30 7222 H 659.425 3.59774 -1.43672 0
M  V30 7223 H 659.839 3.77296 -3.64346 0
M  V30 7224 H 661.313 4.96339 -2.4156 0
M  V30 7225 H 661.79 4.30881 -0.850756 0
M  V30 7226 H 662.396 3.55061 -2.34119 0
M  V30 7227 N 660.711 1.11618 1.11262 0
M  V30 7228 C 661.936 0.889013 1.8738 0
M  V30 7229 C 662.361 -0.555884 1.79698 0
M  V30 7230 O 661.719 -1.39272 1.16073 0
M  V30 7231 C 661.767 1.35759 3.34069 0
M  V30 7232 O 660.871 0.530499 4.08974 0
M  V30 7233 H 660.212 0.320082 0.581759 0
M  V30 7234 H 662.742 1.48611 1.40627 0
M  V30 7235 H 662.752 1.35291 3.84916 0
M  V30 7236 H 661.427 2.40973 3.38976 0
M  V30 7237 H 660.004 0.601439 3.68018 0
M  V30 7238 N 662.189 -1.289 0.906776 0
M  V30 7239 C 663.099 -2.31256 0.394707 0
M  V30 7240 C 664.115 -1.66231 -0.514121 0
M  V30 7241 O 665.291 -1.97347 -0.401994 0
M  V30 7242 C 662.356 -3.44792 -0.363191 0
M  V30 7243 C 661.417 -4.25391 0.578012 0
M  V30 7244 C 660.65 -5.33506 -0.143811 0
M  V30 7245 O 660.873 -5.53786 -1.36665 0
M  V30 7246 O 659.807 -5.99673 0.5173 0
M  V30 7247 H 663.633 -2.77051 1.24405 0
M  V30 7248 H 661.218 -1.33466 0.671346 0
M  V30 7249 H 663.1 -4.139 -0.791503 0
M  V30 7250 H 661.775 -3.01093 -1.18848 0
M  V30 7251 H 660.682 -3.58899 1.05558 0
M  V30 7252 H 662.015 -4.72752 1.36992 0
M  V30 7253 N 663.667 -0.670007 -1.42649 0
M  V30 7254 C 664.913 -0.190568 -2.01903 0
M  V30 7255 C 665.246 1.19817 -1.52832 0
M  V30 7256 O 664.521 1.80342 -0.728485 0
M  V30 7257 C 664.804 -0.21991 -3.59428 0
M  V30 7258 C 664.657 -1.64376 -4.18689 0
M  V30 7259 C 665.976 0.434519 -4.3795 0
M  V30 7260 H 663.095 -0.0707219 -0.733599 0
M  V30 7261 H 665.737 -0.853883 -1.69732 0
M  V30 7262 H 663.887 0.344894 -3.86966 0
M  V30 7263 H 665.559 -2.26044 -4.02122 0
M  V30 7264 H 663.802 -2.18591 -3.747 0
M  V30 7265 H 664.473 -1.61601 -5.27815 0
M  V30 7266 H 666.949 -0.0462156 -4.16074 0
M  V30 7267 H 665.825 0.38333 -5.4756 0
M  V30 7268 H 666.086 1.51135 -4.15464 0
M  V30 7269 N 665.145 1.52092 -0.413018 0
M  V30 7270 C 666.37 2.06756 0.163338 0
M  V30 7271 C 666.795 1.28073 1.37764 0
M  V30 7272 O 666.153 0.312015 1.78595 0
M  V30 7273 C 666.201 3.57278 0.488322 0
M  V30 7274 O 665.305 3.80986 1.57871 0
M  V30 7275 H 664.646 0.663882 0.0125068 0
M  V30 7276 H 667.176 1.95988 -0.587339 0
M  V30 7277 H 667.186 4.01125 0.745836 0
M  V30 7278 H 665.861 4.13978 -0.399327 0
M  V30 7279 H 664.438 3.49017 1.31306 0
M  V30 7280 N 666.623 0.143563 1.56945 0
M  V30 7281 C 667.573 -0.809115 2.1316 0
M  V30 7282 C 668.557 -1.21176 1.05855 0
M  V30 7283 O 669.749 -1.17875 1.3204 0
M  V30 7284 C 666.878 -2.04957 2.75405 0
M  V30 7285 C 665.964 -1.67018 3.89828 0
M  V30 7286 N 666.355 -0.998822 4.9584 0
M  V30 7287 C 664.653 -1.96313 4.00471 0
M  V30 7288 C 665.354 -0.816217 5.75945 0
M  V30 7289 N 664.33 -1.349 5.26596 0
M  V30 7290 H 668.132 -0.286919 2.92496 0
M  V30 7291 H 665.646 -0.0580948 1.62296 0
M  V30 7292 H 667.643 -2.74201 3.14037 0
M  V30 7293 H 666.303 -2.57697 1.97541 0
M  V30 7294 H 667.314 -0.659975 5.13678 0
M  V30 7295 H 663.991 -2.50927 3.33679 0
M  V30 7296 H 665.381 -0.287353 6.71285 0
M  V30 7297 N 668.101 -1.57061 -0.130224 0
M  V30 7298 C 669.341 -1.86071 -0.845993 0
M  V30 7299 C 669.705 -0.73009 -1.77577 0
M  V30 7300 O 670.906 -0.901663 -2.53226 0
M  V30 7301 C 669.177 -3.20293 -1.58579 0
M  V30 7302 S 670.736 -3.70905 -2.34467 0
M  V30 7303 H 667.554 -0.652434 -0.282579 0
M  V30 7304 H 670.156 -1.95218 -0.10498 0
M  V30 7305 H 668.86 -4.00533 -0.894509 0
M  V30 7306 H 668.391 -3.14195 -2.36739 0
M  V30 7307 H 670.406 -3.41509 -3.59981 0
M  V30 7308 N 669.579 0.400081 -1.52437 0
M  V30 7309 C 670.995 0.739359 -1.41441 0
M  V30 7310 C 671.195 1.94512 -0.526053 0
M  V30 7311 O 670.251 2.525 0.00472502 0
M  V30 7312 C 671.564 0.984824 -2.84116 0
M  V30 7313 C 673.112 1.08698 -2.93519 0
M  V30 7314 C 673.587 1.36515 -4.37181 0
M  V30 7315 N 675.078 1.43361 -4.40457 0
M  V30 7316 C 675.813 1.66528 -5.48686 0
M  V30 7317 N 675.309 1.87239 -6.67018 0
M  V30 7318 N 677.102 1.68617 -5.36213 0
M  V30 7319 H 669.253 -0.393484 -2.08723 0
M  V30 7320 H 671.516 -0.1138 -0.941145 0
M  V30 7321 H 671.222 0.171096 -3.51284 0
M  V30 7322 H 671.096 1.90253 -3.25705 0
M  V30 7323 H 673.483 1.89129 -2.26526 0
M  V30 7324 H 673.564 0.147432 -2.55375 0
M  V30 7325 H 673.208 0.565982 -5.04737 0
M  V30 7326 H 673.138 2.31737 -4.7287 0
M  V30 7327 H 675.629 1.29108 -3.55161 0
M  V30 7328 H 675.942 2.04392 -7.45281 0
M  V30 7329 H 674.287 1.84486 -6.70067 0
M  V30 7330 H 677.478 1.5198 -4.42741 0
M  V30 7331 H 677.651 1.86332 -6.20632 0
M  V30 7332 N 671.057 1.43213 0.657864 0
M  V30 7333 C 672.02 1.47687 1.75275 0
M  V30 7334 C 673.02 0.362179 1.56668 0
M  V30 7335 O 674.21 0.623734 1.62651 0
M  V30 7336 C 671.342 1.32497 3.14098 0
M  V30 7337 H 672.535 2.4519 1.7269 0
M  V30 7338 H 670.088 1.2991 0.869087 0
M  V30 7339 H 670.823 0.359831 3.22298 0
M  V30 7340 H 670.608 2.13299 3.29008 0
M  V30 7341 H 672.098 1.38549 3.93946 0
M  V30 7342 N 672.536 -0.895792 1.29666 0
M  V30 7343 C 673.764 -1.68001 1.20761 0
M  V30 7344 C 674.179 -1.87379 -0.231187 0
M  V30 7345 O 673.536 -1.41359 -1.15429 0
M  V30 7346 C 673.587 -3.06236 1.92098 0
M  V30 7347 O 673.308 -2.8774 3.30359 0
M  V30 7348 C 674.809 -4.00652 1.89717 0
M  V30 7349 H 672.029 -0.524591 0.418384 0
M  V30 7350 H 674.573 -1.11995 1.71106 0
M  V30 7351 H 672.728 -3.59007 1.45578 0
M  V30 7352 H 673.142 -3.75359 3.66342 0
M  V30 7353 H 674.616 -4.95051 2.44189 0
M  V30 7354 H 675.093 -4.30424 0.873595 0
M  V30 7355 H 675.699 -3.53815 2.35998 0
M  V30 7356 N 674.014 -1.12206 -1.10668 0
M  V30 7357 C 674.924 -0.800686 -2.20513 0
M  V30 7358 C 675.94 0.209512 -1.72734 0
M  V30 7359 O 677.116 0.043705 -2.01353 0
M  V30 7360 C 674.181 -0.257353 -3.45744 0
M  V30 7361 C 673.242 -1.32718 -4.0827 0
M  V30 7362 C 672.475 -0.809674 -5.27522 0
M  V30 7363 O 672.698 0.35742 -5.69279 0
M  V30 7364 O 671.632 -1.57816 -5.80842 0
M  V30 7365 H 675.458 -1.71807 -2.50432 0
M  V30 7366 H 673.043 -0.898546 -1.19359 0
M  V30 7367 H 674.925 0.0408849 -4.2138 0
M  V30 7368 H 673.6 0.632627 -3.17458 0
M  V30 7369 H 672.507 -1.67855 -3.34329 0
M  V30 7370 H 673.84 -2.19083 -4.40753 0
M  V30 7371 N 675.492 1.28418 -0.913599 0
M  V30 7372 C 676.722 1.98817 -0.56172 0
M  V30 7373 C 677.13 1.68457 0.861321 0
M  V30 7374 O 676.473 0.933653 1.58204 0
M  V30 7375 C 676.535 3.52801 -0.690785 0
M  V30 7376 C 676.199 4.0675 -2.08334 0
M  V30 7377 C 677.196 4.20597 -3.05604 0
M  V30 7378 C 674.881 4.41445 -2.39648 0
M  V30 7379 C 676.875 4.68392 -4.32305 0
M  V30 7380 C 674.562 4.88934 -3.66588 0
M  V30 7381 C 675.56 5.02364 -4.6273 0
M  V30 7382 O 675.248 5.48817 -5.87414 0
M  V30 7383 H 674.98 0.641608 -0.212874 0
M  V30 7384 H 677.534 1.64584 -1.22887 0
M  V30 7385 H 675.764 3.86686 0.0334336 0
M  V30 7386 H 677.453 4.04422 -0.346031 0
M  V30 7387 H 678.219 3.94067 -2.8273 0
M  V30 7388 H 674.098 4.30242 -1.65567 0
M  V30 7389 H 677.642 4.7879 -5.07352 0
M  V30 7390 H 673.539 5.14904 -3.89287 0
M  V30 7391 H 674.307 5.67103 -5.90201 0
M  V30 7392 N 676.97 0.677563 1.42291 0
M  V30 7393 C 678.219 0.198173 2.00724 0
M  V30 7394 C 678.532 -1.20325 1.54211 0
M  V30 7395 O 679.738 -1.77916 2.05081 0
M  V30 7396 C 678.194 0.303432 3.58619 0
M  V30 7397 C 677.802 1.70909 4.14119 0
M  V30 7398 C 679.546 -0.117103 4.24338 0
M  V30 7399 C 677.453 1.76696 5.64387 0
M  V30 7400 H 676.383 0.070329 0.750713 0
M  V30 7401 H 679.034 0.843147 1.62982 0
M  V30 7402 H 677.416 -0.409482 3.93877 0
M  V30 7403 H 678.59 2.44931 3.90315 0
M  V30 7404 H 676.905 2.07771 3.6086 0
M  V30 7405 H 679.502 -0.0940471 5.34617 0
M  V30 7406 H 679.845 -1.15283 4.00019 0
M  V30 7407 H 680.378 0.5449 3.9405 0
M  V30 7408 H 677.117 2.7826 5.93508 0
M  V30 7409 H 676.637 1.07034 5.90173 0
M  V30 7410 H 678.316 1.52166 6.28852 0
M  V30 7411 N 678.448 -1.51871 0.421078 0
M  V30 7412 C 679.381 -2.23851 -0.443369 0
M  V30 7413 C 680.359 -1.25142 -1.03818 0
M  V30 7414 O 681.543 -1.5423 -1.08377 0
M  V30 7415 C 678.67 -2.97637 -1.61648 0
M  V30 7416 C 677.716 -4.10873 -1.14391 0
M  V30 7417 S 678.549 -5.35408 -0.0992403 0
M  V30 7418 C 679.705 -6.12726 -1.27739 0
M  V30 7419 H 679.938 -2.96826 0.167786 0
M  V30 7420 H 677.471 -1.53027 0.205461 0
M  V30 7421 H 679.429 -3.40751 -2.28909 0
M  V30 7422 H 678.09 -2.24282 -2.199 0
M  V30 7423 H 677.283 -4.61718 -2.02069 0
M  V30 7424 H 676.885 -3.69937 -0.549775 0
M  V30 7425 H 679.177 -6.40827 -2.19881 0
M  V30 7426 H 680.12 -7.03461 -0.809239 0
M  V30 7427 H 680.528 -5.43968 -1.5086 0
M  V30 7428 N 679.926 -0.151884 -1.56866 0
M  V30 7429 C 680.873 0.785936 -2.17006 0
M  V30 7430 C 681.843 1.2407 -1.10435 0
M  V30 7431 O 683.028 1.31235 -1.38499 0
M  V30 7432 C 680.168 2.01771 -2.79969 0
M  V30 7433 C 679.281 1.6083 -4.00946 0
M  V30 7434 C 678.416 2.79224 -4.51893 0
M  V30 7435 C 677.455 2.3468 -5.65324 0
M  V30 7436 N 676.592 3.461 -6.10867 0
M  V30 7437 H 681.432 0.266286 -2.96808 0
M  V30 7438 H 678.969 0.11972 -1.46612 0
M  V30 7439 H 680.927 2.73989 -3.14621 0
M  V30 7440 H 679.557 2.51139 -2.02803 0
M  V30 7441 H 678.609 0.783592 -3.72242 0
M  V30 7442 H 679.921 1.24119 -4.83111 0
M  V30 7443 H 679.075 3.59625 -4.88625 0
M  V30 7444 H 677.814 3.19183 -3.68746 0
M  V30 7445 H 676.819 1.52721 -5.28163 0
M  V30 7446 H 678.044 1.95801 -6.5026 0
M  V30 7447 H 675.99 3.85671 -5.30654 0
M  V30 7448 H 675.907 3.1342 -6.87971 0
M  V30 7449 H 677.175 4.26844 -6.52246 0
M  V30 7450 N 681.404 1.57128 0.121893 0
M  V30 7451 C 682.652 1.84335 0.828548 0
M  V30 7452 C 682.973 0.736632 1.80551 0
M  V30 7453 O 682.243 -0.23962 1.94429 0
M  V30 7454 H 680.823 0.680108 0.30897 0
M  V30 7455 H 683.485 1.9459 0.109906 0
M  V30 7456 H 682.581 2.80152 1.37554 0
M  V30 7457 N 682.882 -0.391992 1.52647 0
M  V30 7458 C 684.128 -1.139 1.67793 0
M  V30 7459 C 684.461 -1.89711 0.41514 0
M  V30 7460 O 683.736 -1.85431 -0.586979 0
M  V30 7461 C 684.019 -2.11966 2.91105 0
M  V30 7462 C 683.872 -1.39939 4.27478 0
M  V30 7463 C 685.191 -3.1243 3.09961 0
M  V30 7464 H 682.31 -0.412707 0.610608 0
M  V30 7465 H 684.952 -0.422725 1.85238 0
M  V30 7466 H 683.102 -2.73048 2.76364 0
M  V30 7467 H 684.774 -0.818439 4.53982 0
M  V30 7468 H 683.017 -0.701246 4.28095 0
M  V30 7469 H 683.688 -2.1158 5.09841 0
M  V30 7470 H 686.164 -2.61435 3.23714 0
M  V30 7471 H 685.04 -3.78294 3.97725 0
M  V30 7472 H 685.301 -3.81127 2.24042 0
M  V30 7473 N 684.36 -1.4356 -0.65026 0
M  V30 7474 C 685.59 -1.48563 -1.4357 0
M  V30 7475 C 685.998 -0.103041 -1.88919 0
M  V30 7476 O 685.341 0.897602 -1.60277 0
M  V30 7477 C 685.403 -2.37181 -2.70158 0
M  V30 7478 C 685.067 -3.84673 -2.4673 0
M  V30 7479 C 686.064 -4.75704 -2.09765 0
M  V30 7480 C 683.749 -4.29189 -2.60963 0
M  V30 7481 C 685.743 -6.09249 -1.87334 0
M  V30 7482 C 683.43 -5.62787 -2.38147 0
M  V30 7483 C 684.428 -6.52634 -2.01389 0
M  V30 7484 O 684.116 -7.83761 -1.78813 0
M  V30 7485 H 683.848 -0.506743 -0.447423 0
M  V30 7486 H 686.402 -1.89001 -0.80423 0
M  V30 7487 H 684.632 -1.91636 -3.35876 0
M  V30 7488 H 686.321 -2.33354 -3.32116 0
M  V30 7489 H 687.087 -4.42589 -1.98343 0
M  V30 7490 H 682.966 -3.59529 -2.88548 0
M  V30 7491 H 686.51 -6.7934 -1.58567 0
M  V30 7492 H 682.407 -5.95469 -2.49173 0
M  V30 7493 H 683.175 -7.95368 -1.93214 0
M  V30 7494 N 685.838 0.888903 -1.30139 0
M  V30 7495 C 687.087 1.63507 -1.18103 0
M  V30 7496 C 687.4 1.93808 0.264141 0
M  V30 7497 O 688.606 2.66744 0.505966 0
M  V30 7498 C 687.062 2.94673 -2.0663 0
M  V30 7499 C 686.67 2.71926 -3.56034 0
M  V30 7500 C 688.414 3.72626 -2.03346 0
M  V30 7501 C 686.321 3.98884 -4.3663 0
M  V30 7502 H 685.251 0.613426 -0.438435 0
M  V30 7503 H 687.902 0.984427 -1.54859 0
M  V30 7504 H 686.284 3.61009 -1.62754 0
M  V30 7505 H 687.458 2.14116 -4.08033 0
M  V30 7506 H 685.773 2.07353 -3.61101 0
M  V30 7507 H 688.37 4.66775 -2.60816 0
M  V30 7508 H 688.713 4.03712 -1.016 0
M  V30 7509 H 689.246 3.13147 -2.45324 0
M  V30 7510 H 685.985 3.72959 -5.39056 0
M  V30 7511 H 685.505 4.56214 -3.89396 0
M  V30 7512 H 687.184 4.66938 -4.47859 0
M  V30 7513 N 687.317 1.12792 1.10072 0
M  V30 7514 C 688.265 0.794523 2.18609 0
M  V30 7515 C 689.259 -0.220271 1.67962 0
M  V30 7516 O 690.465 -0.0780938 1.79831 0
M  V30 7517 H 686.84 0.239123 0.712969 0
M  V30 7518 H 688.811 1.71823 2.43966 0
M  V30 7519 C 687.56 0.269548 3.46654 0
M  V30 7520 H 686.883 1.04171 3.8599 0
M  V30 7521 H 688.323 0.0746242 4.23934 0
M  V30 7522 C 686.782 -1.00333 3.21613 0
M  V30 7523 O 687.312 -2.08042 3.4363 0
M  V30 7524 N 685.518 -0.931763 2.75257 0
M  V30 7525 H 685.065 -0.0551197 2.57541 0
M  V30 7526 H 685.023 -1.78405 2.58881 0
M  V30 7527 N 688.795 -1.27931 0.920396 0
M  V30 7528 C 690.023 -1.98805 0.573087 0
M  V30 7529 C 690.438 -1.68724 -0.847201 0
M  V30 7530 O 689.795 -0.943699 -1.56207 0
M  V30 7531 C 689.846 -3.52971 0.780633 0
M  V30 7532 O 689.567 -3.81994 2.14504 0
M  V30 7533 C 691.068 -4.411 0.44105 0
M  V30 7534 H 688.288 -0.634651 0.21785 0
M  V30 7535 H 690.832 -1.62965 1.23542 0
M  V30 7536 H 688.987 -3.87048 0.165204 0
M  V30 7537 H 689.401 -4.76609 2.18962 0
M  V30 7538 H 690.875 -5.48312 0.637006 0
M  V30 7539 H 691.352 -4.34758 -0.62306 0
M  V30 7540 H 691.958 -4.12532 1.0343 0
M  V30 7541 N 690.273 -0.685099 -1.4193 0
M  V30 7542 C 691.236 -0.0222632 -2.29189 0
M  V30 7543 C 692.236 0.7186 -1.4385 0
M  V30 7544 O 693.426 0.555058 -1.6512 0
M  V30 7545 C 690.558 0.979013 -3.2654 0
M  V30 7546 H 691.751 -0.790424 -2.89296 0
M  V30 7547 H 689.304 -0.448012 -1.49742 0
M  V30 7548 H 690.039 1.77531 -2.71392 0
M  V30 7549 H 689.824 0.451037 -3.89497 0
M  V30 7550 H 691.314 1.44091 -3.91954 0
M  V30 7551 N 691.751 1.51645 -0.429126 0
M  V30 7552 C 692.681 2.30434 0.377148 0
M  V30 7553 C 693.662 1.35493 1.02838 0
M  V30 7554 O 694.847 1.6441 1.03359 0
M  V30 7555 C 691.977 3.14038 1.48315 0
M  V30 7556 C 690.931 4.1719 0.955855 0
M  V30 7557 C 690.257 4.89263 2.15698 0
M  V30 7558 C 691.557 5.223 -0.00402136 0
M  V30 7559 H 693.251 2.98085 -0.280336 0
M  V30 7560 H 690.797 1.43354 -0.136265 0
M  V30 7561 H 692.75 3.67933 2.05435 0
M  V30 7562 H 691.474 2.44193 2.16881 0
M  V30 7563 H 690.133 3.64335 0.406929 0
M  V30 7564 H 689.781 4.15929 2.82864 0
M  V30 7565 H 689.481 5.59009 1.81059 0
M  V30 7566 H 691.005 5.45978 2.73387 0
M  V30 7567 H 692.419 5.71315 0.476607 0
M  V30 7568 H 690.816 5.99525 -0.26258 0
M  V30 7569 H 691.886 4.75638 -0.943236 0
M  V30 7570 N 693.229 0.160201 1.56784 0
M  V30 7571 C 694.159 -0.770264 2.2043 0
M  V30 7572 C 695.14 -1.24736 1.15651 0
M  V30 7573 O 696.325 -1.30253 1.44041 0
M  V30 7574 C 693.455 -2.00427 2.83631 0
M  V30 7575 C 692.409 -1.66345 3.94352 0
M  V30 7576 C 691.735 -2.97119 4.4455 0
M  V30 7577 C 693.035 -0.899972 5.14488 0
M  V30 7578 H 694.729 -0.239783 2.98438 0
M  V30 7579 H 692.275 -0.113891 1.43549 0
M  V30 7580 H 694.228 -2.66012 3.26827 0
M  V30 7581 H 692.952 -2.5587 2.02973 0
M  V30 7582 H 691.611 -1.03133 3.51794 0
M  V30 7583 H 691.259 -3.5058 3.60698 0
M  V30 7584 H 690.959 -2.75073 5.19238 0
M  V30 7585 H 692.483 -3.63753 4.90425 0
M  V30 7586 H 693.897 -1.45818 5.54446 0
M  V30 7587 H 692.294 -0.778968 5.95023 0
M  V30 7588 H 693.364 0.105827 4.84785 0
M  V30 7589 N 694.707 -1.5719 -0.113559 0
M  V30 7590 C 695.655 -2.01725 -1.158 0
M  V30 7591 C 696.649 -0.915105 -1.42556 0
M  V30 7592 O 697.855 -1.10031 -1.42454 0
M  V30 7593 H 694.23 -0.64262 -0.390569 0
M  V30 7594 H 696.201 -2.88666 -0.755926 0
M  V30 7595 C 694.95 -2.44203 -2.47507 0
M  V30 7596 H 694.273 -3.28582 -2.27758 0
M  V30 7597 H 695.713 -2.79158 -3.19135 0
M  V30 7598 C 694.172 -1.30785 -3.10478 0
M  V30 7599 O 694.702 -0.626807 -3.9678 0
M  V30 7600 N 692.908 -1.06352 -2.7044 0
M  V30 7601 H 692.455 -1.61913 -2.00355 0
M  V30 7602 H 692.413 -0.306614 -3.12901 0
M  V30 7603 N 696.185 0.383891 -1.52853 0
M  V30 7604 C 697.148 1.45197 -1.77343 0
M  V30 7605 C 698.148 1.47362 -0.643522 0
M  V30 7606 O 699.338 1.48443 -0.911613 0
M  V30 7607 C 696.47 2.8445 -1.87885 0
M  V30 7608 H 697.663 1.24764 -2.72716 0
M  V30 7609 H 695.216 0.615939 -1.43652 0
M  V30 7610 H 695.951 3.10222 -0.94515 0
M  V30 7611 H 695.736 2.8428 -2.70051 0
M  V30 7612 H 697.226 3.61832 -2.08488 0
M  V30 7613 N 697.663 1.43903 0.642637 0
M  V30 7614 C 698.888 1.49758 1.43483 0
M  V30 7615 C 699.313 0.119911 1.87717 0
M  V30 7616 O 698.671 -0.888558 1.58033 0
M  V30 7617 C 698.719 2.45744 2.63898 0
M  V30 7618 O 697.823 1.95101 3.63331 0
M  V30 7619 H 697.164 0.506138 0.429791 0
M  V30 7620 H 699.694 1.88923 0.785438 0
M  V30 7621 H 699.704 2.63399 3.11584 0
M  V30 7622 H 698.379 3.45818 2.31046 0
M  V30 7623 H 696.956 1.87158 3.22531 0
M  V30 7624 N 699.141 -0.881989 1.30609 0
M  V30 7625 C 700.381 -1.64817 1.20891 0
M  V30 7626 C 700.745 -1.90593 -0.232043 0
M  V30 7627 O 701.946 -2.64964 -0.452516 0
M  V30 7628 C 700.217 -2.95006 2.01758 0
M  V30 7629 S 701.776 -3.85953 2.08771 0
M  V30 7630 H 698.594 -0.565651 0.430767 0
M  V30 7631 H 701.196 -1.04665 1.65122 0
M  V30 7632 H 699.9 -2.73973 3.0556 0
M  V30 7633 H 699.431 -3.60189 1.582 0
M  V30 7634 H 701.446 -4.81037 1.21727 0
M  V30 7635 N 700.619 -1.13374 -1.09472 0
M  V30 7636 C 701.582 -0.813639 -2.14272 0
M  V30 7637 C 702.582 0.176677 -1.59826 0
M  V30 7638 O 703.772 -0.0503441 -1.74127 0
M  V30 7639 C 700.904 -0.210897 -3.40247 0
M  V30 7640 H 702.097 -1.74229 -2.44099 0
M  V30 7641 H 699.65 -0.938304 -1.25002 0
M  V30 7642 H 700.385 0.726998 -3.16046 0
M  V30 7643 H 700.17 -0.924048 -3.81056 0
M  V30 7644 H 701.66 -0.00377603 -4.176 0
M  V30 7645 N 702.098 1.27442 -0.927168 0
M  V30 7646 C 703.061 2.2512 -0.430525 0
M  V30 7647 C 704.061 1.54357 0.450619 0
M  V30 7648 O 705.251 1.72371 0.251774 0
M  V30 7649 C 702.383 3.38763 0.381144 0
M  V30 7650 H 703.576 2.70569 -1.29354 0
M  V30 7651 H 701.129 1.39355 -0.707806 0
M  V30 7652 H 701.864 2.98695 1.263 0
M  V30 7653 H 701.649 3.91298 -0.250618 0
M  V30 7654 H 703.139 4.11364 0.719012 0
M  V30 7655 N 703.576 0.692616 1.41565 0
M  V30 7656 C 704.509 -0.025063 2.28186 0
M  V30 7657 C 705.487 -0.790912 1.42068 0
M  V30 7658 O 706.671 -0.782344 1.71498 0
M  V30 7659 C 703.798 -1.04285 3.22246 0
M  V30 7660 C 702.844 -0.370515 4.24888 0
M  V30 7661 S 703.677 0.884942 5.28137 0
M  V30 7662 C 704.833 -0.131324 6.25762 0
M  V30 7663 H 705.066 0.709626 2.88707 0
M  V30 7664 H 702.599 0.482783 1.46658 0
M  V30 7665 H 704.557 -1.62493 3.7697 0
M  V30 7666 H 703.218 -1.7501 2.60827 0
M  V30 7667 H 702.411 -1.13911 4.90959 0
M  V30 7668 H 702.013 0.138411 3.73744 0
M  V30 7669 H 704.305 -0.985527 6.70294 0
M  V30 7670 H 705.248 0.495384 7.06365 0
M  V30 7671 H 705.656 -0.484777 5.62415 0
M  V30 7672 N 705.054 -1.51416 0.437162 0
M  V30 7673 C 706.331 -1.94682 -0.189292 0
M  V30 7674 C 706.711 -1.37581 -1.60108 0
M  V30 7675 O 706.059 -0.562815 -2.2146 0
M  V30 7676 C 706.269 -3.48599 -0.167201 0
M  V30 7677 C 707.617 -4.2296 -0.372856 0
M  V30 7678 O 708.641 -3.55354 -0.245323 0
M  V30 7679 O 707.5 -5.42895 -0.626693 0
M  V30 7680 H 704.594 -0.816708 -0.130063 0
M  V30 7681 H 707.14 -1.62316 0.495128 0
M  V30 7682 H 705.912 -3.82616 0.81981 0
M  V30 7683 H 705.535 -3.87406 -0.894537 0
M  V30 7684 N 706.532 -0.168513 -1.56696 0
M  V30 7685 C 707.809 0.523367 -1.88468 0
M  V30 7686 C 708.189 1.81503 -1.07796 0
M  V30 7687 O 707.537 2.27859 -0.171045 0
M  V30 7688 C 707.747 0.767991 -3.40445 0
M  V30 7689 C 709.095 1.09924 -4.10124 0
M  V30 7690 O 710.119 0.856625 -3.45746 0
M  V30 7691 O 708.978 1.55681 -5.23856 0
M  V30 7692 H 706.072 0.269447 -0.781874 0
M  V30 7693 H 708.618 -0.206739 -1.68436 0
M  V30 7694 H 707.39 -0.145254 -3.9103 0
M  V30 7695 H 707.013 1.55151 -3.66079 0
M  V30 7696 N 708.01 1.57248 0.105221 0
M  V30 7697 C 709.257 1.8557 0.810552 0
M  V30 7698 C 709.585 0.755595 1.79223 0
M  V30 7699 O 708.84 -0.251788 1.94073 0
M  V30 7700 C 709.139 3.20437 1.58287 0
M  V30 7701 C 708.805 4.44716 0.744235 0
M  V30 7702 C 707.467 4.78458 0.513013 0
M  V30 7703 C 709.819 5.20953 0.160578 0
M  V30 7704 C 707.147 5.8587 -0.311894 0
M  V30 7705 C 709.499 6.29235 -0.651596 0
M  V30 7706 C 708.163 6.615 -0.893005 0
M  V30 7707 H 707.433 0.67905 0.296602 0
M  V30 7708 H 710.08 1.91363 0.0723968 0
M  V30 7709 H 708.385 3.10283 2.39232 0
M  V30 7710 H 710.082 3.39576 2.13282 0
M  V30 7711 H 706.672 4.18287 0.934555 0
M  V30 7712 H 710.856 4.95226 0.3264 0
M  V30 7713 H 706.112 6.09286 -0.508012 0
M  V30 7714 H 710.286 6.87484 -1.11077 0
M  V30 7715 H 707.913 7.44562 -1.53401 0
M  V30 7716 N 709.488 -0.375779 1.53054 0
M  V30 7717 C 710.42 -1.47963 1.75042 0
M  V30 7718 C 711.433 -1.50073 0.631031 0
M  V30 7719 O 712.622 -1.53736 0.907052 0
M  V30 7720 C 709.722 -2.86767 1.80604 0
M  V30 7721 C 708.895 -3.08471 3.10104 0
M  V30 7722 C 707.954 -4.27332 3.07041 0
M  V30 7723 O 706.98 -4.22998 3.80869 0
M  V30 7724 N 708.182 -5.34214 2.27147 0
M  V30 7725 H 710.947 -1.29484 2.70285 0
M  V30 7726 H 708.508 -0.565416 1.51706 0
M  V30 7727 H 710.5 -3.64404 1.76045 0
M  V30 7728 H 709.07 -2.98542 0.926897 0
M  V30 7729 H 708.29 -2.18583 3.28048 0
M  V30 7730 H 709.578 -3.19834 3.95706 0
M  V30 7731 H 708.976 -5.40594 1.66656 0
M  V30 7732 H 707.533 -6.10467 2.28415 0
M  V30 7733 N 710.966 -1.44241 -0.634997 0
M  V30 7734 C 711.896 -1.53632 -1.7584 0
M  V30 7735 C 712.877 -0.389603 -1.65578 0
M  V30 7736 O 714.062 -0.609219 -1.84397 0
M  V30 7737 C 711.192 -1.47644 -3.14354 0
M  V30 7738 C 710.146 -2.60752 -3.394 0
M  V30 7739 C 709.472 -2.39817 -4.77904 0
M  V30 7740 C 710.772 -4.02921 -3.32343 0
M  V30 7741 H 712.466 -2.47662 -1.68238 0
M  V30 7742 H 710.012 -1.19197 -0.807969 0
M  V30 7743 H 711.965 -1.52815 -3.92716 0
M  V30 7744 H 710.689 -0.501284 -3.2273 0
M  V30 7745 H 709.348 -2.54965 -2.63417 0
M  V30 7746 H 708.996 -1.40502 -4.82978 0
M  V30 7747 H 708.696 -3.15649 -4.9562 0
M  V30 7748 H 710.22 -2.46799 -5.585 0
M  V30 7749 H 711.634 -4.10098 -4.00615 0
M  V30 7750 H 710.031 -4.78925 -3.61595 0
M  V30 7751 H 711.101 -4.26766 -2.30215 0
M  V30 7752 N 712.444 0.87505 -1.31075 0
M  V30 7753 C 713.693 1.62245 -1.19831 0
M  V30 7754 C 714.006 1.94078 0.24357 0
M  V30 7755 O 715.212 2.67265 0.477646 0
M  V30 7756 C 713.668 2.92464 -2.09744 0
M  V30 7757 C 713.276 2.68134 -3.58898 0
M  V30 7758 C 715.02 3.70449 -2.07287 0
M  V30 7759 C 712.927 3.9423 -4.40836 0
M  V30 7760 H 711.857 0.608741 -0.444916 0
M  V30 7761 H 714.508 0.967947 -1.55894 0
M  V30 7762 H 712.89 3.59262 -1.66574 0
M  V30 7763 H 714.064 2.09776 -4.10281 0
M  V30 7764 H 712.379 2.03511 -3.6328 0
M  V30 7765 H 714.976 4.63983 -2.65752 0
M  V30 7766 H 715.319 4.02611 -1.05876 0
M  V30 7767 H 715.852 3.10528 -2.48631 0
M  V30 7768 H 712.591 3.67221 -5.42982 0
M  V30 7769 H 712.111 4.52058 -3.94213 0
M  V30 7770 H 713.79 4.62162 -4.52786 0
M  V30 7771 N 713.922 1.13953 1.08869 0
M  V30 7772 C 715.333 0.916649 1.62648 0
M  V30 7773 C 715.684 -0.545589 1.88462 0
M  V30 7774 O 714.809 -1.41351 1.63856 0
M  V30 7775 C 715.404 1.65751 2.95486 0
M  V30 7776 C 713.963 1.48034 3.46068 0
M  V30 7777 C 713.11 1.68305 2.20383 0
M  V30 7778 H 716.061 1.292 0.921572 0
M  V30 7779 H 716.082 1.11794 3.63707 0
M  V30 7780 H 715.594 2.72171 2.76667 0
M  V30 7781 H 713.695 0.439416 3.7 0
M  V30 7782 H 713.808 2.24719 4.23129 0
M  V30 7783 H 712.172 1.10833 2.29321 0
M  V30 7784 H 712.955 2.76057 2.04077 0
M  V30 7785 N 715.4 -1.26948 0.933913 0
M  V30 7786 C 716.333 -2.24977 0.382169 0
M  V30 7787 C 717.311 -1.53893 -0.524949 0
M  V30 7788 O 718.495 -1.82699 -0.464048 0
M  V30 7789 C 715.622 -3.35676 -0.451615 0
M  V30 7790 C 714.668 -4.24686 0.392947 0
M  V30 7791 S 715.501 -5.03898 1.81237 0
M  V30 7792 C 716.657 -6.18078 0.986443 0
M  V30 7793 H 716.89 -2.71429 1.21299 0
M  V30 7794 H 714.423 -1.35701 0.736523 0
M  V30 7795 H 716.381 -3.99901 -0.926797 0
M  V30 7796 H 715.042 -2.8785 -1.25703 0
M  V30 7797 H 714.235 -5.03402 -0.245533 0
M  V30 7798 H 713.837 -3.65288 0.802537 0
M  V30 7799 H 716.129 -6.77125 0.225321 0
M  V30 7800 H 717.072 -6.86216 1.74682 0
M  V30 7801 H 717.48 -5.62047 0.525711 0
M  V30 7802 N 716.879 -0.700114 -1.41195 0
M  V30 7803 C 718.128 -0.230082 -2.00383 0
M  V30 7804 C 718.441 1.17857 -1.56106 0
M  V30 7805 O 719.647 1.74631 -2.07885 0
M  V30 7806 C 718.103 -0.360447 -3.5809 0
M  V30 7807 C 717.711 -1.77475 -4.11347 0
M  V30 7808 C 719.455 0.0495799 -4.24471 0
M  V30 7809 C 717.362 -1.85653 -5.61504 0
M  V30 7810 H 716.292 -0.0822633 -0.749499 0
M  V30 7811 H 718.943 -0.868969 -1.6162 0
M  V30 7812 H 717.325 0.346768 -3.94479 0
M  V30 7813 H 718.499 -2.51109 -3.86369 0
M  V30 7814 H 716.814 -2.13486 -3.57509 0
M  V30 7815 H 719.411 0.00898219 -5.34699 0
M  V30 7816 H 719.754 1.08904 -4.01803 0
M  V30 7817 H 720.287 -0.607521 -3.93134 0
M  V30 7818 H 717.026 -2.87667 -5.89006 0
M  V30 7819 H 716.546 -1.1641 -5.88395 0
M  V30 7820 H 718.225 -1.62151 -6.26351 0
M  V30 7821 N 718.357 1.51182 -0.445186 0
M  V30 7822 C 719.582 2.07056 0.119445 0
M  V30 7823 C 720.007 1.30966 1.35016 0
M  V30 7824 O 719.365 0.349827 1.77893 0
M  V30 7825 C 719.413 3.58234 0.412428 0
M  V30 7826 O 718.517 3.84249 1.49754 0
M  V30 7827 H 717.858 0.663998 -0.00157797 0
M  V30 7828 H 720.388 1.94699 -0.628779 0
M  V30 7829 H 720.398 4.02617 0.660583 0
M  V30 7830 H 719.073 4.13038 -0.487049 0
M  V30 7831 H 717.65 3.51724 1.23873 0
M  V30 7832 N 719.835 0.176821 1.56605 0
M  V30 7833 C 720.782 -0.751312 2.18229 0
M  V30 7834 C 721.752 -1.22297 1.12395 0
M  V30 7835 O 722.937 -1.29015 1.40569 0
M  V30 7836 C 720.077 -1.97291 2.83143 0
M  V30 7837 C 719.19 -1.54431 4.03454 0
M  V30 7838 C 718.325 -2.72 4.56278 0
M  V30 7839 C 717.364 -2.25657 5.68986 0
M  V30 7840 N 716.501 -3.36338 6.16296 0
M  V30 7841 H 721.341 -0.219033 2.97194 0
M  V30 7842 H 718.878 -0.0963803 1.46784 0
M  V30 7843 H 720.836 -2.68949 3.1894 0
M  V30 7844 H 719.466 -2.4788 2.06773 0
M  V30 7845 H 718.518 -0.724273 3.73441 0
M  V30 7846 H 719.83 -1.16417 4.85024 0
M  V30 7847 H 718.984 -3.51806 4.94285 0
M  V30 7848 H 717.723 -3.13277 3.73777 0
M  V30 7849 H 716.728 -1.44299 5.30526 0
M  V30 7850 H 717.953 -1.85432 6.53293 0
M  V30 7851 H 715.899 -3.7718 5.36723 0
M  V30 7852 H 715.816 -3.02435 6.9287 0
M  V30 7853 H 717.084 -4.16413 6.58954 0
M  V30 7854 N 721.313 -1.57302 -0.09688 0
M  V30 7855 C 722.553 -1.87823 -0.806334 0
M  V30 7856 C 722.917 -0.767593 -1.75989 0
M  V30 7857 O 724.118 -0.955173 -2.51257 0
M  V30 7858 C 722.389 -3.23585 -1.51749 0
M  V30 7859 S 723.948 -3.75795 -2.26547 0
M  V30 7860 H 720.766 -0.658281 -0.268676 0
M  V30 7861 H 723.368 -1.95397 -0.0635476 0
M  V30 7862 H 722.072 -4.0234 -0.809348 0
M  V30 7863 H 721.603 -3.19145 -2.30021 0
M  V30 7864 H 723.618 -3.49068 -3.52656 0
M  V30 7865 N 722.791 0.367657 -1.53252 0
M  V30 7866 C 724.207 0.709191 -1.42978 0
M  V30 7867 C 724.407 1.93352 -0.567193 0
M  V30 7868 O 723.463 2.52453 -0.0488349 0
M  V30 7869 C 724.776 0.924338 -2.86141 0
M  V30 7870 C 726.324 1.02448 -2.95759 0
M  V30 7871 C 726.799 1.27211 -4.39979 0
M  V30 7872 N 728.29 1.33986 -4.43398 0
M  V30 7873 C 729.025 1.54852 -5.52095 0
M  V30 7874 N 728.521 1.73049 -6.7084 0
M  V30 7875 N 730.314 1.57205 -5.39669 0
M  V30 7876 H 722.465 -0.437669 -2.07842 0
M  V30 7877 H 724.728 -0.133737 -0.938519 0
M  V30 7878 H 724.434 0.0965455 -3.51567 0
M  V30 7879 H 724.308 1.83302 -3.29667 0
M  V30 7880 H 726.695 1.84282 -2.30487 0
M  V30 7881 H 726.776 0.0932301 -2.5563 0
M  V30 7882 H 726.42 0.458792 -5.05824 0
M  V30 7883 H 726.35 2.21654 -4.77679 0
M  V30 7884 H 728.841 1.21545 -3.5782 0
M  V30 7885 H 729.154 1.88538 -7.49449 0
M  V30 7886 H 727.499 1.70231 -6.7383 0
M  V30 7887 H 730.69 1.42555 -4.45865 0
M  V30 7888 H 730.863 1.73126 -6.24445 0
M  V30 7889 N 724.269 1.44576 0.627338 0
M  V30 7890 C 725.497 1.51048 1.41394 0
M  V30 7891 C 725.912 0.136568 1.88305 0
M  V30 7892 O 725.269 -0.858251 1.6106 0
M  V30 7893 C 725.32 2.47837 2.63172 0
M  V30 7894 O 725.041 3.79887 2.18215 0
M  V30 7895 C 726.542 2.63811 3.56257 0
M  V30 7896 H 723.762 0.512171 0.4335 0
M  V30 7897 H 726.306 1.89576 0.766878 0
M  V30 7898 H 724.461 2.12433 3.23961 0
M  V30 7899 H 724.875 4.32177 2.97192 0
M  V30 7900 H 726.349 3.35554 4.38301 0
M  V30 7901 H 726.826 1.69169 4.05313 0
M  V30 7902 H 727.432 3.0013 3.01333 0
M  V30 7903 N 725.747 -0.868086 1.31537 0
M  V30 7904 C 726.694 -1.97548 1.19346 0
M  V30 7905 C 727.664 -1.65913 0.0787922 0
M  V30 7906 O 728.849 -1.89129 0.251985 0
M  V30 7907 C 725.989 -3.32922 0.908692 0
M  V30 7908 C 725.102 -3.77141 2.10687 0
M  V30 7909 C 724.237 -5.01241 1.75873 0
M  V30 7910 C 723.276 -5.37914 2.92088 0
M  V30 7911 N 722.413 -6.53192 2.57457 0
M  V30 7912 H 727.253 -2.07307 2.14074 0
M  V30 7913 H 724.79 -1.01483 1.06487 0
M  V30 7914 H 726.748 -4.10867 0.724138 0
M  V30 7915 H 725.378 -3.228 -0.0017611 0
M  V30 7916 H 724.43 -2.94961 2.40213 0
M  V30 7917 H 725.742 -4.00248 2.97663 0
M  V30 7918 H 724.896 -5.86858 1.53891 0
M  V30 7919 H 723.635 -4.80041 0.86091 0
M  V30 7920 H 722.64 -4.50814 3.14717 0
M  V30 7921 H 723.865 -5.61077 3.82582 0
M  V30 7922 H 721.811 -6.33536 1.702 0
M  V30 7923 H 721.728 -6.76252 3.37963 0
M  V30 7924 H 722.996 -7.41997 2.38873 0
M  V30 7925 N 727.225 -1.14528 -1.08264 0
M  V30 7926 C 728.135 -0.84728 -2.18765 0
M  V30 7927 C 729.151 0.172826 -1.7314 0
M  V30 7928 O 730.327 0.000985336 -2.014 0
M  V30 7929 C 727.392 -0.330633 -3.4512 0
M  V30 7930 C 726.453 -1.41348 -4.05363 0
M  V30 7931 C 725.686 -0.921387 -5.25686 0
M  V30 7932 O 725.909 0.236587 -5.69909 0
M  V30 7933 O 724.843 -1.70101 -5.77364 0
M  V30 7934 H 728.669 -1.7708 -2.46731 0
M  V30 7935 H 726.254 -0.923661 -1.17426 0
M  V30 7936 H 728.136 -0.0485053 -4.21372 0
M  V30 7937 H 726.811 0.565147 -3.18728 0
M  V30 7938 H 725.718 -1.74908 -3.30693 0
M  V30 7939 H 727.051 -2.28383 -4.36007 0
M  V30 7940 N 728.703 1.26451 -0.940633 0
M  V30 7941 C 729.951 1.93395 -0.586748 0
M  V30 7942 C 730.272 1.7417 0.876921 0
M  V30 7943 O 729.542 1.097 1.62304 0
M  V30 7944 H 728.122 0.715687 -0.214012 0
M  V30 7945 H 730.784 1.53902 -1.19584 0
M  V30 7946 H 729.88 3.01565 -0.804059 0
M  V30 7947 N 730.181 0.707592 1.40822 0
M  V30 7948 C 731.597 0.38034 1.55002 0
M  V30 7949 C 731.797 -1.11163 1.68062 0
M  V30 7950 O 730.853 -1.89761 1.66574 0
M  V30 7951 C 732.166 1.1394 2.78277 0
M  V30 7952 C 733.714 1.12492 2.92087 0
M  V30 7953 C 734.189 1.86597 4.18265 0
M  V30 7954 N 735.68 1.83626 4.25248 0
M  V30 7955 C 736.415 2.37794 5.21768 0
M  V30 7956 N 735.911 3.00485 6.24244 0
M  V30 7957 N 737.704 2.27982 5.13791 0
M  V30 7958 H 729.855 1.67511 1.3059 0
M  V30 7959 H 732.118 0.707579 0.630901 0
M  V30 7960 H 731.824 2.19398 2.74877 0
M  V30 7961 H 731.698 0.725793 3.70151 0
M  V30 7962 H 734.085 0.0785564 2.94995 0
M  V30 7963 H 734.166 1.57768 2.01353 0
M  V30 7964 H 733.81 2.91219 4.16118 0
M  V30 7965 H 733.74 1.38746 5.07993 0
M  V30 7966 H 736.231 1.3793 3.51829 0
M  V30 7967 H 736.544 3.39355 6.94304 0
M  V30 7968 H 734.889 3.04567 6.24711 0
M  V30 7969 H 738.08 1.78669 4.3266 0
M  V30 7970 H 738.253 2.70499 5.88841 0
M  V30 7971 N 731.66 -1.50943 0.453197 0
M  V30 7972 C 733.076 -1.59245 0.106342 0
M  V30 7973 C 733.276 -1.46287 -1.38572 0
M  V30 7974 O 732.332 -1.31219 -2.15726 0
M  V30 7975 C 733.645 -2.93797 0.640595 0
M  V30 7976 C 735.193 -3.07148 0.602435 0
M  V30 7977 C 735.668 -4.44247 1.11393 0
M  V30 7978 N 737.159 -4.50611 1.07258 0
M  V30 7979 C 737.894 -5.55049 1.43905 0
M  V30 7980 N 737.39 -6.66828 1.87914 0
M  V30 7981 N 739.183 -5.45494 1.35621 0
M  V30 7982 H 731.334 -1.5761 1.42382 0
M  V30 7983 H 733.597 -0.74384 0.587713 0
M  V30 7984 H 733.303 -3.087 1.68515 0
M  V30 7985 H 733.177 -3.77127 0.0742272 0
M  V30 7986 H 735.564 -2.91903 -0.433171 0
M  V30 7987 H 735.645 -2.25619 1.20539 0
M  V30 7988 H 735.289 -4.60239 2.14808 0
M  V30 7989 H 735.219 -5.2434 0.487353 0
M  V30 7990 H 737.71 -3.70391 0.749585 0
M  V30 7991 H 738.023 -7.42558 2.14072 0
M  V30 7992 H 736.368 -6.67995 1.91853 0
M  V30 7993 H 739.559 -4.57053 1.01093 0
M  V30 7994 H 739.732 -6.2677 1.64508 0
M  V30 7995 N 733.138 -0.185124 -1.56509 0
M  V30 7996 C 734.085 0.739729 -2.18624 0
M  V30 7997 C 735.055 1.217 -1.13042 0
M  V30 7998 O 736.24 1.28268 -1.41251 0
M  V30 7999 C 733.38 1.95787 -2.84186 0
M  V30 8000 C 732.493 1.52289 -4.04267 0
M  V30 8001 C 731.628 2.69576 -4.57714 0
M  V30 8002 C 730.667 2.22636 -5.70175 0
M  V30 8003 N 729.804 3.33065 -6.18071 0
M  V30 8004 H 734.644 0.203269 -2.97306 0
M  V30 8005 H 732.181 0.0885946 -1.46833 0
M  V30 8006 H 734.139 2.67253 -3.20361 0
M  V30 8007 H 732.769 2.4678 -2.08085 0
M  V30 8008 H 731.821 0.704458 -3.7382 0
M  V30 8009 H 733.133 1.13843 -4.85635 0
M  V30 8010 H 732.287 3.4918 -4.96143 0
M  V30 8011 H 731.026 3.1129 -3.75433 0
M  V30 8012 H 730.031 1.41483 -5.31284 0
M  V30 8013 H 731.256 1.81964 -6.54267 0
M  V30 8014 H 729.202 3.74328 -5.38715 0
M  V30 8015 H 729.119 2.98756 -6.94464 0
M  V30 8016 H 730.387 4.12912 -6.61153 0
M  V30 8017 N 734.616 1.57351 0.0885366 0
M  V30 8018 C 735.844 1.90631 0.804196 0
M  V30 8019 C 736.259 0.779474 1.71958 0
M  V30 8020 O 735.616 -0.248179 1.80805 0
M  V30 8021 C 735.667 3.23568 1.61202 0
M  V30 8022 O 735.388 4.31917 0.733447 0
M  V30 8023 C 736.889 3.70753 2.43016 0
M  V30 8024 H 734.109 0.630501 0.229585 0
M  V30 8025 H 736.653 2.044 0.0638092 0
M  V30 8026 H 734.808 3.11377 2.30485 0
M  V30 8027 H 735.222 5.08297 1.29361 0
M  V30 8028 H 736.696 4.66447 2.9518 0
M  V30 8029 H 737.173 2.98922 3.2178 0
M  V30 8030 H 737.779 3.85834 1.7892 0
M  V30 8031 N 736.094 -0.359525 1.53444 0
M  V30 8032 C 737.042 -1.46104 1.80987 0
M  V30 8033 C 738.036 -1.55181 0.679351 0
M  V30 8034 O 739.242 -1.57995 0.862405 0
M  V30 8035 H 735.617 -0.486835 0.573145 0
M  V30 8036 H 737.588 -1.2008 2.73173 0
M  V30 8037 C 736.337 -2.82855 2.02208 0
M  V30 8038 H 735.66 -2.76631 2.88644 0
M  V30 8039 H 737.1 -3.59091 2.25455 0
M  V30 8040 C 735.559 -3.27192 0.802931 0
M  V30 8041 O 736.089 -4.017 -0.00544286 0
M  V30 8042 N 734.295 -2.83807 0.624657 0
M  V30 8043 H 733.842 -2.23339 1.28364 0
M  V30 8044 H 733.8 -3.13828 -0.189641 0
M  V30 8045 N 737.572 -1.44907 -0.619662 0
M  V30 8046 C 738.502 -1.55488 -1.742 0
M  V30 8047 C 739.483 -0.407143 -1.65156 0
M  V30 8048 O 740.668 -0.628743 -1.8374 0
M  V30 8049 C 737.798 -1.5097 -3.1277 0
M  V30 8050 C 736.752 -2.64337 -3.36615 0
M  V30 8051 C 736.078 -2.44872 -4.75333 0
M  V30 8052 C 737.378 -4.06423 -3.28051 0
M  V30 8053 H 739.072 -2.49432 -1.65602 0
M  V30 8054 H 736.618 -1.20047 -0.795281 0
M  V30 8055 H 738.571 -1.56971 -3.91073 0
M  V30 8056 H 737.295 -0.535486 -3.2218 0
M  V30 8057 H 735.954 -2.57744 -2.60698 0
M  V30 8058 H 735.602 -1.45617 -4.81461 0
M  V30 8059 H 735.302 -3.20888 -4.92244 0
M  V30 8060 H 736.826 -2.52709 -5.55851 0
M  V30 8061 H 738.24 -4.14324 -3.96243 0
M  V30 8062 H 736.637 -4.82733 -3.56495 0
M  V30 8063 H 737.707 -4.29183 -2.25676 0
M  V30 8064 N 739.05 0.861098 -1.31996 0
M  V30 8065 C 740.28 1.64501 -1.24992 0
M  V30 8066 C 740.688 1.88288 0.185576 0
M  V30 8067 O 740.031 1.44756 1.131 0
M  V30 8068 C 740.093 3.03098 -1.93319 0
M  V30 8069 C 739.757 3.02381 -3.42658 0
M  V30 8070 C 740.754 2.79696 -4.38254 0
M  V30 8071 C 738.439 3.23221 -3.84491 0
M  V30 8072 C 740.433 2.77843 -5.73657 0
M  V30 8073 C 738.12 3.20996 -5.20005 0
M  V30 8074 C 739.118 2.98335 -6.14398 0
M  V30 8075 O 738.806 2.95971 -7.47433 0
M  V30 8076 H 738.538 0.519309 -0.432775 0
M  V30 8077 H 741.092 1.08241 -1.74565 0
M  V30 8078 H 739.322 3.61121 -1.38306 0
M  V30 8079 H 741.011 3.63751 -1.8011 0
M  V30 8080 H 741.777 2.63368 -4.07262 0
M  V30 8081 H 737.656 3.39887 -3.11445 0
M  V30 8082 H 741.2 2.60074 -6.47308 0
M  V30 8083 H 737.097 3.36865 -5.50629 0
M  V30 8084 H 737.865 3.1197 -7.56714 0
M  V30 8085 N 740.528 1.15101 1.07655 0
M  V30 8086 C 741.776 0.922149 1.79836 0
M  V30 8087 C 742.097 -0.552346 1.87014 0
M  V30 8088 O 741.367 -1.40145 1.3688 0
M  V30 8089 H 739.947 0.338182 0.666064 0
M  V30 8090 H 742.609 1.45107 1.30115 0
M  V30 8091 H 741.705 1.32883 2.82398 0
M  V30 8092 N 742.006 -1.2595 0.947325 0
M  V30 8093 C 743.253 -1.93463 0.598178 0
M  V30 8094 C 743.581 -1.74271 -0.863705 0
M  V30 8095 O 742.836 -1.07684 -1.63409 0
M  V30 8096 C 743.135 -3.46034 0.894158 0
M  V30 8097 C 742.801 -3.85373 2.3409 0
M  V30 8098 C 741.463 -3.95823 2.73637 0
M  V30 8099 C 743.815 -4.04986 3.2808 0
M  V30 8100 C 741.143 -4.23288 4.06257 0
M  V30 8101 C 743.495 -4.3394 4.60303 0
M  V30 8102 C 742.159 -4.42606 4.99656 0
M  V30 8103 H 741.429 -0.707933 0.218889 0
M  V30 8104 H 744.076 -1.4964 1.19499 0
M  V30 8105 H 742.381 -3.9121 0.214874 0
M  V30 8106 H 744.078 -3.96445 0.602698 0
M  V30 8107 H 740.668 -3.7779 2.02417 0
M  V30 8108 H 744.852 -3.96333 2.9872 0
M  V30 8109 H 740.108 -4.28211 4.36401 0
M  V30 8110 H 744.282 -4.48061 5.33118 0
M  V30 8111 H 741.909 -4.63641 6.02446 0
M  V30 8112 N 743.484 -0.715051 -1.40445 0
M  V30 8113 C 744.733 -0.251322 -2.00128 0
M  V30 8114 C 745.046 1.16194 -1.57347 0
M  V30 8115 O 746.252 1.72416 -2.09726 0
M  V30 8116 C 744.708 -0.398407 -3.57688 0
M  V30 8117 C 744.316 -1.81828 -4.09442 0
M  V30 8118 C 746.06 0.00455625 -4.245 0
M  V30 8119 C 743.967 -1.91598 -5.59503 0
M  V30 8120 H 742.897 -0.0902081 -0.748584 0
M  V30 8121 H 745.548 -0.886062 -1.6069 0
M  V30 8122 H 743.93 0.304908 -3.94824 0
M  V30 8123 H 745.104 -2.55193 -3.83684 0
M  V30 8124 H 743.419 -2.17266 -3.55225 0
M  V30 8125 H 746.016 -0.0477303 -5.34679 0
M  V30 8126 H 746.359 1.04636 -4.02935 0
M  V30 8127 H 746.892 -0.649184 -3.92467 0
M  V30 8128 H 743.631 -2.93898 -5.85922 0
M  V30 8129 H 743.151 -1.22644 -5.87127 0
M  V30 8130 H 744.83 -1.68785 -6.24596 0
M  V30 8131 N 744.962 1.50701 -0.461195 0
M  V30 8132 C 746.211 2.01458 0.0988277 0
M  V30 8133 C 746.524 1.34863 1.41673 0
M  V30 8134 O 747.73 1.76721 2.06111 0
M  V30 8135 C 746.186 3.59186 0.226648 0
M  V30 8136 C 745.794 4.34732 -1.08223 0
M  V30 8137 C 747.538 4.18015 0.73916 0
M  V30 8138 C 745.445 5.8422 -0.918747 0
M  V30 8139 H 744.375 0.7529 0.040709 0
M  V30 8140 H 747.026 1.736 -0.594589 0
M  V30 8141 H 745.408 3.83589 0.983621 0
M  V30 8142 H 746.582 4.22059 -1.84939 0
M  V30 8143 H 744.897 3.87466 -1.52509 0
M  V30 8144 H 747.494 5.27436 0.878347 0
M  V30 8145 H 747.837 3.78746 1.72793 0
M  V30 8146 H 748.37 3.9778 0.0398469 0
M  V30 8147 H 745.109 6.27944 -1.88059 0
M  V30 8148 H 744.629 5.99493 -0.191801 0
M  V30 8149 H 746.308 6.44382 -0.581405 0
M  V30 8150 N 746.441 0.193421 1.56409 0
M  V30 8151 C 747.388 -0.728124 2.19014 0
M  V30 8152 C 748.358 -1.21098 1.13686 0
M  V30 8153 O 749.543 -1.27517 1.4193 0
M  V30 8154 C 746.683 -1.94277 2.8522 0
M  V30 8155 C 745.796 -1.50143 4.05069 0
M  V30 8156 C 744.931 -2.67145 4.59137 0
M  V30 8157 C 743.97 -2.19609 5.71348 0
M  V30 8158 N 743.107 -3.29782 6.19829 0
M  V30 8159 H 747.947 -0.187499 2.9741 0
M  V30 8160 H 745.484 -0.0808064 1.46878 0
M  V30 8161 H 747.442 -2.65551 3.21774 0
M  V30 8162 H 746.072 -2.45673 2.09391 0
M  V30 8163 H 745.124 -0.684624 3.74189 0
M  V30 8164 H 746.436 -1.11266 4.86232 0
M  V30 8165 H 745.59 -3.46544 4.97988 0
M  V30 8166 H 744.329 -3.09295 3.77078 0
M  V30 8167 H 743.334 -1.38664 5.32027 0
M  V30 8168 H 744.559 -1.78492 6.55223 0
M  V30 8169 H 742.505 -3.71466 5.40693 0
M  V30 8170 H 742.422 -2.95069 6.96039 0
M  V30 8171 H 743.69 -4.094 6.63334 0
M  V30 8172 N 747.919 -1.57396 -0.0801906 0
M  V30 8173 C 749.167 -1.86467 -0.779384 0
M  V30 8174 C 749.488 -0.784243 -1.78535 0
M  V30 8175 O 748.758 0.187986 -1.94996 0
M  V30 8176 H 747.338 -0.68806 -0.29083 0
M  V30 8177 H 750 -1.94813 -0.0582749 0
M  V30 8178 H 749.096 -2.83701 -1.30078 0
M  V30 8179 N 749.397 0.351382 -1.53633 0
M  V30 8180 C 750.813 0.693987 -1.43722 0
M  V30 8181 C 751.013 1.9274 -0.587669 0
M  V30 8182 O 750.069 2.52387 -0.0756082 0
M  V30 8183 C 751.382 0.893937 -2.87105 0
M  V30 8184 C 752.93 0.993051 -2.96829 0
M  V30 8185 C 753.405 1.22537 -4.41303 0
M  V30 8186 N 754.896 1.29275 -4.44795 0
M  V30 8187 C 755.631 1.48988 -5.53706 0
M  V30 8188 N 755.127 1.65924 -6.72637 0
M  V30 8189 N 756.92 1.51472 -5.41306 0
M  V30 8190 H 749.071 -0.459688 -2.07366 0
M  V30 8191 H 751.334 -0.143684 -0.937048 0
M  V30 8192 H 751.04 0.0592517 -3.5165 0
M  V30 8193 H 750.914 1.79795 -3.31592 0
M  V30 8194 H 753.301 1.81827 -2.32429 0
M  V30 8195 H 753.382 0.0661119 -2.55715 0
M  V30 8196 H 753.026 0.405117 -5.06282 0
M  V30 8197 H 752.956 2.16575 -4.80003 0
M  V30 8198 H 755.447 1.17743 -3.59089 0
M  V30 8199 H 755.76 1.80578 -7.51406 0
M  V30 8200 H 754.105 1.63075 -6.75597 0
M  V30 8201 H 757.296 1.37818 -4.47352 0
M  V30 8202 H 757.469 1.66493 -6.26246 0
M  V30 8203 N 750.875 1.45233 0.611969 0
M  V30 8204 C 752.1 1.52767 1.40274 0
M  V30 8205 C 752.525 0.159701 1.87421 0
M  V30 8206 O 751.883 -0.854837 1.59882 0
M  V30 8207 C 751.931 2.51286 2.58626 0
M  V30 8208 O 751.035 2.02764 3.59111 0
M  V30 8209 H 750.376 0.515141 0.418958 0
M  V30 8210 H 752.906 1.90547 0.745188 0
M  V30 8211 H 752.916 2.69949 3.05927 0
M  V30 8212 H 751.591 3.50641 2.23659 0
M  V30 8213 H 750.168 1.93957 3.18489 0
M  V30 8214 N 752.353 -0.854086 1.3245 0
M  V30 8215 C 753.303 -1.9508 1.18016 0
M  V30 8216 C 754.287 -1.60665 0.0869417 0
M  V30 8217 O 755.479 -1.74201 0.313505 0
M  V30 8218 C 752.608 -3.3113 0.905961 0
M  V30 8219 C 751.694 -3.71763 2.04091 0
M  V30 8220 N 752.085 -3.84218 3.28953 0
M  V30 8221 C 750.383 -4.01393 1.94421 0
M  V30 8222 C 751.084 -4.192 4.03294 0
M  V30 8223 N 750.06 -4.30749 3.31596 0
M  V30 8224 H 753.862 -2.02843 2.12678 0
M  V30 8225 H 751.376 -1.04588 1.24238 0
M  V30 8226 H 753.373 -4.09471 0.783508 0
M  V30 8227 H 752.033 -3.24684 -0.0322715 0
M  V30 8228 H 753.044 -3.68524 3.63883 0
M  V30 8229 H 749.721 -4.03246 1.08162 0
M  V30 8230 H 751.111 -4.36301 5.1097 0
M  V30 8231 N 753.831 -1.1567 -1.07043 0
M  V30 8232 C 754.761 -0.879348 -2.16309 0
M  V30 8233 C 755.742 0.171311 -1.69235 0
M  V30 8234 O 756.927 0.0250175 -1.94184 0
M  V30 8235 C 754.057 -0.371307 -3.45309 0
M  V30 8236 C 753.011 -1.359 -4.05851 0
M  V30 8237 C 752.337 -0.709678 -5.29969 0
M  V30 8238 C 753.637 -2.72606 -4.45514 0
M  V30 8239 H 755.331 -1.79308 -2.39768 0
M  V30 8240 H 752.877 -0.863558 -1.15233 0
M  V30 8241 H 754.83 -0.164798 -4.21078 0
M  V30 8242 H 753.554 0.577906 -3.21446 0
M  V30 8243 H 752.213 -1.55193 -3.32131 0
M  V30 8244 H 751.861 0.245782 -5.02399 0
M  V30 8245 H 751.561 -1.36886 -5.71433 0
M  V30 8246 H 753.085 -0.513015 -6.08441 0
M  V30 8247 H 754.499 -2.57141 -5.12398 0
M  V30 8248 H 752.896 -3.34927 -4.97939 0
M  V30 8249 H 753.966 -3.28434 -3.56734 0
M  V30 8250 N 755.309 1.25446 -0.953992 0
M  V30 8251 C 756.725 1.4539 -0.658316 0
M  V30 8252 C 756.925 1.85607 0.784356 0
M  V30 8253 O 755.981 1.98568 1.55972 0
M  V30 8254 C 757.294 2.52643 -1.6307 0
M  V30 8255 C 758.842 2.66484 -1.64181 0
M  V30 8256 C 759.317 3.76921 -2.60182 0
M  V30 8257 N 760.808 3.84331 -2.58542 0
M  V30 8258 C 761.543 4.69271 -3.29503 0
M  V30 8259 N 761.039 5.58503 -4.09934 0
M  V30 8260 N 762.832 4.6323 -3.18393 0
M  V30 8261 H 754.983 0.976337 -1.8863 0
M  V30 8262 H 757.246 0.490343 -0.811337 0
M  V30 8263 H 756.952 2.29949 -2.66114 0
M  V30 8264 H 756.826 3.50547 -1.39271 0
M  V30 8265 H 759.213 2.88545 -0.618552 0
M  V30 8266 H 759.294 1.68982 -1.92038 0
M  V30 8267 H 758.938 3.55612 -3.62633 0
M  V30 8268 H 758.868 4.73906 -2.29609 0
M  V30 8269 H 761.359 3.20544 -2.0015 0
M  V30 8270 H 761.672 6.20241 -4.61 0
M  V30 8271 H 760.017 5.58214 -4.14032 0
M  V30 8272 H 763.208 3.92527 -2.5503 0
M  V30 8273 H 763.381 5.29204 -3.73961 0
M  V30 8274 N 756.787 0.722489 1.40064 0
M  V30 8275 C 757.735 0.063329 2.32514 0
M  V30 8276 C 758.729 -0.73953 1.52405 0
M  V30 8277 O 759.935 -0.642122 1.68157 0
M  V30 8278 H 756.31 0.00167692 0.751998 0
M  V30 8279 H 758.281 0.859656 2.85749 0
M  V30 8280 C 757.03 -0.839219 3.3742 0
M  V30 8281 H 756.353 -0.230836 3.99133 0
M  V30 8282 H 757.793 -1.26827 4.04587 0
M  V30 8283 C 756.252 -1.96783 2.73456 0
M  V30 8284 O 756.782 -3.05933 2.60323 0
M  V30 8285 N 754.988 -1.75351 2.31734 0
M  V30 8286 H 754.535 -0.865787 2.42615 0
M  V30 8287 H 754.493 -2.51043 1.89275 0
M  V30 8288 N 758.265 -1.50454 0.469181 0
M  V30 8289 C 759.542 -1.9504 -0.147955 0
M  V30 8290 C 759.922 -1.40946 -1.57154 0
M  V30 8291 O 759.27 -0.609663 -2.20217 0
M  V30 8292 C 759.48 -3.48875 -0.0932198 0
M  V30 8293 C 760.828 -4.23655 -0.283056 0
M  V30 8294 O 761.852 -3.55795 -0.169892 0
M  V30 8295 O 760.711 -5.44102 -0.511396 0
M  V30 8296 H 757.805 -0.819283 -0.11271 0
M  V30 8297 H 760.351 -1.6123 0.529446 0
M  V30 8298 H 759.123 -3.80791 0.900784 0
M  V30 8299 H 758.746 -3.89217 -0.812161 0
M  V30 8300 N 759.743 -0.201713 -1.56304 0
M  V30 8301 C 760.971 0.440723 -2.02152 0
M  V30 8302 C 761.386 1.54735 -1.08179 0
M  V30 8303 O 760.743 1.82289 -0.0878196 0
M  V30 8304 C 760.794 0.990884 -3.47655 0
M  V30 8305 O 760.515 -0.0715937 -4.38041 0
M  V30 8306 C 762.016 1.70854 -4.09052 0
M  V30 8307 H 759.236 0.109987 -0.661924 0
M  V30 8308 H 761.78 -0.312358 -2.021 0
M  V30 8309 H 759.935 1.69432 -3.48384 0
M  V30 8310 H 760.349 0.338892 -5.23404 0
M  V30 8311 H 761.823 2.04572 -5.12693 0
M  V30 8312 H 762.3 2.61462 -3.52894 0
M  V30 8313 H 762.906 1.0508 -4.12114 0
M  V30 8314 N 761.222 1.57436 0.0718424 0
M  V30 8315 C 762.499 1.78312 0.804006 0
M  V30 8316 C 762.879 0.789273 1.9579 0
M  V30 8317 O 762.227 -0.177605 2.27809 0
M  V30 8318 C 762.437 3.24798 1.277 0
M  V30 8319 C 763.785 3.88627 1.71039 0
M  V30 8320 O 764.809 3.28689 1.37266 0
M  V30 8321 O 763.668 4.94073 2.33567 0
M  V30 8322 H 760.762 0.73178 0.385262 0
M  V30 8323 H 763.308 1.69621 0.0519219 0
M  V30 8324 H 762.08 3.88688 0.45134 0
M  V30 8325 H 761.703 3.38213 2.0904 0
M  V30 8326 N 762.7 -0.34323 1.53817 0
M  V30 8327 C 763.946 -1.08504 1.71332 0
M  V30 8328 C 764.279 -1.88294 0.475285 0
M  V30 8329 O 763.554 -1.87205 -0.527688 0
M  V30 8330 C 763.837 -2.02597 2.97702 0
M  V30 8331 C 763.69 -1.26268 4.31713 0
M  V30 8332 C 765.009 -3.0241 3.19744 0
M  V30 8333 H 762.128 -0.393072 0.623429 0
M  V30 8334 H 764.77 -0.363579 1.86489 0
M  V30 8335 H 762.92 -2.64118 2.8491 0
M  V30 8336 H 764.592 -0.673594 4.56356 0
M  V30 8337 H 762.835 -0.564696 4.30109 0
M  V30 8338 H 763.506 -1.95253 5.16314 0
M  V30 8339 H 765.982 -2.51004 3.31868 0
M  V30 8340 H 764.858 -3.65449 4.09558 0
M  V30 8341 H 765.119 -3.73806 2.36054 0
M  V30 8342 N 764.178 -1.45556 -0.604258 0
M  V30 8343 C 765.424 -1.49968 -1.36519 0
M  V30 8344 C 765.757 -0.142236 -1.93678 0
M  V30 8345 O 765.032 0.843717 -1.75247 0
M  V30 8346 C 765.315 -2.58146 -2.51063 0
M  V30 8347 C 765.168 -4.03346 -1.99078 0
M  V30 8348 C 766.487 -2.62581 -3.53184 0
M  V30 8349 H 763.606 -0.545993 -0.495036 0
M  V30 8350 H 766.248 -1.77382 -0.680845 0
M  V30 8351 H 764.398 -2.34901 -3.09441 0
M  V30 8352 H 766.07 -4.37811 -1.45323 0
M  V30 8353 H 764.313 -4.13845 -1.30055 0
M  V30 8354 H 764.984 -4.74731 -2.81664 0
M  V30 8355 H 767.46 -2.83419 -3.04652 0
M  V30 8356 H 766.336 -3.40131 -4.30816 0
M  V30 8357 H 766.597 -1.67798 -4.09019 0
M  V30 8358 N 765.656 0.84705 -1.32902 0
M  V30 8359 C 766.604 1.97765 -1.22441 0
M  V30 8360 C 767.598 1.68919 -0.127546 0
M  V30 8361 O 768.804 1.77633 -0.290973 0
M  V30 8362 H 765.179 0.649072 -0.379748 0
M  V30 8363 H 767.15 2.03713 -2.18044 0
M  V30 8364 C 765.899 3.33834 -0.972125 0
M  V30 8365 H 765.222 3.56564 -1.80837 0
M  V30 8366 H 766.662 4.13467 -0.939209 0
M  V30 8367 C 765.121 3.35328 0.325059 0
M  V30 8368 O 765.651 3.78887 1.33445 0
M  V30 8369 N 763.857 2.88488 0.349718 0
M  V30 8370 H 763.404 2.53234 -0.472236 0
M  V30 8371 H 763.362 2.8987 1.21748 0
M  V30 8372 N 767.134 1.16236 1.06428 0
M  V30 8373 C 768.381 0.943034 1.79201 0
M  V30 8374 C 768.709 -0.529243 1.87161 0
M  V30 8375 O 767.964 -1.40874 1.35842 0
M  V30 8376 C 768.263 1.51396 3.2375 0
M  V30 8377 C 767.929 3.00833 3.35873 0
M  V30 8378 C 766.591 3.41626 3.38888 0
M  V30 8379 C 768.943 3.96825 3.37904 0
M  V30 8380 C 766.271 4.77033 3.4155 0
M  V30 8381 C 768.623 5.32116 3.42104 0
M  V30 8382 C 767.287 5.72392 3.43401 0
M  V30 8383 H 766.557 0.34508 0.655744 0
M  V30 8384 H 769.204 1.44929 1.25171 0
M  V30 8385 H 767.509 0.929114 3.80624 0
M  V30 8386 H 769.206 1.31996 3.78653 0
M  V30 8387 H 765.796 2.68306 3.3423 0
M  V30 8388 H 769.98 3.66376 3.34787 0
M  V30 8389 H 765.236 5.07569 3.40858 0
M  V30 8390 H 769.41 6.06286 3.42623 0
M  V30 8391 H 767.037 6.77296 3.45216 0
M  V30 8392 N 768.612 -1.24939 0.960631 0
M  V30 8393 C 769.858 -1.93104 0.61958 0
M  V30 8394 C 770.191 -1.74991 -0.84212 0
M  V30 8395 O 769.466 -1.09867 -1.60498 0
M  V30 8396 C 769.749 -3.46326 0.986422 0
M  V30 8397 C 769.602 -3.73638 2.50429 0
M  V30 8398 C 770.921 -4.37067 0.515827 0
M  V30 8399 H 768.04 -0.701311 0.226566 0
M  V30 8400 H 770.682 -1.47442 1.19836 0
M  V30 8401 H 768.832 -3.85348 0.493907 0
M  V30 8402 H 770.504 -3.44217 3.07103 0
M  V30 8403 H 768.747 -3.19035 2.93937 0
M  V30 8404 H 769.418 -4.80815 2.71147 0
M  V30 8405 H 771.894 -4.05381 0.938389 0
M  V30 8406 H 770.77 -5.43022 0.80114 0
M  V30 8407 H 771.031 -4.38224 -0.584171 0
M  V30 8408 N 770.09 -0.729906 -1.39679 0
M  V30 8409 C 771.315 -0.284345 -2.05442 0
M  V30 8410 C 771.74 1.07056 -1.54663 0
M  V30 8411 O 771.098 1.67732 -0.688157 0
M  V30 8412 C 771.146 -0.290089 -3.59431 0
M  V30 8413 O 770.25 0.723978 -4.05995 0
M  V30 8414 H 769.591 -0.130311 -0.651088 0
M  V30 8415 H 772.121 -0.994403 -1.78809 0
M  V30 8416 H 772.131 -0.132712 -4.07784 0
M  V30 8417 H 770.806 -1.27877 -3.95753 0
M  V30 8418 H 769.383 0.533154 -3.69069 0
M  V30 8419 N 771.568 1.50203 -0.477153 0
M  V30 8420 C 772.501 2.25343 0.359983 0
M  V30 8421 C 773.479 1.28909 0.991022 0
M  V30 8422 O 774.663 1.58146 1.02578 0
M  V30 8423 C 771.79 3.03431 1.5049 0
M  V30 8424 C 770.836 4.14836 0.99063 0
M  V30 8425 S 771.669 5.35407 -0.0995413 0
M  V30 8426 C 772.825 6.17045 1.04911 0
M  V30 8427 H 773.058 2.95999 -0.277836 0
M  V30 8428 H 770.591 1.52159 -0.262115 0
M  V30 8429 H 772.549 3.49012 2.16105 0
M  V30 8430 H 771.21 2.32289 2.11425 0
M  V30 8431 H 770.403 4.689 1.84794 0
M  V30 8432 H 770.005 3.71723 0.412097 0
M  V30 8433 H 772.297 6.48546 1.95946 0
M  V30 8434 H 773.24 7.05979 0.547596 0
M  V30 8435 H 773.648 5.49193 1.30567 0
M  V30 8436 N 773.046 0.209999 1.56195 0
M  V30 8437 C 773.956 -0.716459 2.23392 0
M  V30 8438 C 774.972 -1.22291 1.23778 0
M  V30 8439 O 776.148 -1.26694 1.56558 0
M  V30 8440 C 773.213 -1.91261 2.89172 0
M  V30 8441 C 772.274 -1.44927 4.04097 0
M  V30 8442 C 771.507 -2.5884 4.66731 0
M  V30 8443 O 771.73 -3.76693 4.2832 0
M  V30 8444 O 770.664 -2.30701 5.55932 0
M  V30 8445 H 774.49 -0.174089 3.03201 0
M  V30 8446 H 772.075 -0.0199505 1.49387 0
M  V30 8447 H 773.957 -2.6114 3.30733 0
M  V30 8448 H 772.632 -2.4433 2.12331 0
M  V30 8449 H 771.539 -0.718839 3.67129 0
M  V30 8450 H 772.872 -0.965084 4.82646 0
M  V30 8451 N 774.524 -1.57472 -0.0634922 0
M  V30 8452 C 775.771 -1.87654 -0.761066 0
M  V30 8453 C 776.099 -0.802847 -1.77157 0
M  V30 8454 O 775.354 0.200244 -1.94673 0
M  V30 8455 C 775.653 -3.24521 -1.49736 0
M  V30 8456 C 775.319 -4.46532 -0.626065 0
M  V30 8457 C 773.981 -4.7965 -0.385978 0
M  V30 8458 C 776.333 -5.21195 -0.0224001 0
M  V30 8459 C 773.661 -5.84837 0.467118 0
M  V30 8460 C 776.013 -6.27286 0.818198 0
M  V30 8461 C 774.677 -6.58899 1.06808 0
M  V30 8462 H 773.947 -0.686675 -0.278494 0
M  V30 8463 H 776.594 -1.91488 -0.0216348 0
M  V30 8464 H 774.899 -3.16516 -2.30921 0
M  V30 8465 H 776.596 -3.45111 -2.04204 0
M  V30 8466 H 773.186 -4.20618 -0.823325 0
M  V30 8467 H 777.37 -4.95917 -0.194985 0
M  V30 8468 H 772.626 -6.07725 0.669375 0
M  V30 8469 H 776.8 -6.84298 1.29265 0
M  V30 8470 H 774.427 -7.40233 1.73088 0
M  V30 8471 N 776.003 0.335068 -1.53997 0
M  V30 8472 C 777.228 1.09859 -1.75914 0
M  V30 8473 C 777.653 1.81308 -0.500915 0
M  V30 8474 O 777.011 1.72854 0.54693 0
M  V30 8475 C 777.059 2.08122 -2.94478 0
M  V30 8476 O 776.163 3.15805 -2.65219 0
M  V30 8477 H 775.504 0.317313 -0.583274 0
M  V30 8478 H 778.034 0.382872 -2.00986 0
M  V30 8479 H 778.044 2.51195 -3.21504 0
M  V30 8480 H 776.719 1.55517 -3.8573 0
M  V30 8481 H 775.296 2.77489 -2.49107 0
M  V30 8482 N 777.481 1.45874 0.596531 0
M  V30 8483 C 778.411 1.5824 1.71705 0
M  V30 8484 C 779.392 0.433366 1.64487 0
M  V30 8485 O 780.577 0.657895 1.82717 0
M  V30 8486 C 777.707 1.55927 3.10329 0
M  V30 8487 C 776.661 2.69659 3.32367 0
M  V30 8488 C 775.987 2.52403 4.71377 0
M  V30 8489 C 777.287 4.11591 3.21544 0
M  V30 8490 H 778.981 2.52035 1.61613 0
M  V30 8491 H 776.527 1.21297 0.776082 0
M  V30 8492 H 778.48 1.63173 3.88526 0
M  V30 8493 H 777.204 0.586674 3.21288 0
M  V30 8494 H 775.863 2.61859 2.56564 0
M  V30 8495 H 775.511 1.53258 4.79083 0
M  V30 8496 H 775.211 3.28679 4.87077 0
M  V30 8497 H 776.735 2.6152 5.5176 0
M  V30 8498 H 778.149 4.20576 3.89601 0
M  V30 8499 H 776.546 4.88344 3.4877 0
M  V30 8500 H 777.616 4.32719 2.1882 0
M  V30 8501 N 778.959 -0.83999 1.33349 0
M  V30 8502 C 780.187 -1.62728 1.27778 0
M  V30 8503 C 780.602 -1.88191 -0.151505 0
M  V30 8504 O 779.959 -1.46128 -1.09329 0
M  V30 8505 C 780.01 -2.97813 2.04913 0
M  V30 8506 O 779.731 -2.73469 3.42266 0
M  V30 8507 C 781.232 -3.92245 2.0654 0
M  V30 8508 H 778.452 -0.506374 0.440257 0
M  V30 8509 H 780.996 -1.04637 1.75703 0
M  V30 8510 H 779.151 -3.52509 1.60674 0
M  V30 8511 H 779.565 -3.59483 3.81932 0
M  V30 8512 H 781.039 -4.84249 2.64966 0
M  V30 8513 H 781.516 -4.26332 1.05537 0
M  V30 8514 H 782.122 -3.43487 2.50793 0
M  V30 8515 N 780.437 -1.16799 -1.0581 0
M  V30 8516 C 781.714 -0.862616 -1.75551 0
M  V30 8517 C 782.094 0.6385 -2.01212 0
M  V30 8518 O 781.442 1.58784 -1.64317 0
M  V30 8519 C 781.652 -1.6907 -3.05314 0
M  V30 8520 C 783 -1.90675 -3.79379 0
M  V30 8521 O 784.024 -1.65976 -3.15167 0
M  V30 8522 O 782.883 -2.32145 -4.94743 0
M  V30 8523 H 779.977 -0.318789 -0.763088 0
M  V30 8524 H 782.523 -1.27461 -1.12034 0
M  V30 8525 H 781.295 -2.70912 -2.82352 0
M  V30 8526 H 780.918 -1.27606 -3.76567 0
M  V30 8527 N 781.915 1.24427 -0.967243 0
M  V30 8528 C 783.326 1.74349 -0.667785 0
M  V30 8529 C 783.677 1.78403 0.816509 0
M  V30 8530 O 782.802 1.41315 1.63887 0
M  V30 8531 C 783.397 3.16628 -1.20548 0
M  V30 8532 C 781.956 3.64059 -0.955934 0
M  V30 8533 C 781.103 2.42715 -1.34106 0
M  V30 8534 H 784.054 1.10136 -1.14262 0
M  V30 8535 H 784.075 3.76183 -0.571547 0
M  V30 8536 H 783.587 3.13646 -2.28578 0
M  V30 8537 H 781.688 3.72441 0.108858 0
M  V30 8538 H 781.801 4.51549 -1.60126 0
M  V30 8539 H 780.165 2.43114 -0.759452 0
M  V30 8540 H 780.948 2.42414 -2.43085 0
M  V30 8541 N 783.393 0.737304 1.3929 0
M  V30 8542 C 784.809 0.413132 1.5416 0
M  V30 8543 C 785.009 -1.07574 1.70382 0
M  V30 8544 O 784.065 -1.86185 1.70562 0
M  V30 8545 C 785.378 1.19817 2.75798 0
M  V30 8546 C 786.926 1.18662 2.89635 0
M  V30 8547 C 787.401 1.95427 4.14213 0
M  V30 8548 N 788.892 1.92605 4.21257 0
M  V30 8549 C 789.627 2.48808 5.16606 0
M  V30 8550 N 789.123 3.13659 6.1773 0
M  V30 8551 N 790.916 2.38829 5.08839 0
M  V30 8552 H 783.067 1.70243 1.27008 0
M  V30 8553 H 785.33 0.720802 0.61575 0
M  V30 8554 H 785.036 2.25179 2.70161 0
M  V30 8555 H 784.91 0.804144 3.68529 0
M  V30 8556 H 787.297 0.141112 2.94762 0
M  V30 8557 H 787.378 1.62003 1.97961 0
M  V30 8558 H 787.022 2.9998 4.09847 0
M  V30 8559 H 786.952 1.4949 5.04936 0
M  V30 8560 H 789.443 1.45362 3.48824 0
M  V30 8561 H 789.756 3.54006 6.8695 0
M  V30 8562 H 788.101 3.17749 6.1811 0
M  V30 8563 H 791.292 1.87806 4.28773 0
M  V30 8564 H 791.465 2.82929 5.82971 0
M  V30 8565 N 784.871 -1.49948 0.485112 0
M  V30 8566 C 785.801 -2.31675 -0.291364 0
M  V30 8567 C 786.782 -1.39216 -0.977383 0
M  V30 8568 O 787.967 -1.68133 -0.971855 0
M  V30 8569 C 785.097 -3.19326 -1.36558 0
M  V30 8570 C 784.051 -4.2045 -0.800359 0
M  V30 8571 C 783.377 -4.96931 -1.97391 0
M  V30 8572 C 784.677 -5.21925 0.197867 0
M  V30 8573 H 786.371 -2.96839 0.390775 0
M  V30 8574 H 783.917 -1.42749 0.189375 0
M  V30 8575 H 785.87 -3.75304 -1.91638 0
M  V30 8576 H 784.594 -2.52074 -2.07668 0
M  V30 8577 H 783.253 -3.65594 -0.271428 0
M  V30 8578 H 782.901 -4.26141 -2.67232 0
M  V30 8579 H 782.601 -5.65344 -1.60187 0
M  V30 8580 H 784.125 -5.55749 -2.52935 0
M  V30 8581 H 785.539 -5.72691 -0.264239 0
M  V30 8582 H 783.936 -5.98138 0.484908 0
M  V30 8583 H 785.006 -4.71809 1.11912 0
M  V30 8584 N 786.349 -0.21828 -1.56081 0
M  V30 8585 C 787.259 0.704602 -2.23769 0
M  V30 8586 C 788.275 1.21633 -1.24425 0
M  V30 8587 O 789.451 1.25862 -1.57228 0
M  V30 8588 C 786.516 1.89725 -2.90182 0
M  V30 8589 C 785.577 1.42782 -4.0486 0
M  V30 8590 C 784.81 2.56361 -4.68097 0
M  V30 8591 O 785.033 3.74417 -4.30312 0
M  V30 8592 O 783.967 2.2775 -5.57148 0
M  V30 8593 H 787.793 0.158007 -3.03289 0
M  V30 8594 H 785.378 0.0120279 -1.49395 0
M  V30 8595 H 787.26 2.59382 -3.32113 0
M  V30 8596 H 785.935 2.432 -2.13624 0
M  V30 8597 H 784.842 0.699359 -3.67505 0
M  V30 8598 H 786.175 0.939474 -4.83151 0
M  V30 8599 N 787.827 1.57504 0.0551401 0
M  V30 8600 C 789.238 1.76626 0.604979 0
M  V30 8601 C 789.589 0.845978 1.77024 0
M  V30 8602 O 788.714 0.0341936 2.16373 0
M  V30 8603 C 789.309 3.203 1.10425 0
M  V30 8604 C 787.868 3.4071 1.59981 0
M  V30 8605 C 787.015 2.72258 0.526414 0
M  V30 8606 H 789.966 1.57775 -0.171072 0
M  V30 8607 H 789.987 3.25377 1.97256 0
M  V30 8608 H 789.499 3.87255 0.255939 0
M  V30 8609 H 787.6 2.78892 2.47083 0
M  V30 8610 H 787.713 4.49227 1.66528 0
M  V30 8611 H 786.077 2.35283 0.97539 0
M  V30 8612 H 786.86 3.41879 -0.311991 0
M  V30 8613 N 789.305 -0.326896 1.54172 0
M  V30 8614 C 790.255 -1.40319 1.79707 0
M  V30 8615 C 791.239 -1.47056 0.652938 0
M  V30 8616 O 792.431 -1.51645 0.91284 0
M  V30 8617 C 789.56 -2.77222 2.02491 0
M  V30 8618 C 788.646 -2.74811 3.23016 0
M  V30 8619 N 789.037 -2.42022 4.44138 0
M  V30 8620 C 787.335 -3.05943 3.24522 0
M  V30 8621 C 788.036 -2.48263 5.26061 0
M  V30 8622 N 787.012 -2.84567 4.63166 0
M  V30 8623 H 790.814 -1.13892 2.70935 0
M  V30 8624 H 788.328 -0.53536 1.53322 0
M  V30 8625 H 790.325 -3.54793 2.18923 0
M  V30 8626 H 788.985 -3.04582 1.12515 0
M  V30 8627 H 789.996 -2.14926 4.71197 0
M  V30 8628 H 786.673 -3.38367 2.44569 0
M  V30 8629 H 788.063 -2.2593 6.32776 0
M  V30 8630 N 790.784 -1.46188 -0.588786 0
M  V30 8631 C 791.731 -1.56292 -1.69828 0
M  V30 8632 C 792.701 -0.407581 -1.61022 0
M  V30 8633 O 793.886 -0.623532 -1.80324 0
M  V30 8634 C 791.026 -1.55341 -3.08161 0
M  V30 8635 C 790.139 -2.81564 -3.27636 0
M  V30 8636 C 789.274 -2.72158 -4.56183 0
M  V30 8637 C 788.313 -3.93348 -4.68981 0
M  V30 8638 N 787.45 -3.82365 -5.88848 0
M  V30 8639 H 792.29 -2.51066 -1.6053 0
M  V30 8640 H 789.827 -1.24562 -0.782474 0
M  V30 8641 H 791.785 -1.52776 -3.88221 0
M  V30 8642 H 790.415 -0.641034 -3.16371 0
M  V30 8643 H 789.467 -2.94136 -2.41223 0
M  V30 8644 H 790.779 -3.714 -3.32962 0
M  V30 8645 H 789.933 -2.67665 -5.44464 0
M  V30 8646 H 788.672 -1.79953 -4.53286 0
M  V30 8647 H 787.677 -3.98181 -3.7912 0
M  V30 8648 H 788.902 -4.86643 -4.73662 0
M  V30 8649 H 786.848 -2.92942 -5.86959 0
M  V30 8650 H 786.765 -4.65851 -5.95415 0
M  V30 8651 H 788.033 -3.81836 -6.79575 0
M  V30 8652 N 792.262 0.832906 -1.33792 0
M  V30 8653 C 793.508 1.59053 -1.26782 0
M  V30 8654 C 793.863 1.91705 0.163399 0
M  V30 8655 O 793.156 1.5638 1.10706 0
M  V30 8656 C 793.35 2.9047 -2.08235 0
M  V30 8657 C 793.179 2.70656 -3.59132 0
M  V30 8658 C 791.949 2.67905 -4.28433 0
M  V30 8659 C 794.147 2.42871 -4.53341 0
M  V30 8660 N 792.129 2.39531 -5.65242 0
M  V30 8661 C 793.5 2.24101 -5.78082 0
M  V30 8662 C 795.555 2.28517 -4.42362 0
M  V30 8663 C 794.258 1.92432 -6.93082 0
M  V30 8664 C 796.284 1.98242 -5.57184 0
M  V30 8665 C 795.646 1.80288 -6.80937 0
M  V30 8666 H 791.745 0.584823 -0.51914 0
M  V30 8667 H 794.329 0.977252 -1.68398 0
M  V30 8668 H 792.5 3.49739 -1.6893 0
M  V30 8669 H 794.232 3.55744 -1.92947 0
M  V30 8670 H 790.987 2.81624 -3.80768 0
M  V30 8671 H 791.411 2.28211 -6.37377 0
M  V30 8672 H 796.053 2.41107 -3.47314 0
M  V30 8673 H 793.771 1.78579 -7.88121 0
M  V30 8674 H 797.357 1.87882 -5.50628 0
M  V30 8675 H 796.237 1.57199 -7.68283 0
M  V30 8676 N 793.74 1.17359 1.05189 0
M  V30 8677 C 794.65 0.904984 2.16442 0
M  V30 8678 C 795.666 -0.12686 1.73537 0
M  V30 8679 O 796.842 0.0524127 2.01332 0
M  V30 8680 C 793.907 0.422019 3.44122 0
M  V30 8681 C 792.968 1.52045 4.01473 0
M  V30 8682 C 792.201 1.06044 5.23059 0
M  V30 8683 O 792.424 -0.0854023 5.70336 0
M  V30 8684 O 791.358 1.85349 5.72651 0
M  V30 8685 H 795.184 1.8356 2.41949 0
M  V30 8686 H 792.769 0.95447 1.14936 0
M  V30 8687 H 794.651 0.160208 4.21095 0
M  V30 8688 H 793.326 -0.480444 3.20115 0
M  V30 8689 H 792.233 1.83615 3.25939 0
M  V30 8690 H 793.566 2.39863 4.29798 0
M  V30 8691 N 795.218 -1.23913 0.973828 0
M  V30 8692 C 796.165 -2.25132 0.508366 0
M  V30 8693 C 797.135 -1.59908 -0.449307 0
M  V30 8694 O 798.32 -1.87405 -0.358313 0
M  V30 8695 C 795.46 -3.4458 -0.189422 0
M  V30 8696 C 794.573 -4.24381 0.807738 0
M  V30 8697 C 793.708 -5.31131 0.0854315 0
M  V30 8698 C 792.747 -6.02635 1.07225 0
M  V30 8699 N 791.884 -7.01073 0.379535 0
M  V30 8700 H 796.724 -2.64313 1.37632 0
M  V30 8701 H 794.261 -1.29924 0.689802 0
M  V30 8702 H 796.219 -4.12706 -0.610733 0
M  V30 8703 H 794.849 -3.06218 -1.02129 0
M  V30 8704 H 793.901 -3.55735 1.34747 0
M  V30 8705 H 795.213 -4.73778 1.55998 0
M  V30 8706 H 794.367 -6.05422 -0.393572 0
M  V30 8707 H 793.106 -4.82658 -0.699461 0
M  V30 8708 H 792.111 -5.27143 1.56207 0
M  V30 8709 H 793.336 -6.53197 1.85769 0
M  V30 8710 H 791.282 -6.54862 -0.386269 0
M  V30 8711 H 791.199 -7.48382 1.07054 0
M  V30 8712 H 792.467 -7.79462 -0.0772984 0
M  V30 8713 N 796.696 -0.74468 -1.38897 0
M  V30 8714 C 797.926 -0.306982 -2.04307 0
M  V30 8715 C 798.334 1.06652 -1.56275 0
M  V30 8716 O 797.677 1.68699 -0.72708 0
M  V30 8717 C 797.739 -0.241186 -3.5869 0
M  V30 8718 C 797.403 -1.55476 -4.2974 0
M  V30 8719 C 798.4 -2.50229 -4.55721 0
M  V30 8720 C 796.085 -1.82173 -4.68101 0
M  V30 8721 C 798.079 -3.69905 -5.19085 0
M  V30 8722 C 795.766 -3.02125 -5.31191 0
M  V30 8723 C 796.764 -3.95812 -5.56616 0
M  V30 8724 O 796.452 -5.13656 -6.18395 0
M  V30 8725 H 796.184 -0.130416 -0.663301 0
M  V30 8726 H 798.738 -1.01192 -1.78744 0
M  V30 8727 H 796.968 0.519925 -3.83189 0
M  V30 8728 H 798.657 0.165806 -4.05561 0
M  V30 8729 H 799.423 -2.30877 -4.26522 0
M  V30 8730 H 795.302 -1.10091 -4.47662 0
M  V30 8731 H 798.846 -4.43047 -5.38846 0
M  V30 8732 H 794.743 -3.21374 -5.59811 0
M  V30 8733 H 795.511 -5.14119 -6.36886 0
M  V30 8734 N 798.174 1.49689 -0.493057 0
M  V30 8735 C 799.414 2.04332 0.0527374 0
M  V30 8736 C 799.778 1.36522 1.35003 0
M  V30 8737 O 800.979 1.81842 1.97957 0
M  V30 8738 C 799.25 3.56782 0.210044 0
M  V30 8739 S 800.809 4.32998 0.711232 0
M  V30 8740 H 797.627 0.710978 0.00554853 0
M  V30 8741 H 800.229 1.83835 -0.665213 0
M  V30 8742 H 798.933 4.03681 -0.739566 0
M  V30 8743 H 798.464 3.81671 0.953468 0
M  V30 8744 H 800.479 4.54916 1.98156 0
M  V30 8745 N 799.652 0.226554 1.55963 0
M  V30 8746 C 800.898 -0.404387 1.98727 0
M  V30 8747 C 801.231 -1.59059 1.11418 0
M  V30 8748 O 800.506 -1.93729 0.172971 0
M  V30 8749 C 800.789 -0.834081 3.50307 0
M  V30 8750 C 800.642 0.356104 4.48388 0
M  V30 8751 C 801.961 -1.68845 4.06423 0
M  V30 8752 H 799.08 -0.145515 0.722492 0
M  V30 8753 H 801.722 0.323791 1.87221 0
M  V30 8754 H 799.872 -1.45454 3.60244 0
M  V30 8755 H 801.544 0.99432 4.50456 0
M  V30 8756 H 799.787 1.0027 4.22053 0
M  V30 8757 H 800.458 0.0124333 5.51999 0
M  V30 8758 H 802.934 -1.16489 3.99461 0
M  V30 8759 H 801.81 -1.958 5.1279 0
M  V30 8760 H 802.071 -2.65347 3.53615 0
M  V30 8761 N 801.13 -1.57531 -0.0467866 0
M  V30 8762 C 802.06 -2.08425 -1.05268 0
M  V30 8763 C 803.041 -0.982941 -1.38825 0
M  V30 8764 O 804.226 -1.25716 -1.48018 0
M  V30 8765 C 801.356 -2.54897 -2.35891 0
M  V30 8766 C 800.31 -3.69132 -2.16623 0
M  V30 8767 C 799.636 -4.01747 -3.52851 0
M  V30 8768 C 800.936 -4.98243 -1.56689 0
M  V30 8769 H 802.63 -2.92716 -0.62908 0
M  V30 8770 H 800.176 -1.40816 -0.301156 0
M  V30 8771 H 802.129 -2.8912 -3.06574 0
M  V30 8772 H 800.853 -1.67666 -2.80278 0
M  V30 8773 H 799.512 -3.35231 -1.48377 0
M  V30 8774 H 799.16 -3.11608 -3.94853 0
M  V30 8775 H 798.86 -4.78681 -3.4079 0
M  V30 8776 H 800.384 -4.38487 -4.24925 0
M  V30 8777 H 801.798 -5.30535 -2.17268 0
M  V30 8778 H 800.195 -5.79669 -1.55255 0
M  V30 8779 H 801.265 -4.81986 -0.530827 0
M  V30 8780 N 802.608 0.318715 -1.54344 0
M  V30 8781 C 803.518 1.41535 -1.87097 0
M  V30 8782 C 804.534 1.56361 -0.763353 0
M  V30 8783 O 805.71 1.71365 -1.05811 0
M  V30 8784 C 802.775 2.76178 -2.09587 0
M  V30 8785 C 801.836 2.70486 -3.3337 0
M  V30 8786 C 801.069 3.98708 -3.54778 0
M  V30 8787 O 801.292 4.9721 -2.79532 0
M  V30 8788 O 800.226 4.01674 -4.48266 0
M  V30 8789 H 804.052 1.16764 -2.80357 0
M  V30 8790 H 801.637 0.51318 -1.4031 0
M  V30 8791 H 803.519 3.55873 -2.25682 0
M  V30 8792 H 802.194 3.00829 -1.19514 0
M  V30 8793 H 801.101 1.89325 -3.22656 0
M  V30 8794 H 802.434 2.50789 -4.23516 0
M  V30 8795 N 804.086 1.46499 0.581025 0
M  V30 8796 C 805.335 1.51162 1.3354 0
M  V30 8797 C 805.648 0.168433 1.94873 0
M  V30 8798 O 806.854 0.092883 2.71341 0
M  V30 8799 C 805.31 2.66362 2.42032 0
M  V30 8800 C 804.918 4.07109 1.86994 0
M  V30 8801 C 806.662 2.80297 3.188 0
M  V30 8802 C 804.569 5.13645 2.93125 0
M  V30 8803 H 803.499 0.562576 0.502021 0
M  V30 8804 H 806.15 1.72713 0.619863 0
M  V30 8805 H 804.532 2.38143 3.16392 0
M  V30 8806 H 805.706 4.45125 1.19166 0
M  V30 8807 H 804.021 3.97854 1.22887 0
M  V30 8808 H 806.618 3.5706 3.9801 0
M  V30 8809 H 806.961 1.87875 3.71495 0
M  V30 8810 H 807.494 3.0817 2.51547 0
M  V30 8811 H 804.233 6.07866 2.45315 0
M  V30 8812 H 803.753 4.80172 3.59437 0
M  V30 8813 H 805.432 5.39562 3.57046 0
M  V30 8814 N 805.565 -0.825799 1.34232 0
M  V30 8815 C 806.813 -1.57873 1.26177 0
M  V30 8816 C 807.134 -1.94267 -0.168904 0
M  V30 8817 O 806.404 -1.62045 -1.10084 0
M  V30 8818 H 804.984 -0.585388 0.464037 0
M  V30 8819 H 807.646 -0.986163 1.6811 0
M  V30 8820 H 806.742 -2.50283 1.86453 0
M  V30 8821 N 807.043 -1.17915 -1.04565 0
M  V30 8822 C 808.32 -0.881187 -1.74627 0
M  V30 8823 C 808.7 0.617123 -2.01878 0
M  V30 8824 O 808.048 1.57032 -1.65991 0
M  V30 8825 C 808.258 -1.72299 -3.03503 0
M  V30 8826 C 809.606 -1.94688 -3.77335 0
M  V30 8827 O 810.63 -1.6931 -3.13389 0
M  V30 8828 O 809.489 -2.37379 -4.92253 0
M  V30 8829 H 806.583 -0.326864 -0.759664 0
M  V30 8830 H 809.129 -1.28642 -1.10676 0
M  V30 8831 H 807.901 -2.73891 -2.79462 0
M  V30 8832 H 807.524 -1.31593 -3.75192 0
M  V30 8833 N 808.521 1.23394 -0.980386 0
M  V30 8834 C 809.454 2.23404 -0.465404 0
M  V30 8835 C 810.432 1.55735 0.467471 0
M  V30 8836 O 811.616 1.84295 0.395921 0
M  V30 8837 C 808.743 3.3712 0.32672 0
M  V30 8838 C 807.789 4.22935 -0.550296 0
M  V30 8839 S 808.622 4.96824 -1.99814 0
M  V30 8840 C 809.778 6.13991 -1.21516 0
M  V30 8841 H 810.011 2.6674 -1.31289 0
M  V30 8842 H 807.544 1.32874 -0.78638 0
M  V30 8843 H 809.502 4.03065 0.777738 0
M  V30 8844 H 808.163 2.92317 1.14933 0
M  V30 8845 H 807.356 5.03966 0.0585298 0
M  V30 8846 H 806.958 3.62058 -0.937558 0
M  V30 8847 H 809.25 6.75822 -0.476476 0
M  V30 8848 H 810.193 6.7926 -2.0003 0
M  V30 8849 H 810.601 5.59708 -0.733949 0
M  V30 8850 N 809.999 0.752036 1.385 0
M  V30 8851 C 810.929 0.138718 2.33088 0
M  V30 8852 C 811.91 -0.705318 1.54788 0
M  V30 8853 O 813.095 -0.646821 1.83112 0
M  V30 8854 C 810.225 -0.75641 3.38963 0
M  V30 8855 C 809.179 -0.0152239 4.27997 0
M  V30 8856 C 808.505 -1.0285 5.24715 0
M  V30 8857 C 809.805 1.15226 5.09431 0
M  V30 8858 H 811.499 0.928852 2.84627 0
M  V30 8859 H 809.045 0.448111 1.3685 0
M  V30 8860 H 810.998 -1.19513 4.04097 0
M  V30 8861 H 809.722 -1.57885 2.85902 0
M  V30 8862 H 808.381 0.404061 3.64366 0
M  V30 8863 H 808.029 -1.84496 4.67943 0
M  V30 8864 H 807.729 -0.537238 5.85139 0
M  V30 8865 H 809.253 -1.46657 5.92726 0
M  V30 8866 H 810.667 0.791161 5.67815 0
M  V30 8867 H 809.064 1.57428 5.79082 0
M  V30 8868 H 810.134 1.9659 4.43261 0
M  V30 8869 N 811.477 -1.49425 0.500989 0
M  V30 8870 C 812.726 -2.01649 -0.04538 0
M  V30 8871 C 813.039 -1.38572 -1.38047 0
M  V30 8872 O 814.245 -1.82124 -2.01353 0
M  V30 8873 C 812.701 -3.5966 -0.131337 0
M  V30 8874 C 812.309 -4.3171 1.19711 0
M  V30 8875 C 814.053 -4.19828 -0.628071 0
M  V30 8876 C 811.96 -5.81579 1.07332 0
M  V30 8877 H 810.89 -0.753715 -0.0207329 0
M  V30 8878 H 813.541 -1.71962 0.640407 0
M  V30 8879 H 811.923 -3.86063 -0.881574 0
M  V30 8880 H 813.097 -4.17008 1.96064 0
M  V30 8881 H 811.412 -3.83286 1.62729 0
M  V30 8882 H 814.009 -5.2958 -0.738198 0
M  V30 8883 H 814.352 -3.83194 -1.6269 0
M  V30 8884 H 814.885 -3.97746 0.0656314 0
M  V30 8885 H 811.624 -6.22738 2.04642 0
M  V30 8886 H 811.144 -5.98774 0.350679 0
M  V30 8887 H 812.823 -6.42614 0.752047 0
M  V30 8888 N 812.955 -0.234822 -1.55841 0
M  V30 8889 C 814.371 0.120295 -1.59146 0
M  V30 8890 C 814.571 1.57896 -1.25184 0
M  V30 8891 O 813.627 2.32138 -0.993393 0
M  V30 8892 C 814.94 -0.217984 -2.99909 0
M  V30 8893 C 816.488 -0.161298 -3.12584 0
M  V30 8894 C 816.963 -0.473438 -4.55546 0
M  V30 8895 N 818.454 -0.423494 -4.6126 0
M  V30 8896 C 819.189 -0.638334 -5.69836 0
M  V30 8897 N 818.685 -0.915659 -6.86722 0
M  V30 8898 N 820.478 -0.569864 -5.59204 0
M  V30 8899 H 812.629 -1.18622 -1.76189 0
M  V30 8900 H 814.892 -0.476426 -0.819587 0
M  V30 8901 H 814.598 -1.2309 -3.29457 0
M  V30 8902 H 814.472 0.460707 -3.74376 0
M  V30 8903 H 816.859 0.842274 -2.82825 0
M  V30 8904 H 816.94 -0.873661 -2.40418 0
M  V30 8905 H 816.584 -1.47451 -4.86025 0
M  V30 8906 H 816.514 0.260268 -5.25956 0
M  V30 8907 H 819.005 -0.217383 -3.77274 0
M  V30 8908 H 819.318 -1.06734 -7.65394 0
M  V30 8909 H 817.663 -0.953 -6.88435 0
M  V30 8910 H 820.854 -0.35334 -4.66765 0
M  V30 8911 H 821.027 -0.740698 -6.43753 0
M  V30 8912 N 814.433 1.57553 0.0384317 0
M  V30 8913 C 815.658 1.93485 0.746872 0
M  V30 8914 C 816.083 0.834069 1.68597 0
M  V30 8915 O 815.441 -0.210902 1.80069 0
M  V30 8916 C 815.489 3.28463 1.4881 0
M  V30 8917 O 814.593 3.20051 2.60079 0
M  V30 8918 H 813.934 0.632675 0.201539 0
M  V30 8919 H 816.464 2.046 -0.00329815 0
M  V30 8920 H 816.474 3.63132 1.86009 0
M  V30 8921 H 815.149 4.08147 0.799297 0
M  V30 8922 H 813.726 2.96998 2.25492 0
M  V30 8923 N 815.911 -0.310526 1.54511 0
M  V30 8924 C 816.874 -1.3657 1.84068 0
M  V30 8925 C 817.874 -1.44123 0.713097 0
M  V30 8926 O 819.064 -1.43924 0.981399 0
M  V30 8927 C 816.196 -2.75162 2.01243 0
M  V30 8928 H 817.389 -1.1161 2.78358 0
M  V30 8929 H 814.942 -0.546699 1.46427 0
M  V30 8930 H 815.677 -3.05359 1.09208 0
M  V30 8931 H 815.462 -2.71071 2.83307 0
M  V30 8932 H 816.952 -3.51473 2.25514 0
M  V30 8933 N 817.389 -1.46805 -0.573248 0
M  V30 8934 C 818.638 -1.51868 -1.32736 0
M  V30 8935 C 818.951 -0.178765 -1.94781 0
M  V30 8936 O 820.157 -0.107272 -2.71288 0
M  V30 8937 C 818.613 -2.67641 -2.40616 0
M  V30 8938 C 818.221 -4.08094 -1.84832 0
M  V30 8939 C 819.965 -2.81984 -3.17309 0
M  V30 8940 C 817.872 -5.15193 -2.90397 0
M  V30 8941 H 816.802 -0.56523 -0.49903 0
M  V30 8942 H 819.453 -1.7304 -0.610695 0
M  V30 8943 H 817.835 -2.39818 -3.15124 0
M  V30 8944 H 819.009 -4.45751 -1.16803 0
M  V30 8945 H 817.324 -3.985 -1.20775 0
M  V30 8946 H 819.921 -3.59166 -3.96111 0
M  V30 8947 H 820.264 -1.89842 -3.70494 0
M  V30 8948 H 820.797 -3.095 -2.4991 0
M  V30 8949 H 817.536 -6.09158 -2.42088 0
M  V30 8950 H 817.056 -4.82071 -3.56886 0
M  V30 8951 H 818.735 -5.41448 -3.54179 0
M  V30 8952 N 818.867 0.818669 -1.34668 0
M  V30 8953 C 820.115 1.57201 -1.27013 0
M  V30 8954 C 820.436 1.94354 0.158599 0
M  V30 8955 O 819.706 1.62626 1.09223 0
M  V30 8956 H 818.286 0.582919 -0.467135 0
M  V30 8957 H 820.948 0.977234 -1.6863 0
M  V30 8958 H 820.044 2.49291 -1.87778 0
M  V30 8959 N 820.346 1.18468 1.03938 0
M  V30 8960 C 821.278 0.870615 2.12021 0
M  V30 8961 C 822.291 -0.132318 1.62261 0
M  V30 8962 O 823.48 0.0956901 1.78243 0
M  V30 8963 C 820.58 0.279727 3.37744 0
M  V30 8964 C 819.753 1.32863 4.16733 0
M  V30 8965 C 818.812 0.753204 5.20781 0
M  V30 8966 O 817.838 1.42825 5.5099 0
M  V30 8967 N 819.04 -0.448664 5.78764 0
M  V30 8968 H 821.805 1.80091 2.39556 0
M  V30 8969 H 819.366 1.08524 1.20142 0
M  V30 8970 H 821.358 -0.118829 4.04526 0
M  V30 8971 H 819.928 -0.554621 3.07641 0
M  V30 8972 H 819.148 1.90245 3.45254 0
M  V30 8973 H 820.436 2.03574 4.66299 0
M  V30 8974 H 819.834 -1.01481 5.56523 0
M  V30 8975 H 818.391 -0.789125 6.47005 0
M  V30 8976 N 821.824 -1.22873 0.986916 0
M  V30 8977 C 823.07 -1.91746 0.660401 0
M  V30 8978 C 823.403 -1.76738 -0.804812 0
M  V30 8979 O 822.678 -1.13246 -1.58131 0
M  V30 8980 C 822.961 -3.44156 1.05966 0
M  V30 8981 C 822.814 -3.68242 2.58298 0
M  V30 8982 C 824.133 -4.35874 0.60842 0
M  V30 8983 H 821.252 -0.696347 0.241391 0
M  V30 8984 H 823.894 -1.44867 1.22937 0
M  V30 8985 H 822.044 -3.84213 0.575534 0
M  V30 8986 H 823.716 -3.37626 3.14335 0
M  V30 8987 H 821.959 -3.12728 3.00638 0
M  V30 8988 H 822.63 -4.74956 2.81285 0
M  V30 8989 H 825.106 -4.03299 1.02417 0
M  V30 8990 H 823.982 -5.41201 0.916142 0
M  V30 8991 H 824.243 -4.39364 -0.491086 0
M  V30 8992 N 823.302 -0.75937 -1.38099 0
M  V30 8993 C 824.527 -0.327859 -2.04792 0
M  V30 8994 C 824.952 1.03752 -1.56899 0
M  V30 8995 O 824.31 1.66235 -0.723581 0
M  V30 8996 C 824.358 -0.366264 -3.58735 0
M  V30 8997 O 823.462 0.637697 -4.0744 0
M  V30 8998 H 822.803 -0.144092 -0.648177 0
M  V30 8999 H 825.333 -1.03211 -1.7666 0
M  V30 9000 H 825.343 -0.219179 -4.07411 0
M  V30 9001 H 824.018 -1.36243 -3.92951 0
M  V30 9002 H 822.595 0.454749 -3.70117 0
M  V30 9003 N 824.78 1.49157 -0.508906 0
M  V30 9004 C 826.196 1.58741 -0.165372 0
M  V30 9005 C 826.396 1.5133 1.33047 0
M  V30 9006 O 825.452 1.39135 2.10707 0
M  V30 9007 C 826.765 2.91217 -0.749194 0
M  V30 9008 C 828.313 3.047 -0.716015 0
M  V30 9009 C 828.788 4.39807 -1.27804 0
M  V30 9010 N 830.279 4.46319 -1.23908 0
M  V30 9011 C 831.014 5.49325 -1.64406 0
M  V30 9012 N 830.51 6.59395 -2.12534 0
M  V30 9013 N 832.303 5.40084 -1.55773 0
M  V30 9014 H 824.454 1.52217 -1.48134 0
M  V30 9015 H 826.717 0.721514 -0.614915 0
M  V30 9016 H 826.423 3.02233 -1.79856 0
M  V30 9017 H 826.297 3.76592 -0.214144 0
M  V30 9018 H 828.684 2.9331 0.324535 0
M  V30 9019 H 828.765 2.2099 -1.2883 0
M  V30 9020 H 828.409 4.5195 -2.31741 0
M  V30 9021 H 828.339 5.2217 -0.681623 0
M  V30 9022 H 830.83 3.67354 -0.886537 0
M  V30 9023 H 831.143 7.34102 -2.41485 0
M  V30 9024 H 829.488 6.60414 -2.16513 0
M  V30 9025 H 832.679 4.52986 -1.17987 0
M  V30 9026 H 832.852 6.20233 -1.87657 0
M  V30 9027 N 826.258 0.243083 1.55714 0
M  V30 9028 C 827.669 -0.260788 1.8487 0
M  V30 9029 C 828.02 -1.57879 1.16485 0
M  V30 9030 O 827.145 -2.1184 0.441908 0
M  V30 9031 C 827.74 -0.479954 3.35383 0
M  V30 9032 C 826.299 -0.928096 3.64778 0
M  V30 9033 C 825.446 -0.00316416 2.773 0
M  V30 9034 H 828.397 0.465743 1.51712 0
M  V30 9035 H 828.418 -1.32308 3.56756 0
M  V30 9036 H 827.93 0.479468 3.85127 0
M  V30 9037 H 826.031 -1.90012 3.20509 0
M  V30 9038 H 826.144 -0.7876 4.72582 0
M  V30 9039 H 824.508 -0.513849 2.49463 0
M  V30 9040 H 825.291 0.951562 3.29849 0
M  V30 9041 N 827.736 -1.57571 -0.0300757 0
M  V30 9042 C 828.669 -2.01874 -1.06406 0
M  V30 9043 C 829.647 -0.902901 -1.35227 0
M  V30 9044 O 830.831 -1.16865 -1.47901 0
M  V30 9045 C 827.958 -2.39093 -2.39901 0
M  V30 9046 C 827.004 -3.61108 -2.26943 0
M  V30 9047 S 827.837 -5.10287 -1.62382 0
M  V30 9048 C 828.993 -5.50747 -2.97369 0
M  V30 9049 H 829.226 -2.89261 -0.686703 0
M  V30 9050 H 826.759 -1.52523 -0.240017 0
M  V30 9051 H 828.717 -2.61207 -3.16672 0
M  V30 9052 H 827.378 -1.52159 -2.74784 0
M  V30 9053 H 826.571 -3.84803 -3.25489 0
M  V30 9054 H 826.173 -3.3884 -1.58314 0
M  V30 9055 H 828.465 -5.51369 -3.93698 0
M  V30 9056 H 829.408 -6.51071 -2.78409 0
M  V30 9057 H 829.816 -4.7825 -2.99895 0
M  V30 9058 N 829.214 0.302327 -1.54673 0
M  V30 9059 C 830.461 1.0377 -1.73891 0
M  V30 9060 C 830.789 1.87309 -0.523979 0
M  V30 9061 O 830.044 1.8936 0.494084 0
M  V30 9062 C 830.343 1.97365 -2.97963 0
M  V30 9063 C 830.009 1.29812 -4.3181 0
M  V30 9064 C 828.671 1.11121 -4.68194 0
M  V30 9065 C 831.023 0.815073 -5.14787 0
M  V30 9066 C 828.351 0.428077 -5.85136 0
M  V30 9067 C 830.703 0.145665 -6.32432 0
M  V30 9068 C 829.367 -0.0532098 -6.67479 0
M  V30 9069 H 828.637 0.379721 -0.636312 0
M  V30 9070 H 831.284 0.312708 -1.8893 0
M  V30 9071 H 829.589 2.76387 -2.777 0
M  V30 9072 H 831.286 2.54331 -3.10027 0
M  V30 9073 H 827.876 1.45366 -4.03196 0
M  V30 9074 H 832.06 0.947191 -4.87178 0
M  V30 9075 H 827.316 0.262995 -6.10834 0
M  V30 9076 H 831.49 -0.236533 -6.95998 0
M  V30 9077 H 829.117 -0.58456 -7.57949 0
M  V30 9078 N 830.692 1.47107 0.565454 0
M  V30 9079 C 831.622 1.61846 1.68309 0
M  V30 9080 C 832.603 0.468159 1.63531 0
M  V30 9081 O 833.788 0.696504 1.8128 0
M  V30 9082 C 830.918 1.62474 3.06952 0
M  V30 9083 C 829.872 2.76649 3.26572 0
M  V30 9084 C 829.198 2.62345 4.65917 0
M  V30 9085 C 830.498 4.18319 3.12741 0
M  V30 9086 H 832.192 2.55407 1.5623 0
M  V30 9087 H 829.738 1.22916 0.750179 0
M  V30 9088 H 831.691 1.71378 3.84977 0
M  V30 9089 H 830.415 0.654692 3.19971 0
M  V30 9090 H 829.074 2.67242 2.50952 0
M  V30 9091 H 828.722 1.63386 4.75725 0
M  V30 9092 H 828.422 3.38936 4.79996 0
M  V30 9093 H 829.946 2.73165 5.46089 0
M  V30 9094 H 831.36 4.28745 3.80593 0
M  V30 9095 H 829.757 4.95632 3.38333 0
M  V30 9096 H 830.827 4.37263 2.09592 0
M  V30 9097 N 832.17 -0.811516 1.35101 0
M  V30 9098 C 833.4 -1.59749 1.31011 0
M  V30 9099 C 833.808 -1.88847 -0.115566 0
M  V30 9100 O 833.151 -1.48854 -1.07649 0
M  V30 9101 C 833.213 -2.95714 2.04435 0
M  V30 9102 C 832.877 -2.89456 3.53645 0
M  V30 9103 C 833.874 -2.63237 4.48333 0
M  V30 9104 C 831.559 -3.08728 3.96222 0
M  V30 9105 C 833.553 -2.56361 5.83573 0
M  V30 9106 C 831.24 -3.01475 5.3156 0
M  V30 9107 C 832.238 -2.75326 6.25048 0
M  V30 9108 O 831.926 -2.68026 7.57903 0
M  V30 9109 H 831.658 -0.502889 0.45175 0
M  V30 9110 H 834.212 -1.01687 1.78462 0
M  V30 9111 H 832.442 -3.55739 1.51613 0
M  V30 9112 H 834.131 -3.56816 1.93487 0
M  V30 9113 H 834.897 -2.48072 4.16756 0
M  V30 9114 H 830.776 -3.28094 3.23845 0
M  V30 9115 H 834.32 -2.35871 6.56514 0
M  V30 9116 H 830.217 -3.16197 5.62752 0
M  V30 9117 H 830.985 -2.8367 7.67772 0
M  V30 9118 N 833.648 -1.19017 -1.03309 0
M  V30 9119 C 834.894 -0.991681 -1.769 0
M  V30 9120 C 835.227 0.476813 -1.88255 0
M  V30 9121 O 834.502 1.35407 -1.39625 0
M  V30 9122 C 834.785 -1.65627 -3.19749 0
M  V30 9123 C 834.638 -3.19813 -3.1629 0
M  V30 9124 C 835.957 -1.37579 -4.18043 0
M  V30 9125 H 833.076 -0.361674 -0.642153 0
M  V30 9126 H 835.718 -1.46795 -1.20628 0
M  V30 9127 H 833.868 -1.25132 -3.67796 0
M  V30 9128 H 835.54 -3.69494 -2.76174 0
M  V30 9129 H 833.783 -3.51578 -2.54117 0
M  V30 9130 H 834.454 -3.61457 -4.17196 0
M  V30 9131 H 836.93 -1.72679 -3.78578 0
M  V30 9132 H 835.806 -1.86636 -5.16196 0
M  V30 9133 H 836.067 -0.300118 -4.4108 0
M  V30 9134 N 835.127 1.22348 -0.993418 0
M  V30 9135 C 836.543 1.43222 -0.704238 0
M  V30 9136 C 836.743 1.88009 0.724909 0
M  V30 9137 O 835.799 2.03429 1.49575 0
M  V30 9138 C 837.112 2.47328 -1.71025 0
M  V30 9139 C 838.66 2.61126 -1.72576 0
M  V30 9140 C 839.135 3.68453 -2.72041 0
M  V30 9141 N 840.626 3.75911 -2.70639 0
M  V30 9142 C 841.361 4.58551 -3.44266 0
M  V30 9143 N 840.857 5.45179 -4.27495 0
M  V30 9144 N 842.65 4.52866 -3.32969 0
M  V30 9145 H 834.801 0.915832 -1.91641 0
M  V30 9146 H 837.064 0.464283 -0.826526 0
M  V30 9147 H 836.77 2.21366 -2.73295 0
M  V30 9148 H 836.644 3.45939 -1.50353 0
M  V30 9149 H 839.031 2.86431 -0.710037 0
M  V30 9150 H 839.112 1.62787 -1.97317 0
M  V30 9151 H 838.756 3.43895 -3.73763 0
M  V30 9152 H 838.686 4.66362 -2.4457 0
M  V30 9153 H 841.177 3.14014 -2.10247 0
M  V30 9154 H 841.49 6.0526 -4.80499 0
M  V30 9155 H 839.835 5.44759 -4.31582 0
M  V30 9156 H 843.026 3.84215 -2.67389 0
M  V30 9157 H 843.199 5.17039 -3.90608 0
M  V30 9158 N 836.605 0.766683 1.37694 0
M  V30 9159 C 837.833 0.339939 2.04088 0
M  V30 9160 C 838.248 -1.03617 1.57826 0
M  V30 9161 O 837.605 -1.6605 0.757214 0
M  V30 9162 C 837.656 0.368269 3.59619 0
M  V30 9163 O 837.377 1.69009 4.04188 0
M  V30 9164 C 838.878 -0.0707053 4.43244 0
M  V30 9165 H 836.098 0.143189 0.655544 0
M  V30 9166 H 838.642 1.03919 1.76128 0
M  V30 9167 H 836.797 -0.282359 3.8637 0
M  V30 9168 H 837.211 1.62523 4.98685 0
M  V30 9169 H 838.685 0.000273538 5.52 0
M  V30 9170 H 839.162 -1.1204 4.24669 0
M  V30 9171 H 839.768 0.551543 4.21709 0
M  V30 9172 N 838.083 -1.48885 0.516809 0
M  V30 9173 C 839.031 -2.31066 -0.266656 0
M  V30 9174 C 840.025 -1.40393 -0.94795 0
M  V30 9175 O 841.231 -1.57366 -0.873836 0
M  V30 9176 H 837.606 -0.744654 -0.104858 0
M  V30 9177 H 839.577 -2.95045 0.446236 0
M  V30 9178 C 838.326 -3.22131 -1.3087 0
M  V30 9179 H 837.649 -3.91839 -0.793865 0
M  V30 9180 H 839.089 -3.82544 -1.82856 0
M  V30 9181 C 837.548 -2.42825 -2.33533 0
M  V30 9182 O 838.078 -2.14364 -3.39722 0
M  V30 9183 N 836.284 -2.04559 -2.06407 0
M  V30 9184 H 835.831 -2.27905 -1.20071 0
M  V30 9185 H 835.789 -1.51807 -2.75322 0
M  V30 9186 N 839.561 -0.251338 -1.55583 0
M  V30 9187 C 840.809 0.371434 -1.98657 0
M  V30 9188 C 841.13 1.58143 -1.14087 0
M  V30 9189 O 840.4 1.94607 -0.224708 0
M  V30 9190 H 838.98 0.140225 -0.733721 0
M  V30 9191 H 841.642 -0.351157 -1.9171 0
M  V30 9192 H 840.738 0.677554 -3.04657 0
M  V30 9193 N 841.039 1.57585 0.0217189 0
M  V30 9194 C 842.267 1.93871 0.722619 0
M  V30 9195 C 842.682 0.851706 1.68498 0
M  V30 9196 O 842.039 -0.17127 1.81695 0
M  V30 9197 C 842.09 3.30114 1.47333 0
M  V30 9198 O 841.811 4.34639 0.549597 0
M  V30 9199 C 843.312 3.80727 2.27072 0
M  V30 9200 H 840.532 0.639671 0.202637 0
M  V30 9201 H 843.076 2.04487 -0.0229414 0
M  V30 9202 H 841.231 3.20872 2.17071 0
M  V30 9203 H 841.645 5.13326 1.07686 0
M  V30 9204 H 843.119 4.78547 2.75131 0
M  V30 9205 H 843.596 3.12301 3.08812 0
M  V30 9206 H 844.202 3.93075 1.62395 0
M  V30 9207 N 842.517 -0.29412 1.54831 0
M  V30 9208 C 843.742 -1.05156 1.78765 0
M  V30 9209 C 844.167 -1.79916 0.548809 0
M  V30 9210 O 843.525 -1.74243 -0.500909 0
M  V30 9211 C 843.573 -2.00242 2.99893 0
M  V30 9212 O 842.677 -3.08662 2.73499 0
M  V30 9213 H 842.018 -0.301737 0.591482 0
M  V30 9214 H 844.548 -0.329449 2.0193 0
M  V30 9215 H 844.558 -2.42583 3.28051 0
M  V30 9216 H 843.233 -1.45235 3.89717 0
M  V30 9217 H 841.81 -2.70786 2.56377 0
M  V30 9218 N 843.995 -1.47404 -0.557645 0
M  V30 9219 C 844.942 -1.59859 -1.66475 0
M  V30 9220 C 845.912 -0.441644 -1.60121 0
M  V30 9221 O 847.097 -0.661641 -1.78961 0
M  V30 9222 C 844.237 -1.61843 -3.04797 0
M  V30 9223 C 843.35 -2.8845 -3.2159 0
M  V30 9224 C 842.485 -2.81773 -4.50308 0
M  V30 9225 C 841.524 -4.03208 -4.60532 0
M  V30 9226 N 840.661 -3.94769 -5.80604 0
M  V30 9227 H 845.501 -2.54415 -1.55168 0
M  V30 9228 H 843.038 -1.26194 -0.755876 0
M  V30 9229 H 844.996 -1.60976 -3.84893 0
M  V30 9230 H 843.626 -0.707997 -3.1494 0
M  V30 9231 H 842.678 -2.99186 -2.34929 0
M  V30 9232 H 843.99 -3.78379 -3.25009 0
M  V30 9233 H 843.144 -2.79153 -5.38663 0
M  V30 9234 H 841.883 -1.89527 -4.49367 0
M  V30 9235 H 840.888 -4.06133 -3.70589 0
M  V30 9236 H 842.113 -4.9658 -4.63233 0
M  V30 9237 H 840.059 -3.05326 -5.80613 0
M  V30 9238 H 839.976 -4.78375 -5.854 0
M  V30 9239 H 841.244 -3.96165 -6.71322 0
M  V30 9240 N 845.473 0.80434 -1.35529 0
M  V30 9241 C 846.722 1.55665 -1.28263 0
M  V30 9242 C 847.035 1.95096 0.140352 0
M  V30 9243 O 848.241 2.69422 0.335303 0
M  V30 9244 C 846.697 2.80935 -2.24952 0
M  V30 9245 C 846.305 2.48733 -3.72607 0
M  V30 9246 C 848.049 3.5894 -2.26632 0
M  V30 9247 C 845.956 3.70308 -4.61114 0
M  V30 9248 H 844.886 0.584301 -0.476559 0
M  V30 9249 H 847.537 0.88395 -1.60806 0
M  V30 9250 H 845.919 3.49927 -1.85383 0
M  V30 9251 H 847.093 1.87733 -4.20824 0
M  V30 9252 H 845.408 1.83969 -3.73557 0
M  V30 9253 H 848.005 4.49244 -2.89973 0
M  V30 9254 H 848.348 3.96433 -1.27069 0
M  V30 9255 H 848.881 2.96912 -2.64742 0
M  V30 9256 H 845.62 3.37922 -5.61684 0
M  V30 9257 H 845.14 4.30526 -4.17621 0
M  V30 9258 H 846.819 4.37511 -4.76648 0
M  V30 9259 N 846.951 1.19563 1.02676 0
M  V30 9260 C 847.898 0.935291 2.11 0
M  V30 9261 C 848.868 -0.130685 1.65585 0
M  V30 9262 O 850.053 0.0119062 1.90796 0
M  V30 9263 C 847.193 0.482384 3.41712 0
M  V30 9264 C 846.306 1.61537 4.00662 0
M  V30 9265 C 845.441 1.11378 5.19392 0
M  V30 9266 C 844.48 2.22052 5.70403 0
M  V30 9267 N 843.617 1.73185 6.80405 0
M  V30 9268 H 848.457 1.86275 2.32606 0
M  V30 9269 H 845.994 0.928656 1.14081 0
M  V30 9270 H 847.952 0.20118 4.16715 0
M  V30 9271 H 846.582 -0.408086 3.2021 0
M  V30 9272 H 845.634 2.01173 3.22852 0
M  V30 9273 H 846.946 2.44912 4.34534 0
M  V30 9274 H 846.1 0.787935 6.01562 0
M  V30 9275 H 844.839 0.249789 4.8706 0
M  V30 9276 H 843.844 2.55465 4.86845 0
M  V30 9277 H 845.069 3.08911 6.04774 0
M  V30 9278 H 843.015 0.890973 6.49921 0
M  V30 9279 H 842.932 2.50148 7.13416 0
M  V30 9280 H 844.2 1.4357 7.66164 0
M  V30 9281 N 848.429 -1.21819 0.999893 0
M  V30 9282 C 849.362 -2.22635 0.500887 0
M  V30 9283 C 850.34 -1.56459 -0.442636 0
M  V30 9284 O 851.524 -1.84902 -0.366551 0
M  V30 9285 C 848.651 -3.37598 -0.273046 0
M  V30 9286 C 847.697 -4.22006 0.617511 0
M  V30 9287 S 848.53 -4.93583 2.07693 0
M  V30 9288 C 849.686 -6.1198 1.31269 0
M  V30 9289 H 849.919 -2.64618 1.35516 0
M  V30 9290 H 847.452 -1.31606 0.807419 0
M  V30 9291 H 849.41 -4.04251 -0.713515 0
M  V30 9292 H 848.071 -2.94108 -1.10268 0
M  V30 9293 H 847.264 -5.03995 0.0216543 0
M  V30 9294 H 846.866 -3.6052 0.99504 0
M  V30 9295 H 849.158 -6.74979 0.583933 0
M  V30 9296 H 850.101 -6.75991 2.10811 0
M  V30 9297 H 850.509 -5.5847 0.822901 0
M  V30 9298 N 849.908 -0.773975 -1.37286 0
M  V30 9299 C 850.855 -0.159938 -2.30245 0
M  V30 9300 C 851.825 0.687356 -1.51211 0
M  V30 9301 O 853.01 0.639255 -1.79773 0
M  V30 9302 C 850.15 0.711452 -3.37687 0
M  V30 9303 C 849.263 -0.152692 -4.3173 0
M  V30 9304 C 848.398 0.723613 -5.26248 0
M  V30 9305 C 847.437 -0.14293 -6.11933 0
M  V30 9306 N 846.574 0.691479 -6.98687 0
M  V30 9307 H 851.414 -0.958182 -2.82175 0
M  V30 9308 H 848.951 -0.48411 -1.38906 0
M  V30 9309 H 850.909 1.2315 -3.9861 0
M  V30 9310 H 849.539 1.47528 -2.87116 0
M  V30 9311 H 848.591 -0.790574 -3.72094 0
M  V30 9312 H 849.903 -0.821027 -4.91997 0
M  V30 9313 H 849.057 1.31006 -5.92387 0
M  V30 9314 H 847.796 1.42562 -4.66398 0
M  V30 9315 H 846.801 -0.7419 -5.44771 0
M  V30 9316 H 848.026 -0.842305 -6.73856 0
M  V30 9317 H 845.972 1.37806 -6.41362 0
M  V30 9318 H 845.889 0.0804911 -7.55957 0
M  V30 9319 H 847.157 1.26225 -7.69212 0
M  V30 9320 N 851.386 1.48609 -0.524698 0
M  V30 9321 C 852.632 2.034 0.00323579 0
M  V30 9322 C 852.987 1.39513 1.32491 0
M  V30 9323 O 852.28 0.529876 1.84127 0
M  V30 9324 C 852.474 3.56906 0.187873 0
M  V30 9325 C 852.303 4.35674 -1.11436 0
M  V30 9326 C 851.073 4.76809 -1.67276 0
M  V30 9327 C 853.271 4.72814 -2.02365 0
M  V30 9328 N 851.253 5.40093 -2.91843 0
M  V30 9329 C 852.624 5.36062 -3.11508 0
M  V30 9330 C 854.679 4.54747 -2.02755 0
M  V30 9331 C 853.382 5.83154 -4.21099 0
M  V30 9332 C 855.408 5.02815 -3.11337 0
M  V30 9333 C 854.77 5.66084 -4.19199 0
M  V30 9334 H 850.869 0.780967 -0.0401842 0
M  V30 9335 H 853.453 1.81495 -0.704808 0
M  V30 9336 H 851.624 3.78645 0.864996 0
M  V30 9337 H 853.356 3.98335 0.714938 0
M  V30 9338 H 850.111 4.57754 -1.21483 0
M  V30 9339 H 850.535 5.76305 -3.55249 0
M  V30 9340 H 855.177 4.05217 -1.20661 0
M  V30 9341 H 852.895 6.31692 -5.03975 0
M  V30 9342 H 856.481 4.9063 -3.12688 0
M  V30 9343 H 855.361 6.02604 -5.01834 0
M  V30 9344 N 852.864 0.259585 1.55447 0
M  V30 9345 C 854.112 -0.360893 1.98852 0
M  V30 9346 C 854.433 -1.57535 1.14924 0
M  V30 9347 O 853.703 -1.94485 0.235025 0
M  V30 9348 H 852.283 -0.136332 0.734454 0
M  V30 9349 H 854.945 0.361319 1.91522 0
M  V30 9350 H 854.041 -0.661388 3.05012 0
M  V30 9351 N 854.342 -1.57594 -0.0133615 0
M  V30 9352 C 855.275 -2.02991 -1.04259 0
M  V30 9353 C 856.253 -0.917193 -1.34262 0
M  V30 9354 O 857.437 -1.18428 -1.46653 0
M  V30 9355 C 854.564 -2.41624 -2.37351 0
M  V30 9356 C 853.61 -3.63495 -2.231 0
M  V30 9357 S 854.443 -5.1198 -1.5696 0
M  V30 9358 C 855.599 -5.5387 -2.91511 0
M  V30 9359 H 855.832 -2.89973 -0.655985 0
M  V30 9360 H 853.365 -1.52769 -0.223827 0
M  V30 9361 H 855.323 -2.64551 -3.13884 0
M  V30 9362 H 853.984 -1.55065 -2.73155 0
M  V30 9363 H 853.177 -3.88233 -3.21389 0
M  V30 9364 H 852.779 -3.405 -1.54711 0
M  V30 9365 H 855.071 -5.55514 -3.87828 0
M  V30 9366 H 856.014 -6.53988 -2.71488 0
M  V30 9367 H 856.422 -4.81404 -2.94806 0
M  V30 9368 N 855.82 0.285905 -1.54985 0
M  V30 9369 C 856.73 1.37534 -1.90057 0
M  V30 9370 C 857.746 1.54707 -0.796348 0
M  V30 9371 O 858.922 1.69082 -1.09423 0
M  V30 9372 C 855.987 2.7167 -2.15398 0
M  V30 9373 C 855.048 2.63354 -3.39033 0
M  V30 9374 C 854.281 3.91093 -3.63155 0
M  V30 9375 O 854.504 4.91169 -2.90015 0
M  V30 9376 O 853.438 3.92075 -4.56685 0
M  V30 9377 H 857.264 1.10791 -2.8277 0
M  V30 9378 H 854.849 0.483303 -1.41367 0
M  V30 9379 H 856.731 3.51006 -2.33179 0
M  V30 9380 H 855.406 2.98226 -1.25868 0
M  V30 9381 H 854.313 1.82438 -3.26599 0
M  V30 9382 H 855.646 2.41749 -4.2874 0
M  V30 9383 N 857.298 1.47698 0.54982 0
M  V30 9384 C 858.231 1.55288 1.67215 0
M  V30 9385 C 859.209 0.404533 1.57487 0
M  V30 9386 O 860.393 0.613372 1.78241 0
M  V30 9387 C 857.52 1.46233 3.05505 0
M  V30 9388 C 856.566 2.65662 3.33655 0
M  V30 9389 S 857.399 4.278 3.22098 0
M  V30 9390 C 858.555 4.21311 4.62869 0
M  V30 9391 H 858.788 2.50238 1.60524 0
M  V30 9392 H 856.321 1.35987 0.731227 0
M  V30 9393 H 858.279 1.41696 3.85269 0
M  V30 9394 H 856.94 0.526543 3.09655 0
M  V30 9395 H 856.133 2.55411 4.3449 0
M  V30 9396 H 855.735 2.67359 2.61524 0
M  V30 9397 H 858.027 3.90021 5.53977 0
M  V30 9398 H 858.97 5.22257 4.78177 0
M  V30 9399 H 859.378 3.52063 4.41262 0
M  V30 9400 N 858.776 -0.797141 1.35954 0
M  V30 9401 C 860.192 -1.09408 1.16198 0
M  V30 9402 C 860.392 -2.01491 -0.0191682 0
M  V30 9403 O 859.448 -2.42977 -0.686902 0
M  V30 9404 C 860.761 -1.71597 2.46931 0
M  V30 9405 C 862.309 -1.83974 2.53224 0
M  V30 9406 C 862.784 -2.49579 3.84024 0
M  V30 9407 N 864.275 -2.57055 3.85327 0
M  V30 9408 C 865.01 -3.08608 4.83268 0
M  V30 9409 N 864.506 -3.60527 5.91601 0
M  V30 9410 N 866.299 -3.07249 4.70696 0
M  V30 9411 H 858.45 -0.185209 2.11591 0
M  V30 9412 H 860.713 -0.144768 0.936881 0
M  V30 9413 H 860.419 -1.11404 3.3359 0
M  V30 9414 H 860.293 -2.71193 2.62172 0
M  V30 9415 H 862.68 -2.43308 1.66988 0
M  V30 9416 H 862.761 -0.83207 2.41889 0
M  V30 9417 H 862.405 -1.90892 4.70662 0
M  V30 9418 H 862.335 -3.50902 3.92651 0
M  V30 9419 H 864.826 -2.20283 3.07057 0
M  V30 9420 H 865.139 -3.98192 6.62317 0
M  V30 9421 H 863.484 -3.587 5.95281 0
M  V30 9422 H 866.675 -2.65972 3.85197 0
M  V30 9423 H 866.848 -3.47119 5.47186 0
M  V30 9424 N 860.254 -1.20106 -1.0204 0
M  V30 9425 C 861.67 -0.955099 -1.27867 0
M  V30 9426 C 861.87 0.367595 -1.98119 0
M  V30 9427 O 860.926 1.09705 -2.27423 0
M  V30 9428 C 862.239 -2.13507 -2.11744 0
M  V30 9429 C 863.787 -2.17563 -2.25023 0
M  V30 9430 C 864.262 -3.35035 -3.12275 0
M  V30 9431 N 865.753 -3.35024 -3.19864 0
M  V30 9432 C 866.488 -4.22566 -3.8759 0
M  V30 9433 N 865.984 -5.20278 -4.57474 0
M  V30 9434 N 867.777 -4.10418 -3.84075 0
M  V30 9435 H 859.928 -2.05193 -0.54861 0
M  V30 9436 H 862.191 -0.897689 -0.304728 0
M  V30 9437 H 861.897 -3.09275 -1.67456 0
M  V30 9438 H 861.771 -2.11281 -3.12474 0
M  V30 9439 H 864.158 -1.22359 -2.68537 0
M  V30 9440 H 864.239 -2.23838 -1.23815 0
M  V30 9441 H 863.883 -4.30522 -2.69468 0
M  V30 9442 H 863.813 -3.25996 -4.13563 0
M  V30 9443 H 866.304 -2.64299 -2.701 0
M  V30 9444 H 866.617 -5.83408 -5.06809 0
M  V30 9445 H 864.962 -5.24219 -4.56311 0
M  V30 9446 H 868.153 -3.33353 -3.28623 0
M  V30 9447 H 868.326 -4.78854 -4.36581 0
M  V30 9448 N 861.732 1.21287 -1.00634 0
M  V30 9449 C 862.972 1.92106 -0.698194 0
M  V30 9450 C 863.336 1.76437 0.757222 0
M  V30 9451 O 864.537 2.41641 1.17741 0
M  V30 9452 C 862.808 3.39748 -1.10932 0
M  V30 9453 S 864.367 4.29013 -0.921586 0
M  V30 9454 H 861.185 0.663755 -0.254853 0
M  V30 9455 H 863.787 1.46772 -1.29145 0
M  V30 9456 H 862.491 3.48669 -2.16467 0
M  V30 9457 H 862.022 3.90101 -0.508419 0
M  V30 9458 H 864.037 4.95871 0.180578 0
M  V30 9459 N 863.21 0.781244 1.36873 0
M  V30 9460 C 864.14 0.188128 2.32741 0
M  V30 9461 C 865.121 -0.672326 1.56249 0
M  V30 9462 O 866.306 -0.607835 1.84442 0
M  V30 9463 C 863.436 -0.684341 3.40491 0
M  V30 9464 C 862.39 0.0755641 4.27933 0
M  V30 9465 C 861.716 -0.916968 5.26779 0
M  V30 9466 C 863.016 1.26006 5.06873 0
M  V30 9467 H 864.71 0.989016 2.82593 0
M  V30 9468 H 862.256 0.477038 1.35869 0
M  V30 9469 H 864.209 -1.10915 4.06541 0
M  V30 9470 H 862.933 -1.51785 2.89187 0
M  V30 9471 H 861.592 0.481258 3.63427 0
M  V30 9472 H 861.24 -1.74528 4.71751 0
M  V30 9473 H 860.94 -0.413 5.86147 0
M  V30 9474 H 862.464 -1.34052 5.95703 0
M  V30 9475 H 863.878 0.911425 5.66009 0
M  V30 9476 H 862.275 1.69676 5.75613 0
M  V30 9477 H 863.345 2.05948 4.38991 0
M  V30 9478 N 864.689 -1.48329 0.532571 0
M  V30 9479 C 865.619 -2.32485 -0.217511 0
M  V30 9480 C 866.6 -1.42255 -0.932598 0
M  V30 9481 O 867.785 -1.7114 -0.917873 0
M  V30 9482 C 864.915 -3.23509 -1.26329 0
M  V30 9483 C 863.869 -4.22784 -0.666191 0
M  V30 9484 C 863.195 -5.0296 -1.81482 0
M  V30 9485 C 864.495 -5.21031 0.363813 0
M  V30 9486 H 866.189 -2.95445 0.485014 0
M  V30 9487 H 863.735 -1.42075 0.234694 0
M  V30 9488 H 865.688 -3.81211 -1.79601 0
M  V30 9489 H 864.412 -2.58554 -1.99543 0
M  V30 9490 H 863.071 -3.66272 -0.15498 0
M  V30 9491 H 862.719 -4.34427 -2.5354 0
M  V30 9492 H 862.419 -5.70154 -1.4212 0
M  V30 9493 H 863.943 -5.63514 -2.35126 0
M  V30 9494 H 865.357 -5.73241 -0.0819079 0
M  V30 9495 H 863.754 -5.96292 0.674956 0
M  V30 9496 H 864.824 -4.6801 1.26865 0
M  V30 9497 N 866.167 -0.267825 -1.55308 0
M  V30 9498 C 867.099 0.65591 -2.19614 0
M  V30 9499 C 868.112 1.12302 -1.17865 0
M  V30 9500 O 869.301 1.04618 -1.44628 0
M  V30 9501 C 866.401 1.90582 -2.80235 0
M  V30 9502 C 865.574 1.58673 -4.07605 0
M  V30 9503 C 864.633 2.68836 -4.52343 0
M  V30 9504 O 863.659 2.35331 -5.18274 0
M  V30 9505 N 864.861 3.98752 -4.21873 0
M  V30 9506 H 867.626 0.105566 -2.99514 0
M  V30 9507 H 865.187 -0.0886263 -1.61657 0
M  V30 9508 H 867.179 2.63561 -3.07112 0
M  V30 9509 H 865.749 2.3654 -2.04371 0
M  V30 9510 H 864.969 0.691113 -3.88094 0
M  V30 9511 H 866.257 1.34845 -4.90606 0
M  V30 9512 H 865.655 4.28797 -3.68985 0
M  V30 9513 H 864.212 4.68131 -4.53537 0
M  V30 9514 N 867.645 1.57599 0.00500368 0
M  V30 9515 C 868.87 1.95026 0.705663 0
M  V30 9516 C 869.295 0.869643 1.6679 0
M  V30 9517 O 868.653 -0.172659 1.80476 0
M  V30 9518 C 868.701 3.31545 1.4181 0
M  V30 9519 O 867.805 3.25495 2.53232 0
M  V30 9520 H 867.146 0.636808 0.188074 0
M  V30 9521 H 869.676 2.04547 -0.046696 0
M  V30 9522 H 869.686 3.66996 1.78265 0
M  V30 9523 H 868.361 4.09751 0.712543 0
M  V30 9524 H 866.938 3.01714 2.19142 0
M  V30 9525 N 869.123 -0.277682 1.55134 0
M  V30 9526 C 870.053 -1.34742 1.90701 0
M  V30 9527 C 871.034 -1.51757 0.768354 0
M  V30 9528 O 872.219 -1.64879 1.02609 0
M  V30 9529 C 869.349 -2.70775 2.17481 0
M  V30 9530 C 868.303 -2.68497 3.33307 0
M  V30 9531 C 867.629 -4.08037 3.45557 0
M  V30 9532 C 868.929 -2.28178 4.69821 0
M  V30 9533 H 870.623 -1.05224 2.803 0
M  V30 9534 H 868.169 -0.504738 1.34864 0
M  V30 9535 H 870.122 -3.45719 2.40949 0
M  V30 9536 H 868.846 -3.01867 1.24676 0
M  V30 9537 H 867.505 -1.9601 3.09799 0
M  V30 9538 H 867.153 -4.36344 2.50226 0
M  V30 9539 H 866.853 -4.07409 4.23429 0
M  V30 9540 H 868.377 -4.84726 3.71312 0
M  V30 9541 H 869.791 -2.92843 4.92865 0
M  V30 9542 H 868.188 -2.3872 5.50575 0
M  V30 9543 H 869.258 -1.23308 4.6896 0
M  V30 9544 N 870.601 -1.47988 -0.541979 0
M  V30 9545 C 871.533 -1.5769 -1.66332 0
M  V30 9546 C 872.546 -0.461994 -1.56107 0
M  V30 9547 O 873.735 -0.732306 -1.62787 0
M  V30 9548 C 870.835 -1.47939 -3.04905 0
M  V30 9549 C 870.008 -2.74263 -3.40733 0
M  V30 9550 C 869.067 -2.58133 -4.58534 0
M  V30 9551 O 868.093 -3.31991 -4.62354 0
M  V30 9552 N 869.295 -1.6696 -5.55972 0
M  V30 9553 H 872.06 -2.54389 -1.5845 0
M  V30 9554 H 869.621 -1.4456 -0.728979 0
M  V30 9555 H 871.613 -1.34861 -3.81569 0
M  V30 9556 H 870.183 -0.592626 -3.06931 0
M  V30 9557 H 869.403 -3.01992 -2.53366 0
M  V30 9558 H 870.691 -3.58094 -3.6145 0
M  V30 9559 H 870.089 -1.06134 -5.55655 0
M  V30 9560 H 868.646 -1.59826 -6.31901 0
M  V30 9561 N 872.079 0.78992 -1.36375 0
M  V30 9562 C 873.011 1.91113 -1.26524 0
M  V30 9563 C 874.024 1.61747 -0.184851 0
M  V30 9564 O 875.213 1.73004 -0.439524 0
M  V30 9565 C 872.313 3.25908 -0.92937 0
M  V30 9566 C 871.486 3.83057 -2.11154 0
M  V30 9567 C 870.545 4.96289 -1.74881 0
M  V30 9568 O 869.571 5.12834 -2.46962 0
M  V30 9569 N 870.773 5.76478 -0.682193 0
M  V30 9570 H 873.538 2.00085 -2.23128 0
M  V30 9571 H 871.099 0.968165 -1.29762 0
M  V30 9572 H 873.091 3.99151 -0.667884 0
M  V30 9573 H 871.661 3.12556 -0.0524843 0
M  V30 9574 H 870.881 3.01808 -2.53586 0
M  V30 9575 H 872.169 4.1797 -2.90135 0
M  V30 9576 H 871.567 5.65638 -0.0836661 0
M  V30 9577 H 870.124 6.50026 -0.480529 0
M  V30 9578 N 873.557 1.20646 1.01402 0
M  V30 9579 C 874.806 1.01242 1.7445 0
M  V30 9580 C 875.119 -0.455732 1.90217 0
M  V30 9581 O 876.325 -0.768951 2.60383 0
M  V30 9582 C 874.781 1.76275 3.13776 0
M  V30 9583 C 874.389 3.27201 3.06013 0
M  V30 9584 C 876.133 1.65248 3.91016 0
M  V30 9585 C 874.04 3.9476 4.40362 0
M  V30 9586 H 872.97 0.375202 0.654018 0
M  V30 9587 H 875.621 1.44292 1.13367 0
M  V30 9588 H 874.003 1.26013 3.75415 0
M  V30 9589 H 875.177 3.84695 2.53665 0
M  V30 9590 H 873.492 3.38669 2.42265 0
M  V30 9591 H 876.089 2.13061 4.90417 0
M  V30 9592 H 876.432 0.609128 4.1182 0
M  V30 9593 H 876.965 2.12937 3.3601 0
M  V30 9594 H 873.704 4.99258 4.24761 0
M  V30 9595 H 873.224 3.42054 4.92706 0
M  V30 9596 H 874.903 3.99159 5.09196 0
M  V30 9597 N 875.035 -1.20752 1.01276 0
M  V30 9598 C 875.945 -2.27079 0.589277 0
M  V30 9599 C 876.961 -1.6999 -0.371389 0
M  V30 9600 O 878.137 -2.00044 -0.233294 0
M  V30 9601 C 875.202 -3.4663 -0.0696715 0
M  V30 9602 C 874.263 -4.18962 0.936454 0
M  V30 9603 C 873.496 -5.32806 0.308856 0
M  V30 9604 O 873.719 -5.63376 -0.8924 0
M  V30 9605 O 872.653 -5.93131 1.02367 0
M  V30 9606 H 876.479 -2.6551 1.47438 0
M  V30 9607 H 874.064 -1.27297 0.782045 0
M  V30 9608 H 875.946 -4.19119 -0.437873 0
M  V30 9609 H 874.621 -3.10082 -0.929029 0
M  V30 9610 H 873.528 -3.48661 1.35595 0
M  V30 9611 H 874.861 -4.59441 1.76565 0
M  V30 9612 N 876.513 -0.788492 -1.36457 0
M  V30 9613 C 877.738 -0.371224 -2.04051 0
M  V30 9614 C 878.163 1.004 -1.59064 0
M  V30 9615 O 877.521 1.64663 -0.758679 0
M  V30 9616 C 877.569 -0.442275 -3.57877 0
M  V30 9617 O 876.673 0.55113 -4.08701 0
M  V30 9618 H 876.014 -0.157808 -0.644975 0
M  V30 9619 H 878.544 -1.06935 -1.74431 0
M  V30 9620 H 878.554 -0.305548 -4.06854 0
M  V30 9621 H 877.229 -1.44547 -3.89973 0
M  V30 9622 H 875.806 0.37614 -3.70998 0
M  V30 9623 N 877.991 1.48044 -0.54043 0
M  V30 9624 C 878.924 2.26667 0.264083 0
M  V30 9625 C 879.902 1.32996 0.935456 0
M  V30 9626 O 881.086 1.62354 0.95778 0
M  V30 9627 C 878.213 3.09541 1.37485 0
M  V30 9628 C 877.259 4.18664 0.813792 0
M  V30 9629 S 878.092 5.34503 -0.326536 0
M  V30 9630 C 879.248 6.20939 0.786452 0
M  V30 9631 H 879.481 2.94554 -0.403129 0
M  V30 9632 H 877.014 1.5091 -0.326415 0
M  V30 9633 H 878.972 3.57863 2.01107 0
M  V30 9634 H 877.633 2.41048 2.01382 0
M  V30 9635 H 876.826 4.76316 1.6474 0
M  V30 9636 H 876.428 3.73136 0.254066 0
M  V30 9637 H 878.72 6.56273 1.68262 0
M  V30 9638 H 879.663 7.07667 0.247673 0
M  V30 9639 H 880.071 5.54236 1.07156 0
M  V30 9640 N 879.47 0.276058 1.55163 0
M  V30 9641 C 880.719 -0.341098 1.98795 0
M  V30 9642 C 881.032 -1.56905 1.16791 0
M  V30 9643 O 882.238 -2.25922 1.50571 0
M  V30 9644 C 880.694 -0.658231 3.5383 0
M  V30 9645 C 880.302 0.549972 4.44611 0
M  V30 9646 C 882.046 -1.23796 4.06048 0
M  V30 9647 C 879.953 0.207373 5.91036 0
M  V30 9648 H 878.883 -0.131224 0.742493 0
M  V30 9649 H 881.534 0.380858 1.79504 0
M  V30 9650 H 879.916 -1.43911 3.68925 0
M  V30 9651 H 881.09 1.32681 4.41285 0
M  V30 9652 H 879.405 1.04661 4.03032 0
M  V30 9653 H 882.002 -1.50811 5.12991 0
M  V30 9654 H 882.345 -2.17214 3.55139 0
M  V30 9655 H 882.878 -0.519345 3.94395 0
M  V30 9656 H 879.617 1.10946 6.46043 0
M  V30 9657 H 879.137 -0.532687 5.9743 0
M  V30 9658 H 880.816 -0.200072 6.46691 0
M  V30 9659 N 880.948 -1.576 0.00335426 0
M  V30 9660 C 881.858 -2.12067 -1.00322 0
M  V30 9661 C 882.874 -1.06672 -1.37467 0
M  V30 9662 O 884.05 -1.38592 -1.46131 0
M  V30 9663 C 881.115 -2.61593 -2.27531 0
M  V30 9664 C 880.176 -3.81602 -1.96668 0
M  V30 9665 C 879.409 -4.28756 -3.17811 0
M  V30 9666 O 879.632 -3.75222 -4.2961 0
M  V30 9667 O 878.566 -5.20877 -3.01613 0
M  V30 9668 H 882.392 -2.98299 -0.570199 0
M  V30 9669 H 879.977 -1.47835 -0.215682 0
M  V30 9670 H 881.859 -2.93631 -3.02256 0
M  V30 9671 H 880.534 -1.78457 -2.70065 0
M  V30 9672 H 879.441 -3.54531 -1.19408 0
M  V30 9673 H 880.774 -4.65822 -1.58968 0
M  V30 9674 N 882.426 0.269451 -1.5528 0
M  V30 9675 C 883.389 1.31642 -1.87625 0
M  V30 9676 C 884.389 1.42182 -0.751058 0
M  V30 9677 O 885.579 1.41272 -1.01921 0
M  V30 9678 C 882.711 2.6973 -2.08467 0
M  V30 9679 H 883.904 1.0419 -2.81219 0
M  V30 9680 H 881.457 0.507685 -1.47825 0
M  V30 9681 H 882.192 3.02356 -1.17266 0
M  V30 9682 H 881.977 2.63465 -2.90394 0
M  V30 9683 H 883.467 3.4537 -2.34753 0
M  V30 9684 N 883.904 1.48273 0.534124 0
M  V30 9685 C 884.814 1.65162 1.66609 0
M  V30 9686 C 885.83 0.534177 1.65598 0
M  V30 9687 O 887.006 0.804715 1.84625 0
M  V30 9688 C 884.071 1.68354 3.03081 0
M  V30 9689 C 883.132 2.91696 3.1498 0
M  V30 9690 C 882.365 2.94725 4.44941 0
M  V30 9691 O 882.588 2.06285 5.31792 0
M  V30 9692 O 881.522 3.8685 4.61119 0
M  V30 9693 H 885.348 2.60991 1.55298 0
M  V30 9694 H 882.933 1.31626 0.706749 0
M  V30 9695 H 884.815 1.72998 3.84252 0
M  V30 9696 H 883.49 0.756978 3.14725 0
M  V30 9697 H 882.397 2.92586 2.33119 0
M  V30 9698 H 883.73 3.83722 3.0825 0
M  V30 9699 N 885.382 -0.782676 1.36792 0
M  V30 9700 C 886.607 -1.57676 1.34733 0
M  V30 9701 C 887.032 -1.87979 -0.0675253 0
M  V30 9702 O 886.39 -1.48404 -1.04144 0
M  V30 9703 C 886.438 -2.87047 2.18257 0
M  V30 9704 O 885.542 -3.80946 1.57969 0
M  V30 9705 H 884.883 -0.478034 0.460846 0
M  V30 9706 H 887.413 -0.969578 1.80168 0
M  V30 9707 H 887.423 -3.36254 2.31079 0
M  V30 9708 H 886.098 -2.64319 3.21104 0
M  V30 9709 H 884.675 -3.39558 1.54126 0
M  V30 9710 N 886.86 -1.21182 -1.00761 0
M  V30 9711 C 888.085 -1.05411 -1.78615 0
M  V30 9712 C 888.51 0.391837 -1.83973 0
M  V30 9713 O 887.868 1.28256 -1.28141 0
M  V30 9714 C 887.916 -1.65285 -3.20489 0
M  V30 9715 O 887.02 -0.896558 -4.02536 0
M  V30 9716 H 886.361 -0.37116 -0.550578 0
M  V30 9717 H 888.891 -1.60669 -1.26676 0
M  V30 9718 H 888.901 -1.69397 -3.71172 0
M  V30 9719 H 887.576 -2.70514 -3.15904 0
M  V30 9720 H 886.153 -0.930335 -3.61108 0
M  V30 9721 N 888.338 1.20213 -1.01915 0
M  V30 9722 C 889.584 1.89928 -0.711007 0
M  V30 9723 C 889.917 1.7881 0.75767 0
M  V30 9724 O 889.192 1.17399 1.55073 0
M  V30 9725 C 889.475 3.41225 -1.15053 0
M  V30 9726 C 889.328 3.61264 -2.67971 0
M  V30 9727 C 890.647 4.34108 -0.72377 0
M  V30 9728 H 887.766 0.689702 -0.259768 0
M  V30 9729 H 890.408 1.41557 -1.26734 0
M  V30 9730 H 888.558 3.82552 -0.677199 0
M  V30 9731 H 890.23 3.29173 -3.23176 0
M  V30 9732 H 888.473 3.04647 -3.08824 0
M  V30 9733 H 889.144 4.67331 -2.93779 0
M  V30 9734 H 891.62 4.00442 -1.13073 0
M  V30 9735 H 890.496 5.38581 -1.05931 0
M  V30 9736 H 890.757 4.40512 0.374424 0
M  V30 9737 N 889.816 0.795718 1.36037 0
M  V30 9738 C 890.763 0.196548 2.29962 0
M  V30 9739 C 891.733 -0.663213 1.52285 0
M  V30 9740 O 892.918 -0.610574 1.80767 0
M  V30 9741 C 890.058 -0.657639 3.38776 0
M  V30 9742 C 889.171 0.221358 4.31433 0
M  V30 9743 C 888.306 -0.6398 5.27333 0
M  V30 9744 C 887.345 0.240265 6.11628 0
M  V30 9745 N 886.482 -0.580237 6.99698 0
M  V30 9746 H 891.322 1.00295 2.80615 0
M  V30 9747 H 888.859 0.506147 1.38118 0
M  V30 9748 H 890.817 -1.16793 4.00519 0
M  V30 9749 H 889.447 -1.42941 2.89426 0
M  V30 9750 H 888.499 0.84967 3.70789 0
M  V30 9751 H 889.811 0.899195 4.90628 0
M  V30 9752 H 888.965 -1.21566 5.94396 0
M  V30 9753 H 887.704 -1.35124 4.68607 0
M  V30 9754 H 886.709 0.828474 5.43522 0
M  V30 9755 H 887.934 0.949403 6.72431 0
M  V30 9756 H 885.88 -1.27585 6.43473 0
M  V30 9757 H 885.797 0.0397853 7.5599 0
M  V30 9758 H 887.065 -1.13972 7.71123 0
M  V30 9759 N 891.294 -1.47756 0.548274 0
M  V30 9760 C 892.204 -2.33678 -0.207773 0
M  V30 9761 C 893.22 -1.47636 -0.920843 0
M  V30 9762 O 894.396 -1.80583 -0.89173 0
M  V30 9763 C 891.461 -3.24147 -1.23003 0
M  V30 9764 C 890.522 -4.26073 -0.52535 0
M  V30 9765 C 889.755 -5.12219 -1.4989 0
M  V30 9766 O 889.978 -5.0066 -2.73305 0
M  V30 9767 O 888.912 -5.93051 -1.02828 0
M  V30 9768 H 892.738 -2.99609 0.496794 0
M  V30 9769 H 890.323 -1.4617 0.308982 0
M  V30 9770 H 892.205 -3.80055 -1.82034 0
M  V30 9771 H 890.88 -2.60855 -1.91668 0
M  V30 9772 H 889.787 -3.7395 0.105927 0
M  V30 9773 H 891.12 -4.92054 0.119686 0
M  V30 9774 N 892.772 -0.284283 -1.55015 0
M  V30 9775 C 893.719 0.599194 -2.22886 0
M  V30 9776 C 894.689 1.14264 -1.20553 0
M  V30 9777 O 895.874 1.19025 -1.49123 0
M  V30 9778 C 893.014 1.77317 -2.96062 0
M  V30 9779 C 892.127 1.26271 -4.13134 0
M  V30 9780 C 891.262 2.39922 -4.73931 0
M  V30 9781 C 890.301 1.85925 -5.8318 0
M  V30 9782 N 889.438 2.93084 -6.38002 0
M  V30 9783 H 894.278 0.0137816 -2.97997 0
M  V30 9784 H 891.815 -0.00496503 -1.47099 0
M  V30 9785 H 893.773 2.46339 -3.36709 0
M  V30 9786 H 892.403 2.33047 -2.23358 0
M  V30 9787 H 891.455 0.465296 -3.77544 0
M  V30 9788 H 892.767 0.827284 -4.91892 0
M  V30 9789 H 891.921 3.1692 -5.17346 0
M  V30 9790 H 890.66 2.86784 -3.9447 0
M  V30 9791 H 889.665 1.07409 -5.39206 0
M  V30 9792 H 890.89 1.39987 -6.64515 0
M  V30 9793 H 888.836 3.3931 -5.61431 0
M  V30 9794 H 888.753 2.53986 -7.12058 0
M  V30 9795 H 890.021 3.7003 -6.86075 0
M  V30 9796 N 894.251 1.57596 -0.0117121 0
M  V30 9797 C 895.528 1.82323 0.708356 0
M  V30 9798 C 895.908 0.891947 1.91331 0
M  V30 9799 O 895.256 -0.0565984 2.2843 0
M  V30 9800 C 895.466 3.31111 1.10303 0
M  V30 9801 C 896.814 3.97147 1.50199 0
M  V30 9802 O 897.838 3.35503 1.1965 0
M  V30 9803 O 896.697 5.0576 2.07049 0
M  V30 9804 H 893.791 0.751173 0.345931 0
M  V30 9805 H 896.337 1.69657 -0.0380632 0
M  V30 9806 H 895.109 3.90534 0.24467 0
M  V30 9807 H 894.732 3.48818 1.90818 0
M  V30 9808 N 895.729 -0.261212 1.5542 0
M  V30 9809 C 896.662 -1.34906 1.84054 0
M  V30 9810 C 897.64 -1.47024 0.694466 0
M  V30 9811 O 898.824 -1.63463 0.938719 0
M  V30 9812 C 895.951 -2.7242 2.01259 0
M  V30 9813 C 894.997 -2.77526 3.23855 0
M  V30 9814 S 895.83 -2.35578 4.80898 0
M  V30 9815 C 896.986 -3.75045 5.01091 0
M  V30 9816 H 897.219 -1.10416 2.76035 0
M  V30 9817 H 894.752 -0.461461 1.47343 0
M  V30 9818 H 896.71 -3.51606 2.11857 0
M  V30 9819 H 895.371 -2.94155 1.10145 0
M  V30 9820 H 894.564 -3.78483 3.32816 0
M  V30 9821 H 894.166 -2.0637 3.11909 0
M  V30 9822 H 896.458 -4.7042 4.87556 0
M  V30 9823 H 897.401 -3.71027 6.03112 0
M  V30 9824 H 897.809 -3.66894 4.29009 0
M  V30 9825 N 897.207 -1.48554 -0.526253 0
M  V30 9826 C 898.435 -1.60429 -1.30652 0
M  V30 9827 C 898.85 -0.265963 -1.86917 0
M  V30 9828 O 898.207 0.745262 -1.6659 0
M  V30 9829 C 898.258 -2.65377 -2.45473 0
M  V30 9830 O 897.979 -3.94017 -1.91527 0
M  V30 9831 C 899.48 -2.87726 -3.37237 0
M  V30 9832 H 896.7 -0.540817 -0.397187 0
M  V30 9833 H 899.244 -1.94409 -0.634461 0
M  V30 9834 H 897.399 -2.34246 -3.08557 0
M  V30 9835 H 897.813 -4.51623 -2.66715 0
M  V30 9836 H 899.287 -3.64951 -4.14144 0
M  V30 9837 H 899.764 -1.96688 -3.92696 0
M  V30 9838 H 900.37 -3.20176 -2.79942 0
M  V30 9839 N 898.685 0.775411 -1.37205 0
M  V30 9840 C 899.632 1.88857 -1.32671 0
M  V30 9841 C 900.602 1.64976 -0.192899 0
M  V30 9842 O 901.787 1.86944 -0.381673 0
M  V30 9843 C 898.927 3.25871 -1.13588 0
M  V30 9844 C 898.04 3.61731 -2.36167 0
M  V30 9845 C 897.175 4.87934 -2.09985 0
M  V30 9846 C 896.214 5.16514 -3.2845 0
M  V30 9847 N 895.351 6.33905 -3.01842 0
M  V30 9848 H 900.191 1.92068 -2.27846 0
M  V30 9849 H 897.728 0.939066 -1.13225 0
M  V30 9850 H 899.686 4.04903 -1.00546 0
M  V30 9851 H 898.316 3.22045 -0.220613 0
M  V30 9852 H 897.368 2.77712 -2.59962 0
M  V30 9853 H 898.68 3.78792 -3.24528 0
M  V30 9854 H 897.834 5.74863 -1.93953 0
M  V30 9855 H 896.573 4.7297 -1.18956 0
M  V30 9856 H 895.578 4.28063 -3.45025 0
M  V30 9857 H 896.803 5.33389 -4.20325 0
M  V30 9858 H 894.749 6.20306 -2.13439 0
M  V30 9859 H 894.666 6.51364 -3.83746 0
M  V30 9860 H 895.934 7.23779 -2.8942 0
M  V30 9861 N 900.163 1.21714 1.00117 0
M  V30 9862 C 901.073 0.99597 2.12409 0
M  V30 9863 C 902.089 -0.0531431 1.73919 0
M  V30 9864 O 903.265 0.137757 2.00928 0
M  V30 9865 C 900.33 0.567593 3.42022 0
M  V30 9866 C 899.391 1.68936 3.94663 0
M  V30 9867 C 898.624 1.28133 5.1809 0
M  V30 9868 O 898.847 0.156574 5.70185 0
M  V30 9869 O 897.781 2.0947 5.64275 0
M  V30 9870 H 901.607 1.93657 2.33946 0
M  V30 9871 H 899.192 1.00236 1.10784 0
M  V30 9872 H 901.074 0.338664 4.20037 0
M  V30 9873 H 899.749 -0.34424 3.21864 0
M  V30 9874 H 898.656 1.97274 3.17858 0
M  V30 9875 H 899.989 2.57876 4.19238 0
M  V30 9876 N 901.641 -1.19671 1.02551 0
M  V30 9877 C 902.888 -1.89268 0.720002 0
M  V30 9878 C 903.216 -1.79411 -0.751127 0
M  V30 9879 O 902.471 -1.17859 -1.5623 0
M  V30 9880 C 902.77 -3.39647 1.11241 0
M  V30 9881 C 902.436 -3.69706 2.58125 0
M  V30 9882 C 901.098 -3.7762 2.98256 0
M  V30 9883 C 903.45 -3.83301 3.53171 0
M  V30 9884 C 900.778 -3.96594 4.32354 0
M  V30 9885 C 903.13 -4.03788 4.86968 0
M  V30 9886 C 901.794 -4.09934 5.26793 0
M  V30 9887 H 901.064 -0.692579 0.263467 0
M  V30 9888 H 903.711 -1.41738 1.28774 0
M  V30 9889 H 902.016 -3.89052 0.463234 0
M  V30 9890 H 903.713 -3.91809 0.853602 0
M  V30 9891 H 900.303 -3.64152 2.26033 0
M  V30 9892 H 904.487 -3.76534 3.2332 0
M  V30 9893 H 899.743 -3.9959 4.6275 0
M  V30 9894 H 903.917 -4.1325 5.60533 0
M  V30 9895 H 901.544 -4.24389 6.30712 0
M  V30 9896 N 903.119 -0.802921 -1.35613 0
M  V30 9897 C 904.366 -0.381576 -1.98872 0
M  V30 9898 C 904.694 1.0503 -1.63704 0
M  V30 9899 O 903.949 1.7427 -0.890418 0
M  V30 9900 C 904.248 -0.507806 -3.53774 0
M  V30 9901 C 903.914 -1.90245 -4.088 0
M  V30 9902 C 902.576 -2.28401 -4.2354 0
M  V30 9903 C 904.928 -2.81504 -4.3864 0
M  V30 9904 C 902.256 -3.57192 -4.65436 0
M  V30 9905 C 904.608 -4.09737 -4.81973 0
M  V30 9906 C 903.272 -4.47897 -4.94919 0
M  V30 9907 H 902.542 -0.139629 -0.727726 0
M  V30 9908 H 905.189 -1.023 -1.61886 0
M  V30 9909 H 903.494 0.21708 -3.91198 0
M  V30 9910 H 905.191 -0.162625 -4.0067 0
M  V30 9911 H 901.781 -1.596 -3.97776 0
M  V30 9912 H 905.965 -2.53276 -4.26808 0
M  V30 9913 H 901.221 -3.86611 -4.73648 0
M  V30 9914 H 905.395 -4.80555 -5.04024 0
M  V30 9915 H 903.022 -5.47747 -5.27141 0
M  V30 9916 N 904.597 1.47463 -0.556102 0
M  V30 9917 C 905.507 2.33785 0.195378 0
M  V30 9918 C 906.523 1.48123 0.913 0
M  V30 9919 O 907.699 1.81053 0.882141 0
M  V30 9920 C 904.764 3.24795 1.21282 0
M  V30 9921 C 903.825 4.26346 0.502747 0
M  V30 9922 C 903.058 5.13007 1.47172 0
M  V30 9923 O 903.281 5.02103 2.70646 0
M  V30 9924 O 902.215 5.93588 0.996814 0
M  V30 9925 H 906.041 2.99341 -0.512676 0
M  V30 9926 H 903.626 1.46004 -0.31673 0
M  V30 9927 H 905.508 3.81015 1.80016 0
M  V30 9928 H 904.183 2.61868 1.90282 0
M  V30 9929 H 903.09 3.73889 -0.125757 0
M  V30 9930 H 904.423 4.91984 -0.145779 0
M  V30 9931 N 906.075 0.2925 1.54862 0
M  V30 9932 C 907.023 -0.603186 2.24643 0
M  V30 9933 C 908.017 -1.1439 1.24946 0
M  V30 9934 O 909.223 -1.09552 1.42823 0
M  V30 9935 H 905.598 -0.213105 0.721173 0
M  V30 9936 H 907.569 0.00799278 2.98399 0
M  V30 9937 C 906.318 -1.76769 2.99413 0
M  V30 9938 H 905.641 -1.36084 3.75927 0
M  V30 9939 H 907.081 -2.37066 3.51533 0
M  V30 9940 C 905.54 -2.66669 2.05886 0
M  V30 9941 O 906.07 -3.67525 1.62136 0
M  V30 9942 N 904.276 -2.34216 1.7202 0
M  V30 9943 H 903.823 -1.52246 2.07795 0
M  V30 9944 H 903.781 -2.94635 1.09717 0
M  V30 9945 N 907.553 -1.57587 0.0200696 0
M  V30 9946 C 908.5 -2.09667 -0.964791 0
M  V30 9947 C 909.47 -0.99664 -1.32877 0
M  V30 9948 O 910.655 -1.2703 -1.42366 0
M  V30 9949 C 907.795 -2.62101 -2.24493 0
M  V30 9950 C 906.908 -3.8608 -1.93821 0
M  V30 9951 C 906.043 -4.26939 -3.16064 0
M  V30 9952 C 905.082 -5.43701 -2.81169 0
M  V30 9953 N 904.219 -5.79759 -3.9601 0
M  V30 9954 H 909.059 -2.93538 -0.513751 0
M  V30 9955 H 906.596 -1.45096 -0.242 0
M  V30 9956 H 908.554 -2.90587 -2.99358 0
M  V30 9957 H 907.184 -1.81074 -2.6723 0
M  V30 9958 H 906.236 -3.64378 -1.09237 0
M  V30 9959 H 907.548 -4.71028 -1.64115 0
M  V30 9960 H 906.702 -4.56814 -3.99257 0
M  V30 9961 H 905.441 -3.40739 -3.48924 0
M  V30 9962 H 904.446 -5.13529 -1.96387 0
M  V30 9963 H 905.671 -6.31593 -2.49535 0
M  V30 9964 H 903.617 -4.96516 -4.28729 0
M  V30 9965 H 903.534 -6.59327 -3.69896 0
M  V30 9966 H 904.802 -6.14235 -4.79933 0
M  V30 9967 N 909.032 0.252966 -1.55557 0
M  V30 9968 C 910.257 1.0038 -1.8149 0
M  V30 9969 C 910.682 1.78397 -0.596318 0
M  V30 9970 O 910.04 1.7551 0.454535 0
M  V30 9971 C 910.088 1.9222 -3.05096 0
M  V30 9972 O 909.192 3.01302 -2.81587 0
M  V30 9973 H 908.533 0.285949 -0.599274 0
M  V30 9974 H 911.063 0.275795 -2.02733 0
M  V30 9975 H 911.073 2.338 -3.34368 0
M  V30 9976 H 909.748 1.34852 -3.93431 0
M  V30 9977 H 908.325 2.63894 -2.63466 0
M  V30 9978 N 910.51 1.48831 0.518367 0
M  V30 9979 C 911.42 1.6692 1.64848 0
M  V30 9980 C 912.436 0.551711 1.65022 0
M  V30 9981 O 913.612 0.824251 1.83761 0
M  V30 9982 C 910.677 1.71559 3.01278 0
M  V30 9983 C 909.738 2.9502 3.11868 0
M  V30 9984 C 908.971 2.99428 4.4179 0
M  V30 9985 O 909.194 2.11914 5.29574 0
M  V30 9986 O 908.128 3.91719 4.5699 0
M  V30 9987 H 911.954 2.62623 1.52521 0
M  V30 9988 H 909.539 1.32368 0.692749 0
M  V30 9989 H 911.421 1.77064 3.82396 0
M  V30 9990 H 910.096 0.790316 3.13904 0
M  V30 9991 H 909.003 2.95042 2.30003 0
M  V30 9992 H 910.336 3.8697 3.04163 0
M  V30 9993 N 911.988 -0.768124 1.37614 0
M  V30 9994 C 913.216 -1.55726 1.36224 0
M  V30 9995 C 913.631 -1.8873 -0.0515357 0
M  V30 9996 O 912.988 -1.51718 -1.0143 0
M  V30 9997 C 913.039 -2.86533 2.20412 0
M  V30 9998 O 912.76 -2.54942 3.56281 0
M  V30 9999 C 914.261 -3.80745 2.27041 0
M  V30 10000 H 911.481 -0.482325 0.46648 0
M  V30 10001 H 914.025 -0.95176 1.81002 0
M  V30 10002 H 912.18 -3.43496 1.79134 0
M  V30 10003 H 912.594 -3.38732 4.00451 0
M  V30 10004 H 914.068 -4.69523 2.90263 0
M  V30 10005 H 914.545 -4.20138 1.27987 0
M  V30 10006 H 915.151 -3.2971 2.68647 0
M  V30 10007 N 913.466 -1.22244 -0.994698 0
M  V30 10008 C 914.712 -1.05752 -1.73747 0
M  V30 10009 C 915.067 0.403416 -1.88123 0
M  V30 10010 O 914.36 1.29511 -1.412 0
M  V30 10011 C 914.554 -1.70014 -3.14372 0
M  V30 10012 C 914.383 -3.22205 -3.1371 0
M  V30 10013 C 913.153 -3.91301 -3.19705 0
M  V30 10014 C 915.351 -4.19163 -2.98005 0
M  V30 10015 N 913.333 -5.30594 -3.08778 0
M  V30 10016 C 914.704 -5.45274 -2.95087 0
M  V30 10017 C 916.759 -4.10078 -2.82383 0
M  V30 10018 C 915.462 -6.63345 -2.78146 0
M  V30 10019 C 917.488 -5.27797 -2.66803 0
M  V30 10020 C 916.85 -6.52826 -2.6457 0
M  V30 10021 H 912.949 -0.441393 -0.64552 0
M  V30 10022 H 915.533 -1.54757 -1.18146 0
M  V30 10023 H 913.704 -1.23562 -3.68221 0
M  V30 10024 H 915.436 -1.46631 -3.77202 0
M  V30 10025 H 912.191 -3.42289 -3.27315 0
M  V30 10026 H 912.615 -6.0358 -3.06628 0
M  V30 10027 H 917.257 -3.14201 -2.82909 0
M  V30 10028 H 914.975 -7.59373 -2.76367 0
M  V30 10029 H 918.561 -5.22598 -2.557 0
M  V30 10030 H 917.441 -7.42383 -2.5266 0
M  V30 10031 N 914.944 1.19125 -1.03184 0
M  V30 10032 C 916.355 1.70564 -0.759264 0
M  V30 10033 C 916.706 1.8248 0.720794 0
M  V30 10034 O 915.831 1.49804 1.56166 0
M  V30 10035 C 916.426 3.09793 -1.37163 0
M  V30 10036 C 914.985 3.5848 -1.14757 0
M  V30 10037 C 914.132 2.35265 -1.46784 0
M  V30 10038 H 917.083 1.03925 -1.19939 0
M  V30 10039 H 917.104 3.72624 -0.77015 0
M  V30 10040 H 916.616 3.01088 -2.44882 0
M  V30 10041 H 914.717 3.72494 -0.0887182 0
M  V30 10042 H 914.83 4.42426 -1.83836 0
M  V30 10043 H 913.194 2.38747 -0.887254 0
M  V30 10044 H 913.977 2.29188 -2.55593 0
M  V30 10045 N 916.422 0.810101 1.35185 0
M  V30 10046 C 917.671 0.388589 1.97921 0
M  V30 10047 C 917.984 -1.05079 1.64978 0
M  V30 10048 O 919.19 -1.57559 2.21105 0
M  V30 10049 C 917.646 0.643864 3.54094 0
M  V30 10050 C 917.254 2.09602 3.95943 0
M  V30 10051 C 918.998 0.287883 4.23523 0
M  V30 10052 C 916.905 2.29686 5.44976 0
M  V30 10053 H 915.835 0.141562 0.740592 0
M  V30 10054 H 918.486 0.994653 1.54204 0
M  V30 10055 H 916.868 -0.0321978 3.95987 0
M  V30 10056 H 918.042 2.81018 3.65192 0
M  V30 10057 H 916.357 2.4122 3.39414 0
M  V30 10058 H 918.954 0.415946 5.3308 0
M  V30 10059 H 919.297 -0.766305 4.09186 0
M  V30 10060 H 919.83 0.918004 3.87063 0
M  V30 10061 H 916.569 3.33563 5.64284 0
M  V30 10062 H 916.089 1.62798 5.77284 0
M  V30 10063 H 917.768 2.11411 6.11485 0
M  V30 10064 N 917.9 -1.47166 0.563914 0
M  V30 10065 C 919.148 -2.02056 0.0422873 0
M  V30 10066 C 919.469 -1.43992 -1.31497 0
M  V30 10067 O 918.739 -0.617578 -1.85911 0
M  V30 10068 H 917.319 -0.746893 0.0126427 0
M  V30 10069 H 919.981 -1.80492 0.735441 0
M  V30 10070 H 919.077 -3.12073 -0.0408044 0
M  V30 10071 N 919.378 -0.300708 -1.54705 0
M  V30 10072 C 920.288 0.584996 -2.27189 0
M  V30 10073 C 921.304 1.14866 -1.30697 0
M  V30 10074 O 922.48 1.17351 -1.63679 0
M  V30 10075 C 919.545 1.74076 -2.99831 0
M  V30 10076 C 918.606 1.2112 -4.1186 0
M  V30 10077 C 917.839 2.31188 -4.81028 0
M  V30 10078 O 918.062 3.5108 -4.49554 0
M  V30 10079 O 916.996 1.97897 -5.68437 0
M  V30 10080 H 920.822 -0.00298177 -3.037 0
M  V30 10081 H 918.407 -0.0671802 -1.49249 0
M  V30 10082 H 920.289 2.41413 -3.45395 0
M  V30 10083 H 918.964 2.31535 -2.26215 0
M  V30 10084 H 917.871 0.50357 -3.70695 0
M  V30 10085 H 919.204 0.682046 -4.87452 0
M  V30 10086 N 920.856 1.57574 -0.0284266 0
M  V30 10087 C 922.081 1.96479 0.664137 0
M  V30 10088 C 922.506 0.904826 1.64908 0
M  V30 10089 O 921.864 -0.134339 1.80802 0
M  V30 10090 C 921.912 3.34479 1.34745 0
M  V30 10091 O 921.016 3.30794 2.46271 0
M  V30 10092 H 920.357 0.640654 0.174524 0
M  V30 10093 H 922.887 2.04402 -0.0900729 0
M  V30 10094 H 922.897 3.70694 1.7044 0
M  V30 10095 H 921.572 4.1117 0.625468 0
M  V30 10096 H 920.149 3.06294 2.12693 0
M  V30 10097 N 922.334 -0.244713 1.55689 0
M  V30 10098 C 923.745 -0.813603 1.6804 0
M  V30 10099 C 924.096 -1.85936 0.626281 0
M  V30 10100 O 923.221 -2.15206 -0.227038 0
M  V30 10101 C 923.816 -1.48252 3.04642 0
M  V30 10102 C 922.375 -1.99908 3.18926 0
M  V30 10103 C 921.522 -0.850958 2.6392 0
M  V30 10104 H 924.473 -0.0204805 1.58687 0
M  V30 10105 H 924.494 -2.35062 2.99209 0
M  V30 10106 H 924.006 -0.721164 3.81341 0
M  V30 10107 H 922.107 -2.78918 2.47054 0
M  V30 10108 H 922.22 -2.19497 4.25862 0
M  V30 10109 H 920.584 -1.25206 2.21801 0
M  V30 10110 H 921.367 -0.10265 3.43146 0
M  V30 10111 N 923.813 -1.49104 -0.510467 0
M  V30 10112 C 924.76 -1.65074 -1.61305 0
M  V30 10113 C 925.73 -0.492362 -1.58635 0
M  V30 10114 O 926.915 -0.718241 -1.76765 0
M  V30 10115 C 924.055 -1.71457 -2.99493 0
M  V30 10116 C 923.168 -2.98536 -3.12251 0
M  V30 10117 C 922.303 -2.95957 -4.41116 0
M  V30 10118 C 921.342 -4.17655 -4.47471 0
M  V30 10119 N 920.479 -4.13041 -5.67751 0
M  V30 10120 H 925.319 -2.59222 -1.46996 0
M  V30 10121 H 922.856 -1.28535 -0.715346 0
M  V30 10122 H 924.814 -1.7314 -3.79577 0
M  V30 10123 H 923.444 -0.807834 -3.12528 0
M  V30 10124 H 922.496 -3.06509 -2.25292 0
M  V30 10125 H 923.808 -3.88527 -3.12807 0
M  V30 10126 H 922.962 -2.96149 -5.2951 0
M  V30 10127 H 921.701 -2.03728 -4.4311 0
M  V30 10128 H 920.706 -4.17717 -3.57481 0
M  V30 10129 H 921.931 -5.11066 -4.472 0
M  V30 10130 H 919.877 -3.23643 -5.70606 0
M  V30 10131 H 919.794 -4.96757 -5.69884 0
M  V30 10132 H 921.062 -4.17322 -6.58379 0
M  V30 10133 N 925.291 0.760815 -1.38019 0
M  V30 10134 C 926.539 1.51673 -1.33566 0
M  V30 10135 C 926.86 1.94852 0.076024 0
M  V30 10136 O 926.13 1.67112 1.02227 0
M  V30 10137 H 924.71 0.562581 -0.491438 0
M  V30 10138 H 927.372 0.904832 -1.72623 0
M  V30 10139 H 926.468 2.41102 -1.98182 0
M  V30 10140 N 926.769 1.22769 0.988202 0
M  V30 10141 C 928.015 1.05665 1.73097 0
M  V30 10142 C 928.348 -0.406615 1.89895 0
M  V30 10143 O 927.623 -1.30132 1.44554 0
M  V30 10144 C 927.906 1.77381 3.13382 0
M  V30 10145 C 927.759 3.31332 3.04203 0
M  V30 10146 C 929.078 1.52999 4.12649 0
M  V30 10147 H 926.197 0.385258 0.628288 0
M  V30 10148 H 928.839 1.51171 1.15097 0
M  V30 10149 H 926.989 1.38696 3.62899 0
M  V30 10150 H 928.661 3.79489 2.6227 0
M  V30 10151 H 926.904 3.60767 2.40894 0
M  V30 10152 H 927.575 3.76692 4.03493 0
M  V30 10153 H 930.051 1.86611 3.71908 0
M  V30 10154 H 928.927 2.05666 5.08913 0
M  V30 10155 H 929.188 0.463615 4.39662 0
M  V30 10156 N 928.247 -1.18576 1.03814 0
M  V30 10157 C 929.157 -2.25778 0.637311 0
M  V30 10158 C 930.173 -1.7074 -0.335248 0
M  V30 10159 O 931.349 -2.00494 -0.19081 0
M  V30 10160 C 928.414 -3.467 0.00386953 0
M  V30 10161 C 927.475 -4.16881 1.02511 0
M  V30 10162 C 926.708 -5.32031 0.421802 0
M  V30 10163 O 926.931 -5.65142 -0.772699 0
M  V30 10164 O 925.865 -5.90826 1.14925 0
M  V30 10165 H 929.691 -2.62323 1.53037 0
M  V30 10166 H 927.276 -1.25609 0.80887 0
M  V30 10167 H 929.158 -4.19953 -0.348873 0
M  V30 10168 H 927.833 -3.11983 -0.863047 0
M  V30 10169 H 926.74 -3.45707 1.4296 0
M  V30 10170 H 928.073 -4.55592 1.86271 0
M  V30 10171 N 929.725 -0.817259 -1.34754 0
M  V30 10172 C 930.635 -0.236946 -2.334 0
M  V30 10173 C 931.651 0.625685 -1.62361 0
M  V30 10174 O 932.827 0.534921 -1.94166 0
M  V30 10175 C 929.892 0.596215 -3.41535 0
M  V30 10176 C 928.953 -0.288154 -4.28332 0
M  V30 10177 C 928.186 0.505337 -5.31302 0
M  V30 10178 O 928.409 1.73912 -5.43241 0
M  V30 10179 O 927.343 -0.109374 -6.01801 0
M  V30 10180 H 931.169 -1.05327 -2.84851 0
M  V30 10181 H 928.754 -0.579275 -1.37713 0
M  V30 10182 H 930.636 1.07041 -4.07578 0
M  V30 10183 H 929.311 1.38997 -2.92338 0
M  V30 10184 H 928.218 -0.809724 -3.65232 0
M  V30 10185 H 929.551 -1.04612 -4.80955 0
M  V30 10186 N 931.203 1.46865 -0.571711 0
M  V30 10187 C 932.428 2.07323 -0.0564655 0
M  V30 10188 C 932.853 1.41938 1.23431 0
M  V30 10189 O 932.211 0.499334 1.74288 0
M  V30 10190 C 932.259 3.6044 0.107339 0
M  V30 10191 O 931.363 3.95558 1.1665 0
M  V30 10192 H 930.704 0.661475 -0.0578465 0
M  V30 10193 H 933.234 1.88669 -0.791524 0
M  V30 10194 H 933.244 4.06767 0.316987 0
M  V30 10195 H 931.919 4.07425 -0.835348 0
M  V30 10196 H 930.496 3.60957 0.936189 0
M  V30 10197 N 932.681 0.308908 1.54543 0
M  V30 10198 C 933.906 -0.303196 2.05172 0
M  V30 10199 C 934.331 -1.46133 1.18434 0
M  V30 10200 O 933.689 -1.803 0.190162 0
M  V30 10201 C 933.737 -0.729526 3.53143 0
M  V30 10202 O 932.841 -1.83348 3.69401 0
M  V30 10203 H 932.182 -0.0575066 0.661505 0
M  V30 10204 H 934.712 0.453055 1.99521 0
M  V30 10205 H 934.722 -1.01619 3.95143 0
M  V30 10206 H 933.397 0.117622 4.15734 0
M  V30 10207 H 931.974 -1.54676 3.39308 0
M  V30 10208 N 934.159 -1.57557 0.0367827 0
M  V30 10209 C 935.408 -1.91291 -0.639569 0
M  V30 10210 C 935.721 -0.915601 -1.72847 0
M  V30 10211 O 936.927 -1.14447 -2.46199 0
M  V30 10212 C 935.383 -3.39697 -1.18888 0
M  V30 10213 C 934.991 -4.47803 -0.132851 0
M  V30 10214 C 936.735 -3.82487 -1.8413 0
M  V30 10215 C 934.642 -5.87311 -0.694229 0
M  V30 10216 H 933.572 -0.713886 -0.242658 0
M  V30 10217 H 936.223 -1.83209 0.103332 0
M  V30 10218 H 934.605 -3.42736 -1.98363 0
M  V30 10219 H 935.779 -4.56334 0.640009 0
M  V30 10220 H 934.094 -4.14264 0.421264 0
M  V30 10221 H 936.691 -4.84076 -2.27101 0
M  V30 10222 H 937.034 -3.17959 -2.68716 0
M  V30 10223 H 937.567 -3.81903 -1.11332 0
M  V30 10224 H 934.306 -6.55401 0.113667 0
M  V30 10225 H 933.826 -5.82371 -1.4354 0
M  V30 10226 H 935.505 -6.36119 -1.1816 0
M  V30 10227 N 935.637 0.236453 -1.55816 0
M  V30 10228 C 936.885 0.96111 -1.77784 0
M  V30 10229 C 937.206 1.85454 -0.602648 0
M  V30 10230 O 936.476 1.92157 0.381137 0
M  V30 10231 H 935.056 0.35787 -0.655697 0
M  V30 10232 H 937.718 0.251888 -1.93265 0
M  V30 10233 H 936.814 1.5767 -2.69345 0
M  V30 10234 N 937.115 1.49373 0.502552 0
M  V30 10235 C 938.062 1.65927 1.60427 0
M  V30 10236 C 939.032 0.500768 1.58371 0
M  V30 10237 O 940.217 0.727606 1.76382 0
M  V30 10238 C 937.357 1.73043 2.9858 0
M  V30 10239 C 936.47 3.00187 3.10663 0
M  V30 10240 C 935.605 2.98292 4.3954 0
M  V30 10241 C 934.644 4.20022 4.4525 0
M  V30 10242 N 933.781 4.16046 5.65553 0
M  V30 10243 H 938.621 2.59998 1.45619 0
M  V30 10244 H 936.158 1.28912 0.708519 0
M  V30 10245 H 938.116 1.7515 3.78653 0
M  V30 10246 H 936.746 0.824397 3.12095 0
M  V30 10247 H 935.798 3.07699 2.23663 0
M  V30 10248 H 937.11 3.9018 3.10742 0
M  V30 10249 H 936.264 2.98953 5.27932 0
M  V30 10250 H 935.003 2.06075 4.42023 0
M  V30 10251 H 934.008 4.19607 3.5526 0
M  V30 10252 H 935.233 5.13431 4.44484 0
M  V30 10253 H 933.179 3.26665 5.68881 0
M  V30 10254 H 933.096 4.99773 5.67242 0
M  V30 10255 H 934.364 4.20807 6.56156 0
M  V30 10256 N 938.594 -0.753485 1.38421 0
M  V30 10257 C 939.84 -1.51485 1.34834 0
M  V30 10258 C 940.173 -1.94102 -0.0615381 0
M  V30 10259 O 939.448 -1.65439 -1.02274 0
M  V30 10260 C 939.731 -2.76736 2.30411 0
M  V30 10261 C 939.584 -2.40256 3.80259 0
M  V30 10262 C 940.903 -3.7876 2.24119 0
M  V30 10263 H 938.022 -0.549534 0.491102 0
M  V30 10264 H 940.664 -0.863006 1.6927 0
M  V30 10265 H 938.814 -3.32357 2.01175 0
M  V30 10266 H 940.486 -1.90409 4.20169 0
M  V30 10267 H 938.729 -1.72714 3.97935 0
M  V30 10268 H 939.4 -3.29869 4.42595 0
M  V30 10269 H 941.876 -3.32679 2.49928 0
M  V30 10270 H 940.752 -4.64092 2.93104 0
M  V30 10271 H 941.013 -4.24352 1.24006 0
M  V30 10272 N 940.072 -1.23292 -0.981677 0
M  V30 10273 C 941.312 -1.07597 -1.73788 0
M  V30 10274 C 941.676 0.380762 -1.88187 0
M  V30 10275 O 942.877 0.658866 -2.606 0
M  V30 10276 C 941.148 -1.78008 -3.09916 0
M  V30 10277 S 942.707 -1.77868 -4.01134 0
M  V30 10278 H 939.525 -0.385092 -0.597683 0
M  V30 10279 H 942.127 -1.56408 -1.17289 0
M  V30 10280 H 940.831 -2.83139 -2.97087 0
M  V30 10281 H 940.362 -1.29473 -3.71484 0
M  V30 10282 H 942.377 -0.836368 -4.89101 0
M  V30 10283 N 941.55 1.18024 -1.04442 0
M  V30 10284 C 942.966 1.40107 -0.76435 0
M  V30 10285 C 943.166 1.90914 0.644516 0
M  V30 10286 O 942.222 2.0959 1.40813 0
M  V30 10287 C 943.535 2.39851 -1.81361 0
M  V30 10288 C 945.083 2.53571 -1.83496 0
M  V30 10289 C 945.558 3.56583 -2.87424 0
M  V30 10290 N 947.049 3.64094 -2.86339 0
M  V30 10291 C 947.784 4.43537 -3.63405 0
M  V30 10292 N 947.28 5.26557 -4.50233 0
M  V30 10293 N 949.073 4.38336 -3.51877 0
M  V30 10294 H 941.224 0.833726 -1.95353 0
M  V30 10295 H 943.487 0.42881 -0.845474 0
M  V30 10296 H 943.193 2.09576 -2.82438 0
M  V30 10297 H 943.067 3.39251 -1.6489 0
M  V30 10298 H 945.454 2.83161 -0.830883 0
M  V30 10299 H 945.535 1.54272 -2.04044 0
M  V30 10300 H 945.179 3.27733 -3.88012 0
M  V30 10301 H 945.109 4.55569 -2.6413 0
M  V30 10302 H 947.6 3.04814 -2.23376 0
M  V30 10303 H 947.913 5.84336 -5.05738 0
M  V30 10304 H 946.258 5.25964 -4.54298 0
M  V30 10305 H 949.449 3.72528 -2.83444 0
M  V30 10306 H 949.622 5.00007 -4.12186 0
M  V30 10307 N 943.028 0.824394 1.34319 0
M  V30 10308 C 944.256 0.426194 2.02463 0
M  V30 10309 C 944.671 -0.968298 1.62078 0
M  V30 10310 O 944.028 -1.62689 0.82696 0
M  V30 10311 C 944.079 0.520465 3.57734 0
M  V30 10312 O 943.8 1.86 3.96656 0
M  V30 10313 C 945.301 0.117353 4.43145 0
M  V30 10314 H 942.521 0.170864 0.648881 0
M  V30 10315 H 945.065 1.11296 1.71562 0
M  V30 10316 H 943.22 -0.118233 3.8722 0
M  V30 10317 H 943.634 1.83528 4.91343 0
M  V30 10318 H 945.108 0.234395 5.51502 0
M  V30 10319 H 945.585 -0.939271 4.29039 0
M  V30 10320 H 946.191 0.729908 4.1899 0
M  V30 10321 N 944.506 -1.46559 0.579492 0
M  V30 10322 C 945.436 -2.33059 -0.143437 0
M  V30 10323 C 946.417 -1.4515 -0.886868 0
M  V30 10324 O 947.602 -1.73973 -0.862961 0
M  V30 10325 C 944.732 -3.27364 -1.15973 0
M  V30 10326 C 943.686 -4.24689 -0.531348 0
M  V30 10327 C 943.012 -5.08479 -1.65388 0
M  V30 10328 C 944.312 -5.1961 0.529391 0
M  V30 10329 H 946.006 -2.93753 0.578762 0
M  V30 10330 H 943.552 -1.41256 0.279775 0
M  V30 10331 H 945.505 -3.86732 -1.67382 0
M  V30 10332 H 944.229 -2.64771 -1.91217 0
M  V30 10333 H 942.888 -3.6658 -0.0383749 0
M  V30 10334 H 942.536 -4.42273 -2.3959 0
M  V30 10335 H 942.236 -5.74387 -1.23909 0
M  V30 10336 H 943.76 -5.70709 -2.17079 0
M  V30 10337 H 945.174 -5.73212 0.100506 0
M  V30 10338 H 943.571 -5.93843 0.86432 0
M  V30 10339 H 944.641 -4.63737 1.4169 0
M  V30 10340 N 945.984 -0.3171 -1.54377 0
M  V30 10341 C 946.914 0.544623 -2.2706 0
M  V30 10342 C 947.895 1.12469 -1.27611 0
M  V30 10343 O 949.08 1.15103 -1.56413 0
M  V30 10344 C 946.21 1.70879 -3.02353 0
M  V30 10345 C 945.164 1.25833 -4.09084 0
M  V30 10346 C 944.49 2.50894 -4.72182 0
M  V30 10347 C 945.79 0.377876 -5.20931 0
M  V30 10348 H 947.484 -0.0616372 -2.99337 0
M  V30 10349 H 945.03 -0.0310848 -1.43966 0
M  V30 10350 H 946.983 2.31787 -3.51927 0
M  V30 10351 H 945.707 2.34155 -2.27682 0
M  V30 10352 H 944.366 0.672228 -3.60384 0
M  V30 10353 H 944.014 3.12518 -3.94134 0
M  V30 10354 H 943.714 2.21447 -5.44275 0
M  V30 10355 H 945.238 3.12575 -5.24528 0
M  V30 10356 H 946.652 0.893056 -5.66302 0
M  V30 10357 H 945.049 0.176474 -5.9984 0
M  V30 10358 H 946.119 -0.592943 -4.81261 0
M  V30 10359 N 947.462 1.57535 -0.0451378 0
M  V30 10360 C 948.425 2.1008 0.916461 0
M  V30 10361 C 949.425 1.01913 1.2438 0
M  V30 10362 O 950.615 1.2801 1.18148 0
M  V30 10363 C 947.747 2.58001 2.22818 0
M  V30 10364 H 948.94 2.96334 0.461076 0
M  V30 10365 H 946.493 1.54974 0.203169 0
M  V30 10366 H 947.228 1.75123 2.72951 0
M  V30 10367 H 947.013 3.3704 2.00366 0
M  V30 10368 H 948.503 2.98822 2.9171 0
M  V30 10369 N 948.94 -0.228186 1.55939 0
M  V30 10370 C 949.887 -1.28274 1.91871 0
M  V30 10371 C 950.857 -1.46906 0.775103 0
M  V30 10372 O 952.042 -1.60583 1.03042 0
M  V30 10373 C 949.182 -2.62945 2.23504 0
M  V30 10374 C 948.295 -2.52166 3.50766 0
M  V30 10375 C 947.43 -3.79316 3.71878 0
M  V30 10376 C 946.469 -3.63231 4.92676 0
M  V30 10377 N 945.606 -4.82315 5.10212 0
M  V30 10378 H 950.446 -0.96931 2.81795 0
M  V30 10379 H 947.983 -0.467331 1.39479 0
M  V30 10380 H 949.941 -3.41359 2.39854 0
M  V30 10381 H 948.571 -2.92397 1.36762 0
M  V30 10382 H 947.623 -1.65221 3.42646 0
M  V30 10383 H 948.935 -2.36199 4.39331 0
M  V30 10384 H 948.089 -4.66173 3.88288 0
M  V30 10385 H 946.828 -3.982 2.81581 0
M  V30 10386 H 945.833 -2.74757 4.76223 0
M  V30 10387 H 947.058 -3.45823 5.84451 0
M  V30 10388 H 945.004 -5.01526 4.22856 0
M  V30 10389 H 944.921 -4.6905 5.92898 0
M  V30 10390 H 946.189 -5.70618 5.31051 0
M  V30 10391 N 950.418 -1.49637 -0.494624 0
M  V30 10392 C 951.643 -1.63431 -1.27691 0
M  V30 10393 C 952.068 -0.30813 -1.85559 0
M  V30 10394 O 951.426 0.725083 -1.66169 0
M  V30 10395 C 951.474 -2.71043 -2.3784 0
M  V30 10396 O 950.578 -2.3066 -3.41862 0
M  V30 10397 H 949.919 -0.546804 -0.376698 0
M  V30 10398 H 952.449 -1.95866 -0.591413 0
M  V30 10399 H 952.459 -2.93406 -2.83508 0
M  V30 10400 H 951.134 -3.67306 -1.95088 0
M  V30 10401 H 949.711 -2.18652 -3.02069 0
M  V30 10402 N 951.896 0.746133 -1.38819 0
M  V30 10403 C 953.142 1.50768 -1.35635 0
M  V30 10404 C 953.475 1.94132 0.0512435 0
M  V30 10405 O 952.75 1.65979 1.01396 0
M  V30 10406 C 953.033 2.7551 -2.31875 0
M  V30 10407 C 952.886 2.38236 -3.81528 0
M  V30 10408 C 954.205 3.77566 -2.26124 0
M  V30 10409 H 951.324 0.546922 -0.494009 0
M  V30 10410 H 953.966 0.854017 -1.69725 0
M  V30 10411 H 952.116 3.31285 -2.02935 0
M  V30 10412 H 953.788 1.88178 -4.21173 0
M  V30 10413 H 952.031 1.70601 -3.98846 0
M  V30 10414 H 952.702 3.27517 -4.44339 0
M  V30 10415 H 955.178 3.31349 -2.51689 0
M  V30 10416 H 954.054 4.62531 -2.95561 0
M  V30 10417 H 954.315 4.23689 -1.26254 0
M  V30 10418 N 953.375 1.23811 0.975125 0
M  V30 10419 C 954.622 1.07336 1.71712 0
M  V30 10420 C 954.95 -0.388954 1.90571 0
M  V30 10421 O 954.205 -1.30409 1.45918 0
M  V30 10422 C 954.504 1.74994 3.11628 0
M  V30 10423 C 954.17 3.24918 3.12632 0
M  V30 10424 C 952.832 3.65822 3.12614 0
M  V30 10425 C 955.184 4.20797 3.07538 0
M  V30 10426 C 952.512 5.01054 3.05224 0
M  V30 10427 C 954.864 5.56027 3.0169 0
M  V30 10428 C 953.528 5.96287 2.99996 0
M  V30 10429 H 952.798 0.392771 0.62834 0
M  V30 10430 H 955.445 1.53815 1.14075 0
M  V30 10431 H 953.75 1.20889 3.72684 0
M  V30 10432 H 955.447 1.5972 3.67819 0
M  V30 10433 H 952.037 2.92359 3.13407 0
M  V30 10434 H 956.221 3.902 3.06688 0
M  V30 10435 H 951.477 5.31454 3.02268 0
M  V30 10436 H 955.651 6.3003 2.96706 0
M  V30 10437 H 953.278 7.01037 2.94025 0
M  V30 10438 N 954.853 -1.17469 1.05066 0
M  V30 10439 C 955.801 -2.23495 0.644418 0
M  V30 10440 C 956.795 -1.66081 -0.333685 0
M  V30 10441 O 958.001 -1.78887 -0.199886 0
M  V30 10442 H 954.376 -0.727546 0.190214 0
M  V30 10443 H 956.347 -2.55058 1.5488 0
M  V30 10444 C 955.096 -3.47684 0.0338051 0
M  V30 10445 H 954.419 -3.92167 0.777513 0
M  V30 10446 H 955.859 -4.23464 -0.213086 0
M  V30 10447 C 954.318 -3.14067 -1.21915 0
M  V30 10448 O 954.848 -3.28728 -2.3087 0
M  V30 10449 N 953.054 -2.68304 -1.11631 0
M  V30 10450 H 952.601 -2.56574 -0.229673 0
M  V30 10451 H 952.559 -2.46184 -1.95553 0
M  V30 10452 N 956.331 -0.831506 -1.3388 0
M  V30 10453 C 957.556 -0.435954 -2.02766 0
M  V30 10454 C 957.981 0.952889 -1.62178 0
M  V30 10455 O 957.339 1.62166 -0.810681 0
M  V30 10456 C 957.387 -0.555907 -3.56289 0
M  V30 10457 O 956.491 0.420826 -4.10247 0
M  V30 10458 H 955.832 -0.178248 -0.639628 0
M  V30 10459 H 958.362 -1.1243 -1.70941 0
M  V30 10460 H 958.372 -0.434831 -4.05676 0
M  V30 10461 H 957.047 -1.56881 -3.85177 0
M  V30 10462 H 955.624 0.257919 -3.72007 0
M  V30 10463 N 957.809 1.4625 -0.587256 0
M  V30 10464 C 958.739 2.33132 0.131076 0
M  V30 10465 C 959.72 1.45619 0.879158 0
M  V30 10466 O 960.905 1.74428 0.853723 0
M  V30 10467 C 958.035 3.27975 1.14236 0
M  V30 10468 C 956.989 4.24965 0.508819 0
M  V30 10469 C 956.315 5.09349 1.62689 0
M  V30 10470 C 957.615 5.19322 -0.55694 0
M  V30 10471 H 959.309 2.93442 -0.594333 0
M  V30 10472 H 956.855 1.41106 -0.287263 0
M  V30 10473 H 958.808 3.87614 1.65328 0
M  V30 10474 H 957.532 2.65781 1.8981 0
M  V30 10475 H 956.191 3.66595 0.0189337 0
M  V30 10476 H 955.839 4.43537 2.37242 0
M  V30 10477 H 955.539 5.75036 1.20861 0
M  V30 10478 H 957.063 5.71852 2.14049 0
M  V30 10479 H 958.477 5.73151 -0.130903 0
M  V30 10480 H 956.874 5.93376 -0.895801 0
M  V30 10481 H 957.944 4.62979 -1.44148 0
M  V30 10482 N 959.287 0.325282 1.54207 0
M  V30 10483 C 960.517 -0.278285 2.04717 0
M  V30 10484 C 960.925 -1.46198 1.20095 0
M  V30 10485 O 960.268 -1.82319 0.224813 0
M  V30 10486 C 960.33 -0.774387 3.51061 0
M  V30 10487 C 959.994 0.287225 4.56096 0
M  V30 10488 C 960.991 1.12388 5.07607 0
M  V30 10489 C 958.676 0.435908 5.00405 0
M  V30 10490 C 960.67 2.09492 6.0199 0
M  V30 10491 C 958.357 1.41037 5.94602 0
M  V30 10492 C 959.355 2.23834 6.45281 0
M  V30 10493 O 959.043 3.19625 7.37628 0
M  V30 10494 H 958.775 -0.0608309 0.673257 0
M  V30 10495 H 961.329 0.470049 1.99949 0
M  V30 10496 H 959.559 -1.57366 3.53232 0
M  V30 10497 H 961.248 -1.29649 3.84637 0
M  V30 10498 H 962.014 1.02 4.74153 0
M  V30 10499 H 957.893 -0.198668 4.60572 0
M  V30 10500 H 961.437 2.74157 6.4147 0
M  V30 10501 H 957.334 1.51487 6.27473 0
M  V30 10502 H 958.102 3.14884 7.55507 0
M  V30 10503 N 960.765 -1.57509 0.0534917 0
M  V30 10504 C 961.728 -2.10563 -0.905307 0
M  V30 10505 C 962.728 -1.02571 -1.23838 0
M  V30 10506 O 963.918 -1.28635 -1.17468 0
M  V30 10507 C 961.05 -2.5918 -2.21447 0
M  V30 10508 H 962.243 -2.96575 -0.445354 0
M  V30 10509 H 959.796 -1.55079 -0.194947 0
M  V30 10510 H 960.531 -1.76568 -2.72019 0
M  V30 10511 H 960.316 -3.38098 -1.98575 0
M  V30 10512 H 961.806 -3.00365 -2.90122 0
M  V30 10513 N 962.243 0.219913 -1.56058 0
M  V30 10514 C 963.468 0.965073 -1.83579 0
M  V30 10515 C 963.893 1.77092 -0.634024 0
M  V30 10516 O 963.251 1.76434 0.417205 0
M  V30 10517 C 963.299 1.85705 -3.09105 0
M  V30 10518 O 962.403 2.95261 -2.87914 0
M  V30 10519 H 961.744 0.273173 -0.605204 0
M  V30 10520 H 964.274 0.23273 -2.03272 0
M  V30 10521 H 964.284 2.26655 -3.39252 0
M  V30 10522 H 962.959 1.26476 -3.96203 0
M  V30 10523 H 961.536 2.58246 -2.69005 0
M  V30 10524 N 963.721 1.49897 0.486681 0
M  V30 10525 C 965.132 1.53142 1.06792 0
M  V30 10526 C 965.483 0.325856 1.93475 0
M  V30 10527 O 964.608 -0.562893 2.08951 0
M  V30 10528 C 965.203 2.77514 1.94348 0
M  V30 10529 C 963.762 2.83491 2.47609 0
M  V30 10530 C 962.909 2.47239 1.2557 0
M  V30 10531 H 965.86 1.56387 0.269962 0
M  V30 10532 H 965.881 2.58487 2.79221 0
M  V30 10533 H 965.393 3.65239 1.31232 0
M  V30 10534 H 963.494 2.0008 3.14323 0
M  V30 10535 H 963.607 3.86011 2.83782 0
M  V30 10536 H 961.971 1.99332 1.58552 0
M  V30 10537 H 962.754 3.37255 0.641404 0
M  V30 10538 N 965.199 -0.738761 1.39212 0
M  V30 10539 C 966.131 -1.86286 1.3353 0
M  V30 10540 C 967.144 -1.6095 0.244755 0
M  V30 10541 O 968.333 -1.71254 0.50343 0
M  V30 10542 C 965.433 -3.22234 1.04969 0
M  V30 10543 C 964.606 -3.74956 2.25226 0
M  V30 10544 C 963.665 -4.89457 1.9318 0
M  V30 10545 O 962.691 -5.03314 2.65826 0
M  V30 10546 N 963.893 -5.73548 0.895679 0
M  V30 10547 H 966.658 -1.91666 2.304 0
M  V30 10548 H 964.219 -0.919338 1.33266 0
M  V30 10549 H 966.211 -3.96397 0.815566 0
M  V30 10550 H 964.781 -3.12146 0.168451 0
M  V30 10551 H 964.001 -2.92188 2.64612 0
M  V30 10552 H 965.289 -4.06914 3.05448 0
M  V30 10553 H 964.687 -5.64938 0.293541 0
M  V30 10554 H 963.244 -6.47795 0.721451 0
M  V30 10555 N 966.677 -1.24326 -0.968545 0
M  V30 10556 C 967.607 -1.05951 -2.08079 0
M  V30 10557 C 968.588 0.0272666 -1.70078 0
M  V30 10558 O 969.773 -0.139644 -1.93697 0
M  V30 10559 C 966.903 -0.662623 -3.4092 0
M  V30 10560 C 965.857 -1.69807 -3.92873 0
M  V30 10561 C 965.183 -1.15628 -5.22048 0
M  V30 10562 C 966.483 -3.09383 -4.20808 0
M  V30 10563 H 968.177 -1.98984 -2.23709 0
M  V30 10564 H 965.723 -0.958112 -1.075 0
M  V30 10565 H 967.676 -0.521071 -4.18166 0
M  V30 10566 H 966.4 0.303399 -3.25188 0
M  V30 10567 H 965.059 -1.82783 -3.17783 0
M  V30 10568 H 964.707 -0.180888 -5.02675 0
M  V30 10569 H 964.407 -1.84822 -5.57776 0
M  V30 10570 H 965.931 -1.02683 -6.01904 0
M  V30 10571 H 967.345 -2.99642 -4.88761 0
M  V30 10572 H 965.742 -3.75923 -4.67763 0
M  V30 10573 H 966.812 -3.57486 -3.27616 0
M  V30 10574 N 968.156 1.1691 -1.05688 0
M  V30 10575 C 969.066 2.24735 -0.67315 0
M  V30 10576 C 970.082 1.71252 0.308043 0
M  V30 10577 O 971.258 2.00772 0.158889 0
M  V30 10578 C 968.323 3.4665 -0.059026 0
M  V30 10579 C 967.384 4.15198 -1.0913 0
M  V30 10580 C 966.617 5.31292 -0.50639 0
M  V30 10581 O 966.84 5.663 0.682692 0
M  V30 10582 O 965.774 5.88923 -1.2431 0
M  V30 10583 H 969.6 2.59855 -1.57191 0
M  V30 10584 H 967.185 1.24306 -0.828751 0
M  V30 10585 H 969.067 4.20455 0.282018 0
M  V30 10586 H 967.742 3.13316 0.813304 0
M  V30 10587 H 966.649 3.43389 -1.48442 0
M  V30 10588 H 967.982 4.52571 -1.93495 0
M  V30 10589 N 969.634 0.838594 1.33437 0
M  V30 10590 C 970.882 0.433312 1.974 0
M  V30 10591 C 971.203 -1.01078 1.66758 0
M  V30 10592 O 970.473 -1.70406 0.966373 0
M  V30 10593 H 969.053 0.15724 0.730263 0
M  V30 10594 H 971.715 1.07149 1.62804 0
M  V30 10595 H 970.811 0.565144 3.06941 0
M  V30 10596 N 971.112 -1.45937 0.595003 0
M  V30 10597 C 972.359 -2.0232 0.0853053 0
M  V30 10598 C 972.687 -1.465 -1.27937 0
M  V30 10599 O 971.942 -0.624767 -1.85459 0
M  V30 10600 C 972.241 -3.57396 -0.0173747 0
M  V30 10601 C 971.907 -4.32311 1.28131 0
M  V30 10602 C 970.569 -4.52496 1.63708 0
M  V30 10603 C 972.921 -4.75233 2.14017 0
M  V30 10604 C 970.249 -5.12857 2.84947 0
M  V30 10605 C 972.601 -5.36933 3.34493 0
M  V30 10606 C 971.265 -5.55343 3.70338 0
M  V30 10607 H 970.535 -0.740342 0.0312154 0
M  V30 10608 H 973.182 -1.75157 0.774103 0
M  V30 10609 H 971.487 -3.83766 -0.789371 0
M  V30 10610 H 973.184 -3.98713 -0.427699 0
M  V30 10611 H 969.774 -4.16905 0.994374 0
M  V30 10612 H 973.958 -4.59383 1.87833 0
M  V30 10613 H 969.214 -5.253 3.12841 0
M  V30 10614 H 973.388 -5.69147 4.01304 0
M  V30 10615 H 971.015 -6.01883 4.64371 0
M  V30 10616 N 972.59 -0.333456 -1.54032 0
M  V30 10617 C 973.815 0.270517 -2.05628 0
M  V30 10618 C 974.24 1.44231 -1.20744 0
M  V30 10619 O 973.598 1.79975 -0.218822 0
M  V30 10620 C 973.646 0.673251 -3.54259 0
M  V30 10621 O 972.75 1.77448 -3.72271 0
M  V30 10622 H 972.091 0.0469753 -0.662336 0
M  V30 10623 H 974.621 -0.484739 -1.98775 0
M  V30 10624 H 974.631 0.953194 -3.96709 0
M  V30 10625 H 973.306 -0.183747 -4.15494 0
M  V30 10626 H 971.883 1.49259 -3.41725 0
M  V30 10627 N 974.068 1.57479 -0.061844 0
M  V30 10628 C 975.031 2.1104 0.894127 0
M  V30 10629 C 976.031 1.03227 1.23292 0
M  V30 10630 O 977.221 1.29256 1.16784 0
M  V30 10631 C 974.353 2.6035 2.20069 0
M  V30 10632 H 975.546 2.96807 0.429619 0
M  V30 10633 H 973.099 1.55181 0.18672 0
M  V30 10634 H 973.834 1.78008 2.71079 0
M  V30 10635 H 973.619 3.39146 1.9678 0
M  V30 10636 H 975.109 3.019 2.88525 0
M  V30 10637 N 975.546 -0.211634 1.56173 0
M  V30 10638 C 976.456 -1.2831 1.96402 0
M  V30 10639 C 977.472 -1.50731 0.869254 0
M  V30 10640 O 978.648 -1.63669 1.17365 0
M  V30 10641 C 975.713 -2.61084 2.28114 0
M  V30 10642 C 974.774 -2.46879 3.51211 0
M  V30 10643 C 974.007 -3.73321 3.81401 0
M  V30 10644 O 974.23 -4.76773 3.13119 0
M  V30 10645 O 973.164 -3.69839 4.74871 0
M  V30 10646 H 976.99 -0.971733 2.87734 0
M  V30 10647 H 974.575 -0.415305 1.43512 0
M  V30 10648 H 976.457 -3.39481 2.49661 0
M  V30 10649 H 975.132 -2.91881 1.39954 0
M  V30 10650 H 974.039 -1.66648 3.34932 0
M  V30 10651 H 975.372 -2.21018 4.39786 0
M  V30 10652 N 977.024 -1.50153 -0.478725 0
M  V30 10653 C 978.249 -1.64776 -1.2595 0
M  V30 10654 C 978.674 -0.327794 -1.85222 0
M  V30 10655 O 978.032 0.707418 -1.66929 0
M  V30 10656 C 978.08 -2.73551 -2.34952 0
M  V30 10657 O 977.184 -2.34273 -3.39397 0
M  V30 10658 H 976.525 -0.550769 -0.370877 0
M  V30 10659 H 979.055 -1.96482 -0.570605 0
M  V30 10660 H 979.065 -2.96397 -2.8038 0
M  V30 10661 H 977.74 -3.69354 -1.91181 0
M  V30 10662 H 976.317 -2.21844 -2.99733 0
M  V30 10663 N 978.502 0.731368 -1.39602 0
M  V30 10664 C 979.918 1.03739 -1.21286 0
M  V30 10665 C 980.118 2.01353 -0.0769875 0
M  V30 10666 O 979.174 2.45978 0.570193 0
M  V30 10667 C 980.487 1.59621 -2.54837 0
M  V30 10668 C 982.035 1.71683 -2.61713 0
M  V30 10669 C 982.51 2.30973 -3.95494 0
M  V30 10670 N 984.001 2.38378 -3.97153 0
M  V30 10671 C 984.736 2.852 -4.97442 0
M  V30 10672 N 984.232 3.31891 -6.08129 0
M  V30 10673 N 986.025 2.84441 -4.84819 0
M  V30 10674 H 978.176 0.0840456 -2.12234 0
M  V30 10675 H 980.439 0.0999038 -0.942721 0
M  V30 10676 H 980.145 0.953608 -3.38525 0
M  V30 10677 H 980.019 2.58375 -2.74813 0
M  V30 10678 H 982.406 2.35064 -1.78406 0
M  V30 10679 H 982.487 0.715714 -2.45583 0
M  V30 10680 H 982.131 1.68219 -4.79234 0
M  V30 10681 H 982.061 3.31769 -4.08946 0
M  V30 10682 H 984.552 2.05382 -3.17217 0
M  V30 10683 H 984.865 3.66138 -6.8056 0
M  V30 10684 H 983.21 3.2989 -6.11717 0
M  V30 10685 H 986.401 2.4729 -3.97448 0
M  V30 10686 H 986.574 3.20616 -5.63124 0
M  V30 10687 N 979.98 1.24838 0.961938 0
M  V30 10688 C 980.927 1.04582 2.05745 0
M  V30 10689 C 981.897 -0.0427281 1.66045 0
M  V30 10690 O 983.082 0.113026 1.90465 0
M  V30 10691 C 980.222 0.66284 3.38675 0
M  V30 10692 C 979.335 1.82548 3.91536 0
M  V30 10693 C 978.47 1.38753 5.12758 0
M  V30 10694 C 977.509 2.51976 5.5783 0
M  V30 10695 N 976.646 2.09009 6.70268 0
M  V30 10696 H 981.486 1.98343 2.22405 0
M  V30 10697 H 979.023 0.987822 1.08998 0
M  V30 10698 H 980.981 0.421788 4.15062 0
M  V30 10699 H 979.611 -0.237776 3.21923 0
M  V30 10700 H 978.663 2.18004 3.11735 0
M  V30 10701 H 979.975 2.67601 4.20941 0
M  V30 10702 H 979.129 1.1057 5.96539 0
M  V30 10703 H 977.868 0.507618 4.85051 0
M  V30 10704 H 976.873 2.80912 4.72619 0
M  V30 10705 H 978.098 3.40534 5.87549 0
M  V30 10706 H 976.044 1.23423 6.44285 0
M  V30 10707 H 975.961 2.87613 6.99153 0
M  V30 10708 H 977.229 1.83981 7.57477 0
M  V30 10709 N 981.458 -1.16348 1.06306 0
M  V30 10710 C 982.388 -2.2291 0.695234 0
M  V30 10711 C 983.369 -1.67208 -0.312343 0
M  V30 10712 O 984.554 -1.93293 -0.187442 0
M  V30 10713 C 981.684 -3.47205 0.0810149 0
M  V30 10714 C 980.638 -4.15801 1.01458 0
M  V30 10715 C 979.964 -5.3405 0.263656 0
M  V30 10716 C 981.264 -4.66766 2.34365 0
M  V30 10717 H 982.958 -2.53934 1.58613 0
M  V30 10718 H 980.504 -1.22056 0.76409 0
M  V30 10719 H 982.457 -4.2098 -0.18818 0
M  V30 10720 H 981.181 -3.15482 -0.844897 0
M  V30 10721 H 979.84 -3.43954 1.26852 0
M  V30 10722 H 979.488 -4.9858 -0.665378 0
M  V30 10723 H 979.188 -5.80885 0.88582 0
M  V30 10724 H 980.712 -6.106 0.00200994 0
M  V30 10725 H 982.126 -5.3212 2.13356 0
M  V30 10726 H 980.523 -5.24223 2.9208 0
M  V30 10727 H 981.593 -3.82969 2.97426 0
M  V30 10728 N 982.937 -0.845659 -1.3299 0
M  V30 10729 C 983.867 -0.298957 -2.31578 0
M  V30 10730 C 984.848 0.597012 -1.59279 0
M  V30 10731 O 986.033 0.519142 -1.87132 0
M  V30 10732 C 983.163 0.521109 -3.43368 0
M  V30 10733 C 982.117 -0.279651 -4.27085 0
M  V30 10734 C 981.443 0.664591 -5.30554 0
M  V30 10735 C 982.743 -1.50046 -5.00283 0
M  V30 10736 H 984.437 -1.12272 -2.77552 0
M  V30 10737 H 981.983 -0.54132 -1.33438 0
M  V30 10738 H 983.936 0.913921 -4.1137 0
M  V30 10739 H 982.66 1.37815 -2.96099 0
M  V30 10740 H 981.319 -0.654106 -3.60717 0
M  V30 10741 H 980.967 1.51822 -4.79541 0
M  V30 10742 H 980.667 0.132871 -5.8745 0
M  V30 10743 H 982.191 1.05477 -6.01421 0
M  V30 10744 H 983.605 -1.18044 -5.61016 0
M  V30 10745 H 982.002 -1.96946 -5.66862 0
M  V30 10746 H 983.072 -2.26659 -4.28665 0
M  V30 10747 N 984.415 1.45619 -0.602734 0
M  V30 10748 C 985.345 2.33258 0.106342 0
M  V30 10749 C 986.326 1.46543 0.863664 0
M  V30 10750 O 987.511 1.75324 0.835175 0
M  V30 10751 C 984.641 3.29168 1.10751 0
M  V30 10752 C 983.595 4.25481 0.463717 0
M  V30 10753 C 982.921 5.11046 1.57278 0
M  V30 10754 C 984.221 5.18702 -0.61199 0
M  V30 10755 H 985.915 2.92795 -0.625423 0
M  V30 10756 H 983.461 1.40793 -0.302213 0
M  V30 10757 H 985.414 3.89346 1.61208 0
M  V30 10758 H 984.138 2.6778 1.8698 0
M  V30 10759 H 982.797 3.66595 -0.0199496 0
M  V30 10760 H 982.445 4.46029 2.32524 0
M  V30 10761 H 982.145 5.76286 1.14755 0
M  V30 10762 H 983.669 5.74091 2.07972 0
M  V30 10763 H 985.083 5.72979 -0.191686 0
M  V30 10764 H 983.48 5.92393 -0.958686 0
M  V30 10765 H 984.55 4.61424 -1.4905 0
M  V30 10766 N 985.893 0.34162 1.53853 0
M  V30 10767 C 987.142 -0.256475 2.00063 0
M  V30 10768 C 987.455 -1.51811 1.23341 0
M  V30 10769 O 988.661 -2.19332 1.60017 0
M  V30 10770 C 987.117 -0.507567 3.56303 0
M  V30 10771 C 986.725 0.738052 4.41879 0
M  V30 10772 C 988.469 -1.06463 4.10933 0
M  V30 10773 C 986.376 0.457865 5.89625 0
M  V30 10774 H 985.306 -0.0996143 0.747391 0
M  V30 10775 H 987.957 0.456649 1.77727 0
M  V30 10776 H 986.339 -1.28134 3.74697 0
M  V30 10777 H 987.513 1.51278 4.3526 0
M  V30 10778 H 985.828 1.21661 3.98231 0
M  V30 10779 H 988.425 -1.28918 5.18926 0
M  V30 10780 H 988.768 -2.01956 3.64032 0
M  V30 10781 H 989.301 -0.351601 3.96243 0
M  V30 10782 H 986.04 1.38247 6.40756 0
M  V30 10783 H 985.56 -0.278818 5.99152 0
M  V30 10784 H 987.239 0.0743914 6.46957 0
M  V30 10785 N 987.371 -1.57444 0.0701946 0
M  V30 10786 C 988.617 -1.93716 -0.600178 0
M  V30 10787 C 988.95 -0.950329 -1.69359 0
M  V30 10788 O 988.225 0.0207123 -1.94489 0
M  V30 10789 C 988.508 -3.40266 -1.17861 0
M  V30 10790 C 988.361 -4.49706 -0.0919575 0
M  V30 10791 C 989.68 -3.87599 -2.08459 0
M  V30 10792 H 986.799 -0.704421 -0.216704 0
M  V30 10793 H 989.441 -1.89514 0.135838 0
M  V30 10794 H 987.591 -3.43977 -1.80587 0
M  V30 10795 H 989.263 -4.58116 0.541031 0
M  V30 10796 H 987.506 -4.29937 0.577639 0
M  V30 10797 H 988.177 -5.49381 -0.537048 0
M  V30 10798 H 990.653 -3.85883 -1.5567 0
M  V30 10799 H 989.529 -4.90755 -2.45867 0
M  V30 10800 H 989.79 -3.25448 -2.99226 0
M  V30 10801 N 988.849 0.203349 -1.56283 0
M  V30 10802 C 989.781 1.27592 -1.90402 0
M  V30 10803 C 990.794 1.4213 -0.79391 0
M  V30 10804 O 991.983 1.42703 -1.07229 0
M  V30 10805 C 989.083 2.64919 -2.11356 0
M  V30 10806 C 988.256 2.72095 -3.42466 0
M  V30 10807 C 987.315 3.9056 -3.52631 0
M  V30 10808 O 986.341 3.78048 -4.25521 0
M  V30 10809 N 987.543 5.0566 -2.85111 0
M  V30 10810 H 990.308 0.986423 -2.83001 0
M  V30 10811 H 987.869 0.39331 -1.5705 0
M  V30 10812 H 989.861 3.42581 -2.15453 0
M  V30 10813 H 988.431 2.86391 -1.25295 0
M  V30 10814 H 987.651 1.8077 -3.50308 0
M  V30 10815 H 988.939 2.73874 -4.28801 0
M  V30 10816 H 988.337 5.18723 -2.25705 0
M  V30 10817 H 986.894 5.81299 -2.94847 0
M  V30 10818 N 990.327 1.50405 0.470755 0
M  V30 10819 C 991.29 1.68741 1.5511 0
M  V30 10820 C 992.29 0.558116 1.50804 0
M  V30 10821 O 993.48 0.825149 1.53418 0
M  V30 10822 C 990.612 1.71295 2.94739 0
M  V30 10823 H 991.805 2.65127 1.40169 0
M  V30 10824 H 989.358 1.39891 0.697156 0
M  V30 10825 H 990.093 0.766029 3.15123 0
M  V30 10826 H 989.878 2.53336 2.99271 0
M  V30 10827 H 991.368 1.87434 3.73173 0
M  V30 10828 N 991.805 -0.723954 1.39988 0
M  V30 10829 C 992.735 -1.85103 1.42335 0
M  V30 10830 C 993.716 -1.6769 0.285297 0
M  V30 10831 O 994.901 -1.87846 0.492716 0
M  V30 10832 C 992.031 -3.22972 1.27697 0
M  V30 10833 C 990.985 -3.55041 2.39018 0
M  V30 10834 C 990.311 -4.91965 2.09462 0
M  V30 10835 C 991.611 -3.56889 3.8135 0
M  V30 10836 H 993.305 -1.83396 2.36656 0
M  V30 10837 H 990.851 -0.880926 1.13911 0
M  V30 10838 H 992.804 -4.01503 1.27958 0
M  V30 10839 H 991.528 -3.25233 0.298487 0
M  V30 10840 H 990.187 -2.78845 2.37993 0
M  V30 10841 H 989.835 -4.90819 1.10025 0
M  V30 10842 H 989.535 -5.14389 2.84038 0
M  V30 10843 H 991.059 -5.7284 2.11391 0
M  V30 10844 H 992.473 -4.25476 3.84243 0
M  V30 10845 H 990.87 -3.90836 4.55376 0
M  V30 10846 H 991.94 -2.56452 4.11534 0
M  V30 10847 N 993.283 -1.25346 -0.955304 0
M  V30 10848 C 994.699 -1.02154 -1.22625 0
M  V30 10849 C 994.899 0.26206 -1.99789 0
M  V30 10850 O 993.955 0.974958 -2.32918 0
M  V30 10851 C 995.268 -2.2443 -2.00129 0
M  V30 10852 C 996.816 -2.29185 -2.13174 0
M  V30 10853 C 997.291 -3.51117 -2.94077 0
M  V30 10854 N 998.782 -3.51509 -3.01655 0
M  V30 10855 C 999.517 -4.42517 -3.64645 0
M  V30 10856 N 999.013 -5.43796 -4.29252 0
M  V30 10857 N 1000.81 -4.302 -3.61779 0
M  V30 10858 H 992.957 -2.07812 -0.439071 0
M  V30 10859 H 995.22 -0.91258 -0.256715 0
M  V30 10860 H 994.926 -3.17717 -1.50827 0
M  V30 10861 H 994.8 -2.27548 -3.00835 0
M  V30 10862 H 997.187 -1.36422 -2.61674 0
M  V30 10863 H 997.268 -2.30087 -1.11775 0
M  V30 10864 H 996.912 -4.44201 -2.46268 0
M  V30 10865 H 996.842 -3.4746 -3.95701 0
M  V30 10866 H 999.333 -2.78245 -2.55711 0
M  V30 10867 H 999.646 -6.09453 -4.75171 0
M  V30 10868 H 997.991 -5.4767 -4.27882 0
M  V30 10869 H 1001.18 -3.50304 -3.10491 0
M  V30 10870 H 1001.36 -5.01323 -4.10584 0
M  V30 10871 N 994.761 1.15782 -1.06922 0
M  V30 10872 C 996.038 1.8253 -0.703 0
M  V30 10873 C 996.418 1.94733 0.814994 0
M  V30 10874 O 995.766 1.49537 1.72774 0
M  V30 10875 C 995.976 3.19145 -1.41234 0
M  V30 10876 C 997.324 3.94839 -1.56164 0
M  V30 10877 O 998.348 3.28685 -1.37277 0
M  V30 10878 O 997.207 5.13436 -1.87205 0
M  V30 10879 H 994.301 0.788425 -0.24963 0
M  V30 10880 H 996.847 1.22931 -1.16988 0
M  V30 10881 H 995.619 3.05336 -2.44715 0
M  V30 10882 H 995.242 3.86427 -0.935959 0
M  V30 10883 N 996.239 0.8527 1.3254 0
M  V30 10884 C 997.187 0.284659 2.30852 0
M  V30 10885 C 998.181 -0.5909 1.5876 0
M  V30 10886 O 999.387 -0.478922 1.73512 0
M  V30 10887 H 995.762 0.0733452 0.748415 0
M  V30 10888 H 997.733 1.1281 2.76254 0
M  V30 10889 C 996.482 -0.51379 3.43883 0
M  V30 10890 H 995.805 0.150644 3.99516 0
M  V30 10891 H 997.245 -0.876866 4.14834 0
M  V30 10892 C 995.704 -1.69823 2.90967 0
M  V30 10893 O 996.234 -2.79727 2.88298 0
M  V30 10894 N 994.44 -1.52465 2.47392 0
M  V30 10895 H 993.987 -0.630599 2.49762 0
M  V30 10896 H 993.945 -2.31859 2.12341 0
M  V30 10897 N 997.718 -1.45297 0.610449 0
M  V30 10898 C 998.648 -2.33311 -0.0939698 0
M  V30 10899 C 999.629 -1.46999 -0.85588 0
M  V30 10900 O 1000.81 -1.75764 -0.825865 0
M  V30 10901 C 997.944 -3.29751 -1.09003 0
M  V30 10902 C 996.898 -4.2572 -0.441146 0
M  V30 10903 C 996.224 -5.11873 -1.54566 0
M  V30 10904 C 997.524 -5.1837 0.639489 0
M  V30 10905 H 999.218 -2.92459 0.640941 0
M  V30 10906 H 996.764 -1.40631 0.309675 0
M  V30 10907 H 998.717 -3.90195 -1.59141 0
M  V30 10908 H 997.441 -2.68768 -1.85557 0
M  V30 10909 H 996.1 -3.66579 0.0393908 0
M  V30 10910 H 995.748 -4.47256 -2.30155 0
M  V30 10911 H 995.448 -5.76886 -1.11698 0
M  V30 10912 H 996.972 -5.75185 -2.04925 0
M  V30 10913 H 998.386 -5.7287 0.22207 0
M  V30 10914 H 996.783 -5.91876 0.990089 0
M  V30 10915 H 997.853 -4.60627 1.51495 0
M  V30 10916 N 999.196 -0.349774 -1.5367 0
M  V30 10917 C 1000.11 0.512421 -2.28935 0
M  V30 10918 C 1001.12 1.1065 -1.34286 0
M  V30 10919 O 1002.3 1.12084 -1.67329 0
M  V30 10920 C 999.363 1.64449 -3.05217 0
M  V30 10921 C 998.424 1.07956 -4.15505 0
M  V30 10922 C 997.657 2.15768 -4.88139 0
M  V30 10923 O 997.88 3.366 -4.60496 0
M  V30 10924 O 996.814 1.79712 -5.74445 0
M  V30 10925 H 1000.64 -0.0996001 -3.03537 0
M  V30 10926 H 998.225 -0.114629 -1.4896 0
M  V30 10927 H 1000.11 2.30302 -3.52901 0
M  V30 10928 H 998.782 2.24221 -2.33467 0
M  V30 10929 H 997.689 0.385381 -3.7211 0
M  V30 10930 H 999.022 0.526621 -4.89375 0
M  V30 10931 N 1000.67 1.57404 -0.0785433 0
M  V30 10932 C 1002.08 1.81118 0.45311 0
M  V30 10933 C 1002.44 0.992963 1.69218 0
M  V30 10934 O 1001.56 0.217448 2.15305 0
M  V30 10935 C 1002.16 3.28506 0.82882 0
M  V30 10936 C 1000.71 3.53042 1.3053 0
M  V30 10937 C 999.862 2.75739 0.29378 0
M  V30 10938 H 1002.81 1.55758 -0.304171 0
M  V30 10939 H 1002.83 3.40924 1.68971 0
M  V30 10940 H 1002.35 3.88031 -0.0731826 0
M  V30 10941 H 1000.45 2.98829 2.22558 0
M  V30 10942 H 1000.56 4.61724 1.27857 0
M  V30 10943 H 998.924 2.42703 0.772477 0
M  V30 10944 H 999.707 3.38005 -0.600613 0
M  V30 10945 N 1002.15 -0.195058 1.56388 0
M  V30 10946 C 1003.4 -0.913636 1.8027 0
M  V30 10947 C 1003.72 -1.83791 0.651606 0
M  V30 10948 O 1002.99 -1.931 -0.330057 0
M  V30 10949 H 1001.57 -0.34036 0.664954 0
M  V30 10950 H 1004.23 -0.200559 1.93865 0
M  V30 10951 H 1003.33 -1.50473 2.7343 0
M  V30 10952 N 1003.63 -1.50653 -0.462772 0
M  V30 10953 C 1004.86 -1.65826 -1.23731 0
M  V30 10954 C 1005.27 -0.345002 -1.85621 0
M  V30 10955 O 1004.63 0.673935 -1.69601 0
M  V30 10956 C 1004.68 -2.7555 -2.33997 0
M  V30 10957 O 1004.4 -4.01785 -1.74643 0
M  V30 10958 C 1005.9 -3.0177 -3.2473 0
M  V30 10959 H 1003.12 -0.557177 -0.373892 0
M  V30 10960 H 1005.67 -1.96925 -0.551434 0
M  V30 10961 H 1003.82 -2.47122 -2.98345 0
M  V30 10962 H 1004.24 -4.62529 -2.4732 0
M  V30 10963 H 1005.71 -3.82188 -3.98292 0
M  V30 10964 H 1006.19 -2.13167 -3.84001 0
M  V30 10965 H 1006.79 -3.31761 -2.66111 0
M  V30 10966 N 1005.11 0.71652 -1.4037 0
M  V30 10967 C 1006.36 1.47638 -1.38597 0
M  V30 10968 C 1006.68 1.94496 0.0120141 0
M  V30 10969 O 1005.94 1.68437 0.996373 0
M  V30 10970 C 1006.24 2.71777 -2.32103 0
M  V30 10971 C 1005.9 2.43689 -3.79376 0
M  V30 10972 C 1004.57 2.35739 -4.195 0
M  V30 10973 C 1006.92 2.20099 -4.72447 0
M  V30 10974 C 1004.25 2.02265 -5.50732 0
M  V30 10975 C 1006.6 1.88138 -6.03976 0
M  V30 10976 C 1005.26 1.78669 -6.43143 0
M  V30 10977 H 1004.53 0.540246 -0.507163 0
M  V30 10978 H 1007.18 0.820822 -1.73017 0
M  V30 10979 H 1005.48 3.42166 -1.90865 0
M  V30 10980 H 1007.18 3.29864 -2.28015 0
M  V30 10981 H 1003.77 2.50763 -3.47585 0
M  V30 10982 H 1007.95 2.25198 -4.42266 0
M  V30 10983 H 1003.21 1.93471 -5.79982 0
M  V30 10984 H 1007.38 1.68898 -6.75608 0
M  V30 10985 H 1005.01 1.52498 -7.44747 0
M  V30 10986 N 1006.59 1.25851 0.948643 0
M  V30 10987 C 1007.86 1.01717 1.67072 0
M  V30 10988 C 1008.24 -0.454749 2.06144 0
M  V30 10989 O 1007.59 -1.43345 1.77945 0
M  V30 10990 C 1007.8 1.95872 2.88852 0
M  V30 10991 C 1009.15 2.24057 3.60671 0
M  V30 10992 O 1010.17 1.93678 2.98944 0
M  V30 10993 O 1009.03 2.75745 4.71833 0
M  V30 10994 H 1006.13 0.386198 0.731287 0
M  V30 10995 H 1008.67 1.37031 1.00104 0
M  V30 10996 H 1007.44 2.95233 2.56814 0
M  V30 10997 H 1007.07 1.60992 3.63548 0
M  V30 10998 N 1008.06 -1.15214 1.07534 0
M  V30 10999 C 1008.99 -2.2216 0.718837 0
M  V30 11000 C 1009.98 -1.6753 -0.29459 0
M  V30 11001 O 1011.16 -1.93481 -0.166931 0
M  V30 11002 C 1008.29 -3.471 0.117836 0
M  V30 11003 C 1007.24 -4.14701 1.05862 0
M  V30 11004 C 1006.57 -5.3374 0.320284 0
M  V30 11005 C 1007.87 -4.64254 2.39302 0
M  V30 11006 H 1009.56 -2.52237 1.61297 0
M  V30 11007 H 1007.11 -1.21239 0.776992 0
M  V30 11008 H 1009.06 -4.21156 -0.143519 0
M  V30 11009 H 1007.79 -3.16361 -0.811389 0
M  V30 11010 H 1006.45 -3.42589 1.30493 0
M  V30 11011 H 1006.09 -4.99257 -0.61246 0
M  V30 11012 H 1005.79 -5.79912 0.947381 0
M  V30 11013 H 1007.32 -6.10563 0.0667721 0
M  V30 11014 H 1008.73 -5.29827 2.18988 0
M  V30 11015 H 1007.13 -5.21095 2.97623 0
M  V30 11016 H 1008.2 -3.79793 3.01472 0
M  V30 11017 N 1009.54 -0.859717 -1.32086 0
M  V30 11018 C 1010.79 -0.464662 -1.96686 0
M  V30 11019 C 1011.11 0.98412 -1.68345 0
M  V30 11020 O 1010.38 1.68847 -0.993361 0
M  V30 11021 H 1008.96 -0.168838 -0.727669 0
M  V30 11022 H 1011.62 -1.09726 -1.61079 0
M  V30 11023 H 1010.72 -0.613904 -3.06003 0
M  V30 11024 N 1011.02 1.44971 -0.618145 0
M  V30 11025 C 1012.27 2.0176 -0.11725 0
M  V30 11026 C 1012.59 1.48773 1.26062 0
M  V30 11027 O 1011.86 0.686152 1.83491 0
M  V30 11028 H 1010.44 0.745909 -0.0403545 0
M  V30 11029 H 1013.1 1.77638 -0.801923 0
M  V30 11030 H 1012.2 3.1201 -0.0750477 0
M  V30 11031 N 1012.5 0.357919 1.53482 0
M  V30 11032 C 1013.43 -0.484231 2.28424 0
M  V30 11033 C 1014.41 -1.09046 1.30548 0
M  V30 11034 O 1015.59 -1.10916 1.59409 0
M  V30 11035 C 1012.72 -1.62803 3.06778 0
M  V30 11036 C 1011.68 -1.14943 4.12277 0
M  V30 11037 C 1011 -2.38287 4.78669 0
M  V30 11038 C 1012.3 -0.239627 5.2175 0
M  V30 11039 H 1014 0.140979 2.99068 0
M  V30 11040 H 1011.54 0.069244 1.43833 0
M  V30 11041 H 1013.5 -2.22374 3.57949 0
M  V30 11042 H 1012.22 -2.28036 2.3381 0
M  V30 11043 H 1010.88 -0.576442 3.6204 0
M  V30 11044 H 1010.53 -3.01959 4.02281 0
M  V30 11045 H 1010.23 -2.06939 5.49955 0
M  V30 11046 H 1011.75 -2.98558 5.32631 0
M  V30 11047 H 1013.17 -0.742597 5.6847 0
M  V30 11048 H 1011.56 -0.0173747 6.00097 0
M  V30 11049 H 1012.63 0.720333 4.7952 0
M  V30 11050 N 1013.98 -1.5736 0.0868897 0
M  V30 11051 C 1015.21 -1.981 -0.586498 0
M  V30 11052 C 1015.61 -0.96455 -1.62767 0
M  V30 11053 O 1014.96 0.0551801 -1.83617 0
M  V30 11054 C 1015.02 -3.35193 -1.29947 0
M  V30 11055 C 1014.68 -4.55157 -0.410012 0
M  V30 11056 C 1015.68 -5.18797 0.338532 0
M  V30 11057 C 1013.37 -5.01212 -0.33047 0
M  V30 11058 C 1015.36 -6.26854 1.15468 0
M  V30 11059 C 1013.05 -6.09138 0.48934 0
M  V30 11060 C 1014.04 -6.71823 1.23057 0
M  V30 11061 O 1013.73 -7.77669 2.03683 0
M  V30 11062 H 1013.46 -0.656166 -0.16255 0
M  V30 11063 H 1016.02 -2.04773 0.160379 0
M  V30 11064 H 1014.25 -3.25179 -2.09274 0
M  V30 11065 H 1015.94 -3.60435 -1.86658 0
M  V30 11066 H 1016.7 -4.84151 0.286764 0
M  V30 11067 H 1012.58 -4.52188 -0.897058 0
M  V30 11068 H 1016.13 -6.75712 1.73374 0
M  V30 11069 H 1012.02 -6.43215 0.542618 0
M  V30 11070 H 1012.79 -7.94618 1.96277 0
M  V30 11071 N 1015.45 0.186762 -1.56489 0
M  V30 11072 C 1016.36 1.25169 -1.98419 0
M  V30 11073 C 1017.38 1.49329 -0.893124 0
M  V30 11074 O 1018.56 1.61781 -1.19954 0
M  V30 11075 C 1015.62 2.57422 -2.32239 0
M  V30 11076 C 1014.68 2.4126 -3.55095 0
M  V30 11077 C 1013.92 3.67206 -3.87292 0
M  V30 11078 O 1014.14 4.71731 -3.20665 0
M  V30 11079 O 1013.07 3.62238 -4.80695 0
M  V30 11080 H 1016.9 0.925834 -2.89244 0
M  V30 11081 H 1014.48 0.392421 -1.44154 0
M  V30 11082 H 1016.37 3.35466 -2.5503 0
M  V30 11083 H 1015.04 2.89618 -1.44579 0
M  V30 11084 H 1013.95 1.61299 -3.37541 0
M  V30 11085 H 1015.28 2.13994 -4.43247 0
M  V30 11086 N 1016.93 1.50896 0.454776 0
M  V30 11087 C 1017.9 1.70377 1.53312 0
M  V30 11088 C 1018.9 0.57408 1.50203 0
M  V30 11089 O 1020.09 0.841374 1.52534 0
M  V30 11090 C 1017.22 1.74411 2.92905 0
M  V30 11091 H 1018.41 2.66599 1.37349 0
M  V30 11092 H 1015.96 1.40622 0.68228 0
M  V30 11093 H 1016.7 0.799408 3.14293 0
M  V30 11094 H 1016.48 2.56496 2.96568 0
M  V30 11095 H 1017.97 1.91382 3.71164 0
M  V30 11096 N 1018.41 -0.709066 1.40748 0
M  V30 11097 C 1019.66 -1.4646 1.38681 0
M  V30 11098 C 1019.97 -1.95599 -0.0056209 0
M  V30 11099 O 1021.18 -2.71091 -0.148907 0
M  V30 11100 C 1019.63 -2.64771 2.43771 0
M  V30 11101 C 1019.24 -2.22474 3.88856 0
M  V30 11102 C 1020.99 -3.42475 2.50821 0
M  V30 11103 C 1018.89 -3.37663 4.85528 0
M  V30 11104 H 1017.82 -0.550084 0.515678 0
M  V30 11105 H 1020.47 -0.771074 1.66513 0
M  V30 11106 H 1018.86 -3.36325 2.09048 0
M  V30 11107 H 1020.03 -1.58297 4.32757 0
M  V30 11108 H 1018.35 -1.57798 3.85342 0
M  V30 11109 H 1020.94 -4.28201 3.20232 0
M  V30 11110 H 1021.29 -3.86738 1.54076 0
M  V30 11111 H 1021.82 -2.77969 2.84567 0
M  V30 11112 H 1018.56 -2.98426 5.83628 0
M  V30 11113 H 1018.08 -4.00734 4.46287 0
M  V30 11114 H 1019.76 -4.03636 5.05655 0
M  V30 11115 N 1019.89 -1.26353 -0.941956 0
M  V30 11116 C 1020.8 -1.09618 -2.07415 0
M  V30 11117 C 1021.82 -0.0298963 -1.73974 0
M  V30 11118 O 1022.99 -0.233466 -2.00042 0
M  V30 11119 C 1020.06 -0.73013 -3.38925 0
M  V30 11120 C 1019.12 -1.87574 -3.86153 0
M  V30 11121 C 1018.35 -1.52706 -5.11387 0
M  V30 11122 O 1018.57 -0.428438 -5.68789 0
M  V30 11123 O 1017.51 -2.36154 -5.53638 0
M  V30 11124 H 1021.33 -2.04598 -2.2444 0
M  V30 11125 H 1018.92 -1.05407 -1.05876 0
M  V30 11126 H 1020.8 -0.538684 -4.17943 0
M  V30 11127 H 1019.48 0.190282 -3.2314 0
M  V30 11128 H 1018.38 -2.12214 -3.08084 0
M  V30 11129 H 1019.72 -2.77585 -4.06457 0
M  V30 11130 N 1021.37 1.14642 -1.08144 0
M  V30 11131 C 1022.28 2.23257 -0.720668 0
M  V30 11132 C 1023.29 1.71866 0.271648 0
M  V30 11133 O 1024.47 2.01064 0.116266 0
M  V30 11134 C 1021.53 3.46447 -0.132542 0
M  V30 11135 C 1020.6 4.12789 -1.17913 0
M  V30 11136 C 1019.83 5.30099 -0.618971 0
M  V30 11137 O 1020.05 5.6762 0.562418 0
M  V30 11138 O 1018.99 5.86154 -1.36774 0
M  V30 11139 H 1022.81 2.56463 -1.62667 0
M  V30 11140 H 1020.4 1.22521 -0.854932 0
M  V30 11141 H 1022.28 4.20959 0.19277 0
M  V30 11142 H 1020.95 3.14971 0.746662 0
M  V30 11143 H 1019.86 3.40163 -1.55693 0
M  V30 11144 H 1021.19 4.48365 -2.03051 0
M  V30 11145 N 1022.85 0.866709 1.31628 0
M  V30 11146 C 1024.09 0.482479 1.98624 0
M  V30 11147 C 1024.45 -0.946844 1.6703 0
M  V30 11148 O 1025.65 -1.43626 2.27212 0
M  V30 11149 C 1023.92 0.728582 3.49895 0
M  V30 11150 S 1025.48 0.443724 4.36551 0
M  V30 11151 H 1022.3 0.180238 0.687776 0
M  V30 11152 H 1024.9 1.12203 1.60096 0
M  V30 11153 H 1023.6 1.76769 3.70379 0
M  V30 11154 H 1023.14 0.075903 3.93327 0
M  V30 11155 H 1025.15 -0.72534 4.9087 0
M  V30 11156 N 1024.32 -1.44642 0.625825 0
M  V30 11157 C 1025.25 -2.33397 -0.0692188 0
M  V30 11158 C 1026.23 -1.47898 -0.840241 0
M  V30 11159 O 1027.42 -1.7663 -0.807176 0
M  V30 11160 C 1024.55 -3.30888 -1.055 0
M  V30 11161 C 1023.5 -4.26164 -0.395968 0
M  V30 11162 C 1022.83 -5.13483 -1.49128 0
M  V30 11163 C 1024.13 -5.17663 0.694433 0
M  V30 11164 H 1025.82 -2.91763 0.671925 0
M  V30 11165 H 1023.37 -1.40294 0.324573 0
M  V30 11166 H 1025.32 -3.91861 -1.54993 0
M  V30 11167 H 1024.05 -2.7072 -1.82696 0
M  V30 11168 H 1022.71 -3.66516 0.0782691 0
M  V30 11169 H 1022.35 -4.49672 -2.25399 0
M  V30 11170 H 1022.05 -5.78038 -1.05573 0
M  V30 11171 H 1023.58 -5.77327 -1.98813 0
M  V30 11172 H 1024.99 -5.72602 0.282818 0
M  V30 11173 H 1023.39 -5.90793 1.05281 0
M  V30 11174 H 1024.46 -4.58994 1.56372 0
M  V30 11175 N 1025.8 -0.366053 -1.5329 0
M  V30 11176 C 1027.05 0.224614 -2.00445 0
M  V30 11177 C 1027.36 1.49829 -1.2574 0
M  V30 11178 O 1028.57 2.16759 -1.63487 0
M  V30 11179 C 1027.03 0.450818 -3.57065 0
M  V30 11180 C 1026.63 -0.808257 -4.40649 0
M  V30 11181 C 1028.38 0.999116 -4.12575 0
M  V30 11182 C 1026.28 -0.551612 -5.88822 0
M  V30 11183 H 1025.21 0.0877114 -0.748881 0
M  V30 11184 H 1027.87 -0.484866 -1.76978 0
M  V30 11185 H 1026.25 1.22157 -3.76688 0
M  V30 11186 H 1027.42 -1.58184 -4.32798 0
M  V30 11187 H 1025.74 -1.27981 -3.96245 0
M  V30 11188 H 1028.33 1.20646 -5.20911 0
M  V30 11189 H 1028.68 1.96139 -3.67199 0
M  V30 11190 H 1029.21 0.288518 -3.96752 0
M  V30 11191 H 1025.95 -1.48423 -6.38475 0
M  V30 11192 H 1025.47 0.183462 -5.99519 0
M  V30 11193 H 1027.15 -0.177307 -6.46757 0
M  V30 11194 N 1027.28 1.57312 -0.0952337 0
M  V30 11195 C 1028.23 2.15263 0.881167 0
M  V30 11196 C 1029.22 1.09552 1.29208 0
M  V30 11197 O 1030.43 1.27897 1.26659 0
M  V30 11198 H 1026.8 0.688611 0.302191 0
M  V30 11199 H 1028.77 2.96126 0.367694 0
M  V30 11200 C 1027.52 2.74779 2.13053 0
M  V30 11201 H 1026.85 3.55807 1.82323 0
M  V30 11202 H 1028.29 3.18895 2.79431 0
M  V30 11203 C 1026.74 1.7068 2.90465 0
M  V30 11204 O 1027.27 1.14582 3.85011 0
M  V30 11205 N 1025.48 1.41169 2.54007 0
M  V30 11206 H 1025.03 1.86977 1.77193 0
M  V30 11207 H 1024.99 0.717559 3.06102 0
M  V30 11208 N 1028.76 -0.17846 1.56586 0
M  V30 11209 C 1030.03 -0.923096 1.72448 0
M  V30 11210 C 1030.41 -2.00692 0.654659 0
M  V30 11211 O 1029.76 -2.26079 -0.33171 0
M  V30 11212 C 1029.97 -1.49435 3.15389 0
M  V30 11213 C 1031.32 -1.97005 3.76131 0
M  V30 11214 O 1032.34 -1.59244 3.18622 0
M  V30 11215 O 1031.2 -2.66541 4.77094 0
M  V30 11216 H 1028.3 -0.434009 0.703964 0
M  V30 11217 H 1030.84 -0.16685 1.68878 0
M  V30 11218 H 1029.62 -0.713933 3.84732 0
M  V30 11219 H 1029.24 -2.31498 3.23256 0
M  V30 11220 N 1030.24 -1.51135 -0.446768 0
M  V30 11221 C 1031.65 -1.55919 -1.02694 0
M  V30 11222 C 1032 -0.377038 -1.92543 0
M  V30 11223 O 1031.12 0.507295 -2.1037 0
M  V30 11224 C 1031.72 -2.8257 -1.86922 0
M  V30 11225 C 1030.28 -2.89956 -2.40005 0
M  V30 11226 C 1029.42 -2.50482 -1.18971 0
M  V30 11227 H 1032.37 -1.57048 -0.228403 0
M  V30 11228 H 1032.4 -2.65799 -2.7227 0
M  V30 11229 H 1031.91 -3.6859 -1.21502 0
M  V30 11230 H 1030.01 -2.08343 -3.08907 0
M  V30 11231 H 1030.12 -3.93399 -2.73448 0
M  V30 11232 H 1028.49 -2.03466 -1.53211 0
M  V30 11233 H 1029.27 -3.38837 -0.551762 0
M  V30 11234 N 1031.71 0.701592 -1.41122 0
M  V30 11235 C 1032.96 1.46245 -1.41364 0
M  V30 11236 C 1033.31 1.9239 -0.0200662 0
M  V30 11237 O 1032.61 1.6622 0.952971 0
M  V30 11238 C 1032.8 2.693 -2.34973 0
M  V30 11239 C 1032.63 2.35193 -3.83294 0
M  V30 11240 C 1031.4 2.2585 -4.52018 0
M  V30 11241 C 1033.6 1.98555 -4.74426 0
M  V30 11242 N 1031.58 1.84565 -5.85499 0
M  V30 11243 C 1032.95 1.67981 -5.9681 0
M  V30 11244 C 1035.01 1.85313 -4.62129 0
M  V30 11245 C 1033.71 1.25496 -7.08268 0
M  V30 11246 C 1035.74 1.44232 -5.73543 0
M  V30 11247 C 1035.1 1.14564 -6.95021 0
M  V30 11248 H 1031.2 0.532679 -0.572518 0
M  V30 11249 H 1033.78 0.812296 -1.76946 0
M  V30 11250 H 1031.95 3.32045 -2.01496 0
M  V30 11251 H 1033.68 3.35734 -2.25976 0
M  V30 11252 H 1030.44 2.4405 -4.05878 0
M  V30 11253 H 1030.86 1.66421 -6.56226 0
M  V30 11254 H 1035.5 2.06905 -3.68714 0
M  V30 11255 H 1033.22 1.02647 -8.01554 0
M  V30 11256 H 1036.81 1.34544 -5.66029 0
M  V30 11257 H 1035.69 0.832556 -7.79768 0
M  V30 11258 N 1033.19 1.2685 0.935242 0
M  V30 11259 C 1034.44 1.12912 1.6846 0
M  V30 11260 C 1034.77 -0.325708 1.91449 0
M  V30 11261 O 1034.05 -1.23884 1.49944 0
M  V30 11262 C 1034.33 1.90513 3.05576 0
M  V30 11263 C 1034.18 3.43936 2.89876 0
M  V30 11264 C 1035.5 1.70363 4.05789 0
M  V30 11265 H 1032.62 0.411559 0.611382 0
M  V30 11266 H 1035.26 1.55917 1.08582 0
M  V30 11267 H 1033.41 1.53963 3.5669 0
M  V30 11268 H 1035.08 3.90272 2.45939 0
M  V30 11269 H 1033.33 3.70659 2.25376 0
M  V30 11270 H 1034 3.93467 3.87153 0
M  V30 11271 H 1036.47 2.02217 3.63659 0
M  V30 11272 H 1035.35 2.27066 4.99732 0
M  V30 11273 H 1035.61 0.649674 4.373 0
M  V30 11274 N 1034.67 -1.14067 1.0875 0
M  V30 11275 C 1035.6 -2.21385 0.74236 0
M  V30 11276 C 1036.58 -1.67833 -0.276805 0
M  V30 11277 O 1037.77 -1.93647 -0.1464 0
M  V30 11278 C 1034.9 -3.46956 0.154644 0
M  V30 11279 C 1033.85 -4.13555 1.10255 0
M  V30 11280 C 1033.18 -5.3337 0.376877 0
M  V30 11281 C 1034.48 -4.6169 2.44213 0
M  V30 11282 H 1036.17 -2.50512 1.63964 0
M  V30 11283 H 1033.72 -1.20408 0.789807 0
M  V30 11284 H 1035.67 -4.21284 -0.0988419 0
M  V30 11285 H 1034.39 -3.17203 -0.777789 0
M  V30 11286 H 1033.05 -3.41186 1.34119 0
M  V30 11287 H 1032.7 -4.99879 -0.559472 0
M  V30 11288 H 1032.4 -5.78875 1.00884 0
M  V30 11289 H 1033.92 -6.10458 0.131527 0
M  V30 11290 H 1035.34 -5.27475 2.24595 0
M  V30 11291 H 1033.74 -5.17909 3.03134 0
M  V30 11292 H 1034.81 -3.76574 3.05483 0
M  V30 11293 N 1036.15 -0.873678 -1.31166 0
M  V30 11294 C 1037.08 -0.348011 -2.30892 0
M  V30 11295 C 1038.06 0.563092 -1.60509 0
M  V30 11296 O 1039.24 0.479332 -1.88192 0
M  V30 11297 C 1036.37 0.448158 -3.44396 0
M  V30 11298 C 1035.33 -0.370179 -4.26396 0
M  V30 11299 C 1034.65 0.551903 -5.31844 0
M  V30 11300 C 1035.95 -1.60624 -4.96988 0
M  V30 11301 H 1037.65 -1.18134 -2.75109 0
M  V30 11302 H 1035.19 -0.569502 -1.3226 0
M  V30 11303 H 1037.15 0.826458 -4.13216 0
M  V30 11304 H 1035.87 1.31503 -2.98956 0
M  V30 11305 H 1034.53 -0.730472 -3.59249 0
M  V30 11306 H 1034.18 1.41616 -4.82653 0
M  V30 11307 H 1033.88 0.00823478 -5.87599 0
M  V30 11308 H 1035.4 0.926965 -6.03523 0
M  V30 11309 H 1036.82 -1.29917 -5.58386 0
M  V30 11310 H 1035.21 -2.08926 -5.62557 0
M  V30 11311 H 1036.28 -2.357 -4.23761 0
M  V30 11312 N 1037.63 1.44308 -0.633487 0
M  V30 11313 C 1038.57 2.32455 0.0821956 0
M  V30 11314 C 1039.57 1.47482 0.833388 0
M  V30 11315 O 1040.77 1.63812 0.746021 0
M  V30 11316 H 1037.15 0.750631 0.045352 0
M  V30 11317 H 1039.12 2.90566 -0.679282 0
M  V30 11318 C 1037.87 3.31512 1.04858 0
M  V30 11319 H 1037.19 3.96908 0.479979 0
M  V30 11320 H 1038.63 3.95865 1.51879 0
M  V30 11321 C 1037.09 2.60615 2.13498 0
M  V30 11322 O 1037.62 2.40682 3.21613 0
M  V30 11323 N 1035.83 2.20315 1.89499 0
M  V30 11324 H 1035.37 2.36726 1.01581 0
M  V30 11325 H 1035.33 1.73205 2.62388 0
M  V30 11326 N 1039.1 0.374177 1.53094 0
M  V30 11327 C 1040.07 -0.455999 2.24618 0
M  V30 11328 C 1041.07 -1.00269 1.25709 0
M  V30 11329 O 1042.26 -0.887077 1.49922 0
M  V30 11330 C 1039.39 -1.63822 2.98957 0
M  V30 11331 H 1040.58 0.169986 2.99418 0
M  V30 11332 H 1038.14 0.126015 1.55791 0
M  V30 11333 H 1038.87 -2.30205 2.28421 0
M  V30 11334 H 1038.66 -1.25308 3.71538 0
M  V30 11335 H 1040.15 -2.22633 3.53305 0
M  V30 11336 N 1040.58 -1.57259 0.103575 0
M  V30 11337 C 1041.81 -1.99424 -0.569638 0
M  V30 11338 C 1042.23 -0.982475 -1.60403 0
M  V30 11339 O 1041.59 0.0479231 -1.81237 0
M  V30 11340 C 1041.64 -3.40527 -1.18633 0
M  V30 11341 O 1040.74 -3.42167 -2.30208 0
M  V30 11342 H 1040.08 -0.648251 -0.143759 0
M  V30 11343 H 1042.61 -2.03739 0.187493 0
M  V30 11344 H 1042.62 -3.78404 -1.5256 0
M  V30 11345 H 1041.3 -4.13686 -0.428582 0
M  V30 11346 H 1039.88 -3.16093 -1.97837 0
M  V30 11347 N 1042.06 0.170153 -1.56679 0
M  V30 11348 C 1043.31 0.883211 -1.83224 0
M  V30 11349 C 1043.66 1.7982 -0.68429 0
M  V30 11350 O 1042.95 1.88922 0.319204 0
M  V30 11351 C 1043.15 1.71402 -3.13618 0
M  V30 11352 C 1042.98 0.880967 -4.40986 0
M  V30 11353 C 1041.75 0.555594 -5.02236 0
M  V30 11354 C 1043.95 0.221986 -5.13821 0
M  V30 11355 N 1041.93 -0.293479 -6.13198 0
M  V30 11356 C 1043.3 -0.488202 -6.18075 0
M  V30 11357 C 1045.35 0.14027 -4.97702 0
M  V30 11358 C 1044.06 -1.27236 -7.07957 0
M  V30 11359 C 1046.08 -0.630556 -5.88029 0
M  V30 11360 C 1045.44 -1.3291 -6.91747 0
M  V30 11361 H 1041.54 0.301769 -0.721429 0
M  V30 11362 H 1044.13 0.150113 -1.9412 0
M  V30 11363 H 1042.3 2.41853 -3.03911 0
M  V30 11364 H 1044.03 2.36847 -3.28155 0
M  V30 11365 H 1040.79 0.885952 -4.6524 0
M  V30 11366 H 1041.21 -0.708359 -6.73284 0
M  V30 11367 H 1045.85 0.665983 -4.17522 0
M  V30 11368 H 1043.57 -1.80941 -7.87582 0
M  V30 11369 H 1047.16 -0.695468 -5.77628 0
M  V30 11370 H 1046.04 -1.916 -7.60433 0
M  V30 11371 N 1043.54 1.5137 0.438746 0
M  V30 11372 C 1044.79 1.63969 1.1883 0
M  V30 11373 C 1045.11 0.355245 1.91228 0
M  V30 11374 O 1044.37 -0.660605 1.84213 0
M  V30 11375 C 1044.67 2.79221 2.23093 0
M  V30 11376 C 1044.33 4.18547 1.67717 0
M  V30 11377 C 1043 4.5645 1.52337 0
M  V30 11378 C 1045.35 5.05494 1.26986 0
M  V30 11379 C 1042.68 5.79007 0.946996 0
M  V30 11380 C 1045.03 6.28628 0.707785 0
M  V30 11381 C 1043.69 6.65305 0.540881 0
M  V30 11382 H 1042.96 0.600003 0.43483 0
M  V30 11383 H 1045.61 1.85398 0.479565 0
M  V30 11384 H 1043.91 2.52008 2.99999 0
M  V30 11385 H 1045.61 2.86168 2.80907 0
M  V30 11386 H 1042.2 3.88663 1.80663 0
M  V30 11387 H 1046.38 4.76818 1.37689 0
M  V30 11388 H 1041.64 6.06072 0.805432 0
M  V30 11389 H 1045.81 6.95342 0.38366 0
M  V30 11390 H 1043.44 7.60144 0.0921324 0
M  V30 11391 N 1045.02 -0.694098 1.41492 0
M  V30 11392 C 1045.96 -1.82932 1.43662 0
M  V30 11393 C 1046.96 -1.66455 0.31449 0
M  V30 11394 O 1048.16 -1.73298 0.486589 0
M  V30 11395 H 1044.54 -0.602847 0.449533 0
M  V30 11396 H 1046.51 -1.78218 2.39334 0
M  V30 11397 C 1045.26 -3.20962 1.33712 0
M  V30 11398 H 1044.58 -3.34257 2.19345 0
M  V30 11399 H 1046.02 -4.00467 1.39291 0
M  V30 11400 C 1044.48 -3.36863 0.0496332 0
M  V30 11401 O 1045.01 -3.91371 -0.905093 0
M  V30 11402 N 1043.22 -2.90588 -0.0269299 0
M  V30 11403 H 1042.76 -2.46417 0.750752 0
M  V30 11404 H 1042.72 -3.01605 -0.887781 0
M  V30 11405 N 1046.49 -1.27344 -0.928501 0
M  V30 11406 C 1047.72 -1.16557 -1.7155 0
M  V30 11407 C 1048.14 0.274044 -1.86093 0
M  V30 11408 O 1047.5 1.19847 -1.36038 0
M  V30 11409 C 1047.55 -1.85332 -3.09329 0
M  V30 11410 O 1046.65 -1.15074 -3.9602 0
M  V30 11411 H 1046 -0.405423 -0.525859 0
M  V30 11412 H 1048.53 -1.68399 -1.16202 0
M  V30 11413 H 1048.54 -1.92659 -3.59648 0
M  V30 11414 H 1047.21 -2.90056 -2.98061 0
M  V30 11415 H 1045.79 -1.1581 -3.54461 0
M  V30 11416 N 1047.97 1.13488 -1.09353 0
M  V30 11417 C 1049.22 1.84748 -0.829126 0
M  V30 11418 C 1049.55 1.83485 0.645247 0
M  V30 11419 O 1048.8 1.26767 1.49093 0
M  V30 11420 C 1049.1 3.32584 -1.30854 0
M  V30 11421 C 1048.77 3.54028 -2.7924 0
M  V30 11422 C 1047.43 3.59588 -3.19765 0
M  V30 11423 C 1049.78 3.62058 -3.74918 0
M  V30 11424 C 1047.11 3.70712 -4.54741 0
M  V30 11425 C 1049.46 3.7471 -5.09682 0
M  V30 11426 C 1048.13 3.78523 -5.49797 0
M  V30 11427 H 1047.4 0.67604 -0.303399 0
M  V30 11428 H 1050.04 1.33989 -1.36818 0
M  V30 11429 H 1048.35 3.85689 -0.689275 0
M  V30 11430 H 1050.04 3.86166 -1.08059 0
M  V30 11431 H 1046.63 3.50354 -2.4688 0
M  V30 11432 H 1050.82 3.57043 -3.44723 0
M  V30 11433 H 1046.07 3.71931 -4.8526 0
M  V30 11434 H 1050.25 3.79866 -5.83674 0
M  V30 11435 H 1047.88 3.86895 -6.54382 0
M  V30 11436 N 1049.45 0.880621 1.30701 0
M  V30 11437 C 1050.38 0.360251 2.30704 0
M  V30 11438 C 1051.36 -0.554572 1.60806 0
M  V30 11439 O 1052.55 -0.469345 1.88443 0
M  V30 11440 C 1049.68 -0.429888 3.44629 0
M  V30 11441 C 1048.63 0.392786 4.26194 0
M  V30 11442 C 1047.96 -0.52369 5.32129 0
M  V30 11443 C 1049.26 1.63258 4.96129 0
M  V30 11444 H 1050.95 1.19591 2.74478 0
M  V30 11445 H 1048.5 0.576508 1.31956 0
M  V30 11446 H 1050.45 -0.804532 4.13649 0
M  V30 11447 H 1049.17 -1.29916 2.99649 0
M  V30 11448 H 1047.83 0.749514 3.58856 0
M  V30 11449 H 1047.48 -1.39054 4.83397 0
M  V30 11450 H 1047.18 0.0229272 5.87596 0
M  V30 11451 H 1048.71 -0.894946 6.04006 0
M  V30 11452 H 1050.12 1.32877 5.57689 0
M  V30 11453 H 1048.52 2.11906 5.61441 0
M  V30 11454 H 1049.59 2.37944 4.22505 0
M  V30 11455 N 1050.93 -1.4397 0.641131 0
M  V30 11456 C 1052.16 -2.06303 0.157006 0
M  V30 11457 C 1052.57 -1.47981 -1.17248 0
M  V30 11458 O 1051.93 -0.606471 -1.72128 0
M  V30 11459 C 1051.98 -3.6147 0.0468425 0
M  V30 11460 O 1051.7 -4.17622 1.32376 0
M  V30 11461 C 1053.2 -4.40857 -0.464795 0
M  V30 11462 H 1050.42 -0.665684 0.0842946 0
M  V30 11463 H 1052.97 -1.84675 0.878363 0
M  V30 11464 H 1051.12 -3.82325 -0.625006 0
M  V30 11465 H 1051.54 -5.11167 1.17509 0
M  V30 11466 H 1053.01 -5.49813 -0.490862 0
M  V30 11467 H 1053.49 -4.13016 -1.4938 0
M  V30 11468 H 1054.09 -4.24943 0.174146 0
M  V30 11469 N 1052.41 -0.382291 -1.52893 0
M  V30 11470 C 1053.36 0.473026 -2.23039 0
M  V30 11471 C 1054.34 1.0353 -1.23168 0
M  V30 11472 O 1055.53 0.962566 -1.48538 0
M  V30 11473 C 1052.66 1.60349 -3.03551 0
M  V30 11474 C 1051.75 1.05329 -4.10812 0
M  V30 11475 N 1052.14 0.22746 -5.05288 0
M  V30 11476 C 1050.44 1.32648 -4.25818 0
M  V30 11477 C 1051.14 -0.0757032 -5.81651 0
M  V30 11478 N 1050.11 0.526387 -5.41045 0
M  V30 11479 H 1053.92 -0.164541 -2.93439 0
M  V30 11480 H 1051.43 -0.191211 -1.6127 0
M  V30 11481 H 1053.43 2.22858 -3.52335 0
M  V30 11482 H 1052.09 2.24394 -2.34685 0
M  V30 11483 H 1053.1 -0.134714 -5.17725 0
M  V30 11484 H 1049.78 1.96849 -3.6818 0
M  V30 11485 H 1051.17 -0.744375 -6.67764 0
M  V30 11486 N 1053.89 1.57202 -0.111913 0
M  V30 11487 C 1054.85 2.13778 0.826534 0
M  V30 11488 C 1055.85 1.07097 1.19945 0
M  V30 11489 O 1057.04 1.32906 1.12613 0
M  V30 11490 C 1054.17 2.6722 2.11675 0
M  V30 11491 H 1055.36 2.98023 0.334975 0
M  V30 11492 H 1052.92 1.55696 0.137256 0
M  V30 11493 H 1053.65 1.86542 2.65278 0
M  V30 11494 H 1053.44 3.45235 1.8589 0
M  V30 11495 H 1054.93 3.10926 2.78774 0
M  V30 11496 N 1055.36 -0.161842 1.56767 0
M  V30 11497 C 1056.29 -1.20226 2.0017 0
M  V30 11498 C 1057.27 -1.4564 0.878807 0
M  V30 11499 O 1058.46 -1.56813 1.14557 0
M  V30 11500 C 1055.59 -2.53897 2.36968 0
M  V30 11501 C 1054.54 -2.43033 3.52305 0
M  V30 11502 C 1053.87 -3.81281 3.74872 0
M  V30 11503 C 1055.17 -1.927 4.85453 0
M  V30 11504 H 1056.86 -0.84142 2.87333 0
M  V30 11505 H 1054.41 -0.403309 1.38237 0
M  V30 11506 H 1056.36 -3.26893 2.6593 0
M  V30 11507 H 1055.09 -2.91787 1.46724 0
M  V30 11508 H 1053.75 -1.7249 3.23485 0
M  V30 11509 H 1053.39 -4.1658 2.81904 0
M  V30 11510 H 1053.09 -3.74877 4.52483 0
M  V30 11511 H 1054.62 -4.55848 4.06245 0
M  V30 11512 H 1056.03 -2.55477 5.13229 0
M  V30 11513 H 1054.43 -1.97222 5.66766 0
M  V30 11514 H 1055.5 -0.881816 4.76814 0
M  V30 11515 N 1056.84 -1.516 -0.430713 0
M  V30 11516 C 1058.07 -1.687 -1.20644 0
M  V30 11517 C 1058.49 -0.386555 -1.84085 0
M  V30 11518 O 1057.85 0.653952 -1.69095 0
M  V30 11519 C 1057.9 -2.80887 -2.2613 0
M  V30 11520 O 1057 -2.44952 -3.31772 0
M  V30 11521 H 1056.34 -0.562289 -0.353167 0
M  V30 11522 H 1058.87 -1.98198 -0.507807 0
M  V30 11523 H 1058.88 -3.05167 -2.70809 0
M  V30 11524 H 1057.56 -3.75249 -1.79334 0
M  V30 11525 H 1056.13 -2.31267 -2.92523 0
M  V30 11526 O 1058.36 0.576504 -1.5086 0
M  V30 11527 H 1059.05 1.23151 -1.49511 0
M  V30 END ATOM
M  V30 BEGIN BOND
M  V30 END BOND
M  V30 END CTAB
M  END
$$$$
