drugbank_target|P17612 cAMP-dependent protein kinase catalytic subunit alpha (DB01919; DB01940; DB02155; DB02482; DB02611; DB03374; DB04098; DB04522; DB04530; DB04707; DB06959; DB06977; DB07107; DB07124; DB07204; DB07235; DB07458; DB07583; DB07854; DB07855; DB07856; DB07857; DB07858; DB07859; DB07860; DB07876; DB07947; DB07995; DB07996; DB07997; DB08070; DB08073; DB08113; DB08114; DB08148; DB08149; DB08150; DB08162; DB08231; DB08568; DB08569; DB08756; DB08846; DB12010)
 OpenBabel12092120393D

  0  0  0     0  0            999 V3000
M  V30 BEGIN CTAB
M  V30 COUNTS 5738 5811 0 0 0
M  V30 BEGIN ATOM
M  V30 1 H -0.908 1.98254 -0.117106 0
M  V30 2 N 0 1.576 0 0
M  V30 3 C 0.933 2.03868 1.02534 0
M  V30 4 C 1.911 0.928543 1.3348 0
M  V30 5 O 3.095 1.19667 1.45644 0
M  V30 6 C 0.222 2.43627 2.35294 0
M  V30 7 C -0.732 3.65373 2.2001 0
M  V30 8 S 0.101 5.13292 1.52614 0
M  V30 9 C 1.257 5.56322 2.86805 0
M  V30 10 H 1.49 2.90518 0.631377 0
M  V30 11 H -0.977 1.52953 0.210867 0
M  V30 12 H 0.981 2.67203 3.11629 0
M  V30 13 H -0.358 1.57376 2.7183 0
M  V30 14 H -1.165 3.90944 3.18086 0
M  V30 15 H -1.563 3.418 1.51819 0
M  V30 16 H 0.729 5.58782 3.83104 0
M  V30 17 H 1.672 6.56266 2.65933 0
M  V30 18 H 2.08 4.83886 2.90714 0
M  V30 19 N 1.4781 -0.272755 1.55222 0
M  V30 20 C 2.7261 -1.00234 1.75492 0
M  V30 21 C 3.0471 -1.8681 0.5592 0
M  V30 22 O 2.3171 -1.91215 -0.425882 0
M  V30 23 H 0.8971 -0.373076 0.647166 0
M  V30 24 H 3.5591 -0.296926 1.92625 0
M  V30 25 H 2.6551 -1.63913 2.65592 0
M  V30 26 N 2.9562 -1.48159 -0.537278 0
M  V30 27 C 3.9042 -1.62573 -1.66352 0
M  V30 28 C 4.8982 -0.492366 -1.62087 0
M  V30 29 O 6.1042 -0.670847 -1.67032 0
M  V30 30 H 2.4792 -0.511992 -0.550789 0
M  V30 31 H 4.4502 -2.57176 -1.51337 0
M  V30 32 C 3.1992 -1.67583 -3.04649 0
M  V30 33 H 2.5222 -2.54151 -3.08622 0
M  V30 34 H 3.9622 -1.81713 -3.83088 0
M  V30 35 C 2.4212 -0.413039 -3.34358 0
M  V30 36 O 2.9512 0.477259 -3.98855 0
M  V30 37 N 1.1572 -0.286961 -2.8918 0
M  V30 38 H 0.7042 -1.01241 -2.36871 0
M  V30 39 H 0.6622 0.556963 -3.09427 0
M  V30 40 N 4.4343 0.785586 -1.36625 0
M  V30 41 C 5.3973 1.87999 -1.31107 0
M  V30 42 C 6.3973 1.59316 -0.217959 0
M  V30 43 O 7.5873 1.67656 -0.472977 0
M  V30 44 C 4.7193 3.24861 -1.03334 0
M  V30 45 H 5.9123 1.94307 -2.2844 0
M  V30 46 H 3.4653 0.983813 -1.21453 0
M  V30 47 H 4.2003 3.24235 -0.0647432 0
M  V30 48 H 3.9853 3.4707 -1.82441 0
M  V30 49 H 5.4753 4.04929 -1.02088 0
M  V30 50 N 5.9124 1.20967 1.01018 0
M  V30 51 C 6.8754 0.965918 2.07853 0
M  V30 52 C 7.8754 -0.0610545 1.60684 0
M  V30 53 O 9.0654 0.175681 1.73312 0
M  V30 54 C 6.1974 0.455513 3.37843 0
M  V30 55 H 7.3904 1.91365 2.3091 0
M  V30 56 H 4.9434 1.02594 1.17916 0
M  V30 57 H 5.6784 -0.497381 3.20463 0
M  V30 58 H 5.4634 1.19622 3.73407 0
M  V30 59 H 6.9534 0.304667 4.16487 0
M  V30 60 N 7.3905 -1.2043 1.01659 0
M  V30 61 C 8.3535 -2.21433 0.591616 0
M  V30 62 C 9.3535 -1.57203 -0.338226 0
M  V30 63 O 10.5435 -1.73737 -0.126918 0
M  V30 64 C 7.6755 -3.40628 -0.136058 0
M  V30 65 H 8.8685 -2.60545 1.48514 0
M  V30 66 H 6.4215 -1.33893 0.806379 0
M  V30 67 H 7.1565 -3.07019 -1.04449 0
M  V30 68 H 6.9415 -3.88475 0.531917 0
M  V30 69 H 8.4315 -4.15475 -0.420735 0
M  V30 70 N 8.8686 -0.792821 -1.36206 0
M  V30 71 C 9.8316 -0.199459 -2.2833 0
M  V30 72 C 10.8316 0.605189 -1.48977 0
M  V30 73 O 12.0216 0.425685 -1.68919 0
M  V30 74 C 9.1536 0.723523 -3.33134 0
M  V30 75 H 10.3466 -1.01181 -2.82316 0
M  V30 76 H 7.8996 -0.562485 -1.45828 0
M  V30 77 H 8.6346 1.56008 -2.84309 0
M  V30 78 H 8.4196 0.148436 -3.91819 0
M  V30 79 H 9.9096 1.13344 -4.01924 0
M  V30 80 N 10.3467 1.47872 -0.545128 0
M  V30 81 C 11.2937 2.29849 0.2093 0
M  V30 82 C 12.2637 1.38313 0.919707 0
M  V30 83 O 13.4487 1.67277 0.917772 0
M  V30 84 C 10.5887 3.22019 1.24088 0
M  V30 85 C 9.7017 4.2864 0.537778 0
M  V30 86 C 8.8367 5.07973 1.5536 0
M  V30 87 C 7.8757 6.06381 0.8348 0
M  V30 88 N 7.0127 6.78717 1.79688 0
M  V30 89 H 11.8527 2.93845 -0.49591 0
M  V30 90 H 9.3897 1.44848 -0.256389 0
M  V30 91 H 11.3477 3.73868 1.85144 0
M  V30 92 H 9.9777 2.59914 1.91428 0
M  V30 93 H 9.0297 3.7994 -0.187046 0
M  V30 94 H 10.3417 4.98793 -0.0258907 0
M  V30 95 H 9.4957 5.63912 2.23803 0
M  V30 96 H 8.2347 4.37693 2.15118 0
M  V30 97 H 7.2397 5.49631 0.136388 0
M  V30 98 H 8.4647 6.78665 0.24313 0
M  V30 99 H 6.4107 6.11177 2.38326 0
M  V30 100 H 6.3277 7.44998 1.28505 0
M  V30 101 H 7.5957 7.39237 2.47282 0
M  V30 102 N 11.8248 0.280983 1.55075 0
M  V30 103 C 12.7718 -0.603937 2.22758 0
M  V30 104 C 13.7418 -1.1452 1.20309 0
M  V30 105 O 14.9268 -1.19343 1.48869 0
M  V30 106 C 12.0668 -1.77947 2.95684 0
M  V30 107 C 11.1798 -1.2715 4.12864 0
M  V30 108 C 10.3148 -2.4093 4.7342 0
M  V30 109 C 9.3538 -1.87165 5.82783 0
M  V30 110 N 8.4908 -2.94441 6.37377 0
M  V30 111 H 13.3308 -0.020124 2.97993 0
M  V30 112 H 10.8678 0.00183425 1.471 0
M  V30 113 H 12.8258 -2.47055 3.36184 0
M  V30 114 H 11.4558 -2.33522 2.22861 0
M  V30 115 H 10.5078 -0.473331 3.77444 0
M  V30 116 H 11.8198 -0.837751 4.91715 0
M  V30 117 H 10.9738 -3.18021 5.1667 0
M  V30 118 H 9.7128 -2.87623 3.93859 0
M  V30 119 H 8.7178 -1.08556 5.38976 0
M  V30 120 H 9.9428 -1.41401 6.64216 0
M  V30 121 H 7.8888 -3.40505 5.60707 0
M  V30 122 H 7.8058 -2.55501 7.11516 0
M  V30 123 H 9.0738 -3.71489 6.85285 0
M  V30 124 N 13.3029 -1.57598 0.00835791 0
M  V30 125 C 14.5509 -1.90551 -0.6734 0
M  V30 126 C 14.8719 -0.883301 -1.73847 0
M  V30 127 O 14.1419 0.0781442 -1.95744 0
M  V30 128 H 12.7219 -0.703312 -0.251717 0
M  V30 129 H 15.3839 -1.94833 0.0512592 0
M  V30 130 H 14.4799 -2.9056 -1.13935 0
M  V30 131 N 14.781 0.264519 -1.55364 0
M  V30 132 C 16.006 1.01726 -1.80739 0
M  V30 133 C 16.431 1.78836 -0.583044 0
M  V30 134 O 15.789 1.75167 0.467566 0
M  V30 135 C 15.837 1.94482 -3.03659 0
M  V30 136 O 14.941 3.03386 -2.7934 0
M  V30 137 H 14.282 0.290395 -0.597132 0
M  V30 138 H 16.812 0.290854 -2.02522 0
M  V30 139 H 16.822 2.36278 -3.32621 0
M  V30 140 H 15.497 1.37772 -3.92418 0
M  V30 141 H 14.074 2.65844 -2.61498 0
M  V30 142 N 16.2591 1.48442 0.529413 0
M  V30 143 C 17.1691 1.6569 1.66084 0
M  V30 144 C 18.1851 0.539432 1.65427 0
M  V30 145 O 19.3611 0.810572 1.84368 0
M  V30 146 C 16.4261 1.69315 3.02545 0
M  V30 147 C 15.4871 2.92694 3.14052 0
M  V30 148 C 14.7201 2.96137 4.44003 0
M  V30 149 O 14.9431 2.07973 5.31134 0
M  V30 150 O 13.8771 3.88312 4.59888 0
M  V30 151 H 17.7031 2.61483 1.54469 0
M  V30 152 H 15.2881 1.3185 0.702567 0
M  V30 153 H 17.1701 1.74217 3.83701 0
M  V30 154 H 15.8451 0.766966 3.14483 0
M  V30 155 H 14.7521 2.93324 2.32189 0
M  V30 156 H 16.0851 3.84699 3.0703 0
M  V30 157 N 17.7372 -0.778329 1.37039 0
M  V30 158 C 18.6692 -1.90034 1.2814 0
M  V30 159 C 19.6822 -1.61585 0.198558 0
M  V30 160 O 20.8712 -1.72625 0.454175 0
M  V30 161 C 17.9712 -3.25108 0.956968 0
M  V30 162 C 17.1442 -3.81253 2.14394 0
M  V30 163 C 16.2032 -4.94789 1.79082 0
M  V30 164 O 15.2292 -5.10721 2.51301 0
M  V30 165 N 16.4312 -5.75878 0.731043 0
M  V30 166 H 19.1962 -1.98186 2.24816 0
M  V30 167 H 16.7572 -0.957129 1.30578 0
M  V30 168 H 18.7492 -3.9857 0.701701 0
M  V30 169 H 17.3192 -3.125 0.0789812 0
M  V30 170 H 16.5392 -2.99647 2.56135 0
M  V30 171 H 17.8272 -4.15495 2.93668 0
M  V30 172 H 17.2252 -5.65547 0.131618 0
M  V30 173 H 15.7822 -6.49596 0.535622 0
M  V30 174 N 19.2153 -1.21501 -1.00376 0
M  V30 175 C 20.1253 -0.991447 -2.12621 0
M  V30 176 C 21.1413 0.0568446 -1.73907 0
M  V30 177 O 22.3173 -0.13348 -2.00957 0
M  V30 178 C 19.3823 -0.560312 -3.42142 0
M  V30 179 C 18.4433 -1.68096 -3.95022 0
M  V30 180 C 17.6763 -1.2703 -5.18362 0
M  V30 181 O 17.8993 -0.144438 -5.70217 0
M  V30 182 O 16.8333 -2.08269 -5.64719 0
M  V30 183 H 20.6593 -1.93158 -2.34358 0
M  V30 184 H 18.2443 -0.999999 -1.10997 0
M  V30 185 H 20.1263 -0.329724 -4.20108 0
M  V30 186 H 18.8013 0.351089 -3.2179 0
M  V30 187 H 17.7083 -1.96597 -3.18278 0
M  V30 188 H 19.0413 -2.56983 -4.19786 0
M  V30 189 N 20.6934 1.19889 -1.02296 0
M  V30 190 C 21.9184 1.9393 -0.735237 0
M  V30 191 C 22.3434 1.74639 0.698782 0
M  V30 192 O 21.7014 1.04481 1.48167 0
M  V30 193 C 21.7494 3.43916 -1.08417 0
M  V30 194 O 20.8534 4.11917 -0.199446 0
M  V30 195 H 20.1944 0.605645 -0.272196 0
M  V30 196 H 22.7244 1.52137 -1.36804 0
M  V30 197 H 22.7344 3.9456 -1.03856 0
M  V30 198 H 21.4094 3.5728 -2.12894 0
M  V30 199 H 19.9864 3.71666 -0.303136 0
M  V30 200 N 22.1715 0.800033 1.35784 0
M  V30 201 C 23.4175 0.377901 1.99248 0
M  V30 202 C 23.7505 -1.05052 1.63333 0
M  V30 203 O 23.0255 -1.72768 0.893385 0
M  V30 204 C 23.3085 0.553922 3.55814 0
M  V30 205 C 23.1615 2.0268 4.01548 0
M  V30 206 C 24.4805 -0.0244802 4.40093 0
M  V30 207 H 21.5995 0.138782 0.723815 0
M  V30 208 H 24.2415 1.00835 1.61035 0
M  V30 209 H 22.3915 0.0172398 3.88496 0
M  V30 210 H 24.0635 2.62536 3.79305 0
M  V30 211 H 22.3065 2.5256 3.52698 0
M  V30 212 H 22.9775 2.10087 5.10458 0
M  V30 213 H 25.4535 0.433775 4.13833 0
M  V30 214 H 24.3295 0.128637 5.48749 0
M  V30 215 H 24.5905 -1.11758 4.27741 0
M  V30 216 N 23.6496 -1.47581 0.552962 0
M  V30 217 C 24.5966 -2.29957 -0.197108 0
M  V30 218 C 25.5666 -1.38799 -0.912359 0
M  V30 219 O 26.7516 -1.67761 -0.908888 0
M  V30 220 C 23.8916 -3.22672 -1.22379 0
M  V30 221 C 23.0046 -4.28919 -0.515038 0
M  V30 222 C 22.1396 -5.0879 -1.52664 0
M  V30 223 C 21.1786 -6.06815 -0.802631 0
M  V30 224 N 20.3156 -6.7966 -1.76086 0
M  V30 225 H 25.1556 -2.93578 0.511486 0
M  V30 226 H 22.6926 -1.4471 0.264067 0
M  V30 227 H 24.6506 -3.74845 -1.83159 0
M  V30 228 H 23.2806 -2.60925 -1.90047 0
M  V30 229 H 22.3326 -3.79835 0.207192 0
M  V30 230 H 23.6446 -4.98773 0.0523425 0
M  V30 231 H 22.7986 -5.65091 -2.20809 0
M  V30 232 H 21.5376 -4.38828 -2.12794 0
M  V30 233 H 20.5426 -5.49695 -0.107238 0
M  V30 234 H 21.7676 -6.78784 -0.207135 0
M  V30 235 H 19.7136 -6.12432 -2.35081 0
M  V30 236 H 19.6306 -7.45669 -1.24552 0
M  V30 237 H 20.8986 -7.40538 -2.43359 0
M  V30 238 N 25.1277 -0.289203 -1.54924 0
M  V30 239 C 26.0377 0.601863 -2.26748 0
M  V30 240 C 27.0537 1.15834 -1.2984 0
M  V30 241 O 28.2297 1.18564 -1.62802 0
M  V30 242 C 25.2947 1.76299 -2.98529 0
M  V30 243 C 24.3557 1.24178 -4.10948 0
M  V30 244 C 23.5887 2.34757 -4.79296 0
M  V30 245 O 23.8117 3.54411 -4.46933 0
M  V30 246 O 22.7457 2.02115 -5.66951 0
M  V30 247 H 26.5717 0.0195879 -3.03694 0
M  V30 248 H 24.1567 -0.0560868 -1.49295 0
M  V30 249 H 26.0387 2.43973 -3.43592 0
M  V30 250 H 24.7137 2.33209 -2.24488 0
M  V30 251 H 23.6207 0.531104 -3.70311 0
M  V30 252 H 24.9537 0.718252 -4.86931 0
M  V30 253 N 26.6058 1.57591 -0.0167156 0
M  V30 254 C 27.8528 1.91283 0.664597 0
M  V30 255 C 28.1808 0.891949 1.72842 0
M  V30 256 O 27.4358 -0.100931 1.9544 0
M  V30 257 C 27.7348 3.3172 1.33029 0
M  V30 258 C 27.4008 4.4914 0.398047 0
M  V30 259 C 26.0628 4.80992 0.141421 0
M  V30 260 C 28.4148 5.20634 -0.242825 0
M  V30 261 C 25.7428 5.81703 -0.764092 0
M  V30 262 C 28.0948 6.22311 -1.13632 0
M  V30 263 C 26.7588 6.52611 -1.40196 0
M  V30 264 H 26.0288 0.699956 0.243193 0
M  V30 265 H 28.6758 1.9135 -0.0758267 0
M  V30 266 H 26.9808 3.27856 2.14517 0
M  V30 267 H 28.6778 3.55055 1.86379 0
M  V30 268 H 25.2678 4.24262 0.608238 0
M  V30 269 H 29.4518 4.96267 -0.0576019 0
M  V30 270 H 24.7078 6.03532 -0.977732 0
M  V30 271 H 28.8818 6.76834 -1.63917 0
M  V30 272 H 26.5088 7.30467 -2.10529 0
M  V30 273 N 28.0839 -0.256276 1.55502 0
M  V30 274 C 29.0139 -1.32102 1.92539 0
M  V30 275 C 29.9949 -1.50684 0.789194 0
M  V30 276 O 31.1799 -1.63449 1.04872 0
M  V30 277 C 28.3099 -2.67752 2.21192 0
M  V30 278 C 27.2639 -2.63878 3.36975 0
M  V30 279 C 26.5899 -4.03236 3.51147 0
M  V30 280 C 27.8899 -2.21682 4.72921 0
M  V30 281 H 29.5839 -1.01351 2.81724 0
M  V30 282 H 27.1299 -0.486105 1.35547 0
M  V30 283 H 29.0829 -3.42365 2.45691 0
M  V30 284 H 27.8069 -3.0012 1.28824 0
M  V30 285 H 26.4659 -1.91722 3.12471 0
M  V30 286 H 26.1139 -4.32854 2.56216 0
M  V30 287 H 25.8139 -4.01535 4.29003 0
M  V30 288 H 27.3379 -4.79563 3.77957 0
M  V30 289 H 28.7519 -2.86023 4.96854 0
M  V30 290 H 27.1489 -2.3111 5.53812 0
M  V30 291 H 28.2189 -1.16833 4.70615 0
M  V30 292 N 29.562 -1.4872 -0.521534 0
M  V30 293 C 30.525 -1.63379 -1.60748 0
M  V30 294 C 31.525 -0.50661 -1.52611 0
M  V30 295 O 32.715 -0.772601 -1.5613 0
M  V30 296 C 29.847 -1.61192 -3.00383 0
M  V30 297 H 31.04 -2.60217 -1.49087 0
M  V30 298 H 28.593 -1.37444 -0.744235 0
M  V30 299 H 29.328 -0.65863 -3.17541 0
M  V30 300 H 29.113 -2.43032 -3.07698 0
M  V30 301 H 30.603 -1.7466 -3.7932 0
M  V30 302 N 31.0401 0.771051 -1.3745 0
M  V30 303 C 31.9871 1.88435 -1.3327 0
M  V30 304 C 32.9571 1.64914 -0.198136 0
M  V30 305 O 34.1421 1.86821 -0.387606 0
M  V30 306 C 31.2821 3.25509 -1.14622 0
M  V30 307 C 30.3951 3.60979 -2.37314 0
M  V30 308 C 29.5301 4.87265 -2.11533 0
M  V30 309 C 28.5691 5.15469 -3.30088 0
M  V30 310 N 27.7061 6.32944 -3.03853 0
M  V30 311 H 32.5461 1.91344 -2.28455 0
M  V30 312 H 30.0831 0.935466 -1.13523 0
M  V30 313 H 32.0411 4.04582 -1.01831 0
M  V30 314 H 30.6711 3.21974 -0.230837 0
M  V30 315 H 29.7231 2.76885 -2.60842 0
M  V30 316 H 31.0351 3.77759 -3.25729 0
M  V30 317 H 30.1891 5.74244 -1.95777 0
M  V30 318 H 28.9281 4.7259 -1.20457 0
M  V30 319 H 27.9331 4.26966 -3.46382 0
M  V30 320 H 29.1581 5.32052 -4.22016 0
M  V30 321 H 27.1041 6.19625 -2.15407 0
M  V30 322 H 27.0211 6.50143 -3.85812 0
M  V30 323 H 28.2891 7.22857 -2.91716 0
M  V30 324 N 32.5182 1.22032 0.997298 0
M  V30 325 C 33.4812 0.987909 2.06816 0
M  V30 326 C 34.4812 -0.0440084 1.6074 0
M  V30 327 O 35.6712 0.194053 1.73116 0
M  V30 328 C 32.8032 0.49132 3.37341 0
M  V30 329 H 33.9962 1.93803 2.28868 0
M  V30 330 H 31.5492 1.03838 1.16822 0
M  V30 331 H 32.2842 -0.463364 3.20973 0
M  V30 332 H 32.0692 1.23575 3.72118 0
M  V30 333 H 33.5592 0.348824 4.16141 0
M  V30 334 N 33.9963 -1.19345 1.0293 0
M  V30 335 C 34.9433 -2.2258 0.610464 0
M  V30 336 C 35.9133 -1.6179 -0.375946 0
M  V30 337 O 37.0983 -1.88844 -0.272511 0
M  V30 338 C 34.2383 -3.45085 -0.0321473 0
M  V30 339 C 33.3513 -4.20258 1.00035 0
M  V30 340 C 32.4863 -5.3019 0.32746 0
M  V30 341 C 31.5253 -5.97121 1.34584 0
M  V30 342 N 30.6623 -6.98615 0.698726 0
M  V30 343 H 35.5023 -2.57764 1.49538 0
M  V30 344 H 33.0393 -1.26644 0.748311 0
M  V30 345 H 34.9973 -4.15061 -0.421966 0
M  V30 346 H 33.6273 -3.10555 -0.88064 0
M  V30 347 H 32.6793 -3.49223 1.50823 0
M  V30 348 H 33.9913 -4.66175 1.77433 0
M  V30 349 H 33.1453 -6.06587 -0.11718 0
M  V30 350 H 31.8843 -4.85345 -0.478713 0
M  V30 351 H 30.8893 -5.19474 1.80074 0
M  V30 352 H 32.1143 -6.4405 2.15352 0
M  V30 353 H 30.0603 -6.55942 -0.0873471 0
M  V30 354 H 29.9773 -7.42724 1.41058 0
M  V30 355 H 31.2453 -7.79004 0.278102 0
M  V30 356 N 35.4744 -0.807222 -1.35358 0
M  V30 357 C 36.3844 -0.219594 -2.3357 0
M  V30 358 C 37.4004 0.637734 -1.61892 0
M  V30 359 O 38.5764 0.549336 -1.93763 0
M  V30 360 C 35.6414 0.62158 -3.41083 0
M  V30 361 C 34.7024 -0.256315 -4.28534 0
M  V30 362 C 33.9354 0.544807 -5.30912 0
M  V30 363 O 34.1584 1.77944 -5.41934 0
M  V30 364 O 33.0924 -0.0646478 -6.01865 0
M  V30 365 H 36.9184 -1.03208 -2.85625 0
M  V30 366 H 34.5034 -0.569025 -1.38139 0
M  V30 367 H 36.3854 1.10067 -4.06772 0
M  V30 368 H 35.0604 1.41165 -2.91297 0
M  V30 369 H 33.9674 -0.782559 -3.65823 0
M  V30 370 H 35.3004 -1.01034 -4.81719 0
M  V30 371 N 36.9525 1.47285 -0.560781 0
M  V30 372 C 38.2295 1.9558 0.0277798 0
M  V30 373 C 38.6095 1.5034 1.48192 0
M  V30 374 O 37.9575 0.743882 2.16052 0
M  V30 375 C 38.1675 3.48789 -0.121418 0
M  V30 376 C 39.5155 4.24594 0.0220912 0
M  V30 377 O 40.5395 3.56166 -0.0491439 0
M  V30 378 O 39.3985 5.46217 0.175958 0
M  V30 379 H 36.4925 0.824663 0.0621342 0
M  V30 380 H 39.0385 1.5767 -0.627556 0
M  V30 381 H 37.8105 3.74533 -1.13316 0
M  V30 382 H 37.4335 3.93473 0.571366 0
M  V30 383 N 38.4306 0.297415 1.54768 0
M  V30 384 C 39.6776 -0.312913 2.00068 0
M  V30 385 C 40.0056 -1.54171 1.18582 0
M  V30 386 O 39.2606 -1.94108 0.249133 0
M  V30 387 C 39.5596 -0.717561 3.50123 0
M  V30 388 C 39.2256 0.409095 4.4904 0
M  V30 389 C 37.8876 0.718399 4.75807 0
M  V30 390 C 40.2396 1.16717 5.07963 0
M  V30 391 C 37.5676 1.78896 5.5876 0
M  V30 392 C 39.9196 2.22762 5.92081 0
M  V30 393 C 38.5836 2.54303 6.1716 0
M  V30 394 H 37.8536 -0.114503 0.7321 0
M  V30 395 H 40.5006 0.415767 1.86932 0
M  V30 396 H 38.8056 -1.52627 3.60849 0
M  V30 397 H 40.5026 -1.20091 3.82595 0
M  V30 398 H 37.0926 0.157918 4.28309 0
M  V30 399 H 41.2766 0.941466 4.87289 0
M  V30 400 H 36.5326 2.0381 5.7643 0
M  V30 401 H 40.7066 2.81962 6.36765 0
M  V30 402 H 38.3336 3.3739 6.81229 0
M  V30 403 N 39.9087 -1.5758 0.0250728 0
M  V30 404 C 40.8387 -2.13007 -0.956575 0
M  V30 405 C 41.8197 -1.0452 -1.342 0
M  V30 406 O 43.0047 -1.32332 -1.42133 0
M  V30 407 C 40.1347 -2.65386 -2.24026 0
M  V30 408 C 39.0887 -3.78623 -1.99571 0
M  V30 409 C 38.4147 -4.17414 -3.3417 0
M  V30 410 C 39.7147 -5.04867 -1.33814 0
M  V30 411 H 41.4087 -2.9528 -0.494991 0
M  V30 412 H 38.9547 -1.42042 -0.236651 0
M  V30 413 H 40.9077 -3.02794 -2.93076 0
M  V30 414 H 39.6317 -1.80268 -2.72343 0
M  V30 415 H 38.2907 -3.41646 -1.32941 0
M  V30 416 H 37.9387 -3.29284 -3.80238 0
M  V30 417 H 37.6387 -4.93719 -3.18615 0
M  V30 418 H 39.1627 -4.57402 -4.04495 0
M  V30 419 H 40.5767 -5.39888 -1.92857 0
M  V30 420 H 38.9737 -5.86144 -1.28669 0
M  V30 421 H 40.0437 -4.83904 -0.310561 0
M  V30 422 N 41.3868 0.248026 -1.55636 0
M  V30 423 C 42.3338 1.30707 -1.90222 0
M  V30 424 C 43.3038 1.47881 -0.756332 0
M  V30 425 O 44.4888 1.61883 -1.00988 0
M  V30 426 C 41.6288 2.65769 -2.20138 0
M  V30 427 C 40.7418 2.56612 -3.47526 0
M  V30 428 C 39.8768 3.8402 -3.67017 0
M  V30 429 C 38.9158 3.69476 -4.8801 0
M  V30 430 N 38.0528 4.88774 -5.04029 0
M  V30 431 H 42.8928 1.00512 -2.80538 0
M  V30 432 H 40.4298 0.485055 -1.38873 0
M  V30 433 H 42.3878 3.44386 -2.35487 0
M  V30 434 H 41.0178 2.94115 -1.33027 0
M  V30 435 H 40.0698 1.69571 -3.40514 0
M  V30 436 H 41.3818 2.41774 -4.36287 0
M  V30 437 H 40.5358 4.7108 -3.8232 0
M  V30 438 H 39.2748 4.01754 -2.76487 0
M  V30 439 H 38.2798 2.80799 -4.72686 0
M  V30 440 H 39.5048 3.53238 -5.8 0
M  V30 441 H 37.4508 5.0687 -4.16435 0
M  V30 442 H 37.3678 4.76562 -5.86877 0
M  V30 443 H 38.6358 5.77335 -5.23741 0
M  V30 444 N 42.8649 1.48995 0.513639 0
M  V30 445 C 43.8119 1.6473 1.61656 0
M  V30 446 C 44.7819 0.488984 1.58739 0
M  V30 447 O 45.9669 0.714478 1.76918 0
M  V30 448 C 43.1069 1.7082 2.99858 0
M  V30 449 C 42.2199 2.9787 3.12885 0
M  V30 450 C 41.3549 2.95017 4.41744 0
M  V30 451 C 40.3939 4.16702 4.48359 0
M  V30 452 N 39.5309 4.11832 5.68629 0
M  V30 453 H 44.3709 2.58909 1.47547 0
M  V30 454 H 41.9079 1.28382 0.71808 0
M  V30 455 H 43.8659 1.72331 3.79944 0
M  V30 456 H 42.4959 0.801181 3.12699 0
M  V30 457 H 41.5479 3.06029 2.25944 0
M  V30 458 H 42.8599 3.8786 3.13633 0
M  V30 459 H 42.0139 2.95021 5.30139 0
M  V30 460 H 40.7529 2.02784 4.43542 0
M  V30 461 H 39.7579 4.16955 3.58369 0
M  V30 462 H 40.9829 5.10113 4.48287 0
M  V30 463 H 38.9289 3.22428 5.71293 0
M  V30 464 H 38.8459 4.95543 5.7094 0
M  V30 465 H 40.1139 4.1592 6.59266 0
M  V30 466 N 44.343 -0.763751 1.37857 0
M  V30 467 C 45.589 -1.52396 1.3471 0
M  V30 468 C 45.944 -1.92288 -0.0656435 0
M  V30 469 O 45.237 -1.6181 -1.02606 0
M  V30 470 C 45.431 -2.79499 2.22745 0
M  V30 471 C 45.26 -2.52031 3.72438 0
M  V30 472 C 44.03 -2.45759 4.4151 0
M  V30 473 C 46.228 -2.19489 4.65112 0
M  V30 474 N 44.21 -2.1046 5.76697 0
M  V30 475 C 45.581 -1.94396 5.88736 0
M  V30 476 C 47.636 -2.05712 4.53417 0
M  V30 477 C 46.339 -1.56917 7.01975 0
M  V30 478 C 48.365 -1.69634 5.66549 0
M  V30 479 C 47.727 -1.45407 6.89229 0
M  V30 480 H 43.826 -0.55765 0.548225 0
M  V30 481 H 46.41 -0.890302 1.73152 0
M  V30 482 H 44.581 -3.4069 1.86507 0
M  V30 483 H 46.313 -3.45465 2.10798 0
M  V30 484 H 43.068 -2.61885 3.94605 0
M  V30 485 H 43.492 -1.95484 6.48163 0
M  V30 486 H 48.134 -2.23123 3.59133 0
M  V30 487 H 45.852 -1.38246 7.96187 0
M  V30 488 H 49.438 -1.59621 5.59475 0
M  V30 489 H 48.318 -1.17904 7.75286 0
M  V30 490 N 45.8211 -1.22559 -0.990812 0
M  V30 491 C 46.7311 -1.01394 -2.11557 0
M  V30 492 C 47.7471 0.0383962 -1.73958 0
M  V30 493 O 48.9231 -0.154787 -2.00804 0
M  V30 494 C 45.9881 -0.596569 -3.41529 0
M  V30 495 C 45.0491 -1.72276 -3.93217 0
M  V30 496 C 44.2821 -1.32521 -5.16985 0
M  V30 497 O 44.5051 -0.204909 -5.70032 0
M  V30 498 O 43.4391 -2.14247 -5.62478 0
M  V30 499 H 47.2651 -1.95633 -2.32296 0
M  V30 500 H 44.8501 -1.01172 -1.0993 0
M  V30 501 H 46.7321 -0.374263 -4.19735 0
M  V30 502 H 45.4071 0.316939 -3.22145 0
M  V30 503 H 44.3141 -1.99961 -3.16174 0
M  V30 504 H 45.6471 -2.61421 -4.17037 0
M  V30 505 N 47.2992 1.18797 -1.03562 0
M  V30 506 C 48.5242 1.9314 -0.755764 0
M  V30 507 C 48.9492 1.7537 0.68022 0
M  V30 508 O 48.3072 1.06046 1.47051 0
M  V30 509 C 48.3552 3.42747 -1.12058 0
M  V30 510 O 47.4592 4.11683 -0.243124 0
M  V30 511 H 46.8002 0.602724 -0.278604 0
M  V30 512 H 49.3302 1.50678 -1.3841 0
M  V30 513 H 49.3402 3.93437 -1.08035 0
M  V30 514 H 48.0152 3.55002 -2.16672 0
M  V30 515 H 46.5922 3.71323 -0.342539 0
M  V30 516 N 48.7773 0.814389 1.34928 0
M  V30 517 C 50.1883 0.458364 1.80986 0
M  V30 518 C 50.5393 -1.02042 1.67577 0
M  V30 519 O 49.6643 -1.79352 1.21086 0
M  V30 520 C 50.2593 0.825212 3.28597 0
M  V30 521 C 48.8183 0.521677 3.72767 0
M  V30 522 C 47.9653 1.04668 2.56788 0
M  V30 523 H 50.9163 1.00533 1.22795 0
M  V30 524 H 50.9373 0.12571 3.80292 0
M  V30 525 H 50.4493 1.90154 3.38324 0
M  V30 526 H 48.5503 -0.545589 3.68584 0
M  V30 527 H 48.6633 1.05977 4.67232 0
M  V30 528 H 47.0273 0.468622 2.50352 0
M  V30 529 H 47.8103 2.12927 2.6929 0
M  V30 530 N 50.2554 -1.46986 0.568584 0
M  V30 531 C 51.2184 -2.28624 -0.162366 0
M  V30 532 C 52.2184 -1.37596 -0.832103 0
M  V30 533 O 53.4084 -1.60115 -0.68622 0
M  V30 534 C 50.5404 -3.17596 -1.23878 0
M  V30 535 H 51.7334 -2.94722 0.554899 0
M  V30 536 H 49.2864 -1.52863 0.325976 0
M  V30 537 H 50.0214 -2.56214 -1.98808 0
M  V30 538 H 49.8064 -3.846 -0.763219 0
M  V30 539 H 51.2964 -3.79078 -1.75185 0
M  V30 540 N 51.7335 -0.305618 -1.54608 0
M  V30 541 C 52.6655 0.602161 -2.21149 0
M  V30 542 C 53.6785 1.09394 -1.20569 0
M  V30 543 O 54.8675 1.0106 -1.47136 0
M  V30 544 C 51.9675 1.83692 -2.84799 0
M  V30 545 C 51.1405 1.48686 -4.11353 0
M  V30 546 C 50.1995 2.57725 -4.58764 0
M  V30 547 O 49.2255 2.22623 -5.23858 0
M  V30 548 N 50.4275 3.88346 -4.31471 0
M  V30 549 H 53.1925 0.0324966 -2.99682 0
M  V30 550 H 50.7535 -0.128021 -1.61393 0
M  V30 551 H 52.7455 2.55994 -3.13448 0
M  V30 552 H 51.3155 2.31486 -2.10078 0
M  V30 553 H 50.5355 0.596269 -3.89664 0
M  V30 554 H 51.8235 1.22842 -4.93748 0
M  V30 555 H 51.2215 4.19671 -3.79331 0
M  V30 556 H 49.7785 4.56932 -4.64818 0
M  V30 557 N 53.2116 1.57565 -0.0334293 0
M  V30 558 C 54.1596 2.1164 0.96496 0
M  V30 559 C 55.1536 1.04398 1.33407 0
M  V30 560 O 56.3596 1.22828 1.3158 0
M  V30 561 H 52.7346 0.676222 0.32898 0
M  V30 562 H 54.7056 2.94455 0.483614 0
M  V30 563 C 53.4546 2.66207 2.23672 0
M  V30 564 H 52.7776 3.48378 1.96145 0
M  V30 565 H 54.2176 3.07685 2.9173 0
M  V30 566 C 52.6766 1.59151 2.96939 0
M  V30 567 O 53.2066 0.993858 3.89211 0
M  V30 568 N 51.4126 1.31093 2.59351 0
M  V30 569 H 50.9596 1.7988 1.84393 0
M  V30 570 H 50.9176 0.596889 3.08682 0
M  V30 571 N 54.6897 -0.239769 1.55765 0
M  V30 572 C 55.9177 -0.98417 1.81994 0
M  V30 573 C 56.3327 -1.7867 0.610124 0
M  V30 574 O 55.6897 -1.77571 -0.421271 0
M  V30 575 C 55.7407 -1.91635 3.06526 0
M  V30 576 O 55.4617 -1.14629 4.22838 0
M  V30 577 C 56.9627 -2.77616 3.45607 0
M  V30 578 H 54.1827 -0.28928 0.605441 0
M  V30 579 H 56.7267 -0.260499 2.02834 0
M  V30 580 H 54.8817 -2.5942 2.87715 0
M  V30 581 H 55.2957 -1.77745 4.93464 0
M  V30 582 H 56.7697 -3.38759 4.35828 0
M  V30 583 H 57.2467 -3.4909 2.6652 0
M  V30 584 H 57.8527 -2.15271 3.66795 0
M  V30 585 N 56.1678 -1.49265 -0.50573 0
M  V30 586 C 57.1308 -1.65075 -1.59006 0
M  V30 587 C 58.1308 -0.522768 -1.52065 0
M  V30 588 O 59.3208 -0.789117 -1.55302 0
M  V30 589 C 56.4528 -1.64369 -2.98656 0
M  V30 590 H 57.6458 -2.61784 -1.46319 0
M  V30 591 H 55.1988 -1.38226 -0.729616 0
M  V30 592 H 55.9338 -0.692272 -3.16825 0
M  V30 593 H 55.7188 -2.46282 -3.05103 0
M  V30 594 H 57.2088 -1.78674 -3.77446 0
M  V30 595 N 57.6459 0.756429 -1.3826 0
M  V30 596 C 58.5959 1.86069 -1.31766 0
M  V30 597 C 59.5799 1.59621 -0.202483 0
M  V30 598 O 60.7719 1.7149 -0.438211 0
M  V30 599 C 57.9009 3.23742 -1.1422 0
M  V30 600 C 56.9869 3.56091 -2.30348 0
M  V30 601 N 57.3779 3.59517 -3.55783 0
M  V30 602 C 55.6759 3.86341 -2.22838 0
M  V30 603 C 56.3769 3.89052 -4.32451 0
M  V30 604 N 55.3529 4.05736 -3.61772 0
M  V30 605 H 59.1549 1.86992 -2.26741 0
M  V30 606 H 56.6689 0.953643 -1.31451 0
M  V30 607 H 58.6659 4.02761 -1.07652 0
M  V30 608 H 57.3259 3.24073 -0.201763 0
M  V30 609 H 58.3369 3.41347 -3.89491 0
M  V30 610 H 55.0139 3.94404 -1.36937 0
M  V30 611 H 56.4039 3.98349 -5.4108 0
M  V30 612 N 59.124 1.23083 0.984299 0
M  V30 613 C 60.054 1.03292 2.09411 0
M  V30 614 C 61.035 -0.048923 1.7003 0
M  V30 615 O 62.22 0.114967 1.93859 0
M  V30 616 C 59.35 0.619155 3.41736 0
M  V30 617 C 58.304 1.64791 3.95004 0
M  V30 618 C 57.63 1.0897 5.23478 0
M  V30 619 C 58.93 3.03999 4.24714 0
M  V30 620 H 60.624 1.96119 2.26225 0
M  V30 621 H 58.17 0.944344 1.08711 0
M  V30 622 H 60.123 0.467777 4.18796 0
M  V30 623 H 58.847 -0.344786 3.24775 0
M  V30 624 H 57.506 1.78721 3.20085 0
M  V30 625 H 57.154 0.11686 5.02864 0
M  V30 626 H 56.854 1.77704 5.60085 0
M  V30 627 H 58.378 0.950093 6.03163 0
M  V30 628 H 59.792 2.93393 4.92538 0
M  V30 629 H 58.189 3.69936 4.72512 0
M  V30 630 H 59.259 3.53285 3.32142 0
M  V30 631 N 60.6021 -1.18246 1.0419 0
M  V30 632 C 61.8791 -1.84121 0.660208 0
M  V30 633 C 62.2591 -1.92778 -0.860221 0
M  V30 634 O 61.6071 -1.45464 -1.76217 0
M  V30 635 C 61.8171 -3.22355 1.33747 0
M  V30 636 C 63.1651 -3.98376 1.46906 0
M  V30 637 O 64.1891 -3.31799 1.29568 0
M  V30 638 O 63.0481 -5.17665 1.75171 0
M  V30 639 H 60.1421 -0.794036 0.231161 0
M  V30 640 H 62.6881 -1.25628 1.14087 0
M  V30 641 H 61.4601 -3.10964 2.37522 0
M  V30 642 H 61.0831 -3.88506 0.845515 0
M  V30 643 N 62.0802 -0.821533 -1.34494 0
M  V30 644 C 63.0122 -0.199946 -2.28326 0
M  V30 645 C 64.0252 0.609377 -1.50965 0
M  V30 646 O 65.2142 0.439285 -1.7301 0
M  V30 647 C 62.3142 0.738431 -3.30757 0
M  V30 648 C 61.4872 -0.0277632 -4.37391 0
M  V30 649 C 60.5462 0.831332 -5.19591 0
M  V30 650 O 59.5722 0.276822 -5.68526 0
M  V30 651 N 60.7742 2.15132 -5.39165 0
M  V30 652 H 63.5392 -1.00609 -2.82308 0
M  V30 653 H 61.1002 -0.678366 -1.47003 0
M  V30 654 H 63.0922 1.31773 -3.82646 0
M  V30 655 H 61.6622 1.44533 -2.7718 0
M  V30 656 H 60.8822 -0.788359 -3.86236 0
M  V30 657 H 62.1702 -0.555251 -5.05761 0
M  V30 658 H 61.5682 2.62559 -5.01078 0
M  V30 659 H 60.1252 2.6795 -5.94177 0
M  V30 660 N 63.5583 1.46682 -0.576371 0
M  V30 661 C 64.8053 2.02412 -0.0595339 0
M  V30 662 C 65.1333 1.44859 1.29793 0
M  V30 663 O 64.3883 0.601099 1.8624 0
M  V30 664 C 64.6873 3.57345 0.062886 0
M  V30 665 C 64.3533 4.33908 -1.22616 0
M  V30 666 C 63.0153 4.54544 -1.57933 0
M  V30 667 C 65.3673 4.77919 -2.07948 0
M  V30 668 C 62.6953 5.16444 -2.78393 0
M  V30 669 C 65.0473 5.41149 -3.27629 0
M  V30 670 C 63.7113 5.60014 -3.63236 0
M  V30 671 H 62.9813 0.74068 -0.021785 0
M  V30 672 H 65.6283 1.76128 -0.751735 0
M  V30 673 H 63.9333 3.82729 0.838178 0
M  V30 674 H 65.6303 3.98136 0.478439 0
M  V30 675 H 62.2203 4.18138 -0.941202 0
M  V30 676 H 66.4043 4.61738 -1.81967 0
M  V30 677 H 61.6603 5.29242 -3.06126 0
M  V30 678 H 65.8343 5.74211 -3.94023 0
M  V30 679 H 63.4613 6.07748 -4.56669 0
M  V30 680 N 65.0364 0.313813 1.54444 0
M  V30 681 C 65.9464 -0.565714 2.27677 0
M  V30 682 C 66.9624 -1.13754 1.31666 0
M  V30 683 O 68.1384 -1.15959 1.64668 0
M  V30 684 C 65.2034 -1.71528 3.01296 0
M  V30 685 C 64.2644 -1.17624 4.12872 0
M  V30 686 C 63.4974 -2.27102 4.8297 0
M  V30 687 O 63.7204 -3.47256 4.52514 0
M  V30 688 O 62.6544 -1.9307 5.70094 0
M  V30 689 H 66.4804 0.0287296 3.03686 0
M  V30 690 H 64.0654 0.0798312 1.49187 0
M  V30 691 H 65.9474 -2.38476 3.4743 0
M  V30 692 H 64.6224 -2.29608 2.2817 0
M  V30 693 H 63.5294 -0.472124 3.71109 0
M  V30 694 H 64.8624 -0.640695 4.88012 0
M  V30 695 N 66.5145 -1.57545 0.0417849 0
M  V30 696 C 67.9305 -1.56467 -0.314704 0
M  V30 697 C 68.1305 -1.04859 -1.72066 0
M  V30 698 O 67.1865 -0.700983 -2.42575 0
M  V30 699 C 68.4995 -3.00317 -0.15174 0
M  V30 700 C 70.0475 -3.12201 -0.223553 0
M  V30 701 C 70.5225 -4.57913 -0.0892295 0
M  V30 702 N 72.0135 -4.6297 -0.145808 0
M  V30 703 C 72.7485 -5.73362 -0.0658459 0
M  V30 704 N 72.2445 -6.92769 0.0659282 0
M  V30 705 N 74.0375 -5.6197 -0.12075 0
M  V30 706 H 66.1885 -1.89416 0.961014 0
M  V30 707 H 68.4515 -0.871862 0.372237 0
M  V30 708 H 68.1575 -3.42073 0.817254 0
M  V30 709 H 68.0315 -3.65892 -0.916692 0
M  V30 710 H 70.4185 -2.70349 -1.18301 0
M  V30 711 H 70.4995 -2.49323 0.571994 0
M  V30 712 H 70.1435 -5.00448 0.866867 0
M  V30 713 H 70.0735 -5.18786 -0.903802 0
M  V30 714 H 72.5645 -3.7709 -0.247286 0
M  V30 715 H 72.8775 -7.72707 0.119905 0
M  V30 716 H 71.2225 -6.94927 0.100885 0
M  V30 717 H 74.4135 -4.67572 -0.222187 0
M  V30 718 H 74.5865 -6.47977 -0.0549735 0
M  V30 719 N 67.9926 0.231505 -1.5589 0
M  V30 720 C 69.2416 0.955346 -1.7764 0
M  V30 721 C 69.5546 1.85893 -0.608546 0
M  V30 722 O 70.7606 2.62067 -0.70943 0
M  V30 723 C 69.2166 1.74886 -3.14552 0
M  V30 724 C 68.8246 0.891915 -4.39032 0
M  V30 725 C 70.5686 2.46452 -3.45633 0
M  V30 726 C 68.4756 1.68221 -5.66971 0
M  V30 727 H 67.4056 0.360446 -0.662265 0
M  V30 728 H 70.0566 0.209516 -1.823 0
M  V30 729 H 68.4386 2.53723 -3.04041 0
M  V30 730 H 69.6126 0.144793 -4.60572 0
M  V30 731 H 67.9276 0.288863 -4.15397 0
M  V30 732 H 70.5246 3.06061 -4.38441 0
M  V30 733 H 70.8676 3.18841 -2.67668 0
M  V30 734 H 71.4006 1.74613 -3.57428 0
M  V30 735 H 68.1396 1.00178 -6.478 0
M  V30 736 H 67.6596 2.4042 -5.49507 0
M  V30 737 H 69.3386 2.24544 -6.06786 0
M  V30 738 N 69.4707 1.49531 0.497807 0
M  V30 739 C 70.4177 1.66436 1.59899 0
M  V30 740 C 71.3877 0.505793 1.58212 0
M  V30 741 O 72.5727 0.733202 1.7615 0
M  V30 742 C 69.7127 1.7399 2.98029 0
M  V30 743 C 68.8257 3.01172 3.09708 0
M  V30 744 C 67.9607 2.99686 4.38591 0
M  V30 745 C 66.9997 4.21434 4.43914 0
M  V30 746 N 66.1367 4.1784 5.64229 0
M  V30 747 H 70.9767 2.60459 1.44793 0
M  V30 748 H 68.5137 1.29137 0.704423 0
M  V30 749 H 70.4717 1.76352 3.78095 0
M  V30 750 H 69.1017 0.834301 3.11832 0
M  V30 751 H 68.1537 3.08408 2.22685 0
M  V30 752 H 69.4657 3.91165 3.09502 0
M  V30 753 H 68.6197 3.00628 5.2698 0
M  V30 754 H 67.3587 2.07477 4.41367 0
M  V30 755 H 66.3637 4.20733 3.53926 0
M  V30 756 H 67.5887 5.14839 4.42851 0
M  V30 757 H 65.5347 3.28469 5.67841 0
M  V30 758 H 65.4517 5.01571 5.65652 0
M  V30 759 H 66.7197 4.22889 6.54817 0
M  V30 760 N 70.9488 -0.749086 1.3866 0
M  V30 761 C 72.1768 -1.53834 1.38358 0
M  V30 762 C 72.5918 -1.88783 -0.0255219 0
M  V30 763 O 71.9488 -1.53101 -0.993292 0
M  V30 764 C 71.9998 -2.83468 2.2434 0
M  V30 765 O 71.7208 -2.50008 3.5976 0
M  V30 766 C 73.2218 -3.7758 2.32267 0
M  V30 767 H 70.4418 -0.47585 0.473083 0
M  V30 768 H 72.9858 -0.926726 1.82297 0
M  V30 769 H 71.1408 -3.40995 1.83851 0
M  V30 770 H 71.5548 -3.33182 4.05081 0
M  V30 771 H 73.0288 -4.65478 2.96706 0
M  V30 772 H 73.5058 -4.18334 1.33765 0
M  V30 773 H 74.1118 -3.25976 2.73166 0
M  V30 774 N 72.4269 -1.23603 -0.977757 0
M  V30 775 C 73.3569 -1.04401 -2.0886 0
M  V30 776 C 74.3379 0.0399052 -1.70053 0
M  V30 777 O 75.5229 -0.125246 -1.93796 0
M  V30 778 C 72.6529 -0.637269 -3.41403 0
M  V30 779 C 71.6069 -1.66883 -3.94124 0
M  V30 780 C 70.9329 -1.11745 -5.22893 0
M  V30 781 C 72.2329 -3.06247 -4.23096 0
M  V30 782 H 73.9269 -1.97316 -2.25182 0
M  V30 783 H 71.4729 -0.950096 -1.08209 0
M  V30 784 H 73.4259 -0.48998 -4.18542 0
M  V30 785 H 72.1499 0.327557 -3.24953 0
M  V30 786 H 70.8089 -1.80416 -3.19133 0
M  V30 787 H 70.4569 -0.143527 -5.02795 0
M  V30 788 H 70.1569 -1.80672 -5.59134 0
M  V30 789 H 71.6809 -0.982067 -6.02651 0
M  V30 790 H 73.0949 -2.96001 -4.90975 0
M  V30 791 H 71.4919 -3.72436 -4.70544 0
M  V30 792 H 72.5619 -3.55041 -3.30263 0
M  V30 793 N 73.905 1.17692 -1.04816 0
M  V30 794 C 75.153 1.87488 -0.754497 0
M  V30 795 C 75.474 1.81205 0.720407 0
M  V30 796 O 74.744 1.23544 1.52032 0
M  V30 797 H 73.324 0.694101 -0.276102 0
M  V30 798 H 75.986 1.42793 -1.32651 0
M  V30 799 H 75.082 2.93328 -1.06606 0
M  V30 800 N 75.3831 0.828654 1.34056 0
M  V30 801 C 76.6111 0.43262 2.02326 0
M  V30 802 C 77.0261 -0.963147 1.62385 0
M  V30 803 O 76.3831 -1.62425 0.832121 0
M  V30 804 C 76.4341 0.53182 3.57567 0
M  V30 805 O 76.1551 1.87258 3.96063 0
M  V30 806 C 77.6561 0.131422 4.43105 0
M  V30 807 H 74.8761 0.172923 0.648335 0
M  V30 808 H 77.4201 1.1184 1.71208 0
M  V30 809 H 75.5751 -0.105938 3.87255 0
M  V30 810 H 75.9891 1.85087 4.90758 0
M  V30 811 H 77.4631 0.251904 5.51425 0
M  V30 812 H 77.9401 -0.925645 4.29335 0
M  V30 813 H 78.5461 0.743207 4.18756 0
M  V30 814 N 76.8612 -1.46375 0.584142 0
M  V30 815 C 78.1092 -2.01978 0.0701287 0
M  V30 816 C 78.4302 -1.4579 -1.295 0
M  V30 817 O 77.7002 -0.64314 -1.85042 0
M  V30 818 H 76.2802 -0.746648 0.0229345 0
M  V30 819 H 78.9422 -1.79461 0.760245 0
M  V30 820 H 78.0382 -3.121 0.0022064 0
M  V30 821 N 78.3393 -0.321999 -1.54275 0
M  V30 822 C 79.5643 0.285791 -2.05422 0
M  V30 823 C 79.9893 1.45124 -1.19669 0
M  V30 824 O 79.3473 1.80132 -0.205441 0
M  V30 825 C 79.3953 0.69956 -3.53749 0
M  V30 826 O 78.4993 1.8021 -3.70942 0
M  V30 827 H 77.8403 0.0518962 -0.661969 0
M  V30 828 H 80.3703 -0.469954 -1.9913 0
M  V30 829 H 80.3803 0.982649 -3.9599 0
M  V30 830 H 79.0553 -0.152864 -4.15619 0
M  V30 831 H 77.6323 1.51794 -3.40607 0
M  V30 832 N 79.8174 1.5752 -0.0501392 0
M  V30 833 C 81.0644 1.9265 0.623874 0
M  V30 834 C 81.3924 0.928411 1.70912 0
M  V30 835 O 80.6474 -0.0594525 1.9561 0
M  V30 836 C 80.9464 3.34467 1.25963 0
M  V30 837 C 80.6124 4.49883 0.302689 0
M  V30 838 C 79.2744 4.81184 0.0393636 0
M  V30 839 C 81.6264 5.20002 -0.353205 0
M  V30 840 C 78.9544 5.79951 -0.887308 0
M  V30 841 C 81.3064 6.1976 -1.26806 0
M  V30 842 C 79.9704 6.49491 -1.54007 0
M  V30 843 H 79.2404 0.704957 0.228292 0
M  V30 844 H 81.8874 1.91146 -0.116398 0
M  V30 845 H 80.1924 3.32333 2.07514 0
M  V30 846 H 81.8894 3.58928 1.78806 0
M  V30 847 H 78.4794 4.25457 0.518109 0
M  V30 848 H 82.6634 4.96033 -0.162854 0
M  V30 849 H 77.9194 6.01322 -1.10553 0
M  V30 850 H 82.0934 6.73205 -1.78236 0
M  V30 851 H 79.7204 7.25837 -2.25976 0
M  V30 852 N 81.2955 -0.223234 1.56011 0
M  V30 853 C 82.5435 -0.946003 1.78592 0
M  V30 854 C 82.8645 -1.84936 0.618349 0
M  V30 855 O 82.1345 -1.92473 -0.364833 0
M  V30 856 H 80.7145 -0.352298 0.658707 0
M  V30 857 H 83.3765 -0.235494 1.93472 0
M  V30 858 H 82.4725 -1.55381 2.70672 0
M  V30 859 N 82.7736 -1.49793 -0.48987 0
M  V30 860 C 84.1896 -1.36803 -0.822022 0
M  V30 861 C 84.3896 -0.409652 -1.97292 0
M  V30 862 O 83.4456 0.154614 -2.52026 0
M  V30 863 C 84.7586 -2.77768 -1.15175 0
M  V30 864 C 86.3066 -2.86549 -1.25931 0
M  V30 865 C 86.7816 -4.28306 -1.62228 0
M  V30 866 N 88.2726 -4.31169 -1.69256 0
M  V30 867 C 89.0076 -5.37832 -1.98807 0
M  V30 868 N 88.5036 -6.54726 -2.26507 0
M  V30 869 N 90.2966 -5.25258 -2.00152 0
M  V30 870 H 82.4476 -2.10691 0.268881 0
M  V30 871 H 84.7106 -0.946241 0.057728 0
M  V30 872 H 84.4166 -3.49648 -0.379335 0
M  V30 873 H 84.2906 -3.13836 -2.09253 0
M  V30 874 H 86.6776 -2.14899 -2.02243 0
M  V30 875 H 86.7586 -2.54049 -0.298776 0
M  V30 876 H 86.4026 -5.00486 -0.864622 0
M  V30 877 H 86.3326 -4.58279 -2.594 0
M  V30 878 H 88.8236 -3.4687 -1.49965 0
M  V30 879 H 89.1366 -7.31833 -2.48276 0
M  V30 880 H 87.4816 -6.57933 -2.23939 0
M  V30 881 H 90.6726 -4.32938 -1.77996 0
M  V30 882 H 90.8456 -6.08476 -2.22848 0
M  V30 883 N 84.2517 0.741722 -1.39055 0
M  V30 884 C 85.4977 1.50336 -1.36113 0
M  V30 885 C 85.8307 1.94148 0.0450796 0
M  V30 886 O 85.1057 1.66301 1.00868 0
M  V30 887 C 85.3887 2.74773 -2.32749 0
M  V30 888 C 85.2417 2.37023 -3.82283 0
M  V30 889 C 86.5607 3.76846 -2.27322 0
M  V30 890 H 83.6797 0.545351 -0.495743 0
M  V30 891 H 86.3217 0.848624 -1.69995 0
M  V30 892 H 84.4717 3.30639 -2.03986 0
M  V30 893 H 86.1437 1.8684 -4.21768 0
M  V30 894 H 84.3867 1.69334 -3.99385 0
M  V30 895 H 85.0577 3.26104 -4.45376 0
M  V30 896 H 87.5337 3.30548 -2.5274 0
M  V30 897 H 86.4097 4.6159 -2.97028 0
M  V30 898 H 86.6707 4.23286 -1.27599 0
M  V30 899 N 85.7298 1.2412 0.971189 0
M  V30 900 C 86.6628 0.97373 2.06382 0
M  V30 901 C 87.6408 -0.0912662 1.62344 0
M  V30 902 O 88.8248 0.0449365 1.88446 0
M  V30 903 C 85.9518 0.468746 3.35441 0
M  V30 904 C 84.9978 1.52176 3.98428 0
M  V30 905 S 85.8308 3.10203 4.36503 0
M  V30 906 C 86.9868 2.61398 5.68702 0
M  V30 907 H 87.2198 1.89893 2.28753 0
M  V30 908 H 84.7528 1.07466 1.10862 0
M  V30 909 H 86.7108 0.184012 4.10087 0
M  V30 910 H 85.3718 -0.435688 3.11064 0
M  V30 911 H 84.5648 1.11876 4.91426 0
M  V30 912 H 84.1668 1.75632 3.30196 0
M  V30 913 H 86.4588 2.03992 6.4606 0
M  V30 914 H 87.4018 3.52972 6.13854 0
M  V30 915 H 87.8098 2.01941 5.27143 0
M  V30 916 N 87.2079 -1.17134 1.05439 0
M  V30 917 C 88.1379 -2.2342 0.678649 0
M  V30 918 C 89.1189 -1.66971 -0.32476 0
M  V30 919 O 90.3039 -1.93149 -0.201802 0
M  V30 920 C 87.4339 -3.47256 0.0552099 0
M  V30 921 C 86.3879 -4.16543 0.98365 0
M  V30 922 C 85.7139 -5.34231 0.223961 0
M  V30 923 C 87.0139 -4.68495 2.3089 0
M  V30 924 H 88.7079 -2.55105 1.56722 0
M  V30 925 H 86.2539 -1.2262 0.754998 0
M  V30 926 H 88.2069 -4.20828 -0.21946 0
M  V30 927 H 86.9309 -3.14846 -0.868319 0
M  V30 928 H 85.5899 -3.44887 1.24293 0
M  V30 929 H 85.2379 -4.98071 -0.702412 0
M  V30 930 H 84.9379 -5.81527 0.842627 0
M  V30 931 H 86.4619 -6.10585 -0.0433671 0
M  V30 932 H 87.8759 -5.33691 2.09396 0
M  V30 933 H 86.2729 -5.26379 2.88176 0
M  V30 934 H 87.3429 -3.85169 2.94572 0
M  V30 935 N 88.686 -0.835752 -1.33615 0
M  V30 936 C 89.932 -0.430596 -1.98176 0
M  V30 937 C 90.265 1.00684 -1.66061 0
M  V30 938 O 89.54 1.70339 -0.938877 0
M  V30 939 C 89.823 -0.648065 -3.5422 0
M  V30 940 C 89.676 -2.13255 -3.96033 0
M  V30 941 C 90.995 -0.0922113 -4.40003 0
M  V30 942 H 88.114 -0.157924 -0.719881 0
M  V30 943 H 90.756 -1.05069 -1.58305 0
M  V30 944 H 88.906 -0.120237 -3.88314 0
M  V30 945 H 90.578 -2.725 -3.72211 0
M  V30 946 H 88.821 -2.61823 -3.45878 0
M  V30 947 H 89.492 -2.23547 -5.04708 0
M  V30 948 H 91.968 -0.543343 -4.12537 0
M  V30 949 H 90.844 -0.274083 -5.48215 0
M  V30 950 H 91.105 1.00378 -4.30554 0
M  V30 951 N 90.1641 1.46063 -0.591896 0
M  V30 952 C 91.1111 2.30399 0.136069 0
M  V30 953 C 92.0811 1.41169 0.875238 0
M  V30 954 O 93.2661 1.70112 0.86409 0
M  V30 955 C 90.4061 3.25804 1.13781 0
M  V30 956 C 89.5191 4.30134 0.401137 0
M  V30 957 C 88.6541 5.12659 1.39121 0
M  V30 958 C 87.6931 6.0873 0.641462 0
M  V30 959 N 86.8301 6.8409 1.58004 0
M  V30 960 H 91.6701 2.92118 -0.589144 0
M  V30 961 H 89.2071 1.43959 -0.302342 0
M  V30 962 H 91.1651 3.79569 1.73156 0
M  V30 963 H 89.7951 2.65872 1.83062 0
M  V30 964 H 88.8471 3.79152 -0.307826 0
M  V30 965 H 90.1591 4.98458 -0.184565 0
M  V30 966 H 89.3131 5.70747 2.05749 0
M  V30 967 H 88.0521 4.44316 2.01084 0
M  V30 968 H 87.0571 5.49786 -0.0385419 0
M  V30 969 H 88.2821 6.79095 0.0270945 0
M  V30 970 H 86.2281 6.18449 2.18761 0
M  V30 971 H 86.1451 7.48709 1.04738 0
M  V30 972 H 87.4131 7.4673 2.23639 0
M  V30 973 N 91.6422 0.330177 1.54103 0
M  V30 974 C 92.5922 -0.548456 2.21305 0
M  V30 975 C 93.5762 -1.07651 1.19583 0
M  V30 976 O 94.7682 -1.01243 1.45186 0
M  V30 977 C 91.8972 -1.70559 2.97934 0
M  V30 978 C 90.9832 -1.19212 4.07 0
M  V30 979 N 91.3742 -0.398831 5.04225 0
M  V30 980 C 89.6722 -1.47024 4.2107 0
M  V30 981 C 90.3732 -0.121761 5.81573 0
M  V30 982 N 89.3492 -0.709722 5.38947 0
M  V30 983 H 93.1512 0.0648483 2.93828 0
M  V30 984 H 90.6652 0.136363 1.61826 0
M  V30 985 H 92.6622 -2.34688 3.44568 0
M  V30 986 H 91.3222 -2.32231 2.26934 0
M  V30 987 H 92.3332 -0.0410869 5.17884 0
M  V30 988 H 89.0102 -2.09232 3.61287 0
M  V30 989 H 90.4002 0.517298 6.69906 0
M  V30 990 N 93.1203 -1.57491 0.0584922 0
M  V30 991 C 94.0673 -2.11958 -0.913376 0
M  V30 992 C 95.0373 -1.02875 -1.30407 0
M  V30 993 O 96.2223 -1.30464 -1.39226 0
M  V30 994 C 93.3623 -2.67497 -2.18035 0
M  V30 995 C 92.4753 -3.90691 -1.84349 0
M  V30 996 C 91.6103 -4.3452 -3.05559 0
M  V30 997 C 90.6493 -5.50395 -2.67827 0
M  V30 998 N 89.7863 -5.89244 -3.81754 0
M  V30 999 H 94.6263 -2.94704 -0.442017 0
M  V30 1000 H 92.1633 -1.45643 -0.206545 0
M  V30 1001 H 94.1213 -2.978 -2.92183 0
M  V30 1002 H 92.7513 -1.87537 -2.62735 0
M  V30 1003 H 91.8033 -3.66934 -1.00319 0
M  V30 1004 H 93.1153 -4.7489 -1.5258 0
M  V30 1005 H 92.2693 -4.66414 -3.87998 0
M  V30 1006 H 91.0083 -3.49147 -3.40511 0
M  V30 1007 H 90.0133 -5.18165 -1.83806 0
M  V30 1008 H 91.2383 -6.3749 -2.34059 0
M  V30 1009 H 89.1843 -5.06823 -4.16493 0
M  V30 1010 H 89.1013 -6.68151 -3.53708 0
M  V30 1011 H 90.3693 -6.25756 -4.64811 0
M  V30 1012 N 94.5984 0.214957 -1.56127 0
M  V30 1013 C 95.5084 1.28727 -1.96129 0
M  V30 1014 C 96.5244 1.50916 -0.866044 0
M  V30 1015 O 97.7004 1.63918 -1.17016 0
M  V30 1016 C 94.7654 2.61569 -2.27558 0
M  V30 1017 C 93.8264 2.47625 -3.50685 0
M  V30 1018 C 93.0594 3.74132 -3.80606 0
M  V30 1019 O 93.2824 4.77438 -3.12104 0
M  V30 1020 O 92.2164 3.70849 -4.74083 0
M  V30 1021 H 96.0424 0.977855 -2.87527 0
M  V30 1022 H 93.6274 0.418358 -1.43423 0
M  V30 1023 H 95.5094 3.40012 -2.48938 0
M  V30 1024 H 94.1844 2.92178 -1.39332 0
M  V30 1025 H 93.0914 1.67361 -3.34576 0
M  V30 1026 H 94.4244 2.21954 -4.39315 0
M  V30 1027 N 96.0765 1.50051 0.48192 0
M  V30 1028 C 97.3045 1.64237 1.25832 0
M  V30 1029 C 97.7195 0.321336 1.86045 0
M  V30 1030 O 97.0765 -0.695478 1.68729 0
M  V30 1031 C 97.1275 2.72548 2.37487 0
M  V30 1032 O 96.8485 3.99529 1.79745 0
M  V30 1033 C 98.3495 2.9761 3.28547 0
M  V30 1034 H 95.5695 0.55237 0.380957 0
M  V30 1035 H 98.1135 1.96207 0.576467 0
M  V30 1036 H 96.2685 2.43303 3.01467 0
M  V30 1037 H 96.6825 4.59342 2.5319 0
M  V30 1038 H 98.1565 3.77084 4.03127 0
M  V30 1039 H 98.6335 2.0826 3.86684 0
M  V30 1040 H 99.2395 3.28345 2.70314 0
M  V30 1041 N 97.5546 -0.734337 1.39446 0
M  V30 1042 C 98.8026 -1.49096 1.36436 0
M  V30 1043 C 99.1236 -1.94961 -0.0388255 0
M  V30 1044 O 98.3936 -1.69033 -0.990191 0
M  V30 1045 H 96.9736 -0.5531 0.502085 0
M  V30 1046 H 99.6356 -0.871725 1.74319 0
M  V30 1047 H 98.7316 -2.37276 2.02747 0
M  V30 1048 N 99.0327 -1.24633 -0.964593 0
M  V30 1049 C 99.9807 -1.03917 -2.08096 0
M  V30 1050 C 100.975 0.0268581 -1.69379 0
M  V30 1051 O 102.181 -0.127952 -1.79545 0
M  V30 1052 H 98.5557 -0.319044 -0.680966 0
M  V30 1053 H 100.527 -1.98581 -2.22729 0
M  V30 1054 C 99.2757 -0.663983 -3.41301 0
M  V30 1055 H 98.5987 -1.47605 -3.71555 0
M  V30 1056 H 100.039 -0.558663 -4.20303 0
M  V30 1057 C 98.4977 0.629169 -3.30973 0
M  V30 1058 O 99.0277 1.67404 -3.65156 0
M  V30 1059 N 97.2337 0.611057 -2.84103 0
M  V30 1060 H 96.7807 -0.239593 -2.56483 0
M  V30 1061 H 96.7387 1.47647 -2.77575 0
M  V30 1062 N 100.511 1.16574 -1.06058 0
M  V30 1063 C 101.461 2.18854 -0.63929 0
M  V30 1064 C 102.445 1.57505 0.328798 0
M  V30 1065 O 103.637 1.76408 0.144623 0
M  V30 1066 C 100.766 3.43291 -0.0247203 0
M  V30 1067 C 99.8518 4.11722 -1.01716 0
M  V30 1068 N 100.243 4.55841 -2.19186 0
M  V30 1069 C 98.5408 4.37872 -0.847569 0
M  V30 1070 C 99.2418 5.08751 -2.82042 0
M  V30 1071 N 98.2178 5.01489 -2.09784 0
M  V30 1072 H 102.02 2.5068 -1.53417 0
M  V30 1073 H 99.5338 1.32999 -0.931935 0
M  V30 1074 H 101.531 4.15856 0.294915 0
M  V30 1075 H 100.191 3.12954 0.865448 0
M  V30 1076 H 101.202 4.49649 -2.56975 0
M  V30 1077 H 97.8788 4.17499 -0.00918848 0
M  V30 1078 H 99.2688 5.52944 -3.81709 0
M  V30 1079 N 101.989 0.842826 1.3317 0
M  V30 1080 C 103.219 0.453397 2.01564 0
M  V30 1081 C 103.627 -0.951147 1.63554 0
M  V30 1082 O 102.97 -1.63021 0.846746 0
M  V30 1083 C 103.032 0.499013 3.5602 0
M  V30 1084 C 102.696 1.86037 4.1742 0
M  V30 1085 C 103.693 2.82416 4.36506 0
M  V30 1086 C 101.378 2.15428 4.53757 0
M  V30 1087 C 103.372 4.06346 4.91082 0
M  V30 1088 C 101.059 3.39615 5.0804 0
M  V30 1089 C 102.057 4.3489 5.26649 0
M  V30 1090 O 101.745 5.5688 5.79776 0
M  V30 1091 H 101.477 0.177871 0.652179 0
M  V30 1092 H 104.031 1.13808 1.70988 0
M  V30 1093 H 102.261 -0.242467 3.85939 0
M  V30 1094 H 103.95 0.126852 4.05702 0
M  V30 1095 H 104.716 2.6101 4.08777 0
M  V30 1096 H 100.595 1.42061 4.38565 0
M  V30 1097 H 104.139 4.80722 5.05522 0
M  V30 1098 H 100.036 3.60876 5.352 0
M  V30 1099 H 100.804 5.58674 5.98185 0
M  V30 1100 N 103.467 -1.45747 0.599634 0
M  V30 1101 C 104.43 -2.28917 -0.113835 0
M  V30 1102 C 105.43 -1.3933 -0.802729 0
M  V30 1103 O 106.62 -1.61534 -0.652103 0
M  V30 1104 C 103.752 -3.20152 -1.17114 0
M  V30 1105 H 104.945 -2.93478 0.617289 0
M  V30 1106 H 102.498 -1.52137 0.358327 0
M  V30 1107 H 103.233 -2.60374 -1.93329 0
M  V30 1108 H 103.018 -3.86133 -0.681468 0
M  V30 1109 H 104.508 -3.82708 -1.67105 0
M  V30 1110 N 104.945 -0.338344 -1.53925 0
M  V30 1111 C 105.878 0.563758 -2.21127 0
M  V30 1112 C 106.856 1.10433 -1.19345 0
M  V30 1113 O 108.04 1.16557 -1.48144 0
M  V30 1114 C 105.167 1.77505 -2.88461 0
M  V30 1115 C 104.213 1.3644 -4.04087 0
M  V30 1116 S 105.046 0.388593 -5.34088 0
M  V30 1117 C 106.202 1.60683 -6.04923 0
M  V30 1118 H 106.435 -0.00704546 -2.97299 0
M  V30 1119 H 103.968 -0.122418 -1.53914 0
M  V30 1120 H 105.926 2.46999 -3.27875 0
M  V30 1121 H 104.587 2.31706 -2.12064 0
M  V30 1122 H 103.78 2.26739 -4.50117 0
M  V30 1123 H 103.382 0.748998 -3.66423 0
M  V30 1124 H 105.674 2.54209 -6.28 0
M  V30 1125 H 106.617 1.18842 -6.98056 0
M  V30 1126 H 107.025 1.80052 -5.35015 0
M  V30 1127 N 106.423 1.57458 -0.0668435 0
M  V30 1128 C 107.37 2.12439 0.902122 0
M  V30 1129 C 108.34 1.03565 1.2986 0
M  V30 1130 O 109.525 1.312 1.38532 0
M  V30 1131 C 106.665 2.6865 2.16614 0
M  V30 1132 C 105.778 3.91663 1.82274 0
M  V30 1133 C 104.913 4.36134 3.0325 0
M  V30 1134 C 103.952 5.51808 2.64904 0
M  V30 1135 N 103.089 5.9126 3.78624 0
M  V30 1136 H 107.929 2.94934 0.426382 0
M  V30 1137 H 105.466 1.4575 0.198819 0
M  V30 1138 H 107.424 2.99346 2.90599 0
M  V30 1139 H 106.054 1.88928 2.61737 0
M  V30 1140 H 105.106 3.6746 0.983719 0
M  V30 1141 H 106.418 4.75693 1.50059 0
M  V30 1142 H 105.572 4.68465 3.85519 0
M  V30 1143 H 104.311 3.50948 3.38655 0
M  V30 1144 H 103.316 5.19133 1.81055 0
M  V30 1145 H 104.541 6.38722 2.30675 0
M  V30 1146 H 102.487 5.09024 4.138 0
M  V30 1147 H 102.404 6.70018 3.5016 0
M  V30 1148 H 103.672 6.28212 4.61486 0
M  V30 1149 N 107.901 -0.206675 1.56239 0
M  V30 1150 C 109.15 -0.926964 1.79138 0
M  V30 1151 C 109.463 -1.84901 0.638043 0
M  V30 1152 O 110.669 -2.60906 0.751033 0
M  V30 1153 C 109.125 -1.6986 3.17294 0
M  V30 1154 C 108.733 -0.821956 4.40395 0
M  V30 1155 C 110.477 -2.40922 3.4951 0
M  V30 1156 C 108.384 -1.59179 5.69575 0
M  V30 1157 H 107.314 -0.349864 0.667915 0
M  V30 1158 H 109.965 -0.180487 1.8261 0
M  V30 1159 H 108.347 -2.48853 3.08039 0
M  V30 1160 H 109.521 -0.0715019 4.60745 0
M  V30 1161 H 107.836 -0.222741 4.15804 0
M  V30 1162 H 110.433 -2.99047 4.43255 0
M  V30 1163 H 110.776 -3.14542 2.72707 0
M  V30 1164 H 111.309 -1.68905 3.60161 0
M  V30 1165 H 108.048 -0.898589 6.49312 0
M  V30 1166 H 107.568 -2.31648 5.53262 0
M  V30 1167 H 109.247 -2.14862 6.10281 0
M  V30 1168 N 109.379 -1.50304 -0.473955 0
M  V30 1169 C 110.309 -1.71886 -1.58042 0
M  V30 1170 C 111.29 -0.567799 -1.60344 0
M  V30 1171 O 112.475 -0.806623 -1.76656 0
M  V30 1172 C 109.605 -1.81036 -2.96384 0
M  V30 1173 C 108.559 -2.962 -3.08949 0
M  V30 1174 C 107.885 -2.9049 -4.48909 0
M  V30 1175 C 109.185 -4.36752 -2.86434 0
M  V30 1176 H 110.879 -2.64527 -1.40234 0
M  V30 1177 H 108.425 -1.27295 -0.673201 0
M  V30 1178 H 110.378 -1.94719 -3.73714 0
M  V30 1179 H 109.102 -0.850147 -3.15341 0
M  V30 1180 H 107.761 -2.82164 -2.3405 0
M  V30 1181 H 107.409 -1.92321 -4.64781 0
M  V30 1182 H 107.109 -3.67802 -4.58253 0
M  V30 1183 H 108.633 -3.06218 -5.28264 0
M  V30 1184 H 110.047 -4.5133 -3.53517 0
M  V30 1185 H 108.444 -5.15493 -3.07225 0
M  V30 1186 H 109.514 -4.49321 -1.82316 0
M  V30 1187 N 110.857 0.726932 -1.39834 0
M  V30 1188 C 112.134 1.47902 -1.28001 0
M  V30 1189 C 112.514 2.1083 0.106789 0
M  V30 1190 O 111.862 1.99242 1.11869 0
M  V30 1191 C 112.072 2.52392 -2.41038 0
M  V30 1192 C 113.42 3.18546 -2.80737 0
M  V30 1193 O 114.444 2.62708 -2.40547 0
M  V30 1194 O 113.303 4.19604 -3.50135 0
M  V30 1195 H 110.397 0.657163 -0.502062 0
M  V30 1196 H 112.943 0.760071 -1.51727 0
M  V30 1197 H 111.715 2.04329 -3.33715 0
M  V30 1198 H 111.338 3.31837 -2.19021 0
M  V30 1199 N 112.336 1.25143 0.95797 0
M  V30 1200 C 113.283 1.05235 2.05412 0
M  V30 1201 C 114.253 -0.0374561 1.66058 0
M  V30 1202 O 115.438 0.119073 1.90428 0
M  V30 1203 C 112.578 0.673589 3.38462 0
M  V30 1204 C 111.691 1.8379 3.90954 0
M  V30 1205 C 110.826 1.40381 5.12315 0
M  V30 1206 C 109.865 2.53746 5.57027 0
M  V30 1207 N 109.002 2.11136 6.69601 0
M  V30 1208 H 113.842 1.99048 2.21774 0
M  V30 1209 H 111.379 0.991277 1.08683 0
M  V30 1210 H 113.337 0.434964 4.14926 0
M  V30 1211 H 111.967 -0.227554 3.21997 0
M  V30 1212 H 111.019 2.18992 3.11041 0
M  V30 1213 H 112.331 2.68937 4.20089 0
M  V30 1214 H 111.485 1.12464 5.96185 0
M  V30 1215 H 110.224 0.523015 4.84887 0
M  V30 1216 H 109.229 2.82412 4.71724 0
M  V30 1217 H 110.454 3.42398 5.86464 0
M  V30 1218 H 108.4 1.25468 6.4389 0
M  V30 1219 H 108.317 2.89832 6.98236 0
M  V30 1220 H 109.585 1.86385 7.56889 0
M  V30 1221 N 113.814 -1.1601 1.06675 0
M  V30 1222 C 114.746 -2.20115 0.638921 0
M  V30 1223 C 115.759 -1.59916 -0.305057 0
M  V30 1224 O 116.948 -1.78245 -0.0954446 0
M  V30 1225 C 114.048 -3.38798 -0.0830083 0
M  V30 1226 C 113.221 -4.2855 0.875426 0
M  V30 1227 C 112.28 -5.25849 0.192042 0
M  V30 1228 O 111.306 -5.63102 0.830921 0
M  V30 1229 N 112.508 -5.70648 -1.06493 0
M  V30 1230 H 115.273 -2.57439 1.53444 0
M  V30 1231 H 112.834 -1.31057 0.950557 0
M  V30 1232 H 114.826 -4.00936 -0.550685 0
M  V30 1233 H 113.396 -2.99947 -0.880386 0
M  V30 1234 H 112.616 -3.63617 1.52238 0
M  V30 1235 H 113.904 -4.85393 1.52548 0
M  V30 1236 H 113.302 -5.42482 -1.60405 0
M  V30 1237 H 111.859 -6.34859 -1.47641 0
M  V30 1238 N 115.292 -0.849877 -1.32721 0
M  V30 1239 C 116.239 -0.289033 -2.28983 0
M  V30 1240 C 117.209 0.601324 -1.54833 0
M  V30 1241 O 118.394 0.537253 -1.8308 0
M  V30 1242 C 115.534 0.520623 -3.4115 0
M  V30 1243 C 114.647 -0.394989 -4.3019 0
M  V30 1244 C 113.782 0.426834 -5.29482 0
M  V30 1245 C 112.821 -0.486476 -6.10164 0
M  V30 1246 N 111.958 0.297879 -7.01468 0
M  V30 1247 H 116.798 -1.11519 -2.76347 0
M  V30 1248 H 114.335 -0.56138 -1.35967 0
M  V30 1249 H 116.293 1.00563 -4.04899 0
M  V30 1250 H 114.923 1.31165 -2.9495 0
M  V30 1251 H 113.975 -0.99836 -3.67065 0
M  V30 1252 H 115.287 -1.09612 -4.86607 0
M  V30 1253 H 114.441 0.975205 -5.98811 0
M  V30 1254 H 113.18 1.16136 -4.73671 0
M  V30 1255 H 112.185 -1.04677 -5.39743 0
M  V30 1256 H 113.41 -1.21953 -6.6806 0
M  V30 1257 H 111.356 1.01558 -6.48091 0
M  V30 1258 H 111.273 -0.344318 -7.55216 0
M  V30 1259 H 112.541 0.828131 -7.75089 0
M  V30 1260 N 116.77 1.45427 -0.607355 0
M  V30 1261 C 118.016 2.0254 -0.102607 0
M  V30 1262 C 118.349 1.47478 1.26348 0
M  V30 1263 O 117.624 0.64939 1.83339 0
M  V30 1264 C 117.907 3.60044 -0.0634347 0
M  V30 1265 C 117.76 4.2544 -1.46017 0
M  V30 1266 C 119.079 4.35646 0.624514 0
M  V30 1267 H 116.198 0.73598 -0.0387607 0
M  V30 1268 H 118.84 1.73284 -0.779282 0
M  V30 1269 H 116.99 3.85101 0.512808 0
M  V30 1270 H 118.662 4.11569 -2.08347 0
M  V30 1271 H 116.905 3.83849 -2.02094 0
M  V30 1272 H 117.576 5.34342 -1.385 0
M  V30 1273 H 120.052 4.15882 0.134723 0
M  V30 1274 H 118.928 5.45376 0.621028 0
M  V30 1275 H 119.189 4.08501 1.69055 0
M  V30 1276 N 118.248 0.346503 1.53744 0
M  V30 1277 C 119.494 -0.249473 2.0126 0
M  V30 1278 C 119.827 -1.49965 1.23386 0
M  V30 1279 O 119.102 -1.91811 0.32229 0
M  V30 1280 C 119.385 -0.560643 3.55709 0
M  V30 1281 C 119.238 0.701836 4.44291 0
M  V30 1282 C 120.557 -1.36905 4.18264 0
M  V30 1283 H 117.676 -0.0891987 0.731582 0
M  V30 1284 H 120.318 0.467624 1.84156 0
M  V30 1285 H 118.468 -1.17156 3.70414 0
M  V30 1286 H 120.14 1.33974 4.41417 0
M  V30 1287 H 118.383 1.32612 4.13033 0
M  V30 1288 H 119.054 0.43933 5.50249 0
M  V30 1289 H 121.53 -0.852448 4.07275 0
M  V30 1290 H 120.406 -1.55553 5.26398 0
M  V30 1291 H 120.667 -2.37203 3.73078 0
M  V30 1292 N 119.726 -1.57421 0.075193 0
M  V30 1293 C 120.673 -2.12915 -0.890843 0
M  V30 1294 C 121.643 -1.04252 -1.29309 0
M  V30 1295 O 122.828 -1.31933 -1.37834 0
M  V30 1296 C 119.968 -2.69795 -2.15186 0
M  V30 1297 C 119.081 -3.92624 -1.80194 0
M  V30 1298 C 118.216 -4.37736 -3.00933 0
M  V30 1299 C 117.255 -5.53205 -2.61974 0
M  V30 1300 N 116.392 -5.9326 -3.75483 0
M  V30 1301 H 121.232 -2.95156 -0.410735 0
M  V30 1302 H 118.769 -1.45854 -0.191086 0
M  V30 1303 H 120.727 -3.00883 -2.89008 0
M  V30 1304 H 119.357 -1.90313 -2.60731 0
M  V30 1305 H 118.409 -3.67977 -0.964218 0
M  V30 1306 H 119.721 -4.76482 -1.47534 0
M  V30 1307 H 118.875 -4.70503 -3.8303 0
M  V30 1308 H 117.614 -3.52739 -3.36789 0
M  V30 1309 H 116.619 -5.20086 -1.783 0
M  V30 1310 H 117.844 -6.39936 -2.27284 0
M  V30 1311 H 115.79 -5.11212 -4.11094 0
M  V30 1312 H 115.707 -6.71865 -3.46602 0
M  V30 1313 H 116.975 -6.30651 -4.58148 0
M  V30 1314 N 121.204 0.198386 -1.56346 0
M  V30 1315 C 122.134 1.24865 -1.9731 0
M  V30 1316 C 123.115 1.47651 -0.844576 0
M  V30 1317 O 124.3 1.59444 -1.10866 0
M  V30 1318 C 121.43 2.59358 -2.30977 0
M  V30 1319 C 120.384 2.5119 -3.46537 0
M  V30 1320 C 119.71 3.89926 -3.65871 0
M  V30 1321 C 121.01 2.03977 -4.80823 0
M  V30 1322 H 122.704 0.908252 -2.85291 0
M  V30 1323 H 120.25 0.435462 -1.37258 0
M  V30 1324 H 122.203 3.33011 -2.58228 0
M  V30 1325 H 120.927 2.95132 -1.39874 0
M  V30 1326 H 119.586 1.79993 -3.19371 0
M  V30 1327 H 119.234 4.23046 -2.72105 0
M  V30 1328 H 118.934 3.85336 -4.4361 0
M  V30 1329 H 120.458 4.65205 -3.95495 0
M  V30 1330 H 121.872 2.67386 -5.07127 0
M  V30 1331 H 120.269 2.10397 -5.62008 0
M  V30 1332 H 121.339 0.992861 -4.74626 0
M  V30 1333 N 122.682 1.50554 0.465978 0
M  V30 1334 C 123.629 1.6979 1.56333 0
M  V30 1335 C 124.599 0.539239 1.57103 0
M  V30 1336 O 125.784 0.770401 1.74555 0
M  V30 1337 C 122.924 1.80273 2.94271 0
M  V30 1338 C 122.037 3.07674 3.0325 0
M  V30 1339 C 121.172 3.08922 4.32135 0
M  V30 1340 C 120.211 4.30755 4.34875 0
M  V30 1341 N 119.348 4.29714 5.55239 0
M  V30 1342 H 124.188 2.63472 1.39235 0
M  V30 1343 H 121.725 1.30602 0.676873 0
M  V30 1344 H 123.683 1.84332 3.74269 0
M  V30 1345 H 122.313 0.900258 3.09992 0
M  V30 1346 H 121.365 3.13062 2.16094 0
M  V30 1347 H 122.677 3.97642 3.01135 0
M  V30 1348 H 121.831 3.11738 5.20485 0
M  V30 1349 H 120.57 2.16792 4.36866 0
M  V30 1350 H 119.575 4.28146 3.44922 0
M  V30 1351 H 120.8 5.24117 4.31831 0
M  V30 1352 H 118.746 3.4044 5.60746 0
M  V30 1353 H 118.663 5.13456 5.54886 0
M  V30 1354 H 119.931 4.36683 6.457 0
M  V30 1355 N 124.16 -0.719506 1.40217 0
M  V30 1356 C 125.092 -1.84428 1.36084 0
M  V30 1357 C 126.105 -1.60597 0.266913 0
M  V30 1358 O 127.294 -1.70544 0.526983 0
M  V30 1359 C 124.394 -3.20757 1.094 0
M  V30 1360 C 123.567 -3.71817 2.30372 0
M  V30 1361 C 122.626 -4.86748 1.99907 0
M  V30 1362 O 121.652 -4.99603 2.72737 0
M  V30 1363 N 122.854 -5.7226 0.974635 0
M  V30 1364 H 125.619 -1.88473 2.33019 0
M  V30 1365 H 123.18 -0.900885 1.3452 0
M  V30 1366 H 125.172 -3.95235 0.870116 0
M  V30 1367 H 123.742 -3.11884 0.211452 0
M  V30 1368 H 122.962 -2.88514 2.68614 0
M  V30 1369 H 124.25 -4.02666 3.11026 0
M  V30 1370 H 123.648 -5.6448 0.371368 0
M  V30 1371 H 122.205 -6.46739 0.810656 0
M  V30 1372 N 125.638 -1.25649 -0.95132 0
M  V30 1373 C 126.887 -1.09988 -1.69073 0
M  V30 1374 C 127.2 0.358355 -1.92289 0
M  V30 1375 O 128.406 0.635466 -2.63958 0
M  V30 1376 C 126.862 -1.92012 -3.044 0
M  V30 1377 C 126.47 -3.42347 -2.88968 0
M  V30 1378 C 128.214 -1.8493 -3.82101 0
M  V30 1379 C 126.121 -4.16655 -4.19705 0
M  V30 1380 H 125.051 -0.407993 -0.63408 0
M  V30 1381 H 127.702 -1.49873 -1.05879 0
M  V30 1382 H 126.084 -1.44952 -3.68517 0
M  V30 1383 H 127.258 -3.97104 -2.33762 0
M  V30 1384 H 125.573 -3.50557 -2.24719 0
M  V30 1385 H 128.17 -2.37739 -4.78941 0
M  V30 1386 H 128.513 -0.817883 -4.08187 0
M  V30 1387 H 129.046 -2.29758 -3.2474 0
M  V30 1388 H 125.785 -5.20224 -3.98807 0
M  V30 1389 H 125.305 -3.66681 -4.74663 0
M  V30 1390 H 126.984 -4.24551 -4.88227 0
M  V30 1391 N 127.117 1.15442 -1.07289 0
M  V30 1392 C 128.027 2.23786 -0.704057 0
M  V30 1393 C 129.043 1.7166 0.284413 0
M  V30 1394 O 130.219 2.00972 0.131205 0
M  V30 1395 C 127.284 3.46535 -0.106792 0
M  V30 1396 C 126.345 4.13654 -1.14842 0
M  V30 1397 C 125.578 5.30544 -0.57956 0
M  V30 1398 O 125.801 5.67187 0.604585 0
M  V30 1399 O 124.735 5.87154 -1.32414 0
M  V30 1400 H 128.561 2.57664 -1.60757 0
M  V30 1401 H 126.146 1.23152 -0.845803 0
M  V30 1402 H 128.028 4.20804 0.224048 0
M  V30 1403 H 126.703 3.14407 0.770049 0
M  V30 1404 H 125.61 3.4131 -1.5316 0
M  V30 1405 H 126.943 4.49861 -1.99714 0
M  V30 1406 N 128.595 0.856903 1.32268 0
M  V30 1407 C 129.545 0.274899 2.26337 0
M  V30 1408 C 130.529 -0.580543 1.50062 0
M  V30 1409 O 131.721 -0.429559 1.71708 0
M  V30 1410 C 128.85 -0.533841 3.39124 0
M  V30 1411 C 127.936 0.334114 4.22782 0
M  V30 1412 N 128.327 1.42143 4.85416 0
M  V30 1413 C 126.625 0.124256 4.45827 0
M  V30 1414 C 127.326 1.95559 5.47843 0
M  V30 1415 N 126.302 1.25444 5.28928 0
M  V30 1416 H 130.104 1.10612 2.72291 0
M  V30 1417 H 127.618 0.703258 1.46383 0
M  V30 1418 H 129.615 -0.96722 4.05525 0
M  V30 1419 H 128.275 -1.36283 2.94715 0
M  V30 1420 H 129.286 1.80436 4.85451 0
M  V30 1421 H 125.963 -0.669837 4.12092 0
M  V30 1422 H 127.353 2.86714 6.07655 0
M  V30 1423 N 130.073 -1.45103 0.615059 0
M  V30 1424 C 131.301 -2.06553 0.11977 0
M  V30 1425 C 131.716 -1.45842 -1.19898 0
M  V30 1426 O 131.073 -0.575325 -1.73194 0
M  V30 1427 C 131.124 -3.61495 -0.018364 0
M  V30 1428 O 130.845 -4.19942 1.24822 0
M  V30 1429 C 132.346 -4.39947 -0.544237 0
M  V30 1430 H 129.566 -0.667096 0.0722739 0
M  V30 1431 H 132.11 -1.8623 0.84491 0
M  V30 1432 H 130.265 -3.81135 -0.693865 0
M  V30 1433 H 130.679 -5.13204 1.0827 0
M  V30 1434 H 132.153 -5.48838 -0.589953 0
M  V30 1435 H 132.63 -4.10255 -1.56805 0
M  V30 1436 H 133.236 -4.25188 0.0974703 0
M  V30 1437 N 131.551 -0.354651 -1.53558 0
M  V30 1438 C 132.481 0.489091 -2.2832 0
M  V30 1439 C 133.462 1.09324 -1.30316 0
M  V30 1440 O 134.647 1.11255 -1.59173 0
M  V30 1441 C 131.777 1.63456 -3.0643 0
M  V30 1442 C 130.731 1.1582 -4.12031 0
M  V30 1443 C 130.057 2.39305 -4.7816 0
M  V30 1444 C 131.357 0.250731 -5.21698 0
M  V30 1445 H 133.051 -0.134614 -2.99097 0
M  V30 1446 H 130.597 -0.0661826 -1.43848 0
M  V30 1447 H 132.55 2.23136 -3.57475 0
M  V30 1448 H 131.274 2.28533 -2.33325 0
M  V30 1449 H 129.933 0.584146 -3.61916 0
M  V30 1450 H 129.581 3.02814 -4.01637 0
M  V30 1451 H 129.281 2.08109 -5.49513 0
M  V30 1452 H 130.805 2.99691 -5.31994 0
M  V30 1453 H 132.219 0.754695 -5.68311 0
M  V30 1454 H 130.616 0.0301468 -6.00092 0
M  V30 1455 H 131.686 -0.710125 -4.79672 0
M  V30 1456 N 133.029 1.57378 -0.0835403 0
M  V30 1457 C 133.977 2.14602 0.89714 0
M  V30 1458 C 134.971 1.08589 1.30018 0
M  V30 1459 O 136.177 1.26952 1.27606 0
M  V30 1460 H 132.552 0.686346 0.3073 0
M  V30 1461 H 134.523 2.95845 0.38969 0
M  V30 1462 C 133.272 2.73188 2.15089 0
M  V30 1463 H 132.595 3.54442 1.84962 0
M  V30 1464 H 134.035 3.1681 2.81793 0
M  V30 1465 C 132.494 1.68517 2.91725 0
M  V30 1466 O 133.024 1.11718 3.85852 0
M  V30 1467 N 131.23 1.39277 2.55049 0
M  V30 1468 H 130.777 1.85655 1.78577 0
M  V30 1469 H 130.735 0.694791 3.06627 0
M  V30 1470 N 134.507 -0.190092 1.56449 0
M  V30 1471 C 135.417 -1.25591 1.98152 0
M  V30 1472 C 136.433 -1.49519 0.889944 0
M  V30 1473 O 137.609 -1.62036 1.19609 0
M  V30 1474 C 134.674 -2.57916 2.3169 0
M  V30 1475 C 133.735 -2.42015 3.5458 0
M  V30 1476 C 132.968 -3.6803 3.8651 0
M  V30 1477 O 133.191 -4.72413 3.1966 0
M  V30 1478 O 132.125 -3.6326 4.79923 0
M  V30 1479 H 135.951 -0.931988 2.89046 0
M  V30 1480 H 133.536 -0.395488 1.4407 0
M  V30 1481 H 135.418 -3.36008 2.54316 0
M  V30 1482 H 134.093 -2.89925 1.43963 0
M  V30 1483 H 133 -1.62017 3.37196 0
M  V30 1484 H 134.333 -2.14937 4.4279 0
M  V30 1485 N 135.985 -1.50799 -0.457987 0
M  V30 1486 C 136.932 -1.70617 -1.5543 0
M  V30 1487 C 137.902 -0.547562 -1.56815 0
M  V30 1488 O 139.087 -0.779647 -1.74144 0
M  V30 1489 C 136.227 -1.81831 -2.93311 0
M  V30 1490 C 135.34 -3.09278 -3.01615 0
M  V30 1491 C 134.475 -3.11209 -4.30491 0
M  V30 1492 C 133.514 -4.33055 -4.32585 0
M  V30 1493 N 132.651 -4.32652 -5.52952 0
M  V30 1494 H 137.491 -2.64207 -1.37836 0
M  V30 1495 H 135.028 -1.30959 -0.669937 0
M  V30 1496 H 136.986 -1.86314 -3.73287 0
M  V30 1497 H 135.616 -0.916685 -3.0951 0
M  V30 1498 H 134.668 -3.14203 -2.1443 0
M  V30 1499 H 135.98 -3.99233 -2.99022 0
M  V30 1500 H 135.134 -3.14494 -5.18824 0
M  V30 1501 H 133.873 -2.19106 -4.35711 0
M  V30 1502 H 132.878 -4.29969 -3.42647 0
M  V30 1503 H 134.103 -5.264 -4.29046 0
M  V30 1504 H 132.049 -3.43409 -5.58933 0
M  V30 1505 H 131.966 -5.16392 -5.52155 0
M  V30 1506 H 133.234 -4.40101 -6.43375 0
M  V30 1507 N 137.463 0.71206 -1.40597 0
M  V30 1508 C 138.879 1.02058 -1.22704 0
M  V30 1509 C 139.079 2.01228 -0.104729 0
M  V30 1510 O 138.135 2.4674 0.53624 0
M  V30 1511 C 139.448 1.56094 -2.57012 0
M  V30 1512 C 140.996 1.6806 -2.64054 0
M  V30 1513 C 141.471 2.25501 -3.9864 0
M  V30 1514 N 142.962 2.32882 -4.004 0
M  V30 1515 C 143.697 2.78317 -5.01325 0
M  V30 1516 N 143.193 3.23478 -6.12645 0
M  V30 1517 N 144.986 2.77733 -4.88693 0
M  V30 1518 H 137.137 0.0547896 -2.12329 0
M  V30 1519 H 139.4 0.0869027 -0.944008 0
M  V30 1520 H 139.106 0.906865 -3.39807 0
M  V30 1521 H 138.98 2.54564 -2.78347 0
M  V30 1522 H 141.367 2.32583 -1.81629 0
M  V30 1523 H 141.448 0.681802 -2.46546 0
M  V30 1524 H 141.092 1.61598 -4.81506 0
M  V30 1525 H 141.022 3.26102 -4.13479 0
M  V30 1526 H 143.513 2.00991 -3.20017 0
M  V30 1527 H 143.826 3.56725 -6.85542 0
M  V30 1528 H 142.171 3.21429 -6.16205 0
M  V30 1529 H 145.362 2.4179 -4.00818 0
M  V30 1530 H 145.535 3.12826 -5.67489 0
M  V30 1531 N 138.941 1.26152 0.944643 0
M  V30 1532 C 140.19 1.10883 1.68487 0
M  V30 1533 C 140.503 -0.348153 1.92477 0
M  V30 1534 O 141.709 -0.621459 2.64292 0
M  V30 1535 C 140.165 1.93624 3.03377 0
M  V30 1536 C 139.773 3.43875 2.87148 0
M  V30 1537 C 141.517 1.86954 3.81115 0
M  V30 1538 C 139.424 4.18875 4.1749 0
M  V30 1539 H 138.354 0.41135 0.631907 0
M  V30 1540 H 141.005 1.50433 1.05082 0
M  V30 1541 H 139.387 1.46904 3.67743 0
M  V30 1542 H 140.561 3.98338 2.31653 0
M  V30 1543 H 138.876 3.51744 2.22856 0
M  V30 1544 H 141.473 2.40275 4.77673 0
M  V30 1545 H 141.816 0.839518 4.07747 0
M  V30 1546 H 142.349 2.31477 3.23517 0
M  V30 1547 H 139.088 5.22332 3.96043 0
M  V30 1548 H 138.608 3.69193 4.72712 0
M  V30 1549 H 140.287 4.27134 4.85968 0
M  V30 1550 N 140.419 -1.14872 1.07899 0
M  V30 1551 C 141.349 -2.2193 0.725887 0
M  V30 1552 C 142.33 -1.67622 -0.28927 0
M  V30 1553 O 143.515 -1.93533 -0.160787 0
M  V30 1554 C 140.645 -3.47061 0.128856 0
M  V30 1555 C 139.599 -4.14363 1.07178 0
M  V30 1556 C 138.925 -5.33636 0.337229 0
M  V30 1557 C 140.225 -4.63492 2.40775 0
M  V30 1558 H 141.919 -2.51724 1.62097 0
M  V30 1559 H 139.465 -1.20991 0.780838 0
M  V30 1560 H 141.418 -4.21199 -0.130147 0
M  V30 1561 H 140.142 -3.16617 -0.80134 0
M  V30 1562 H 138.801 -3.42173 1.3158 0
M  V30 1563 H 138.449 -4.99449 -0.596606 0
M  V30 1564 H 138.149 -5.79609 0.965788 0
M  V30 1565 H 139.673 -6.10539 0.0861567 0
M  V30 1566 H 141.087 -5.2913 2.20669 0
M  V30 1567 H 139.484 -5.20148 2.99276 0
M  V30 1568 H 140.554 -3.78834 3.02676 0
M  V30 1569 N 141.898 -0.863906 -1.31812 0
M  V30 1570 C 142.83 -0.272485 -2.27575 0
M  V30 1571 C 143.843 0.56104 -1.52827 0
M  V30 1572 O 145.032 0.384021 -1.7432 0
M  V30 1573 C 142.132 0.63283 -3.32939 0
M  V30 1574 C 141.305 -0.166902 -4.37081 0
M  V30 1575 C 140.364 0.665608 -5.21973 0
M  V30 1576 O 139.39 0.0958091 -5.69119 0
M  V30 1577 N 140.592 1.9787 -5.45736 0
M  V30 1578 H 143.357 -1.0954 -2.78964 0
M  V30 1579 H 140.918 -0.724791 -1.4477 0
M  V30 1580 H 142.91 1.19532 -3.86645 0
M  V30 1581 H 141.48 1.35642 -2.81638 0
M  V30 1582 H 140.7 -0.910838 -3.83533 0
M  V30 1583 H 141.988 -0.715874 -5.03739 0
M  V30 1584 H 141.386 2.46484 -5.09178 0
M  V30 1585 H 139.943 2.48911 -6.024 0
M  V30 1586 N 143.376 1.44774 -0.622745 0
M  V30 1587 C 144.339 2.29069 0.0774015 0
M  V30 1588 C 145.339 1.4059 0.780461 0
M  V30 1589 O 146.529 1.62551 0.626322 0
M  V30 1590 C 143.661 3.21974 1.12006 0
M  V30 1591 H 144.854 2.92459 -0.663901 0
M  V30 1592 H 142.407 1.51548 -0.382486 0
M  V30 1593 H 143.142 2.63417 1.89162 0
M  V30 1594 H 142.927 3.87168 0.619951 0
M  V30 1595 H 144.417 3.85318 1.60995 0
M  V30 1596 N 144.854 0.36279 1.53368 0
M  V30 1597 C 146.1 -0.228113 2.01513 0
M  V30 1598 C 146.433 -1.48648 1.2497 0
M  V30 1599 O 145.708 -1.91459 0.342616 0
M  V30 1600 C 145.991 -0.522884 3.56284 0
M  V30 1601 C 145.844 0.74892 4.43521 0
M  V30 1602 C 147.163 -1.32461 4.19693 0
M  V30 1603 H 144.282 -0.0814343 0.732487 0
M  V30 1604 H 146.924 0.48713 1.83649 0
M  V30 1605 H 145.074 -1.1322 3.71636 0
M  V30 1606 H 146.746 1.38648 4.39971 0
M  V30 1607 H 144.989 1.36986 4.11603 0
M  V30 1608 H 145.66 0.497667 5.49752 0
M  V30 1609 H 148.136 -0.809203 4.08156 0
M  V30 1610 H 147.012 -1.49961 5.28018 0
M  V30 1611 H 147.273 -2.33232 3.75573 0
M  V30 1612 N 146.332 -1.57332 0.0918853 0
M  V30 1613 C 147.28 -2.15075 -0.885747 0
M  V30 1614 C 148.274 -1.09277 -1.29441 0
M  V30 1615 O 149.48 -1.27627 -1.26931 0
M  V30 1616 H 145.855 -0.687966 -0.303656 0
M  V30 1617 H 147.826 -2.96047 -0.373995 0
M  V30 1618 C 146.575 -2.74325 -2.13638 0
M  V30 1619 H 145.898 -3.55418 -1.8308 0
M  V30 1620 H 147.338 -3.183 -2.80109 0
M  V30 1621 C 145.797 -1.70062 -2.90827 0
M  V30 1622 O 146.327 -1.13763 -3.85254 0
M  V30 1623 N 144.533 -1.40628 -2.54307 0
M  V30 1624 H 144.08 -1.866 -1.7759 0
M  V30 1625 H 144.038 -0.711043 -3.06254 0
M  V30 1626 N 147.81 0.181792 -1.56548 0
M  V30 1627 C 149.057 0.900097 -1.81396 0
M  V30 1628 C 149.385 1.82695 -0.667281 0
M  V30 1629 O 148.64 1.92614 0.346146 0
M  V30 1630 C 148.939 1.73728 -3.12335 0
M  V30 1631 C 148.605 0.960255 -4.40556 0
M  V30 1632 C 147.267 0.745766 -4.75386 0
M  V30 1633 C 149.619 0.414477 -5.19549 0
M  V30 1634 C 146.947 -0.0257694 -5.86694 0
M  V30 1635 C 149.299 -0.343916 -6.31664 0
M  V30 1636 C 147.963 -0.569301 -6.65068 0
M  V30 1637 H 147.233 0.329369 -0.663775 0
M  V30 1638 H 149.88 0.165647 -1.90782 0
M  V30 1639 H 148.185 2.54081 -2.98245 0
M  V30 1640 H 149.882 2.29591 -3.28769 0
M  V30 1641 H 146.472 1.13746 -4.13231 0
M  V30 1642 H 150.656 0.567554 -4.93044 0
M  V30 1643 H 145.912 -0.210233 -6.11038 0
M  V30 1644 H 150.086 -0.774133 -6.92084 0
M  V30 1645 H 147.713 -1.16903 -7.51158 0
M  V30 1646 N 149.288 1.51039 0.449983 0
M  V30 1647 C 150.699 1.557 1.03026 0
M  V30 1648 C 151.05 0.372939 1.92623 0
M  V30 1649 O 150.175 -0.511771 2.10261 0
M  V30 1650 C 150.77 2.82171 1.87523 0
M  V30 1651 C 149.329 2.89444 2.40622 0
M  V30 1652 C 148.476 2.50228 1.19504 0
M  V30 1653 H 151.427 1.56999 0.231745 0
M  V30 1654 H 151.448 2.65219 2.72835 0
M  V30 1655 H 150.96 3.68331 1.22286 0
M  V30 1656 H 149.061 2.07685 3.0935 0
M  V30 1657 H 149.174 3.92816 2.74285 0
M  V30 1658 H 147.538 2.03139 1.53644 0
M  V30 1659 H 148.321 3.38719 0.558972 0
M  V30 1660 N 150.766 -0.704594 1.40972 0
M  V30 1661 C 152.013 -1.46458 1.39844 0
M  V30 1662 C 152.341 -1.94499 0.00447594 0
M  V30 1663 O 151.596 -1.69275 -0.982057 0
M  V30 1664 C 151.895 -2.698 2.34399 0
M  V30 1665 C 151.561 -2.40464 3.81429 0
M  V30 1666 C 150.223 -2.32174 4.21484 0
M  V30 1667 C 152.575 -2.16086 4.74296 0
M  V30 1668 C 149.903 -1.97589 5.52427 0
M  V30 1669 C 152.255 -1.83011 6.05549 0
M  V30 1670 C 150.919 -1.7321 6.44635 0
M  V30 1671 H 150.189 -0.535927 0.511725 0
M  V30 1672 H 152.836 -0.806124 1.73706 0
M  V30 1673 H 151.141 -3.40536 1.93759 0
M  V30 1674 H 152.838 -3.27919 2.30804 0
M  V30 1675 H 149.428 -2.47808 3.49699 0
M  V30 1676 H 153.612 -2.2144 4.4416 0
M  V30 1677 H 148.868 -1.88547 5.81601 0
M  V30 1678 H 153.042 -1.63164 6.77016 0
M  V30 1679 H 150.669 -1.46179 7.46013 0
M  V30 1680 N 152.244 -1.26651 -0.937939 0
M  V30 1681 C 153.174 -1.10993 -2.05433 0
M  V30 1682 C 154.155 -0.0142161 -1.70094 0
M  V30 1683 O 155.34 -0.186837 -1.93299 0
M  V30 1684 C 152.47 -0.745561 -3.39203 0
M  V30 1685 C 151.424 -1.79337 -3.88616 0
M  V30 1686 C 150.75 -1.28324 -5.19073 0
M  V30 1687 C 152.05 -3.19553 -4.13138 0
M  V30 1688 H 153.744 -2.0438 -2.1879 0
M  V30 1689 H 151.29 -0.984041 -1.05131 0
M  V30 1690 H 153.243 -0.622888 -4.16771 0
M  V30 1691 H 151.967 0.22401 -3.25831 0
M  V30 1692 H 150.626 -1.90477 -3.13231 0
M  V30 1693 H 150.274 -0.303414 -5.02084 0
M  V30 1694 H 149.974 -1.98369 -5.53103 0
M  V30 1695 H 151.498 -1.1733 -5.99221 0
M  V30 1696 H 152.912 -3.11471 -4.81309 0
M  V30 1697 H 151.309 -3.87218 -4.58457 0
M  V30 1698 H 152.379 -3.65368 -3.18801 0
M  V30 1699 N 153.722 1.14298 -1.08507 0
M  V30 1700 C 154.968 1.85633 -0.816581 0
M  V30 1701 C 155.301 1.82784 0.656021 0
M  V30 1702 O 154.576 1.25926 1.48233 0
M  V30 1703 C 154.859 3.34223 -1.34041 0
M  V30 1704 C 154.712 3.45639 -2.87843 0
M  V30 1705 C 156.031 4.29356 -0.9665 0
M  V30 1706 H 153.15 0.67402 -0.298104 0
M  V30 1707 H 155.792 1.34214 -1.34487 0
M  V30 1708 H 153.942 3.78144 -0.89104 0
M  V30 1709 H 155.614 3.10498 -3.41158 0
M  V30 1710 H 153.857 2.86817 -3.25451 0
M  V30 1711 H 154.528 4.50089 -3.19569 0
M  V30 1712 H 157.004 3.93457 -1.35391 0
M  V30 1713 H 155.88 5.3178 -1.3602 0
M  V30 1714 H 156.141 4.41919 0.126362 0
M  V30 1715 N 155.201 0.870884 1.31352 0
M  V30 1716 C 156.148 0.325425 2.28494 0
M  V30 1717 C 157.118 -0.576615 1.5577 0
M  V30 1718 O 158.303 -0.508059 1.83911 0
M  V30 1719 C 155.443 -0.466283 3.41935 0
M  V30 1720 C 154.556 0.463378 4.29508 0
M  V30 1721 C 153.691 -0.342544 5.30094 0
M  V30 1722 C 152.73 0.583486 6.09313 0
M  V30 1723 N 151.867 -0.186244 7.01853 0
M  V30 1724 H 156.707 1.15901 2.74538 0
M  V30 1725 H 154.244 0.58294 1.35056 0
M  V30 1726 H 156.202 -0.941085 4.06447 0
M  V30 1727 H 154.832 -1.26456 2.97 0
M  V30 1728 H 153.884 1.05663 3.65431 0
M  V30 1729 H 155.196 1.1734 4.84802 0
M  V30 1730 H 154.35 -0.879816 6.00287 0
M  V30 1731 H 153.089 -1.08585 4.75458 0
M  V30 1732 H 152.094 1.13251 5.3801 0
M  V30 1733 H 153.319 1.32566 6.66035 0
M  V30 1734 H 151.265 -0.912348 6.49625 0
M  V30 1735 H 151.182 0.464422 7.54572 0
M  V30 1736 H 152.45 -0.704716 7.76308 0
M  V30 1737 N 156.679 -1.44442 0.630414 0
M  V30 1738 C 157.609 -2.33418 -0.0618083 0
M  V30 1739 C 158.59 -1.48165 -0.835541 0
M  V30 1740 O 159.775 -1.76886 -0.801564 0
M  V30 1741 C 156.905 -3.31222 -1.04449 0
M  V30 1742 C 155.859 -4.26288 -0.382436 0
M  V30 1743 C 155.185 -5.13954 -1.47497 0
M  V30 1744 C 156.485 -5.1744 0.710865 0
M  V30 1745 H 158.179 -2.91548 0.681184 0
M  V30 1746 H 155.725 -1.40191 0.329026 0
M  V30 1747 H 157.678 -3.92351 -1.53748 0
M  V30 1748 H 156.402 -2.71299 -1.81836 0
M  V30 1749 H 155.061 -3.6649 0.0899054 0
M  V30 1750 H 154.709 -4.50385 -2.2397 0
M  V30 1751 H 154.409 -5.7837 -1.03737 0
M  V30 1752 H 155.933 -5.77955 -1.96979 0
M  V30 1753 H 157.347 -5.72509 0.300996 0
M  V30 1754 H 155.744 -5.90455 1.07156 0
M  V30 1755 H 156.814 -4.58496 1.57829 0
M  V30 1756 N 158.157 -0.370918 -1.53173 0
M  V30 1757 C 159.067 0.480823 -2.2962 0
M  V30 1758 C 160.083 1.08789 -1.35798 0
M  V30 1759 O 161.259 1.09768 -1.68858 0
M  V30 1760 C 158.324 1.60227 -3.07454 0
M  V30 1761 C 157.385 1.0222 -4.16953 0
M  V30 1762 C 156.618 2.0902 -4.91066 0
M  V30 1763 O 156.841 3.30222 -4.65091 0
M  V30 1764 O 155.775 1.71778 -5.76867 0
M  V30 1765 H 159.601 -0.141421 -3.03371 0
M  V30 1766 H 157.186 -0.135146 -1.48787 0
M  V30 1767 H 159.068 2.25417 -3.56041 0
M  V30 1768 H 157.743 2.20982 -2.36535 0
M  V30 1769 H 156.65 0.334064 -3.72605 0
M  V30 1770 H 157.983 0.459131 -4.90054 0
M  V30 1771 N 159.635 1.57281 -0.100228 0
M  V30 1772 C 160.882 1.94537 0.562268 0
M  V30 1773 C 161.21 0.982315 1.67871 0
M  V30 1774 O 160.465 0.00280936 1.957 0
M  V30 1775 C 160.764 3.38305 1.15259 0
M  V30 1776 C 160.43 4.50618 0.159409 0
M  V30 1777 C 159.092 4.81066 -0.113741 0
M  V30 1778 C 161.444 5.18615 -0.518461 0
M  V30 1779 C 158.772 5.76835 -1.07137 0
M  V30 1780 C 161.124 6.15412 -1.46459 0
M  V30 1781 C 159.788 6.44262 -1.74592 0
M  V30 1782 H 159.058 0.711863 0.205748 0
M  V30 1783 H 161.705 1.90679 -0.17715 0
M  V30 1784 H 160.01 3.38766 1.96836 0
M  V30 1785 H 161.707 3.64435 1.67297 0
M  V30 1786 H 158.297 4.2689 0.382491 0
M  V30 1787 H 162.481 4.95264 -0.320581 0
M  V30 1788 H 157.737 5.975 -1.29628 0
M  V30 1789 H 161.911 6.67194 -1.99564 0
M  V30 1790 H 159.538 7.1828 -2.48953 0
M  V30 1791 N 161.113 -0.173488 1.56642 0
M  V30 1792 C 162.338 -0.910149 1.86363 0
M  V30 1793 C 162.763 -1.75132 0.686318 0
M  V30 1794 O 162.121 -1.77595 -0.364643 0
M  V30 1795 C 162.169 -1.76447 3.14482 0
M  V30 1796 O 161.273 -2.86584 2.96553 0
M  V30 1797 H 160.614 -0.255086 0.613047 0
M  V30 1798 H 163.144 -0.172283 2.03873 0
M  V30 1799 H 163.154 -2.16483 3.45831 0
M  V30 1800 H 161.829 -1.14658 3.99783 0
M  V30 1801 H 160.406 -2.50146 2.76553 0
M  V30 1802 N 162.591 -1.51276 -0.441967 0
M  V30 1803 C 163.838 -1.63715 -1.19179 0
M  V30 1804 C 164.166 -0.351175 -1.91303 0
M  V30 1805 O 163.421 0.664524 -1.84072 0
M  V30 1806 C 163.72 -2.78746 -2.23686 0
M  V30 1807 C 163.386 -4.18189 -1.68607 0
M  V30 1808 C 162.048 -4.56125 -1.53308 0
M  V30 1809 C 164.4 -5.05222 -1.28062 0
M  V30 1810 C 161.728 -5.78804 -0.959317 0
M  V30 1811 C 164.08 -6.28476 -0.721162 0
M  V30 1812 C 162.744 -6.65188 -0.55504 0
M  V30 1813 H 162.014 -0.599076 -0.436106 0
M  V30 1814 H 164.661 -1.85296 -0.48351 0
M  V30 1815 H 162.966 -2.51369 -3.00535 0
M  V30 1816 H 164.663 -2.8557 -2.81515 0
M  V30 1817 H 161.253 -3.88277 -1.8149 0
M  V30 1818 H 165.437 -4.76524 -1.38704 0
M  V30 1819 H 160.693 -6.05899 -0.81833 0
M  V30 1820 H 164.867 -6.95259 -0.398458 0
M  V30 1821 H 162.494 -7.60123 -0.108311 0
M  V30 1822 N 164.069 0.697108 -1.41344 0
M  V30 1823 C 165.016 1.81106 -1.43071 0
M  V30 1824 C 165.986 1.63632 -0.285275 0
M  V30 1825 O 167.171 1.84504 -0.486091 0
M  V30 1826 C 164.311 3.18975 -1.31715 0
M  V30 1827 C 163.424 3.47892 -2.56115 0
M  V30 1828 C 162.559 4.75367 -2.37064 0
M  V30 1829 C 161.598 4.97247 -3.56948 0
M  V30 1830 N 160.735 6.15947 -3.36977 0
M  V30 1831 H 165.575 1.78965 -2.38276 0
M  V30 1832 H 163.112 0.873975 -1.18322 0
M  V30 1833 H 165.07 3.98615 -1.23133 0
M  V30 1834 H 163.7 3.20297 -0.401183 0
M  V30 1835 H 162.752 2.62669 -2.75153 0
M  V30 1836 H 164.064 3.59962 -3.45295 0
M  V30 1837 H 163.218 5.63059 -2.25941 0
M  V30 1838 H 161.957 4.65541 -1.45338 0
M  V30 1839 H 160.962 4.08004 -3.68527 0
M  V30 1840 H 162.187 5.08934 -4.49626 0
M  V30 1841 H 160.133 6.07336 -2.47949 0
M  V30 1842 H 160.05 6.28777 -4.19732 0
M  V30 1843 H 161.318 7.06377 -3.29623 0
M  V30 1844 N 165.547 1.27147 0.931209 0
M  V30 1845 C 166.824 1.0401 1.65654 0
M  V30 1846 C 167.204 -0.426297 2.06751 0
M  V30 1847 O 166.552 -1.40879 1.79904 0
M  V30 1848 C 166.762 1.99834 2.86125 0
M  V30 1849 C 168.11 2.29007 3.57549 0
M  V30 1850 O 169.134 1.97779 2.96246 0
M  V30 1851 O 167.993 2.82222 4.67989 0
M  V30 1852 H 165.087 0.396239 0.725895 0
M  V30 1853 H 167.633 1.38397 0.982056 0
M  V30 1854 H 166.405 2.98744 2.52721 0
M  V30 1855 H 166.028 1.65987 3.61295 0
M  V30 1856 N 167.025 -1.13721 1.09112 0
M  V30 1857 C 167.973 -2.21103 0.722219 0
M  V30 1858 C 168.967 -1.67147 -0.275374 0
M  V30 1859 O 170.173 -1.79477 -0.137176 0
M  V30 1860 H 166.548 -0.720445 0.215553 0
M  V30 1861 H 168.519 -2.49483 1.63709 0
M  V30 1862 C 167.268 -3.47352 0.15543 0
M  V30 1863 H 166.591 -3.89206 0.914246 0
M  V30 1864 H 168.031 -4.2395 -0.0647967 0
M  V30 1865 C 166.49 -3.1814 -1.10852 0
M  V30 1866 O 167.02 -3.36604 -2.19227 0
M  V30 1867 N 165.226 -2.72045 -1.02176 0
M  V30 1868 H 164.773 -2.57221 -0.139764 0
M  V30 1869 H 164.731 -2.52875 -1.8682 0
M  V30 1870 N 168.503 -0.877838 -1.30888 0
M  V30 1871 C 169.728 -0.506629 -2.01117 0
M  V30 1872 C 170.153 0.895564 -1.65412 0
M  V30 1873 O 169.511 1.5923 -0.866922 0
M  V30 1874 C 169.559 -0.680223 -3.54126 0
M  V30 1875 O 168.663 0.277033 -4.11468 0
M  V30 1876 H 168.004 -0.200518 -0.633 0
M  V30 1877 H 170.534 -1.18342 -1.66902 0
M  V30 1878 H 170.544 -0.5765 -4.03907 0
M  V30 1879 H 169.219 -1.70261 -3.79452 0
M  V30 1880 H 167.796 0.127606 -3.72682 0
M  V30 1881 N 169.982 1.44106 -0.638065 0
M  V30 1882 C 170.93 2.3248 0.0748149 0
M  V30 1883 C 171.924 1.47746 0.828702 0
M  V30 1884 O 173.13 1.64049 0.740816 0
M  V30 1885 H 169.505 0.750771 0.0429686 0
M  V30 1886 H 171.476 2.90348 -0.688504 0
M  V30 1887 C 170.225 3.31843 1.03805 0
M  V30 1888 H 169.548 3.97059 0.467375 0
M  V30 1889 H 170.988 3.96345 1.50622 0
M  V30 1890 C 169.447 2.61291 2.1267 0
M  V30 1891 O 169.977 2.41702 3.20847 0
M  V30 1892 N 168.183 2.20915 1.88798 0
M  V30 1893 H 167.73 2.37047 1.00829 0
M  V30 1894 H 167.688 1.74038 2.61836 0
M  V30 1895 N 171.46 0.379036 1.52974 0
M  V30 1896 C 172.39 -0.452706 2.29069 0
M  V30 1897 C 173.371 -1.07237 1.32039 0
M  V30 1898 O 174.556 -1.08708 1.60923 0
M  V30 1899 C 171.686 -1.5856 3.08992 0
M  V30 1900 C 170.64 -1.0925 4.13822 0
M  V30 1901 C 169.966 -2.31668 4.81907 0
M  V30 1902 C 171.266 -0.167702 5.22031 0
M  V30 1903 H 172.96 0.182181 2.98845 0
M  V30 1904 H 170.506 0.0890592 1.43724 0
M  V30 1905 H 172.459 -2.1742 3.6098 0
M  V30 1906 H 171.183 -2.24792 2.36931 0
M  V30 1907 H 169.842 -0.526494 3.628 0
M  V30 1908 H 169.49 -2.96386 4.06404 0
M  V30 1909 H 169.19 -1.9934 5.52754 0
M  V30 1910 H 170.714 -2.91189 5.36695 0
M  V30 1911 H 172.128 -0.664186 5.6944 0
M  V30 1912 H 170.525 0.0653265 6.00064 0
M  V30 1913 H 171.595 0.786347 4.78482 0
M  V30 1914 N 172.938 -1.57226 0.108567 0
M  V30 1915 C 174.168 -1.9889 -0.559142 0
M  V30 1916 C 174.576 -0.986889 -1.61422 0
M  V30 1917 O 173.919 0.0298705 -1.83676 0
M  V30 1918 C 173.981 -3.36952 -1.25315 0
M  V30 1919 C 173.645 -4.55679 -0.347248 0
M  V30 1920 C 174.642 -5.18281 0.409996 0
M  V30 1921 C 172.327 -5.0162 -0.261367 0
M  V30 1922 C 174.321 -6.25203 1.24096 0
M  V30 1923 C 172.008 -6.08405 0.573238 0
M  V30 1924 C 173.006 -6.70063 1.32304 0
M  V30 1925 O 172.694 -7.74788 2.14381 0
M  V30 1926 H 172.426 -0.658343 -0.153492 0
M  V30 1927 H 174.98 -2.04532 0.188584 0
M  V30 1928 H 173.21 -3.28032 -2.04773 0
M  V30 1929 H 174.899 -3.62974 -1.81673 0
M  V30 1930 H 175.665 -4.8371 0.353457 0
M  V30 1931 H 171.544 -4.53381 -0.834656 0
M  V30 1932 H 175.088 -6.73259 1.82669 0
M  V30 1933 H 170.985 -6.42406 0.631208 0
M  V30 1934 H 171.753 -7.91837 2.07209 0
M  V30 1935 N 174.416 0.165178 -1.56732 0
M  V30 1936 C 175.349 1.23336 -1.91998 0
M  V30 1937 C 176.327 1.42476 -0.783531 0
M  V30 1938 O 177.511 1.57384 -1.03743 0
M  V30 1939 C 174.638 2.59533 -2.17625 0
M  V30 1940 C 173.684 2.57093 -3.40302 0
M  V30 1941 S 174.517 2.05571 -4.9447 0
M  V30 1942 C 175.673 3.43532 -5.23198 0
M  V30 1943 H 175.906 0.932387 -2.82301 0
M  V30 1944 H 173.439 0.370013 -1.49901 0
M  V30 1945 H 175.397 3.37918 -2.3307 0
M  V30 1946 H 174.058 2.86827 -1.28019 0
M  V30 1947 H 173.251 3.57308 -3.55453 0
M  V30 1948 H 172.853 1.86806 -3.24005 0
M  V30 1949 H 175.145 4.39559 -5.15552 0
M  V30 1950 H 176.088 3.33251 -6.2478 0
M  V30 1951 H 176.496 3.39828 -4.50752 0
M  V30 1952 N 175.894 1.51508 0.433938 0
M  V30 1953 C 177.14 1.64588 1.18484 0
M  V30 1954 C 177.473 0.362666 1.90784 0
M  V30 1955 O 176.748 -0.637892 1.83742 0
M  V30 1956 C 177.031 2.85149 2.19913 0
M  V30 1957 C 176.884 4.23456 1.51674 0
M  V30 1958 C 178.203 3.01227 3.20858 0
M  V30 1959 H 175.322 0.598994 0.429389 0
M  V30 1960 H 177.964 1.84002 0.473647 0
M  V30 1961 H 176.114 2.68729 2.80566 0
M  V30 1962 H 177.786 4.51552 0.943322 0
M  V30 1963 H 176.029 4.25998 0.819035 0
M  V30 1964 H 176.7 5.03812 2.2556 0
M  V30 1965 H 179.176 3.16382 2.70263 0
M  V30 1966 H 178.052 3.87141 3.89118 0
M  V30 1967 H 178.313 2.13447 3.8716 0
M  V30 1968 N 177.372 -0.689602 1.41712 0
M  V30 1969 C 178.305 -1.81403 1.3845 0
M  V30 1970 C 179.283 -1.60653 0.250874 0
M  V30 1971 O 180.467 -1.83323 0.43874 0
M  V30 1972 C 177.594 -3.18176 1.1611 0
M  V30 1973 C 176.64 -3.57705 2.3227 0
M  V30 1974 S 177.473 -3.61827 3.94767 0
M  V30 1975 C 178.629 -5.01318 3.74742 0
M  V30 1976 H 178.862 -1.83893 2.33603 0
M  V30 1977 H 176.395 -0.858878 1.28307 0
M  V30 1978 H 178.353 -3.97132 1.03907 0
M  V30 1979 H 177.014 -3.13288 0.225668 0
M  V30 1980 H 176.207 -4.57082 2.12349 0
M  V30 1981 H 175.809 -2.86073 2.40911 0
M  V30 1982 H 178.101 -5.88986 3.34817 0
M  V30 1983 H 179.044 -5.26283 4.73743 0
M  V30 1984 H 179.452 -4.73138 3.07898 0
M  V30 1985 N 178.85 -1.27639 -0.924453 0
M  V30 1986 C 179.76 -1.12466 -2.05885 0
M  V30 1987 C 180.776 -0.053869 -1.73917 0
M  V30 1988 O 181.952 -0.261012 -1.99702 0
M  V30 1989 C 179.017 -0.776768 -3.37886 0
M  V30 1990 C 178.078 -1.92878 -3.83532 0
M  V30 1991 C 177.311 -1.59739 -5.09234 0
M  V30 1992 O 177.534 -0.506782 -5.68144 0
M  V30 1993 O 176.468 -2.43761 -5.50331 0
M  V30 1994 H 180.294 -2.07671 -2.21599 0
M  V30 1995 H 177.879 -1.06857 -1.04413 0
M  V30 1996 H 179.761 -0.596229 -4.17161 0
M  V30 1997 H 178.436 0.145732 -3.23372 0
M  V30 1998 H 177.343 -2.1644 -3.0513 0
M  V30 1999 H 178.676 -2.8316 -4.02593 0
M  V30 2000 N 180.328 1.1314 -1.09713 0
M  V30 2001 C 181.558 1.88048 -0.855656 0
M  V30 2002 C 181.966 1.79537 0.596919 0
M  V30 2003 O 181.309 1.16196 1.42282 0
M  V30 2004 C 181.371 3.38314 -1.21589 0
M  V30 2005 C 181.035 3.70605 -2.67397 0
M  V30 2006 C 182.032 3.69596 -3.65643 0
M  V30 2007 C 179.717 4.0017 -3.03593 0
M  V30 2008 C 181.711 3.977 -4.9811 0
M  V30 2009 C 179.398 4.27935 -4.36251 0
M  V30 2010 C 180.396 4.26685 -5.33318 0
M  V30 2011 O 180.084 4.53767 -6.63589 0
M  V30 2012 H 179.816 0.60208 -0.307368 0
M  V30 2013 H 182.37 1.44128 -1.46343 0
M  V30 2014 H 180.6 3.82752 -0.551177 0
M  V30 2015 H 182.289 3.94552 -0.953083 0
M  V30 2016 H 183.055 3.46826 -3.39023 0
M  V30 2017 H 178.934 4.00289 -2.2867 0
M  V30 2018 H 182.478 3.9664 -5.73866 0
M  V30 2019 H 178.375 4.50178 -4.62613 0
M  V30 2020 H 179.143 4.71422 -6.69107 0
M  V30 2021 N 181.806 0.884767 1.30421 0
M  V30 2022 C 183.052 0.503851 1.96441 0
M  V30 2023 C 183.385 -0.944518 1.69684 0
M  V30 2024 O 182.66 -1.66737 1.00145 0
M  V30 2025 C 182.943 0.779085 3.51571 0
M  V30 2026 C 182.796 2.27807 3.87846 0
M  V30 2027 C 184.115 0.255452 4.39358 0
M  V30 2028 H 181.234 0.184533 0.713524 0
M  V30 2029 H 183.876 1.10872 1.54297 0
M  V30 2030 H 182.026 0.264274 3.876 0
M  V30 2031 H 183.698 2.86127 3.61841 0
M  V30 2032 H 181.941 2.74479 3.35922 0
M  V30 2033 H 182.612 2.42125 4.96064 0
M  V30 2034 H 185.088 0.696079 4.10236 0
M  V30 2035 H 183.964 0.477361 5.4682 0
M  V30 2036 H 184.225 -0.843293 4.33983 0
M  V30 2037 N 183.284 -1.43765 0.645699 0
M  V30 2038 C 184.695 -1.85193 0.236719 0
M  V30 2039 C 185.046 -1.54045 -1.21509 0
M  V30 2040 O 184.171 -0.985694 -1.92647 0
M  V30 2041 C 184.766 -3.36151 0.422845 0
M  V30 2042 C 183.325 -3.76338 0.0682492 0
M  V30 2043 C 182.472 -2.67538 0.729306 0
M  V30 2044 H 185.423 -1.34025 0.849883 0
M  V30 2045 H 185.444 -3.79032 -0.333904 0
M  V30 2046 H 184.956 -3.5879 1.47958 0
M  V30 2047 H 183.057 -3.59312 -0.986179 0
M  V30 2048 H 183.17 -4.76603 0.488469 0
M  V30 2049 H 181.534 -2.54176 0.163235 0
M  V30 2050 H 182.317 -2.93006 1.78892 0
M  V30 2051 N 184.763 -0.387143 -1.52771 0
M  V30 2052 C 186.011 0.195349 -2.01154 0
M  V30 2053 C 186.332 1.475 -1.27549 0
M  V30 2054 O 185.602 1.91878 -0.394924 0
M  V30 2055 H 184.182 0.075178 -0.743207 0
M  V30 2056 H 186.844 -0.518337 -1.87881 0
M  V30 2057 H 185.94 0.407096 -3.09434 0
M  V30 2058 N 186.241 1.57166 -0.116904 0
M  V30 2059 C 187.489 1.94737 0.540533 0
M  V30 2060 C 187.81 1.00096 1.67349 0
M  V30 2061 O 187.08 0.0568854 1.95817 0
M  V30 2062 H 185.66 0.718981 0.202669 0
M  V30 2063 H 188.322 1.94017 -0.185353 0
M  V30 2064 H 187.418 2.97719 0.936483 0
M  V30 2065 N 187.719 -0.156864 1.56817 0
M  V30 2066 C 188.629 -1.2136 2.00771 0
M  V30 2067 C 189.645 -1.47598 0.921459 0
M  V30 2068 O 190.821 -1.59462 1.2302 0
M  V30 2069 C 187.886 -2.52943 2.37109 0
M  V30 2070 C 186.947 -2.34439 3.59634 0
M  V30 2071 C 186.18 -3.59748 3.94229 0
M  V30 2072 O 186.403 -4.65526 3.29609 0
M  V30 2073 O 185.337 -3.52998 4.8752 0
M  V30 2074 H 189.163 -0.870468 2.90958 0
M  V30 2075 H 186.748 -0.36484 1.44877 0
M  V30 2076 H 188.63 -3.30538 2.61386 0
M  V30 2077 H 187.305 -2.86806 1.5008 0
M  V30 2078 H 186.212 -1.54828 3.40557 0
M  V30 2079 H 187.545 -2.05496 4.4725 0
M  V30 2080 N 189.197 -1.51736 -0.425897 0
M  V30 2081 C 190.13 -1.68574 -1.53812 0
M  V30 2082 C 191.108 -0.53328 -1.53606 0
M  V30 2083 O 192.292 -0.758555 -1.72564 0
M  V30 2084 C 189.419 -1.70977 -2.92377 0
M  V30 2085 C 188.465 -2.92324 -3.10563 0
M  V30 2086 S 189.298 -4.52952 -2.85648 0
M  V30 2087 C 190.454 -4.58117 -4.26474 0
M  V30 2088 H 190.687 -2.62647 -1.39298 0
M  V30 2089 H 188.22 -1.41564 -0.616361 0
M  V30 2090 H 190.178 -1.73047 -3.72243 0
M  V30 2091 H 188.839 -0.78061 -3.04245 0
M  V30 2092 H 188.032 -2.90439 -4.11899 0
M  V30 2093 H 187.634 -2.88055 -2.38538 0
M  V30 2094 H 189.926 -4.34462 -5.19855 0
M  V30 2095 H 190.869 -5.59983 -4.33388 0
M  V30 2096 H 191.277 -3.8732 -4.10662 0
M  V30 2097 N 190.675 0.682077 -1.42076 0
M  V30 2098 C 191.922 1.44215 -1.42156 0
M  V30 2099 C 192.25 1.94468 -0.0354186 0
M  V30 2100 O 191.505 1.70816 0.955002 0
M  V30 2101 C 191.804 2.66036 -2.38662 0
M  V30 2102 C 191.47 2.34366 -3.85206 0
M  V30 2103 C 190.132 2.25439 -4.25124 0
M  V30 2104 C 192.484 2.08513 -4.77673 0
M  V30 2105 C 189.812 1.88775 -5.55501 0
M  V30 2106 C 192.164 1.73354 -6.08384 0
M  V30 2107 C 190.828 1.62933 -6.47309 0
M  V30 2108 H 190.098 0.527718 -0.520187 0
M  V30 2109 H 192.745 0.778387 -1.74967 0
M  V30 2110 H 191.05 3.3741 -1.99152 0
M  V30 2111 H 192.747 3.24205 -2.35991 0
M  V30 2112 H 189.337 2.42213 -3.53597 0
M  V30 2113 H 193.521 2.14346 -4.47626 0
M  V30 2114 H 188.777 1.7927 -5.84527 0
M  V30 2115 H 192.951 1.52373 -6.79526 0
M  V30 2116 H 190.578 1.34292 -7.48244 0
M  V30 2117 N 192.153 1.28127 0.917671 0
M  V30 2118 C 193.378 1.18007 1.70555 0
M  V30 2119 C 193.803 -0.258257 1.86319 0
M  V30 2120 O 193.161 -1.1869 1.37049 0
M  V30 2121 C 193.209 1.87948 3.07746 0
M  V30 2122 O 192.313 1.18427 3.9503 0
M  V30 2123 H 191.654 0.409867 0.522403 0
M  V30 2124 H 194.184 1.69379 1.1477 0
M  V30 2125 H 194.194 1.95701 3.58001 0
M  V30 2126 H 192.869 2.92573 2.95591 0
M  V30 2127 H 191.446 1.18811 3.53466 0
M  V30 2128 N 193.631 -1.12557 1.10312 0
M  V30 2129 C 194.581 -2.16331 0.720076 0
M  V30 2130 C 195.565 -1.58616 -0.270115 0
M  V30 2131 O 196.757 -1.76823 -0.0790507 0
M  V30 2132 C 193.886 -3.42963 0.152113 0
M  V30 2133 C 192.972 -4.07663 1.16927 0
M  V30 2134 N 193.363 -4.47392 2.35953 0
M  V30 2135 C 191.661 -4.34425 1.0095 0
M  V30 2136 C 192.362 -4.97932 3.0073 0
M  V30 2137 N 191.338 -4.93358 2.28252 0
M  V30 2138 H 195.14 -2.44813 1.62616 0
M  V30 2139 H 192.654 -1.29449 0.980654 0
M  V30 2140 H 194.651 -4.16664 -0.14037 0
M  V30 2141 H 193.311 -3.1595 -0.748701 0
M  V30 2142 H 194.322 -4.39802 2.73486 0
M  V30 2143 H 190.999 -4.17177 0.164134 0
M  V30 2144 H 192.389 -5.38397 4.01969 0
M  V30 2145 N 195.109 -0.891671 -1.2995 0
M  V30 2146 C 196.039 -0.379797 -2.30391 0
M  V30 2147 C 197.02 0.540919 -1.6127 0
M  V30 2148 O 198.205 0.453352 -1.88834 0
M  V30 2149 C 195.335 0.400654 -3.44981 0
M  V30 2150 C 194.289 -0.428905 -4.25846 0
M  V30 2151 C 193.615 0.478557 -5.32554 0
M  V30 2152 C 194.915 -1.67458 -4.94727 0
M  V30 2153 H 196.609 -1.21914 -2.73454 0
M  V30 2154 H 194.155 -0.587675 -1.31462 0
M  V30 2155 H 196.108 0.769434 -4.14316 0
M  V30 2156 H 194.832 1.27371 -3.0074 0
M  V30 2157 H 193.491 -0.779911 -3.58208 0
M  V30 2158 H 193.139 1.34951 -4.84559 0
M  V30 2159 H 192.839 -0.0727433 -5.87555 0
M  V30 2160 H 194.363 0.843705 -6.04743 0
M  V30 2161 H 195.777 -1.376 -5.56542 0
M  V30 2162 H 194.174 -2.16659 -5.59624 0
M  V30 2163 H 195.244 -2.41518 -4.20473 0
M  V30 2164 N 196.587 1.43421 -0.653314 0
M  V30 2165 C 198.003 1.56341 -0.320886 0
M  V30 2166 C 198.203 1.63696 1.17499 0
M  V30 2167 O 197.259 1.59208 1.95982 0
M  V30 2168 C 198.572 2.82424 -1.03233 0
M  V30 2169 C 200.12 2.96168 -1.01259 0
M  V30 2170 C 200.595 4.25084 -1.70492 0
M  V30 2171 N 202.086 4.31948 -1.67257 0
M  V30 2172 C 202.821 5.30466 -2.17701 0
M  V30 2173 N 202.317 6.35261 -2.76434 0
M  V30 2174 N 204.11 5.2212 -2.082 0
M  V30 2175 H 196.261 1.3689 -1.62403 0
M  V30 2176 H 198.524 0.657455 -0.682977 0
M  V30 2177 H 198.23 2.83053 -2.08744 0
M  V30 2178 H 198.104 3.72653 -0.583948 0
M  V30 2179 H 200.491 2.9508 0.0341235 0
M  V30 2180 H 200.572 2.07229 -1.49966 0
M  V30 2181 H 200.216 4.26932 -2.7512 0
M  V30 2182 H 200.146 5.1292 -1.19251 0
M  V30 2183 H 202.637 3.56838 -1.24398 0
M  V30 2184 H 202.95 7.06754 -3.12601 0
M  V30 2185 H 201.295 6.35884 -2.80495 0
M  V30 2186 H 204.486 4.39166 -1.62021 0
M  V30 2187 H 204.659 5.98739 -2.47822 0
M  V30 2188 N 198.065 0.39524 1.52563 0
M  V30 2189 C 199.481 0.0454682 1.59535 0
M  V30 2190 C 199.681 -1.44056 1.4089 0
M  V30 2191 O 198.737 -2.20579 1.22888 0
M  V30 2192 C 200.05 0.527963 2.96029 0
M  V30 2193 C 201.598 0.484733 3.09224 0
M  V30 2194 C 202.073 0.943512 4.48176 0
M  V30 2195 N 203.564 0.899765 4.54377 0
M  V30 2196 C 204.299 1.22609 5.60138 0
M  V30 2197 N 203.795 1.62319 6.73516 0
M  V30 2198 N 205.588 1.14696 5.50274 0
M  V30 2199 H 197.739 1.36261 1.62931 0
M  V30 2200 H 200.002 0.558887 0.765735 0
M  V30 2201 H 199.708 1.56607 3.14908 0
M  V30 2202 H 199.582 -0.0698056 3.77135 0
M  V30 2203 H 201.969 -0.544298 2.90037 0
M  V30 2204 H 202.05 1.11838 2.30056 0
M  V30 2205 H 201.694 1.9708 4.68104 0
M  V30 2206 H 201.624 0.286817 5.25818 0
M  V30 2207 H 204.115 0.607632 3.72983 0
M  V30 2208 H 204.428 1.85567 7.5019 0
M  V30 2209 H 202.773 1.66211 6.74833 0
M  V30 2210 H 205.964 0.835701 4.6058 0
M  V30 2211 H 206.137 1.40459 6.32594 0
M  V30 2212 N 199.544 -1.57102 0.125237 0
M  V30 2213 C 200.793 -1.94582 -0.531095 0
M  V30 2214 C 201.106 -1.01126 -1.6743 0
M  V30 2215 O 202.312 -1.28097 -2.39381 0
M  V30 2216 C 200.768 -3.45839 -0.996164 0
M  V30 2217 C 200.376 -4.47842 0.118926 0
M  V30 2218 C 202.12 -3.92227 -1.62352 0
M  V30 2219 C 200.027 -5.90284 -0.363192 0
M  V30 2220 H 198.957 -0.726391 -0.20217 0
M  V30 2221 H 201.608 -1.82339 0.206092 0
M  V30 2222 H 199.99 -3.53338 -1.78796 0
M  V30 2223 H 201.164 -4.52018 0.895358 0
M  V30 2224 H 199.479 -4.11243 0.653324 0
M  V30 2225 H 202.076 -4.96069 -1.99548 0
M  V30 2226 H 202.419 -3.32552 -2.50429 0
M  V30 2227 H 202.952 -3.87554 -0.897019 0
M  V30 2228 H 199.691 -6.53728 0.481679 0
M  V30 2229 H 199.211 -5.89515 -1.10597 0
M  V30 2230 H 200.89 -6.41752 -0.822377 0
M  V30 2231 N 201.022 0.148545 -1.56898 0
M  V30 2232 C 202.27 0.859717 -1.82902 0
M  V30 2233 C 202.591 1.81775 -0.70588 0
M  V30 2234 O 201.861 1.93994 0.272586 0
M  V30 2235 H 200.441 0.320469 -0.674766 0
M  V30 2236 H 203.103 0.142918 -1.94375 0
M  V30 2237 H 202.199 1.4229 -2.77777 0
M  V30 2238 N 202.5 1.5196 0.417844 0
M  V30 2239 C 203.916 1.40569 0.755816 0
M  V30 2240 C 204.116 0.503316 1.95113 0
M  V30 2241 O 203.172 -0.0341925 2.52477 0
M  V30 2242 C 204.485 2.82947 1.01791 0
M  V30 2243 C 206.033 2.92231 1.12116 0
M  V30 2244 C 206.508 4.35559 1.41608 0
M  V30 2245 N 207.999 4.38753 1.48491 0
M  V30 2246 C 208.734 5.46705 1.7292 0
M  V30 2247 N 208.23 6.64788 1.95011 0
M  V30 2248 N 210.023 5.34209 1.74863 0
M  V30 2249 H 202.174 2.09168 -0.369098 0
M  V30 2250 H 204.437 0.942409 -0.102809 0
M  V30 2251 H 204.143 3.5106 0.212081 0
M  V30 2252 H 204.017 3.23462 1.94042 0
M  V30 2253 H 206.404 2.24304 1.9176 0
M  V30 2254 H 206.485 2.55185 0.177225 0
M  V30 2255 H 206.129 5.04042 0.624848 0
M  V30 2256 H 206.059 4.70133 2.37239 0
M  V30 2257 H 208.55 3.5363 1.33244 0
M  V30 2258 H 208.863 7.42845 2.13076 0
M  V30 2259 H 207.208 6.67869 1.92293 0
M  V30 2260 H 210.399 4.40937 1.57137 0
M  V30 2261 H 210.572 6.18415 1.93563 0
M  V30 2262 N 203.978 -0.674533 1.42435 0
M  V30 2263 C 205.225 -1.43459 1.42919 0
M  V30 2264 C 205.553 -1.94446 0.0457312 0
M  V30 2265 O 204.808 -1.7132 -0.94593 0
M  V30 2266 C 205.107 -2.64767 2.40069 0
M  V30 2267 C 204.773 -2.3232 3.86443 0
M  V30 2268 C 203.435 -2.23182 4.26314 0
M  V30 2269 C 205.787 -2.05977 4.78773 0
M  V30 2270 C 203.115 -1.85827 5.56494 0
M  V30 2271 C 205.467 -1.70125 6.09295 0
M  V30 2272 C 204.131 -1.59498 6.48164 0
M  V30 2273 H 203.401 -0.524952 0.522978 0
M  V30 2274 H 206.048 -0.769097 1.75377 0
M  V30 2275 H 204.353 -3.36349 2.00939 0
M  V30 2276 H 206.05 -3.22949 2.37707 0
M  V30 2277 H 202.64 -2.40334 3.54877 0
M  V30 2278 H 206.824 -2.11969 4.48757 0
M  V30 2279 H 202.08 -1.76168 5.8547 0
M  V30 2280 H 206.254 -1.48767 6.80324 0
M  V30 2281 H 203.881 -1.30322 7.48946 0
M  V30 2282 N 205.456 -1.28612 -0.910864 0
M  V30 2283 C 206.681 -1.1891 -1.69927 0
M  V30 2284 C 207.106 0.248372 -1.86453 0
M  V30 2285 O 206.464 1.17961 -1.37676 0
M  V30 2286 C 206.512 -1.89578 -3.06745 0
M  V30 2287 O 205.616 -1.20521 -3.94396 0
M  V30 2288 H 204.957 -0.412632 -0.520222 0
M  V30 2289 H 207.487 -1.69985 -1.1387 0
M  V30 2290 H 207.497 -1.97597 -3.56958 0
M  V30 2291 H 206.172 -2.94136 -2.94035 0
M  V30 2292 H 204.749 -1.20684 -3.52831 0
M  V30 2293 N 206.934 1.1197 -1.10907 0
M  V30 2294 C 207.844 2.21433 -0.774896 0
M  V30 2295 C 208.86 1.72478 0.229657 0
M  V30 2296 O 210.036 2.01288 0.0672008 0
M  V30 2297 C 207.101 3.4602 -0.216986 0
M  V30 2298 C 206.162 4.09791 -1.27944 0
M  V30 2299 C 205.395 5.28431 -0.748055 0
M  V30 2300 O 205.618 5.68823 0.423833 0
M  V30 2301 O 204.552 5.82644 -1.51027 0
M  V30 2302 H 208.378 2.5242 -1.68873 0
M  V30 2303 H 205.963 1.20399 -0.884555 0
M  V30 2304 H 207.845 4.21304 0.090059 0
M  V30 2305 H 206.52 3.16698 0.669633 0
M  V30 2306 H 205.427 3.36265 -1.63941 0
M  V30 2307 H 206.76 4.4328 -2.13925 0
M  V30 2308 N 208.412 0.89855 1.29475 0
M  V30 2309 C 209.823 0.572537 1.77705 0
M  V30 2310 C 210.174 -0.911778 1.73727 0
M  V30 2311 O 209.299 -1.71288 1.32247 0
M  V30 2312 C 209.894 1.03252 3.22683 0
M  V30 2313 C 208.453 0.757687 3.68695 0
M  V30 2314 C 207.6 1.20787 2.49612 0
M  V30 2315 H 210.551 1.08139 1.16153 0
M  V30 2316 H 210.572 0.367307 3.78723 0
M  V30 2317 H 210.084 2.11285 3.25546 0
M  V30 2318 H 208.185 -0.310079 3.71308 0
M  V30 2319 H 208.298 1.35476 4.59547 0
M  V30 2320 H 206.662 0.626888 2.46865 0
M  V30 2321 H 207.445 2.29622 2.55203 0
M  V30 2322 N 209.89 -1.43072 0.660911 0
M  V30 2323 C 210.84 -2.27948 -0.04847 0
M  V30 2324 C 211.824 -1.40325 -0.787246 0
M  V30 2325 O 213.016 -1.63893 -0.668446 0
M  V30 2326 C 210.145 -3.28143 -1.00881 0
M  V30 2327 C 209.231 -4.23252 -0.268108 0
M  V30 2328 N 209.622 -5.00656 0.719528 0
M  V30 2329 C 207.92 -4.43092 -0.508493 0
M  V30 2330 C 208.621 -5.70019 1.15988 0
M  V30 2331 N 207.597 -5.41364 0.492584 0
M  V30 2332 H 211.399 -2.85213 0.709279 0
M  V30 2333 H 208.913 -1.54869 0.488822 0
M  V30 2334 H 210.91 -3.87736 -1.53188 0
M  V30 2335 H 209.57 -2.7244 -1.76654 0
M  V30 2336 H 210.581 -5.06115 1.09855 0
M  V30 2337 H 207.258 -3.98449 -1.24679 0
M  V30 2338 H 208.648 -6.4214 1.97751 0
M  V30 2339 N 211.368 -0.403325 -1.52352 0
M  V30 2340 C 212.331 0.413051 -2.25447 0
M  V30 2341 C 213.331 0.978513 -1.276 0
M  V30 2342 O 214.521 0.858305 -1.51587 0
M  V30 2343 C 211.653 1.58087 -3.02029 0
M  V30 2344 H 212.846 -0.227094 -2.99039 0
M  V30 2345 H 210.399 -0.155722 -1.55522 0
M  V30 2346 H 211.134 2.25804 -2.32772 0
M  V30 2347 H 210.919 1.18195 -3.73861 0
M  V30 2348 H 212.409 2.1585 -3.57489 0
M  V30 2349 N 212.846 1.57033 -0.133567 0
M  V30 2350 C 214.262 1.58035 0.222944 0
M  V30 2351 C 214.462 1.14713 1.6566 0
M  V30 2352 O 213.518 0.841218 2.38075 0
M  V30 2353 C 214.831 3.00691 -0.0236116 0
M  V30 2354 C 216.379 3.12973 0.0411512 0
M  V30 2355 C 216.854 4.57654 -0.177899 0
M  V30 2356 N 218.345 4.63033 -0.124365 0
M  V30 2357 C 219.08 5.72771 -0.268553 0
M  V30 2358 N 218.576 6.91206 -0.46972 0
M  V30 2359 N 220.369 5.61718 -0.2071 0
M  V30 2360 H 212.52 1.8349 -1.06981 0
M  V30 2361 H 214.783 0.848677 -0.422436 0
M  V30 2362 H 214.489 3.36726 -1.0153 0
M  V30 2363 H 214.363 3.70614 0.701808 0
M  V30 2364 H 216.75 2.76787 1.02338 0
M  V30 2365 H 216.831 2.45564 -0.716383 0
M  V30 2366 H 216.475 4.94542 -1.15717 0
M  V30 2367 H 216.405 5.23173 0.599797 0
M  V30 2368 H 218.896 3.7789 0.027011 0
M  V30 2369 H 219.209 7.70693 -0.570212 0
M  V30 2370 H 217.554 6.93156 -0.505876 0
M  V30 2371 H 220.745 4.68072 -0.0507986 0
M  V30 2372 H 220.918 6.47195 -0.322909 0
M  V30 2373 N 214.325 -0.140222 1.56975 0
M  V30 2374 C 215.572 -0.851687 1.83719 0
M  V30 2375 C 215.9 -1.80862 0.715485 0
M  V30 2376 O 215.155 -1.93464 -0.294956 0
M  V30 2377 C 215.454 -1.65386 3.16832 0
M  V30 2378 C 215.12 -0.843112 4.42947 0
M  V30 2379 C 213.782 -0.619464 4.77196 0
M  V30 2380 C 216.134 -0.276582 5.20466 0
M  V30 2381 C 213.462 0.181312 5.8642 0
M  V30 2382 C 215.814 0.51127 6.30531 0
M  V30 2383 C 214.478 0.745432 6.63325 0
M  V30 2384 H 213.748 -0.311654 0.672274 0
M  V30 2385 H 216.395 -0.115006 1.91154 0
M  V30 2386 H 214.7 -2.46084 3.04877 0
M  V30 2387 H 216.397 -2.20793 3.34741 0
M  V30 2388 H 212.987 -1.0275 4.16101 0
M  V30 2389 H 217.171 -0.436632 4.94376 0
M  V30 2390 H 212.427 0.372165 6.10266 0
M  V30 2391 H 216.601 0.957354 6.89788 0
M  V30 2392 H 214.228 1.36778 7.47794 0
M  V30 2393 N 215.803 -1.52179 -0.40978 0
M  V30 2394 C 217.033 -1.69807 -1.17682 0
M  V30 2395 C 217.441 -0.406908 -1.84773 0
M  V30 2396 O 216.784 0.626863 -1.72673 0
M  V30 2397 C 216.846 -2.77712 -2.2829 0
M  V30 2398 C 216.51 -4.19481 -1.81341 0
M  V30 2399 C 217.507 -5.03345 -1.30154 0
M  V30 2400 C 215.192 -4.65713 -1.88194 0
M  V30 2401 C 217.186 -6.31511 -0.864416 0
M  V30 2402 C 214.873 -5.93869 -1.44093 0
M  V30 2403 C 215.871 -6.76597 -0.933023 0
M  V30 2404 O 215.559 -8.02354 -0.49838 0
M  V30 2405 H 215.291 -0.572372 -0.359675 0
M  V30 2406 H 217.845 -1.99511 -0.488311 0
M  V30 2407 H 216.075 -2.43383 -3.00502 0
M  V30 2408 H 217.764 -2.83946 -2.90051 0
M  V30 2409 H 218.53 -4.68819 -1.24232 0
M  V30 2410 H 214.409 -4.01424 -2.26671 0
M  V30 2411 H 217.953 -6.96033 -0.467286 0
M  V30 2412 H 213.85 -6.27903 -1.49694 0
M  V30 2413 H 214.618 -8.16135 -0.621747 0
M  V30 2414 N 217.281 0.66697 -1.42791 0
M  V30 2415 C 218.244 1.76211 -1.46568 0
M  V30 2416 C 219.244 1.56896 -0.352196 0
M  V30 2417 O 220.434 1.63044 -0.613364 0
M  V30 2418 C 217.566 3.14935 -1.30494 0
M  V30 2419 H 218.759 1.74247 -2.44086 0
M  V30 2420 H 216.312 0.877342 -1.29354 0
M  V30 2421 H 217.047 3.2252 -0.339301 0
M  V30 2422 H 216.832 3.30359 -2.11199 0
M  V30 2423 H 218.322 3.94821 -1.36038 0
M  V30 2424 N 218.759 1.29093 0.90403 0
M  V30 2425 C 219.722 1.1386 1.98919 0
M  V30 2426 C 220.722 0.0753457 1.60623 0
M  V30 2427 O 221.912 0.321931 1.71199 0
M  V30 2428 C 219.044 0.740198 3.32767 0
M  V30 2429 H 220.237 2.10246 2.13861 0
M  V30 2430 H 217.79 1.12218 1.08797 0
M  V30 2431 H 218.525 -0.223997 3.23525 0
M  V30 2432 H 218.31 1.50838 3.61926 0
M  V30 2433 H 219.8 0.656546 4.12407 0
M  V30 2434 N 220.237 -1.11381 1.11499 0
M  V30 2435 C 221.169 -2.17207 0.731704 0
M  V30 2436 C 222.182 -1.61066 -0.236957 0
M  V30 2437 O 223.371 -1.78489 -0.0197591 0
M  V30 2438 C 220.471 -3.38846 0.0607624 0
M  V30 2439 C 219.644 -4.24451 1.0564 0
M  V30 2440 C 218.703 -5.24562 0.4149 0
M  V30 2441 O 217.729 -5.59071 1.069 0
M  V30 2442 N 218.931 -5.74651 -0.821943 0
M  V30 2443 H 221.696 -2.50699 1.64225 0
M  V30 2444 H 219.257 -1.26908 1.00529 0
M  V30 2445 H 221.249 -4.02911 -0.380139 0
M  V30 2446 H 219.819 -3.03411 -0.752376 0
M  V30 2447 H 219.039 -3.56833 1.67524 0
M  V30 2448 H 220.327 -4.78486 1.72998 0
M  V30 2449 H 219.725 -5.48797 -1.37252 0
M  V30 2450 H 218.282 -6.40549 -1.20582 0
M  V30 2451 N 221.715 -0.905404 -1.28997 0
M  V30 2452 C 222.964 -0.530191 -1.94607 0
M  V30 2453 C 223.277 0.929185 -1.72121 0
M  V30 2454 O 224.483 1.41218 -2.31883 0
M  V30 2455 C 222.939 -0.897333 -3.48534 0
M  V30 2456 C 222.547 -2.37587 -3.79811 0
M  V30 2457 C 224.291 -0.592304 -4.20347 0
M  V30 2458 C 222.198 -2.68357 -5.27009 0
M  V30 2459 H 221.128 -0.194558 -0.728466 0
M  V30 2460 H 223.779 -1.10318 -1.46636 0
M  V30 2461 H 222.161 -0.253214 -3.9519 0
M  V30 2462 H 223.335 -3.06602 -3.43994 0
M  V30 2463 H 221.65 -2.6505 -3.2115 0
M  V30 2464 H 224.247 -0.798975 -5.28697 0
M  V30 2465 H 224.59 0.469474 -4.13644 0
M  V30 2466 H 225.123 -1.19452 -3.79442 0
M  V30 2467 H 221.862 -3.73355 -5.38782 0
M  V30 2468 H 221.382 -2.03971 -5.64053 0
M  V30 2469 H 223.061 -2.54922 -5.94663 0
M  V30 2470 N 223.193 1.4272 -0.668489 0
M  V30 2471 C 224.439 2.01923 -0.188419 0
M  V30 2472 C 224.772 1.52704 1.19979 0
M  V30 2473 O 224.047 0.726566 1.8042 0
M  V30 2474 C 224.33 3.59451 -0.216085 0
M  V30 2475 C 224.183 4.18864 -1.6393 0
M  V30 2476 C 225.502 4.37903 0.439179 0
M  V30 2477 H 222.621 0.733674 -0.0699412 0
M  V30 2478 H 225.263 1.69822 -0.852076 0
M  V30 2479 H 223.413 3.86929 0.349012 0
M  V30 2480 H 225.085 4.02362 -2.25616 0
M  V30 2481 H 223.328 3.74933 -2.18193 0
M  V30 2482 H 223.999 5.27987 -1.61039 0
M  V30 2483 H 226.475 4.16079 -0.0417878 0
M  V30 2484 H 225.351 5.47519 0.389157 0
M  V30 2485 H 225.612 4.15303 1.51577 0
M  V30 2486 N 224.671 0.411399 1.52136 0
M  V30 2487 C 225.601 -0.404015 2.29978 0
M  V30 2488 C 226.582 -1.04412 1.34284 0
M  V30 2489 O 227.767 -1.0527 1.63192 0
M  V30 2490 C 224.897 -1.5197 3.12286 0
M  V30 2491 C 223.851 -1.00448 4.16046 0
M  V30 2492 C 223.177 -2.21393 4.86712 0
M  V30 2493 C 224.477 -0.0569336 5.22269 0
M  V30 2494 H 226.171 0.245529 2.98392 0
M  V30 2495 H 223.717 0.119525 1.43503 0
M  V30 2496 H 225.67 -2.09715 3.6551 0
M  V30 2497 H 224.394 -2.19716 2.41646 0
M  V30 2498 H 223.053 -0.449421 3.63835 0
M  V30 2499 H 222.701 -2.87699 4.12599 0
M  V30 2500 H 222.401 -1.87571 5.56858 0
M  V30 2501 H 223.925 -2.7974 5.4275 0
M  V30 2502 H 225.339 -0.54325 5.7072 0
M  V30 2503 H 223.736 0.192594 5.99791 0
M  V30 2504 H 224.806 0.887663 4.76706 0
M  V30 2505 N 226.149 -1.5696 0.141893 0
M  V30 2506 C 227.377 -2.00322 -0.517579 0
M  V30 2507 C 227.792 -1.02193 -1.58752 0
M  V30 2508 O 227.149 -0.0181619 -1.82491 0
M  V30 2509 C 227.2 -3.43618 -1.12289 0
M  V30 2510 O 226.921 -4.37995 -0.0956929 0
M  V30 2511 C 228.422 -4.02231 -1.86347 0
M  V30 2512 H 225.642 -0.657243 -0.135177 0
M  V30 2513 H 228.186 -2.03146 0.234973 0
M  V30 2514 H 226.341 -3.41662 -1.82609 0
M  V30 2515 H 226.755 -5.21729 -0.538469 0
M  V30 2516 H 228.229 -5.04509 -2.23997 0
M  V30 2517 H 228.706 -3.42655 -2.74744 0
M  V30 2518 H 229.312 -4.07802 -1.20737 0
M  V30 2519 N 227.627 0.131896 -1.57047 0
M  V30 2520 C 228.874 0.841932 -1.84168 0
M  V30 2521 C 229.202 1.8048 -0.725066 0
M  V30 2522 O 228.457 1.93618 0.284692 0
M  V30 2523 C 228.756 1.63703 -3.17704 0
M  V30 2524 C 228.422 0.81961 -4.43388 0
M  V30 2525 C 227.084 0.594148 -4.77518 0
M  V30 2526 C 229.436 0.248977 -5.20605 0
M  V30 2527 C 226.764 -0.212409 -5.86315 0
M  V30 2528 C 229.116 -0.544701 -6.30251 0
M  V30 2529 C 227.78 -0.780599 -6.6292 0
M  V30 2530 H 227.05 0.308085 -0.673917 0
M  V30 2531 H 229.697 0.104867 -1.91213 0
M  V30 2532 H 228.002 2.44464 -3.06177 0
M  V30 2533 H 229.699 2.19015 -3.35907 0
M  V30 2534 H 226.289 1.00542 -4.16641 0
M  V30 2535 H 230.473 0.410408 -4.946 0
M  V30 2536 H 225.729 -0.404524 -6.1006 0
M  V30 2537 H 229.903 -0.993922 -6.89271 0
M  V30 2538 H 227.53 -1.40742 -7.47058 0
M  V30 2539 N 229.106 1.52395 0.401703 0
M  V30 2540 C 230.016 1.7917 1.51444 0
M  V30 2541 C 231.032 0.677691 1.6026 0
M  V30 2542 O 232.208 0.963909 1.76835 0
M  V30 2543 C 229.273 1.94347 2.87107 0
M  V30 2544 C 228.334 3.18257 2.88116 0
M  V30 2545 C 227.567 3.32701 4.17308 0
M  V30 2546 O 227.79 2.52238 5.11598 0
M  V30 2547 O 226.724 4.25891 4.25324 0
M  V30 2548 H 230.55 2.73633 1.31752 0
M  V30 2549 H 228.135 1.3733 0.588296 0
M  V30 2550 H 230.017 2.06109 3.67555 0
M  V30 2551 H 228.692 1.03073 3.06851 0
M  V30 2552 H 227.599 3.11947 2.06494 0
M  V30 2553 H 228.932 4.09336 2.73322 0
M  V30 2554 N 230.584 -0.659388 1.43143 0
M  V30 2555 C 231.814 -1.44513 1.47646 0
M  V30 2556 C 232.222 -1.88981 0.0910095 0
M  V30 2557 O 231.565 -1.59702 -0.907789 0
M  V30 2558 C 231.627 -2.71663 2.35456 0
M  V30 2559 C 231.291 -2.49175 3.83094 0
M  V30 2560 C 232.288 -2.1279 4.74359 0
M  V30 2561 C 229.973 -2.63691 4.27519 0
M  V30 2562 C 231.967 -1.9121 6.08044 0
M  V30 2563 C 229.654 -2.41726 5.61259 0
M  V30 2564 C 230.652 -2.0554 6.51339 0
M  V30 2565 O 230.34 -1.838 7.82606 0
M  V30 2566 H 230.072 -0.45064 0.503884 0
M  V30 2567 H 232.626 -0.816248 1.88485 0
M  V30 2568 H 230.856 -3.37089 1.89493 0
M  V30 2569 H 232.545 -3.33595 2.31235 0
M  V30 2570 H 233.311 -2.01157 4.41317 0
M  V30 2571 H 229.19 -2.90832 3.57684 0
M  V30 2572 H 232.734 -1.62889 6.78316 0
M  V30 2573 H 228.631 -2.52959 5.9387 0
M  V30 2574 H 229.399 -1.98275 7.94122 0
M  V30 2575 N 232.062 -1.29571 -0.897171 0
M  V30 2576 C 232.992 -1.17473 -2.01798 0
M  V30 2577 C 233.973 -0.068323 -1.69963 0
M  V30 2578 O 235.158 -0.248239 -1.92607 0
M  V30 2579 C 232.288 -0.853099 -3.36659 0
M  V30 2580 C 231.242 -1.9161 -3.82713 0
M  V30 2581 C 230.568 -1.44773 -5.14728 0
M  V30 2582 C 231.868 -3.32535 -4.02763 0
M  V30 2583 H 233.562 -2.11237 -2.12177 0
M  V30 2584 H 231.108 -1.01699 -1.01948 0
M  V30 2585 H 233.061 -0.755165 -4.14578 0
M  V30 2586 H 231.785 0.120236 -3.26379 0
M  V30 2587 H 230.444 -2.00346 -3.07013 0
M  V30 2588 H 230.092 -0.462995 -5.00865 0
M  V30 2589 H 229.792 -2.15865 -5.46513 0
M  V30 2590 H 231.316 -1.36334 -5.95185 0
M  V30 2591 H 232.73 -3.26626 -4.71156 0
M  V30 2592 H 231.127 -4.01607 -4.45905 0
M  V30 2593 H 232.197 -3.75326 -3.07016 0
M  V30 2594 N 233.54 1.10788 -1.12088 0
M  V30 2595 C 234.49 2.15158 -0.754401 0
M  V30 2596 C 235.474 1.59026 0.244846 0
M  V30 2597 O 236.666 1.76927 0.0509097 0
M  V30 2598 C 233.795 3.42677 -0.206657 0
M  V30 2599 C 232.881 4.05751 -1.23398 0
M  V30 2600 N 233.272 4.43582 -2.43041 0
M  V30 2601 C 231.57 4.32764 -1.07848 0
M  V30 2602 C 232.271 4.93085 -3.08613 0
M  V30 2603 N 231.247 4.89664 -2.36072 0
M  V30 2604 H 235.049 2.42195 -1.6649 0
M  V30 2605 H 232.563 1.27872 -1.00112 0
M  V30 2606 H 234.56 4.16834 0.0740646 0
M  V30 2607 H 233.22 3.17101 0.698342 0
M  V30 2608 H 234.231 4.35395 -2.80449 0
M  V30 2609 H 230.908 4.16863 -0.230483 0
M  V30 2610 H 232.298 5.31933 -4.10483 0
M  V30 2611 N 235.018 0.912232 1.28515 0
M  V30 2612 C 236.243 0.559774 1.99703 0
M  V30 2613 C 236.668 -0.851393 1.67729 0
M  V30 2614 O 236.026 -1.56875 0.908834 0
M  V30 2615 C 236.074 0.773874 3.52198 0
M  V30 2616 O 235.178 -0.167842 4.12058 0
M  V30 2617 H 234.519 0.21723 0.627461 0
M  V30 2618 H 237.049 1.22725 1.63706 0
M  V30 2619 H 237.059 0.683386 4.02236 0
M  V30 2620 H 235.734 1.80261 3.74805 0
M  V30 2621 H 234.311 -0.0287509 3.72889 0
M  V30 2622 N 236.496 -1.42363 0.676048 0
M  V30 2623 C 237.426 -2.33497 0.0124832 0
M  V30 2624 C 238.407 -1.50748 -0.787981 0
M  V30 2625 O 239.592 -1.79346 -0.744884 0
M  V30 2626 C 236.722 -3.34377 -0.938582 0
M  V30 2627 C 235.676 -4.27289 -0.246622 0
M  V30 2628 C 235.002 -5.18386 -1.31071 0
M  V30 2629 C 236.302 -5.14916 0.875125 0
M  V30 2630 H 237.996 -2.89233 0.773593 0
M  V30 2631 H 235.542 -1.39073 0.37346 0
M  V30 2632 H 237.495 -3.97044 -1.41188 0
M  V30 2633 H 236.219 -2.76947 -1.73113 0
M  V30 2634 H 234.878 -3.66018 0.206456 0
M  V30 2635 H 234.526 -4.57282 -2.09528 0
M  V30 2636 H 234.226 -5.81378 -0.852839 0
M  V30 2637 H 235.75 -5.83929 -1.78492 0
M  V30 2638 H 237.164 -5.71262 0.482983 0
M  V30 2639 H 235.561 -5.86747 1.25887 0
M  V30 2640 H 236.631 -4.53242 1.72335 0
M  V30 2641 N 237.974 -0.419461 -1.51915 0
M  V30 2642 C 239.251 0.211999 -1.94448 0
M  V30 2643 C 239.631 1.61703 -1.35703 0
M  V30 2644 O 238.979 2.22102 -0.536931 0
M  V30 2645 C 239.189 0.207872 -3.4838 0
M  V30 2646 C 240.537 0.422192 -4.22496 0
M  V30 2647 O 241.561 0.286778 -3.55044 0
M  V30 2648 O 240.42 0.690009 -5.42126 0
M  V30 2649 H 237.514 0.139586 -0.815135 0
M  V30 2650 H 240.06 -0.476151 -1.62883 0
M  V30 2651 H 238.832 -0.775102 -3.83546 0
M  V30 2652 H 238.455 0.939688 -3.86336 0
M  V30 2653 N 239.452 1.56882 -0.150215 0
M  V30 2654 C 240.382 2.19935 0.784284 0
M  V30 2655 C 241.363 1.14854 1.25469 0
M  V30 2656 O 242.548 1.43209 1.31168 0
M  V30 2657 C 239.678 2.82349 2.02229 0
M  V30 2658 C 238.632 3.93285 1.68853 0
M  V30 2659 C 237.958 4.42649 2.99944 0
M  V30 2660 C 239.258 5.13904 0.932714 0
M  V30 2661 H 240.952 2.9828 0.258781 0
M  V30 2662 H 238.498 1.43473 0.123029 0
M  V30 2663 H 240.451 3.25126 2.68088 0
M  V30 2664 H 239.175 2.0134 2.57157 0
M  V30 2665 H 237.834 3.5113 1.05371 0
M  V30 2666 H 237.482 3.58458 3.52869 0
M  V30 2667 H 237.182 5.17476 2.78374 0
M  V30 2668 H 238.706 4.88099 3.66868 0
M  V30 2669 H 240.12 5.53506 1.49345 0
M  V30 2670 H 238.517 5.94515 0.81684 0
M  V30 2671 H 239.587 4.84842 -0.0749568 0
M  V30 2672 N 240.93 -0.123565 1.57115 0
M  V30 2673 C 242.179 -0.830704 1.83799 0
M  V30 2674 C 242.492 -1.81259 0.735158 0
M  V30 2675 O 243.698 -2.56558 0.888278 0
M  V30 2676 C 242.154 -1.52802 3.25852 0
M  V30 2677 C 241.762 -0.587356 4.44133 0
M  V30 2678 C 243.506 -2.22056 3.61789 0
M  V30 2679 C 241.413 -1.28764 5.77212 0
M  V30 2680 H 240.343 -0.313967 0.685522 0
M  V30 2681 H 242.994 -0.0834359 1.8331 0
M  V30 2682 H 241.376 -2.32175 3.20797 0
M  V30 2683 H 242.55 0.172829 4.60476 0
M  V30 2684 H 240.865 -0.00201892 4.164 0
M  V30 2685 H 243.462 -2.75131 4.58483 0
M  V30 2686 H 243.805 -2.99644 2.88997 0
M  V30 2687 H 244.338 -1.49576 3.68608 0
M  V30 2688 H 241.077 -0.55314 6.53162 0
M  V30 2689 H 240.597 -2.01995 5.64764 0
M  V30 2690 H 242.276 -1.8221 6.20813 0
M  V30 2691 N 242.408 -1.52605 -0.393616 0
M  V30 2692 C 243.638 -1.71046 -1.15874 0
M  V30 2693 C 244.046 -0.426483 -1.84331 0
M  V30 2694 O 243.389 0.608513 -1.73329 0
M  V30 2695 C 243.451 -2.80118 -2.25332 0
M  V30 2696 C 243.115 -4.21381 -1.76881 0
M  V30 2697 C 244.112 -5.04697 -1.24808 0
M  V30 2698 C 241.797 -4.67683 -1.83244 0
M  V30 2699 C 243.791 -6.32393 -0.797387 0
M  V30 2700 C 241.478 -5.95364 -1.37787 0
M  V30 2701 C 242.476 -6.77549 -0.861208 0
M  V30 2702 O 242.164 -8.02837 -0.413252 0
M  V30 2703 H 241.896 -0.576155 -0.353583 0
M  V30 2704 H 244.45 -2.00018 -0.467123 0
M  V30 2705 H 242.68 -2.46557 -2.97904 0
M  V30 2706 H 244.369 -2.87006 -2.87023 0
M  V30 2707 H 245.135 -4.70111 -1.19252 0
M  V30 2708 H 241.014 -4.03805 -2.22401 0
M  V30 2709 H 244.558 -6.9649 -0.393437 0
M  V30 2710 H 240.455 -6.29455 -1.43026 0
M  V30 2711 H 241.223 -8.16749 -0.53515 0
M  V30 2712 N 243.887 0.651787 -1.4349 0
M  V30 2713 C 245.303 0.96762 -1.26922 0
M  V30 2714 C 245.503 2.00602 -0.189982 0
M  V30 2715 O 244.559 2.48793 0.431107 0
M  V30 2716 C 245.872 1.45052 -2.63401 0
M  V30 2717 C 247.42 1.5671 -2.70945 0
M  V30 2718 C 247.895 2.0839 -4.07845 0
M  V30 2719 N 249.386 2.1569 -4.09917 0
M  V30 2720 C 250.121 2.56804 -5.12679 0
M  V30 2721 N 249.617 2.97203 -6.25813 0
M  V30 2722 N 251.41 2.56756 -5.00033 0
M  V30 2723 H 243.561 -0.0353158 -2.12371 0
M  V30 2724 H 245.824 0.0467858 -0.946845 0
M  V30 2725 H 245.53 0.761926 -3.43348 0
M  V30 2726 H 245.404 2.42529 -2.88894 0
M  V30 2727 H 247.791 2.2467 -1.9133 0
M  V30 2728 H 247.872 0.57662 -2.49216 0
M  V30 2729 H 247.516 1.41031 -4.87927 0
M  V30 2730 H 247.446 3.08271 -4.26938 0
M  V30 2731 H 249.937 1.87237 -3.28254 0
M  V30 2732 H 250.25 3.27328 -7.00055 0
M  V30 2733 H 248.595 2.95004 -6.29283 0
M  V30 2734 H 251.786 2.24572 -4.10713 0
M  V30 2735 H 251.959 2.88475 -5.80247 0
M  V30 2736 N 245.365 1.30045 0.890287 0
M  V30 2737 C 246.642 1.09227 1.62262 0
M  V30 2738 C 247.022 -0.360305 2.08002 0
M  V30 2739 O 246.37 -1.35084 1.84295 0
M  V30 2740 C 246.58 2.08835 2.79623 0
M  V30 2741 C 247.928 2.40266 3.50082 0
M  V30 2742 O 248.952 2.07104 2.89804 0
M  V30 2743 O 247.811 2.96967 4.58773 0
M  V30 2744 H 244.905 0.419132 0.712922 0
M  V30 2745 H 247.451 1.41451 0.937529 0
M  V30 2746 H 246.223 3.06633 2.43089 0
M  V30 2747 H 245.846 1.77397 3.55832 0
M  V30 2748 N 246.843 -1.10192 1.12674 0
M  V30 2749 C 247.773 -2.18652 0.819362 0
M  V30 2750 C 248.754 -1.68698 -0.217915 0
M  V30 2751 O 249.939 -1.94041 -0.0785581 0
M  V30 2752 C 247.069 -3.46202 0.27594 0
M  V30 2753 C 246.023 -4.09444 1.24656 0
M  V30 2754 C 245.349 -5.31725 0.563258 0
M  V30 2755 C 246.649 -4.52863 2.60217 0
M  V30 2756 H 248.343 -2.44622 1.72628 0
M  V30 2757 H 245.889 -1.17571 0.831451 0
M  V30 2758 H 247.842 -4.21372 0.0486149 0
M  V30 2759 H 246.566 -3.1973 -0.666331 0
M  V30 2760 H 245.225 -3.36284 1.45974 0
M  V30 2761 H 244.873 -5.0153 -0.384235 0
M  V30 2762 H 244.573 -5.74991 1.21075 0
M  V30 2763 H 246.097 -6.09624 0.34503 0
M  V30 2764 H 247.511 -5.19294 2.42913 0
M  V30 2765 H 245.908 -5.06986 3.21068 0
M  V30 2766 H 246.978 -3.65656 3.18471 0
M  V30 2767 N 248.321 -0.919034 -1.28029 0
M  V30 2768 C 249.268 -0.410005 -2.27129 0
M  V30 2769 C 250.238 0.518405 -1.57803 0
M  V30 2770 O 251.423 0.439451 -1.8567 0
M  V30 2771 C 248.563 0.339054 -3.4343 0
M  V30 2772 C 247.676 -0.622468 -4.27492 0
M  V30 2773 C 246.811 0.145567 -5.31001 0
M  V30 2774 C 245.85 -0.809226 -6.06727 0
M  V30 2775 N 244.987 -0.0743728 -7.02061 0
M  V30 2776 H 249.827 -1.26011 -2.70047 0
M  V30 2777 H 247.364 -0.632663 -1.328 0
M  V30 2778 H 249.322 0.789586 -4.0966 0
M  V30 2779 H 247.952 1.15346 -3.01488 0
M  V30 2780 H 247.004 -1.19153 -3.61257 0
M  V30 2781 H 248.316 -1.35252 -4.80113 0
M  V30 2782 H 247.47 0.656417 -6.03139 0
M  V30 2783 H 246.209 0.908643 -4.79161 0
M  V30 2784 H 245.214 -1.3314 -5.33436 0
M  V30 2785 H 246.439 -1.57194 -6.60656 0
M  V30 2786 H 244.385 0.670616 -6.52563 0
M  V30 2787 H 244.302 -0.744157 -7.52329 0
M  V30 2788 H 245.57 0.416109 -7.78389 0
M  V30 2789 N 249.799 1.42003 -0.683588 0
M  V30 2790 C 251.21 1.84501 -0.285736 0
M  V30 2791 C 251.561 1.57213 1.17382 0
M  V30 2792 O 250.686 1.03642 1.89966 0
M  V30 2793 C 251.281 3.34912 -0.511821 0
M  V30 2794 C 249.84 3.76025 -0.168005 0
M  V30 2795 C 248.987 2.6551 -0.799983 0
M  V30 2796 H 251.938 1.31724 -0.885119 0
M  V30 2797 H 251.959 3.79784 0.233292 0
M  V30 2798 H 251.471 3.54741 -1.57418 0
M  V30 2799 H 249.572 3.61801 0.890567 0
M  V30 2800 H 249.685 4.75141 -0.614661 0
M  V30 2801 H 248.049 2.53654 -0.230568 0
M  V30 2802 H 248.832 2.8816 -1.86597 0
M  V30 2803 N 251.277 0.427512 1.51691 0
M  V30 2804 C 252.187 -0.39527 2.31246 0
M  V30 2805 C 253.203 -1.03674 1.39742 0
M  V30 2806 O 254.379 -1.03425 1.72816 0
M  V30 2807 C 251.444 -1.48706 3.13189 0
M  V30 2808 C 250.505 -0.866743 4.20459 0
M  V30 2809 C 249.738 -1.90651 4.98486 0
M  V30 2810 O 249.961 -3.12733 4.77026 0
M  V30 2811 O 248.895 -1.5025 5.82845 0
M  V30 2812 H 252.721 0.253918 3.02637 0
M  V30 2813 H 250.306 0.190274 1.48183 0
M  V30 2814 H 252.188 -2.12047 3.64162 0
M  V30 2815 H 250.863 -2.12051 2.44573 0
M  V30 2816 H 249.77 -0.195544 3.73589 0
M  V30 2817 H 251.103 -0.276934 4.9142 0
M  V30 2818 N 252.755 -1.56801 0.158532 0
M  V30 2819 C 253.703 -2.18638 -0.793729 0
M  V30 2820 C 254.697 -1.14669 -1.24689 0
M  V30 2821 O 255.903 -1.32895 -1.21403 0
M  V30 2822 H 252.278 -0.700226 -0.274204 0
M  V30 2823 H 254.249 -2.97367 -0.248095 0
M  V30 2824 C 252.998 -2.83139 -2.0181 0
M  V30 2825 H 252.321 -3.62863 -1.67841 0
M  V30 2826 H 253.761 -3.29894 -2.66357 0
M  V30 2827 C 252.22 -1.82244 -2.83353 0
M  V30 2828 O 252.75 -1.3 -3.80083 0
M  V30 2829 N 250.956 -1.51288 -2.48114 0
M  V30 2830 H 250.503 -1.93964 -1.69516 0
M  V30 2831 H 250.461 -0.840296 -3.02963 0
M  V30 2832 N 254.233 0.115231 -1.57178 0
M  V30 2833 C 255.163 1.1423 -2.03651 0
M  V30 2834 C 256.144 1.42967 -0.921655 0
M  V30 2835 O 257.329 1.53343 -1.19162 0
M  V30 2836 C 254.459 2.4675 -2.44401 0
M  V30 2837 C 253.413 2.32467 -3.59365 0
M  V30 2838 C 252.739 3.69984 -3.86026 0
M  V30 2839 C 254.039 1.78203 -4.90959 0
M  V30 2840 H 255.733 0.755749 -2.89705 0
M  V30 2841 H 253.279 0.362093 -1.39373 0
M  V30 2842 H 255.232 3.18854 -2.75517 0
M  V30 2843 H 253.956 2.87302 -1.55322 0
M  V30 2844 H 252.615 1.62811 -3.28463 0
M  V30 2845 H 252.263 4.08028 -2.94147 0
M  V30 2846 H 251.963 3.61279 -4.63412 0
M  V30 2847 H 253.487 4.43587 -4.19599 0
M  V30 2848 H 254.901 2.40128 -5.20587 0
M  V30 2849 H 253.298 1.8031 -5.72371 0
M  V30 2850 H 254.368 0.739876 -4.79222 0
M  V30 2851 N 255.711 1.52812 0.385517 0
M  V30 2852 C 256.641 1.80808 1.47752 0
M  V30 2853 C 257.622 0.660318 1.5676 0
M  V30 2854 O 258.807 0.908246 1.71652 0
M  V30 2855 C 255.937 1.98008 2.85324 0
M  V30 2856 C 254.891 3.13709 2.91154 0
M  V30 2857 C 254.217 3.16169 4.31209 0
M  V30 2858 C 255.517 4.52709 2.60483 0
M  V30 2859 H 257.211 2.72253 1.24573 0
M  V30 2860 H 254.757 1.31003 0.597839 0
M  V30 2861 H 256.71 2.16176 3.61726 0
M  V30 2862 H 255.434 1.03255 3.09848 0
M  V30 2863 H 254.093 2.95329 2.17201 0
M  V30 2864 H 253.741 2.19092 4.52778 0
M  V30 2865 H 253.441 3.93894 4.36029 0
M  V30 2866 H 254.965 3.36496 5.09512 0
M  V30 2867 H 256.379 4.71173 3.26602 0
M  V30 2868 H 254.776 5.32528 2.76648 0
M  V30 2869 H 255.846 4.59186 1.55809 0
M  V30 2870 N 257.189 -0.644168 1.43834 0
M  V30 2871 C 258.438 -1.39985 1.45214 0
M  V30 2872 C 258.751 -1.95421 0.0835494 0
M  V30 2873 O 259.957 -2.71488 -0.0251748 0
M  V30 2874 C 258.413 -2.53384 2.55587 0
M  V30 2875 C 258.021 -2.04517 3.98594 0
M  V30 2876 C 259.765 -3.30685 2.66172 0
M  V30 2877 C 257.672 -3.1518 5.00416 0
M  V30 2878 H 256.602 -0.526005 0.540218 0
M  V30 2879 H 259.253 -0.694367 1.69855 0
M  V30 2880 H 257.635 -3.26446 2.24163 0
M  V30 2881 H 258.809 -1.38405 4.39523 0
M  V30 2882 H 257.124 -1.40068 3.92135 0
M  V30 2883 H 259.721 -4.13158 3.39418 0
M  V30 2884 H 260.064 -3.79312 1.71546 0
M  V30 2885 H 260.597 -2.64708 2.96942 0
M  V30 2886 H 257.336 -2.71511 5.96625 0
M  V30 2887 H 256.856 -3.79974 4.64091 0
M  V30 2888 H 258.535 -3.80166 5.23529 0
M  V30 2889 N 258.668 -1.30515 -0.883378 0
M  V30 2890 C 259.945 -1.10086 -1.6168 0
M  V30 2891 C 260.325 0.349269 -2.08191 0
M  V30 2892 O 259.673 1.34105 -1.85008 0
M  V30 2893 C 259.883 -2.10315 -2.78511 0
M  V30 2894 C 261.231 -2.42119 -3.48803 0
M  V30 2895 O 262.255 -2.08638 -2.88702 0
M  V30 2896 O 261.114 -2.99396 -4.57192 0
M  V30 2897 H 258.208 -0.422907 -0.710689 0
M  V30 2898 H 260.754 -1.41947 -0.930015 0
M  V30 2899 H 259.526 -3.07917 -2.41459 0
M  V30 2900 H 259.149 -1.79282 -3.54886 0
M  V30 2901 N 260.146 1.09593 -1.13257 0
M  V30 2902 C 261.078 2.16015 -0.766167 0
M  V30 2903 C 262.091 1.61423 0.211303 0
M  V30 2904 O 263.28 1.78498 -0.00863946 0
M  V30 2905 C 260.38 3.38706 -0.114662 0
M  V30 2906 C 259.553 4.22717 -1.12379 0
M  V30 2907 C 258.612 5.23835 -0.498301 0
M  V30 2908 O 257.638 5.573 -1.15781 0
M  V30 2909 N 258.84 5.75886 0.730417 0
M  V30 2910 H 261.605 2.48055 -1.68193 0
M  V30 2911 H 259.166 1.25292 -1.02535 0
M  V30 2912 H 261.158 4.03464 0.315991 0
M  V30 2913 H 259.728 3.04569 0.704011 0
M  V30 2914 H 258.948 3.54122 -1.73179 0
M  V30 2915 H 260.236 4.75673 -1.80589 0
M  V30 2916 H 259.634 5.50911 1.28504 0
M  V30 2917 H 258.191 6.42387 1.10376 0
M  V30 2918 N 261.624 0.925811 1.2754 0
M  V30 2919 C 262.556 0.380753 2.26015 0
M  V30 2920 C 263.569 -0.487485 1.5533 0
M  V30 2921 O 264.758 -0.300413 1.75954 0
M  V30 2922 C 261.858 -0.473259 3.35579 0
M  V30 2923 C 261.031 0.375249 4.35787 0
M  V30 2924 C 260.09 -0.415809 5.24555 0
M  V30 2925 O 259.116 0.175834 5.68928 0
M  V30 2926 N 260.318 -1.71607 5.54555 0
M  V30 2927 H 263.083 1.22725 2.73421 0
M  V30 2928 H 260.644 0.793037 1.41147 0
M  V30 2929 H 262.636 -1.00949 3.91907 0
M  V30 2930 H 261.206 -1.2205 2.87789 0
M  V30 2931 H 260.426 1.09279 3.7875 0
M  V30 2932 H 261.714 0.955399 4.99749 0
M  V30 2933 H 261.112 -2.2191 5.20358 0
M  V30 2934 H 259.669 -2.19887 6.1359 0
M  V30 2935 N 263.102 -1.41638 0.69111 0
M  V30 2936 C 264.35 -2.00902 0.219758 0
M  V30 2937 C 264.671 -1.54994 -1.18329 0
M  V30 2938 O 263.941 -0.778628 -1.79762 0
M  V30 2939 H 262.521 -0.74289 0.0782558 0
M  V30 2940 H 265.183 -1.73327 0.891271 0
M  V30 2941 H 264.279 -3.11224 0.233708 0
M  V30 2942 N 264.58 -0.43555 -1.51462 0
M  V30 2943 C 265.81 0.130053 -2.0619 0
M  V30 2944 C 266.218 1.37164 -1.30317 0
M  V30 2945 O 265.561 1.80225 -0.355598 0
M  V30 2946 C 265.623 0.519418 -3.55728 0
M  V30 2947 C 265.287 -0.615119 -4.52841 0
M  V30 2948 C 266.284 -1.48671 -4.9819 0
M  V30 2949 C 263.969 -0.795341 -4.95963 0
M  V30 2950 C 265.963 -2.52324 -5.8533 0
M  V30 2951 C 263.65 -1.83514 -5.82894 0
M  V30 2952 C 264.648 -2.69748 -6.27475 0
M  V30 2953 O 264.336 -3.71944 -7.1268 0
M  V30 2954 H 264.068 0.0121612 -0.675891 0
M  V30 2955 H 266.622 -0.6129 -1.96043 0
M  V30 2956 H 264.852 1.31505 -3.63653 0
M  V30 2957 H 266.541 1.01597 -3.92979 0
M  V30 2958 H 267.307 -1.359 -4.65571 0
M  V30 2959 H 263.186 -0.133713 -4.60806 0
M  V30 2960 H 266.73 -3.19665 -6.20048 0
M  V30 2961 H 262.627 -1.96306 -6.14926 0
M  V30 2962 H 263.395 -3.68503 -7.30854 0
M  V30 2963 N 266.058 1.56714 -0.166846 0
M  V30 2964 C 267.307 1.95922 0.479318 0
M  V30 2965 C 267.62 1.05529 1.6469 0
M  V30 2966 O 268.826 1.34399 2.35901 0
M  V30 2967 C 267.282 3.48359 0.90412 0
M  V30 2968 C 266.89 4.47369 -0.237621 0
M  V30 2969 C 268.634 3.96394 1.51896 0
M  V30 2970 C 266.541 5.91039 0.206561 0
M  V30 2971 H 265.471 0.731495 0.18284 0
M  V30 2972 H 268.122 1.81728 -0.254363 0
M  V30 2973 H 266.504 3.57955 1.69365 0
M  V30 2974 H 267.678 4.49485 -1.01489 0
M  V30 2975 H 265.993 4.09366 -0.762128 0
M  V30 2976 H 268.59 5.01186 1.86325 0
M  V30 2977 H 268.933 3.39075 2.41524 0
M  V30 2978 H 269.466 3.89796 0.79395 0
M  V30 2979 H 266.205 6.52221 -0.654834 0
M  V30 2980 H 265.725 5.9224 0.949282 0
M  V30 2981 H 267.404 6.43707 0.651939 0
M  V30 2982 N 267.536 -0.106894 1.57237 0
M  V30 2983 C 268.468 -1.15646 1.97885 0
M  V30 2984 C 269.481 -1.36981 0.879779 0
M  V30 2985 O 270.67 -1.35841 1.15799 0
M  V30 2986 C 267.77 -2.51425 2.27241 0
M  V30 2987 C 266.943 -2.50529 3.58545 0
M  V30 2988 C 266.002 -3.68145 3.75973 0
M  V30 2989 O 265.028 -3.51176 4.47956 0
M  V30 2990 N 266.23 -4.87177 3.15656 0
M  V30 2991 H 268.995 -0.81059 2.8853 0
M  V30 2992 H 266.556 -0.296024 1.59171 0
M  V30 2993 H 268.548 -3.28689 2.36105 0
M  V30 2994 H 267.118 -2.78147 1.42663 0
M  V30 2995 H 266.338 -1.58894 3.60758 0
M  V30 2996 H 267.626 -2.46997 4.44826 0
M  V30 2997 H 267.024 -5.03868 2.57165 0
M  V30 2998 H 265.581 -5.62075 3.30023 0
M  V30 2999 N 269.014 -1.53014 -0.377408 0
M  V30 3000 C 270.26 -1.68872 -1.12294 0
M  V30 3001 C 270.593 -0.433224 -1.89306 0
M  V30 3002 O 269.868 0.569258 -1.85983 0
M  V30 3003 C 270.151 -2.93115 -2.09179 0
M  V30 3004 C 270.004 -4.28794 -1.35853 0
M  V30 3005 C 271.323 -3.12928 -3.09458 0
M  V30 3006 H 268.442 -0.614518 -0.406862 0
M  V30 3007 H 271.084 -1.85633 -0.40503 0
M  V30 3008 H 269.234 -2.78956 -2.70399 0
M  V30 3009 H 270.906 -4.54742 -0.775082 0
M  V30 3010 H 269.149 -4.28744 -0.660364 0
M  V30 3011 H 269.82 -5.11837 -2.06706 0
M  V30 3012 H 272.296 -3.26194 -2.58334 0
M  V30 3013 H 271.172 -4.01316 -3.74482 0
M  V30 3014 H 271.433 -2.27669 -3.78971 0
M  V30 3015 N 270.492 0.636531 -1.44174 0
M  V30 3016 C 271.72 1.42353 -1.50144 0
M  V30 3017 C 272.135 1.88389 -0.124575 0
M  V30 3018 O 271.492 1.6051 0.868489 0
M  V30 3019 C 271.543 2.64744 -2.46156 0
M  V30 3020 O 271.264 2.20629 -3.7849 0
M  V30 3021 C 272.765 3.57929 -2.61537 0
M  V30 3022 H 269.985 0.436752 -0.5094 0
M  V30 3023 H 272.529 0.778933 -1.89084 0
M  V30 3024 H 270.684 3.25307 -2.10366 0
M  V30 3025 H 271.098 2.99938 -4.30276 0
M  V30 3026 H 272.572 4.40428 -3.32757 0
M  V30 3027 H 273.049 4.06382 -1.66585 0
M  V30 3028 H 273.655 3.03238 -2.98206 0
M  V30 3029 N 271.97 1.30982 0.876444 0
M  V30 3030 C 273.247 1.10942 1.61094 0
M  V30 3031 C 273.627 -0.338223 2.08373 0
M  V30 3032 O 272.975 -1.33122 1.85717 0
M  V30 3033 C 273.185 2.11789 2.77392 0
M  V30 3034 C 274.533 2.43965 3.47514 0
M  V30 3035 O 275.557 2.10166 2.87591 0
M  V30 3036 O 274.416 3.01817 4.55597 0
M  V30 3037 H 271.51 0.42667 0.708436 0
M  V30 3038 H 274.056 1.42438 0.922474 0
M  V30 3039 H 272.828 3.09194 2.39823 0
M  V30 3040 H 272.451 1.81161 3.5393 0
M  V30 3041 N 273.449 -1.08991 1.13837 0
M  V30 3042 C 274.696 -1.81258 0.902882 0
M  V30 3043 C 275.024 -1.85936 -0.570803 0
M  V30 3044 O 274.279 -1.3267 -1.43865 0
M  V30 3045 C 274.578 -3.27042 1.44147 0
M  V30 3046 C 274.244 -3.4249 2.93276 0
M  V30 3047 C 272.906 -3.46414 3.33992 0
M  V30 3048 C 275.258 -3.4666 3.892 0
M  V30 3049 C 272.586 -3.52091 4.69307 0
M  V30 3050 C 274.938 -3.53872 5.24364 0
M  V30 3051 C 273.602 -3.56066 5.646 0
M  V30 3052 H 272.872 -0.663268 0.330388 0
M  V30 3053 H 275.519 -1.28368 1.42105 0
M  V30 3054 H 273.824 -3.82599 0.844097 0
M  V30 3055 H 275.521 -3.81499 1.23528 0
M  V30 3056 H 272.111 -3.40124 2.60794 0
M  V30 3057 H 276.295 -3.42865 3.58828 0
M  V30 3058 H 271.551 -3.52079 4.9985 0
M  V30 3059 H 275.725 -3.56043 5.98503 0
M  V30 3060 H 273.352 -3.60218 6.69438 0
M  V30 3061 N 274.927 -0.932562 -1.27047 0
M  V30 3062 C 276.175 -0.574422 -1.93765 0
M  V30 3063 C 276.496 0.887993 -1.73608 0
M  V30 3064 O 275.766 1.62999 -1.08665 0
M  V30 3065 H 274.346 -0.209451 -0.717035 0
M  V30 3066 H 277.008 -1.18601 -1.5466 0
M  V30 3067 H 276.104 -0.784841 -3.02071 0
M  V30 3068 N 276.405 1.4127 -0.698611 0
M  V30 3069 C 277.652 2.0118 -0.230865 0
M  V30 3070 C 277.98 1.55338 1.17049 0
M  V30 3071 O 277.235 0.756775 1.80475 0
M  V30 3072 C 277.534 3.56592 -0.240192 0
M  V30 3073 C 277.2 4.21955 -1.58948 0
M  V30 3074 C 275.862 4.39524 -1.95887 0
M  V30 3075 C 278.214 4.58576 -2.47704 0
M  V30 3076 C 275.542 4.90992 -3.2116 0
M  V30 3077 C 277.894 5.11435 -3.72313 0
M  V30 3078 C 276.558 5.27215 -4.0939 0
M  V30 3079 H 275.828 0.736169 -0.0844796 0
M  V30 3080 H 278.475 1.69124 -0.8983 0
M  V30 3081 H 276.78 3.88456 0.510797 0
M  V30 3082 H 278.477 4.00758 0.139296 0
M  V30 3083 H 275.067 4.08657 -1.29219 0
M  V30 3084 H 279.251 4.44654 -2.20445 0
M  V30 3085 H 274.507 5.01393 -3.49878 0
M  V30 3086 H 278.681 5.38752 -4.4127 0
M  V30 3087 H 276.308 5.66859 -5.06533 0
M  V30 3088 N 277.883 0.443576 1.51229 0
M  V30 3089 C 278.846 -0.353132 2.26463 0
M  V30 3090 C 279.846 -0.944338 1.3015 0
M  V30 3091 O 281.036 -0.817813 1.5381 0
M  V30 3092 C 278.168 -1.50023 3.06114 0
M  V30 3093 H 279.361 0.3063 2.98332 0
M  V30 3094 H 276.914 0.196902 1.55055 0
M  V30 3095 H 277.649 -2.19553 2.38677 0
M  V30 3096 H 277.434 -1.08241 3.76864 0
M  V30 3097 H 278.924 -2.06296 3.63087 0
M  V30 3098 N 279.361 -1.56624 0.175154 0
M  V30 3099 C 280.308 -2.18149 -0.753634 0
M  V30 3100 C 281.278 -1.12265 -1.22417 0
M  V30 3101 O 282.463 -1.40432 -1.29165 0
M  V30 3102 C 279.603 -2.82933 -1.97592 0
M  V30 3103 C 278.716 -4.03289 -1.5486 0
M  V30 3104 C 277.851 -4.55988 -2.72485 0
M  V30 3105 C 276.89 -5.68746 -2.26262 0
M  V30 3106 N 276.027 -6.15938 -3.36994 0
M  V30 3107 H 280.867 -2.9717 -0.222195 0
M  V30 3108 H 278.404 -1.46774 -0.0979422 0
M  V30 3109 H 280.362 -3.18653 -2.69288 0
M  V30 3110 H 278.992 -2.06509 -2.481 0
M  V30 3111 H 278.044 -3.73364 -0.728246 0
M  V30 3112 H 279.356 -4.849 -1.16933 0
M  V30 3113 H 278.51 -4.9391 -3.52332 0
M  V30 3114 H 277.249 -3.73443 -3.13674 0
M  V30 3115 H 276.254 -5.30372 -1.44863 0
M  V30 3116 H 277.479 -6.53095 -1.86127 0
M  V30 3117 H 275.425 -5.36321 -3.77751 0
M  V30 3118 H 275.342 -6.92548 -3.03172 0
M  V30 3119 H 276.61 -6.58511 -4.17114 0
M  V30 3120 N 280.839 0.0985539 -1.57292 0
M  V30 3121 C 282.255 0.45267 -1.53046 0
M  V30 3122 C 282.455 1.80713 -0.891342 0
M  V30 3123 O 281.511 2.4785 -0.482375 0
M  V30 3124 C 282.824 0.418341 -2.97776 0
M  V30 3125 C 284.372 0.500443 -3.08973 0
M  V30 3126 C 284.847 0.496297 -4.55303 0
M  V30 3127 N 286.338 0.557151 -4.59837 0
M  V30 3128 C 287.073 0.575726 -5.70502 0
M  V30 3129 N 286.569 0.550714 -6.90608 0
M  V30 3130 N 288.362 0.620277 -5.58667 0
M  V30 3131 H 280.513 -0.788673 -1.97215 0
M  V30 3132 H 282.776 -0.293188 -0.901524 0
M  V30 3133 H 282.482 -0.509659 -3.47988 0
M  V30 3134 H 282.356 1.2386 -3.56284 0
M  V30 3135 H 284.743 1.41886 -2.58751 0
M  V30 3136 H 284.824 -0.347894 -2.53423 0
M  V30 3137 H 284.468 -0.418162 -5.06176 0
M  V30 3138 H 284.398 1.3618 -5.08687 0
M  V30 3139 H 286.889 0.581816 -3.73394 0
M  V30 3140 H 287.202 0.568075 -7.70709 0
M  V30 3141 H 285.547 0.517816 -6.93068 0
M  V30 3142 H 288.738 0.637322 -4.63741 0
M  V30 3143 H 288.911 0.631283 -6.44918 0
M  V30 3144 N 282.317 1.53212 0.369288 0
M  V30 3145 C 283.563 1.69466 1.11397 0
M  V30 3146 C 283.896 0.443257 1.89074 0
M  V30 3147 O 283.171 -0.559386 1.86282 0
M  V30 3148 C 283.454 2.9422 2.07621 0
M  V30 3149 C 283.307 4.29508 1.33577 0
M  V30 3150 C 284.626 3.14565 3.07794 0
M  V30 3151 H 281.745 0.616667 0.403597 0
M  V30 3152 H 284.387 1.85845 0.395179 0
M  V30 3153 H 282.537 2.80387 2.68916 0
M  V30 3154 H 284.209 4.55147 0.750955 0
M  V30 3155 H 282.452 4.29088 0.637618 0
M  V30 3156 H 283.123 5.12926 2.03989 0
M  V30 3157 H 285.599 3.2756 2.56601 0
M  V30 3158 H 284.475 4.03297 3.72348 0
M  V30 3159 H 284.736 2.29675 3.77759 0
M  V30 3160 N 283.795 -0.628877 1.44509 0
M  V30 3161 C 284.742 -1.74074 1.51549 0
M  V30 3162 C 285.712 -1.62084 0.363021 0
M  V30 3163 O 286.897 -1.81975 0.573567 0
M  V30 3164 C 284.037 -3.12328 1.46784 0
M  V30 3165 C 283.15 -3.35277 2.72422 0
M  V30 3166 C 282.285 -4.63515 2.59475 0
M  V30 3167 C 281.324 -4.7965 3.80266 0
M  V30 3168 N 280.461 -5.99168 3.65981 0
M  V30 3169 H 285.301 -1.67392 2.46544 0
M  V30 3170 H 282.838 -0.816527 1.22357 0
M  V30 3171 H 284.796 -3.92286 1.42012 0
M  V30 3172 H 283.426 -3.18018 0.553544 0
M  V30 3173 H 282.478 -2.49242 2.87372 0
M  V30 3174 H 283.79 -3.43078 3.62076 0
M  V30 3175 H 282.944 -5.51638 2.52548 0
M  V30 3176 H 281.683 -4.58076 1.67384 0
M  V30 3177 H 280.688 -3.89957 3.87574 0
M  V30 3178 H 281.913 -4.86902 4.73395 0
M  V30 3179 H 279.859 -5.94814 2.76644 0
M  V30 3180 H 279.776 -6.08035 4.49254 0
M  V30 3181 H 281.044 -6.89846 3.6295 0
M  V30 3182 N 285.273 -1.31445 -0.869486 0
M  V30 3183 C 286.521 -1.20918 -1.61936 0
M  V30 3184 C 286.842 0.232683 -1.93607 0
M  V30 3185 O 286.112 1.15352 -1.58338 0
M  V30 3186 H 284.692 -0.44454 -0.600328 0
M  V30 3187 H 287.354 -1.64776 -1.0409 0
M  V30 3188 H 286.45 -1.78124 -2.56278 0
M  V30 3189 N 286.751 1.08385 -1.14413 0
M  V30 3190 C 288.167 1.32844 -0.884563 0
M  V30 3191 C 288.367 1.95841 0.474181 0
M  V30 3192 O 287.423 2.21158 1.21842 0
M  V30 3193 C 288.736 2.22978 -2.01745 0
M  V30 3194 C 290.284 2.36458 -2.05077 0
M  V30 3195 C 290.759 3.29934 -3.1766 0
M  V30 3196 N 292.25 3.37511 -3.17239 0
M  V30 3197 C 292.985 4.09871 -4.0099 0
M  V30 3198 N 292.481 4.84936 -4.94781 0
M  V30 3199 N 294.274 4.05704 -3.89051 0
M  V30 3200 H 286.425 0.658756 -2.01926 0
M  V30 3201 H 288.688 0.352821 -0.879899 0
M  V30 3202 H 288.394 1.83934 -2.99769 0
M  V30 3203 H 288.268 3.23441 -1.94077 0
M  V30 3204 H 290.655 2.7476 -1.0766 0
M  V30 3205 H 290.736 1.35736 -2.16816 0
M  V30 3206 H 290.38 2.92352 -4.15322 0
M  V30 3207 H 290.31 4.30584 -3.03158 0
M  V30 3208 H 292.801 2.83996 -2.49308 0
M  V30 3209 H 293.114 5.37612 -5.55151 0
M  V30 3210 H 291.459 4.83988 -4.98779 0
M  V30 3211 H 294.65 3.46167 -3.15097 0
M  V30 3212 H 294.823 4.61834 -4.54547 0
M  V30 3213 N 288.23 0.939286 1.26551 0
M  V30 3214 C 289.458 0.602536 1.97932 0
M  V30 3215 C 289.873 -0.82206 1.69964 0
M  V30 3216 O 289.23 -1.54789 0.966784 0
M  V30 3217 C 289.281 0.832946 3.51773 0
M  V30 3218 O 289.002 2.20151 3.78768 0
M  V30 3219 C 290.503 0.506483 4.40397 0
M  V30 3220 H 287.723 0.227248 0.631347 0
M  V30 3221 H 290.267 1.25948 1.61113 0
M  V30 3222 H 288.422 0.222644 3.8676 0
M  V30 3223 H 288.836 2.26013 4.73306 0
M  V30 3224 H 290.31 0.718333 5.47306 0
M  V30 3225 H 290.787 -0.558451 4.35635 0
M  V30 3226 H 291.393 1.09543 4.10951 0
M  V30 3227 N 289.708 -1.40897 0.706093 0
M  V30 3228 C 290.954 -2.01849 0.250681 0
M  V30 3229 C 291.309 -1.5496 -1.14041 0
M  V30 3230 O 290.602 -0.755566 -1.76073 0
M  V30 3231 C 290.796 -3.5646 0.259099 0
M  V30 3232 C 290.625 -4.18357 1.64947 0
M  V30 3233 C 289.395 -4.522 2.25485 0
M  V30 3234 C 291.593 -4.43856 2.598 0
M  V30 3235 N 289.575 -4.9944 3.56977 0
M  V30 3236 C 290.946 -4.92986 3.75985 0
M  V30 3237 C 293.001 -4.25882 2.57933 0
M  V30 3238 C 291.704 -5.2603 4.90597 0
M  V30 3239 C 293.73 -4.6002 3.71665 0
M  V30 3240 C 293.092 -5.09331 4.86581 0
M  V30 3241 H 289.191 -0.769843 0.137353 0
M  V30 3242 H 291.775 -1.71278 0.925845 0
M  V30 3243 H 289.946 -3.86481 -0.385592 0
M  V30 3244 H 291.678 -4.04144 -0.21213 0
M  V30 3245 H 288.433 -4.3901 1.77671 0
M  V30 3246 H 288.857 -5.27454 4.24407 0
M  V30 3247 H 293.499 -3.86986 1.70298 0
M  V30 3248 H 291.217 -5.63843 5.78884 0
M  V30 3249 H 294.803 -4.47762 3.71484 0
M  V30 3250 H 293.683 -5.35251 5.73129 0
M  V30 3251 N 291.186 -0.45159 -1.50991 0
M  V30 3252 C 292.414 0.108334 -2.06616 0
M  V30 3253 C 292.829 1.35224 -1.31757 0
M  V30 3254 O 292.186 1.78475 -0.381174 0
M  V30 3255 C 292.237 0.41619 -3.59096 0
M  V30 3256 O 291.958 -0.778361 -4.3113 0
M  V30 3257 C 293.459 1.02523 -4.31282 0
M  V30 3258 H 290.679 0.00159995 -0.670998 0
M  V30 3259 H 293.223 -0.634771 -1.94399 0
M  V30 3260 H 291.378 1.10921 -3.71181 0
M  V30 3261 H 291.792 -0.511181 -5.22003 0
M  V30 3262 H 293.266 1.19053 -5.39009 0
M  V30 3263 H 293.743 2.01013 -3.905 0
M  V30 3264 H 294.349 0.371173 -4.23677 0
M  V30 3265 N 292.664 1.56529 -0.183458 0
M  V30 3266 C 293.594 2.21549 0.737456 0
M  V30 3267 C 294.575 1.17489 1.23005 0
M  V30 3268 O 295.76 1.45959 1.281 0
M  V30 3269 C 292.89 2.86575 1.96194 0
M  V30 3270 C 291.844 3.96778 1.60473 0
M  V30 3271 C 291.17 4.48911 2.90487 0
M  V30 3272 C 292.47 5.15767 0.823497 0
M  V30 3273 H 294.164 2.98761 0.195453 0
M  V30 3274 H 291.71 1.43702 0.0925686 0
M  V30 3275 H 293.663 3.30739 2.61131 0
M  V30 3276 H 292.387 2.06749 2.52828 0
M  V30 3277 H 291.046 3.53286 0.978997 0
M  V30 3278 H 290.694 3.65862 3.45186 0
M  V30 3279 H 290.394 5.23265 2.67335 0
M  V30 3280 H 291.918 4.95771 3.56432 0
M  V30 3281 H 293.332 5.56549 1.37571 0
M  V30 3282 H 291.729 5.96114 0.690551 0
M  V30 3283 H 292.799 4.84574 -0.177782 0
M  V30 3284 N 294.142 -0.090211 1.57342 0
M  V30 3285 C 295.382 -0.798365 1.88163 0
M  V30 3286 C 295.746 -1.75662 0.775046 0
M  V30 3287 O 296.947 -2.50849 0.965816 0
M  V30 3288 C 295.218 -1.50376 3.24225 0
M  V30 3289 S 296.777 -2.24952 3.76752 0
M  V30 3290 H 293.595 -0.265883 0.659414 0
M  V30 3291 H 296.197 -0.055264 1.95422 0
M  V30 3292 H 294.901 -0.792286 4.0268 0
M  V30 3293 H 294.432 -2.28666 3.20118 0
M  V30 3294 H 296.447 -3.51173 3.5056 0
M  V30 3295 N 295.62 -1.53406 -0.361157 0
M  V30 3296 C 296.868 -1.69467 -1.10115 0
M  V30 3297 C 297.189 -0.451352 -1.89705 0
M  V30 3298 O 296.459 0.534636 -1.88463 0
M  V30 3299 H 295.039 -0.624749 -0.409508 0
M  V30 3300 H 297.701 -1.90609 -0.406699 0
M  V30 3301 H 296.797 -2.55774 -1.78847 0
M  V30 3302 N 297.098 0.621204 -1.44841 0
M  V30 3303 C 298.326 1.40752 -1.51646 0
M  V30 3304 C 298.741 1.88246 -0.144549 0
M  V30 3305 O 298.098 1.61422 0.851416 0
M  V30 3306 C 298.149 2.62119 -2.4895 0
M  V30 3307 O 297.87 2.16602 -3.80808 0
M  V30 3308 C 299.371 3.55135 -2.65319 0
M  V30 3309 H 296.591 0.431325 -0.514004 0
M  V30 3310 H 299.135 0.758835 -1.899 0
M  V30 3311 H 297.29 3.23058 -2.13805 0
M  V30 3312 H 297.704 2.95358 -4.33433 0
M  V30 3313 H 299.178 4.36874 -3.37409 0
M  V30 3314 H 299.655 4.04592 -1.70886 0
M  V30 3315 H 300.261 3.00058 -3.01405 0
M  V30 3316 N 298.576 1.31904 0.862503 0
M  V30 3317 C 299.987 1.19803 1.43193 0
M  V30 3318 C 300.338 -0.192567 1.95253 0
M  V30 3319 O 299.463 -1.09081 1.86896 0
M  V30 3320 C 300.058 2.16883 2.60283 0
M  V30 3321 C 298.617 2.08692 3.13248 0
M  V30 3322 C 297.764 2.05691 1.85975 0
M  V30 3323 H 300.715 1.43846 0.670365 0
M  V30 3324 H 300.736 1.76278 3.37204 0
M  V30 3325 H 300.248 3.18083 2.22363 0
M  V30 3326 H 298.349 1.10713 3.55771 0
M  V30 3327 H 298.462 2.9815 3.75025 0
M  V30 3328 H 296.826 1.50814 2.05249 0
M  V30 3329 H 297.609 3.08659 1.50282 0
M  V30 3330 N 300.054 -1.07777 1.14986 0
M  V30 3331 C 300.964 -2.18404 0.856546 0
M  V30 3332 C 301.98 -1.73211 -0.165485 0
M  V30 3333 O 303.156 -2.01399 0.00755219 0
M  V30 3334 C 300.221 -3.44977 0.34526 0
M  V30 3335 C 299.282 -4.0476 1.43065 0
M  V30 3336 C 298.515 -5.25291 0.943663 0
M  V30 3337 O 298.738 -5.70004 -0.212426 0
M  V30 3338 O 297.672 -5.76638 1.72547 0
M  V30 3339 H 301.498 -2.45978 1.78125 0
M  V30 3340 H 299.083 -1.17033 0.928631 0
M  V30 3341 H 300.965 -4.21348 0.0663671 0
M  V30 3342 H 299.64 -3.18965 -0.551631 0
M  V30 3343 H 298.547 -3.29949 1.76309 0
M  V30 3344 H 299.88 -4.35035 2.30229 0
M  V30 3345 N 301.532 -0.945985 -1.26051 0
M  V30 3346 C 302.762 -0.612136 -1.97323 0
M  V30 3347 C 303.17 0.818171 -1.70595 0
M  V30 3348 O 302.513 1.55777 -0.973613 0
M  V30 3349 C 302.575 -0.780347 -3.50929 0
M  V30 3350 C 302.239 -2.18619 -4.01317 0
M  V30 3351 C 303.236 -3.16209 -4.12683 0
M  V30 3352 C 300.921 -2.50805 -4.35203 0
M  V30 3353 C 302.915 -4.44085 -4.57238 0
M  V30 3354 C 300.602 -3.78912 -4.79446 0
M  V30 3355 C 301.6 -4.75365 -4.90425 0
M  V30 3356 O 301.288 -6.01191 -5.3369 0
M  V30 3357 H 301.02 -0.229134 -0.635982 0
M  V30 3358 H 303.574 -1.27036 -1.61404 0
M  V30 3359 H 301.804 -0.0649864 -3.86645 0
M  V30 3360 H 303.493 -0.448842 -4.03411 0
M  V30 3361 H 304.259 -2.92668 -3.86744 0
M  V30 3362 H 300.138 -1.76463 -4.2589 0
M  V30 3363 H 303.682 -5.19373 -4.65723 0
M  V30 3364 H 299.579 -4.02265 -5.0483 0
M  V30 3365 H 300.347 -6.04442 -5.51899 0
M  V30 3366 N 303.011 1.40521 -0.713556 0
M  V30 3367 C 303.941 2.33381 -0.0743864 0
M  V30 3368 C 304.922 1.52784 0.747735 0
M  V30 3369 O 306.107 1.81258 0.697071 0
M  V30 3370 C 303.237 3.36748 0.849598 0
M  V30 3371 C 302.191 4.27793 0.133247 0
M  V30 3372 C 301.517 5.21679 1.17281 0
M  V30 3373 C 302.817 5.12415 -1.01134 0
M  V30 3374 H 304.511 2.87081 -0.850007 0
M  V30 3375 H 302.057 1.38034 -0.410201 0
M  V30 3376 H 304.01 4.00648 1.30612 0
M  V30 3377 H 302.734 2.81439 1.65709 0
M  V30 3378 H 301.393 3.65342 -0.303426 0
M  V30 3379 H 301.041 4.62677 1.9733 0
M  V30 3380 H 300.741 5.83435 0.698397 0
M  V30 3381 H 302.265 5.88456 1.62947 0
M  V30 3382 H 303.679 5.69781 -0.634274 0
M  V30 3383 H 302.076 5.83203 -1.41399 0
M  V30 3384 H 303.146 4.48514 -1.84292 0
M  V30 3385 N 304.489 0.459591 1.5075 0
M  V30 3386 C 305.452 -0.329093 2.26825 0
M  V30 3387 C 306.452 -0.930481 1.31144 0
M  V30 3388 O 307.642 -0.801453 1.54669 0
M  V30 3389 C 304.774 -1.46768 3.07688 0
M  V30 3390 H 305.967 0.337924 2.9799 0
M  V30 3391 H 303.52 0.213336 1.54837 0
M  V30 3392 H 304.255 -2.17009 2.40993 0
M  V30 3393 H 304.04 -1.04238 3.77991 0
M  V30 3394 H 305.53 -2.02433 3.65254 0
M  V30 3395 N 305.967 -1.56429 0.191757 0
M  V30 3396 C 307.378 -1.83912 -0.321428 0
M  V30 3397 C 307.729 -1.11231 -1.61623 0
M  V30 3398 O 306.854 -0.37202 -2.13178 0
M  V30 3399 C 307.449 -3.33624 -0.589961 0
M  V30 3400 C 306.008 -3.6153 -1.04753 0
M  V30 3401 C 305.155 -2.7714 -0.0943327 0
M  V30 3402 H 308.106 -1.53161 0.415612 0
M  V30 3403 H 308.127 -3.52213 -1.43966 0
M  V30 3404 H 307.639 -3.86495 0.352588 0
M  V30 3405 H 305.74 -3.14089 -2.00447 0
M  V30 3406 H 305.853 -4.69737 -0.942549 0
M  V30 3407 H 304.217 -2.47638 -0.595589 0
M  V30 3408 H 305 -3.32799 0.842601 0
M  V30 3409 N 307.445 0.0818655 -1.57387 0
M  V30 3410 C 308.355 1.11642 -2.06333 0
M  V30 3411 C 309.371 1.43033 -0.99083 0
M  V30 3412 O 310.547 1.53411 -1.30488 0
M  V30 3413 C 307.612 2.41342 -2.48907 0
M  V30 3414 C 306.673 2.17014 -3.7041 0
M  V30 3415 C 305.906 3.4053 -4.10944 0
M  V30 3416 O 306.129 4.4927 -3.51444 0
M  V30 3417 O 305.063 3.29336 -5.03807 0
M  V30 3418 H 308.889 0.730657 -2.9478 0
M  V30 3419 H 306.474 0.295301 -1.46452 0
M  V30 3420 H 308.356 3.17691 -2.76858 0
M  V30 3421 H 307.031 2.79319 -1.63593 0
M  V30 3422 H 305.938 1.38403 -3.47556 0
M  V30 3423 H 307.271 1.83923 -4.56545 0
M  V30 3424 N 308.923 1.53595 0.353017 0
M  V30 3425 C 310.172 1.69603 1.09168 0
M  V30 3426 C 310.485 0.460925 1.90092 0
M  V30 3427 O 311.691 0.501774 2.66823 0
M  V30 3428 C 310.147 2.99872 1.9901 0
M  V30 3429 C 309.755 4.30687 1.23339 0
M  V30 3430 C 311.499 3.25246 2.72792 0
M  V30 3431 C 309.406 5.52036 2.12156 0
M  V30 3432 H 308.336 0.631966 0.411261 0
M  V30 3433 H 310.987 1.80096 0.351802 0
M  V30 3434 H 309.369 2.83212 2.7678 0
M  V30 3435 H 310.543 4.58019 0.505456 0
M  V30 3436 H 308.858 4.11853 0.613663 0
M  V30 3437 H 311.455 4.13095 3.39495 0
M  V30 3438 H 311.798 2.41846 3.38846 0
M  V30 3439 H 312.331 3.42638 2.021 0
M  V30 3440 H 309.07 6.37951 1.50659 0
M  V30 3441 H 308.59 5.28966 2.82764 0
M  V30 3442 H 310.269 5.87313 2.71427 0
M  V30 3443 N 310.401 -0.613514 1.45168 0
M  V30 3444 C 311.65 -1.36874 1.4815 0
M  V30 3445 C 311.963 -1.952 0.124982 0
M  V30 3446 O 313.169 -2.71481 0.0324176 0
M  V30 3447 C 311.625 -2.47905 2.60904 0
M  V30 3448 C 311.233 -1.96016 4.02842 0
M  V30 3449 C 312.977 -3.24965 2.73126 0
M  V30 3450 C 310.884 -3.04494 5.06988 0
M  V30 3451 H 309.814 -0.514428 0.551253 0
M  V30 3452 H 312.465 -0.658182 1.7129 0
M  V30 3453 H 310.847 -3.21618 2.31037 0
M  V30 3454 H 312.021 -1.29051 4.4236 0
M  V30 3455 H 310.336 -1.31719 3.95018 0
M  V30 3456 H 312.933 -4.05865 3.48106 0
M  V30 3457 H 313.276 -3.75588 1.79553 0
M  V30 3458 H 313.809 -2.5835 3.0249 0
M  V30 3459 H 310.548 -2.58795 6.0225 0
M  V30 3460 H 310.068 -3.70044 4.72046 0
M  V30 3461 H 311.747 -3.68976 5.31475 0
M  V30 3462 N 311.879 -1.3236 -0.855495 0
M  V30 3463 C 312.809 -1.23833 -1.97958 0
M  V30 3464 C 313.79 -0.122361 -1.69659 0
M  V30 3465 O 314.975 -0.30939 -1.9172 0
M  V30 3466 C 312.105 -0.959772 -3.33775 0
M  V30 3467 C 311.059 -2.03689 -3.76424 0
M  V30 3468 C 310.385 -1.61075 -5.09862 0
M  V30 3469 C 311.685 -3.4518 -3.9198 0
M  V30 3470 H 313.379 -2.1788 -2.0535 0
M  V30 3471 H 310.925 -1.04891 -0.986605 0
M  V30 3472 H 312.878 -0.886678 -4.11966 0
M  V30 3473 H 311.602 0.0163404 -3.26596 0
M  V30 3474 H 310.261 -2.10012 -3.00484 0
M  V30 3475 H 309.909 -0.622107 -4.99138 0
M  V30 3476 H 309.609 -2.33143 -5.39368 0
M  V30 3477 H 311.133 -1.55201 -5.90546 0
M  V30 3478 H 312.547 -3.4145 -4.60526 0
M  V30 3479 H 310.944 -4.1559 -4.32903 0
M  V30 3480 H 312.014 -3.84903 -2.94919 0
M  V30 3481 N 313.357 1.07166 -1.15556 0
M  V30 3482 C 314.582 1.84053 -0.955988 0
M  V30 3483 C 315.007 1.81586 0.490739 0
M  V30 3484 O 314.365 1.21018 1.34997 0
M  V30 3485 C 314.413 3.28957 -1.47714 0
M  V30 3486 O 313.517 4.06795 -0.677593 0
M  V30 3487 H 312.858 0.569842 -0.340847 0
M  V30 3488 H 315.388 1.35178 -1.53584 0
M  V30 3489 H 315.398 3.79788 -1.4908 0
M  V30 3490 H 314.073 3.30068 -2.53037 0
M  V30 3491 H 312.65 3.6561 -0.733721 0
M  V30 3492 N 314.835 0.952656 1.25548 0
M  V30 3493 C 315.782 0.47008 2.25962 0
M  V30 3494 C 316.752 -0.476384 1.59122 0
M  V30 3495 O 317.937 -0.39007 1.8677 0
M  V30 3496 C 315.077 -0.247881 3.44209 0
M  V30 3497 C 314.19 0.735591 4.25691 0
M  V30 3498 C 313.325 -0.0047306 5.312 0
M  V30 3499 C 312.364 0.969805 6.04368 0
M  V30 3500 N 311.501 0.260486 7.01617 0
M  V30 3501 H 316.341 1.33126 2.66611 0
M  V30 3502 H 313.878 0.66765 1.31076 0
M  V30 3503 H 315.836 -0.680695 4.1161 0
M  V30 3504 H 314.466 -1.07312 3.0444 0
M  V30 3505 H 313.518 1.28689 3.57971 0
M  V30 3506 H 314.83 1.47934 4.76358 0
M  V30 3507 H 313.984 -0.496275 6.04667 0
M  V30 3508 H 312.723 -0.781282 4.81401 0
M  V30 3509 H 311.728 1.47237 5.29718 0
M  V30 3510 H 312.953 1.74655 6.56256 0
M  V30 3511 H 310.899 -0.497364 6.54112 0
M  V30 3512 H 310.816 0.943362 7.50091 0
M  V30 3513 H 312.084 -0.209587 7.79218 0
M  V30 3514 N 316.313 -1.40141 0.720998 0
M  V30 3515 C 317.561 -2.0039 0.262323 0
M  V30 3516 C 317.882 -1.57469 -1.15015 0
M  V30 3517 O 317.152 -0.816582 -1.78069 0
M  V30 3518 H 315.732 -0.741063 0.093996 0
M  V30 3519 H 318.394 -1.71398 0.927835 0
M  V30 3520 H 317.49 -3.10658 0.299671 0
M  V30 3521 N 317.792 -0.46758 -1.50504 0
M  V30 3522 C 319.022 0.086288 -2.0642 0
M  V30 3523 C 319.43 1.34369 -1.33197 0
M  V30 3524 O 318.773 1.79431 -0.393747 0
M  V30 3525 C 318.835 0.443846 -3.5675 0
M  V30 3526 C 318.499 -0.711035 -4.51435 0
M  V30 3527 C 319.496 -1.59205 -4.94924 0
M  V30 3528 C 317.181 -0.900363 -4.94165 0
M  V30 3529 C 319.175 -2.64683 -5.79846 0
M  V30 3530 C 316.862 -1.95837 -5.7887 0
M  V30 3531 C 317.86 -2.82997 -6.21612 0
M  V30 3532 O 317.548 -3.86977 -7.0463 0
M  V30 3533 H 317.28 -0.00217814 -0.675996 0
M  V30 3534 H 319.834 -0.654346 -1.94698 0
M  V30 3535 H 318.064 1.23762 -3.6636 0
M  V30 3536 H 319.753 0.932386 -3.95046 0
M  V30 3537 H 320.519 -1.45745 -4.62583 0
M  V30 3538 H 316.398 -0.231427 -4.60419 0
M  V30 3539 H 319.942 -3.32745 -6.13128 0
M  V30 3540 H 315.839 -2.09305 -6.10624 0
M  V30 3541 H 316.607 -3.83923 -7.22873 0
M  V30 3542 N 319.27 1.56325 -0.20005 0
M  V30 3543 C 320.218 2.20666 0.735482 0
M  V30 3544 C 321.212 1.17934 1.21605 0
M  V30 3545 O 322.418 1.36068 1.17837 0
M  V30 3546 H 318.793 0.70725 0.255542 0
M  V30 3547 H 320.764 2.9792 0.169166 0
M  V30 3548 C 319.513 2.88391 1.94232 0
M  V30 3549 H 318.836 3.67185 1.58161 0
M  V30 3550 H 320.276 3.3684 2.57517 0
M  V30 3551 C 318.735 1.89692 2.78421 0
M  V30 3552 O 319.265 1.40032 3.76502 0
M  V30 3553 N 317.471 1.57813 2.44015 0
M  V30 3554 H 317.018 1.9839 1.64314 0
M  V30 3555 H 316.976 0.920325 3.00628 0
M  V30 3556 N 320.748 -0.0735177 1.57428 0
M  V30 3557 C 321.695 -1.08756 2.0357 0
M  V30 3558 C 322.665 -1.38559 0.916 0
M  V30 3559 O 323.85 -1.49656 1.18354 0
M  V30 3560 C 320.99 -2.39657 2.48311 0
M  V30 3561 C 320.103 -2.16399 3.73892 0
M  V30 3562 C 319.238 -3.40852 4.07423 0
M  V30 3563 C 318.277 -3.1295 5.2605 0
M  V30 3564 N 317.414 -4.29729 5.55228 0
M  V30 3565 H 322.254 -0.687104 2.8997 0
M  V30 3566 H 319.791 -0.327709 1.43403 0
M  V30 3567 H 321.749 -3.16081 2.72303 0
M  V30 3568 H 320.379 -2.77508 1.64891 0
M  V30 3569 H 319.431 -1.30676 3.57251 0
M  V30 3570 H 320.743 -1.91788 4.60455 0
M  V30 3571 H 319.897 -4.25671 4.32306 0
M  V30 3572 H 318.636 -3.68537 3.19425 0
M  V30 3573 H 317.641 -2.26526 5.00965 0
M  V30 3574 H 318.866 -2.86589 6.15665 0
M  V30 3575 H 316.812 -4.57448 4.70188 0
M  V30 3576 H 316.729 -4.08385 6.36206 0
M  V30 3577 H 317.997 -5.1555 5.84661 0
M  V30 3578 N 322.226 -1.5378 -0.344866 0
M  V30 3579 C 323.189 -1.80981 -1.40637 0
M  V30 3580 C 324.189 -0.680816 -1.45676 0
M  V30 3581 O 325.379 -0.949095 -1.46075 0
M  V30 3582 C 322.511 -1.95063 -2.79577 0
M  V30 3583 H 323.704 -2.75803 -1.17783 0
M  V30 3584 H 321.257 -1.45173 -0.579181 0
M  V30 3585 H 321.992 -1.02379 -3.07716 0
M  V30 3586 H 321.777 -2.77198 -2.77315 0
M  V30 3587 H 323.267 -2.17629 -3.56409 0
M  V30 3588 N 323.704 0.605807 -1.45491 0
M  V30 3589 C 324.95 1.36679 -1.49823 0
M  V30 3590 C 325.283 1.93693 -0.140175 0
M  V30 3591 O 324.558 1.75158 0.845581 0
M  V30 3592 C 324.841 2.51337 -2.57879 0
M  V30 3593 C 324.694 1.99508 -4.03134 0
M  V30 3594 C 326.013 3.53463 -2.62205 0
M  V30 3595 H 323.132 0.495617 -0.545466 0
M  V30 3596 H 325.774 0.682732 -1.7731 0
M  V30 3597 H 323.924 3.09691 -2.34571 0
M  V30 3598 H 325.596 1.45789 -4.37656 0
M  V30 3599 H 323.839 1.30496 -4.13707 0
M  V30 3600 H 324.51 2.82169 -4.74431 0
M  V30 3601 H 326.986 3.04953 -2.83095 0
M  V30 3602 H 325.862 4.31178 -3.39672 0
M  V30 3603 H 326.123 4.09197 -1.67363 0
M  V30 3604 N 325.182 1.32811 0.848464 0
M  V30 3605 C 326.459 1.14334 1.58704 0
M  V30 3606 C 326.839 -0.293948 2.09043 0
M  V30 3607 O 326.187 -1.29153 1.88499 0
M  V30 3608 C 326.397 2.17626 2.72837 0
M  V30 3609 C 327.745 2.51282 3.42261 0
M  V30 3610 O 328.769 2.16219 2.83068 0
M  V30 3611 O 327.628 3.11413 4.49093 0
M  V30 3612 H 324.722 0.441601 0.699226 0
M  V30 3613 H 327.268 1.44362 0.892053 0
M  V30 3614 H 326.04 3.14211 2.3321 0
M  V30 3615 H 325.663 1.88628 3.50008 0
M  V30 3616 N 326.66 -1.06551 1.16123 0
M  V30 3617 C 327.906 -1.79719 0.952505 0
M  V30 3618 C 328.261 -1.85396 -0.514385 0
M  V30 3619 O 327.554 -1.33263 -1.37665 0
M  V30 3620 C 327.748 -3.23911 1.51052 0
M  V30 3621 C 327.577 -3.32284 3.03013 0
M  V30 3622 C 326.347 -3.42371 3.71632 0
M  V30 3623 C 328.545 -3.22363 4.00732 0
M  V30 3624 N 326.527 -3.39732 5.11327 0
M  V30 3625 C 327.898 -3.26937 5.26794 0
M  V30 3626 C 329.953 -3.0623 3.92591 0
M  V30 3627 C 328.656 -3.17035 6.45663 0
M  V30 3628 C 330.682 -2.97665 5.11028 0
M  V30 3629 C 330.044 -3.02858 6.35969 0
M  V30 3630 H 326.143 -0.670585 0.402293 0
M  V30 3631 H 328.727 -1.27125 1.4747 0
M  V30 3632 H 326.898 -3.74907 1.01484 0
M  V30 3633 H 328.63 -3.85242 1.2398 0
M  V30 3634 H 325.385 -3.47058 3.22254 0
M  V30 3635 H 325.809 -3.41919 5.84312 0
M  V30 3636 H 330.451 -3.01063 2.96852 0
M  V30 3637 H 328.169 -3.2096 7.41627 0
M  V30 3638 H 331.755 -2.86273 5.06497 0
M  V30 3639 H 330.635 -2.96286 7.26075 0
M  V30 3640 N 328.138 -0.959301 -1.25041 0
M  V30 3641 C 329.384 -0.627096 -1.93492 0
M  V30 3642 C 329.739 0.827484 -1.73696 0
M  V30 3643 O 329.032 1.58651 -1.07427 0
M  V30 3644 C 329.226 -0.927136 -3.45165 0
M  V30 3645 C 329.055 -2.40933 -3.79712 0
M  V30 3646 C 327.825 -3.0677 -4.01522 0
M  V30 3647 C 330.023 -3.38894 -3.86853 0
M  V30 3648 N 328.005 -4.44815 -4.231 0
M  V30 3649 C 329.376 -4.62263 -4.13174 0
M  V30 3650 C 331.431 -3.33668 -3.69554 0
M  V30 3651 C 330.134 -5.81052 -4.23995 0
M  V30 3652 C 332.16 -4.518 -3.81616 0
M  V30 3653 C 331.522 -5.73957 -4.08354 0
M  V30 3654 H 327.621 -0.280166 -0.73009 0
M  V30 3655 H 330.205 -1.23244 -1.50729 0
M  V30 3656 H 328.376 -0.350685 -3.86814 0
M  V30 3657 H 330.108 -0.554361 -4.00885 0
M  V30 3658 H 326.863 -2.57327 -3.97593 0
M  V30 3659 H 327.287 -5.16319 -4.37885 0
M  V30 3660 H 331.929 -2.40268 -3.47895 0
M  V30 3661 H 329.647 -6.74888 -4.44468 0
M  V30 3662 H 333.233 -4.49309 -3.69612 0
M  V30 3663 H 332.113 -6.6384 -4.17475 0
M  V30 3664 N 329.616 1.39756 -0.72842 0
M  V30 3665 C 330.579 2.29012 -0.0927297 0
M  V30 3666 C 331.579 1.45992 0.674025 0
M  V30 3667 O 332.769 1.66749 0.50402 0
M  V30 3668 C 329.901 3.29396 0.878137 0
M  V30 3669 H 331.094 2.86729 -0.879011 0
M  V30 3670 H 328.647 1.48293 -0.493847 0
M  V30 3671 H 329.382 2.76722 1.69101 0
M  V30 3672 H 329.167 3.907 0.331051 0
M  V30 3673 H 330.657 3.96199 1.3197 0
M  V30 3674 N 331.094 0.475555 1.50254 0
M  V30 3675 C 332.024 -0.30611 2.31485 0
M  V30 3676 C 333.005 -0.986228 1.38591 0
M  V30 3677 O 334.19 -0.982541 1.67511 0
M  V30 3678 C 331.32 -1.38588 3.1845 0
M  V30 3679 C 330.274 -0.827115 4.19932 0
M  V30 3680 C 329.6 -2.00551 4.95665 0
M  V30 3681 C 330.9 0.16463 5.2204 0
M  V30 3682 H 332.594 0.371866 2.97082 0
M  V30 3683 H 330.14 0.180282 1.42867 0
M  V30 3684 H 332.093 -1.94023 3.74076 0
M  V30 3685 H 330.817 -2.09269 2.50747 0
M  V30 3686 H 329.476 -0.294702 3.65414 0
M  V30 3687 H 329.124 -2.6994 4.2443 0
M  V30 3688 H 328.824 -1.63784 5.64313 0
M  V30 3689 H 330.348 -2.56468 5.54127 0
M  V30 3690 H 331.762 -0.300699 5.72511 0
M  V30 3691 H 330.159 0.446813 5.98434 0
M  V30 3692 H 331.229 1.08905 4.72512 0
M  V30 3693 N 332.573 -1.56217 0.208337 0
M  V30 3694 C 333.821 -1.97558 -0.426076 0
M  V30 3695 C 334.142 -1.09683 -1.61229 0
M  V30 3696 O 333.412 -0.170956 -1.95153 0
M  V30 3697 H 331.992 -0.729575 -0.160405 0
M  V30 3698 H 334.654 -1.92606 0.298155 0
M  V30 3699 H 333.75 -3.02672 -0.761312 0
M  V30 3700 N 334.051 0.0651679 -1.57465 0
M  V30 3701 C 335.297 0.764193 -1.87851 0
M  V30 3702 C 335.63 1.76889 -0.801495 0
M  V30 3703 O 334.905 1.93594 0.187528 0
M  V30 3704 C 335.188 1.46625 -3.28897 0
M  V30 3705 C 335.041 0.477515 -4.47258 0
M  V30 3706 C 336.36 2.4095 -3.68281 0
M  V30 3707 H 333.479 0.276351 -0.683227 0
M  V30 3708 H 336.121 0.0272868 -1.8998 0
M  V30 3709 H 334.271 2.09438 -3.27212 0
M  V30 3710 H 335.943 -0.145922 -4.61069 0
M  V30 3711 H 334.186 -0.206576 -4.33308 0
M  V30 3712 H 334.857 1.0065 -5.42746 0
M  V30 3713 H 337.333 1.88209 -3.71102 0
M  V30 3714 H 336.209 2.87072 -4.67847 0
M  V30 3715 H 336.47 3.26049 -2.98571 0
M  V30 3716 N 335.529 1.53961 0.336706 0
M  V30 3717 C 336.459 1.85417 1.41925 0
M  V30 3718 C 337.44 0.709856 1.5458 0
M  V30 3719 O 338.625 0.962396 1.68676 0
M  V30 3720 C 335.755 2.06985 2.78881 0
M  V30 3721 C 334.709 3.22813 2.81026 0
M  V30 3722 C 334.035 3.29727 4.20932 0
M  V30 3723 C 335.335 4.60767 2.45949 0
M  V30 3724 H 337.029 2.76079 1.15848 0
M  V30 3725 H 334.575 1.32839 0.555859 0
M  V30 3726 H 336.528 2.27575 3.54665 0
M  V30 3727 H 335.252 1.13061 3.06406 0
M  V30 3728 H 333.911 3.0209 2.07695 0
M  V30 3729 H 333.559 2.33385 4.45579 0
M  V30 3730 H 333.259 4.07566 4.23277 0
M  V30 3731 H 334.783 3.52536 4.98549 0
M  V30 3732 H 336.197 4.81325 3.11446 0
M  V30 3733 H 334.594 5.4106 2.59566 0
M  V30 3734 H 335.664 4.6391 1.41122 0
M  V30 3735 N 337.007 -0.598083 1.45811 0
M  V30 3736 C 338.256 -1.35295 1.49594 0
M  V30 3737 C 338.569 -1.95057 0.145679 0
M  V30 3738 O 339.775 -2.71431 0.0612099 0
M  V30 3739 C 338.231 -2.45124 2.63519 0
M  V30 3740 C 337.839 -1.91732 4.04899 0
M  V30 3741 C 339.583 -3.2205 2.76558 0
M  V30 3742 C 337.49 -2.991 5.1019 0
M  V30 3743 H 336.42 -0.508552 0.556679 0
M  V30 3744 H 339.071 -0.639977 1.71978 0
M  V30 3745 H 337.453 -3.19149 2.34435 0
M  V30 3746 H 338.627 -1.24352 4.43704 0
M  V30 3747 H 336.942 -1.27522 3.96393 0
M  V30 3748 H 339.539 -4.0215 3.52391 0
M  V30 3749 H 339.882 -3.73663 1.83526 0
M  V30 3750 H 340.415 -2.55127 3.05213 0
M  V30 3751 H 337.154 -2.52393 6.04961 0
M  V30 3752 H 336.674 -3.65017 4.75944 0
M  V30 3753 H 338.353 -3.63318 5.35359 0
M  V30 3754 N 338.485 -1.33259 -0.841409 0
M  V30 3755 C 339.715 -1.2742 -1.62628 0
M  V30 3756 C 340.123 0.157604 -1.88542 0
M  V30 3757 O 339.466 1.10938 -1.46419 0
M  V30 3758 C 339.528 -1.97797 -3.00194 0
M  V30 3759 C 339.192 -3.47109 -2.97261 0
M  V30 3760 C 340.189 -4.42358 -2.73159 0
M  V30 3761 C 337.874 -3.89247 -3.17478 0
M  V30 3762 C 339.868 -5.77718 -2.69296 0
M  V30 3763 C 337.555 -5.24713 -3.13241 0
M  V30 3764 C 338.553 -6.1876 -2.89181 0
M  V30 3765 O 338.241 -7.51745 -2.84843 0
M  V30 3766 H 337.973 -0.440436 -0.512827 0
M  V30 3767 H 340.527 -1.76153 -1.05638 0
M  V30 3768 H 338.757 -1.43652 -3.59028 0
M  V30 3769 H 340.446 -1.8549 -3.61038 0
M  V30 3770 H 341.212 -4.11127 -2.57294 0
M  V30 3771 H 337.091 -3.16456 -3.35226 0
M  V30 3772 H 340.635 -6.51097 -2.50436 0
M  V30 3773 H 336.532 -5.55569 -3.28654 0
M  V30 3774 H 337.3 -7.61262 -3.00702 0
M  V30 3775 N 339.963 1.05934 -1.16686 0
M  V30 3776 C 340.873 2.17014 -0.891183 0
M  V30 3777 C 341.889 1.73453 0.137907 0
M  V30 3778 O 343.065 2.01361 -0.039592 0
M  V30 3779 C 340.13 3.44384 -0.400099 0
M  V30 3780 C 339.191 4.02433 -1.49486 0
M  V30 3781 C 338.424 5.23723 -1.02711 0
M  V30 3782 O 338.647 5.7027 0.121716 0
M  V30 3783 O 337.581 5.7382 -1.81699 0
M  V30 3784 H 341.407 2.43113 -1.82015 0
M  V30 3785 H 338.992 1.15541 -0.947132 0
M  V30 3786 H 340.874 4.21189 -0.133392 0
M  V30 3787 H 339.549 3.19802 0.500817 0
M  V30 3788 H 338.456 3.27102 -1.81535 0
M  V30 3789 H 339.789 4.31317 -2.37121 0
M  V30 3790 N 341.441 0.965919 1.2453 0
M  V30 3791 C 342.374 0.4393 2.23932 0
M  V30 3792 C 343.352 -0.485615 1.55179 0
M  V30 3793 O 344.536 -0.417402 1.83821 0
M  V30 3794 C 341.663 -0.366042 3.36716 0
M  V30 3795 C 340.709 0.5009 4.23548 0
M  V30 3796 S 341.542 1.94002 4.99123 0
M  V30 3797 C 342.698 1.14342 6.15367 0
M  V30 3798 H 342.931 1.28167 2.68254 0
M  V30 3799 H 340.464 0.770819 1.33782 0
M  V30 3800 H 342.422 -0.824724 4.0213 0
M  V30 3801 H 341.083 -1.18337 2.90956 0
M  V30 3802 H 340.276 -0.117341 5.03863 0
M  V30 3803 H 339.878 0.89524 3.63127 0
M  V30 3804 H 342.17 0.397572 6.76332 0
M  V30 3805 H 343.113 1.92089 6.81548 0
M  V30 3806 H 343.521 0.668579 5.60527 0
M  V30 3807 N 342.919 -1.39368 0.735821 0
M  V30 3808 C 343.882 -2.2896 0.104874 0
M  V30 3809 C 344.882 -1.46347 -0.666274 0
M  V30 3810 O 346.072 -1.67014 -0.49517 0
M  V30 3811 C 343.204 -3.29857 -0.860656 0
M  V30 3812 H 344.397 -2.86259 0.894205 0
M  V30 3813 H 341.95 -1.48029 0.501704 0
M  V30 3814 H 342.685 -2.77615 -1.67631 0
M  V30 3815 H 342.47 -3.9087 -0.310327 0
M  V30 3816 H 343.96 -3.96893 -1.29867 0
M  V30 3817 N 344.397 -0.483516 -1.5 0
M  V30 3818 C 345.36 0.292965 -2.2732 0
M  V30 3819 C 346.36 0.909499 -1.32608 0
M  V30 3820 O 347.55 0.776745 -1.55924 0
M  V30 3821 C 344.682 1.41854 -3.09984 0
M  V30 3822 H 345.875 -0.385289 -2.97415 0
M  V30 3823 H 343.428 -0.237942 -1.54478 0
M  V30 3824 H 344.163 2.13148 -2.44414 0
M  V30 3825 H 343.948 0.982114 -3.79601 0
M  V30 3826 H 345.438 1.96597 -3.68429 0
M  V30 3827 N 345.875 1.56104 -0.216619 0
M  V30 3828 C 347.123 1.97781 0.415593 0
M  V30 3829 C 347.444 1.10536 1.60645 0
M  V30 3830 O 346.714 0.181303 1.95059 0
M  V30 3831 H 345.294 0.730415 0.156534 0
M  V30 3832 H 347.956 1.92445 -0.308366 0
M  V30 3833 H 347.052 3.03072 0.74525 0
M  V30 3834 N 347.353 -0.0568162 1.57498 0
M  V30 3835 C 348.583 -0.764515 1.91934 0
M  V30 3836 C 348.991 -1.70877 0.81227 0
M  V30 3837 O 348.334 -1.82351 -0.222213 0
M  V30 3838 C 348.396 -1.5994 3.21962 0
M  V30 3839 C 348.06 -0.822925 4.4953 0
M  V30 3840 C 349.057 -0.135464 5.19723 0
M  V30 3841 C 346.742 -0.785666 4.96117 0
M  V30 3842 C 348.736 0.578861 6.34766 0
M  V30 3843 C 346.423 -0.0675784 6.11063 0
M  V30 3844 C 347.421 0.613471 6.80239 0
M  V30 3845 O 347.109 1.31996 7.92989 0
M  V30 3846 H 346.841 -0.221647 0.63863 0
M  V30 3847 H 349.395 -0.0268218 2.05382 0
M  V30 3848 H 347.625 -2.38026 3.04763 0
M  V30 3849 H 349.314 -2.18715 3.41934 0
M  V30 3850 H 350.08 -0.155458 4.84751 0
M  V30 3851 H 345.959 -1.30524 4.42136 0
M  V30 3852 H 349.503 1.111 6.88696 0
M  V30 3853 H 345.4 -0.0455636 6.45484 0
M  V30 3854 H 346.168 1.23077 8.09194 0
M  V30 3855 N 348.832 -1.54138 -0.328536 0
M  V30 3856 C 350.243 -1.63395 -0.903272 0
M  V30 3857 C 350.594 -0.524828 -1.8905 0
M  V30 3858 O 349.719 0.343068 -2.13663 0
M  V30 3859 C 350.314 -2.9618 -1.64507 0
M  V30 3860 C 348.873 -3.0765 -2.1686 0
M  V30 3861 C 348.02 -2.58933 -0.992416 0
M  V30 3862 H 350.971 -1.58344 -0.106253 0
M  V30 3863 H 350.992 -2.86061 -2.50897 0
M  V30 3864 H 350.504 -3.76884 -0.926302 0
M  V30 3865 H 348.605 -2.31611 -2.91868 0
M  V30 3866 H 348.718 -4.1337 -2.42202 0
M  V30 3867 H 347.082 -2.14706 -1.37016 0
M  V30 3868 H 347.865 -3.42089 -0.288041 0
M  V30 3869 N 350.31 0.590341 -1.46126 0
M  V30 3870 C 351.721 1.17243 -1.45296 0
M  V30 3871 C 352.072 1.95281 -0.189723 0
M  V30 3872 O 351.197 2.04502 0.707674 0
M  V30 3873 C 351.792 2.13284 -2.6324 0
M  V30 3874 C 350.351 2.66832 -2.65476 0
M  V30 3875 C 349.498 1.42557 -2.3785 0
M  V30 3876 H 352.449 0.378692 -1.54116 0
M  V30 3877 H 352.47 2.96619 -2.38323 0
M  V30 3878 H 351.982 1.56459 -3.55165 0
M  V30 3879 H 350.083 3.27548 -1.77603 0
M  V30 3880 H 350.196 3.10088 -3.65215 0
M  V30 3881 H 348.56 1.72107 -1.87753 0
M  V30 3882 H 349.343 0.875741 -3.31942 0
M  V30 3883 N 351.788 1.33704 0.83433 0
M  V30 3884 C 353.035 1.25417 1.58987 0
M  V30 3885 C 353.363 -0.178869 1.93676 0
M  V30 3886 O 352.618 -1.13723 1.59265 0
M  V30 3887 C 352.917 2.07926 2.90692 0
M  V30 3888 C 352.583 3.57066 2.75345 0
M  V30 3889 C 351.245 3.97724 2.70867 0
M  V30 3890 C 353.597 4.51817 2.59828 0
M  V30 3891 C 350.925 5.31344 2.48778 0
M  V30 3892 C 353.277 5.85604 2.39272 0
M  V30 3893 C 351.941 6.25439 2.33199 0
M  V30 3894 H 351.211 0.458934 0.581774 0
M  V30 3895 H 353.858 1.65335 0.966261 0
M  V30 3896 H 352.163 1.608 3.57282 0
M  V30 3897 H 353.86 1.98868 3.48213 0
M  V30 3898 H 350.45 3.24785 2.79665 0
M  V30 3899 H 354.634 4.21311 2.62319 0
M  V30 3900 H 349.89 5.61241 2.42526 0
M  V30 3901 H 354.064 6.58623 2.2625 0
M  V30 3902 H 351.691 7.28914 2.15843 0
M  V30 3903 N 353.266 -1.05314 1.17247 0
M  V30 3904 C 354.513 -1.78293 0.960091 0
M  V30 3905 C 354.841 -1.87658 -0.51136 0
M  V30 3906 O 354.096 -1.3718 -1.39571 0
M  V30 3907 C 354.395 -3.2229 1.54479 0
M  V30 3908 C 354.061 -3.32987 3.04024 0
M  V30 3909 C 352.723 -3.35613 3.44844 0
M  V30 3910 C 355.075 -3.34102 4.00031 0
M  V30 3911 C 352.403 -3.36982 4.8027 0
M  V30 3912 C 354.755 -3.3701 5.35357 0
M  V30 3913 C 353.419 -3.37923 5.75642 0
M  V30 3914 H 352.689 -0.652422 0.351322 0
M  V30 3915 H 355.336 -1.23782 1.46117 0
M  V30 3916 H 353.641 -3.7972 0.965391 0
M  V30 3917 H 355.338 -3.77376 1.35603 0
M  V30 3918 H 351.928 -3.31655 2.71483 0
M  V30 3919 H 356.112 -3.31276 3.69554 0
M  V30 3920 H 351.368 -3.35999 5.10798 0
M  V30 3921 H 355.542 -3.36822 6.09528 0
M  V30 3922 H 353.169 -3.38738 6.80559 0
M  V30 3923 N 354.744 -0.972509 -1.24016 0
M  V30 3924 C 355.707 -0.511403 -2.23422 0
M  V30 3925 C 356.707 0.394679 -1.55881 0
M  V30 3926 O 357.897 0.189469 -1.73167 0
M  V30 3927 C 355.029 0.258769 -3.39916 0
M  V30 3928 H 356.222 -1.39024 -2.6573 0
M  V30 3929 H 353.775 -0.757585 -1.36713 0
M  V30 3930 H 354.51 1.1545 -3.03054 0
M  V30 3931 H 354.295 -0.391522 -3.9014 0
M  V30 3932 H 355.785 0.570244 -4.13688 0
M  V30 3933 N 356.222 1.38976 -0.743202 0
M  V30 3934 C 357.499 1.94351 -0.220705 0
M  V30 3935 C 357.879 1.67935 1.2791 0
M  V30 3936 O 357.227 1.01211 2.04862 0
M  V30 3937 C 357.437 3.44426 -0.563171 0
M  V30 3938 C 358.785 4.2144 -0.517046 0
M  V30 3939 O 359.809 3.52661 -0.500846 0
M  V30 3940 O 358.668 5.44032 -0.518806 0
M  V30 3941 H 355.762 0.825879 -0.043047 0
M  V30 3942 H 358.308 1.48429 -0.822618 0
M  V30 3943 H 357.08 3.5712 -1.59941 0
M  V30 3944 H 356.703 3.97543 0.0672883 0
M  V30 3945 N 357.7 0.491464 1.49741 0
M  V30 3946 C 358.632 -0.328609 2.26832 0
M  V30 3947 C 359.645 -0.939113 1.32983 0
M  V30 3948 O 360.834 -0.824067 1.58339 0
M  V30 3949 C 357.934 -1.47675 3.05033 0
M  V30 3950 C 357.107 -0.975305 4.26388 0
M  V30 3951 C 356.166 -1.99991 4.86714 0
M  V30 3952 O 355.192 -1.57229 5.47054 0
M  V30 3953 N 356.394 -3.32962 4.75517 0
M  V30 3954 H 359.159 0.332377 2.97851 0
M  V30 3955 H 356.72 0.323441 1.58636 0
M  V30 3956 H 358.712 -2.15954 3.42266 0
M  V30 3957 H 357.282 -2.04206 2.36683 0
M  V30 3958 H 356.502 -0.117723 3.94024 0
M  V30 3959 H 357.79 -0.618531 5.05026 0
M  V30 3960 H 357.188 -3.70399 4.27576 0
M  V30 3961 H 355.745 -3.96982 5.16961 0
M  V30 3962 N 359.178 -1.55987 0.224894 0
M  V30 3963 C 360.589 -1.84553 -0.282345 0
M  V30 3964 C 360.94 -1.14634 -1.59227 0
M  V30 3965 O 360.065 -0.417155 -2.12341 0
M  V30 3966 C 360.66 -3.348 -0.519062 0
M  V30 3967 C 359.219 -3.63671 -0.970604 0
M  V30 3968 C 358.366 -2.77277 -0.0355261 0
M  V30 3969 H 361.317 -1.52245 0.448006 0
M  V30 3970 H 361.338 -3.55187 -1.36463 0
M  V30 3971 H 360.85 -3.8566 0.43449 0
M  V30 3972 H 358.951 -3.1827 -1.9374 0
M  V30 3973 H 359.064 -4.71631 -0.842698 0
M  V30 3974 H 357.428 -2.48846 -0.542927 0
M  V30 3975 H 358.211 -3.30937 0.913003 0
M  V30 3976 N 360.656 0.0484629 -1.57525 0
M  V30 3977 C 361.905 0.742065 -1.87553 0
M  V30 3978 C 362.218 1.77545 -0.820802 0
M  V30 3979 O 363.424 2.52027 -1.00967 0
M  V30 3980 C 361.88 1.37081 -3.32771 0
M  V30 3981 C 361.488 0.374786 -4.4643 0
M  V30 3982 C 363.232 2.04542 -3.71972 0
M  V30 3983 C 361.139 1.01077 -5.82698 0
M  V30 3984 H 360.069 0.280903 -0.699721 0
M  V30 3985 H 362.72 -0.00411877 -1.835 0
M  V30 3986 H 361.102 2.16605 -3.31509 0
M  V30 3987 H 362.276 -0.392331 -4.59127 0
M  V30 3988 H 360.591 -0.196653 -4.15935 0
M  V30 3989 H 363.188 2.52943 -4.71088 0
M  V30 3990 H 363.531 2.85515 -3.02964 0
M  V30 3991 H 364.064 1.31819 -3.75325 0
M  V30 3992 H 360.803 0.240878 -6.55057 0
M  V30 3993 H 360.323 1.74819 -5.73758 0
M  V30 3994 H 362.002 1.52383 -6.28799 0
M  V30 3995 N 362.134 1.5431 0.320358 0
M  V30 3996 C 363.066 1.80262 1.41556 0
M  V30 3997 C 364.079 0.684723 1.477 0
M  V30 3998 O 365.268 0.961886 1.50366 0
M  V30 3999 C 362.368 1.90825 2.8007 0
M  V30 4000 C 361.541 3.21023 2.97091 0
M  V30 4001 C 360.6 3.22247 4.15985 0
M  V30 4002 O 359.626 3.95871 4.08992 0
M  V30 4003 N 360.828 2.46258 5.25678 0
M  V30 4004 H 363.593 2.74778 1.19655 0
M  V30 4005 H 361.154 1.53646 0.510358 0
M  V30 4006 H 363.146 1.89067 3.57821 0
M  V30 4007 H 361.716 1.03392 2.95006 0
M  V30 4008 H 360.936 3.35715 2.06614 0
M  V30 4009 H 362.224 4.0698 3.05361 0
M  V30 4010 H 361.622 1.86037 5.34235 0
M  V30 4011 H 360.179 2.50275 6.01835 0
M  V30 4012 N 363.613 -0.582584 1.46437 0
M  V30 4013 C 364.862 -1.337 1.5102 0
M  V30 4014 C 365.175 -1.94891 0.166359 0
M  V30 4015 O 366.381 -2.71351 0.0899954 0
M  V30 4016 C 364.837 -2.42315 2.66104 0
M  V30 4017 C 364.445 -1.87427 4.06909 0
M  V30 4018 C 366.189 -3.19099 2.79958 0
M  V30 4019 C 364.096 -2.93672 5.13333 0
M  V30 4020 H 363.026 -0.502619 0.562041 0
M  V30 4021 H 365.677 -0.621701 1.72647 0
M  V30 4022 H 364.059 -3.16645 2.37807 0
M  V30 4023 H 365.233 -1.19639 4.44998 0
M  V30 4024 H 363.548 -1.2331 3.97723 0
M  V30 4025 H 366.145 -3.9839 3.56636 0
M  V30 4026 H 366.488 -3.71695 1.87479 0
M  V30 4027 H 367.021 -2.51875 3.07902 0
M  V30 4028 H 363.76 -2.45962 6.07604 0
M  V30 4029 H 363.28 -3.59948 4.79789 0
M  V30 4030 H 364.959 -3.5762 5.39182 0
M  V30 4031 N 365.091 -1.34144 -0.827227 0
M  V30 4032 C 366.321 -1.29138 -1.61267 0
M  V30 4033 C 366.729 0.137597 -1.88699 0
M  V30 4034 O 366.072 1.09379 -1.47587 0
M  V30 4035 C 366.134 -2.0097 -2.9808 0
M  V30 4036 C 365.798 -3.50242 -2.93563 0
M  V30 4037 C 366.795 -4.4523 -2.68452 0
M  V30 4038 C 364.48 -3.92592 -3.13331 0
M  V30 4039 C 366.474 -5.80542 -2.63154 0
M  V30 4040 C 364.161 -5.28005 -3.07658 0
M  V30 4041 C 365.159 -6.21792 -2.82602 0
M  V30 4042 O 364.847 -7.54723 -2.76853 0
M  V30 4043 H 364.579 -0.445851 -0.508127 0
M  V30 4044 H 367.133 -1.77263 -1.03763 0
M  V30 4045 H 365.363 -1.47451 -3.57484 0
M  V30 4046 H 367.052 -1.89309 -3.5905 0
M  V30 4047 H 367.818 -4.13832 -2.52919 0
M  V30 4048 H 363.697 -3.19994 -3.31851 0
M  V30 4049 H 367.241 -6.53717 -2.43516 0
M  V30 4050 H 363.138 -5.59023 -3.22743 0
M  V30 4051 H 363.906 -7.64409 -2.92611 0
M  V30 4052 N 366.569 1.04691 -1.17803 0
M  V30 4053 C 367.479 2.16057 -0.914151 0
M  V30 4054 C 368.495 1.73589 0.119503 0
M  V30 4055 O 369.671 2.01308 -0.0609468 0
M  V30 4056 C 366.736 3.4394 -0.436603 0
M  V30 4057 C 365.797 4.00825 -1.53746 0
M  V30 4058 C 365.03 5.22604 -1.0826 0
M  V30 4059 O 365.253 5.70367 0.0612244 0
M  V30 4060 O 364.187 5.7186 -1.87775 0
M  V30 4061 H 368.013 2.41169 -1.84584 0
M  V30 4062 H 365.598 1.1453 -0.959334 0
M  V30 4063 H 367.48 4.21024 -0.178057 0
M  V30 4064 H 366.155 3.20316 0.466869 0
M  V30 4065 H 365.062 3.25158 -1.84995 0
M  V30 4066 H 366.395 4.28778 -2.41683 0
M  V30 4067 N 368.047 0.979072 1.23499 0
M  V30 4068 C 368.994 0.517904 2.24914 0
M  V30 4069 C 369.964 -0.442525 1.60097 0
M  V30 4070 O 371.149 -0.350365 1.87556 0
M  V30 4071 C 368.289 -0.174813 3.44657 0
M  V30 4072 C 367.402 0.825721 4.24035 0
M  V30 4073 C 366.537 0.107946 5.3109 0
M  V30 4074 C 365.576 1.09778 6.02175 0
M  V30 4075 N 364.713 0.40925 7.00906 0
M  V30 4076 H 369.553 1.38751 2.63727 0
M  V30 4077 H 367.09 0.695303 1.2963 0
M  V30 4078 H 369.048 -0.593233 4.12961 0
M  V30 4079 H 367.678 -1.0083 3.06648 0
M  V30 4080 H 366.73 1.36253 3.55161 0
M  V30 4081 H 368.042 1.58005 4.73113 0
M  V30 4082 H 367.196 -0.367904 6.05583 0
M  V30 4083 H 365.935 -0.678994 4.8295 0
M  V30 4084 H 364.94 1.5844 5.26476 0
M  V30 4085 H 366.165 1.88536 6.52404 0
M  V30 4086 H 364.111 -0.358506 6.5502 0
M  V30 4087 H 364.028 1.10226 7.47921 0
M  V30 4088 H 365.296 -0.0442557 7.79487 0
M  V30 4089 N 369.525 -1.3858 0.750561 0
M  V30 4090 C 370.774 -1.99424 0.302172 0
M  V30 4091 C 371.087 -1.60254 -1.12152 0
M  V30 4092 O 372.293 -2.14046 -1.67023 0
M  V30 4093 C 370.749 -3.56558 0.489307 0
M  V30 4094 C 370.357 -4.04682 1.92189 0
M  V30 4095 C 372.101 -4.24374 0.103478 0
M  V30 4096 C 370.008 -5.54446 2.05775 0
M  V30 4097 H 368.938 -0.746046 0.10923 0
M  V30 4098 H 371.589 -1.58383 0.92667 0
M  V30 4099 H 369.971 -3.95472 -0.204329 0
M  V30 4100 H 371.145 -3.77065 2.64875 0
M  V30 4101 H 369.46 -3.4958 2.26236 0
M  V30 4102 H 372.057 -5.34384 0.183787 0
M  V30 4103 H 372.4 -4.05468 -0.943481 0
M  V30 4104 H 372.933 -3.90688 0.748854 0
M  V30 4105 H 369.672 -5.78252 3.08714 0
M  V30 4106 H 369.192 -5.83816 1.37546 0
M  V30 4107 H 370.871 -6.20099 1.84626 0
M  V30 4108 N 371.003 -0.499398 -1.49478 0
M  V30 4109 C 372.249 0.0457576 -2.02748 0
M  V30 4110 C 372.582 1.36793 -1.37846 0
M  V30 4111 O 371.857 1.87596 -0.513601 0
M  V30 4112 C 372.14 0.199986 -3.59544 0
M  V30 4113 C 371.993 -1.1452 -4.34977 0
M  V30 4114 C 373.312 0.94137 -4.29914 0
M  V30 4115 H 370.431 0.0151552 -0.736844 0
M  V30 4116 H 373.073 -0.650498 -1.78518 0
M  V30 4117 H 371.223 0.793007 -3.8032 0
M  V30 4118 H 372.895 -1.77697 -4.25701 0
M  V30 4119 H 371.138 -1.73488 -3.97598 0
M  V30 4120 H 371.809 -0.990607 -5.43039 0
M  V30 4121 H 374.285 0.43844 -4.13784 0
M  V30 4122 H 373.161 1.01812 -5.39375 0
M  V30 4123 H 373.422 1.98471 -3.95046 0
M  V30 4124 N 372.481 1.55866 -0.233164 0
M  V30 4125 C 373.706 2.03449 0.402906 0
M  V30 4126 C 374.131 1.11166 1.51736 0
M  V30 4127 O 373.489 0.101996 1.81013 0
M  V30 4128 C 373.537 3.49165 0.9009 0
M  V30 4129 O 372.641 3.60019 2.01147 0
M  V30 4130 H 371.982 0.657913 0.0897025 0
M  V30 4131 H 374.512 2.01493 -0.355201 0
M  V30 4132 H 374.522 3.89716 1.2077 0
M  V30 4133 H 373.197 4.15813 0.0852889 0
M  V30 4134 H 371.774 3.3136 1.71042 0
M  V30 4135 N 373.959 -0.0401083 1.57549 0
M  V30 4136 C 375.207 -0.731677 1.8839 0
M  V30 4137 C 375.528 -1.76481 0.829425 0
M  V30 4138 O 374.798 -1.95411 -0.1383 0
M  V30 4139 H 373.378 -0.273225 0.695239 0
M  V30 4140 H 376.04 -0.00867725 1.94898 0
M  V30 4141 H 375.136 -1.22816 2.86919 0
M  V30 4142 N 375.437 -1.54477 -0.31217 0
M  V30 4143 C 376.384 -1.84655 -1.38461 0
M  V30 4144 C 377.354 -0.694536 -1.50882 0
M  V30 4145 O 378.539 -0.942081 -1.6592 0
M  V30 4146 C 375.679 -2.0896 -2.74645 0
M  V30 4147 C 374.792 -3.36618 -2.70763 0
M  V30 4148 C 373.927 -3.50824 -3.98868 0
M  V30 4149 C 372.966 -4.72315 -3.89339 0
M  V30 4150 N 372.103 -4.83387 -5.09197 0
M  V30 4151 H 376.943 -2.76142 -1.12026 0
M  V30 4152 H 374.48 -1.36748 -0.542065 0
M  V30 4153 H 376.438 -2.21045 -3.53829 0
M  V30 4154 H 375.068 -1.20752 -2.99364 0
M  V30 4155 H 374.12 -3.33211 -1.83506 0
M  V30 4156 H 375.432 -4.25917 -2.59608 0
M  V30 4157 H 374.586 -3.62513 -4.86486 0
M  V30 4158 H 373.325 -2.59638 -4.12843 0
M  V30 4159 H 372.33 -4.6067 -3.00105 0
M  V30 4160 H 373.555 -5.64897 -3.76919 0
M  V30 4161 H 371.501 -3.9512 -5.23657 0
M  V30 4162 H 371.418 -5.66669 -5.00422 0
M  V30 4163 H 372.686 -4.9942 -5.98498 0
M  V30 4164 N 376.915 0.57481 -1.46744 0
M  V30 4165 C 378.161 1.3347 -1.52688 0
M  V30 4166 C 378.494 1.93353 -0.181229 0
M  V30 4167 O 377.769 1.76912 0.808237 0
M  V30 4168 C 378.052 2.45811 -2.63152 0
M  V30 4169 C 377.905 1.90912 -4.07275 0
M  V30 4170 C 379.224 3.47822 -2.69644 0
M  V30 4171 H 376.343 0.483935 -0.555856 0
M  V30 4172 H 378.985 0.644968 -1.78718 0
M  V30 4173 H 377.135 3.04646 -2.41088 0
M  V30 4174 H 378.807 1.36473 -4.4065 0
M  V30 4175 H 377.05 1.21691 -4.16382 0
M  V30 4176 H 377.721 2.72042 -4.80309 0
M  V30 4177 H 380.197 2.9888 -2.895 0
M  V30 4178 H 379.073 4.23876 -3.48742 0
M  V30 4179 H 379.334 4.05555 -1.76005 0
M  V30 4180 N 378.394 1.34581 0.820102 0
M  V30 4181 C 379.81 1.14325 1.11364 0
M  V30 4182 C 380.01 -0.0533648 2.01429 0
M  V30 4183 O 379.066 -0.728044 2.41776 0
M  V30 4184 C 380.379 2.43983 1.75764 0
M  V30 4185 C 381.927 2.50065 1.88246 0
M  V30 4186 C 382.402 3.79732 2.56061 0
M  V30 4187 N 383.893 3.80908 2.63558 0
M  V30 4188 C 384.628 4.77961 3.16766 0
M  V30 4189 N 384.124 5.85397 3.70517 0
M  V30 4190 N 385.917 4.65413 3.15194 0
M  V30 4191 H 378.068 2.11246 0.221096 0
M  V30 4192 H 380.331 0.934289 0.160649 0
M  V30 4193 H 380.037 3.31651 1.1705 0
M  V30 4194 H 379.911 2.57531 2.75604 0
M  V30 4195 H 382.298 1.62834 2.46108 0
M  V30 4196 H 382.379 2.40442 0.873006 0
M  V30 4197 H 382.023 4.67354 1.98853 0
M  V30 4198 H 381.953 3.86639 3.57516 0
M  V30 4199 H 384.444 3.03274 2.25463 0
M  V30 4200 H 384.757 6.55463 4.09376 0
M  V30 4201 H 383.102 5.89107 3.68752 0
M  V30 4202 H 386.293 3.80627 2.72471 0
M  V30 4203 H 386.466 5.41216 3.56356 0
M  V30 4204 N 379.872 -1.04064 1.18357 0
M  V30 4205 C 381.119 -1.77265 0.978947 0
M  V30 4206 C 381.447 -1.88189 -0.491428 0
M  V30 4207 O 380.702 -1.38653 -1.38108 0
M  V30 4208 C 381.001 -3.20634 1.57888 0
M  V30 4209 C 380.667 -3.29743 3.07539 0
M  V30 4210 C 379.329 -3.31937 3.48384 0
M  V30 4211 C 381.681 -3.29841 4.03552 0
M  V30 4212 C 379.009 -3.3187 4.83818 0
M  V30 4213 C 381.361 -3.31313 5.38901 0
M  V30 4214 C 380.025 -3.31799 5.79194 0
M  V30 4215 H 379.295 -0.648659 0.358222 0
M  V30 4216 H 381.942 -1.22225 1.47422 0
M  V30 4217 H 380.247 -3.78675 1.00561 0
M  V30 4218 H 381.944 -3.75917 1.39598 0
M  V30 4219 H 378.534 -3.28757 2.74986 0
M  V30 4220 H 382.718 -3.27337 3.73047 0
M  V30 4221 H 377.974 -3.30562 5.14333 0
M  V30 4222 H 382.148 -3.30338 6.13066 0
M  V30 4223 H 379.775 -3.315 6.84114 0
M  V30 4224 N 381.35 -0.985608 -1.22978 0
M  V30 4225 C 382.761 -0.693593 -1.73338 0
M  V30 4226 C 383.112 0.789935 -1.79595 0
M  V30 4227 O 382.237 1.61771 -1.43733 0
M  V30 4228 C 382.832 -1.25235 -3.14804 0
M  V30 4229 C 381.391 -1.00987 -3.626 0
M  V30 4230 C 380.538 -1.37695 -2.40698 0
M  V30 4231 H 383.489 -1.15884 -1.08428 0
M  V30 4232 H 383.51 -0.627329 -3.75293 0
M  V30 4233 H 383.022 -2.33209 -3.10218 0
M  V30 4234 H 381.123 0.0535565 -3.72562 0
M  V30 4235 H 381.236 -1.66812 -4.49122 0
M  V30 4236 H 379.6 -0.795459 -2.4196 0
M  V30 4237 H 380.383 -2.46657 -2.38779 0
M  V30 4238 N 382.828 1.3818 -0.7579 0
M  V30 4239 C 384.053 2.04827 -0.325679 0
M  V30 4240 C 384.478 1.56788 1.03919 0
M  V30 4241 O 383.836 0.721811 1.66312 0
M  V30 4242 C 383.884 3.58774 -0.362447 0
M  V30 4243 O 382.988 4.07372 0.642033 0
M  V30 4244 H 382.329 0.64833 -0.143402 0
M  V30 4245 H 384.859 1.7677 -1.03023 0
M  V30 4246 H 384.869 4.07434 -0.214844 0
M  V30 4247 H 383.544 3.93096 -1.35824 0
M  V30 4248 H 382.121 3.70068 0.458688 0
M  V30 4249 N 384.306 0.507319 1.49211 0
M  V30 4250 C 385.256 -0.287112 2.26185 0
M  V30 4251 C 386.24 -0.929983 1.31302 0
M  V30 4252 O 387.432 -0.836538 1.55984 0
M  V30 4253 C 384.561 -1.34718 3.15763 0
M  V30 4254 C 383.647 -0.710235 4.18111 0
M  V30 4255 N 384.038 0.190836 5.0544 0
M  V30 4256 C 382.336 -0.97009 4.35322 0
M  V30 4257 C 383.037 0.55606 5.79036 0
M  V30 4258 N 382.013 -0.0775232 5.43545 0
M  V30 4259 H 385.815 0.406445 2.91076 0
M  V30 4260 H 383.329 0.323814 1.59139 0
M  V30 4261 H 385.326 -1.92982 3.69545 0
M  V30 4262 H 383.986 -2.04235 2.52424 0
M  V30 4263 H 384.997 0.562047 5.14841 0
M  V30 4264 H 381.674 -1.65753 3.83187 0
M  V30 4265 H 383.064 1.2936 6.5933 0
M  V30 4266 N 385.784 -1.5574 0.241426 0
M  V30 4267 C 387.031 -1.9881 -0.384836 0
M  V30 4268 C 387.359 -1.12947 -1.58346 0
M  V30 4269 O 386.614 -0.178993 -1.9488 0
M  V30 4270 C 386.913 -3.47308 -0.843317 0
M  V30 4271 C 386.579 -4.50223 0.246946 0
M  V30 4272 C 385.241 -4.78088 0.546399 0
M  V30 4273 C 387.593 -5.11841 0.983282 0
M  V30 4274 C 384.921 -5.64846 1.58636 0
M  V30 4275 C 387.273 -5.99727 2.01272 0
M  V30 4276 C 385.937 -6.25927 2.31888 0
M  V30 4277 H 385.207 -0.727496 -0.140821 0
M  V30 4278 H 387.854 -1.8831 0.348106 0
M  V30 4279 H 386.159 -3.55112 -1.65537 0
M  V30 4280 H 387.856 -3.78017 -1.33806 0
M  V30 4281 H 384.446 -4.286 0.00340639 0
M  V30 4282 H 388.63 -4.90366 0.765182 0
M  V30 4283 H 383.886 -5.83403 1.82896 0
M  V30 4284 H 388.06 -6.46517 2.58823 0
M  V30 4285 H 385.687 -6.92949 3.12611 0
M  V30 4286 N 387.262 0.0317525 -1.57568 0
M  V30 4287 C 388.487 0.738664 -1.938 0
M  V30 4288 C 388.912 1.68242 -0.841208 0
M  V30 4289 O 388.27 1.80157 0.203267 0
M  V30 4290 C 388.318 1.47417 -3.29091 0
M  V30 4291 O 387.422 2.5872 -3.2115 0
M  V30 4292 H 386.763 0.198856 -0.633524 0
M  V30 4293 H 389.293 -0.0119713 -2.04596 0
M  V30 4294 H 389.303 1.84468 -3.63917 0
M  V30 4295 H 387.978 0.781988 -4.08482 0
M  V30 4296 H 386.555 2.24231 -2.97951 0
M  V30 4297 N 388.74 1.54641 0.303973 0
M  V30 4298 C 389.965 1.78092 1.06292 0
M  V30 4299 C 390.39 0.537342 1.80262 0
M  V30 4300 O 389.748 -0.511993 1.7392 0
M  V30 4301 C 389.796 2.98612 2.02147 0
M  V30 4302 O 388.9 2.71528 3.10397 0
M  V30 4303 H 388.241 0.589548 0.305497 0
M  V30 4304 H 390.771 2.01716 0.3423 0
M  V30 4305 H 390.781 3.265 2.44667 0
M  V30 4306 H 389.456 3.88785 1.47714 0
M  V30 4307 H 388.033 2.54648 2.72413 0
M  V30 4308 N 390.218 -0.567019 1.47046 0
M  V30 4309 C 391.495 -1.3276 1.43646 0
M  V30 4310 C 391.875 -2.1071 0.128186 0
M  V30 4311 O 391.223 -2.10441 -0.890326 0
M  V30 4312 C 391.433 -2.2404 2.67595 0
M  V30 4313 C 392.781 -2.85372 3.14401 0
M  V30 4314 O 393.805 -2.34346 2.68254 0
M  V30 4315 O 392.664 -3.78091 3.946 0
M  V30 4316 H 389.758 -0.597293 0.571988 0
M  V30 4317 H 392.304 -0.586735 1.59234 0
M  V30 4318 H 391.076 -1.65975 3.54356 0
M  V30 4319 H 390.699 -3.05439 2.54544 0
M  V30 4320 N 391.696 -1.35014 -0.812953 0
M  V30 4321 C 392.626 -1.30069 -1.93919 0
M  V30 4322 C 393.607 -0.176275 -1.69184 0
M  V30 4323 O 394.792 -0.370227 -1.90638 0
M  V30 4324 C 391.922 -1.06547 -3.30552 0
M  V30 4325 C 390.876 -2.15561 -3.69753 0
M  V30 4326 C 390.202 -1.77214 -5.04479 0
M  V30 4327 C 391.502 -3.57476 -3.808 0
M  V30 4328 H 393.196 -2.24303 -1.98314 0
M  V30 4329 H 390.742 -1.07977 -0.952736 0
M  V30 4330 H 392.695 -1.01729 -4.08937 0
M  V30 4331 H 391.419 -0.0875719 -3.26483 0
M  V30 4332 H 390.078 -2.19466 -2.9365 0
M  V30 4333 H 389.726 -0.780589 -4.96906 0
M  V30 4334 H 389.426 -2.50184 -5.31678 0
M  V30 4335 H 390.95 -1.7391 -5.8531 0
M  V30 4336 H 392.364 -3.55929 -4.4943 0
M  V30 4337 H 390.761 -4.29152 -4.19462 0
M  V30 4338 H 391.831 -3.94091 -2.82525 0
M  V30 4339 N 393.175 1.03435 -1.18907 0
M  V30 4340 C 394.122 2.11591 -0.921837 0
M  V30 4341 C 395.092 1.65499 0.141226 0
M  V30 4342 O 396.277 1.908 0.000242829 0
M  V30 4343 C 393.417 3.42012 -0.460616 0
M  V30 4344 C 392.53 4.01682 -1.58982 0
M  V30 4345 C 391.665 5.20091 -1.08069 0
M  V30 4346 C 390.704 5.71805 -2.18416 0
M  V30 4347 N 389.841 6.81494 -1.68849 0
M  V30 4348 H 394.681 2.33787 -1.8479 0
M  V30 4349 H 392.218 1.1467 -0.921373 0
M  V30 4350 H 394.176 4.16834 -0.174642 0
M  V30 4351 H 392.806 3.19944 0.428467 0
M  V30 4352 H 391.858 3.24127 -1.99113 0
M  V30 4353 H 393.17 4.36084 -2.4214 0
M  V30 4354 H 392.324 6.02051 -0.749615 0
M  V30 4355 H 391.063 4.87209 -0.218771 0
M  V30 4356 H 390.068 4.88461 -2.5236 0
M  V30 4357 H 391.293 6.06728 -3.05054 0
M  V30 4358 H 389.239 6.50475 -0.849572 0
M  V30 4359 H 389.156 7.14994 -2.45601 0
M  V30 4360 H 390.424 7.67063 -1.38689 0
M  V30 4361 N 394.653 0.992116 1.22453 0
M  V30 4362 C 395.93 0.583508 1.86694 0
M  V30 4363 C 396.31 -0.9392 1.89056 0
M  V30 4364 O 395.658 -1.82081 1.38053 0
M  V30 4365 C 395.868 1.20304 3.2761 0
M  V30 4366 C 397.216 1.30308 4.0411 0
M  V30 4367 O 398.24 1.15737 3.36873 0
M  V30 4368 O 397.099 1.53615 5.24466 0
M  V30 4369 H 394.193 0.198129 0.802916 0
M  V30 4370 H 396.739 1.08794 1.30238 0
M  V30 4371 H 395.511 2.24461 3.2052 0
M  V30 4372 H 395.134 0.684144 3.9167 0
M  V30 4373 N 396.131 -1.37776 0.765217 0
M  V30 4374 C 397.061 -2.32945 0.160953 0
M  V30 4375 C 398.042 -1.55454 -0.690516 0
M  V30 4376 O 399.227 -1.83721 -0.629318 0
M  V30 4377 C 396.357 -3.39669 -0.724031 0
M  V30 4378 C 395.311 -4.27992 0.0256173 0
M  V30 4379 C 394.637 -5.25673 -0.978383 0
M  V30 4380 C 395.937 -5.08309 1.20082 0
M  V30 4381 H 397.631 -2.83728 0.955969 0
M  V30 4382 H 395.177 -1.36416 0.461149 0
M  V30 4383 H 397.13 -4.05219 -1.15652 0
M  V30 4384 H 395.854 -2.87396 -1.5515 0
M  V30 4385 H 394.513 -3.63964 0.438812 0
M  V30 4386 H 394.161 -4.69682 -1.80022 0
M  V30 4387 H 393.861 -5.85625 -0.481378 0
M  V30 4388 H 395.385 -5.94098 -1.40995 0
M  V30 4389 H 396.799 -5.67034 0.845307 0
M  V30 4390 H 395.196 -5.77554 1.62947 0
M  V30 4391 H 396.266 -4.41365 2.00811 0
M  V30 4392 N 397.609 -0.515225 -1.4894 0
M  V30 4393 C 398.539 0.244628 -2.32215 0
M  V30 4394 C 399.52 0.949136 -1.41157 0
M  V30 4395 O 400.705 0.937783 -1.70057 0
M  V30 4396 C 397.835 1.30096 -3.22013 0
M  V30 4397 C 396.789 0.715486 -4.21977 0
M  V30 4398 C 396.115 1.87339 -5.00808 0
M  V30 4399 C 397.415 -0.302982 -5.2142 0
M  V30 4400 H 399.109 -0.450501 -2.95991 0
M  V30 4401 H 396.655 -0.218098 -1.42339 0
M  V30 4402 H 398.608 1.84037 -3.79089 0
M  V30 4403 H 397.332 2.02547 -2.56207 0
M  V30 4404 H 395.991 0.197715 -3.66066 0
M  V30 4405 H 395.639 2.58592 -4.31438 0
M  V30 4406 H 395.339 1.48764 -5.68457 0
M  V30 4407 H 396.863 2.41686 -5.60732 0
M  V30 4408 H 398.277 0.148802 -5.73107 0
M  V30 4409 H 396.674 -0.60532 -5.97039 0
M  V30 4410 H 397.744 -1.21395 -4.69459 0
M  V30 4411 N 399.087 1.5561 -0.249682 0
M  V30 4412 C 400.503 1.59254 0.105103 0
M  V30 4413 C 400.703 1.26685 1.56694 0
M  V30 4414 O 399.759 1.0155 2.31179 0
M  V30 4415 C 401.072 2.99687 -0.246592 0
M  V30 4416 C 402.62 3.12416 -0.191118 0
M  V30 4417 C 403.095 4.55074 -0.516885 0
M  V30 4418 N 404.586 4.60835 -0.467489 0
M  V30 4419 C 405.321 5.69201 -0.69268 0
M  V30 4420 N 404.817 6.85817 -0.981146 0
M  V30 4421 N 406.61 5.58635 -0.623198 0
M  V30 4422 H 398.761 1.75049 -1.20298 0
M  V30 4423 H 401.024 0.815003 -0.484225 0
M  V30 4424 H 400.73 3.28267 -1.26228 0
M  V30 4425 H 400.604 3.74798 0.424962 0
M  V30 4426 H 402.991 2.83615 0.815247 0
M  V30 4427 H 403.072 2.39573 -0.896563 0
M  V30 4428 H 402.716 4.84596 -1.52082 0
M  V30 4429 H 402.646 5.26181 0.210068 0
M  V30 4430 H 405.137 3.7705 -0.253373 0
M  V30 4431 H 405.45 7.64341 -1.14032 0
M  V30 4432 H 403.795 6.87494 -1.01865 0
M  V30 4433 H 406.986 4.66406 -0.397863 0
M  V30 4434 H 407.159 6.43017 -0.802093 0
M  V30 4435 N 400.565 -0.0233959 1.57583 0
M  V30 4436 C 401.513 -1.04063 2.08023 0
M  V30 4437 C 402.507 -1.37084 0.995204 0
M  V30 4438 O 403.713 -1.35923 1.18004 0
M  V30 4439 H 400.088 -0.353144 0.663922 0
M  V30 4440 H 402.059 -0.589453 2.9252 0
M  V30 4441 C 400.808 -2.33123 2.57971 0
M  V30 4442 H 400.131 -2.08577 3.4108 0
M  V30 4443 H 401.571 -3.02632 2.96967 0
M  V30 4444 C 400.03 -3.02483 1.48342 0
M  V30 4445 O 400.56 -3.92541 0.852898 0
M  V30 4446 N 398.766 -2.63909 1.21658 0
M  V30 4447 H 398.313 -1.90758 1.73116 0
M  V30 4448 H 398.271 -3.10633 0.485218 0
M  V30 4449 N 402.043 -1.548 -0.295768 0
M  V30 4450 C 402.973 -1.89115 -1.36959 0
M  V30 4451 C 403.954 -0.75059 -1.52644 0
M  V30 4452 O 405.139 -1.00678 -1.66065 0
M  V30 4453 C 402.269 -2.14307 -2.73295 0
M  V30 4454 C 401.223 -3.30151 -2.72368 0
M  V30 4455 C 400.549 -3.40772 -4.12042 0
M  V30 4456 C 401.849 -4.67126 -2.33646 0
M  V30 4457 H 403.543 -2.79053 -1.08488 0
M  V30 4458 H 401.089 -1.34266 -0.520443 0
M  V30 4459 H 403.042 -2.36898 -3.48507 0
M  V30 4460 H 401.766 -1.21145 -3.03301 0
M  V30 4461 H 400.425 -3.0749 -1.99613 0
M  V30 4462 H 400.073 -2.45117 -4.39234 0
M  V30 4463 H 399.773 -4.18645 -4.12322 0
M  V30 4464 H 401.297 -3.6563 -4.89027 0
M  V30 4465 H 402.711 -4.89414 -2.98575 0
M  V30 4466 H 401.108 -5.47751 -2.45129 0
M  V30 4467 H 402.178 -4.67489 -1.28772 0
M  V30 4468 N 403.521 0.559213 -1.47345 0
M  V30 4469 C 404.451 1.67622 -1.62558 0
M  V30 4470 C 405.432 1.63331 -0.475087 0
M  V30 4471 O 406.617 1.80983 -0.704182 0
M  V30 4472 C 403.747 3.0626 -1.63774 0
M  V30 4473 C 402.701 3.25397 -2.7803 0
M  V30 4474 C 402.027 4.64801 -2.64318 0
M  V30 4475 C 403.327 3.10965 -4.19641 0
M  V30 4476 H 405.021 1.55146 -2.56067 0
M  V30 4477 H 402.567 0.744961 -1.23233 0
M  V30 4478 H 404.52 3.84247 -1.73008 0
M  V30 4479 H 403.244 3.1969 -0.66825 0
M  V30 4480 H 401.903 2.49817 -2.68304 0
M  V30 4481 H 401.551 4.75028 -1.65401 0
M  V30 4482 H 401.251 4.78555 -3.40968 0
M  V30 4483 H 402.775 5.44926 -2.75478 0
M  V30 4484 H 404.189 3.78772 -4.30354 0
M  V30 4485 H 402.586 3.36229 -4.97062 0
M  V30 4486 H 403.656 2.07736 -4.38148 0
M  V30 4487 N 404.999 1.35443 0.805782 0
M  V30 4488 C 405.931 1.24285 1.92577 0
M  V30 4489 C 406.944 0.165962 1.61952 0
M  V30 4490 O 408.133 0.419303 1.73505 0
M  V30 4491 C 405.233 0.891272 3.2697 0
M  V30 4492 C 404.406 2.06669 3.85495 0
M  V30 4493 C 403.465 1.69077 4.98297 0
M  V30 4494 O 402.491 2.4096 5.15681 0
M  V30 4495 N 403.693 0.614869 5.77234 0
M  V30 4496 H 406.458 2.20777 2.02676 0
M  V30 4497 H 404.019 1.28623 0.983243 0
M  V30 4498 H 406.011 0.621256 3.99903 0
M  V30 4499 H 404.581 0.016004 3.12596 0
M  V30 4500 H 403.801 2.50046 3.04747 0
M  V30 4501 H 405.089 2.85237 4.21328 0
M  V30 4502 H 404.487 0.017648 5.65697 0
M  V30 4503 H 403.044 0.404636 6.50543 0
M  V30 4504 N 406.477 -1.02803 1.19454 0
M  V30 4505 C 407.723 -1.76478 0.999171 0
M  V30 4506 C 408.056 -1.88456 -0.468828 0
M  V30 4507 O 407.331 -1.40198 -1.34814 0
M  V30 4508 C 407.614 -3.19044 1.66981 0
M  V30 4509 C 407.467 -3.14932 3.21151 0
M  V30 4510 C 408.786 -4.17456 1.39349 0
M  V30 4511 H 405.905 -0.640614 0.364393 0
M  V30 4512 H 408.547 -1.20005 1.47305 0
M  V30 4513 H 406.697 -3.67263 1.2669 0
M  V30 4514 H 408.369 -2.74605 3.70661 0
M  V30 4515 H 406.612 -2.52625 3.52652 0
M  V30 4516 H 407.283 -4.1566 3.63223 0
M  V30 4517 H 409.759 -3.77842 1.74283 0
M  V30 4518 H 408.635 -5.154 1.88823 0
M  V30 4519 H 408.896 -4.40949 0.318813 0
M  V30 4520 N 407.956 -0.998596 -1.21925 0
M  V30 4521 C 409.233 -0.593401 -1.86382 0
M  V30 4522 C 409.613 0.92916 -1.89552 0
M  V30 4523 O 408.961 1.81347 -1.39017 0
M  V30 4524 C 409.171 -1.22039 -3.26967 0
M  V30 4525 C 410.519 -1.32449 -4.03413 0
M  V30 4526 O 411.543 -1.17522 -3.36254 0
M  V30 4527 O 410.402 -1.56395 -5.23644 0
M  V30 4528 H 407.496 -0.202385 -0.801854 0
M  V30 4529 H 410.042 -1.09484 -1.29659 0
M  V30 4530 H 408.814 -2.26158 -3.19325 0
M  V30 4531 H 408.437 -0.704906 -3.91301 0
M  V30 4532 N 409.434 1.37368 -0.772513 0
M  V30 4533 C 410.364 2.32856 -0.173304 0
M  V30 4534 C 411.345 1.55818 0.682262 0
M  V30 4535 O 412.53 1.84052 0.619566 0
M  V30 4536 C 409.66 3.40048 0.706007 0
M  V30 4537 C 408.614 4.27973 -0.0483144 0
M  V30 4538 C 407.94 5.26184 0.950491 0
M  V30 4539 C 409.24 5.07665 -1.22776 0
M  V30 4540 H 410.934 2.83217 -0.971002 0
M  V30 4541 H 408.48 1.3617 -0.468377 0
M  V30 4542 H 410.433 4.05827 1.13501 0
M  V30 4543 H 409.157 2.88214 1.53623 0
M  V30 4544 H 407.816 3.63726 -0.458107 0
M  V30 4545 H 407.464 4.7063 1.77529 0
M  V30 4546 H 407.164 5.85872 0.450314 0
M  V30 4547 H 408.688 5.94838 1.37842 0
M  V30 4548 H 410.102 5.66578 -0.875366 0
M  V30 4549 H 408.499 5.76681 -1.66007 0
M  V30 4550 H 409.569 4.40294 -2.03149 0
M  V30 4551 N 410.912 0.523116 1.48665 0
M  V30 4552 C 412.14 -0.0096312 2.06898 0
M  V30 4553 C 412.555 -1.28784 1.38059 0
M  V30 4554 O 411.912 -1.76453 0.465893 0
M  V30 4555 C 411.963 -0.244386 3.60673 0
M  V30 4556 O 411.684 0.983172 4.26925 0
M  V30 4557 C 413.185 -0.818289 4.35682 0
M  V30 4558 H 410.405 0.0304161 0.67031 0
M  V30 4559 H 412.949 0.726799 1.91149 0
M  V30 4560 H 411.104 -0.930847 3.76051 0
M  V30 4561 H 411.518 0.759653 5.1897 0
M  V30 4562 H 412.992 -0.93201 5.44075 0
M  V30 4563 H 413.469 -1.82153 3.99646 0
M  V30 4564 H 414.075 -0.168609 4.24966 0
M  V30 4565 N 412.39 -1.55475 0.257931 0
M  V30 4566 C 413.337 -2.21837 -0.636939 0
M  V30 4567 C 414.307 -1.18596 -1.16294 0
M  V30 4568 O 415.492 -1.47081 -1.21539 0
M  V30 4569 C 412.632 -2.9301 -1.82317 0
M  V30 4570 C 411.745 -4.10931 -1.33265 0
M  V30 4571 C 410.88 -4.69791 -2.47931 0
M  V30 4572 C 409.919 -5.7994 -1.95796 0
M  V30 4573 N 409.056 -6.32935 -3.0387 0
M  V30 4574 H 413.896 -2.9793 -0.0643591 0
M  V30 4575 H 411.433 -1.47086 -0.0200031 0
M  V30 4576 H 413.391 -3.3248 -2.52018 0
M  V30 4577 H 412.021 -2.1937 -2.36805 0
M  V30 4578 H 411.073 -3.76699 -0.52931 0
M  V30 4579 H 412.385 -4.90417 -0.910654 0
M  V30 4580 H 411.539 -5.11892 -3.25656 0
M  V30 4581 H 410.278 -3.89545 -2.93438 0
M  V30 4582 H 409.283 -5.37305 -1.16546 0
M  V30 4583 H 410.508 -6.62043 -1.51246 0
M  V30 4584 H 408.454 -5.55591 -3.48791 0
M  V30 4585 H 408.371 -7.07645 -2.66035 0
M  V30 4586 H 409.639 -6.79695 -3.81621 0
M  V30 4587 N 413.868 0.0150385 -1.57593 0
M  V30 4588 C 415.284 0.370907 -1.5523 0
M  V30 4589 C 415.484 1.75735 -0.985882 0
M  V30 4590 O 414.54 2.44944 -0.613077 0
M  V30 4591 C 415.853 0.259908 -2.99575 0
M  V30 4592 C 417.401 0.335959 -3.11192 0
M  V30 4593 C 417.876 0.254253 -4.57294 0
M  V30 4594 N 419.367 0.312618 -4.62144 0
M  V30 4595 C 420.102 0.272505 -5.72752 0
M  V30 4596 N 419.598 0.183864 -6.92556 0
M  V30 4597 N 421.391 0.323267 -5.6117 0
M  V30 4598 H 413.542 -0.892104 -1.92757 0
M  V30 4599 H 415.805 -0.340563 -0.884715 0
M  V30 4600 H 415.511 -0.693403 -3.44797 0
M  V30 4601 H 415.385 1.048 -3.62349 0
M  V30 4602 H 417.772 1.27971 -2.65909 0
M  V30 4603 H 417.853 -0.481739 -2.51223 0
M  V30 4604 H 417.497 -0.685887 -5.03247 0
M  V30 4605 H 417.427 1.09024 -5.15191 0
M  V30 4606 H 419.918 0.38307 -3.75953 0
M  V30 4607 H 420.231 0.15874 -7.72637 0
M  V30 4608 H 418.576 0.149708 -6.94839 0
M  V30 4609 H 421.767 0.390607 -4.66467 0
M  V30 4610 H 421.94 0.288539 -6.47357 0
M  V30 4611 N 415.346 1.54954 0.287554 0
M  V30 4612 C 416.593 1.74873 1.02106 0
M  V30 4613 C 416.921 0.541829 1.86801 0
M  V30 4614 O 416.176 -0.475992 1.89823 0
M  V30 4615 C 416.475 2.99833 1.94512 0
M  V30 4616 C 416.141 4.33029 1.25686 0
M  V30 4617 C 414.803 4.69233 1.06649 0
M  V30 4618 C 417.155 5.15542 0.765913 0
M  V30 4619 C 414.483 5.85518 0.372222 0
M  V30 4620 C 416.835 6.32542 0.0853101 0
M  V30 4621 C 415.499 6.67398 -0.1169 0
M  V30 4622 H 414.769 0.639906 0.373632 0
M  V30 4623 H 417.416 1.89219 0.294665 0
M  V30 4624 H 415.721 2.80325 2.73725 0
M  V30 4625 H 417.418 3.1244 2.51361 0
M  V30 4626 H 414.008 4.04564 1.41512 0
M  V30 4627 H 418.192 4.88059 0.90066 0
M  V30 4628 H 413.448 6.11057 0.204695 0
M  V30 4629 H 417.622 6.95741 -0.302936 0
M  V30 4630 H 415.249 7.57357 -0.656859 0
M  V30 4631 N 416.824 -0.551391 1.4764 0
M  V30 4632 C 418.072 -1.30572 1.54258 0
M  V30 4633 C 418.393 -1.93877 0.208963 0
M  V30 4634 O 417.663 -1.80234 -0.767619 0
M  V30 4635 H 416.243 -0.484894 0.568231 0
M  V30 4636 H 418.905 -0.643402 1.83974 0
M  V30 4637 H 418.001 -2.09621 2.31226 0
M  V30 4638 N 418.302 -1.35869 -0.798587 0
M  V30 4639 C 419.25 -1.29491 -1.93222 0
M  V30 4640 C 420.244 -0.18836 -1.6835 0
M  V30 4641 O 421.45 -0.354822 -1.76468 0
M  V30 4642 H 417.825 -0.402901 -0.63496 0
M  V30 4643 H 419.796 -2.25247 -1.9572 0
M  V30 4644 C 418.545 -1.09184 -3.30112 0
M  V30 4645 H 417.868 -1.93574 -3.49813 0
M  V30 4646 H 419.308 -1.08766 -4.09812 0
M  V30 4647 C 417.767 0.203959 -3.36282 0
M  V30 4648 O 418.297 1.19699 -3.83451 0
M  V30 4649 N 416.503 0.245488 -2.89561 0
M  V30 4650 H 416.05 -0.563223 -2.51367 0
M  V30 4651 H 416.008 1.11219 -2.94071 0
M  V30 4652 N 419.78 1.02168 -1.19998 0
M  V30 4653 C 420.71 2.12488 -0.96804 0
M  V30 4654 C 421.691 1.69799 0.101185 0
M  V30 4655 O 422.876 1.94121 -0.0552993 0
M  V30 4656 C 420.006 3.43479 -0.513776 0
M  V30 4657 C 418.96 3.99884 -1.52566 0
M  V30 4658 C 418.286 5.26582 -0.928214 0
M  V30 4659 C 419.586 4.33861 -2.90795 0
M  V30 4660 H 421.28 2.32149 -1.89069 0
M  V30 4661 H 418.826 1.11564 -0.910468 0
M  V30 4662 H 420.779 4.20036 -0.338774 0
M  V30 4663 H 419.503 3.23561 0.444493 0
M  V30 4664 H 418.162 3.25429 -1.68794 0
M  V30 4665 H 417.81 5.02986 0.0378289 0
M  V30 4666 H 417.51 5.65284 -1.60397 0
M  V30 4667 H 419.034 6.05799 -0.764167 0
M  V30 4668 H 420.448 5.01327 -2.78109 0
M  V30 4669 H 418.845 4.83664 -3.55231 0
M  V30 4670 H 419.915 3.42848 -3.42904 0
M  V30 4671 N 421.258 1.00505 1.21394 0
M  V30 4672 C 422.205 0.565496 2.23765 0
M  V30 4673 C 423.175 -0.408466 1.60999 0
M  V30 4674 O 424.36 -0.310503 1.88257 0
M  V30 4675 C 421.5 -0.101667 3.4495 0
M  V30 4676 C 420.613 0.915479 4.22188 0
M  V30 4677 C 419.748 0.220574 5.30742 0
M  V30 4678 C 418.787 1.22527 5.99711 0
M  V30 4679 N 417.924 0.557831 6.9988 0
M  V30 4680 H 422.764 1.44314 2.60725 0
M  V30 4681 H 420.301 0.722643 1.28126 0
M  V30 4682 H 422.259 -0.505504 4.14126 0
M  V30 4683 H 420.889 -0.94303 3.08718 0
M  V30 4684 H 419.941 1.43756 3.52191 0
M  V30 4685 H 421.253 1.68005 4.69655 0
M  V30 4686 H 420.407 -0.239368 6.06228 0
M  V30 4687 H 419.146 -0.576401 4.84282 0
M  V30 4688 H 418.151 1.69571 5.22997 0
M  V30 4689 H 419.376 2.02332 6.48258 0
M  V30 4690 H 417.322 -0.219486 6.55633 0
M  V30 4691 H 417.239 1.26065 7.45415 0
M  V30 4692 H 418.507 0.121095 7.79406 0
M  V30 4693 N 422.737 -1.36956 0.779787 0
M  V30 4694 C 423.685 -2.32053 0.15942 0
M  V30 4695 C 424.679 -1.55333 -0.675878 0
M  V30 4696 O 425.885 -1.70668 -0.57204 0
M  V30 4697 H 422.26 -0.751286 0.0327707 0
M  V30 4698 H 424.231 -2.8195 0.977078 0
M  V30 4699 C 422.98 -3.40602 -0.698977 0
M  V30 4700 H 422.303 -3.99746 -0.0655966 0
M  V30 4701 H 423.743 -4.09486 -1.09989 0
M  V30 4702 C 422.202 -2.81359 -1.85307 0
M  V30 4703 O 422.732 -2.72751 -2.94906 0
M  V30 4704 N 420.938 -2.38786 -1.65619 0
M  V30 4705 H 420.485 -2.45987 -0.764725 0
M  V30 4706 H 420.443 -1.99493 -2.43002 0
M  V30 4707 N 424.215 -0.530993 -1.48385 0
M  V30 4708 C 425.463 0.00273189 -2.021 0
M  V30 4709 C 425.784 1.34672 -1.41027 0
M  V30 4710 O 425.054 1.8724 -0.576012 0
M  V30 4711 H 423.634 0.00399774 -0.746989 0
M  V30 4712 H 426.296 -0.695054 -1.82085 0
M  V30 4713 H 425.392 0.11031 -3.11905 0
M  V30 4714 N 425.693 1.55336 -0.266172 0
M  V30 4715 C 426.939 1.99692 0.353681 0
M  V30 4716 C 427.272 1.1543 1.56172 0
M  V30 4717 O 426.547 0.222218 1.93226 0
M  V30 4718 C 426.83 3.52316 0.74466 0
M  V30 4719 C 426.683 4.47337 -0.470101 0
M  V30 4720 C 428.002 4.10588 1.58447 0
M  V30 4721 H 425.121 0.725961 0.12708 0
M  V30 4722 H 427.763 1.86336 -0.371333 0
M  V30 4723 H 425.913 3.63829 1.36239 0
M  V30 4724 H 427.585 4.4778 -1.10864 0
M  V30 4725 H 425.828 4.19364 -1.10978 0
M  V30 4726 H 426.499 5.51788 -0.15291 0
M  V30 4727 H 428.975 4.02297 1.06286 0
M  V30 4728 H 427.851 5.17607 1.82686 0
M  V30 4729 H 428.112 3.60253 2.56262 0
M  V30 4730 N 427.171 -0.0066808 1.57599 0
M  V30 4731 C 428.119 -1.01851 2.09115 0
M  V30 4732 C 429.113 -1.36021 1.00969 0
M  V30 4733 O 430.319 -1.34663 1.19439 0
M  V30 4734 H 426.694 -0.346083 0.667631 0
M  V30 4735 H 428.665 -0.558394 2.93129 0
M  V30 4736 C 427.414 -2.30374 2.60429 0
M  V30 4737 H 426.737 -2.04947 3.43273 0
M  V30 4738 H 428.177 -2.99466 3.00161 0
M  V30 4739 C 426.636 -3.00893 1.51542 0
M  V30 4740 O 427.166 -3.91614 0.894484 0
M  V30 4741 N 425.372 -2.62603 1.2445 0
M  V30 4742 H 424.919 -1.88911 1.75129 0
M  V30 4743 H 424.877 -3.10101 0.518137 0
M  V30 4744 N 428.649 -1.55105 -0.279332 0
M  V30 4745 C 429.926 -1.66119 -1.03267 0
M  V30 4746 C 430.306 -0.523525 -2.04505 0
M  V30 4747 O 429.654 0.477194 -2.23462 0
M  V30 4748 C 429.864 -3.05067 -1.69515 0
M  V30 4749 C 431.212 -3.62606 -2.20912 0
M  V30 4750 O 432.236 -3.07659 -1.79512 0
M  V30 4751 O 431.095 -4.58861 -2.96831 0
M  V30 4752 H 428.189 -0.674429 -0.478618 0
M  V30 4753 H 430.735 -1.67446 -0.275694 0
M  V30 4754 H 429.507 -3.79311 -0.9612 0
M  V30 4755 H 429.13 -3.07611 -2.51915 0
M  V30 4756 N 430.127 0.543554 -1.4793 0
M  V30 4757 C 431.376 1.29649 -1.54512 0
M  V30 4758 C 431.689 1.94382 -0.217973 0
M  V30 4759 O 432.895 2.71017 -0.161908 0
M  V30 4760 C 431.351 2.35175 -2.72435 0
M  V30 4761 C 430.959 1.76572 -4.11736 0
M  V30 4762 C 432.703 3.11564 -2.8832 0
M  V30 4763 C 430.61 2.79958 -5.20939 0
M  V30 4764 H 429.54 0.487541 -0.57517 0
M  V30 4765 H 432.191 0.575708 -1.74235 0
M  V30 4766 H 430.573 3.10229 -2.46118 0
M  V30 4767 H 431.747 1.07799 -4.48013 0
M  V30 4768 H 430.062 1.12722 -4.00852 0
M  V30 4769 H 432.659 3.88794 -3.67074 0
M  V30 4770 H 433.002 3.66594 -1.97268 0
M  V30 4771 H 433.535 2.43623 -3.14472 0
M  V30 4772 H 430.274 2.29766 -6.13912 0
M  V30 4773 H 429.794 3.47101 -4.89164 0
M  V30 4774 H 431.473 3.43198 -5.48474 0
M  V30 4775 N 431.605 1.3629 0.791371 0
M  V30 4776 C 432.552 1.30458 1.90393 0
M  V30 4777 C 433.522 0.173632 1.6519 0
M  V30 4778 O 434.707 0.35983 1.87376 0
M  V30 4779 C 431.847 1.09777 3.27174 0
M  V30 4780 C 430.96 2.31929 3.64462 0
M  V30 4781 C 430.095 2.04276 4.90352 0
M  V30 4782 C 429.134 3.224 5.20312 0
M  V30 4783 N 428.271 2.94424 6.37385 0
M  V30 4784 H 433.111 2.25589 1.94714 0
M  V30 4785 H 430.648 1.12122 0.952216 0
M  V30 4786 H 432.606 0.958133 4.06049 0
M  V30 4787 H 431.236 0.183014 3.22281 0
M  V30 4788 H 430.288 2.56703 2.80727 0
M  V30 4789 H 431.6 3.20085 3.82553 0
M  V30 4790 H 430.754 1.87231 5.77087 0
M  V30 4791 H 429.493 1.13428 4.74326 0
M  V30 4792 H 428.498 3.40005 4.32061 0
M  V30 4793 H 429.723 4.14071 5.38258 0
M  V30 4794 H 427.669 2.06185 6.22755 0
M  V30 4795 H 427.586 3.76118 6.55798 0
M  V30 4796 H 428.854 2.80953 7.27108 0
M  V30 4797 N 433.083 -1.0153 1.20538 0
M  V30 4798 C 434.031 -2.12215 0.952235 0
M  V30 4799 C 435.025 -1.69123 -0.0968735 0
M  V30 4800 O 436.231 -1.7992 0.0536006 0
M  V30 4801 H 432.606 -0.693576 0.290613 0
M  V30 4802 H 434.577 -2.3075 1.89201 0
M  V30 4803 C 433.326 -3.43755 0.522287 0
M  V30 4804 H 432.649 -3.7734 1.32115 0
M  V30 4805 H 434.089 -4.22254 0.384389 0
M  V30 4806 C 432.548 -3.28088 -0.765489 0
M  V30 4807 O 433.078 -3.57921 -1.8236 0
M  V30 4808 N 431.284 -2.81333 -0.728011 0
M  V30 4809 H 430.831 -2.57255 0.133332 0
M  V30 4810 H 430.789 -2.71232 -1.58999 0
M  V30 4811 N 434.561 -1.01147 -1.20859 0
M  V30 4812 C 435.511 -0.548247 -2.2131 0
M  V30 4813 C 436.495 0.393646 -1.5601 0
M  V30 4814 O 437.687 0.217445 -1.75659 0
M  V30 4815 C 434.816 0.117252 -3.431 0
M  V30 4816 C 433.902 -0.846043 -4.15575 0
M  V30 4817 N 434.293 -2.00149 -4.64515 0
M  V30 4818 C 432.591 -0.665783 -4.41003 0
M  V30 4819 C 433.292 -2.60764 -5.19978 0
M  V30 4820 N 432.268 -1.88868 -5.09735 0
M  V30 4821 H 436.07 -1.42921 -2.56809 0
M  V30 4822 H 433.584 -0.876142 -1.36739 0
M  V30 4823 H 435.581 0.46662 -4.1428 0
M  V30 4824 H 434.241 0.994115 -3.09107 0
M  V30 4825 H 435.252 -2.38162 -4.5989 0
M  V30 4826 H 431.929 0.163456 -4.1718 0
M  V30 4827 H 433.319 -3.58519 -5.68255 0
M  V30 4828 N 436.039 1.36541 -0.78704 0
M  V30 4829 C 436.986 2.30082 -0.181901 0
M  V30 4830 C 437.956 1.5186 0.672896 0
M  V30 4831 O 439.141 1.80374 0.622072 0
M  V30 4832 C 436.281 3.3835 0.679197 0
M  V30 4833 C 435.394 4.31565 -0.193882 0
M  V30 4834 C 434.529 5.26915 0.673364 0
M  V30 4835 C 433.568 6.11769 -0.201315 0
M  V30 4836 N 432.705 6.99315 0.624777 0
M  V30 4837 H 437.545 2.81248 -0.985064 0
M  V30 4838 H 435.082 1.38437 -0.497342 0
M  V30 4839 H 437.04 3.99767 1.19341 0
M  V30 4840 H 435.67 2.8851 1.44781 0
M  V30 4841 H 434.722 3.71323 -0.826044 0
M  V30 4842 H 436.034 4.91191 -0.867937 0
M  V30 4843 H 435.188 5.9361 1.25348 0
M  V30 4844 H 433.927 4.67737 1.38105 0
M  V30 4845 H 432.932 5.44039 -0.793849 0
M  V30 4846 H 434.157 6.73022 -0.906568 0
M  V30 4847 H 432.103 6.42648 1.3168 0
M  V30 4848 H 432.02 7.56 0.00835237 0
M  V30 4849 H 433.288 7.70382 1.18879 0
M  V30 4850 N 437.518 0.538854 1.48102 0
M  V30 4851 C 438.764 0.0161732 2.03394 0
M  V30 4852 C 439.119 -1.31154 1.40771 0
M  V30 4853 O 438.412 -1.83613 0.547421 0
M  V30 4854 C 438.606 -0.153808 3.57069 0
M  V30 4855 C 438.435 1.15588 4.34591 0
M  V30 4856 C 437.205 1.71818 4.75191 0
M  V30 4857 C 439.403 2.06867 4.70861 0
M  V30 4858 N 437.385 2.96983 5.37284 0
M  V30 4859 C 438.756 3.16609 5.33066 0
M  V30 4860 C 440.811 2.07085 4.52791 0
M  V30 4861 C 439.514 4.26645 5.79109 0
M  V30 4862 C 441.54 3.16121 4.99821 0
M  V30 4863 C 440.902 4.24582 5.62058 0
M  V30 4864 H 437.001 0.0476346 0.780548 0
M  V30 4865 H 439.585 0.722094 1.80815 0
M  V30 4866 H 437.756 -0.828825 3.79454 0
M  V30 4867 H 439.488 -0.676896 3.98999 0
M  V30 4868 H 436.243 1.25845 4.56574 0
M  V30 4869 H 436.667 3.60732 5.72889 0
M  V30 4870 H 441.309 1.24522 4.04047 0
M  V30 4871 H 439.027 5.0998 6.26854 0
M  V30 4872 H 442.613 3.17355 4.87624 0
M  V30 4873 H 441.493 5.07562 5.97788 0
M  V30 4874 N 438.996 -1.55193 0.274407 0
M  V30 4875 C 440.243 -1.99581 -0.342579 0
M  V30 4876 C 440.571 -1.1628 -1.55914 0
M  V30 4877 O 439.826 -0.22029 -1.94456 0
M  V30 4878 C 440.125 -3.49019 -0.769458 0
M  V30 4879 C 439.791 -4.49598 0.342389 0
M  V30 4880 C 438.453 -4.76821 0.647686 0
M  V30 4881 C 440.805 -5.0964 1.09163 0
M  V30 4882 C 438.133 -5.61354 1.70581 0
M  V30 4883 C 440.485 -5.95323 2.13948 0
M  V30 4884 C 439.149 -6.20867 2.45113 0
M  V30 4885 H 438.419 -0.730319 -0.125358 0
M  V30 4886 H 441.066 -1.87529 0.387971 0
M  V30 4887 H 439.371 -3.58544 -1.57967 0
M  V30 4888 H 441.068 -3.8077 -1.25757 0
M  V30 4889 H 437.658 -4.28496 0.094318 0
M  V30 4890 H 441.842 -4.88632 0.869024 0
M  V30 4891 H 437.098 -5.79392 1.9523 0
M  V30 4892 H 441.272 -6.40881 2.72478 0
M  V30 4893 H 438.899 -6.86162 3.27239 0
M  V30 4894 N 440.474 -0.00167713 -1.576 0
M  V30 4895 C 441.437 0.974046 -2.07473 0
M  V30 4896 C 442.437 1.27143 -0.984444 0
M  V30 4897 O 443.627 1.21633 -1.24703 0
M  V30 4898 C 440.759 2.29849 -2.51759 0
M  V30 4899 H 441.952 0.54262 -2.9495 0
M  V30 4900 H 439.505 0.245829 -1.54355 0
M  V30 4901 H 440.24 2.77677 -1.67529 0
M  V30 4902 H 440.025 2.09584 -3.31386 0
M  V30 4903 H 441.515 2.9984 -2.90664 0
M  V30 4904 N 441.952 1.55251 0.271103 0
M  V30 4905 C 443.18 1.79974 1.02064 0
M  V30 4906 C 443.595 0.574003 1.79863 0
M  V30 4907 O 442.952 -0.456962 1.76686 0
M  V30 4908 C 443.003 3.02603 1.97772 0
M  V30 4909 O 442.724 4.20443 1.23124 0
M  V30 4910 C 444.225 3.39944 2.84522 0
M  V30 4911 H 441.445 0.599489 0.301419 0
M  V30 4912 H 443.989 2.02268 0.301313 0
M  V30 4913 H 442.144 2.8243 2.65165 0
M  V30 4914 H 442.558 4.89783 1.87651 0
M  V30 4915 H 444.032 4.28915 3.47471 0
M  V30 4916 H 444.509 2.59432 3.54389 0
M  V30 4917 H 445.115 3.62383 2.22618 0
M  V30 4918 N 443.43 -0.535701 1.48216 0
M  V30 4919 C 444.658 -1.31671 1.59594 0
M  V30 4920 C 445.073 -1.87083 0.254056 0
M  V30 4921 O 444.43 -1.66112 -0.755854 0
M  V30 4922 C 444.481 -2.47158 2.63809 0
M  V30 4923 O 444.202 -1.94032 3.92789 0
M  V30 4924 C 445.703 -3.39062 2.85573 0
M  V30 4925 H 442.923 -0.400623 0.538277 0
M  V30 4926 H 445.467 -0.646827 1.94001 0
M  V30 4927 H 443.622 -3.10043 2.32276 0
M  V30 4928 H 444.036 -2.69585 4.49916 0
M  V30 4929 H 445.51 -4.16459 3.62306 0
M  V30 4930 H 445.987 -3.93941 1.94184 0
M  V30 4931 H 446.593 -2.81975 3.18387 0
M  V30 4932 N 444.908 -1.36708 -0.784132 0
M  V30 4933 C 446.185 -1.21776 -1.53069 0
M  V30 4934 C 446.565 0.193876 -2.10208 0
M  V30 4935 O 445.913 1.20012 -1.94446 0
M  V30 4936 C 446.123 -2.30395 -2.62143 0
M  V30 4937 C 447.471 -2.67325 -3.29882 0
M  V30 4938 O 448.495 -2.29478 -2.7243 0
M  V30 4939 O 447.354 -3.32485 -4.33724 0
M  V30 4940 H 444.448 -0.474459 -0.677361 0
M  V30 4941 H 446.994 -1.48454 -0.82216 0
M  V30 4942 H 445.766 -3.2498 -2.17953 0
M  V30 4943 H 445.389 -2.05112 -3.40609 0
M  V30 4944 N 446.386 1.0089 -1.21074 0
M  V30 4945 C 447.632 1.7497 -1.03717 0
M  V30 4946 C 447.987 1.8764 0.425344 0
M  V30 4947 O 447.28 1.39679 1.3115 0
M  V30 4948 C 447.474 3.16335 -1.66334 0
M  V30 4949 C 447.303 3.17449 -3.18522 0
M  V30 4950 C 446.073 3.2425 -3.87543 0
M  V30 4951 C 448.271 3.02877 -4.15656 0
M  V30 4952 N 446.253 3.14949 -5.26954 0
M  V30 4953 C 447.624 3.0143 -5.41793 0
M  V30 4954 C 449.679 2.8715 -4.06755 0
M  V30 4955 C 448.382 2.85869 -6.60054 0
M  V30 4956 C 450.408 2.72944 -5.24648 0
M  V30 4957 C 449.77 2.72171 -6.49694 0
M  V30 4958 H 445.869 0.650627 -0.43383 0
M  V30 4959 H 448.453 1.19944 -1.53367 0
M  V30 4960 H 446.624 3.69638 -1.19256 0
M  V30 4961 H 448.356 3.78888 -1.42219 0
M  V30 4962 H 445.111 3.31288 -3.38446 0
M  V30 4963 H 445.535 3.13651 -5.9996 0
M  V30 4964 H 450.177 2.86557 -3.10878 0
M  V30 4965 H 447.895 2.8521 -7.56096 0
M  V30 4966 H 451.481 2.61782 -5.19578 0
M  V30 4967 H 450.361 2.61307 -7.39384 0
M  V30 4968 N 447.864 1.01787 1.20321 0
M  V30 4969 C 449.113 0.703249 1.89043 0
M  V30 4970 C 449.426 -0.770445 1.79787 0
M  V30 4971 O 450.632 -1.19767 2.43656 0
M  V30 4972 C 449.088 1.20749 3.3904 0
M  V30 4973 C 448.696 2.70817 3.56878 0
M  V30 4974 C 450.44 0.968352 4.13308 0
M  V30 4975 C 448.347 3.14716 5.00708 0
M  V30 4976 H 447.277 0.259354 0.707991 0
M  V30 4977 H 449.928 1.23072 1.36108 0
M  V30 4978 H 448.31 0.607989 3.91305 0
M  V30 4979 H 449.484 3.36327 3.14993 0
M  V30 4980 H 447.799 2.92888 2.95983 0
M  V30 4981 H 450.396 1.27173 5.19356 0
M  V30 4982 H 450.739 -0.095149 4.16191 0
M  V30 4983 H 451.272 1.53129 3.67146 0
M  V30 4984 H 448.011 4.20347 5.02979 0
M  V30 4985 H 447.531 2.53927 5.43398 0
M  V30 4986 H 449.21 3.07426 5.69296 0
M  V30 4987 N 449.342 -1.36122 0.79427 0
M  V30 4988 C 450.305 -2.28309 0.201889 0
M  V30 4989 C 451.305 -1.49041 -0.603603 0
M  V30 4990 O 452.495 -1.68964 -0.423888 0
M  V30 4991 C 449.627 -3.3321 -0.719978 0
M  V30 4992 H 450.82 -2.82208 1.01481 0
M  V30 4993 H 448.373 -1.45768 0.564037 0
M  V30 4994 H 449.108 -2.84475 -1.55706 0
M  V30 4995 H 448.893 -3.91835 -0.144266 0
M  V30 4996 H 450.383 -4.02044 -1.12916 0
M  V30 4997 N 450.82 -0.546701 -1.47814 0
M  V30 4998 C 452.069 -0.0166497 -2.01693 0
M  V30 4999 C 452.382 1.33721 -1.42752 0
M  V30 5000 O 453.588 1.95658 -1.8823 0
M  V30 5001 C 452.044 0.0206769 -3.59894 0
M  V30 5002 C 451.652 -1.3293 -4.27824 0
M  V30 5003 C 453.396 0.498674 -4.21561 0
M  V30 5004 C 451.303 -1.25165 -5.78003 0
M  V30 5005 H 450.233 -0.0024541 -0.753996 0
M  V30 5006 H 452.884 -0.692984 -1.69912 0
M  V30 5007 H 451.266 0.76244 -3.88591 0
M  V30 5008 H 452.44 -2.08795 -4.10781 0
M  V30 5009 H 450.755 -1.74438 -3.78101 0
M  V30 5010 H 453.352 0.575 -5.31599 0
M  V30 5011 H 453.695 1.5083 -3.88016 0
M  V30 5012 H 454.228 -0.18791 -3.97356 0
M  V30 5013 H 450.967 -2.23695 -6.1615 0
M  V30 5014 H 450.487 -0.53464 -5.97412 0
M  V30 5015 H 452.166 -0.949299 -6.39998 0
M  V30 5016 N 452.299 1.55045 -0.282633 0
M  V30 5017 C 453.529 2.03872 0.334635 0
M  V30 5018 C 453.937 1.16018 1.49454 0
M  V30 5019 O 453.28 0.174449 1.8287 0
M  V30 5020 C 453.342 3.48791 0.870905 0
M  V30 5021 C 453.006 4.56715 -0.161338 0
M  V30 5022 C 454.003 5.10513 -0.983466 0
M  V30 5023 C 451.688 5.01417 -0.297745 0
M  V30 5024 C 453.682 6.07538 -1.92811 0
M  V30 5025 C 451.369 5.98265 -1.24586 0
M  V30 5026 C 452.367 6.51208 -2.05954 0
M  V30 5027 O 452.055 7.46162 -2.99162 0
M  V30 5028 H 451.787 0.671324 0.0793742 0
M  V30 5029 H 454.341 2.01169 -0.41473 0
M  V30 5030 H 452.571 3.48758 1.67047 0
M  V30 5031 H 454.26 3.80916 1.40207 0
M  V30 5032 H 455.026 4.76785 -0.888856 0
M  V30 5033 H 450.905 4.59849 0.325604 0
M  V30 5034 H 454.449 6.48787 -2.56363 0
M  V30 5035 H 450.346 6.31412 -1.34126 0
M  V30 5036 H 451.114 7.63903 -2.93929 0
M  V30 5037 N 453.777 0.010035 1.57597 0
M  V30 5038 C 454.709 -1.00649 2.05918 0
M  V30 5039 C 455.722 -1.30077 0.978964 0
M  V30 5040 O 456.911 -1.26878 1.25556 0
M  V30 5041 C 454.011 -2.33876 2.45265 0
M  V30 5042 C 453.184 -2.23242 3.7614 0
M  V30 5043 C 452.243 -3.39242 4.02245 0
M  V30 5044 O 451.269 -3.1698 4.72771 0
M  V30 5045 N 452.471 -4.6242 3.50924 0
M  V30 5046 H 455.236 -0.594333 2.93748 0
M  V30 5047 H 452.797 -0.17714 1.60928 0
M  V30 5048 H 454.789 -3.1027 2.59836 0
M  V30 5049 H 453.359 -2.66799 1.62902 0
M  V30 5050 H 452.579 -1.31696 3.71551 0
M  V30 5051 H 453.867 -2.13321 4.61922 0
M  V30 5052 H 453.265 -4.83404 2.93832 0
M  V30 5053 H 451.822 -5.36046 3.70807 0
M  V30 5054 N 455.255 -1.55392 -0.262866 0
M  V30 5055 C 456.671 -1.47459 -0.610582 0
M  V30 5056 C 456.871 -0.697031 -1.8906 0
M  V30 5057 O 455.927 -0.219952 -2.5154 0
M  V30 5058 C 457.24 -2.91751 -0.728131 0
M  V30 5059 C 458.788 -3.02027 -0.821517 0
M  V30 5060 C 459.263 -4.47594 -0.97076 0
M  V30 5061 N 460.754 -4.51465 -1.03603 0
M  V30 5062 C 461.489 -5.61326 -1.17049 0
M  V30 5063 N 460.985 -6.81032 -1.2715 0
M  V30 5064 N 462.778 -5.49089 -1.20239 0
M  V30 5065 H 454.929 -2.04395 0.577632 0
M  V30 5066 H 457.192 -0.927287 0.197086 0
M  V30 5067 H 456.898 -3.51413 0.142132 0
M  V30 5068 H 456.772 -3.4134 -1.6052 0
M  V30 5069 H 459.159 -2.42456 -1.68224 0
M  V30 5070 H 459.24 -2.55674 0.0803688 0
M  V30 5071 H 458.884 -5.07771 -0.114655 0
M  V30 5072 H 458.814 -4.91613 -1.88745 0
M  V30 5073 H 461.305 -3.6524 -0.96996 0
M  V30 5074 H 461.618 -7.60511 -1.37271 0
M  V30 5075 H 459.963 -6.83824 -1.24136 0
M  V30 5076 H 463.154 -4.54507 -1.11985 0
M  V30 5077 H 463.327 -6.34749 -1.30373 0
M  V30 5078 N 456.733 0.527833 -1.48498 0
M  V30 5079 C 457.68 1.6322 -1.6318 0
M  V30 5080 C 458.65 1.59199 -0.473815 0
M  V30 5081 O 459.835 1.77591 -0.697563 0
M  V30 5082 C 456.975 3.01474 -1.67951 0
M  V30 5083 C 456.088 3.15713 -2.94871 0
M  V30 5084 C 455.223 4.44539 -2.90789 0
M  V30 5085 C 454.262 4.52315 -4.12404 0
M  V30 5086 N 453.399 5.72533 -4.06387 0
M  V30 5087 H 458.239 1.50011 -2.57489 0
M  V30 5088 H 455.776 0.730298 -1.27691 0
M  V30 5089 H 457.734 3.81572 -1.68698 0
M  V30 5090 H 456.364 3.1345 -0.771306 0
M  V30 5091 H 455.416 2.28854 -3.03859 0
M  V30 5092 H 456.728 3.1732 -3.8485 0
M  V30 5093 H 455.882 5.3293 -2.89949 0
M  V30 5094 H 454.621 4.45457 -1.98542 0
M  V30 5095 H 453.626 3.62331 -4.13517 0
M  V30 5096 H 454.851 4.53134 -5.05812 0
M  V30 5097 H 452.797 5.74344 -3.16962 0
M  V30 5098 H 452.714 5.75643 -4.90073 0
M  V30 5099 H 453.982 6.63204 -4.0961 0
M  V30 5100 N 458.211 1.37122 0.776871 0
M  V30 5101 C 459.457 1.32243 1.53752 0
M  V30 5102 C 459.79 -0.0944745 1.9397 0
M  V30 5103 O 459.065 -1.05068 1.6368 0
M  V30 5104 C 459.348 2.25681 2.80607 0
M  V30 5105 C 459.201 3.76127 2.46676 0
M  V30 5106 C 460.52 2.17657 3.82509 0
M  V30 5107 H 457.639 0.481704 0.557791 0
M  V30 5108 H 460.281 1.6778 0.891612 0
M  V30 5109 H 458.431 1.95505 3.35723 0
M  V30 5110 H 460.103 4.16877 1.97513 0
M  V30 5111 H 458.346 3.94946 1.79443 0
M  V30 5112 H 459.017 4.36933 3.37333 0
M  V30 5113 H 461.493 2.44245 3.36873 0
M  V30 5114 H 460.369 2.85185 4.69 0
M  V30 5115 H 460.63 1.16785 4.26396 0
M  V30 5116 N 459.689 -1.00246 1.21608 0
M  V30 5117 C 460.599 -2.12515 0.993709 0
M  V30 5118 C 461.615 -1.73913 -0.0549939 0
M  V30 5119 O 462.791 -2.00943 0.135619 0
M  V30 5120 C 459.856 -3.42083 0.563953 0
M  V30 5121 C 458.917 -3.94843 1.68516 0
M  V30 5122 C 458.15 -5.18226 1.27582 0
M  V30 5123 O 458.373 -5.70201 0.150506 0
M  V30 5124 O 457.307 -5.64497 2.0887 0
M  V30 5125 H 461.133 -2.34152 1.93407 0
M  V30 5126 H 458.718 -1.10891 1.00118 0
M  V30 5127 H 460.6 -4.20073 0.334194 0
M  V30 5128 H 459.275 -3.21828 -0.347665 0
M  V30 5129 H 458.182 -3.18068 1.96935 0
M  V30 5130 H 459.515 -4.19512 2.5743 0
M  V30 5131 N 461.167 -1.02423 -1.1978 0
M  V30 5132 C 462.13 -0.605703 -2.21052 0
M  V30 5133 C 463.13 0.328209 -1.57415 0
M  V30 5134 O 464.32 0.115853 -1.73814 0
M  V30 5135 C 461.452 0.114366 -3.40708 0
M  V30 5136 H 462.645 -1.5017 -2.59594 0
M  V30 5137 H 460.198 -0.814888 -1.33376 0
M  V30 5138 H 460.933 1.02492 -3.07678 0
M  V30 5139 H 460.718 -0.556641 -3.88129 0
M  V30 5140 H 462.208 0.394272 -4.15735 0
M  V30 5141 N 462.645 1.35699 -0.801477 0
M  V30 5142 C 464.056 1.81415 -0.441073 0
M  V30 5143 C 464.407 1.66595 1.03636 0
M  V30 5144 O 463.532 1.19369 1.80499 0
M  V30 5145 C 464.127 3.29369 -0.793819 0
M  V30 5146 C 462.686 3.73248 -0.486083 0
M  V30 5147 C 461.833 2.57775 -1.02213 0
M  V30 5148 H 464.784 1.23749 -0.993572 0
M  V30 5149 H 464.805 3.80395 -0.0894158 0
M  V30 5150 H 464.317 3.40123 -1.86917 0
M  V30 5151 H 462.418 3.68046 0.580735 0
M  V30 5152 H 462.531 4.68222 -1.01513 0
M  V30 5153 H 460.895 2.50788 -0.444712 0
M  V30 5154 H 461.678 2.71309 -2.10348 0
M  V30 5155 N 464.123 0.554532 1.47522 0
M  V30 5156 C 465.37 0.029479 2.02479 0
M  V30 5157 C 465.698 -1.31929 1.42916 0
M  V30 5158 O 464.953 -1.87112 0.573385 0
M  V30 5159 C 465.252 -0.115927 3.57212 0
M  V30 5160 C 464.918 1.16161 4.3568 0
M  V30 5161 C 463.58 1.51168 4.56839 0
M  V30 5162 C 465.932 2.0083 4.80954 0
M  V30 5163 C 463.26 2.70696 5.2052 0
M  V30 5164 C 465.612 3.19559 5.45953 0
M  V30 5165 C 464.276 3.54882 5.65345 0
M  V30 5166 H 463.546 0.0107871 0.740921 0
M  V30 5167 H 466.193 0.725506 1.77225 0
M  V30 5168 H 464.498 -0.894902 3.81443 0
M  V30 5169 H 466.195 -0.53749 3.97381 0
M  V30 5170 H 462.785 0.879026 4.19489 0
M  V30 5171 H 466.969 1.75093 4.64388 0
M  V30 5172 H 462.225 2.98236 5.33728 0
M  V30 5173 H 466.399 3.85456 5.79997 0
M  V30 5174 H 464.026 4.47596 6.1446 0
M  V30 5175 N 465.601 -1.54893 0.290851 0
M  V30 5176 C 466.85 -1.99111 -0.322113 0
M  V30 5177 C 467.163 -1.18283 -1.55784 0
M  V30 5178 O 468.369 -1.5272 -2.24475 0
M  V30 5179 C 466.825 -3.54442 -0.624438 0
M  V30 5180 C 466.433 -4.44066 0.592373 0
M  V30 5181 C 468.177 -4.07211 -1.19916 0
M  V30 5182 C 466.084 -5.90812 0.263762 0
M  V30 5183 H 465.014 -0.743712 -0.124133 0
M  V30 5184 H 467.665 -1.79132 0.39797 0
M  V30 5185 H 466.047 -3.70281 -1.40384 0
M  V30 5186 H 467.221 -4.39999 1.36886 0
M  V30 5187 H 465.536 -4.02015 1.08502 0
M  V30 5188 H 468.133 -5.14407 -1.45909 0
M  V30 5189 H 468.476 -3.57196 -2.13815 0
M  V30 5190 H 469.009 -3.94873 -0.481687 0
M  V30 5191 H 465.748 -6.44955 1.17105 0
M  V30 5192 H 465.268 -5.97911 -0.475655 0
M  V30 5193 H 466.947 -6.46852 -0.138354 0
M  V30 5194 N 467.08 -0.0183926 -1.57589 0
M  V30 5195 C 468.491 0.521927 -1.79256 0
M  V30 5196 C 468.842 1.72885 -0.927636 0
M  V30 5197 O 467.967 2.15978 -0.135091 0
M  V30 5198 C 468.562 0.953632 -3.25102 0
M  V30 5199 C 467.121 1.43913 -3.47801 0
M  V30 5200 C 466.268 0.398837 -2.74417 0
M  V30 5201 H 469.219 -0.244485 -1.56805 0
M  V30 5202 H 469.24 1.81863 -3.34224 0
M  V30 5203 H 468.752 0.0750123 -3.88028 0
M  V30 5204 H 466.853 2.33804 -2.90115 0
M  V30 5205 H 466.966 1.45391 -4.56507 0
M  V30 5206 H 465.33 0.864572 -2.39577 0
M  V30 5207 H 466.113 -0.471132 -3.40052 0
M  V30 5208 N 468.558 1.5553 0.254621 0
M  V30 5209 C 469.505 1.89666 1.31512 0
M  V30 5210 C 470.475 0.750057 1.482 0
M  V30 5211 O 471.66 1.00301 1.62309 0
M  V30 5212 C 468.8 2.19009 2.667 0
M  V30 5213 C 467.913 3.46435 2.58083 0
M  V30 5214 C 467.048 3.65386 3.85573 0
M  V30 5215 C 466.087 4.8644 3.71541 0
M  V30 5216 N 465.224 5.01952 4.90906 0
M  V30 5217 H 470.064 2.80109 1.017 0
M  V30 5218 H 467.601 1.38666 0.490938 0
M  V30 5219 H 469.559 2.34025 3.45381 0
M  V30 5220 H 468.189 1.31779 2.94676 0
M  V30 5221 H 467.241 3.39792 1.71013 0
M  V30 5222 H 468.553 4.35258 2.43622 0
M  V30 5223 H 467.707 3.80319 4.72697 0
M  V30 5224 H 466.446 2.74781 4.02922 0
M  V30 5225 H 465.451 4.71491 2.82801 0
M  V30 5226 H 466.676 5.78497 3.55694 0
M  V30 5227 H 464.622 4.14283 5.08631 0
M  V30 5228 H 464.539 5.84851 4.79046 0
M  V30 5229 H 465.807 5.21289 5.7955 0
M  V30 5230 N 470.036 -0.519951 1.48776 0
M  V30 5231 C 471.283 -1.27522 1.57303 0
M  V30 5232 C 471.611 -1.92869 0.251328 0
M  V30 5233 O 470.866 -1.80372 -0.759243 0
M  V30 5234 C 471.165 -2.37864 2.6675 0
M  V30 5235 C 470.831 -1.90103 4.08867 0
M  V30 5236 C 469.493 -1.76795 4.47546 0
M  V30 5237 C 471.845 -1.54133 4.97888 0
M  V30 5238 C 469.173 -1.25868 5.73039 0
M  V30 5239 C 471.525 -1.04665 6.23881 0
M  V30 5240 C 470.189 -0.899823 6.61407 0
M  V30 5241 H 469.459 -0.466636 0.575614 0
M  V30 5242 H 472.106 -0.579109 1.82534 0
M  V30 5243 H 470.411 -3.13186 2.35418 0
M  V30 5244 H 472.108 -2.95969 2.70561 0
M  V30 5245 H 468.698 -2.01414 3.78326 0
M  V30 5246 H 472.882 -1.6327 4.68675 0
M  V30 5247 H 468.138 -1.13196 6.0083 0
M  V30 5248 H 472.312 -0.759074 6.92251 0
M  V30 5249 H 469.939 -0.503011 7.58534 0
M  V30 5250 N 471.514 -1.37532 -0.769588 0
M  V30 5251 C 472.461 -1.3347 -1.88293 0
M  V30 5252 C 473.431 -0.199891 -1.64893 0
M  V30 5253 O 474.616 -0.389594 -1.8678 0
M  V30 5254 C 471.756 -1.14968 -3.25387 0
M  V30 5255 C 470.869 -2.37698 -3.60727 0
M  V30 5256 C 470.004 -2.12051 -4.8704 0
M  V30 5257 C 469.043 -3.30636 -5.15117 0
M  V30 5258 N 468.18 -3.04527 -6.3262 0
M  V30 5259 H 473.02 -2.28658 -1.911 0
M  V30 5260 H 470.557 -1.13622 -0.934257 0
M  V30 5261 H 472.515 -1.02261 -4.04473 0
M  V30 5262 H 471.145 -0.234263 -3.21949 0
M  V30 5263 H 470.197 -2.61137 -2.76608 0
M  V30 5264 H 471.509 -3.26131 -3.77413 0
M  V30 5265 H 470.663 -1.96388 -5.74035 0
M  V30 5266 H 469.402 -1.20959 -4.72462 0
M  V30 5267 H 468.407 -3.46836 -4.26597 0
M  V30 5268 H 469.632 -4.22582 -5.31603 0
M  V30 5269 H 467.578 -2.16067 -6.19396 0
M  V30 5270 H 467.495 -3.86503 -6.49732 0
M  V30 5271 H 468.763 -2.92485 -7.22546 0
M  V30 5272 N 472.992 0.995999 -1.22138 0
M  V30 5273 C 474.24 1.73167 -1.042 0
M  V30 5274 C 474.561 1.90329 0.42423 0
M  V30 5275 O 473.831 1.4607 1.30539 0
M  V30 5276 H 472.411 0.641593 -0.38258 0
M  V30 5277 H 475.073 1.19974 -1.53598 0
M  V30 5278 H 474.169 2.72734 -1.51731 0
M  V30 5279 N 474.47 1.03057 1.19235 0
M  V30 5280 C 475.881 0.757449 1.70645 0
M  V30 5281 C 476.232 -0.722735 1.82403 0
M  V30 5282 O 475.357 -1.56325 1.49638 0
M  V30 5283 C 475.952 1.36833 3.09939 0
M  V30 5284 C 474.511 1.14375 3.58602 0
M  V30 5285 C 473.658 1.46533 2.35422 0
M  V30 5286 H 476.609 1.19828 1.04052 0
M  V30 5287 H 476.63 0.766184 3.72706 0
M  V30 5288 H 476.142 2.44562 3.01349 0
M  V30 5289 H 474.243 0.0847542 3.72504 0
M  V30 5290 H 474.356 1.83366 4.42622 0
M  V30 5291 H 472.72 0.884712 2.38841 0
M  V30 5292 H 473.503 2.55349 2.2946 0
M  V30 5293 N 475.948 -1.35272 0.808662 0
M  V30 5294 C 477.196 -1.98316 0.389233 0
M  V30 5295 C 477.517 -1.64465 -1.04767 0
M  V30 5296 O 476.787 -0.928175 -1.72516 0
M  V30 5297 H 475.367 -0.733585 0.140935 0
M  V30 5298 H 478.029 -1.6515 1.03496 0
M  V30 5299 H 477.125 -3.08123 0.496631 0
M  V30 5300 N 477.426 -0.562348 -1.47226 0
M  V30 5301 C 478.703 0.0256985 -1.95583 0
M  V30 5302 C 479.083 1.48032 -1.50498 0
M  V30 5303 O 478.431 2.15973 -0.746181 0
M  V30 5304 C 478.641 -0.125129 -3.48776 0
M  V30 5305 C 479.989 0.0175728 -4.24596 0
M  V30 5306 O 481.013 -0.0529341 -3.56161 0
M  V30 5307 O 479.872 0.170145 -5.46235 0
M  V30 5308 H 476.966 0.0612565 -0.824728 0
M  V30 5309 H 479.512 -0.629233 -1.57603 0
M  V30 5310 H 478.284 -1.13715 -3.74412 0
M  V30 5311 H 477.907 0.567178 -3.93534 0
M  V30 5312 N 478.904 1.54736 -0.299062 0
M  V30 5313 C 480.132 2.04512 0.313447 0
M  V30 5314 C 480.547 1.17643 1.47667 0
M  V30 5315 O 479.904 0.20164 1.81383 0
M  V30 5316 C 479.955 3.53171 0.771542 0
M  V30 5317 O 479.676 4.36736 -0.345379 0
M  V30 5318 C 481.177 4.18936 1.4494 0
M  V30 5319 H 478.397 0.667507 0.0683784 0
M  V30 5320 H 480.941 1.99752 -0.438129 0
M  V30 5321 H 479.096 3.58298 1.47314 0
M  V30 5322 H 479.51 5.24499 0.0109219 0
M  V30 5323 H 480.984 5.24482 1.72111 0
M  V30 5324 H 481.461 3.68554 2.38883 0
M  V30 5325 H 482.067 4.17879 0.791028 0
M  V30 5326 N 480.382 0.0267497 1.57577 0
M  V30 5327 C 481.607 -0.666227 1.96408 0
M  V30 5328 C 482.032 -1.65004 0.903071 0
M  V30 5329 O 481.39 -1.80787 -0.136263 0
M  V30 5330 C 481.438 -1.35101 3.34335 0
M  V30 5331 O 480.542 -2.46623 3.30531 0
M  V30 5332 H 479.883 -0.175206 0.640468 0
M  V30 5333 H 482.413 0.0878977 2.04411 0
M  V30 5334 H 482.423 -1.70834 3.70513 0
M  V30 5335 H 481.098 -0.629844 4.11103 0
M  V30 5336 H 479.675 -2.13019 3.06068 0
M  V30 5337 N 481.861 -1.55662 -0.24637 0
M  V30 5338 C 482.809 -1.91186 -1.3248 0
M  V30 5339 C 483.803 -0.790996 -1.49799 0
M  V30 5340 O 485.009 -0.975617 -1.51267 0
M  V30 5341 H 481.384 -0.607207 -0.443626 0
M  V30 5342 H 483.355 -2.81221 -0.997853 0
M  V30 5343 C 482.104 -2.22349 -2.67313 0
M  V30 5344 H 481.427 -3.08097 -2.54786 0
M  V30 5345 H 482.867 -2.51107 -3.41645 0
M  V30 5346 C 481.326 -1.04001 -3.20446 0
M  V30 5347 O 481.856 -0.28828 -4.00664 0
M  V30 5348 N 480.062 -0.830494 -2.7848 0
M  V30 5349 H 479.609 -1.4435 -2.13356 0
M  V30 5350 H 479.567 -0.0403258 -3.14374 0
M  V30 5351 N 483.339 0.512053 -1.4905 0
M  V30 5352 C 484.586 1.26686 -1.57978 0
M  V30 5353 C 484.914 1.92733 -0.261553 0
M  V30 5354 O 484.169 1.80772 0.749667 0
M  V30 5355 C 484.468 2.36446 -2.68008 0
M  V30 5356 C 484.134 1.87932 -4.09869 0
M  V30 5357 C 482.796 1.74419 -4.48477 0
M  V30 5358 C 485.148 1.5149 -4.98698 0
M  V30 5359 C 482.476 1.22827 -5.73699 0
M  V30 5360 C 484.828 1.01355 -6.24428 0
M  V30 5361 C 483.492 0.864735 -6.61875 0
M  V30 5362 H 482.762 0.463577 -0.578081 0
M  V30 5363 H 485.409 0.569421 -1.82838 0
M  V30 5364 H 483.714 3.11933 -2.37076 0
M  V30 5365 H 485.411 2.9453 -2.72127 0
M  V30 5366 H 482.001 1.99405 -3.79389 0
M  V30 5367 H 486.185 1.60782 -4.69535 0
M  V30 5368 H 481.441 1.10008 -6.01422 0
M  V30 5369 H 485.615 0.722351 -6.92644 0
M  V30 5370 H 483.242 0.462777 -7.5879 0
M  V30 5371 N 484.817 1.37938 0.762283 0
M  V30 5372 C 486.094 1.24196 1.51112 0
M  V30 5373 C 486.474 -0.160409 2.1049 0
M  V30 5374 O 485.822 -1.16904 1.96331 0
M  V30 5375 C 486.032 2.34537 2.58445 0
M  V30 5376 C 487.38 2.7254 3.25588 0
M  V30 5377 O 488.404 2.33783 2.68745 0
M  V30 5378 O 487.263 3.39343 4.28379 0
M  V30 5379 H 484.357 0.485175 0.669727 0
M  V30 5380 H 486.903 1.49743 0.798438 0
M  V30 5381 H 485.675 3.28406 2.12756 0
M  V30 5382 H 485.298 2.10505 3.37303 0
M  V30 5383 N 486.295 -0.989507 1.22664 0
M  V30 5384 C 487.572 -1.70326 0.961688 0
M  V30 5385 C 487.952 -2.04537 -0.522279 0
M  V30 5386 O 487.3 -1.73136 -1.49118 0
M  V30 5387 C 487.51 -2.95135 1.86269 0
M  V30 5388 C 488.858 -3.67842 2.12078 0
M  V30 5389 O 489.882 -3.0515 1.83745 0
M  V30 5390 O 488.741 -4.80644 2.60083 0
M  V30 5391 H 485.835 -0.743589 0.361946 0
M  V30 5392 H 488.381 -1.04555 1.33665 0
M  V30 5393 H 487.153 -2.66382 2.8663 0
M  V30 5394 H 486.776 -3.68645 1.48952 0
M  V30 5395 N 487.773 -1.03688 -1.18687 0
M  V30 5396 C 489.003 -0.756819 -1.92239 0
M  V30 5397 C 489.411 0.689374 -1.76194 0
M  V30 5398 O 488.754 1.48126 -1.08648 0
M  V30 5399 C 488.816 -1.03851 -3.44173 0
M  V30 5400 C 488.48 -2.47785 -3.83994 0
M  V30 5401 C 489.477 -3.4595 -3.88091 0
M  V30 5402 C 487.162 -2.82397 -4.154 0
M  V30 5403 C 489.156 -4.76779 -4.23038 0
M  V30 5404 C 486.843 -4.13433 -4.50018 0
M  V30 5405 C 487.841 -5.10434 -4.53813 0
M  V30 5406 O 487.529 -6.39122 -4.87625 0
M  V30 5407 H 487.261 -0.275678 -0.617234 0
M  V30 5408 H 489.815 -1.38658 -1.51536 0
M  V30 5409 H 488.045 -0.351612 -3.85098 0
M  V30 5410 H 489.734 -0.746846 -3.9897 0
M  V30 5411 H 490.5 -3.20549 -3.63969 0
M  V30 5412 H 486.379 -2.07568 -4.11627 0
M  V30 5413 H 489.923 -5.52488 -4.25914 0
M  V30 5414 H 485.82 -4.38604 -4.736 0
M  V30 5415 H 486.588 -6.43715 -5.05542 0
M  V30 5416 N 489.251 1.34841 -0.815825 0
M  V30 5417 C 490.161 2.33425 -0.234462 0
M  V30 5418 C 491.177 1.62295 0.627413 0
M  V30 5419 O 492.353 1.94109 0.536987 0
M  V30 5420 C 489.418 3.41471 0.599849 0
M  V30 5421 C 488.479 4.28362 -0.283596 0
M  V30 5422 C 487.712 5.31248 0.51099 0
M  V30 5423 O 487.935 5.43056 1.7449 0
M  V30 5424 O 486.869 6.01812 -0.10297 0
M  V30 5425 H 490.695 2.84962 -1.05024 0
M  V30 5426 H 488.28 1.37774 -0.577809 0
M  V30 5427 H 490.162 4.07464 1.07475 0
M  V30 5428 H 488.837 2.9219 1.39308 0
M  V30 5429 H 487.744 3.65318 -0.805836 0
M  V30 5430 H 489.077 4.81066 -1.041 0
M  V30 5431 N 490.729 0.570148 1.46925 0
M  V30 5432 C 491.639 -0.173061 2.33961 0
M  V30 5433 C 492.655 -0.898825 1.48987 0
M  V30 5434 O 493.831 -0.864825 1.81887 0
M  V30 5435 C 490.896 -1.18177 3.25937 0
M  V30 5436 C 489.957 -0.462041 4.26806 0
M  V30 5437 C 489.19 -1.4227 5.14388 0
M  V30 5438 O 489.413 -2.65842 5.04662 0
M  V30 5439 O 488.347 -0.940127 5.94513 0
M  V30 5440 H 492.173 0.541216 2.98839 0
M  V30 5441 H 489.758 0.330647 1.45695 0
M  V30 5442 H 491.64 -1.76372 3.82715 0
M  V30 5443 H 490.315 -1.87774 2.63671 0
M  V30 5444 H 489.222 0.161429 3.73752 0
M  V30 5445 H 490.555 0.192719 4.91823 0
M  V30 5446 N 492.207 -1.54576 0.307264 0
M  V30 5447 C 493.117 -2.27435 -0.57536 0
M  V30 5448 C 494.133 -1.31183 -1.14311 0
M  V30 5449 O 495.309 -1.64175 -1.16656 0
M  V30 5450 C 492.374 -3.00566 -1.72803 0
M  V30 5451 C 491.435 -4.12369 -1.19373 0
M  V30 5452 C 490.668 -4.82003 -2.29147 0
M  V30 5453 O 490.891 -4.51038 -3.49171 0
M  V30 5454 O 489.825 -5.69271 -1.95485 0
M  V30 5455 H 493.651 -3.03696 0.0158558 0
M  V30 5456 H 491.236 -1.49219 0.0735064 0
M  V30 5457 H 493.118 -3.46416 -2.39946 0
M  V30 5458 H 491.793 -2.27195 -2.30574 0
M  V30 5459 H 490.7 -3.70905 -0.487851 0
M  V30 5460 H 492.033 -4.87736 -0.661376 0
M  V30 5461 N 493.685 -0.035106 -1.57561 0
M  V30 5462 C 494.595 0.960295 -2.14046 0
M  V30 5463 C 495.611 1.3529 -1.0942 0
M  V30 5464 O 496.787 1.43309 -1.41508 0
M  V30 5465 C 493.852 2.22214 -2.66124 0
M  V30 5466 C 492.913 1.8894 -3.85487 0
M  V30 5467 C 492.146 3.09109 -4.35072 0
M  V30 5468 O 492.369 4.21963 -3.83802 0
M  V30 5469 O 491.303 2.91058 -5.26848 0
M  V30 5470 H 495.129 0.509983 -2.99387 0
M  V30 5471 H 492.714 0.185853 -1.48239 0
M  V30 5472 H 494.596 2.96279 -2.99661 0
M  V30 5473 H 493.271 2.66414 -1.83862 0
M  V30 5474 H 492.178 1.12241 -3.56865 0
M  V30 5475 H 493.511 1.49551 -4.6893 0
M  V30 5476 N 495.163 1.55791 0.238111 0
M  V30 5477 C 496.412 1.77234 0.962868 0
M  V30 5478 C 496.725 0.600661 1.86149 0
M  V30 5479 O 497.931 0.698315 2.62366 0
M  V30 5480 C 496.387 3.13808 1.76218 0
M  V30 5481 C 495.995 4.3865 0.910518 0
M  V30 5482 C 497.739 3.44585 2.47914 0
M  V30 5483 C 495.646 5.66252 1.70623 0
M  V30 5484 H 494.576 0.660731 0.36325 0
M  V30 5485 H 497.227 1.8221 0.217242 0
M  V30 5486 H 495.609 3.02963 2.55009 0
M  V30 5487 H 496.783 4.60507 0.164316 0
M  V30 5488 H 495.098 4.15271 0.30647 0
M  V30 5489 H 497.695 4.3714 3.07917 0
M  V30 5490 H 498.038 2.66314 3.19973 0
M  V30 5491 H 498.571 3.56685 1.76127 0
M  V30 5492 H 495.31 6.47369 1.02923 0
M  V30 5493 H 494.83 5.48483 2.42748 0
M  V30 5494 H 496.509 6.05829 2.27114 0
M  V30 5495 N 496.642 -0.504142 1.49319 0
M  V30 5496 C 498.058 -0.835039 1.36012 0
M  V30 5497 C 498.258 -1.97674 0.390808 0
M  V30 5498 O 497.314 -2.51867 -0.178655 0
M  V30 5499 C 498.627 -1.17821 2.76656 0
M  V30 5500 C 500.175 -1.2866 2.85334 0
M  V30 5501 C 500.65 -1.66307 4.26739 0
M  V30 5502 N 502.141 -1.73362 4.29534 0
M  V30 5503 C 502.876 -2.0393 5.35911 0
M  V30 5504 N 502.372 -2.32744 6.52535 0
M  V30 5505 N 504.165 -2.05155 5.23324 0
M  V30 5506 H 496.316 0.248764 2.10938 0
M  V30 5507 H 498.579 0.0486962 0.946748 0
M  V30 5508 H 498.285 -0.412682 3.4927 0
M  V30 5509 H 498.159 -2.12239 3.11825 0
M  V30 5510 H 500.546 -2.04285 2.1296 0
M  V30 5511 H 500.627 -0.323004 2.53752 0
M  V30 5512 H 500.271 -0.91234 4.99639 0
M  V30 5513 H 500.201 -2.63761 4.55782 0
M  V30 5514 H 502.692 -1.53268 3.45424 0
M  V30 5515 H 503.005 -2.55248 7.2943 0
M  V30 5516 H 501.35 -2.30207 6.55767 0
M  V30 5517 H 504.541 -1.82119 4.3122 0
M  V30 5518 H 504.714 -2.28644 6.06322 0
M  V30 5519 N 498.12 -1.38341 -0.754957 0
M  V30 5520 C 499.366 -1.34672 -1.51628 0
M  V30 5521 C 499.699 0.0636036 -1.94096 0
M  V30 5522 O 498.974 1.0245 -1.6533 0
M  V30 5523 C 499.257 -2.30116 -2.76981 0
M  V30 5524 C 499.11 -3.80003 -2.4066 0
M  V30 5525 C 500.429 -2.23715 -3.78998 0
M  V30 5526 H 497.548 -0.490517 -0.550056 0
M  V30 5527 H 500.19 -1.69178 -0.864807 0
M  V30 5528 H 498.34 -2.00821 -3.3257 0
M  V30 5529 H 500.012 -4.19966 -1.90856 0
M  V30 5530 H 498.255 -3.97751 -1.73137 0
M  V30 5531 H 498.926 -4.42244 -3.30339 0
M  V30 5532 H 501.402 -2.49574 -3.32945 0
M  V30 5533 H 500.278 -2.9261 -4.64403 0
M  V30 5534 H 500.539 -1.23554 -4.24484 0
M  V30 5535 N 499.598 0.982988 -1.23187 0
M  V30 5536 C 500.823 1.76455 -1.08988 0
M  V30 5537 C 501.248 1.84726 0.354691 0
M  V30 5538 O 500.606 1.30699 1.25649 0
M  V30 5539 C 500.654 3.17094 -1.71708 0
M  V30 5540 O 499.758 4.00648 -0.977477 0
M  V30 5541 H 499.099 0.542988 -0.382177 0
M  V30 5542 H 501.629 1.23413 -1.63188 0
M  V30 5543 H 501.639 3.67684 -1.76841 0
M  V30 5544 H 500.314 3.10389 -2.76823 0
M  V30 5545 H 498.891 3.59161 -1.0029 0
M  V30 5546 N 501.076 1.04316 1.18135 0
M  V30 5547 C 502.325 0.74319 1.87509 0
M  V30 5548 C 502.638 -0.732136 1.81381 0
M  V30 5549 O 503.844 -1.14572 2.46141 0
M  V30 5550 C 502.3 1.27913 3.36402 0
M  V30 5551 C 501.908 2.78326 3.51053 0
M  V30 5552 C 503.652 1.0558 4.11161 0
M  V30 5553 C 501.559 3.25266 4.93919 0
M  V30 5554 H 500.489 0.274313 0.702331 0
M  V30 5555 H 503.14 1.25931 1.33467 0
M  V30 5556 H 501.522 0.690853 3.89927 0
M  V30 5557 H 502.696 3.42933 3.07788 0
M  V30 5558 H 501.011 2.991 2.89704 0
M  V30 5559 H 503.608 1.38161 5.16542 0
M  V30 5560 H 503.951 -0.00684729 4.16299 0
M  V30 5561 H 504.484 1.60882 3.63816 0
M  V30 5562 H 501.223 4.30922 4.9395 0
M  V30 5563 H 500.743 2.65396 5.3789 0
M  V30 5564 H 502.422 3.19433 5.62647 0
M  V30 5565 N 502.554 -1.34406 0.822964 0
M  V30 5566 C 503.502 -2.31428 0.233165 0
M  V30 5567 C 504.496 -1.57404 -0.626118 0
M  V30 5568 O 505.702 -1.72402 -0.517453 0
M  V30 5569 H 502.077 -0.749863 0.0566557 0
M  V30 5570 H 504.048 -2.78699 1.06628 0
M  V30 5571 C 502.797 -3.42653 -0.590264 0
M  V30 5572 H 502.12 -3.99753 0.0616129 0
M  V30 5573 H 503.56 -4.12778 -0.969054 0
M  V30 5574 C 502.019 -2.87112 -1.76262 0
M  V30 5575 O 502.549 -2.81995 -2.8608 0
M  V30 5576 N 500.755 -2.43934 -1.57938 0
M  V30 5577 H 500.302 -2.48296 -0.686078 0
M  V30 5578 H 500.26 -2.07123 -2.36532 0
M  V30 5579 N 504.032 -0.577932 -1.46621 0
M  V30 5580 C 504.942 0.160651 -2.34049 0
M  V30 5581 C 505.958 0.890911 -1.49462 0
M  V30 5582 O 507.134 0.855166 -1.82343 0
M  V30 5583 C 504.199 1.16447 -3.26559 0
M  V30 5584 C 503.26 0.4394 -4.27045 0
M  V30 5585 C 502.493 1.3954 -5.15135 0
M  V30 5586 O 502.716 2.63162 -5.06065 0
M  V30 5587 O 501.65 0.908585 -5.95003 0
M  V30 5588 H 505.476 -0.557057 -2.98547 0
M  V30 5589 H 503.061 -0.338369 -1.45518 0
M  V30 5590 H 504.943 1.7434 -3.83645 0
M  V30 5591 H 503.618 1.86373 -2.64663 0
M  V30 5592 H 502.525 -0.181247 -3.73661 0
M  V30 5593 H 503.858 -0.218799 -4.91713 0
M  V30 5594 N 505.51 1.54411 -0.315457 0
M  V30 5595 C 506.457 2.24048 0.554166 0
M  V30 5596 C 507.427 1.2283 1.11812 0
M  V30 5597 O 508.612 1.51491 1.15997 0
M  V30 5598 C 505.752 2.99574 1.71316 0
M  V30 5599 C 504.865 4.15594 1.17922 0
M  V30 5600 C 504 4.78669 2.30324 0
M  V30 5601 C 503.039 5.86807 1.74137 0
M  V30 5602 N 502.176 6.43777 2.8017 0
M  V30 5603 H 507.016 2.97964 -0.0462602 0
M  V30 5604 H 504.553 1.47059 -0.0346009 0
M  V30 5605 H 506.511 3.41604 2.39505 0
M  V30 5606 H 505.141 2.28008 2.285 0
M  V30 5607 H 504.193 3.78404 0.389136 0
M  V30 5608 H 505.505 4.93459 0.728012 0
M  V30 5609 H 504.659 5.23626 3.06433 0
M  V30 5610 H 503.398 4.00168 2.78778 0
M  V30 5611 H 502.403 5.41261 0.965236 0
M  V30 5612 H 503.628 6.67201 1.2657 0
M  V30 5613 H 501.574 5.68153 3.2793 0
M  V30 5614 H 501.491 7.17031 2.39588 0
M  V30 5615 H 502.759 6.9339 3.56132 0
M  V30 5616 N 506.988 0.0434614 1.5754 0
M  V30 5617 C 508.228 -0.636023 1.94253 0
M  V30 5618 C 508.592 -1.68461 0.921132 0
M  V30 5619 O 509.793 -2.41762 1.17494 0
M  V30 5620 C 508.064 -1.22357 3.35803 0
M  V30 5621 S 509.623 -1.92213 3.94461 0
M  V30 5622 H 506.441 -0.209041 0.679575 0
M  V30 5623 H 509.043 0.110556 1.95187 0
M  V30 5624 H 507.747 -0.448162 4.07946 0
M  V30 5625 H 507.278 -2.00713 3.38346 0
M  V30 5626 H 509.293 -3.20199 3.79061 0
M  V30 5627 N 508.466 -1.55915 -0.229846 0
M  V30 5628 C 509.714 -1.7819 -0.953565 0
M  V30 5629 C 510.035 -0.610504 -1.85197 0
M  V30 5630 O 509.305 0.372988 -1.92316 0
M  V30 5631 H 507.885 -0.657208 -0.355087 0
M  V30 5632 H 510.547 -1.9337 -0.243693 0
M  V30 5633 H 509.643 -2.70011 -1.56527 0
M  V30 5634 N 509.944 0.496216 -1.49584 0
M  V30 5635 C 510.891 1.59722 -1.66606 0
M  V30 5636 C 511.861 1.58158 -0.507477 0
M  V30 5637 O 513.046 1.76072 -0.735076 0
M  V30 5638 C 510.186 2.97844 -1.74308 0
M  V30 5639 C 509.299 3.09388 -3.01502 0
M  V30 5640 C 508.434 4.38271 -3.00153 0
M  V30 5641 C 507.473 4.43466 -4.21906 0
M  V30 5642 N 506.61 5.63784 -4.1844 0
M  V30 5643 H 511.45 1.44515 -2.60613 0
M  V30 5644 H 508.987 0.703048 -1.29212 0
M  V30 5645 H 510.945 3.77907 -1.76754 0
M  V30 5646 H 509.575 3.11743 -0.837619 0
M  V30 5647 H 508.627 2.22357 -3.08645 0
M  V30 5648 H 509.939 3.09085 -3.91494 0
M  V30 5649 H 509.093 5.2666 -3.01188 0
M  V30 5650 H 507.832 4.41146 -2.07947 0
M  V30 5651 H 506.837 3.53478 -4.21109 0
M  V30 5652 H 508.062 4.42303 -5.1531 0
M  V30 5653 H 506.008 5.67491 -3.29074 0
M  V30 5654 H 505.925 5.65118 -5.02173 0
M  V30 5655 H 507.193 6.54367 -4.23585 0
M  V30 5656 N 511.423 1.38739 0.74761 0
M  V30 5657 C 512.333 1.38696 1.89211 0
M  V30 5658 C 513.349 0.283303 1.71678 0
M  V30 5659 O 514.525 0.522713 1.94498 0
M  V30 5660 C 511.59 1.21662 3.24653 0
M  V30 5661 C 510.651 2.41886 3.54669 0
M  V30 5662 C 509.884 2.25655 4.83648 0
M  V30 5663 O 510.107 1.25339 5.56459 0
M  V30 5664 O 509.041 3.14372 5.13277 0
M  V30 5665 H 512.867 2.35143 1.92202 0
M  V30 5666 H 510.452 1.19721 0.893708 0
M  V30 5667 H 512.334 1.14246 4.05618 0
M  V30 5668 H 511.009 0.283024 3.2246 0
M  V30 5669 H 509.916 2.54877 2.73841 0
M  V30 5670 H 511.249 3.33895 3.61628 0
M  V30 5671 N 512.901 -0.976442 1.23707 0
M  V30 5672 C 514.148 -1.71827 1.07153 0
M  V30 5673 C 514.476 -1.9053 -0.390982 0
M  V30 5674 O 513.731 -1.45779 -1.30564 0
M  V30 5675 C 514.03 -3.11814 1.74662 0
M  V30 5676 C 513.696 -3.12978 3.24585 0
M  V30 5677 C 512.358 -3.13003 3.6549 0
M  V30 5678 C 514.71 -3.07986 4.20469 0
M  V30 5679 C 512.038 -3.05757 5.00729 0
M  V30 5680 C 514.39 -3.02282 5.55705 0
M  V30 5681 C 513.054 -3.00631 5.95968 0
M  V30 5682 H 512.324 -0.628758 0.392102 0
M  V30 5683 H 514.971 -1.14239 1.53693 0
M  V30 5684 H 513.276 -3.72812 1.20492 0
M  V30 5685 H 514.973 -3.67989 1.59328 0
M  V30 5686 H 511.563 -3.13718 2.92026 0
M  V30 5687 H 515.747 -3.07103 3.89874 0
M  V30 5688 H 511.003 -3.02834 5.31132 0
M  V30 5689 H 515.177 -2.97376 6.29714 0
M  V30 5690 H 512.804 -2.94771 7.00724 0
M  V30 5691 N 514.379 -1.04941 -1.1758 0
M  V30 5692 C 515.604 -0.778253 -1.92245 0
M  V30 5693 C 516.029 0.659707 -1.76152 0
M  V30 5694 O 515.387 1.45803 -1.07755 0
M  V30 5695 C 515.435 -1.16051 -3.41416 0
M  V30 5696 O 514.539 -0.291153 -4.11371 0
M  V30 5697 H 513.88 -0.285619 -0.599431 0
M  V30 5698 H 516.41 -1.40159 -1.49052 0
M  V30 5699 H 516.42 -1.12619 -3.92149 0
M  V30 5700 H 515.095 -2.208 -3.52449 0
M  V30 5701 H 513.672 -0.385851 -3.70898 0
M  V30 5702 N 515.857 1.33968 -0.830081 0
M  V30 5703 C 516.767 2.33164 -0.259207 0
M  V30 5704 C 517.783 1.62951 0.610164 0
M  V30 5705 O 518.959 1.94668 0.516369 0
M  V30 5706 C 516.024 3.42088 0.563598 0
M  V30 5707 C 515.085 4.28037 -0.329014 0
M  V30 5708 C 514.318 5.3176 0.454616 0
M  V30 5709 O 514.541 5.44876 1.6872 0
M  V30 5710 O 513.475 6.01669 -0.166794 0
M  V30 5711 H 517.301 2.83832 -1.08041 0
M  V30 5712 H 514.886 1.37154 -0.59239 0
M  V30 5713 H 516.768 4.08581 1.03147 0
M  V30 5714 H 515.443 2.93651 1.36201 0
M  V30 5715 H 514.35 3.64443 -0.844538 0
M  V30 5716 H 515.683 4.79934 -1.09196 0
M  V30 5717 N 517.335 0.585699 1.46312 0
M  V30 5718 C 518.582 0.0724211 2.0237 0
M  V30 5719 C 518.91 -1.28868 1.45683 0
M  V30 5720 O 518.165 -1.85853 0.612945 0
M  V30 5721 C 518.464 -0.0401312 3.57377 0
M  V30 5722 C 518.13 1.25376 4.33119 0
M  V30 5723 C 516.792 1.60824 4.5353 0
M  V30 5724 C 519.144 2.10987 4.76586 0
M  V30 5725 C 516.472 2.81676 5.14661 0
M  V30 5726 C 518.824 3.31068 5.39052 0
M  V30 5727 C 517.488 3.66794 5.5769 0
M  V30 5728 H 516.758 0.0265007 0.740526 0
M  V30 5729 H 519.405 0.762935 1.75646 0
M  V30 5730 H 517.71 -0.813791 3.83255 0
M  V30 5731 H 519.407 -0.453078 3.98432 0
M  V30 5732 H 515.997 0.967808 4.1753 0
M  V30 5733 H 520.181 1.84904 4.60569 0
M  V30 5734 H 515.437 3.0949 5.27282 0
M  V30 5735 H 519.611 3.97672 5.71691 0
M  V30 5736 H 517.238 4.60529 6.04828 0
M  V30 5737 O 518.852 -1.54637 0.465785 0
M  V30 5738 H 519.543 -1.93604 -0.0608748 0
M  V30 END ATOM
M  V30 BEGIN BOND
M  V30 END BOND
M  V30 END CTAB
M  END
$$$$
