drugbank_target|P09391 Rhomboid protease GlpG (DB02451; DB04147)
 OpenBabel12092120433D

  0  0  0     0  0            999 V3000
M  V30 BEGIN CTAB
M  V30 COUNTS 4421 4490 0 0 0
M  V30 BEGIN ATOM
M  V30 1 H -0.908 1.98254 -0.117106 0
M  V30 2 N 0 1.576 0 0
M  V30 3 C 0.933 2.03868 1.02534 0
M  V30 4 C 1.911 0.928543 1.3348 0
M  V30 5 O 3.095 1.19667 1.45644 0
M  V30 6 C 0.222 2.43627 2.35294 0
M  V30 7 C -0.732 3.65373 2.2001 0
M  V30 8 S 0.101 5.13292 1.52614 0
M  V30 9 C 1.257 5.56322 2.86805 0
M  V30 10 H 1.49 2.90518 0.631377 0
M  V30 11 H -0.977 1.52953 0.210867 0
M  V30 12 H 0.981 2.67203 3.11629 0
M  V30 13 H -0.358 1.57376 2.7183 0
M  V30 14 H -1.165 3.90944 3.18086 0
M  V30 15 H -1.563 3.418 1.51819 0
M  V30 16 H 0.729 5.58782 3.83104 0
M  V30 17 H 1.672 6.56266 2.65933 0
M  V30 18 H 2.08 4.83886 2.90714 0
M  V30 19 N 1.4781 -0.272755 1.55222 0
M  V30 20 C 2.4081 -1.34136 1.91127 0
M  V30 21 C 3.3891 -1.51513 0.773168 0
M  V30 22 O 4.5741 -1.64552 1.03132 0
M  V30 23 C 1.7041 -2.70083 2.1834 0
M  V30 24 C 0.6581 -2.67437 3.34158 0
M  V30 25 C -0.0159 -4.06938 3.46851 0
M  V30 26 C 1.2841 -2.26686 4.70543 0
M  V30 27 H 2.9781 -1.04333 2.80633 0
M  V30 28 H 0.5241 -0.500454 1.35024 0
M  V30 29 H 2.4771 -3.44952 2.42046 0
M  V30 30 H 1.2011 -3.01469 1.25634 0
M  V30 31 H -0.1399 -1.95026 3.1042 0
M  V30 32 H -0.4919 -4.35547 2.51611 0
M  V30 33 H -0.7919 -4.06062 4.2472 0
M  V30 34 H 0.7321 -4.83545 3.72849 0
M  V30 35 H 2.1461 -2.91277 4.93792 0
M  V30 36 H 0.5431 -2.36971 5.5133 0
M  V30 37 H 1.6131 -1.21818 4.69349 0
M  V30 38 N 2.9562 -1.48159 -0.537278 0
M  V30 39 C 3.8892 -1.567 -1.65893 0
M  V30 40 C 4.8672 -0.41787 -1.57139 0
M  V30 41 O 6.0512 -0.628461 -1.77715 0
M  V30 42 C 3.1782 -1.48818 -3.04255 0
M  V30 43 C 2.2242 -2.68482 -3.31391 0
M  V30 44 S 3.0572 -4.30516 -3.1846 0
M  V30 45 C 4.2132 -4.2522 -4.59281 0
M  V30 46 H 4.4462 -2.5159 -1.58397 0
M  V30 47 H 1.9792 -1.36602 -0.719672 0
M  V30 48 H 3.9372 -1.44958 -3.84054 0
M  V30 49 H 2.5982 -0.552777 -3.09198 0
M  V30 50 H 1.7912 -2.59085 -4.32309 0
M  V30 51 H 1.3932 -2.69567 -2.59248 0
M  V30 52 H 3.6852 -3.94703 -5.5065 0
M  V30 53 H 4.6282 -5.26292 -4.73732 0
M  V30 54 H 5.0362 -3.55791 -4.38261 0
M  V30 55 N 4.4343 0.785586 -1.36625 0
M  V30 56 C 5.6833 1.53883 -1.30396 0
M  V30 57 C 5.9963 1.95271 0.113452 0
M  V30 58 O 7.2023 2.69858 0.298142 0
M  V30 59 C 5.6583 2.77808 -2.28802 0
M  V30 60 C 5.2663 2.43574 -3.75999 0
M  V30 61 C 7.0103 3.55783 -2.31558 0
M  V30 62 C 4.9173 3.63919 -4.66173 0
M  V30 63 H 3.8473 0.577678 -0.484566 0
M  V30 64 H 6.4983 0.861705 -1.62009 0
M  V30 65 H 4.8803 3.47339 -1.90188 0
M  V30 66 H 6.0543 1.81916 -4.23371 0
M  V30 67 H 4.3693 1.78803 -3.76056 0
M  V30 68 H 6.9663 4.45205 -2.96137 0
M  V30 69 H 7.3093 3.94644 -1.3252 0
M  V30 70 H 7.8423 2.93235 -2.68809 0
M  V30 71 H 4.5813 3.3015 -5.66287 0
M  V30 72 H 4.1013 4.2473 -4.23515 0
M  V30 73 H 5.7803 4.30901 -4.82632 0
M  V30 74 N 5.9124 1.20967 1.01018 0
M  V30 75 C 7.1404 1.04956 1.78303 0
M  V30 76 C 7.5554 -0.400915 1.84494 0
M  V30 77 O 6.9124 -1.27826 1.30257 0
M  V30 78 C 6.9634 1.63403 3.22462 0
M  V30 79 O 6.6844 3.02775 3.16637 0
M  V30 80 C 8.1854 1.52432 4.16268 0
M  V30 81 H 5.4054 0.368858 0.560522 0
M  V30 82 H 7.9494 1.60193 1.27116 0
M  V30 83 H 6.1044 1.1227 3.70775 0
M  V30 84 H 6.5184 3.30626 4.07169 0
M  V30 85 H 7.9924 1.98078 5.15237 0
M  V30 86 H 8.4694 0.477875 4.36592 0
M  V30 87 H 9.0754 2.02787 3.73841 0
M  V30 88 N 7.3905 -1.2043 1.01659 0
M  V30 89 C 8.6155 -1.94318 0.724942 0
M  V30 90 C 9.0405 -1.74266 -0.708034 0
M  V30 91 O 8.3985 -1.03694 -1.48719 0
M  V30 92 C 8.4465 -3.44486 1.06591 0
M  V30 93 O 7.5505 -4.12017 0.177599 0
M  V30 94 H 6.8915 -0.60708 0.26898 0
M  V30 95 H 9.4215 -1.52861 1.35995 0
M  V30 96 H 9.4315 -3.95106 1.01762 0
M  V30 97 H 8.1065 -3.58404 2.10997 0
M  V30 98 H 6.6835 -3.71821 0.283421 0
M  V30 99 N 8.8686 -0.792821 -1.36206 0
M  V30 100 C 10.1156 -0.366786 -1.99151 0
M  V30 101 C 10.4436 1.06243 -1.62919 0
M  V30 102 O 9.6986 1.74927 -0.877442 0
M  V30 103 C 9.9976 -0.481501 -3.54142 0
M  V30 104 C 9.6636 -1.87202 -4.10203 0
M  V30 105 C 8.3256 -2.25248 -4.25226 0
M  V30 106 C 10.6776 -2.78237 -4.40719 0
M  V30 107 C 8.0056 -3.53723 -4.68078 0
M  V30 108 C 10.3576 -4.06144 -4.85005 0
M  V30 109 C 9.0216 -4.44207 -4.98234 0
M  V30 110 H 8.2916 -0.134217 -0.728743 0
M  V30 111 H 10.9386 -1.01094 -1.62641 0
M  V30 112 H 9.2436 0.246146 -3.91026 0
M  V30 113 H 10.9406 -0.132844 -4.0078 0
M  V30 114 H 7.5306 -1.56639 -3.98951 0
M  V30 115 H 11.7146 -2.50097 -4.28679 0
M  V30 116 H 6.9706 -3.8308 -4.76508 0
M  V30 117 H 11.1446 -4.76796 -5.07581 0
M  V30 118 H 8.7716 -5.43814 -5.31197 0
M  V30 119 N 10.3467 1.47872 -0.545128 0
M  V30 120 C 11.3097 2.28337 0.198717 0
M  V30 121 C 12.3097 1.36255 0.853888 0
M  V30 122 O 13.4997 1.59003 0.711606 0
M  V30 123 C 10.6317 3.15585 1.28915 0
M  V30 124 H 11.8247 2.95567 -0.507941 0
M  V30 125 H 9.3777 1.53362 -0.301616 0
M  V30 126 H 10.1127 2.53019 2.02859 0
M  V30 127 H 9.8977 3.83337 0.824309 0
M  V30 128 H 11.3877 3.76243 1.81194 0
M  V30 129 N 11.8248 0.280983 1.55075 0
M  V30 130 C 12.7728 -0.619864 2.24188 0
M  V30 131 C 13.7668 -1.15315 1.24092 0
M  V30 132 O 14.9728 -1.1061 1.42005 0
M  V30 133 H 11.3478 -0.218459 0.719569 0
M  V30 134 H 13.3188 -0.0141831 2.98397 0
M  V30 135 C 12.0678 -1.7899 2.98091 0
M  V30 136 H 11.3908 -1.38874 3.74905 0
M  V30 137 H 12.8308 -2.39672 3.49762 0
M  V30 138 C 11.2898 -2.68192 2.03899 0
M  V30 139 O 11.8198 -3.6872 1.594 0
M  V30 140 N 10.0258 -2.35488 1.70275 0
M  V30 141 H 9.5728 -1.53787 2.06658 0
M  V30 142 H 9.5308 -2.95442 1.07524 0
M  V30 143 N 13.3029 -1.57598 0.00835791 0
M  V30 144 C 14.7139 -1.7892 -0.53333 0
M  V30 145 C 15.0649 -0.916609 -1.73473 0
M  V30 146 O 14.1899 -0.121336 -2.1606 0
M  V30 147 C 14.7849 -3.24488 -0.974313 0
M  V30 148 C 13.3439 -3.46878 -1.46125 0
M  V30 149 C 12.4909 -2.74157 -0.416302 0
M  V30 150 H 15.4419 -1.56958 0.234495 0
M  V30 151 H 15.4629 -3.3306 -1.83988 0
M  V30 152 H 14.9749 -3.87972 -0.099718 0
M  V30 153 H 13.0759 -2.8862 -2.35646 0
M  V30 154 H 13.1889 -4.55572 -1.48295 0
M  V30 155 H 11.5529 -2.39022 -0.87981 0
M  V30 156 H 12.3359 -3.40345 0.44947 0
M  V30 157 N 14.781 0.264519 -1.55364 0
M  V30 158 C 16.197 0.61215 -1.47394 0
M  V30 159 C 16.397 1.89134 -0.695018 0
M  V30 160 O 15.453 2.51563 -0.217275 0
M  V30 161 C 16.766 0.731235 -2.91674 0
M  V30 162 C 18.314 0.82473 -3.01939 0
M  V30 163 C 18.789 0.975522 -4.4749 0
M  V30 164 N 20.28 1.04083 -4.51354 0
M  V30 165 C 21.015 1.17646 -5.61201 0
M  V30 166 N 20.511 1.27874 -6.80896 0
M  V30 167 N 22.304 1.20823 -5.48961 0
M  V30 168 H 14.455 -0.575456 -2.04456 0
M  V30 169 H 16.718 -0.196099 -0.927496 0
M  V30 170 H 16.424 -0.138392 -3.51428 0
M  V30 171 H 16.298 1.60883 -3.41169 0
M  V30 172 H 18.685 1.68482 -2.42276 0
M  V30 173 H 18.766 -0.0776479 -2.55682 0
M  V30 174 H 18.41 0.120058 -5.07758 0
M  V30 175 H 18.34 1.89268 -4.91412 0
M  V30 176 H 20.831 0.973846 -3.65136 0
M  V30 177 H 21.144 1.38081 -7.60364 0
M  V30 178 H 19.489 1.24863 -6.83692 0
M  V30 179 H 22.68 1.12469 -4.54388 0
M  V30 180 H 22.853 1.31049 -6.3461 0
M  V30 181 N 16.2591 1.48442 0.529413 0
M  V30 182 C 17.5051 1.5672 1.28711 0
M  V30 183 C 17.8381 0.2406 1.92704 0
M  V30 184 O 17.1131 -0.753454 1.79313 0
M  V30 185 C 17.3961 2.70587 2.37603 0
M  V30 186 C 17.2491 4.12953 1.78297 0
M  V30 187 C 18.5681 2.80212 3.39366 0
M  V30 188 H 15.6871 0.570474 0.466613 0
M  V30 189 H 18.3291 1.80617 0.589706 0
M  V30 190 H 16.4791 2.50342 2.97088 0
M  V30 191 H 18.1511 4.44639 1.22858 0
M  V30 192 H 16.3941 4.19927 1.0883 0
M  V30 193 H 17.0651 4.88448 2.57144 0
M  V30 194 H 19.5411 2.98553 2.89836 0
M  V30 195 H 18.4171 3.61611 4.12951 0
M  V30 196 H 18.6781 1.88393 3.99951 0
M  V30 197 N 17.7372 -0.778329 1.37039 0
M  V30 198 C 18.7002 -1.87301 1.32102 0
M  V30 199 C 19.7002 -1.59198 0.226405 0
M  V30 200 O 20.8902 -1.67403 0.481861 0
M  V30 201 C 18.0222 -3.24309 1.05055 0
M  V30 202 H 19.2152 -1.93093 2.29467 0
M  V30 203 H 16.7682 -0.977358 1.21973 0
M  V30 204 H 17.5032 -3.24196 0.0819373 0
M  V30 205 H 17.2882 -3.46098 1.84279 0
M  V30 206 H 18.7782 -4.04382 1.04234 0
M  V30 207 N 19.2153 -1.21501 -1.00376 0
M  V30 208 C 20.1473 -0.933174 -2.09343 0
M  V30 209 C 21.1603 0.0840896 -1.62583 0
M  V30 210 O 22.3493 -0.148563 -1.77881 0
M  V30 211 C 19.4493 -0.379869 -3.36764 0
M  V30 212 C 18.6223 -1.45176 -4.12605 0
M  V30 213 C 17.6813 -0.907476 -5.18316 0
M  V30 214 O 16.7073 -1.5912 -5.46507 0
M  V30 215 N 17.9093 0.276649 -5.7984 0
M  V30 216 H 20.6743 -1.87124 -2.34104 0
M  V30 217 H 18.2353 -1.12043 -1.16867 0
M  V30 218 H 20.2273 -0.00131488 -4.047 0
M  V30 219 H 18.7973 0.463048 -3.09151 0
M  V30 220 H 18.0173 -2.00411 -3.39454 0
M  V30 221 H 19.3053 -2.17328 -4.6005 0
M  V30 222 H 18.7033 0.849147 -5.59291 0
M  V30 223 H 17.2603 0.596702 -6.49063 0
M  V30 224 N 20.6934 1.19889 -1.02296 0
M  V30 225 C 21.6564 2.21116 -0.603351 0
M  V30 226 C 22.6564 1.5738 0.329884 0
M  V30 227 O 23.8464 1.73802 0.117702 0
M  V30 228 C 20.9784 3.40696 0.117992 0
M  V30 229 H 22.1714 2.59754 -1.49893 0
M  V30 230 H 19.7244 1.33463 -0.813468 0
M  V30 231 H 20.4594 3.07569 1.0282 0
M  V30 232 H 20.2444 3.88188 -0.552511 0
M  V30 233 H 21.7344 4.15692 0.398696 0
M  V30 234 N 22.1715 0.800033 1.35784 0
M  V30 235 C 23.4185 0.377342 1.98953 0
M  V30 236 C 23.7465 -1.05378 1.6348 0
M  V30 237 O 23.0015 -1.74459 0.886707 0
M  V30 238 C 23.3005 0.500276 3.53881 0
M  V30 239 C 22.9665 1.89375 4.09204 0
M  V30 240 C 21.6285 2.27499 4.24025 0
M  V30 241 C 23.9805 2.8057 4.39238 0
M  V30 242 C 21.3085 3.562 4.66195 0
M  V30 243 C 23.6605 4.0871 4.82844 0
M  V30 244 C 22.3245 4.46843 4.95871 0
M  V30 245 H 21.5945 0.138079 0.728021 0
M  V30 246 H 24.2415 1.01955 1.62103 0
M  V30 247 H 22.5465 -0.225405 3.91151 0
M  V30 248 H 24.2435 0.154097 4.00704 0
M  V30 249 H 20.8335 1.58753 3.98115 0
M  V30 250 H 25.0175 2.52367 4.27346 0
M  V30 251 H 20.2735 3.85602 4.74469 0
M  V30 252 H 24.4475 4.79481 5.05046 0
M  V30 253 H 22.0745 5.46623 5.28306 0
M  V30 254 N 23.6496 -1.47581 0.552962 0
M  V30 255 C 24.8956 -2.02782 0.0273648 0
M  V30 256 C 25.2286 -1.42687 -1.31734 0
M  V30 257 O 24.5036 -0.580897 -1.85623 0
M  V30 258 C 24.7866 -3.60031 -0.0702371 0
M  V30 259 C 24.6396 -4.30566 1.30126 0
M  V30 260 C 25.9586 -4.33028 -0.785771 0
M  V30 261 H 23.0776 -0.736912 0.0114185 0
M  V30 262 H 25.7196 -1.76056 0.714432 0
M  V30 263 H 23.8696 -3.82932 -0.655382 0
M  V30 264 H 25.5416 -4.19018 1.92929 0
M  V30 265 H 23.7846 -3.91086 1.87709 0
M  V30 266 H 24.4556 -5.39114 1.18573 0
M  V30 267 H 26.9316 -4.15095 -0.288982 0
M  V30 268 H 25.8076 -5.42695 -0.823013 0
M  V30 269 H 26.0686 -4.01945 -1.841 0
M  V30 270 N 25.1277 -0.289203 -1.54924 0
M  V30 271 C 26.4047 0.376032 -1.91951 0
M  V30 272 C 26.7847 1.72622 -1.21511 0
M  V30 273 O 26.1327 2.25853 -0.346767 0
M  V30 274 C 26.3427 0.502378 -3.45365 0
M  V30 275 C 27.6907 0.778741 -4.17398 0
M  V30 276 O 28.7147 0.586647 -3.51336 0
M  V30 277 O 27.5737 1.14698 -5.34328 0
M  V30 278 H 24.6677 0.208167 -0.800372 0
M  V30 279 H 27.2137 -0.336394 -1.66332 0
M  V30 280 H 25.9857 -0.447255 -3.88736 0
M  V30 281 H 25.6087 1.26373 -3.76982 0
M  V30 282 N 26.6058 1.57591 -0.0167156 0
M  V30 283 C 27.8358 1.95292 0.674149 0
M  V30 284 C 28.2438 0.891097 1.66901 0
M  V30 285 O 27.5868 -0.136908 1.83189 0
M  V30 286 C 27.6488 3.29072 1.44747 0
M  V30 287 C 27.3128 4.52879 0.612331 0
M  V30 288 C 28.3098 5.1979 -0.107126 0
M  V30 289 C 25.9948 4.99242 0.553381 0
M  V30 290 C 27.9888 6.31375 -0.874339 0
M  V30 291 C 25.6758 6.10713 -0.217546 0
M  V30 292 C 26.6738 6.76637 -0.930123 0
M  V30 293 O 26.3618 7.85969 -1.68844 0
M  V30 294 H 26.0938 0.648275 0.191615 0
M  V30 295 H 28.6478 2.05284 -0.0690148 0
M  V30 296 H 26.8778 3.15535 2.2355 0
M  V30 297 H 28.5668 3.51764 2.02526 0
M  V30 298 H 29.3328 4.84948 -0.0708392 0
M  V30 299 H 25.2118 4.47744 1.09757 0
M  V30 300 H 28.7558 6.82764 -1.43106 0
M  V30 301 H 24.6528 6.44994 -0.255593 0
M  V30 302 H 25.4208 8.02571 -1.6069 0
M  V30 303 N 28.0839 -0.256276 1.55502 0
M  V30 304 C 29.0169 -1.34321 1.84481 0
M  V30 305 C 29.9949 -1.46802 0.699131 0
M  V30 306 O 31.1789 -1.63165 0.943904 0
M  V30 307 C 28.3059 -2.71779 2.02123 0
M  V30 308 C 27.3519 -2.76496 3.24734 0
M  V30 309 S 28.1849 -2.3405 4.81644 0
M  V30 310 C 29.3409 -3.73452 5.02279 0
M  V30 311 H 29.5739 -1.09539 2.76385 0
M  V30 312 H 27.1069 -0.45678 1.47489 0
M  V30 313 H 29.0649 -3.50932 2.12972 0
M  V30 314 H 27.7259 -2.93803 1.11078 0
M  V30 315 H 26.9189 -3.77424 3.34016 0
M  V30 316 H 26.5209 -2.05379 3.12563 0
M  V30 317 H 28.8129 -4.6887 4.89047 0
M  V30 318 H 29.7559 -3.6911 6.04287 0
M  V30 319 H 30.1639 -3.6553 4.30172 0
M  V30 320 N 29.562 -1.4872 -0.521534 0
M  V30 321 C 30.525 -1.63379 -1.60748 0
M  V30 322 C 31.525 -0.50661 -1.52611 0
M  V30 323 O 32.715 -0.772601 -1.5613 0
M  V30 324 C 29.847 -1.61192 -3.00383 0
M  V30 325 H 31.04 -2.60217 -1.49087 0
M  V30 326 H 28.593 -1.37444 -0.744235 0
M  V30 327 H 29.328 -0.65863 -3.17541 0
M  V30 328 H 29.113 -2.43032 -3.07698 0
M  V30 329 H 30.603 -1.7466 -3.7932 0
M  V30 330 N 31.0401 0.771051 -1.3745 0
M  V30 331 C 32.2681 1.56015 -1.35893 0
M  V30 332 C 32.6831 1.88718 0.0555523 0
M  V30 333 O 32.0401 1.51502 1.01752 0
M  V30 334 C 32.0911 2.87001 -2.19801 0
M  V30 335 O 31.8121 2.557 -3.55738 0
M  V30 336 C 33.3131 3.81228 -2.26231 0
M  V30 337 H 30.5331 0.483317 -0.465453 0
M  V30 338 H 33.0771 0.955611 -1.80799 0
M  V30 339 H 31.2321 3.43877 -1.78402 0
M  V30 340 H 31.6461 3.39584 -3.99729 0
M  V30 341 H 33.1201 4.70139 -2.89263 0
M  V30 342 H 33.5971 4.20409 -1.27093 0
M  V30 343 H 34.2031 3.30281 -2.67945 0
M  V30 344 N 32.5182 1.22032 0.997298 0
M  V30 345 C 33.4502 0.944263 2.08845 0
M  V30 346 C 34.4632 -0.0754663 1.62625 0
M  V30 347 O 35.6522 0.157994 1.77799 0
M  V30 348 C 32.7522 0.397723 3.36558 0
M  V30 349 C 31.9252 1.47362 4.11829 0
M  V30 350 C 30.9842 0.934951 5.17827 0
M  V30 351 O 30.0102 1.62016 5.45655 0
M  V30 352 N 31.2122 -0.245895 5.79979 0
M  V30 353 H 33.9772 1.88363 2.33109 0
M  V30 354 H 31.5382 1.12661 1.16272 0
M  V30 355 H 33.5302 0.0227771 4.04694 0
M  V30 356 H 32.1002 -0.446646 3.09393 0
M  V30 357 H 31.3202 2.02208 3.38386 0
M  V30 358 H 32.6082 2.19764 4.58891 0
M  V30 359 H 32.0062 -0.819475 5.59733 0
M  V30 360 H 30.5632 -0.562272 6.4937 0
M  V30 361 N 33.9963 -1.19345 1.0293 0
M  V30 362 C 35.2443 -1.88665 0.724574 0
M  V30 363 C 35.5653 -1.80036 -0.749144 0
M  V30 364 O 34.8353 -1.2111 -1.53978 0
M  V30 365 H 33.4153 -0.698406 0.265025 0
M  V30 366 H 36.0773 -1.44885 1.30362 0
M  V30 367 H 35.1733 -2.94987 1.01926 0
M  V30 368 N 35.4744 -0.807222 -1.35358 0
M  V30 369 C 36.7204 -0.388463 -1.99045 0
M  V30 370 C 37.0534 1.04184 -1.63888 0
M  V30 371 O 36.3284 1.72292 -0.902535 0
M  V30 372 C 36.6114 -0.572783 -3.55515 0
M  V30 373 C 36.4644 -2.04807 -4.00468 0
M  V30 374 C 37.7834 0.00114064 -4.401 0
M  V30 375 H 34.9024 -0.142619 -0.723069 0
M  V30 376 H 37.5444 -1.01687 -1.60498 0
M  V30 377 H 35.6944 -0.0378425 -3.88482 0
M  V30 378 H 37.3664 -2.64544 -3.77908 0
M  V30 379 H 35.6094 -2.54427 -3.51353 0
M  V30 380 H 36.2804 -2.12792 -5.09337 0
M  V30 381 H 38.7564 -0.455716 -4.13597 0
M  V30 382 H 37.6324 -0.157737 -5.48673 0
M  V30 383 H 37.8934 1.09488 -4.28328 0
M  V30 384 N 36.9525 1.47285 -0.560781 0
M  V30 385 C 38.2015 2.01668 -0.035895 0
M  V30 386 C 38.5145 1.44021 1.32353 0
M  V30 387 O 39.7205 1.90088 1.93853 0
M  V30 388 C 38.1765 3.59897 -0.0136659 0
M  V30 389 C 37.7845 4.26536 -1.37006 0
M  V30 390 C 39.5285 4.22017 0.458425 0
M  V30 391 C 37.4355 5.76782 -1.30675 0
M  V30 392 H 36.3655 0.753938 -0.00964879 0
M  V30 393 H 39.0165 1.69243 -0.709166 0
M  V30 394 H 37.3985 3.89301 0.725325 0
M  V30 395 H 38.5725 4.0877 -2.12705 0
M  V30 396 H 36.8875 3.76419 -1.78038 0
M  V30 397 H 39.4845 5.32124 0.524247 0
M  V30 398 H 39.8275 3.89437 1.4712 0
M  V30 399 H 40.3605 3.97159 -0.225818 0
M  V30 400 H 37.0995 6.13988 -2.29564 0
M  V30 401 H 36.6195 5.96875 -0.591622 0
M  V30 402 H 38.2985 6.39063 -1.01033 0
M  V30 403 N 38.4306 0.297415 1.54768 0
M  V30 404 C 39.3606 -0.573494 2.26348 0
M  V30 405 C 40.3416 -1.14085 1.26169 0
M  V30 406 O 41.5266 -1.17086 1.54934 0
M  V30 407 C 38.6566 -1.74716 3.00153 0
M  V30 408 C 37.6106 -1.31032 4.07449 0
M  V30 409 C 36.9366 -2.56887 4.68949 0
M  V30 410 C 38.2366 -0.444183 5.20408 0
M  V30 411 H 39.9306 0.0235131 2.99391 0
M  V30 412 H 37.4766 0.0127488 1.43994 0
M  V30 413 H 39.4296 -2.3625 3.48947 0
M  V30 414 H 38.1536 -2.37035 2.24682 0
M  V30 415 H 36.8126 -0.718066 3.59499 0
M  V30 416 H 36.4606 -3.17512 3.90122 0
M  V30 417 H 36.1606 -2.2836 5.41411 0
M  V30 418 H 37.6846 -3.19229 5.20505 0
M  V30 419 H 39.0986 -0.9651 5.65118 0
M  V30 420 H 37.4956 -0.252846 5.99567 0
M  V30 421 H 38.5656 0.531609 4.81977 0
M  V30 422 N 39.9087 -1.5758 0.0250728 0
M  V30 423 C 41.1367 -1.9593 -0.664747 0
M  V30 424 C 41.5517 -0.901352 -1.65895 0
M  V30 425 O 40.9087 0.117255 -1.82123 0
M  V30 426 C 40.9597 -3.34342 -1.37468 0
M  V30 427 O 40.6807 -4.36079 -0.420324 0
M  V30 428 C 42.1817 -3.873 -2.1567 0
M  V30 429 H 39.4017 -0.645405 -0.183557 0
M  V30 430 H 41.9457 -2.04329 0.0836372 0
M  V30 431 H 40.1007 -3.27175 -2.0745 0
M  V30 432 H 40.5147 -5.16297 -0.923991 0
M  V30 433 H 41.9887 -4.86504 -2.60803 0
M  V30 434 H 42.4657 -3.21331 -2.99405 0
M  V30 435 H 43.0717 -3.97723 -1.50654 0
M  V30 436 N 41.3868 0.248026 -1.55636 0
M  V30 437 C 42.6358 0.974134 -1.76617 0
M  V30 438 C 42.9488 1.86528 -0.588796 0
M  V30 439 O 44.1548 2.62805 -0.681594 0
M  V30 440 C 42.6108 1.78213 -3.12679 0
M  V30 441 C 42.2188 0.93843 -4.38061 0
M  V30 442 C 43.9628 2.50104 -3.42999 0
M  V30 443 C 41.8698 1.74225 -5.65155 0
M  V30 444 H 40.7998 0.36745 -0.658405 0
M  V30 445 H 43.4508 0.22884 -1.82067 0
M  V30 446 H 41.8328 2.56933 -3.01333 0
M  V30 447 H 43.0068 0.193635 -4.60393 0
M  V30 448 H 41.3218 0.332905 -4.15067 0
M  V30 449 H 43.9188 3.10694 -4.3517 0
M  V30 450 H 44.2618 3.21662 -2.64271 0
M  V30 451 H 44.7948 1.78395 -3.55556 0
M  V30 452 H 41.5338 1.07043 -6.46701 0
M  V30 453 H 41.0538 2.46235 -5.46926 0
M  V30 454 H 42.7328 2.30967 -6.0437 0
M  V30 455 N 42.8649 1.48995 0.513639 0
M  V30 456 C 43.7969 1.60836 1.63293 0
M  V30 457 C 44.8099 0.491701 1.55197 0
M  V30 458 O 45.9989 0.763238 1.6136 0
M  V30 459 C 43.0989 1.53731 3.02027 0
M  V30 460 C 42.2719 2.80715 3.35437 0
M  V30 461 C 41.3309 2.66837 4.53525 0
M  V30 462 O 40.3569 3.40753 4.55934 0
M  V30 463 N 41.5589 1.77539 5.52684 0
M  V30 464 H 44.3239 2.57366 1.53566 0
M  V30 465 H 41.8849 1.45925 0.701259 0
M  V30 466 H 43.8769 1.42118 3.78926 0
M  V30 467 H 42.4469 0.651092 3.05744 0
M  V30 468 H 41.6669 3.06772 2.47557 0
M  V30 469 H 42.9549 3.64927 3.54551 0
M  V30 470 H 42.3529 1.16719 5.53528 0
M  V30 471 H 40.9099 1.71856 6.28736 0
M  V30 472 N 44.343 -0.763751 1.37857 0
M  V30 473 C 45.275 -1.88664 1.30148 0
M  V30 474 C 46.288 -1.61365 0.215685 0
M  V30 475 O 47.477 -1.72134 0.472459 0
M  V30 476 C 44.577 -3.24075 0.991396 0
M  V30 477 C 43.75 -3.78958 2.18426 0
M  V30 478 C 42.809 -4.92862 1.8432 0
M  V30 479 O 41.835 -5.08027 2.56704 0
M  V30 480 N 43.037 -5.75071 0.792081 0
M  V30 481 H 45.802 -1.95791 2.26905 0
M  V30 482 H 43.363 -0.943226 1.31586 0
M  V30 483 H 45.355 -3.97804 0.743935 0
M  V30 484 H 43.925 -3.12399 0.112122 0
M  V30 485 H 43.145 -2.96913 2.59299 0
M  V30 486 H 44.433 -4.12357 2.98058 0
M  V30 487 H 43.831 -5.65375 0.191595 0
M  V30 488 H 42.388 -6.48991 0.60449 0
M  V30 489 N 45.8211 -1.22559 -0.990812 0
M  V30 490 C 46.7711 -0.964807 -2.0658 0
M  V30 491 C 47.7551 0.0853472 -1.60673 0
M  V30 492 O 48.9471 -0.125443 -1.76555 0
M  V30 493 C 46.0761 -0.546707 -3.38919 0
M  V30 494 C 45.1621 -1.6317 -3.91454 0
M  V30 495 N 45.5531 -2.85985 -4.17189 0
M  V30 496 C 43.8511 -1.50387 -4.19881 0
M  V30 497 C 44.5521 -3.56159 -4.59919 0
M  V30 498 N 43.5281 -2.83637 -4.63736 0
M  V30 499 H 47.3301 -1.89769 -2.24421 0
M  V30 500 H 44.8441 -1.12343 -1.17273 0
M  V30 501 H 46.8411 -0.34119 -4.15502 0
M  V30 502 H 45.5011 0.379254 -3.22478 0
M  V30 503 H 46.5121 -3.22392 -4.05319 0
M  V30 504 H 43.1891 -0.644254 -4.12499 0
M  V30 505 H 44.5791 -4.6139 -4.88435 0
M  V30 506 N 47.2992 1.18797 -1.03562 0
M  V30 507 C 48.2472 2.24297 -0.615905 0
M  V30 508 C 49.2412 1.65643 0.354808 0
M  V30 509 O 50.4472 1.78618 0.22265 0
M  V30 510 H 46.8222 0.729909 -0.180934 0
M  V30 511 H 48.7932 2.5701 -1.5162 0
M  V30 512 C 47.5422 3.47698 0.0104735 0
M  V30 513 H 46.8652 3.93125 -0.727509 0
M  V30 514 H 48.3052 4.23159 0.266995 0
M  V30 515 C 46.7642 3.12489 1.25905 0
M  V30 516 O 47.2942 3.25761 2.35038 0
M  V30 517 N 45.5002 2.6686 1.15039 0
M  V30 518 H 45.0472 2.56261 0.262328 0
M  V30 519 H 45.0052 2.43674 1.98672 0
M  V30 520 N 48.7773 0.814389 1.34928 0
M  V30 521 C 49.7093 0.187834 2.28429 0
M  V30 522 C 50.7223 -0.617374 1.5064 0
M  V30 523 O 51.9113 -0.448454 1.72775 0
M  V30 524 C 49.0113 -0.755962 3.30361 0
M  V30 525 C 48.1843 0.00456686 4.374 0
M  V30 526 C 47.2433 -0.858876 5.19143 0
M  V30 527 O 46.2693 -0.306968 5.68372 0
M  V30 528 N 47.4713 -2.17988 5.38016 0
M  V30 529 H 50.2363 0.991105 2.82838 0
M  V30 530 H 47.7973 0.670561 1.4736 0
M  V30 531 H 49.7893 -1.338 3.81942 0
M  V30 532 H 48.3593 -1.46001 2.7641 0
M  V30 533 H 47.5793 0.767865 3.86649 0
M  V30 534 H 48.8673 0.528422 5.06049 0
M  V30 535 H 48.2653 -2.65212 4.99679 0
M  V30 536 H 46.8223 -2.71098 5.92747 0
M  V30 537 N 50.2554 -1.46986 0.568584 0
M  V30 538 C 51.4804 -2.07335 0.0520528 0
M  V30 539 C 51.9054 -1.41675 -1.23733 0
M  V30 540 O 51.2634 -0.495623 -1.74394 0
M  V30 541 C 51.3114 -3.60417 -0.11501 0
M  V30 542 O 50.4154 -3.95309 -1.17492 0
M  V30 543 H 49.7564 -0.661597 0.0564385 0
M  V30 544 H 52.2864 -1.88837 0.787507 0
M  V30 545 H 52.2964 -4.06698 -0.325644 0
M  V30 546 H 50.9714 -4.07601 0.826675 0
M  V30 547 H 49.5484 -3.60757 -0.943869 0
M  V30 548 N 51.7335 -0.305618 -1.54608 0
M  V30 549 C 53.0105 0.355652 -1.92339 0
M  V30 550 C 53.3905 1.71324 -1.23335 0
M  V30 551 O 52.7385 2.25473 -0.370702 0
M  V30 552 C 52.9485 0.46572 -3.45879 0
M  V30 553 C 54.2965 0.734426 -4.182 0
M  V30 554 O 55.3205 0.54935 -3.51938 0
M  V30 555 O 54.1795 1.09024 -5.35515 0
M  V30 556 H 51.2735 0.199666 -0.802535 0
M  V30 557 H 53.8195 -0.354017 -1.65966 0
M  V30 558 H 52.5915 -0.488461 -3.88239 0
M  V30 559 H 52.2145 1.22367 -3.78301 0
M  V30 560 N 53.2116 1.57565 -0.0334293 0
M  V30 561 C 54.4576 1.92262 0.645226 0
M  V30 562 C 54.7906 0.910543 1.71531 0
M  V30 563 O 54.0656 -0.066099 1.94388 0
M  V30 564 C 54.3486 3.37422 1.2577 0
M  V30 565 C 54.2016 4.49369 0.196891 0
M  V30 566 C 55.5206 3.82628 2.17449 0
M  V30 567 H 52.6396 0.699171 0.233085 0
M  V30 568 H 55.2816 1.89779 -0.0915694 0
M  V30 569 H 53.4316 3.39669 1.88566 0
M  V30 570 H 55.1036 4.59254 -0.433962 0
M  V30 571 H 53.3466 4.31168 -0.477137 0
M  V30 572 H 54.0176 5.47978 0.665124 0
M  V30 573 H 56.4936 3.82145 1.64634 0
M  V30 574 H 55.3696 4.84883 2.57254 0
M  V30 575 H 55.6306 3.18376 3.0674 0
M  V30 576 N 54.6897 -0.239769 1.55765 0
M  V30 577 C 55.9357 -0.963942 1.79108 0
M  V30 578 C 56.2907 -1.82689 0.60352 0
M  V30 579 O 55.5837 -1.87313 -0.403033 0
M  V30 580 C 55.7777 -1.852 3.05672 0
M  V30 581 C 55.6067 -1.07651 4.36625 0
M  V30 582 C 54.3767 -0.778738 4.99263 0
M  V30 583 C 56.5747 -0.45062 5.12322 0
M  V30 584 N 54.5567 0.0200708 6.13897 0
M  V30 585 C 55.9277 0.212429 6.19636 0
M  V30 586 C 57.9827 -0.361806 4.96584 0
M  V30 587 C 56.6857 0.955772 7.12922 0
M  V30 588 C 58.7117 0.368023 5.90254 0
M  V30 589 C 58.0737 1.01968 6.96981 0
M  V30 590 H 54.1727 -0.333601 0.707272 0
M  V30 591 H 56.7567 -0.236425 1.93259 0
M  V30 592 H 54.9277 -2.55149 2.92837 0
M  V30 593 H 56.6597 -2.51228 3.1728 0
M  V30 594 H 53.4147 -1.09229 4.60832 0
M  V30 595 H 53.8387 0.407777 6.75771 0
M  V30 596 H 58.4807 -0.851286 4.14141 0
M  V30 597 H 56.1987 1.45683 7.9486 0
M  V30 598 H 59.7847 0.437504 5.80153 0
M  V30 599 H 58.6647 1.5754 7.68213 0
M  V30 600 N 56.1678 -1.49265 -0.50573 0
M  V30 601 C 57.0978 -1.68495 -1.61653 0
M  V30 602 C 58.0788 -0.53366 -1.61512 0
M  V30 603 O 59.2638 -0.76897 -1.78327 0
M  V30 604 C 56.3938 -1.74709 -3.00157 0
M  V30 605 C 55.3478 -2.89581 -3.15162 0
M  V30 606 C 54.6738 -2.80903 -4.5497 0
M  V30 607 C 55.9738 -4.30578 -2.95634 0
M  V30 608 H 57.6678 -2.61493 -1.45814 0
M  V30 609 H 55.2138 -1.25838 -0.70005 0
M  V30 610 H 57.1668 -1.86748 -3.77761 0
M  V30 611 H 55.8908 -0.783067 -3.17074 0
M  V30 612 H 54.5498 -2.77136 -2.39982 0
M  V30 613 H 54.1978 -1.82419 -4.68756 0
M  V30 614 H 53.8978 -3.57999 -4.65951 0
M  V30 615 H 55.4218 -2.94944 -5.34641 0
M  V30 616 H 56.8358 -4.4373 -3.63011 0
M  V30 617 H 55.2328 -5.0886 -3.18091 0
M  V30 618 H 56.3028 -4.45352 -1.91806 0
M  V30 619 N 57.6459 0.756429 -1.3826 0
M  V30 620 C 58.6089 1.85176 -1.35065 0
M  V30 621 C 59.6089 1.58818 -0.251703 0
M  V30 622 O 60.7989 1.66615 -0.508433 0
M  V30 623 C 57.9309 3.22596 -1.10201 0
M  V30 624 H 59.1239 1.89417 -2.3251 0
M  V30 625 H 56.6769 0.95783 -1.23512 0
M  V30 626 H 57.4119 3.24025 -0.133504 0
M  V30 627 H 57.1969 3.43122 -1.89762 0
M  V30 628 H 58.6869 4.02673 -1.10654 0
M  V30 629 N 59.124 1.23083 0.984299 0
M  V30 630 C 60.401 0.9689 1.69917 0
M  V30 631 C 60.781 -0.513604 2.04757 0
M  V30 632 O 60.129 -1.48383 1.73767 0
M  V30 633 C 60.339 1.87518 2.94343 0
M  V30 634 C 61.687 2.13636 3.6694 0
M  V30 635 O 62.711 1.85036 3.04368 0
M  V30 636 O 61.57 2.62119 4.79537 0
M  V30 637 H 58.664 0.365095 0.742048 0
M  V30 638 H 61.21 1.34107 1.03987 0
M  V30 639 H 59.982 2.87756 2.65164 0
M  V30 640 H 59.605 1.50514 3.6801 0
M  V30 641 N 60.6021 -1.18246 1.0419 0
M  V30 642 C 61.5121 -2.25574 0.644476 0
M  V30 643 C 62.5281 -1.70845 -0.329826 0
M  V30 644 O 63.7041 -2.00554 -0.184443 0
M  V30 645 C 60.7691 -3.46697 0.014877 0
M  V30 646 C 59.8301 -4.16554 1.03834 0
M  V30 647 C 59.0631 -5.31894 0.438692 0
M  V30 648 O 59.2861 -5.65385 -0.754752 0
M  V30 649 O 58.2201 -5.90459 1.168 0
M  V30 650 H 62.0461 -2.61836 1.53869 0
M  V30 651 H 59.6311 -1.25352 0.812854 0
M  V30 652 H 61.5131 -4.20062 -0.335538 0
M  V30 653 H 60.1881 -3.12255 -0.853138 0
M  V30 654 H 59.0951 -3.45251 1.44057 0
M  V30 655 H 60.4281 -4.54998 1.87716 0
M  V30 656 N 62.0802 -0.821533 -1.34494 0
M  V30 657 C 63.3052 -0.420873 -2.03085 0
M  V30 658 C 63.7302 0.964915 -1.61465 0
M  V30 659 O 63.0882 1.62763 -0.798607 0
M  V30 660 C 63.1362 -0.529414 -3.56693 0
M  V30 661 O 62.2402 0.451302 -4.09923 0
M  V30 662 H 61.5812 -0.173489 -0.640935 0
M  V30 663 H 64.1112 -1.11157 -1.71771 0
M  V30 664 H 64.1212 -0.404671 -4.05988 0
M  V30 665 H 62.7962 -1.54014 -3.86332 0
M  V30 666 H 61.3732 0.285558 -3.71805 0
M  V30 667 N 63.5583 1.46682 -0.576371 0
M  V30 668 C 64.4903 2.28341 0.198231 0
M  V30 669 C 65.5033 1.38141 0.861453 0
M  V30 670 O 66.6923 1.62797 0.732082 0
M  V30 671 C 63.7923 3.12986 1.29972 0
M  V30 672 C 62.9653 4.31271 0.729639 0
M  V30 673 C 62.0243 4.97363 1.71803 0
M  V30 674 O 61.0503 5.55156 1.25658 0
M  V30 675 N 62.2523 4.93796 3.05198 0
M  V30 676 H 65.0173 2.9546 -0.502324 0
M  V30 677 H 62.5783 1.56525 -0.413715 0
M  V30 678 H 64.5703 3.54066 1.96008 0
M  V30 679 H 63.1403 2.47984 1.90323 0
M  V30 680 H 62.3603 3.94052 -0.108012 0
M  V30 681 H 63.6483 5.07739 0.328438 0
M  V30 682 H 63.0463 4.48077 3.45317 0
M  V30 683 H 61.6033 5.38837 3.6674 0
M  V30 684 N 65.0364 0.313813 1.54444 0
M  V30 685 C 65.9994 -0.54379 2.22656 0
M  V30 686 C 66.9994 -1.05124 1.21678 0
M  V30 687 O 68.1894 -0.945225 1.46325 0
M  V30 688 C 65.3214 -1.75427 2.92298 0
M  V30 689 H 66.5144 0.0523599 2.99854 0
M  V30 690 H 64.0674 0.0647834 1.56166 0
M  V30 691 H 64.8024 -2.38991 2.19211 0
M  V30 692 H 64.5874 -1.39791 3.66334 0
M  V30 693 H 66.0774 -2.36325 3.44297 0
M  V30 694 N 66.5145 -1.57545 0.0417849 0
M  V30 695 C 67.4245 -2.14451 -0.951213 0
M  V30 696 C 68.4405 -1.09992 -1.34825 0
M  V30 697 O 69.6165 -1.42114 -1.42708 0
M  V30 698 C 66.6815 -2.67063 -2.21084 0
M  V30 699 C 65.7425 -3.86284 -1.87304 0
M  V30 700 C 64.9755 -4.36378 -3.07261 0
M  V30 701 O 65.1985 -3.85587 -4.20332 0
M  V30 702 O 64.1325 -5.28077 -2.88822 0
M  V30 703 H 67.9585 -2.99601 -0.497287 0
M  V30 704 H 65.5435 -1.48317 -0.179567 0
M  V30 705 H 67.4255 -3.00914 -2.95006 0
M  V30 706 H 66.1005 -1.84989 -2.65633 0
M  V30 707 H 65.0075 -3.57338 -1.10727 0
M  V30 708 H 66.3405 -4.6956 -1.47562 0
M  V30 709 N 67.9926 0.231505 -1.5589 0
M  V30 710 C 69.4086 0.580748 -1.48659 0
M  V30 711 C 69.6086 1.87617 -0.73498 0
M  V30 712 O 68.6646 2.51046 -0.270586 0
M  V30 713 C 69.9776 0.669202 -2.93159 0
M  V30 714 C 71.5256 0.760499 -3.03621 0
M  V30 715 C 72.0006 0.880383 -4.49459 0
M  V30 716 N 73.4916 0.944861 -4.53461 0
M  V30 717 C 74.2266 1.05716 -5.63571 0
M  V30 718 N 73.7226 1.13403 -6.83456 0
M  V30 719 N 75.5156 1.09152 -5.514 0
M  V30 720 H 67.6666 -0.618695 -2.03189 0
M  V30 721 H 69.9296 -0.215728 -0.923128 0
M  V30 722 H 69.6356 -0.212904 -3.51055 0
M  V30 723 H 69.5096 1.5361 -3.44505 0
M  V30 724 H 71.8966 1.63305 -2.45796 0
M  V30 725 H 71.9776 -0.131864 -2.5546 0
M  V30 726 H 71.6216 0.0123284 -5.07899 0
M  V30 727 H 71.5516 1.78802 -4.95316 0
M  V30 728 H 74.0426 0.896176 -3.6712 0
M  V30 729 H 74.3556 1.21921 -7.63122 0
M  V30 730 H 72.7006 1.10333 -6.86186 0
M  V30 731 H 75.8916 1.02805 -4.56671 0
M  V30 732 H 76.0646 1.17558 -6.37247 0
M  V30 733 N 69.4707 1.49531 0.497807 0
M  V30 734 C 70.7167 1.59415 1.25358 0
M  V30 735 C 71.0497 0.281422 1.9215 0
M  V30 736 O 70.3247 -0.715249 1.80871 0
M  V30 737 C 70.6077 2.75566 2.3181 0
M  V30 738 C 70.4607 4.16642 1.69498 0
M  V30 739 C 71.7797 2.87347 3.33346 0
M  V30 740 H 68.8987 0.580244 0.454408 0
M  V30 741 H 71.5407 1.81827 0.551262 0
M  V30 742 H 69.6907 2.56587 2.91711 0
M  V30 743 H 71.3627 4.47145 1.13399 0
M  V30 744 H 69.6057 4.22141 0.998978 0
M  V30 745 H 70.2767 4.93792 2.46725 0
M  V30 746 H 72.7527 3.04634 2.83438 0
M  V30 747 H 71.6287 3.70289 4.05188 0
M  V30 748 H 71.8897 1.96834 3.95865 0
M  V30 749 N 70.9488 -0.749086 1.3866 0
M  V30 750 C 72.3648 -1.05276 1.19955 0
M  V30 751 C 72.5648 -2.01435 0.05134 0
M  V30 752 O 71.6208 -2.45232 -0.60147 0
M  V30 753 C 72.9338 -1.62853 2.52783 0
M  V30 754 C 74.4818 -1.75002 2.59506 0
M  V30 755 C 74.9568 -2.35991 3.92521 0
M  V30 756 N 76.4478 -2.43416 3.94085 0
M  V30 757 C 77.1828 -2.91511 4.9377 0
M  V30 758 N 76.6788 -3.39608 6.03853 0
M  V30 759 N 78.4718 -2.90592 4.81157 0
M  V30 760 H 70.6228 -0.111066 2.12109 0
M  V30 761 H 72.8858 -0.111901 0.941373 0
M  V30 762 H 72.5918 -0.99664 3.37283 0
M  V30 763 H 72.4658 -2.61854 2.715 0
M  V30 764 H 74.8528 -2.37317 1.75398 0
M  V30 765 H 74.9338 -0.74693 2.44652 0
M  V30 766 H 74.5778 -1.74308 4.77053 0
M  V30 767 H 74.5078 -3.3695 4.04688 0
M  V30 768 H 76.9988 -2.09405 3.14576 0
M  V30 769 H 77.3118 -3.74775 6.75843 0
M  V30 770 H 75.6568 -3.37653 6.07466 0
M  V30 771 H 78.8478 -2.52332 3.94267 0
M  V30 772 H 79.0208 -3.27762 5.58996 0
M  V30 773 N 72.4269 -1.23603 -0.977757 0
M  V30 774 C 73.3899 -1.02069 -2.05218 0
M  V30 775 C 74.3899 0.0184305 -1.60789 0
M  V30 776 O 75.5799 -0.221569 -1.72785 0
M  V30 777 C 72.7119 -0.544926 -3.36517 0
M  V30 778 H 73.9049 -1.9742 -2.25755 0
M  V30 779 H 71.4579 -1.05684 -1.15155 0
M  V30 780 H 72.1929 0.412241 -3.21669 0
M  V30 781 H 71.9779 -1.2948 -3.70105 0
M  V30 782 H 73.4679 -0.414985 -4.15533 0
M  V30 783 N 73.905 1.17692 -1.04816 0
M  V30 784 C 74.815 2.25229 -0.65643 0
M  V30 785 C 75.831 1.71018 0.320761 0
M  V30 786 O 77.007 2.00649 0.173805 0
M  V30 787 C 74.072 3.46684 -0.0332629 0
M  V30 788 C 73.133 4.15997 -1.06042 0
M  V30 789 C 72.366 5.31654 -0.466893 0
M  V30 790 O 72.589 5.65777 0.724758 0
M  V30 791 O 71.523 5.89831 -1.1993 0
M  V30 792 H 75.349 2.61016 -1.55255 0
M  V30 793 H 72.934 1.24919 -0.81949 0
M  V30 794 H 74.816 4.20234 0.313256 0
M  V30 795 H 73.491 3.12703 0.836566 0
M  V30 796 H 72.398 3.44482 -1.45886 0
M  V30 797 H 73.731 4.53996 -1.90127 0
M  V30 798 N 75.3831 0.828654 1.34056 0
M  V30 799 C 76.3131 0.269443 2.3194 0
M  V30 800 C 77.2941 -0.617247 1.58506 0
M  V30 801 O 78.4791 -0.542931 1.86456 0
M  V30 802 C 75.6091 -0.564793 3.42677 0
M  V30 803 C 74.5631 0.225241 4.27407 0
M  V30 804 C 73.8891 -0.7321 5.29664 0
M  V30 805 C 75.1891 1.43663 5.02154 0
M  V30 806 H 76.8831 1.08728 2.7896 0
M  V30 807 H 74.4291 0.524283 1.34117 0
M  V30 808 H 76.3821 -0.966233 4.10173 0
M  V30 809 H 75.1061 -1.41574 2.9432 0
M  V30 810 H 73.7651 0.608117 3.61521 0
M  V30 811 H 73.4131 -1.57916 4.77568 0
M  V30 812 H 73.1131 -0.20767 5.87233 0
M  V30 813 H 74.6371 -1.13128 6.00029 0
M  V30 814 H 76.0511 1.1089 5.62473 0
M  V30 815 H 74.4481 1.89711 5.69324 0
M  V30 816 H 75.5181 2.21181 4.31517 0
M  V30 817 N 76.8612 -1.46375 0.584142 0
M  V30 818 C 77.8242 -2.28784 -0.138108 0
M  V30 819 C 78.8242 -1.38471 -0.817462 0
M  V30 820 O 80.0142 -1.60833 -0.669199 0
M  V30 821 C 77.1462 -3.18892 -1.20503 0
M  V30 822 H 78.3392 -2.94117 0.586127 0
M  V30 823 H 75.8922 -1.52509 0.342171 0
M  V30 824 H 76.6272 -2.58309 -1.96079 0
M  V30 825 H 76.4122 -3.85388 -0.722384 0
M  V30 826 H 77.9022 -3.80914 -1.71155 0
M  V30 827 N 78.3393 -0.321999 -1.54275 0
M  V30 828 C 79.7553 0.0306999 -1.5957 0
M  V30 829 C 79.9553 1.50614 -1.33857 0
M  V30 830 O 79.0113 2.2619 -1.12223 0
M  V30 831 C 80.3243 -0.386122 -2.98211 0
M  V30 832 C 81.8723 -0.336647 -3.11184 0
M  V30 833 C 82.3473 -0.728607 -4.52167 0
M  V30 834 N 83.8383 -0.681952 -4.58152 0
M  V30 835 C 84.5733 -0.957449 -5.6535 0
M  V30 836 N 84.0693 -1.3 -6.80494 0
M  V30 837 N 85.8623 -0.883113 -5.55119 0
M  V30 838 H 78.0133 -1.28332 -1.69247 0
M  V30 839 H 80.2763 -0.521716 -0.791528 0
M  V30 840 H 79.9823 -1.41404 -3.22022 0
M  V30 841 H 79.8563 0.249662 -3.76373 0
M  V30 842 H 82.2433 0.682058 -2.8711 0
M  V30 843 H 82.3243 -1.00734 -2.3513 0
M  V30 844 H 81.9683 -1.74522 -4.76974 0
M  V30 845 H 81.8983 -0.0356152 -5.26588 0
M  V30 846 H 84.3893 -0.428985 -3.75457 0
M  V30 847 H 84.7023 -1.49563 -7.58189 0
M  V30 848 H 83.0473 -1.33824 -6.81994 0
M  V30 849 H 86.2383 -0.615001 -4.64042 0
M  V30 850 H 86.4113 -1.10118 -6.38575 0
M  V30 851 N 79.8174 1.5752 -0.0501392 0
M  V30 852 C 81.0644 1.9265 0.623874 0
M  V30 853 C 81.3924 0.928411 1.70912 0
M  V30 854 O 80.6474 -0.0594525 1.9561 0
M  V30 855 C 80.9464 3.34467 1.25963 0
M  V30 856 C 80.6124 4.49883 0.302689 0
M  V30 857 C 79.2744 4.81184 0.0393636 0
M  V30 858 C 81.6264 5.20002 -0.353205 0
M  V30 859 C 78.9544 5.79951 -0.887308 0
M  V30 860 C 81.3064 6.1976 -1.26806 0
M  V30 861 C 79.9704 6.49491 -1.54007 0
M  V30 862 H 79.2404 0.704957 0.228292 0
M  V30 863 H 81.8874 1.91146 -0.116398 0
M  V30 864 H 80.1924 3.32333 2.07514 0
M  V30 865 H 81.8894 3.58928 1.78806 0
M  V30 866 H 78.4794 4.25457 0.518109 0
M  V30 867 H 82.6634 4.96033 -0.162854 0
M  V30 868 H 77.9194 6.01322 -1.10553 0
M  V30 869 H 82.0934 6.73205 -1.78236 0
M  V30 870 H 79.7204 7.25837 -2.25976 0
M  V30 871 N 81.2955 -0.223234 1.56011 0
M  V30 872 C 82.2255 -1.27988 1.95298 0
M  V30 873 C 83.2065 -1.48976 0.820979 0
M  V30 874 O 84.3915 -1.61188 1.08315 0
M  V30 875 C 81.5215 -2.63 2.26822 0
M  V30 876 C 80.4755 -2.56671 3.42497 0
M  V30 877 C 79.8015 -3.95697 3.59622 0
M  V30 878 C 81.1015 -2.11601 4.77517 0
M  V30 879 H 82.7955 -0.953525 2.8381 0
M  V30 880 H 80.3415 -0.457244 1.36548 0
M  V30 881 H 82.2945 -3.37077 2.52898 0
M  V30 882 H 81.0185 -2.9732 1.35161 0
M  V30 883 H 79.6775 -1.85051 3.16467 0
M  V30 884 H 79.3255 -4.27322 2.6534 0
M  V30 885 H 79.0255 -3.92345 4.37424 0
M  V30 886 H 80.5495 -4.71438 3.88044 0
M  V30 887 H 81.9635 -2.7542 5.02809 0
M  V30 888 H 80.3605 -2.19311 5.5859 0
M  V30 889 H 81.4305 -1.06824 4.72987 0
M  V30 890 N 82.7736 -1.49793 -0.48987 0
M  V30 891 C 83.6836 -1.70036 -1.61632 0
M  V30 892 C 84.6996 -0.583102 -1.63939 0
M  V30 893 O 85.8756 -0.859169 -1.82154 0
M  V30 894 C 82.9406 -1.77277 -2.97949 0
M  V30 895 C 82.0016 -3.00918 -3.06181 0
M  V30 896 C 81.2346 -3.07804 -4.35996 0
M  V30 897 O 81.4576 -2.21982 -5.25433 0
M  V30 898 O 80.3916 -4.00369 -4.49431 0
M  V30 899 H 84.2176 -2.65486 -1.47482 0
M  V30 900 H 81.8026 -1.33666 -0.667362 0
M  V30 901 H 83.6846 -1.84329 -3.78947 0
M  V30 902 H 82.3596 -0.850076 -3.12339 0
M  V30 903 H 81.2666 -2.99377 -2.2433 0
M  V30 904 H 82.5996 -3.92704 -2.96723 0
M  V30 905 N 84.2517 0.741722 -1.39055 0
M  V30 906 C 85.1997 1.87702 -1.3737 0
M  V30 907 C 86.1937 1.67427 -0.257812 0
M  V30 908 O 87.3997 1.7485 -0.427489 0
M  V30 909 H 83.7747 0.617757 -0.428812 0
M  V30 910 H 85.7457 1.86239 -2.33147 0
M  V30 911 C 84.4947 3.25315 -1.22741 0
M  V30 912 H 83.8177 3.41509 -2.07873 0
M  V30 913 H 85.2577 4.04964 -1.25618 0
M  V30 914 C 83.7167 3.36838 0.0647316 0
M  V30 915 O 84.2467 3.88073 1.03741 0
M  V30 916 N 82.4527 2.90329 0.125544 0
M  V30 917 H 81.9997 2.48823 -0.666682 0
M  V30 918 H 81.9577 2.98418 0.989639 0
M  V30 919 N 85.7298 1.2412 0.971189 0
M  V30 920 C 87.1408 1.07236 1.52831 0
M  V30 921 C 87.4918 -0.357352 1.92918 0
M  V30 922 O 86.6168 -1.24528 1.76979 0
M  V30 923 C 87.2118 1.94043 2.77728 0
M  V30 924 C 85.7708 1.81394 3.29808 0
M  V30 925 C 84.9178 1.89189 2.02738 0
M  V30 926 H 87.8688 1.37648 0.789864 0
M  V30 927 H 87.8898 1.47066 3.5093 0
M  V30 928 H 87.4018 2.98093 2.4852 0
M  V30 929 H 85.5028 0.801634 3.63874 0
M  V30 930 H 85.6158 2.65294 3.98944 0
M  V30 931 H 83.9798 1.32877 2.17292 0
M  V30 932 H 84.7628 2.94812 1.759 0
M  V30 933 N 87.2079 -1.17134 1.05439 0
M  V30 934 C 88.1709 -2.19439 0.661764 0
M  V30 935 C 89.1709 -1.58199 -0.288042 0
M  V30 936 O 90.3609 -1.74053 -0.0715803 0
M  V30 937 C 87.4929 -3.40889 -0.0276209 0
M  V30 938 H 88.6859 -2.55688 1.56728 0
M  V30 939 H 86.2389 -1.31259 0.848567 0
M  V30 940 H 86.9739 -3.10187 -0.94629 0
M  V30 941 H 86.7589 -3.86586 0.655238 0
M  V30 942 H 88.2489 -4.16603 -0.288342 0
M  V30 943 N 88.686 -0.835752 -1.33615 0
M  V30 944 C 89.963 -0.352017 -1.92406 0
M  V30 945 C 90.343 1.16225 -1.76224 0
M  V30 946 O 89.691 1.97526 -1.14873 0
M  V30 947 C 89.901 -0.795485 -3.39813 0
M  V30 948 C 91.249 -0.801703 -4.16963 0
M  V30 949 O 92.273 -0.738889 -3.48452 0
M  V30 950 O 91.132 -0.886607 -5.3926 0
M  V30 951 H 88.226 -0.0989641 -0.821057 0
M  V30 952 H 90.772 -0.921397 -1.42507 0
M  V30 953 H 89.544 -1.83795 -3.45449 0
M  V30 954 H 89.167 -0.202505 -3.97084 0
M  V30 955 N 90.1641 1.46063 -0.591896 0
M  V30 956 C 91.5751 1.85944 -0.167822 0
M  V30 957 C 91.9261 1.49429 1.27143 0
M  V30 958 O 91.0511 0.913515 1.96173 0
M  V30 959 C 91.6461 3.37489 -0.297794 0
M  V30 960 C 90.2051 3.76332 0.0714732 0
M  V30 961 C 89.3521 2.7006 -0.629509 0
M  V30 962 H 92.3031 1.37087 -0.799555 0
M  V30 963 H 92.3241 3.77532 0.474349 0
M  V30 964 H 91.8361 3.64034 -1.3454 0
M  V30 965 H 89.9371 3.55405 1.11886 0
M  V30 966 H 90.0501 4.78088 -0.311245 0
M  V30 967 H 88.4141 2.54607 -0.0687867 0
M  V30 968 H 89.1971 2.99444 -1.67894 0
M  V30 969 N 91.6422 0.330177 1.54103 0
M  V30 970 C 93.0582 -0.0222371 1.59585 0
M  V30 971 C 93.2582 -1.49902 1.34654 0
M  V30 972 O 92.3142 -2.25592 1.13421 0
M  V30 973 C 93.6272 0.401932 2.98002 0
M  V30 974 C 95.1752 0.353145 3.11001 0
M  V30 975 C 95.6502 0.752576 4.51775 0
M  V30 976 N 97.1412 0.706239 4.57784 0
M  V30 977 C 97.8762 0.987417 5.64834 0
M  V30 978 N 97.3722 1.33607 6.79795 0
M  V30 979 N 99.1652 0.91254 5.54643 0
M  V30 980 H 91.3162 1.29228 1.68564 0
M  V30 981 H 93.5792 0.525906 0.78875 0
M  V30 982 H 93.2852 1.4311 3.21267 0
M  V30 983 H 93.1592 -0.229699 3.765 0
M  V30 984 H 95.5462 -0.666822 2.87467 0
M  V30 985 H 95.6272 1.0198 2.34593 0
M  V30 986 H 95.2712 1.77049 4.76042 0
M  V30 987 H 95.2012 0.0635409 5.26562 0
M  V30 988 H 97.6922 0.44889 3.75224 0
M  V30 989 H 98.0052 1.53582 7.57385 0
M  V30 990 H 96.3502 1.37439 6.81275 0
M  V30 991 H 99.5412 0.639601 4.6371 0
M  V30 992 H 99.7142 1.13503 6.37982 0
M  V30 993 N 93.1203 -1.57491 0.0584922 0
M  V30 994 C 94.3503 -1.9701 -0.622134 0
M  V30 995 C 94.7583 -0.935034 -1.6448 0
M  V30 996 O 94.1013 0.0882904 -1.83488 0
M  V30 997 C 94.1633 -3.32794 -1.35972 0
M  V30 998 C 93.8273 -4.54343 -0.492043 0
M  V30 999 C 94.8243 -5.19323 0.244901 0
M  V30 1000 C 92.5093 -5.00534 -0.420821 0
M  V30 1001 C 94.5033 -6.28835 1.04143 0
M  V30 1002 C 92.1903 -6.09921 0.379389 0
M  V30 1003 C 93.1883 -6.73933 1.10919 0
M  V30 1004 O 92.8763 -7.81216 1.89623 0
M  V30 1005 H 92.6083 -0.653127 -0.174359 0
M  V30 1006 H 95.1623 -2.05029 0.123418 0
M  V30 1007 H 93.3923 -3.21351 -2.15105 0
M  V30 1008 H 95.0813 -3.5701 -1.93129 0
M  V30 1009 H 95.8473 -4.8459 0.19939 0
M  V30 1010 H 91.7263 -4.50496 -0.978474 0
M  V30 1011 H 95.2703 -6.7873 1.61157 0
M  V30 1012 H 91.1673 -6.44089 0.426512 0
M  V30 1013 H 91.9353 -7.98029 1.81913 0
M  V30 1014 N 94.5984 0.214957 -1.56127 0
M  V30 1015 C 95.5284 1.2695 -1.95974 0
M  V30 1016 C 96.5094 1.48539 -0.828868 0
M  V30 1017 O 97.6944 1.60611 -1.09168 0
M  V30 1018 C 94.8244 2.61794 -2.28214 0
M  V30 1019 C 93.7784 2.54851 -3.43853 0
M  V30 1020 C 93.1044 3.93785 -3.61715 0
M  V30 1021 C 94.4044 2.09065 -4.78632 0
M  V30 1022 H 96.0984 0.93846 -2.84312 0
M  V30 1023 H 93.6444 0.449996 -1.36788 0
M  V30 1024 H 95.5974 3.35731 -2.54682 0
M  V30 1025 H 94.3214 2.96599 -1.36736 0
M  V30 1026 H 92.9804 1.8337 -3.17444 0
M  V30 1027 H 92.6284 4.25908 -2.67602 0
M  V30 1028 H 92.3284 3.90019 -4.39498 0
M  V30 1029 H 93.8524 4.69374 -3.90539 0
M  V30 1030 H 95.2664 2.7275 -5.04262 0
M  V30 1031 H 93.6634 2.16346 -5.59745 0
M  V30 1032 H 94.7334 1.04315 -4.73547 0
M  V30 1033 N 96.0765 1.50051 0.48192 0
M  V30 1034 C 97.0395 1.67584 1.5636 0
M  V30 1035 C 98.0395 0.546894 1.51214 0
M  V30 1036 O 99.2295 0.813725 1.54026 0
M  V30 1037 C 96.3615 1.691 2.96003 0
M  V30 1038 H 97.5545 2.64078 1.42136 0
M  V30 1039 H 95.1075 1.39369 0.707533 0
M  V30 1040 H 95.8425 0.742589 3.15684 0
M  V30 1041 H 95.6275 2.51105 3.01146 0
M  V30 1042 H 97.1175 1.84656 3.74556 0
M  V30 1043 N 97.5546 -0.734337 1.39446 0
M  V30 1044 C 98.5176 -1.83004 1.37994 0
M  V30 1045 C 99.5176 -1.58397 0.276938 0
M  V30 1046 O 100.708 -1.65785 0.534875 0
M  V30 1047 C 97.8396 -3.20802 1.1532 0
M  V30 1048 H 99.0326 -1.85694 2.35494 0
M  V30 1049 H 96.5856 -0.938059 1.25021 0
M  V30 1050 H 97.3206 -3.23772 0.185036 0
M  V30 1051 H 97.1056 -3.4006 1.95197 0
M  V30 1052 H 98.5956 -4.00862 1.17046 0
M  V30 1053 N 99.0327 -1.24633 -0.964593 0
M  V30 1054 C 100.258 -1.11596 -1.74818 0
M  V30 1055 C 100.683 0.32723 -1.85232 0
M  V30 1056 O 100.041 1.23695 -1.32549 0
M  V30 1057 C 100.089 -1.76397 -3.1451 0
M  V30 1058 O 99.1927 -1.03685 -3.99153 0
M  V30 1059 H 98.5337 -0.390196 -0.537255 0
M  V30 1060 H 101.064 -1.65002 -1.20977 0
M  V30 1061 H 101.074 -1.8228 -3.65018 0
M  V30 1062 H 99.7487 -2.81401 -3.06246 0
M  V30 1063 H 98.3257 -1.05611 -3.57632 0
M  V30 1064 N 100.511 1.16574 -1.06058 0
M  V30 1065 C 101.757 1.87565 -0.78683 0
M  V30 1066 C 102.112 1.80012 0.679214 0
M  V30 1067 O 101.405 1.20327 1.49104 0
M  V30 1068 C 101.599 3.36195 -1.21275 0
M  V30 1069 C 101.428 3.58216 -2.71866 0
M  V30 1070 C 100.198 3.7444 -3.39298 0
M  V30 1071 C 102.396 3.57134 -3.70081 0
M  V30 1072 N 100.378 3.84389 -4.78663 0
M  V30 1073 C 101.749 3.73038 -4.9522 0
M  V30 1074 C 103.804 3.40332 -3.63426 0
M  V30 1075 C 102.507 3.73879 -6.14497 0
M  V30 1076 C 104.533 3.42466 -4.82153 0
M  V30 1077 C 103.895 3.58887 -6.06118 0
M  V30 1078 H 99.9938 0.704081 -0.340284 0
M  V30 1079 H 102.578 1.39885 -1.35426 0
M  V30 1080 H 100.749 3.82522 -0.673179 0
M  V30 1081 H 102.481 3.94839 -0.887917 0
M  V30 1082 H 99.2358 3.74662 -2.89699 0
M  V30 1083 H 99.6598 3.93138 -5.51155 0
M  V30 1084 H 104.302 3.26566 -2.68541 0
M  V30 1085 H 102.02 3.86427 -7.09718 0
M  V30 1086 H 105.606 3.30712 -4.78666 0
M  V30 1087 H 104.486 3.60454 -6.9645 0
M  V30 1088 N 101.989 0.842826 1.3317 0
M  V30 1089 C 102.921 0.236245 2.27979 0
M  V30 1090 C 103.934 -0.585282 1.51915 0
M  V30 1091 O 105.123 -0.411705 1.73687 0
M  V30 1092 C 102.223 -0.685717 3.3189 0
M  V30 1093 C 101.396 0.0973448 4.37292 0
M  V30 1094 C 100.455 -0.748565 5.20848 0
M  V30 1095 O 99.4809 -0.186339 5.68895 0
M  V30 1096 N 100.683 -2.06527 5.42519 0
M  V30 1097 H 103.448 1.05088 2.80672 0
M  V30 1098 H 101.009 0.701667 1.45905 0
M  V30 1099 H 103.001 -1.25669 3.84694 0
M  V30 1100 H 101.571 -1.40105 2.79445 0
M  V30 1101 H 100.791 0.849706 3.84933 0
M  V30 1102 H 102.079 0.635643 5.04814 0
M  V30 1103 H 101.477 -2.54554 5.05192 0
M  V30 1104 H 100.034 -2.58464 5.98364 0
M  V30 1105 N 103.467 -1.45747 0.599634 0
M  V30 1106 C 104.43 -2.28917 -0.113835 0
M  V30 1107 C 105.43 -1.3933 -0.802729 0
M  V30 1108 O 106.62 -1.61534 -0.652103 0
M  V30 1109 C 103.752 -3.20152 -1.17114 0
M  V30 1110 H 104.945 -2.93478 0.617289 0
M  V30 1111 H 102.498 -1.52137 0.358327 0
M  V30 1112 H 103.233 -2.60374 -1.93329 0
M  V30 1113 H 103.018 -3.86133 -0.681468 0
M  V30 1114 H 104.508 -3.82708 -1.67105 0
M  V30 1115 N 104.945 -0.338344 -1.53925 0
M  V30 1116 C 106.193 0.259245 -2.0043 0
M  V30 1117 C 106.514 1.51484 -1.22791 0
M  V30 1118 O 105.784 1.93037 -0.33368 0
M  V30 1119 H 104.364 0.0987845 -0.740439 0
M  V30 1120 H 107.026 -0.458302 -1.89435 0
M  V30 1121 H 106.122 0.505334 -3.07982 0
M  V30 1122 N 106.423 1.57458 -0.0668435 0
M  V30 1123 C 107.373 2.0896 0.912119 0
M  V30 1124 C 108.357 0.998186 1.26195 0
M  V30 1125 O 109.549 1.26133 1.24175 0
M  V30 1126 C 106.678 2.6508 2.18145 0
M  V30 1127 C 105.764 3.81218 1.85832 0
M  V30 1128 N 106.155 4.90378 1.23948 0
M  V30 1129 C 104.453 3.9042 2.15612 0
M  V30 1130 C 105.154 5.71279 1.09616 0
M  V30 1131 N 104.13 5.19389 1.60423 0
M  V30 1132 H 107.932 2.90749 0.42924 0
M  V30 1133 H 105.446 1.6182 0.137184 0
M  V30 1134 H 107.443 3.0029 2.89192 0
M  V30 1135 H 106.103 1.84736 2.67025 0
M  V30 1136 H 107.114 5.09847 0.909731 0
M  V30 1137 H 103.791 3.21043 2.66903 0
M  V30 1138 H 105.181 6.69085 0.614425 0
M  V30 1139 N 107.901 -0.206675 1.56239 0
M  V30 1140 C 109.129 -0.945345 1.8404 0
M  V30 1141 C 109.544 -1.77336 0.647885 0
M  V30 1142 O 108.901 -1.78425 -0.383511 0
M  V30 1143 C 108.952 -1.8509 3.10522 0
M  V30 1144 O 108.673 -1.05634 4.25174 0
M  V30 1145 C 110.174 -2.70222 3.51418 0
M  V30 1146 H 107.394 -0.276372 0.61144 0
M  V30 1147 H 109.938 -0.217417 2.03341 0
M  V30 1148 H 108.093 -2.53259 2.93153 0
M  V30 1149 H 108.507 -1.67238 4.97124 0
M  V30 1150 H 109.981 -3.29438 4.42916 0
M  V30 1151 H 110.458 -3.43358 2.73864 0
M  V30 1152 H 111.064 -2.07443 3.71278 0
M  V30 1153 N 109.379 -1.50304 -0.473955 0
M  V30 1154 C 110.627 -1.60832 -1.22382 0
M  V30 1155 C 110.948 -0.30939 -1.9253 0
M  V30 1156 O 110.218 0.67296 -1.83978 0
M  V30 1157 H 108.798 -0.592652 -0.454723 0
M  V30 1158 H 111.46 -1.87068 -0.546968 0
M  V30 1159 H 110.556 -2.41803 -1.97327 0
M  V30 1160 N 110.857 0.726932 -1.39834 0
M  V30 1161 C 112.082 1.52121 -1.40976 0
M  V30 1162 C 112.507 1.88098 -0.00826029 0
M  V30 1163 O 111.865 1.52479 0.980807 0
M  V30 1164 C 111.913 2.78021 -2.29644 0
M  V30 1165 O 111.017 3.74272 -1.73188 0
M  V30 1166 H 110.358 0.45908 -0.479731 0
M  V30 1167 H 112.888 0.896207 -1.83927 0
M  V30 1168 H 112.898 3.26671 -2.44438 0
M  V30 1169 H 111.573 2.51169 -3.31492 0
M  V30 1170 H 110.15 3.33073 -1.6768 0
M  V30 1171 N 112.336 1.25143 0.95797 0
M  V30 1172 C 113.584 1.09476 1.69881 0
M  V30 1173 C 113.905 -0.365502 1.91544 0
M  V30 1174 O 113.175 -1.25985 1.50015 0
M  V30 1175 H 111.755 0.402128 0.629525 0
M  V30 1176 H 114.417 1.57214 1.15194 0
M  V30 1177 H 113.513 1.60046 2.6794 0
M  V30 1178 N 113.814 -1.1601 1.06675 0
M  V30 1179 C 114.744 -2.22688 0.702307 0
M  V30 1180 C 115.725 -1.67306 -0.307032 0
M  V30 1181 O 116.91 -1.93352 -0.181305 0
M  V30 1182 C 114.04 -3.47178 0.092038 0
M  V30 1183 C 112.994 -4.15477 1.02777 0
M  V30 1184 C 112.32 -5.33963 0.28061 0
M  V30 1185 C 113.62 -4.66019 2.35846 0
M  V30 1186 H 115.314 -2.53429 1.59419 0
M  V30 1187 H 112.86 -1.21813 0.767961 0
M  V30 1188 H 114.813 -4.21037 -0.174814 0
M  V30 1189 H 113.537 -3.15749 -0.834877 0
M  V30 1190 H 112.196 -3.43549 1.27944 0
M  V30 1191 H 111.844 -4.98788 -0.649545 0
M  V30 1192 H 111.544 -5.806 0.904258 0
M  V30 1193 H 113.068 -6.10596 0.021396 0
M  V30 1194 H 114.482 -5.3144 2.15045 0
M  V30 1195 H 112.879 -5.23293 2.93743 0
M  V30 1196 H 113.949 -3.82023 2.98641 0
M  V30 1197 N 115.292 -0.849877 -1.32721 0
M  V30 1198 C 116.242 -0.262892 -2.26479 0
M  V30 1199 C 117.226 0.588493 -1.49752 0
M  V30 1200 O 118.418 0.438659 -1.71478 0
M  V30 1201 C 115.547 0.551818 -3.38836 0
M  V30 1202 C 114.633 -0.311689 -4.22953 0
M  V30 1203 N 115.024 -1.39567 -4.86163 0
M  V30 1204 C 113.322 -0.100611 -4.45887 0
M  V30 1205 C 114.023 -1.92651 -5.48872 0
M  V30 1206 N 112.999 -1.22637 -5.29586 0
M  V30 1207 H 116.801 -1.09166 -2.72873 0
M  V30 1208 H 114.315 -0.695486 -1.46754 0
M  V30 1209 H 116.312 0.988713 -4.05006 0
M  V30 1210 H 114.972 1.37844 -2.93988 0
M  V30 1211 H 115.983 -1.77859 -4.86402 0
M  V30 1212 H 112.66 0.691681 -4.11731 0
M  V30 1213 H 114.05 -2.83487 -6.09167 0
M  V30 1214 N 116.77 1.45427 -0.607355 0
M  V30 1215 C 118 2.06314 -0.108656 0
M  V30 1216 C 118.408 1.45269 1.21217 0
M  V30 1217 O 117.751 0.561115 1.74921 0
M  V30 1218 C 117.813 3.59345 0.105618 0
M  V30 1219 C 117.477 4.42723 -1.13337 0
M  V30 1220 C 118.474 4.77715 -2.05145 0
M  V30 1221 C 116.159 4.83478 -1.36213 0
M  V30 1222 C 118.153 5.52317 -3.18158 0
M  V30 1223 C 115.84 5.57835 -2.49527 0
M  V30 1224 C 116.838 5.92171 -3.40327 0
M  V30 1225 O 116.526 6.65019 -4.51669 0
M  V30 1226 H 116.258 0.672782 -0.0658842 0
M  V30 1227 H 118.812 1.87664 -0.834945 0
M  V30 1228 H 117.042 3.76394 0.886796 0
M  V30 1229 H 118.731 4.02076 0.555886 0
M  V30 1230 H 119.497 4.46787 -1.88697 0
M  V30 1231 H 115.376 4.56188 -0.664362 0
M  V30 1232 H 118.92 5.79036 -3.89054 0
M  V30 1233 H 114.817 5.88177 -2.65928 0
M  V30 1234 H 115.585 6.83469 -4.50348 0
M  V30 1235 N 118.248 0.346503 1.53744 0
M  V30 1236 C 119.664 -0.00530975 1.59599 0
M  V30 1237 C 119.864 -1.48465 1.36236 0
M  V30 1238 O 118.92 -2.24376 1.15808 0
M  V30 1239 C 120.233 0.433516 2.97559 0
M  V30 1240 C 121.781 0.386111 3.10609 0
M  V30 1241 C 122.256 0.800451 4.50951 0
M  V30 1242 N 123.747 0.754753 4.5701 0
M  V30 1243 C 124.482 1.04727 5.63755 0
M  V30 1244 N 123.978 1.4081 6.7834 0
M  V30 1245 N 125.771 0.971316 5.53644 0
M  V30 1246 H 117.922 1.31009 1.67184 0
M  V30 1247 H 120.185 0.534242 0.783128 0
M  V30 1248 H 119.891 1.46509 3.19731 0
M  V30 1249 H 119.765 -0.189753 3.76722 0
M  V30 1250 H 122.152 -0.636295 2.88158 0
M  V30 1251 H 122.233 1.04462 2.33498 0
M  V30 1252 H 121.877 1.82088 4.74137 0
M  V30 1253 H 121.807 0.119386 5.26465 0
M  V30 1254 H 124.298 0.488662 3.74727 0
M  V30 1255 H 124.611 1.61607 7.55714 0
M  V30 1256 H 122.956 1.44657 6.79779 0
M  V30 1257 H 126.147 0.688748 4.63005 0
M  V30 1258 H 126.32 1.20263 6.36742 0
M  V30 1259 N 119.726 -1.57421 0.075193 0
M  V30 1260 C 121.142 -1.57099 -0.281444 0
M  V30 1261 C 121.342 -1.08486 -1.69803 0
M  V30 1262 O 120.398 -0.752279 -2.41033 0
M  V30 1263 C 121.711 -3.00571 -0.0880041 0
M  V30 1264 C 123.259 -3.12605 -0.157281 0
M  V30 1265 C 123.734 -4.57999 0.0079207 0
M  V30 1266 N 125.225 -4.63176 -0.0475725 0
M  V30 1267 C 125.96 -5.73373 0.0557876 0
M  V30 1268 N 125.456 -6.92473 0.21286 0
M  V30 1269 N 127.249 -5.621 -0.00152098 0
M  V30 1270 H 119.4 -1.87335 1.00098 0
M  V30 1271 H 121.663 -0.86377 0.390646 0
M  V30 1272 H 121.369 -3.40262 0.889629 0
M  V30 1273 H 121.243 -3.67754 -0.838875 0
M  V30 1274 H 123.63 -2.72798 -1.1254 0
M  V30 1275 H 123.711 -2.48053 0.62475 0
M  V30 1276 H 123.355 -4.98496 0.972824 0
M  V30 1277 H 123.285 -5.20586 -0.793556 0
M  V30 1278 H 125.776 -3.7753 -0.167244 0
M  V30 1279 H 126.089 -7.72279 0.283781 0
M  V30 1280 H 124.434 -6.94556 0.248267 0
M  V30 1281 H 127.625 -4.67938 -0.122958 0
M  V30 1282 H 127.798 -6.47948 0.0824844 0
M  V30 1283 N 121.204 0.198386 -1.56346 0
M  V30 1284 C 122.434 0.934215 -1.84271 0
M  V30 1285 C 122.842 1.77496 -0.655125 0
M  V30 1286 O 122.185 1.7961 0.385488 0
M  V30 1287 C 122.247 1.88278 -3.06254 0
M  V30 1288 C 121.911 1.22431 -4.40295 0
M  V30 1289 C 122.908 0.602839 -5.16393 0
M  V30 1290 C 120.593 1.22915 -4.87029 0
M  V30 1291 C 122.587 -0.0050083 -6.374 0
M  V30 1292 C 120.274 0.617465 -6.07973 0
M  V30 1293 C 121.272 0.00146341 -6.83 0
M  V30 1294 O 120.96 -0.600642 -8.01653 0
M  V30 1295 H 120.692 0.278245 -0.616081 0
M  V30 1296 H 123.246 0.211626 -2.04307 0
M  V30 1297 H 121.476 2.64498 -2.82095 0
M  V30 1298 H 123.165 2.48612 -3.20853 0
M  V30 1299 H 123.931 0.591265 -4.81382 0
M  V30 1300 H 119.81 1.69801 -4.28589 0
M  V30 1301 H 123.354 -0.48643 -6.95902 0
M  V30 1302 H 119.251 0.62653 -6.42452 0
M  V30 1303 H 120.019 -0.497225 -8.16988 0
M  V30 1304 N 122.682 1.50554 0.465978 0
M  V30 1305 C 124.093 1.54599 1.04671 0
M  V30 1306 C 124.444 0.352488 1.93008 0
M  V30 1307 O 123.569 -0.534044 2.09707 0
M  V30 1308 C 124.164 2.80166 1.90505 0
M  V30 1309 C 122.723 2.86876 2.43678 0
M  V30 1310 C 121.87 2.48947 1.22151 0
M  V30 1311 H 124.821 1.56744 0.248384 0
M  V30 1312 H 124.842 2.62311 2.75633 0
M  V30 1313 H 124.354 3.67013 1.26186 0
M  V30 1314 H 122.455 2.04393 3.11536 0
M  V30 1315 H 122.568 3.89885 2.78436 0
M  V30 1316 H 120.932 2.01498 1.5579 0
M  V30 1317 H 121.715 3.38107 0.594866 0
M  V30 1318 N 124.16 -0.719506 1.40217 0
M  V30 1319 C 125.407 -1.47933 1.38283 0
M  V30 1320 C 125.735 -1.94493 -0.0161536 0
M  V30 1321 O 124.99 -1.68224 -0.999956 0
M  V30 1322 C 125.289 -2.72271 2.31524 0
M  V30 1323 C 124.955 -2.44496 3.78857 0
M  V30 1324 C 123.617 -2.36631 4.18998 0
M  V30 1325 C 125.969 -2.21104 4.71977 0
M  V30 1326 C 123.297 -2.03437 5.503 0
M  V30 1327 C 125.649 -1.89423 6.03574 0
M  V30 1328 C 124.313 -1.80038 6.42762 0
M  V30 1329 H 123.583 -0.541325 0.506012 0
M  V30 1330 H 126.23 -0.824502 1.72842 0
M  V30 1331 H 124.535 -3.42572 1.90137 0
M  V30 1332 H 126.232 -3.30348 2.27313 0
M  V30 1333 H 122.822 -2.51503 3.47051 0
M  V30 1334 H 127.006 -2.26139 4.41786 0
M  V30 1335 H 122.262 -1.94705 5.79569 0
M  V30 1336 H 126.436 -1.70336 6.75247 0
M  V30 1337 H 124.063 -1.54083 7.44421 0
M  V30 1338 N 125.638 -1.25649 -0.95132 0
M  V30 1339 C 126.885 -1.10594 -1.69633 0
M  V30 1340 C 127.213 0.352515 -1.91279 0
M  V30 1341 O 126.468 1.27601 -1.4838 0
M  V30 1342 C 126.767 -1.80909 -3.08231 0
M  V30 1343 C 126.433 -3.30825 -3.06375 0
M  V30 1344 C 125.095 -3.71722 -3.05576 0
M  V30 1345 C 127.447 -4.26589 -2.99452 0
M  V30 1346 C 124.775 -5.06788 -2.95606 0
M  V30 1347 C 127.127 -5.61683 -2.91024 0
M  V30 1348 C 125.791 -6.01904 -2.88562 0
M  V30 1349 H 125.061 -0.404691 -0.620731 0
M  V30 1350 H 127.708 -1.55964 -1.11119 0
M  V30 1351 H 126.013 -1.27979 -3.70309 0
M  V30 1352 H 127.71 -1.6671 -3.64704 0
M  V30 1353 H 124.3 -2.98287 -3.07771 0
M  V30 1354 H 128.484 -3.95982 -2.99185 0
M  V30 1355 H 123.74 -5.37126 -2.92071 0
M  V30 1356 H 127.914 -6.35578 -2.84629 0
M  V30 1357 H 125.541 -7.06521 -2.80593 0
M  V30 1358 N 127.117 1.15442 -1.07289 0
M  V30 1359 C 128.08 2.18358 -0.696591 0
M  V30 1360 C 129.08 1.58637 0.262837 0
M  V30 1361 O 130.27 1.74145 0.0438809 0
M  V30 1362 C 127.402 3.4089 -0.0266151 0
M  V30 1363 H 128.595 2.53162 -1.60776 0
M  V30 1364 H 126.148 1.29893 -0.869342 0
M  V30 1365 H 126.883 3.11653 0.896822 0
M  V30 1366 H 126.668 3.85495 -0.716657 0
M  V30 1367 H 128.158 4.17009 0.222028 0
M  V30 1368 N 128.595 0.856903 1.32268 0
M  V30 1369 C 129.558 0.308171 2.27119 0
M  V30 1370 C 130.558 -0.533421 1.51695 0
M  V30 1371 O 131.748 -0.344607 1.70757 0
M  V30 1372 C 128.88 -0.563757 3.36206 0
M  V30 1373 H 130.073 1.14535 2.77167 0
M  V30 1374 H 127.626 0.631421 1.42978 0
M  V30 1375 H 128.361 -1.42266 2.91429 0
M  V30 1376 H 128.146 0.0386749 3.92081 0
M  V30 1377 H 129.636 -0.940386 4.06874 0
M  V30 1378 N 130.073 -1.45103 0.615059 0
M  V30 1379 C 131.003 -2.33339 -0.0865619 0
M  V30 1380 C 131.984 -1.4727 -0.851209 0
M  V30 1381 O 133.169 -1.76026 -0.820281 0
M  V30 1382 C 130.299 -3.30095 -1.07956 0
M  V30 1383 C 129.253 -4.25858 -0.427628 0
M  V30 1384 C 128.579 -5.12361 -1.5294 0
M  V30 1385 C 129.879 -5.18165 0.655944 0
M  V30 1386 H 131.573 -2.92254 0.650224 0
M  V30 1387 H 129.119 -1.40532 0.314138 0
M  V30 1388 H 131.072 -3.90698 -1.57901 0
M  V30 1389 H 129.796 -2.69355 -1.84703 0
M  V30 1390 H 128.455 -3.66564 0.0510292 0
M  V30 1391 H 128.103 -4.47984 -2.28734 0
M  V30 1392 H 127.803 -5.77238 -1.09865 0
M  V30 1393 H 129.327 -5.75833 -2.03098 0
M  V30 1394 H 130.741 -5.72796 0.240257 0
M  V30 1395 H 129.138 -5.91559 1.00888 0
M  V30 1396 H 130.208 -4.60144 1.52957 0
M  V30 1397 N 131.551 -0.354651 -1.53558 0
M  V30 1398 C 132.967 -0.00315426 -1.596 0
M  V30 1399 C 133.167 1.47741 -1.37021 0
M  V30 1400 O 132.223 2.23759 -1.16996 0
M  V30 1401 C 133.536 -0.44929 -2.97325 0
M  V30 1402 C 135.084 -0.402578 -3.104 0
M  V30 1403 C 135.559 -0.824355 -4.5052 0
M  V30 1404 N 137.05 -0.778979 -4.56603 0
M  V30 1405 C 137.785 -1.07715 -5.63192 0
M  V30 1406 N 137.281 -1.44405 -6.77583 0
M  V30 1407 N 139.074 -1.00066 -5.53121 0
M  V30 1408 H 131.225 -1.31893 -1.66487 0
M  V30 1409 H 133.488 -0.538388 -0.780284 0
M  V30 1410 H 133.194 -1.48202 -3.1895 0
M  V30 1411 H 133.068 0.169772 -3.76818 0
M  V30 1412 H 135.455 0.621004 -2.88492 0
M  V30 1413 H 135.536 -1.05699 -2.32941 0
M  V30 1414 H 135.18 -1.846 -4.73165 0
M  V30 1415 H 135.11 -0.147304 -5.26394 0
M  V30 1416 H 137.601 -0.508528 -3.74463 0
M  V30 1417 H 137.914 -1.65612 -7.54846 0
M  V30 1418 H 136.259 -1.4826 -6.79002 0
M  V30 1419 H 139.45 -0.713293 -4.62633 0
M  V30 1420 H 139.623 -1.23638 -6.36096 0
M  V30 1421 N 133.029 1.57378 -0.0835403 0
M  V30 1422 C 133.939 2.16897 0.894021 0
M  V30 1423 C 134.955 1.13528 1.31861 0
M  V30 1424 O 136.131 1.45848 1.3889 0
M  V30 1425 C 133.196 2.72831 2.13925 0
M  V30 1426 C 132.257 3.91115 1.76997 0
M  V30 1427 C 131.49 4.44371 2.95584 0
M  V30 1428 O 131.713 3.96596 4.09961 0
M  V30 1429 O 130.647 5.35549 2.74719 0
M  V30 1430 H 134.473 3.00814 0.417679 0
M  V30 1431 H 132.058 1.48741 0.140181 0
M  V30 1432 H 133.94 3.0863 2.86924 0
M  V30 1433 H 132.615 1.91967 2.60635 0
M  V30 1434 H 131.522 3.60148 1.01214 0
M  V30 1435 H 132.855 4.73307 1.3506 0
M  V30 1436 N 134.507 -0.190092 1.56449 0
M  V30 1437 C 135.923 -0.54113 1.50146 0
M  V30 1438 C 136.123 -1.85603 0.784465 0
M  V30 1439 O 135.179 -2.5024 0.337051 0
M  V30 1440 C 136.492 -0.591241 2.9483 0
M  V30 1441 C 138.04 -0.679732 3.0553 0
M  V30 1442 C 138.515 -0.760908 4.51635 0
M  V30 1443 N 140.006 -0.824302 4.55806 0
M  V30 1444 C 140.741 -0.907365 5.66175 0
M  V30 1445 N 140.237 -0.952422 6.86222 0
M  V30 1446 N 142.03 -0.94494 5.541 0
M  V30 1447 H 134.181 0.67235 2.01478 0
M  V30 1448 H 136.444 0.240127 0.917084 0
M  V30 1449 H 136.15 0.305905 3.50367 0
M  V30 1450 H 136.024 -1.44422 3.48457 0
M  V30 1451 H 138.411 -1.56731 2.50039 0
M  V30 1452 H 138.492 0.199549 2.5502 0
M  V30 1453 H 138.136 0.122336 5.07753 0
M  V30 1454 H 138.066 -1.65606 4.99882 0
M  V30 1455 H 140.557 -0.798526 3.69367 0
M  V30 1456 H 140.87 -1.01645 7.66086 0
M  V30 1457 H 139.215 -0.921014 6.8887 0
M  V30 1458 H 142.406 -0.906612 4.59236 0
M  V30 1459 H 142.579 -1.00622 6.4014 0
M  V30 1460 N 135.985 -1.50799 -0.457987 0
M  V30 1461 C 136.948 -1.7005 -1.53674 0
M  V30 1462 C 137.948 -0.570881 -1.50325 0
M  V30 1463 O 139.138 -0.838126 -1.52712 0
M  V30 1464 C 136.27 -1.73788 -2.93276 0
M  V30 1465 H 137.463 -2.66306 -1.37917 0
M  V30 1466 H 135.016 -1.40477 -0.685271 0
M  V30 1467 H 135.751 -0.792717 -3.14462 0
M  V30 1468 H 135.536 -2.55864 -2.97113 0
M  V30 1469 H 137.026 -1.90591 -3.71571 0
M  V30 1470 N 137.463 0.71206 -1.40597 0
M  V30 1471 C 138.711 1.46907 -1.38791 0
M  V30 1472 C 139.032 1.94998 0.00780391 0
M  V30 1473 O 138.302 1.70587 0.963174 0
M  V30 1474 H 136.882 0.545043 -0.51082 0
M  V30 1475 H 139.544 0.843882 -1.75683 0
M  V30 1476 H 138.64 2.34021 -2.06496 0
M  V30 1477 N 138.941 1.26152 0.944643 0
M  V30 1478 C 140.352 1.10454 1.50522 0
M  V30 1479 C 140.703 -0.31635 1.93633 0
M  V30 1480 O 139.828 -1.20746 1.79581 0
M  V30 1481 C 140.423 1.99891 2.73549 0
M  V30 1482 C 138.982 1.88348 3.25886 0
M  V30 1483 C 138.129 1.93447 1.9868 0
M  V30 1484 H 141.08 1.39292 0.760489 0
M  V30 1485 H 141.101 1.54477 3.47732 0
M  V30 1486 H 140.613 3.03297 2.42141 0
M  V30 1487 H 138.714 0.878636 3.62092 0
M  V30 1488 H 138.827 2.73696 3.93227 0
M  V30 1489 H 137.191 1.37456 2.14425 0
M  V30 1490 H 137.974 2.98476 1.69607 0
M  V30 1491 N 140.419 -1.14872 1.07899 0
M  V30 1492 C 141.665 -1.86064 0.806725 0
M  V30 1493 C 141.998 -1.82434 -0.665706 0
M  V30 1494 O 141.273 -1.25138 -1.48899 0
M  V30 1495 C 141.556 -3.34929 1.32267 0
M  V30 1496 C 141.409 -3.47161 2.86006 0
M  V30 1497 C 142.728 -4.29863 0.943717 0
M  V30 1498 H 139.847 -0.675591 0.294526 0
M  V30 1499 H 142.489 -1.34925 1.33773 0
M  V30 1500 H 140.639 -3.78611 0.870974 0
M  V30 1501 H 142.311 -3.12302 3.39507 0
M  V30 1502 H 140.554 -2.88539 3.23925 0
M  V30 1503 H 141.225 -4.51777 3.17177 0
M  V30 1504 H 143.701 -3.9417 1.33302 0
M  V30 1505 H 142.577 -5.32494 1.33198 0
M  V30 1506 H 142.838 -4.41846 -0.149796 0
M  V30 1507 N 141.898 -0.863906 -1.31812 0
M  V30 1508 C 143.126 -0.486111 -2.01108 0
M  V30 1509 C 143.541 0.919755 -1.64882 0
M  V30 1510 O 142.898 1.60162 -0.874893 0
M  V30 1511 C 142.949 -0.626435 -3.56031 0
M  V30 1512 O 142.67 -1.97693 -3.90959 0
M  V30 1513 C 144.171 -0.248857 -4.42601 0
M  V30 1514 H 141.391 -0.190052 -0.643523 0
M  V30 1515 H 143.935 -1.1634 -1.68182 0
M  V30 1516 H 142.09 0.00322717 -3.874 0
M  V30 1517 H 142.504 -1.98034 -4.85678 0
M  V30 1518 H 143.978 -0.398016 -5.50563 0
M  V30 1519 H 144.455 0.811489 -4.31638 0
M  V30 1520 H 145.061 -0.853971 -4.16638 0
M  V30 1521 N 143.376 1.44774 -0.622745 0
M  V30 1522 C 144.622 2.02968 -0.13257 0
M  V30 1523 C 144.977 1.48047 1.22881 0
M  V30 1524 O 144.27 0.651625 1.80179 0
M  V30 1525 C 144.464 3.57364 -0.0508323 0
M  V30 1526 C 144.293 4.27262 -1.40275 0
M  V30 1527 C 143.063 4.64577 -1.98737 0
M  V30 1528 C 145.261 4.58248 -2.3348 0
M  V30 1529 N 143.243 5.19404 -3.27251 0
M  V30 1530 C 144.614 5.14069 -3.46603 0
M  V30 1531 C 146.669 4.40195 -2.32664 0
M  V30 1532 C 145.372 5.53738 -4.59093 0
M  V30 1533 C 147.398 4.80907 -3.44213 0
M  V30 1534 C 146.76 5.36834 -4.56058 0
M  V30 1535 H 142.859 0.776541 -0.0922354 0
M  V30 1536 H 145.443 1.76385 -0.82441 0
M  V30 1537 H 143.614 3.83576 0.610265 0
M  V30 1538 H 145.346 4.02219 0.447397 0
M  V30 1539 H 142.101 4.48622 -1.51774 0
M  V30 1540 H 142.525 5.51301 -3.92933 0
M  V30 1541 H 147.167 3.96257 -1.47446 0
M  V30 1542 H 144.885 5.96635 -5.45025 0
M  V30 1543 H 148.471 4.68659 -3.44747 0
M  V30 1544 H 147.351 5.67755 -5.40947 0
M  V30 1545 N 144.854 0.36279 1.53368 0
M  V30 1546 C 146.1 -0.228113 2.01513 0
M  V30 1547 C 146.433 -1.48648 1.2497 0
M  V30 1548 O 145.708 -1.91459 0.342616 0
M  V30 1549 C 145.991 -0.522884 3.56284 0
M  V30 1550 C 145.844 0.74892 4.43521 0
M  V30 1551 C 147.163 -1.32461 4.19693 0
M  V30 1552 H 144.282 -0.0814343 0.732487 0
M  V30 1553 H 146.924 0.48713 1.83649 0
M  V30 1554 H 145.074 -1.1322 3.71636 0
M  V30 1555 H 146.746 1.38648 4.39971 0
M  V30 1556 H 144.989 1.36986 4.11603 0
M  V30 1557 H 145.66 0.497667 5.49752 0
M  V30 1558 H 148.136 -0.809203 4.08156 0
M  V30 1559 H 147.012 -1.49961 5.28018 0
M  V30 1560 H 147.273 -2.33232 3.75573 0
M  V30 1561 N 146.332 -1.57332 0.0918853 0
M  V30 1562 C 147.265 -2.09499 -0.904735 0
M  V30 1563 C 148.243 -1.00479 -1.27839 0
M  V30 1564 O 149.427 -1.27954 -1.38419 0
M  V30 1565 C 146.554 -2.56931 -2.2069 0
M  V30 1566 C 145.6 -3.77579 -1.98334 0
M  V30 1567 S 146.433 -5.21317 -1.22428 0
M  V30 1568 C 147.589 -5.72097 -2.53882 0
M  V30 1569 H 147.822 -2.93705 -0.460922 0
M  V30 1570 H 145.355 -1.53923 -0.121332 0
M  V30 1571 H 147.313 -2.84917 -2.95521 0
M  V30 1572 H 145.974 -1.72956 -2.62192 0
M  V30 1573 H 145.167 -4.08824 -2.94752 0
M  V30 1574 H 144.769 -3.5007 -1.31633 0
M  V30 1575 H 147.061 -5.80168 -3.49874 0
M  V30 1576 H 148.004 -6.70654 -2.27219 0
M  V30 1577 H 148.412 -5.00012 -2.62007 0
M  V30 1578 N 147.81 0.181792 -1.56548 0
M  V30 1579 C 148.743 1.25366 -1.90679 0
M  V30 1580 C 149.721 1.43299 -0.768376 0
M  V30 1581 O 150.905 1.58475 -1.02068 0
M  V30 1582 C 148.032 2.61826 -2.1486 0
M  V30 1583 C 147.078 2.60688 -3.37556 0
M  V30 1584 S 147.911 2.10804 -4.92262 0
M  V30 1585 C 149.067 3.49062 -5.19525 0
M  V30 1586 H 149.3 0.962277 -2.81296 0
M  V30 1587 H 146.833 0.385892 -1.495 0
M  V30 1588 H 148.791 3.40371 -2.29473 0
M  V30 1589 H 147.452 2.88169 -1.24969 0
M  V30 1590 H 146.645 3.61058 -3.51643 0
M  V30 1591 H 146.247 1.90232 -3.22006 0
M  V30 1592 H 148.539 4.45003 -5.10861 0
M  V30 1593 H 149.482 3.39859 -6.2121 0
M  V30 1594 H 149.89 3.4459 -4.47122 0
M  V30 1595 N 149.288 1.51039 0.449983 0
M  V30 1596 C 150.537 1.62317 1.19733 0
M  V30 1597 C 150.85 0.339101 1.92638 0
M  V30 1598 O 152.056 0.331069 2.69474 0
M  V30 1599 C 150.512 2.86608 2.17678 0
M  V30 1600 C 150.12 4.21972 1.50479 0
M  V30 1601 C 151.864 3.07239 2.92924 0
M  V30 1602 C 149.771 5.37426 2.46834 0
M  V30 1603 H 148.701 0.604532 0.450619 0
M  V30 1604 H 151.352 1.77494 0.465625 0
M  V30 1605 H 149.734 2.65037 2.94231 0
M  V30 1606 H 150.908 4.53878 0.795716 0
M  V30 1607 H 149.223 4.07117 0.874344 0
M  V30 1608 H 151.82 3.90668 3.65079 0
M  V30 1609 H 152.163 2.19807 3.5354 0
M  V30 1610 H 152.696 3.29091 2.23481 0
M  V30 1611 H 149.435 6.27079 1.90926 0
M  V30 1612 H 148.955 5.09912 3.15832 0
M  V30 1613 H 150.634 5.68862 3.08228 0
M  V30 1614 N 150.766 -0.704594 1.40972 0
M  V30 1615 C 151.729 -1.80035 1.41845 0
M  V30 1616 C 152.729 -1.57774 0.310474 0
M  V30 1617 O 153.919 -1.64613 0.56992 0
M  V30 1618 C 151.051 -3.18284 1.22098 0
M  V30 1619 H 152.244 -1.80658 2.3938 0
M  V30 1620 H 149.797 -0.911329 1.26982 0
M  V30 1621 H 150.532 -3.23306 0.253672 0
M  V30 1622 H 150.317 -3.35843 2.02366 0
M  V30 1623 H 151.807 -3.98289 1.25522 0
M  V30 1624 N 152.244 -1.26651 -0.937939 0
M  V30 1625 C 153.484 -1.13611 -1.69917 0
M  V30 1626 C 153.848 0.314687 -1.89404 0
M  V30 1627 O 155.049 0.567285 -2.62746 0
M  V30 1628 C 153.32 -1.88742 -3.03498 0
M  V30 1629 S 154.879 -1.91794 -3.94665 0
M  V30 1630 H 151.697 -0.405767 -0.583844 0
M  V30 1631 H 154.299 -1.60416 -1.11745 0
M  V30 1632 H 153.003 -2.9336 -2.86999 0
M  V30 1633 H 152.534 -1.42391 -3.66727 0
M  V30 1634 H 154.549 -1.00698 -4.85875 0
M  V30 1635 N 153.722 1.14298 -1.08507 0
M  V30 1636 C 154.968 1.85633 -0.816581 0
M  V30 1637 C 155.301 1.82784 0.656021 0
M  V30 1638 O 154.576 1.25926 1.48233 0
M  V30 1639 C 154.859 3.34223 -1.34041 0
M  V30 1640 C 154.712 3.45639 -2.87843 0
M  V30 1641 C 156.031 4.29356 -0.9665 0
M  V30 1642 H 153.15 0.67402 -0.298104 0
M  V30 1643 H 155.792 1.34214 -1.34487 0
M  V30 1644 H 153.942 3.78144 -0.89104 0
M  V30 1645 H 155.614 3.10498 -3.41158 0
M  V30 1646 H 153.857 2.86817 -3.25451 0
M  V30 1647 H 154.528 4.50089 -3.19569 0
M  V30 1648 H 157.004 3.93457 -1.35391 0
M  V30 1649 H 155.88 5.3178 -1.3602 0
M  V30 1650 H 156.141 4.41919 0.126362 0
M  V30 1651 N 155.201 0.870884 1.31352 0
M  V30 1652 C 156.447 0.482987 1.96965 0
M  V30 1653 C 156.78 -0.962462 1.68672 0
M  V30 1654 O 156.055 -1.6779 0.98371 0
M  V30 1655 C 156.338 0.741752 3.52378 0
M  V30 1656 C 156.191 2.2368 3.9024 0
M  V30 1657 C 157.51 0.208838 4.39604 0
M  V30 1658 H 154.629 0.176955 0.715441 0
M  V30 1659 H 157.271 1.09229 1.55464 0
M  V30 1660 H 155.421 0.223149 3.87859 0
M  V30 1661 H 157.093 2.82273 3.64856 0
M  V30 1662 H 155.336 2.70901 3.38814 0
M  V30 1663 H 156.007 2.3685 4.98604 0
M  V30 1664 H 158.483 0.652529 4.10952 0
M  V30 1665 H 157.359 0.419336 5.47296 0
M  V30 1666 H 157.62 -0.889275 4.33064 0
M  V30 1667 N 156.679 -1.44442 0.630414 0
M  V30 1668 C 157.925 -2.02351 0.134816 0
M  V30 1669 C 158.258 -1.4947 -1.23986 0
M  V30 1670 O 157.533 -0.678475 -1.82283 0
M  V30 1671 C 157.816 -3.59898 0.120707 0
M  V30 1672 C 157.669 -4.23063 1.52767 0
M  V30 1673 C 158.988 -4.36585 -0.555127 0
M  V30 1674 H 156.107 -0.73527 0.0504646 0
M  V30 1675 H 158.749 -1.72022 0.806751 0
M  V30 1676 H 156.899 -3.85868 -0.451477 0
M  V30 1677 H 158.571 -4.08202 2.14869 0
M  V30 1678 H 156.814 -3.80586 2.08175 0
M  V30 1679 H 157.485 -5.32071 1.46984 0
M  V30 1680 H 159.961 -4.16044 -0.0685429 0
M  V30 1681 H 158.837 -5.46294 -0.534185 0
M  V30 1682 H 159.098 -4.11138 -1.62535 0
M  V30 1683 N 158.157 -0.370918 -1.53173 0
M  V30 1684 C 159.404 0.217102 -2.01333 0
M  V30 1685 C 159.732 1.48338 -1.25802 0
M  V30 1686 O 158.987 1.92698 -0.34146 0
M  V30 1687 C 159.286 0.549696 -3.53147 0
M  V30 1688 C 158.952 -0.622872 -4.46577 0
M  V30 1689 C 157.614 -0.944595 -4.71838 0
M  V30 1690 C 159.966 -1.40819 -5.01816 0
M  V30 1691 C 157.294 -2.05351 -5.49589 0
M  V30 1692 C 159.646 -2.50757 -5.80778 0
M  V30 1693 C 158.31 -2.83458 -6.04324 0
M  V30 1694 H 157.58 0.0794431 -0.736729 0
M  V30 1695 H 160.227 -0.504481 -1.84736 0
M  V30 1696 H 158.532 1.35237 -3.6772 0
M  V30 1697 H 160.229 1.017 -3.87889 0
M  V30 1698 H 156.819 -0.36209 -4.27068 0
M  V30 1699 H 161.003 -1.17289 -4.82242 0
M  V30 1700 H 156.259 -2.3108 -5.6605 0
M  V30 1701 H 160.433 -3.12022 -6.22588 0
M  V30 1702 H 158.06 -3.69508 -6.64355 0
M  V30 1703 N 159.635 1.57281 -0.100228 0
M  V30 1704 C 160.884 1.93713 0.561984 0
M  V30 1705 C 161.197 0.984492 1.69018 0
M  V30 1706 O 162.403 1.24273 2.41389 0
M  V30 1707 C 160.859 3.4421 1.05106 0
M  V30 1708 C 160.467 4.47975 -0.0476628 0
M  V30 1709 C 162.211 3.89595 1.68571 0
M  V30 1710 C 160.118 5.89631 0.457055 0
M  V30 1711 H 159.048 0.723082 0.2137 0
M  V30 1712 H 161.699 1.82644 -0.177057 0
M  V30 1713 H 160.081 3.50449 1.84395 0
M  V30 1714 H 161.255 4.53385 -0.823333 0
M  V30 1715 H 159.57 4.1223 -0.587816 0
M  V30 1716 H 162.167 4.92832 2.07414 0
M  V30 1717 H 162.51 3.28526 2.55688 0
M  V30 1718 H 163.043 3.86078 0.958562 0
M  V30 1719 H 159.782 6.54411 -0.377616 0
M  V30 1720 H 159.302 5.87681 1.19962 0
M  V30 1721 H 160.981 6.40363 0.92437 0
M  V30 1722 N 161.113 -0.173488 1.56642 0
M  V30 1723 C 162.076 -1.19859 1.95362 0
M  V30 1724 C 163.076 -1.37296 0.83704 0
M  V30 1725 O 164.266 -1.34739 1.10413 0
M  V30 1726 C 161.398 -2.56405 2.24654 0
M  V30 1727 H 162.591 -0.867062 2.87092 0
M  V30 1728 H 160.144 -0.415853 1.50666 0
M  V30 1729 H 160.879 -2.94576 1.35631 0
M  V30 1730 H 160.664 -2.45115 3.06041 0
M  V30 1731 H 162.154 -3.30287 2.5554 0
M  V30 1732 N 162.591 -1.51276 -0.441967 0
M  V30 1733 C 163.524 -1.66933 -1.55591 0
M  V30 1734 C 164.502 -0.516958 -1.54163 0
M  V30 1735 O 165.686 -0.740209 -1.73358 0
M  V30 1736 C 162.813 -1.67866 -2.94174 0
M  V30 1737 C 161.859 -2.89013 -3.13646 0
M  V30 1738 S 162.692 -4.49897 -2.90436 0
M  V30 1739 C 163.848 -4.53568 -4.31308 0
M  V30 1740 H 164.081 -2.61155 -1.42076 0
M  V30 1741 H 161.614 -1.40902 -0.631341 0
M  V30 1742 H 163.572 -1.69089 -3.74058 0
M  V30 1743 H 162.233 -0.748296 -3.05056 0
M  V30 1744 H 161.426 -2.86054 -4.14957 0
M  V30 1745 H 161.028 -2.85509 -2.4158 0
M  V30 1746 H 163.32 -4.28924 -5.24434 0
M  V30 1747 H 164.263 -5.55355 -4.39303 0
M  V30 1748 H 164.671 -3.82943 -4.14747 0
M  V30 1749 N 164.069 0.697108 -1.41344 0
M  V30 1750 C 165.001 1.8224 -1.39001 0
M  V30 1751 C 166.014 1.60152 -0.292428 0
M  V30 1752 O 167.203 1.69684 -0.554048 0
M  V30 1753 C 164.303 3.18976 -1.14489 0
M  V30 1754 C 163.476 3.68105 -2.36258 0
M  V30 1755 C 162.535 4.83506 -2.07625 0
M  V30 1756 O 161.561 4.95201 -2.8065 0
M  V30 1757 N 162.763 5.70637 -1.06555 0
M  V30 1758 H 165.528 1.84742 -2.35988 0
M  V30 1759 H 163.089 0.87937 -1.35936 0
M  V30 1760 H 165.081 3.93801 -0.932885 0
M  V30 1761 H 163.651 3.11508 -0.261043 0
M  V30 1762 H 162.871 2.84204 -2.7317 0
M  V30 1763 H 164.159 3.97667 -3.17393 0
M  V30 1764 H 163.557 5.63817 -0.461125 0
M  V30 1765 H 162.114 6.45368 -0.913444 0
M  V30 1766 N 165.547 1.27147 0.931209 0
M  V30 1767 C 166.796 1.12664 1.67302 0
M  V30 1768 C 167.109 -0.327718 1.92835 0
M  V30 1769 O 168.315 -0.593392 2.64936 0
M  V30 1770 C 166.771 1.9683 3.01307 0
M  V30 1771 C 166.379 3.46901 2.83485 0
M  V30 1772 C 168.123 1.90985 3.79111 0
M  V30 1773 C 166.03 4.23279 4.13024 0
M  V30 1774 H 164.96 0.41803 0.627509 0
M  V30 1775 H 167.611 1.51539 1.03481 0
M  V30 1776 H 165.993 1.50797 3.66164 0
M  V30 1777 H 167.167 4.00773 2.27415 0
M  V30 1778 H 165.482 3.54088 2.19113 0
M  V30 1779 H 168.079 2.45328 4.75098 0
M  V30 1780 H 168.422 0.882718 4.06834 0
M  V30 1781 H 168.955 2.34895 3.21044 0
M  V30 1782 H 165.694 5.26503 3.90481 0
M  V30 1783 H 165.214 3.74186 4.6877 0
M  V30 1784 H 166.893 4.32265 4.81411 0
M  V30 1785 N 167.025 -1.13721 1.09112 0
M  V30 1786 C 167.955 -2.21148 0.749385 0
M  V30 1787 C 168.936 -1.6792 -0.271475 0
M  V30 1788 O 170.121 -1.93693 -0.140251 0
M  V30 1789 C 167.251 -3.46905 0.165659 0
M  V30 1790 C 166.205 -4.13203 1.11567 0
M  V30 1791 C 165.531 -5.33248 0.393809 0
M  V30 1792 C 166.831 -4.60912 2.45678 0
M  V30 1793 H 168.525 -2.4999 1.64758 0
M  V30 1794 H 166.071 -1.20156 0.793626 0
M  V30 1795 H 168.024 -4.21313 -0.085466 0
M  V30 1796 H 166.748 -3.17449 -0.767714 0
M  V30 1797 H 165.407 -3.40758 1.35202 0
M  V30 1798 H 165.055 -5.00054 -0.543599 0
M  V30 1799 H 164.755 -5.78552 1.02721 0
M  V30 1800 H 166.279 -6.10413 0.150908 0
M  V30 1801 H 167.693 -5.26759 2.26269 0
M  V30 1802 H 166.09 -5.16944 3.04776 0
M  V30 1803 H 167.16 -3.75603 3.06677 0
M  V30 1804 N 168.503 -0.877838 -1.30888 0
M  V30 1805 C 169.751 -0.491723 -1.96027 0
M  V30 1806 C 170.072 0.960827 -1.69685 0
M  V30 1807 O 169.342 1.67462 -1.01654 0
M  V30 1808 H 167.922 -0.17885 -0.725273 0
M  V30 1809 H 170.584 -1.11935 -1.59551 0
M  V30 1810 H 169.68 -0.656016 -3.05128 0
M  V30 1811 N 169.982 1.44106 -0.638065 0
M  V30 1812 C 171.259 1.95453 -0.0759321 0
M  V30 1813 C 171.639 1.57984 1.40015 0
M  V30 1814 O 170.987 0.857361 2.11806 0
M  V30 1815 C 171.197 3.47655 -0.306132 0
M  V30 1816 C 172.545 4.24114 -0.203008 0
M  V30 1817 O 173.569 3.55405 -0.237871 0
M  V30 1818 O 172.428 5.46381 -0.113827 0
M  V30 1819 H 169.522 0.826797 0.0183332 0
M  V30 1820 H 172.068 1.54122 -0.710251 0
M  V30 1821 H 170.84 3.68 -1.3301 0
M  V30 1822 H 170.463 3.95949 0.361991 0
M  V30 1823 N 171.46 0.379036 1.52974 0
M  V30 1824 C 172.392 -0.495963 2.2377 0
M  V30 1825 C 173.405 -1.03517 1.25651 0
M  V30 1826 O 174.594 -0.939249 1.51791 0
M  V30 1827 C 171.694 -1.69894 2.93239 0
M  V30 1828 C 170.867 -1.2889 4.17979 0
M  V30 1829 C 169.926 -2.35543 4.70538 0
M  V30 1830 O 168.952 -1.97375 5.33883 0
M  V30 1831 N 170.154 -3.67318 4.49508 0
M  V30 1832 H 172.919 0.110523 2.99496 0
M  V30 1833 H 170.48 0.204878 1.60598 0
M  V30 1834 H 172.472 -2.40747 3.25304 0
M  V30 1835 H 171.042 -2.212 2.20883 0
M  V30 1836 H 170.262 -0.409676 3.92065 0
M  V30 1837 H 171.55 -0.991443 4.99047 0
M  V30 1838 H 170.948 -4.01095 3.98923 0
M  V30 1839 H 169.505 -4.34235 4.8609 0
M  V30 1840 N 172.938 -1.57226 0.108567 0
M  V30 1841 C 173.848 -2.18292 -0.859401 0
M  V30 1842 C 174.864 -1.15612 -1.30038 0
M  V30 1843 O 176.04 -1.48039 -1.36552 0
M  V30 1844 C 173.105 -2.762 -2.09558 0
M  V30 1845 C 172.166 -3.93881 -1.70752 0
M  V30 1846 C 171.399 -4.49018 -2.88477 0
M  V30 1847 O 171.622 -4.03068 -4.036 0
M  V30 1848 O 170.556 -5.39852 -2.66164 0
M  V30 1849 H 174.382 -3.01441 -0.369769 0
M  V30 1850 H 171.967 -1.48945 -0.1165 0
M  V30 1851 H 173.849 -3.13156 -2.81978 0
M  V30 1852 H 172.524 -1.96089 -2.57548 0
M  V30 1853 H 171.431 -3.61713 -0.954714 0
M  V30 1854 H 172.764 -4.75396 -1.27513 0
M  V30 1855 N 174.416 0.165178 -1.56732 0
M  V30 1856 C 175.662 0.882112 -1.82611 0
M  V30 1857 C 175.995 1.81628 -0.687378 0
M  V30 1858 O 175.27 1.92009 0.310267 0
M  V30 1859 C 175.553 1.67245 -3.18906 0
M  V30 1860 C 175.406 0.760987 -4.43316 0
M  V30 1861 C 176.725 2.63884 -3.52212 0
M  V30 1862 H 173.844 0.319242 -0.664269 0
M  V30 1863 H 176.486 0.148052 -1.89422 0
M  V30 1864 H 174.636 2.29824 -3.1323 0
M  V30 1865 H 176.308 0.147596 -4.61064 0
M  V30 1866 H 174.551 0.0694102 -4.33744 0
M  V30 1867 H 175.222 1.34962 -5.35247 0
M  V30 1868 H 177.698 2.11429 -3.58381 0
M  V30 1869 H 176.574 3.16245 -4.48643 0
M  V30 1870 H 176.835 3.44377 -2.77231 0
M  V30 1871 N 175.894 1.51508 0.433938 0
M  V30 1872 C 176.827 1.67756 1.54704 0
M  V30 1873 C 177.805 0.525127 1.53887 0
M  V30 1874 O 178.989 0.749393 1.72963 0
M  V30 1875 C 176.116 1.69424 2.9328 0
M  V30 1876 C 175.162 2.90673 3.12108 0
M  V30 1877 S 175.995 4.51431 2.88046 0
M  V30 1878 C 177.151 4.55849 4.28897 0
M  V30 1879 H 177.384 2.61904 1.40689 0
M  V30 1880 H 174.917 1.41235 0.62386 0
M  V30 1881 H 176.875 1.7107 3.73156 0
M  V30 1882 H 175.536 0.764464 3.04655 0
M  V30 1883 H 174.729 2.88251 4.13434 0
M  V30 1884 H 174.331 2.86786 2.40062 0
M  V30 1885 H 176.623 4.31699 5.22152 0
M  V30 1886 H 177.566 5.57676 4.36351 0
M  V30 1887 H 177.974 3.85137 4.12711 0
M  V30 1888 N 177.372 -0.689602 1.41712 0
M  V30 1889 C 178.302 -1.81577 1.46806 0
M  V30 1890 C 179.283 -1.66945 0.326105 0
M  V30 1891 O 180.468 -1.86588 0.538377 0
M  V30 1892 C 177.598 -3.19762 1.35535 0
M  V30 1893 C 176.552 -3.49107 2.47605 0
M  V30 1894 C 175.878 -4.86711 2.21397 0
M  V30 1895 C 177.178 -3.47483 3.89939 0
M  V30 1896 H 178.872 -1.7757 2.41058 0
M  V30 1897 H 176.418 -0.852887 1.16025 0
M  V30 1898 H 178.371 -3.98263 1.3771 0
M  V30 1899 H 177.095 -3.24409 0.377708 0
M  V30 1900 H 175.754 -2.72959 2.44722 0
M  V30 1901 H 175.402 -4.8799 1.21961 0
M  V30 1902 H 175.102 -5.0731 2.96497 0
M  V30 1903 H 176.626 -5.67515 2.25297 0
M  V30 1904 H 178.04 -4.1598 3.94505 0
M  V30 1905 H 176.437 -3.79615 4.64771 0
M  V30 1906 H 177.507 -2.46341 4.17665 0
M  V30 1907 N 178.85 -1.27639 -0.924453 0
M  V30 1908 C 180.096 -1.15345 -1.67532 0
M  V30 1909 C 180.451 0.297096 -1.90092 0
M  V30 1910 O 179.744 1.21374 -1.48253 0
M  V30 1911 C 179.938 -1.87407 -3.04325 0
M  V30 1912 C 179.767 -3.3932 -2.95114 0
M  V30 1913 C 178.537 -4.08644 -2.97218 0
M  V30 1914 C 180.735 -4.35242 -2.73987 0
M  V30 1915 N 178.717 -5.47102 -2.78482 0
M  V30 1916 C 180.088 -5.6099 -2.63988 0
M  V30 1917 C 182.143 -4.25294 -2.589 0
M  V30 1918 C 180.846 -6.77924 -2.40442 0
M  V30 1919 C 182.872 -5.41952 -2.36731 0
M  V30 1920 C 182.234 -6.66658 -2.27478 0
M  V30 1921 H 178.333 -0.47696 -0.619704 0
M  V30 1922 H 180.917 -1.6115 -1.09265 0
M  V30 1923 H 179.088 -1.44053 -3.60699 0
M  V30 1924 H 180.82 -1.6759 -3.68369 0
M  V30 1925 H 177.575 -3.60136 -3.07569 0
M  V30 1926 H 177.999 -6.19852 -2.72236 0
M  V30 1927 H 182.641 -3.29598 -2.64811 0
M  V30 1928 H 180.359 -7.73699 -2.3327 0
M  V30 1929 H 183.945 -5.36137 -2.25938 0
M  V30 1930 H 182.825 -7.55405 -2.10555 0
M  V30 1931 N 180.328 1.1314 -1.09713 0
M  V30 1932 C 181.258 2.20748 -0.761102 0
M  V30 1933 C 182.239 1.68061 0.262566 0
M  V30 1934 O 183.424 1.93765 0.129977 0
M  V30 1935 C 180.554 3.46812 -0.184054 0
M  V30 1936 C 179.508 4.12606 -1.13757 0
M  V30 1937 C 178.834 5.33031 -0.422083 0
M  V30 1938 C 180.134 4.59603 -2.48118 0
M  V30 1939 H 181.828 2.49113 -1.66082 0
M  V30 1940 H 179.374 1.19734 -0.799987 0
M  V30 1941 H 181.327 4.21353 0.0631215 0
M  V30 1942 H 180.051 3.17851 0.750868 0
M  V30 1943 H 178.71 3.40036 -1.37007 0
M  V30 1944 H 178.358 5.00335 0.517072 0
M  V30 1945 H 178.058 5.77999 -1.05788 0
M  V30 1946 H 179.582 6.10325 -0.183277 0
M  V30 1947 H 180.996 5.25552 -2.29059 0
M  V30 1948 H 179.393 5.15321 -3.07514 0
M  V30 1949 H 180.463 3.73971 -3.08665 0
M  V30 1950 N 181.806 0.884767 1.30421 0
M  V30 1951 C 182.769 0.356277 2.26414 0
M  V30 1952 C 183.769 -0.501124 1.52792 0
M  V30 1953 O 184.959 -0.30831 1.7145 0
M  V30 1954 C 182.091 -0.492316 3.37326 0
M  V30 1955 H 183.284 1.20389 2.74675 0
M  V30 1956 H 180.837 0.661607 1.41607 0
M  V30 1957 H 181.572 -1.36052 2.94381 0
M  V30 1958 H 181.357 0.121832 3.91911 0
M  V30 1959 H 182.847 -0.853871 4.08777 0
M  V30 1960 N 183.284 -1.43765 0.645699 0
M  V30 1961 C 184.53 -2.02731 0.164844 0
M  V30 1962 C 184.885 -1.49983 -1.2051 0
M  V30 1963 O 184.178 -0.680208 -1.79119 0
M  V30 1964 C 184.372 -3.57238 0.107679 0
M  V30 1965 C 184.201 -4.24977 1.47054 0
M  V30 1966 C 182.971 -4.61356 2.06103 0
M  V30 1967 C 185.169 -4.54476 2.40741 0
M  V30 1968 N 183.151 -5.14132 3.35473 0
M  V30 1969 C 184.522 -5.08489 3.54737 0
M  V30 1970 C 186.577 -4.36438 2.39637 0
M  V30 1971 C 185.28 -5.46364 4.67845 0
M  V30 1972 C 187.306 -4.7537 3.5182 0
M  V30 1973 C 186.668 -5.2951 4.64541 0
M  V30 1974 H 182.767 -0.774976 0.104578 0
M  V30 1975 H 185.351 -1.75051 0.852367 0
M  V30 1976 H 183.522 -3.84498 -0.549165 0
M  V30 1977 H 185.254 -4.0288 -0.383351 0
M  V30 1978 H 182.009 -4.46151 1.58892 0
M  V30 1979 H 182.433 -5.4498 4.01654 0
M  V30 1980 H 187.075 -3.93861 1.53731 0
M  V30 1981 H 184.793 -5.87888 5.54448 0
M  V30 1982 H 188.379 -4.63115 3.52159 0
M  V30 1983 H 187.259 -5.59077 5.49911 0
M  V30 1984 N 184.763 -0.387143 -1.52771 0
M  V30 1985 C 186.174 0.0873634 -1.86495 0
M  V30 1986 C 186.525 1.46336 -1.30691 0
M  V30 1987 O 185.65 2.068 -0.637409 0
M  V30 1988 C 186.245 0.165305 -3.38396 0
M  V30 1989 C 184.804 0.584101 -3.7184 0
M  V30 1990 C 183.951 -0.255279 -2.76122 0
M  V30 1991 H 186.902 -0.605104 -1.46711 0
M  V30 1992 H 186.923 0.984848 -3.67534 0
M  V30 1993 H 186.435 -0.836301 -3.78982 0
M  V30 1994 H 184.536 1.59315 -3.36823 0
M  V30 1995 H 184.649 0.343749 -4.77865 0
M  V30 1996 H 183.013 0.279126 -2.53166 0
M  V30 1997 H 183.796 -1.25482 -3.19545 0
M  V30 1998 N 186.241 1.57166 -0.116904 0
M  V30 1999 C 187.488 1.95123 0.541603 0
M  V30 2000 C 187.816 1.00006 1.6682 0
M  V30 2001 O 187.071 0.0235658 1.95686 0
M  V30 2002 C 187.37 3.39508 1.11664 0
M  V30 2003 C 187.036 4.50762 0.111606 0
M  V30 2004 C 185.698 4.80918 -0.164758 0
M  V30 2005 C 188.05 5.18036 -0.573438 0
M  V30 2006 C 185.378 5.75666 -1.13249 0
M  V30 2007 C 187.73 6.13824 -1.52978 0
M  V30 2008 C 186.394 6.42374 -1.81415 0
M  V30 2009 H 185.664 0.714005 0.198187 0
M  V30 2010 H 188.311 1.9048 -0.197365 0
M  V30 2011 H 186.616 3.40835 1.93232 0
M  V30 2012 H 188.313 3.66189 1.63422 0
M  V30 2013 H 184.903 4.27272 0.337192 0
M  V30 2014 H 189.087 4.94896 -0.373092 0
M  V30 2015 H 184.343 5.96092 -1.35958 0
M  V30 2016 H 188.517 6.65039 -2.06629 0
M  V30 2017 H 186.144 7.15599 -2.56557 0
M  V30 2018 N 187.719 -0.156864 1.56817 0
M  V30 2019 C 188.996 -0.899244 1.73704 0
M  V30 2020 C 189.376 -1.99771 0.682254 0
M  V30 2021 O 188.724 -2.26515 -0.300522 0
M  V30 2022 C 188.934 -1.45075 3.17418 0
M  V30 2023 C 190.282 -1.91802 3.7881 0
M  V30 2024 O 191.306 -1.54838 3.20786 0
M  V30 2025 O 190.165 -2.5994 4.80722 0
M  V30 2026 H 187.259 -0.424267 0.709878 0
M  V30 2027 H 189.805 -0.143561 1.69092 0
M  V30 2028 H 188.577 -0.660846 3.85679 0
M  V30 2029 H 188.2 -2.27021 3.26416 0
M  V30 2030 N 189.197 -1.51736 -0.425897 0
M  V30 2031 C 190.608 -1.5732 -1.00536 0
M  V30 2032 C 190.959 -0.403537 -1.92005 0
M  V30 2033 O 190.084 0.478256 -2.11049 0
M  V30 2034 C 190.679 -2.85119 -1.8301 0
M  V30 2035 C 189.238 -2.93236 -2.35987 0
M  V30 2036 C 188.385 -2.52098 -1.15508 0
M  V30 2037 H 191.336 -1.57348 -0.206739 0
M  V30 2038 H 191.357 -2.69526 -2.68581 0
M  V30 2039 H 190.869 -3.7023 -1.16411 0
M  V30 2040 H 188.97 -2.12581 -3.06007 0
M  V30 2041 H 189.083 -3.9713 -2.68001 0
M  V30 2042 H 187.447 -2.05558 -1.50393 0
M  V30 2043 H 188.23 -3.39565 -0.505014 0
M  V30 2044 N 190.675 0.682077 -1.42076 0
M  V30 2045 C 191.903 1.47057 -1.4554 0
M  V30 2046 C 192.318 1.8869 -0.0645779 0
M  V30 2047 O 191.675 1.57666 0.919115 0
M  V30 2048 C 191.726 2.72442 -2.37609 0
M  V30 2049 O 191.447 2.32559 -3.71279 0
M  V30 2050 C 192.948 3.66069 -2.50017 0
M  V30 2051 H 190.168 0.452737 -0.495248 0
M  V30 2052 H 192.712 0.838695 -1.8651 0
M  V30 2053 H 190.867 3.31835 -1.9991 0
M  V30 2054 H 191.281 3.13475 -4.20516 0
M  V30 2055 H 192.755 4.50792 -3.18576 0
M  V30 2056 H 193.232 4.11476 -1.53572 0
M  V30 2057 H 193.838 3.12572 -2.88407 0
M  V30 2058 N 192.153 1.28127 0.917671 0
M  V30 2059 C 193.083 1.14248 2.03641 0
M  V30 2060 C 194.064 0.0412748 1.7005 0
M  V30 2061 O 195.249 0.217566 1.92977 0
M  V30 2062 C 192.379 0.799431 3.37974 0
M  V30 2063 C 191.333 1.85497 3.85713 0
M  V30 2064 C 190.659 1.36565 5.16966 0
M  V30 2065 C 191.959 3.26085 4.08002 0
M  V30 2066 H 193.653 2.07835 2.15511 0
M  V30 2067 H 191.199 1.00064 1.03553 0
M  V30 2068 H 193.152 0.689114 4.15727 0
M  V30 2069 H 191.876 -0.172145 3.26146 0
M  V30 2070 H 190.535 1.95437 3.10161 0
M  V30 2071 H 190.183 0.383253 5.01538 0
M  V30 2072 H 189.883 2.07143 5.49878 0
M  V30 2073 H 191.407 1.26848 5.97279 0
M  V30 2074 H 192.821 3.19089 4.76293 0
M  V30 2075 H 191.218 3.94462 4.52238 0
M  V30 2076 H 192.288 3.70394 3.12948 0
M  V30 2077 N 193.631 -1.12557 1.10312 0
M  V30 2078 C 194.578 -2.18247 0.750781 0
M  V30 2079 C 195.548 -1.63853 -0.272293 0
M  V30 2080 O 196.733 -1.90195 -0.151862 0
M  V30 2081 C 193.873 -3.44591 0.187379 0
M  V30 2082 C 192.986 -4.13046 1.2656 0
M  V30 2083 C 192.121 -5.27034 0.663978 0
M  V30 2084 C 191.16 -5.87353 1.72287 0
M  V30 2085 N 190.297 -6.92757 1.1416 0
M  V30 2086 H 195.137 -2.47732 1.65628 0
M  V30 2087 H 192.674 -1.21629 0.827337 0
M  V30 2088 H 194.632 -4.16904 -0.157148 0
M  V30 2089 H 193.262 -3.15527 -0.681355 0
M  V30 2090 H 192.314 -3.38924 1.72727 0
M  V30 2091 H 193.626 -4.53947 2.06721 0
M  V30 2092 H 192.78 -6.06104 0.268824 0
M  V30 2093 H 191.519 -4.87407 -0.169082 0
M  V30 2094 H 190.524 -5.06971 2.12746 0
M  V30 2095 H 191.749 -6.29051 2.55875 0
M  V30 2096 H 189.695 -6.5517 0.329984 0
M  V30 2097 H 189.612 -7.3225 1.88007 0
M  V30 2098 H 190.88 -7.75658 0.772956 0
M  V30 2099 N 195.109 -0.891671 -1.2995 0
M  V30 2100 C 196.356 -0.513501 -1.95881 0
M  V30 2101 C 196.684 0.938655 -1.70351 0
M  V30 2102 O 195.939 1.67936 -1.00478 0
M  V30 2103 C 196.238 -0.742868 -3.49594 0
M  V30 2104 C 195.904 -2.17114 -3.95186 0
M  V30 2105 C 194.566 -2.56169 -4.07346 0
M  V30 2106 C 196.918 -3.10162 -4.18866 0
M  V30 2107 C 194.246 -3.87469 -4.4055 0
M  V30 2108 C 196.598 -4.41001 -4.53542 0
M  V30 2109 C 195.262 -4.79941 -4.63911 0
M  V30 2110 H 194.532 -0.187903 -0.71678 0
M  V30 2111 H 197.179 -1.1288 -1.54694 0
M  V30 2112 H 195.484 -0.044586 -3.91775 0
M  V30 2113 H 197.181 -0.429767 -3.9869 0
M  V30 2114 H 193.771 -1.85801 -3.86233 0
M  V30 2115 H 197.955 -2.81206 -4.08946 0
M  V30 2116 H 193.211 -4.17371 -4.46779 0
M  V30 2117 H 197.385 -5.13133 -4.70815 0
M  V30 2118 H 195.012 -5.81719 -4.89395 0
M  V30 2119 N 196.587 1.43421 -0.653314 0
M  V30 2120 C 197.497 2.34568 0.0388565 0
M  V30 2121 C 198.513 1.53888 0.81207 0
M  V30 2122 O 199.689 1.86539 0.759294 0
M  V30 2123 C 196.754 3.32167 0.993269 0
M  V30 2124 C 195.815 4.28751 0.216977 0
M  V30 2125 C 195.048 5.21688 1.12593 0
M  V30 2126 O 195.271 5.19052 2.36519 0
M  V30 2127 O 194.205 5.98919 0.598284 0
M  V30 2128 H 198.031 2.95251 -0.711386 0
M  V30 2129 H 195.616 1.43564 -0.413502 0
M  V30 2130 H 197.498 3.92183 1.54176 0
M  V30 2131 H 196.173 2.73987 1.72374 0
M  V30 2132 H 195.08 3.72215 -0.375101 0
M  V30 2133 H 196.413 4.89913 -0.473924 0
M  V30 2134 N 198.065 0.39524 1.52563 0
M  V30 2135 C 199.312 -0.185044 2.01653 0
M  V30 2136 C 199.64 -1.46317 1.28146 0
M  V30 2137 O 198.895 -1.9213 0.372074 0
M  V30 2138 C 199.194 -0.493444 3.53977 0
M  V30 2139 C 198.86 0.69384 4.4553 0
M  V30 2140 C 197.522 1.01954 4.70275 0
M  V30 2141 C 199.874 1.48785 4.99512 0
M  V30 2142 C 197.202 2.14069 5.46252 0
M  V30 2143 C 199.554 2.59965 5.76716 0
M  V30 2144 C 198.218 2.93037 5.99738 0
M  V30 2145 H 197.488 -0.0677123 0.7379 0
M  V30 2146 H 200.135 0.533807 1.8391 0
M  V30 2147 H 198.44 -1.29369 3.69825 0
M  V30 2148 H 200.137 -0.955163 3.89458 0
M  V30 2149 H 196.727 0.429987 4.26438 0
M  V30 2150 H 200.911 1.24946 4.80315 0
M  V30 2151 H 196.167 2.40056 5.62302 0
M  V30 2152 H 200.341 3.21887 6.17545 0
M  V30 2153 H 197.968 3.8003 6.58393 0
M  V30 2154 N 199.544 -1.57102 0.125237 0
M  V30 2155 C 200.79 -1.96488 -0.525753 0
M  V30 2156 C 201.145 -1.00786 -1.6389 0
M  V30 2157 O 200.438 -0.038979 -1.9156 0
M  V30 2158 C 200.632 -3.40096 -1.09862 0
M  V30 2159 C 200.461 -4.4968 -0.0425004 0
M  V30 2160 C 199.231 -5.03781 0.391463 0
M  V30 2161 C 201.429 -5.08936 0.740829 0
M  V30 2162 N 199.411 -5.96948 1.4327 0
M  V30 2163 C 200.782 -5.98105 1.6331 0
M  V30 2164 C 202.837 -4.91576 0.791029 0
M  V30 2165 C 201.54 -6.71774 2.57122 0
M  V30 2166 C 203.566 -5.6593 1.71688 0
M  V30 2167 C 202.928 -6.5479 2.59672 0
M  V30 2168 H 199.027 -0.765072 -0.161831 0
M  V30 2169 H 201.611 -1.93511 0.214801 0
M  V30 2170 H 199.782 -3.43707 -1.80887 0
M  V30 2171 H 201.514 -3.66591 -1.71444 0
M  V30 2172 H 198.269 -4.736 -0.00213584 0
M  V30 2173 H 198.693 -6.48236 1.95243 0
M  V30 2174 H 203.335 -4.22615 0.124915 0
M  V30 2175 H 201.053 -7.39977 3.24744 0
M  V30 2176 H 204.639 -5.54501 1.76125 0
M  V30 2177 H 203.519 -7.11316 3.30149 0
M  V30 2178 N 201.022 0.148545 -1.56898 0
M  V30 2179 C 202.438 0.501131 -1.51528 0
M  V30 2180 C 202.638 1.83458 -0.833399 0
M  V30 2181 O 201.694 2.49259 -0.40328 0
M  V30 2182 C 203.007 0.512864 -2.96294 0
M  V30 2183 C 204.555 0.598487 -3.07225 0
M  V30 2184 C 205.03 0.640897 -4.53494 0
M  V30 2185 N 206.521 0.703163 -4.57832 0
M  V30 2186 C 207.256 0.756935 -5.68382 0
M  V30 2187 N 206.752 0.770147 -6.88506 0
M  V30 2188 N 208.545 0.797698 -5.56411 0
M  V30 2189 H 200.696 -0.725532 -1.99624 0
M  V30 2190 H 202.959 -0.264358 -0.910395 0
M  V30 2191 H 202.665 -0.398691 -3.49433 0
M  V30 2192 H 202.539 1.35133 -3.52163 0
M  V30 2193 H 204.926 1.50046 -2.54106 0
M  V30 2194 H 205.007 -0.267093 -2.54402 0
M  V30 2195 H 204.651 -0.256915 -5.0725 0
M  V30 2196 H 204.581 1.52295 -5.04097 0
M  V30 2197 H 207.072 0.700314 -3.71354 0
M  V30 2198 H 207.385 0.812983 -7.68512 0
M  V30 2199 H 205.73 0.738049 -6.9107 0
M  V30 2200 H 208.921 0.784535 -4.61479 0
M  V30 2201 H 209.094 0.83614 -6.42583 0
M  V30 2202 N 202.5 1.5196 0.417844 0
M  V30 2203 C 203.73 1.69181 1.18581 0
M  V30 2204 C 204.138 0.397104 1.84986 0
M  V30 2205 O 203.481 -0.636011 1.72339 0
M  V30 2206 C 203.543 2.76497 2.29759 0
M  V30 2207 C 203.207 4.18514 1.83563 0
M  V30 2208 C 204.204 5.02648 1.32821 0
M  V30 2209 C 201.889 4.64708 1.90661 0
M  V30 2210 C 203.883 6.31044 0.897894 0
M  V30 2211 C 201.57 5.93096 1.47241 0
M  V30 2212 C 202.568 6.76093 0.968891 0
M  V30 2213 O 202.256 8.02078 0.540924 0
M  V30 2214 H 201.988 0.570457 0.362705 0
M  V30 2215 H 204.542 1.99249 0.498885 0
M  V30 2216 H 202.772 2.41786 3.01789 0
M  V30 2217 H 204.461 2.82403 2.91553 0
M  V30 2218 H 205.227 4.68154 1.26716 0
M  V30 2219 H 201.106 4.00216 2.28797 0
M  V30 2220 H 204.65 6.95776 0.504192 0
M  V30 2221 H 200.547 6.271 1.53022 0
M  V30 2222 H 201.315 8.15794 0.66502 0
M  V30 2223 N 203.978 -0.674533 1.42435 0
M  V30 2224 C 205.225 -1.43459 1.42919 0
M  V30 2225 C 205.553 -1.94446 0.0457312 0
M  V30 2226 O 204.808 -1.7132 -0.94593 0
M  V30 2227 C 205.107 -2.64767 2.40069 0
M  V30 2228 C 204.773 -2.3232 3.86443 0
M  V30 2229 C 203.435 -2.23182 4.26314 0
M  V30 2230 C 205.787 -2.05977 4.78773 0
M  V30 2231 C 203.115 -1.85827 5.56494 0
M  V30 2232 C 205.467 -1.70125 6.09295 0
M  V30 2233 C 204.131 -1.59498 6.48164 0
M  V30 2234 H 203.401 -0.524952 0.522978 0
M  V30 2235 H 206.048 -0.769097 1.75377 0
M  V30 2236 H 204.353 -3.36349 2.00939 0
M  V30 2237 H 206.05 -3.22949 2.37707 0
M  V30 2238 H 202.64 -2.40334 3.54877 0
M  V30 2239 H 206.824 -2.11969 4.48757 0
M  V30 2240 H 202.08 -1.76168 5.8547 0
M  V30 2241 H 206.254 -1.48767 6.80324 0
M  V30 2242 H 203.881 -1.30322 7.48946 0
M  V30 2243 N 205.456 -1.28612 -0.910864 0
M  V30 2244 C 206.684 -1.18792 -1.69399 0
M  V30 2245 C 207.099 0.253039 -1.87097 0
M  V30 2246 O 206.456 1.17071 -1.40003 0
M  V30 2247 C 206.507 -1.88511 -3.08457 0
M  V30 2248 O 206.228 -3.26979 -2.91576 0
M  V30 2249 C 207.729 -1.85029 -4.02839 0
M  V30 2250 H 204.949 -0.412233 -0.529438 0
M  V30 2251 H 207.493 -1.69788 -1.13984 0
M  V30 2252 H 205.648 -1.41379 -3.60681 0
M  V30 2253 H 206.062 -3.61936 -3.79608 0
M  V30 2254 H 207.536 -2.38395 -4.97867 0
M  V30 2255 H 208.013 -0.823303 -4.31414 0
M  V30 2256 H 208.619 -2.31853 -3.56545 0
M  V30 2257 N 206.934 1.1197 -1.10907 0
M  V30 2258 C 207.884 2.15946 -0.731538 0
M  V30 2259 C 208.868 1.58758 0.261699 0
M  V30 2260 O 210.06 1.76863 0.0696722 0
M  V30 2261 C 207.189 3.42877 -0.170299 0
M  V30 2262 C 206.275 4.07037 -1.19087 0
M  V30 2263 N 206.666 4.46135 -2.38322 0
M  V30 2264 C 204.964 4.33884 -1.03252 0
M  V30 2265 C 205.665 4.96331 -3.03366 0
M  V30 2266 N 204.641 4.9214 -2.30865 0
M  V30 2267 H 208.443 2.43947 -1.63912 0
M  V30 2268 H 205.957 1.28927 -0.987505 0
M  V30 2269 H 207.954 4.16732 0.118271 0
M  V30 2270 H 206.614 3.16343 0.731935 0
M  V30 2271 H 207.625 4.38345 -2.75815 0
M  V30 2272 H 204.302 4.17084 -0.186256 0
M  V30 2273 H 205.692 5.36257 -4.04818 0
M  V30 2274 N 208.412 0.89855 1.29475 0
M  V30 2275 C 209.375 0.380272 2.26023 0
M  V30 2276 C 210.375 -0.484891 1.53315 0
M  V30 2277 O 211.565 -0.290108 1.71767 0
M  V30 2278 C 208.697 -0.45651 3.3783 0
M  V30 2279 H 209.89 1.23295 2.73383 0
M  V30 2280 H 207.443 0.676589 1.40897 0
M  V30 2281 H 208.178 -1.32922 2.95808 0
M  V30 2282 H 207.963 0.163393 3.91759 0
M  V30 2283 H 209.453 -0.810466 4.0966 0
M  V30 2284 N 209.89 -1.43072 0.660911 0
M  V30 2285 C 210.82 -2.33497 -0.0122829 0
M  V30 2286 C 211.801 -1.49903 -0.803925 0
M  V30 2287 O 212.986 -1.78546 -0.763864 0
M  V30 2288 C 210.116 -3.33363 -0.973994 0
M  V30 2289 C 209.07 -4.27003 -0.291928 0
M  V30 2290 C 208.396 -5.16967 -1.36562 0
M  V30 2291 C 209.696 -5.15816 0.820462 0
M  V30 2292 H 211.39 -2.90038 0.742873 0
M  V30 2293 H 208.936 -1.39461 0.358688 0
M  V30 2294 H 210.889 -3.95524 -1.45392 0
M  V30 2295 H 209.613 -2.75095 -1.7604 0
M  V30 2296 H 208.272 -3.66217 0.167623 0
M  V30 2297 H 207.92 -4.55034 -2.14366 0
M  V30 2298 H 207.62 -5.80441 -0.914454 0
M  V30 2299 H 209.144 -5.82003 -1.84675 0
M  V30 2300 H 210.558 -5.71742 0.422366 0
M  V30 2301 H 208.955 -5.8805 1.19656 0
M  V30 2302 H 210.025 -4.55045 1.67518 0
M  V30 2303 N 211.368 -0.403325 -1.52352 0
M  V30 2304 C 212.301 0.469463 -2.23319 0
M  V30 2305 C 213.279 1.05272 -1.23922 0
M  V30 2306 O 214.463 1.10169 -1.52954 0
M  V30 2307 C 211.59 1.6511 -2.9573 0
M  V30 2308 C 210.636 1.19178 -4.0951 0
M  V30 2309 S 211.469 0.161718 -5.35256 0
M  V30 2310 C 212.625 1.34882 -6.11194 0
M  V30 2311 H 212.858 -0.133134 -2.97002 0
M  V30 2312 H 210.391 -0.187588 -1.53256 0
M  V30 2313 H 212.349 2.3287 -3.38056 0
M  V30 2314 H 211.01 2.22503 -2.21701 0
M  V30 2315 H 210.203 2.07444 -4.59329 0
M  V30 2316 H 209.805 0.592911 -3.6927 0
M  V30 2317 H 212.097 2.27345 -6.38217 0
M  V30 2318 H 213.04 0.89128 -7.02468 0
M  V30 2319 H 213.448 1.57198 -5.42171 0
M  V30 2320 N 212.846 1.57033 -0.133567 0
M  V30 2321 C 213.796 2.12641 0.822671 0
M  V30 2322 C 214.78 1.05081 1.21847 0
M  V30 2323 O 215.972 1.31287 1.18713 0
M  V30 2324 C 213.101 2.74094 2.06706 0
M  V30 2325 C 212.187 3.88757 1.69497 0
M  V30 2326 N 212.578 4.95194 1.03037 0
M  V30 2327 C 210.876 3.99213 1.98859 0
M  V30 2328 C 211.577 5.75414 0.852873 0
M  V30 2329 N 210.553 5.25726 1.3825 0
M  V30 2330 H 214.355 2.92308 0.305537 0
M  V30 2331 H 211.869 1.62256 0.0684276 0
M  V30 2332 H 213.866 3.12285 2.76195 0
M  V30 2333 H 212.526 1.95896 2.5895 0
M  V30 2334 H 213.537 5.13247 0.692669 0
M  V30 2335 H 210.214 3.32075 2.53047 0
M  V30 2336 H 211.604 6.71089 0.330091 0
M  V30 2337 N 214.325 -0.140222 1.56975 0
M  V30 2338 C 215.572 -0.851687 1.83719 0
M  V30 2339 C 215.9 -1.80862 0.715485 0
M  V30 2340 O 215.155 -1.93464 -0.294956 0
M  V30 2341 C 215.454 -1.65386 3.16832 0
M  V30 2342 C 215.12 -0.843112 4.42947 0
M  V30 2343 C 213.782 -0.619464 4.77196 0
M  V30 2344 C 216.134 -0.276582 5.20466 0
M  V30 2345 C 213.462 0.181312 5.8642 0
M  V30 2346 C 215.814 0.51127 6.30531 0
M  V30 2347 C 214.478 0.745432 6.63325 0
M  V30 2348 H 213.748 -0.311654 0.672274 0
M  V30 2349 H 216.395 -0.115006 1.91154 0
M  V30 2350 H 214.7 -2.46084 3.04877 0
M  V30 2351 H 216.397 -2.20793 3.34741 0
M  V30 2352 H 212.987 -1.0275 4.16101 0
M  V30 2353 H 217.171 -0.436632 4.94376 0
M  V30 2354 H 212.427 0.372165 6.10266 0
M  V30 2355 H 216.601 0.957354 6.89788 0
M  V30 2356 H 214.228 1.36778 7.47794 0
M  V30 2357 N 215.803 -1.52179 -0.40978 0
M  V30 2358 C 217.028 -1.70347 -1.18308 0
M  V30 2359 C 217.453 -0.411887 -1.83535 0
M  V30 2360 O 216.811 0.630587 -1.6998 0
M  V30 2361 C 216.859 -2.83977 -2.22238 0
M  V30 2362 O 215.963 -2.495 -3.28365 0
M  V30 2363 H 215.304 -0.567103 -0.345384 0
M  V30 2364 H 217.834 -1.98879 -0.480445 0
M  V30 2365 H 217.844 -3.0887 -2.66577 0
M  V30 2366 H 216.519 -3.77685 -1.74146 0
M  V30 2367 H 215.096 -2.35277 -2.89308 0
M  V30 2368 N 217.281 0.66697 -1.42791 0
M  V30 2369 C 218.211 1.79218 -1.49677 0
M  V30 2370 C 219.192 1.66405 -0.352623 0
M  V30 2371 O 220.377 1.85708 -0.567993 0
M  V30 2372 C 217.507 3.17565 -1.40605 0
M  V30 2373 C 216.461 3.45124 -2.53127 0
M  V30 2374 C 215.787 4.83127 -2.29112 0
M  V30 2375 C 217.087 3.41236 -3.95418 0
M  V30 2376 H 218.781 1.73713 -2.43853 0
M  V30 2377 H 216.327 0.83432 -1.17367 0
M  V30 2378 H 218.28 3.96022 -1.44029 0
M  V30 2379 H 217.004 3.23767 -0.429271 0
M  V30 2380 H 215.663 2.69031 -2.49034 0
M  V30 2381 H 215.311 4.85988 -1.29709 0
M  V30 2382 H 215.011 5.02528 -3.04531 0
M  V30 2383 H 216.535 5.63859 -2.34297 0
M  V30 2384 H 217.949 4.09651 -4.01073 0
M  V30 2385 H 216.346 3.72173 -4.70752 0
M  V30 2386 H 217.416 2.39665 -4.21532 0
M  V30 2387 N 218.759 1.29093 0.90403 0
M  V30 2388 C 219.692 1.08176 2.00931 0
M  V30 2389 C 220.67 -0.005083 1.62599 0
M  V30 2390 O 221.854 0.144765 1.87943 0
M  V30 2391 C 218.981 0.645897 3.32484 0
M  V30 2392 C 218.027 1.73081 3.89801 0
M  V30 2393 S 218.86 3.32905 4.19446 0
M  V30 2394 C 220.016 2.91176 5.54046 0
M  V30 2395 H 220.249 2.01752 2.18365 0
M  V30 2396 H 217.782 1.13191 1.0501 0
M  V30 2397 H 219.74 0.401131 4.08535 0
M  V30 2398 H 218.401 -0.270188 3.12936 0
M  V30 2399 H 217.594 1.37768 4.84805 0
M  V30 2400 H 217.196 1.92888 3.20422 0
M  V30 2401 H 219.488 2.37952 6.34338 0
M  V30 2402 H 220.431 3.85014 5.94281 0
M  V30 2403 H 220.839 2.296 5.15698 0
M  V30 2404 N 220.237 -1.11381 1.11499 0
M  V30 2405 C 221.187 -2.15555 0.74298 0
M  V30 2406 C 222.171 -1.58894 -0.253276 0
M  V30 2407 O 223.363 -1.76897 -0.0602918 0
M  V30 2408 C 220.492 -3.42782 0.188481 0
M  V30 2409 C 219.578 -4.064 1.21244 0
M  V30 2410 N 219.969 -4.44864 2.40685 0
M  V30 2411 C 218.267 -4.3333 1.05552 0
M  V30 2412 C 218.968 -4.94715 3.05994 0
M  V30 2413 N 217.944 -4.90909 2.33472 0
M  V30 2414 H 221.746 -2.43074 1.65203 0
M  V30 2415 H 219.26 -1.28401 0.994329 0
M  V30 2416 H 221.257 -4.16789 -0.0961693 0
M  V30 2417 H 219.917 -3.16727 -0.715149 0
M  V30 2418 H 220.928 -4.36876 2.78136 0
M  V30 2419 H 217.605 -4.1698 0.208372 0
M  V30 2420 H 218.995 -5.34103 4.07656 0
M  V30 2421 N 221.715 -0.905404 -1.28997 0
M  V30 2422 C 222.964 -0.530191 -1.94607 0
M  V30 2423 C 223.277 0.929185 -1.72121 0
M  V30 2424 O 224.483 1.41218 -2.31883 0
M  V30 2425 C 222.939 -0.897333 -3.48534 0
M  V30 2426 C 222.547 -2.37587 -3.79811 0
M  V30 2427 C 224.291 -0.592304 -4.20347 0
M  V30 2428 C 222.198 -2.68357 -5.27009 0
M  V30 2429 H 221.128 -0.194558 -0.728466 0
M  V30 2430 H 223.779 -1.10318 -1.46636 0
M  V30 2431 H 222.161 -0.253214 -3.9519 0
M  V30 2432 H 223.335 -3.06602 -3.43994 0
M  V30 2433 H 221.65 -2.6505 -3.2115 0
M  V30 2434 H 224.247 -0.798975 -5.28697 0
M  V30 2435 H 224.59 0.469474 -4.13644 0
M  V30 2436 H 225.123 -1.19452 -3.79442 0
M  V30 2437 H 221.862 -3.73355 -5.38782 0
M  V30 2438 H 221.382 -2.03971 -5.64053 0
M  V30 2439 H 223.061 -2.54922 -5.94663 0
M  V30 2440 N 223.193 1.4272 -0.668489 0
M  V30 2441 C 224.123 2.335 -0.000100175 0
M  V30 2442 C 225.104 1.50328 0.795964 0
M  V30 2443 O 226.289 1.78949 0.754385 0
M  V30 2444 C 223.419 3.33874 0.956302 0
M  V30 2445 C 222.373 4.27152 0.269278 0
M  V30 2446 C 221.699 5.17684 1.33818 0
M  V30 2447 C 222.999 5.15373 -0.847805 0
M  V30 2448 H 224.693 2.89639 -0.758244 0
M  V30 2449 H 222.239 1.39269 -0.366079 0
M  V30 2450 H 224.192 3.9629 1.43292 0
M  V30 2451 H 222.916 2.76025 1.74579 0
M  V30 2452 H 221.575 3.66123 -0.187042 0
M  V30 2453 H 221.223 4.56165 2.1195 0
M  V30 2454 H 220.923 5.80918 0.883659 0
M  V30 2455 H 222.447 5.82974 1.81586 0
M  V30 2456 H 223.861 5.7151 -0.452681 0
M  V30 2457 H 222.258 5.87407 -1.22773 0
M  V30 2458 H 223.328 4.5415 -1.69929 0
M  V30 2459 N 224.671 0.411399 1.52136 0
M  V30 2460 C 225.918 -0.163645 2.01838 0
M  V30 2461 C 226.246 -1.4495 1.29691 0
M  V30 2462 O 225.501 -1.91725 0.392431 0
M  V30 2463 C 225.8 -0.455872 3.54481 0
M  V30 2464 C 225.466 0.741055 4.44769 0
M  V30 2465 C 224.128 1.06936 4.69167 0
M  V30 2466 C 226.48 1.54075 4.97906 0
M  V30 2467 C 223.808 2.19851 5.43951 0
M  V30 2468 C 226.16 2.66067 5.73926 0
M  V30 2469 C 224.824 2.99381 5.96596 0
M  V30 2470 H 224.094 -0.0598821 0.738576 0
M  V30 2471 H 226.741 0.553283 1.83333 0
M  V30 2472 H 225.046 -1.2544 3.71177 0
M  V30 2473 H 226.743 -0.913802 3.90449 0
M  V30 2474 H 223.333 0.475192 4.25958 0
M  V30 2475 H 227.517 1.30033 4.78963 0
M  V30 2476 H 222.773 2.46006 5.59724 0
M  V30 2477 H 226.947 3.28419 6.14096 0
M  V30 2478 H 224.574 3.86992 6.54325 0
M  V30 2479 N 226.149 -1.5696 0.141893 0
M  V30 2480 C 227.097 -2.17784 -0.816874 0
M  V30 2481 C 228.091 -1.1334 -1.25899 0
M  V30 2482 O 229.297 -1.316 -1.22806 0
M  V30 2483 H 225.672 -0.697278 -0.281615 0
M  V30 2484 H 227.643 -2.97087 -0.279621 0
M  V30 2485 C 226.392 -2.80983 -2.04802 0
M  V30 2486 H 225.715 -3.61062 -1.7168 0
M  V30 2487 H 227.155 -3.2705 -2.69841 0
M  V30 2488 C 225.614 -1.79228 -2.8527 0
M  V30 2489 O 226.144 -1.25962 -3.8144 0
M  V30 2490 N 224.35 -1.48647 -2.49704 0
M  V30 2491 H 223.897 -1.92155 -1.71564 0
M  V30 2492 H 223.855 -0.808115 -3.03837 0
M  V30 2493 N 227.627 0.131896 -1.57047 0
M  V30 2494 C 228.557 1.16384 -2.02428 0
M  V30 2495 C 229.538 1.43936 -0.90644 0
M  V30 2496 O 230.723 1.54599 -1.17528 0
M  V30 2497 C 227.853 2.49328 -2.4177 0
M  V30 2498 C 226.807 2.36266 -3.56879 0
M  V30 2499 C 226.133 3.74057 -3.8208 0
M  V30 2500 C 227.433 1.834 -4.89042 0
M  V30 2501 H 229.127 0.786433 -2.88887 0
M  V30 2502 H 226.673 0.376855 -1.38981 0
M  V30 2503 H 228.626 3.21759 -2.7212 0
M  V30 2504 H 227.35 2.88934 -1.52266 0
M  V30 2505 H 226.009 1.66286 -3.26718 0
M  V30 2506 H 225.657 4.11125 -2.89803 0
M  V30 2507 H 225.357 3.66174 -4.59554 0
M  V30 2508 H 226.881 4.48012 -4.1487 0
M  V30 2509 H 228.295 2.45636 -5.18011 0
M  V30 2510 H 226.692 1.8637 -5.70426 0
M  V30 2511 H 227.762 0.790662 -4.7841 0
M  V30 2512 N 229.106 1.52395 0.401703 0
M  V30 2513 C 230.036 1.79231 1.49661 0
M  V30 2514 C 231.017 0.643654 1.57452 0
M  V30 2515 O 232.202 0.889989 1.72606 0
M  V30 2516 C 229.332 1.94971 2.87409 0
M  V30 2517 C 228.286 3.10604 2.94465 0
M  V30 2518 C 227.612 3.11577 4.34538 0
M  V30 2519 C 228.912 4.49921 2.6527 0
M  V30 2520 H 230.606 2.70917 1.27454 0
M  V30 2521 H 228.152 1.30362 0.6117 0
M  V30 2522 H 230.105 2.12328 3.63999 0
M  V30 2523 H 228.829 0.999632 3.10926 0
M  V30 2524 H 227.488 2.93009 2.20321 0
M  V30 2525 H 227.136 2.14277 4.55076 0
M  V30 2526 H 226.836 3.89247 4.40183 0
M  V30 2527 H 228.36 3.31073 5.13053 0
M  V30 2528 H 229.774 4.67683 3.31581 0
M  V30 2529 H 228.171 5.29564 2.82281 0
M  V30 2530 H 229.241 4.57507 1.60671 0
M  V30 2531 N 230.584 -0.659388 1.43143 0
M  V30 2532 C 231.83 -1.41984 1.45644 0
M  V30 2533 C 232.185 -1.92245 0.0771718 0
M  V30 2534 O 231.478 -1.68976 -0.903205 0
M  V30 2535 C 231.672 -2.62206 2.42864 0
M  V30 2536 C 231.501 -2.23711 3.90107 0
M  V30 2537 C 230.271 -2.12332 4.58523 0
M  V30 2538 C 232.469 -1.84384 4.80112 0
M  V30 2539 N 230.451 -1.67102 5.9072 0
M  V30 2540 C 231.822 -1.5019 6.01534 0
M  V30 2541 C 233.877 -1.71512 4.67427 0
M  V30 2542 C 232.58 -1.04414 7.11681 0
M  V30 2543 C 234.606 -1.27142 5.77572 0
M  V30 2544 C 233.968 -0.938808 6.98116 0
M  V30 2545 H 230.067 -0.515448 0.588079 0
M  V30 2546 H 232.651 -0.759409 1.79279 0
M  V30 2547 H 230.822 -3.25917 2.11265 0
M  V30 2548 H 232.554 -3.28877 2.35843 0
M  V30 2549 H 229.309 -2.31893 4.12944 0
M  V30 2550 H 229.733 -1.46866 6.60878 0
M  V30 2551 H 234.375 -1.95868 3.74694 0
M  V30 2552 H 232.093 -0.788061 8.04248 0
M  V30 2553 H 235.679 -1.17681 5.69774 0
M  V30 2554 H 234.559 -0.6007 7.81896 0
M  V30 2555 N 232.062 -1.29571 -0.897171 0
M  V30 2556 C 233.308 -1.18873 -1.65048 0
M  V30 2557 C 233.663 0.256707 -1.9068 0
M  V30 2558 O 232.956 1.18202 -1.50794 0
M  V30 2559 C 233.15 -1.9382 -3.00281 0
M  V30 2560 C 232.979 -3.45503 -2.8785 0
M  V30 2561 C 231.749 -4.14856 -2.88483 0
M  V30 2562 C 233.947 -4.40956 -2.64693 0
M  V30 2563 N 231.929 -5.52886 -2.66815 0
M  V30 2564 C 233.3 -5.66464 -2.5203 0
M  V30 2565 C 235.355 -4.3069 -2.49821 0
M  V30 2566 C 234.058 -6.82871 -2.26008 0
M  V30 2567 C 236.084 -5.46852 -2.25182 0
M  V30 2568 C 235.446 -6.71333 -2.13286 0
M  V30 2569 H 231.545 -0.489998 -0.609447 0
M  V30 2570 H 234.129 -1.63431 -1.05822 0
M  V30 2571 H 232.3 -1.51671 -3.57562 0
M  V30 2572 H 234.032 -1.75366 -3.64731 0
M  V30 2573 H 230.787 -3.66579 -2.99861 0
M  V30 2574 H 231.211 -6.25487 -2.59027 0
M  V30 2575 H 235.853 -3.35141 -2.5776 0
M  V30 2576 H 233.571 -7.78473 -2.16806 0
M  V30 2577 H 237.157 -5.40809 -2.14515 0
M  V30 2578 H 236.037 -7.59701 -1.94485 0
M  V30 2579 N 233.54 1.10788 -1.12088 0
M  V30 2580 C 234.786 1.8313 -0.885148 0
M  V30 2581 C 235.141 1.8336 0.582839 0
M  V30 2582 O 234.434 1.28062 1.42516 0
M  V30 2583 C 234.628 3.29294 -1.38926 0
M  V30 2584 C 234.457 3.43302 -2.90472 0
M  V30 2585 C 233.227 3.55928 -3.58669 0
M  V30 2586 C 235.425 3.37014 -3.88492 0
M  V30 2587 N 233.407 3.58475 -4.98366 0
M  V30 2588 C 234.778 3.46263 -5.14298 0
M  V30 2589 C 236.833 3.20589 -3.80955 0
M  V30 2590 C 235.536 3.4078 -6.33452 0
M  V30 2591 C 237.562 3.16427 -4.99628 0
M  V30 2592 C 236.924 3.26253 -6.2429 0
M  V30 2593 H 233.023 0.685054 -0.377128 0
M  V30 2594 H 235.607 1.3251 -1.4265 0
M  V30 2595 H 233.778 3.78416 -0.874999 0
M  V30 2596 H 235.51 3.89578 -1.09596 0
M  V30 2597 H 232.265 3.58779 -3.09151 0
M  V30 2598 H 232.689 3.6337 -5.71219 0
M  V30 2599 H 237.331 3.11873 -2.85474 0
M  V30 2600 H 235.049 3.48263 -7.29204 0
M  V30 2601 H 238.635 3.04874 -4.95523 0
M  V30 2602 H 237.515 3.2303 -7.14578 0
M  V30 2603 N 235.018 0.912232 1.28515 0
M  V30 2604 C 236.248 0.559604 1.98877 0
M  V30 2605 C 236.656 -0.863113 1.68366 0
M  V30 2606 O 235.999 -1.58304 0.931969 0
M  V30 2607 C 236.061 0.68703 3.52874 0
M  V30 2608 C 235.725 2.07901 4.06972 0
M  V30 2609 C 236.722 3.05157 4.20922 0
M  V30 2610 C 234.407 2.39178 4.417 0
M  V30 2611 C 236.401 4.31806 4.68852 0
M  V30 2612 C 234.088 3.66068 4.89324 0
M  V30 2613 C 235.086 4.62195 5.02856 0
M  V30 2614 O 234.774 5.86829 5.49442 0
M  V30 2615 H 234.506 0.212191 0.641834 0
M  V30 2616 H 237.06 1.22712 1.64715 0
M  V30 2617 H 235.29 -0.0375486 3.86682 0
M  V30 2618 H 236.979 0.341727 4.04459 0
M  V30 2619 H 237.745 2.82311 3.94367 0
M  V30 2620 H 233.624 1.65109 4.30418 0
M  V30 2621 H 237.168 5.06842 4.79329 0
M  V30 2622 H 233.065 3.88739 5.15318 0
M  V30 2623 H 233.833 5.89597 5.6773 0
M  V30 2624 N 236.496 -1.42363 0.676048 0
M  V30 2625 C 237.426 -2.33497 0.0124832 0
M  V30 2626 C 238.407 -1.50748 -0.787981 0
M  V30 2627 O 239.592 -1.79346 -0.744884 0
M  V30 2628 C 236.722 -3.34377 -0.938582 0
M  V30 2629 C 235.676 -4.27289 -0.246622 0
M  V30 2630 C 235.002 -5.18386 -1.31071 0
M  V30 2631 C 236.302 -5.14916 0.875125 0
M  V30 2632 H 237.996 -2.89233 0.773593 0
M  V30 2633 H 235.542 -1.39073 0.37346 0
M  V30 2634 H 237.495 -3.97044 -1.41188 0
M  V30 2635 H 236.219 -2.76947 -1.73113 0
M  V30 2636 H 234.878 -3.66018 0.206456 0
M  V30 2637 H 234.526 -4.57282 -2.09528 0
M  V30 2638 H 234.226 -5.81378 -0.852839 0
M  V30 2639 H 235.75 -5.83929 -1.78492 0
M  V30 2640 H 237.164 -5.71262 0.482983 0
M  V30 2641 H 235.561 -5.86747 1.25887 0
M  V30 2642 H 236.631 -4.53242 1.72335 0
M  V30 2643 N 237.974 -0.419461 -1.51915 0
M  V30 2644 C 239.222 0.152637 -2.01523 0
M  V30 2645 C 239.543 1.44762 -1.30649 0
M  V30 2646 O 238.813 1.90997 -0.435535 0
M  V30 2647 H 237.393 0.0593966 -0.744635 0
M  V30 2648 H 240.055 -0.558073 -1.86739 0
M  V30 2649 H 239.151 0.341369 -3.10227 0
M  V30 2650 N 239.452 1.56882 -0.150215 0
M  V30 2651 C 240.7 1.9584 0.499105 0
M  V30 2652 C 241.021 1.03623 1.65188 0
M  V30 2653 O 240.291 0.0984084 1.95653 0
M  V30 2654 H 238.871 0.723119 0.187373 0
M  V30 2655 H 241.533 1.9358 -0.226466 0
M  V30 2656 H 240.629 2.99638 0.873122 0
M  V30 2657 N 240.93 -0.123565 1.57115 0
M  V30 2658 C 241.893 -1.13583 1.99076 0
M  V30 2659 C 242.893 -1.34564 0.880296 0
M  V30 2660 O 244.083 -1.31158 1.14644 0
M  V30 2661 C 241.215 -2.49128 2.32698 0
M  V30 2662 H 242.408 -0.775287 2.89706 0
M  V30 2663 H 239.961 -0.36771 1.51913 0
M  V30 2664 H 240.696 -2.90111 1.44934 0
M  V30 2665 H 240.481 -2.35255 3.13684 0
M  V30 2666 H 241.971 -3.2199 2.65918 0
M  V30 2667 N 242.408 -1.52605 -0.393616 0
M  V30 2668 C 243.654 -1.67672 -1.14079 0
M  V30 2669 C 243.987 -0.413121 -1.89755 0
M  V30 2670 O 243.262 0.588952 -1.85369 0
M  V30 2671 C 243.545 -2.9088 -2.12276 0
M  V30 2672 C 243.398 -4.27329 -1.40394 0
M  V30 2673 C 244.717 -3.09628 -3.12759 0
M  V30 2674 H 241.836 -0.610168 -0.413356 0
M  V30 2675 H 244.478 -1.85193 -0.424696 0
M  V30 2676 H 242.628 -2.76073 -2.73342 0
M  V30 2677 H 244.3 -4.53894 -0.82327 0
M  V30 2678 H 242.543 -4.2802 -0.705801 0
M  V30 2679 H 243.214 -5.09615 -2.12123 0
M  V30 2680 H 245.69 -3.23436 -2.61779 0
M  V30 2681 H 244.566 -3.97322 -3.78717 0
M  V30 2682 H 244.827 -2.23637 -3.81365 0
M  V30 2683 N 243.887 0.651787 -1.4349 0
M  V30 2684 C 244.797 1.79368 -1.5121 0
M  V30 2685 C 245.813 1.69361 -0.399093 0
M  V30 2686 O 246.989 1.90505 -0.653431 0
M  V30 2687 C 244.054 3.15653 -1.43401 0
M  V30 2688 C 243.115 3.37446 -2.65384 0
M  V30 2689 C 242.348 4.67229 -2.57939 0
M  V30 2690 O 242.571 5.46676 -1.62792 0
M  V30 2691 O 241.505 4.90773 -3.48462 0
M  V30 2692 H 245.331 1.7581 -2.47638 0
M  V30 2693 H 242.916 0.810447 -1.25507 0
M  V30 2694 H 244.798 3.96935 -1.41494 0
M  V30 2695 H 243.473 3.19798 -0.501085 0
M  V30 2696 H 242.38 2.55923 -2.72863 0
M  V30 2697 H 243.713 3.38148 -3.57654 0
M  V30 2698 N 245.365 1.30045 0.890287 0
M  V30 2699 C 246.312 1.15976 1.99545 0
M  V30 2700 C 247.282 0.0506202 1.66023 0
M  V30 2701 O 248.467 0.219847 1.89529 0
M  V30 2702 C 245.607 0.852054 3.34416 0
M  V30 2703 C 244.72 2.04255 3.80662 0
M  V30 2704 C 243.855 1.6734 5.04154 0
M  V30 2705 C 242.894 2.82916 5.42794 0
M  V30 2706 N 242.031 2.46333 6.57468 0
M  V30 2707 H 246.871 2.10524 2.10911 0
M  V30 2708 H 244.408 1.04749 1.03276 0
M  V30 2709 H 246.366 0.654296 4.12037 0
M  V30 2710 H 244.996 -0.0565502 3.2275 0
M  V30 2711 H 244.048 2.35172 2.98995 0
M  V30 2712 H 245.36 2.90826 4.05242 0
M  V30 2713 H 244.514 1.43908 5.89386 0
M  V30 2714 H 243.253 0.779308 4.81433 0
M  V30 2715 H 242.258 3.0702 4.56091 0
M  V30 2716 H 243.483 3.73004 5.6749 0
M  V30 2717 H 241.429 1.59423 6.36334 0
M  V30 2718 H 241.346 3.26436 6.81891 0
M  V30 2719 H 242.614 2.26244 7.45945 0
M  V30 2720 N 246.843 -1.10192 1.12674 0
M  V30 2721 C 248.259 -1.34235 0.863317 0
M  V30 2722 C 248.459 -1.95062 -0.505277 0
M  V30 2723 O 247.515 -2.19192 -1.25345 0
M  V30 2724 C 248.828 -2.2616 1.98172 0
M  V30 2725 C 250.376 -2.3969 2.0129 0
M  V30 2726 C 250.851 -3.34946 3.1237 0
M  V30 2727 N 252.342 -3.42515 3.11829 0
M  V30 2728 C 253.077 -4.16199 3.94419 0
M  V30 2729 N 252.573 -4.92747 4.87004 0
M  V30 2730 N 254.366 -4.11843 3.82547 0
M  V30 2731 H 246.517 -0.690798 2.00853 0
M  V30 2732 H 248.78 -0.366774 0.874174 0
M  V30 2733 H 248.486 -1.8868 2.96804 0
M  V30 2734 H 248.36 -3.26488 1.88906 0
M  V30 2735 H 250.747 -2.76438 1.03276 0
M  V30 2736 H 250.828 -1.39169 2.14629 0
M  V30 2737 H 250.472 -2.98923 4.10619 0
M  V30 2738 H 250.402 -4.35353 2.96269 0
M  V30 2739 H 252.893 -2.87926 2.44759 0
M  V30 2740 H 253.206 -5.46376 5.46528 0
M  V30 2741 H 251.551 -4.91862 4.91016 0
M  V30 2742 H 254.742 -3.51136 3.0955 0
M  V30 2743 H 254.915 -4.69007 4.47142 0
M  V30 2744 N 248.321 -0.919034 -1.28029 0
M  V30 2745 C 249.251 -0.428581 -2.29533 0
M  V30 2746 C 250.232 0.50659 -1.62381 0
M  V30 2747 O 251.417 0.413195 -1.89753 0
M  V30 2748 C 248.547 0.327388 -3.45753 0
M  V30 2749 C 247.501 -0.519137 -4.2484 0
M  V30 2750 C 246.827 0.365486 -5.33449 0
M  V30 2751 C 248.127 -1.77914 -4.91064 0
M  V30 2752 H 249.821 -1.27687 -2.70807 0
M  V30 2753 H 247.367 -0.615428 -1.30186 0
M  V30 2754 H 249.32 0.681378 -4.15855 0
M  V30 2755 H 248.044 1.20963 -3.03374 0
M  V30 2756 H 246.703 -0.855717 -3.56473 0
M  V30 2757 H 246.351 1.24642 -4.87312 0
M  V30 2758 H 246.051 -0.197356 -5.87268 0
M  V30 2759 H 247.575 0.715241 -6.06396 0
M  V30 2760 H 248.989 -1.49374 -5.53498 0
M  V30 2761 H 247.386 -2.2848 -5.54903 0
M  V30 2762 H 248.456 -2.50382 -4.15255 0
M  V30 2763 N 249.799 1.42003 -0.683588 0
M  V30 2764 C 251.047 2.01015 -0.209101 0
M  V30 2765 C 251.368 1.54365 1.19149 0
M  V30 2766 O 250.638 0.769083 1.80172 0
M  V30 2767 H 249.218 0.743294 -0.074315 0
M  V30 2768 H 251.88 1.73798 -0.882066 0
M  V30 2769 H 250.976 3.11343 -0.2172 0
M  V30 2770 N 251.277 0.427512 1.51691 0
M  V30 2771 C 252.502 -0.143601 2.06902 0
M  V30 2772 C 252.927 -1.36536 1.29382 0
M  V30 2773 O 252.285 -1.78289 0.329043 0
M  V30 2774 C 252.333 -0.454207 3.57728 0
M  V30 2775 O 251.437 -1.54228 3.82475 0
M  V30 2776 H 250.778 -0.00617128 0.663971 0
M  V30 2777 H 253.308 0.606014 1.95419 0
M  V30 2778 H 253.318 -0.707525 4.01818 0
M  V30 2779 H 251.993 0.438812 4.13579 0
M  V30 2780 H 250.57 -1.2797 3.50254 0
M  V30 2781 N 252.755 -1.56801 0.158532 0
M  V30 2782 C 254.003 -1.96102 -0.488712 0
M  V30 2783 C 254.324 -1.04498 -1.64636 0
M  V30 2784 O 253.594 -0.108783 -1.95598 0
M  V30 2785 H 252.174 -0.724102 -0.183535 0
M  V30 2786 H 254.836 -1.93457 0.236728 0
M  V30 2787 H 253.932 -3.00097 -0.857219 0
M  V30 2788 N 254.233 0.115231 -1.57178 0
M  V30 2789 C 255.18 1.14115 -2.00615 0
M  V30 2790 C 256.15 1.40939 -0.878941 0
M  V30 2791 O 257.335 1.52741 -1.14345 0
M  V30 2792 C 254.475 2.46156 -2.4187 0
M  V30 2793 C 253.588 2.26236 -3.68024 0
M  V30 2794 C 252.723 3.51534 -3.98243 0
M  V30 2795 C 251.762 3.26787 -5.17568 0
M  V30 2796 N 250.899 4.44298 -5.43639 0
M  V30 2797 H 255.739 0.763743 -2.88047 0
M  V30 2798 H 253.276 0.365615 -1.42484 0
M  V30 2799 H 255.234 3.23189 -2.63827 0
M  V30 2800 H 253.864 2.81783 -1.57475 0
M  V30 2801 H 252.916 1.40102 -3.5366 0
M  V30 2802 H 254.228 2.03929 -4.55208 0
M  V30 2803 H 253.382 4.36984 -4.20868 0
M  V30 2804 H 252.121 3.76876 -3.09541 0
M  V30 2805 H 251.126 2.39729 -4.94783 0
M  V30 2806 H 252.351 3.02812 -6.0785 0
M  V30 2807 H 250.297 4.69754 -4.57895 0
M  V30 2808 H 250.214 4.25109 -6.25154 0
M  V30 2809 H 251.482 5.3087 -5.70786 0
M  V30 2810 N 255.711 1.52812 0.385517 0
M  V30 2811 C 256.641 1.80808 1.47752 0
M  V30 2812 C 257.622 0.660318 1.5676 0
M  V30 2813 O 258.807 0.908246 1.71652 0
M  V30 2814 C 255.937 1.98008 2.85324 0
M  V30 2815 C 254.891 3.13709 2.91154 0
M  V30 2816 C 254.217 3.16169 4.31209 0
M  V30 2817 C 255.517 4.52709 2.60483 0
M  V30 2818 H 257.211 2.72253 1.24573 0
M  V30 2819 H 254.757 1.31003 0.597839 0
M  V30 2820 H 256.71 2.16176 3.61726 0
M  V30 2821 H 255.434 1.03255 3.09848 0
M  V30 2822 H 254.093 2.95329 2.17201 0
M  V30 2823 H 253.741 2.19092 4.52778 0
M  V30 2824 H 253.441 3.93894 4.36029 0
M  V30 2825 H 254.965 3.36496 5.09512 0
M  V30 2826 H 256.379 4.71173 3.26602 0
M  V30 2827 H 254.776 5.32528 2.76648 0
M  V30 2828 H 255.846 4.59186 1.55809 0
M  V30 2829 N 257.189 -0.644168 1.43834 0
M  V30 2830 C 258.438 -1.39985 1.45214 0
M  V30 2831 C 258.751 -1.95421 0.0835494 0
M  V30 2832 O 259.957 -2.71488 -0.0251748 0
M  V30 2833 C 258.413 -2.53384 2.55587 0
M  V30 2834 C 258.021 -2.04517 3.98594 0
M  V30 2835 C 259.765 -3.30685 2.66172 0
M  V30 2836 C 257.672 -3.1518 5.00416 0
M  V30 2837 H 256.602 -0.526005 0.540218 0
M  V30 2838 H 259.253 -0.694367 1.69855 0
M  V30 2839 H 257.635 -3.26446 2.24163 0
M  V30 2840 H 258.809 -1.38405 4.39523 0
M  V30 2841 H 257.124 -1.40068 3.92135 0
M  V30 2842 H 259.721 -4.13158 3.39418 0
M  V30 2843 H 260.064 -3.79312 1.71546 0
M  V30 2844 H 260.597 -2.64708 2.96942 0
M  V30 2845 H 257.336 -2.71511 5.96625 0
M  V30 2846 H 256.856 -3.79974 4.64091 0
M  V30 2847 H 258.535 -3.80166 5.23529 0
M  V30 2848 N 258.668 -1.30515 -0.883378 0
M  V30 2849 C 259.914 -1.19607 -1.63774 0
M  V30 2850 C 260.247 0.248314 -1.92606 0
M  V30 2851 O 259.522 1.17742 -1.54813 0
M  V30 2852 C 259.805 -2.02669 -2.97653 0
M  V30 2853 C 259.658 -3.55335 -2.75784 0
M  V30 2854 C 260.977 -1.86573 -3.98596 0
M  V30 2855 H 258.096 -0.435856 -0.594305 0
M  V30 2856 H 260.738 -1.60165 -1.02212 0
M  V30 2857 H 258.888 -1.68208 -3.50197 0
M  V30 2858 H 260.56 -3.99863 -2.30016 0
M  V30 2859 H 258.803 -3.79438 -2.1026 0
M  V30 2860 H 259.474 -4.08745 -3.70988 0
M  V30 2861 H 261.95 -2.16703 -3.55217 0
M  V30 2862 H 260.826 -2.47014 -4.90179 0
M  V30 2863 H 261.087 -0.825321 -4.34328 0
M  V30 2864 N 260.146 1.09593 -1.13257 0
M  V30 2865 C 261.395 1.81105 -0.887917 0
M  V30 2866 C 261.708 1.86563 0.587672 0
M  V30 2867 O 262.914 2.54367 0.949204 0
M  V30 2868 C 261.37 3.25338 -1.53895 0
M  V30 2869 C 260.978 3.28151 -3.04994 0
M  V30 2870 C 262.722 4.01617 -1.37492 0
M  V30 2871 C 260.629 4.66897 -3.6299 0
M  V30 2872 H 259.559 0.678661 -0.328534 0
M  V30 2873 H 262.21 1.23183 -1.36008 0
M  V30 2874 H 260.592 3.8331 -0.994446 0
M  V30 2875 H 261.766 2.79953 -3.66009 0
M  V30 2876 H 260.081 2.65361 -3.20893 0
M  V30 2877 H 262.678 5.04119 -1.78235 0
M  V30 2878 H 263.021 4.15072 -0.31957 0
M  V30 2879 H 263.554 3.50082 -1.88912 0
M  V30 2880 H 260.293 4.58643 -4.68323 0
M  V30 2881 H 259.813 5.15426 -3.06752 0
M  V30 2882 H 261.492 5.3587 -3.62563 0
M  V30 2883 N 261.624 0.925811 1.2754 0
M  V30 2884 C 262.852 0.581509 1.9856 0
M  V30 2885 C 263.267 -0.840041 1.69082 0
M  V30 2886 O 262.624 -1.55805 0.950312 0
M  V30 2887 C 262.675 0.795589 3.52637 0
M  V30 2888 O 262.396 2.16121 3.81082 0
M  V30 2889 C 263.897 0.459744 4.4091 0
M  V30 2890 H 261.117 0.220538 0.633722 0
M  V30 2891 H 263.661 1.24232 1.6244 0
M  V30 2892 H 261.816 0.18161 3.86974 0
M  V30 2893 H 262.23 2.2098 4.75676 0
M  V30 2894 H 263.704 0.660244 5.48037 0
M  V30 2895 H 264.181 -0.604625 4.35018 0
M  V30 2896 H 264.787 1.05178 4.12089 0
M  V30 2897 N 263.102 -1.41638 0.69111 0
M  V30 2898 C 264.032 -2.3347 0.037248 0
M  V30 2899 C 265.013 -1.51575 -0.771947 0
M  V30 2900 O 266.198 -1.80126 -0.72582 0
M  V30 2901 C 263.328 -3.35354 -0.903064 0
M  V30 2902 C 262.282 -4.27526 -0.201288 0
M  V30 2903 C 261.608 -5.19747 -1.25565 0
M  V30 2904 C 262.908 -5.13959 0.929689 0
M  V30 2905 H 264.602 -2.88397 0.804227 0
M  V30 2906 H 262.148 -1.38669 0.388189 0
M  V30 2907 H 264.101 -3.98519 -1.36969 0
M  V30 2908 H 262.825 -2.78767 -1.70166 0
M  V30 2909 H 261.484 -3.65779 0.245265 0
M  V30 2910 H 261.132 -4.59479 -2.04666 0
M  V30 2911 H 260.832 -5.8225 -0.791128 0
M  V30 2912 H 262.356 -5.85789 -1.72288 0
M  V30 2913 H 263.77 -5.70718 0.543546 0
M  V30 2914 H 262.167 -5.85379 1.32103 0
M  V30 2915 H 263.237 -4.51389 1.77133 0
M  V30 2916 N 264.58 -0.43555 -1.51462 0
M  V30 2917 C 265.829 0.133007 -2.01261 0
M  V30 2918 C 266.142 1.43942 -1.32439 0
M  V30 2919 O 267.348 2.09081 -1.73198 0
M  V30 2920 C 265.804 0.287581 -3.58749 0
M  V30 2921 C 265.412 -1.00829 -4.36506 0
M  V30 2922 C 267.156 0.810004 -4.167 0
M  V30 2923 C 265.063 -0.819454 -5.85695 0
M  V30 2924 H 263.993 0.0534822 -0.752101 0
M  V30 2925 H 266.644 -0.565038 -1.74584 0
M  V30 2926 H 265.026 1.04859 -3.81865 0
M  V30 2927 H 266.2 -1.77749 -4.25138 0
M  V30 2928 H 264.515 -1.45911 -3.89999 0
M  V30 2929 H 267.112 0.967743 -5.2587 0
M  V30 2930 H 267.455 1.79196 -3.75758 0
M  V30 2931 H 267.988 0.107357 -3.97655 0
M  V30 2932 H 264.727 -1.77374 -6.31046 0
M  V30 2933 H 264.247 -0.0900208 -5.99732 0
M  V30 2934 H 265.926 -0.471949 -6.45276 0
M  V30 2935 N 266.058 1.56714 -0.166846 0
M  V30 2936 C 267.283 2.01557 0.488833 0
M  V30 2937 C 267.708 1.0463 1.56314 0
M  V30 2938 O 267.066 0.0251304 1.81283 0
M  V30 2939 C 267.114 3.4503 1.04818 0
M  V30 2940 O 266.218 3.51163 2.16236 0
M  V30 2941 H 265.559 0.653516 0.117526 0
M  V30 2942 H 268.089 2.02818 -0.269421 0
M  V30 2943 H 268.099 3.84243 1.37191 0
M  V30 2944 H 266.774 4.15077 0.261572 0
M  V30 2945 H 265.351 3.23807 1.84942 0
M  V30 2946 N 267.536 -0.106894 1.57237 0
M  V30 2947 C 268.499 -1.11466 2.0027 0
M  V30 2948 C 269.499 -1.33623 0.894519 0
M  V30 2949 O 270.689 -1.29935 1.16028 0
M  V30 2950 C 267.821 -2.46646 2.35327 0
M  V30 2951 H 269.014 -0.744516 2.90512 0
M  V30 2952 H 266.567 -0.351576 1.52295 0
M  V30 2953 H 267.302 -2.88558 1.48003 0
M  V30 2954 H 267.087 -2.31915 3.16161 0
M  V30 2955 H 268.577 -3.19151 2.69318 0
M  V30 2956 N 269.014 -1.53014 -0.377408 0
M  V30 2957 C 269.944 -1.81589 -1.46791 0
M  V30 2958 C 270.925 -0.668622 -1.56408 0
M  V30 2959 O 272.11 -0.917337 -1.71168 0
M  V30 2960 C 269.24 -1.99519 -2.8427 0
M  V30 2961 C 268.194 -3.15249 -2.89486 0
M  V30 2962 C 267.52 -3.18451 -4.29527 0
M  V30 2963 C 268.82 -4.54084 -2.58079 0
M  V30 2964 H 270.514 -2.7291 -1.23127 0
M  V30 2965 H 268.06 -1.31319 -0.590883 0
M  V30 2966 H 270.013 -2.18092 -3.60575 0
M  V30 2967 H 268.737 -1.04897 -3.09296 0
M  V30 2968 H 267.396 -2.96477 -2.15631 0
M  V30 2969 H 267.044 -2.2149 -4.5161 0
M  V30 2970 H 266.744 -3.962 -4.33934 0
M  V30 2971 H 268.268 -3.39193 -5.07721 0
M  V30 2972 H 269.682 -4.72899 -3.24098 0
M  V30 2973 H 268.079 -5.33987 -2.7382 0
M  V30 2974 H 269.149 -4.60006 -1.53372 0
M  V30 2975 N 270.492 0.636531 -1.44174 0
M  V30 2976 C 271.422 1.76003 -1.53444 0
M  V30 2977 C 272.403 1.65619 -0.387841 0
M  V30 2978 O 273.588 1.84461 -0.607257 0
M  V30 2979 C 270.718 3.14511 -1.4731 0
M  V30 2980 C 269.672 3.39677 -2.60391 0
M  V30 2981 C 268.998 4.78159 -2.39308 0
M  V30 2982 C 270.298 3.32772 -4.02567 0
M  V30 2983 H 271.992 1.68501 -2.47483 0
M  V30 2984 H 269.538 0.809237 -1.19111 0
M  V30 2985 H 271.491 3.92878 -1.52397 0
M  V30 2986 H 270.215 3.22783 -0.49785 0
M  V30 2987 H 268.874 2.63688 -2.54684 0
M  V30 2988 H 268.522 4.83128 -1.39988 0
M  V30 2989 H 268.222 4.95956 -3.15122 0
M  V30 2990 H 269.746 5.58762 -2.46205 0
M  V30 2991 H 271.16 4.01051 -4.09672 0
M  V30 2992 H 269.557 3.62104 -4.7854 0
M  V30 2993 H 270.627 2.30669 -4.2652 0
M  V30 2994 N 271.97 1.30982 0.876444 0
M  V30 2995 C 273.195 1.23373 1.66715 0
M  V30 2996 C 273.62 -0.19885 1.87046 0
M  V30 2997 O 272.978 -1.1427 1.40756 0
M  V30 2998 C 273.026 1.97644 3.01611 0
M  V30 2999 O 272.13 1.30935 3.91062 0
M  V30 3000 H 271.471 0.426279 0.509099 0
M  V30 3001 H 274.001 1.72944 1.09323 0
M  V30 3002 H 274.011 2.06992 3.51594 0
M  V30 3003 H 272.686 3.01829 2.86133 0
M  V30 3004 H 271.263 1.29996 3.49507 0
M  V30 3005 N 273.449 -1.08991 1.13837 0
M  V30 3006 C 274.697 -1.80899 0.901098 0
M  V30 3007 C 275.018 -1.86356 -0.574134 0
M  V30 3008 O 274.288 -1.35235 -1.41733 0
M  V30 3009 H 272.868 -0.669966 0.330386 0
M  V30 3010 H 275.53 -1.318 1.43578 0
M  V30 3011 H 274.626 -2.83929 1.29578 0
M  V30 3012 N 274.927 -0.932562 -1.27047 0
M  V30 3013 C 276.157 -0.591173 -1.97961 0
M  V30 3014 C 276.565 0.836219 -1.69717 0
M  V30 3015 O 275.908 1.56801 -0.957036 0
M  V30 3016 C 275.97 -0.743082 -3.51736 0
M  V30 3017 C 275.634 -2.1435 -4.03613 0
M  V30 3018 C 276.631 -3.11815 -4.16014 0
M  V30 3019 C 274.316 -2.46175 -4.37839 0
M  V30 3020 C 276.31 -4.39211 -4.61923 0
M  V30 3021 C 273.997 -3.73806 -4.83438 0
M  V30 3022 C 274.995 -4.70137 -4.95439 0
M  V30 3023 O 274.683 -5.95496 -5.40037 0
M  V30 3024 H 274.415 -0.222375 -0.638377 0
M  V30 3025 H 276.969 -1.25317 -1.62742 0
M  V30 3026 H 275.199 -0.0239739 -3.86693 0
M  V30 3027 H 276.888 -0.40603 -4.03864 0
M  V30 3028 H 277.654 -2.88549 -3.89826 0
M  V30 3029 H 273.533 -1.71936 -4.27737 0
M  V30 3030 H 277.077 -5.14404 -4.71205 0
M  V30 3031 H 272.974 -3.96888 -5.09068 0
M  V30 3032 H 273.742 -5.98554 -5.58279 0
M  V30 3033 N 276.405 1.4127 -0.698611 0
M  V30 3034 C 277.651 2.01478 -0.231207 0
M  V30 3035 C 277.984 1.55215 1.16713 0
M  V30 3036 O 277.259 0.764672 1.78838 0
M  V30 3037 C 277.542 3.58912 -0.292281 0
M  V30 3038 C 277.395 4.15293 -1.72778 0
M  V30 3039 C 278.714 4.38736 0.346194 0
M  V30 3040 H 275.833 0.732025 -0.0854878 0
M  V30 3041 H 278.475 1.67977 -0.887906 0
M  V30 3042 H 276.625 3.87582 0.26686 0
M  V30 3043 H 278.297 3.97486 -2.341 0
M  V30 3044 H 276.54 3.7022 -2.26096 0
M  V30 3045 H 277.211 5.24452 -1.72202 0
M  V30 3046 H 279.687 4.15897 -0.130035 0
M  V30 3047 H 278.563 5.48221 0.272932 0
M  V30 3048 H 278.824 4.18425 1.42734 0
M  V30 3049 N 277.883 0.443576 1.51229 0
M  V30 3050 C 278.815 -0.400608 2.25672 0
M  V30 3051 C 279.828 -0.980945 1.29928 0
M  V30 3052 O 281.017 -0.874024 1.55638 0
M  V30 3053 C 278.117 -1.57304 3.00181 0
M  V30 3054 C 277.29 -1.11046 4.23069 0
M  V30 3055 C 276.349 -2.15374 4.80105 0
M  V30 3056 O 275.375 -1.74554 5.41774 0
M  V30 3057 N 276.577 -3.47922 4.64683 0
M  V30 3058 H 279.342 0.23745 2.98758 0
M  V30 3059 H 276.903 0.272809 1.59585 0
M  V30 3060 H 278.895 -2.26733 3.35223 0
M  V30 3061 H 277.465 -2.11632 2.30066 0
M  V30 3062 H 276.685 -0.243019 3.9345 0
M  V30 3063 H 277.973 -0.778888 5.02803 0
M  V30 3064 H 277.371 -3.83815 4.15575 0
M  V30 3065 H 275.928 -4.13228 5.0407 0
M  V30 3066 N 279.361 -1.56624 0.175154 0
M  V30 3067 C 280.293 -2.15333 -0.785128 0
M  V30 3068 C 281.306 -1.1099 -1.19101 0
M  V30 3069 O 282.495 -1.38162 -1.13019 0
M  V30 3070 C 279.595 -2.68427 -2.06882 0
M  V30 3071 C 278.768 -3.97466 -1.8259 0
M  V30 3072 C 277.827 -4.35585 -2.95215 0
M  V30 3073 O 276.853 -5.03389 -2.65684 0
M  V30 3074 N 278.055 -3.97457 -4.23094 0
M  V30 3075 H 280.82 -2.98359 -0.283187 0
M  V30 3076 H 278.381 -1.61898 -0.00749817 0
M  V30 3077 H 280.373 -2.90924 -2.81328 0
M  V30 3078 H 278.943 -1.89968 -2.48256 0
M  V30 3079 H 278.163 -3.83307 -0.920287 0
M  V30 3080 H 279.451 -4.81736 -1.63733 0
M  V30 3081 H 278.849 -3.42878 -4.49945 0
M  V30 3082 H 277.406 -4.24947 -4.9423 0
M  V30 3083 N 280.839 0.0985539 -1.57292 0
M  V30 3084 C 281.786 1.11981 -2.01814 0
M  V30 3085 C 282.756 1.39999 -0.89384 0
M  V30 3086 O 283.941 1.5152 -1.15958 0
M  V30 3087 C 281.081 2.43577 -2.44467 0
M  V30 3088 C 280.194 2.2232 -3.70402 0
M  V30 3089 C 279.329 3.4729 -4.01949 0
M  V30 3090 C 278.368 3.2128 -5.21005 0
M  V30 3091 N 277.505 4.38507 -5.48321 0
M  V30 3092 H 282.345 0.733149 -2.88841 0
M  V30 3093 H 279.882 0.350482 -1.42864 0
M  V30 3094 H 281.84 3.20373 -2.6724 0
M  V30 3095 H 280.47 2.80097 -1.60455 0
M  V30 3096 H 279.522 1.36343 -3.55126 0
M  V30 3097 H 280.834 1.99089 -4.57345 0
M  V30 3098 H 279.988 4.32495 -4.25479 0
M  V30 3099 H 278.727 3.73572 -3.13521 0
M  V30 3100 H 277.732 2.34468 -4.97298 0
M  V30 3101 H 278.957 2.96348 -6.11028 0
M  V30 3102 H 276.903 4.64871 -4.62851 0
M  V30 3103 H 276.82 4.18455 -6.29628 0
M  V30 3104 H 278.088 5.24787 -5.76385 0
M  V30 3105 N 282.317 1.53212 0.369288 0
M  V30 3106 C 283.564 1.69215 1.11232 0
M  V30 3107 C 283.892 0.442048 1.8941 0
M  V30 3108 O 283.147 -0.575944 1.87033 0
M  V30 3109 C 283.446 2.89101 2.10132 0
M  V30 3110 C 283.112 4.25758 1.48463 0
M  V30 3111 C 281.774 4.6292 1.31372 0
M  V30 3112 C 284.126 5.10757 1.03811 0
M  V30 3113 C 281.454 5.82722 0.68207 0
M  V30 3114 C 283.806 6.31201 0.420487 0
M  V30 3115 C 282.47 6.67079 0.237038 0
M  V30 3116 H 281.74 0.619201 0.407027 0
M  V30 3117 H 284.387 1.87391 0.394552 0
M  V30 3118 H 282.692 2.65421 2.88199 0
M  V30 3119 H 284.389 2.98676 2.6757 0
M  V30 3120 H 280.979 3.96494 1.62758 0
M  V30 3121 H 285.163 4.82599 1.1581 0
M  V30 3122 H 280.419 6.09113 0.528316 0
M  V30 3123 H 284.593 6.96368 0.0662874 0
M  V30 3124 H 282.22 7.59774 -0.254477 0
M  V30 3125 N 283.795 -0.628877 1.44509 0
M  V30 3126 C 285.02 -1.42048 1.5112 0
M  V30 3127 C 285.445 -1.87594 0.137818 0
M  V30 3128 O 284.803 -1.58873 -0.873437 0
M  V30 3129 C 284.851 -2.61541 2.48251 0
M  V30 3130 O 283.955 -3.61453 1.98559 0
M  V30 3131 H 283.296 -0.424942 0.510216 0
M  V30 3132 H 285.826 -0.767374 1.89664 0
M  V30 3133 H 285.836 -3.09057 2.66361 0
M  V30 3134 H 284.511 -2.27736 3.48007 0
M  V30 3135 H 283.088 -3.20731 1.90227 0
M  V30 3136 N 285.273 -1.31445 -0.869486 0
M  V30 3137 C 286.521 -1.20918 -1.61936 0
M  V30 3138 C 286.842 0.232683 -1.93607 0
M  V30 3139 O 286.112 1.15352 -1.58338 0
M  V30 3140 H 284.692 -0.44454 -0.600328 0
M  V30 3141 H 287.354 -1.64776 -1.0409 0
M  V30 3142 H 286.45 -1.78124 -2.56278 0
M  V30 3143 N 286.751 1.08385 -1.14413 0
M  V30 3144 C 288.162 1.62258 -0.923535 0
M  V30 3145 C 288.513 1.88691 0.537595 0
M  V30 3146 O 287.638 1.64454 1.40655 0
M  V30 3147 C 288.233 2.94781 -1.67002 0
M  V30 3148 C 286.792 3.45437 -1.495 0
M  V30 3149 C 285.939 2.19668 -1.69238 0
M  V30 3150 H 288.89 0.916086 -1.2959 0
M  V30 3151 H 288.911 3.63229 -1.13334 0
M  V30 3152 H 288.423 2.7551 -2.73342 0
M  V30 3153 H 286.524 3.6981 -0.455097 0
M  V30 3154 H 286.637 4.22173 -2.2651 0
M  V30 3155 H 285.001 2.28849 -1.11804 0
M  V30 3156 H 285.784 2.02905 -2.7692 0
M  V30 3157 N 288.23 0.939286 1.26551 0
M  V30 3158 C 289.476 0.596234 1.94465 0
M  V30 3159 C 289.831 -0.855013 1.72358 0
M  V30 3160 O 289.124 -1.6034 1.04889 0
M  V30 3161 C 289.318 0.872106 3.46596 0
M  V30 3162 C 289.147 2.34862 3.83497 0
M  V30 3163 C 287.917 3.00344 4.06352 0
M  V30 3164 C 290.115 3.32697 3.92195 0
M  V30 3165 N 288.097 4.38027 4.30123 0
M  V30 3166 C 289.468 4.55631 4.20476 0
M  V30 3167 C 291.523 3.27747 3.74815 0
M  V30 3168 C 290.226 5.74233 4.33185 0
M  V30 3169 C 292.252 4.45672 3.88755 0
M  V30 3170 C 291.614 5.67388 4.17433 0
M  V30 3171 H 287.713 0.268515 0.734455 0
M  V30 3172 H 290.297 1.2083 1.5267 0
M  V30 3173 H 288.468 0.289102 3.87323 0
M  V30 3174 H 290.2 0.490513 4.01716 0
M  V30 3175 H 286.955 2.50969 4.01636 0
M  V30 3176 H 287.379 5.09288 4.46044 0
M  V30 3177 H 292.021 2.34703 3.51673 0
M  V30 3178 H 289.739 6.67731 4.55149 0
M  V30 3179 H 293.325 4.43372 3.76713 0
M  V30 3180 H 292.205 6.57115 4.27983 0
M  V30 3181 N 289.708 -1.40897 0.706093 0
M  V30 3182 C 290.955 -2.01054 0.241531 0
M  V30 3183 C 291.283 -1.55956 -1.16223 0
M  V30 3184 O 290.538 -0.766336 -1.80072 0
M  V30 3185 C 290.837 -3.5646 0.259099 0
M  V30 3186 C 290.503 -4.21106 1.61184 0
M  V30 3187 C 289.165 -4.38479 1.98216 0
M  V30 3188 C 291.517 -4.57256 2.50132 0
M  V30 3189 C 288.845 -4.89282 3.2376 0
M  V30 3190 C 291.197 -5.09454 3.7502 0
M  V30 3191 C 289.861 -5.25037 4.12181 0
M  V30 3192 H 289.131 -0.73571 0.0883825 0
M  V30 3193 H 291.778 -1.68645 0.907257 0
M  V30 3194 H 290.083 -3.88721 -0.490189 0
M  V30 3195 H 291.78 -4.00826 -0.11804 0
M  V30 3196 H 288.37 -4.07966 1.31384 0
M  V30 3197 H 292.554 -4.43479 2.228 0
M  V30 3198 H 287.81 -4.99531 3.52532 0
M  V30 3199 H 291.984 -5.36404 4.44121 0
M  V30 3200 H 289.611 -5.64164 5.09532 0
M  V30 3201 N 291.186 -0.45159 -1.50991 0
M  V30 3202 C 292.434 0.109857 -2.01801 0
M  V30 3203 C 292.755 1.41958 -1.3369 0
M  V30 3204 O 292.025 1.9003 -0.475951 0
M  V30 3205 H 290.605 0.0435884 -0.745727 0
M  V30 3206 H 293.267 -0.597557 -1.85514 0
M  V30 3207 H 292.363 0.275489 -3.10882 0
M  V30 3208 N 292.664 1.56529 -0.183458 0
M  V30 3209 C 293.912 1.96855 0.457452 0
M  V30 3210 C 294.233 1.07104 1.62953 0
M  V30 3211 O 293.503 0.139887 1.954 0
M  V30 3212 H 292.083 0.72693 0.171992 0
M  V30 3213 H 294.745 1.93056 -0.267476 0
M  V30 3214 H 293.841 3.01423 0.809368 0
M  V30 3215 N 294.142 -0.090211 1.57342 0
M  V30 3216 C 295.072 -1.10976 2.05443 0
M  V30 3217 C 296.053 -1.41482 0.944284 0
M  V30 3218 O 297.238 -1.51428 1.21586 0
M  V30 3219 C 294.368 -2.42831 2.48295 0
M  V30 3220 C 293.322 -2.26721 3.63018 0
M  V30 3221 C 292.648 -3.63796 3.91863 0
M  V30 3222 C 293.948 -1.7037 4.93732 0
M  V30 3223 H 295.642 -0.709564 2.9087 0
M  V30 3224 H 293.188 -0.339874 1.39932 0
M  V30 3225 H 295.141 -3.14431 2.80555 0
M  V30 3226 H 293.865 -2.84795 1.59873 0
M  V30 3227 H 292.524 -1.57565 3.31012 0
M  V30 3228 H 292.172 -4.03297 3.00601 0
M  V30 3229 H 291.872 -3.53861 4.69101 0
M  V30 3230 H 293.396 -4.36855 4.26603 0
M  V30 3231 H 294.81 -2.31816 5.24342 0
M  V30 3232 H 293.207 -1.71181 5.75167 0
M  V30 3233 H 294.277 -0.663542 4.80339 0
M  V30 3234 N 295.62 -1.53406 -0.361157 0
M  V30 3235 C 296.845 -1.74024 -1.12829 0
M  V30 3236 C 297.27 -0.470069 -1.82132 0
M  V30 3237 O 296.628 0.57619 -1.719 0
M  V30 3238 C 296.676 -2.90903 -2.13091 0
M  V30 3239 O 295.78 -2.59821 -3.20261 0
M  V30 3240 H 295.121 -0.577804 -0.327168 0
M  V30 3241 H 297.651 -2.00307 -0.41693 0
M  V30 3242 H 297.661 -3.17194 -2.56616 0
M  V30 3243 H 296.336 -3.83034 -1.62042 0
M  V30 3244 H 294.913 -2.44362 -2.81677 0
M  V30 3245 N 297.098 0.621204 -1.44841 0
M  V30 3246 C 298.346 1.37783 -1.47852 0
M  V30 3247 C 298.667 1.94653 -0.116224 0
M  V30 3248 O 297.937 1.76367 0.852737 0
M  V30 3249 H 296.517 0.511453 -0.544449 0
M  V30 3250 H 299.179 0.730446 -1.80694 0
M  V30 3251 H 298.275 2.20414 -2.20961 0
M  V30 3252 N 298.576 1.31904 0.862503 0
M  V30 3253 C 299.822 1.22197 1.61851 0
M  V30 3254 C 300.155 -0.217641 1.92977 0
M  V30 3255 O 299.43 -1.15264 1.56666 0
M  V30 3256 C 299.713 2.07378 2.94391 0
M  V30 3257 C 299.566 3.59678 2.70096 0
M  V30 3258 C 300.885 1.92891 3.95577 0
M  V30 3259 H 298.004 0.445255 0.587296 0
M  V30 3260 H 300.646 1.6177 0.99651 0
M  V30 3261 H 298.796 1.73758 3.47477 0
M  V30 3262 H 300.468 4.03472 2.23625 0
M  V30 3263 H 298.711 3.82735 2.04197 0
M  V30 3264 H 299.382 4.14595 3.64438 0
M  V30 3265 H 301.858 2.22327 3.51724 0
M  V30 3266 H 300.734 2.54781 4.86187 0
M  V30 3267 H 300.995 0.894315 4.3296 0
M  V30 3268 N 300.054 -1.07777 1.14986 0
M  V30 3269 C 301.3 -1.80557 0.923422 0
M  V30 3270 C 301.633 -1.86298 -0.548337 0
M  V30 3271 O 300.908 -1.34354 -1.40639 0
M  V30 3272 C 301.191 -3.25839 1.53299 0
M  V30 3273 C 301.044 -3.28269 3.07505 0
M  V30 3274 C 302.363 -4.22991 1.21518 0
M  V30 3275 H 299.482 -0.655493 0.336894 0
M  V30 3276 H 302.124 -1.26144 1.42083 0
M  V30 3277 H 300.274 -3.72306 1.10999 0
M  V30 3278 H 301.946 -2.90079 3.58681 0
M  V30 3279 H 300.189 -2.67355 3.4162 0
M  V30 3280 H 300.86 -4.30691 3.45266 0
M  V30 3281 H 303.336 -3.84894 1.581 0
M  V30 3282 H 302.212 -5.22945 1.66793 0
M  V30 3283 H 302.473 -4.41904 0.131505 0
M  V30 3284 N 301.532 -0.945985 -1.26051 0
M  V30 3285 C 302.762 -0.612136 -1.97323 0
M  V30 3286 C 303.17 0.818171 -1.70595 0
M  V30 3287 O 302.513 1.55777 -0.973613 0
M  V30 3288 C 302.575 -0.780347 -3.50929 0
M  V30 3289 C 302.239 -2.18619 -4.01317 0
M  V30 3290 C 303.236 -3.16209 -4.12683 0
M  V30 3291 C 300.921 -2.50805 -4.35203 0
M  V30 3292 C 302.915 -4.44085 -4.57238 0
M  V30 3293 C 300.602 -3.78912 -4.79446 0
M  V30 3294 C 301.6 -4.75365 -4.90425 0
M  V30 3295 O 301.288 -6.01191 -5.3369 0
M  V30 3296 H 301.02 -0.229134 -0.635982 0
M  V30 3297 H 303.574 -1.27036 -1.61404 0
M  V30 3298 H 301.804 -0.0649864 -3.86645 0
M  V30 3299 H 303.493 -0.448842 -4.03411 0
M  V30 3300 H 304.259 -2.92668 -3.86744 0
M  V30 3301 H 300.138 -1.76463 -4.2589 0
M  V30 3302 H 303.682 -5.19373 -4.65723 0
M  V30 3303 H 299.579 -4.02265 -5.0483 0
M  V30 3304 H 300.347 -6.04442 -5.51899 0
M  V30 3305 N 303.011 1.40521 -0.713556 0
M  V30 3306 C 303.974 2.29098 -0.0684347 0
M  V30 3307 C 304.974 1.45268 0.689472 0
M  V30 3308 O 306.164 1.66205 0.521677 0
M  V30 3309 C 303.296 3.28446 0.913024 0
M  V30 3310 H 304.489 2.87645 -0.84855 0
M  V30 3311 H 302.042 1.48809 -0.47809 0
M  V30 3312 H 302.777 2.74913 1.72027 0
M  V30 3313 H 302.562 3.90327 0.372472 0
M  V30 3314 H 304.052 3.94777 1.36165 0
M  V30 3315 N 304.489 0.459591 1.5075 0
M  V30 3316 C 305.419 -0.330644 2.31147 0
M  V30 3317 C 306.4 -1.00087 1.37538 0
M  V30 3318 O 307.585 -1.00025 1.66459 0
M  V30 3319 C 304.715 -1.41958 3.16962 0
M  V30 3320 C 303.669 -0.871608 4.19031 0
M  V30 3321 C 302.995 -2.05797 4.9351 0
M  V30 3322 C 304.295 0.109251 5.22186 0
M  V30 3323 H 305.989 0.340336 2.97459 0
M  V30 3324 H 303.535 0.165119 1.4305 0
M  V30 3325 H 305.488 -1.9798 3.71997 0
M  V30 3326 H 304.212 -2.11917 2.48513 0
M  V30 3327 H 302.871 -0.333442 3.6508 0
M  V30 3328 H 302.519 -2.74427 4.21544 0
M  V30 3329 H 302.219 -1.6976 5.62544 0
M  V30 3330 H 303.743 -2.62331 5.51375 0
M  V30 3331 H 305.157 -0.361405 5.7216 0
M  V30 3332 H 303.554 0.383316 5.98875 0
M  V30 3333 H 304.624 1.03887 4.73641 0
M  V30 3334 N 305.967 -1.56429 0.191757 0
M  V30 3335 C 306.9 -2.14829 -0.76967 0
M  V30 3336 C 307.878 -1.08405 -1.2119 0
M  V30 3337 O 309.062 -1.36498 -1.30002 0
M  V30 3338 C 306.189 -2.70446 -2.03903 0
M  V30 3339 C 305.235 -3.89428 -1.7392 0
M  V30 3340 S 306.068 -5.28048 -0.890265 0
M  V30 3341 C 307.224 -5.87085 -2.16984 0
M  V30 3342 H 307.457 -2.96042 -0.273204 0
M  V30 3343 H 304.99 -1.54383 -0.0231975 0
M  V30 3344 H 306.948 -3.03134 -2.76803 0
M  V30 3345 H 305.609 -1.89281 -2.50662 0
M  V30 3346 H 304.802 -4.26742 -2.68155 0
M  V30 3347 H 304.404 -3.57732 -1.09103 0
M  V30 3348 H 306.696 -6.01244 -3.12269 0
M  V30 3349 H 307.639 -6.83747 -1.84108 0
M  V30 3350 H 308.047 -5.15663 -2.29678 0
M  V30 3351 N 307.445 0.0818655 -1.57387 0
M  V30 3352 C 308.693 0.781368 -1.86384 0
M  V30 3353 C 309.014 1.78618 -0.782342 0
M  V30 3354 O 308.284 1.94976 0.190061 0
M  V30 3355 H 306.864 0.291562 -0.687751 0
M  V30 3356 H 309.526 0.060348 -1.94807 0
M  V30 3357 H 308.622 1.3038 -2.83562 0
M  V30 3358 N 308.923 1.53595 0.353017 0
M  V30 3359 C 310.153 1.74058 1.11299 0
M  V30 3360 C 310.561 0.475205 1.83135 0
M  V30 3361 O 309.904 -0.562344 1.74881 0
M  V30 3362 C 309.966 2.85994 2.17825 0
M  V30 3363 C 309.63 4.25923 1.65647 0
M  V30 3364 C 310.627 5.07829 1.11383 0
M  V30 3365 C 308.312 4.72377 1.7078 0
M  V30 3366 C 310.306 6.34285 0.629439 0
M  V30 3367 C 307.993 5.98808 1.21953 0
M  V30 3368 C 308.991 6.79594 0.681265 0
M  V30 3369 O 308.679 8.03651 0.200248 0
M  V30 3370 H 308.411 0.585327 0.338183 0
M  V30 3371 H 310.965 2.01186 0.413927 0
M  V30 3372 H 309.195 2.54368 2.91262 0
M  V30 3373 H 310.884 2.94515 2.79313 0
M  V30 3374 H 311.65 4.73107 1.06746 0
M  V30 3375 H 307.529 4.0956 2.11617 0
M  V30 3376 H 311.073 6.97288 0.208636 0
M  V30 3377 H 306.97 6.33026 1.26287 0
M  V30 3378 H 307.738 8.1788 0.318416 0
M  V30 3379 N 310.401 -0.613514 1.45168 0
M  V30 3380 C 311.647 -1.37471 1.49096 0
M  V30 3381 C 311.98 -1.93765 0.129901 0
M  V30 3382 O 311.255 -1.74707 -0.854858 0
M  V30 3383 C 311.538 -2.52701 2.56542 0
M  V30 3384 C 311.391 -2.01643 4.0207 0
M  V30 3385 C 312.71 -3.54849 2.60327 0
M  V30 3386 H 309.829 -0.498502 0.54283 0
M  V30 3387 H 312.471 -0.692125 1.76945 0
M  V30 3388 H 310.621 -3.10931 2.32926 0
M  V30 3389 H 312.293 -1.48108 4.36877 0
M  V30 3390 H 310.536 -1.32688 4.13009 0
M  V30 3391 H 311.207 -2.84681 4.72928 0
M  V30 3392 H 313.683 -3.0645 2.81474 0
M  V30 3393 H 312.559 -4.32973 3.37381 0
M  V30 3394 H 312.82 -4.10079 1.6519 0
M  V30 3395 N 311.879 -1.3236 -0.855495 0
M  V30 3396 C 313.125 -1.24064 -1.61182 0
M  V30 3397 C 313.48 0.195914 -1.914 0
M  V30 3398 O 312.773 1.13345 -1.54478 0
M  V30 3399 C 312.967 -2.03275 -2.93963 0
M  V30 3400 C 312.796 -3.54486 -2.76712 0
M  V30 3401 C 311.566 -4.23824 -2.75139 0
M  V30 3402 C 313.764 -4.49154 -2.50531 0
M  V30 3403 N 311.746 -5.61095 -2.4909 0
M  V30 3404 C 313.117 -5.74195 -2.3388 0
M  V30 3405 C 315.172 -4.3842 -2.35992 0
M  V30 3406 C 313.875 -6.89716 -2.04168 0
M  V30 3407 C 315.901 -5.53739 -2.0767 0
M  V30 3408 C 315.263 -6.77779 -1.9182 0
M  V30 3409 H 311.362 -0.509139 -0.59355 0
M  V30 3410 H 313.946 -1.66715 -1.00569 0
M  V30 3411 H 312.117 -1.6297 -3.52555 0
M  V30 3412 H 313.849 -1.86881 -3.58967 0
M  V30 3413 H 310.604 -3.75934 -2.88047 0
M  V30 3414 H 311.028 -6.33411 -2.38996 0
M  V30 3415 H 315.67 -3.43172 -2.46967 0
M  V30 3416 H 313.388 -7.84977 -1.9193 0
M  V30 3417 H 316.974 -5.4736 -1.97201 0
M  V30 3418 H 315.854 -7.65504 -1.70217 0
M  V30 3419 N 313.357 1.07166 -1.15556 0
M  V30 3420 C 314.287 2.16403 -0.877046 0
M  V30 3421 C 315.268 1.69217 0.173111 0
M  V30 3422 O 316.453 1.94181 0.027084 0
M  V30 3423 C 313.583 3.45349 -0.367632 0
M  V30 3424 C 312.537 4.05995 -1.35468 0
M  V30 3425 C 311.863 5.30045 -0.704038 0
M  V30 3426 C 313.163 4.45804 -2.72132 0
M  V30 3427 H 314.857 2.39959 -1.79053 0
M  V30 3428 H 312.403 1.15325 -0.862331 0
M  V30 3429 H 314.356 4.21095 -0.160317 0
M  V30 3430 H 313.08 3.21385 0.581326 0
M  V30 3431 H 311.739 3.32296 -1.54839 0
M  V30 3432 H 311.387 5.02373 0.251128 0
M  V30 3433 H 311.087 5.71579 -1.36277 0
M  V30 3434 H 312.611 6.08495 -0.50654 0
M  V30 3435 H 314.025 5.12671 -2.56595 0
M  V30 3436 H 312.422 4.98296 -3.34397 0
M  V30 3437 H 313.492 3.57083 -3.28054 0
M  V30 3438 N 314.835 0.952656 1.25548 0
M  V30 3439 C 316.251 0.656769 1.4546 0
M  V30 3440 C 316.451 -0.78633 1.85524 0
M  V30 3441 O 315.507 -1.56183 1.98402 0
M  V30 3442 C 316.82 1.62801 2.52817 0
M  V30 3443 C 318.368 1.63897 2.66659 0
M  V30 3444 C 318.843 2.5978 3.77198 0
M  V30 3445 N 320.334 2.58133 3.84606 0
M  V30 3446 C 321.069 3.29003 4.69621 0
M  V30 3447 N 320.565 4.09339 5.58939 0
M  V30 3448 N 322.358 3.179 4.63569 0
M  V30 3449 H 314.509 1.88526 0.978344 0
M  V30 3450 H 316.772 0.810815 0.491206 0
M  V30 3451 H 316.478 2.65869 2.30232 0
M  V30 3452 H 316.352 1.38898 3.50695 0
M  V30 3453 H 318.739 0.615481 2.8861 0
M  V30 3454 H 318.82 1.91858 1.69187 0
M  V30 3455 H 318.464 3.62254 3.55997 0
M  V30 3456 H 318.394 2.29105 4.7415 0
M  V30 3457 H 320.885 1.99809 3.20757 0
M  V30 3458 H 321.198 4.6034 6.20731 0
M  V30 3459 H 319.543 4.13438 5.58654 0
M  V30 3460 H 322.734 2.54612 3.92798 0
M  V30 3461 H 322.907 3.73398 5.29602 0
M  V30 3462 N 316.313 -1.40141 0.720998 0
M  V30 3463 C 317.561 -2.0039 0.262323 0
M  V30 3464 C 317.882 -1.57469 -1.15015 0
M  V30 3465 O 317.152 -0.816582 -1.78069 0
M  V30 3466 H 315.732 -0.741063 0.093996 0
M  V30 3467 H 318.394 -1.71398 0.927835 0
M  V30 3468 H 317.49 -3.10658 0.299671 0
M  V30 3469 N 317.792 -0.46758 -1.50504 0
M  V30 3470 C 318.702 0.33382 -2.32213 0
M  V30 3471 C 319.718 0.999323 -1.42441 0
M  V30 3472 O 320.894 0.988068 -1.75497 0
M  V30 3473 C 317.959 1.4035 -3.17022 0
M  V30 3474 C 317.02 0.754961 -4.2261 0
M  V30 3475 C 316.253 1.77367 -5.03365 0
M  V30 3476 O 316.476 2.99976 -4.8515 0
M  V30 3477 O 315.41 1.34744 -5.86624 0
M  V30 3478 H 319.236 -0.334067 -3.01857 0
M  V30 3479 H 316.821 -0.229496 -1.47627 0
M  V30 3480 H 318.703 2.02318 -3.69656 0
M  V30 3481 H 317.378 2.05492 -2.5011 0
M  V30 3482 H 316.285 0.0964244 -3.73976 0
M  V30 3483 H 317.618 0.146545 -4.91982 0
M  V30 3484 N 319.27 1.56325 -0.20005 0
M  V30 3485 C 320.686 1.58839 0.155716 0
M  V30 3486 C 320.886 1.21636 1.60645 0
M  V30 3487 O 319.942 0.941437 2.34293 0
M  V30 3488 C 321.255 3.0032 -0.151124 0
M  V30 3489 C 322.803 3.12866 -0.0916284 0
M  V30 3490 C 323.278 4.56488 -0.371845 0
M  V30 3491 N 324.769 4.62089 -0.320641 0
M  V30 3492 C 325.504 5.71116 -0.511243 0
M  V30 3493 N 325 6.88592 -0.762461 0
M  V30 3494 N 326.793 5.60335 -0.445157 0
M  V30 3495 H 318.944 1.78788 -1.14668 0
M  V30 3496 H 321.207 0.829996 -0.458051 0
M  V30 3497 H 320.913 3.32117 -1.15721 0
M  V30 3498 H 320.787 3.73257 0.543986 0
M  V30 3499 H 323.174 2.80878 0.905065 0
M  V30 3500 H 323.255 2.42304 -0.81989 0
M  V30 3501 H 322.899 4.89189 -1.36588 0
M  V30 3502 H 322.829 5.25246 0.377362 0
M  V30 3503 H 325.32 3.77665 -0.13329 0
M  V30 3504 H 325.633 7.67581 -0.896576 0
M  V30 3505 H 323.978 6.90387 -0.799412 0
M  V30 3506 H 327.169 4.67436 -0.249278 0
M  V30 3507 H 327.342 6.45243 -0.597116 0
M  V30 3508 N 320.748 -0.0735177 1.57428 0
M  V30 3509 C 322.025 -0.805903 1.78226 0
M  V30 3510 C 322.405 -1.95874 0.787189 0
M  V30 3511 O 321.753 -2.2779 -0.180029 0
M  V30 3512 C 321.963 -1.28045 3.24662 0
M  V30 3513 C 323.311 -1.71453 3.88444 0
M  V30 3514 O 324.335 -1.37616 3.28543 0
M  V30 3515 O 323.194 -2.34093 4.93825 0
M  V30 3516 H 320.288 -0.386041 0.73137 0
M  V30 3517 H 322.834 -0.0537269 1.69615 0
M  V30 3518 H 321.606 -0.455476 3.8864 0
M  V30 3519 H 321.229 -2.094 3.37991 0
M  V30 3520 N 322.226 -1.5378 -0.344866 0
M  V30 3521 C 323.637 -1.62428 -0.920552 0
M  V30 3522 C 323.988 -0.504747 -1.89596 0
M  V30 3523 O 323.113 0.365711 -2.13287 0
M  V30 3524 C 323.708 -2.94419 -1.67639 0
M  V30 3525 C 322.267 -3.05333 -2.20111 0
M  V30 3526 C 321.414 -2.57866 -1.01982 0
M  V30 3527 H 324.365 -1.58222 -0.123042 0
M  V30 3528 H 324.386 -2.83384 -2.53917 0
M  V30 3529 H 323.898 -3.7588 -0.966224 0
M  V30 3530 H 321.999 -2.28502 -2.94308 0
M  V30 3531 H 322.112 -4.10778 -2.46573 0
M  V30 3532 H 320.476 -2.13241 -1.39285 0
M  V30 3533 H 321.259 -3.41765 -0.324308 0
M  V30 3534 N 323.704 0.605807 -1.45491 0
M  V30 3535 C 324.636 1.73031 -1.5031 0
M  V30 3536 C 325.649 1.57968 -0.393687 0
M  V30 3537 O 326.838 1.65817 -0.660839 0
M  V30 3538 C 323.938 3.11049 -1.34543 0
M  V30 3539 C 323.111 3.52334 -2.59189 0
M  V30 3540 C 322.17 4.69323 -2.37954 0
M  V30 3541 O 321.196 4.7635 -3.11575 0
M  V30 3542 N 322.398 5.62705 -1.4263 0
M  V30 3543 H 325.163 1.6936 -2.4726 0
M  V30 3544 H 322.724 0.79114 -1.41254 0
M  V30 3545 H 324.716 3.87071 -1.18144 0
M  V30 3546 H 323.286 3.09217 -0.458623 0
M  V30 3547 H 322.506 2.66256 -2.90691 0
M  V30 3548 H 323.794 3.76677 -3.42041 0
M  V30 3549 H 323.192 5.59744 -0.818758 0
M  V30 3550 H 321.749 6.38252 -1.32202 0
M  V30 3551 N 325.182 1.32811 0.848464 0
M  V30 3552 C 326.407 1.26882 1.6406 0
M  V30 3553 C 326.832 -0.15913 1.87426 0
M  V30 3554 O 326.19 -1.11258 1.43148 0
M  V30 3555 C 326.238 2.03997 2.97351 0
M  V30 3556 O 325.342 1.39201 3.88197 0
M  V30 3557 H 324.683 0.436982 0.499943 0
M  V30 3558 H 327.213 1.75224 1.0563 0
M  V30 3559 H 327.223 2.14403 3.47124 0
M  V30 3560 H 325.898 3.0783 2.79666 0
M  V30 3561 H 324.475 1.37381 3.46671 0
M  V30 3562 N 326.66 -1.06551 1.16123 0
M  V30 3563 C 327.908 -1.78947 0.939267 0
M  V30 3564 C 328.229 -1.87532 -0.534476 0
M  V30 3565 O 327.499 -1.38211 -1.38833 0
M  V30 3566 H 326.079 -0.662807 0.344523 0
M  V30 3567 H 328.741 -1.28725 1.46342 0
M  V30 3568 H 327.837 -2.81117 1.35572 0
M  V30 3569 N 328.138 -0.959301 -1.25041 0
M  V30 3570 C 329.387 -0.612254 -1.92183 0
M  V30 3571 C 329.7 0.855347 -1.75907 0
M  V30 3572 O 330.906 1.31256 -2.37664 0
M  V30 3573 C 329.362 -1.04435 -3.44414 0
M  V30 3574 C 328.97 -2.53482 -3.69393 0
M  V30 3575 C 330.714 -0.770055 -4.17457 0
M  V30 3576 C 328.621 -2.90468 -5.15153 0
M  V30 3577 H 327.551 -0.225279 -0.719559 0
M  V30 3578 H 330.202 -1.16438 -1.41825 0
M  V30 3579 H 328.584 -0.4206 -3.9376 0
M  V30 3580 H 329.758 -3.20916 -3.30681 0
M  V30 3581 H 328.073 -2.78432 -3.0962 0
M  V30 3582 H 330.67 -1.02249 -5.24832 0
M  V30 3583 H 331.013 0.293611 -4.15263 0
M  V30 3584 H 331.546 -1.35437 -3.74034 0
M  V30 3585 H 328.285 -3.95871 -5.22462 0
M  V30 3586 H 327.805 -2.27711 -5.54894 0
M  V30 3587 H 329.484 -2.79914 -5.83315 0
M  V30 3588 N 329.616 1.39756 -0.72842 0
M  V30 3589 C 330.846 2.04651 -0.283117 0
M  V30 3590 C 331.254 1.5502 1.08469 0
M  V30 3591 O 330.597 0.707343 1.69536 0
M  V30 3592 C 330.659 3.58947 -0.199309 0
M  V30 3593 C 330.323 4.31525 -1.5045 0
M  V30 3594 C 331.32 4.5861 -2.44894 0
M  V30 3595 C 329.005 4.70195 -1.76698 0
M  V30 3596 C 330.999 5.23366 -3.63822 0
M  V30 3597 C 328.686 5.3468 -2.95906 0
M  V30 3598 C 329.684 5.61198 -3.89289 0
M  V30 3599 O 329.372 6.24347 -5.06404 0
M  V30 3600 H 329.104 0.664777 -0.122666 0
M  V30 3601 H 331.658 1.79913 -0.990987 0
M  V30 3602 H 329.888 3.82556 0.56461 0
M  V30 3603 H 331.577 4.0534 0.213125 0
M  V30 3604 H 332.343 4.29187 -2.25883 0
M  V30 3605 H 328.222 4.48916 -1.04859 0
M  V30 3606 H 331.766 5.4398 -4.36728 0
M  V30 3607 H 327.663 5.63524 -3.14819 0
M  V30 3608 H 328.431 6.42842 -5.06652 0
M  V30 3609 N 331.094 0.475555 1.50254 0
M  V30 3610 C 332.024 -0.30611 2.31485 0
M  V30 3611 C 333.005 -0.986228 1.38591 0
M  V30 3612 O 334.19 -0.982541 1.67511 0
M  V30 3613 C 331.32 -1.38588 3.1845 0
M  V30 3614 C 330.274 -0.827115 4.19932 0
M  V30 3615 C 329.6 -2.00551 4.95665 0
M  V30 3616 C 330.9 0.16463 5.2204 0
M  V30 3617 H 332.594 0.371866 2.97082 0
M  V30 3618 H 330.14 0.180282 1.42867 0
M  V30 3619 H 332.093 -1.94023 3.74076 0
M  V30 3620 H 330.817 -2.09269 2.50747 0
M  V30 3621 H 329.476 -0.294702 3.65414 0
M  V30 3622 H 329.124 -2.6994 4.2443 0
M  V30 3623 H 328.824 -1.63784 5.64313 0
M  V30 3624 H 330.348 -2.56468 5.54127 0
M  V30 3625 H 331.762 -0.300699 5.72511 0
M  V30 3626 H 330.159 0.446813 5.98434 0
M  V30 3627 H 331.229 1.08905 4.72512 0
M  V30 3628 N 332.573 -1.56217 0.208337 0
M  V30 3629 C 333.505 -2.1695 -0.739276 0
M  V30 3630 C 334.518 -1.13492 -1.1672 0
M  V30 3631 O 335.707 -1.40529 -1.10063 0
M  V30 3632 C 332.807 -2.72755 -2.01142 0
M  V30 3633 C 331.98 -4.0125 -1.74118 0
M  V30 3634 C 331.039 -4.41749 -2.85909 0
M  V30 3635 O 330.065 -5.08912 -2.54946 0
M  V30 3636 N 331.267 -4.06342 -4.14568 0
M  V30 3637 H 334.032 -2.98893 -0.219837 0
M  V30 3638 H 331.593 -1.61878 0.0268445 0
M  V30 3639 H 333.585 -2.96826 -2.75094 0
M  V30 3640 H 332.155 -1.95191 -2.4417 0
M  V30 3641 H 331.375 -3.85173 -0.838775 0
M  V30 3642 H 332.663 -4.851 -1.53477 0
M  V30 3643 H 332.061 -3.52345 -4.42571 0
M  V30 3644 H 330.618 -4.35335 -4.85105 0
M  V30 3645 N 334.051 0.0651679 -1.57465 0
M  V30 3646 C 335.467 0.420105 -1.53972 0
M  V30 3647 C 335.667 1.78782 -0.929474 0
M  V30 3648 O 334.723 2.46771 -0.534839 0
M  V30 3649 C 336.036 0.355084 -2.98596 0
M  V30 3650 C 337.584 0.434792 -3.09965 0
M  V30 3651 C 338.059 0.399609 -4.56253 0
M  V30 3652 N 339.55 0.459488 -4.60915 0
M  V30 3653 C 340.285 0.454584 -5.71595 0
M  V30 3654 N 339.781 0.404102 -6.9162 0
M  V30 3655 N 341.574 0.501635 -5.59857 0
M  V30 3656 H 333.725 -0.830328 -1.95498 0
M  V30 3657 H 335.988 -0.312244 -0.895102 0
M  V30 3658 H 335.694 -0.583357 -3.46828 0
M  V30 3659 H 335.568 1.16275 -3.58831 0
M  V30 3660 H 337.955 1.36366 -2.61703 0
M  V30 3661 H 338.036 -0.40157 -2.52628 0
M  V30 3662 H 337.68 -0.525436 -5.05175 0
M  V30 3663 H 337.61 1.25359 -5.11461 0
M  V30 3664 H 340.101 0.502482 -3.74544 0
M  V30 3665 H 340.414 0.404468 -7.71741 0
M  V30 3666 H 338.759 0.37069 -6.94011 0
M  V30 3667 H 341.95 0.538812 -4.64989 0
M  V30 3668 H 342.123 0.494345 -6.46112 0
M  V30 3669 N 335.529 1.53961 0.336706 0
M  V30 3670 C 336.777 1.71197 1.07405 0
M  V30 3671 C 337.098 0.481475 1.88962 0
M  V30 3672 O 336.368 -0.504585 1.8929 0
M  V30 3673 H 334.948 0.631185 0.399517 0
M  V30 3674 H 337.61 1.91232 0.376323 0
M  V30 3675 H 336.706 2.58587 1.74755 0
M  V30 3676 N 337.007 -0.598083 1.45811 0
M  V30 3677 C 337.937 -1.71873 1.58057 0
M  V30 3678 C 338.918 -1.64533 0.431615 0
M  V30 3679 O 340.103 -1.82787 0.65595 0
M  V30 3680 C 337.233 -3.10495 1.55597 0
M  V30 3681 C 336.187 -3.32654 2.69305 0
M  V30 3682 C 335.513 -4.71646 2.51902 0
M  V30 3683 C 336.813 -3.21981 4.11248 0
M  V30 3684 H 338.507 -1.61881 2.51863 0
M  V30 3685 H 336.053 -0.777372 1.21214 0
M  V30 3686 H 338.006 -3.88699 1.6276 0
M  V30 3687 H 336.73 -3.2135 0.583255 0
M  V30 3688 H 335.389 -2.56843 2.61586 0
M  V30 3689 H 335.037 -4.79246 1.52748 0
M  V30 3690 H 334.737 -4.87426 3.2816 0
M  V30 3691 H 336.261 -5.52038 2.60933 0
M  V30 3692 H 337.675 -3.90049 4.20161 0
M  V30 3693 H 336.072 -3.49289 4.87972 0
M  V30 3694 H 337.142 -2.1928 4.32486 0
M  V30 3695 N 338.485 -1.33259 -0.841409 0
M  V30 3696 C 339.734 -1.23921 -1.59143 0
M  V30 3697 C 340.047 0.1941 -1.94635 0
M  V30 3698 O 341.253 0.409474 -2.68394 0
M  V30 3699 C 339.709 -2.17119 -2.87032 0
M  V30 3700 C 339.317 -3.65606 -2.58914 0
M  V30 3701 C 341.061 -2.16648 -3.65053 0
M  V30 3702 C 338.968 -4.50726 -3.82884 0
M  V30 3703 H 337.898 -0.460264 -0.597221 0
M  V30 3704 H 340.549 -1.58307 -0.927959 0
M  V30 3705 H 338.931 -1.75663 -3.54906 0
M  V30 3706 H 340.105 -4.15487 -1.99267 0
M  V30 3707 H 338.42 -3.68341 -1.942 0
M  V30 3708 H 341.017 -2.77474 -4.57069 0
M  V30 3709 H 341.36 -1.16088 -3.99787 0
M  V30 3710 H 341.893 -2.56453 -3.041 0
M  V30 3711 H 338.632 -5.52151 -3.53283 0
M  V30 3712 H 338.152 -4.0559 -4.41879 0
M  V30 3713 H 339.831 -4.64401 -4.50489 0
M  V30 3714 N 339.963 1.05934 -1.16686 0
M  V30 3715 C 341.212 1.78188 -0.945085 0
M  V30 3716 C 341.525 1.88338 0.528021 0
M  V30 3717 O 342.731 2.57258 0.867799 0
M  V30 3718 C 341.187 3.20277 -1.64167 0
M  V30 3719 C 340.795 3.18281 -3.15279 0
M  V30 3720 C 342.539 3.97039 -1.502 0
M  V30 3721 C 340.446 4.55112 -3.7766 0
M  V30 3722 H 339.376 0.667866 -0.349959 0
M  V30 3723 H 342.027 1.18794 -1.39858 0
M  V30 3724 H 340.409 3.79952 -1.11589 0
M  V30 3725 H 341.583 2.68167 -3.74731 0
M  V30 3726 H 339.898 2.55018 -3.29173 0
M  V30 3727 H 342.495 4.98194 -1.94183 0
M  V30 3728 H 342.838 4.13845 -0.451461 0
M  V30 3729 H 343.371 3.43894 -1.99954 0
M  V30 3730 H 340.11 4.43512 -4.82677 0
M  V30 3731 H 339.63 5.05406 -3.22994 0
M  V30 3732 H 341.309 5.24064 -3.79428 0
M  V30 3733 N 341.441 0.965919 1.2453 0
M  V30 3734 C 342.688 0.626831 1.92554 0
M  V30 3735 C 343.016 -0.837739 1.75534 0
M  V30 3736 O 342.271 -1.61793 1.10098 0
M  V30 3737 C 342.57 0.945428 3.44669 0
M  V30 3738 C 342.236 2.39785 3.81856 0
M  V30 3739 C 340.898 2.79483 3.91718 0
M  V30 3740 C 343.25 3.34055 4.00071 0
M  V30 3741 C 340.578 4.12496 4.1721 0
M  V30 3742 C 342.93 4.66694 4.27059 0
M  V30 3743 C 341.594 5.06172 4.3514 0
M  V30 3744 H 340.864 0.229374 0.704605 0
M  V30 3745 H 343.511 1.21707 1.4785 0
M  V30 3746 H 341.816 0.272926 3.90848 0
M  V30 3747 H 343.513 0.661484 3.95507 0
M  V30 3748 H 340.103 2.08003 3.74743 0
M  V30 3749 H 344.287 3.04571 3.91855 0
M  V30 3750 H 339.543 4.42709 4.21685 0
M  V30 3751 H 343.717 5.3971 4.40097 0
M  V30 3752 H 341.344 6.09262 4.54646 0
M  V30 3753 N 342.919 -1.39368 0.735821 0
M  V30 3754 C 343.882 -2.2896 0.104874 0
M  V30 3755 C 344.882 -1.46347 -0.666274 0
M  V30 3756 O 346.072 -1.67014 -0.49517 0
M  V30 3757 C 343.204 -3.29857 -0.860656 0
M  V30 3758 H 344.397 -2.86259 0.894205 0
M  V30 3759 H 341.95 -1.48029 0.501704 0
M  V30 3760 H 342.685 -2.77615 -1.67631 0
M  V30 3761 H 342.47 -3.9087 -0.310327 0
M  V30 3762 H 343.96 -3.96893 -1.29867 0
M  V30 3763 N 344.397 -0.483516 -1.5 0
M  V30 3764 C 345.327 0.293829 -2.31644 0
M  V30 3765 C 346.308 0.978864 -1.39112 0
M  V30 3766 O 347.493 0.973644 -1.68029 0
M  V30 3767 C 344.623 1.36897 -3.19181 0
M  V30 3768 C 343.577 0.804833 -4.20365 0
M  V30 3769 C 342.903 1.9792 -4.96721 0
M  V30 3770 C 344.203 -0.192313 -5.21946 0
M  V30 3771 H 345.897 -0.387616 -2.9688 0
M  V30 3772 H 343.443 -0.187856 -1.42769 0
M  V30 3773 H 345.396 1.92037 -3.751 0
M  V30 3774 H 344.12 2.07936 -2.51853 0
M  V30 3775 H 342.779 0.275319 -3.65565 0
M  V30 3776 H 342.427 2.67686 -4.25856 0
M  V30 3777 H 342.127 1.60789 -5.65173 0
M  V30 3778 H 343.651 2.53526 -5.55479 0
M  V30 3779 H 345.065 0.270333 -5.72662 0
M  V30 3780 H 343.462 -0.478543 -5.98189 0
M  V30 3781 H 344.532 -1.11409 -4.71928 0
M  V30 3782 N 345.875 1.56104 -0.216619 0
M  V30 3783 C 347.124 1.97348 0.416744 0
M  V30 3784 C 347.437 1.10715 1.6125 0
M  V30 3785 O 348.643 1.41836 2.31506 0
M  V30 3786 C 347.099 3.51059 0.792835 0
M  V30 3787 C 346.707 4.46387 -0.379828 0
M  V30 3788 C 348.451 4.01026 1.39208 0
M  V30 3789 C 346.358 5.91397 0.0184223 0
M  V30 3790 H 345.288 0.736942 0.159475 0
M  V30 3791 H 347.939 1.80827 -0.31205 0
M  V30 3792 H 346.321 3.63162 1.57891 0
M  V30 3793 H 347.495 4.46029 -1.15737 0
M  V30 3794 H 345.81 4.06734 -0.891979 0
M  V30 3795 H 348.407 5.0686 1.70286 0
M  V30 3796 H 348.75 3.46587 2.30614 0
M  V30 3797 H 349.283 3.92125 0.669537 0
M  V30 3798 H 346.022 6.49807 -0.862002 0
M  V30 3799 H 345.542 5.94961 0.760384 0
M  V30 3800 H 347.221 6.45455 0.446818 0
M  V30 3801 N 347.353 -0.0568162 1.57498 0
M  V30 3802 C 348.599 -0.748893 1.89111 0
M  V30 3803 C 348.954 -1.74422 0.81208 0
M  V30 3804 O 348.247 -1.90731 -0.182247 0
M  V30 3805 C 348.441 -1.48359 3.25153 0
M  V30 3806 C 348.27 -0.560924 4.46188 0
M  V30 3807 C 347.04 -0.192264 5.04934 0
M  V30 3808 C 349.238 0.148824 5.14085 0
M  V30 3809 N 347.22 0.734555 6.0949 0
M  V30 3810 C 348.591 0.932286 6.12951 0
M  V30 3811 C 350.646 0.218713 4.97419 0
M  V30 3812 C 349.349 1.77917 6.96949 0
M  V30 3813 C 351.375 1.05262 5.81957 0
M  V30 3814 C 350.737 1.82409 6.80372 0
M  V30 3815 H 346.836 -0.249002 0.741298 0
M  V30 3816 H 349.42 -0.00984926 1.94698 0
M  V30 3817 H 347.591 -2.19326 3.20547 0
M  V30 3818 H 349.323 -2.12586 3.44368 0
M  V30 3819 H 346.078 -0.548421 4.70414 0
M  V30 3820 H 346.502 1.19165 6.6643 0
M  V30 3821 H 351.144 -0.363407 4.21235 0
M  V30 3822 H 348.862 2.3722 7.72497 0
M  V30 3823 H 352.448 1.10987 5.71116 0
M  V30 3824 H 351.328 2.45895 7.44651 0
M  V30 3825 N 348.832 -1.54138 -0.328536 0
M  V30 3826 C 350.081 -1.71318 -1.06456 0
M  V30 3827 C 350.394 -0.491109 -1.89334 0
M  V30 3828 O 351.6 -0.54416 -2.65991 0
M  V30 3829 C 350.056 -3.03 -1.94214 0
M  V30 3830 C 349.664 -4.32595 -1.16471 0
M  V30 3831 C 351.408 -3.29544 -2.67583 0
M  V30 3832 C 349.315 -5.55341 -2.03347 0
M  V30 3833 H 348.245 -0.638429 -0.401155 0
M  V30 3834 H 350.896 -1.80633 -0.323106 0
M  V30 3835 H 349.278 -2.87579 -2.72239 0
M  V30 3836 H 350.452 -4.58766 -0.432525 0
M  V30 3837 H 348.767 -4.12777 -0.548063 0
M  V30 3838 H 351.364 -4.18444 -3.3288 0
M  V30 3839 H 351.707 -2.47206 -3.34955 0
M  V30 3840 H 352.24 -3.45809 -1.96623 0
M  V30 3841 H 348.979 -6.40268 -1.40491 0
M  V30 3842 H 348.499 -5.33397 -2.74313 0
M  V30 3843 H 350.178 -5.91557 -2.62049 0
M  V30 3844 N 350.31 0.590341 -1.46126 0
M  V30 3845 C 351.556 1.35082 -1.51264 0
M  V30 3846 C 351.889 1.93534 -0.160711 0
M  V30 3847 O 351.164 1.76045 0.826956 0
M  V30 3848 C 351.447 2.48588 -2.6053 0
M  V30 3849 C 351.3 1.95221 -4.05227 0
M  V30 3850 C 352.619 3.50662 -2.6594 0
M  V30 3851 H 349.738 0.489803 -0.550692 0
M  V30 3852 H 352.38 0.663887 -1.78024 0
M  V30 3853 H 350.53 3.07186 -2.37843 0
M  V30 3854 H 352.202 1.41139 -4.39178 0
M  V30 3855 H 350.445 1.26101 -4.15068 0
M  V30 3856 H 351.116 2.77121 -4.77397 0
M  V30 3857 H 353.592 3.01934 -2.86313 0
M  V30 3858 H 352.468 4.27551 -3.44226 0
M  V30 3859 H 352.729 4.07399 -1.71694 0
M  V30 3860 N 351.788 1.33704 0.83433 0
M  V30 3861 C 352.751 1.24244 1.92603 0
M  V30 3862 C 353.751 0.160383 1.59998 0
M  V30 3863 O 354.941 0.412228 1.69252 0
M  V30 3864 C 352.073 0.91555 3.28376 0
M  V30 3865 H 353.266 2.21287 2.02416 0
M  V30 3866 H 350.819 1.17827 1.02696 0
M  V30 3867 H 351.554 -0.0521886 3.24258 0
M  V30 3868 H 351.339 1.69811 3.53422 0
M  V30 3869 H 352.829 0.874231 4.08347 0
M  V30 3870 N 353.266 -1.05314 1.17247 0
M  V30 3871 C 354.514 -1.77941 0.958194 0
M  V30 3872 C 354.835 -1.88089 -0.514556 0
M  V30 3873 O 354.105 -1.39676 -1.37359 0
M  V30 3874 H 352.685 -0.659116 0.351533 0
M  V30 3875 H 355.347 -1.27166 1.47699 0
M  V30 3876 H 354.443 -2.79663 1.38546 0
M  V30 3877 N 354.744 -0.972509 -1.24016 0
M  V30 3878 C 355.99 -0.647583 -1.92816 0
M  V30 3879 C 356.345 0.809015 -1.74564 0
M  V30 3880 O 355.638 1.57502 -1.09103 0
M  V30 3881 C 355.832 -0.963694 -3.44162 0
M  V30 3882 C 355.661 -2.44947 -3.77135 0
M  V30 3883 C 354.431 -3.11012 -3.98246 0
M  V30 3884 C 356.629 -3.42978 -3.83237 0
M  V30 3885 N 354.611 -4.49277 -4.18358 0
M  V30 3886 C 355.982 -4.66619 -4.08248 0
M  V30 3887 C 358.037 -3.37569 -3.65994 0
M  V30 3888 C 356.74 -5.85516 -4.17808 0
M  V30 3889 C 358.766 -4.55822 -3.76802 0
M  V30 3890 C 358.128 -5.78256 -4.02243 0
M  V30 3891 H 354.227 -0.287894 -0.727077 0
M  V30 3892 H 356.811 -1.24835 -1.49413 0
M  V30 3893 H 354.982 -0.391692 -3.8642 0
M  V30 3894 H 356.714 -0.596849 -4.00275 0
M  V30 3895 H 353.469 -2.61529 -3.94841 0
M  V30 3896 H 353.893 -5.20935 -4.32384 0
M  V30 3897 H 358.535 -2.43945 -3.45327 0
M  V30 3898 H 356.253 -6.79564 -4.37285 0
M  V30 3899 H 359.839 -4.53204 -3.64825 0
M  V30 3900 H 358.719 -6.68231 -4.10411 0
M  V30 3901 N 356.222 1.38976 -0.743202 0
M  V30 3902 C 357.469 2.00343 -0.294752 0
M  V30 3903 C 357.797 1.58983 1.12047 0
M  V30 3904 O 357.052 0.813809 1.77977 0
M  V30 3905 C 357.351 3.55647 -0.353517 0
M  V30 3906 C 357.017 4.16685 -1.72292 0
M  V30 3907 C 355.679 4.3307 -2.09771 0
M  V30 3908 C 358.031 4.50464 -2.62168 0
M  V30 3909 C 355.359 4.80526 -3.36618 0
M  V30 3910 C 357.711 4.99332 -3.88395 0
M  V30 3911 C 356.375 5.13924 -4.25956 0
M  V30 3912 H 355.645 0.733108 -0.107857 0
M  V30 3913 H 358.292 1.6618 -0.951651 0
M  V30 3914 H 356.597 3.89884 0.386954 0
M  V30 3915 H 358.294 4.00998 0.0117269 0
M  V30 3916 H 354.884 4.04339 -1.42155 0
M  V30 3917 H 359.068 4.37416 -2.3448 0
M  V30 3918 H 354.324 4.90008 -3.65653 0
M  V30 3919 H 358.498 5.2444 -4.58187 0
M  V30 3920 H 356.125 5.50457 -5.2431 0
M  V30 3921 N 357.7 0.491464 1.49741 0
M  V30 3922 C 358.977 -0.118984 1.95238 0
M  V30 3923 C 359.357 -1.55044 1.43264 0
M  V30 3924 O 358.705 -2.19287 0.642287 0
M  V30 3925 C 358.915 -0.0414187 3.48975 0
M  V30 3926 C 360.263 -0.220133 4.24029 0
M  V30 3927 O 361.287 -0.117055 3.56008 0
M  V30 3928 O 360.146 -0.430567 5.44801 0
M  V30 3929 H 357.24 -0.100536 0.820866 0
M  V30 3930 H 359.786 0.553322 1.60426 0
M  V30 3931 H 358.558 0.957214 3.79412 0
M  V30 3932 H 358.181 -0.754292 3.9038 0
M  V30 3933 N 359.178 -1.55987 0.224894 0
M  V30 3934 C 360.108 -2.23426 -0.678457 0
M  V30 3935 C 361.089 -1.20709 -1.19847 0
M  V30 3936 O 362.274 -1.49304 -1.24186 0
M  V30 3937 C 359.404 -2.91676 -1.88527 0
M  V30 3938 C 358.358 -4.00893 -1.49896 0
M  V30 3939 C 357.684 -4.56455 -2.78483 0
M  V30 3940 C 358.984 -5.17769 -0.686461 0
M  V30 3941 H 360.678 -2.99175 -0.116173 0
M  V30 3942 H 358.224 -1.43897 -0.054436 0
M  V30 3943 H 360.177 -3.37547 -2.5227 0
M  V30 3944 H 358.901 -2.1338 -2.47258 0
M  V30 3945 H 357.56 -3.55758 -0.884985 0
M  V30 3946 H 357.208 -3.74886 -3.35365 0
M  V30 3947 H 356.908 -5.30169 -2.53368 0
M  V30 3948 H 358.432 -5.05047 -3.43162 0
M  V30 3949 H 359.846 -5.60001 -1.22767 0
M  V30 3950 H 358.243 -5.97735 -0.532259 0
M  V30 3951 H 359.313 -4.83932 0.306196 0
M  V30 3952 N 360.656 0.0484629 -1.57525 0
M  V30 3953 C 361.903 0.743125 -1.88372 0
M  V30 3954 C 362.231 1.76383 -0.819715 0
M  V30 3955 O 361.486 1.94855 0.181659 0
M  V30 3956 C 361.785 1.46632 -3.25935 0
M  V30 3957 C 361.451 0.583427 -4.4711 0
M  V30 3958 C 360.113 0.340191 -4.79996 0
M  V30 3959 C 362.465 -0.0273345 -5.21193 0
M  V30 3960 C 359.793 -0.522903 -5.84365 0
M  V30 3961 C 362.145 -0.878017 -6.26477 0
M  V30 3962 C 360.809 -1.1309 -6.5785 0
M  V30 3963 H 360.079 0.271929 -0.689301 0
M  V30 3964 H 362.726 0.00336166 -1.915 0
M  V30 3965 H 361.031 2.2789 -3.18706 0
M  V30 3966 H 362.728 2.00902 -3.47044 0
M  V30 3967 H 359.318 0.783151 -4.21384 0
M  V30 3968 H 363.502 0.147654 -4.9608 0
M  V30 3969 H 358.758 -0.727335 -6.07058 0
M  V30 3970 H 362.932 -1.35789 -6.83033 0
M  V30 3971 H 360.559 -1.80144 -7.38547 0
M  V30 3972 N 362.134 1.5431 0.320358 0
M  V30 3973 C 363.382 1.72327 1.05583 0
M  V30 3974 C 363.703 0.50149 1.88441 0
M  V30 3975 O 362.973 -0.48448 1.89815 0
M  V30 3976 H 361.553 0.635387 0.3928 0
M  V30 3977 H 364.215 1.91621 0.356019 0
M  V30 3978 H 363.311 2.60426 1.72003 0
M  V30 3979 N 363.613 -0.582584 1.46437 0
M  V30 3980 C 364.546 -1.70633 1.51524 0
M  V30 3981 C 365.524 -1.58349 0.369351 0
M  V30 3982 O 366.708 -1.79563 0.573516 0
M  V30 3983 C 363.835 -3.08687 1.39392 0
M  V30 3984 C 362.881 -3.3949 2.58164 0
M  V30 3985 S 363.714 -3.31548 4.20519 0
M  V30 3986 C 364.87 -4.72139 4.10896 0
M  V30 3987 H 365.103 -1.66058 2.46601 0
M  V30 3988 H 362.636 -0.761337 1.34324 0
M  V30 3989 H 364.594 -3.8833 1.33079 0
M  V30 3990 H 363.255 -3.10751 0.457436 0
M  V30 3991 H 362.448 -4.40071 2.45669 0
M  V30 3992 H 362.05 -2.67415 2.61468 0
M  V30 3993 H 364.342 -5.62527 3.77584 0
M  V30 3994 H 365.285 -4.89692 5.11476 0
M  V30 3995 H 365.693 -4.48995 3.42146 0
M  V30 3996 N 365.091 -1.34144 -0.827227 0
M  V30 3997 C 366.316 -1.29476 -1.62021 0
M  V30 3998 C 366.741 0.129292 -1.87655 0
M  V30 3999 O 366.099 1.08967 -1.449 0
M  V30 4000 C 366.147 -2.08702 -2.94068 0
M  V30 4001 O 365.251 -1.45359 -3.85933 0
M  V30 4002 H 364.592 -0.444881 -0.492927 0
M  V30 4003 H 367.122 -1.76882 -1.02829 0
M  V30 4004 H 367.132 -2.19898 -3.43669 0
M  V30 4005 H 365.807 -3.12241 -2.74734 0
M  V30 4006 H 364.384 -1.42879 -3.44442 0
M  V30 4007 N 366.569 1.04691 -1.17803 0
M  V30 4008 C 367.502 2.12068 -0.842765 0
M  V30 4009 C 368.48 1.61455 0.192608 0
M  V30 4010 O 369.664 1.88359 0.072995 0
M  V30 4011 C 366.791 3.37715 -0.258063 0
M  V30 4012 C 365.837 4.07164 -1.26962 0
M  V30 4013 S 366.67 4.55047 -2.82299 0
M  V30 4014 C 367.826 5.83935 -2.25323 0
M  V30 4015 H 368.059 2.4018 -1.75217 0
M  V30 4016 H 365.592 1.17366 -1.00323 0
M  V30 4017 H 367.55 4.10435 0.0727935 0
M  V30 4018 H 366.211 3.0773 0.629357 0
M  V30 4019 H 365.404 4.9746 -0.809263 0
M  V30 4020 H 365.006 3.40533 -1.54639 0
M  V30 4021 H 367.298 6.57552 -1.63192 0
M  V30 4022 H 368.241 6.34725 -3.13894 0
M  V30 4023 H 368.649 5.3874 -1.68582 0
M  V30 4024 N 368.047 0.979072 1.23499 0
M  V30 4025 C 369.01 0.523244 2.23147 0
M  V30 4026 C 370.01 -0.386406 1.56088 0
M  V30 4027 O 371.2 -0.180283 1.73265 0
M  V30 4028 C 368.332 -0.240739 3.40049 0
M  V30 4029 H 369.525 1.40432 2.64989 0
M  V30 4030 H 367.078 0.764824 1.36309 0
M  V30 4031 H 367.813 -1.13841 3.03662 0
M  V30 4032 H 367.598 0.412207 3.89927 0
M  V30 4033 H 369.088 -0.548297 4.13985 0
M  V30 4034 N 369.525 -1.3858 0.750561 0
M  V30 4035 C 370.473 -2.32339 0.110162 0
M  V30 4036 C 371.467 -1.53864 -0.708674 0
M  V30 4037 O 372.673 -1.69417 -0.608112 0
M  V30 4038 H 369.048 -0.751812 0.0168275 0
M  V30 4039 H 371.019 -2.83959 0.917053 0
M  V30 4040 C 369.768 -3.39043 -0.771067 0
M  V30 4041 H 369.091 -3.99517 -0.150374 0
M  V30 4042 H 370.531 -4.07061 -1.1865 0
M  V30 4043 C 368.99 -2.77365 -1.91234 0
M  V30 4044 O 369.52 -2.66434 -3.00626 0
M  V30 4045 N 367.726 -2.35219 -1.70646 0
M  V30 4046 H 367.273 -2.4431 -0.81673 0
M  V30 4047 H 367.231 -1.94294 -2.47178 0
M  V30 4048 N 371.003 -0.499398 -1.49478 0
M  V30 4049 C 372.251 0.0455996 -2.02049 0
M  V30 4050 C 372.572 1.37633 -1.38138 0
M  V30 4051 O 371.842 1.8842 -0.536166 0
M  V30 4052 H 370.422 0.0198416 -0.746736 0
M  V30 4053 H 373.084 -0.656274 -1.83519 0
M  V30 4054 H 372.18 0.176445 -3.11601 0
M  V30 4055 N 372.481 1.55866 -0.233164 0
M  V30 4056 C 373.444 2.1953 0.658715 0
M  V30 4057 C 374.444 1.16053 1.11303 0
M  V30 4058 O 375.634 1.41218 1.01996 0
M  V30 4059 C 372.766 2.82791 1.90373 0
M  V30 4060 H 373.959 2.99721 0.10347 0
M  V30 4061 H 371.512 1.56291 0.0164245 0
M  V30 4062 H 372.247 2.06501 2.50056 0
M  V30 4063 H 372.032 3.58578 1.58632 0
M  V30 4064 H 373.522 3.31556 2.53891 0
M  V30 4065 N 373.959 -0.0401083 1.57549 0
M  V30 4066 C 374.909 -1.05175 2.02292 0
M  V30 4067 C 375.893 -1.32674 0.910294 0
M  V30 4068 O 377.085 -1.32444 1.17421 0
M  V30 4069 C 374.214 -2.35622 2.49674 0
M  V30 4070 C 373.3 -2.11261 3.67736 0
M  V30 4071 N 373.691 -1.56923 4.80842 0
M  V30 4072 C 371.989 -2.41596 3.74897 0
M  V30 4073 C 372.69 -1.48111 5.62528 0
M  V30 4074 N 371.666 -1.95282 5.07312 0
M  V30 4075 H 375.468 -0.625455 2.87168 0
M  V30 4076 H 372.982 -0.246624 1.60516 0
M  V30 4077 H 374.979 -3.08893 2.79983 0
M  V30 4078 H 373.639 -2.7894 1.662 0
M  V30 4079 H 374.65 -1.25345 5.02503 0
M  V30 4080 H 371.327 -2.88064 3.02201 0
M  V30 4081 H 372.717 -1.06683 6.63377 0
M  V30 4082 N 375.437 -1.54477 -0.31217 0
M  V30 4083 C 376.686 -1.72438 -1.04633 0
M  V30 4084 C 376.999 -0.511163 -1.88803 0
M  V30 4085 O 378.205 -0.572341 -2.65399 0
M  V30 4086 C 376.661 -3.05043 -1.9099 0
M  V30 4087 C 376.269 -4.33806 -1.11877 0
M  V30 4088 C 378.013 -3.32364 -2.64073 0
M  V30 4089 C 375.92 -5.57467 -1.97445 0
M  V30 4090 H 374.85 -0.642647 -0.394361 0
M  V30 4091 H 377.501 -1.80966 -0.303929 0
M  V30 4092 H 375.883 -2.90451 -2.69173 0
M  V30 4093 H 377.057 -4.59199 -0.383843 0
M  V30 4094 H 375.372 -4.13336 -0.504252 0
M  V30 4095 H 377.969 -4.21951 -3.28423 0
M  V30 4096 H 378.312 -2.50745 -3.32314 0
M  V30 4097 H 378.845 -3.47875 -1.92944 0
M  V30 4098 H 375.584 -6.41722 -1.33692 0
M  V30 4099 H 375.104 -5.36277 -2.6864 0
M  V30 4100 H 376.783 -5.94303 -2.5576 0
M  V30 4101 N 376.915 0.57481 -1.46744 0
M  V30 4102 C 377.878 1.66533 -1.57478 0
M  V30 4103 C 378.878 1.54338 -0.451263 0
M  V30 4104 O 380.068 1.58814 -0.715813 0
M  V30 4105 C 377.2 3.05999 -1.50259 0
M  V30 4106 H 378.393 1.58372 -2.54673 0
M  V30 4107 H 375.946 0.793301 -1.34672 0
M  V30 4108 H 376.681 3.19709 -0.543725 0
M  V30 4109 H 376.466 3.16259 -2.31781 0
M  V30 4110 H 377.956 3.8537 -1.60872 0
M  V30 4111 N 378.394 1.34581 0.820102 0
M  V30 4112 C 379.642 1.26845 1.57336 0
M  V30 4113 C 379.963 -0.160667 1.94337 0
M  V30 4114 O 379.233 -1.09396 1.6251 0
M  V30 4115 H 377.813 0.466514 0.583415 0
M  V30 4116 H 380.475 1.68526 0.979027 0
M  V30 4117 H 379.571 1.87513 2.4949 0
M  V30 4118 N 379.872 -1.04064 1.18357 0
M  V30 4119 C 380.802 -2.14001 0.934113 0
M  V30 4120 C 381.783 -1.69616 -0.128186 0
M  V30 4121 O 382.968 -1.94185 0.0244093 0
M  V30 4122 C 380.098 -3.44253 0.459066 0
M  V30 4123 C 379.052 -4.02261 1.46185 0
M  V30 4124 C 378.378 -5.27992 0.844322 0
M  V30 4125 C 379.678 -4.38432 2.83856 0
M  V30 4126 H 381.372 -2.35127 1.85352 0
M  V30 4127 H 378.918 -1.12998 0.892604 0
M  V30 4128 H 380.871 -4.20522 0.271907 0
M  V30 4129 H 379.595 -3.22813 -0.495912 0
M  V30 4130 H 378.254 -3.28074 1.63595 0
M  V30 4131 H 377.902 -5.02862 -0.117845 0
M  V30 4132 H 377.602 -5.67765 1.51384 0
M  V30 4133 H 379.126 -6.06938 0.667693 0
M  V30 4134 H 380.54 -5.05688 2.70098 0
M  V30 4135 H 378.937 -4.89254 3.47491 0
M  V30 4136 H 380.007 -3.4826 3.37406 0
M  V30 4137 N 381.35 -0.985608 -1.22978 0
M  V30 4138 C 382.313 -0.535071 -2.22867 0
M  V30 4139 C 383.313 0.378123 -1.56291 0
M  V30 4140 O 384.503 0.171092 -1.73358 0
M  V30 4141 C 381.635 0.222702 -3.40172 0
M  V30 4142 H 382.828 -1.41835 -2.6424 0
M  V30 4143 H 380.381 -0.772042 -1.35901 0
M  V30 4144 H 381.116 1.12229 -3.04262 0
M  V30 4145 H 380.901 -0.43288 -3.89703 0
M  V30 4146 H 382.391 0.526335 -4.1427 0
M  V30 4147 N 382.828 1.3818 -0.7579 0
M  V30 4148 C 384.074 2.00316 -0.316453 0
M  V30 4149 C 384.407 1.60026 1.10025 0
M  V30 4150 O 383.682 0.839835 1.75434 0
M  V30 4151 C 383.965 3.57349 -0.444245 0
M  V30 4152 C 383.818 4.07591 -1.90236 0
M  V30 4153 C 385.137 4.3981 0.1598 0
M  V30 4154 H 382.256 0.727741 -0.116459 0
M  V30 4155 H 384.898 1.6406 -0.958352 0
M  V30 4156 H 383.048 3.88365 0.102233 0
M  V30 4157 H 384.72 3.87199 -2.50748 0
M  V30 4158 H 382.963 3.60297 -2.41595 0
M  V30 4159 H 383.634 5.16677 -1.94291 0
M  V30 4160 H 386.11 4.14971 -0.306314 0
M  V30 4161 H 384.986 5.48885 0.0401675 0
M  V30 4162 H 385.247 4.24102 1.24859 0
M  V30 4163 N 384.306 0.507319 1.49211 0
M  V30 4164 C 385.554 -0.0348839 2.0207 0
M  V30 4165 C 385.875 -1.36898 1.38866 0
M  V30 4166 O 385.145 -1.88133 0.546151 0
M  V30 4167 H 383.725 -0.0158812 0.746831 0
M  V30 4168 H 386.387 0.665998 1.83168 0
M  V30 4169 H 385.483 -0.159917 3.1169 0
M  V30 4170 N 385.784 -1.5574 0.241426 0
M  V30 4171 C 386.714 -2.24133 -0.654722 0
M  V30 4172 C 387.695 -1.21974 -1.1856 0
M  V30 4173 O 388.88 -1.50612 -1.22595 0
M  V30 4174 C 386.01 -2.93659 -1.85423 0
M  V30 4175 C 384.964 -4.0246 -1.45636 0
M  V30 4176 C 384.29 -4.59383 -2.73626 0
M  V30 4177 C 385.59 -5.18468 -0.631506 0
M  V30 4178 H 387.284 -2.99281 -0.0844353 0
M  V30 4179 H 384.83 -1.43947 -0.0391707 0
M  V30 4180 H 386.783 -3.40203 -2.48676 0
M  V30 4181 H 385.507 -2.15991 -2.44981 0
M  V30 4182 H 384.166 -3.56676 -0.847202 0
M  V30 4183 H 383.814 -3.78422 -3.3137 0
M  V30 4184 H 383.514 -5.32826 -2.4773 0
M  V30 4185 H 385.038 -5.08658 -3.37786 0
M  V30 4186 H 386.452 -5.61272 -1.1682 0
M  V30 4187 H 384.849 -5.98266 -0.468831 0
M  V30 4188 H 385.919 -4.8358 0.357506 0
M  V30 4189 N 387.262 0.0317525 -1.57568 0
M  V30 4190 C 388.225 1.01783 -2.0536 0
M  V30 4191 C 389.225 1.29203 -0.957253 0
M  V30 4192 O 390.415 1.24251 -1.22095 0
M  V30 4193 C 387.547 2.35137 -2.46827 0
M  V30 4194 H 388.74 0.605062 -2.93733 0
M  V30 4195 H 386.293 0.278514 -1.53799 0
M  V30 4196 H 387.028 2.81168 -1.61602 0
M  V30 4197 H 386.813 2.16566 -3.26866 0
M  V30 4198 H 388.303 3.05938 -2.84239 0
M  V30 4199 N 388.74 1.54641 0.303973 0
M  V30 4200 C 389.673 1.80263 1.3993 0
M  V30 4201 C 390.651 0.653657 1.48883 0
M  V30 4202 O 391.835 0.893284 1.6599 0
M  V30 4203 C 388.962 1.9367 2.77866 0
M  V30 4204 C 388.008 3.16078 2.86351 0
M  V30 4205 S 388.841 4.74219 2.4875 0
M  V30 4206 C 389.997 4.90558 3.88721 0
M  V30 4207 H 390.23 2.72886 1.17986 0
M  V30 4208 H 387.763 1.46014 0.501918 0
M  V30 4209 H 389.721 2.0208 3.57315 0
M  V30 4210 H 388.382 1.01991 2.9708 0
M  V30 4211 H 387.575 3.22252 3.87517 0
M  V30 4212 H 387.177 3.06099 2.14893 0
M  V30 4213 H 389.469 4.74398 4.83687 0
M  V30 4214 H 390.412 5.92651 3.87518 0
M  V30 4215 H 390.82 4.18728 3.78585 0
M  V30 4216 N 390.218 -0.567019 1.47046 0
M  V30 4217 C 391.181 -1.65696 1.58359 0
M  V30 4218 C 392.181 -1.54097 0.459441 0
M  V30 4219 O 393.371 -1.58432 0.724225 0
M  V30 4220 C 390.503 -3.05197 1.51879 0
M  V30 4221 H 391.696 -1.57019 2.5551 0
M  V30 4222 H 389.249 -0.786148 1.3509 0
M  V30 4223 H 389.984 -3.19417 0.560673 0
M  V30 4224 H 389.769 -3.15025 2.33455 0
M  V30 4225 H 391.259 -3.84511 1.62913 0
M  V30 4226 N 391.696 -1.35014 -0.812953 0
M  V30 4227 C 392.943 -1.27931 -1.56971 0
M  V30 4228 C 393.271 0.148034 -1.93936 0
M  V30 4229 O 392.526 1.11175 -1.61054 0
M  V30 4230 C 392.825 -2.12524 -2.87347 0
M  V30 4231 C 392.491 -3.61401 -2.6963 0
M  V30 4232 C 391.153 -4.01983 -2.64506 0
M  V30 4233 C 393.505 -4.55894 -2.52607 0
M  V30 4234 C 390.833 -5.35235 -2.40293 0
M  V30 4235 C 393.185 -5.89336 -2.29925 0
M  V30 4236 C 391.849 -6.2907 -2.23219 0
M  V30 4237 H 391.119 -0.468131 -0.574399 0
M  V30 4238 H 393.766 -1.66851 -0.939836 0
M  V30 4239 H 392.071 -1.66463 -3.54679 0
M  V30 4240 H 393.768 -2.04383 -3.45005 0
M  V30 4241 H 390.358 -3.29193 -2.74463 0
M  V30 4242 H 394.542 -4.25431 -2.55583 0
M  V30 4243 H 389.798 -5.65028 -2.33566 0
M  V30 4244 H 393.972 -6.62139 -2.15743 0
M  V30 4245 H 391.599 -7.32256 -2.04219 0
M  V30 4246 N 393.175 1.03435 -1.18907 0
M  V30 4247 C 394.421 1.77005 -0.989798 0
M  V30 4248 C 394.754 1.88205 0.478816 0
M  V30 4249 O 394.029 1.39481 1.35556 0
M  V30 4250 C 394.312 3.19925 -1.65287 0
M  V30 4251 C 394.165 3.1663 -3.19477 0
M  V30 4252 C 395.484 4.18189 -1.37134 0
M  V30 4253 H 392.603 0.642538 -0.360991 0
M  V30 4254 H 395.245 1.20784 -1.46667 0
M  V30 4255 H 393.395 3.67929 -1.24741 0
M  V30 4256 H 395.067 2.76567 -3.692 0
M  V30 4257 H 393.31 2.54491 -3.51307 0
M  V30 4258 H 393.981 4.1758 -3.61013 0
M  V30 4259 H 396.457 3.78761 -1.72276 0
M  V30 4260 H 395.333 5.16394 -1.86087 0
M  V30 4261 H 395.594 4.41112 -0.295424 0
M  V30 4262 N 394.653 0.992116 1.22453 0
M  V30 4263 C 395.93 0.583508 1.86694 0
M  V30 4264 C 396.31 -0.9392 1.89056 0
M  V30 4265 O 395.658 -1.82081 1.38053 0
M  V30 4266 C 395.868 1.20304 3.2761 0
M  V30 4267 C 397.216 1.30308 4.0411 0
M  V30 4268 O 398.24 1.15737 3.36873 0
M  V30 4269 O 397.099 1.53615 5.24466 0
M  V30 4270 H 394.193 0.198129 0.802916 0
M  V30 4271 H 396.739 1.08794 1.30238 0
M  V30 4272 H 395.511 2.24461 3.2052 0
M  V30 4273 H 395.134 0.684144 3.9167 0
M  V30 4274 N 396.131 -1.37776 0.765217 0
M  V30 4275 C 397.356 -2.04651 0.336537 0
M  V30 4276 C 397.781 -1.57337 -1.03086 0
M  V30 4277 O 397.139 -0.730621 -1.65927 0
M  V30 4278 C 397.187 -3.58577 0.381468 0
M  V30 4279 O 396.291 -4.07706 -0.62042 0
M  V30 4280 H 395.632 -0.64756 0.146838 0
M  V30 4281 H 398.162 -1.76221 1.03959 0
M  V30 4282 H 398.172 -4.07314 0.236448 0
M  V30 4283 H 396.847 -3.9237 1.37907 0
M  V30 4284 H 395.424 -3.70306 -0.439056 0
M  V30 4285 N 397.609 -0.515225 -1.4894 0
M  V30 4286 C 398.539 0.244628 -2.32215 0
M  V30 4287 C 399.52 0.949136 -1.41157 0
M  V30 4288 O 400.705 0.937783 -1.70057 0
M  V30 4289 C 397.835 1.30096 -3.22013 0
M  V30 4290 C 396.789 0.715486 -4.21977 0
M  V30 4291 C 396.115 1.87339 -5.00808 0
M  V30 4292 C 397.415 -0.302982 -5.2142 0
M  V30 4293 H 399.109 -0.450501 -2.95991 0
M  V30 4294 H 396.655 -0.218098 -1.42339 0
M  V30 4295 H 398.608 1.84037 -3.79089 0
M  V30 4296 H 397.332 2.02547 -2.56207 0
M  V30 4297 H 395.991 0.197715 -3.66066 0
M  V30 4298 H 395.639 2.58592 -4.31438 0
M  V30 4299 H 395.339 1.48764 -5.68457 0
M  V30 4300 H 396.863 2.41686 -5.60732 0
M  V30 4301 H 398.277 0.148802 -5.73107 0
M  V30 4302 H 396.674 -0.60532 -5.97039 0
M  V30 4303 H 397.744 -1.21395 -4.69459 0
M  V30 4304 N 399.087 1.5561 -0.249682 0
M  V30 4305 C 400.035 2.22894 0.664906 0
M  V30 4306 C 401.029 1.21743 1.17792 0
M  V30 4307 O 402.235 1.39748 1.13449 0
M  V30 4308 H 398.61 0.715022 0.232912 0
M  V30 4309 H 400.581 2.98307 0.0742998 0
M  V30 4310 C 399.33 2.94424 1.84959 0
M  V30 4311 H 398.653 3.72031 1.46399 0
M  V30 4312 H 400.093 3.44862 2.4667 0
M  V30 4313 C 398.552 1.98454 2.72245 0
M  V30 4314 O 399.082 1.51939 3.71857 0
M  V30 4315 N 397.288 1.65496 2.38871 0
M  V30 4316 H 396.835 2.03517 1.57919 0
M  V30 4317 H 396.793 1.0155 2.97548 0
M  V30 4318 N 400.565 -0.0233959 1.57583 0
M  V30 4319 C 401.528 -1.00693 2.05897 0
M  V30 4320 C 402.528 -1.28693 0.964092 0
M  V30 4321 O 403.718 -1.23602 1.22753 0
M  V30 4322 C 400.85 -2.33825 2.4807 0
M  V30 4323 H 402.043 -0.589476 2.9405 0
M  V30 4324 H 399.596 -0.270354 1.53944 0
M  V30 4325 H 400.331 -2.80307 1.6309 0
M  V30 4326 H 400.116 -2.1483 3.2801 0
M  V30 4327 H 401.606 -3.04426 2.85857 0
M  V30 4328 N 402.043 -1.548 -0.295768 0
M  V30 4329 C 403.459 -1.4613 -0.641722 0
M  V30 4330 C 403.659 -0.656771 -1.90496 0
M  V30 4331 O 402.715 -0.166547 -2.5195 0
M  V30 4332 C 404.028 -2.90141 -0.789852 0
M  V30 4333 C 405.576 -3.00216 -0.885396 0
M  V30 4334 C 406.051 -4.45434 -1.06548 0
M  V30 4335 N 407.542 -4.49166 -1.13156 0
M  V30 4336 C 408.277 -5.58717 -1.28929 0
M  V30 4337 N 407.773 -6.78182 -1.41567 0
M  V30 4338 N 409.566 -5.46415 -1.31859 0
M  V30 4339 H 401.717 -2.05574 0.534147 0
M  V30 4340 H 403.98 -0.931259 0.177372 0
M  V30 4341 H 403.686 -3.51635 0.0675598 0
M  V30 4342 H 403.56 -3.37859 -1.67724 0
M  V30 4343 H 405.947 -2.38833 -1.73329 0
M  V30 4344 H 406.028 -2.55787 0.0261185 0
M  V30 4345 H 405.672 -5.07413 -0.222335 0
M  V30 4346 H 405.602 -4.87499 -1.9913 0
M  V30 4347 H 408.093 -3.631 -1.04721 0
M  V30 4348 H 408.406 -7.57428 -1.53372 0
M  V30 4349 H 406.751 -6.81037 -1.38613 0
M  V30 4350 H 409.942 -4.5203 -1.21601 0
M  V30 4351 H 410.115 -6.31841 -1.43808 0
M  V30 4352 N 403.521 0.559213 -1.47345 0
M  V30 4353 C 404.468 1.66645 -1.59682 0
M  V30 4354 C 405.438 1.60168 -0.43994 0
M  V30 4355 O 406.623 1.79031 -0.659736 0
M  V30 4356 C 403.763 3.04969 -1.61518 0
M  V30 4357 C 402.876 3.21897 -2.88108 0
M  V30 4358 C 402.011 4.50608 -2.81294 0
M  V30 4359 C 401.05 4.60961 -4.02717 0
M  V30 4360 N 400.187 5.81024 -3.94151 0
M  V30 4361 H 405.027 1.55439 -2.54249 0
M  V30 4362 H 402.564 0.757219 -1.26113 0
M  V30 4363 H 404.522 3.85064 -1.60566 0
M  V30 4364 H 403.152 3.15015 -0.704645 0
M  V30 4365 H 402.204 2.35248 -2.98936 0
M  V30 4366 H 403.516 3.25412 -3.78032 0
M  V30 4367 H 402.67 5.3896 -2.7858 0
M  V30 4368 H 401.409 4.49568 -1.89049 0
M  V30 4369 H 400.414 3.71021 -4.05738 0
M  V30 4370 H 401.639 4.63761 -4.96087 0
M  V30 4371 H 399.585 5.80938 -3.04708 0
M  V30 4372 H 399.502 5.85909 -4.77752 0
M  V30 4373 H 400.77 6.71744 -3.9545 0
M  V30 4374 N 404.999 1.35443 0.805782 0
M  V30 4375 C 406.415 1.15499 1.10146 0
M  V30 4376 C 406.615 -0.0319975 2.01475 0
M  V30 4377 O 405.671 -0.70236 2.42535 0
M  V30 4378 C 406.984 2.45833 1.73166 0
M  V30 4379 C 408.532 2.52047 1.85583 0
M  V30 4380 C 409.007 3.82427 2.52019 0
M  V30 4381 N 410.498 3.83682 2.59504 0
M  V30 4382 C 411.233 4.81294 3.11679 0
M  V30 4383 N 410.729 5.89294 3.64287 0
M  V30 4384 N 412.522 4.6873 3.1024 0
M  V30 4385 H 404.673 2.11469 0.198678 0
M  V30 4386 H 406.936 0.93594 0.150731 0
M  V30 4387 H 406.642 3.32874 1.13526 0
M  V30 4388 H 406.516 2.6044 2.72857 0
M  V30 4389 H 408.903 1.65435 2.44367 0
M  V30 4390 H 408.984 2.41354 0.847455 0
M  V30 4391 H 408.628 4.69437 1.93885 0
M  V30 4392 H 408.558 3.90409 3.53395 0
M  V30 4393 H 411.049 3.05648 2.22234 0
M  V30 4394 H 411.362 6.59768 4.02401 0
M  V30 4395 H 409.707 5.92985 3.62483 0
M  V30 4396 H 412.898 3.83496 2.68419 0
M  V30 4397 H 413.071 5.44965 3.50596 0
M  V30 4398 N 406.477 -1.02803 1.19454 0
M  V30 4399 C 407.424 -2.11099 0.933046 0
M  V30 4400 C 408.394 -1.65571 -0.132447 0
M  V30 4401 O 409.579 -1.90797 0.00987576 0
M  V30 4402 C 406.719 -3.41763 0.478747 0
M  V30 4403 C 405.832 -4.00833 1.6111 0
M  V30 4404 C 404.967 -5.19511 1.10825 0
M  V30 4405 C 404.006 -5.70639 2.21445 0
M  V30 4406 N 403.143 -6.80589 1.72461 0
M  V30 4407 H 407.983 -2.32804 1.86028 0
M  V30 4408 H 405.52 -1.14179 0.927441 0
M  V30 4409 H 407.478 -4.16736 0.196745 0
M  V30 4410 H 406.108 -3.20166 -0.411493 0
M  V30 4411 H 405.16 -3.23066 2.00829 0
M  V30 4412 H 406.472 -4.34794 2.4445 0
M  V30 4413 H 405.626 -6.01645 0.781533 0
M  V30 4414 H 404.365 -4.87086 0.244606 0
M  V30 4415 H 403.37 -4.87116 2.54947 0
M  V30 4416 H 404.595 -6.05102 3.08267 0
M  V30 4417 H 402.541 -6.50016 0.884056 0
M  V30 4418 H 402.458 -7.13681 2.49389 0
M  V30 4419 H 403.726 -7.66317 1.42755 0
M  V30 4420 O 407.994 -1.12654 -1.15721 0
M  V30 4421 H 408.685 -0.83899 -1.74587 0
M  V30 END ATOM
M  V30 BEGIN BOND
M  V30 END BOND
M  V30 END CTAB
M  END
$$$$
