drugbank_target|Q9NR97 Toll-like receptor 8 (DB00724; DB06530)
 OpenBabel12092120333D

  0  0  0     0  0            999 V3000
M  V30 BEGIN CTAB
M  V30 COUNTS 16875 17058 0 0 0
M  V30 BEGIN ATOM
M  V30 1 H -0.908 1.98254 -0.117106 0
M  V30 2 N 0 1.576 0 0
M  V30 3 C 0.933 2.03868 1.02534 0
M  V30 4 C 1.911 0.928543 1.3348 0
M  V30 5 O 3.095 1.19667 1.45644 0
M  V30 6 C 0.222 2.43627 2.35294 0
M  V30 7 C -0.732 3.65373 2.2001 0
M  V30 8 S 0.101 5.13292 1.52614 0
M  V30 9 C 1.257 5.56322 2.86805 0
M  V30 10 H 1.49 2.90518 0.631377 0
M  V30 11 H -0.977 1.52953 0.210867 0
M  V30 12 H 0.981 2.67203 3.11629 0
M  V30 13 H -0.358 1.57376 2.7183 0
M  V30 14 H -1.165 3.90944 3.18086 0
M  V30 15 H -1.563 3.418 1.51819 0
M  V30 16 H 0.729 5.58782 3.83104 0
M  V30 17 H 1.672 6.56266 2.65933 0
M  V30 18 H 2.08 4.83886 2.90714 0
M  V30 19 N 1.4781 -0.272755 1.55222 0
M  V30 20 C 2.3881 -1.35918 1.91216 0
M  V30 21 C 3.4041 -1.54026 0.809436 0
M  V30 22 O 4.5801 -1.68148 1.10852 0
M  V30 23 C 1.6451 -2.69834 2.17693 0
M  V30 24 C 0.7061 -2.6047 3.41253 0
M  V30 25 C -0.0609 -3.88 3.66458 0
M  V30 26 O 0.1621 -4.88693 2.94169 0
M  V30 27 O -0.9039 -3.88189 4.59992 0
M  V30 28 H 2.9221 -1.0839 2.83699 0
M  V30 29 H 0.5071 -0.471301 1.41771 0
M  V30 30 H 2.3891 -3.49017 2.36147 0
M  V30 31 H 1.0641 -2.97148 1.28392 0
M  V30 32 H -0.0289 -1.79663 3.28134 0
M  V30 33 H 1.3041 -2.38106 4.30774 0
M  V30 34 N 2.9562 -1.48159 -0.537278 0
M  V30 35 C 3.9042 -1.62573 -1.66352 0
M  V30 36 C 4.8982 -0.492366 -1.62087 0
M  V30 37 O 6.1042 -0.670847 -1.67032 0
M  V30 38 H 2.4792 -0.511992 -0.550789 0
M  V30 39 H 4.4502 -2.57176 -1.51337 0
M  V30 40 C 3.1992 -1.67583 -3.04649 0
M  V30 41 H 2.5222 -2.54151 -3.08622 0
M  V30 42 H 3.9622 -1.81713 -3.83088 0
M  V30 43 C 2.4212 -0.413039 -3.34358 0
M  V30 44 O 2.9512 0.477259 -3.98855 0
M  V30 45 N 1.1572 -0.286961 -2.8918 0
M  V30 46 H 0.7042 -1.01241 -2.36871 0
M  V30 47 H 0.6622 0.556963 -3.09427 0
M  V30 48 N 4.4343 0.785586 -1.36625 0
M  V30 49 C 5.3673 1.90509 -1.25625 0
M  V30 50 C 6.3453 1.62 -0.139607 0
M  V30 51 O 7.5293 1.8591 -0.31141 0
M  V30 52 C 4.6563 3.25419 -0.939158 0
M  V30 53 C 3.7023 3.72856 -2.07077 0
M  V30 54 S 4.5353 3.88162 -3.68904 0
M  V30 55 C 5.6913 5.25942 -3.39317 0
M  V30 56 H 5.9243 1.99549 -2.20381 0
M  V30 57 H 3.4573 0.945226 -1.22085 0
M  V30 58 H 5.4153 4.03346 -0.763029 0
M  V30 59 H 4.0763 3.14099 -0.00931402 0
M  V30 60 H 3.2693 4.70624 -1.80357 0
M  V30 61 H 2.8713 3.01989 -2.20632 0
M  V30 62 H 5.1633 6.10651 -2.93447 0
M  V30 63 H 6.1063 5.57668 -4.36363 0
M  V30 64 H 6.5143 4.93224 -2.74573 0
M  V30 65 N 5.9124 1.20967 1.01018 0
M  V30 66 C 7.1594 1.02374 1.74716 0
M  V30 67 C 7.4874 -0.443375 1.89379 0
M  V30 68 O 6.7424 -1.34535 1.42123 0
M  V30 69 C 7.0414 1.65997 3.16512 0
M  V30 70 C 6.7074 3.15831 3.2181 0
M  V30 71 C 5.3694 3.56719 3.22963 0
M  V30 72 C 7.7214 4.11816 3.19464 0
M  V30 73 C 5.0494 4.92107 3.19449 0
M  V30 74 C 7.4014 5.47158 3.17491 0
M  V30 75 C 6.0654 5.87451 3.16951 0
M  V30 76 H 5.3354 0.374614 0.639332 0
M  V30 77 H 7.9824 1.50485 1.18434 0
M  V30 78 H 6.2874 1.10166 3.75993 0
M  V30 79 H 7.9844 1.49119 3.72242 0
M  V30 80 H 4.5744 2.83263 3.21652 0
M  V30 81 H 8.7584 3.81257 3.17737 0
M  V30 82 H 4.0144 5.22579 3.17366 0
M  V30 83 H 8.1884 6.21274 3.14629 0
M  V30 84 H 5.8154 6.92329 3.13983 0
M  V30 85 N 7.3905 -1.2043 1.01659 0
M  V30 86 C 8.3205 -2.25466 0.607226 0
M  V30 87 C 9.3015 -1.65853 -0.377716 0
M  V30 88 O 10.4865 -1.92409 -0.263149 0
M  V30 89 C 7.6165 -3.47256 -0.0552949 0
M  V30 90 C 6.5705 -4.19462 0.850632 0
M  V30 91 C 5.8965 -5.34673 0.0538859 0
M  V30 92 C 7.1965 -4.75603 2.15868 0
M  V30 93 H 8.8905 -2.59962 1.48526 0
M  V30 94 H 6.4365 -1.2496 0.715605 0
M  V30 95 H 8.3895 -4.19917 -0.353233 0
M  V30 96 H 7.1135 -3.11924 -0.968045 0
M  V30 97 H 5.7725 -3.48667 1.13257 0
M  V30 98 H 5.4205 -4.95585 -0.860514 0
M  V30 99 H 5.1205 -5.83913 0.657192 0
M  V30 100 H 6.6445 -6.10138 -0.237598 0
M  V30 101 H 8.0585 -5.40083 1.92311 0
M  V30 102 H 6.4555 -5.3528 2.71284 0
M  V30 103 H 7.5255 -3.94346 2.82169 0
M  V30 104 N 8.8686 -0.792821 -1.36206 0
M  V30 105 C 9.8006 -0.151469 -2.28699 0
M  V30 106 C 10.8136 0.641262 -1.49638 0
M  V30 107 O 12.0026 0.475885 -1.72039 0
M  V30 108 C 9.1026 0.808424 -3.29117 0
M  V30 109 C 8.2756 0.0650202 -4.37352 0
M  V30 110 C 7.3346 0.941358 -5.17711 0
M  V30 111 O 6.3606 0.397352 -5.67811 0
M  V30 112 N 7.5626 2.2652 -5.3448 0
M  V30 113 H 10.3276 -0.945982 -2.84379 0
M  V30 114 H 7.8886 -0.647032 -1.48409 0
M  V30 115 H 9.8806 1.3986 -3.79765 0
M  V30 116 H 8.4506 1.5038 -2.74052 0
M  V30 117 H 7.6706 -0.706255 -3.87822 0
M  V30 118 H 8.9586 -0.447847 -5.06825 0
M  V30 119 H 8.3566 2.73128 -4.95396 0
M  V30 120 H 6.9136 2.80493 -5.88359 0
M  V30 121 N 10.3467 1.47872 -0.545128 0
M  V30 122 C 11.5717 2.07391 -0.0190611 0
M  V30 123 C 11.9967 1.39688 1.25971 0
M  V30 124 O 11.3547 0.467816 1.7516 0
M  V30 125 C 11.4027 3.60188 0.172335 0
M  V30 126 O 10.5067 3.9339 1.23766 0
M  V30 127 H 9.8477 0.662411 -0.0459059 0
M  V30 128 H 12.3777 1.90066 -0.757365 0
M  V30 129 H 12.3877 4.06129 0.390305 0
M  V30 130 H 11.0627 4.08865 -0.761725 0
M  V30 131 H 9.6397 3.5921 1.00114 0
M  V30 132 N 11.8248 0.280983 1.55075 0
M  V30 133 C 13.0498 -0.340154 2.04592 0
M  V30 134 C 13.4748 -1.48246 1.15779 0
M  V30 135 O 12.8328 -1.80614 0.15761 0
M  V30 136 C 12.8808 -0.793104 3.5177 0
M  V30 137 O 11.9848 -1.89981 3.66034 0
M  V30 138 H 11.3258 -0.0694289 0.66036 0
M  V30 139 H 13.8558 0.416993 2.00306 0
M  V30 140 H 13.8658 -1.08729 3.93245 0
M  V30 141 H 12.5408 0.0426163 4.15878 0
M  V30 142 H 11.1178 -1.60771 3.36463 0
M  V30 143 N 13.3029 -1.57598 0.00835791 0
M  V30 144 C 14.2359 -2.04409 -1.01451 0
M  V30 145 C 15.2139 -0.935609 -1.32985 0
M  V30 146 O 16.3979 -1.20437 -1.45007 0
M  V30 147 C 13.5249 -2.44872 -2.33999 0
M  V30 148 C 12.5709 -3.66535 -2.18069 0
M  V30 149 S 13.4039 -5.14095 -1.4989 0
M  V30 150 C 14.5599 -5.57835 -2.8385 0
M  V30 151 H 14.7929 -2.90849 -0.615961 0
M  V30 152 H 12.3259 -1.53063 -0.202752 0
M  V30 153 H 14.2839 -2.68852 -3.10208 0
M  V30 154 H 12.9449 -1.58815 -2.70992 0
M  V30 155 H 12.1379 -3.92626 -3.16008 0
M  V30 156 H 11.7399 -3.426 -1.50004 0
M  V30 157 H 14.0319 -5.60806 -3.80136 0
M  V30 158 H 14.9749 -6.57667 -2.62449 0
M  V30 159 H 15.3829 -4.85421 -2.88144 0
M  V30 160 N 14.781 0.264519 -1.55364 0
M  V30 161 C 15.711 1.33121 -1.91836 0
M  V30 162 C 16.692 1.51101 -0.781192 0
M  V30 163 O 17.877 1.64003 -1.04003 0
M  V30 164 C 15.007 2.68921 -2.19769 0
M  V30 165 C 13.961 2.65661 -3.35571 0
M  V30 166 C 13.287 4.05093 -3.49004 0
M  V30 167 C 14.587 2.24187 -4.71739 0
M  V30 168 H 16.281 1.02844 -2.81182 0
M  V30 169 H 13.827 0.493286 -1.35287 0
M  V30 170 H 15.78 3.43663 -2.43872 0
M  V30 171 H 14.504 3.00799 -1.27231 0
M  V30 172 H 13.163 1.93377 -3.1145 0
M  V30 173 H 12.811 4.34206 -2.53917 0
M  V30 174 H 12.511 4.03804 -4.26868 0
M  V30 175 H 14.035 4.81561 -3.75408 0
M  V30 176 H 15.449 2.88654 -4.9533 0
M  V30 177 H 13.846 2.34044 -5.52579 0
M  V30 178 H 14.916 1.19327 -4.69988 0
M  V30 179 N 16.2591 1.48442 0.529413 0
M  V30 180 C 17.4871 1.60151 1.30994 0
M  V30 181 C 17.9021 0.261985 1.86973 0
M  V30 182 O 17.2591 -0.748805 1.66431 0
M  V30 183 C 17.3101 2.64854 2.46038 0
M  V30 184 O 17.0311 3.93608 1.92365 0
M  V30 185 C 18.5321 2.87007 3.37849 0
M  V30 186 H 15.7521 0.539971 0.398338 0
M  V30 187 H 18.2961 1.94273 0.638597 0
M  V30 188 H 16.4511 2.33589 3.09055 0
M  V30 189 H 16.8651 4.51055 2.67675 0
M  V30 190 H 18.3391 3.64068 4.14919 0
M  V30 191 H 18.8161 1.95852 3.93114 0
M  V30 192 H 19.4221 3.19579 2.80623 0
M  V30 193 N 17.7372 -0.778329 1.37039 0
M  V30 194 C 18.9772 -1.54973 1.33276 0
M  V30 195 C 19.3412 -1.91816 -0.0839376 0
M  V30 196 O 20.5422 -2.6767 -0.246228 0
M  V30 197 C 18.8132 -2.78517 2.23971 0
M  V30 198 S 20.3722 -3.6865 2.37997 0
M  V30 199 H 17.1902 -0.530639 0.473226 0
M  V30 200 H 19.7922 -0.915806 1.72723 0
M  V30 201 H 18.4962 -2.4952 3.25835 0
M  V30 202 H 18.0272 -3.46875 1.85584 0
M  V30 203 H 20.0422 -4.70182 1.58567 0
M  V30 204 N 19.2153 -1.21501 -1.00376 0
M  V30 205 C 20.4643 -1.02718 -1.73586 0
M  V30 206 C 20.7773 0.439589 -1.90596 0
M  V30 207 O 21.9833 0.746848 -2.61026 0
M  V30 208 C 20.4393 -1.78929 -3.1227 0
M  V30 209 C 20.0473 -3.29783 -3.03228 0
M  V30 210 C 21.7913 -1.68557 -3.89601 0
M  V30 211 C 19.6983 -3.98479 -4.36999 0
M  V30 212 H 18.6283 -0.380733 -0.650814 0
M  V30 213 H 21.2793 -1.45248 -1.1214 0
M  V30 214 H 19.6613 -1.29192 -3.74333 0
M  V30 215 H 20.8353 -3.86832 -2.50395 0
M  V30 216 H 19.1503 -3.40711 -2.39385 0
M  V30 217 H 21.7473 -2.17211 -4.88593 0
M  V30 218 H 22.0903 -0.644021 -4.11288 0
M  V30 219 H 22.6233 -2.15778 -3.34193 0
M  V30 220 H 19.3623 -5.02841 -4.20513 0
M  V30 221 H 18.8823 -3.46219 -4.89788 0
M  V30 222 H 20.5613 -4.03462 -5.05794 0
M  V30 223 N 20.6934 1.19889 -1.02296 0
M  V30 224 C 21.9404 1.8942 -0.715972 0
M  V30 225 C 22.2684 1.79251 0.754944 0
M  V30 226 O 21.5234 1.17526 1.56481 0
M  V30 227 C 21.8224 3.39883 -1.10518 0
M  V30 228 C 21.4884 3.70254 -2.57337 0
M  V30 229 C 20.1504 3.78254 -2.97452 0
M  V30 230 C 22.5024 3.84052 -3.52354 0
M  V30 231 C 19.8304 3.97514 -4.31509 0
M  V30 232 C 22.1824 4.04824 -4.86108 0
M  V30 233 C 20.8464 4.11054 -5.25919 0
M  V30 234 H 20.1164 0.693138 -0.261993 0
M  V30 235 H 22.7634 1.42012 -1.28472 0
M  V30 236 H 21.0684 3.8915 -0.454953 0
M  V30 237 H 22.7654 3.9199 -0.845261 0
M  V30 238 H 19.3554 3.64632 -2.25258 0
M  V30 239 H 23.5394 3.77221 -3.22518 0
M  V30 240 H 18.7954 4.00574 -4.61898 0
M  V30 241 H 22.9694 4.14442 -5.59653 0
M  V30 242 H 20.5964 4.2573 -6.29808 0
M  V30 243 N 22.1715 0.800033 1.35784 0
M  V30 244 C 23.1015 0.220184 2.3246 0
M  V30 245 C 24.0825 -0.65073 1.57161 0
M  V30 246 O 25.2675 -0.582359 1.85263 0
M  V30 247 C 22.3975 -0.637353 3.41402 0
M  V30 248 C 21.3515 0.134531 4.27789 0
M  V30 249 C 20.6775 -0.844285 5.27992 0
M  V30 250 C 21.9775 1.32979 5.05088 0
M  V30 251 H 23.6715 1.02787 2.81203 0
M  V30 252 H 21.2175 0.495717 1.35199 0
M  V30 253 H 23.1705 -1.05302 4.08031 0
M  V30 254 H 21.8945 -1.47785 2.91251 0
M  V30 255 H 20.5535 0.531296 3.6273 0
M  V30 256 H 20.2015 -1.68011 4.74111 0
M  V30 257 H 19.9015 -0.332184 5.8666 0
M  V30 258 H 21.4255 -1.2583 5.97494 0
M  V30 259 H 22.8395 0.98934 5.64699 0
M  V30 260 H 21.2365 1.77593 5.7322 0
M  V30 261 H 22.3065 2.11978 4.36111 0
M  V30 262 N 23.6496 -1.47581 0.552962 0
M  V30 263 C 24.5796 -2.32762 -0.185451 0
M  V30 264 C 25.5606 -1.43527 -0.912905 0
M  V30 265 O 26.7456 -1.72388 -0.894201 0
M  V30 266 C 23.8756 -3.25219 -1.21859 0
M  V30 267 C 22.8296 -4.23661 -0.607864 0
M  V30 268 C 22.1556 -5.05413 -1.74533 0
M  V30 269 C 23.4556 -5.20481 0.435582 0
M  V30 270 H 25.1496 -2.94749 0.525684 0
M  V30 271 H 22.6956 -1.41738 0.254251 0
M  V30 272 H 24.6486 -3.8365 -1.7433 0
M  V30 273 H 23.3726 -2.61279 -1.95961 0
M  V30 274 H 22.0316 -3.66451 -0.104489 0
M  V30 275 H 21.6796 -4.3788 -2.47529 0
M  V30 276 H 21.3796 -5.72059 -1.34249 0
M  V30 277 H 22.9036 -5.66701 -2.27338 0
M  V30 278 H 24.3176 -5.733 -0.00290157 0
M  V30 279 H 22.7146 -5.95305 0.757067 0
M  V30 280 H 23.7846 -4.66217 1.33303 0
M  V30 281 N 25.1277 -0.289203 -1.54924 0
M  V30 282 C 26.3767 0.324231 -1.99077 0
M  V30 283 C 26.6897 1.5591 -1.18117 0
M  V30 284 O 27.8957 2.24637 -1.52481 0
M  V30 285 C 26.3517 0.628209 -3.54375 0
M  V30 286 C 25.9597 -0.587647 -4.44129 0
M  V30 287 C 27.7037 1.20349 -4.07083 0
M  V30 288 C 25.6107 -0.257475 -5.90839 0
M  V30 289 H 24.5407 0.124924 -0.743579 0
M  V30 290 H 27.1917 -0.396063 -1.79175 0
M  V30 291 H 25.5737 1.40778 -3.70132 0
M  V30 292 H 26.7477 -1.36418 -4.40144 0
M  V30 293 H 25.0627 -1.08074 -4.0213 0
M  V30 294 H 27.6597 1.46456 -5.14252 0
M  V30 295 H 28.0027 2.14195 -3.56968 0
M  V30 296 H 28.5357 0.485889 -3.94821 0
M  V30 297 H 25.2747 -1.16419 -6.45079 0
M  V30 298 H 24.7947 0.482018 -5.9786 0
M  V30 299 H 26.4737 0.145238 -6.46837 0
M  V30 300 N 26.6058 1.57591 -0.0167156 0
M  V30 301 C 27.8308 1.9598 0.67872 0
M  V30 302 C 28.2558 0.892546 1.65575 0
M  V30 303 O 27.6138 -0.147772 1.80697 0
M  V30 304 C 27.6618 3.33468 1.37227 0
M  V30 305 O 26.7658 3.28954 2.48722 0
M  V30 306 H 26.1068 0.639339 0.17928 0
M  V30 307 H 28.6368 2.04463 -0.0748802 0
M  V30 308 H 28.6468 3.69417 1.7319 0
M  V30 309 H 27.3218 4.10694 0.656007 0
M  V30 310 H 25.8988 3.04705 2.14963 0
M  V30 311 N 28.0839 -0.256276 1.55502 0
M  V30 312 C 29.3319 -0.983672 1.76545 0
M  V30 313 C 29.6529 -1.86206 0.578982 0
M  V30 314 O 28.9229 -1.91656 -0.405577 0
M  V30 315 H 27.5029 -0.366191 0.651086 0
M  V30 316 H 30.1649 -0.276479 1.92929 0
M  V30 317 H 29.2609 -1.61087 2.67315 0
M  V30 318 N 29.562 -1.4872 -0.521534 0
M  V30 319 C 30.787 -1.61101 -1.30618 0
M  V30 320 C 31.212 -0.274611 -1.86085 0
M  V30 321 O 30.57 0.754937 -1.64834 0
M  V30 322 C 30.618 -2.66709 -2.4269 0
M  V30 323 O 29.722 -2.24456 -3.45967 0
M  V30 324 H 29.063 -0.539921 -0.386499 0
M  V30 325 H 31.593 -1.94767 -0.626645 0
M  V30 326 H 31.603 -2.88245 -2.88754 0
M  V30 327 H 30.278 -3.63727 -2.01682 0
M  V30 328 H 28.855 -2.13168 -3.05964 0
M  V30 329 N 31.0401 0.771051 -1.3745 0
M  V30 330 C 32.2801 1.54264 -1.34096 0
M  V30 331 C 32.6441 1.91858 0.0737639 0
M  V30 332 O 33.8451 2.67797 0.23203 0
M  V30 333 C 32.1161 2.77326 -2.25445 0
M  V30 334 S 33.6751 3.67383 -2.39948 0
M  V30 335 H 30.4931 0.528122 -0.476034 0
M  V30 336 H 33.0951 0.906633 -1.73206 0
M  V30 337 H 31.7991 2.47788 -3.27153 0
M  V30 338 H 31.3301 3.45886 -1.87421 0
M  V30 339 H 33.3451 4.69334 -1.61059 0
M  V30 340 N 32.5182 1.22032 0.997298 0
M  V30 341 C 33.4282 1.00271 2.12092 0
M  V30 342 C 34.4442 -0.047621 1.73935 0
M  V30 343 O 35.6202 0.144136 2.00884 0
M  V30 344 C 32.6852 0.578449 3.4184 0
M  V30 345 C 31.7462 1.70189 3.94125 0
M  V30 346 C 30.9792 1.29778 5.17681 0
M  V30 347 O 31.2022 0.174676 5.70132 0
M  V30 348 O 30.1362 2.11261 5.63607 0
M  V30 349 H 33.9622 1.94398 2.3333 0
M  V30 350 H 31.5472 1.00587 1.10465 0
M  V30 351 H 33.4292 0.351998 4.19927 0
M  V30 352 H 32.1042 -0.334019 3.21972 0
M  V30 353 H 31.0112 1.98282 3.1723 0
M  V30 354 H 32.3442 2.59206 4.18417 0
M  V30 355 N 33.9963 -1.19345 1.0293 0
M  V30 356 C 34.9263 -2.2481 0.631105 0
M  V30 357 C 35.9073 -1.66245 -0.360104 0
M  V30 358 O 37.0923 -1.92677 -0.242726 0
M  V30 359 C 34.2223 -3.47295 -0.0184607 0
M  V30 360 C 33.1763 -4.18536 0.895073 0
M  V30 361 C 32.5023 -5.34586 0.110592 0
M  V30 362 C 33.8023 -4.73287 2.209 0
M  V30 363 H 35.4963 -2.58372 1.51275 0
M  V30 364 H 33.0423 -1.24194 0.728818 0
M  V30 365 H 34.9953 -4.20268 -0.308675 0
M  V30 366 H 33.7193 -3.12933 -0.934907 0
M  V30 367 H 32.3783 -3.47446 1.16949 0
M  V30 368 H 32.0263 -4.96469 -0.807902 0
M  V30 369 H 31.7263 -5.83183 0.719087 0
M  V30 370 H 33.2503 -6.10355 -0.172871 0
M  V30 371 H 34.6643 -5.38013 1.98028 0
M  V30 372 H 33.0613 -5.32373 2.76946 0
M  V30 373 H 34.1313 -3.91331 2.86336 0
M  V30 374 N 35.4744 -0.807222 -1.35358 0
M  V30 375 C 36.7144 -0.393534 -2.00576 0
M  V30 376 C 37.0784 1.0203 -1.62647 0
M  V30 377 O 38.2794 1.53603 -2.20589 0
M  V30 378 C 36.5504 -0.572017 -3.52793 0
M  V30 379 S 38.1094 -0.248845 -4.38094 0
M  V30 380 H 34.9274 -0.149425 -0.695121 0
M  V30 381 H 37.5294 -1.04961 -1.64935 0
M  V30 382 H 36.2334 -1.60097 -3.77885 0
M  V30 383 H 35.7644 0.099359 -3.93275 0
M  V30 384 H 37.7794 0.943253 -4.87152 0
M  V30 385 N 36.9525 1.47285 -0.560781 0
M  V30 386 C 37.9155 2.28535 0.174488 0
M  V30 387 C 38.9155 1.37153 0.839388 0
M  V30 388 O 40.1055 1.59748 0.694702 0
M  V30 389 C 37.2375 3.16934 1.25561 0
M  V30 390 H 38.4305 2.95012 -0.539262 0
M  V30 391 H 35.9835 1.53034 -0.317865 0
M  V30 392 H 36.7185 2.55157 2.00164 0
M  V30 393 H 36.5035 3.8419 0.783604 0
M  V30 394 H 37.9935 3.78143 1.77193 0
M  V30 395 N 38.4306 0.297415 1.54768 0
M  V30 396 C 39.3406 -0.58983 2.27064 0
M  V30 397 C 40.3566 -1.15144 1.30453 0
M  V30 398 O 41.5326 -1.17699 1.63428 0
M  V30 399 C 38.5976 -1.74714 2.9946 0
M  V30 400 C 37.6586 -1.21997 4.11601 0
M  V30 401 C 36.8916 -2.32212 4.80535 0
M  V30 402 O 37.1146 -3.52036 4.48806 0
M  V30 403 O 36.0486 -1.99106 5.68014 0
M  V30 404 H 39.8746 -0.00348199 3.037 0
M  V30 405 H 37.4596 0.0640035 1.49263 0
M  V30 406 H 39.3416 -2.42147 3.44881 0
M  V30 407 H 38.0166 -2.32016 2.25722 0
M  V30 408 H 36.9236 -0.511458 3.70587 0
M  V30 409 H 38.2566 -0.692419 4.87305 0
M  V30 410 N 39.9087 -1.5758 0.0250728 0
M  V30 411 C 40.8187 -2.1343 -0.973905 0
M  V30 412 C 41.8347 -1.08556 -1.35984 0
M  V30 413 O 43.0107 -1.40592 -1.44207 0
M  V30 414 C 40.0757 -2.64703 -2.23904 0
M  V30 415 C 39.1367 -3.84276 -1.91391 0
M  V30 416 C 38.3697 -4.33095 -3.11873 0
M  V30 417 O 38.5927 -3.81107 -4.24398 0
M  V30 418 O 37.5267 -5.24984 -2.94406 0
M  V30 419 H 41.3527 -2.99057 -0.529036 0
M  V30 420 H 38.9377 -1.48118 -0.195288 0
M  V30 421 H 40.8197 -2.97769 -2.98181 0
M  V30 422 H 39.4947 -1.82161 -2.6758 0
M  V30 423 H 38.4017 -3.56143 -1.14511 0
M  V30 424 H 39.7347 -4.67968 -1.52534 0
M  V30 425 N 41.3868 0.248026 -1.55636 0
M  V30 426 C 42.3348 1.32683 -1.91045 0
M  V30 427 C 43.3288 1.49883 -0.789401 0
M  V30 428 O 44.5348 1.51371 -0.974007 0
M  V30 429 H 40.9098 0.444272 -0.606734 0
M  V30 430 H 42.8808 1.00085 -2.81115 0
M  V30 431 C 41.6298 2.6755 -2.22064 0
M  V30 432 H 40.9528 2.55114 -3.07826 0
M  V30 433 H 42.3928 3.41912 -2.50743 0
M  V30 434 C 40.8518 3.20556 -1.0366 0
M  V30 435 O 41.3818 4.00695 -0.284016 0
M  V30 436 N 39.5878 2.78568 -0.82753 0
M  V30 437 H 39.1348 2.1351 -1.44123 0
M  V30 438 H 39.0928 3.14378 -0.0369803 0
M  V30 439 N 42.8649 1.48995 0.513639 0
M  V30 440 C 44.1119 1.57843 1.26854 0
M  V30 441 C 44.4399 0.259501 1.92761 0
M  V30 442 O 43.6949 -0.75159 1.80692 0
M  V30 443 C 43.9939 2.67756 2.36731 0
M  V30 444 C 43.6599 4.09669 1.88368 0
M  V30 445 C 42.3219 4.48291 1.74896 0
M  V30 446 C 44.6739 4.98537 1.52021 0
M  V30 447 C 42.0019 5.73568 1.23438 0
M  V30 448 C 44.3539 6.24319 1.0202 0
M  V30 449 C 43.0179 6.61783 0.871778 0
M  V30 450 H 42.2879 0.577587 0.464192 0
M  V30 451 H 44.9349 1.82778 0.571366 0
M  V30 452 H 43.2399 2.36743 3.12185 0
M  V30 453 H 44.9369 2.71813 2.9482 0
M  V30 454 H 41.5269 3.79176 1.99808 0
M  V30 455 H 45.7109 4.69363 1.61281 0
M  V30 456 H 40.9669 6.01304 1.10648 0
M  V30 457 H 45.1409 6.92566 0.729722 0
M  V30 458 H 42.7679 7.5874 0.470852 0
M  V30 459 N 44.343 -0.763751 1.37857 0
M  V30 460 C 45.568 -1.55805 1.36893 0
M  V30 461 C 45.993 -1.88054 -0.0416135 0
M  V30 462 O 45.351 -1.49825 -1.02089 0
M  V30 463 C 45.399 -2.84012 2.22192 0
M  V30 464 O 44.503 -3.78732 1.63204 0
M  V30 465 H 43.844 -0.471638 0.46739 0
M  V30 466 H 46.374 -0.944657 1.81487 0
M  V30 467 H 46.384 -3.33037 2.35691 0
M  V30 468 H 45.059 -2.59869 3.24716 0
M  V30 469 H 43.636 -3.37402 1.58791 0
M  V30 470 N 45.8211 -1.22559 -0.990812 0
M  V30 471 C 47.2371 -0.985996 -1.255 0
M  V30 472 C 47.4371 0.319173 -1.98956 0
M  V30 473 O 46.4931 1.04127 -2.3003 0
M  V30 474 C 47.8061 -2.18607 -2.06474 0
M  V30 475 C 49.3541 -2.22985 -2.19651 0
M  V30 476 C 49.8291 -3.4255 -3.04012 0
M  V30 477 N 51.3201 -3.42725 -3.11599 0
M  V30 478 C 52.0551 -4.31892 -3.7717 0
M  V30 479 N 51.5511 -5.31279 -4.44651 0
M  V30 480 N 53.3441 -4.19662 -3.73952 0
M  V30 481 H 45.4951 -2.06469 -0.49841 0
M  V30 482 H 47.7581 -0.904853 -0.282747 0
M  V30 483 H 47.4641 -3.13267 -1.59865 0
M  V30 484 H 47.3381 -2.18838 -3.07229 0
M  V30 485 H 49.7251 -1.28871 -2.65474 0
M  V30 486 H 49.8061 -2.26791 -1.18319 0
M  V30 487 H 49.4501 -4.36965 -2.58889 0
M  V30 488 H 49.3801 -3.35984 -4.0549 0
M  V30 489 H 51.8711 -2.70807 -2.63575 0
M  V30 490 H 52.1841 -5.95593 -4.92431 0
M  V30 491 H 50.5291 -5.3519 -4.43392 0
M  V30 492 H 53.7201 -3.41268 -3.20396 0
M  V30 493 H 53.8931 -4.89358 -4.24774 0
M  V30 494 N 47.2992 1.18797 -1.03562 0
M  V30 495 C 48.5242 1.9314 -0.755764 0
M  V30 496 C 48.9492 1.7537 0.68022 0
M  V30 497 O 48.3072 1.06046 1.47051 0
M  V30 498 C 48.3552 3.42747 -1.12058 0
M  V30 499 O 47.4592 4.11683 -0.243124 0
M  V30 500 H 46.8002 0.602724 -0.278604 0
M  V30 501 H 49.3302 1.50678 -1.3841 0
M  V30 502 H 49.3402 3.93437 -1.08035 0
M  V30 503 H 48.0152 3.55002 -2.16672 0
M  V30 504 H 46.5922 3.71323 -0.342539 0
M  V30 505 N 48.7773 0.814389 1.34928 0
M  V30 506 C 50.0073 0.41054 2.0248 0
M  V30 507 C 50.4153 -0.985625 1.61499 0
M  V30 508 O 49.7583 -1.64781 0.811976 0
M  V30 509 C 49.8203 0.423384 3.56998 0
M  V30 510 C 49.4843 1.77141 4.21272 0
M  V30 511 C 50.4813 2.73093 4.42398 0
M  V30 512 C 48.1663 2.05755 4.58225 0
M  V30 513 C 50.1603 3.95838 4.9959 0
M  V30 514 C 47.8473 3.28762 5.1513 0
M  V30 515 C 48.8453 4.23621 5.35755 0
M  V30 516 O 48.5333 5.44456 5.91458 0
M  V30 517 H 48.2653 0.163997 0.655806 0
M  V30 518 H 50.8193 1.10155 1.73364 0
M  V30 519 H 49.0493 -0.324276 3.85338 0
M  V30 520 H 50.7383 0.0407683 4.0588 0
M  V30 521 H 51.5043 2.5228 4.14222 0
M  V30 522 H 47.3833 1.32727 4.4148 0
M  V30 523 H 50.9273 4.69891 5.15605 0
M  V30 524 H 46.8243 3.49443 5.42734 0
M  V30 525 H 47.5923 5.4586 6.09901 0
M  V30 526 N 50.2554 -1.46986 0.568584 0
M  V30 527 C 51.6664 -1.86188 0.138219 0
M  V30 528 C 52.0174 -1.47388 -1.29504 0
M  V30 529 O 51.1424 -0.88219 -1.97602 0
M  V30 530 C 51.7374 -3.3792 0.244065 0
M  V30 531 C 50.2964 -3.76171 -0.131335 0
M  V30 532 C 49.4434 -2.71027 0.586465 0
M  V30 533 H 52.3944 -1.38342 0.777645 0
M  V30 534 H 52.4154 -3.76729 -0.534351 0
M  V30 535 H 51.9274 -3.66128 1.28731 0
M  V30 536 H 50.0284 -3.5358 -1.17526 0
M  V30 537 H 50.1414 -4.78523 0.235146 0
M  V30 538 H 48.5054 -2.54684 0.0282722 0
M  V30 539 H 49.2884 -3.02077 1.63109 0
M  V30 540 N 51.7335 -0.305618 -1.54608 0
M  V30 541 C 52.9735 0.303114 -2.0214 0
M  V30 542 C 53.3375 1.50737 -1.18921 0
M  V30 543 O 54.5385 2.18778 -1.56172 0
M  V30 544 C 52.8095 0.646332 -3.51507 0
M  V30 545 S 54.3685 1.23727 -4.20995 0
M  V30 546 H 51.1865 0.0927643 -0.704923 0
M  V30 547 H 53.7885 -0.434566 -1.90609 0
M  V30 548 H 52.4925 -0.238541 -4.09706 0
M  V30 549 H 52.0235 1.41468 -3.67084 0
M  V30 550 H 54.0385 2.52489 -4.27158 0
M  V30 551 N 53.2116 1.57565 -0.0334293 0
M  V30 552 C 54.4886 1.83282 0.683163 0
M  V30 553 C 54.8686 0.91823 1.90084 0
M  V30 554 O 54.2166 -0.025113 2.28486 0
M  V30 555 C 54.4266 3.32599 1.0573 0
M  V30 556 C 55.7746 3.99179 1.44711 0
M  V30 557 O 56.7986 3.3712 1.15015 0
M  V30 558 O 55.6576 5.08565 2.0006 0
M  V30 559 H 52.7516 0.755869 0.335546 0
M  V30 560 H 55.2976 1.69589 -0.0614402 0
M  V30 561 H 54.0696 3.90834 0.190828 0
M  V30 562 H 53.6926 3.51415 1.85993 0
M  V30 563 N 54.6897 -0.239769 1.55765 0
M  V30 564 C 55.5997 -1.31831 1.94056 0
M  V30 565 C 56.6157 -1.52275 0.841925 0
M  V30 566 O 57.7917 -1.65759 1.14394 0
M  V30 567 C 54.8567 -2.65156 2.23368 0
M  V30 568 C 53.9177 -2.53173 3.46701 0
M  V30 569 C 53.1507 -3.8014 3.74606 0
M  V30 570 O 53.3737 -4.82343 3.04469 0
M  V30 571 O 52.3077 -3.78344 4.68123 0
M  V30 572 H 56.1337 -1.02347 2.85935 0
M  V30 573 H 53.7187 -0.441123 1.42739 0
M  V30 574 H 55.6007 -3.43929 2.43497 0
M  V30 575 H 54.2757 -2.94358 1.34666 0
M  V30 576 H 53.1827 -1.72662 3.31871 0
M  V30 577 H 54.5157 -2.28915 4.35728 0
M  V30 578 N 56.1678 -1.49265 -0.50573 0
M  V30 579 C 57.1148 -1.65585 -1.6078 0
M  V30 580 C 58.0848 -0.497396 -1.58478 0
M  V30 581 O 59.2698 -0.72385 -1.76536 0
M  V30 582 C 56.4098 -1.72408 -2.98948 0
M  V30 583 C 55.5228 -2.99525 -3.11301 0
M  V30 584 C 54.6578 -2.97356 -4.40174 0
M  V30 585 C 53.6968 -4.19074 -4.46143 0
M  V30 586 N 52.8338 -4.14841 -5.66437 0
M  V30 587 H 57.6738 -2.59688 -1.46172 0
M  V30 588 H 55.2108 -1.28761 -0.711261 0
M  V30 589 H 57.1688 -1.74344 -3.79025 0
M  V30 590 H 55.7988 -0.817753 -3.1227 0
M  V30 591 H 54.8508 -3.07222 -2.24318 0
M  V30 592 H 56.1628 -3.89518 -3.11572 0
M  V30 593 H 55.3168 -2.97829 -5.28567 0
M  V30 594 H 54.0558 -2.05133 -4.42461 0
M  V30 595 H 53.0608 -4.1885 -3.56153 0
M  V30 596 H 54.2858 -5.12483 -4.45575 0
M  V30 597 H 52.2318 -3.25453 -5.69575 0
M  V30 598 H 52.1488 -4.98564 -5.68304 0
M  V30 599 H 53.4168 -4.1941 -6.57051 0
M  V30 600 N 57.6459 0.756429 -1.3826 0
M  V30 601 C 58.5929 1.87011 -1.35261 0
M  V30 602 C 59.5629 1.64695 -0.215616 0
M  V30 603 O 60.7479 1.864 -0.407399 0
M  V30 604 C 57.8879 3.24275 -1.18068 0
M  V30 605 C 57.0009 3.58442 -2.41129 0
M  V30 606 C 56.1359 4.84994 -2.16689 0
M  V30 607 C 55.1749 5.11939 -3.35537 0
M  V30 608 N 54.3119 6.29685 -3.10549 0
M  V30 609 H 59.1519 1.8891 -2.30472 0
M  V30 610 H 56.6889 0.923373 -1.14509 0
M  V30 611 H 58.6469 4.03479 -1.06116 0
M  V30 612 H 57.2769 3.21711 -0.264973 0
M  V30 613 H 56.3289 2.74103 -2.63764 0
M  V30 614 H 57.6409 3.74283 -3.29717 0
M  V30 615 H 56.7949 5.72135 -2.01857 0
M  V30 616 H 55.5339 4.71286 -1.25462 0
M  V30 617 H 54.5389 4.23268 -3.50891 0
M  V30 618 H 55.7639 5.27546 -4.27635 0
M  V30 619 H 53.7099 6.17306 -2.21967 0
M  V30 620 H 53.6269 6.46014 -3.92686 0
M  V30 621 H 54.8949 7.19722 -2.99367 0
M  V30 622 N 59.124 1.23083 0.984299 0
M  V30 623 C 60.056 0.96636 2.07832 0
M  V30 624 C 61.069 -0.0582135 1.62696 0
M  V30 625 O 62.258 0.176843 1.77622 0
M  V30 626 C 59.358 0.433397 3.36117 0
M  V30 627 C 58.531 1.51722 4.10243 0
M  V30 628 C 57.59 0.989821 5.16807 0
M  V30 629 O 56.616 1.67794 5.43906 0
M  V30 630 N 57.818 -0.184367 5.80207 0
M  V30 631 H 60.583 1.90824 2.31098 0
M  V30 632 H 58.144 1.13888 1.1507 0
M  V30 633 H 60.136 0.065699 4.04647 0
M  V30 634 H 58.706 -0.413806 3.09849 0
M  V30 635 H 57.926 2.05786 3.36223 0
M  V30 636 H 59.214 2.24619 4.56534 0
M  V30 637 H 58.612 -0.760062 5.60571 0
M  V30 638 H 57.169 -0.493366 6.4993 0
M  V30 639 N 60.6021 -1.18246 1.0419 0
M  V30 640 C 61.5501 -2.23968 0.627792 0
M  V30 641 C 62.5441 -1.65828 -0.346019 0
M  V30 642 O 63.7501 -1.78733 -0.213175 0
M  V30 643 H 60.1251 -0.728939 0.184802 0
M  V30 644 H 62.0961 -2.56202 1.52981 0
M  V30 645 C 60.8451 -3.47699 0.00796591 0
M  V30 646 H 60.1681 -3.92734 0.748347 0
M  V30 647 H 61.6081 -4.23294 -0.24455 0
M  V30 648 C 60.0671 -3.13153 -1.24246 0
M  V30 649 O 60.5971 -3.27003 -2.33307 0
M  V30 650 N 58.8031 -2.67467 -1.13622 0
M  V30 651 H 58.3501 -2.56396 -0.248734 0
M  V30 652 H 58.3081 -2.44724 -1.97377 0
M  V30 653 N 62.0802 -0.821533 -1.34494 0
M  V30 654 C 63.3572 -0.33159 -1.92769 0
M  V30 655 C 63.7372 1.18088 -1.74981 0
M  V30 656 O 63.0852 1.98733 -1.12772 0
M  V30 657 C 63.2952 -0.759398 -3.40638 0
M  V30 658 C 64.6432 -0.757433 -4.1779 0
M  V30 659 O 65.6672 -0.70189 -3.49216 0
M  V30 660 O 64.5262 -0.829361 -5.4017 0
M  V30 661 H 61.6202 -0.0902502 -0.822061 0
M  V30 662 H 64.1662 -0.906231 -1.43477 0
M  V30 663 H 62.9382 -1.8012 -3.47379 0
M  V30 664 H 62.5612 -0.160378 -3.97276 0
M  V30 665 N 63.5583 1.46682 -0.576371 0
M  V30 666 C 64.7833 2.07304 -0.0630475 0
M  V30 667 C 65.2083 1.42329 1.2298 0
M  V30 668 O 64.5663 0.504865 1.74129 0
M  V30 669 C 64.6143 3.60472 0.095895 0
M  V30 670 O 63.7183 3.95927 1.15394 0
M  V30 671 H 63.0593 0.661288 -0.0599463 0
M  V30 672 H 65.5893 1.88417 -0.797511 0
M  V30 673 H 65.5993 4.06865 0.304071 0
M  V30 674 H 64.2743 4.07157 -0.84828 0
M  V30 675 H 62.8513 3.61252 0.924724 0
M  V30 676 N 65.0364 0.313813 1.54444 0
M  V30 677 C 66.2824 -0.292108 2.00685 0
M  V30 678 C 66.6154 -1.52548 1.20177 0
M  V30 679 O 65.8904 -1.92452 0.281531 0
M  V30 680 C 66.1734 -0.635968 3.5444 0
M  V30 681 C 66.0264 0.607437 4.4568 0
M  V30 682 C 67.3454 -1.45747 4.15266 0
M  V30 683 H 64.4644 -0.104697 0.729526 0
M  V30 684 H 67.1064 0.428457 1.85106 0
M  V30 685 H 65.2564 -1.24986 3.67846 0
M  V30 686 H 66.9284 1.24581 4.44159 0
M  V30 687 H 65.1714 1.23822 4.15753 0
M  V30 688 H 65.8424 0.322515 5.51057 0
M  V30 689 H 68.3184 -0.938645 4.05375 0
M  V30 690 H 67.1944 -1.66683 5.2298 0
M  V30 691 H 67.4554 -2.45063 3.67963 0
M  V30 692 N 66.5145 -1.57545 0.0417849 0
M  V30 693 C 67.7635 -1.91494 -0.633492 0
M  V30 694 C 68.0765 -0.921084 -1.72556 0
M  V30 695 O 69.2825 -1.15228 -2.45835 0
M  V30 696 C 67.7385 -3.40072 -1.17808 0
M  V30 697 C 67.3465 -4.47843 -0.118633 0
M  V30 698 C 69.0905 -3.8307 -1.82915 0
M  V30 699 C 66.9975 -5.87529 -0.675578 0
M  V30 700 H 65.9275 -0.714653 -0.24039 0
M  V30 701 H 68.5785 -1.83175 0.109148 0
M  V30 702 H 66.9605 -3.43364 -1.97274 0
M  V30 703 H 68.1345 -4.56128 0.654494 0
M  V30 704 H 66.4495 -4.14128 0.434414 0
M  V30 705 H 69.0465 -4.84794 -2.25563 0
M  V30 706 H 69.3895 -3.1881 -2.67705 0
M  V30 707 H 69.9225 -3.82255 -1.10119 0
M  V30 708 H 66.6615 -6.55362 0.134475 0
M  V30 709 H 66.1815 -5.82824 -1.4169 0
M  V30 710 H 67.8605 -6.36491 -1.1614 0
M  V30 711 N 67.9926 0.231505 -1.5589 0
M  V30 712 C 68.9556 1.27028 -1.90779 0
M  V30 713 C 69.9556 1.40308 -0.785507 0
M  V30 714 O 71.1456 1.38744 -1.05336 0
M  V30 715 C 68.2776 2.64566 -2.14983 0
M  V30 716 H 69.4706 0.973017 -2.83677 0
M  V30 717 H 67.0236 0.471486 -1.49019 0
M  V30 718 H 67.7586 2.99406 -1.24604 0
M  V30 719 H 67.5436 2.56305 -2.96732 0
M  V30 720 H 69.0336 3.39543 -2.43105 0
M  V30 721 N 69.4707 1.49531 0.497807 0
M  V30 722 C 70.3807 1.69176 1.62532 0
M  V30 723 C 71.3967 0.5744 1.64246 0
M  V30 724 O 72.5727 0.849497 1.82608 0
M  V30 725 C 69.6377 1.75695 2.98885 0
M  V30 726 C 68.6987 2.9929 3.07773 0
M  V30 727 C 67.9317 3.05488 4.37622 0
M  V30 728 O 68.1547 2.19192 5.26603 0
M  V30 729 O 67.0887 3.9798 4.51548 0
M  V30 730 H 70.9147 2.647 1.48887 0
M  V30 731 H 68.4997 1.3331 0.674441 0
M  V30 732 H 70.3817 1.82317 3.79919 0
M  V30 733 H 69.0567 0.8335 3.12785 0
M  V30 734 H 67.9637 2.98183 2.25915 0
M  V30 735 H 69.2967 3.91125 2.98801 0
M  V30 736 N 70.9488 -0.749086 1.3866 0
M  V30 737 C 72.1888 -1.52112 1.36534 0
M  V30 738 C 72.5528 -1.91951 -0.0432316 0
M  V30 739 O 73.7538 -2.68132 -0.189396 0
M  V30 740 C 72.0248 -2.73704 2.29828 0
M  V30 741 S 73.5838 -3.63519 2.45763 0
M  V30 742 H 70.4018 -0.520482 0.484375 0
M  V30 743 H 73.0038 -0.878963 1.74627 0
M  V30 744 H 71.7078 -2.42552 3.31054 0
M  V30 745 H 71.2388 -3.4286 1.929 0
M  V30 746 H 73.2538 -4.66712 1.68505 0
M  V30 747 N 72.4269 -1.23603 -0.977757 0
M  V30 748 C 73.6519 -1.09735 -1.75991 0
M  V30 749 C 74.0769 0.346858 -1.84874 0
M  V30 750 O 73.4349 1.25093 -1.3123 0
M  V30 751 C 73.4829 -1.73051 -3.16363 0
M  V30 752 O 72.5869 -0.994452 -4.0023 0
M  V30 753 H 71.9279 -0.384476 -0.541364 0
M  V30 754 H 74.4579 -1.6371 -1.2272 0
M  V30 755 H 74.4679 -1.78398 -3.66931 0
M  V30 756 H 73.1429 -2.78137 -3.09213 0
M  V30 757 H 71.7199 -1.01812 -3.58732 0
M  V30 758 N 73.905 1.17692 -1.04816 0
M  V30 759 C 74.853 2.23632 -0.63966 0
M  V30 760 C 75.847 1.6601 0.337219 0
M  V30 761 O 77.053 1.78844 0.203693 0
M  V30 762 H 73.428 0.727949 -0.188665 0
M  V30 763 H 75.399 2.55387 -1.54337 0
M  V30 764 C 74.148 3.4769 -0.0264051 0
M  V30 765 H 73.471 3.92331 -0.769164 0
M  V30 766 H 74.911 4.23418 0.222098 0
M  V30 767 C 73.37 3.13807 1.22584 0
M  V30 768 O 73.9 3.28236 2.31569 0
M  V30 769 N 72.106 2.68065 1.12202 0
M  V30 770 H 71.653 2.56525 0.235133 0
M  V30 771 H 71.611 2.45767 1.96076 0
M  V30 772 N 75.3831 0.828654 1.34056 0
M  V30 773 C 76.7991 0.515135 1.51058 0
M  V30 774 C 76.9991 -0.959581 1.77184 0
M  V30 775 O 76.0551 -1.74382 1.82612 0
M  V30 776 C 77.3681 1.37963 2.67183 0
M  V30 777 C 78.9161 1.37735 2.81066 0
M  V30 778 C 79.3911 2.22645 4.00241 0
M  V30 779 N 80.8821 2.203 4.07458 0
M  V30 780 C 81.6171 2.82744 4.98842 0
M  V30 781 N 81.1131 3.54201 5.9541 0
M  V30 782 N 82.9061 2.72268 4.91759 0
M  V30 783 H 75.0571 1.78343 1.15358 0
M  V30 784 H 77.3201 0.760304 0.566252 0
M  V30 785 H 77.0261 2.42714 2.54525 0
M  V30 786 H 76.9001 1.0484 3.62338 0
M  V30 787 H 79.2871 0.337593 2.93163 0
M  V30 788 H 79.3681 1.74859 1.86703 0
M  V30 789 H 79.0121 3.26674 3.88905 0
M  V30 790 H 78.9421 1.82869 4.93829 0
M  V30 791 H 81.4331 1.68327 3.38341 0
M  V30 792 H 81.7461 3.9908 6.61782 0
M  V30 793 H 80.0911 3.58308 5.95517 0
M  V30 794 H 83.2821 2.16014 4.15278 0
M  V30 795 H 83.4551 3.21219 5.62781 0
M  V30 796 N 76.8612 -1.46375 0.584142 0
M  V30 797 C 78.2772 -1.57694 0.245929 0
M  V30 798 C 78.4772 -1.57903 -1.25175 0
M  V30 799 O 77.5332 -1.49676 -2.03355 0
M  V30 800 C 78.8462 -2.87028 0.896402 0
M  V30 801 C 80.3942 -3.00662 0.870127 0
M  V30 802 C 80.8692 -4.32734 1.50017 0
M  V30 803 N 82.3602 -4.39436 1.46458 0
M  V30 804 C 83.0952 -5.40248 1.92144 0
M  V30 805 N 82.5912 -6.47726 2.4581 0
M  V30 806 N 84.3842 -5.31459 1.83052 0
M  V30 807 H 76.5352 -1.44483 1.55687 0
M  V30 808 H 78.7982 -0.689291 0.650831 0
M  V30 809 H 78.5042 -2.9269 1.95002 0
M  V30 810 H 78.3782 -3.75014 0.405486 0
M  V30 811 H 80.7652 -2.94581 -0.174871 0
M  V30 812 H 80.8462 -2.14148 1.39908 0
M  V30 813 H 80.4902 -4.39573 2.54437 0
M  V30 814 H 80.4202 -5.18025 0.946432 0
M  V30 815 H 82.9112 -3.62367 1.07231 0
M  V30 816 H 83.2242 -7.20863 2.78525 0
M  V30 817 H 81.5692 -6.48542 2.49836 0
M  V30 818 H 84.7602 -4.46396 1.40883 0
M  V30 819 H 84.9332 -6.09881 2.18973 0
M  V30 820 N 78.3393 -0.321999 -1.54275 0
M  V30 821 C 79.2693 0.537411 -2.27231 0
M  V30 822 C 80.2503 1.12064 -1.27968 0
M  V30 823 O 81.4353 1.14606 -1.56777 0
M  V30 824 C 78.5653 1.69919 -3.02894 0
M  V30 825 C 77.5193 1.24534 -4.09482 0
M  V30 826 C 76.8453 2.49394 -4.72977 0
M  V30 827 C 78.1453 0.361335 -5.21049 0
M  V30 828 H 79.8393 -0.0711406 -2.99315 0
M  V30 829 H 77.3853 -0.0356555 -1.43956 0
M  V30 830 H 79.3383 2.30668 -3.52662 0
M  V30 831 H 78.0623 2.33431 -2.28424 0
M  V30 832 H 76.7213 0.660782 -3.60596 0
M  V30 833 H 76.3693 3.11265 -3.95124 0
M  V30 834 H 76.0693 2.19718 -5.44975 0
M  V30 835 H 77.5933 3.10908 -5.25517 0
M  V30 836 H 79.0073 0.875072 -5.66582 0
M  V30 837 H 77.4043 0.157428 -5.99893 0
M  V30 838 H 78.4743 -0.60822 -4.8107 0
M  V30 839 N 79.8174 1.5752 -0.0501392 0
M  V30 840 C 80.7494 2.08413 0.95376 0
M  V30 841 C 81.7624 1.01175 1.27544 0
M  V30 842 O 82.9514 1.28744 1.23641 0
M  V30 843 C 80.0514 2.51138 2.27559 0
M  V30 844 C 79.2244 3.817 2.13598 0
M  V30 845 C 78.2834 4.10749 3.28895 0
M  V30 846 O 77.3094 4.80685 3.04845 0
M  V30 847 N 78.5114 3.62579 4.5334 0
M  V30 848 H 81.2764 2.95165 0.519383 0
M  V30 849 H 78.8374 1.61327 0.136127 0
M  V30 850 H 80.8294 2.67648 3.03557 0
M  V30 851 H 79.3994 1.6964 2.62567 0
M  V30 852 H 78.6194 3.74782 1.22197 0
M  V30 853 H 79.9074 4.67201 2.01496 0
M  V30 854 H 79.3054 3.06039 4.75769 0
M  V30 855 H 77.8624 3.84329 5.26436 0
M  V30 856 N 81.2955 -0.223234 1.56011 0
M  V30 857 C 82.2055 -1.29766 1.95443 0
M  V30 858 C 83.2215 -1.51373 0.858028 0
M  V30 859 O 84.3975 -1.64536 1.16146 0
M  V30 860 C 81.4625 -2.62772 2.26167 0
M  V30 861 C 80.5235 -2.49482 3.49367 0
M  V30 862 C 79.7565 -3.76145 3.78616 0
M  V30 863 O 79.9795 -4.79087 3.09568 0
M  V30 864 O 78.9135 -3.73358 4.72109 0
M  V30 865 H 82.7395 -0.99309 2.87004 0
M  V30 866 H 80.3245 -0.425958 1.43199 0
M  V30 867 H 82.2065 -3.41327 2.47131 0
M  V30 868 H 80.8815 -2.92913 1.37781 0
M  V30 869 H 79.7885 -1.69133 3.33684 0
M  V30 870 H 81.1215 -2.2428 4.38131 0
M  V30 871 N 82.7736 -1.49793 -0.48987 0
M  V30 872 C 84.0196 -1.60078 -1.24511 0
M  V30 873 C 84.3526 -0.291608 -1.91998 0
M  V30 874 O 83.6276 0.705647 -1.81248 0
M  V30 875 C 83.9106 -2.76791 -2.30345 0
M  V30 876 C 83.7636 -4.17535 -1.67286 0
M  V30 877 C 85.0826 -2.89111 -3.31817 0
M  V30 878 H 82.2016 -0.582645 -0.451324 0
M  V30 879 H 84.8436 -1.82117 -0.541612 0
M  V30 880 H 82.9936 -2.5813 -2.90346 0
M  V30 881 H 84.6656 -4.4774 -1.11026 0
M  V30 882 H 82.9086 -4.22665 -0.976577 0
M  V30 883 H 83.5796 -4.95094 -2.44103 0
M  V30 884 H 86.0556 -3.06133 -2.81819 0
M  V30 885 H 84.9316 -3.72433 -4.03219 0
M  V30 886 H 85.1926 -1.9893 -3.94815 0
M  V30 887 N 84.2517 0.741722 -1.39055 0
M  V30 888 C 85.6627 1.31966 -1.32068 0
M  V30 889 C 86.0137 1.96192 0.0180797 0
M  V30 890 O 85.1387 1.95861 0.920196 0
M  V30 891 C 85.7337 2.39954 -2.39181 0
M  V30 892 C 84.2927 2.93438 -2.35735 0
M  V30 893 C 83.4397 1.66936 -2.21422 0
M  V30 894 H 86.3907 0.539721 -1.4924 0
M  V30 895 H 86.4117 3.20182 -2.05581 0
M  V30 896 H 85.9237 1.9318 -3.36605 0
M  V30 897 H 84.0247 3.4451 -1.41929 0
M  V30 898 H 84.1377 3.4701 -3.30335 0
M  V30 899 H 82.5017 1.91016 -1.68478 0
M  V30 900 H 83.2847 1.22224 -3.20806 0
M  V30 901 N 85.7298 1.2412 0.971189 0
M  V30 902 C 86.6618 0.988349 2.06795 0
M  V30 903 C 87.6748 -0.0409541 1.62748 0
M  V30 904 O 88.8638 0.195673 1.77424 0
M  V30 905 C 85.9638 0.469023 3.35639 0
M  V30 906 C 85.1368 1.56065 4.08611 0
M  V30 907 C 84.1958 1.04458 5.15728 0
M  V30 908 O 83.2218 1.73553 5.42096 0
M  V30 909 N 84.4238 -0.122817 5.8037 0
M  V30 910 H 87.1888 1.93265 2.29061 0
M  V30 911 H 84.7498 1.15102 1.13856 0
M  V30 912 H 86.7418 0.108613 4.04554 0
M  V30 913 H 85.3118 -0.380919 3.1027 0
M  V30 914 H 84.5318 2.09341 3.34021 0
M  V30 915 H 85.8198 2.29449 4.54126 0
M  V30 916 H 85.2178 -0.700563 5.61345 0
M  V30 917 H 83.7748 -0.424404 6.50417 0
M  V30 918 N 87.2079 -1.17134 1.05439 0
M  V30 919 C 88.4359 -1.91372 0.786414 0
M  V30 920 C 88.8509 -1.76955 -0.658202 0
M  V30 921 O 88.2079 -1.10838 -1.44987 0
M  V30 922 C 88.2589 -3.42356 1.1608 0
M  V30 923 O 87.9799 -3.56332 2.54871 0
M  V30 924 C 89.4809 -4.33663 0.919322 0
M  V30 925 H 86.7009 -0.607118 0.285743 0
M  V30 926 H 89.2449 -1.48525 1.40572 0
M  V30 927 H 87.3999 -3.82939 0.586191 0
M  V30 928 H 87.8139 -4.49896 2.69618 0
M  V30 929 H 89.2879 -5.38099 1.231 0
M  V30 930 H 89.7649 -4.38959 -0.145359 0
M  V30 931 H 90.3709 -3.98796 1.47789 0
M  V30 932 N 88.686 -0.835752 -1.33615 0
M  V30 933 C 89.932 -0.430596 -1.98176 0
M  V30 934 C 90.265 1.00684 -1.66061 0
M  V30 935 O 89.54 1.70339 -0.938877 0
M  V30 936 C 89.823 -0.648065 -3.5422 0
M  V30 937 C 89.676 -2.13255 -3.96033 0
M  V30 938 C 90.995 -0.0922113 -4.40003 0
M  V30 939 H 88.114 -0.157924 -0.719881 0
M  V30 940 H 90.756 -1.05069 -1.58305 0
M  V30 941 H 88.906 -0.120237 -3.88314 0
M  V30 942 H 90.578 -2.725 -3.72211 0
M  V30 943 H 88.821 -2.61823 -3.45878 0
M  V30 944 H 89.492 -2.23547 -5.04708 0
M  V30 945 H 91.968 -0.543343 -4.12537 0
M  V30 946 H 90.844 -0.274083 -5.48215 0
M  V30 947 H 91.105 1.00378 -4.30554 0
M  V30 948 N 90.1641 1.46063 -0.591896 0
M  V30 949 C 91.4121 2.01938 -0.0808391 0
M  V30 950 C 91.7331 1.46475 1.28725 0
M  V30 951 O 91.0031 0.652944 1.84698 0
M  V30 952 H 89.5831 0.746516 -0.0268938 0
M  V30 953 H 92.2451 1.79055 -0.769752 0
M  V30 954 H 91.3411 3.12094 -0.0187578 0
M  V30 955 N 91.6422 0.330177 1.54103 0
M  V30 956 C 92.5892 -0.532762 2.24567 0
M  V30 957 C 93.5592 -1.10635 1.23892 0
M  V30 958 O 94.7442 -1.14546 1.5259 0
M  V30 959 C 91.8842 -1.6845 3.01195 0
M  V30 960 C 90.9972 -1.13951 4.167 0
M  V30 961 C 90.1322 -2.25746 4.80845 0
M  V30 962 C 89.1712 -1.6853 5.88442 0
M  V30 963 N 88.3082 -2.74014 6.46421 0
M  V30 964 H 93.1482 0.0746905 2.97906 0
M  V30 965 H 90.6852 0.048632 1.4702 0
M  V30 966 H 92.6432 -2.36234 3.43874 0
M  V30 967 H 91.2732 -2.26314 2.30178 0
M  V30 968 H 90.3252 -0.35301 3.78758 0
M  V30 969 H 91.6372 -0.680892 4.94131 0
M  V30 970 H 90.7912 -3.01422 5.26526 0
M  V30 971 H 89.5302 -2.74947 4.0281 0
M  V30 972 H 88.5352 -0.913543 5.42157 0
M  V30 973 H 89.7602 -1.20198 6.68378 0
M  V30 974 H 87.7062 -3.22494 5.71256 0
M  V30 975 H 87.6232 -2.32735 7.19285 0
M  V30 976 H 88.8912 -3.49499 6.96757 0
M  V30 977 N 93.1203 -1.57491 0.0584922 0
M  V30 978 C 94.3503 -1.9701 -0.622134 0
M  V30 979 C 94.7583 -0.935034 -1.6448 0
M  V30 980 O 94.1013 0.0882904 -1.83488 0
M  V30 981 C 94.1633 -3.32794 -1.35972 0
M  V30 982 C 93.8273 -4.54343 -0.492043 0
M  V30 983 C 94.8243 -5.19323 0.244901 0
M  V30 984 C 92.5093 -5.00534 -0.420821 0
M  V30 985 C 94.5033 -6.28835 1.04143 0
M  V30 986 C 92.1903 -6.09921 0.379389 0
M  V30 987 C 93.1883 -6.73933 1.10919 0
M  V30 988 O 92.8763 -7.81216 1.89623 0
M  V30 989 H 92.6083 -0.653127 -0.174359 0
M  V30 990 H 95.1623 -2.05029 0.123418 0
M  V30 991 H 93.3923 -3.21351 -2.15105 0
M  V30 992 H 95.0813 -3.5701 -1.93129 0
M  V30 993 H 95.8473 -4.8459 0.19939 0
M  V30 994 H 91.7263 -4.50496 -0.978474 0
M  V30 995 H 95.2703 -6.7873 1.61157 0
M  V30 996 H 91.1673 -6.44089 0.426512 0
M  V30 997 H 91.9353 -7.98029 1.81913 0
M  V30 998 N 94.5984 0.214957 -1.56127 0
M  V30 999 C 95.8444 0.939762 -1.79712 0
M  V30 1000 C 96.1774 1.83723 -0.629247 0
M  V30 1001 O 95.4524 1.90925 0.371197 0
M  V30 1002 C 95.7354 1.77306 -3.13424 0
M  V30 1003 C 95.5884 0.90164 -4.40671 0
M  V30 1004 C 96.9074 2.74956 -3.43638 0
M  V30 1005 H 94.0264 0.340214 -0.653776 0
M  V30 1006 H 96.6684 0.20824 -1.88855 0
M  V30 1007 H 94.8184 2.39673 -3.0576 0
M  V30 1008 H 96.4904 0.294206 -4.60361 0
M  V30 1009 H 94.7334 0.207368 -4.33304 0
M  V30 1010 H 95.4044 1.51923 -5.30682 0
M  V30 1011 H 97.8804 2.22724 -3.51473 0
M  V30 1012 H 96.7564 3.30358 -4.38355 0
M  V30 1013 H 97.0174 3.53023 -2.66134 0
M  V30 1014 N 96.0765 1.50051 0.48192 0
M  V30 1015 C 97.3045 1.64237 1.25832 0
M  V30 1016 C 97.7195 0.321336 1.86045 0
M  V30 1017 O 97.0765 -0.695478 1.68729 0
M  V30 1018 C 97.1275 2.72548 2.37487 0
M  V30 1019 O 96.8485 3.99529 1.79745 0
M  V30 1020 C 98.3495 2.9761 3.28547 0
M  V30 1021 H 95.5695 0.55237 0.380957 0
M  V30 1022 H 98.1135 1.96207 0.576467 0
M  V30 1023 H 96.2685 2.43303 3.01467 0
M  V30 1024 H 96.6825 4.59342 2.5319 0
M  V30 1025 H 98.1565 3.77084 4.03127 0
M  V30 1026 H 98.6335 2.0826 3.86684 0
M  V30 1027 H 99.2395 3.28345 2.70314 0
M  V30 1028 N 97.5546 -0.734337 1.39446 0
M  V30 1029 C 98.4646 -1.87879 1.40495 0
M  V30 1030 C 99.4806 -1.714 0.299672 0
M  V30 1031 O 100.657 -1.93991 0.541249 0
M  V30 1032 C 97.7216 -3.23477 1.24754 0
M  V30 1033 C 96.7826 -3.52344 2.45259 0
M  V30 1034 C 96.0156 -4.81473 2.30259 0
M  V30 1035 O 96.2386 -5.55237 1.30643 0
M  V30 1036 O 95.1726 -5.10254 3.19256 0
M  V30 1037 H 98.9986 -1.89949 2.36966 0
M  V30 1038 H 96.5836 -0.882243 1.20569 0
M  V30 1039 H 98.4656 -4.04509 1.18111 0
M  V30 1040 H 97.1406 -3.22176 0.313781 0
M  V30 1041 H 96.0476 -2.71396 2.57478 0
M  V30 1042 H 97.3806 -3.58426 3.37331 0
M  V30 1043 N 99.0327 -1.24633 -0.964593 0
M  V30 1044 C 99.9627 -1.06611 -2.07741 0
M  V30 1045 C 100.944 0.0218666 -1.70086 0
M  V30 1046 O 102.129 -0.145793 -1.93652 0
M  V30 1047 C 99.2587 -0.673444 -3.40708 0
M  V30 1048 C 98.2127 -1.71054 -3.92332 0
M  V30 1049 C 97.5387 -1.17285 -5.21678 0
M  V30 1050 C 98.8387 -3.10718 -4.19824 0
M  V30 1051 H 100.533 -1.99693 -2.23076 0
M  V30 1052 H 98.0787 -0.96152 -1.07195 0
M  V30 1053 H 100.032 -0.534345 -4.17998 0
M  V30 1054 H 98.7557 0.293073 -3.25282 0
M  V30 1055 H 97.4147 -1.83791 -3.17201 0
M  V30 1056 H 97.0627 -0.196847 -5.02615 0
M  V30 1057 H 96.7627 -1.86592 -5.57187 0
M  V30 1058 H 98.2867 -1.04593 -6.01575 0
M  V30 1059 H 99.7007 -3.01192 -4.87808 0
M  V30 1060 H 98.0977 -3.77406 -4.66567 0
M  V30 1061 H 99.1677 -3.58524 -3.26479 0
M  V30 1062 N 100.511 1.16574 -1.06058 0
M  V30 1063 C 101.788 1.83048 -0.689416 0
M  V30 1064 C 102.168 1.94122 0.829443 0
M  V30 1065 O 101.516 1.48249 1.7388 0
M  V30 1066 C 101.726 3.20186 -1.38859 0
M  V30 1067 C 103.074 3.95989 -1.53226 0
M  V30 1068 O 104.098 3.29696 -1.3483 0
M  V30 1069 O 102.957 5.14813 -1.83384 0
M  V30 1070 H 100.051 0.790258 -0.243764 0
M  V30 1071 H 102.597 1.23797 -1.16071 0
M  V30 1072 H 101.369 3.07146 -2.4244 0
M  V30 1073 H 100.992 3.87112 -0.907216 0
M  V30 1074 N 101.989 0.842826 1.3317 0
M  V30 1075 C 102.919 0.294028 2.31641 0
M  V30 1076 C 103.9 -0.600401 1.59151 0
M  V30 1077 O 105.085 -0.523124 1.87022 0
M  V30 1078 C 102.215 -0.528416 3.43257 0
M  V30 1079 C 101.169 0.27056 4.27144 0
M  V30 1080 C 100.495 -0.675881 5.30411 0
M  V30 1081 C 101.795 1.48981 5.00602 0
M  V30 1082 H 103.489 1.11681 2.77791 0
M  V30 1083 H 101.035 0.538478 1.33553 0
M  V30 1084 H 102.988 -0.922674 4.11175 0
M  V30 1085 H 101.712 -1.38445 2.95805 0
M  V30 1086 H 100.371 0.646427 3.60856 0
M  V30 1087 H 100.019 -1.52842 4.79216 0
M  V30 1088 H 99.7189 -0.145374 5.8742 0
M  V30 1089 H 101.243 -1.06757 6.01195 0
M  V30 1090 H 102.657 1.16849 5.61266 0
M  V30 1091 H 101.054 1.95739 5.6728 0
M  V30 1092 H 102.124 2.25746 4.29147 0
M  V30 1093 N 103.467 -1.45747 0.599634 0
M  V30 1094 C 104.692 -2.07178 0.0960198 0
M  V30 1095 C 105.117 -1.44268 -1.207 0
M  V30 1096 O 104.475 -0.532503 -1.73303 0
M  V30 1097 C 104.523 -3.60579 -0.0385348 0
M  V30 1098 O 103.627 -3.97713 -1.0908 0
M  V30 1099 H 102.968 -0.660251 0.0704593 0
M  V30 1100 H 105.498 -1.87124 0.827385 0
M  V30 1101 H 105.508 -4.07298 -0.239304 0
M  V30 1102 H 104.183 -4.05756 0.912947 0
M  V30 1103 H 102.76 -3.62678 -0.867135 0
M  V30 1104 N 104.945 -0.338344 -1.53925 0
M  V30 1105 C 106.222 0.314774 -1.93051 0
M  V30 1106 C 106.602 1.68669 -1.26941 0
M  V30 1107 O 105.95 2.24636 -0.418445 0
M  V30 1108 C 106.16 0.392249 -3.46789 0
M  V30 1109 C 107.508 0.645554 -4.19664 0
M  V30 1110 O 108.532 0.474575 -3.53024 0
M  V30 1111 O 107.391 0.976408 -5.37707 0
M  V30 1112 H 104.485 0.182598 -0.80659 0
M  V30 1113 H 107.031 -0.389141 -1.65178 0
M  V30 1114 H 105.803 -0.570702 -3.87116 0
M  V30 1115 H 105.426 1.14316 -3.80812 0
M  V30 1116 N 106.423 1.57458 -0.0668435 0
M  V30 1117 C 107.371 2.13639 0.919851 0
M  V30 1118 C 108.365 1.07204 1.31163 0
M  V30 1119 O 109.571 1.25591 1.28945 0
M  V30 1120 H 105.946 0.683048 0.314562 0
M  V30 1121 H 107.917 2.95415 0.421047 0
M  V30 1122 C 106.666 2.70892 2.17975 0
M  V30 1123 H 105.989 3.5246 1.88711 0
M  V30 1124 H 107.429 3.13803 2.85138 0
M  V30 1125 C 105.888 1.65414 2.93496 0
M  V30 1126 O 106.418 1.07619 3.87015 0
M  V30 1127 N 104.624 1.36564 2.56512 0
M  V30 1128 H 104.171 1.83751 1.80536 0
M  V30 1129 H 104.129 0.66223 3.07347 0
M  V30 1130 N 107.901 -0.206675 1.56239 0
M  V30 1131 C 109.148 -0.928842 1.79941 0
M  V30 1132 C 109.476 -1.83734 0.638131 0
M  V30 1133 O 108.731 -1.92039 -0.376746 0
M  V30 1134 C 109.03 -1.78675 3.09532 0
M  V30 1135 C 108.696 -1.03022 4.38973 0
M  V30 1136 C 107.358 -0.821302 4.74139 0
M  V30 1137 C 109.71 -0.497081 5.18824 0
M  V30 1138 C 107.038 -0.0675719 5.86661 0
M  V30 1139 C 109.39 0.24338 6.32132 0
M  V30 1140 C 108.054 0.463422 6.65889 0
M  V30 1141 H 107.324 -0.339887 0.658451 0
M  V30 1142 H 109.971 -0.195977 1.90495 0
M  V30 1143 H 108.276 -2.58794 2.94165 0
M  V30 1144 H 109.973 -2.34792 3.25075 0
M  V30 1145 H 106.563 -1.20306 4.11369 0
M  V30 1146 H 110.747 -0.645921 4.92079 0
M  V30 1147 H 106.003 0.112995 6.11296 0
M  V30 1148 H 110.177 0.66393 6.93228 0
M  V30 1149 H 107.804 1.04938 7.52922 0
M  V30 1150 N 109.379 -1.50304 -0.473955 0
M  V30 1151 C 110.628 -1.60392 -1.22301 0
M  V30 1152 C 110.941 -0.308411 -1.93153 0
M  V30 1153 O 112.147 -0.288156 -2.69966 0
M  V30 1154 C 110.603 -2.83109 -2.2221 0
M  V30 1155 C 110.211 -4.19524 -1.57173 0
M  V30 1156 C 111.955 -3.0254 -2.97775 0
M  V30 1157 C 109.862 -5.33431 -2.55353 0
M  V30 1158 H 108.792 -0.597286 -0.460179 0
M  V30 1159 H 111.443 -1.76731 -0.493803 0
M  V30 1160 H 109.825 -2.60322 -2.9841 0
M  V30 1161 H 110.999 -4.52554 -0.867824 0
M  V30 1162 H 109.314 -4.05674 -0.939002 0
M  V30 1163 H 111.911 -3.84811 -3.71248 0
M  V30 1164 H 112.254 -2.14154 -3.56992 0
M  V30 1165 H 112.787 -3.25494 -2.28688 0
M  V30 1166 H 109.526 -6.23962 -2.00878 0
M  V30 1167 H 109.046 -5.04823 -3.23904 0
M  V30 1168 H 110.725 -5.63887 -3.17239 0
M  V30 1169 N 110.857 0.726932 -1.39834 0
M  V30 1170 C 112.085 1.51613 -1.40787 0
M  V30 1171 C 112.5 1.88799 -0.00451505 0
M  V30 1172 O 111.857 1.54662 0.968809 0
M  V30 1173 C 111.908 2.79863 -2.28821 0
M  V30 1174 O 111.629 2.44253 -3.63692 0
M  V30 1175 C 113.13 3.73837 -2.38245 0
M  V30 1176 H 110.35 0.468264 -0.480593 0
M  V30 1177 H 112.894 0.897607 -1.83748 0
M  V30 1178 H 111.049 3.38027 -1.89252 0
M  V30 1179 H 111.463 3.26695 -4.1033 0
M  V30 1180 H 112.937 4.60699 -3.04073 0
M  V30 1181 H 113.414 4.16153 -1.40403 0
M  V30 1182 H 114.02 3.21589 -2.78317 0
M  V30 1183 N 112.336 1.25143 0.95797 0
M  V30 1184 C 113.286 1.01924 2.0395 0
M  V30 1185 C 114.27 -0.0427175 1.60843 0
M  V30 1186 O 115.462 0.17221 1.7616 0
M  V30 1187 C 112.591 0.636373 3.3735 0
M  V30 1188 C 111.677 1.73492 3.8699 0
M  V30 1189 N 112.068 2.96945 4.0946 0
M  V30 1190 C 110.366 1.61467 4.15746 0
M  V30 1191 C 111.067 3.68228 4.50315 0
M  V30 1192 N 110.043 2.95833 4.56053 0
M  V30 1193 H 113.845 1.95653 2.19311 0
M  V30 1194 H 111.359 1.15413 1.14253 0
M  V30 1195 H 113.356 0.451233 4.14451 0
M  V30 1196 H 112.016 -0.293621 3.2337 0
M  V30 1197 H 113.027 3.33025 3.96629 0
M  V30 1198 H 109.704 0.753394 4.10646 0
M  V30 1199 H 111.094 4.74178 4.76031 0
M  V30 1200 N 113.814 -1.1601 1.06675 0
M  V30 1201 C 115.063 -1.85973 0.780818 0
M  V30 1202 C 115.376 -1.82819 -0.695444 0
M  V30 1203 O 116.582 -2.484 -1.09589 0
M  V30 1204 C 115.038 -3.33757 1.34665 0
M  V30 1205 C 114.646 -3.45374 2.85343 0
M  V30 1206 C 116.39 -4.0895 1.13843 0
M  V30 1207 C 114.297 -4.87266 3.35151 0
M  V30 1208 H 113.227 -0.696661 0.288407 0
M  V30 1209 H 115.878 -1.30903 1.28595 0
M  V30 1210 H 114.26 -3.88456 0.769274 0
M  V30 1211 H 115.434 -3.00816 3.49065 0
M  V30 1212 H 113.749 -2.83619 3.04876 0
M  V30 1213 H 116.346 -5.13654 1.4854 0
M  V30 1214 H 116.689 -4.16229 0.0770282 0
M  V30 1215 H 117.222 -3.605 1.68179 0
M  V30 1216 H 113.961 -4.85168 4.40786 0
M  V30 1217 H 113.481 -5.32433 2.76179 0
M  V30 1218 H 115.16 -5.56097 3.30704 0
M  V30 1219 N 115.292 -0.849877 -1.32721 0
M  V30 1220 C 116.52 -0.464754 -2.01613 0
M  V30 1221 C 116.935 0.937191 -1.63897 0
M  V30 1222 O 116.292 1.61081 -0.857856 0
M  V30 1223 C 116.343 -0.588638 -3.56675 0
M  V30 1224 O 116.064 -1.93535 -3.93034 0
M  V30 1225 C 117.565 -0.2019 -4.4284 0
M  V30 1226 H 114.785 -0.183215 -0.645502 0
M  V30 1227 H 117.329 -1.1455 -1.69407 0
M  V30 1228 H 115.484 0.0443159 -3.87375 0
M  V30 1229 H 115.898 -1.92871 -4.87751 0
M  V30 1230 H 117.372 -0.339599 -5.50954 0
M  V30 1231 H 117.849 0.857224 -4.30753 0
M  V30 1232 H 118.455 -0.809733 -4.17521 0
M  V30 1233 N 116.77 1.45427 -0.607355 0
M  V30 1234 C 117.718 2.32269 0.12411 0
M  V30 1235 C 118.712 1.45955 0.859854 0
M  V30 1236 O 119.918 1.6244 0.775447 0
M  V30 1237 H 116.293 0.749691 0.0588839 0
M  V30 1238 H 118.264 2.91743 -0.626762 0
M  V30 1239 C 117.013 3.29567 1.1082 0
M  V30 1240 H 116.336 3.95978 0.551492 0
M  V30 1241 H 117.776 3.93061 1.58995 0
M  V30 1242 C 116.235 2.56722 2.18164 0
M  V30 1243 O 116.765 2.34842 3.25902 0
M  V30 1244 N 114.971 2.16861 1.93442 0
M  V30 1245 H 114.518 2.34855 1.05834 0
M  V30 1246 H 114.476 1.68444 2.65469 0
M  V30 1247 N 118.248 0.346503 1.53744 0
M  V30 1248 C 119.158 -0.517293 2.28826 0
M  V30 1249 C 120.174 -1.10935 1.3405 0
M  V30 1250 O 121.35 -1.1244 1.6709 0
M  V30 1251 C 118.415 -1.65098 3.04866 0
M  V30 1252 C 117.476 -1.0884 4.15274 0
M  V30 1253 C 116.709 -2.16806 4.87679 0
M  V30 1254 O 116.932 -3.3758 4.59778 0
M  V30 1255 O 115.866 -1.80934 5.74061 0
M  V30 1256 H 119.692 0.0931396 3.03557 0
M  V30 1257 H 117.277 0.111458 1.48984 0
M  V30 1258 H 119.159 -2.31053 3.5241 0
M  V30 1259 H 117.834 -2.24717 2.32989 0
M  V30 1260 H 116.741 -0.3933 3.72027 0
M  V30 1261 H 118.074 -0.537036 4.89261 0
M  V30 1262 N 119.726 -1.57421 0.075193 0
M  V30 1263 C 120.951 -1.98364 -0.605515 0
M  V30 1264 C 121.376 -0.953383 -1.62149 0
M  V30 1265 O 120.734 0.0806053 -1.81121 0
M  V30 1266 C 120.782 -3.38332 -1.24756 0
M  V30 1267 O 119.886 -3.37959 -2.36342 0
M  V30 1268 H 119.227 -0.645553 -0.155428 0
M  V30 1269 H 121.757 -2.04044 0.150714 0
M  V30 1270 H 121.767 -3.75591 -1.5936 0
M  V30 1271 H 120.442 -4.12846 -0.503129 0
M  V30 1272 H 119.019 -3.12474 -2.03506 0
M  V30 1273 N 121.204 0.198386 -1.56346 0
M  V30 1274 C 122.451 0.919286 -1.80431 0
M  V30 1275 C 122.779 1.83393 -0.647866 0
M  V30 1276 O 122.034 1.92236 0.366556 0
M  V30 1277 C 122.333 1.77031 -3.10475 0
M  V30 1278 C 121.999 1.00693 -4.39513 0
M  V30 1279 C 120.661 0.796145 -4.74568 0
M  V30 1280 C 123.013 0.469559 -5.19081 0
M  V30 1281 C 120.341 0.0364588 -5.86689 0
M  V30 1282 C 122.693 -0.2769 -6.31994 0
M  V30 1283 C 121.357 -0.49873 -6.65634 0
M  V30 1284 H 120.627 0.336391 -0.660244 0
M  V30 1285 H 123.274 0.185872 -1.90596 0
M  V30 1286 H 121.579 2.5723 -2.95533 0
M  V30 1287 H 123.276 2.33065 -3.26315 0
M  V30 1288 H 119.866 1.18122 -4.12001 0
M  V30 1289 H 124.05 0.619816 -4.92414 0
M  V30 1290 H 119.306 -0.145412 -6.11227 0
M  V30 1291 H 123.48 -0.700684 -6.92866 0
M  V30 1292 H 121.107 -1.0893 -7.52355 0
M  V30 1293 N 122.682 1.50554 0.465978 0
M  V30 1294 C 123.614 1.65949 1.58093 0
M  V30 1295 C 124.627 0.540827 1.53554 0
M  V30 1296 O 125.816 0.814187 1.5885 0
M  V30 1297 C 122.916 1.63261 2.96983 0
M  V30 1298 C 122.089 2.91245 3.26336 0
M  V30 1299 C 121.148 2.8113 4.44806 0
M  V30 1300 O 120.174 3.55086 4.44862 0
M  V30 1301 N 121.376 1.95032 5.46756 0
M  V30 1302 H 124.141 2.62122 1.45301 0
M  V30 1303 H 121.702 1.48082 0.65448 0
M  V30 1304 H 123.694 1.54101 3.74212 0
M  V30 1305 H 122.264 0.748032 3.03518 0
M  V30 1306 H 121.484 3.14493 2.37672 0
M  V30 1307 H 122.772 3.76022 3.42761 0
M  V30 1308 H 122.17 1.3427 5.49534 0
M  V30 1309 H 120.727 1.91772 6.2295 0
M  V30 1310 N 124.16 -0.719506 1.40217 0
M  V30 1311 C 125.408 -1.47641 1.3801 0
M  V30 1312 C 125.729 -1.94992 -0.018145 0
M  V30 1313 O 124.999 -1.70073 -0.972207 0
M  V30 1314 H 123.579 -0.547744 0.507923 0
M  V30 1315 H 126.241 -0.853187 1.75233 0
M  V30 1316 H 125.337 -2.35112 2.05253 0
M  V30 1317 N 125.638 -1.25649 -0.95132 0
M  V30 1318 C 126.568 -1.08808 -2.06599 0
M  V30 1319 C 127.549 0.00382547 -1.701 0
M  V30 1320 O 128.734 -0.166325 -1.93486 0
M  V30 1321 C 125.864 -0.709542 -3.39975 0
M  V30 1322 C 124.818 -1.75206 -3.90496 0
M  V30 1323 C 124.144 -1.22811 -5.20405 0
M  V30 1324 C 125.444 -3.15153 -4.16504 0
M  V30 1325 H 127.138 -2.02048 -2.20946 0
M  V30 1326 H 124.684 -0.972835 -1.06169 0
M  V30 1327 H 126.637 -0.578649 -4.17408 0
M  V30 1328 H 125.361 0.258556 -3.25575 0
M  V30 1329 H 124.02 -1.87145 -3.15234 0
M  V30 1330 H 123.668 -0.250145 -5.02378 0
M  V30 1331 H 123.368 -1.92492 -5.55176 0
M  V30 1332 H 124.892 -1.10968 -6.00432 0
M  V30 1333 H 126.306 -3.06349 -4.84586 0
M  V30 1334 H 124.703 -3.82333 -4.62538 0
M  V30 1335 H 125.773 -3.61966 -3.22658 0
M  V30 1336 N 127.117 1.15442 -1.07289 0
M  V30 1337 C 128.049 2.19773 -0.650585 0
M  V30 1338 C 129.062 1.60076 0.296572 0
M  V30 1339 O 130.251 1.78293 0.0859905 0
M  V30 1340 C 127.351 3.38838 0.0650398 0
M  V30 1341 C 126.524 4.2808 -0.898141 0
M  V30 1342 C 125.583 5.2574 -0.219926 0
M  V30 1343 O 124.609 5.62654 -0.860773 0
M  V30 1344 N 125.811 5.71205 1.03466 0
M  V30 1345 H 128.576 2.56622 -1.54808 0
M  V30 1346 H 126.137 1.30551 -0.957494 0
M  V30 1347 H 128.129 4.01222 0.529415 0
M  V30 1348 H 126.699 3.00409 0.864466 0
M  V30 1349 H 125.919 3.62804 -1.54165 0
M  V30 1350 H 127.207 4.84577 -1.5512 0
M  V30 1351 H 126.605 5.43325 1.57526 0
M  V30 1352 H 125.162 6.35633 1.44272 0
M  V30 1353 N 128.595 0.856903 1.32268 0
M  V30 1354 C 129.543 0.291987 2.3076 0
M  V30 1355 C 130.537 -0.585857 1.58947 0
M  V30 1356 O 131.743 -0.47341 1.73663 0
M  V30 1357 H 128.118 0.075721 0.748178 0
M  V30 1358 H 130.089 1.13687 2.75895 0
M  V30 1359 C 128.838 -0.502869 3.44044 0
M  V30 1360 H 128.161 0.163328 3.99466 0
M  V30 1361 H 129.601 -0.863691 4.1511 0
M  V30 1362 C 128.06 -1.68898 2.91505 0
M  V30 1363 O 128.59 -2.78811 2.89184 0
M  V30 1364 N 126.796 -1.51679 2.47875 0
M  V30 1365 H 126.343 -0.622666 2.49961 0
M  V30 1366 H 126.301 -2.31184 2.13076 0
M  V30 1367 N 130.073 -1.45103 0.615059 0
M  V30 1368 C 131.003 -2.33339 -0.0865619 0
M  V30 1369 C 131.984 -1.4727 -0.851209 0
M  V30 1370 O 133.169 -1.76026 -0.820281 0
M  V30 1371 C 130.299 -3.30095 -1.07956 0
M  V30 1372 C 129.253 -4.25858 -0.427628 0
M  V30 1373 C 128.579 -5.12361 -1.5294 0
M  V30 1374 C 129.879 -5.18165 0.655944 0
M  V30 1375 H 131.573 -2.92254 0.650224 0
M  V30 1376 H 129.119 -1.40532 0.314138 0
M  V30 1377 H 131.072 -3.90698 -1.57901 0
M  V30 1378 H 129.796 -2.69355 -1.84703 0
M  V30 1379 H 128.455 -3.66564 0.0510292 0
M  V30 1380 H 128.103 -4.47984 -2.28734 0
M  V30 1381 H 127.803 -5.77238 -1.09865 0
M  V30 1382 H 129.327 -5.75833 -2.03098 0
M  V30 1383 H 130.741 -5.72796 0.240257 0
M  V30 1384 H 129.138 -5.91559 1.00888 0
M  V30 1385 H 130.208 -4.60144 1.52957 0
M  V30 1386 N 131.551 -0.354651 -1.53558 0
M  V30 1387 C 132.779 0.239515 -2.05509 0
M  V30 1388 C 133.194 1.4333 -1.2289 0
M  V30 1389 O 132.551 1.80538 -0.266899 0
M  V30 1390 C 132.602 0.643719 -3.55723 0
M  V30 1391 O 132.323 -0.502602 -4.35207 0
M  V30 1392 C 133.824 1.29743 -4.23889 0
M  V30 1393 H 131.044 0.0442697 -0.669538 0
M  V30 1394 H 133.588 -0.509856 -1.98042 0
M  V30 1395 H 131.743 1.34302 -3.63376 0
M  V30 1396 H 132.157 -0.178172 -5.24197 0
M  V30 1397 H 133.631 1.53091 -5.30346 0
M  V30 1398 H 134.108 2.25441 -3.76926 0
M  V30 1399 H 134.714 0.639865 -4.20459 0
M  V30 1400 N 133.029 1.57378 -0.0835403 0
M  V30 1401 C 133.976 2.13384 0.879539 0
M  V30 1402 C 134.946 1.04936 1.28754 0
M  V30 1403 O 136.131 1.32662 1.37133 0
M  V30 1404 C 133.271 2.70932 2.13752 0
M  V30 1405 C 132.384 3.93575 1.7811 0
M  V30 1406 C 131.519 4.39326 2.98607 0
M  V30 1407 C 130.558 5.54587 2.59037 0
M  V30 1408 N 129.695 5.95243 3.72331 0
M  V30 1409 H 134.535 2.9537 0.395076 0
M  V30 1410 H 132.072 1.45953 0.183349 0
M  V30 1411 H 134.03 3.02411 2.87408 0
M  V30 1412 H 132.66 1.91693 2.59718 0
M  V30 1413 H 131.712 3.68483 0.94469 0
M  V30 1414 H 133.024 4.77258 1.45005 0
M  V30 1415 H 132.178 4.72528 3.80529 0
M  V30 1416 H 130.917 3.5452 3.34913 0
M  V30 1417 H 129.922 5.21024 1.75539 0
M  V30 1418 H 131.147 6.41133 2.23887 0
M  V30 1419 H 129.093 5.13385 4.08378 0
M  V30 1420 H 129.01 6.73694 3.43034 0
M  V30 1421 H 130.278 6.33072 4.54797 0
M  V30 1422 N 134.507 -0.190092 1.56449 0
M  V30 1423 C 135.756 -0.907912 1.80111 0
M  V30 1424 C 136.069 -1.84214 0.657619 0
M  V30 1425 O 137.275 -2.60094 0.778663 0
M  V30 1426 C 135.731 -1.66485 3.19078 0
M  V30 1427 C 135.339 -0.7752 4.41242 0
M  V30 1428 C 137.083 -2.37201 3.52045 0
M  V30 1429 C 134.99 -1.53129 5.71231 0
M  V30 1430 H 133.92 -0.34276 0.671589 0
M  V30 1431 H 136.571 -0.161109 1.82791 0
M  V30 1432 H 134.953 -2.45572 3.10661 0
M  V30 1433 H 136.127 -0.0226298 4.60794 0
M  V30 1434 H 134.442 -0.178627 4.16017 0
M  V30 1435 H 137.039 -2.94329 4.46402 0
M  V30 1436 H 137.382 -3.11632 2.76028 0
M  V30 1437 H 137.915 -1.65075 3.61932 0
M  V30 1438 H 134.654 -0.82967 6.50228 0
M  V30 1439 H 134.174 -2.25767 5.55688 0
M  V30 1440 H 135.853 -2.08377 6.12526 0
M  V30 1441 N 135.985 -1.50799 -0.457987 0
M  V30 1442 C 136.933 -1.71162 -1.575 0
M  V30 1443 C 137.927 -0.577592 -1.59249 0
M  V30 1444 O 139.133 -0.758443 -1.63241 0
M  V30 1445 H 135.508 -0.540468 -0.522875 0
M  V30 1446 H 137.479 -2.64837 -1.37492 0
M  V30 1447 C 136.228 -1.83496 -2.95338 0
M  V30 1448 H 135.551 -2.70153 -2.94716 0
M  V30 1449 H 136.991 -2.01765 -3.72917 0
M  V30 1450 C 135.45 -0.589694 -3.31699 0
M  V30 1451 O 135.98 0.265163 -4.00824 0
M  V30 1452 N 134.186 -0.439845 -2.87252 0
M  V30 1453 H 133.733 -1.13655 -2.31172 0
M  V30 1454 H 133.691 0.392159 -3.11945 0
M  V30 1455 N 137.463 0.71206 -1.40597 0
M  V30 1456 C 138.393 1.83889 -1.43899 0
M  V30 1457 C 139.374 1.67442 -0.299504 0
M  V30 1458 O 140.559 1.87421 -0.508624 0
M  V30 1459 C 137.689 3.21877 -1.30431 0
M  V30 1460 C 136.643 3.53002 -2.42019 0
M  V30 1461 C 135.969 4.90172 -2.13626 0
M  V30 1462 C 137.269 3.53643 -3.84362 0
M  V30 1463 H 138.963 1.81383 -2.38203 0
M  V30 1464 H 136.509 0.871237 -1.14654 0
M  V30 1465 H 138.462 4.00404 -1.31357 0
M  V30 1466 H 137.186 3.24968 -0.326049 0
M  V30 1467 H 135.845 2.76818 -2.40349 0
M  V30 1468 H 135.493 4.89869 -1.14182 0
M  V30 1469 H 135.193 5.11962 -2.88389 0
M  V30 1470 H 136.717 5.71028 -2.1624 0
M  V30 1471 H 138.131 4.22203 -3.87837 0
M  V30 1472 H 136.528 3.86961 -4.58673 0
M  V30 1473 H 137.598 2.52954 -4.13693 0
M  V30 1474 N 138.941 1.26152 0.944643 0
M  V30 1475 C 139.889 1.07215 2.06417 0
M  V30 1476 C 140.883 9.2007e-05 1.694 0
M  V30 1477 O 142.089 0.1565 1.79318 0
M  V30 1478 H 138.464 0.329837 0.675805 0
M  V30 1479 H 140.435 2.02099 2.19541 0
M  V30 1480 C 139.184 0.718197 3.40202 0
M  V30 1481 H 138.507 1.53497 3.69159 0
M  V30 1482 H 139.947 0.625459 4.19361 0
M  V30 1483 C 138.406 -0.576435 3.31932 0
M  V30 1484 O 138.936 -1.61574 3.67773 0
M  V30 1485 N 137.142 -0.565781 2.85039 0
M  V30 1486 H 136.689 0.280367 2.5607 0
M  V30 1487 H 136.647 -1.43213 2.79888 0
M  V30 1488 N 140.419 -1.14872 1.07899 0
M  V30 1489 C 141.369 -2.17809 0.674027 0
M  V30 1490 C 142.353 -1.58008 -0.303699 0
M  V30 1491 O 143.545 -1.76616 -0.11654 0
M  V30 1492 C 140.674 -3.43208 0.0793318 0
M  V30 1493 C 139.76 -4.10051 1.08253 0
M  V30 1494 N 140.151 -4.52296 2.2641 0
M  V30 1495 C 138.449 -4.36469 0.917124 0
M  V30 1496 C 139.15 -5.04199 2.901 0
M  V30 1497 N 138.126 -4.98088 2.17736 0
M  V30 1498 H 141.928 -2.48207 1.57386 0
M  V30 1499 H 139.442 -1.315 0.952976 0
M  V30 1500 H 141.439 -4.16272 -0.228719 0
M  V30 1501 H 140.099 -3.14291 -0.815551 0
M  V30 1502 H 141.11 -4.45504 2.64096 0
M  V30 1503 H 137.787 -4.17432 0.0756078 0
M  V30 1504 H 139.177 -5.46802 3.90458 0
M  V30 1505 N 141.898 -0.863906 -1.31812 0
M  V30 1506 C 142.846 -0.30422 -2.30602 0
M  V30 1507 C 143.84 0.577419 -1.59255 0
M  V30 1508 O 145.046 0.464194 -1.73912 0
M  V30 1509 H 141.421 -0.0796877 -0.747766 0
M  V30 1510 H 143.392 -1.15148 -2.75288 0
M  V30 1511 C 142.141 0.484617 -3.44306 0
M  V30 1512 H 141.464 -0.18451 -3.99374 0
M  V30 1513 H 142.904 0.841664 -4.15562 0
M  V30 1514 C 141.363 1.6735 -2.92396 0
M  V30 1515 O 141.893 2.77273 -2.90659 0
M  V30 1516 N 140.099 1.50362 -2.48676 0
M  V30 1517 H 139.646 0.609402 -2.50288 0
M  V30 1518 H 139.604 2.30051 -2.14299 0
M  V30 1519 N 143.376 1.44774 -0.622745 0
M  V30 1520 C 144.787 1.85546 -0.207226 0
M  V30 1521 C 145.138 1.52093 1.23944 0
M  V30 1522 O 144.263 0.95492 1.94191 0
M  V30 1523 C 144.858 3.36781 -0.369313 0
M  V30 1524 C 143.417 3.76399 -0.00836847 0
M  V30 1525 C 142.564 2.68664 -0.686651 0
M  V30 1526 H 145.515 1.3536 -0.828454 0
M  V30 1527 H 145.536 3.78453 0.394162 0
M  V30 1528 H 145.048 3.61098 -1.42231 0
M  V30 1529 H 143.149 3.57698 1.04322 0
M  V30 1530 H 143.262 4.7732 -0.412584 0
M  V30 1531 H 141.626 2.54404 -0.122777 0
M  V30 1532 H 142.409 2.95815 -1.74208 0
M  V30 1533 N 144.854 0.36279 1.53368 0
M  V30 1534 C 145.802 -0.500155 2.27159 0
M  V30 1535 C 146.796 -1.08575 1.3003 0
M  V30 1536 O 148.002 -1.02927 1.47668 0
M  V30 1537 H 144.377 -0.180009 0.730138 0
M  V30 1538 H 146.348 0.14401 2.98052 0
M  V30 1539 C 145.097 -1.62937 3.07159 0
M  V30 1540 H 144.42 -1.18806 3.8174 0
M  V30 1541 H 145.86 -2.20795 3.61975 0
M  V30 1542 C 144.319 -2.57007 2.17829 0
M  V30 1543 O 144.849 -3.59752 1.78721 0
M  V30 1544 N 143.055 -2.26131 1.82518 0
M  V30 1545 H 142.602 -1.42616 2.14519 0
M  V30 1546 H 142.56 -2.89327 1.23034 0
M  V30 1547 N 146.332 -1.57332 0.0918853 0
M  V30 1548 C 147.578 -1.94524 -0.573425 0
M  V30 1549 C 147.911 -0.973578 -1.68033 0
M  V30 1550 O 147.186 -0.00609226 -1.94499 0
M  V30 1551 C 147.469 -3.41858 -1.13161 0
M  V30 1552 C 147.322 -4.4979 -0.0299747 0
M  V30 1553 C 148.641 -3.90435 -2.03098 0
M  V30 1554 H 145.76 -0.70734 -0.206975 0
M  V30 1555 H 148.402 -1.89309 0.161942 0
M  V30 1556 H 146.552 -3.46433 -1.7583 0
M  V30 1557 H 148.224 -4.57327 0.604112 0
M  V30 1558 H 146.467 -4.291 0.636833 0
M  V30 1559 H 147.138 -5.50069 -0.461287 0
M  V30 1560 H 149.614 -3.87992 -1.50338 0
M  V30 1561 H 148.49 -4.94097 -2.39081 0
M  V30 1562 H 148.751 -3.29541 -2.94712 0
M  V30 1563 N 147.81 0.181792 -1.56548 0
M  V30 1564 C 148.742 1.24956 -1.92142 0
M  V30 1565 C 149.755 1.41022 -0.813422 0
M  V30 1566 O 150.944 1.41212 -1.09186 0
M  V30 1567 C 148.044 2.61981 -2.14987 0
M  V30 1568 C 147.217 2.6735 -3.46183 0
M  V30 1569 C 146.276 3.85664 -3.5798 0
M  V30 1570 O 145.302 3.72148 -4.30691 0
M  V30 1571 N 146.504 5.01683 -2.92053 0
M  V30 1572 H 149.269 0.947329 -2.84334 0
M  V30 1573 H 146.83 0.371629 -1.57577 0
M  V30 1574 H 148.822 3.3958 -2.20154 0
M  V30 1575 H 147.392 2.84637 -1.2923 0
M  V30 1576 H 146.612 1.75925 -3.52766 0
M  V30 1577 H 147.9 2.67939 -4.32534 0
M  V30 1578 H 147.298 5.15564 -2.32832 0
M  V30 1579 H 145.855 5.77181 -3.0283 0
M  V30 1580 N 149.288 1.51039 0.449983 0
M  V30 1581 C 150.238 1.67824 1.54335 0
M  V30 1582 C 151.222 0.5324 1.51836 0
M  V30 1583 O 152.414 0.787762 1.58503 0
M  V30 1584 C 149.543 1.7951 2.92628 0
M  V30 1585 C 148.629 2.99838 2.9993 0
M  V30 1586 N 149.02 4.23207 2.77001 0
M  V30 1587 C 147.318 2.98832 3.31082 0
M  V30 1588 C 148.019 5.04361 2.89818 0
M  V30 1589 N 146.995 4.38746 3.2094 0
M  V30 1590 H 150.797 2.60884 1.35339 0
M  V30 1591 H 148.311 1.48513 0.657085 0
M  V30 1592 H 150.308 1.89642 3.7127 0
M  V30 1593 H 148.968 0.876227 3.12654 0
M  V30 1594 H 149.979 4.5236 2.52172 0
M  V30 1595 H 146.656 2.16527 3.56963 0
M  V30 1596 H 148.046 6.12528 2.76151 0
M  V30 1597 N 150.766 -0.704594 1.40972 0
M  V30 1598 C 151.698 -1.82974 1.38033 0
M  V30 1599 C 152.711 -1.60305 0.283931 0
M  V30 1600 O 153.9 -1.69975 0.545042 0
M  V30 1601 C 151 -3.19578 1.12795 0
M  V30 1602 C 150.173 -3.69352 2.34302 0
M  V30 1603 C 149.232 -4.84601 2.05058 0
M  V30 1604 O 148.258 -4.96682 2.7802 0
M  V30 1605 N 149.46 -5.71194 1.03528 0
M  V30 1606 H 152.225 -1.85991 2.35005 0
M  V30 1607 H 149.786 -0.886567 1.35468 0
M  V30 1608 H 151.778 -3.9429 0.911987 0
M  V30 1609 H 150.348 -3.11642 0.24452 0
M  V30 1610 H 149.568 -2.85649 2.71659 0
M  V30 1611 H 150.856 -3.99345 3.1528 0
M  V30 1612 H 150.254 -5.64054 0.431217 0
M  V30 1613 H 148.811 -6.45843 0.879205 0
M  V30 1614 N 152.244 -1.26651 -0.937939 0
M  V30 1615 C 153.192 -1.08308 -2.05845 0
M  V30 1616 C 154.186 -0.0090757 -1.69398 0
M  V30 1617 O 155.392 -0.166007 -1.79233 0
M  V30 1618 H 151.767 -0.333416 -0.674046 0
M  V30 1619 H 153.738 -2.03261 -2.18467 0
M  V30 1620 C 152.487 -0.736229 -3.39816 0
M  V30 1621 H 151.81 -1.55453 -3.6834 0
M  V30 1622 H 153.25 -0.64769 -4.19024 0
M  V30 1623 C 151.709 0.558824 -3.32233 0
M  V30 1624 O 152.239 1.59621 -3.68624 0
M  V30 1625 N 150.445 0.550657 -2.85335 0
M  V30 1626 H 149.992 -0.293943 -2.55917 0
M  V30 1627 H 149.95 1.41726 -2.80644 0
M  V30 1628 N 153.722 1.14298 -1.08507 0
M  V30 1629 C 154.97 1.84993 -0.813763 0
M  V30 1630 C 155.291 1.83405 0.662393 0
M  V30 1631 O 154.561 1.28319 1.48024 0
M  V30 1632 H 153.141 0.684966 -0.298045 0
M  V30 1633 H 155.803 1.385 -1.37126 0
M  V30 1634 H 154.899 2.89788 -1.15884 0
M  V30 1635 N 155.201 0.870884 1.31352 0
M  V30 1636 C 156.149 0.316445 2.30437 0
M  V30 1637 C 157.143 -0.568965 1.59559 0
M  V30 1638 O 158.349 -0.454964 1.74155 0
M  V30 1639 H 154.724 0.0836521 0.747333 0
M  V30 1640 H 156.695 1.16606 2.74673 0
M  V30 1641 C 155.444 -0.46635 3.44558 0
M  V30 1642 H 154.767 0.205687 3.99271 0
M  V30 1643 H 156.207 -0.819614 4.16003 0
M  V30 1644 C 154.666 -1.65797 2.9328 0
M  V30 1645 O 155.196 -2.75728 2.92125 0
M  V30 1646 N 153.402 -1.49041 2.4947 0
M  V30 1647 H 152.949 -0.59612 2.50608 0
M  V30 1648 H 152.907 -2.28911 2.15516 0
M  V30 1649 N 156.679 -1.44442 0.630414 0
M  V30 1650 C 158.09 -1.85434 0.217063 0
M  V30 1651 C 158.441 -1.52748 -1.23136 0
M  V30 1652 O 157.566 -0.965205 -1.93682 0
M  V30 1653 C 158.161 -3.36581 0.387168 0
M  V30 1654 C 156.72 -3.76389 0.0283297 0
M  V30 1655 C 155.867 -2.68296 0.700889 0
M  V30 1656 H 158.818 -1.34919 0.83562 0
M  V30 1657 H 158.839 -3.78657 -0.374086 0
M  V30 1658 H 158.351 -3.60339 1.44144 0
M  V30 1659 H 156.452 -3.58246 -1.02423 0
M  V30 1660 H 156.565 -4.77095 0.437892 0
M  V30 1661 H 154.929 -2.54335 0.136267 0
M  V30 1662 H 155.712 -2.94887 1.75774 0
M  V30 1663 N 158.157 -0.370918 -1.53173 0
M  V30 1664 C 159.405 0.216673 -2.00935 0
M  V30 1665 C 159.726 1.48845 -1.25977 0
M  V30 1666 O 158.996 1.92286 -0.374551 0
M  V30 1667 H 157.576 0.0830565 -0.742368 0
M  V30 1668 H 160.238 -0.49838 -1.8842 0
M  V30 1669 H 159.334 0.439893 -3.08984 0
M  V30 1670 N 159.635 1.57281 -0.100228 0
M  V30 1671 C 160.884 1.93713 0.561984 0
M  V30 1672 C 161.197 0.984492 1.69018 0
M  V30 1673 O 162.403 1.24273 2.41389 0
M  V30 1674 C 160.859 3.4421 1.05106 0
M  V30 1675 C 160.467 4.47975 -0.0476628 0
M  V30 1676 C 162.211 3.89595 1.68571 0
M  V30 1677 C 160.118 5.89631 0.457055 0
M  V30 1678 H 159.048 0.723082 0.2137 0
M  V30 1679 H 161.699 1.82644 -0.177057 0
M  V30 1680 H 160.081 3.50449 1.84395 0
M  V30 1681 H 161.255 4.53385 -0.823333 0
M  V30 1682 H 159.57 4.1223 -0.587816 0
M  V30 1683 H 162.167 4.92832 2.07414 0
M  V30 1684 H 162.51 3.28526 2.55688 0
M  V30 1685 H 163.043 3.86078 0.958562 0
M  V30 1686 H 159.782 6.54411 -0.377616 0
M  V30 1687 H 159.302 5.87681 1.19962 0
M  V30 1688 H 160.981 6.40363 0.92437 0
M  V30 1689 N 161.113 -0.173488 1.56642 0
M  V30 1690 C 162.045 -1.23935 1.92802 0
M  V30 1691 C 163.058 -1.40589 0.820889 0
M  V30 1692 O 164.247 -1.40631 1.09933 0
M  V30 1693 C 161.347 -2.60837 2.16373 0
M  V30 1694 C 160.52 -2.6551 3.47596 0
M  V30 1695 C 159.579 -3.8376 3.60021 0
M  V30 1696 O 158.605 -3.69859 4.32658 0
M  V30 1697 N 159.807 -5.00127 2.94709 0
M  V30 1698 H 162.572 -0.932236 2.84832 0
M  V30 1699 H 160.133 -0.363268 1.57772 0
M  V30 1700 H 162.125 -3.38407 2.21952 0
M  V30 1701 H 160.695 -2.83948 1.30738 0
M  V30 1702 H 159.915 -1.74052 3.53694 0
M  V30 1703 H 161.203 -2.65641 4.33949 0
M  V30 1704 H 160.601 -5.14322 2.35563 0
M  V30 1705 H 159.158 -5.75567 3.05886 0
M  V30 1706 N 162.591 -1.51276 -0.441967 0
M  V30 1707 C 163.816 -1.67799 -1.21895 0
M  V30 1708 C 164.241 -0.372864 -1.84367 0
M  V30 1709 O 163.599 0.666501 -1.68604 0
M  V30 1710 C 163.647 -2.79199 -2.28211 0
M  V30 1711 O 162.751 -2.42479 -3.33583 0
M  V30 1712 H 162.092 -0.559649 -0.357336 0
M  V30 1713 H 164.622 -1.97815 -0.522522 0
M  V30 1714 H 164.632 -3.03146 -2.73069 0
M  V30 1715 H 163.307 -3.73906 -1.82118 0
M  V30 1716 H 161.884 -2.29087 -2.94234 0
M  V30 1717 N 164.069 0.697108 -1.41344 0
M  V30 1718 C 165.017 1.83237 -1.43272 0
M  V30 1719 C 166.011 1.66522 -0.310947 0
M  V30 1720 O 167.217 1.73402 -0.482899 0
M  V30 1721 H 163.592 0.603802 -0.448249 0
M  V30 1722 H 165.563 1.78727 -2.38954 0
M  V30 1723 C 164.312 3.21245 -1.33029 0
M  V30 1724 H 163.635 3.34723 -2.18633 0
M  V30 1725 H 165.075 4.00763 -1.38439 0
M  V30 1726 C 163.534 3.36873 -0.0424635 0
M  V30 1727 O 164.064 3.91177 0.913421 0
M  V30 1728 N 162.27 2.90581 0.0331145 0
M  V30 1729 H 161.817 2.46577 -0.745506 0
M  V30 1730 H 161.775 3.01416 0.894199 0
M  V30 1731 N 165.547 1.27147 0.931209 0
M  V30 1732 C 166.795 1.13055 1.6752 0
M  V30 1733 C 167.116 -0.324791 1.92276 0
M  V30 1734 O 166.386 -1.22775 1.52654 0
M  V30 1735 H 164.966 0.415391 0.620854 0
M  V30 1736 H 167.628 1.59623 1.11833 0
M  V30 1737 H 166.724 1.65694 2.64485 0
M  V30 1738 N 167.025 -1.13721 1.09112 0
M  V30 1739 C 167.955 -2.21148 0.749385 0
M  V30 1740 C 168.936 -1.6792 -0.271475 0
M  V30 1741 O 170.121 -1.93693 -0.140251 0
M  V30 1742 C 167.251 -3.46905 0.165659 0
M  V30 1743 C 166.205 -4.13203 1.11567 0
M  V30 1744 C 165.531 -5.33248 0.393809 0
M  V30 1745 C 166.831 -4.60912 2.45678 0
M  V30 1746 H 168.525 -2.4999 1.64758 0
M  V30 1747 H 166.071 -1.20156 0.793626 0
M  V30 1748 H 168.024 -4.21313 -0.085466 0
M  V30 1749 H 166.748 -3.17449 -0.767714 0
M  V30 1750 H 165.407 -3.40758 1.35202 0
M  V30 1751 H 165.055 -5.00054 -0.543599 0
M  V30 1752 H 164.755 -5.78552 1.02721 0
M  V30 1753 H 166.279 -6.10413 0.150908 0
M  V30 1754 H 167.693 -5.26759 2.26269 0
M  V30 1755 H 166.09 -5.16944 3.04776 0
M  V30 1756 H 167.16 -3.75603 3.06677 0
M  V30 1757 N 168.503 -0.877838 -1.30888 0
M  V30 1758 C 169.451 -0.328662 -2.30266 0
M  V30 1759 C 170.445 0.560496 -1.59859 0
M  V30 1760 O 171.651 0.445722 -1.74394 0
M  V30 1761 H 168.026 -0.0876142 -0.746879 0
M  V30 1762 H 169.997 -1.18061 -2.74051 0
M  V30 1763 C 168.746 0.448071 -3.44801 0
M  V30 1764 H 168.069 -0.226859 -3.99156 0
M  V30 1765 H 169.509 0.797541 -4.16432 0
M  V30 1766 C 167.968 1.64239 -2.94155 0
M  V30 1767 O 168.498 2.74175 -2.93583 0
M  V30 1768 N 166.704 1.47716 -2.50256 0
M  V30 1769 H 166.251 0.582821 -2.5092 0
M  V30 1770 H 166.209 2.27765 -2.16727 0
M  V30 1771 N 169.982 1.44106 -0.638065 0
M  V30 1772 C 171.231 2.01194 -0.142744 0
M  V30 1773 C 171.544 1.50835 1.24532 0
M  V30 1774 O 172.75 2.00096 1.83504 0
M  V30 1775 C 171.206 3.59319 -0.20442 0
M  V30 1776 C 170.814 4.18674 -1.59423 0
M  V30 1777 C 172.558 4.23854 0.234079 0
M  V30 1778 C 170.465 5.69045 -1.61065 0
M  V30 1779 H 169.395 0.752367 -0.0495998 0
M  V30 1780 H 172.046 1.65246 -0.797881 0
M  V30 1781 H 170.428 3.92598 0.517946 0
M  V30 1782 H 171.602 3.96921 -2.34074 0
M  V30 1783 H 169.917 3.66453 -1.97741 0
M  V30 1784 H 172.514 5.34155 0.241443 0
M  V30 1785 H 172.857 3.96688 1.2627 0
M  V30 1786 H 173.39 3.95403 -0.436025 0
M  V30 1787 H 170.129 6.00956 -2.61787 0
M  V30 1788 H 169.649 5.929 -0.90718 0
M  V30 1789 H 171.328 6.32809 -1.34766 0
M  V30 1790 N 171.46 0.379036 1.52974 0
M  V30 1791 C 172.688 -0.20679 2.05864 0
M  V30 1792 C 173.103 -1.41356 1.25155 0
M  V30 1793 O 172.46 -1.8009 0.295588 0
M  V30 1794 C 172.511 -0.587045 3.56702 0
M  V30 1795 O 172.232 0.571776 4.34353 0
M  V30 1796 C 173.733 -1.22983 4.25899 0
M  V30 1797 H 170.953 -0.0336123 0.670158 0
M  V30 1798 H 173.497 0.541298 1.97206 0
M  V30 1799 H 171.652 -1.28504 3.65466 0
M  V30 1800 H 172.066 0.261544 5.23847 0
M  V30 1801 H 173.54 -1.44635 5.32715 0
M  V30 1802 H 174.017 -2.19416 3.80465 0
M  V30 1803 H 174.623 -0.572892 4.21424 0
M  V30 1804 N 172.938 -1.57226 0.108567 0
M  V30 1805 C 174.215 -1.86333 -0.594939 0
M  V30 1806 C 174.595 -1.00788 -1.85486 0
M  V30 1807 O 173.943 -0.0839293 -2.28346 0
M  V30 1808 C 174.153 -3.37265 -0.897405 0
M  V30 1809 C 175.501 -4.05629 -1.25501 0
M  V30 1810 O 176.525 -3.42224 -0.987998 0
M  V30 1811 O 175.384 -5.17531 -1.75567 0
M  V30 1812 H 172.478 -0.771018 -0.2991 0
M  V30 1813 H 175.024 -1.69102 0.142283 0
M  V30 1814 H 173.796 -3.913 -0.00413806 0
M  V30 1815 H 173.419 -3.59889 -1.69014 0
M  V30 1816 N 174.416 0.165178 -1.56732 0
M  V30 1817 C 175.664 0.879068 -1.8198 0
M  V30 1818 C 175.985 1.82514 -0.686561 0
M  V30 1819 O 175.255 1.93694 0.293146 0
M  V30 1820 H 173.835 0.327608 -0.671329 0
M  V30 1821 H 176.497 0.163526 -1.94213 0
M  V30 1822 H 175.593 1.45228 -2.76252 0
M  V30 1823 N 175.894 1.51508 0.433938 0
M  V30 1824 C 176.857 1.72473 1.50949 0
M  V30 1825 C 177.857 0.594725 1.49398 0
M  V30 1826 O 179.047 0.862315 1.5136 0
M  V30 1827 C 176.179 1.78431 2.90474 0
M  V30 1828 H 177.372 2.68467 1.33662 0
M  V30 1829 H 174.925 1.41549 0.662836 0
M  V30 1830 H 175.66 0.842645 3.13161 0
M  V30 1831 H 175.445 2.60558 2.93005 0
M  V30 1832 H 176.935 1.96479 3.68491 0
M  V30 1833 N 177.372 -0.689602 1.41712 0
M  V30 1834 C 178.619 -1.44966 1.4139 0
M  V30 1835 C 178.947 -1.94484 0.025105 0
M  V30 1836 O 178.202 -1.70307 -0.964048 0
M  V30 1837 C 178.501 -2.67298 2.37247 0
M  V30 1838 C 178.167 -2.36405 3.83958 0
M  V30 1839 C 176.829 -2.27691 4.23923 0
M  V30 1840 C 179.181 -2.11043 4.76561 0
M  V30 1841 C 176.509 -1.91719 5.54492 0
M  V30 1842 C 178.861 -1.76578 6.07456 0
M  V30 1843 C 177.525 -1.66363 6.46436 0
M  V30 1844 H 176.795 -0.53047 0.517381 0
M  V30 1845 H 179.442 -0.787655 1.74552 0
M  V30 1846 H 177.747 -3.38461 1.9736 0
M  V30 1847 H 179.444 -3.25452 2.34269 0
M  V30 1848 H 176.034 -2.44085 3.52308 0
M  V30 1849 H 180.218 -2.16717 4.46483 0
M  V30 1850 H 175.474 -1.82367 5.83568 0
M  V30 1851 H 179.648 -1.55974 6.78708 0
M  V30 1852 H 177.275 -1.38258 7.47522 0
M  V30 1853 N 178.85 -1.27639 -0.924453 0
M  V30 1854 C 179.78 -1.13166 -2.04244 0
M  V30 1855 C 180.761 -0.032256 -1.70069 0
M  V30 1856 O 181.946 -0.207328 -1.9309 0
M  V30 1857 C 179.076 -0.781496 -3.38393 0
M  V30 1858 C 178.03 -1.83449 -3.86692 0
M  V30 1859 C 177.356 -1.33822 -5.17683 0
M  V30 1860 C 178.656 -3.23917 -4.09726 0
M  V30 1861 H 180.35 -2.06689 -2.1661 0
M  V30 1862 H 177.896 -0.995136 -1.04082 0
M  V30 1863 H 179.849 -0.667057 -4.16087 0
M  V30 1864 H 178.573 0.189439 -3.2605 0
M  V30 1865 H 177.232 -1.93789 -3.11193 0
M  V30 1866 H 176.88 -0.35665 -5.01734 0
M  V30 1867 H 176.58 -2.04224 -5.50968 0
M  V30 1868 H 178.104 -1.23679 -5.97943 0
M  V30 1869 H 179.518 -3.16559 -4.77978 0
M  V30 1870 H 177.915 -3.92059 -4.54324 0
M  V30 1871 H 178.985 -3.68729 -3.14908 0
M  V30 1872 N 180.328 1.1314 -1.09713 0
M  V30 1873 C 181.276 2.20717 -0.733934 0
M  V30 1874 C 182.27 1.6729 0.266506 0
M  V30 1875 O 183.476 1.79547 0.127656 0
M  V30 1876 H 179.851 0.719292 -0.21937 0
M  V30 1877 H 181.822 2.48611 -1.6503 0
M  V30 1878 C 180.571 3.47265 -0.173849 0
M  V30 1879 H 179.894 3.88716 -0.934873 0
M  V30 1880 H 181.334 4.23979 0.0423126 0
M  V30 1881 C 179.793 3.18724 1.09164 0
M  V30 1882 O 180.323 3.37762 2.17439 0
M  V30 1883 N 178.529 2.72583 1.00732 0
M  V30 1884 H 178.076 2.57291 0.126121 0
M  V30 1885 H 178.034 2.53862 1.85476 0
M  V30 1886 N 181.806 0.884767 1.30421 0
M  V30 1887 C 182.736 0.367574 2.30589 0
M  V30 1888 C 183.717 -0.549464 1.60981 0
M  V30 1889 O 184.902 -0.46336 1.88591 0
M  V30 1890 C 182.032 -0.418944 3.44764 0
M  V30 1891 C 180.986 0.406316 4.26067 0
M  V30 1892 C 180.312 -0.506793 5.32293 0
M  V30 1893 C 181.612 1.64832 4.95608 0
M  V30 1894 H 183.306 1.20462 2.74097 0
M  V30 1895 H 180.852 0.580695 1.31772 0
M  V30 1896 H 182.805 -0.791395 4.13902 0
M  V30 1897 H 181.529 -1.28964 3.0006 0
M  V30 1898 H 180.188 0.760903 3.58617 0
M  V30 1899 H 179.836 -1.37519 4.83836 0
M  V30 1900 H 179.536 0.0415828 5.87585 0
M  V30 1901 H 181.06 -0.875764 6.04287 0
M  V30 1902 H 182.474 1.34646 5.57264 0
M  V30 1903 H 180.871 2.13688 5.60765 0
M  V30 1904 H 181.941 2.39284 4.21748 0
M  V30 1905 N 183.284 -1.43765 0.645699 0
M  V30 1906 C 184.231 -2.30745 -0.0504648 0
M  V30 1907 C 185.201 -1.4432 -0.822241 0
M  V30 1908 O 186.386 -1.73202 -0.800358 0
M  V30 1909 C 183.526 -3.29802 -1.0161 0
M  V30 1910 C 182.639 -4.31326 -0.241219 0
M  V30 1911 C 181.774 -5.17469 -1.19998 0
M  V30 1912 C 180.813 -6.10691 -0.415094 0
M  V30 1913 N 179.95 -6.89483 -1.32506 0
M  V30 1914 H 184.79 -2.8973 0.697155 0
M  V30 1915 H 182.327 -1.42738 0.355563 0
M  V30 1916 H 184.285 -3.85734 -1.58949 0
M  V30 1917 H 182.915 -2.72483 -1.73069 0
M  V30 1918 H 181.967 -3.77749 0.448334 0
M  V30 1919 H 183.279 -4.9743 0.369437 0
M  V30 1920 H 182.433 -5.7799 -1.84424 0
M  V30 1921 H 181.172 -4.51473 -1.84455 0
M  V30 1922 H 180.177 -5.49265 0.242565 0
M  V30 1923 H 181.402 -6.78727 0.224966 0
M  V30 1924 H 179.348 -6.26142 -1.95657 0
M  V30 1925 H 179.265 -7.52081 -0.768783 0
M  V30 1926 H 180.533 -7.54516 -1.9577 0
M  V30 1927 N 184.763 -0.387143 -1.52771 0
M  V30 1928 C 185.711 0.463953 -2.27926 0
M  V30 1929 C 186.705 1.06493 -1.31741 0
M  V30 1930 O 187.911 1.00565 -1.49287 0
M  V30 1931 H 184.286 0.16837 -0.732909 0
M  V30 1932 H 186.257 -0.19141 -2.97785 0
M  V30 1933 C 185.006 1.5803 -3.09713 0
M  V30 1934 H 184.329 1.12718 -3.83581 0
M  V30 1935 H 185.769 2.15008 -3.65442 0
M  V30 1936 C 184.228 2.53509 -2.2189 0
M  V30 1937 O 184.758 3.56863 -1.84422 0
M  V30 1938 N 182.964 2.23199 -1.86093 0
M  V30 1939 H 182.511 1.39185 -2.16761 0
M  V30 1940 H 182.469 2.87333 -1.27621 0
M  V30 1941 N 186.241 1.57166 -0.116904 0
M  V30 1942 C 187.171 2.18222 0.830759 0
M  V30 1943 C 188.152 1.12167 1.27877 0
M  V30 1944 O 189.337 1.40394 1.34176 0
M  V30 1945 C 186.467 2.77996 2.08172 0
M  V30 1946 C 185.421 3.89614 1.77157 0
M  V30 1947 C 184.747 4.36187 3.09265 0
M  V30 1948 C 186.047 5.1181 1.04151 0
M  V30 1949 H 187.741 2.97664 0.321992 0
M  V30 1950 H 185.287 1.4318 0.153434 0
M  V30 1951 H 187.24 3.19366 2.74924 0
M  V30 1952 H 185.964 1.9584 2.6137 0
M  V30 1953 H 184.623 3.48816 1.12796 0
M  V30 1954 H 184.271 3.50893 3.60393 0
M  V30 1955 H 183.971 5.11455 2.89288 0
M  V30 1956 H 185.495 4.80207 3.77139 0
M  V30 1957 H 186.909 5.50214 1.61052 0
M  V30 1958 H 185.306 5.92648 0.942762 0
M  V30 1959 H 186.376 4.84892 0.0279022 0
M  V30 1960 N 187.719 -0.156864 1.56817 0
M  V30 1961 C 189.135 -0.50916 1.5126 0
M  V30 1962 C 189.335 -1.83897 0.823658 0
M  V30 1963 O 188.391 -2.49469 0.390055 0
M  V30 1964 C 189.704 -0.52857 2.96018 0
M  V30 1965 C 191.252 -0.614771 3.06903 0
M  V30 1966 C 191.727 -0.664938 4.53147 0
M  V30 1967 N 193.218 -0.727433 4.57452 0
M  V30 1968 C 193.953 -0.787067 5.67973 0
M  V30 1969 N 193.449 -0.806649 6.88088 0
M  V30 1970 N 195.242 -0.827195 5.5598 0
M  V30 1971 H 187.393 0.714935 2.00006 0
M  V30 1972 H 189.656 0.259526 0.911784 0
M  V30 1973 H 189.362 0.380154 3.49639 0
M  V30 1974 H 189.236 -1.36998 3.51442 0
M  V30 1975 H 191.623 -1.51392 2.53307 0
M  V30 1976 H 191.704 0.253597 2.5454 0
M  V30 1977 H 191.348 0.230011 5.07379 0
M  V30 1978 H 191.278 -1.54966 5.03282 0
M  V30 1979 H 193.769 -0.719998 3.70978 0
M  V30 1980 H 194.082 -0.853727 7.6807 0
M  V30 1981 H 192.427 -0.774687 6.90669 0
M  V30 1982 H 195.618 -0.808998 4.61056 0
M  V30 1983 H 195.791 -0.870206 6.4213 0
M  V30 1984 N 189.197 -1.51736 -0.425897 0
M  V30 1985 C 190.107 -1.76738 -1.54275 0
M  V30 1986 C 191.123 -0.65211 -1.61318 0
M  V30 1987 O 192.299 -0.935654 -1.78346 0
M  V30 1988 C 189.364 -1.89755 -2.90162 0
M  V30 1989 C 188.425 -3.13633 -2.93143 0
M  V30 1990 C 187.658 -3.2602 -4.22548 0
M  V30 1991 O 187.881 -2.44067 -5.15546 0
M  V30 1992 O 186.815 -4.19071 -4.32046 0
M  V30 1993 H 190.641 -2.71502 -1.36089 0
M  V30 1994 H 188.226 -1.36376 -0.610069 0
M  V30 1995 H 190.108 -2.00236 -3.70788 0
M  V30 1996 H 188.783 -0.981785 -3.08452 0
M  V30 1997 H 187.69 -3.08622 -2.11431 0
M  V30 1998 H 189.023 -4.04936 -2.798 0
M  V30 1999 N 190.675 0.682077 -1.42076 0
M  V30 2000 C 191.605 1.80796 -1.47767 0
M  V30 2001 C 192.586 1.6677 -0.334954 0
M  V30 2002 O 193.771 1.863 -0.548264 0
M  V30 2003 C 190.901 3.19038 -1.37229 0
M  V30 2004 C 189.855 3.47789 -2.49453 0
M  V30 2005 C 189.181 4.8553 -2.23975 0
M  V30 2006 C 190.481 3.45411 -3.91776 0
M  V30 2007 H 192.175 1.7629 -2.41997 0
M  V30 2008 H 189.721 0.846721 -1.16476 0
M  V30 2009 H 191.674 3.97528 -1.39821 0
M  V30 2010 H 190.398 3.24204 -0.394907 0
M  V30 2011 H 189.057 2.71657 -2.46166 0
M  V30 2012 H 188.705 4.87337 -1.24547 0
M  V30 2013 H 188.405 5.0573 -2.99184 0
M  V30 2014 H 189.929 5.66312 -2.28304 0
M  V30 2015 H 191.343 4.13882 -3.96705 0
M  V30 2016 H 189.74 3.77145 -4.66778 0
M  V30 2017 H 190.81 2.44122 -4.18966 0
M  V30 2018 N 192.153 1.28127 0.917671 0
M  V30 2019 C 193.083 1.14248 2.03641 0
M  V30 2020 C 194.064 0.0412748 1.7005 0
M  V30 2021 O 195.249 0.217566 1.92977 0
M  V30 2022 C 192.379 0.799431 3.37974 0
M  V30 2023 C 191.333 1.85497 3.85713 0
M  V30 2024 C 190.659 1.36565 5.16966 0
M  V30 2025 C 191.959 3.26085 4.08002 0
M  V30 2026 H 193.653 2.07835 2.15511 0
M  V30 2027 H 191.199 1.00064 1.03553 0
M  V30 2028 H 193.152 0.689114 4.15727 0
M  V30 2029 H 191.876 -0.172145 3.26146 0
M  V30 2030 H 190.535 1.95437 3.10161 0
M  V30 2031 H 190.183 0.383253 5.01538 0
M  V30 2032 H 189.883 2.07143 5.49878 0
M  V30 2033 H 191.407 1.26848 5.97279 0
M  V30 2034 H 192.821 3.19089 4.76293 0
M  V30 2035 H 191.218 3.94462 4.52238 0
M  V30 2036 H 192.288 3.70394 3.12948 0
M  V30 2037 N 193.631 -1.12557 1.10312 0
M  V30 2038 C 194.561 -2.20341 0.772798 0
M  V30 2039 C 195.542 -1.68198 -0.25365 0
M  V30 2040 O 196.727 -1.93831 -0.119699 0
M  V30 2041 C 193.857 -3.46709 0.202443 0
M  V30 2042 C 192.811 -4.11996 1.15943 0
M  V30 2043 C 192.137 -5.328 0.450345 0
M  V30 2044 C 193.437 -4.5828 2.50552 0
M  V30 2045 H 195.131 -2.48229 1.674 0
M  V30 2046 H 192.677 -1.19308 0.806326 0
M  V30 2047 H 194.63 -4.2138 -0.0407752 0
M  V30 2048 H 193.354 -3.18245 -0.734001 0
M  V30 2049 H 192.013 -3.39305 1.38808 0
M  V30 2050 H 191.661 -5.00602 -0.490531 0
M  V30 2051 H 191.361 -5.7743 1.08851 0
M  V30 2052 H 192.885 -6.10219 0.215642 0
M  V30 2053 H 194.299 -5.2433 2.31843 0
M  V30 2054 H 192.696 -5.13683 3.10242 0
M  V30 2055 H 193.766 -3.72329 3.10643 0
M  V30 2056 N 195.109 -0.891671 -1.2995 0
M  V30 2057 C 196.019 -0.367691 -2.31701 0
M  V30 2058 C 197.035 0.533486 -1.6562 0
M  V30 2059 O 198.211 0.424997 -1.96865 0
M  V30 2060 C 195.276 0.403406 -3.44345 0
M  V30 2061 C 194.337 -0.528328 -4.26037 0
M  V30 2062 C 193.57 0.206063 -5.33302 0
M  V30 2063 O 193.793 1.43119 -5.52153 0
M  V30 2064 O 192.727 -0.447281 -6.00236 0
M  V30 2065 H 196.553 -1.21163 -2.78484 0
M  V30 2066 H 194.138 -0.655725 -1.34241 0
M  V30 2067 H 196.02 0.839753 -4.12948 0
M  V30 2068 H 194.695 1.22354 -2.99685 0
M  V30 2069 H 193.602 -1.01362 -3.60106 0
M  V30 2070 H 194.935 -1.31465 -4.74318 0
M  V30 2071 N 196.587 1.43421 -0.653314 0
M  V30 2072 C 197.864 1.95361 -0.0966581 0
M  V30 2073 C 198.244 1.59461 1.38331 0
M  V30 2074 O 197.592 0.879777 2.10884 0
M  V30 2075 C 197.802 3.47311 -0.342988 0
M  V30 2076 C 199.15 4.23875 -0.24798 0
M  V30 2077 O 200.174 3.55133 -0.275553 0
M  V30 2078 O 199.033 5.4623 -0.171771 0
M  V30 2079 H 196.127 0.826945 0.00956291 0
M  V30 2080 H 198.673 1.5336 -0.726558 0
M  V30 2081 H 197.445 3.66569 -1.36906 0
M  V30 2082 H 197.068 3.9631 0.319975 0
M  V30 2083 N 198.065 0.39524 1.52563 0
M  V30 2084 C 199.013 -0.451859 2.28169 0
M  V30 2085 C 200.007 -1.05792 1.32304 0
M  V30 2086 O 201.213 -0.997718 1.49818 0
M  V30 2087 H 197.588 -0.164481 0.733792 0
M  V30 2088 H 199.559 0.207199 2.9768 0
M  V30 2089 C 198.308 -1.56385 3.10546 0
M  V30 2090 H 197.631 -1.10682 3.84174 0
M  V30 2091 H 199.071 -2.13067 3.66577 0
M  V30 2092 C 197.53 -2.52328 2.23231 0
M  V30 2093 O 198.06 -3.5588 1.86312 0
M  V30 2094 N 196.266 -2.22209 1.87274 0
M  V30 2095 H 195.813 -1.38033 2.17496 0
M  V30 2096 H 195.771 -2.86652 1.29143 0
M  V30 2097 N 199.544 -1.57102 0.125237 0
M  V30 2098 C 200.476 -2.12726 -0.853237 0
M  V30 2099 C 201.489 -1.07145 -1.22571 0
M  V30 2100 O 202.678 -1.34497 -1.17358 0
M  V30 2101 C 199.778 -2.61709 -2.15317 0
M  V30 2102 C 198.951 -3.91456 -1.95143 0
M  V30 2103 C 198.01 -4.25973 -3.08923 0
M  V30 2104 O 197.036 -4.94682 -2.81564 0
M  V30 2105 N 198.238 -3.83795 -4.35524 0
M  V30 2106 H 201.003 -2.97307 -0.377964 0
M  V30 2107 H 198.564 -1.61792 -0.0590011 0
M  V30 2108 H 200.556 -2.81826 -2.90441 0
M  V30 2109 H 199.126 -1.81974 -2.54174 0
M  V30 2110 H 198.346 -3.80185 -1.04177 0
M  V30 2111 H 199.634 -4.76283 -1.78976 0
M  V30 2112 H 199.032 -3.2839 -4.60626 0
M  V30 2113 H 197.589 -4.09008 -5.07499 0
M  V30 2114 N 201.022 0.148545 -1.56898 0
M  V30 2115 C 201.952 1.18524 -2.01182 0
M  V30 2116 C 202.933 1.4489 -0.891123 0
M  V30 2117 O 204.118 1.55836 -1.15882 0
M  V30 2118 C 201.248 2.51879 -2.39112 0
M  V30 2119 C 200.202 2.40038 -3.54353 0
M  V30 2120 C 199.528 3.78089 -3.78091 0
M  V30 2121 C 200.828 1.88577 -4.87069 0
M  V30 2122 H 202.522 0.817029 -2.88036 0
M  V30 2123 H 200.068 0.391575 -1.38574 0
M  V30 2124 H 202.021 3.24627 -2.68692 0
M  V30 2125 H 200.745 2.90532 -1.49193 0
M  V30 2126 H 199.404 1.69742 -3.24936 0
M  V30 2127 H 199.052 4.14175 -2.85426 0
M  V30 2128 H 198.752 3.71028 -4.55645 0
M  V30 2129 H 200.276 4.52387 -4.10095 0
M  V30 2130 H 201.69 2.51117 -5.15377 0
M  V30 2131 H 200.087 1.9241 -5.68417 0
M  V30 2132 H 201.157 0.84136 -4.77545 0
M  V30 2133 N 202.5 1.5196 0.417844 0
M  V30 2134 C 203.911 1.57851 0.997 0
M  V30 2135 C 204.262 0.413714 1.91789 0
M  V30 2136 O 203.387 -0.467057 2.113 0
M  V30 2137 C 203.982 2.86085 1.81496 0
M  V30 2138 C 202.541 2.94483 2.34428 0
M  V30 2139 C 201.688 2.52707 1.14169 0
M  V30 2140 H 204.639 1.57455 0.198392 0
M  V30 2141 H 204.66 2.70947 2.67148 0
M  V30 2142 H 204.172 3.70842 1.14446 0
M  V30 2143 H 202.273 2.142 3.04875 0
M  V30 2144 H 202.386 3.98546 2.65891 0
M  V30 2145 H 200.75 2.06353 1.49301 0
M  V30 2146 H 201.533 3.39828 0.486999 0
M  V30 2147 N 203.978 -0.674533 1.42435 0
M  V30 2148 C 204.91 -1.80005 1.41883 0
M  V30 2149 C 205.923 -1.59667 0.31787 0
M  V30 2150 O 207.112 -1.68781 0.580973 0
M  V30 2151 C 204.212 -3.17114 1.19549 0
M  V30 2152 C 203.385 -3.64299 2.42084 0
M  V30 2153 C 202.444 -4.80142 2.15291 0
M  V30 2154 O 201.47 -4.90673 2.88493 0
M  V30 2155 N 202.672 -5.68869 1.1562 0
M  V30 2156 H 205.437 -1.80964 2.38898 0
M  V30 2157 H 202.998 -0.857633 1.37318 0
M  V30 2158 H 204.99 -3.92267 0.995417 0
M  V30 2159 H 203.56 -3.11053 0.310569 0
M  V30 2160 H 202.78 -2.79822 2.77657 0
M  V30 2161 H 204.068 -3.92567 3.23679 0
M  V30 2162 H 203.466 -5.63012 0.550765 0
M  V30 2163 H 202.023 -6.43833 1.016 0
M  V30 2164 N 205.456 -1.28612 -0.910864 0
M  V30 2165 C 206.705 -1.15311 -1.65488 0
M  V30 2166 C 207.018 0.296999 -1.93332 0
M  V30 2167 O 208.224 0.551168 -2.65847 0
M  V30 2168 C 206.68 -2.01599 -2.98137 0
M  V30 2169 C 206.288 -3.51367 -2.7793 0
M  V30 2170 C 208.032 -1.96993 -3.76024 0
M  V30 2171 C 205.939 -4.29797 -4.06237 0
M  V30 2172 H 204.869 -0.42796 -0.620779 0
M  V30 2173 H 207.52 -1.53166 -1.01057 0
M  V30 2174 H 205.902 -1.56603 -3.63719 0
M  V30 2175 H 207.076 -4.0434 -2.21011 0
M  V30 2176 H 205.391 -3.57529 -2.13452 0
M  V30 2177 H 207.988 -2.52856 -4.71135 0
M  V30 2178 H 208.331 -0.94733 -4.05378 0
M  V30 2179 H 208.864 -2.39973 -3.17266 0
M  V30 2180 H 205.603 -5.32648 -3.82055 0
M  V30 2181 H 205.123 -3.81596 -4.62757 0
M  V30 2182 H 206.802 -4.39869 -4.74473 0
M  V30 2183 N 206.934 1.1197 -1.10907 0
M  V30 2184 C 208.345 1.65114 -0.871446 0
M  V30 2185 C 208.696 1.86885 0.597353 0
M  V30 2186 O 207.821 1.59896 1.45816 0
M  V30 2187 C 208.416 2.99944 -1.5754 0
M  V30 2188 C 206.975 3.50018 -1.38435 0
M  V30 2189 C 206.122 2.24941 -1.62164 0
M  V30 2190 H 209.073 0.956851 -1.2661 0
M  V30 2191 H 209.094 3.66651 -1.01721 0
M  V30 2192 H 208.606 2.84067 -2.64438 0
M  V30 2193 H 206.707 3.71071 -0.337214 0
M  V30 2194 H 206.82 4.29165 -2.12965 0
M  V30 2195 H 205.184 2.3229 -1.04467 0
M  V30 2196 H 205.967 2.11612 -2.70324 0
M  V30 2197 N 208.412 0.89855 1.29475 0
M  V30 2198 C 209.637 0.538561 2.00285 0
M  V30 2199 C 210.062 -0.869135 1.66816 0
M  V30 2200 O 209.42 -1.57831 0.892145 0
M  V30 2201 C 209.468 0.736475 3.52999 0
M  V30 2202 O 208.572 -0.211537 4.11857 0
M  V30 2203 H 207.913 0.210563 0.62973 0
M  V30 2204 H 210.443 1.20982 1.64998 0
M  V30 2205 H 210.453 0.640685 4.02938 0
M  V30 2206 H 209.128 1.76276 3.76696 0
M  V30 2207 H 207.705 -0.0682991 3.72837 0
M  V30 2208 N 209.89 -1.43072 0.660911 0
M  V30 2209 C 211.138 -2.01323 0.177094 0
M  V30 2210 C 211.459 -1.5245 -1.2159 0
M  V30 2211 O 210.729 -0.740322 -1.81373 0
M  V30 2212 H 209.309 -0.744382 0.0624804 0
M  V30 2213 H 211.971 -1.75179 0.854305 0
M  V30 2214 H 211.067 -3.11649 0.167641 0
M  V30 2215 N 211.368 -0.403325 -1.52352 0
M  V30 2216 C 212.298 0.416205 -2.29761 0
M  V30 2217 C 213.279 1.05123 -1.33728 0
M  V30 2218 O 214.464 1.06134 -1.62632 0
M  V30 2219 C 211.594 1.53624 -3.11475 0
M  V30 2220 C 210.548 1.02653 -4.15507 0
M  V30 2221 C 209.874 2.23971 -4.85532 0
M  V30 2222 C 211.174 0.08463 -5.22231 0
M  V30 2223 H 212.868 -0.229701 -2.98518 0
M  V30 2224 H 210.414 -0.111913 -1.43564 0
M  V30 2225 H 212.367 2.1165 -3.64393 0
M  V30 2226 H 211.091 2.20994 -2.40477 0
M  V30 2227 H 209.75 0.46871 -3.63591 0
M  V30 2228 H 209.398 2.89883 -4.11068 0
M  V30 2229 H 209.098 1.90521 -5.55856 0
M  V30 2230 H 210.622 2.82614 -5.41259 0
M  V30 2231 H 212.036 0.573509 -5.70424 0
M  V30 2232 H 210.433 -0.160783 -5.99885 0
M  V30 2233 H 211.503 -0.86237 -4.7717 0
M  V30 2234 N 212.846 1.57033 -0.133567 0
M  V30 2235 C 214.257 1.82593 0.389464 0
M  V30 2236 C 214.608 1.05156 1.6564 0
M  V30 2237 O 213.733 0.292644 2.14412 0
M  V30 2238 C 214.328 3.31204 0.713377 0
M  V30 2239 C 212.887 3.57393 1.18098 0
M  V30 2240 C 212.034 2.76598 0.197126 0
M  V30 2241 H 214.985 1.54598 -0.358481 0
M  V30 2242 H 215.006 3.46627 1.56939 0
M  V30 2243 H 214.518 3.87537 -0.2089 0
M  V30 2244 H 212.619 3.06433 2.11966 0
M  V30 2245 H 212.732 4.65915 1.11624 0
M  V30 2246 H 211.096 2.45257 0.687088 0
M  V30 2247 H 211.879 3.35697 -0.718504 0
M  V30 2248 N 214.325 -0.140222 1.56975 0
M  V30 2249 C 215.235 -1.19223 2.02047 0
M  V30 2250 C 216.251 -1.46612 0.937062 0
M  V30 2251 O 217.427 -1.58148 1.24704 0
M  V30 2252 C 214.492 -2.50414 2.39778 0
M  V30 2253 C 213.553 -2.30612 3.621 0
M  V30 2254 C 212.786 -3.55547 3.98023 0
M  V30 2255 O 213.009 -4.62004 3.34528 0
M  V30 2256 O 211.943 -3.47808 4.91237 0
M  V30 2257 H 215.769 -0.839559 2.91865 0
M  V30 2258 H 213.354 -0.349453 1.45256 0
M  V30 2259 H 215.236 -3.27747 2.64877 0
M  V30 2260 H 213.911 -2.85198 1.53114 0
M  V30 2261 H 212.818 -1.51207 3.4218 0
M  V30 2262 H 214.151 -2.00741 4.49404 0
M  V30 2263 N 215.803 -1.52179 -0.40978 0
M  V30 2264 C 217.028 -1.70347 -1.18308 0
M  V30 2265 C 217.453 -0.411887 -1.83535 0
M  V30 2266 O 216.811 0.630587 -1.6998 0
M  V30 2267 C 216.859 -2.83977 -2.22238 0
M  V30 2268 O 215.963 -2.495 -3.28365 0
M  V30 2269 H 215.304 -0.567103 -0.345384 0
M  V30 2270 H 217.834 -1.98879 -0.480445 0
M  V30 2271 H 217.844 -3.0887 -2.66577 0
M  V30 2272 H 216.519 -3.77685 -1.74146 0
M  V30 2273 H 215.096 -2.35277 -2.89308 0
M  V30 2274 N 217.281 0.66697 -1.42791 0
M  V30 2275 C 218.211 1.79218 -1.49677 0
M  V30 2276 C 219.192 1.66405 -0.352623 0
M  V30 2277 O 220.377 1.85708 -0.567993 0
M  V30 2278 C 217.507 3.17565 -1.40605 0
M  V30 2279 C 216.461 3.45124 -2.53127 0
M  V30 2280 C 215.787 4.83127 -2.29112 0
M  V30 2281 C 217.087 3.41236 -3.95418 0
M  V30 2282 H 218.781 1.73713 -2.43853 0
M  V30 2283 H 216.327 0.83432 -1.17367 0
M  V30 2284 H 218.28 3.96022 -1.44029 0
M  V30 2285 H 217.004 3.23767 -0.429271 0
M  V30 2286 H 215.663 2.69031 -2.49034 0
M  V30 2287 H 215.311 4.85988 -1.29709 0
M  V30 2288 H 215.011 5.02528 -3.04531 0
M  V30 2289 H 216.535 5.63859 -2.34297 0
M  V30 2290 H 217.949 4.09651 -4.01073 0
M  V30 2291 H 216.346 3.72173 -4.70752 0
M  V30 2292 H 217.416 2.39665 -4.21532 0
M  V30 2293 N 218.759 1.29093 0.90403 0
M  V30 2294 C 219.987 1.19689 1.68766 0
M  V30 2295 C 220.402 -0.243113 1.87228 0
M  V30 2296 O 219.759 -1.16326 1.40621 0
M  V30 2297 C 219.81 1.90144 3.07453 0
M  V30 2298 O 219.531 3.2852 2.89838 0
M  V30 2299 C 221.032 1.87162 4.01852 0
M  V30 2300 H 218.252 0.415035 0.527244 0
M  V30 2301 H 220.796 1.7039 1.13082 0
M  V30 2302 H 218.951 1.43289 3.59926 0
M  V30 2303 H 219.365 3.63944 3.77684 0
M  V30 2304 H 220.839 2.41032 4.96596 0
M  V30 2305 H 221.316 0.84617 4.30972 0
M  V30 2306 H 221.922 2.33741 3.5531 0
M  V30 2307 N 220.237 -1.11381 1.11499 0
M  V30 2308 C 221.147 -2.21019 0.786628 0
M  V30 2309 C 222.163 -1.72597 -0.220507 0
M  V30 2310 O 223.339 -2.01321 -0.0565251 0
M  V30 2311 C 220.404 -3.459 0.235333 0
M  V30 2312 C 219.465 -4.09107 1.30115 0
M  V30 2313 C 218.698 -5.28027 0.776068 0
M  V30 2314 O 218.921 -5.6904 -0.393661 0
M  V30 2315 O 217.855 -5.81835 1.54114 0
M  V30 2316 H 221.681 -2.51521 1.70209 0
M  V30 2317 H 219.266 -1.19928 0.890928 0
M  V30 2318 H 221.148 -4.21346 -0.067715 0
M  V30 2319 H 219.823 -3.17049 -0.652828 0
M  V30 2320 H 218.73 -3.35391 1.65722 0
M  V30 2321 H 220.063 -4.42139 2.16273 0
M  V30 2322 N 221.715 -0.905404 -1.28997 0
M  V30 2323 C 222.645 -0.404212 -2.29975 0
M  V30 2324 C 223.626 0.523784 -1.61835 0
M  V30 2325 O 224.811 0.433298 -1.89304 0
M  V30 2326 C 221.941 0.364042 -3.45387 0
M  V30 2327 C 220.895 -0.474048 -4.25367 0
M  V30 2328 C 220.221 0.422045 -5.33032 0
M  V30 2329 C 221.521 -1.72696 -4.92923 0
M  V30 2330 H 223.215 -1.24807 -2.72146 0
M  V30 2331 H 220.761 -0.601585 -1.30832 0
M  V30 2332 H 222.714 0.725447 -4.15109 0
M  V30 2333 H 221.438 1.24174 -3.02074 0
M  V30 2334 H 220.097 -0.81786 -3.57361 0
M  V30 2335 H 219.745 1.29804 -4.85963 0
M  V30 2336 H 219.445 -0.135057 -5.87445 0
M  V30 2337 H 220.969 0.779517 -6.05604 0
M  V30 2338 H 222.383 -1.43495 -5.55051 0
M  V30 2339 H 220.78 -2.22582 -5.57295 0
M  V30 2340 H 221.85 -2.45964 -4.17887 0
M  V30 2341 N 223.193 1.4272 -0.668489 0
M  V30 2342 C 224.418 2.06484 -0.194758 0
M  V30 2343 C 224.843 1.49862 1.13679 0
M  V30 2344 O 224.201 0.614582 1.70565 0
M  V30 2345 C 224.249 3.60353 -0.133546 0
M  V30 2346 O 223.353 4.02464 0.899806 0
M  V30 2347 H 222.694 0.656137 -0.10188 0
M  V30 2348 H 225.224 1.82964 -0.915722 0
M  V30 2349 H 225.234 4.07976 0.0447041 0
M  V30 2350 H 223.909 4.00938 -1.1055 0
M  V30 2351 H 222.486 3.66402 0.693109 0
M  V30 2352 N 224.671 0.411399 1.52136 0
M  V30 2353 C 225.601 -0.404015 2.29978 0
M  V30 2354 C 226.582 -1.04412 1.34284 0
M  V30 2355 O 227.767 -1.0527 1.63192 0
M  V30 2356 C 224.897 -1.5197 3.12286 0
M  V30 2357 C 223.851 -1.00448 4.16046 0
M  V30 2358 C 223.177 -2.21393 4.86712 0
M  V30 2359 C 224.477 -0.0569336 5.22269 0
M  V30 2360 H 226.171 0.245529 2.98392 0
M  V30 2361 H 223.717 0.119525 1.43503 0
M  V30 2362 H 225.67 -2.09715 3.6551 0
M  V30 2363 H 224.394 -2.19716 2.41646 0
M  V30 2364 H 223.053 -0.449421 3.63835 0
M  V30 2365 H 222.701 -2.87699 4.12599 0
M  V30 2366 H 222.401 -1.87571 5.56858 0
M  V30 2367 H 223.925 -2.7974 5.4275 0
M  V30 2368 H 225.339 -0.54325 5.7072 0
M  V30 2369 H 223.736 0.192594 5.99791 0
M  V30 2370 H 224.806 0.887663 4.76706 0
M  V30 2371 N 226.149 -1.5696 0.141893 0
M  V30 2372 C 227.398 -1.95135 -0.510427 0
M  V30 2373 C 227.711 -1.02896 -1.66348 0
M  V30 2374 O 228.917 -1.30629 -2.38009 0
M  V30 2375 C 227.373 -3.46876 -0.959427 0
M  V30 2376 C 226.981 -4.47691 0.166419 0
M  V30 2377 C 228.725 -3.93927 -1.58183 0
M  V30 2378 C 226.632 -5.90636 -0.300565 0
M  V30 2379 H 225.562 -0.728494 -0.194454 0
M  V30 2380 H 228.213 -1.8211 0.22542 0
M  V30 2381 H 226.595 -3.55215 -1.75038 0
M  V30 2382 H 227.769 -4.51043 0.94325 0
M  V30 2383 H 226.084 -4.10527 0.696905 0
M  V30 2384 H 228.681 -4.98158 -1.94275 0
M  V30 2385 H 229.024 -3.3519 -2.46888 0
M  V30 2386 H 229.557 -3.88484 -0.855863 0
M  V30 2387 H 226.296 -6.5318 0.550989 0
M  V30 2388 H 225.816 -5.90655 -1.04338 0
M  V30 2389 H 227.495 -6.42588 -0.754265 0
M  V30 2390 N 227.627 0.131896 -1.57047 0
M  V30 2391 C 228.559 1.1878 -1.9602 0
M  V30 2392 C 229.572 1.38363 -0.857875 0
M  V30 2393 O 230.761 1.37666 -1.13623 0
M  V30 2394 C 227.861 2.55008 -2.23213 0
M  V30 2395 C 227.034 2.56201 -3.54513 0
M  V30 2396 C 226.093 3.7408 -3.70069 0
M  V30 2397 O 225.119 3.58258 -4.42312 0
M  V30 2398 N 226.321 4.92137 -3.07866 0
M  V30 2399 H 229.086 0.85639 -2.87204 0
M  V30 2400 H 226.647 0.321309 -1.5868 0
M  V30 2401 H 228.639 3.32404 -2.30846 0
M  V30 2402 H 227.209 2.80382 -1.3822 0
M  V30 2403 H 226.429 1.64613 -3.58185 0
M  V30 2404 H 227.717 2.54043 -4.4084 0
M  V30 2405 H 227.115 5.07895 -2.49116 0
M  V30 2406 H 225.672 5.67254 -3.21039 0
M  V30 2407 N 229.106 1.52395 0.401703 0
M  V30 2408 C 230.054 1.7689 1.51039 0
M  V30 2409 C 231.048 0.636298 1.56996 0
M  V30 2410 O 232.254 0.818507 1.60314 0
M  V30 2411 H 228.629 0.559502 0.502456 0
M  V30 2412 H 230.6 2.69757 1.27568 0
M  V30 2413 C 229.349 1.94331 2.88324 0
M  V30 2414 H 228.672 2.80905 2.84486 0
M  V30 2415 H 230.112 2.15466 3.65172 0
M  V30 2416 C 228.571 0.712396 3.29282 0
M  V30 2417 O 229.101 -0.116218 4.01532 0
M  V30 2418 N 227.307 0.546154 2.85422 0
M  V30 2419 H 226.854 1.22156 2.26794 0
M  V30 2420 H 226.812 -0.276113 3.13185 0
M  V30 2421 N 230.584 -0.659388 1.43143 0
M  V30 2422 C 231.532 -1.79374 1.4808 0
M  V30 2423 C 232.526 -1.65639 0.354988 0
M  V30 2424 O 233.732 -1.7206 0.528704 0
M  V30 2425 H 230.107 -0.591705 0.4641 0
M  V30 2426 H 232.078 -1.72329 2.43609 0
M  V30 2427 C 230.827 -3.17606 1.41499 0
M  V30 2428 H 230.15 -3.28809 2.27431 0
M  V30 2429 H 231.59 -3.96951 1.49015 0
M  V30 2430 C 230.049 -3.36642 0.131765 0
M  V30 2431 O 230.579 -3.93461 -0.809386 0
M  V30 2432 N 228.785 -2.90567 0.0439396 0
M  V30 2433 H 228.332 -2.44513 0.810619 0
M  V30 2434 H 228.29 -3.03681 -0.813969 0
M  V30 2435 N 232.062 -1.29571 -0.897171 0
M  V30 2436 C 233.311 -1.1706 -1.64256 0
M  V30 2437 C 233.624 0.276476 -1.93636 0
M  V30 2438 O 234.83 0.52294 -2.66416 0
M  V30 2439 C 233.286 -2.0475 -2.95982 0
M  V30 2440 C 232.894 -3.54295 -2.74187 0
M  V30 2441 C 234.638 -2.0097 -3.73914 0
M  V30 2442 C 232.545 -4.34081 -4.01656 0
M  V30 2443 H 231.475 -0.43452 -0.616205 0
M  V30 2444 H 234.126 -1.54229 -0.994268 0
M  V30 2445 H 232.508 -1.60452 -3.62038 0
M  V30 2446 H 233.682 -4.06662 -2.1671 0
M  V30 2447 H 231.997 -3.59773 -2.09648 0
M  V30 2448 H 234.594 -2.57838 -4.68427 0
M  V30 2449 H 234.937 -0.990273 -4.0435 0
M  V30 2450 H 235.47 -2.43325 -3.14703 0
M  V30 2451 H 232.209 -5.36671 -3.76384 0
M  V30 2452 H 231.729 -3.86483 -4.58684 0
M  V30 2453 H 233.408 -4.44877 -4.69781 0
M  V30 2454 N 233.54 1.10788 -1.12088 0
M  V30 2455 C 234.77 1.86191 -0.895351 0
M  V30 2456 C 235.178 1.80763 0.558702 0
M  V30 2457 O 234.521 1.19188 1.39785 0
M  V30 2458 C 234.583 3.35659 -1.28737 0
M  V30 2459 C 234.247 3.64849 -2.75198 0
M  V30 2460 C 235.244 3.61757 -3.734 0
M  V30 2461 C 232.929 3.93641 -3.12013 0
M  V30 2462 C 234.923 3.87045 -5.06434 0
M  V30 2463 C 232.61 4.18585 -4.4523 0
M  V30 2464 C 233.608 4.15277 -5.42249 0
M  V30 2465 O 233.296 4.3959 -6.73065 0
M  V30 2466 H 233.028 0.595425 -0.32007 0
M  V30 2467 H 235.582 1.40992 -1.49367 0
M  V30 2468 H 233.812 3.81497 -0.63224 0
M  V30 2469 H 235.501 3.92441 -1.03656 0
M  V30 2470 H 236.267 3.39557 -3.46303 0
M  V30 2471 H 232.146 3.95348 -2.37109 0
M  V30 2472 H 235.69 3.84378 -5.82151 0
M  V30 2473 H 231.587 4.40264 -4.72057 0
M  V30 2474 H 232.355 4.57123 -6.78956 0
M  V30 2475 N 235.018 0.912232 1.28515 0
M  V30 2476 C 235.966 0.389597 2.29314 0
M  V30 2477 C 236.96 -0.517915 1.61289 0
M  V30 2478 O 238.166 -0.399328 1.75515 0
M  V30 2479 H 234.541 0.107386 0.744293 0
M  V30 2480 H 236.512 1.25286 2.70825 0
M  V30 2481 C 235.261 -0.356496 3.45868 0
M  V30 2482 H 234.584 0.332608 3.98414 0
M  V30 2483 H 236.024 -0.686851 4.184 0
M  V30 2484 C 234.483 -1.56383 2.98406 0
M  V30 2485 O 235.013 -2.66294 3.00749 0
M  V30 2486 N 233.219 -1.41029 2.54085 0
M  V30 2487 H 232.766 -0.516089 2.52377 0
M  V30 2488 H 232.724 -2.21939 2.22689 0
M  V30 2489 N 236.496 -1.42363 0.676048 0
M  V30 2490 C 237.745 -2.00745 0.196037 0
M  V30 2491 C 238.058 -1.54083 -1.20489 0
M  V30 2492 O 239.264 -2.04891 -1.78134 0
M  V30 2493 C 237.72 -3.58651 0.299616 0
M  V30 2494 C 237.328 -4.143 1.70468 0
M  V30 2495 C 239.072 -4.24326 -0.121619 0
M  V30 2496 C 236.979 -5.64574 1.76096 0
M  V30 2497 H 235.909 -0.750787 0.0695301 0
M  V30 2498 H 238.56 -1.63072 0.841412 0
M  V30 2499 H 236.942 -3.93833 -0.413673 0
M  V30 2500 H 238.116 -3.90575 2.44515 0
M  V30 2501 H 236.431 -3.61081 2.07387 0
M  V30 2502 H 239.028 -5.34607 -0.0997362 0
M  V30 2503 H 239.371 -3.99897 -1.15708 0
M  V30 2504 H 239.904 -3.94108 0.540706 0
M  V30 2505 H 236.643 -5.93804 2.77628 0
M  V30 2506 H 236.163 -5.90286 1.06406 0
M  V30 2507 H 237.842 -6.29013 1.51496 0
M  V30 2508 N 237.974 -0.419461 -1.51915 0
M  V30 2509 C 239.202 0.152136 -2.0634 0
M  V30 2510 C 239.617 1.37988 -1.28859 0
M  V30 2511 O 238.974 1.79243 -0.343232 0
M  V30 2512 C 239.025 0.492266 -3.58133 0
M  V30 2513 O 238.746 -0.686736 -4.32684 0
M  V30 2514 C 240.247 1.11648 -4.2901 0
M  V30 2515 H 237.467 0.0158325 -0.670813 0
M  V30 2516 H 240.011 -0.593394 -1.95702 0
M  V30 2517 H 238.166 1.18769 -3.68745 0
M  V30 2518 H 238.58 -0.400341 -5.2297 0
M  V30 2519 H 240.054 1.3046 -5.36362 0
M  V30 2520 H 240.531 2.09251 -3.86148 0
M  V30 2521 H 241.137 0.460958 -4.22795 0
M  V30 2522 N 239.452 1.56882 -0.150215 0
M  V30 2523 C 240.399 2.16922 0.788244 0
M  V30 2524 C 241.369 1.10303 1.24187 0
M  V30 2525 O 242.554 1.38359 1.31383 0
M  V30 2526 C 239.694 2.79754 2.02068 0
M  V30 2527 C 238.807 4.00775 1.61257 0
M  V30 2528 C 237.942 4.51595 2.79705 0
M  V30 2529 C 236.981 5.65074 2.35282 0
M  V30 2530 N 236.118 6.10499 3.4675 0
M  V30 2531 H 240.958 2.96779 0.269444 0
M  V30 2532 H 238.495 1.46599 0.12128 0
M  V30 2533 H 240.453 3.14329 2.74323 0
M  V30 2534 H 239.083 2.02536 2.51354 0
M  V30 2535 H 238.135 3.72158 0.787553 0
M  V30 2536 H 239.447 4.82978 1.24633 0
M  V30 2537 H 238.601 4.88242 3.60145 0
M  V30 2538 H 237.34 3.68406 3.19576 0
M  V30 2539 H 236.345 5.28 1.53283 0
M  V30 2540 H 237.57 6.50052 1.96493 0
M  V30 2541 H 235.516 5.30243 3.86236 0
M  V30 2542 H 235.433 6.87637 3.14152 0
M  V30 2543 H 236.701 6.51791 4.27537 0
M  V30 2544 N 240.93 -0.123565 1.57115 0
M  V30 2545 C 241.84 -1.17074 2.033 0
M  V30 2546 C 242.856 -1.4561 0.952559 0
M  V30 2547 O 244.032 -1.56817 1.26374 0
M  V30 2548 C 241.097 -2.47857 2.42421 0
M  V30 2549 C 240.158 -2.26758 3.64526 0
M  V30 2550 C 239.391 -3.51305 4.01771 0
M  V30 2551 O 239.614 -4.5843 3.39409 0
M  V30 2552 O 238.548 -3.42578 4.94898 0
M  V30 2553 H 242.374 -0.808555 2.92739 0
M  V30 2554 H 239.959 -0.334027 1.45618 0
M  V30 2555 H 241.841 -3.2492 2.68338 0
M  V30 2556 H 240.516 -2.83558 1.5613 0
M  V30 2557 H 239.423 -1.47569 3.43765 0
M  V30 2558 H 240.756 -1.95963 4.51508 0
M  V30 2559 N 242.408 -1.52605 -0.393616 0
M  V30 2560 C 243.656 -1.67093 -1.13685 0
M  V30 2561 C 243.977 -0.411011 -1.90619 0
M  V30 2562 O 243.247 0.574491 -1.87287 0
M  V30 2563 H 241.827 -0.615923 -0.422668 0
M  V30 2564 H 244.489 -1.89704 -0.447039 0
M  V30 2565 H 243.585 -2.51922 -1.84232 0
M  V30 2566 N 243.887 0.651787 -1.4349 0
M  V30 2567 C 245.136 1.40754 -1.44469 0
M  V30 2568 C 245.449 1.95463 -0.0731845 0
M  V30 2569 O 246.655 2.71471 0.0395721 0
M  V30 2570 C 245.111 2.54735 -2.5424 0
M  V30 2571 C 244.719 2.06628 -3.97504 0
M  V30 2572 C 246.463 3.32092 -2.64414 0
M  V30 2573 C 244.37 3.17829 -4.98737 0
M  V30 2574 H 243.3 0.528862 -0.53742 0
M  V30 2575 H 245.951 0.703365 -1.69485 0
M  V30 2576 H 244.333 3.2763 -2.22428 0
M  V30 2577 H 245.507 1.40734 -4.38783 0
M  V30 2578 H 243.822 1.42146 -3.91387 0
M  V30 2579 H 246.419 4.14952 -3.37223 0
M  V30 2580 H 246.762 3.80217 -1.69532 0
M  V30 2581 H 247.295 2.66279 -2.95534 0
M  V30 2582 H 244.034 2.74671 -5.95177 0
M  V30 2583 H 243.554 3.82429 -4.62069 0
M  V30 2584 H 245.233 3.82937 -5.21505 0
M  V30 2585 N 245.365 1.30045 0.890287 0
M  V30 2586 C 246.59 1.21598 1.68014 0
M  V30 2587 C 247.015 -0.218678 1.86825 0
M  V30 2588 O 246.373 -1.15756 1.39536 0
M  V30 2589 C 246.421 1.94434 3.03691 0
M  V30 2590 O 245.525 1.2678 3.92429 0
M  V30 2591 H 244.866 0.420856 0.513592 0
M  V30 2592 H 247.396 1.71775 1.11151 0
M  V30 2593 H 247.406 2.03251 3.5377 0
M  V30 2594 H 246.081 2.98777 2.89318 0
M  V30 2595 H 244.658 1.26282 3.50866 0
M  V30 2596 N 246.843 -1.10192 1.12674 0
M  V30 2597 C 248.259 -1.34235 0.863317 0
M  V30 2598 C 248.459 -1.95062 -0.505277 0
M  V30 2599 O 247.515 -2.19192 -1.25345 0
M  V30 2600 C 248.828 -2.2616 1.98172 0
M  V30 2601 C 250.376 -2.3969 2.0129 0
M  V30 2602 C 250.851 -3.34946 3.1237 0
M  V30 2603 N 252.342 -3.42515 3.11829 0
M  V30 2604 C 253.077 -4.16199 3.94419 0
M  V30 2605 N 252.573 -4.92747 4.87004 0
M  V30 2606 N 254.366 -4.11843 3.82547 0
M  V30 2607 H 246.517 -0.690798 2.00853 0
M  V30 2608 H 248.78 -0.366774 0.874174 0
M  V30 2609 H 248.486 -1.8868 2.96804 0
M  V30 2610 H 248.36 -3.26488 1.88906 0
M  V30 2611 H 250.747 -2.76438 1.03276 0
M  V30 2612 H 250.828 -1.39169 2.14629 0
M  V30 2613 H 250.472 -2.98923 4.10619 0
M  V30 2614 H 250.402 -4.35353 2.96269 0
M  V30 2615 H 252.893 -2.87926 2.44759 0
M  V30 2616 H 253.206 -5.46376 5.46528 0
M  V30 2617 H 251.551 -4.91862 4.91016 0
M  V30 2618 H 254.742 -3.51136 3.0955 0
M  V30 2619 H 254.915 -4.69007 4.47142 0
M  V30 2620 N 248.321 -0.919034 -1.28029 0
M  V30 2621 C 249.251 -0.428581 -2.29533 0
M  V30 2622 C 250.232 0.50659 -1.62381 0
M  V30 2623 O 251.417 0.413195 -1.89753 0
M  V30 2624 C 248.547 0.327388 -3.45753 0
M  V30 2625 C 247.501 -0.519137 -4.2484 0
M  V30 2626 C 246.827 0.365486 -5.33449 0
M  V30 2627 C 248.127 -1.77914 -4.91064 0
M  V30 2628 H 249.821 -1.27687 -2.70807 0
M  V30 2629 H 247.367 -0.615428 -1.30186 0
M  V30 2630 H 249.32 0.681378 -4.15855 0
M  V30 2631 H 248.044 1.20963 -3.03374 0
M  V30 2632 H 246.703 -0.855717 -3.56473 0
M  V30 2633 H 246.351 1.24642 -4.87312 0
M  V30 2634 H 246.051 -0.197356 -5.87268 0
M  V30 2635 H 247.575 0.715241 -6.06396 0
M  V30 2636 H 248.989 -1.49374 -5.53498 0
M  V30 2637 H 247.386 -2.2848 -5.54903 0
M  V30 2638 H 248.456 -2.50382 -4.15255 0
M  V30 2639 N 249.799 1.42003 -0.683588 0
M  V30 2640 C 251.048 2.00638 -0.206681 0
M  V30 2641 C 251.361 1.5472 1.19671 0
M  V30 2642 O 252.567 2.05833 1.77045 0
M  V30 2643 C 251.023 3.58487 -0.318632 0
M  V30 2644 C 250.631 4.1339 -1.72663 0
M  V30 2645 C 252.375 4.24384 0.0991141 0
M  V30 2646 C 250.282 5.63633 -1.79087 0
M  V30 2647 H 249.212 0.750408 -0.0735107 0
M  V30 2648 H 251.863 1.62624 -0.850048 0
M  V30 2649 H 250.245 3.94047 0.392781 0
M  V30 2650 H 251.419 3.89273 -2.46583 0
M  V30 2651 H 249.734 3.59976 -2.09299 0
M  V30 2652 H 252.331 5.34652 0.0713833 0
M  V30 2653 H 252.674 4.00505 1.13586 0
M  V30 2654 H 253.207 3.93816 -0.561599 0
M  V30 2655 H 249.946 5.92323 -2.80774 0
M  V30 2656 H 249.466 5.89714 -1.09535 0
M  V30 2657 H 251.145 6.28201 -1.5483 0
M  V30 2658 N 251.277 0.427512 1.51691 0
M  V30 2659 C 252.225 -0.403359 2.29076 0
M  V30 2660 C 253.219 -1.02962 1.34518 0
M  V30 2661 O 254.425 -0.965715 1.51901 0
M  V30 2662 H 250.8 -0.148879 0.737115 0
M  V30 2663 H 252.771 0.270295 2.97173 0
M  V30 2664 C 251.52 -1.49763 3.13794 0
M  V30 2665 H 250.843 -1.02508 3.86435 0
M  V30 2666 H 252.283 -2.05244 3.71014 0
M  V30 2667 C 250.742 -2.47536 2.28533 0
M  V30 2668 O 251.272 -3.51848 1.93819 0
M  V30 2669 N 249.478 -2.18187 1.91945 0
M  V30 2670 H 249.025 -1.33389 2.20375 0
M  V30 2671 H 248.983 -2.83848 1.35195 0
M  V30 2672 N 252.755 -1.56801 0.158532 0
M  V30 2673 C 253.685 -2.20347 -0.772609 0
M  V30 2674 C 254.666 -1.15518 -1.24859 0
M  V30 2675 O 255.851 -1.43902 -1.30406 0
M  V30 2676 C 252.981 -2.83417 -2.00729 0
M  V30 2677 C 251.935 -3.94174 -1.66765 0
M  V30 2678 C 251.261 -4.44233 -2.97592 0
M  V30 2679 C 252.561 -5.14392 -0.905447 0
M  V30 2680 H 254.255 -2.98413 -0.242959 0
M  V30 2681 H 251.801 -1.43537 -0.115419 0
M  V30 2682 H 253.754 -3.26543 -2.6636 0
M  V30 2683 H 252.478 -2.02701 -2.56086 0
M  V30 2684 H 251.137 -3.51684 -1.03508 0
M  V30 2685 H 250.785 -3.60325 -3.50963 0
M  V30 2686 H 250.485 -5.18945 -2.75626 0
M  V30 2687 H 252.009 -4.90037 -3.64274 0
M  V30 2688 H 253.423 -5.5429 -1.46408 0
M  V30 2689 H 251.82 -5.9494 -0.7853 0
M  V30 2690 H 252.89 -4.84795 0.100668 0
M  V30 2691 N 254.233 0.115231 -1.57178 0
M  V30 2692 C 255.18 1.14115 -2.00615 0
M  V30 2693 C 256.15 1.40939 -0.878941 0
M  V30 2694 O 257.335 1.52741 -1.14345 0
M  V30 2695 C 254.475 2.46156 -2.4187 0
M  V30 2696 C 253.588 2.26236 -3.68024 0
M  V30 2697 C 252.723 3.51534 -3.98243 0
M  V30 2698 C 251.762 3.26787 -5.17568 0
M  V30 2699 N 250.899 4.44298 -5.43639 0
M  V30 2700 H 255.739 0.763743 -2.88047 0
M  V30 2701 H 253.276 0.365615 -1.42484 0
M  V30 2702 H 255.234 3.23189 -2.63827 0
M  V30 2703 H 253.864 2.81783 -1.57475 0
M  V30 2704 H 252.916 1.40102 -3.5366 0
M  V30 2705 H 254.228 2.03929 -4.55208 0
M  V30 2706 H 253.382 4.36984 -4.20868 0
M  V30 2707 H 252.121 3.76876 -3.09541 0
M  V30 2708 H 251.126 2.39729 -4.94783 0
M  V30 2709 H 252.351 3.02812 -6.0785 0
M  V30 2710 H 250.297 4.69754 -4.57895 0
M  V30 2711 H 250.214 4.25109 -6.25154 0
M  V30 2712 H 251.482 5.3087 -5.70786 0
M  V30 2713 N 255.711 1.52812 0.385517 0
M  V30 2714 C 256.659 1.78482 1.49155 0
M  V30 2715 C 257.653 0.652914 1.56312 0
M  V30 2716 O 258.859 0.835464 1.59436 0
M  V30 2717 H 255.234 0.5648 0.496493 0
M  V30 2718 H 257.205 2.71095 1.24699 0
M  V30 2719 C 255.954 1.97378 2.86247 0
M  V30 2720 H 255.277 2.83907 2.81491 0
M  V30 2721 H 256.717 2.19327 3.62866 0
M  V30 2722 C 255.176 0.74728 3.28508 0
M  V30 2723 O 255.706 -0.0736232 4.01633 0
M  V30 2724 N 253.912 0.576396 2.84826 0
M  V30 2725 H 253.459 1.24555 2.25486 0
M  V30 2726 H 253.417 -0.24288 3.1346 0
M  V30 2727 N 257.189 -0.644168 1.43834 0
M  V30 2728 C 258.119 -1.76814 1.52509 0
M  V30 2729 C 259.1 -1.65823 0.379052 0
M  V30 2730 O 260.285 -1.84781 0.597466 0
M  V30 2731 C 257.415 -3.15288 1.4564 0
M  V30 2732 C 256.369 -3.41053 2.58586 0
M  V30 2733 C 255.695 -4.79421 2.36769 0
M  V30 2734 C 256.995 -3.34902 4.00797 0
M  V30 2735 H 258.689 -1.69812 2.46586 0
M  V30 2736 H 256.235 -0.815542 1.1868 0
M  V30 2737 H 258.188 -3.93681 1.50311 0
M  V30 2738 H 256.912 -3.23043 0.480725 0
M  V30 2739 H 255.571 -2.65035 2.53282 0
M  V30 2740 H 255.219 -4.83863 1.37424 0
M  V30 2741 H 254.919 -4.9762 3.12487 0
M  V30 2742 H 256.443 -5.6006 2.43238 0
M  V30 2743 H 257.857 -4.03218 4.07539 0
M  V30 2744 H 256.254 -3.64637 4.76613 0
M  V30 2745 H 257.324 -2.32928 4.25291 0
M  V30 2746 N 258.668 -1.30515 -0.883378 0
M  V30 2747 C 259.898 -1.22182 -1.66599 0
M  V30 2748 C 260.306 0.217507 -1.87946 0
M  V30 2749 O 259.649 1.1554 -1.42815 0
M  V30 2750 C 259.711 -1.88146 -3.06335 0
M  V30 2751 C 259.375 -3.37476 -3.08154 0
M  V30 2752 C 260.372 -4.33443 -2.87094 0
M  V30 2753 C 258.057 -3.7895 -3.29701 0
M  V30 2754 C 260.051 -5.68858 -2.8754 0
M  V30 2755 C 257.738 -5.14482 -3.29776 0
M  V30 2756 C 258.736 -6.09246 -3.0872 0
M  V30 2757 O 258.424 -7.42302 -3.08615 0
M  V30 2758 H 258.156 -0.423898 -0.52658 0
M  V30 2759 H 260.71 -1.72703 -1.11188 0
M  V30 2760 H 258.94 -1.32157 -3.63416 0
M  V30 2761 H 260.629 -1.7391 -3.66756 0
M  V30 2762 H 261.395 -4.02733 -2.70243 0
M  V30 2763 H 257.274 -3.05631 -3.45124 0
M  V30 2764 H 260.818 -6.428 -2.71024 0
M  V30 2765 H 256.715 -5.44832 -3.46163 0
M  V30 2766 H 257.483 -7.5131 -3.24769 0
M  V30 2767 N 260.146 1.09593 -1.13257 0
M  V30 2768 C 261.076 2.18214 -0.830946 0
M  V30 2769 C 262.057 1.68812 0.208966 0
M  V30 2770 O 263.242 1.9408 0.0682666 0
M  V30 2771 C 260.372 3.46051 -0.294296 0
M  V30 2772 C 259.326 4.08778 -1.26826 0
M  V30 2773 C 258.652 5.31419 -0.591449 0
M  V30 2774 C 259.952 4.51476 -2.62615 0
M  V30 2775 H 261.646 2.43703 -1.73923 0
M  V30 2776 H 259.192 1.17128 -0.837675 0
M  V30 2777 H 261.145 4.2134 -0.0709606 0
M  V30 2778 H 259.869 3.20079 0.649366 0
M  V30 2779 H 258.528 3.35505 -1.47756 0
M  V30 2780 H 258.176 5.01727 0.357633 0
M  V30 2781 H 257.876 5.74341 -1.24123 0
M  V30 2782 H 259.4 6.09433 -0.377355 0
M  V30 2783 H 260.814 5.17999 -2.45663 0
M  V30 2784 H 259.211 5.05277 -3.23752 0
M  V30 2785 H 260.281 3.63962 -3.20406 0
M  V30 2786 N 261.624 0.925811 1.2754 0
M  V30 2787 C 262.587 0.428129 2.25166 0
M  V30 2788 C 263.587 -0.452261 1.54309 0
M  V30 2789 O 264.777 -0.253608 1.72344 0
M  V30 2790 C 261.909 -0.384749 3.38722 0
M  V30 2791 H 263.102 1.29066 2.70706 0
M  V30 2792 H 260.655 0.706323 1.3943 0
M  V30 2793 H 261.39 -1.26618 2.98561 0
M  V30 2794 H 261.175 0.246454 3.91325 0
M  V30 2795 H 262.665 -0.723389 4.11287 0
M  V30 2796 N 263.102 -1.41638 0.69111 0
M  V30 2797 C 264.348 -2.02104 0.229258 0
M  V30 2798 C 264.703 -1.53741 -1.15678 0
M  V30 2799 O 263.996 -0.736849 -1.76865 0
M  V30 2800 C 264.19 -3.56714 0.221277 0
M  V30 2801 C 264.019 -4.20083 1.605 0
M  V30 2802 C 262.789 -4.54566 2.20676 0
M  V30 2803 C 264.987 -4.46587 2.55078 0
M  V30 2804 N 262.969 -5.03199 3.5166 0
M  V30 2805 C 264.34 -4.96946 3.70735 0
M  V30 2806 C 266.395 -4.28593 2.53401 0
M  V30 2807 C 265.098 -5.31203 4.8499 0
M  V30 2808 C 267.124 -4.63936 3.66765 0
M  V30 2809 C 266.486 -5.14463 4.81152 0
M  V30 2810 H 262.585 -0.771256 0.12918 0
M  V30 2811 H 265.169 -1.72251 0.907626 0
M  V30 2812 H 263.34 -3.86051 -0.426562 0
M  V30 2813 H 265.072 -4.03896 -0.254983 0
M  V30 2814 H 261.827 -4.4087 1.73005 0
M  V30 2815 H 262.251 -5.31926 4.18789 0
M  V30 2816 H 266.893 -3.88771 1.66184 0
M  V30 2817 H 264.611 -5.69951 5.72871 0
M  V30 2818 H 268.197 -4.51677 3.66714 0
M  V30 2819 H 267.077 -5.41299 5.67419 0
M  V30 2820 N 264.58 -0.43555 -1.51462 0
M  V30 2821 C 265.528 0.391205 -2.29287 0
M  V30 2822 C 266.522 1.02247 -1.35062 0
M  V30 2823 O 267.728 0.957646 -1.52411 0
M  V30 2824 H 264.103 0.144968 -0.737895 0
M  V30 2825 H 266.074 -0.286051 -2.97026 0
M  V30 2826 C 264.823 1.48096 -3.14583 0
M  V30 2827 H 264.146 1.00457 -3.86973 0
M  V30 2828 H 265.586 2.03273 -3.72097 0
M  V30 2829 C 264.045 2.46321 -2.29843 0
M  V30 2830 O 264.575 3.50815 -1.95682 0
M  V30 2831 N 262.781 2.17166 -1.931 0
M  V30 2832 H 262.328 1.32218 -2.21079 0
M  V30 2833 H 262.286 2.83127 -1.36698 0
M  V30 2834 N 266.058 1.56714 -0.166846 0
M  V30 2835 C 267.298 1.98641 0.481763 0
M  V30 2836 C 267.662 1.05038 1.6072 0
M  V30 2837 O 268.863 1.36087 2.31805 0
M  V30 2838 C 267.134 3.44362 0.956517 0
M  V30 2839 S 268.693 4.08317 1.60694 0
M  V30 2840 H 265.511 0.693873 0.155116 0
M  V30 2841 H 268.113 1.93719 -0.263251 0
M  V30 2842 H 266.817 4.10204 0.126936 0
M  V30 2843 H 266.348 3.53041 1.73568 0
M  V30 2844 H 268.363 4.02999 2.89494 0
M  V30 2845 N 267.536 -0.106894 1.57237 0
M  V30 2846 C 268.766 -0.825191 1.89405 0
M  V30 2847 C 269.174 -1.73374 0.757496 0
M  V30 2848 O 268.517 -1.81552 -0.280115 0
M  V30 2849 C 268.579 -1.70102 3.1671 0
M  V30 2850 C 268.243 -0.965523 4.46684 0
M  V30 2851 C 269.24 -0.300741 5.19029 0
M  V30 2852 C 266.925 -0.943105 4.93367 0
M  V30 2853 C 268.919 0.376622 6.36286 0
M  V30 2854 C 266.606 -0.261949 6.10538 0
M  V30 2855 C 267.604 0.396748 6.81847 0
M  V30 2856 O 267.292 1.06701 7.96787 0
M  V30 2857 H 267.024 -0.241852 0.631255 0
M  V30 2858 H 269.578 -0.0921491 2.05193 0
M  V30 2859 H 267.808 -2.47601 2.97036 0
M  V30 2860 H 269.497 -2.29483 3.34802 0
M  V30 2861 H 270.263 -0.309599 4.84011 0
M  V30 2862 H 266.142 -1.44524 4.3776 0
M  V30 2863 H 269.686 0.891334 6.91882 0
M  V30 2864 H 265.583 -0.250896 6.45012 0
M  V30 2865 H 266.351 0.972707 8.127 0
M  V30 2866 N 269.014 -1.53014 -0.377408 0
M  V30 2867 C 270.261 -1.68623 -1.12128 0
M  V30 2868 C 270.589 -0.431997 -1.89642 0
M  V30 2869 O 269.844 0.585855 -1.86725 0
M  V30 2870 C 270.143 -2.87982 -2.11663 0
M  V30 2871 C 269.809 -4.24964 -1.50719 0
M  V30 2872 C 268.471 -4.62217 -1.33825 0
M  V30 2873 C 270.823 -5.10199 -1.06519 0
M  V30 2874 C 268.151 -5.82352 -0.712963 0
M  V30 2875 C 270.503 -6.30969 -0.453955 0
M  V30 2876 C 269.167 -6.66944 -0.272411 0
M  V30 2877 H 268.437 -0.617034 -0.410305 0
M  V30 2878 H 271.084 -1.8718 -0.404484 0
M  V30 2879 H 269.389 -2.63889 -2.89603 0
M  V30 2880 H 271.086 -2.97253 -2.6915 0
M  V30 2881 H 267.676 -3.95626 -1.64858 0
M  V30 2882 H 271.86 -4.81978 -1.18368 0
M  V30 2883 H 267.116 -6.08824 -0.560611 0
M  V30 2884 H 271.29 -6.96324 -0.103217 0
M  V30 2885 H 268.917 -7.59898 0.214181 0
M  V30 2886 N 270.492 0.636531 -1.44174 0
M  V30 2887 C 271.44 1.76995 -1.50915 0
M  V30 2888 C 272.434 1.65053 -0.381295 0
M  V30 2889 O 273.64 1.71197 -0.55601 0
M  V30 2890 H 270.015 0.584247 -0.473455 0
M  V30 2891 H 271.986 1.68432 -2.4632 0
M  V30 2892 C 270.735 3.15314 -1.46534 0
M  V30 2893 H 270.058 3.25149 -2.32633 0
M  V30 2894 H 271.498 3.9453 -1.55312 0
M  V30 2895 C 269.957 3.3639 -0.185305 0
M  V30 2896 O 270.487 3.94699 0.746688 0
M  V30 2897 N 268.693 2.9046 -0.0901606 0
M  V30 2898 H 268.24 2.43193 -0.849416 0
M  V30 2899 H 268.198 3.04937 0.765553 0
M  V30 2900 N 271.97 1.30982 0.876444 0
M  V30 2901 C 272.917 1.18085 1.98304 0
M  V30 2902 C 273.887 0.0682263 1.6596 0
M  V30 2903 O 275.072 0.239937 1.89285 0
M  V30 2904 C 272.212 0.887475 3.33493 0
M  V30 2905 C 271.325 2.08281 3.78475 0
M  V30 2906 C 270.46 1.72678 5.0235 0
M  V30 2907 C 269.499 2.88657 5.39762 0
M  V30 2908 N 268.636 2.53292 6.54819 0
M  V30 2909 H 273.476 2.1275 2.08666 0
M  V30 2910 H 271.013 1.05839 1.02159 0
M  V30 2911 H 272.971 0.697961 4.1132 0
M  V30 2912 H 271.601 -0.022315 3.22792 0
M  V30 2913 H 270.653 2.3833 2.96484 0
M  V30 2914 H 271.965 2.95108 4.02135 0
M  V30 2915 H 271.119 1.50151 5.87826 0
M  V30 2916 H 269.858 0.830327 4.8058 0
M  V30 2917 H 268.863 3.1184 4.52809 0
M  V30 2918 H 270.088 3.79002 5.63502 0
M  V30 2919 H 268.034 1.66163 6.34607 0
M  V30 2920 H 267.951 3.3365 6.7839 0
M  V30 2921 H 269.219 2.34143 7.43503 0
M  V30 2922 N 273.449 -1.08991 1.13837 0
M  V30 2923 C 274.695 -1.81526 0.90422 0
M  V30 2924 C 275.028 -1.85706 -0.568066 0
M  V30 2925 O 274.303 -1.32855 -1.42056 0
M  V30 2926 C 274.586 -3.27447 1.49835 0
M  V30 2927 C 274.439 -3.31512 3.04006 0
M  V30 2928 C 275.758 -4.24256 1.17025 0
M  V30 2929 H 272.877 -0.659029 0.329923 0
M  V30 2930 H 275.519 -1.27644 1.40737 0
M  V30 2931 H 273.669 -3.73462 1.07044 0
M  V30 2932 H 275.341 -2.93867 3.55584 0
M  V30 2933 H 273.584 -2.70963 3.38765 0
M  V30 2934 H 274.255 -4.34329 3.40679 0
M  V30 2935 H 276.731 -3.86549 1.54009 0
M  V30 2936 H 275.607 -5.24684 1.61237 0
M  V30 2937 H 275.868 -4.42019 0.0846274 0
M  V30 2938 N 274.927 -0.932562 -1.27047 0
M  V30 2939 C 276.167 -0.582919 -1.95912 0
M  V30 2940 C 276.531 0.860629 -1.71631 0
M  V30 2941 O 277.732 1.31878 -2.34225 0
M  V30 2942 C 276.003 -0.905673 -3.45734 0
M  V30 2943 S 277.562 -0.665277 -4.33727 0
M  V30 2944 H 274.38 -0.215 -0.677714 0
M  V30 2945 H 276.982 -1.20204 -1.54179 0
M  V30 2946 H 275.686 -1.95386 -3.60905 0
M  V30 2947 H 275.217 -0.275939 -3.92431 0
M  V30 2948 H 277.232 0.474635 -4.93925 0
M  V30 2949 N 276.405 1.4127 -0.698611 0
M  V30 2950 C 277.315 2.34573 -0.0357891 0
M  V30 2951 C 278.331 1.56393 0.762701 0
M  V30 2952 O 279.507 1.8886 0.699564 0
M  V30 2953 C 276.572 3.35159 0.887089 0
M  V30 2954 C 275.633 4.29225 0.0804634 0
M  V30 2955 C 274.866 5.25006 0.959387 0
M  V30 2956 O 275.089 5.26314 2.19886 0
M  V30 2957 O 274.023 6.00519 0.407439 0
M  V30 2958 H 277.849 2.92838 -0.804957 0
M  V30 2959 H 275.434 1.42175 -0.458966 0
M  V30 2960 H 277.316 3.9689 1.41621 0
M  V30 2961 H 275.991 2.79333 1.6357 0
M  V30 2962 H 274.898 3.70833 -0.493328 0
M  V30 2963 H 276.231 4.88157 -0.629547 0
M  V30 2964 N 277.883 0.443576 1.51229 0
M  V30 2965 C 278.83 -0.364716 2.279 0
M  V30 2966 C 279.8 -1.0114 1.31757 0
M  V30 2967 O 280.985 -1.02912 1.60667 0
M  V30 2968 C 278.125 -1.45644 3.12861 0
M  V30 2969 C 277.238 -0.827269 4.24005 0
M  V30 2970 C 276.373 -1.89456 4.96266 0
M  V30 2971 C 275.412 -1.24416 5.99322 0
M  V30 2972 N 274.549 -2.25309 6.64966 0
M  V30 2973 H 279.389 0.295464 2.96532 0
M  V30 2974 H 276.926 0.157554 1.46254 0
M  V30 2975 H 278.884 -2.10076 3.6045 0
M  V30 2976 H 277.514 -2.08616 2.46331 0
M  V30 2977 H 276.566 -0.0710839 3.80334 0
M  V30 2978 H 277.878 -0.312481 4.9782 0
M  V30 2979 H 277.032 -2.61535 5.47434 0
M  V30 2980 H 275.771 -2.4431 4.22095 0
M  V30 2981 H 274.776 -0.508868 5.4744 0
M  V30 2982 H 276.001 -0.702882 6.75453 0
M  V30 2983 H 273.947 -2.79231 5.93604 0
M  V30 2984 H 273.864 -1.78739 7.34567 0
M  V30 2985 H 275.132 -2.96853 7.20763 0
M  V30 2986 N 279.361 -1.56624 0.175154 0
M  V30 2987 C 280.589 -2.01374 -0.474971 0
M  V30 2988 C 281.004 -1.05537 -1.56548 0
M  V30 2989 O 280.361 -0.0568668 -1.82411 0
M  V30 2990 C 280.412 -3.45923 -1.04975 0
M  V30 2991 O 280.133 -4.381 -0.00276605 0
M  V30 2992 C 281.634 -4.06093 -1.77773 0
M  V30 2993 H 278.854 -0.659962 -0.121206 0
M  V30 2994 H 281.398 -2.02601 0.27801 0
M  V30 2995 H 279.553 -3.45458 -1.75321 0
M  V30 2996 H 279.967 -5.22753 -0.427681 0
M  V30 2997 H 281.441 -5.09147 -2.13245 0
M  V30 2998 H 281.918 -3.48405 -2.67414 0
M  V30 2999 H 282.524 -4.10272 -1.12059 0
M  V30 3000 N 280.839 0.0985539 -1.57292 0
M  V30 3001 C 281.787 1.1387 -2.02821 0
M  V30 3002 C 282.781 1.41676 -0.928666 0
M  V30 3003 O 283.987 1.41398 -1.11385 0
M  V30 3004 H 280.362 0.384419 -0.646317 0
M  V30 3005 H 282.333 0.728347 -2.89375 0
M  V30 3006 C 281.082 2.45166 -2.46554 0
M  V30 3007 H 280.405 2.24613 -3.3074 0
M  V30 3008 H 281.845 3.16456 -2.8219 0
M  V30 3009 C 280.304 3.09216 -1.33742 0
M  V30 3010 O 280.834 3.96163 -0.66464 0
M  V30 3011 N 279.04 2.69413 -1.08928 0
M  V30 3012 H 278.587 1.98801 -1.63817 0
M  V30 3013 H 278.545 3.12594 -0.336458 0
M  V30 3014 N 282.317 1.53212 0.369288 0
M  V30 3015 C 283.566 1.68436 1.10961 0
M  V30 3016 C 283.879 0.440738 1.9057 0
M  V30 3017 O 285.085 0.473446 2.6734 0
M  V30 3018 C 283.541 2.97744 2.0218 0
M  V30 3019 C 283.149 4.29355 1.279 0
M  V30 3020 C 284.893 3.22334 2.76226 0
M  V30 3021 C 282.8 5.49755 2.17999 0
M  V30 3022 H 281.73 0.627568 0.41794 0
M  V30 3023 H 284.381 1.79713 0.370884 0
M  V30 3024 H 282.763 2.8026 2.79768 0
M  V30 3025 H 283.937 4.57458 0.554007 0
M  V30 3026 H 282.252 4.11179 0.657311 0
M  V30 3027 H 284.849 4.09471 3.43857 0
M  V30 3028 H 285.192 2.38238 3.41392 0
M  V30 3029 H 285.725 3.40475 2.05723 0
M  V30 3030 H 282.464 6.36318 1.57417 0
M  V30 3031 H 281.984 5.25937 2.88359 0
M  V30 3032 H 283.663 5.84401 2.77641 0
M  V30 3033 N 283.795 -0.628877 1.44509 0
M  V30 3034 C 284.705 -1.7694 1.54044 0
M  V30 3035 C 285.721 -1.68705 0.425987 0
M  V30 3036 O 286.897 -1.89442 0.683656 0
M  V30 3037 C 283.962 -3.13332 1.48405 0
M  V30 3038 C 283.023 -3.33181 2.70719 0
M  V30 3039 C 282.256 -4.63067 2.6534 0
M  V30 3040 O 282.479 -5.44017 1.71469 0
M  V30 3041 O 281.413 -4.85167 3.56226 0
M  V30 3042 H 285.239 -1.71848 2.50403 0
M  V30 3043 H 282.824 -0.790378 1.26781 0
M  V30 3044 H 284.706 -3.94634 1.47791 0
M  V30 3045 H 283.381 -3.1896 0.551898 0
M  V30 3046 H 282.288 -2.51549 2.769 0
M  V30 3047 H 283.621 -3.32416 3.62988 0
M  V30 3048 N 285.273 -1.31445 -0.869486 0
M  V30 3049 C 286.55 -1.11795 -1.60503 0
M  V30 3050 C 286.93 0.327168 -2.08549 0
M  V30 3051 O 286.278 1.32135 -1.8642 0
M  V30 3052 C 286.488 -2.13258 -2.76265 0
M  V30 3053 C 287.836 -2.45805 -3.46215 0
M  V30 3054 O 288.86 -2.11688 -2.86473 0
M  V30 3055 O 287.719 -3.04228 -4.5399 0
M  V30 3056 H 284.813 -0.430421 -0.706163 0
M  V30 3057 H 287.359 -1.42925 -0.914907 0
M  V30 3058 H 286.131 -3.10461 -2.3818 0
M  V30 3059 H 285.754 -1.83035 -3.52964 0
M  V30 3060 N 286.751 1.08385 -1.14413 0
M  V30 3061 C 287.999 1.80419 -0.910679 0
M  V30 3062 C 288.32 1.86658 0.564243 0
M  V30 3063 O 287.59 1.35985 1.41014 0
M  V30 3064 H 286.17 0.668204 -0.333934 0
M  V30 3065 H 288.832 1.31037 -1.44275 0
M  V30 3066 H 287.928 2.83238 -1.31082 0
M  V30 3067 N 288.23 0.939286 1.26551 0
M  V30 3068 C 289.476 0.586715 1.94128 0
M  V30 3069 C 289.809 -0.8717 1.73537 0
M  V30 3070 O 289.084 -1.62339 1.07127 0
M  V30 3071 C 289.367 0.927497 3.4795 0
M  V30 3072 C 289.22 2.44052 3.77834 0
M  V30 3073 C 290.539 0.441569 4.37879 0
M  V30 3074 H 287.658 0.21463 0.705055 0
M  V30 3075 H 290.3 1.17316 1.49455 0
M  V30 3076 H 288.45 0.428431 3.8613 0
M  V30 3077 H 290.122 3.01216 3.4938 0
M  V30 3078 H 288.365 2.8848 3.23978 0
M  V30 3079 H 289.036 2.62947 4.85348 0
M  V30 3080 H 291.512 0.869448 4.06915 0
M  V30 3081 H 290.388 0.708856 5.44304 0
M  V30 3082 H 290.649 -0.658467 4.37169 0
M  V30 3083 N 289.708 -1.40897 0.706093 0
M  V30 3084 C 290.955 -2.01054 0.241531 0
M  V30 3085 C 291.283 -1.55956 -1.16223 0
M  V30 3086 O 290.538 -0.766336 -1.80072 0
M  V30 3087 C 290.837 -3.5646 0.259099 0
M  V30 3088 C 290.503 -4.21106 1.61184 0
M  V30 3089 C 289.165 -4.38479 1.98216 0
M  V30 3090 C 291.517 -4.57256 2.50132 0
M  V30 3091 C 288.845 -4.89282 3.2376 0
M  V30 3092 C 291.197 -5.09454 3.7502 0
M  V30 3093 C 289.861 -5.25037 4.12181 0
M  V30 3094 H 289.131 -0.73571 0.0883825 0
M  V30 3095 H 291.778 -1.68645 0.907257 0
M  V30 3096 H 290.083 -3.88721 -0.490189 0
M  V30 3097 H 291.78 -4.00826 -0.11804 0
M  V30 3098 H 288.37 -4.07966 1.31384 0
M  V30 3099 H 292.554 -4.43479 2.228 0
M  V30 3100 H 287.81 -4.99531 3.52532 0
M  V30 3101 H 291.984 -5.36404 4.44121 0
M  V30 3102 H 289.611 -5.64164 5.09532 0
M  V30 3103 N 291.186 -0.45159 -1.50991 0
M  V30 3104 C 292.096 0.358431 -2.31846 0
M  V30 3105 C 293.112 1.01438 -1.41373 0
M  V30 3106 O 294.288 1.00663 -1.74439 0
M  V30 3107 C 291.353 1.43704 -3.15515 0
M  V30 3108 C 290.414 0.799742 -4.21785 0
M  V30 3109 C 289.647 1.82696 -5.01456 0
M  V30 3110 O 289.87 3.05105 -4.81941 0
M  V30 3111 O 288.804 1.40958 -5.85162 0
M  V30 3112 H 292.63 -0.302032 -3.02194 0
M  V30 3113 H 290.215 -0.213825 -1.47862 0
M  V30 3114 H 292.097 2.06227 -3.67489 0
M  V30 3115 H 290.772 2.08133 -2.47916 0
M  V30 3116 H 289.679 0.136084 -3.73852 0
M  V30 3117 H 291.012 0.198718 -4.91799 0
M  V30 3118 N 292.664 1.56529 -0.183458 0
M  V30 3119 C 293.892 2.01623 0.464285 0
M  V30 3120 C 294.307 1.06366 1.55986 0
M  V30 3121 O 293.664 0.0665398 1.82379 0
M  V30 3122 C 293.715 3.46475 1.03139 0
M  V30 3123 O 293.436 4.38095 -0.0204675 0
M  V30 3124 C 294.937 4.0703 1.75617 0
M  V30 3125 H 292.157 0.660596 0.117704 0
M  V30 3126 H 294.701 2.02451 -0.288751 0
M  V30 3127 H 292.856 3.46383 1.73486 0
M  V30 3128 H 293.27 5.22973 0.399952 0
M  V30 3129 H 294.744 5.10271 2.10542 0
M  V30 3130 H 295.221 3.49819 2.65563 0
M  V30 3131 H 295.827 4.1086 1.09882 0
M  V30 3132 N 294.142 -0.090211 1.57342 0
M  V30 3133 C 295.072 -1.10976 2.05443 0
M  V30 3134 C 296.053 -1.41482 0.944284 0
M  V30 3135 O 297.238 -1.51428 1.21586 0
M  V30 3136 C 294.368 -2.42831 2.48295 0
M  V30 3137 C 293.322 -2.26721 3.63018 0
M  V30 3138 C 292.648 -3.63796 3.91863 0
M  V30 3139 C 293.948 -1.7037 4.93732 0
M  V30 3140 H 295.642 -0.709564 2.9087 0
M  V30 3141 H 293.188 -0.339874 1.39932 0
M  V30 3142 H 295.141 -3.14431 2.80555 0
M  V30 3143 H 293.865 -2.84795 1.59873 0
M  V30 3144 H 292.524 -1.57565 3.31012 0
M  V30 3145 H 292.172 -4.03297 3.00601 0
M  V30 3146 H 291.872 -3.53861 4.69101 0
M  V30 3147 H 293.396 -4.36855 4.26603 0
M  V30 3148 H 294.81 -2.31816 5.24342 0
M  V30 3149 H 293.207 -1.71181 5.75167 0
M  V30 3150 H 294.277 -0.663542 4.80339 0
M  V30 3151 N 295.62 -1.53406 -0.361157 0
M  V30 3152 C 296.848 -1.73717 -1.12383 0
M  V30 3153 C 297.263 -0.468161 -1.82904 0
M  V30 3154 O 296.62 0.559198 -1.73722 0
M  V30 3155 C 296.671 -2.90558 -2.15078 0
M  V30 3156 O 296.392 -4.12549 -1.47428 0
M  V30 3157 C 297.893 -3.22777 -3.03858 0
M  V30 3158 H 295.113 -0.580896 -0.335858 0
M  V30 3159 H 297.657 -2.00167 -0.418728 0
M  V30 3160 H 295.812 -2.66489 -2.8118 0
M  V30 3161 H 296.226 -4.78009 -2.15887 0
M  V30 3162 H 297.7 -4.07927 -3.71887 0
M  V30 3163 H 298.177 -2.38329 -3.68912 0
M  V30 3164 H 298.783 -3.48787 -2.43367 0
M  V30 3165 N 297.098 0.621204 -1.44841 0
M  V30 3166 C 298.046 1.75385 -1.52784 0
M  V30 3167 C 299.04 1.64639 -0.398779 0
M  V30 3168 O 300.246 1.70598 -0.574137 0
M  V30 3169 H 296.621 0.579193 -0.479625 0
M  V30 3170 H 298.592 1.6581 -2.48092 0
M  V30 3171 C 297.341 3.13742 -1.4987 0
M  V30 3172 H 296.664 3.22663 -2.36069 0
M  V30 3173 H 298.104 3.92861 -1.59487 0
M  V30 3174 C 296.563 3.36175 -0.220973 0
M  V30 3175 O 297.093 3.95469 0.704782 0
M  V30 3176 N 295.299 2.90348 -0.120963 0
M  V30 3177 H 294.846 2.42278 -0.875162 0
M  V30 3178 H 294.804 3.05732 0.733168 0
M  V30 3179 N 298.576 1.31904 0.862503 0
M  V30 3180 C 299.506 1.22782 1.98612 0
M  V30 3181 C 300.487 0.113362 1.69722 0
M  V30 3182 O 301.672 0.299218 1.91881 0
M  V30 3183 C 298.802 0.942058 3.34279 0
M  V30 3184 C 297.756 2.0169 3.77499 0
M  V30 3185 C 297.082 1.58369 5.10709 0
M  V30 3186 C 298.382 3.43096 3.93805 0
M  V30 3187 H 300.076 2.16788 2.06502 0
M  V30 3188 H 297.622 1.04366 0.992154 0
M  V30 3189 H 299.575 0.864818 4.1243 0
M  V30 3190 H 298.299 -0.0336603 3.26583 0
M  V30 3191 H 296.958 2.08416 3.01593 0
M  V30 3192 H 296.606 0.595628 4.99461 0
M  V30 3193 H 296.306 2.30279 5.40597 0
M  V30 3194 H 297.83 1.52067 5.91361 0
M  V30 3195 H 299.244 3.39003 4.62331 0
M  V30 3196 H 297.641 4.13288 4.35101 0
M  V30 3197 H 298.711 3.83334 2.96957 0
M  V30 3198 N 300.054 -1.07777 1.14986 0
M  V30 3199 C 300.964 -2.18404 0.856546 0
M  V30 3200 C 301.98 -1.73211 -0.165485 0
M  V30 3201 O 303.156 -2.01399 0.00755219 0
M  V30 3202 C 300.221 -3.44977 0.34526 0
M  V30 3203 C 299.282 -4.0476 1.43065 0
M  V30 3204 C 298.515 -5.25291 0.943663 0
M  V30 3205 O 298.738 -5.70004 -0.212426 0
M  V30 3206 O 297.672 -5.76638 1.72547 0
M  V30 3207 H 301.498 -2.45978 1.78125 0
M  V30 3208 H 299.083 -1.17033 0.928631 0
M  V30 3209 H 300.965 -4.21348 0.0663671 0
M  V30 3210 H 299.64 -3.18965 -0.551631 0
M  V30 3211 H 298.547 -3.29949 1.76309 0
M  V30 3212 H 299.88 -4.35035 2.30229 0
M  V30 3213 N 301.532 -0.945985 -1.26051 0
M  V30 3214 C 302.462 -0.477172 -2.28572 0
M  V30 3215 C 303.443 0.472032 -1.63419 0
M  V30 3216 O 304.628 0.372853 -1.90587 0
M  V30 3217 C 301.758 0.253975 -3.4637 0
M  V30 3218 C 300.712 -0.609135 -4.23643 0
M  V30 3219 C 300.038 0.252252 -5.34105 0
M  V30 3220 C 301.338 -1.8829 -4.8718 0
M  V30 3221 H 303.032 -1.33402 -2.68038 0
M  V30 3222 H 300.578 -0.642904 -1.28852 0
M  V30 3223 H 302.531 0.593016 -4.17207 0
M  V30 3224 H 301.255 1.145 -3.05871 0
M  V30 3225 H 299.914 -0.931138 -3.54578 0
M  V30 3226 H 299.562 1.14278 -4.89846 0
M  V30 3227 H 299.262 -0.32188 -5.86718 0
M  V30 3228 H 300.786 0.586454 -6.07777 0
M  V30 3229 H 302.2 -1.61081 -5.50205 0
M  V30 3230 H 300.597 -2.40199 -5.49931 0
M  V30 3231 H 301.667 -2.59134 -4.09851 0
M  V30 3232 N 303.011 1.40521 -0.713556 0
M  V30 3233 C 303.941 2.33381 -0.0743864 0
M  V30 3234 C 304.922 1.52784 0.747735 0
M  V30 3235 O 306.107 1.81258 0.697071 0
M  V30 3236 C 303.237 3.36748 0.849598 0
M  V30 3237 C 302.191 4.27793 0.133247 0
M  V30 3238 C 301.517 5.21679 1.17281 0
M  V30 3239 C 302.817 5.12415 -1.01134 0
M  V30 3240 H 304.511 2.87081 -0.850007 0
M  V30 3241 H 302.057 1.38034 -0.410201 0
M  V30 3242 H 304.01 4.00648 1.30612 0
M  V30 3243 H 302.734 2.81439 1.65709 0
M  V30 3244 H 301.393 3.65342 -0.303426 0
M  V30 3245 H 301.041 4.62677 1.9733 0
M  V30 3246 H 300.741 5.83435 0.698397 0
M  V30 3247 H 302.265 5.88456 1.62947 0
M  V30 3248 H 303.679 5.69781 -0.634274 0
M  V30 3249 H 302.076 5.83203 -1.41399 0
M  V30 3250 H 303.146 4.48514 -1.84292 0
M  V30 3251 N 304.489 0.459591 1.5075 0
M  V30 3252 C 305.714 -0.0996819 2.0716 0
M  V30 3253 C 306.139 -1.33761 1.32249 0
M  V30 3254 O 305.497 -1.77551 0.366786 0
M  V30 3255 C 305.545 -0.378226 3.58611 0
M  V30 3256 O 304.649 -1.46081 3.85661 0
M  V30 3257 H 303.99 0.00791392 0.663953 0
M  V30 3258 H 306.52 0.647329 1.9409 0
M  V30 3259 H 306.53 -0.622135 4.03229 0
M  V30 3260 H 305.205 0.526439 4.12555 0
M  V30 3261 H 303.782 -1.20511 3.5289 0
M  V30 3262 N 305.967 -1.56429 0.191757 0
M  V30 3263 C 306.897 -2.21937 -0.725696 0
M  V30 3264 C 307.878 -1.1814 -1.2238 0
M  V30 3265 O 309.063 -1.46636 -1.27325 0
M  V30 3266 C 306.193 -2.87611 -1.94672 0
M  V30 3267 C 305.147 -3.97623 -1.58366 0
M  V30 3268 C 304.473 -4.50446 -2.88102 0
M  V30 3269 C 305.773 -5.16197 -0.796133 0
M  V30 3270 H 307.467 -2.98861 -0.179606 0
M  V30 3271 H 305.013 -1.43749 -0.0849464 0
M  V30 3272 H 306.966 -3.3212 -2.59373 0
M  V30 3273 H 305.69 -2.08087 -2.51728 0
M  V30 3274 H 304.349 -3.53801 -0.960247 0
M  V30 3275 H 303.997 -3.67688 -3.43241 0
M  V30 3276 H 303.697 -5.24675 -2.64556 0
M  V30 3277 H 305.221 -4.97654 -3.53798 0
M  V30 3278 H 306.635 -5.57271 -1.34618 0
M  V30 3279 H 305.032 -5.96471 -0.658928 0
M  V30 3280 H 306.102 -4.84473 0.203478 0
M  V30 3281 N 307.445 0.0818655 -1.57387 0
M  V30 3282 C 308.67 0.799946 -1.91352 0
M  V30 3283 C 309.095 1.70833 -0.787258 0
M  V30 3284 O 308.453 1.79419 0.26048 0
M  V30 3285 C 308.501 1.57812 -3.24234 0
M  V30 3286 O 307.605 2.68806 -3.12757 0
M  V30 3287 H 306.946 0.21891 -0.626877 0
M  V30 3288 H 309.476 0.0531256 -2.04531 0
M  V30 3289 H 309.486 1.95952 -3.57864 0
M  V30 3290 H 308.161 0.911548 -4.05788 0
M  V30 3291 H 306.738 2.33597 -2.90666 0
M  V30 3292 N 308.923 1.53595 0.353017 0
M  V30 3293 C 310.17 1.70385 1.09431 0
M  V30 3294 C 310.498 0.462113 1.88931 0
M  V30 3295 O 309.753 -0.556074 1.87633 0
M  V30 3296 C 310.052 2.91313 2.07054 0
M  V30 3297 C 309.718 4.27308 1.43939 0
M  V30 3298 C 308.38 4.64287 1.26454 0
M  V30 3299 C 310.732 5.11829 0.983883 0
M  V30 3300 C 308.06 5.83412 0.620226 0
M  V30 3301 C 310.412 6.31611 0.353516 0
M  V30 3302 C 309.076 6.67293 0.166272 0
M  V30 3303 H 308.346 0.623484 0.400436 0
M  V30 3304 H 310.993 1.87799 0.374655 0
M  V30 3305 H 309.298 2.68463 2.85368 0
M  V30 3306 H 310.995 3.01497 2.64387 0
M  V30 3307 H 307.585 3.98198 1.58543 0
M  V30 3308 H 311.769 4.838 1.10685 0
M  V30 3309 H 307.025 6.09639 0.463681 0
M  V30 3310 H 311.199 6.964 -0.00757555 0
M  V30 3311 H 308.826 7.59461 -0.335047 0
M  V30 3312 N 310.401 -0.613514 1.45168 0
M  V30 3313 C 311.349 -1.74572 1.53712 0
M  V30 3314 C 312.343 -1.64426 0.407505 0
M  V30 3315 O 313.549 -1.70291 0.583176 0
M  V30 3316 H 309.924 -0.576641 0.48269 0
M  V30 3317 H 311.895 -1.64492 2.48968 0
M  V30 3318 C 310.644 -3.12943 1.51532 0
M  V30 3319 H 309.967 -3.21407 2.37776 0
M  V30 3320 H 311.407 -3.9201 1.61569 0
M  V30 3321 C 309.866 -3.36053 0.238798 0
M  V30 3322 O 310.396 -3.95837 -0.6838 0
M  V30 3323 N 308.602 -2.9028 0.136359 0
M  V30 3324 H 308.149 -2.41811 0.887999 0
M  V30 3325 H 308.107 -3.06116 -0.716944 0
M  V30 3326 N 311.879 -1.3236 -0.855495 0
M  V30 3327 C 313.104 -1.2601 -1.64731 0
M  V30 3328 C 313.529 0.169068 -1.87339 0
M  V30 3329 O 312.887 1.12016 -1.42556 0
M  V30 3330 C 312.935 -2.02417 -2.98429 0
M  V30 3331 O 312.039 -1.3714 -3.8893 0
M  V30 3332 H 311.38 -0.434325 -0.502253 0
M  V30 3333 H 313.91 -1.74661 -1.06558 0
M  V30 3334 H 313.92 -2.12559 -3.48257 0
M  V30 3335 H 312.595 -3.06343 -2.81295 0
M  V30 3336 H 311.172 -1.3554 -3.47395 0
M  V30 3337 N 313.357 1.07166 -1.15556 0
M  V30 3338 C 314.287 2.16403 -0.877046 0
M  V30 3339 C 315.268 1.69217 0.173111 0
M  V30 3340 O 316.453 1.94181 0.027084 0
M  V30 3341 C 313.583 3.45349 -0.367632 0
M  V30 3342 C 312.537 4.05995 -1.35468 0
M  V30 3343 C 311.863 5.30045 -0.704038 0
M  V30 3344 C 313.163 4.45804 -2.72132 0
M  V30 3345 H 314.857 2.39959 -1.79053 0
M  V30 3346 H 312.403 1.15325 -0.862331 0
M  V30 3347 H 314.356 4.21095 -0.160317 0
M  V30 3348 H 313.08 3.21385 0.581326 0
M  V30 3349 H 311.739 3.32296 -1.54839 0
M  V30 3350 H 311.387 5.02373 0.251128 0
M  V30 3351 H 311.087 5.71579 -1.36277 0
M  V30 3352 H 312.611 6.08495 -0.50654 0
M  V30 3353 H 314.025 5.12671 -2.56595 0
M  V30 3354 H 312.422 4.98296 -3.34397 0
M  V30 3355 H 313.492 3.57083 -3.28054 0
M  V30 3356 N 314.835 0.952656 1.25548 0
M  V30 3357 C 316.06 0.623025 1.97821 0
M  V30 3358 C 316.485 -0.7976 1.70352 0
M  V30 3359 O 315.843 -1.53905 0.958283 0
M  V30 3360 C 315.891 0.885532 3.49558 0
M  V30 3361 O 314.995 -0.0366641 4.12384 0
M  V30 3362 H 314.336 0.237082 0.620232 0
M  V30 3363 H 316.866 1.27871 1.59719 0
M  V30 3364 H 316.876 0.811009 3.99858 0
M  V30 3365 H 315.551 1.92094 3.6888 0
M  V30 3366 H 314.128 0.0898954 3.72792 0
M  V30 3367 N 316.313 -1.40141 0.720998 0
M  V30 3368 C 317.263 -2.27949 0.0482544 0
M  V30 3369 C 318.247 -1.43538 -0.727021 0
M  V30 3370 O 319.439 -1.6658 -0.598332 0
M  V30 3371 C 316.568 -3.32126 -0.868729 0
M  V30 3372 C 315.654 -4.24008 -0.0883515 0
M  V30 3373 N 316.045 -4.97154 0.931226 0
M  V30 3374 C 314.343 -4.4485 -0.320105 0
M  V30 3375 C 315.044 -5.64587 1.4006 0
M  V30 3376 N 314.02 -5.38787 0.721752 0
M  V30 3377 H 317.822 -2.81948 0.829609 0
M  V30 3378 H 315.336 -1.52656 0.554067 0
M  V30 3379 H 317.333 -3.93884 -1.36605 0
M  V30 3380 H 315.993 -2.79687 -1.6494 0
M  V30 3381 H 317.004 -5.01 1.31222 0
M  V30 3382 H 313.681 -4.03378 -1.07668 0
M  V30 3383 H 315.071 -6.33175 2.24808 0
M  V30 3384 N 317.792 -0.46758 -1.50504 0
M  V30 3385 C 319.038 0.0887532 -2.02606 0
M  V30 3386 C 319.371 1.39686 -1.34913 0
M  V30 3387 O 318.646 1.88644 -0.473694 0
M  V30 3388 C 318.929 0.276206 -3.59039 0
M  V30 3389 C 318.782 -1.05267 -4.37309 0
M  V30 3390 C 320.101 1.03235 -4.27821 0
M  V30 3391 H 317.22 0.0307814 -0.736357 0
M  V30 3392 H 319.862 -0.612485 -1.79857 0
M  V30 3393 H 318.012 0.8735 -3.78553 0
M  V30 3394 H 319.684 -1.68628 -4.29374 0
M  V30 3395 H 317.927 -1.65015 -4.01189 0
M  V30 3396 H 318.598 -0.875197 -5.45018 0
M  V30 3397 H 321.074 0.526111 -4.12761 0
M  V30 3398 H 319.95 1.1323 -5.37094 0
M  V30 3399 H 320.211 2.06806 -3.90748 0
M  V30 3400 N 319.27 1.56325 -0.20005 0
M  V30 3401 C 320.681 1.8408 0.31167 0
M  V30 3402 C 321.032 1.12087 1.61031 0
M  V30 3403 O 320.157 0.38332 2.12978 0
M  V30 3404 C 320.752 3.33932 0.57226 0
M  V30 3405 C 319.311 3.6208 1.02834 0
M  V30 3406 C 318.458 2.77186 0.079634 0
M  V30 3407 H 321.409 1.52939 -0.423729 0
M  V30 3408 H 321.43 3.52971 1.42096 0
M  V30 3409 H 320.942 3.86303 -0.37308 0
M  V30 3410 H 319.043 3.15147 1.98778 0
M  V30 3411 H 319.156 4.7023 0.917624 0
M  V30 3412 H 317.52 2.47951 0.582448 0
M  V30 3413 H 318.303 3.32347 -0.860238 0
M  V30 3414 N 320.748 -0.0735177 1.57428 0
M  V30 3415 C 322.159 -0.625551 1.75908 0
M  V30 3416 C 322.51 -1.78 0.825261 0
M  V30 3417 O 321.635 -2.16398 0.00893964 0
M  V30 3418 C 322.23 -1.14155 3.18989 0
M  V30 3419 C 320.789 -1.63946 3.38819 0
M  V30 3420 C 319.936 -0.558151 2.71625 0
M  V30 3421 H 322.887 0.152647 1.57964 0
M  V30 3422 H 322.908 -2.0104 3.23053 0
M  V30 3423 H 322.42 -0.301116 3.8693 0
M  V30 3424 H 320.521 -2.50321 2.7599 0
M  V30 3425 H 320.634 -1.71759 4.47253 0
M  V30 3426 H 318.998 -1.00278 2.34129 0
M  V30 3427 H 319.781 0.272071 3.4222 0
M  V30 3428 N 322.226 -1.5378 -0.344866 0
M  V30 3429 C 323.173 -1.81676 -1.42346 0
M  V30 3430 C 324.143 -0.662376 -1.52321 0
M  V30 3431 O 325.328 -0.906675 -1.67881 0
M  V30 3432 C 322.468 -2.03087 -2.79015 0
M  V30 3433 C 321.581 -3.30799 -2.77842 0
M  V30 3434 C 320.716 -3.42285 -4.0622 0
M  V30 3435 C 319.755 -4.6395 -3.9927 0
M  V30 3436 N 318.892 -4.72477 -5.19336 0
M  V30 3437 H 323.732 -2.73703 -1.17858 0
M  V30 3438 H 321.269 -1.35568 -0.570949 0
M  V30 3439 H 323.227 -2.1349 -3.58438 0
M  V30 3440 H 321.857 -1.14375 -3.01858 0
M  V30 3441 H 320.909 -3.29244 -1.90533 0
M  V30 3442 H 322.221 -4.20314 -2.68584 0
M  V30 3443 H 321.375 -3.52113 -4.94066 0
M  V30 3444 H 320.114 -2.50823 -4.18258 0
M  V30 3445 H 319.119 -4.54201 -3.09809 0
M  V30 3446 H 320.344 -5.56775 -3.88817 0
M  V30 3447 H 318.29 -3.83924 -5.3192 0
M  V30 3448 H 318.207 -5.55927 -5.12329 0
M  V30 3449 H 319.475 -4.86613 -6.08957 0
M  V30 3450 N 323.704 0.605807 -1.45491 0
M  V30 3451 C 324.634 1.72709 -1.57143 0
M  V30 3452 C 325.615 1.6476 -0.422884 0
M  V30 3453 O 326.8 1.83132 -0.646247 0
M  V30 3454 C 323.93 3.11316 -1.53948 0
M  V30 3455 C 322.884 3.34077 -2.67537 0
M  V30 3456 C 322.21 4.72975 -2.49397 0
M  V30 3457 C 323.51 3.24158 -4.09535 0
M  V30 3458 H 325.204 1.63214 -2.51001 0
M  V30 3459 H 322.75 0.78379 -1.208 0
M  V30 3460 H 324.703 3.89557 -1.60696 0
M  V30 3461 H 323.427 3.21655 -0.566205 0
M  V30 3462 H 322.086 2.58227 -2.6022 0
M  V30 3463 H 321.734 4.8005 -1.50205 0
M  V30 3464 H 321.434 4.8916 -3.25571 0
M  V30 3465 H 322.958 5.53414 -2.58002 0
M  V30 3466 H 324.372 3.92271 -4.18086 0
M  V30 3467 H 322.769 3.51872 -4.86113 0
M  V30 3468 H 323.839 2.2157 -4.31317 0
M  V30 3469 N 325.182 1.32811 0.848464 0
M  V30 3470 C 326.593 1.21315 1.41914 0
M  V30 3471 C 326.944 -0.171847 1.95446 0
M  V30 3472 O 326.069 -1.07093 1.88043 0
M  V30 3473 C 326.664 2.19631 2.57968 0
M  V30 3474 C 325.223 2.12003 3.11017 0
M  V30 3475 C 324.37 2.07651 1.83783 0
M  V30 3476 H 327.321 1.44549 0.655071 0
M  V30 3477 H 327.342 1.79845 3.35315 0
M  V30 3478 H 326.854 3.20423 2.18976 0
M  V30 3479 H 324.955 1.14481 3.54577 0
M  V30 3480 H 325.068 3.02111 3.71841 0
M  V30 3481 H 323.432 1.52983 2.03638 0
M  V30 3482 H 324.215 3.10235 1.47 0
M  V30 3483 N 326.66 -1.06551 1.16123 0
M  V30 3484 C 327.885 -1.83544 0.965735 0
M  V30 3485 C 328.31 -1.81843 -0.481102 0
M  V30 3486 O 327.668 -1.21732 -1.34354 0
M  V30 3487 C 327.716 -3.28169 1.49457 0
M  V30 3488 O 326.82 -4.0643 0.699157 0
M  V30 3489 H 326.161 -0.568026 0.343864 0
M  V30 3490 H 328.691 -1.34362 1.54299 0
M  V30 3491 H 328.701 -3.78992 1.51092 0
M  V30 3492 H 327.376 -3.28722 2.54784 0
M  V30 3493 H 325.953 -3.65216 0.7531 0
M  V30 3494 N 328.138 -0.959301 -1.25041 0
M  V30 3495 C 329.363 -0.633507 -1.97488 0
M  V30 3496 C 329.788 0.788555 -1.70773 0
M  V30 3497 O 329.146 1.53394 -0.966431 0
M  V30 3498 C 329.194 -0.904057 -3.49083 0
M  V30 3499 O 328.298 0.0147939 -4.12397 0
M  V30 3500 H 327.639 -0.240368 -0.618966 0
M  V30 3501 H 330.169 -1.28717 -1.59038 0
M  V30 3502 H 330.179 -0.832203 -3.99423 0
M  V30 3503 H 328.854 -1.94048 -3.67856 0
M  V30 3504 H 327.431 -0.109664 -3.72739 0
M  V30 3505 N 329.616 1.39756 -0.72842 0
M  V30 3506 C 330.546 2.33289 -0.0991354 0
M  V30 3507 C 331.527 1.53568 0.731489 0
M  V30 3508 O 332.712 1.81987 0.677807 0
M  V30 3509 C 329.842 3.3763 0.813834 0
M  V30 3510 C 328.796 4.2791 0.0878663 0
M  V30 3511 C 328.122 5.22894 1.11741 0
M  V30 3512 C 329.422 5.11314 -1.06563 0
M  V30 3513 H 331.116 2.86163 -0.880408 0
M  V30 3514 H 328.662 1.37591 -0.424819 0
M  V30 3515 H 330.615 4.0201 1.26355 0
M  V30 3516 H 329.339 2.83181 1.62715 0
M  V30 3517 H 327.998 3.65 -0.342159 0
M  V30 3518 H 327.646 4.64744 1.92412 0
M  V30 3519 H 327.346 5.84143 0.636477 0
M  V30 3520 H 328.87 5.90151 1.56697 0
M  V30 3521 H 330.284 5.69076 -0.694671 0
M  V30 3522 H 328.681 5.81671 -1.47577 0
M  V30 3523 H 329.751 4.46534 -1.89038 0
M  V30 3524 N 331.094 0.475555 1.50254 0
M  V30 3525 C 332.51 0.12997 1.5907 0
M  V30 3526 C 332.71 -1.36385 1.48328 0
M  V30 3527 O 331.766 -2.13754 1.34407 0
M  V30 3528 C 333.079 0.684139 2.92814 0
M  V30 3529 C 334.627 0.647965 3.0622 0
M  V30 3530 C 335.102 1.17975 4.42545 0
M  V30 3531 N 336.593 1.13936 4.48969 0
M  V30 3532 C 337.328 1.52129 5.52851 0
M  V30 3533 N 336.824 1.97793 6.63965 0
M  V30 3534 N 338.617 1.43704 5.4342 0
M  V30 3535 H 330.768 1.44706 1.55479 0
M  V30 3536 H 333.031 0.598691 0.735033 0
M  V30 3537 H 332.737 1.73079 3.06164 0
M  V30 3538 H 332.611 0.130204 3.76975 0
M  V30 3539 H 334.998 -0.38979 2.92514 0
M  V30 3540 H 335.079 1.23876 2.23805 0
M  V30 3541 H 334.723 2.21616 4.57 0
M  V30 3542 H 334.653 0.565138 5.23559 0
M  V30 3543 H 337.144 0.804488 3.69238 0
M  V30 3544 H 337.457 2.25072 7.39299 0
M  V30 3545 H 335.802 2.01749 6.65073 0
M  V30 3546 H 338.993 1.07867 4.55502 0
M  V30 3547 H 339.166 1.73794 6.24259 0
M  V30 3548 N 332.573 -1.56217 0.208337 0
M  V30 3549 C 333.52 -2.19699 -0.707192 0
M  V30 3550 C 334.49 -1.14836 -1.20008 0
M  V30 3551 O 335.675 -1.4314 -1.26157 0
M  V30 3552 C 332.815 -2.87061 -1.91546 0
M  V30 3553 C 331.928 -4.06483 -1.46271 0
M  V30 3554 C 331.063 -4.61665 -2.62752 0
M  V30 3555 C 330.102 -5.73417 -2.14147 0
M  V30 3556 N 329.239 -6.22948 -3.23853 0
M  V30 3557 H 334.079 -2.97575 -0.159111 0
M  V30 3558 H 331.616 -1.46948 -0.0667874 0
M  V30 3559 H 333.574 -3.24294 -2.62468 0
M  V30 3560 H 332.204 -2.11725 -2.43664 0
M  V30 3561 H 331.256 -3.74825 -0.648886 0
M  V30 3562 H 332.568 -4.87271 -1.06622 0
M  V30 3563 H 331.722 -5.01272 -3.41776 0
M  V30 3564 H 330.461 -3.80013 -3.05682 0
M  V30 3565 H 329.466 -5.33326 -1.33581 0
M  V30 3566 H 330.691 -6.56897 -1.72232 0
M  V30 3567 H 328.637 -5.44213 -3.6629 0
M  V30 3568 H 328.554 -6.98823 -2.88414 0
M  V30 3569 H 329.822 -6.6721 -4.03052 0
M  V30 3570 N 334.051 0.0651679 -1.57465 0
M  V30 3571 C 334.981 1.07693 -2.07182 0
M  V30 3572 C 335.962 1.39962 -0.966673 0
M  V30 3573 O 337.147 1.49475 -1.2398 0
M  V30 3574 C 334.277 2.3885 -2.52127 0
M  V30 3575 C 333.231 2.20917 -3.66579 0
M  V30 3576 C 332.557 3.57515 -3.97601 0
M  V30 3577 C 333.857 1.62493 -4.9638 0
M  V30 3578 H 335.551 0.663199 -2.91962 0
M  V30 3579 H 333.097 0.317569 -1.40455 0
M  V30 3580 H 335.05 3.09928 -2.85522 0
M  V30 3581 H 333.774 2.82215 -1.64384 0
M  V30 3582 H 332.433 1.52279 -3.33477 0
M  V30 3583 H 332.081 3.98463 -3.06979 0
M  V30 3584 H 331.781 3.46353 -4.74672 0
M  V30 3585 H 333.305 4.30013 -4.33499 0
M  V30 3586 H 334.719 2.23445 -5.27963 0
M  V30 3587 H 333.116 1.62009 -5.77818 0
M  V30 3588 H 334.186 0.587041 -4.81333 0
M  V30 3589 N 335.529 1.53961 0.336706 0
M  V30 3590 C 336.776 1.71536 1.07618 0
M  V30 3591 C 337.104 0.482125 1.8843 0
M  V30 3592 O 336.359 -0.536142 1.88213 0
M  V30 3593 C 336.658 2.93493 2.03953 0
M  V30 3594 C 336.324 4.28811 1.39399 0
M  V30 3595 C 334.986 4.65602 1.21523 0
M  V30 3596 C 337.338 5.12844 0.929541 0
M  V30 3597 C 334.666 5.84037 0.558312 0
M  V30 3598 C 337.018 6.31951 0.286505 0
M  V30 3599 C 335.682 6.67432 0.0954869 0
M  V30 3600 H 334.952 0.627696 0.393801 0
M  V30 3601 H 337.599 1.88186 0.354715 0
M  V30 3602 H 335.904 2.71475 2.82504 0
M  V30 3603 H 337.601 3.04285 2.61174 0
M  V30 3604 H 334.191 3.99858 1.54311 0
M  V30 3605 H 338.375 4.84947 1.05548 0
M  V30 3606 H 333.631 6.10097 0.398995 0
M  V30 3607 H 337.805 6.96352 -0.0814376 0
M  V30 3608 H 335.432 7.59063 -0.415579 0
M  V30 3609 N 337.007 -0.598083 1.45811 0
M  V30 3610 C 337.937 -1.71873 1.58057 0
M  V30 3611 C 338.918 -1.64533 0.431615 0
M  V30 3612 O 340.103 -1.82787 0.65595 0
M  V30 3613 C 337.233 -3.10495 1.55597 0
M  V30 3614 C 336.187 -3.32654 2.69305 0
M  V30 3615 C 335.513 -4.71646 2.51902 0
M  V30 3616 C 336.813 -3.21981 4.11248 0
M  V30 3617 H 338.507 -1.61881 2.51863 0
M  V30 3618 H 336.053 -0.777372 1.21214 0
M  V30 3619 H 338.006 -3.88699 1.6276 0
M  V30 3620 H 336.73 -3.2135 0.583255 0
M  V30 3621 H 335.389 -2.56843 2.61586 0
M  V30 3622 H 335.037 -4.79246 1.52748 0
M  V30 3623 H 334.737 -4.87426 3.2816 0
M  V30 3624 H 336.261 -5.52038 2.60933 0
M  V30 3625 H 337.675 -3.90049 4.20161 0
M  V30 3626 H 336.072 -3.49289 4.87972 0
M  V30 3627 H 337.142 -2.1928 4.32486 0
M  V30 3628 N 338.485 -1.33259 -0.841409 0
M  V30 3629 C 339.71 -1.2775 -1.63385 0
M  V30 3630 C 340.135 0.149188 -1.87507 0
M  V30 3631 O 339.493 1.10498 -1.43736 0
M  V30 3632 C 339.541 -2.05571 -2.96265 0
M  V30 3633 O 338.645 -1.41257 -3.87453 0
M  V30 3634 H 337.986 -0.439627 -0.497618 0
M  V30 3635 H 340.516 -1.75782 -1.04699 0
M  V30 3636 H 340.526 -2.16241 -3.45982 0
M  V30 3637 H 339.201 -3.09309 -2.7803 0
M  V30 3638 H 337.778 -1.39217 -3.45938 0
M  V30 3639 N 339.963 1.05934 -1.16686 0
M  V30 3640 C 340.911 2.15603 -0.872817 0
M  V30 3641 C 341.905 1.68647 0.159576 0
M  V30 3642 O 343.111 1.79995 0.0132125 0
M  V30 3643 H 339.486 0.703885 -0.264671 0
M  V30 3644 H 341.457 2.37613 -1.80507 0
M  V30 3645 C 340.206 3.45457 -0.394344 0
M  V30 3646 H 339.529 3.81984 -1.18019 0
M  V30 3647 H 340.969 4.2339 -0.227408 0
M  V30 3648 C 339.428 3.25021 0.88673 0
M  V30 3649 O 339.958 3.50906 1.95519 0
M  V30 3650 N 338.164 2.78437 0.831925 0
M  V30 3651 H 337.711 2.57572 -0.0377619 0
M  V30 3652 H 337.669 2.65144 1.68956 0
M  V30 3653 N 341.441 0.965919 1.2453 0
M  V30 3654 C 342.669 0.644385 1.96609 0
M  V30 3655 C 343.084 -0.785823 1.71669 0
M  V30 3656 O 342.441 -1.52703 0.999399 0
M  V30 3657 C 342.492 0.907375 3.49927 0
M  V30 3658 O 342.213 2.28136 3.74013 0
M  V30 3659 C 343.714 0.599784 4.39224 0
M  V30 3660 H 340.934 0.240588 0.626385 0
M  V30 3661 H 343.478 1.29337 1.58405 0
M  V30 3662 H 341.633 0.304631 3.862 0
M  V30 3663 H 342.047 2.36002 4.68405 0
M  V30 3664 H 343.521 0.834263 5.45659 0
M  V30 3665 H 343.998 -0.465921 4.36722 0
M  V30 3666 H 344.604 1.18235 4.08535 0
M  V30 3667 N 342.919 -1.39368 0.735821 0
M  V30 3668 C 343.851 -2.2913 0.0567723 0
M  V30 3669 C 344.864 -1.46859 -0.702589 0
M  V30 3670 O 346.053 -1.69925 -0.546616 0
M  V30 3671 C 343.153 -3.25492 -0.943823 0
M  V30 3672 C 342.326 -4.36709 -0.24581 0
M  V30 3673 C 341.385 -5.13376 -1.15463 0
M  V30 3674 O 340.411 -5.65683 -0.631803 0
M  V30 3675 N 341.613 -5.24656 -2.48427 0
M  V30 3676 H 344.378 -2.88047 0.827582 0
M  V30 3677 H 341.939 -1.50957 0.585112 0
M  V30 3678 H 343.931 -3.73657 -1.55443 0
M  V30 3679 H 342.501 -2.676 -1.61583 0
M  V30 3680 H 341.721 -3.9041 0.545286 0
M  V30 3681 H 343.009 -5.08244 0.237891 0
M  V30 3682 H 342.407 -4.83679 -2.93379 0
M  V30 3683 H 340.964 -5.76258 -3.04582 0
M  V30 3684 N 344.397 -0.483516 -1.5 0
M  V30 3685 C 345.646 0.0689102 -2.01582 0
M  V30 3686 C 345.959 1.39655 -1.36952 0
M  V30 3687 O 347.165 2.03465 -1.79762 0
M  V30 3688 C 345.621 0.173302 -3.59483 0
M  V30 3689 C 345.229 -1.14665 -4.33077 0
M  V30 3690 C 346.973 0.677024 -4.19066 0
M  V30 3691 C 344.88 -1.00537 -5.82792 0
M  V30 3692 H 343.81 0.0295277 -0.753422 0
M  V30 3693 H 346.461 -0.620295 -1.72698 0
M  V30 3694 H 344.843 0.926569 -3.85007 0
M  V30 3695 H 346.017 -1.91184 -4.19268 0
M  V30 3696 H 344.332 -1.58244 -3.85159 0
M  V30 3697 H 346.929 0.799952 -5.28682 0
M  V30 3698 H 347.272 1.67151 -3.81269 0
M  V30 3699 H 347.805 -0.0192083 -3.97795 0
M  V30 3700 H 344.544 -1.9736 -6.25083 0
M  V30 3701 H 344.064 -0.280776 -5.99142 0
M  V30 3702 H 345.743 -0.677 -6.43448 0
M  V30 3703 N 345.875 1.56104 -0.216619 0
M  V30 3704 C 346.822 2.2007 0.695531 0
M  V30 3705 C 347.792 1.15471 1.19397 0
M  V30 3706 O 348.977 1.43807 1.25396 0
M  V30 3707 C 346.117 2.88073 1.90021 0
M  V30 3708 C 345.23 4.07253 1.44113 0
M  V30 3709 C 344.365 4.63052 2.603 0
M  V30 3710 C 343.404 5.74545 2.11103 0
M  V30 3711 N 342.541 6.24656 3.20545 0
M  V30 3712 H 347.381 2.97655 0.143327 0
M  V30 3713 H 344.918 1.46982 0.0589934 0
M  V30 3714 H 346.876 3.25681 2.60745 0
M  V30 3715 H 345.506 2.13015 2.42538 0
M  V30 3716 H 344.558 3.75164 0.628999 0
M  V30 3717 H 345.87 4.8783 1.04036 0
M  V30 3718 H 345.024 5.03078 3.39113 0
M  V30 3719 H 343.763 3.81628 3.03663 0
M  V30 3720 H 342.768 5.34027 1.3075 0
M  V30 3721 H 343.993 6.57801 1.68746 0
M  V30 3722 H 341.939 5.46148 3.63399 0
M  V30 3723 H 341.856 7.00343 2.84704 0
M  V30 3724 H 343.124 6.69338 3.99508 0
M  V30 3725 N 347.353 -0.0568162 1.57498 0
M  V30 3726 C 348.583 -0.764515 1.91934 0
M  V30 3727 C 348.991 -1.70877 0.81227 0
M  V30 3728 O 348.334 -1.82351 -0.222213 0
M  V30 3729 C 348.396 -1.5994 3.21962 0
M  V30 3730 C 348.06 -0.822925 4.4953 0
M  V30 3731 C 349.057 -0.135464 5.19723 0
M  V30 3732 C 346.742 -0.785666 4.96117 0
M  V30 3733 C 348.736 0.578861 6.34766 0
M  V30 3734 C 346.423 -0.0675784 6.11063 0
M  V30 3735 C 347.421 0.613471 6.80239 0
M  V30 3736 O 347.109 1.31996 7.92989 0
M  V30 3737 H 346.841 -0.221647 0.63863 0
M  V30 3738 H 349.395 -0.0268218 2.05382 0
M  V30 3739 H 347.625 -2.38026 3.04763 0
M  V30 3740 H 349.314 -2.18715 3.41934 0
M  V30 3741 H 350.08 -0.155458 4.84751 0
M  V30 3742 H 345.959 -1.30524 4.42136 0
M  V30 3743 H 349.503 1.111 6.88696 0
M  V30 3744 H 345.4 -0.0455636 6.45484 0
M  V30 3745 H 346.168 1.23077 8.09194 0
M  V30 3746 N 348.832 -1.54138 -0.328536 0
M  V30 3747 C 350.081 -1.71318 -1.06456 0
M  V30 3748 C 350.394 -0.491109 -1.89334 0
M  V30 3749 O 351.6 -0.54416 -2.65991 0
M  V30 3750 C 350.056 -3.03 -1.94214 0
M  V30 3751 C 349.664 -4.32595 -1.16471 0
M  V30 3752 C 351.408 -3.29544 -2.67583 0
M  V30 3753 C 349.315 -5.55341 -2.03347 0
M  V30 3754 H 348.245 -0.638429 -0.401155 0
M  V30 3755 H 350.896 -1.80633 -0.323106 0
M  V30 3756 H 349.278 -2.87579 -2.72239 0
M  V30 3757 H 350.452 -4.58766 -0.432525 0
M  V30 3758 H 348.767 -4.12777 -0.548063 0
M  V30 3759 H 351.364 -4.18444 -3.3288 0
M  V30 3760 H 351.707 -2.47206 -3.34955 0
M  V30 3761 H 352.24 -3.45809 -1.96623 0
M  V30 3762 H 348.979 -6.40268 -1.40491 0
M  V30 3763 H 348.499 -5.33397 -2.74313 0
M  V30 3764 H 350.178 -5.91557 -2.62049 0
M  V30 3765 N 350.31 0.590341 -1.46126 0
M  V30 3766 C 351.535 1.37991 -1.54833 0
M  V30 3767 C 351.96 1.87163 -0.187506 0
M  V30 3768 O 351.318 1.61133 0.831008 0
M  V30 3769 C 351.366 2.54867 -2.55098 0
M  V30 3770 O 350.47 3.56061 -2.08073 0
M  V30 3771 H 349.811 0.411265 -0.521303 0
M  V30 3772 H 352.341 0.716819 -1.91632 0
M  V30 3773 H 352.351 3.01886 -2.74461 0
M  V30 3774 H 351.026 2.18429 -3.53923 0
M  V30 3775 H 349.603 3.15574 -1.98664 0
M  V30 3776 N 351.788 1.33704 0.83433 0
M  V30 3777 C 352.698 1.26382 1.97648 0
M  V30 3778 C 353.714 0.173548 1.73132 0
M  V30 3779 O 354.89 0.397962 1.97429 0
M  V30 3780 C 351.955 1.00769 3.31733 0
M  V30 3781 C 351.016 2.1884 3.69334 0
M  V30 3782 C 350.249 1.9444 4.9702 0
M  V30 3783 O 350.472 0.896961 5.63303 0
M  V30 3784 O 349.406 2.81093 5.32231 0
M  V30 3785 H 353.232 2.22444 2.06767 0
M  V30 3786 H 350.817 1.13795 0.968037 0
M  V30 3787 H 352.699 0.882186 4.12062 0
M  V30 3788 H 351.374 0.0773783 3.23608 0
M  V30 3789 H 350.281 2.36946 2.89495 0
M  V30 3790 H 351.614 3.10221 3.82131 0
M  V30 3791 N 353.266 -1.05314 1.17247 0
M  V30 3792 C 354.176 -2.16538 0.90268 0
M  V30 3793 C 355.192 -1.73523 -0.128707 0
M  V30 3794 O 356.368 -2.01337 0.0502701 0
M  V30 3795 C 353.433 -3.44167 0.418356 0
M  V30 3796 C 352.494 -4.01635 1.51618 0
M  V30 3797 C 351.727 -5.23171 1.05487 0
M  V30 3798 O 351.95 -5.70327 -0.0914715 0
M  V30 3799 O 350.884 -5.72848 1.8474 0
M  V30 3800 H 354.71 -2.42145 1.83302 0
M  V30 3801 H 352.295 -1.15037 0.953246 0
M  V30 3802 H 354.177 -4.21112 0.155726 0
M  V30 3803 H 352.852 -3.20063 -0.48385 0
M  V30 3804 H 351.759 -3.26135 1.83268 0
M  V30 3805 H 353.092 -4.30053 2.39405 0
M  V30 3806 N 354.744 -0.972509 -1.24016 0
M  V30 3807 C 356.021 -0.553733 -1.87598 0
M  V30 3808 C 356.401 0.969158 -1.87538 0
M  V30 3809 O 355.749 1.84255 -1.35139 0
M  V30 3810 C 355.959 -1.15076 -3.29482 0
M  V30 3811 C 357.307 -1.23862 -4.06132 0
M  V30 3812 O 358.331 -1.10363 -3.38672 0
M  V30 3813 O 357.19 -1.45252 -5.26844 0
M  V30 3814 H 354.284 -0.185331 -0.805966 0
M  V30 3815 H 356.83 -1.06709 -1.31952 0
M  V30 3816 H 355.602 -2.19333 -3.2405 0
M  V30 3817 H 355.225 -0.621746 -3.92709 0
M  V30 3818 N 356.222 1.38976 -0.743202 0
M  V30 3819 C 357.469 2.00343 -0.294752 0
M  V30 3820 C 357.797 1.58983 1.12047 0
M  V30 3821 O 357.052 0.813809 1.77977 0
M  V30 3822 C 357.351 3.55647 -0.353517 0
M  V30 3823 C 357.017 4.16685 -1.72292 0
M  V30 3824 C 355.679 4.3307 -2.09771 0
M  V30 3825 C 358.031 4.50464 -2.62168 0
M  V30 3826 C 355.359 4.80526 -3.36618 0
M  V30 3827 C 357.711 4.99332 -3.88395 0
M  V30 3828 C 356.375 5.13924 -4.25956 0
M  V30 3829 H 355.645 0.733108 -0.107857 0
M  V30 3830 H 358.292 1.6618 -0.951651 0
M  V30 3831 H 356.597 3.89884 0.386954 0
M  V30 3832 H 358.294 4.00998 0.0117269 0
M  V30 3833 H 354.884 4.04339 -1.42155 0
M  V30 3834 H 359.068 4.37416 -2.3448 0
M  V30 3835 H 354.324 4.90008 -3.65653 0
M  V30 3836 H 358.498 5.2444 -4.58187 0
M  V30 3837 H 356.125 5.50457 -5.2431 0
M  V30 3838 N 357.7 0.491464 1.49741 0
M  V30 3839 C 358.647 -0.292027 2.28945 0
M  V30 3840 C 359.617 -0.968973 1.34908 0
M  V30 3841 O 360.802 -0.97748 1.6386 0
M  V30 3842 C 357.942 -1.35617 3.17336 0
M  V30 3843 C 357.055 -0.691957 4.26422 0
M  V30 3844 C 356.19 -1.73572 5.02042 0
M  V30 3845 C 355.229 -1.05286 6.02977 0
M  V30 3846 N 354.366 -2.0404 6.71798 0
M  V30 3847 H 359.206 0.389654 2.95442 0
M  V30 3848 H 356.743 0.204003 1.45679 0
M  V30 3849 H 358.701 -1.98502 3.66951 0
M  V30 3850 H 357.331 -2.00674 2.52844 0
M  V30 3851 H 356.383 0.0499523 3.80367 0
M  V30 3852 H 357.695 -0.153946 4.98562 0
M  V30 3853 H 356.849 -2.43987 5.55478 0
M  V30 3854 H 355.588 -2.30757 4.29654 0
M  V30 3855 H 354.593 -0.334446 5.48782 0
M  V30 3856 H 355.818 -0.487636 6.77347 0
M  V30 3857 H 353.764 -2.60205 6.02187 0
M  V30 3858 H 353.681 -1.55279 7.39881 0
M  V30 3859 H 354.949 -2.73772 7.29842 0
M  V30 3860 N 359.178 -1.55987 0.224894 0
M  V30 3861 C 360.426 -1.97998 -0.405099 0
M  V30 3862 C 360.747 -1.11387 -1.60056 0
M  V30 3863 O 360.017 -0.191645 -1.9496 0
M  V30 3864 H 358.597 -0.731235 -0.152658 0
M  V30 3865 H 361.259 -1.92279 0.318567 0
M  V30 3866 H 360.355 -3.03463 -0.729167 0
M  V30 3867 N 360.656 0.0484629 -1.57525 0
M  V30 3868 C 361.586 1.0549 -2.08313 0
M  V30 3869 C 362.567 1.38929 -0.981463 0
M  V30 3870 O 363.752 1.48151 -1.25558 0
M  V30 3871 C 360.882 2.36162 -2.54646 0
M  V30 3872 C 359.836 2.17016 -3.68901 0
M  V30 3873 C 359.162 3.53278 -4.01371 0
M  V30 3874 C 360.462 1.57219 -4.98076 0
M  V30 3875 H 362.156 0.632195 -2.92649 0
M  V30 3876 H 359.702 0.302654 -1.40784 0
M  V30 3877 H 361.655 3.06882 -2.88793 0
M  V30 3878 H 360.379 2.80456 -1.67368 0
M  V30 3879 H 359.038 1.48733 -3.35073 0
M  V30 3880 H 358.686 3.95185 -3.11188 0
M  V30 3881 H 358.386 3.41299 -4.78318 0
M  V30 3882 H 359.91 4.25391 -4.38035 0
M  V30 3883 H 361.324 2.17832 -5.30304 0
M  V30 3884 H 359.721 1.55871 -5.79503 0
M  V30 3885 H 360.791 0.535956 -4.81929 0
M  V30 3886 N 362.134 1.5431 0.320358 0
M  V30 3887 C 363.383 1.7188 1.05546 0
M  V30 3888 C 363.696 0.501143 1.89071 0
M  V30 3889 O 364.902 0.558258 2.65699 0
M  V30 3890 C 363.358 3.04025 1.92605 0
M  V30 3891 C 362.966 4.33207 1.14176 0
M  V30 3892 C 364.71 3.30959 2.65832 0
M  V30 3893 C 362.617 5.56412 2.00399 0
M  V30 3894 H 361.547 0.640547 0.397763 0
M  V30 3895 H 364.198 1.80802 0.313522 0
M  V30 3896 H 362.58 2.89019 2.7071 0
M  V30 3897 H 363.754 4.58989 0.40819 0
M  V30 3898 H 362.069 4.13062 0.526165 0
M  V30 3899 H 364.666 4.20203 3.30656 0
M  V30 3900 H 365.009 2.48979 3.33639 0
M  V30 3901 H 365.542 3.46847 1.94787 0
M  V30 3902 H 362.281 6.41004 1.37094 0
M  V30 3903 H 361.801 5.34844 2.7148 0
M  V30 3904 H 363.48 5.92938 2.58908 0
M  V30 3905 N 363.613 -0.582584 1.46437 0
M  V30 3906 C 364.561 -1.71272 1.5738 0
M  V30 3907 C 365.555 -1.63524 0.44229 0
M  V30 3908 O 366.761 -1.69016 0.619166 0
M  V30 3909 H 363.136 -0.566273 0.494813 0
M  V30 3910 H 365.107 -1.59174 2.52401 0
M  V30 3911 C 363.856 -3.09658 1.58136 0
M  V30 3912 H 363.179 -3.16291 2.44541 0
M  V30 3913 H 364.619 -3.88494 1.69847 0
M  V30 3914 C 363.078 -3.3547 0.310026 0
M  V30 3915 O 363.608 -3.97199 -0.599683 0
M  V30 3916 N 361.814 -2.89925 0.197901 0
M  V30 3917 H 361.361 -2.39873 0.93909 0
M  V30 3918 H 361.319 -3.07568 -0.65185 0
M  V30 3919 N 365.091 -1.34144 -0.827227 0
M  V30 3920 C 366.021 -1.28005 -1.95287 0
M  V30 3921 C 367.002 -0.158321 -1.69362 0
M  V30 3922 O 368.187 -0.349987 -1.9102 0
M  V30 3923 C 365.317 -1.03036 -3.31664 0
M  V30 3924 C 364.271 -2.11628 -3.72019 0
M  V30 3925 C 363.597 -1.71854 -5.0633 0
M  V30 3926 C 364.897 -3.53417 -3.8457 0
M  V30 3927 H 366.591 -2.22187 -2.00682 0
M  V30 3928 H 364.137 -1.0696 -0.964135 0
M  V30 3929 H 366.09 -0.973863 -4.09993 0
M  V30 3930 H 364.814 -0.0529391 -3.26557 0
M  V30 3931 H 363.473 -2.16339 -2.95961 0
M  V30 3932 H 363.121 -0.727841 -4.97706 0
M  V30 3933 H 362.821 -2.44531 -5.34302 0
M  V30 3934 H 364.345 -1.67692 -5.87122 0
M  V30 3935 H 365.759 -3.51142 -4.5318 0
M  V30 3936 H 364.156 -4.24679 -4.2399 0
M  V30 3937 H 365.226 -3.91072 -2.86689 0
M  V30 3938 N 366.569 1.04691 -1.17803 0
M  V30 3939 C 367.797 1.81446 -0.99423 0
M  V30 3940 C 368.212 1.83174 0.457459 0
M  V30 3941 O 367.569 1.26265 1.31771 0
M  V30 3942 C 367.62 3.27334 -1.5341 0
M  V30 3943 O 367.341 3.25798 -2.92895 0
M  V30 3944 C 368.842 4.20759 -1.39559 0
M  V30 3945 H 366.062 0.571599 -0.351447 0
M  V30 3946 H 368.606 1.31982 -1.56208 0
M  V30 3947 H 366.761 3.74052 -1.00815 0
M  V30 3948 H 367.175 4.17144 -3.17949 0
M  V30 3949 H 368.649 5.21084 -1.82141 0
M  V30 3950 H 369.126 4.37856 -0.343394 0
M  V30 3951 H 369.732 3.79901 -1.91195 0
M  V30 3952 N 368.047 0.979072 1.23499 0
M  V30 3953 C 368.977 0.537606 2.27227 0
M  V30 3954 C 369.958 -0.428539 1.64613 0
M  V30 3955 O 371.143 -0.322191 1.91509 0
M  V30 3956 C 368.273 -0.162052 3.46922 0
M  V30 3957 C 367.227 0.721242 4.21879 0
M  V30 3958 C 366.553 -0.110555 5.34586 0
M  V30 3959 C 367.853 2.01141 4.82016 0
M  V30 3960 H 369.547 1.40462 2.64406 0
M  V30 3961 H 367.093 0.67684 1.27102 0
M  V30 3962 H 369.046 -0.482192 4.18632 0
M  V30 3963 H 367.77 -1.06351 3.08799 0
M  V30 3964 H 366.429 1.02482 3.51984 0
M  V30 3965 H 366.077 -1.0125 4.92704 0
M  V30 3966 H 365.777 0.477325 5.85658 0
M  V30 3967 H 367.301 -0.425107 6.09118 0
M  V30 3968 H 368.715 1.75612 5.45741 0
M  V30 3969 H 367.112 2.54695 5.43369 0
M  V30 3970 H 368.182 2.69909 4.02836 0
M  V30 3971 N 369.525 -1.3858 0.750561 0
M  V30 3972 C 370.455 -2.33102 0.136237 0
M  V30 3973 C 371.436 -1.54713 -0.706965 0
M  V30 3974 O 372.621 -1.83043 -0.648769 0
M  V30 3975 C 369.751 -3.38882 -0.760017 0
M  V30 3976 C 368.705 -4.27995 -0.0197785 0
M  V30 3977 C 368.031 -5.24605 -1.03408 0
M  V30 3978 C 369.331 -5.09554 1.14684 0
M  V30 3979 H 371.025 -2.84726 0.925822 0
M  V30 3980 H 368.571 -1.36898 0.446654 0
M  V30 3981 H 370.524 -4.0397 -1.19943 0
M  V30 3982 H 369.248 -2.85734 -1.58189 0
M  V30 3983 H 367.907 -3.64409 0.400184 0
M  V30 3984 H 367.555 -4.67746 -1.84994 0
M  V30 3985 H 367.255 -5.85081 -0.543464 0
M  V30 3986 H 368.779 -5.9257 -1.47288 0
M  V30 3987 H 370.193 -5.67899 0.785118 0
M  V30 3988 H 368.59 -5.7925 1.56812 0
M  V30 3989 H 369.66 -4.4347 1.96118 0
M  V30 3990 N 371.003 -0.499398 -1.49478 0
M  V30 3991 C 372.28 0.108629 -1.95298 0
M  V30 3992 C 372.66 1.54282 -1.44084 0
M  V30 3993 O 372.008 2.18944 -0.653908 0
M  V30 3994 C 372.218 0.0229111 -3.48992 0
M  V30 3995 C 373.566 0.197643 -4.2414 0
M  V30 3996 O 374.59 0.0981735 -3.56065 0
M  V30 3997 O 373.449 0.401669 -5.45022 0
M  V30 3998 H 370.543 0.096181 -0.821388 0
M  V30 3999 H 373.089 -0.561822 -1.6013 0
M  V30 4000 H 371.861 -0.977321 -3.78899 0
M  V30 4001 H 371.484 0.733579 -3.90774 0
M  V30 4002 N 372.481 1.55866 -0.233164 0
M  V30 4003 C 373.411 2.23783 0.666599 0
M  V30 4004 C 374.392 1.21343 1.19205 0
M  V30 4005 O 375.577 1.4996 1.23392 0
M  V30 4006 C 372.707 2.92671 1.86978 0
M  V30 4007 C 371.661 4.01682 1.47768 0
M  V30 4008 C 370.987 4.57926 2.76058 0
M  V30 4009 C 372.287 5.18126 0.658993 0
M  V30 4010 H 373.981 2.99232 0.100306 0
M  V30 4011 H 371.527 1.43924 0.046804 0
M  V30 4012 H 373.48 3.3888 2.50476 0
M  V30 4013 H 372.204 2.14688 2.46123 0
M  V30 4014 H 370.863 3.56222 0.866106 0
M  V30 4015 H 370.511 3.76659 3.33372 0
M  V30 4016 H 370.211 5.31505 2.50552 0
M  V30 4017 H 371.735 5.06859 3.40479 0
M  V30 4018 H 373.149 5.60644 1.19795 0
M  V30 4019 H 371.546 5.98009 0.500552 0
M  V30 4020 H 372.616 4.83763 -0.331856 0
M  V30 4021 N 373.959 -0.0401083 1.57549 0
M  V30 4022 C 375.184 -0.748931 1.93406 0
M  V30 4023 C 375.609 -1.68686 0.832274 0
M  V30 4024 O 374.967 -1.80047 -0.212818 0
M  V30 4025 C 375.015 -1.4916 3.28304 0
M  V30 4026 O 374.119 -2.6042 3.19774 0
M  V30 4027 H 373.46 -0.202212 0.63246 0
M  V30 4028 H 375.99 0.00112086 2.046 0
M  V30 4029 H 376 -1.86395 3.62934 0
M  V30 4030 H 374.675 -0.80364 4.08062 0
M  V30 4031 H 373.252 -2.25808 2.96758 0
M  V30 4032 N 375.437 -1.54477 -0.31217 0
M  V30 4033 C 376.685 -1.72884 -1.04668 0
M  V30 4034 C 377.006 -0.511477 -1.88173 0
M  V30 4035 O 376.276 0.474407 -1.90069 0
M  V30 4036 H 374.856 -0.637461 -0.389425 0
M  V30 4037 H 377.518 -1.91807 -0.345852 0
M  V30 4038 H 376.614 -2.61334 -1.70619 0
M  V30 4039 N 376.915 0.57481 -1.46744 0
M  V30 4040 C 377.863 1.70435 -1.58286 0
M  V30 4041 C 378.857 1.63287 -0.450956 0
M  V30 4042 O 380.063 1.68685 -0.628121 0
M  V30 4043 H 376.438 0.56364 -0.497809 0
M  V30 4044 H 378.409 1.57833 -2.53242 0
M  V30 4045 C 377.158 3.08815 -1.59776 0
M  V30 4046 H 376.481 3.1499 -2.46214 0
M  V30 4047 H 377.921 3.87588 -1.71905 0
M  V30 4048 C 376.38 3.35301 -0.327812 0
M  V30 4049 O 376.91 3.97511 0.57861 0
M  V30 4050 N 375.116 2.89816 -0.213274 0
M  V30 4051 H 374.663 2.39371 -0.951798 0
M  V30 4052 H 374.621 3.0791 0.63553 0
M  V30 4053 N 378.394 1.34581 0.820102 0
M  V30 4054 C 379.634 1.28448 1.58998 0
M  V30 4055 C 379.998 -0.142883 1.91468 0
M  V30 4056 O 381.199 -0.328422 2.66786 0
M  V30 4057 C 379.47 2.153 2.85273 0
M  V30 4058 S 381.029 2.26548 3.75794 0
M  V30 4059 H 377.847 0.456685 0.54494 0
M  V30 4060 H 380.449 1.69825 0.968487 0
M  V30 4061 H 379.153 3.18008 2.59421 0
M  V30 4062 H 378.684 1.7483 3.52417 0
M  V30 4063 H 380.699 1.44034 4.74835 0
M  V30 4064 N 379.872 -1.04064 1.18357 0
M  V30 4065 C 381.283 -1.58719 0.98312 0
M  V30 4066 C 381.634 -1.90556 -0.467193 0
M  V30 4067 O 380.759 -1.69561 -1.34454 0
M  V30 4068 C 381.354 -2.88379 1.77828 0
M  V30 4069 C 379.913 -3.3965 1.62218 0
M  V30 4070 C 379.06 -2.13235 1.77274 0
M  V30 4071 H 382.011 -0.867359 1.32901 0
M  V30 4072 H 382.032 -3.58773 1.26737 0
M  V30 4073 H 381.544 -2.65176 2.83379 0
M  V30 4074 H 379.645 -3.67866 0.592036 0
M  V30 4075 H 379.758 -4.13475 2.42023 0
M  V30 4076 H 378.122 -2.24542 1.20221 0
M  V30 4077 H 378.905 -1.92487 2.8426 0
M  V30 4078 N 381.35 -0.985608 -1.22978 0
M  V30 4079 C 382.766 -0.695104 -1.43668 0
M  V30 4080 C 382.966 0.736866 -1.87543 0
M  V30 4081 O 382.022 1.50868 -2.02473 0
M  V30 4082 C 383.335 -1.69447 -2.48412 0
M  V30 4083 C 384.883 -1.70909 -2.62219 0
M  V30 4084 C 385.358 -2.6969 -3.70178 0
M  V30 4085 N 386.849 -2.6824 -3.77626 0
M  V30 4086 C 387.584 -3.41339 -4.60733 0
M  V30 4087 N 387.08 -4.24015 -5.4789 0
M  V30 4088 N 388.873 -3.30079 -4.54977 0
M  V30 4089 H 381.024 -1.91054 -0.928016 0
M  V30 4090 H 383.287 -0.823553 -0.469536 0
M  V30 4091 H 382.993 -2.7188 -2.23102 0
M  V30 4092 H 382.867 -1.48147 -3.46889 0
M  V30 4093 H 385.254 -0.691785 -2.86877 0
M  V30 4094 H 385.335 -1.96276 -1.6404 0
M  V30 4095 H 384.979 -3.71566 -3.46268 0
M  V30 4096 H 384.909 -2.41595 -4.67909 0
M  V30 4097 H 387.4 -2.08243 -3.15346 0
M  V30 4098 H 387.713 -4.76636 -6.08308 0
M  V30 4099 H 386.058 -4.28104 -5.47496 0
M  V30 4100 H 389.249 -2.64937 -3.85909 0
M  V30 4101 H 389.422 -3.87308 -5.19516 0
M  V30 4102 N 382.828 1.3818 -0.7579 0
M  V30 4103 C 384.068 2.01864 -0.320968 0
M  V30 4104 C 384.432 1.58863 1.07827 0
M  V30 4105 O 385.633 2.14908 1.61456 0
M  V30 4106 C 383.904 3.54626 -0.44446 0
M  V30 4107 S 385.463 4.38706 -0.0907467 0
M  V30 4108 H 382.281 0.700056 -0.124268 0
M  V30 4109 H 384.883 1.68611 -0.989468 0
M  V30 4110 H 383.587 3.83411 -1.4637 0
M  V30 4111 H 383.118 3.92661 0.241073 0
M  V30 4112 H 385.133 4.83435 1.11826 0
M  V30 4113 N 384.306 0.507319 1.49211 0
M  V30 4114 C 385.553 -0.0349529 2.0247 0
M  V30 4115 C 385.881 -1.36409 1.38647 0
M  V30 4116 O 385.136 -1.88841 0.513566 0
M  V30 4117 C 385.435 -0.229513 3.56662 0
M  V30 4118 C 385.101 1.02241 4.39156 0
M  V30 4119 C 383.763 1.36557 4.61417 0
M  V30 4120 C 386.115 1.85428 4.871 0
M  V30 4121 C 383.443 2.53999 5.28868 0
M  V30 4122 C 385.795 3.02028 5.55843 0
M  V30 4123 C 384.459 3.36717 5.76349 0
M  V30 4124 H 383.729 -0.0127902 0.74089 0
M  V30 4125 H 386.376 0.668756 1.79443 0
M  V30 4126 H 384.681 -1.0158 3.78403 0
M  V30 4127 H 386.378 -0.663641 3.9547 0
M  V30 4128 H 382.968 0.745124 4.22073 0
M  V30 4129 H 387.152 1.6023 4.69723 0
M  V30 4130 H 382.408 2.81105 5.42946 0
M  V30 4131 H 386.582 3.66808 5.91967 0
M  V30 4132 H 384.209 4.27821 6.28389 0
M  V30 4133 N 385.784 -1.5574 0.241426 0
M  V30 4134 C 386.732 -2.22538 -0.676718 0
M  V30 4135 C 387.726 -1.21117 -1.18436 0
M  V30 4136 O 388.932 -1.39144 -1.14188 0
M  V30 4137 H 385.307 -0.713776 -0.236701 0
M  V30 4138 H 387.278 -2.98264 -0.0901187 0
M  V30 4139 C 386.027 -2.93439 -1.86518 0
M  V30 4140 H 385.35 -3.7125 -1.4837 0
M  V30 4141 H 386.79 -3.43549 -2.48495 0
M  V30 4142 C 385.249 -1.97008 -2.73294 0
M  V30 4143 O 385.779 -1.49965 -3.72657 0
M  V30 4144 N 383.985 -1.64227 -2.39745 0
M  V30 4145 H 383.532 -2.02677 -1.58996 0
M  V30 4146 H 383.49 -0.999708 -2.98083 0
M  V30 4147 N 387.262 0.0317525 -1.57568 0
M  V30 4148 C 388.225 1.01783 -2.0536 0
M  V30 4149 C 389.225 1.29203 -0.957253 0
M  V30 4150 O 390.415 1.24251 -1.22095 0
M  V30 4151 C 387.547 2.35137 -2.46827 0
M  V30 4152 H 388.74 0.605062 -2.93733 0
M  V30 4153 H 386.293 0.278514 -1.53799 0
M  V30 4154 H 387.028 2.81168 -1.61602 0
M  V30 4155 H 386.813 2.16566 -3.26866 0
M  V30 4156 H 388.303 3.05938 -2.84239 0
M  V30 4157 N 388.74 1.54641 0.303973 0
M  V30 4158 C 390.151 1.64811 0.877163 0
M  V30 4159 C 390.502 0.554838 1.88191 0
M  V30 4160 O 389.627 -0.309033 2.14182 0
M  V30 4161 C 390.222 2.9876 1.59775 0
M  V30 4162 C 388.781 3.11061 2.11938 0
M  V30 4163 C 387.928 2.60479 0.951097 0
M  V30 4164 H 390.879 1.58493 0.0810486 0
M  V30 4165 H 390.9 2.90017 2.46314 0
M  V30 4166 H 390.412 3.7831 0.866226 0
M  V30 4167 H 388.513 2.36225 2.88146 0
M  V30 4168 H 388.626 4.17171 2.35595 0
M  V30 4169 H 386.99 2.16859 1.33583 0
M  V30 4170 H 387.773 3.42504 0.233581 0
M  V30 4171 N 390.218 -0.567019 1.47046 0
M  V30 4172 C 391.465 -1.32462 1.53167 0
M  V30 4173 C 391.793 -1.93571 0.189841 0
M  V30 4174 O 391.048 -1.77865 -0.816243 0
M  V30 4175 C 391.347 -2.4623 2.59047 0
M  V30 4176 C 391.013 -2.03014 4.02612 0
M  V30 4177 C 389.675 -1.90944 4.41694 0
M  V30 4178 C 392.027 -1.69895 4.92732 0
M  V30 4179 C 389.355 -1.44035 5.68745 0
M  V30 4180 C 391.707 -1.2446 6.20236 0
M  V30 4181 C 390.371 -1.10979 6.5821 0
M  V30 4182 H 389.641 -0.484713 0.560477 0
M  V30 4183 H 392.288 -0.636888 1.80599 0
M  V30 4184 H 390.593 -3.20517 2.25335 0
M  V30 4185 H 392.29 -3.04427 2.61008 0
M  V30 4186 H 388.88 -2.13348 3.71726 0
M  V30 4187 H 393.064 -1.78098 4.63244 0
M  V30 4188 H 388.32 -1.32254 5.96925 0
M  V30 4189 H 392.494 -0.978924 6.89485 0
M  V30 4190 H 390.121 -0.744078 7.5655 0
M  V30 4191 N 391.696 -1.35014 -0.812953 0
M  V30 4192 C 393.107 -1.25035 -1.38648 0
M  V30 4193 C 393.458 0.119967 -1.95833 0
M  V30 4194 O 392.583 1.02069 -1.90816 0
M  V30 4195 C 393.178 -2.26394 -2.52054 0
M  V30 4196 C 391.737 -2.20175 -3.05287 0
M  V30 4197 C 390.884 -2.12451 -1.78213 0
M  V30 4198 H 393.835 -1.46235 -0.616516 0
M  V30 4199 H 393.856 -1.88672 -3.30429 0
M  V30 4200 H 393.368 -3.26116 -2.10404 0
M  V30 4201 H 391.469 -1.23841 -3.51417 0
M  V30 4202 H 391.582 -3.11863 -3.63701 0
M  V30 4203 H 389.946 -1.58328 -1.9951 0
M  V30 4204 H 390.729 -3.14024 -1.38723 0
M  V30 4205 N 393.175 1.03435 -1.18907 0
M  V30 4206 C 394.415 1.78302 -0.999391 0
M  V30 4207 C 394.779 1.86353 0.462219 0
M  V30 4208 O 395.98 2.57489 0.771543 0
M  V30 4209 C 394.251 3.17362 -1.64365 0
M  V30 4210 S 395.81 4.08488 -1.6026 0
M  V30 4211 H 392.628 0.613861 -0.358742 0
M  V30 4212 H 395.23 1.23979 -1.51161 0
M  V30 4213 H 393.934 3.09116 -2.69955 0
M  V30 4214 H 393.465 3.76762 -1.13199 0
M  V30 4215 H 395.48 4.92274 -0.622932 0
M  V30 4216 N 394.653 0.992116 1.22453 0
M  V30 4217 C 395.899 0.668523 1.91464 0
M  V30 4218 C 396.232 -0.797313 1.77078 0
M  V30 4219 O 395.507 -1.5765 1.13916 0
M  V30 4220 C 395.79 1.07424 3.43703 0
M  V30 4221 C 395.643 2.59857 3.67143 0
M  V30 4222 C 396.962 0.626891 4.35612 0
M  V30 4223 H 394.081 0.244341 0.695318 0
M  V30 4224 H 396.723 1.2355 1.44345 0
M  V30 4225 H 394.873 0.591816 3.83966 0
M  V30 4226 H 396.545 3.15764 3.3629 0
M  V30 4227 H 394.788 3.01961 3.11451 0
M  V30 4228 H 395.459 2.83296 4.73759 0
M  V30 4229 H 397.935 1.04125 4.02861 0
M  V30 4230 H 396.811 0.939076 5.40807 0
M  V30 4231 H 397.072 -0.472457 4.39568 0
M  V30 4232 N 396.131 -1.37776 0.765217 0
M  V30 4233 C 397.542 -1.82521 0.392819 0
M  V30 4234 C 397.893 -1.63789 -1.08017 0
M  V30 4235 O 397.018 -1.14542 -1.83601 0
M  V30 4236 C 397.613 -3.31358 0.706214 0
M  V30 4237 C 396.172 -3.74406 0.386952 0
M  V30 4238 C 395.319 -2.60394 0.953422 0
M  V30 4239 H 398.27 -1.2634 0.960412 0
M  V30 4240 H 398.291 -3.80498 -0.0114706 0
M  V30 4241 H 397.803 -3.44959 1.77833 0
M  V30 4242 H 395.904 -3.66377 -0.678112 0
M  V30 4243 H 396.017 -4.70749 0.890636 0
M  V30 4244 H 394.381 -2.51878 0.378064 0
M  V30 4245 H 395.164 -2.76791 2.03081 0
M  V30 4246 N 397.609 -0.515225 -1.4894 0
M  V30 4247 C 398.849 0.0223983 -2.04388 0
M  V30 4248 C 399.213 1.32961 -1.38511 0
M  V30 4249 O 400.414 1.95236 -1.8476 0
M  V30 4250 C 398.685 0.157056 -3.57055 0
M  V30 4251 S 400.244 0.646875 -4.34006 0
M  V30 4252 H 397.062 -0.00500662 -0.710982 0
M  V30 4253 H 399.664 -0.69243 -1.82827 0
M  V30 4254 H 398.368 -0.799412 -4.02539 0
M  V30 4255 H 397.899 0.896704 -3.83044 0
M  V30 4256 H 399.914 1.91381 -4.57808 0
M  V30 4257 N 399.087 1.5561 -0.249682 0
M  V30 4258 C 400.364 1.90932 0.424761 0
M  V30 4259 C 400.744 1.17078 1.75658 0
M  V30 4260 O 400.092 0.289176 2.26663 0
M  V30 4261 C 400.302 3.43975 0.590109 0
M  V30 4262 C 401.65 4.15281 0.884714 0
M  V30 4263 O 402.674 3.49729 0.67587 0
M  V30 4264 O 401.533 5.31236 1.28259 0
M  V30 4265 H 398.627 0.794815 0.228468 0
M  V30 4266 H 401.173 1.67135 -0.293954 0
M  V30 4267 H 399.945 3.89748 -0.34818 0
M  V30 4268 H 399.568 3.73644 1.35926 0
M  V30 4269 N 400.565 -0.0233959 1.57583 0
M  V30 4270 C 401.813 -0.711654 1.89156 0
M  V30 4271 C 402.134 -1.75591 0.848096 0
M  V30 4272 O 401.404 -1.95547 -0.117566 0
M  V30 4273 H 399.984 -0.265835 0.698098 0
M  V30 4274 H 402.646 0.0119948 1.94896 0
M  V30 4275 H 401.742 -1.19766 2.88206 0
M  V30 4276 N 402.043 -1.548 -0.295768 0
M  V30 4277 C 403.291 -1.73985 -1.02828 0
M  V30 4278 C 403.612 -0.531406 -1.87619 0
M  V30 4279 O 402.882 0.454221 -1.90561 0
M  V30 4280 H 401.462 -0.641556 -0.382642 0
M  V30 4281 H 404.124 -1.92163 -0.325489 0
M  V30 4282 H 403.22 -2.63129 -1.67838 0
M  V30 4283 N 403.521 0.559213 -1.47345 0
M  V30 4284 C 404.484 1.64854 -1.59235 0
M  V30 4285 C 405.484 1.53851 -0.467607 0
M  V30 4286 O 406.674 1.58045 -0.732617 0
M  V30 4287 C 403.806 3.04388 -1.53496 0
M  V30 4288 H 404.999 1.55662 -2.56339 0
M  V30 4289 H 402.552 0.778973 -1.35505 0
M  V30 4290 H 403.287 3.19115 -0.577604 0
M  V30 4291 H 403.072 3.13783 -2.35123 0
M  V30 4292 H 404.562 3.83642 -1.6495 0
M  V30 4293 N 404.999 1.35443 0.805782 0
M  V30 4294 C 406.224 1.32037 1.59941 0
M  V30 4295 C 406.649 -0.0994215 1.87837 0
M  V30 4296 O 406.007 -1.06648 1.46615 0
M  V30 4297 C 406.055 2.13354 2.90711 0
M  V30 4298 O 405.159 1.5148 3.83572 0
M  V30 4299 H 404.5 0.452666 0.485787 0
M  V30 4300 H 407.03 1.78496 1.00002 0
M  V30 4301 H 407.04 2.25338 3.40128 0
M  V30 4302 H 405.715 3.16572 2.69732 0
M  V30 4303 H 404.292 1.4834 3.42125 0
M  V30 4304 N 406.477 -1.02803 1.19454 0
M  V30 4305 C 407.726 -1.7562 0.991996 0
M  V30 4306 C 408.039 -1.89672 -0.477901 0
M  V30 4307 O 409.245 -2.59468 -0.799287 0
M  V30 4308 C 407.701 -3.15812 1.72601 0
M  V30 4309 C 407.309 -3.0981 3.23607 0
M  V30 4310 C 409.053 -3.92918 1.60674 0
M  V30 4311 C 406.96 -4.44939 3.89594 0
M  V30 4312 H 405.89 -0.658352 0.367543 0
M  V30 4313 H 408.541 -1.15044 1.42959 0
M  V30 4314 H 406.923 -3.7686 1.21624 0
M  V30 4315 H 408.097 -2.58138 3.81709 0
M  V30 4316 H 406.412 -2.46201 3.35819 0
M  V30 4317 H 409.009 -4.9287 2.07323 0
M  V30 4318 H 409.352 -4.12502 0.561025 0
M  V30 4319 H 409.885 -3.38472 2.09001 0
M  V30 4320 H 406.624 -4.30559 4.94267 0
M  V30 4321 H 406.144 -4.96664 3.36281 0
M  V30 4322 H 407.823 -5.1382 3.93189 0
M  V30 4323 N 407.956 -0.998596 -1.21925 0
M  V30 4324 C 408.904 -0.546641 -2.26085 0
M  V30 4325 C 409.898 0.405576 -1.64473 0
M  V30 4326 O 411.104 0.277471 -1.77849 0
M  V30 4327 H 407.479 -0.158403 -0.735127 0
M  V30 4328 H 409.45 -1.43645 -2.61551 0
M  V30 4329 C 408.199 0.117388 -3.47502 0
M  V30 4330 H 407.522 -0.606277 -3.95176 0
M  V30 4331 H 408.962 0.396993 -4.22137 0
M  V30 4332 C 407.421 1.35455 -3.0847 0
M  V30 4333 O 407.951 2.44944 -3.18379 0
M  V30 4334 N 406.157 1.23191 -2.63196 0
M  V30 4335 H 405.704 0.341006 -2.55333 0
M  V30 4336 H 405.662 2.06071 -2.37449 0
M  V30 4337 N 409.434 1.37368 -0.772513 0
M  V30 4338 C 410.683 1.98918 -0.333861 0
M  V30 4339 C 410.996 1.62017 1.09589 0
M  V30 4340 O 412.202 2.16676 1.63596 0
M  V30 4341 C 410.658 3.55735 -0.545971 0
M  V30 4342 C 410.266 4.01573 -1.98603 0
M  V30 4343 C 412.01 4.24156 -0.170979 0
M  V30 4344 C 409.917 5.51102 -2.1457 0
M  V30 4345 H 408.847 0.744214 -0.121085 0
M  V30 4346 H 411.498 1.56888 -0.95175 0
M  V30 4347 H 409.88 3.95748 0.141387 0
M  V30 4348 H 411.054 3.72803 -2.7084 0
M  V30 4349 H 409.369 3.45937 -2.31769 0
M  V30 4350 H 411.966 5.34024 -0.26878 0
M  V30 4351 H 412.309 4.06917 0.878855 0
M  V30 4352 H 412.842 3.89447 -0.810914 0
M  V30 4353 H 409.581 5.73268 -3.17875 0
M  V30 4354 H 409.101 5.81554 -1.46817 0
M  V30 4355 H 410.78 6.17083 -1.94468 0
M  V30 4356 N 410.912 0.523116 1.48665 0
M  V30 4357 C 412.189 -0.0775449 1.95446 0
M  V30 4358 C 412.569 -1.5197 1.4652 0
M  V30 4359 O 411.917 -2.17876 0.688657 0
M  V30 4360 C 412.127 0.0326135 3.48985 0
M  V30 4361 C 413.475 -0.130141 4.24401 0
M  V30 4362 O 414.499 -0.0415142 3.56176 0
M  V30 4363 O 413.358 -0.31491 5.45592 0
M  V30 4364 H 410.452 -0.0831012 0.822814 0
M  V30 4365 H 412.998 0.587227 1.59216 0
M  V30 4366 H 411.77 1.03748 3.77296 0
M  V30 4367 H 411.393 -0.671317 3.91892 0
M  V30 4368 N 412.39 -1.55475 0.257931 0
M  V30 4369 C 413.806 -1.59307 -0.0966563 0
M  V30 4370 C 414.006 -1.27514 -1.5602 0
M  V30 4371 O 413.062 -1.02774 -2.30637 0
M  V30 4372 C 414.375 -2.99552 0.262481 0
M  V30 4373 C 415.923 -3.1231 0.207683 0
M  V30 4374 C 416.398 -4.54793 0.541012 0
M  V30 4375 N 417.889 -4.6058 0.491921 0
M  V30 4376 C 418.624 -5.68825 0.722857 0
M  V30 4377 N 418.12 -6.85287 1.0175 0
M  V30 4378 N 419.913 -5.58296 0.652815 0
M  V30 4379 H 412.064 -1.74409 1.21224 0
M  V30 4380 H 414.327 -0.812424 0.48854 0
M  V30 4381 H 414.033 -3.27593 1.27967 0
M  V30 4382 H 413.907 -3.75019 -0.40508 0
M  V30 4383 H 416.294 -2.84044 -0.800195 0
M  V30 4384 H 416.375 -2.39095 0.909255 0
M  V30 4385 H 416.019 -4.83783 1.5465 0
M  V30 4386 H 415.949 -5.26285 -0.18216 0
M  V30 4387 H 418.44 -3.7691 0.273366 0
M  V30 4388 H 418.753 -7.63725 1.18084 0
M  V30 4389 H 417.098 -6.86945 1.05509 0
M  V30 4390 H 420.289 -4.66189 0.422592 0
M  V30 4391 H 420.462 -6.42582 0.836182 0
M  V30 4392 N 413.868 0.0150385 -1.57593 0
M  V30 4393 C 415.115 0.703001 -1.89906 0
M  V30 4394 C 415.443 1.74604 -0.856944 0
M  V30 4395 O 414.698 1.95197 0.140287 0
M  V30 4396 C 414.997 1.39686 -3.28972 0
M  V30 4397 C 414.663 0.488457 -4.48246 0
M  V30 4398 C 413.325 0.2383 -4.8061 0
M  V30 4399 C 415.677 -0.137881 -5.21018 0
M  V30 4400 C 413.005 -0.646738 -5.83125 0
M  V30 4401 C 415.357 -1.0107 -6.24474 0
M  V30 4402 C 414.021 -1.27019 -6.55303 0
M  V30 4403 H 413.291 0.257246 -0.694914 0
M  V30 4404 H 415.938 -0.037259 -1.91464 0
M  V30 4405 H 414.243 2.21079 -3.23468 0
M  V30 4406 H 415.94 1.93495 -3.51227 0
M  V30 4407 H 412.53 0.693593 -4.22951 0
M  V30 4408 H 416.714 0.0423953 -4.96282 0
M  V30 4409 H 411.97 -0.855937 -6.05379 0
M  V30 4410 H 416.144 -1.50247 -6.79999 0
M  V30 4411 H 413.771 -1.95769 -7.3456 0
M  V30 4412 N 415.346 1.54954 0.287554 0
M  V30 4413 C 416.309 1.86076 1.33823 0
M  V30 4414 C 417.309 0.734414 1.43049 0
M  V30 4415 O 418.499 1.00266 1.42452 0
M  V30 4416 C 415.631 2.05305 2.72144 0
M  V30 4417 H 416.824 2.79984 1.07465 0
M  V30 4418 H 414.377 1.47223 0.524902 0
M  V30 4419 H 415.112 1.1373 3.03704 0
M  V30 4420 H 414.897 2.873 2.66836 0
M  V30 4421 H 416.387 2.30706 3.48087 0
M  V30 4422 N 416.824 -0.551391 1.4764 0
M  V30 4423 C 418.071 -1.3083 1.54563 0
M  V30 4424 C 418.399 -1.93359 0.210361 0
M  V30 4425 O 417.654 -1.78721 -0.797332 0
M  V30 4426 C 417.953 -2.43469 2.61644 0
M  V30 4427 C 417.619 -1.98732 4.04742 0
M  V30 4428 C 416.281 -1.86248 4.43695 0
M  V30 4429 C 418.633 -1.64659 4.94507 0
M  V30 4430 C 415.961 -1.37995 5.70241 0
M  V30 4431 C 418.313 -1.17875 6.21521 0
M  V30 4432 C 416.977 -1.03992 6.5935 0
M  V30 4433 H 416.247 -0.478741 0.565587 0
M  V30 4434 H 418.894 -0.617697 1.81264 0
M  V30 4435 H 417.199 -3.18109 2.28722 0
M  V30 4436 H 418.896 -3.01642 2.64222 0
M  V30 4437 H 415.486 -2.09393 3.73968 0
M  V30 4438 H 419.67 -1.73174 4.65107 0
M  V30 4439 H 414.926 -1.25915 5.98294 0
M  V30 4440 H 419.1 -0.905739 6.90485 0
M  V30 4441 H 416.727 -0.663794 7.57296 0
M  V30 4442 N 418.302 -1.35869 -0.798587 0
M  V30 4443 C 419.234 -1.25305 -1.91915 0
M  V30 4444 C 420.247 -0.174548 -1.61862 0
M  V30 4445 O 421.436 -0.428499 -1.73281 0
M  V30 4446 C 418.536 -0.9086 -3.26493 0
M  V30 4447 C 417.709 -2.08711 -3.84394 0
M  V30 4448 C 416.768 -1.71717 -4.97393 0
M  V30 4449 O 415.794 -2.43692 -5.14396 0
M  V30 4450 N 416.996 -0.645473 -5.769 0
M  V30 4451 H 419.761 -2.21849 -2.01502 0
M  V30 4452 H 417.322 -1.29143 -0.976408 0
M  V30 4453 H 419.314 -0.642455 -3.99568 0
M  V30 4454 H 417.884 -0.0325815 -3.12583 0
M  V30 4455 H 417.104 -2.51659 -3.03416 0
M  V30 4456 H 418.392 -2.87468 -4.19809 0
M  V30 4457 H 417.79 -0.047648 -5.6568 0
M  V30 4458 H 416.347 -0.43913 -6.50319 0
M  V30 4459 N 419.78 1.02168 -1.19998 0
M  V30 4460 C 420.728 2.12717 -0.940967 0
M  V30 4461 C 421.722 1.69069 0.105841 0
M  V30 4462 O 422.928 1.79946 -0.0440583 0
M  V30 4463 H 419.303 0.695108 -0.28693 0
M  V30 4464 H 421.274 2.3175 -1.87975 0
M  V30 4465 C 420.023 3.44027 -0.504049 0
M  V30 4466 H 419.346 3.78036 -1.30112 0
M  V30 4467 H 420.786 4.22452 -0.361991 0
M  V30 4468 C 419.245 3.27678 0.782878 0
M  V30 4469 O 419.775 3.56949 1.84256 0
M  V30 4470 N 417.981 2.80943 0.742921 0
M  V30 4471 H 417.528 2.57322 -0.119687 0
M  V30 4472 H 417.486 2.70385 1.60435 0
M  V30 4473 N 421.258 1.00505 1.21394 0
M  V30 4474 C 422.188 0.585684 2.26035 0
M  V30 4475 C 423.169 -0.393525 1.65485 0
M  V30 4476 O 424.354 -0.281497 1.92149 0
M  V30 4477 C 421.484 -0.0884283 3.47187 0
M  V30 4478 C 420.438 0.810567 4.20254 0
M  V30 4479 C 419.764 0.00286382 5.347 0
M  V30 4480 C 421.064 2.1132 4.77641 0
M  V30 4481 H 422.758 1.46039 2.61368 0
M  V30 4482 H 420.304 0.703648 1.25638 0
M  V30 4483 H 422.257 -0.393286 4.19561 0
M  V30 4484 H 420.981 -0.997766 3.10986 0
M  V30 4485 H 419.64 1.09925 3.49731 0
M  V30 4486 H 419.288 -0.907765 4.94741 0
M  V30 4487 H 418.988 0.601444 5.84514 0
M  V30 4488 H 420.512 -0.295808 6.09883 0
M  V30 4489 H 421.926 1.87148 5.41893 0
M  V30 4490 H 420.323 2.66164 5.37845 0
M  V30 4491 H 421.393 2.78393 3.9702 0
M  V30 4492 N 422.737 -1.36956 0.779787 0
M  V30 4493 C 423.965 -2.03755 0.359398 0
M  V30 4494 C 424.38 -1.58807 -1.02106 0
M  V30 4495 O 423.737 -0.773024 -1.6532 0
M  V30 4496 C 423.788 -3.59251 0.402568 0
M  V30 4497 O 423.509 -4.02557 1.72858 0
M  V30 4498 C 425.01 -4.43291 -0.0284068 0
M  V30 4499 H 422.23 -0.654148 0.149437 0
M  V30 4500 H 424.774 -1.75128 1.05595 0
M  V30 4501 H 422.929 -3.86621 -0.245478 0
M  V30 4502 H 423.343 -4.97111 1.67275 0
M  V30 4503 H 424.817 -5.51975 0.0529466 0
M  V30 4504 H 425.294 -4.25719 -1.07982 0
M  V30 4505 H 425.9 -4.21163 0.591758 0
M  V30 4506 N 424.215 -0.530993 -1.48385 0
M  V30 4507 C 425.147 0.268353 -2.27624 0
M  V30 4508 C 426.16 0.903525 -1.35426 0
M  V30 4509 O 427.349 0.781796 -1.60469 0
M  V30 4510 C 424.449 1.39535 -3.08842 0
M  V30 4511 C 423.622 0.861913 -4.28824 0
M  V30 4512 C 422.681 1.87016 -4.91845 0
M  V30 4513 O 421.707 1.4267 -5.5103 0
M  V30 4514 N 422.909 3.20238 -4.84178 0
M  V30 4515 H 425.674 -0.41123 -2.96865 0
M  V30 4516 H 423.235 -0.365387 -1.57723 0
M  V30 4517 H 425.227 2.06803 -3.47871 0
M  V30 4518 H 423.797 1.97859 -2.42014 0
M  V30 4519 H 423.017 0.0132126 -3.94198 0
M  V30 4520 H 424.305 0.484415 -5.06489 0
M  V30 4521 H 423.703 3.58932 -4.37246 0
M  V30 4522 H 422.26 3.83136 -5.27305 0
M  V30 4523 N 425.693 1.55336 -0.266172 0
M  V30 4524 C 426.623 2.25146 0.618981 0
M  V30 4525 C 427.604 1.23845 1.16604 0
M  V30 4526 O 428.789 1.52544 1.20183 0
M  V30 4527 C 425.919 2.96572 1.80728 0
M  V30 4528 C 424.873 4.04726 1.39215 0
M  V30 4529 C 424.199 4.63678 2.66283 0
M  V30 4530 C 425.499 5.19407 0.548942 0
M  V30 4531 H 427.193 2.99377 0.0368116 0
M  V30 4532 H 424.739 1.43991 0.0162651 0
M  V30 4533 H 426.692 3.44116 2.43232 0
M  V30 4534 H 425.416 2.19861 2.41514 0
M  V30 4535 H 424.075 3.57979 0.790351 0
M  V30 4536 H 423.723 3.83646 3.25308 0
M  V30 4537 H 423.423 5.367 2.39222 0
M  V30 4538 H 424.947 5.13967 3.29651 0
M  V30 4539 H 426.361 5.63059 1.07876 0
M  V30 4540 H 424.758 5.98936 0.373593 0
M  V30 4541 H 425.828 4.8295 -0.434394 0
M  V30 4542 N 427.171 -0.0066808 1.57599 0
M  V30 4543 C 428.587 -0.36267 1.55425 0
M  V30 4544 C 428.787 -1.75209 0.995187 0
M  V30 4545 O 427.843 -2.44616 0.626058 0
M  V30 4546 C 429.156 -0.244017 2.99708 0
M  V30 4547 C 430.704 -0.319451 3.11366 0
M  V30 4548 C 431.179 -0.229998 4.57422 0
M  V30 4549 N 432.67 -0.288105 4.62303 0
M  V30 4550 C 433.405 -0.242127 5.72889 0
M  V30 4551 N 432.901 -0.147133 6.92644 0
M  V30 4552 N 434.694 -0.293502 5.61333 0
M  V30 4553 H 426.845 0.902314 1.92281 0
M  V30 4554 H 429.108 0.34525 0.882896 0
M  V30 4555 H 428.814 0.711678 3.44424 0
M  V30 4556 H 428.688 -1.02877 3.629 0
M  V30 4557 H 431.075 -1.26559 2.66584 0
M  V30 4558 H 431.156 0.495055 2.50964 0
M  V30 4559 H 430.8 0.712566 5.02877 0
M  V30 4560 H 430.73 -1.0629 5.15761 0
M  V30 4561 H 433.221 -0.363126 3.76151 0
M  V30 4562 H 433.534 -0.117763 7.7271 0
M  V30 4563 H 431.879 -0.112857 6.94908 0
M  V30 4564 H 435.07 -0.365864 4.66668 0
M  V30 4565 H 435.243 -0.254204 6.47501 0
M  V30 4566 N 428.649 -1.55105 -0.279332 0
M  V30 4567 C 429.879 -1.7917 -1.02867 0
M  V30 4568 C 430.287 -0.56204 -1.80659 0
M  V30 4569 O 429.63 0.478266 -1.77365 0
M  V30 4570 C 429.692 -2.96061 -2.03932 0
M  V30 4571 C 429.356 -4.33341 -1.45137 0
M  V30 4572 C 430.353 -5.12565 -0.870266 0
M  V30 4573 C 428.038 -4.79987 -1.48048 0
M  V30 4574 C 430.032 -6.36565 -0.326097 0
M  V30 4575 C 427.719 -6.03944 -0.932443 0
M  V30 4576 C 428.717 -6.8207 -0.356247 0
M  V30 4577 O 428.405 -8.03691 0.183412 0
M  V30 4578 H 428.137 -0.600796 -0.309872 0
M  V30 4579 H 430.691 -2.02932 -0.317468 0
M  V30 4580 H 428.921 -2.67975 -2.78794 0
M  V30 4581 H 430.61 -3.07506 -2.64943 0
M  V30 4582 H 431.376 -4.77661 -0.840521 0
M  V30 4583 H 427.255 -4.1919 -1.91835 0
M  V30 4584 H 430.799 -6.97489 0.124286 0
M  V30 4585 H 426.696 -6.3833 -0.959407 0
M  V30 4586 H 427.464 -8.18468 0.0721681 0
M  V30 4587 N 430.127 0.543554 -1.4793 0
M  V30 4588 C 431.057 1.65888 -1.64327 0
M  V30 4589 C 432.038 1.62818 -0.492383 0
M  V30 4590 O 433.223 1.80226 -0.723338 0
M  V30 4591 C 430.353 3.04506 -1.67013 0
M  V30 4592 C 429.307 3.2243 -2.81466 0
M  V30 4593 C 428.633 4.61972 -2.69233 0
M  V30 4594 C 429.933 3.06496 -4.22915 0
M  V30 4595 H 431.627 1.52421 -2.57698 0
M  V30 4596 H 429.173 0.731849 -1.24016 0
M  V30 4597 H 431.126 3.82391 -1.77074 0
M  V30 4598 H 429.85 3.18964 -0.70212 0
M  V30 4599 H 428.509 2.46957 -2.70938 0
M  V30 4600 H 428.157 4.73247 -1.7043 0
M  V30 4601 H 427.857 4.74911 -3.46025 0
M  V30 4602 H 429.381 5.41974 -2.81242 0
M  V30 4603 H 430.795 3.74186 -4.34348 0
M  V30 4604 H 429.192 3.30938 -5.006 0
M  V30 4605 H 430.262 2.03077 -4.40327 0
M  V30 4606 N 431.605 1.3629 0.791371 0
M  V30 4607 C 432.553 1.30514 1.92533 0
M  V30 4608 C 433.547 0.197285 1.68247 0
M  V30 4609 O 434.753 0.364176 1.76278 0
M  V30 4610 H 431.128 0.406263 0.632815 0
M  V30 4611 H 433.099 2.26282 1.94523 0
M  V30 4612 C 431.848 1.10933 3.29529 0
M  V30 4613 H 431.171 1.95427 3.48781 0
M  V30 4614 H 432.611 1.10937 4.0923 0
M  V30 4615 C 431.07 -0.186123 3.36385 0
M  V30 4616 O 431.6 -1.17664 3.84081 0
M  V30 4617 N 429.806 -0.230128 2.89687 0
M  V30 4618 H 429.353 0.576545 2.51065 0
M  V30 4619 H 429.311 -1.09658 2.94657 0
M  V30 4620 N 433.083 -1.0153 1.20538 0
M  V30 4621 C 434.013 -2.11972 0.979295 0
M  V30 4622 C 434.994 -1.6985 -0.0921787 0
M  V30 4623 O 436.179 -1.94089 0.0655932 0
M  V30 4624 C 433.309 -3.43201 0.531984 0
M  V30 4625 C 432.263 -3.9907 1.54685 0
M  V30 4626 C 431.589 -5.26082 0.956127 0
M  V30 4627 C 432.889 -4.32313 2.93092 0
M  V30 4628 H 434.583 -2.31143 1.90298 0
M  V30 4629 H 432.129 -1.11079 0.916372 0
M  V30 4630 H 434.082 -4.1985 0.361044 0
M  V30 4631 H 432.806 -3.23792 -0.427327 0
M  V30 4632 H 431.465 -3.2453 1.70517 0
M  V30 4633 H 431.113 -5.02999 -0.0111538 0
M  V30 4634 H 430.813 -5.64426 1.63393 0
M  V30 4635 H 432.337 -6.05386 0.796284 0
M  V30 4636 H 433.751 -4.99845 2.80763 0
M  V30 4637 H 432.148 -4.81774 3.57791 0
M  V30 4638 H 433.218 -3.41025 3.44717 0
M  V30 4639 N 434.561 -1.01147 -1.20859 0
M  V30 4640 C 435.786 -0.716698 -1.94623 0
M  V30 4641 C 436.211 0.715415 -1.73964 0
M  V30 4642 O 435.569 1.49157 -1.03062 0
M  V30 4643 C 435.617 -1.0513 -3.44935 0
M  V30 4644 O 434.721 -0.160131 -4.12089 0
M  V30 4645 H 434.062 -0.266404 -0.608214 0
M  V30 4646 H 436.592 -1.35346 -1.53436 0
M  V30 4647 H 436.602 -1.00086 -3.95533 0
M  V30 4648 H 435.277 -2.09475 -3.59295 0
M  V30 4649 H 433.854 -0.267657 -3.71938 0
M  V30 4650 N 436.039 1.36541 -0.78704 0
M  V30 4651 C 437.264 2.0409 -0.369053 0
M  V30 4652 C 437.689 1.58957 1.00569 0
M  V30 4653 O 437.047 0.756926 1.64743 0
M  V30 4654 C 437.095 3.57924 -0.438466 0
M  V30 4655 O 436.199 4.08642 0.555479 0
M  V30 4656 H 435.54 0.645142 -0.157122 0
M  V30 4657 H 438.07 1.74545 -1.06749 0
M  V30 4658 H 438.08 4.06887 -0.301218 0
M  V30 4659 H 436.755 3.90127 -1.44132 0
M  V30 4660 H 435.332 3.70958 0.380088 0
M  V30 4661 N 437.518 0.538854 1.48102 0
M  V30 4662 C 438.746 0.0123136 2.06896 0
M  V30 4663 C 439.161 -1.27312 1.39417 0
M  V30 4664 O 438.518 -1.75949 0.484582 0
M  V30 4665 C 438.569 -0.206118 3.60912 0
M  V30 4666 O 438.29 1.0284 4.25859 0
M  V30 4667 C 439.791 -0.772033 4.36526 0
M  V30 4668 H 437.011 0.0375239 0.66995 0
M  V30 4669 H 439.555 0.747032 1.90367 0
M  V30 4670 H 437.71 -0.89091 3.77017 0
M  V30 4671 H 438.124 0.814654 5.18135 0
M  V30 4672 H 439.598 -0.874251 5.45033 0
M  V30 4673 H 440.075 -1.77904 4.01555 0
M  V30 4674 H 440.681 -0.123526 4.25121 0
M  V30 4675 N 438.996 -1.55193 0.274407 0
M  V30 4676 C 440.221 -2.04446 -0.348824 0
M  V30 4677 C 440.646 -1.15149 -1.48735 0
M  V30 4678 O 440.004 -0.149952 -1.80679 0
M  V30 4679 C 440.052 -3.51431 -0.808009 0
M  V30 4680 O 439.156 -3.65225 -1.91531 0
M  V30 4681 H 438.497 -0.66006 -0.0722276 0
M  V30 4682 H 441.027 -2.00481 0.408498 0
M  V30 4683 H 441.037 -3.92781 -1.10395 0
M  V30 4684 H 439.712 -4.15892 0.0249865 0
M  V30 4685 H 438.289 -3.35778 -1.62196 0
M  V30 4686 N 440.474 -0.00167713 -1.576 0
M  V30 4687 C 441.404 0.988091 -2.11563 0
M  V30 4688 C 442.385 1.35736 -1.02517 0
M  V30 4689 O 443.57 1.44082 -1.30208 0
M  V30 4690 C 440.7 2.27941 -2.62031 0
M  V30 4691 C 439.654 2.0517 -3.75619 0
M  V30 4692 C 438.98 3.4033 -4.12407 0
M  V30 4693 C 440.28 1.41294 -5.02825 0
M  V30 4694 H 441.974 0.538771 -2.94513 0
M  V30 4695 H 439.52 0.257712 -1.41675 0
M  V30 4696 H 441.473 2.97539 -2.9841 0
M  V30 4697 H 440.197 2.74989 -1.76205 0
M  V30 4698 H 438.856 1.37998 -3.39635 0
M  V30 4699 H 438.504 3.85085 -3.23603 0
M  V30 4700 H 438.204 3.25909 -4.88935 0
M  V30 4701 H 439.728 4.1124 -4.51347 0
M  V30 4702 H 441.142 2.00851 -5.36965 0
M  V30 4703 H 439.539 1.37356 -5.84169 0
M  V30 4704 H 440.609 0.382362 -4.8339 0
M  V30 4705 N 441.952 1.55251 0.271103 0
M  V30 4706 C 443.368 1.47133 0.618393 0
M  V30 4707 C 443.568 0.686994 1.89427 0
M  V30 4708 O 442.624 0.206609 2.51653 0
M  V30 4709 C 443.937 2.91361 0.743593 0
M  V30 4710 C 445.485 3.01587 0.837522 0
M  V30 4711 C 445.96 4.47073 0.994483 0
M  V30 4712 N 447.451 4.50909 1.05996 0
M  V30 4713 C 448.186 5.60698 1.20024 0
M  V30 4714 N 447.682 6.80348 1.30759 0
M  V30 4715 N 449.475 5.48444 1.23149 0
M  V30 4716 H 441.626 2.04698 -0.566784 0
M  V30 4717 H 443.889 0.928319 -0.192165 0
M  V30 4718 H 443.595 3.51483 -0.123493 0
M  V30 4719 H 443.469 3.40484 1.62328 0
M  V30 4720 H 445.856 2.4156 1.69507 0
M  V30 4721 H 445.937 2.55713 -0.0668086 0
M  V30 4722 H 445.581 5.07703 0.141582 0
M  V30 4723 H 445.511 4.90605 1.91349 0
M  V30 4724 H 448.002 3.6472 0.989316 0
M  V30 4725 H 448.315 7.59772 1.41303 0
M  V30 4726 H 446.66 6.83156 1.27761 0
M  V30 4727 H 449.851 4.53907 1.14394 0
M  V30 4728 H 450.024 6.34049 1.33738 0
M  V30 4729 N 443.43 -0.535701 1.48216 0
M  V30 4730 C 444.377 -1.64083 1.62312 0
M  V30 4731 C 445.347 -1.59448 0.465365 0
M  V30 4732 O 446.532 -1.77959 0.688135 0
M  V30 4733 C 443.672 -3.0236 1.66349 0
M  V30 4734 C 442.785 -3.17273 2.93193 0
M  V30 4735 C 441.92 -4.46075 2.88427 0
M  V30 4736 C 440.959 -4.54496 4.1 0
M  V30 4737 N 440.096 -5.7468 4.03345 0
M  V30 4738 H 444.936 -1.51374 2.5669 0
M  V30 4739 H 442.473 -0.737059 1.27302 0
M  V30 4740 H 444.431 -3.82461 1.66672 0
M  V30 4741 H 443.061 -3.13854 0.754672 0
M  V30 4742 H 442.113 -2.30462 3.02641 0
M  V30 4743 H 443.425 -3.19357 3.83162 0
M  V30 4744 H 442.579 -5.3446 2.87119 0
M  V30 4745 H 441.318 -4.46504 1.96177 0
M  V30 4746 H 440.323 -3.64519 4.11589 0
M  V30 4747 H 441.548 -4.5581 5.03402 0
M  V30 4748 H 439.494 -5.76017 3.13912 0
M  V30 4749 H 439.411 -5.78234 4.87013 0
M  V30 4750 H 440.679 -6.65367 4.06087 0
M  V30 4751 N 444.908 -1.36708 -0.784132 0
M  V30 4752 C 446.157 -1.30559 -1.53744 0
M  V30 4753 C 446.47 0.111374 -1.95283 0
M  V30 4754 O 447.676 0.29527 -2.6989 0
M  V30 4755 C 446.132 -2.29098 -2.77565 0
M  V30 4756 C 445.74 -3.76258 -2.43174 0
M  V30 4757 C 447.484 -2.31936 -3.55536 0
M  V30 4758 C 445.391 -4.6656 -3.63422 0
M  V30 4759 H 444.321 -0.48518 -0.577162 0
M  V30 4760 H 446.972 -1.62101 -0.859981 0
M  V30 4761 H 445.354 -1.90557 -3.47137 0
M  V30 4762 H 446.528 -4.23565 -1.81465 0
M  V30 4763 H 444.843 -3.76246 -1.78403 0
M  V30 4764 H 447.44 -2.9661 -4.44889 0
M  V30 4765 H 447.783 -1.3294 -3.94503 0
M  V30 4766 H 448.316 -2.6912 -2.92949 0
M  V30 4767 H 445.055 -5.66638 -3.29547 0
M  V30 4768 H 444.575 -4.23966 -4.24279 0
M  V30 4769 H 446.254 -4.8309 -4.30387 0
M  V30 4770 N 446.386 1.0089 -1.21074 0
M  V30 4771 C 447.334 2.11707 -0.963476 0
M  V30 4772 C 448.328 1.69172 0.0879032 0
M  V30 4773 O 449.534 1.79889 -0.0631415 0
M  V30 4774 H 445.909 0.692026 -0.294287 0
M  V30 4775 H 447.88 2.29743 -1.90422 0
M  V30 4776 C 446.629 3.43473 -0.540509 0
M  V30 4777 H 445.952 3.76634 -1.34114 0
M  V30 4778 H 447.392 4.22044 -0.406777 0
M  V30 4779 C 445.851 3.2849 0.748079 0
M  V30 4780 O 446.381 3.58883 1.8046 0
M  V30 4781 N 444.587 2.81715 0.713081 0
M  V30 4782 H 444.134 2.5718 -0.146973 0
M  V30 4783 H 444.092 2.72071 1.57558 0
M  V30 4784 N 447.864 1.01787 1.20321 0
M  V30 4785 C 448.827 0.593972 2.2137 0
M  V30 4786 C 449.827 -0.336553 1.57239 0
M  V30 4787 O 451.017 -0.125069 1.7375 0
M  V30 4788 C 448.149 -0.132433 3.40643 0
M  V30 4789 H 449.342 1.48791 2.60387 0
M  V30 4790 H 446.895 0.807803 1.33807 0
M  V30 4791 H 447.63 -1.04123 3.0713 0
M  V30 4792 H 447.415 0.53605 3.88418 0
M  V30 4793 H 448.905 -0.416314 4.1552 0
M  V30 4794 N 449.342 -1.36122 0.79427 0
M  V30 4795 C 450.305 -2.28309 0.201889 0
M  V30 4796 C 451.305 -1.49041 -0.603603 0
M  V30 4797 O 452.495 -1.68964 -0.423888 0
M  V30 4798 C 449.627 -3.3321 -0.719978 0
M  V30 4799 H 450.82 -2.82208 1.01481 0
M  V30 4800 H 448.373 -1.45768 0.564037 0
M  V30 4801 H 449.108 -2.84475 -1.55706 0
M  V30 4802 H 448.893 -3.91835 -0.144266 0
M  V30 4803 H 450.383 -4.02044 -1.12916 0
M  V30 4804 N 450.82 -0.546701 -1.47814 0
M  V30 4805 C 452.066 -0.0269594 -2.03382 0
M  V30 4806 C 452.421 1.30406 -1.41464 0
M  V30 4807 O 451.714 1.8332 -0.557151 0
M  V30 4808 C 451.908 0.134869 -3.57145 0
M  V30 4809 C 451.737 -1.17891 -4.33972 0
M  V30 4810 C 450.507 -1.74336 -4.74273 0
M  V30 4811 C 452.705 -2.09361 -4.69758 0
M  V30 4812 N 450.687 -2.99829 -5.35701 0
M  V30 4813 C 452.058 -3.19431 -5.31379 0
M  V30 4814 C 454.113 -2.09484 -4.51687 0
M  V30 4815 C 452.816 -4.2971 -5.76838 0
M  V30 4816 C 454.842 -3.18767 -4.98138 0
M  V30 4817 C 454.204 -4.27557 -5.59799 0
M  V30 4818 H 450.303 -0.0517733 -0.780284 0
M  V30 4819 H 452.887 -0.731673 -1.80429 0
M  V30 4820 H 451.058 0.80869 -3.79888 0
M  V30 4821 H 452.79 0.655726 -3.99352 0
M  V30 4822 H 449.545 -1.28265 -4.559 0
M  V30 4823 H 449.969 -3.63765 -5.70968 0
M  V30 4824 H 454.611 -1.26663 -4.03381 0
M  V30 4825 H 452.329 -5.13297 -6.24141 0
M  V30 4826 H 455.915 -3.19937 -4.85934 0
M  V30 4827 H 454.795 -5.10725 -5.95088 0
M  V30 4828 N 452.299 1.55045 -0.282633 0
M  V30 4829 C 453.546 1.9976 0.33199 0
M  V30 4830 C 453.874 1.17105 1.55295 0
M  V30 4831 O 453.129 0.230599 1.94337 0
M  V30 4832 C 453.428 3.49422 0.750938 0
M  V30 4833 C 453.094 4.4941 -0.366228 0
M  V30 4834 C 451.756 4.76471 -0.672964 0
M  V30 4835 C 454.108 5.09054 -1.11864 0
M  V30 4836 C 451.436 5.60442 -1.73556 0
M  V30 4837 C 453.788 5.9418 -2.17102 0
M  V30 4838 C 452.452 6.19558 -2.48402 0
M  V30 4839 H 451.722 0.730974 0.121484 0
M  V30 4840 H 454.369 1.8732 -0.39791 0
M  V30 4841 H 452.674 3.59377 1.56063 0
M  V30 4842 H 454.371 3.81432 1.23736 0
M  V30 4843 H 450.961 4.2844 -0.117041 0
M  V30 4844 H 455.145 4.88165 -0.894925 0
M  V30 4845 H 450.401 5.78349 -1.983 0
M  V30 4846 H 454.575 6.39427 -2.75873 0
M  V30 4847 H 452.202 6.84417 -3.30874 0
M  V30 4848 N 453.777 0.010035 1.57597 0
M  V30 4849 C 454.724 -0.978122 2.09049 0
M  V30 4850 C 455.694 -1.33509 0.988159 0
M  V30 4851 O 456.879 -1.43172 1.26121 0
M  V30 4852 C 454.019 -2.26158 2.60666 0
M  V30 4853 C 453.132 -1.96275 3.84838 0
M  V30 4854 C 452.267 -3.18776 4.24918 0
M  V30 4855 C 451.306 -2.84625 5.41899 0
M  V30 4856 N 450.443 -3.99693 5.77226 0
M  V30 4857 H 455.283 -0.532431 2.93205 0
M  V30 4858 H 452.82 -0.251234 1.44939 0
M  V30 4859 H 454.778 -3.01202 2.88675 0
M  V30 4860 H 453.408 -2.68378 1.79369 0
M  V30 4861 H 452.46 -1.11555 3.63675 0
M  V30 4862 H 453.772 -1.67111 4.69974 0
M  V30 4863 H 452.926 -4.02157 4.54262 0
M  V30 4864 H 451.665 -3.51087 3.38511 0
M  V30 4865 H 450.67 -1.99653 5.12268 0
M  V30 4866 H 451.895 -2.53551 6.29991 0
M  V30 4867 H 449.841 -4.31882 4.93776 0
M  V30 4868 H 449.758 -3.74087 6.56959 0
M  V30 4869 H 451.026 -4.83834 6.11167 0
M  V30 4870 N 455.255 -1.55392 -0.262866 0
M  V30 4871 C 456.203 -1.8977 -1.345 0
M  V30 4872 C 457.197 -0.775063 -1.50629 0
M  V30 4873 O 458.403 -0.959519 -1.52293 0
M  V30 4874 H 454.778 -0.602467 -0.450041 0
M  V30 4875 H 456.749 -2.80147 -1.02762 0
M  V30 4876 C 455.498 -2.19501 -2.69657 0
M  V30 4877 H 454.821 -3.05378 -2.5804 0
M  V30 4878 H 456.261 -2.47469 -3.44289 0
M  V30 4879 C 454.72 -1.00597 -3.21531 0
M  V30 4880 O 455.25 -0.245768 -4.00947 0
M  V30 4881 N 453.456 -0.800911 -2.79345 0
M  V30 4882 H 453.003 -1.42079 -2.14875 0
M  V30 4883 H 452.961 -0.00697996 -3.14399 0
M  V30 4884 N 456.733 0.527833 -1.48498 0
M  V30 4885 C 457.666 1.64892 -1.57753 0
M  V30 4886 C 458.644 1.5687 -0.427867 0
M  V30 4887 O 459.828 1.77311 -0.639764 0
M  V30 4888 C 456.955 3.03301 -1.50752 0
M  V30 4889 C 456.001 3.29675 -2.70586 0
M  V30 4890 S 456.834 3.15712 -4.32535 0
M  V30 4891 C 457.99 4.56564 -4.28136 0
M  V30 4892 H 458.223 1.56792 -2.52594 0
M  V30 4893 H 455.756 0.710959 -1.37057 0
M  V30 4894 H 457.714 3.83123 -1.474 0
M  V30 4895 H 456.375 3.08839 -0.572454 0
M  V30 4896 H 455.568 4.3065 -2.61833 0
M  V30 4897 H 455.17 2.57526 -2.71212 0
M  V30 4898 H 457.462 5.48126 -3.98201 0
M  V30 4899 H 458.405 4.70371 -5.29298 0
M  V30 4900 H 458.813 4.35987 -3.58574 0
M  V30 4901 N 458.211 1.37122 0.776871 0
M  V30 4902 C 459.622 1.28667 1.35284 0
M  V30 4903 C 459.973 -0.0680035 1.96082 0
M  V30 4904 O 459.098 -0.969743 1.93455 0
M  V30 4905 C 459.693 2.32997 2.45963 0
M  V30 4906 C 458.252 2.28191 2.99342 0
M  V30 4907 C 457.399 2.17101 1.72517 0
M  V30 4908 H 460.35 1.47819 0.577527 0
M  V30 4909 H 460.371 1.97366 3.2531 0
M  V30 4910 H 459.883 3.3158 2.01684 0
M  V30 4911 H 457.984 1.33115 3.4801 0
M  V30 4912 H 458.097 3.21397 3.55304 0
M  V30 4913 H 456.461 1.63562 1.95242 0
M  V30 4914 H 457.244 3.17591 1.30348 0
M  V30 4915 N 459.689 -1.00246 1.21608 0
M  V30 4916 C 460.639 -2.07492 0.945051 0
M  V30 4917 C 461.623 -1.60585 -0.100675 0
M  V30 4918 O 462.815 -1.76667 0.10859 0
M  V30 4919 C 459.944 -3.39425 0.514342 0
M  V30 4920 C 459.03 -3.92993 1.59428 0
M  V30 4921 N 459.421 -4.19898 2.81991 0
M  V30 4922 C 457.719 -4.21297 1.46374 0
M  V30 4923 C 458.42 -4.63297 3.51754 0
M  V30 4924 N 457.396 -4.66421 2.79199 0
M  V30 4925 H 461.198 -2.26222 1.87619 0
M  V30 4926 H 458.712 -1.18339 1.11219 0
M  V30 4927 H 460.709 -4.15808 0.301527 0
M  V30 4928 H 459.369 -3.22101 -0.410008 0
M  V30 4929 H 460.38 -4.08377 3.1851 0
M  V30 4930 H 457.057 -4.13095 0.604863 0
M  V30 4931 H 458.447 -4.92816 4.56708 0
M  V30 4932 N 461.167 -1.02423 -1.1978 0
M  V30 4933 C 462.097 -0.62157 -2.25075 0
M  V30 4934 C 463.078 0.367148 -1.6609 0
M  V30 4935 O 464.263 0.250892 -1.92573 0
M  V30 4936 C 461.393 0.0331826 -3.47284 0
M  V30 4937 C 460.347 -0.877323 -4.18912 0
M  V30 4938 C 459.673 -0.0879296 -5.34628 0
M  V30 4939 C 460.973 -2.18892 -4.74219 0
M  V30 4940 H 462.667 -1.50179 -2.59011 0
M  V30 4941 H 460.213 -0.723547 -1.24502 0
M  V30 4942 H 462.166 0.326488 -4.20133 0
M  V30 4943 H 460.89 0.948164 -3.12534 0
M  V30 4944 H 459.549 -1.15475 -3.47938 0
M  V30 4945 H 459.197 0.828941 -4.96123 0
M  V30 4946 H 458.897 -0.694359 -5.83483 0
M  V30 4947 H 460.421 0.198743 -6.10276 0
M  V30 4948 H 461.835 -1.95746 -5.38847 0
M  V30 4949 H 460.232 -2.74686 -5.33542 0
M  V30 4950 H 461.302 -2.84674 -3.92541 0
M  V30 4951 N 462.645 1.35699 -0.801477 0
M  V30 4952 C 463.592 2.29876 -0.206294 0
M  V30 4953 C 464.562 1.52565 0.656752 0
M  V30 4954 O 465.747 1.81024 0.602906 0
M  V30 4955 C 462.887 3.39052 0.643272 0
M  V30 4956 C 462 4.31335 -0.239644 0
M  V30 4957 C 461.135 5.27599 0.61744 0
M  V30 4958 C 460.174 6.11521 -0.26619 0
M  V30 4959 N 459.311 6.99938 0.550571 0
M  V30 4960 H 464.151 2.80187 -1.01484 0
M  V30 4961 H 461.688 1.37902 -0.511997 0
M  V30 4962 H 463.646 4.0101 1.15094 0
M  V30 4963 H 462.276 2.9003 1.41713 0
M  V30 4964 H 461.328 3.70426 -0.865381 0
M  V30 4965 H 462.64 4.90243 -0.919985 0
M  V30 4966 H 461.794 5.94906 1.19045 0
M  V30 4967 H 460.533 4.69176 1.33137 0
M  V30 4968 H 459.538 5.43166 -0.851507 0
M  V30 4969 H 460.763 6.72022 -0.9779 0
M  V30 4970 H 458.709 6.44008 1.24856 0
M  V30 4971 H 458.626 7.55966 -0.071832 0
M  V30 4972 H 459.894 7.71599 1.10702 0
M  V30 4973 N 464.123 0.554532 1.47522 0
M  V30 4974 C 465.369 0.0295227 2.02779 0
M  V30 4975 C 465.702 -1.31582 1.42828 0
M  V30 4976 O 464.977 -1.85561 0.582872 0
M  V30 4977 C 465.26 -0.0664057 3.60039 0
M  V30 4978 C 465.113 1.30585 4.30427 0
M  V30 4979 C 466.432 -0.781162 4.33112 0
M  V30 4980 H 463.551 0.0122027 0.736899 0
M  V30 4981 H 466.193 0.716305 1.7598 0
M  V30 4982 H 464.343 -0.651307 3.83002 0
M  V30 4983 H 466.015 1.93374 4.18813 0
M  V30 4984 H 464.258 1.88125 3.90886 0
M  V30 4985 H 464.929 1.19147 5.38988 0
M  V30 4986 H 467.405 -0.284565 4.15126 0
M  V30 4987 H 466.281 -0.817237 5.42782 0
M  V30 4988 H 466.542 -1.83672 4.0214 0
M  V30 4989 N 465.601 -1.54893 0.290851 0
M  V30 4990 C 466.531 -2.26103 -0.583084 0
M  V30 4991 C 467.512 -1.25684 -1.14619 0
M  V30 4992 O 468.697 -1.54436 -1.17741 0
M  V30 4993 C 465.827 -2.99409 -1.75987 0
M  V30 4994 C 464.781 -4.0689 -1.32758 0
M  V30 4995 C 464.107 -4.67856 -2.58872 0
M  V30 4996 C 465.407 -5.20215 -0.46624 0
M  V30 4997 H 467.101 -2.99398 0.0108214 0
M  V30 4998 H 464.647 -1.43998 0.00664468 0
M  V30 4999 H 466.6 -3.47943 -2.37727 0
M  V30 5000 H 465.324 -2.23675 -2.37985 0
M  V30 5001 H 463.983 -3.59191 -0.733299 0
M  V30 5002 H 463.631 -3.88772 -3.19163 0
M  V30 5003 H 463.331 -5.40438 -2.30653 0
M  V30 5004 H 464.855 -5.19147 -3.21433 0
M  V30 5005 H 466.269 -5.64704 -0.989047 0
M  V30 5006 H 464.666 -5.99455 -0.27826 0
M  V30 5007 H 465.736 -4.82198 0.511173 0
M  V30 5008 N 467.08 -0.0183926 -1.57589 0
M  V30 5009 C 468.357 0.700621 -1.82622 0
M  V30 5010 C 468.737 1.90951 -0.90005 0
M  V30 5011 O 468.085 2.28452 0.0469145 0
M  V30 5012 C 468.295 1.08899 -3.31575 0
M  V30 5013 C 469.643 1.48514 -3.9778 0
M  V30 5014 O 470.667 1.18227 -3.36007 0
M  V30 5015 O 469.526 2.04903 -5.06633 0
M  V30 5016 H 466.62 0.342743 -0.752633 0
M  V30 5017 H 469.166 -0.0452548 -1.6964 0
M  V30 5018 H 467.938 0.228113 -3.90635 0
M  V30 5019 H 467.561 1.89338 -3.49624 0
M  V30 5020 N 468.558 1.5553 0.254621 0
M  V30 5021 C 469.488 1.9268 1.31897 0
M  V30 5022 C 470.469 0.790797 1.506 0
M  V30 5023 O 471.654 1.05045 1.63337 0
M  V30 5024 C 468.784 2.21477 2.67517 0
M  V30 5025 C 467.738 3.37256 2.63519 0
M  V30 5026 C 467.064 3.51576 4.02862 0
M  V30 5027 C 468.364 4.73157 2.21179 0
M  V30 5028 H 470.058 2.81832 1.01051 0
M  V30 5029 H 467.604 1.35599 0.484662 0
M  V30 5030 H 469.557 2.46055 3.42104 0
M  V30 5031 H 468.281 1.29144 2.99982 0
M  V30 5032 H 466.94 3.12675 1.9139 0
M  V30 5033 H 466.588 2.56676 4.32581 0
M  V30 5034 H 466.288 4.2943 4.01078 0
M  V30 5035 H 467.812 3.78467 4.79161 0
M  V30 5036 H 469.226 4.97158 2.85494 0
M  V30 5037 H 467.623 5.54058 2.30521 0
M  V30 5038 H 468.693 4.70739 1.16332 0
M  V30 5039 N 470.036 -0.519951 1.48776 0
M  V30 5040 C 470.946 -1.65025 1.66745 0
M  V30 5041 C 471.962 -1.6508 0.549954 0
M  V30 5042 O 473.138 -1.83848 0.822295 0
M  V30 5043 C 470.203 -3.0146 1.71238 0
M  V30 5044 C 469.264 -3.12182 2.94688 0
M  V30 5045 C 468.497 -4.42109 2.98958 0
M  V30 5046 O 468.72 -5.29799 2.1135 0
M  V30 5047 O 467.654 -4.57406 3.91233 0
M  V30 5048 H 471.48 -1.52801 2.62461 0
M  V30 5049 H 469.065 -0.694157 1.32294 0
M  V30 5050 H 470.947 -3.82584 1.76657 0
M  V30 5051 H 469.622 -3.13988 0.786975 0
M  V30 5052 H 468.529 -2.30316 2.94797 0
M  V30 5053 H 469.862 -3.04574 3.86646 0
M  V30 5054 N 471.514 -1.37532 -0.769588 0
M  V30 5055 C 472.761 -1.3286 -1.52822 0
M  V30 5056 C 473.089 0.0862597 -1.94309 0
M  V30 5057 O 472.344 1.05995 -1.6451 0
M  V30 5058 C 472.643 -2.21558 -2.8044 0
M  V30 5059 C 472.309 -3.69796 -2.57996 0
M  V30 5060 C 470.971 -4.10194 -2.51583 0
M  V30 5061 C 473.323 -4.63699 -2.37976 0
M  V30 5062 C 470.651 -5.42608 -2.23144 0
M  V30 5063 C 473.003 -5.96353 -2.1106 0
M  V30 5064 C 471.667 -6.35853 -2.03093 0
M  V30 5065 H 470.937 -0.486168 -0.559215 0
M  V30 5066 H 473.584 -1.69757 -0.886277 0
M  V30 5067 H 471.889 -1.77663 -3.49204 0
M  V30 5068 H 473.586 -2.15256 -3.38328 0
M  V30 5069 H 470.176 -3.37759 -2.63851 0
M  V30 5070 H 474.36 -4.33346 -2.41919 0
M  V30 5071 H 469.616 -5.72173 -2.15472 0
M  V30 5072 H 473.79 -6.68667 -1.94568 0
M  V30 5073 H 471.417 -7.38382 -1.8082 0
M  V30 5074 N 472.992 0.995999 -1.22138 0
M  V30 5075 C 473.94 2.10673 -0.985876 0
M  V30 5076 C 474.934 1.69255 0.0699553 0
M  V30 5077 O 476.14 1.79812 -0.0822176 0
M  V30 5078 H 472.515 0.688865 -0.30161 0
M  V30 5079 H 474.486 2.27711 -1.92848 0
M  V30 5080 C 473.235 3.42881 -0.576909 0
M  V30 5081 H 472.558 3.75191 -1.38101 0
M  V30 5082 H 473.998 4.21589 -0.451518 0
M  V30 5083 C 472.457 3.29265 0.713196 0
M  V30 5084 O 472.987 3.60777 1.76643 0
M  V30 5085 N 471.193 2.82456 0.683162 0
M  V30 5086 H 470.74 2.5701 -0.174242 0
M  V30 5087 H 470.698 2.73727 1.54663 0
M  V30 5088 N 474.47 1.03057 1.19235 0
M  V30 5089 C 475.7 0.746613 1.92638 0
M  V30 5090 C 476.108 -0.698708 1.75826 0
M  V30 5091 O 475.451 -1.487 1.07861 0
M  V30 5092 C 475.513 1.02024 3.44719 0
M  V30 5093 C 475.177 2.45745 3.85303 0
M  V30 5094 C 476.174 3.43887 3.8992 0
M  V30 5095 C 473.859 2.8019 4.16892 0
M  V30 5096 C 475.853 4.74529 4.2556 0
M  V30 5097 C 473.54 4.1104 4.52205 0
M  V30 5098 C 474.538 5.0802 4.56513 0
M  V30 5099 O 474.226 6.36527 4.91008 0
M  V30 5100 H 473.958 0.272401 0.618687 0
M  V30 5101 H 476.512 1.37853 1.52269 0
M  V30 5102 H 474.742 0.331184 3.85279 0
M  V30 5103 H 476.431 0.725677 3.9936 0
M  V30 5104 H 477.197 3.18614 3.65664 0
M  V30 5105 H 473.076 2.05382 4.12722 0
M  V30 5106 H 476.62 5.50222 4.28838 0
M  V30 5107 H 472.517 4.36086 4.7592 0
M  V30 5108 H 473.285 6.41025 5.08949 0
M  V30 5109 N 475.948 -1.35272 0.808662 0
M  V30 5110 C 476.878 -2.32315 0.234981 0
M  V30 5111 C 477.859 -1.57572 -0.64071 0
M  V30 5112 O 479.044 -1.8563 -0.570551 0
M  V30 5113 C 476.174 -3.41801 -0.615601 0
M  V30 5114 C 475.128 -4.27694 0.161767 0
M  V30 5115 C 474.454 -5.28519 -0.810649 0
M  V30 5116 C 475.754 -5.04231 1.36193 0
M  V30 5117 H 477.448 -2.80543 1.04575 0
M  V30 5118 H 474.994 -1.3488 0.504315 0
M  V30 5119 H 476.947 -4.08693 -1.02702 0
M  V30 5120 H 475.671 -2.92186 -1.45928 0
M  V30 5121 H 474.33 -3.62384 0.554382 0
M  V30 5122 H 473.978 -4.75171 -1.64988 0
M  V30 5123 H 473.678 -5.8686 -0.294822 0
M  V30 5124 H 475.202 -5.98283 -1.22023 0
M  V30 5125 H 476.616 -5.64058 1.02528 0
M  V30 5126 H 475.013 -5.72077 1.81239 0
M  V30 5127 H 476.083 -4.34753 2.14751 0
M  V30 5128 N 477.426 -0.562348 -1.47226 0
M  V30 5129 C 478.672 -0.0402761 -2.0276 0
M  V30 5130 C 479.005 1.30823 -1.43523 0
M  V30 5131 O 478.28 1.85249 -0.592705 0
M  V30 5132 C 478.563 0.047311 -3.60069 0
M  V30 5133 C 478.416 -1.32865 -4.29729 0
M  V30 5134 C 479.735 0.758182 -4.3352 0
M  V30 5135 H 476.854 -0.0161105 -0.736824 0
M  V30 5136 H 479.496 -0.725628 -1.75598 0
M  V30 5137 H 477.646 0.630986 -3.83342 0
M  V30 5138 H 479.318 -1.95593 -4.17781 0
M  V30 5139 H 477.561 -1.90195 -3.89882 0
M  V30 5140 H 478.232 -1.22004 -5.38349 0
M  V30 5141 H 480.708 0.262546 -4.15271 0
M  V30 5142 H 479.584 0.78844 -5.43208 0
M  V30 5143 H 479.845 1.81537 -4.03109 0
M  V30 5144 N 478.904 1.54736 -0.299062 0
M  V30 5145 C 480.152 1.99706 0.31017 0
M  V30 5146 C 480.473 1.18896 1.54559 0
M  V30 5147 O 479.743 0.284445 1.93824 0
M  V30 5148 H 478.323 0.737686 0.117596 0
M  V30 5149 H 480.985 1.9054 -0.409943 0
M  V30 5150 H 480.081 3.06596 0.58355 0
M  V30 5151 N 480.382 0.0267497 1.57577 0
M  V30 5152 C 481.292 -0.971633 2.13533 0
M  V30 5153 C 482.308 -1.35868 1.08701 0
M  V30 5154 O 483.484 -1.44058 1.40746 0
M  V30 5155 C 480.549 -2.23622 2.64941 0
M  V30 5156 C 479.61 -1.90982 3.8448 0
M  V30 5157 C 478.843 -3.11411 4.33427 0
M  V30 5158 O 479.066 -4.23992 3.81558 0
M  V30 5159 O 478 -2.93848 5.25297 0
M  V30 5160 H 481.826 -0.525853 2.99113 0
M  V30 5161 H 479.411 -0.193712 1.48139 0
M  V30 5162 H 481.293 -2.97864 2.98086 0
M  V30 5163 H 479.968 -2.67386 1.82446 0
M  V30 5164 H 478.875 -1.14132 3.56265 0
M  V30 5165 H 480.208 -1.52036 4.6813 0
M  V30 5166 N 481.861 -1.55662 -0.24637 0
M  V30 5167 C 483.11 -1.7672 -0.972254 0
M  V30 5168 C 483.423 -0.59078 -1.86465 0
M  V30 5169 O 484.629 -0.684391 -2.62732 0
M  V30 5170 C 483.085 -3.12869 -1.7788 0
M  V30 5171 C 482.693 -4.38161 -0.933768 0
M  V30 5172 C 484.437 -3.43265 -2.49738 0
M  V30 5173 C 482.344 -5.6534 -1.73623 0
M  V30 5174 H 481.274 -0.658795 -0.366749 0
M  V30 5175 H 483.925 -1.82092 -0.226902 0
M  V30 5176 H 482.307 -3.01606 -2.56612 0
M  V30 5177 H 483.481 -4.60413 -0.188736 0
M  V30 5178 H 481.796 -4.15102 -0.328488 0
M  V30 5179 H 484.393 -4.35501 -3.10231 0
M  V30 5180 H 484.736 -2.64614 -3.2138 0
M  V30 5181 H 485.269 -3.55746 -1.78016 0
M  V30 5182 H 482.008 -6.46814 -1.06354 0
M  V30 5183 H 481.528 -5.47188 -2.45653 0
M  V30 5184 H 483.207 -6.04616 -2.30323 0
M  V30 5185 N 483.339 0.512053 -1.4905 0
M  V30 5186 C 484.302 1.59704 -1.64399 0
M  V30 5187 C 485.302 1.52285 -0.516317 0
M  V30 5188 O 486.492 1.55635 -0.782527 0
M  V30 5189 C 483.624 2.9935 -1.63102 0
M  V30 5190 H 484.817 1.47428 -2.61161 0
M  V30 5191 H 482.37 0.735469 -1.37915 0
M  V30 5192 H 483.105 3.17116 -0.678836 0
M  V30 5193 H 482.89 3.06144 -2.44986 0
M  V30 5194 H 484.38 3.782 -1.77072 0
M  V30 5195 N 484.817 1.37938 0.762283 0
M  V30 5196 C 486.042 1.37059 1.55659 0
M  V30 5197 C 486.467 -0.0396123 1.88058 0
M  V30 5198 O 485.825 -1.01929 1.49934 0
M  V30 5199 C 485.873 2.22494 2.83776 0
M  V30 5200 O 484.977 1.63607 3.78559 0
M  V30 5201 H 484.318 0.467892 0.47114 0
M  V30 5202 H 486.848 1.81587 0.942725 0
M  V30 5203 H 486.858 2.36045 3.32786 0
M  V30 5204 H 485.533 3.24993 2.59524 0
M  V30 5205 H 484.11 1.5915 3.37233 0
M  V30 5206 N 486.295 -0.989507 1.22664 0
M  V30 5207 C 487.543 -1.72612 1.05117 0
M  V30 5208 C 487.864 -1.90552 -0.414131 0
M  V30 5209 O 487.134 -1.4676 -1.29762 0
M  V30 5210 H 485.714 -0.639555 0.385977 0
M  V30 5211 H 488.376 -1.19158 1.54232 0
M  V30 5212 H 487.472 -2.71926 1.53175 0
M  V30 5213 N 487.773 -1.03688 -1.18687 0
M  V30 5214 C 488.736 -0.629115 -2.20397 0
M  V30 5215 C 489.736 0.311495 -1.57754 0
M  V30 5216 O 490.926 0.0974107 -1.73927 0
M  V30 5217 C 488.058 0.0782231 -3.4081 0
M  V30 5218 H 489.251 -1.52915 -2.57987 0
M  V30 5219 H 486.804 -0.828988 -1.32505 0
M  V30 5220 H 487.539 0.992233 -3.08748 0
M  V30 5221 H 487.324 -0.597776 -3.87517 0
M  V30 5222 H 488.814 0.350156 -4.16129 0
M  V30 5223 N 489.251 1.34841 -0.815825 0
M  V30 5224 C 490.498 1.98499 -0.400535 0
M  V30 5225 C 490.826 1.64699 1.03463 0
M  V30 5226 O 490.081 0.907006 1.73412 0
M  V30 5227 C 490.38 3.53273 -0.541541 0
M  V30 5228 C 490.046 4.06966 -1.94138 0
M  V30 5229 C 488.708 4.21341 -2.32433 0
M  V30 5230 C 491.06 4.35933 -2.85677 0
M  V30 5231 C 488.388 4.62007 -3.61617 0
M  V30 5232 C 490.74 4.78042 -4.14317 0
M  V30 5233 C 489.404 4.90622 -4.52599 0
M  V30 5234 H 488.674 0.72636 -0.146566 0
M  V30 5235 H 491.321 1.60902 -1.0384 0
M  V30 5236 H 489.626 3.91387 0.179741 0
M  V30 5237 H 491.323 4.00497 -0.20085 0
M  V30 5238 H 487.913 3.96235 -1.63388 0
M  V30 5239 H 492.097 4.24372 -2.57337 0
M  V30 5240 H 487.353 4.69937 -3.91113 0
M  V30 5241 H 491.527 4.99415 -4.85342 0
M  V30 5242 H 489.154 5.2189 -5.52752 0
M  V30 5243 N 490.729 0.570148 1.46925 0
M  V30 5244 C 491.659 -0.158274 2.32963 0
M  V30 5245 C 492.64 -0.896093 1.44583 0
M  V30 5246 O 493.825 -0.874022 1.7342 0
M  V30 5247 C 490.955 -1.18055 3.26619 0
M  V30 5248 C 489.909 -0.558379 4.24342 0
M  V30 5249 C 489.235 -1.68623 5.07415 0
M  V30 5250 C 490.535 0.496295 5.19937 0
M  V30 5251 H 492.229 0.560046 2.94115 0
M  V30 5252 H 489.775 0.270775 1.41431 0
M  V30 5253 H 491.728 -1.69841 3.85658 0
M  V30 5254 H 490.452 -1.92899 2.63548 0
M  V30 5255 H 489.111 -0.0617157 3.66548 0
M  V30 5256 H 488.759 -2.42402 4.40738 0
M  V30 5257 H 488.459 -1.27564 5.73586 0
M  V30 5258 H 489.983 -2.20709 5.69315 0
M  V30 5259 H 491.397 0.0640052 5.73264 0
M  V30 5260 H 489.794 0.82649 5.94381 0
M  V30 5261 H 490.864 1.38735 4.6463 0
M  V30 5262 N 492.207 -1.54576 0.307264 0
M  V30 5263 C 493.435 -2.04675 -0.302597 0
M  V30 5264 C 493.85 -1.18425 -1.47041 0
M  V30 5265 O 493.207 -0.211257 -1.81273 0
M  V30 5266 C 493.258 -3.53575 -0.752801 0
M  V30 5267 O 492.979 -4.36547 0.368536 0
M  V30 5268 C 494.48 -4.19699 -1.42717 0
M  V30 5269 H 491.7 -0.66786 -0.0648374 0
M  V30 5270 H 494.244 -1.99516 0.448716 0
M  V30 5271 H 492.399 -3.59074 -1.45412 0
M  V30 5272 H 492.813 -5.24497 0.0168937 0
M  V30 5273 H 494.287 -5.25388 -1.69327 0
M  V30 5274 H 494.764 -3.69815 -2.36925 0
M  V30 5275 H 495.37 -4.18293 -0.768856 0
M  V30 5276 N 493.685 -0.035106 -1.57561 0
M  V30 5277 C 494.618 0.979673 -2.06101 0
M  V30 5278 C 495.596 1.31378 -0.958046 0
M  V30 5279 O 496.78 1.42942 -1.22881 0
M  V30 5280 C 493.907 2.29809 -2.48808 0
M  V30 5281 C 492.953 2.11817 -3.70184 0
M  V30 5282 S 493.786 1.41143 -5.16565 0
M  V30 5283 C 494.942 2.74341 -5.62572 0
M  V30 5284 H 495.175 0.566506 -2.91853 0
M  V30 5285 H 492.708 0.176744 -1.53385 0
M  V30 5286 H 494.666 3.056 -2.74078 0
M  V30 5287 H 493.327 2.68257 -1.63392 0
M  V30 5288 H 492.52 3.09299 -3.97933 0
M  V30 5289 H 492.122 1.44168 -3.45097 0
M  V30 5290 H 494.414 3.70562 -5.67177 0
M  V30 5291 H 495.357 2.51249 -6.62027 0
M  V30 5292 H 495.765 2.79863 -4.90242 0
M  V30 5293 N 495.163 1.55791 0.238111 0
M  V30 5294 C 496.093 1.94068 1.29846 0
M  V30 5295 C 497.074 0.806726 1.49753 0
M  V30 5296 O 498.259 1.06772 1.62214 0
M  V30 5297 C 495.389 2.24302 2.65153 0
M  V30 5298 C 494.343 3.40032 2.59927 0
M  V30 5299 C 493.669 3.55829 3.99111 0
M  V30 5300 C 494.969 4.75476 2.16148 0
M  V30 5301 H 496.663 2.82887 0.980563 0
M  V30 5302 H 494.209 1.36105 0.470253 0
M  V30 5303 H 496.162 2.4967 3.39475 0
M  V30 5304 H 494.886 1.32318 2.98596 0
M  V30 5305 H 493.545 3.14687 1.88063 0
M  V30 5306 H 493.193 2.6125 4.29834 0
M  V30 5307 H 492.893 4.3366 3.96501 0
M  V30 5308 H 494.417 3.83528 4.7512 0
M  V30 5309 H 495.831 5.00158 2.80205 0
M  V30 5310 H 494.228 5.56472 2.24631 0
M  V30 5311 H 495.298 4.71946 1.11333 0
M  V30 5312 N 496.642 -0.504142 1.49319 0
M  V30 5313 C 498.053 -1.08572 1.51885 0
M  V30 5314 C 498.404 -1.93842 0.303255 0
M  V30 5315 O 497.529 -2.0828 -0.58724 0
M  V30 5316 C 498.124 -1.97574 2.75227 0
M  V30 5317 C 496.683 -2.509 2.80581 0
M  V30 5318 C 495.83 -1.28447 2.45757 0
M  V30 5319 H 498.781 -0.288194 1.56061 0
M  V30 5320 H 498.802 -2.82219 2.55211 0
M  V30 5321 H 498.314 -1.35486 3.63683 0
M  V30 5322 H 496.415 -3.16636 1.96398 0
M  V30 5323 H 496.528 -2.88268 3.82673 0
M  V30 5324 H 494.892 -1.60868 1.97468 0
M  V30 5325 H 495.675 -0.68072 3.36483 0
M  V30 5326 N 498.12 -1.38341 -0.754957 0
M  V30 5327 C 499.536 -1.19508 -1.05783 0
M  V30 5328 C 499.736 -0.0428005 -2.01455 0
M  V30 5329 O 498.792 0.611861 -2.44975 0
M  V30 5330 C 500.105 -2.52091 -1.63923 0
M  V30 5331 C 501.653 -2.58762 -1.76101 0
M  V30 5332 C 502.128 -3.91517 -2.37652 0
M  V30 5333 N 503.619 -3.93049 -2.45085 0
M  V30 5334 C 504.354 -4.9253 -2.93602 0
M  V30 5335 N 503.85 -6.02408 -3.42165 0
M  V30 5336 N 505.643 -4.79921 -2.92629 0
M  V30 5337 H 497.794 -2.1206 -0.120056 0
M  V30 5338 H 500.057 -0.94089 -0.11589 0
M  V30 5339 H 499.763 -3.36858 -1.01093 0
M  V30 5340 H 499.637 -2.70388 -2.63003 0
M  V30 5341 H 502.024 -1.74391 -2.38058 0
M  V30 5342 H 502.105 -2.44333 -0.757294 0
M  V30 5343 H 501.749 -4.76309 -1.76329 0
M  V30 5344 H 501.679 -4.03256 -3.38662 0
M  V30 5345 H 504.17 -3.13685 -2.10736 0
M  V30 5346 H 504.483 -6.74248 -3.77637 0
M  V30 5347 H 502.828 -6.0603 -3.40225 0
M  V30 5348 H 506.019 -3.93194 -2.54001 0
M  V30 5349 H 506.192 -5.57601 -3.30128 0
M  V30 5350 N 499.598 0.982988 -1.23187 0
M  V30 5351 C 500.528 2.09301 -1.03515 0
M  V30 5352 C 501.509 1.70035 0.0471136 0
M  V30 5353 O 502.694 1.93847 -0.117029 0
M  V30 5354 C 499.824 3.4167 -0.622791 0
M  V30 5355 C 498.778 3.94828 -1.65211 0
M  V30 5356 C 498.104 5.23362 -1.09527 0
M  V30 5357 C 499.404 4.2439 -3.04451 0
M  V30 5358 H 501.098 2.26016 -1.96359 0
M  V30 5359 H 498.644 1.08611 -0.945501 0
M  V30 5360 H 500.597 4.18746 -0.472233 0
M  V30 5361 H 499.321 3.24811 0.341329 0
M  V30 5362 H 497.98 3.19895 -1.79061 0
M  V30 5363 H 497.628 5.02852 -0.122211 0
M  V30 5364 H 497.328 5.59895 -1.783 0
M  V30 5365 H 498.852 6.03062 -0.956511 0
M  V30 5366 H 500.266 4.92225 -2.93917 0
M  V30 5367 H 498.663 4.72118 -3.70438 0
M  V30 5368 H 499.733 3.31765 -3.53638 0
M  V30 5369 N 501.076 1.04316 1.18135 0
M  V30 5370 C 501.986 0.646876 2.25505 0
M  V30 5371 C 503.002 -0.328008 1.7088 0
M  V30 5372 O 504.178 -0.182309 2.00573 0
M  V30 5373 C 501.243 0.0185664 3.46695 0
M  V30 5374 C 500.304 1.04277 4.16443 0
M  V30 5375 C 499.537 0.444352 5.31847 0
M  V30 5376 O 499.76 -0.748735 5.65465 0
M  V30 5377 O 498.694 1.17428 5.90334 0
M  V30 5378 H 502.52 1.54147 2.61672 0
M  V30 5379 H 500.105 0.814188 1.25265 0
M  V30 5380 H 501.987 -0.331068 4.20097 0
M  V30 5381 H 500.662 -0.849814 3.12346 0
M  V30 5382 H 499.569 1.44425 3.45098 0
M  V30 5383 H 500.902 1.882 4.54798 0
M  V30 5384 N 502.554 -1.34406 0.822964 0
M  V30 5385 C 503.803 -1.97542 0.407458 0
M  V30 5386 C 504.116 -1.65973 -1.035 0
M  V30 5387 O 505.322 -2.22598 -1.55442 0
M  V30 5388 C 503.778 -3.53463 0.677623 0
M  V30 5389 C 503.386 -3.93925 2.1337 0
M  V30 5390 C 505.13 -4.23229 0.328284 0
M  V30 5391 C 503.037 -5.42759 2.34876 0
M  V30 5392 H 501.967 -0.739207 0.148623 0
M  V30 5393 H 504.618 -1.53248 1.00932 0
M  V30 5394 H 503 -3.96 0.00558965 0
M  V30 5395 H 504.174 -3.62494 2.8449 0
M  V30 5396 H 502.489 -3.37097 2.44448 0
M  V30 5397 H 505.086 -5.32659 0.466794 0
M  V30 5398 H 505.429 -4.09899 -0.727224 0
M  V30 5399 H 505.962 -3.86169 0.954896 0
M  V30 5400 H 502.701 -5.61075 3.38932 0
M  V30 5401 H 502.221 -5.75704 1.68299 0
M  V30 5402 H 503.9 -6.0944 2.17236 0
M  V30 5403 N 504.032 -0.577932 -1.46621 0
M  V30 5404 C 504.962 0.145917 -2.33044 0
M  V30 5405 C 505.943 0.888412 -1.45056 0
M  V30 5406 O 507.128 0.864812 -1.73881 0
M  V30 5407 C 504.258 1.16322 -3.27241 0
M  V30 5408 C 503.212 0.535868 -4.24632 0
M  V30 5409 C 502.538 1.65929 -5.08303 0
M  V30 5410 C 503.838 -0.523861 -5.19666 0
M  V30 5411 H 505.532 -0.575636 -2.93814 0
M  V30 5412 H 503.078 -0.278272 -1.41286 0
M  V30 5413 H 505.031 1.67793 -3.86553 0
M  V30 5414 H 503.755 1.91498 -2.64567 0
M  V30 5415 H 502.414 0.0422759 -3.66576 0
M  V30 5416 H 502.062 2.40061 -4.42018 0
M  V30 5417 H 501.762 1.2452 -5.74255 0
M  V30 5418 H 503.286 2.17686 -5.70478 0
M  V30 5419 H 504.7 -0.0944059 -5.73222 0
M  V30 5420 H 503.097 -0.858 -5.93935 0
M  V30 5421 H 504.167 -1.41197 -4.63887 0
M  V30 5422 N 505.51 1.54411 -0.315457 0
M  V30 5423 C 506.787 1.92562 0.343398 0
M  V30 5424 C 507.167 1.24423 1.70535 0
M  V30 5425 O 506.515 0.385051 2.25232 0
M  V30 5426 C 506.725 3.46168 0.443687 0
M  V30 5427 C 508.073 4.18659 0.707783 0
M  V30 5428 O 509.097 3.52281 0.52693 0
M  V30 5429 O 507.956 5.36198 1.05612 0
M  V30 5430 H 505.05 0.80379 0.194552 0
M  V30 5431 H 507.596 1.65738 -0.364577 0
M  V30 5432 H 506.368 3.8792 -0.513172 0
M  V30 5433 H 505.991 3.79073 1.19956 0
M  V30 5434 N 506.988 0.0434614 1.5754 0
M  V30 5435 C 507.918 -0.931651 2.14109 0
M  V30 5436 C 508.899 -1.32971 1.06079 0
M  V30 5437 O 510.084 -1.40579 1.33982 0
M  V30 5438 C 507.214 -2.20914 2.67982 0
M  V30 5439 C 506.168 -1.95139 3.80926 0
M  V30 5440 C 505.494 -3.29276 4.21285 0
M  V30 5441 C 506.794 -1.27913 5.06395 0
M  V30 5442 H 508.488 -0.460497 2.95837 0
M  V30 5443 H 506.034 -0.220058 1.42309 0
M  V30 5444 H 507.987 -2.89522 3.06194 0
M  V30 5445 H 506.711 -2.70221 1.83434 0
M  V30 5446 H 505.37 -1.28945 3.43175 0
M  V30 5447 H 505.018 -3.76369 3.33699 0
M  V30 5448 H 504.718 -3.12831 4.97404 0
M  V30 5449 H 506.242 -3.99129 4.62091 0
M  V30 5450 H 507.656 -1.86544 5.42102 0
M  V30 5451 H 506.053 -1.2182 5.87605 0
M  V30 5452 H 507.123 -0.254066 4.84234 0
M  V30 5453 N 508.466 -1.55915 -0.229846 0
M  V30 5454 C 509.691 -1.8296 -0.976743 0
M  V30 5455 C 510.116 -0.622735 -1.77493 0
M  V30 5456 O 509.474 0.428431 -1.76165 0
M  V30 5457 C 509.522 -3.07916 -1.8767 0
M  V30 5458 O 508.626 -2.86028 -2.97088 0
M  V30 5459 H 507.967 -0.603453 -0.277021 0
M  V30 5460 H 510.497 -2.0312 -0.245669 0
M  V30 5461 H 510.507 -3.37802 -2.2881 0
M  V30 5462 H 509.182 -3.95389 -1.28996 0
M  V30 5463 H 507.759 -2.67355 -2.59954 0
M  V30 5464 N 509.944 0.496216 -1.49584 0
M  V30 5465 C 511.191 1.25003 -1.59312 0
M  V30 5466 C 511.519 1.92445 -0.28198 0
M  V30 5467 O 510.774 1.81557 0.730452 0
M  V30 5468 C 511.073 2.3359 -2.705 0
M  V30 5469 C 510.739 1.83574 -4.11839 0
M  V30 5470 C 509.401 1.69653 -4.50302 0
M  V30 5471 C 511.753 1.46193 -5.00277 0
M  V30 5472 C 509.081 1.16736 -5.74969 0
M  V30 5473 C 511.433 0.947265 -6.25468 0
M  V30 5474 C 510.097 0.794485 -6.62755 0
M  V30 5475 H 509.367 0.45742 -0.582965 0
M  V30 5476 H 512.014 0.549996 -1.83432 0
M  V30 5477 H 510.319 3.09401 -2.40371 0
M  V30 5478 H 512.016 2.91627 -2.75235 0
M  V30 5479 H 508.606 1.9537 -3.81482 0
M  V30 5480 H 512.79 1.55793 -4.71214 0
M  V30 5481 H 508.046 1.03623 -6.02555 0
M  V30 5482 H 512.22 0.648846 -6.93371 0
M  V30 5483 H 509.847 0.382271 -7.59238 0
M  V30 5484 N 511.423 1.38739 0.74761 0
M  V30 5485 C 512.371 1.36573 1.88283 0
M  V30 5486 C 513.365 0.250712 1.67534 0
M  V30 5487 O 514.571 0.420073 1.7503 0
M  V30 5488 H 510.946 0.42619 0.619569 0
M  V30 5489 H 512.917 2.32356 1.87226 0
M  V30 5490 C 511.666 1.21361 3.25832 0
M  V30 5491 H 510.989 2.06424 3.42388 0
M  V30 5492 H 512.429 1.23901 4.05493 0
M  V30 5493 C 510.888 -0.0790099 3.36807 0
M  V30 5494 O 511.418 -1.05385 3.8763 0
M  V30 5495 N 509.624 -0.13785 2.90273 0
M  V30 5496 H 509.171 0.656128 2.49104 0
M  V30 5497 H 509.129 -1.00228 2.97996 0
M  V30 5498 N 512.901 -0.976442 1.23707 0
M  V30 5499 C 514.131 -1.75087 1.09673 0
M  V30 5500 C 514.539 -1.85852 -0.354344 0
M  V30 5501 O 513.882 -1.33985 -1.25673 0
M  V30 5502 C 513.944 -3.19272 1.65245 0
M  V30 5503 C 513.608 -3.32004 3.14042 0
M  V30 5504 C 514.605 -3.18017 4.11292 0
M  V30 5505 C 512.29 -3.56525 3.53829 0
M  V30 5506 C 514.284 -3.28363 5.46312 0
M  V30 5507 C 511.971 -3.6651 4.88993 0
M  V30 5508 C 512.969 -3.52439 5.85043 0
M  V30 5509 O 512.657 -3.62063 7.1775 0
M  V30 5510 H 512.389 -0.556164 0.384262 0
M  V30 5511 H 514.943 -1.23518 1.64111 0
M  V30 5512 H 513.173 -3.72107 1.05231 0
M  V30 5513 H 514.862 -3.7849 1.46629 0
M  V30 5514 H 515.628 -2.98966 3.81896 0
M  V30 5515 H 511.507 -3.66547 2.79579 0
M  V30 5516 H 515.051 -3.17297 6.21263 0
M  V30 5517 H 510.948 -3.85072 5.18063 0
M  V30 5518 H 511.716 -3.78833 7.25553 0
M  V30 5519 N 514.379 -1.04941 -1.1758 0
M  V30 5520 C 515.628 -0.753124 -1.87112 0
M  V30 5521 C 515.941 0.722507 -1.81767 0
M  V30 5522 O 517.147 1.13265 -2.46746 0
M  V30 5523 C 515.603 -1.29695 -3.35719 0
M  V30 5524 C 515.211 -2.80184 -3.49572 0
M  V30 5525 C 516.955 -1.07759 -4.10595 0
M  V30 5526 C 514.862 -3.2788 -4.92187 0
M  V30 5527 H 513.792 -0.278034 -0.700866 0
M  V30 5528 H 516.443 -1.26637 -1.32798 0
M  V30 5529 H 514.825 -0.711522 -3.89555 0
M  V30 5530 H 515.999 -3.44561 -3.05965 0
M  V30 5531 H 514.314 -3.00632 -2.88113 0
M  V30 5532 H 516.911 -1.40899 -5.15802 0
M  V30 5533 H 517.254 -0.0152302 -4.16297 0
M  V30 5534 H 517.787 -1.62809 -3.62957 0
M  V30 5535 H 514.526 -4.33535 -4.91658 0
M  V30 5536 H 514.046 -2.68245 -5.36475 0
M  V30 5537 H 515.725 -3.22412 -5.60945 0
M  V30 5538 N 515.857 1.33968 -0.830081 0
M  V30 5539 C 516.804 2.29387 -0.255008 0
M  V30 5540 C 517.774 1.53923 0.624243 0
M  V30 5541 O 518.959 1.82262 0.564372 0
M  V30 5542 C 516.099 3.4034 0.571209 0
M  V30 5543 C 515.212 4.30729 -0.331083 0
M  V30 5544 C 514.347 5.2879 0.505389 0
M  V30 5545 C 513.386 6.10819 -0.395843 0
M  V30 5546 N 512.523 7.00948 0.401979 0
M  V30 5547 H 517.363 2.77972 -1.07404 0
M  V30 5548 H 514.9 1.36785 -0.541133 0
M  V30 5549 H 516.858 4.03361 1.06562 0
M  V30 5550 H 515.488 2.9297 1.35529 0
M  V30 5551 H 514.54 3.68507 -0.943759 0
M  V30 5552 H 515.852 4.88181 -1.02377 0
M  V30 5553 H 515.006 5.97297 1.06399 0
M  V30 5554 H 513.745 4.71894 1.23155 0
M  V30 5555 H 512.75 5.41238 -0.966529 0
M  V30 5556 H 513.975 6.69797 -1.12023 0
M  V30 5557 H 511.921 6.46512 1.11168 0
M  V30 5558 H 511.838 7.55643 -0.232167 0
M  V30 5559 H 513.106 7.73774 0.943102 0
M  V30 5560 N 517.335 0.585699 1.46312 0
M  V30 5561 C 518.583 0.072278 2.01971 0
M  V30 5562 C 518.904 -1.29345 1.45928 0
M  V30 5563 O 518.174 -1.84973 0.645109 0
M  V30 5564 H 516.754 0.023729 0.746623 0
M  V30 5565 H 519.416 0.762155 1.7938 0
M  V30 5566 H 518.512 0.00552767 3.121 0
M  V30 5567 N 518.813 -1.54241 0.323641 0
M  V30 5568 C 520.038 -2.05452 -0.283605 0
M  V30 5569 C 520.463 -1.19823 -1.44997 0
M  V30 5570 O 519.821 -0.207358 -1.8011 0
M  V30 5571 C 519.869 -3.53823 -0.695795 0
M  V30 5572 O 518.973 -3.71134 -1.79815 0
M  V30 5573 H 518.314 -0.662024 -0.0511917 0
M  V30 5574 H 520.844 -1.99079 0.472073 0
M  V30 5575 H 520.854 -3.96094 -0.978434 0
M  V30 5576 H 519.529 -4.15602 0.157287 0
M  V30 5577 H 518.106 -3.40768 -1.51431 0
M  V30 5578 N 520.291 -0.0518155 -1.57515 0
M  V30 5579 C 521.521 0.63048 -1.96745 0
M  V30 5580 C 521.929 1.64875 -0.928054 0
M  V30 5581 O 521.272 1.83449 0.0960678 0
M  V30 5582 C 521.334 1.37381 -3.32215 0
M  V30 5583 C 520.998 0.511298 -4.54131 0
M  V30 5584 C 521.995 -0.222884 -5.19422 0
M  V30 5585 C 519.68 0.442035 -5.00351 0
M  V30 5586 C 521.674 -1.01476 -6.2927 0
M  V30 5587 C 519.361 -0.35353 -6.10077 0
M  V30 5588 C 520.359 -1.08062 -6.74397 0
M  V30 5589 O 520.047 -1.8631 -7.82013 0
M  V30 5590 H 519.779 0.177126 -0.652382 0
M  V30 5591 H 522.333 -0.114726 -2.05079 0
M  V30 5592 H 520.563 2.16466 -3.20436 0
M  V30 5593 H 522.252 1.9464 -3.56188 0
M  V30 5594 H 523.018 -0.178846 -4.8467 0
M  V30 5595 H 518.897 0.997562 -4.50077 0
M  V30 5596 H 522.441 -1.58279 -6.79407 0
M  V30 5597 H 518.338 -0.399205 -6.44264 0
M  V30 5598 H 519.106 -1.78528 -7.98793 0
M  V30 5599 N 521.769 1.56035 0.221574 0
M  V30 5600 C 523.18 1.69229 0.788567 0
M  V30 5601 C 523.531 0.653814 1.84986 0
M  V30 5602 O 522.656 -0.195065 2.15519 0
M  V30 5603 C 523.251 3.06809 1.43713 0
M  V30 5604 C 521.81 3.21858 1.95152 0
M  V30 5605 C 520.957 2.65155 0.811685 0
M  V30 5606 H 523.908 1.587 -0.00307894 0
M  V30 5607 H 523.929 3.02666 2.30594 0
M  V30 5608 H 523.441 3.82369 0.664475 0
M  V30 5609 H 521.542 2.51167 2.7522 0
M  V30 5610 H 521.655 4.29073 2.1315 0
M  V30 5611 H 520.019 2.23635 1.21899 0
M  V30 5612 H 520.802 3.43261 0.0516987 0
M  V30 5613 N 523.247 -0.488276 1.49845 0
M  V30 5614 C 524.179 -1.60539 1.63584 0
M  V30 5615 C 525.192 -1.5434 0.517972 0
M  V30 5616 O 526.381 -1.60041 0.790516 0
M  V30 5617 C 523.481 -2.99374 1.58835 0
M  V30 5618 C 522.654 -3.30624 2.86368 0
M  V30 5619 C 521.713 -4.4893 2.74496 0
M  V30 5620 O 520.739 -4.50085 3.48443 0
M  V30 5621 N 521.941 -5.49591 1.86894 0
M  V30 5622 H 524.706 -1.49176 2.59936 0
M  V30 5623 H 522.267 -0.67639 1.47094 0
M  V30 5624 H 524.259 -3.76459 1.48529 0
M  V30 5625 H 522.829 -3.04595 0.702892 0
M  V30 5626 H 522.049 -2.42314 3.1093 0
M  V30 5627 H 523.337 -3.48305 3.70892 0
M  V30 5628 H 522.735 -5.51467 1.26097 0
M  V30 5629 H 521.292 -6.25728 1.82503 0
M  V30 5630 N 524.725 -1.39134 -0.740242 0
M  V30 5631 C 525.675 -1.33928 -1.84519 0
M  V30 5632 C 526.659 -0.221097 -1.59374 0
M  V30 5633 O 527.851 -0.458195 -1.70967 0
M  V30 5634 C 524.98 -1.17991 -3.22387 0
M  V30 5635 C 524.066 -2.34488 -3.53378 0
M  V30 5636 N 524.457 -3.59954 -3.5534 0
M  V30 5637 C 522.755 -2.27331 -3.83714 0
M  V30 5638 C 523.456 -4.36962 -3.83978 0
M  V30 5639 N 522.432 -3.66482 -4.01487 0
M  V30 5640 H 526.234 -2.28907 -1.84333 0
M  V30 5641 H 523.748 -1.32555 -0.938237 0
M  V30 5642 H 525.745 -1.12345 -4.01478 0
M  V30 5643 H 524.405 -0.23957 -3.23815 0
M  V30 5644 H 525.416 -3.93448 -3.36778 0
M  V30 5645 H 522.093 -1.41531 -3.92779 0
M  V30 5646 H 523.483 -5.45692 -3.92008 0
M  V30 5647 N 526.204 0.969867 -1.24223 0
M  V30 5648 C 527.453 1.70687 -1.07466 0
M  V30 5649 C 527.766 1.91736 0.386861 0
M  V30 5650 O 528.972 2.62986 0.674581 0
M  V30 5651 C 527.428 3.07217 -1.87472 0
M  V30 5652 C 527.036 2.94018 -3.3802 0
M  V30 5653 C 528.78 3.84804 -1.79237 0
M  V30 5654 C 526.687 4.25844 -4.10379 0
M  V30 5655 H 525.617 0.640067 -0.398536 0
M  V30 5656 H 528.268 1.08092 -1.48285 0
M  V30 5657 H 526.65 3.70628 -1.39466 0
M  V30 5658 H 527.824 2.39632 -3.9359 0
M  V30 5659 H 526.139 2.29898 -3.47183 0
M  V30 5660 H 528.736 4.82417 -2.30603 0
M  V30 5661 H 529.079 4.09356 -0.757197 0
M  V30 5662 H 529.612 3.28115 -2.24912 0
M  V30 5663 H 526.351 4.06486 -5.14246 0
M  V30 5664 H 525.871 4.80054 -3.59594 0
M  V30 5665 H 527.55 4.94475 -4.17257 0
M  V30 5666 N 527.682 1.05563 1.17022 0
M  V30 5667 C 528.63 0.653887 2.2322 0
M  V30 5668 C 529.624 -0.326642 1.66221 0
M  V30 5669 O 530.83 -0.192301 1.7897 0
M  V30 5670 H 527.205 0.193297 0.726733 0
M  V30 5671 H 529.176 1.5596 2.54399 0
M  V30 5672 C 527.925 0.0485434 3.47666 0
M  V30 5673 H 527.248 0.79413 3.91834 0
M  V30 5674 H 528.688 -0.195133 4.23551 0
M  V30 5675 C 527.147 -1.20583 3.14581 0
M  V30 5676 O 527.677 -2.29475 3.29703 0
M  V30 5677 N 525.883 -1.10493 2.68774 0
M  V30 5678 H 525.43 -0.218795 2.56669 0
M  V30 5679 H 525.388 -1.94507 2.47011 0
M  V30 5680 N 529.16 -1.33526 0.837174 0
M  V30 5681 C 530.409 -1.97098 0.428387 0
M  V30 5682 C 530.722 -1.67062 -1.01734 0
M  V30 5683 O 531.928 -2.24235 -1.53072 0
M  V30 5684 C 530.384 -3.52725 0.715075 0
M  V30 5685 C 529.992 -3.9164 2.17537 0
M  V30 5686 C 531.736 -4.22857 0.373154 0
M  V30 5687 C 529.643 -5.40237 2.40619 0
M  V30 5688 H 528.573 -0.737589 0.156455 0
M  V30 5689 H 531.224 -1.52169 1.02552 0
M  V30 5690 H 529.606 -3.95971 0.0475904 0
M  V30 5691 H 530.78 -3.59456 2.88319 0
M  V30 5692 H 529.095 -3.34485 2.4801 0
M  V30 5693 H 531.692 -5.32133 0.523264 0
M  V30 5694 H 532.035 -4.10647 -0.683708 0
M  V30 5695 H 532.568 -3.85135 0.995801 0
M  V30 5696 H 529.307 -5.57449 3.44864 0
M  V30 5697 H 528.827 -5.73887 1.74396 0
M  V30 5698 H 530.506 -6.07102 2.23688 0
M  V30 5699 N 530.638 -0.59345 -1.46 0
M  V30 5700 C 531.863 -0.0872365 -2.07216 0
M  V30 5701 C 532.288 1.2131 -1.43755 0
M  V30 5702 O 531.646 1.73528 -0.525152 0
M  V30 5703 C 531.694 0.0538197 -3.6056 0
M  V30 5704 O 530.798 1.10765 -3.97247 0
M  V30 5705 H 530.139 -0.0676598 -0.660544 0
M  V30 5706 H 532.669 -0.819445 -1.87473 0
M  V30 5707 H 532.679 0.256567 -4.07193 0
M  V30 5708 H 531.354 -0.895739 -4.0614 0
M  V30 5709 H 529.931 0.882501 -3.62307 0
M  V30 5710 N 532.116 1.54067 -0.331816 0
M  V30 5711 C 533.532 1.59587 0.0205388 0
M  V30 5712 C 533.732 1.34813 1.49759 0
M  V30 5713 O 532.788 1.13661 2.25471 0
M  V30 5714 C 534.101 2.97959 -0.405103 0
M  V30 5715 C 535.649 3.10964 -0.356454 0
M  V30 5716 C 536.124 4.51694 -0.757384 0
M  V30 5717 N 537.615 4.57709 -0.71111 0
M  V30 5718 C 538.35 5.64729 -0.993427 0
M  V30 5719 N 537.846 6.79652 -1.3433 0
M  V30 5720 N 539.639 5.54546 -0.918442 0
M  V30 5721 H 531.79 1.68426 -1.29407 0
M  V30 5722 H 534.053 0.78819 -0.526745 0
M  V30 5723 H 533.759 3.21115 -1.43451 0
M  V30 5724 H 533.633 3.76524 0.225692 0
M  V30 5725 H 536.02 2.87538 0.663763 0
M  V30 5726 H 536.101 2.34484 -1.02229 0
M  V30 5727 H 535.745 4.75853 -1.77555 0
M  V30 5728 H 535.675 5.26555 -0.0691444 0
M  V30 5729 H 538.166 3.75176 -0.452883 0
M  V30 5730 H 538.479 7.57221 -1.54388 0
M  V30 5731 H 536.824 6.81128 -1.38164 0
M  V30 5732 H 540.015 4.63641 -0.644536 0
M  V30 5733 H 540.188 6.37861 -1.14181 0
M  V30 5734 N 533.594 0.0601682 1.57485 0
M  V30 5735 C 534.542 -0.928899 2.13247 0
M  V30 5736 C 535.536 -1.31616 1.06647 0
M  V30 5737 O 536.742 -1.29476 1.25043 0
M  V30 5738 H 533.117 -0.317455 0.681708 0
M  V30 5739 H 535.088 -0.433566 2.95233 0
M  V30 5740 C 533.837 -2.19121 2.69965 0
M  V30 5741 H 533.16 -1.90204 3.51657 0
M  V30 5742 H 534.6 -2.86465 3.12592 0
M  V30 5743 C 533.059 -2.94195 1.64168 0
M  V30 5744 O 533.589 -3.87468 1.05978 0
M  V30 5745 N 531.795 -2.57089 1.35476 0
M  V30 5746 H 531.342 -1.81314 1.82984 0
M  V30 5747 H 531.3 -3.07624 0.649196 0
M  V30 5748 N 535.072 -1.5615 -0.213296 0
M  V30 5749 C 536.319 -1.79546 -0.936462 0
M  V30 5750 C 536.647 -0.630337 -1.84003 0
M  V30 5751 O 535.902 0.384883 -1.91878 0
M  V30 5752 C 536.201 -3.08772 -1.79985 0
M  V30 5753 C 535.867 -4.38532 -1.04882 0
M  V30 5754 C 534.529 -4.73787 -0.841393 0
M  V30 5755 C 536.881 -5.18609 -0.51907 0
M  V30 5756 C 534.209 -5.86627 -0.0924403 0
M  V30 5757 C 536.561 -6.32229 0.216581 0
M  V30 5758 C 535.225 -6.6608 0.435191 0
M  V30 5759 H 534.495 -0.657004 -0.342676 0
M  V30 5760 H 537.142 -1.9041 -0.204051 0
M  V30 5761 H 535.447 -2.93065 -2.60038 0
M  V30 5762 H 537.144 -3.24077 -2.36168 0
M  V30 5763 H 533.734 -4.10855 -1.22048 0
M  V30 5764 H 537.918 -4.91801 -0.666775 0
M  V30 5765 H 533.174 -6.11338 0.087081 0
M  V30 5766 H 537.348 -6.93503 0.634538 0
M  V30 5767 H 534.975 -7.5336 1.01746 0
M  V30 5768 N 536.55 0.480323 -1.50102 0
M  V30 5769 C 537.775 1.26126 -1.64642 0
M  V30 5770 C 538.2 1.85257 -0.325823 0
M  V30 5771 O 537.558 1.66854 0.709194 0
M  V30 5772 C 537.606 2.35243 -2.73301 0
M  V30 5773 O 536.71 3.39646 -2.33911 0
M  V30 5774 H 536.051 0.371463 -0.550374 0
M  V30 5775 H 538.581 0.572696 -1.96421 0
M  V30 5776 H 538.591 2.80695 -2.96098 0
M  V30 5777 H 537.266 1.91574 -3.6915 0
M  V30 5778 H 535.843 2.99969 -2.21525 0
M  V30 5779 N 538.028 1.39524 0.732853 0
M  V30 5780 C 538.975 1.38416 1.84688 0
M  V30 5781 C 539.945 0.243539 1.64305 0
M  V30 5782 O 541.13 0.438979 1.85681 0
M  V30 5783 C 538.27 1.23555 3.22224 0
M  V30 5784 C 537.383 2.47179 3.54298 0
M  V30 5785 C 536.518 2.2489 4.81246 0
M  V30 5786 C 535.557 3.44178 5.0617 0
M  V30 5787 N 534.694 3.21192 6.24323 0
M  V30 5788 H 539.534 2.33645 1.84971 0
M  V30 5789 H 537.071 1.16059 0.903804 0
M  V30 5790 H 539.029 1.12949 4.0162 0
M  V30 5791 H 537.659 0.31954 3.21215 0
M  V30 5792 H 536.711 2.68379 2.69587 0
M  V30 5793 H 538.023 3.36022 3.68633 0
M  V30 5794 H 537.177 2.11538 5.68627 0
M  V30 5795 H 535.916 1.33443 4.69089 0
M  V30 5796 H 534.921 3.58025 4.17251 0
M  V30 5797 H 536.146 4.36528 5.20212 0
M  V30 5798 H 534.092 2.32413 6.1345 0
M  V30 5799 H 534.009 4.03594 6.39256 0
M  V30 5800 H 535.277 3.1154 7.14537 0
M  V30 5801 N 539.506 -0.963266 1.24736 0
M  V30 5802 C 540.436 -2.07628 1.06832 0
M  V30 5803 C 541.417 -1.70088 -0.0200566 0
M  V30 5804 O 542.602 -1.93636 0.147854 0
M  V30 5805 C 539.732 -3.40636 0.677069 0
M  V30 5806 C 538.686 -3.9215 1.71471 0
M  V30 5807 C 538.012 -5.21553 1.1784 0
M  V30 5808 C 539.312 -4.19493 3.11164 0
M  V30 5809 H 541.006 -2.22864 1.9993 0
M  V30 5810 H 538.552 -1.07093 0.96266 0
M  V30 5811 H 540.505 -4.17941 0.538792 0
M  V30 5812 H 539.229 -3.25313 -0.289612 0
M  V30 5813 H 537.888 -3.17005 1.84128 0
M  V30 5814 H 537.536 -5.02593 0.202195 0
M  V30 5815 H 537.236 -5.56988 1.87185 0
M  V30 5816 H 538.76 -6.01463 1.05233 0
M  V30 5817 H 540.174 -4.87487 3.01711 0
M  V30 5818 H 538.571 -4.66165 3.77902 0
M  V30 5819 H 539.641 -3.26097 3.58871 0
M  V30 5820 N 540.985 -1.06182 -1.16461 0
M  V30 5821 C 541.915 -0.692861 -2.22984 0
M  V30 5822 C 542.896 0.314122 -1.67174 0
M  V30 5823 O 544.081 0.189499 -1.93273 0
M  V30 5824 C 541.211 -0.07732 -3.47214 0
M  V30 5825 C 540.165 -1.01015 -4.15909 0
M  V30 5826 C 539.491 -0.257973 -5.34077 0
M  V30 5827 C 540.791 -2.33868 -4.67015 0
M  V30 5828 H 542.485 -1.58343 -2.54102 0
M  V30 5829 H 540.031 -0.76279 -1.22137 0
M  V30 5830 H 541.984 0.19266 -4.20959 0
M  V30 5831 H 540.708 0.848254 -3.15392 0
M  V30 5832 H 539.367 -1.26486 -3.44088 0
M  V30 5833 H 539.015 0.670684 -4.98509 0
M  V30 5834 H 538.715 -0.879638 -5.80979 0
M  V30 5835 H 540.239 0.00448788 -6.106 0
M  V30 5836 H 541.653 -2.1279 -5.32347 0
M  V30 5837 H 540.05 -2.91522 -5.24533 0
M  V30 5838 H 541.12 -2.97019 -3.83286 0
M  V30 5839 N 542.463 1.3308 -0.844243 0
M  V30 5840 C 543.688 2.02341 -0.455282 0
M  V30 5841 C 544.113 1.6308 0.93737 0
M  V30 5842 O 543.471 0.826118 1.61385 0
M  V30 5843 C 543.519 3.55743 -0.58988 0
M  V30 5844 O 542.623 4.1063 0.38166 0
M  V30 5845 H 541.964 0.637898 -0.184343 0
M  V30 5846 H 544.494 1.6986 -1.14056 0
M  V30 5847 H 544.504 4.05243 -0.473522 0
M  V30 5848 H 543.179 3.83662 -1.60549 0
M  V30 5849 H 541.756 3.72236 0.22241 0
M  V30 5850 N 543.941 0.601185 1.45683 0
M  V30 5851 C 544.871 -0.108824 2.33246 0
M  V30 5852 C 545.852 -0.865223 1.46451 0
M  V30 5853 O 547.037 -0.83704 1.75235 0
M  V30 5854 C 544.167 -1.11101 3.2905 0
M  V30 5855 C 543.121 -0.468244 4.25431 0
M  V30 5856 C 542.447 -1.57822 5.10878 0
M  V30 5857 C 543.747 0.606469 5.18767 0
M  V30 5858 H 545.441 0.622306 2.92861 0
M  V30 5859 H 542.987 0.300714 1.40825 0
M  V30 5860 H 544.94 -1.61622 3.89174 0
M  V30 5861 H 543.664 -1.87265 2.67581 0
M  V30 5862 H 542.323 0.0160484 3.66596 0
M  V30 5863 H 541.971 -2.32998 4.45781 0
M  V30 5864 H 541.671 -1.15369 5.76163 0
M  V30 5865 H 543.195 -2.08583 5.73869 0
M  V30 5866 H 544.609 0.185589 5.73 0
M  V30 5867 H 543.006 0.952381 5.92494 0
M  V30 5868 H 544.076 1.48559 4.61582 0
M  V30 5869 N 545.419 -1.53889 0.339982 0
M  V30 5870 C 546.835 -1.59595 -0.0120752 0
M  V30 5871 C 547.035 -1.35605 -1.49042 0
M  V30 5872 O 546.091 -1.14856 -2.24865 0
M  V30 5873 C 547.404 -2.9774 0.420898 0
M  V30 5874 C 548.952 -3.1077 0.37294 0
M  V30 5875 C 549.427 -4.51286 0.781327 0
M  V30 5876 N 550.918 -4.57325 0.735374 0
M  V30 5877 C 551.653 -5.64194 1.02336 0
M  V30 5878 N 551.149 -6.7893 1.37933 0
M  V30 5879 N 552.942 -5.54051 0.947838 0
M  V30 5880 H 545.093 -1.67738 1.30299 0
M  V30 5881 H 547.356 -0.785385 0.530918 0
M  V30 5882 H 547.062 -3.20349 1.45152 0
M  V30 5883 H 546.936 -3.76639 -0.205721 0
M  V30 5884 H 549.323 -2.87886 -0.648505 0
M  V30 5885 H 549.404 -2.33939 1.03472 0
M  V30 5886 H 549.048 -4.74905 1.80077 0
M  V30 5887 H 548.978 -5.26511 0.0970679 0
M  V30 5888 H 551.469 -3.74931 0.472773 0
M  V30 5889 H 551.782 -7.56392 1.58402 0
M  V30 5890 H 550.127 -6.80386 1.41774 0
M  V30 5891 H 553.318 -4.63293 0.669115 0
M  V30 5892 H 553.491 -6.37246 1.17563 0
M  V30 5893 N 546.897 -0.0685191 -1.57451 0
M  V30 5894 C 547.86 0.885173 -2.11417 0
M  V30 5895 C 548.86 1.22853 -1.03748 0
M  V30 5896 O 550.05 1.16235 -1.2975 0
M  V30 5897 C 547.182 2.18964 -2.61281 0
M  V30 5898 H 548.375 0.417034 -2.96986 0
M  V30 5899 H 545.928 0.18014 -1.55258 0
M  V30 5900 H 546.663 2.70321 -1.79156 0
M  V30 5901 H 546.448 1.9534 -3.39977 0
M  V30 5902 H 547.938 2.87242 -3.0312 0
M  V30 5903 N 548.375 1.56261 0.205012 0
M  V30 5904 C 549.305 1.96779 1.257 0
M  V30 5905 C 550.286 0.838309 1.48008 0
M  V30 5906 O 551.471 1.10189 1.59913 0
M  V30 5907 C 548.601 2.29876 2.60335 0
M  V30 5908 C 547.555 3.45469 2.52656 0
M  V30 5909 C 546.881 3.64215 3.91473 0
M  V30 5910 C 548.181 4.79954 2.06014 0
M  V30 5911 H 549.875 2.84904 0.920338 0
M  V30 5912 H 547.421 1.37072 0.441277 0
M  V30 5913 H 549.374 2.56814 3.34102 0
M  V30 5914 H 548.098 1.38622 2.95722 0
M  V30 5915 H 546.757 3.18605 1.81345 0
M  V30 5916 H 546.405 2.70309 4.24196 0
M  V30 5917 H 546.105 4.41973 3.87213 0
M  V30 5918 H 547.629 3.93519 4.66878 0
M  V30 5919 H 549.043 5.05989 2.69533 0
M  V30 5920 H 547.44 5.61111 2.12777 0
M  V30 5921 H 548.51 4.74201 1.01297 0
M  V30 5922 N 549.853 -0.472356 1.50355 0
M  V30 5923 C 550.803 -1.56809 1.65514 0
M  V30 5924 C 551.787 -1.5261 0.509801 0
M  V30 5925 O 552.979 -1.59655 0.764145 0
M  V30 5926 C 550.108 -2.9526 1.75146 0
M  V30 5927 C 549.194 -3.04348 2.95353 0
M  V30 5928 N 549.585 -2.83253 4.19048 0
M  V30 5929 C 547.883 -3.35482 2.93884 0
M  V30 5930 C 548.584 -2.97273 5.00003 0
M  V30 5931 N 547.56 -3.27418 4.33934 0
M  V30 5932 H 551.362 -1.39197 2.58846 0
M  V30 5933 H 548.876 -0.67906 1.47521 0
M  V30 5934 H 550.873 -3.74044 1.8411 0
M  V30 5935 H 549.533 -3.1392 0.829717 0
M  V30 5936 H 550.544 -2.5886 4.48567 0
M  V30 5937 H 547.221 -3.60138 2.11204 0
M  V30 5938 H 548.611 -2.85214 6.08361 0
M  V30 5939 N 551.331 -1.39911 -0.725443 0
M  V30 5940 C 552.261 -1.42138 -1.85254 0
M  V30 5941 C 553.242 -0.283513 -1.67721 0
M  V30 5942 O 554.427 -0.490717 -1.87898 0
M  V30 5943 C 551.557 -1.27354 -3.23107 0
M  V30 5944 C 550.511 -2.3864 -3.55296 0
M  V30 5945 C 549.837 -2.08939 -4.92188 0
M  V30 5946 C 551.137 -3.8097 -3.57295 0
M  V30 5947 H 552.831 -2.36461 -1.83648 0
M  V30 5948 H 550.377 -1.13817 -0.882138 0
M  V30 5949 H 552.33 -1.2753 -4.01639 0
M  V30 5950 H 551.054 -0.295025 -3.25265 0
M  V30 5951 H 549.713 -2.37696 -2.79099 0
M  V30 5952 H 549.361 -1.09502 -4.90936 0
M  V30 5953 H 549.061 -2.83491 -5.14691 0
M  V30 5954 H 550.585 -2.10781 -5.73065 0
M  V30 5955 H 551.999 -3.8379 -4.25885 0
M  V30 5956 H 550.396 -4.5496 -3.9132 0
M  V30 5957 H 551.466 -4.11261 -2.5689 0
M  V30 5958 N 552.809 0.956637 -1.25245 0
M  V30 5959 C 554.225 1.22733 -1.02023 0
M  V30 5960 C 554.425 1.99761 0.264186 0
M  V30 5961 O 553.481 2.32814 0.977436 0
M  V30 5962 C 554.794 2.00367 -2.24217 0
M  V30 5963 C 556.342 2.13418 -2.28958 0
M  V30 5964 C 556.817 2.9445 -3.50803 0
M  V30 5965 N 558.308 3.02029 -3.51187 0
M  V30 5966 C 559.043 3.65116 -4.42129 0
M  V30 5967 N 558.539 4.2983 -5.43339 0
M  V30 5968 N 560.332 3.62237 -4.29815 0
M  V30 5969 H 552.483 0.441282 -2.07765 0
M  V30 5970 H 554.746 0.257686 -0.912306 0
M  V30 5971 H 554.452 1.51165 -3.17556 0
M  V30 5972 H 554.326 3.01077 -2.27228 0
M  V30 5973 H 556.713 2.61819 -1.36143 0
M  V30 5974 H 556.794 1.1202 -2.29968 0
M  V30 5975 H 556.438 2.46741 -4.43939 0
M  V30 5976 H 556.368 3.9607 -3.47039 0
M  V30 5977 H 558.859 2.56007 -2.77973 0
M  V30 5978 H 559.172 4.75819 -6.08947 0
M  V30 5979 H 557.517 4.28465 -5.47214 0
M  V30 5980 H 560.708 3.10863 -3.49974 0
M  V30 5981 H 560.881 4.11117 -5.00886 0
M  V30 5982 N 554.287 1.06798 1.15896 0
M  V30 5983 C 555.535 0.786211 1.8618 0
M  V30 5984 C 555.856 -0.689547 1.82401 0
M  V30 5985 O 555.126 -1.49913 1.26107 0
M  V30 5986 H 553.706 0.287843 0.689315 0
M  V30 5987 H 556.368 1.35055 1.40521 0
M  V30 5988 H 555.464 1.1157 2.91477 0
M  V30 5989 N 555.766 -1.3263 0.851289 0
M  V30 5990 C 556.996 -2.01271 0.466222 0
M  V30 5991 C 557.404 -1.64156 -0.940714 0
M  V30 5992 O 556.747 -0.857109 -1.62479 0
M  V30 5993 C 556.809 -3.55695 0.521672 0
M  V30 5994 C 556.473 -4.16227 1.88691 0
M  V30 5995 C 557.47 -4.34699 2.85189 0
M  V30 5996 C 555.155 -4.52377 2.18313 0
M  V30 5997 C 557.149 -4.88484 4.09465 0
M  V30 5998 C 554.836 -5.05868 3.42843 0
M  V30 5999 C 555.834 -5.23869 4.38235 0
M  V30 6000 O 555.522 -5.76218 5.6056 0
M  V30 6001 H 555.254 -0.651034 0.18202 0
M  V30 6002 H 557.808 -1.7026 1.14894 0
M  V30 6003 H 556.038 -3.86086 -0.217888 0
M  V30 6004 H 557.727 -4.05613 0.152682 0
M  V30 6005 H 558.493 -4.07107 2.63607 0
M  V30 6006 H 554.372 -4.37652 1.44851 0
M  V30 6007 H 557.916 -5.02451 4.83931 0
M  V30 6008 H 553.813 -5.32891 3.64277 0
M  V30 6009 H 554.581 -5.94616 5.62471 0
M  V30 6010 N 557.244 -0.608902 -1.45362 0
M  V30 6011 C 558.49 -0.104762 -2.02529 0
M  V30 6012 C 558.823 1.26191 -1.47613 0
M  V30 6013 O 558.098 1.8327 -0.65134 0
M  V30 6014 C 558.381 -0.0672661 -3.60037 0
M  V30 6015 C 558.234 -1.4647 -4.25284 0
M  V30 6016 C 559.553 0.619877 -4.35713 0
M  V30 6017 H 556.672 -0.0395438 -0.735938 0
M  V30 6018 H 559.314 -0.781126 -1.73201 0
M  V30 6019 H 557.464 0.50871 -3.85155 0
M  V30 6020 H 559.136 -2.08785 -4.11347 0
M  V30 6021 H 557.379 -2.02502 -3.83634 0
M  V30 6022 H 558.05 -1.39069 -5.34195 0
M  V30 6023 H 560.526 0.130297 -4.15896 0
M  V30 6024 H 559.402 0.615224 -5.45441 0
M  V30 6025 H 559.663 1.68621 -4.0868 0
M  V30 6026 N 558.722 1.53707 -0.348139 0
M  V30 6027 C 559.969 2.00988 0.246966 0
M  V30 6028 C 560.297 1.23586 1.50189 0
M  V30 6029 O 559.552 0.312817 1.93184 0
M  V30 6030 C 559.851 3.52292 0.602061 0
M  V30 6031 C 559.517 4.47453 -0.556509 0
M  V30 6032 C 558.179 4.73188 -0.874446 0
M  V30 6033 C 560.531 5.03851 -1.33354 0
M  V30 6034 C 557.859 5.52577 -1.9717 0
M  V30 6035 C 560.211 5.84437 -2.42108 0
M  V30 6036 C 558.875 6.08465 -2.74456 0
M  V30 6037 H 558.145 0.735469 0.0903712 0
M  V30 6038 H 560.792 1.85464 -0.477001 0
M  V30 6039 H 559.097 3.65672 1.40681 0
M  V30 6040 H 560.794 3.86337 1.07447 0
M  V30 6041 H 557.384 4.27558 -0.298652 0
M  V30 6042 H 561.568 4.8393 -1.10117 0
M  V30 6043 H 556.824 5.69418 -2.22651 0
M  V30 6044 H 560.998 6.27151 -3.02745 0
M  V30 6045 H 558.625 6.69768 -3.59604 0
M  V30 6046 N 560.2 0.0768682 1.57412 0
M  V30 6047 C 561.132 -0.918248 2.10002 0
M  V30 6048 C 562.145 -1.25808 1.03325 0
M  V30 6049 O 563.334 -1.21438 1.30824 0
M  V30 6050 C 560.434 -2.23263 2.54964 0
M  V30 6051 C 559.607 -2.07088 3.8527 0
M  V30 6052 C 558.666 -3.21876 4.16272 0
M  V30 6053 O 557.692 -2.96643 4.8579 0
M  V30 6054 N 558.894 -4.4712 3.70221 0
M  V30 6055 H 561.659 -0.469209 2.96004 0
M  V30 6056 H 559.22 -0.108725 1.61535 0
M  V30 6057 H 561.212 -2.9897 2.72762 0
M  V30 6058 H 559.782 -2.59649 1.74072 0
M  V30 6059 H 559.002 -1.15818 3.76802 0
M  V30 6060 H 560.29 -1.93537 4.70554 0
M  V30 6061 H 559.688 -4.70506 3.1407 0
M  V30 6062 H 558.245 -5.19837 3.93209 0
M  V30 6063 N 561.678 -1.56367 -0.196722 0
M  V30 6064 C 562.588 -1.97617 -1.2643 0
M  V30 6065 C 563.604 -0.883598 -1.49895 0
M  V30 6066 O 564.78 -1.18921 -1.62541 0
M  V30 6067 C 561.845 -2.30595 -2.58895 0
M  V30 6068 C 560.906 -3.53551 -2.43516 0
M  V30 6069 C 560.139 -3.84946 -3.69665 0
M  V30 6070 O 560.362 -3.17655 -4.73763 0
M  V30 6071 O 559.296 -4.78379 -3.65291 0
M  V30 6072 H 563.122 -2.88648 -0.944233 0
M  V30 6073 H 560.707 -1.43901 -0.401592 0
M  V30 6074 H 562.589 -2.52889 -3.37083 0
M  V30 6075 H 561.264 -1.42732 -2.90533 0
M  V30 6076 H 560.171 -3.36507 -1.63445 0
M  V30 6077 H 561.504 -4.41875 -2.16812 0
M  V30 6078 N 563.156 0.464375 -1.50603 0
M  V30 6079 C 564.086 1.56944 -1.72889 0
M  V30 6080 C 565.067 1.59979 -0.577997 0
M  V30 6081 O 566.252 1.76138 -0.817855 0
M  V30 6082 C 563.382 2.95225 -1.8292 0
M  V30 6083 C 562.336 3.07056 -2.98162 0
M  V30 6084 C 561.662 4.47051 -2.93343 0
M  V30 6085 C 562.962 2.83648 -4.38567 0
M  V30 6086 H 564.656 1.38547 -2.65415 0
M  V30 6087 H 562.202 0.665082 -1.27721 0
M  V30 6088 H 564.155 3.72467 -1.97095 0
M  V30 6089 H 562.879 3.14793 -0.870209 0
M  V30 6090 H 561.538 2.32248 -2.83648 0
M  V30 6091 H 561.186 4.63547 -1.95276 0
M  V30 6092 H 560.886 4.55902 -3.70712 0
M  V30 6093 H 562.41 5.26304 -3.09575 0
M  V30 6094 H 563.824 3.50636 -4.53572 0
M  V30 6095 H 562.221 3.03937 -5.17438 0
M  V30 6096 H 563.291 1.79451 -4.50472 0
M  V30 6097 N 564.634 1.40294 0.718013 0
M  V30 6098 C 566.05 1.2227 1.02577 0
M  V30 6099 C 566.25 0.0961976 2.0127 0
M  V30 6100 O 565.306 -0.546695 2.46511 0
M  V30 6101 C 566.619 2.56348 1.57182 0
M  V30 6102 C 568.167 2.6334 1.69178 0
M  V30 6103 C 568.642 3.9768 2.27188 0
M  V30 6104 N 570.133 3.99409 2.34578 0
M  V30 6105 C 570.868 5.00141 2.8044 0
M  V30 6106 N 570.364 6.11268 3.26073 0
M  V30 6107 N 572.157 4.87511 2.79802 0
M  V30 6108 H 564.308 2.12304 0.0637899 0
M  V30 6109 H 566.571 0.943632 0.0909036 0
M  V30 6110 H 566.277 3.3942 0.921262 0
M  V30 6111 H 566.151 2.77266 2.55741 0
M  V30 6112 H 568.538 1.80641 2.33351 0
M  V30 6113 H 568.619 2.46255 0.692247 0
M  V30 6114 H 568.263 4.80817 1.63638 0
M  V30 6115 H 568.193 4.12093 3.27852 0
M  V30 6116 H 570.684 3.19162 2.02346 0
M  V30 6117 H 570.997 6.84023 3.59628 0
M  V30 6118 H 569.342 6.14837 3.24038 0
M  V30 6119 H 572.533 3.9979 2.43487 0
M  V30 6120 H 572.706 5.66158 3.15228 0
M  V30 6121 N 566.112 -0.949982 1.2575 0
M  V30 6122 C 567.022 -2.08109 1.08295 0
M  V30 6123 C 568.038 -1.7399 0.0188181 0
M  V30 6124 O 569.214 -2.00187 0.220724 0
M  V30 6125 C 566.279 -3.39383 0.708534 0
M  V30 6126 C 565.34 -3.8734 1.85111 0
M  V30 6127 C 564.573 -5.12349 1.49447 0
M  V30 6128 O 564.796 -5.6905 0.392212 0
M  V30 6129 O 563.73 -5.5513 2.32624 0
M  V30 6130 H 567.556 -2.25738 2.03165 0
M  V30 6131 H 565.141 -1.06545 1.04731 0
M  V30 6132 H 567.023 -4.18277 0.512061 0
M  V30 6133 H 565.698 -3.23013 -0.210854 0
M  V30 6134 H 564.605 -3.09429 2.10248 0
M  V30 6135 H 565.938 -4.08216 2.74991 0
M  V30 6136 N 567.59 -1.07411 -1.15328 0
M  V30 6137 C 568.867 -0.710732 -1.82231 0
M  V30 6138 C 569.247 0.806732 -1.95077 0
M  V30 6139 O 568.595 1.72139 -1.50268 0
M  V30 6140 C 568.805 -1.42586 -3.18544 0
M  V30 6141 C 570.153 -1.57836 -3.94174 0
M  V30 6142 O 571.177 -1.38669 -3.281 0
M  V30 6143 O 570.036 -1.8938 -5.12638 0
M  V30 6144 H 567.13 -0.25297 -0.78736 0
M  V30 6145 H 569.676 -1.17508 -1.22434 0
M  V30 6146 H 568.448 -2.46008 -3.04296 0
M  V30 6147 H 568.071 -0.952332 -3.86026 0
M  V30 6148 N 569.068 1.32177 -0.85831 0
M  V30 6149 C 570.345 1.91781 -0.384624 0
M  V30 6150 C 570.725 1.78171 1.13217 0
M  V30 6151 O 570.073 1.18209 1.95548 0
M  V30 6152 C 570.283 3.38414 -0.853047 0
M  V30 6153 C 571.631 4.15542 -0.872359 0
M  V30 6154 O 572.655 3.47148 -0.797926 0
M  V30 6155 O 571.514 5.37678 -0.978009 0
M  V30 6156 H 568.608 0.819259 -0.112886 0
M  V30 6157 H 571.154 1.40923 -0.945453 0
M  V30 6158 H 569.926 3.4228 -1.89632 0
M  V30 6159 H 569.549 3.96683 -0.269874 0
M  V30 6160 N 570.547 0.616602 1.45037 0
M  V30 6161 C 571.794 0.115331 2.02171 0
M  V30 6162 C 572.122 -1.25748 1.48383 0
M  V30 6163 O 571.377 -1.84511 0.652229 0
M  V30 6164 C 571.676 0.0356829 3.57382 0
M  V30 6165 C 571.342 1.34535 4.30362 0
M  V30 6166 C 570.004 1.70408 4.50016 0
M  V30 6167 C 572.356 2.21049 4.72003 0
M  V30 6168 C 569.684 2.92529 5.0857 0
M  V30 6169 C 572.036 3.42427 5.31908 0
M  V30 6170 C 570.7 3.78541 5.49784 0
M  V30 6171 H 569.97 0.0422024 0.739797 0
M  V30 6172 H 572.617 0.80002 1.73988 0
M  V30 6173 H 570.922 -0.732314 3.84895 0
M  V30 6174 H 572.619 -0.368463 3.99304 0
M  V30 6175 H 569.209 1.05615 4.15383 0
M  V30 6176 H 573.393 1.94632 4.56544 0
M  V30 6177 H 568.649 3.20605 5.20598 0
M  V30 6178 H 572.823 4.09709 5.63127 0
M  V30 6179 H 570.45 4.73255 5.94923 0
M  V30 6180 N 572.025 -1.5352 0.356285 0
M  V30 6181 C 572.957 -2.23009 -0.529127 0
M  V30 6182 C 573.97 -1.241 -1.05371 0
M  V30 6183 O 575.159 -1.50379 -0.961679 0
M  V30 6184 C 572.259 -2.90685 -1.74229 0
M  V30 6185 C 571.432 -4.16019 -1.35081 0
M  V30 6186 C 570.491 -4.66989 -2.42502 0
M  V30 6187 O 569.517 -5.30895 -2.05279 0
M  V30 6188 N 570.719 -4.44006 -3.7395 0
M  V30 6189 H 573.484 -2.99627 0.0660501 0
M  V30 6190 H 571.045 -1.60885 0.181014 0
M  V30 6191 H 573.037 -3.21695 -2.4555 0
M  V30 6192 H 571.607 -2.17575 -2.24454 0
M  V30 6193 H 570.827 -3.91414 -0.467833 0
M  V30 6194 H 572.115 -4.9752 -1.06542 0
M  V30 6195 H 571.513 -3.92924 -4.06973 0
M  V30 6196 H 570.07 -4.7959 -4.41403 0
M  V30 6197 N 573.503 -0.0852151 -1.57369 0
M  V30 6198 C 574.914 0.445428 -1.81309 0
M  V30 6199 C 575.265 1.68795 -1.00013 0
M  V30 6200 O 574.39 2.15211 -0.226573 0
M  V30 6201 C 574.985 0.814887 -3.28854 0
M  V30 6202 C 573.544 1.29032 -3.53592 0
M  V30 6203 C 572.691 0.282089 -2.75861 0
M  V30 6204 H 575.642 -0.310771 -1.55627 0
M  V30 6205 H 575.663 1.67524 -3.41637 0
M  V30 6206 H 575.175 -0.0896309 -3.87996 0
M  V30 6207 H 573.276 2.21289 -2.9977 0
M  V30 6208 H 573.389 1.25898 -4.62262 0
M  V30 6209 H 571.753 0.762182 -2.43029 0
M  V30 6210 H 572.536 -0.614936 -3.37748 0
M  V30 6211 N 574.981 1.5647 0.188427 0
M  V30 6212 C 575.911 1.98101 1.23606 0
M  V30 6213 C 576.892 0.853961 1.47111 0
M  V30 6214 O 578.077 1.11879 1.58735 0
M  V30 6215 C 575.207 2.32624 2.57882 0
M  V30 6216 C 574.161 3.48129 2.48978 0
M  V30 6217 C 573.487 3.68347 3.87588 0
M  V30 6218 C 574.787 4.82112 2.00911 0
M  V30 6219 H 576.481 2.85864 0.890068 0
M  V30 6220 H 574.027 1.37532 0.426714 0
M  V30 6221 H 575.98 2.60343 3.3136 0
M  V30 6222 H 574.704 1.41751 2.94235 0
M  V30 6223 H 573.363 3.20511 1.77956 0
M  V30 6224 H 573.011 2.74793 4.21305 0
M  V30 6225 H 572.711 4.46055 3.82503 0
M  V30 6226 H 574.235 3.98449 4.62678 0
M  V30 6227 H 575.649 5.08819 2.64151 0
M  V30 6228 H 574.046 5.63337 2.06814 0
M  V30 6229 H 575.116 4.75249 0.96262 0
M  V30 6230 N 576.459 -0.456382 1.50847 0
M  V30 6231 C 577.392 -1.57177 1.65441 0
M  V30 6232 C 578.37 -1.54649 0.502224 0
M  V30 6233 O 579.554 -1.74057 0.723633 0
M  V30 6234 C 576.681 -2.95763 1.65052 0
M  V30 6235 C 575.727 -3.16389 2.86007 0
M  V30 6236 S 576.56 -2.94716 4.47105 0
M  V30 6237 C 577.716 -4.35617 4.49432 0
M  V30 6238 H 577.949 -1.44561 2.59787 0
M  V30 6239 H 575.482 -0.644758 1.40293 0
M  V30 6240 H 577.44 -3.75654 1.65512 0
M  V30 6241 H 576.101 -3.05756 0.719153 0
M  V30 6242 H 575.294 -4.17667 2.82081 0
M  V30 6243 H 574.896 -2.44293 2.8319 0
M  V30 6244 H 577.188 -5.28503 4.239 0
M  V30 6245 H 578.131 -4.44582 5.51137 0
M  V30 6246 H 578.539 -4.18382 3.78967 0
M  V30 6247 N 577.937 -1.40673 -0.710563 0
M  V30 6248 C 578.869 -1.37256 -1.83558 0
M  V30 6249 C 579.882 -0.277133 -1.60424 0
M  V30 6250 O 581.071 -0.537831 -1.70205 0
M  V30 6251 C 578.171 -1.1144 -3.20054 0
M  V30 6252 C 577.344 -2.32734 -3.70342 0
M  V30 6253 C 576.403 -2.03002 -4.85465 0
M  V30 6254 O 575.429 -2.75912 -4.97857 0
M  V30 6255 N 576.631 -1.01105 -5.71627 0
M  V30 6256 H 579.396 -2.34215 -1.86985 0
M  V30 6257 H 576.957 -1.35091 -0.892301 0
M  V30 6258 H 578.949 -0.895265 -3.94673 0
M  V30 6259 H 577.519 -0.231307 -3.11743 0
M  V30 6260 H 576.739 -2.70446 -2.86798 0
M  V30 6261 H 578.027 -3.13584 -4.00678 0
M  V30 6262 H 577.425 -0.407303 -5.64232 0
M  V30 6263 H 575.982 -0.85182 -6.4621 0
M  V30 6264 N 579.415 0.9433 -1.26252 0
M  V30 6265 C 580.345 2.05902 -1.10122 0
M  V30 6266 C 581.326 1.70099 -0.00700552 0
M  V30 6267 O 582.511 1.93377 -0.178641 0
M  V30 6268 C 579.641 3.39516 -0.731175 0
M  V30 6269 C 578.595 3.89372 -1.77688 0
M  V30 6270 C 577.921 5.19613 -1.26122 0
M  V30 6271 C 579.221 4.14489 -3.17799 0
M  V30 6272 H 580.915 2.19655 -2.03451 0
M  V30 6273 H 578.461 1.05548 -0.979576 0
M  V30 6274 H 580.414 4.17031 -0.605215 0
M  V30 6275 H 579.138 3.25733 0.23782 0
M  V30 6276 H 577.797 3.14036 -1.89148 0
M  V30 6277 H 577.445 5.02208 -0.282128 0
M  V30 6278 H 577.145 5.53939 -1.96023 0
M  V30 6279 H 578.669 5.99713 -1.14789 0
M  V30 6280 H 580.083 4.82625 -3.09428 0
M  V30 6281 H 578.48 4.60094 -3.85271 0
M  V30 6282 H 579.55 3.20347 -3.64014 0
M  V30 6283 N 580.893 1.08022 1.14757 0
M  V30 6284 C 582.304 0.829144 1.67279 0
M  V30 6285 C 582.655 -0.644721 1.85305 0
M  V30 6286 O 581.78 -1.49838 1.56133 0
M  V30 6287 C 582.375 1.49855 3.03857 0
M  V30 6288 C 580.934 1.29482 3.53428 0
M  V30 6289 C 580.081 1.56386 2.28995 0
M  V30 6290 H 583.032 1.24134 0.988762 0
M  V30 6291 H 583.053 0.923572 3.69121 0
M  V30 6292 H 582.565 2.57123 2.90705 0
M  V30 6293 H 580.666 0.242669 3.71809 0
M  V30 6294 H 580.779 2.01974 4.34446 0
M  V30 6295 H 579.143 0.985217 2.34874 0
M  V30 6296 H 579.926 2.64851 2.18423 0
M  V30 6297 N 582.371 -1.3172 0.865308 0
M  V30 6298 C 583.319 -2.30569 0.306674 0
M  V30 6299 C 584.313 -1.59317 -0.575724 0
M  V30 6300 O 585.519 -1.73961 -0.462343 0
M  V30 6301 H 581.894 -0.747681 0.0804834 0
M  V30 6302 H 583.865 -2.75165 1.15441 0
M  V30 6303 C 582.614 -3.44358 -0.480952 0
M  V30 6304 H 581.937 -3.99354 0.18876 0
M  V30 6305 H 583.377 -4.15652 -0.837241 0
M  V30 6306 C 581.836 -2.92574 -1.67039 0
M  V30 6307 O 582.366 -2.90954 -2.76964 0
M  V30 6308 N 580.572 -2.48835 -1.50097 0
M  V30 6309 H 580.119 -2.50353 -0.606738 0
M  V30 6310 H 580.077 -2.14543 -2.29823 0
M  V30 6311 N 583.85 -0.624285 -1.44708 0
M  V30 6312 C 584.779 0.0717025 -2.3339 0
M  V30 6313 C 585.76 0.841814 -1.47809 0
M  V30 6314 O 586.946 0.809056 -1.76544 0
M  V30 6315 C 584.076 1.05852 -3.30776 0
M  V30 6316 C 583.029 0.400503 -4.26122 0
M  V30 6317 C 582.356 1.49674 -5.13324 0
M  V30 6318 C 583.656 -0.688924 -5.17737 0
M  V30 6319 H 585.35 -0.668819 -2.91834 0
M  V30 6320 H 582.896 -0.32308 -1.40329 0
M  V30 6321 H 584.849 1.5541 -3.91696 0
M  V30 6322 H 583.572 1.82984 -2.70526 0
M  V30 6323 H 582.231 -0.0743687 -3.66525 0
M  V30 6324 H 581.88 2.25877 -4.49431 0
M  V30 6325 H 581.58 1.06188 -5.77926 0
M  V30 6326 H 583.104 1.99427 -5.77115 0
M  V30 6327 H 584.518 -0.276724 -5.72632 0
M  V30 6328 H 582.915 -1.04652 -5.90904 0
M  V30 6329 H 583.985 -1.55884 -4.5916 0
M  V30 6330 N 585.328 1.53329 -0.364422 0
M  V30 6331 C 586.553 2.06132 0.229033 0
M  V30 6332 C 586.978 1.23625 1.41769 0
M  V30 6333 O 586.336 0.255038 1.79497 0
M  V30 6334 C 586.384 3.55544 0.60174 0
M  V30 6335 O 585.488 3.75771 1.69912 0
M  V30 6336 H 584.829 0.663148 0.0336213 0
M  V30 6337 H 587.359 1.97758 -0.524689 0
M  V30 6338 H 587.369 3.98549 0.873073 0
M  V30 6339 H 586.044 4.15039 -0.267421 0
M  V30 6340 H 584.621 3.44663 1.42343 0
M  V30 6341 N 586.806 0.0935595 1.57322 0
M  V30 6342 C 588.034 -0.578934 1.98635 0
M  V30 6343 C 588.449 -1.61819 0.972626 0
M  V30 6344 O 587.806 -1.82461 -0.0379638 0
M  V30 6345 C 587.857 -1.22802 3.40003 0
M  V30 6346 O 587.578 -0.230334 4.37494 0
M  V30 6347 C 589.079 -1.98627 3.96311 0
M  V30 6348 H 586.299 -0.155324 0.652775 0
M  V30 6349 H 588.843 0.172393 2.03772 0
M  V30 6350 H 586.998 -1.93029 3.35885 0
M  V30 6351 H 587.412 -0.698649 5.19826 0
M  V30 6352 H 588.886 -2.39405 4.97382 0
M  V30 6353 H 589.363 -2.85151 3.34044 0
M  V30 6354 H 589.969 -1.3322 4.03897 0
M  V30 6355 N 588.284 -1.56567 -0.180126 0
M  V30 6356 C 589.533 -1.80685 -0.896426 0
M  V30 6357 C 589.846 -0.669335 -1.83791 0
M  V30 6358 O 591.052 -0.795209 -2.59593 0
M  V30 6359 C 589.508 -3.20132 -1.6445 0
M  V30 6360 C 589.116 -4.41727 -0.747088 0
M  V30 6361 C 590.86 -3.53549 -2.34955 0
M  V30 6362 C 588.767 -5.72195 -1.49489 0
M  V30 6363 H 587.697 -0.673758 -0.338477 0
M  V30 6364 H 590.348 -1.8289 -0.149467 0
M  V30 6365 H 588.73 -3.12218 -2.43589 0
M  V30 6366 H 589.904 -4.608 0.00671129 0
M  V30 6367 H 588.219 -4.16122 -0.152134 0
M  V30 6368 H 590.816 -4.48267 -2.91481 0
M  V30 6369 H 591.159 -2.78006 -3.09868 0
M  V30 6370 H 591.692 -3.62976 -1.62768 0
M  V30 6371 H 588.431 -6.50743 -0.788251 0
M  V30 6372 H 587.951 -5.57115 -2.22224 0
M  V30 6373 H 589.63 -6.1384 -2.04472 0
M  V30 6374 N 589.762 0.448376 -1.51087 0
M  V30 6375 C 590.71 1.56407 -1.72161 0
M  V30 6376 C 591.704 1.58878 -0.587721 0
M  V30 6377 O 592.91 1.62755 -0.768822 0
M  V30 6378 H 589.285 0.519423 -0.543786 0
M  V30 6379 H 591.256 1.35803 -2.65707 0
M  V30 6380 C 590.005 2.94163 -1.85373 0
M  V30 6381 H 589.328 2.9299 -2.72024 0
M  V30 6382 H 590.768 3.71625 -2.04135 0
M  V30 6383 C 589.227 3.31317 -0.610803 0
M  V30 6384 O 589.757 4.00985 0.239636 0
M  V30 6385 N 587.963 2.86966 -0.458127 0
M  V30 6386 H 587.51 2.30443 -1.15124 0
M  V30 6387 H 587.468 3.12188 0.372289 0
M  V30 6388 N 591.24 1.41047 0.703093 0
M  V30 6389 C 592.17 1.45067 1.82969 0
M  V30 6390 C 593.151 0.31016 1.67248 0
M  V30 6391 O 594.336 0.520548 1.87093 0
M  V30 6392 C 591.466 1.32478 3.2104 0
M  V30 6393 C 590.42 2.44262 3.51454 0
M  V30 6394 C 589.746 2.16742 4.88801 0
M  V30 6395 C 591.046 3.86606 3.51189 0
M  V30 6396 H 592.74 2.39353 1.79863 0
M  V30 6397 H 590.286 1.15206 0.863919 0
M  V30 6398 H 592.239 1.33904 3.99559 0
M  V30 6399 H 590.963 0.346735 3.24754 0
M  V30 6400 H 589.622 2.42107 2.75282 0
M  V30 6401 H 589.27 1.17299 4.89132 0
M  V30 6402 H 588.97 2.91643 5.10116 0
M  V30 6403 H 590.494 2.19872 5.69639 0
M  V30 6404 H 591.908 3.90517 4.19725 0
M  V30 6405 H 590.305 4.61128 3.84033 0
M  V30 6406 H 591.375 4.15296 2.50315 0
M  V30 6407 N 592.718 -0.936591 1.26751 0
M  V30 6408 C 593.966 -1.67998 1.12343 0
M  V30 6409 C 594.287 -1.92137 -0.332938 0
M  V30 6410 O 593.557 -1.52132 -1.23421 0
M  V30 6411 H 592.137 -0.622609 0.412756 0
M  V30 6412 H 594.799 -1.12509 1.59147 0
M  V30 6413 H 593.895 -2.65185 1.64571 0
M  V30 6414 N 594.196 -1.08629 -1.14182 0
M  V30 6415 C 595.445 -0.812271 -1.84621 0
M  V30 6416 C 595.758 0.664313 -1.83973 0
M  V30 6417 O 596.964 1.05357 -2.50224 0
M  V30 6418 C 595.42 -1.4031 -3.31423 0
M  V30 6419 C 595.028 -2.91164 -3.40481 0
M  V30 6420 C 596.772 -1.20767 -4.06959 0
M  V30 6421 C 594.679 -3.43373 -4.81507 0
M  V30 6422 H 593.609 -0.30019 -0.691666 0
M  V30 6423 H 596.26 -1.30798 -1.28701 0
M  V30 6424 H 594.642 -0.835096 -3.87094 0
M  V30 6425 H 595.816 -3.5412 -2.94848 0
M  V30 6426 H 594.131 -3.09646 -2.78403 0
M  V30 6427 H 596.728 -1.57237 -5.11058 0
M  V30 6428 H 597.071 -0.147664 -4.16038 0
M  V30 6429 H 597.604 -1.74274 -3.57594 0
M  V30 6430 H 594.343 -4.48958 -4.77616 0
M  V30 6431 H 593.863 -2.85176 -5.27669 0
M  V30 6432 H 595.542 -3.40095 -5.50404 0
M  V30 6433 N 595.674 1.31259 -0.872281 0
M  V30 6434 C 596.622 2.30404 -0.318897 0
M  V30 6435 C 597.616 1.5962 0.567267 0
M  V30 6436 O 598.822 1.74204 0.453111 0
M  V30 6437 H 595.197 0.747243 -0.0844474 0
M  V30 6438 H 597.168 2.74549 -1.16899 0
M  V30 6439 C 595.917 3.44608 0.462683 0
M  V30 6440 H 595.24 3.99248 -0.209936 0
M  V30 6441 H 596.68 4.1609 0.815187 0
M  V30 6442 C 595.139 2.93456 1.65485 0
M  V30 6443 O 595.669 2.92418 2.75417 0
M  V30 6444 N 593.875 2.49628 1.48776 0
M  V30 6445 H 593.422 2.50671 0.593452 0
M  V30 6446 H 593.38 2.15759 2.28682 0
M  V30 6447 N 597.152 0.631951 1.44375 0
M  V30 6448 C 598.399 0.136767 2.02038 0
M  V30 6449 C 598.727 -1.24168 1.49709 0
M  V30 6450 O 597.982 -1.83809 0.671763 0
M  V30 6451 C 598.281 0.0735861 3.57324 0
M  V30 6452 C 597.947 1.39092 4.28911 0
M  V30 6453 C 596.609 1.75171 4.48184 0
M  V30 6454 C 598.961 2.26042 4.69632 0
M  V30 6455 C 596.289 2.97907 5.05439 0
M  V30 6456 C 598.641 3.4805 5.28246 0
M  V30 6457 C 597.305 3.84351 5.45738 0
M  V30 6458 H 596.575 0.0500466 0.739308 0
M  V30 6459 H 599.222 0.818429 1.7313 0
M  V30 6460 H 597.527 -0.691449 3.8565 0
M  V30 6461 H 599.224 -0.326091 3.99672 0
M  V30 6462 H 595.814 1.10015 4.1424 0
M  V30 6463 H 599.998 1.99463 4.54454 0
M  V30 6464 H 595.254 3.26108 5.17169 0
M  V30 6465 H 599.428 4.15658 5.5875 0
M  V30 6466 H 597.055 4.79538 5.8987 0
M  V30 6467 N 598.631 -1.53133 0.372548 0
M  V30 6468 C 599.88 -2.00539 -0.216115 0
M  V30 6469 C 600.193 -1.26374 -1.49295 0
M  V30 6470 O 601.399 -1.64404 -2.16064 0
M  V30 6471 C 599.855 -3.57253 -0.435678 0
M  V30 6472 C 599.463 -4.40302 0.82693 0
M  V30 6473 C 601.207 -4.12995 -0.981618 0
M  V30 6474 C 599.114 -5.88583 0.576567 0
M  V30 6475 H 598.044 -0.749246 -0.084536 0
M  V30 6476 H 600.695 -1.76771 0.492364 0
M  V30 6477 H 599.077 -3.77202 -1.20559 0
M  V30 6478 H 600.251 -4.32124 1.60017 0
M  V30 6479 H 598.566 -3.95699 1.29659 0
M  V30 6480 H 601.163 -5.21418 -1.18436 0
M  V30 6481 H 601.506 -3.68027 -1.94581 0
M  V30 6482 H 602.039 -3.96871 -0.271696 0
M  V30 6483 H 598.778 -6.37841 1.51128 0
M  V30 6484 H 598.298 -5.99592 -0.158047 0
M  V30 6485 H 599.977 -6.46676 0.204722 0
M  V30 6486 N 600.109 -0.101901 -1.5727 0
M  V30 6487 C 601.056 0.854577 -2.14396 0
M  V30 6488 C 602.026 1.27521 -1.06432 0
M  V30 6489 O 603.211 1.35575 -1.34253 0
M  V30 6490 C 600.351 2.10576 -2.73408 0
M  V30 6491 C 599.464 1.73504 -3.95626 0
M  V30 6492 C 598.599 2.9346 -4.42781 0
M  V30 6493 C 597.638 2.52547 -5.57572 0
M  V30 6494 N 596.775 3.65359 -5.99547 0
M  V30 6495 H 601.615 0.360578 -2.9581 0
M  V30 6496 H 599.152 0.166303 -1.46157 0
M  V30 6497 H 601.11 2.83859 -3.05745 0
M  V30 6498 H 599.74 2.57463 -1.94711 0
M  V30 6499 H 598.792 0.901622 -3.6956 0
M  V30 6500 H 600.104 1.39426 -4.78917 0
M  V30 6501 H 599.258 3.74988 -4.76937 0
M  V30 6502 H 597.997 3.30753 -3.58404 0
M  V30 6503 H 597.002 1.69446 -5.23037 0
M  V30 6504 H 598.227 2.1639 -6.43702 0
M  V30 6505 H 596.173 4.02358 -5.18116 0
M  V30 6506 H 596.09 3.35148 -6.77652 0
M  V30 6507 H 597.358 4.47378 -6.38336 0
M  V30 6508 N 601.587 1.56661 0.17182 0
M  V30 6509 C 602.519 1.92934 1.2373 0
M  V30 6510 C 603.532 0.822385 1.40502 0
M  V30 6511 O 604.721 1.10083 1.40514 0
M  V30 6512 C 601.821 2.16651 2.60607 0
M  V30 6513 C 600.994 3.47878 2.6514 0
M  V30 6514 C 600.053 3.60429 3.83377 0
M  V30 6515 O 599.079 4.33051 3.69398 0
M  V30 6516 N 600.281 2.95241 4.99813 0
M  V30 6517 H 603.046 2.84931 0.929205 0
M  V30 6518 H 600.607 1.5781 0.361588 0
M  V30 6519 H 602.599 2.22312 3.38171 0
M  V30 6520 H 601.169 1.3104 2.83809 0
M  V30 6521 H 600.389 3.53879 1.73675 0
M  V30 6522 H 601.677 4.34232 2.6518 0
M  V30 6523 H 601.075 2.3611 5.14071 0
M  V30 6524 H 599.632 3.06499 5.75241 0
M  V30 6525 N 603.065 -0.440357 1.51323 0
M  V30 6526 C 604.314 -1.18697 1.63076 0
M  V30 6527 C 604.627 -1.92418 0.35136 0
M  V30 6528 O 605.833 -2.69258 0.348221 0
M  V30 6529 C 604.289 -2.15849 2.87988 0
M  V30 6530 C 603.897 -1.47789 4.22921 0
M  V30 6531 C 605.641 -2.90962 3.09098 0
M  V30 6532 C 603.548 -2.43407 5.38987 0
M  V30 6533 H 602.478 -0.44676 0.607389 0
M  V30 6534 H 605.129 -0.454313 1.77787 0
M  V30 6535 H 603.511 -2.92537 2.66905 0
M  V30 6536 H 604.685 -0.7668 4.54375 0
M  V30 6537 H 603 -0.848404 4.07665 0
M  V30 6538 H 605.597 -3.62584 3.92985 0
M  V30 6539 H 605.94 -3.52133 2.22053 0
M  V30 6540 H 606.473 -2.21381 3.30507 0
M  V30 6541 H 603.212 -1.86929 6.28282 0
M  V30 6542 H 602.732 -3.12579 5.11913 0
M  V30 6543 H 604.411 -3.046 5.70813 0
M  V30 6544 N 604.543 -1.41418 -0.695603 0
M  V30 6545 C 605.82 -1.31264 -1.45014 0
M  V30 6546 C 606.2 0.0597994 -2.11015 0
M  V30 6547 O 605.548 1.07403 -2.01685 0
M  V30 6548 C 605.758 -2.466 -2.4696 0
M  V30 6549 C 607.106 -2.87763 -3.12214 0
M  V30 6550 O 608.13 -2.46339 -2.57285 0
M  V30 6551 O 606.989 -3.59395 -4.11701 0
M  V30 6552 H 604.083 -0.516576 -0.645816 0
M  V30 6553 H 606.629 -1.53382 -0.726084 0
M  V30 6554 H 605.401 -3.38183 -1.96845 0
M  V30 6555 H 605.024 -2.26358 -3.26876 0
M  V30 6556 N 606.021 0.929856 -1.27246 0
M  V30 6557 C 607.268 1.67731 -1.13457 0
M  V30 6558 C 607.596 1.9185 0.319998 0
M  V30 6559 O 606.851 1.50524 1.25064 0
M  V30 6560 C 607.15 3.05116 -1.86115 0
M  V30 6561 C 606.816 3.00715 -3.35978 0
M  V30 6562 C 605.478 2.99222 -3.76855 0
M  V30 6563 C 607.83 2.92168 -4.3161 0
M  V30 6564 C 605.158 2.86962 -5.11732 0
M  V30 6565 C 607.51 2.81449 -5.66542 0
M  V30 6566 C 606.174 2.78305 -6.06715 0
M  V30 6567 H 605.444 0.613772 -0.415168 0
M  V30 6568 H 608.091 1.08456 -1.57827 0
M  V30 6569 H 606.396 3.68083 -1.34246 0
M  V30 6570 H 608.093 3.61822 -1.72876 0
M  V30 6571 H 604.683 3.02664 -3.03468 0
M  V30 6572 H 608.867 2.92421 -4.01003 0
M  V30 6573 H 604.123 2.82913 -5.42006 0
M  V30 6574 H 608.297 2.738 -6.40317 0
M  V30 6575 H 605.924 2.68561 -7.11181 0
M  V30 6576 N 607.499 1.09233 1.13605 0
M  V30 6577 C 608.446 0.729921 2.18954 0
M  V30 6578 C 609.416 -0.287916 1.63586 0
M  V30 6579 O 610.601 -0.170003 1.90041 0
M  V30 6580 C 607.741 0.154489 3.44754 0
M  V30 6581 C 606.854 1.22613 4.14234 0
M  V30 6582 C 605.989 0.613657 5.27644 0
M  V30 6583 C 605.028 1.66674 5.8897 0
M  V30 6584 N 604.165 1.07545 6.93814 0
M  V30 6585 H 609.005 1.63257 2.49302 0
M  V30 6586 H 606.542 0.815693 1.22413 0
M  V30 6587 H 608.5 -0.196923 4.16735 0
M  V30 6588 H 607.13 -0.711433 3.14863 0
M  V30 6589 H 606.182 1.69485 3.40557 0
M  V30 6590 H 607.494 2.0238 4.55899 0
M  V30 6591 H 606.648 0.210976 6.06333 0
M  V30 6592 H 605.387 -0.215584 4.87223 0
M  V30 6593 H 604.392 2.07899 5.08978 0
M  V30 6594 H 605.617 2.49861 6.31464 0
M  V30 6595 H 603.563 0.267451 6.55455 0
M  V30 6596 H 603.48 1.81011 7.3401 0
M  V30 6597 H 604.748 0.698906 7.7636 0
M  V30 6598 N 608.977 -1.30795 0.87923 0
M  V30 6599 C 609.907 -2.30742 0.357796 0
M  V30 6600 C 610.888 -1.60747 -0.556283 0
M  V30 6601 O 612.073 -1.88393 -0.47135 0
M  V30 6602 C 609.203 -3.44583 -0.433555 0
M  V30 6603 C 608.157 -4.26235 0.388251 0
M  V30 6604 C 607.483 -5.32073 -0.529352 0
M  V30 6605 C 608.783 -4.96303 1.62729 0
M  V30 6606 H 610.477 -2.74605 1.19299 0
M  V30 6607 H 608.023 -1.32017 0.575104 0
M  V30 6608 H 609.976 -4.13563 -0.808934 0
M  V30 6609 H 608.7 -2.99511 -1.30234 0
M  V30 6610 H 607.359 -3.58936 0.745695 0
M  V30 6611 H 607.007 -4.83249 -1.39569 0
M  V30 6612 H 606.707 -5.87598 0.0166741 0
M  V30 6613 H 608.231 -6.0391 -0.901373 0
M  V30 6614 H 609.645 -5.5783 1.32283 0
M  V30 6615 H 608.042 -5.61666 2.11309 0
M  V30 6616 H 609.112 -4.22758 2.37494 0
M  V30 6617 N 610.455 -0.639598 -1.44038 0
M  V30 6618 C 611.702 -0.14748 -2.01962 0
M  V30 6619 C 612.03 1.23372 -1.50365 0
M  V30 6620 O 611.285 1.8345 -0.681501 0
M  V30 6621 C 611.584 -0.0925348 -3.5728 0
M  V30 6622 C 611.25 -1.41365 -4.28167 0
M  V30 6623 C 609.912 -1.77545 -4.47248 0
M  V30 6624 C 612.264 -2.2853 -4.68427 0
M  V30 6625 C 609.592 -3.00583 -5.03852 0
M  V30 6626 C 611.944 -3.50846 -5.26393 0
M  V30 6627 C 610.608 -3.8724 -5.43692 0
M  V30 6628 H 609.878 -0.0539666 -0.739032 0
M  V30 6629 H 612.525 -0.827599 -1.72694 0
M  V30 6630 H 610.83 0.670987 -3.86012 0
M  V30 6631 H 612.527 0.304891 -3.99839 0
M  V30 6632 H 609.117 -1.1221 -4.13651 0
M  V30 6633 H 613.301 -2.0187 -4.5339 0
M  V30 6634 H 608.557 -3.28846 -5.15432 0
M  V30 6635 H 612.731 -4.18616 -5.56537 0
M  V30 6636 H 610.358 -4.8266 -5.87319 0
M  V30 6637 N 611.933 1.52934 -0.380664 0
M  V30 6638 C 612.865 2.23822 0.493581 0
M  V30 6639 C 613.878 1.25761 1.03383 0
M  V30 6640 O 615.067 1.5189 0.937633 0
M  V30 6641 C 612.167 2.9342 1.69582 0
M  V30 6642 C 611.34 4.18115 1.28445 0
M  V30 6643 C 610.399 4.70788 2.35042 0
M  V30 6644 O 609.425 5.34093 1.96807 0
M  V30 6645 N 610.627 4.49899 3.66839 0
M  V30 6646 H 613.392 2.99484 -0.11371 0
M  V30 6647 H 610.953 1.60577 -0.206587 0
M  V30 6648 H 612.945 3.2556 2.40401 0
M  V30 6649 H 611.515 2.21119 2.20965 0
M  V30 6650 H 610.735 3.92109 0.405503 0
M  V30 6651 H 612.023 4.99152 0.986132 0
M  V30 6652 H 611.421 3.99349 4.0067 0
M  V30 6653 H 609.978 4.86551 4.33718 0
M  V30 6654 N 613.412 0.11024 1.57214 0
M  V30 6655 C 614.36 -0.860586 2.16094 0
M  V30 6656 C 615.354 -1.28156 1.1078 0
M  V30 6657 O 616.56 -1.25433 1.29099 0
M  V30 6658 H 612.935 -0.295606 0.691463 0
M  V30 6659 H 614.906 -0.33942 2.96463 0
M  V30 6660 C 613.655 -2.10421 2.768 0
M  V30 6661 H 612.978 -1.7892 3.5753 0
M  V30 6662 H 614.418 -2.76375 3.21547 0
M  V30 6663 C 612.877 -2.88823 1.73444 0
M  V30 6664 O 613.407 -3.839 1.18251 0
M  V30 6665 N 611.613 -2.52649 1.43586 0
M  V30 6666 H 611.16 -1.754 1.8866 0
M  V30 6667 H 611.118 -3.05403 0.746735 0
M  V30 6668 N 614.89 -1.56749 -0.16351 0
M  V30 6669 C 616.137 -1.82434 -0.878866 0
M  V30 6670 C 616.465 -0.688557 -1.81904 0
M  V30 6671 O 615.72 0.323644 -1.93005 0
M  V30 6672 C 616.019 -3.14342 -1.70071 0
M  V30 6673 C 615.685 -4.41647 -0.908775 0
M  V30 6674 C 614.347 -4.76224 -0.690236 0
M  V30 6675 C 616.699 -5.19998 -0.353815 0
M  V30 6676 C 614.027 -5.86624 0.0942374 0
M  V30 6677 C 616.379 -6.3122 0.41761 0
M  V30 6678 C 615.043 -6.64358 0.646879 0
M  V30 6679 H 614.313 -0.667574 -0.3216 0
M  V30 6680 H 616.96 -1.90963 -0.14337 0
M  V30 6681 H 615.265 -3.0119 -2.50583 0
M  V30 6682 H 616.962 -3.31426 -2.25738 0
M  V30 6683 H 613.552 -4.1453 -1.08916 0
M  V30 6684 H 617.736 -4.93673 -0.509975 0
M  V30 6685 H 612.992 -6.10751 0.281529 0
M  V30 6686 H 617.166 -6.91133 0.854849 0
M  V30 6687 H 614.793 -7.49742 1.25662 0
M  V30 6688 N 616.368 0.432326 -1.51554 0
M  V30 6689 C 617.593 1.20824 -1.68571 0
M  V30 6690 C 618.018 1.84126 -0.384596 0
M  V30 6691 O 617.376 1.69025 0.655751 0
M  V30 6692 C 617.424 2.26429 -2.80646 0
M  V30 6693 O 616.528 3.32032 -2.44598 0
M  V30 6694 H 615.869 0.353765 -0.561913 0
M  V30 6695 H 618.399 0.509916 -1.98144 0
M  V30 6696 H 618.409 2.71133 -3.04878 0
M  V30 6697 H 617.084 1.79733 -3.75058 0
M  V30 6698 H 615.661 2.92769 -2.30956 0
M  V30 6699 N 617.846 1.41785 0.688094 0
M  V30 6700 C 618.794 1.44436 1.82321 0
M  V30 6701 C 619.788 0.321544 1.6632 0
M  V30 6702 O 620.994 0.493931 1.73091 0
M  V30 6703 H 617.369 0.452084 0.600936 0
M  V30 6704 H 619.34 2.40087 1.77202 0
M  V30 6705 C 618.089 1.35071 3.20392 0
M  V30 6706 H 617.412 2.2076 3.33324 0
M  V30 6707 H 618.852 1.40988 3.99873 0
M  V30 6708 C 617.311 0.0639127 3.36839 0
M  V30 6709 O 617.841 -0.888495 3.91751 0
M  V30 6710 N 616.047 -0.0146114 2.90596 0
M  V30 6711 H 615.594 0.761191 2.46097 0
M  V30 6712 H 615.552 -0.874988 3.01979 0
M  V30 6713 N 619.324 -0.923095 1.27737 0
M  V30 6714 C 620.254 -2.04124 1.13383 0
M  V30 6715 C 621.235 -1.70066 0.0340658 0
M  V30 6716 O 622.42 -1.93068 0.209383 0
M  V30 6717 C 619.55 -3.3831 0.785097 0
M  V30 6718 C 618.504 -3.86496 1.8386 0
M  V30 6719 C 617.83 -5.1754 1.34373 0
M  V30 6720 C 619.13 -4.09381 3.24353 0
M  V30 6721 H 620.824 -2.1639 2.06919 0
M  V30 6722 H 618.37 -1.03976 0.996243 0
M  V30 6723 H 620.323 -4.16016 0.671485 0
M  V30 6724 H 619.047 -3.2607 -0.185969 0
M  V30 6725 H 617.706 -3.10987 1.9412 0
M  V30 6726 H 617.354 -5.01696 0.361989 0
M  V30 6727 H 617.054 -5.50751 2.04811 0
M  V30 6728 H 618.578 -5.97811 1.24315 0
M  V30 6729 H 619.992 -4.77641 3.17067 0
M  V30 6730 H 618.389 -4.53906 3.92542 0
M  V30 6731 H 619.459 -3.14515 3.69064 0
M  V30 6732 N 620.802 -1.09834 -1.13024 0
M  V30 6733 C 621.712 -0.753731 -2.22162 0
M  V30 6734 C 622.728 0.246105 -1.72251 0
M  V30 6735 O 623.904 0.0864051 -2.01215 0
M  V30 6736 C 620.969 -0.183958 -3.46212 0
M  V30 6737 C 620.03 -1.24028 -4.10993 0
M  V30 6738 C 619.263 -0.697597 -5.29121 0
M  V30 6739 O 619.486 0.478092 -5.68393 0
M  V30 6740 O 618.42 -1.4546 -5.84059 0
M  V30 6741 H 622.246 -1.66456 -2.5402 0
M  V30 6742 H 619.831 -0.873026 -1.21238 0
M  V30 6743 H 621.713 0.130257 -4.21199 0
M  V30 6744 H 620.388 0.699823 -3.16045 0
M  V30 6745 H 619.295 -1.60725 -3.37814 0
M  V30 6746 H 620.628 -2.09685 -4.45301 0
M  V30 6747 N 622.28 1.30327 -0.886154 0
M  V30 6748 C 623.529 1.95373 -0.501243 0
M  V30 6749 C 623.842 1.70722 0.954634 0
M  V30 6750 O 625.048 2.29761 1.44644 0
M  V30 6751 C 623.504 3.49828 -0.845493 0
M  V30 6752 C 623.112 3.83296 -2.31922 0
M  V30 6753 C 624.856 4.2118 -0.529838 0
M  V30 6754 C 622.763 5.30935 -2.60504 0
M  V30 6755 H 621.693 0.731274 -0.183722 0
M  V30 6756 H 624.344 1.48258 -1.08129 0
M  V30 6757 H 622.726 3.95522 -0.19452 0
M  V30 6758 H 623.9 3.48508 -3.01461 0
M  V30 6759 H 622.215 3.2505 -2.60253 0
M  V30 6760 H 624.812 5.29825 -0.720401 0
M  V30 6761 H 625.155 4.12902 0.530828 0
M  V30 6762 H 625.688 3.81173 -1.13806 0
M  V30 6763 H 622.427 5.44265 -3.65316 0
M  V30 6764 H 621.947 5.67019 -1.95575 0
M  V30 6765 H 623.626 5.98381 -2.46066 0
M  V30 6766 N 623.758 0.647228 1.43697 0
M  V30 6767 C 625.007 0.155552 2.01099 0
M  V30 6768 C 625.32 -1.23569 1.51624 0
M  V30 6769 O 626.526 -1.82226 2.01261 0
M  V30 6770 C 624.982 0.227296 3.59182 0
M  V30 6771 C 624.59 1.62086 4.17651 0
M  V30 6772 C 626.334 -0.207085 4.23995 0
M  V30 6773 C 624.241 1.64685 5.68008 0
M  V30 6774 H 623.171 0.0543895 0.752036 0
M  V30 6775 H 625.822 0.808386 1.64734 0
M  V30 6776 H 624.204 -0.492937 3.9292 0
M  V30 6777 H 625.378 2.36597 3.95422 0
M  V30 6778 H 623.693 2.0007 3.65186 0
M  V30 6779 H 626.29 -0.207426 5.34298 0
M  V30 6780 H 626.633 -1.23742 3.97484 0
M  V30 6781 H 627.166 0.461193 3.95118 0
M  V30 6782 H 623.905 2.65608 5.99277 0
M  V30 6783 H 623.425 0.944914 5.9231 0
M  V30 6784 H 625.104 1.38792 6.31938 0
M  V30 6785 N 625.236 -1.5273 0.388769 0
M  V30 6786 C 626.466 -2.05693 -0.193397 0
M  V30 6787 C 626.874 -1.26038 -1.41107 0
M  V30 6788 O 626.217 -0.30001 -1.81234 0
M  V30 6789 C 626.279 -3.53962 -0.628561 0
M  V30 6790 C 625.943 -4.54519 0.475576 0
M  V30 6791 C 626.94 -5.02526 1.33281 0
M  V30 6792 C 624.625 -4.98174 0.642453 0
M  V30 6793 C 626.619 -5.92812 2.34205 0
M  V30 6794 C 624.306 -5.88262 1.65503 0
M  V30 6795 C 625.304 -6.35473 2.50325 0
M  V30 6796 O 624.992 -7.23781 3.49852 0
M  V30 6797 H 624.724 -0.675197 -0.0329395 0
M  V30 6798 H 627.278 -1.97835 0.552326 0
M  V30 6799 H 625.508 -3.59437 -1.42625 0
M  V30 6800 H 627.197 -3.89669 -1.13633 0
M  V30 6801 H 627.963 -4.6953 1.21519 0
M  V30 6802 H 623.842 -4.60999 -0.00805093 0
M  V30 6803 H 627.386 -6.29585 3.00447 0
M  V30 6804 H 623.283 -6.20672 1.77304 0
M  V30 6805 H 624.051 -7.4184 3.45855 0
M  V30 6806 N 626.714 -0.118576 -1.57153 0
M  V30 6807 C 627.644 0.828436 -2.1831 0
M  V30 6808 C 628.625 1.27758 -1.12303 0
M  V30 6809 O 629.81 1.34026 -1.40537 0
M  V30 6810 C 626.94 2.07876 -2.78217 0
M  V30 6811 C 625.894 1.76742 -3.89803 0
M  V30 6812 C 625.22 3.08801 -4.36516 0
M  V30 6813 C 626.52 1.03606 -5.11921 0
M  V30 6814 H 628.214 0.318824 -2.97698 0
M  V30 6815 H 625.76 0.151911 -1.43196 0
M  V30 6816 H 627.713 2.74584 -3.19659 0
M  V30 6817 H 626.437 2.61161 -1.96118 0
M  V30 6818 H 625.096 1.12424 -3.48936 0
M  V30 6819 H 624.744 3.6002 -3.51276 0
M  V30 6820 H 624.444 2.88743 -5.11763 0
M  V30 6821 H 625.968 3.76627 -4.80608 0
M  V30 6822 H 627.382 1.60467 -5.50385 0
M  V30 6823 H 625.779 0.936454 -5.92748 0
M  V30 6824 H 626.849 0.0227421 -4.84895 0
M  V30 6825 N 628.193 1.56834 0.155195 0
M  V30 6826 C 629.418 1.87412 0.888337 0
M  V30 6827 C 629.843 0.70671 1.74319 0
M  V30 6828 O 629.201 -0.343892 1.78009 0
M  V30 6829 C 629.249 3.1652 1.72765 0
M  V30 6830 O 628.353 2.99877 2.83103 0
M  V30 6831 H 627.694 0.615983 0.247914 0
M  V30 6832 H 630.224 2.04061 0.148478 0
M  V30 6833 H 630.234 3.48334 2.12433 0
M  V30 6834 H 628.909 4.01094 1.09985 0
M  V30 6835 H 627.486 2.79453 2.46902 0
M  V30 6836 N 629.671 -0.424282 1.51781 0
M  V30 6837 C 630.581 -1.54087 1.76902 0
M  V30 6838 C 631.597 -1.61249 0.653826 0
M  V30 6839 O 632.773 -1.78247 0.937552 0
M  V30 6840 C 629.838 -2.8996 1.90063 0
M  V30 6841 C 628.899 -2.92809 3.13945 0
M  V30 6842 C 628.132 -4.22201 3.26469 0
M  V30 6843 O 628.355 -5.15286 2.44616 0
M  V30 6844 O 627.289 -4.31599 4.1953 0
M  V30 6845 H 631.115 -1.358 2.71647 0
M  V30 6846 H 628.7 -0.608618 1.36441 0
M  V30 6847 H 630.582 -3.70575 2.0063 0
M  V30 6848 H 629.257 -3.08347 0.985067 0
M  V30 6849 H 628.164 -2.11102 3.08847 0
M  V30 6850 H 629.497 -2.79369 4.05233 0
M  V30 6851 N 631.149 -1.42148 -0.680565 0
M  V30 6852 C 632.097 -1.45401 -1.81552 0
M  V30 6853 C 633.091 -0.33036 -1.66147 0
M  V30 6854 O 634.297 -0.503103 -1.72826 0
M  V30 6855 H 630.672 -0.455265 -0.59853 0
M  V30 6856 H 632.643 -2.41024 -1.75926 0
M  V30 6857 C 631.392 -1.36769 -3.19671 0
M  V30 6858 H 630.715 -2.22525 -3.32149 0
M  V30 6859 H 632.155 -1.43106 -3.9912 0
M  V30 6860 C 630.614 -0.0817752 -3.36801 0
M  V30 6861 O 631.144 0.867707 -3.92216 0
M  V30 6862 N 629.35 -0.000799811 -2.906 0
M  V30 6863 H 628.897 -0.774231 -2.4569 0
M  V30 6864 H 628.855 0.858961 -3.02439 0
M  V30 6865 N 632.627 0.916307 -1.28225 0
M  V30 6866 C 634.043 1.19425 -1.05876 0
M  V30 6867 C 634.243 2.005 0.2005 0
M  V30 6868 O 633.299 2.35806 0.902873 0
M  V30 6869 C 634.612 1.93133 -2.30478 0
M  V30 6870 C 636.16 2.06026 -2.35632 0
M  V30 6871 C 636.635 2.83141 -3.59994 0
M  V30 6872 N 638.126 2.90704 -3.60618 0
M  V30 6873 C 638.861 3.50865 -4.53521 0
M  V30 6874 N 638.357 4.12327 -5.56739 0
M  V30 6875 N 640.15 3.48379 -4.41122 0
M  V30 6876 H 632.301 0.37496 -2.09064 0
M  V30 6877 H 634.564 0.228531 -0.920042 0
M  V30 6878 H 634.27 1.40985 -3.22205 0
M  V30 6879 H 634.144 2.93696 -2.36691 0
M  V30 6880 H 636.531 2.57355 -1.44404 0
M  V30 6881 H 636.612 1.04647 -2.33415 0
M  V30 6882 H 636.256 2.32492 -4.51564 0
M  V30 6883 H 636.186 3.84829 -3.59464 0
M  V30 6884 H 638.677 2.47034 -2.85977 0
M  V30 6885 H 638.99 4.56205 -6.23776 0
M  V30 6886 H 637.335 4.10839 -5.60568 0
M  V30 6887 H 640.526 2.99572 -3.59686 0
M  V30 6888 H 640.699 3.94974 -5.13712 0
M  V30 6889 N 634.105 1.10431 1.1244 0
M  V30 6890 C 635.354 0.841539 1.83306 0
M  V30 6891 C 635.667 -0.634961 1.85007 0
M  V30 6892 O 636.873 -1.01363 2.51869 0
M  V30 6893 C 635.329 1.45565 3.29149 0
M  V30 6894 C 634.937 2.96544 3.35806 0
M  V30 6895 C 636.681 1.27227 4.04986 0
M  V30 6896 C 634.588 3.5099 4.75983 0
M  V30 6897 H 633.518 0.311156 0.686803 0
M  V30 6898 H 636.169 1.32829 1.26604 0
M  V30 6899 H 634.551 0.896574 3.85717 0
M  V30 6900 H 635.725 3.58766 2.89177 0
M  V30 6901 H 634.04 3.14036 2.73442 0
M  V30 6902 H 636.637 1.65348 5.08492 0
M  V30 6903 H 636.98 0.213834 4.1575 0
M  V30 6904 H 637.513 1.79941 3.54776 0
M  V30 6905 H 634.252 4.56499 4.70413 0
M  V30 6906 H 633.772 2.93535 5.23065 0
M  V30 6907 H 635.451 3.48808 5.44924 0
M  V30 6908 N 635.583 -1.29855 0.893053 0
M  V30 6909 C 636.808 -2.00512 0.530066 0
M  V30 6910 C 637.233 -1.66446 -0.876199 0
M  V30 6911 O 636.591 -0.885446 -1.58207 0
M  V30 6912 C 636.639 -3.53308 0.721505 0
M  V30 6913 O 635.743 -4.11764 -0.228994 0
M  V30 6914 H 635.084 -0.630617 0.207891 0
M  V30 6915 H 637.614 -1.6551 1.20282 0
M  V30 6916 H 637.624 -4.03206 0.623599 0
M  V30 6917 H 636.299 -3.77439 1.74678 0
M  V30 6918 H 634.876 -3.72805 -0.0841034 0
M  V30 6919 N 637.061 -0.65484 -1.43351 0
M  V30 6920 C 638.472 -0.248506 -1.85039 0
M  V30 6921 C 638.823 1.20526 -1.54816 0
M  V30 6922 O 637.948 1.92016 -0.99794 0
M  V30 6923 C 638.543 -0.444241 -3.35875 0
M  V30 6924 C 637.102 -0.0922108 -3.76287 0
M  V30 6925 C 636.249 -0.746327 -2.67068 0
M  V30 6926 H 639.2 -0.8584 -1.33481 0
M  V30 6927 H 639.221 0.309762 -3.79237 0
M  V30 6928 H 638.733 -1.50239 -3.5784 0
M  V30 6929 H 636.834 0.96328 -3.59933 0
M  V30 6930 H 636.947 -0.518807 -4.76283 0
M  V30 6931 H 635.311 -0.179416 -2.54067 0
M  V30 6932 H 636.094 -1.80754 -2.91861 0
M  V30 6933 N 638.539 1.52521 -0.396863 0
M  V30 6934 C 639.469 2.29582 0.425941 0
M  V30 6935 C 640.45 1.33281 1.05689 0
M  V30 6936 O 641.635 1.62181 1.06823 0
M  V30 6937 C 638.765 3.10821 1.54943 0
M  V30 6938 C 637.719 4.15069 1.04413 0
M  V30 6939 C 637.045 4.84578 2.26028 0
M  V30 6940 C 638.345 5.22191 0.106767 0
M  V30 6941 H 640.039 2.98612 -0.217045 0
M  V30 6942 H 637.585 1.43611 -0.105826 0
M  V30 6943 H 639.538 3.63492 2.13193 0
M  V30 6944 H 638.262 2.39538 2.22011 0
M  V30 6945 H 636.921 3.63389 0.484118 0
M  V30 6946 H 636.569 4.09835 2.91623 0
M  V30 6947 H 636.269 5.55043 1.92876 0
M  V30 6948 H 637.793 5.40056 2.84906 0
M  V30 6949 H 639.207 5.70176 0.597685 0
M  V30 6950 H 637.604 5.99947 -0.135352 0
M  V30 6951 H 638.674 4.77531 -0.842134 0
M  V30 6952 N 640.017 0.126909 1.57088 0
M  V30 6953 C 641.263 -0.529952 1.95753 0
M  V30 6954 C 641.596 -1.65823 1.01077 0
M  V30 6955 O 640.871 -1.94437 0.0494162 0
M  V30 6956 C 641.154 -1.05517 3.44294 0
M  V30 6957 C 641.007 0.0702253 4.49745 0
M  V30 6958 C 642.326 -1.9435 3.94862 0
M  V30 6959 H 639.445 -0.191168 0.711775 0
M  V30 6960 H 642.087 0.204071 1.88901 0
M  V30 6961 H 640.237 -1.68069 3.50264 0
M  V30 6962 H 641.909 0.705834 4.55868 0
M  V30 6963 H 640.152 0.732259 4.27575 0
M  V30 6964 H 640.823 -0.338642 5.5096 0
M  V30 6965 H 643.299 -1.41658 3.91244 0
M  V30 6966 H 642.175 -2.28015 4.993 0
M  V30 6967 H 642.436 -2.87299 3.36024 0
M  V30 6968 N 641.495 -1.56914 -0.146875 0
M  V30 6969 C 642.442 -1.98275 -1.18134 0
M  V30 6970 C 643.412 -0.850367 -1.42681 0
M  V30 6971 O 644.597 -1.11244 -1.55014 0
M  V30 6972 C 641.737 -2.36861 -2.5098 0
M  V30 6973 C 640.85 -3.63391 -2.33605 0
M  V30 6974 C 639.985 -3.91079 -3.59486 0
M  V30 6975 C 639.024 -5.10879 -3.37149 0
M  V30 6976 N 638.161 -5.34577 -4.55161 0
M  V30 6977 H 643.001 -2.8645 -0.821622 0
M  V30 6978 H 640.538 -1.41718 -0.394248 0
M  V30 6979 H 642.496 -2.57262 -3.28439 0
M  V30 6980 H 641.126 -1.51766 -2.84898 0
M  V30 6981 H 640.178 -3.50766 -1.47199 0
M  V30 6982 H 641.49 -4.51007 -2.13059 0
M  V30 6983 H 640.644 -4.11979 -4.45374 0
M  V30 6984 H 639.383 -3.01885 -3.83036 0
M  V30 6985 H 638.388 -4.89853 -2.49649 0
M  V30 6986 H 639.613 -6.01626 -3.14997 0
M  V30 6987 H 637.559 -4.48337 -4.78884 0
M  V30 6988 H 637.476 -6.16463 -4.37618 0
M  V30 6989 H 638.744 -5.59975 -5.42263 0
M  V30 6990 N 642.974 0.416227 -1.52004 0
M  V30 6991 C 644.251 1.17637 -1.56272 0
M  V30 6992 C 644.631 2.08352 -0.339493 0
M  V30 6993 O 643.979 2.1833 0.674124 0
M  V30 6994 C 644.189 1.95986 -2.88774 0
M  V30 6995 C 645.537 2.52299 -3.41512 0
M  V30 6996 O 646.561 2.06174 -2.90467 0
M  V30 6997 O 645.42 3.3648 -4.30631 0
M  V30 6998 H 642.514 0.536726 -0.629169 0
M  V30 6999 H 645.06 0.423583 -1.64329 0
M  V30 7000 H 643.832 1.29487 -3.69254 0
M  V30 7001 H 643.455 2.78285 -2.83978 0
M  V30 7002 N 644.452 1.42507 0.673017 0
M  V30 7003 C 645.68 1.46473 1.46128 0
M  V30 7004 C 646.095 0.0765912 1.88645 0
M  V30 7005 O 645.452 -0.909057 1.58248 0
M  V30 7006 C 645.503 2.39339 2.70923 0
M  V30 7007 O 645.224 3.72752 2.3019 0
M  V30 7008 C 646.725 2.52343 3.64469 0
M  V30 7009 H 643.945 0.49812 0.449575 0
M  V30 7010 H 646.489 1.87041 0.826802 0
M  V30 7011 H 644.644 2.02019 3.30556 0
M  V30 7012 H 645.058 4.22503 3.10791 0
M  V30 7013 H 646.532 3.2144 4.48754 0
M  V30 7014 H 647.009 1.56189 4.1049 0
M  V30 7015 H 647.615 2.90392 3.10729 0
M  V30 7016 N 645.93 -0.909495 1.28709 0
M  V30 7017 C 647.346 -1.18862 1.06508 0
M  V30 7018 C 647.546 -2.00604 -0.189864 0
M  V30 7019 O 646.602 -2.36281 -0.890355 0
M  V30 7020 C 647.915 -1.91908 2.31499 0
M  V30 7021 C 649.463 -2.04773 2.36721 0
M  V30 7022 C 649.938 -2.81228 3.6149 0
M  V30 7023 N 651.429 -2.88787 3.62155 0
M  V30 7024 C 652.164 -3.48455 4.55375 0
M  V30 7025 N 651.66 -4.09369 5.58918 0
M  V30 7026 N 653.453 -3.46035 4.42963 0
M  V30 7027 H 645.604 -0.363867 2.0926 0
M  V30 7028 H 647.867 -0.223649 0.921241 0
M  V30 7029 H 647.573 -1.39275 3.22948 0
M  V30 7030 H 647.447 -2.92436 2.38245 0
M  V30 7031 H 649.834 -2.56585 1.45767 0
M  V30 7032 H 649.915 -1.03408 2.33967 0
M  V30 7033 H 649.559 -2.30094 4.5279 0
M  V30 7034 H 649.489 -3.82917 3.61499 0
M  V30 7035 H 651.98 -2.45514 2.87283 0
M  V30 7036 H 652.293 -4.52891 6.26187 0
M  V30 7037 H 650.638 -4.0786 5.62739 0
M  V30 7038 H 653.829 -2.9766 3.6127 0
M  V30 7039 H 654.002 -3.92244 5.15799 0
M  V30 7040 N 647.408 -1.11026 -1.11852 0
M  V30 7041 C 648.34 -0.72249 -2.17515 0
M  V30 7042 C 649.353 0.243782 -1.60964 0
M  V30 7043 O 650.542 0.0273252 -1.78479 0
M  V30 7044 C 647.642 -0.0463979 -3.38868 0
M  V30 7045 C 646.815 -1.0384 -4.24895 0
M  V30 7046 C 645.874 -0.392659 -5.24733 0
M  V30 7047 O 644.9 -1.0453 -5.5952 0
M  V30 7048 N 646.102 0.846296 -5.74298 0
M  V30 7049 H 648.867 -1.63161 -2.51393 0
M  V30 7050 H 646.428 -0.999899 -1.27333 0
M  V30 7051 H 648.42 0.397215 -4.02746 0
M  V30 7052 H 646.99 0.765231 -3.03089 0
M  V30 7053 H 646.21 -1.6601 -3.57539 0
M  V30 7054 H 647.498 -1.70968 -4.79215 0
M  V30 7055 H 646.896 1.39578 -5.4821 0
M  V30 7056 H 645.453 1.23296 -6.40032 0
M  V30 7057 N 648.886 1.2938 -0.899927 0
M  V30 7058 C 650.111 2.00228 -0.540692 0
M  V30 7059 C 650.536 1.66909 0.867359 0
M  V30 7060 O 649.894 0.893824 1.57735 0
M  V30 7061 C 649.942 3.52921 -0.740232 0
M  V30 7062 O 649.046 4.11879 0.207154 0
M  V30 7063 H 648.387 0.629505 -0.211233 0
M  V30 7064 H 650.917 1.6487 -1.21158 0
M  V30 7065 H 650.927 4.0287 -0.644973 0
M  V30 7066 H 649.602 3.76508 -1.76677 0
M  V30 7067 H 648.179 3.72845 0.0643315 0
M  V30 7068 N 650.364 0.662433 1.43002 0
M  V30 7069 C 651.594 0.187343 2.05749 0
M  V30 7070 C 652.002 -1.15582 1.49791 0
M  V30 7071 O 651.345 -1.72651 0.627487 0
M  V30 7072 C 651.407 0.0316493 3.59486 0
M  V30 7073 C 651.071 1.30156 4.38073 0
M  V30 7074 C 652.068 2.23234 4.69535 0
M  V30 7075 C 649.753 1.54572 4.77926 0
M  V30 7076 C 651.747 3.39012 5.39768 0
M  V30 7077 C 649.434 2.70641 5.47902 0
M  V30 7078 C 650.432 3.62687 5.78746 0
M  V30 7079 O 650.12 4.76728 6.47291 0
M  V30 7080 H 649.852 0.0915214 0.669776 0
M  V30 7081 H 652.406 0.905982 1.8434 0
M  V30 7082 H 650.636 -0.742451 3.79506 0
M  V30 7083 H 652.325 -0.401977 4.03905 0
M  V30 7084 H 653.091 2.05616 4.39257 0
M  V30 7085 H 648.97 0.83804 4.53319 0
M  V30 7086 H 652.514 4.10877 5.63761 0
M  V30 7087 H 648.411 2.88189 5.77596 0
M  V30 7088 H 649.179 4.76113 6.65777 0
M  V30 7089 N 651.842 -1.52309 0.404946 0
M  V30 7090 C 652.805 -2.25491 -0.410651 0
M  V30 7091 C 653.805 -1.27704 -0.977154 0
M  V30 7092 O 654.995 -1.51679 -0.856691 0
M  V30 7093 C 652.127 -3.02197 -1.57765 0
M  V30 7094 H 653.32 -2.99015 0.230277 0
M  V30 7095 H 650.873 -1.55506 0.157377 0
M  V30 7096 H 651.608 -2.33013 -2.25556 0
M  V30 7097 H 651.393 -3.73987 -1.17797 0
M  V30 7098 H 652.883 -3.57719 -2.15469 0
M  V30 7099 N 653.32 -0.135238 -1.57019 0
M  V30 7100 C 654.268 0.826099 -2.17436 0
M  V30 7101 C 655.262 1.26378 -1.12805 0
M  V30 7102 O 656.468 1.23363 -1.31079 0
M  V30 7103 H 652.843 0.284568 -0.696078 0
M  V30 7104 H 654.814 0.292212 -2.96966 0
M  V30 7105 C 653.563 2.05991 -2.80112 0
M  V30 7106 H 652.886 1.73209 -3.60331 0
M  V30 7107 H 654.326 2.71225 -3.25903 0
M  V30 7108 C 652.785 2.86027 -1.78017 0
M  V30 7109 O 653.315 3.81971 -1.24344 0
M  V30 7110 N 651.521 2.50332 -1.47588 0
M  V30 7111 H 651.068 1.72377 -1.91426 0
M  V30 7112 H 651.026 3.04177 -0.795228 0
M  V30 7113 N 654.798 1.5699 0.138552 0
M  V30 7114 C 656.023 1.88344 0.86841 0
M  V30 7115 C 656.448 0.725159 1.7356 0
M  V30 7116 O 655.806 -0.324992 1.78363 0
M  V30 7117 C 655.854 3.18334 1.69398 0
M  V30 7118 O 654.958 3.02863 2.79907 0
M  V30 7119 H 654.299 0.618577 0.241367 0
M  V30 7120 H 656.829 2.04207 0.126826 0
M  V30 7121 H 656.839 3.50567 2.08726 0
M  V30 7122 H 655.514 4.02238 1.05725 0
M  V30 7123 H 654.091 2.82056 2.43924 0
M  V30 7124 N 656.276 -0.40816 1.52223 0
M  V30 7125 C 657.501 -1.18127 1.70472 0
M  V30 7126 C 657.926 -1.83491 0.41384 0
M  V30 7127 O 657.284 -1.70047 -0.628778 0
M  V30 7128 C 657.332 -2.21935 2.84213 0
M  V30 7129 O 656.436 -3.28099 2.4985 0
M  V30 7130 H 655.777 -0.344781 0.56747 0
M  V30 7131 H 658.307 -0.478328 1.9893 0
M  V30 7132 H 658.317 -2.66248 3.09153 0
M  V30 7133 H 656.992 -1.73744 3.7787 0
M  V30 7134 H 655.569 -2.89058 2.35584 0
M  V30 7135 N 657.755 -1.42862 -0.66545 0
M  V30 7136 C 658.98 -1.47456 -1.45848 0
M  V30 7137 C 659.405 -0.0900312 -1.87884 0
M  V30 7138 O 658.763 0.913587 -1.56599 0
M  V30 7139 C 658.811 -2.41514 -2.67774 0
M  V30 7140 O 657.915 -1.89296 -3.66389 0
M  V30 7141 H 657.256 -0.499236 -0.437789 0
M  V30 7142 H 659.786 -1.8765 -0.815394 0
M  V30 7143 H 659.796 -2.58409 -3.15735 0
M  V30 7144 H 658.471 -3.42099 -2.36519 0
M  V30 7145 H 657.048 -1.82003 -3.25468 0
M  V30 7146 N 659.233 0.902656 -1.29189 0
M  V30 7147 C 660.48 1.65287 -1.16989 0
M  V30 7148 C 660.808 1.92485 0.279232 0
M  V30 7149 O 660.063 1.53143 1.21843 0
M  V30 7150 C 660.362 3.011 -1.92545 0
M  V30 7151 C 660.028 2.93521 -3.42281 0
M  V30 7152 C 658.69 2.91161 -3.83117 0
M  V30 7153 C 661.042 2.82947 -4.3771 0
M  V30 7154 C 658.37 2.76043 -5.17704 0
M  V30 7155 C 660.722 2.69368 -5.72384 0
M  V30 7156 C 659.386 2.65373 -6.12482 0
M  V30 7157 H 658.656 0.604828 -0.428094 0
M  V30 7158 H 661.303 1.05084 -1.60092 0
M  V30 7159 H 659.608 3.65153 -1.42024 0
M  V30 7160 H 661.305 3.58073 -1.80512 0
M  V30 7161 H 657.895 2.96158 -3.09819 0
M  V30 7162 H 662.079 2.83849 -4.07116 0
M  V30 7163 H 657.335 2.71352 -5.47885 0
M  V30 7164 H 661.509 2.60156 -6.45981 0
M  V30 7165 H 659.136 2.53415 -7.16718 0
M  V30 7166 N 660.711 1.11618 1.11262 0
M  V30 7167 C 661.643 0.734015 2.17129 0
M  V30 7168 C 662.656 -0.235243 1.61091 0
M  V30 7169 O 663.845 -0.0178597 1.78491 0
M  V30 7170 C 660.945 0.0643682 3.38839 0
M  V30 7171 C 660.118 1.06092 4.24339 0
M  V30 7172 C 659.177 0.420482 5.24517 0
M  V30 7173 O 658.203 1.07495 5.58957 0
M  V30 7174 N 659.405 -0.815828 5.74739 0
M  V30 7175 H 662.17 1.64492 2.50524 0
M  V30 7176 H 659.731 1.00664 1.26801 0
M  V30 7177 H 661.723 -0.375851 4.02951 0
M  V30 7178 H 660.293 -0.749147 3.03491 0
M  V30 7179 H 659.513 1.67903 3.56654 0
M  V30 7180 H 660.801 1.73507 4.78302 0
M  V30 7181 H 660.199 -1.36668 5.48943 0
M  V30 7182 H 658.756 -1.199 6.40677 0
M  V30 7183 N 662.189 -1.289 0.906776 0
M  V30 7184 C 663.605 -1.47733 0.603902 0
M  V30 7185 C 663.805 -1.82568 -0.852702 0
M  V30 7186 O 662.861 -1.92642 -1.63234 0
M  V30 7187 C 664.174 -2.58522 1.53581 0
M  V30 7188 C 665.722 -2.72394 1.54177 0
M  V30 7189 C 666.197 -3.86318 2.46013 0
M  V30 7190 N 667.688 -3.93661 2.441 0
M  V30 7191 C 668.423 -4.81177 3.11859 0
M  V30 7192 N 667.919 -5.73333 3.88923 0
M  V30 7193 N 669.712 -4.74728 3.00981 0
M  V30 7194 H 661.863 -1.04567 1.84877 0
M  V30 7195 H 664.126 -0.520118 0.792579 0
M  V30 7196 H 663.832 -2.39667 2.57396 0
M  V30 7197 H 663.706 -3.55475 1.26165 0
M  V30 7198 H 666.093 -2.90641 0.511034 0
M  V30 7199 H 666.174 -1.75993 1.85634 0
M  V30 7200 H 665.818 -3.68826 3.49185 0
M  V30 7201 H 665.748 -4.82102 2.11862 0
M  V30 7202 H 668.239 -3.27751 1.88115 0
M  V30 7203 H 668.552 -6.36923 4.37663 0
M  V30 7204 H 666.897 -5.73196 3.93029 0
M  V30 7205 H 670.088 -4.01722 2.40286 0
M  V30 7206 H 670.261 -5.42719 3.54062 0
M  V30 7207 N 663.667 -0.670007 -1.42649 0
M  V30 7208 C 664.617 0.0339546 -2.27975 0
M  V30 7209 C 665.601 0.778295 -1.40824 0
M  V30 7210 O 666.793 0.657997 -1.64315 0
M  V30 7211 C 663.922 0.987899 -3.28779 0
M  V30 7212 C 663.008 0.241153 -4.23414 0
M  V30 7213 N 663.399 -0.751392 -5.00188 0
M  V30 7214 C 661.697 0.480269 -4.43407 0
M  V30 7215 C 662.398 -1.19615 -5.69269 0
M  V30 7216 N 661.374 -0.527045 -5.41039 0
M  V30 7217 H 665.176 -0.727425 -2.84756 0
M  V30 7218 H 662.69 -0.498673 -1.54554 0
M  V30 7219 H 664.687 1.50716 -3.88703 0
M  V30 7220 H 663.347 1.74916 -2.73559 0
M  V30 7221 H 664.358 -1.13075 -5.05405 0
M  V30 7222 H 661.035 1.2214 -3.99234 0
M  V30 7223 H 662.425 -2.01836 -6.40868 0
M  V30 7224 N 665.145 1.52092 -0.413018 0
M  V30 7225 C 666.394 2.01041 0.16287 0
M  V30 7226 C 666.707 1.30288 1.45892 0
M  V30 7227 O 667.913 1.70075 2.11629 0
M  V30 7228 C 666.369 3.58283 0.340806 0
M  V30 7229 C 665.977 4.37955 -0.943377 0
M  V30 7230 C 667.721 4.15452 0.871774 0
M  V30 7231 C 665.628 5.86847 -0.732417 0
M  V30 7232 H 664.558 0.751224 0.0646414 0
M  V30 7233 H 667.209 1.75404 -0.539059 0
M  V30 7234 H 665.591 3.80266 1.10516 0
M  V30 7235 H 666.765 4.2773 -1.71418 0
M  V30 7236 H 665.08 3.92122 -1.40105 0
M  V30 7237 H 667.677 5.24375 1.0457 0
M  V30 7238 H 668.02 3.73057 1.84755 0
M  V30 7239 H 668.553 3.97452 0.166377 0
M  V30 7240 H 665.292 6.33609 -1.67986 0
M  V30 7241 H 664.812 5.998 -0.000980058 0
M  V30 7242 H 666.491 6.45906 -0.376105 0
M  V30 7243 N 666.623 0.143563 1.56945 0
M  V30 7244 C 668.039 -0.212877 1.58174 0
M  V30 7245 C 668.239 -1.64926 1.15766 0
M  V30 7246 O 667.295 -2.37535 0.856361 0
M  V30 7247 C 668.608 0.0427573 3.0067 0
M  V30 7248 C 670.156 -0.0212221 3.12993 0
M  V30 7249 C 670.631 0.207036 4.57532 0
M  V30 7250 N 672.122 0.153845 4.62944 0
M  V30 7251 C 672.857 0.305018 5.72588 0
M  V30 7252 N 672.353 0.513722 6.90893 0
M  V30 7253 N 674.146 0.242862 5.61575 0
M  V30 7254 H 666.297 1.08148 1.82805 0
M  V30 7255 H 668.56 0.427831 0.84597 0
M  V30 7256 H 668.266 1.03672 3.36073 0
M  V30 7257 H 668.14 -0.678195 3.71053 0
M  V30 7258 H 670.527 -1.00574 2.77433 0
M  V30 7259 H 670.608 0.732004 2.45103 0
M  V30 7260 H 670.252 1.18863 4.93795 0
M  V30 7261 H 670.182 -0.566473 5.23544 0
M  V30 7262 H 672.673 -0.00294866 3.779 0
M  V30 7263 H 672.986 0.619273 7.70315 0
M  V30 7264 H 671.331 0.550001 6.9282 0
M  V30 7265 H 674.522 0.0806015 4.68031 0
M  V30 7266 H 674.695 0.364112 6.46976 0
M  V30 7267 N 668.101 -1.57061 -0.130224 0
M  V30 7268 C 669.048 -1.99517 -1.16024 0
M  V30 7269 C 670.018 -0.865452 -1.41771 0
M  V30 7270 O 671.203 -1.12882 -1.53826 0
M  V30 7271 C 668.343 -2.3951 -2.48453 0
M  V30 7272 C 667.456 -3.65848 -2.29737 0
M  V30 7273 C 666.591 -3.9487 -3.55318 0
M  V30 7274 C 665.63 -5.14426 -3.31711 0
M  V30 7275 N 664.767 -5.39375 -4.49466 0
M  V30 7276 H 669.607 -2.87305 -0.791194 0
M  V30 7277 H 667.144 -1.42129 -0.379195 0
M  V30 7278 H 669.102 -2.60731 -3.25692 0
M  V30 7279 H 667.732 -1.54779 -2.83272 0
M  V30 7280 H 666.784 -3.52307 -1.4347 0
M  V30 7281 H 668.096 -4.53241 -2.08263 0
M  V30 7282 H 667.25 -4.16679 -4.4098 0
M  V30 7283 H 665.989 -3.05931 -3.79813 0
M  V30 7284 H 664.994 -4.92473 -2.44439 0
M  V30 7285 H 666.219 -6.04933 -3.08598 0
M  V30 7286 H 664.165 -4.53391 -4.74102 0
M  V30 7287 H 664.082 -6.21069 -4.31055 0
M  V30 7288 H 665.35 -5.65694 -5.36293 0
M  V30 7289 N 669.579 0.400081 -1.52437 0
M  V30 7290 C 670.995 0.739359 -1.41441 0
M  V30 7291 C 671.195 1.94512 -0.526053 0
M  V30 7292 O 670.251 2.525 0.00472502 0
M  V30 7293 C 671.564 0.984824 -2.84116 0
M  V30 7294 C 673.112 1.08698 -2.93519 0
M  V30 7295 C 673.587 1.36515 -4.37181 0
M  V30 7296 N 675.078 1.43361 -4.40457 0
M  V30 7297 C 675.813 1.66528 -5.48686 0
M  V30 7298 N 675.309 1.87239 -6.67018 0
M  V30 7299 N 677.102 1.68617 -5.36213 0
M  V30 7300 H 669.253 -0.393484 -2.08723 0
M  V30 7301 H 671.516 -0.1138 -0.941145 0
M  V30 7302 H 671.222 0.171096 -3.51284 0
M  V30 7303 H 671.096 1.90253 -3.25705 0
M  V30 7304 H 673.483 1.89129 -2.26526 0
M  V30 7305 H 673.564 0.147432 -2.55375 0
M  V30 7306 H 673.208 0.565982 -5.04737 0
M  V30 7307 H 673.138 2.31737 -4.7287 0
M  V30 7308 H 675.629 1.29108 -3.55161 0
M  V30 7309 H 675.942 2.04392 -7.45281 0
M  V30 7310 H 674.287 1.84486 -6.70067 0
M  V30 7311 H 677.478 1.5198 -4.42741 0
M  V30 7312 H 677.651 1.86332 -6.20632 0
M  V30 7313 N 671.057 1.43213 0.657864 0
M  V30 7314 C 672.473 1.26511 0.972992 0
M  V30 7315 C 672.673 0.181477 2.00681 0
M  V30 7316 O 671.729 -0.441649 2.48608 0
M  V30 7317 C 673.042 2.62784 1.46168 0
M  V30 7318 C 674.59 2.70278 1.57857 0
M  V30 7319 C 675.065 4.06958 2.10117 0
M  V30 7320 N 676.556 4.08999 2.17426 0
M  V30 7321 C 677.291 5.11585 2.58975 0
M  V30 7322 N 676.787 6.24548 2.99853 0
M  V30 7323 N 678.58 4.9894 2.58873 0
M  V30 7324 H 670.731 2.12384 -0.0263129 0
M  V30 7325 H 672.994 0.946638 0.0507992 0
M  V30 7326 H 672.7 3.43022 0.776474 0
M  V30 7327 H 672.574 2.87863 2.43751 0
M  V30 7328 H 674.961 1.90376 2.25479 0
M  V30 7329 H 675.042 2.4897 0.587179 0
M  V30 7330 H 674.686 4.87325 1.43098 0
M  V30 7331 H 674.616 4.25628 3.10078 0
M  V30 7332 H 677.107 3.27457 1.88627 0
M  V30 7333 H 677.42 6.98661 3.30292 0
M  V30 7334 H 675.765 6.28027 2.97669 0
M  V30 7335 H 678.956 4.09757 2.26311 0
M  V30 7336 H 679.129 5.79019 2.90932 0
M  V30 7337 N 672.536 -0.895792 1.29666 0
M  V30 7338 C 673.761 -1.68528 1.20885 0
M  V30 7339 C 674.186 -1.8673 -0.226595 0
M  V30 7340 O 673.544 -1.39044 -1.16347 0
M  V30 7341 C 673.592 -3.04512 1.93144 0
M  V30 7342 O 672.696 -3.92963 1.25115 0
M  V30 7343 H 672.037 -0.515371 0.418675 0
M  V30 7344 H 674.567 -1.11878 1.71302 0
M  V30 7345 H 674.577 -3.54628 2.0175 0
M  V30 7346 H 673.252 -2.90582 2.97548 0
M  V30 7347 H 671.829 -3.51399 1.24794 0
M  V30 7348 N 674.014 -1.12206 -1.10668 0
M  V30 7349 C 675.242 -0.898635 -1.86366 0
M  V30 7350 C 675.657 0.551991 -1.80551 0
M  V30 7351 O 675.014 1.38152 -1.19249 0
M  V30 7352 C 675.065 -1.36199 -3.34861 0
M  V30 7353 O 674.786 -2.75576 -3.40573 0
M  V30 7354 C 676.287 -1.17515 -4.2744 0
M  V30 7355 H 673.507 -0.321281 -0.589084 0
M  V30 7356 H 676.051 -1.49142 -1.39918 0
M  V30 7357 H 674.206 -0.81249 -3.78784 0
M  V30 7358 H 674.62 -2.95851 -4.33096 0
M  V30 7359 H 676.094 -1.54827 -5.29842 0
M  V30 7360 H 676.571 -0.115486 -4.39048 0
M  V30 7361 H 677.177 -1.71203 -3.89319 0
M  V30 7362 N 675.492 1.28418 -0.913599 0
M  V30 7363 C 676.769 1.89977 -0.465619 0
M  V30 7364 C 677.149 1.82813 1.05559 0
M  V30 7365 O 676.497 1.26397 1.90358 0
M  V30 7366 C 676.707 3.34492 -0.995813 0
M  V30 7367 C 678.055 4.11468 -1.04782 0
M  V30 7368 O 679.079 3.43451 -0.944445 0
M  V30 7369 O 677.938 5.33046 -1.20518 0
M  V30 7370 H 675.032 0.813734 -0.147532 0
M  V30 7371 H 677.578 1.36786 -1.00437 0
M  V30 7372 H 676.35 3.33929 -2.03978 0
M  V30 7373 H 675.973 3.95181 -0.437878 0
M  V30 7374 N 676.97 0.677563 1.42291 0
M  V30 7375 C 678.217 0.200975 2.015 0
M  V30 7376 C 678.545 -1.19342 1.53583 0
M  V30 7377 O 677.8 -1.81579 0.7299 0
M  V30 7378 C 678.099 0.187229 3.56909 0
M  V30 7379 C 677.765 1.52667 4.24268 0
M  V30 7380 C 676.427 1.89341 4.42384 0
M  V30 7381 C 678.779 2.40869 4.62203 0
M  V30 7382 C 676.107 3.13836 4.95705 0
M  V30 7383 C 678.459 3.64679 5.16906 0
M  V30 7384 C 677.123 4.01519 5.33234 0
M  V30 7385 H 676.393 0.0735418 0.737342 0
M  V30 7386 H 679.04 0.873095 1.70439 0
M  V30 7387 H 677.345 -0.568407 3.87655 0
M  V30 7388 H 679.042 -0.198773 4.00507 0
M  V30 7389 H 675.632 1.23138 4.1053 0
M  V30 7390 H 679.816 2.1382 4.47878 0
M  V30 7391 H 675.072 3.42396 5.06532 0
M  V30 7392 H 679.246 4.33224 5.45243 0
M  V30 7393 H 676.873 4.98062 5.74316 0
M  V30 7394 N 678.448 -1.51871 0.421078 0
M  V30 7395 C 679.358 -2.31077 -0.405069 0
M  V30 7396 C 680.374 -1.39301 -1.04265 0
M  V30 7397 O 681.55 -1.72376 -1.04157 0
M  V30 7398 C 678.615 -3.12556 -1.50032 0
M  V30 7399 C 677.676 -4.20088 -0.884559 0
M  V30 7400 C 676.909 -4.97673 -1.92762 0
M  V30 7401 O 677.132 -4.75696 -3.14753 0
M  V30 7402 O 676.066 -5.82203 -1.52719 0
M  V30 7403 H 679.892 -3.02742 0.241086 0
M  V30 7404 H 677.477 -1.48263 0.183991 0
M  V30 7405 H 679.359 -3.6326 -2.13589 0
M  V30 7406 H 678.034 -2.43672 -2.13086 0
M  V30 7407 H 676.941 -3.73502 -0.211379 0
M  V30 7408 H 678.274 -4.91298 -0.297763 0
M  V30 7409 N 679.926 -0.151884 -1.56866 0
M  V30 7410 C 681.173 0.498004 -1.96281 0
M  V30 7411 C 681.501 1.64551 -1.03698 0
M  V30 7412 O 680.756 1.95585 -0.0671497 0
M  V30 7413 C 681.055 1.04074 -3.41911 0
M  V30 7414 C 680.721 0.0111688 -4.50899 0
M  V30 7415 C 679.383 -0.271844 -4.80432 0
M  V30 7416 C 681.735 -0.68869 -5.1663 0
M  V30 7417 C 679.063 -1.26044 -5.73001 0
M  V30 7418 C 681.415 -1.66613 -6.10264 0
M  V30 7419 C 680.079 -1.9568 -6.38174 0
M  V30 7420 H 679.349 0.182233 -0.718242 0
M  V30 7421 H 681.996 -0.239746 -1.89993 0
M  V30 7422 H 680.301 1.85592 -3.45055 0
M  V30 7423 H 681.998 1.55224 -3.69738 0
M  V30 7424 H 678.588 0.241932 -4.27917 0
M  V30 7425 H 682.772 -0.48324 -4.93942 0
M  V30 7426 H 678.028 -1.49202 -5.92915 0
M  V30 7427 H 682.202 -2.21392 -6.60272 0
M  V30 7428 H 679.829 -2.72434 -7.09707 0
M  V30 7429 N 681.404 1.57128 0.121893 0
M  V30 7430 C 682.681 1.75664 0.860327 0
M  V30 7431 C 683.061 0.726585 1.98202 0
M  V30 7432 O 682.409 -0.24999 2.27128 0
M  V30 7433 C 682.619 3.20571 1.37968 0
M  V30 7434 C 683.967 3.82988 1.83317 0
M  V30 7435 O 684.991 3.24156 1.47654 0
M  V30 7436 O 683.85 4.86393 2.49168 0
M  V30 7437 H 680.944 0.719153 0.408348 0
M  V30 7438 H 683.49 1.6937 0.105859 0
M  V30 7439 H 682.262 3.87056 0.57477 0
M  V30 7440 H 681.885 3.31392 2.19694 0
M  V30 7441 N 682.882 -0.391992 1.52647 0
M  V30 7442 C 684.293 -0.970064 1.5952 0
M  V30 7443 C 684.644 -1.91059 0.446207 0
M  V30 7444 O 683.769 -2.12062 -0.431125 0
M  V30 7445 C 684.364 -1.76614 2.89125 0
M  V30 7446 C 682.923 -2.29396 2.9842 0
M  V30 7447 C 682.07 -1.09864 2.54608 0
M  V30 7448 H 685.021 -0.171638 1.57769 0
M  V30 7449 H 685.042 -2.62511 2.75442 0
M  V30 7450 H 684.554 -1.08135 3.72731 0
M  V30 7451 H 682.655 -3.01196 2.19344 0
M  V30 7452 H 682.768 -2.59088 4.03002 0
M  V30 7453 H 681.132 -1.45777 2.08857 0
M  V30 7454 H 681.915 -0.429249 3.40606 0
M  V30 7455 N 684.36 -1.4356 -0.65026 0
M  V30 7456 C 685.31 -1.45392 -1.75628 0
M  V30 7457 C 686.294 -0.322006 -1.57645 0
M  V30 7458 O 687.486 -0.565996 -1.67707 0
M  V30 7459 C 684.615 -1.38254 -3.1423 0
M  V30 7460 C 683.701 -2.56487 -3.3775 0
M  V30 7461 N 684.092 -3.81824 -3.31729 0
M  V30 7462 C 682.39 -2.51274 -3.6848 0
M  V30 7463 C 683.091 -4.60497 -3.55412 0
M  V30 7464 N 682.067 -3.91274 -3.77367 0
M  V30 7465 H 685.869 -2.40167 -1.69402 0
M  V30 7466 H 683.383 -1.38254 -0.852037 0
M  V30 7467 H 685.38 -1.3765 -3.9352 0
M  V30 7468 H 684.04 -0.445019 -3.21636 0
M  V30 7469 H 685.051 -4.14069 -3.11074 0
M  V30 7470 H 681.728 -1.66223 -3.82983 0
M  V30 7471 H 683.118 -5.69518 -3.5651 0
M  V30 7472 N 685.838 0.888903 -1.30139 0
M  V30 7473 C 687.063 1.67884 -1.21777 0
M  V30 7474 C 687.488 1.86848 0.216689 0
M  V30 7475 O 686.846 1.39659 1.15608 0
M  V30 7476 C 686.894 3.03483 -1.94757 0
M  V30 7477 O 685.998 3.92294 -1.27198 0
M  V30 7478 H 685.339 0.513144 -0.421402 0
M  V30 7479 H 687.869 1.10968 -1.71893 0
M  V30 7480 H 687.879 3.53553 -2.03627 0
M  V30 7481 H 686.554 2.89 -2.99085 0
M  V30 7482 H 685.131 3.50732 -1.26655 0
M  V30 7483 N 687.317 1.12792 1.10072 0
M  V30 7484 C 688.265 0.794523 2.18609 0
M  V30 7485 C 689.259 -0.220271 1.67962 0
M  V30 7486 O 690.465 -0.0780938 1.79831 0
M  V30 7487 H 686.84 0.239123 0.712969 0
M  V30 7488 H 688.811 1.71823 2.43966 0
M  V30 7489 C 687.56 0.269548 3.46654 0
M  V30 7490 H 686.883 1.04171 3.8599 0
M  V30 7491 H 688.323 0.0746242 4.23934 0
M  V30 7492 C 686.782 -1.00333 3.21613 0
M  V30 7493 O 687.312 -2.08042 3.4363 0
M  V30 7494 N 685.518 -0.931763 2.75257 0
M  V30 7495 H 685.065 -0.0551197 2.57541 0
M  V30 7496 H 685.023 -1.78405 2.58881 0
M  V30 7497 N 688.795 -1.27931 0.920396 0
M  V30 7498 C 690.042 -1.94689 0.557007 0
M  V30 7499 C 690.37 -1.724 -0.900476 0
M  V30 7500 O 689.625 -1.04194 -1.65657 0
M  V30 7501 C 689.924 -3.47853 0.820558 0
M  V30 7502 C 689.59 -3.90252 2.25863 0
M  V30 7503 C 688.252 -4.01539 2.65179 0
M  V30 7504 C 690.604 -4.11853 3.19415 0
M  V30 7505 C 687.932 -4.3181 3.97187 0
M  V30 7506 C 690.284 -4.43606 4.50995 0
M  V30 7507 C 688.948 -4.53105 4.90155 0
M  V30 7508 H 688.218 -0.712416 0.203823 0
M  V30 7509 H 690.865 -1.52142 1.16298 0
M  V30 7510 H 689.17 -3.91578 0.131844 0
M  V30 7511 H 690.867 -3.97634 0.51847 0
M  V30 7512 H 687.457 -3.81999 1.94358 0
M  V30 7513 H 691.641 -4.0258 2.90246 0
M  V30 7514 H 686.897 -4.37371 4.2722 0
M  V30 7515 H 691.071 -4.59268 5.23494 0
M  V30 7516 H 688.698 -4.76315 5.92476 0
M  V30 7517 N 690.273 -0.685099 -1.4193 0
M  V30 7518 C 691.503 -0.220052 -2.05425 0
M  V30 7519 C 691.911 1.13185 -1.51611 0
M  V30 7520 O 691.254 1.71631 -0.654875 0
M  V30 7521 C 691.316 -0.0888364 -3.5939 0
M  V30 7522 C 690.98 -1.37109 -4.35947 0
M  V30 7523 C 691.977 -2.30675 -4.65924 0
M  V30 7524 C 689.662 -1.62155 -4.75406 0
M  V30 7525 C 691.656 -3.47556 -5.34306 0
M  V30 7526 C 689.343 -2.79324 -5.43527 0
M  V30 7527 C 690.341 -3.71848 -5.72903 0
M  V30 7528 O 690.029 -4.86966 -6.39624 0
M  V30 7529 H 689.761 -0.102165 -0.668235 0
M  V30 7530 H 692.315 -0.935194 -1.82875 0
M  V30 7531 H 690.545 0.681981 -3.80639 0
M  V30 7532 H 692.234 0.337669 -4.04493 0
M  V30 7533 H 693 -2.12579 -4.3593 0
M  V30 7534 H 688.879 -0.910053 -4.51928 0
M  V30 7535 H 692.423 -4.19794 -5.57153 0
M  V30 7536 H 688.32 -2.97342 -5.72938 0
M  V30 7537 H 689.088 -4.86644 -6.58118 0
M  V30 7538 N 691.751 1.51645 -0.429126 0
M  V30 7539 C 692.701 2.24388 0.404217 0
M  V30 7540 C 693.685 1.26294 0.996933 0
M  V30 7541 O 694.877 1.51428 0.916434 0
M  V30 7542 C 692.006 3.08338 1.50938 0
M  V30 7543 C 691.092 4.13857 0.926464 0
M  V30 7544 N 691.483 5.05749 0.0719732 0
M  V30 7545 C 689.781 4.29695 1.19491 0
M  V30 7546 C 690.482 5.81143 -0.254528 0
M  V30 7547 N 689.458 5.42408 0.359763 0
M  V30 7548 H 693.26 2.92794 -0.254697 0
M  V30 7549 H 690.774 1.60606 -0.240712 0
M  V30 7550 H 692.771 3.59022 2.11918 0
M  V30 7551 H 691.431 2.41475 2.17072 0
M  V30 7552 H 692.442 5.17066 -0.293854 0
M  V30 7553 H 689.119 3.74059 1.85434 0
M  V30 7554 H 690.509 6.65159 -0.949365 0
M  V30 7555 N 693.229 0.160201 1.56784 0
M  V30 7556 C 694.476 -0.487588 1.96542 0
M  V30 7557 C 694.804 -1.63999 1.04569 0
M  V30 7558 O 694.059 -1.95546 0.0775211 0
M  V30 7559 C 694.358 -1.02259 3.42459 0
M  V30 7560 C 694.024 0.0127436 4.50898 0
M  V30 7561 C 692.686 0.297318 4.80281 0
M  V30 7562 C 695.038 0.716078 5.16257 0
M  V30 7563 C 692.366 1.29081 5.72324 0
M  V30 7564 C 694.718 1.69847 6.09372 0
M  V30 7565 C 693.382 1.99061 6.37127 0
M  V30 7566 H 692.652 -0.178421 0.719199 0
M  V30 7567 H 695.299 0.249818 1.89864 0
M  V30 7568 H 693.604 -1.8376 3.46034 0
M  V30 7569 H 695.301 -1.53261 3.70556 0
M  V30 7570 H 691.891 -0.219235 4.28039 0
M  V30 7571 H 696.075 0.509428 4.93679 0
M  V30 7572 H 691.331 1.52344 5.92116 0
M  V30 7573 H 695.505 2.2489 6.59088 0
M  V30 7574 H 693.132 2.76194 7.08252 0
M  V30 7575 N 694.707 -1.5719 -0.113559 0
M  V30 7576 C 695.935 -1.89328 -0.834422 0
M  V30 7577 C 696.35 -0.752018 -1.73177 0
M  V30 7578 O 695.707 0.276912 -1.80387 0
M  V30 7579 C 695.758 -3.20962 -1.66329 0
M  V30 7580 O 695.479 -4.30695 -0.802069 0
M  V30 7581 C 696.98 -3.6684 -2.48884 0
M  V30 7582 H 694.2 -0.626769 -0.239587 0
M  V30 7583 H 696.744 -2.04273 -0.0963195 0
M  V30 7584 H 694.899 -3.0767 -2.35409 0
M  V30 7585 H 695.313 -5.06175 -1.37431 0
M  V30 7586 H 696.787 -4.61692 -3.02563 0
M  V30 7587 H 697.264 -2.93765 -3.26495 0
M  V30 7588 H 697.87 -3.82938 -1.85036 0
M  V30 7589 N 696.185 0.383891 -1.52853 0
M  V30 7590 C 697.601 0.724316 -1.42218 0
M  V30 7591 C 697.801 1.93943 -0.546654 0
M  V30 7592 O 696.857 2.5249 -0.0220562 0
M  V30 7593 C 698.17 0.954635 -2.85144 0
M  V30 7594 C 699.718 1.05579 -2.94656 0
M  V30 7595 C 700.193 1.3187 -4.38605 0
M  V30 7596 N 701.684 1.38681 -4.41952 0
M  V30 7597 C 702.419 1.60699 -5.50421 0
M  V30 7598 N 701.915 1.80154 -6.68967 0
M  V30 7599 N 703.708 1.6292 -5.37972 0
M  V30 7600 H 695.859 -0.4156 -2.08294 0
M  V30 7601 H 698.122 -0.123776 -0.939885 0
M  V30 7602 H 697.828 0.133829 -3.51445 0
M  V30 7603 H 697.702 1.86788 -3.27704 0
M  V30 7604 H 700.089 1.86716 -2.2852 0
M  V30 7605 H 700.17 0.120338 -2.55517 0
M  V30 7606 H 699.814 0.512416 -5.05309 0
M  V30 7607 H 699.744 2.26708 -4.75301 0
M  V30 7608 H 702.235 1.25334 -3.56511 0
M  V30 7609 H 702.548 1.96476 -7.47407 0
M  V30 7610 H 700.893 1.77368 -6.71986 0
M  V30 7611 H 704.084 1.47276 -4.44328 0
M  V30 7612 H 704.257 1.79739 -6.22574 0
M  V30 7613 N 697.663 1.43903 0.642637 0
M  V30 7614 C 699.074 1.40975 1.22404 0
M  V30 7615 C 699.425 0.1192 1.95838 0
M  V30 7616 O 698.55 -0.780939 2.01818 0
M  V30 7617 C 699.145 2.5538 2.22636 0
M  V30 7618 C 697.704 2.55684 2.76229 0
M  V30 7619 C 696.851 2.32556 1.51039 0
M  V30 7620 H 699.802 1.5265 0.434006 0
M  V30 7621 H 699.823 2.27474 3.05017 0
M  V30 7622 H 699.335 3.49294 1.69161 0
M  V30 7623 H 697.436 1.65679 3.33738 0
M  V30 7624 H 697.549 3.53799 3.23053 0
M  V30 7625 H 695.913 1.81427 1.78764 0
M  V30 7626 H 696.696 3.28569 0.99484 0
M  V30 7627 N 699.141 -0.881989 1.30609 0
M  V30 7628 C 700.071 -2.00413 1.1982 0
M  V30 7629 C 701.052 -1.69871 0.0881538 0
M  V30 7630 O 702.237 -1.92304 0.2707 0
M  V30 7631 C 699.367 -3.35641 0.89233 0
M  V30 7632 C 698.321 -3.80451 1.96064 0
M  V30 7633 C 697.647 -5.13003 1.5077 0
M  V30 7634 C 698.947 -3.98855 3.37213 0
M  V30 7635 H 700.641 -2.09698 2.13699 0
M  V30 7636 H 698.187 -1.00754 1.02882 0
M  V30 7637 H 700.14 -4.13669 0.803497 0
M  V30 7638 H 698.864 -3.26497 -0.0821381 0
M  V30 7639 H 697.523 -3.04654 2.03916 0
M  V30 7640 H 697.171 -5.0029 0.521417 0
M  V30 7641 H 696.871 -5.43956 2.22229 0
M  V30 7642 H 698.395 -5.93554 1.43271 0
M  V30 7643 H 699.809 -4.67312 3.32103 0
M  V30 7644 H 698.206 -4.41188 4.06784 0
M  V30 7645 H 699.276 -3.02614 3.78883 0
M  V30 7646 N 700.619 -1.13374 -1.09472 0
M  V30 7647 C 701.868 -0.889844 -1.8101 0
M  V30 7648 C 702.181 0.585686 -1.86625 0
M  V30 7649 O 703.387 0.946497 -2.54467 0
M  V30 7650 C 701.843 -1.54241 -3.25174 0
M  V30 7651 C 701.451 -3.05343 -3.27826 0
M  V30 7652 C 703.195 -1.37919 -4.0147 0
M  V30 7653 C 701.102 -3.63486 -4.6651 0
M  V30 7654 H 700.032 -0.329256 -0.678311 0
M  V30 7655 H 702.683 -1.36139 -1.23038 0
M  V30 7656 H 701.065 -0.998525 -3.83204 0
M  V30 7657 H 702.239 -3.66307 -2.79563 0
M  V30 7658 H 700.554 -3.21175 -2.65019 0
M  V30 7659 H 703.151 -1.78771 -5.03929 0
M  V30 7660 H 703.494 -0.323987 -4.15037 0
M  V30 7661 H 704.027 -1.89284 -3.49881 0
M  V30 7662 H 700.766 -4.68811 -4.58145 0
M  V30 7663 H 700.286 -3.073 -5.15099 0
M  V30 7664 H 701.965 -3.63134 -5.35484 0
M  V30 7665 N 702.098 1.27442 -0.927168 0
M  V30 7666 C 703.045 2.26863 -0.424459 0
M  V30 7667 C 704.015 1.5813 0.508346 0
M  V30 7668 O 705.2 1.85946 0.42762 0
M  V30 7669 C 702.34 3.43639 0.31718 0
M  V30 7670 C 701.453 4.27087 -0.649675 0
M  V30 7671 C 700.588 5.31082 0.111753 0
M  V30 7672 C 699.627 6.062 -0.847843 0
M  V30 7673 N 698.764 7.01999 -0.119074 0
M  V30 7674 H 703.604 2.69239 -1.27728 0
M  V30 7675 H 701.141 1.32394 -0.641106 0
M  V30 7676 H 703.099 4.10155 0.763486 0
M  V30 7677 H 701.729 3.02217 1.13424 0
M  V30 7678 H 700.781 3.60491 -1.21451 0
M  V30 7679 H 702.093 4.79242 -1.38307 0
M  V30 7680 H 701.247 6.03544 0.618 0
M  V30 7681 H 699.986 4.7973 0.878114 0
M  V30 7682 H 698.991 5.32577 -1.36534 0
M  V30 7683 H 700.216 6.59642 -1.61398 0
M  V30 7684 H 698.162 6.52977 0.629051 0
M  V30 7685 H 698.079 7.5184 -0.792046 0
M  V30 7686 H 699.347 7.78638 0.366537 0
M  V30 7687 N 703.576 0.692616 1.41565 0
M  V30 7688 C 704.987 0.297478 1.84315 0
M  V30 7689 C 705.338 -1.16379 1.57957 0
M  V30 7690 O 704.463 -1.89303 1.0485 0
M  V30 7691 C 705.058 0.533136 3.34579 0
M  V30 7692 C 703.617 0.191944 3.7591 0
M  V30 7693 C 702.764 0.816873 2.64995 0
M  V30 7694 H 705.715 0.893488 1.31158 0
M  V30 7695 H 705.736 -0.209105 3.79925 0
M  V30 7696 H 705.248 1.59674 3.53731 0
M  V30 7697 H 703.349 -0.867512 3.6236 0
M  V30 7698 H 703.462 0.644902 4.7474 0
M  V30 7699 H 701.826 0.246715 2.53502 0
M  V30 7700 H 702.609 1.88429 2.86966 0
M  V30 7701 N 705.054 -1.51416 0.437162 0
M  V30 7702 C 705.986 -2.255 -0.410171 0
M  V30 7703 C 706.999 -1.29511 -0.986444 0
M  V30 7704 O 708.188 -1.55266 -0.880614 0
M  V30 7705 C 705.288 -2.99511 -1.58575 0
M  V30 7706 C 704.461 -4.22595 -1.12839 0
M  V30 7707 C 703.52 -4.79187 -2.17407 0
M  V30 7708 O 702.546 -5.4103 -1.76849 0
M  V30 7709 N 703.748 -4.63204 -3.49889 0
M  V30 7710 H 706.513 -2.98856 0.224783 0
M  V30 7711 H 704.074 -1.59699 0.266041 0
M  V30 7712 H 706.066 -3.34258 -2.28152 0
M  V30 7713 H 704.636 -2.29167 -2.12606 0
M  V30 7714 H 703.856 -3.93344 -0.259695 0
M  V30 7715 H 705.144 -5.02468 -0.800196 0
M  V30 7716 H 704.542 -4.13945 -3.85573 0
M  V30 7717 H 703.099 -5.02313 -4.15361 0
M  V30 7718 N 706.532 -0.168513 -1.56696 0
M  V30 7719 C 707.772 0.479648 -1.98693 0
M  V30 7720 C 708.136 1.60609 -1.05209 0
M  V30 7721 O 709.337 2.3166 -1.36334 0
M  V30 7722 C 707.608 0.952852 -3.44464 0
M  V30 7723 S 709.167 1.60259 -4.08488 0
M  V30 7724 H 705.985 0.154377 -0.694038 0
M  V30 7725 H 708.587 -0.265312 -1.93691 0
M  V30 7726 H 707.291 0.12257 -4.10217 0
M  V30 7727 H 706.822 1.73192 -3.53225 0
M  V30 7728 H 708.837 2.89065 -4.03307 0
M  V30 7729 N 708.01 1.57248 0.105221 0
M  V30 7730 C 708.973 2.00388 1.11252 0
M  V30 7731 C 709.973 0.89594 1.33527 0
M  V30 7732 O 711.163 1.16166 1.29811 0
M  V30 7733 C 708.295 2.35589 2.46395 0
M  V30 7734 H 709.488 2.90591 0.741424 0
M  V30 7735 H 707.041 1.52332 0.349956 0
M  V30 7736 H 707.776 1.4831 2.884 0
M  V30 7737 H 707.561 3.16408 2.31578 0
M  V30 7738 H 709.051 2.69658 3.18864 0
M  V30 7739 N 709.488 -0.375779 1.53054 0
M  V30 7740 C 710.451 -1.44254 1.7811 0
M  V30 7741 C 711.451 -1.47018 0.651328 0
M  V30 7742 O 712.641 -1.47957 0.919472 0
M  V30 7743 C 709.773 -2.8345 1.89391 0
M  V30 7744 H 710.966 -1.23316 2.73374 0
M  V30 7745 H 708.519 -0.608312 1.43977 0
M  V30 7746 H 709.254 -3.09716 0.961589 0
M  V30 7747 H 709.039 -2.82844 2.71555 0
M  V30 7748 H 710.529 -3.60722 2.10404 0
M  V30 7749 N 710.966 -1.44241 -0.634997 0
M  V30 7750 C 712.196 -1.50078 -1.41987 0
M  V30 7751 C 712.604 -0.123072 -1.88799 0
M  V30 7752 O 711.947 0.880552 -1.6122 0
M  V30 7753 C 712.009 -2.40033 -2.67628 0
M  V30 7754 C 711.673 -3.87268 -2.42637 0
M  V30 7755 C 712.67 -4.77902 -2.04708 0
M  V30 7756 C 710.355 -4.31933 -2.56396 0
M  V30 7757 C 712.349 -6.11202 -1.80862 0
M  V30 7758 C 710.036 -5.65281 -2.32164 0
M  V30 7759 C 711.034 -6.54734 -1.94455 0
M  V30 7760 O 710.722 -7.85613 -1.7049 0
M  V30 7761 H 710.454 -0.51146 -0.442023 0
M  V30 7762 H 713.008 -1.89843 -0.784138 0
M  V30 7763 H 711.238 -1.95188 -3.33824 0
M  V30 7764 H 712.927 -2.36863 -3.29622 0
M  V30 7765 H 713.693 -4.44668 -1.93638 0
M  V30 7766 H 709.572 -3.62569 -2.84719 0
M  V30 7767 H 713.116 -6.80983 -1.51353 0
M  V30 7768 H 709.013 -5.98078 -2.42843 0
M  V30 7769 H 709.781 -7.97373 -1.84767 0
M  V30 7770 N 712.444 0.87505 -1.31075 0
M  V30 7771 C 713.692 1.62447 -1.20231 0
M  V30 7772 C 714.013 1.93506 0.240888 0
M  V30 7773 O 713.283 1.57847 1.16022 0
M  V30 7774 H 711.863 0.602207 -0.441991 0
M  V30 7775 H 714.525 1.04788 -1.64334 0
M  V30 7776 H 713.621 2.57031 -1.77036 0
M  V30 7777 N 713.922 1.13953 1.08869 0
M  V30 7778 C 714.869 0.82213 2.15661 0
M  V30 7779 C 715.839 -0.218274 1.6466 0
M  V30 7780 O 717.024 -0.0892475 1.90591 0
M  V30 7781 C 714.164 0.300572 3.43789 0
M  V30 7782 C 713.277 1.40071 4.08661 0
M  V30 7783 C 712.412 0.836897 5.24566 0
M  V30 7784 C 711.451 1.91504 5.81371 0
M  V30 7785 N 710.588 1.36875 6.88629 0
M  V30 7786 H 715.428 1.73683 2.42153 0
M  V30 7787 H 712.965 0.866879 1.18843 0
M  V30 7788 H 714.923 -0.0199943 4.17195 0
M  V30 7789 H 713.553 -0.577248 3.17597 0
M  V30 7790 H 712.605 1.83776 3.33062 0
M  V30 7791 H 713.917 2.21534 4.46905 0
M  V30 7792 H 713.071 0.467953 6.04893 0
M  V30 7793 H 711.81 -0.00874207 4.87699 0
M  V30 7794 H 710.815 2.29299 4.99702 0
M  V30 7795 H 712.04 2.76419 6.20298 0
M  V30 7796 H 709.986 0.545211 6.5373 0
M  V30 7797 H 709.903 2.1198 7.25672 0
M  V30 7798 H 711.171 1.02756 7.72698 0
M  V30 7799 N 715.4 -1.26948 0.933913 0
M  V30 7800 C 716.363 -2.24889 0.442457 0
M  V30 7801 C 717.363 -1.54594 -0.442426 0
M  V30 7802 O 718.553 -1.72502 -0.242629 0
M  V30 7803 C 715.685 -3.3896 -0.363173 0
M  V30 7804 H 716.878 -2.69879 1.30787 0
M  V30 7805 H 714.431 -1.38978 0.715187 0
M  V30 7806 H 715.166 -2.99361 -1.24714 0
M  V30 7807 H 714.951 -3.9116 0.271366 0
M  V30 7808 H 716.441 -4.11739 -0.697186 0
M  V30 7809 N 716.879 -0.700114 -1.41195 0
M  V30 7810 C 717.809 -0.0521132 -2.33442 0
M  V30 7811 C 718.79 0.76228 -1.52063 0
M  V30 7812 O 719.975 0.714336 -1.80585 0
M  V30 7813 C 717.105 0.881693 -3.35922 0
M  V30 7814 C 716.059 0.174062 -4.27646 0
M  V30 7815 C 715.385 1.22254 -5.20536 0
M  V30 7816 C 716.685 -0.962396 -5.13357 0
M  V30 7817 H 718.379 -0.822574 -2.87879 0
M  V30 7818 H 715.925 -0.397011 -1.38419 0
M  V30 7819 H 717.878 1.34429 -3.99383 0
M  V30 7820 H 716.602 1.68387 -2.79845 0
M  V30 7821 H 715.261 -0.268551 -3.65615 0
M  V30 7822 H 714.909 2.01736 -4.60773 0
M  V30 7823 H 714.609 0.754038 -5.82742 0
M  V30 7824 H 716.133 1.68555 -5.86874 0
M  V30 7825 H 717.547 -0.579875 -5.7036 0
M  V30 7826 H 715.944 -1.35828 -5.84526 0
M  V30 7827 H 717.014 -1.80003 -4.50252 0
M  V30 7828 N 718.357 1.51182 -0.445186 0
M  V30 7829 C 719.634 1.9478 0.178965 0
M  V30 7830 C 720.014 1.38428 1.59376 0
M  V30 7831 O 719.362 0.574552 2.21159 0
M  V30 7832 C 719.572 3.48683 0.148711 0
M  V30 7833 C 720.92 4.23152 0.35042 0
M  V30 7834 O 721.944 3.55479 0.226474 0
M  V30 7835 O 720.803 5.4322 0.597893 0
M  V30 7836 H 717.897 0.817387 0.12573 0
M  V30 7837 H 720.443 1.62051 -0.503729 0
M  V30 7838 H 719.215 3.82176 -0.84009 0
M  V30 7839 H 718.838 3.87875 0.873979 0
M  V30 7840 N 719.835 0.176821 1.56605 0
M  V30 7841 C 720.765 -0.746841 2.21234 0
M  V30 7842 C 721.746 -1.23502 1.16967 0
M  V30 7843 O 722.931 -1.28718 1.45414 0
M  V30 7844 C 720.061 -1.97407 2.8574 0
M  V30 7845 C 719.015 -1.62153 3.96094 0
M  V30 7846 C 718.341 -2.92387 4.47676 0
M  V30 7847 C 719.641 -0.845353 5.15413 0
M  V30 7848 H 721.335 -0.208116 2.98676 0
M  V30 7849 H 718.881 -0.0986594 1.43662 0
M  V30 7850 H 720.834 -2.62531 3.2963 0
M  V30 7851 H 719.558 -2.53703 2.05676 0
M  V30 7852 H 718.217 -0.993964 3.52868 0
M  V30 7853 H 717.865 -3.46734 3.64396 0
M  V30 7854 H 717.565 -2.69551 5.22127 0
M  V30 7855 H 719.089 -3.5853 4.94255 0
M  V30 7856 H 720.503 -1.39929 5.55961 0
M  V30 7857 H 718.9 -0.715814 5.95815 0
M  V30 7858 H 719.97 0.157239 4.84645 0
M  V30 7859 N 721.313 -1.57302 -0.09688 0
M  V30 7860 C 722.538 -1.9058 -0.818169 0
M  V30 7861 C 722.963 -0.770921 -1.71576 0
M  V30 7862 O 722.321 0.277588 -1.79162 0
M  V30 7863 C 722.369 -3.22714 -1.60898 0
M  V30 7864 O 721.473 -3.10178 -2.71779 0
M  V30 7865 H 720.814 -0.624759 -0.224882 0
M  V30 7866 H 723.344 -2.04471 -0.07264 0
M  V30 7867 H 723.354 -3.55978 -1.99358 0
M  V30 7868 H 722.029 -4.04899 -0.950227 0
M  V30 7869 H 720.606 -2.88424 -2.3636 0
M  V30 7870 N 722.791 0.367657 -1.53252 0
M  V30 7871 C 723.721 1.45632 -1.8252 0
M  V30 7872 C 724.702 1.55979 -0.678568 0
M  V30 7873 O 725.887 1.70581 -0.928217 0
M  V30 7874 C 723.017 2.82994 -2.01325 0
M  V30 7875 C 721.971 2.87473 -3.17086 0
M  V30 7876 C 721.297 4.2749 -3.21179 0
M  V30 7877 C 722.597 2.55182 -4.55719 0
M  V30 7878 H 724.291 1.21387 -2.73689 0
M  V30 7879 H 721.837 0.58251 -1.31692 0
M  V30 7880 H 723.79 3.59179 -2.20383 0
M  V30 7881 H 722.514 3.08622 -1.06864 0
M  V30 7882 H 721.173 2.13739 -2.97844 0
M  V30 7883 H 720.821 4.5019 -2.24361 0
M  V30 7884 H 720.521 4.31403 -3.98955 0
M  V30 7885 H 722.045 5.0555 -3.42419 0
M  V30 7886 H 723.459 3.21081 -4.74953 0
M  V30 7887 H 721.856 2.70414 -5.3572 0
M  V30 7888 H 722.926 1.5044 -4.60973 0
M  V30 7889 N 724.269 1.44576 0.627338 0
M  V30 7890 C 725.217 1.52039 1.76031 0
M  V30 7891 C 726.211 0.391796 1.64807 0
M  V30 7892 O 727.417 0.5669 1.7084 0
M  V30 7893 H 723.792 0.477165 0.581221 0
M  V30 7894 H 725.763 2.47387 1.6686 0
M  V30 7895 C 724.512 1.48539 3.14375 0
M  V30 7896 H 723.835 2.34699 3.23661 0
M  V30 7897 H 725.275 1.57821 3.93534 0
M  V30 7898 C 723.734 0.20672 3.36265 0
M  V30 7899 O 724.264 -0.72154 3.95167 0
M  V30 7900 N 722.47 0.108654 2.90397 0
M  V30 7901 H 722.017 0.864884 2.42647 0
M  V30 7902 H 721.975 -0.746121 3.05418 0
M  V30 7903 N 725.747 -0.868086 1.31537 0
M  V30 7904 C 726.972 -1.65926 1.24432 0
M  V30 7905 C 727.397 -1.87169 -0.186936 0
M  V30 7906 O 726.755 -1.4148 -1.13371 0
M  V30 7907 C 726.803 -3.00347 1.9956 0
M  V30 7908 O 725.907 -3.90221 1.33422 0
M  V30 7909 H 725.248 -0.506375 0.429512 0
M  V30 7910 H 727.778 -1.0822 1.73637 0
M  V30 7911 H 727.788 -3.50269 2.09226 0
M  V30 7912 H 726.463 -2.84205 3.03645 0
M  V30 7913 H 725.04 -3.48672 1.32219 0
M  V30 7914 N 727.225 -1.14528 -1.08264 0
M  V30 7915 C 728.474 -0.908992 -1.80056 0
M  V30 7916 C 728.787 0.565859 -1.87236 0
M  V30 7917 O 729.993 0.919454 -2.55457 0
M  V30 7918 C 728.449 -1.57681 -3.23519 0
M  V30 7919 C 728.057 -3.08803 -3.24569 0
M  V30 7920 C 729.801 -1.4217 -3.99985 0
M  V30 7921 C 727.708 -3.68414 -4.62629 0
M  V30 7922 H 726.638 -0.336432 -0.674781 0
M  V30 7923 H 729.289 -1.37437 -1.21587 0
M  V30 7924 H 727.671 -1.03911 -3.82124 0
M  V30 7925 H 728.845 -3.69252 -2.75663 0
M  V30 7926 H 727.16 -3.23968 -2.61598 0
M  V30 7927 H 729.757 -1.84106 -5.02005 0
M  V30 7928 H 730.1 -0.367989 -4.1467 0
M  V30 7929 H 730.633 -1.92984 -3.47853 0
M  V30 7930 H 727.372 -4.73644 -4.53147 0
M  V30 7931 H 726.892 -3.12746 -5.11811 0
M  V30 7932 H 728.571 -3.68793 -5.31602 0
M  V30 7933 N 728.703 1.26451 -0.940633 0
M  V30 7934 C 729.95 1.93778 -0.587909 0
M  V30 7935 C 730.278 1.73811 0.872935 0
M  V30 7936 O 729.533 1.06816 1.63978 0
M  V30 7937 C 729.832 3.46503 -0.875794 0
M  V30 7938 C 729.498 3.86609 -2.32043 0
M  V30 7939 C 728.16 3.97269 -2.71534 0
M  V30 7940 C 730.512 4.0672 -3.25927 0
M  V30 7941 C 727.84 4.25436 -4.04006 0
M  V30 7942 C 730.192 4.36375 -4.57995 0
M  V30 7943 C 728.856 4.45249 -4.97302 0
M  V30 7944 H 728.126 0.709084 -0.215131 0
M  V30 7945 H 730.773 1.50272 -1.18704 0
M  V30 7946 H 729.078 3.91319 -0.194124 0
M  V30 7947 H 730.775 3.96759 -0.581665 0
M  V30 7948 H 727.365 3.78858 -2.00411 0
M  V30 7949 H 731.549 3.97912 -2.96614 0
M  V30 7950 H 726.805 4.30519 -4.34124 0
M  V30 7951 H 730.979 4.50882 -5.30734 0
M  V30 7952 H 728.606 4.66829 -5.99979 0
M  V30 7953 N 730.181 0.707592 1.40822 0
M  V30 7954 C 731.428 0.243671 2.01029 0
M  V30 7955 C 731.756 -1.16057 1.5608 0
M  V30 7956 O 731.011 -1.7999 0.768251 0
M  V30 7957 C 731.31 0.262892 3.56432 0
M  V30 7958 C 730.976 1.61632 4.20935 0
M  V30 7959 C 729.638 1.98682 4.38268 0
M  V30 7960 C 731.99 2.50619 4.5699 0
M  V30 7961 C 729.318 3.2428 4.88937 0
M  V30 7962 C 731.67 3.75562 5.09054 0
M  V30 7963 C 730.334 4.12739 5.24598 0
M  V30 7964 H 729.604 0.0891654 0.735616 0
M  V30 7965 H 732.251 0.909051 1.68548 0
M  V30 7966 H 730.556 -0.486052 3.88773 0
M  V30 7967 H 732.253 -0.113775 4.00839 0
M  V30 7968 H 728.843 1.31818 4.07826 0
M  V30 7969 H 733.027 2.23272 4.43242 0
M  V30 7970 H 728.283 3.53064 4.99155 0
M  V30 7971 H 732.457 4.44692 5.35931 0
M  V30 7972 H 730.084 5.10132 5.63622 0
M  V30 7973 N 731.66 -1.50943 0.453197 0
M  V30 7974 C 732.909 -2.01402 -0.10951 0
M  V30 7975 C 733.222 -1.3411 -1.42386 0
M  V30 7976 O 734.428 -1.75626 -2.07045 0
M  V30 7977 C 732.884 -3.5906 -0.245693 0
M  V30 7978 C 732.492 -4.353 1.05916 0
M  V30 7979 C 734.236 -4.17617 -0.761318 0
M  V30 7980 C 732.143 -5.84699 0.887752 0
M  V30 7981 H 731.073 -0.752674 -0.0447013 0
M  V30 7982 H 733.724 -1.73913 0.585375 0
M  V30 7983 H 732.106 -3.83062 -1.00395 0
M  V30 7984 H 733.28 -4.23034 1.82698 0
M  V30 7985 H 731.595 -3.88269 1.50452 0
M  V30 7986 H 734.192 -5.26963 -0.906306 0
M  V30 7987 H 734.535 -3.77824 -1.74799 0
M  V30 7988 H 735.068 -3.97753 -0.0609416 0
M  V30 7989 H 731.807 -6.28933 1.84726 0
M  V30 7990 H 731.327 -5.99587 0.160006 0
M  V30 7991 H 733.006 -6.44682 0.547223 0
M  V30 7992 N 733.138 -0.185124 -1.56509 0
M  V30 7993 C 734.386 0.455357 -1.96903 0
M  V30 7994 C 734.707 1.62839 -1.07277 0
M  V30 7995 O 733.977 1.95385 -0.141966 0
M  V30 7996 H 732.557 0.171218 -0.727113 0
M  V30 7997 H 735.219 -0.26953 -1.93027 0
M  V30 7998 H 734.315 0.80616 -3.01509 0
M  V30 7999 N 734.616 1.57351 0.0885366 0
M  V30 8000 C 736.027 1.75303 0.642308 0
M  V30 8001 C 736.378 0.808238 1.78779 0
M  V30 8002 O 735.503 -0.01171 2.16397 0
M  V30 8003 C 736.098 3.17885 1.17194 0
M  V30 8004 C 734.657 3.37239 1.67172 0
M  V30 8005 C 733.804 2.7108 0.584045 0
M  V30 8006 H 736.755 1.58103 -0.137567 0
M  V30 8007 H 736.776 3.2112 2.04114 0
M  V30 8008 H 736.288 3.86625 0.338024 0
M  V30 8009 H 734.389 2.73588 2.52943 0
M  V30 8010 H 734.502 4.45594 1.76019 0
M  V30 8011 H 732.866 2.33161 1.02508 0
M  V30 8012 H 733.649 3.42464 -0.239403 0
M  V30 8013 N 736.094 -0.359525 1.53444 0
M  V30 8014 C 737.042 -1.46104 1.80987 0
M  V30 8015 C 738.036 -1.55181 0.679351 0
M  V30 8016 O 739.242 -1.57995 0.862405 0
M  V30 8017 H 735.617 -0.486835 0.573145 0
M  V30 8018 H 737.588 -1.2008 2.73173 0
M  V30 8019 C 736.337 -2.82855 2.02208 0
M  V30 8020 H 735.66 -2.76631 2.88644 0
M  V30 8021 H 737.1 -3.59091 2.25455 0
M  V30 8022 C 735.559 -3.27192 0.802931 0
M  V30 8023 O 736.089 -4.017 -0.00544286 0
M  V30 8024 N 734.295 -2.83807 0.624657 0
M  V30 8025 H 733.842 -2.23339 1.28364 0
M  V30 8026 H 733.8 -3.13828 -0.189641 0
M  V30 8027 N 737.572 -1.44907 -0.619662 0
M  V30 8028 C 738.504 -1.48652 -1.74457 0
M  V30 8029 C 739.517 -0.378596 -1.58337 0
M  V30 8030 O 740.706 -0.644987 -1.6644 0
M  V30 8031 C 737.806 -1.31568 -3.12319 0
M  V30 8032 C 736.979 -2.55816 -3.54792 0
M  V30 8033 C 736.038 -2.33465 -4.71573 0
M  V30 8034 O 735.064 -3.07015 -4.79302 0
M  V30 8035 N 736.266 -1.37254 -5.6404 0
M  V30 8036 H 739.031 -2.45632 -1.71712 0
M  V30 8037 H 736.592 -1.40492 -0.804582 0
M  V30 8038 H 738.584 -1.14445 -3.88181 0
M  V30 8039 H 737.154 -0.429095 -3.09641 0
M  V30 8040 H 736.374 -2.88137 -2.69018 0
M  V30 8041 H 737.662 -3.38431 -3.79924 0
M  V30 8042 H 737.06 -0.765309 -5.60499 0
M  V30 8043 H 735.617 -1.26106 -6.39485 0
M  V30 8044 N 739.05 0.861098 -1.31996 0
M  V30 8045 C 740.297 1.61481 -1.22188 0
M  V30 8046 C 740.625 1.93276 0.217853 0
M  V30 8047 O 739.88 1.56942 1.16909 0
M  V30 8048 C 740.179 2.94822 -2.02027 0
M  V30 8049 C 739.845 2.82483 -3.51446 0
M  V30 8050 C 738.507 2.78825 -3.92186 0
M  V30 8051 C 740.859 2.68878 -4.46491 0
M  V30 8052 C 738.187 2.59433 -5.26224 0
M  V30 8053 C 740.539 2.51022 -5.80664 0
M  V30 8054 C 739.203 2.45753 -6.20614 0
M  V30 8055 H 738.473 0.590902 -0.447119 0
M  V30 8056 H 741.12 0.999376 -1.63355 0
M  V30 8057 H 739.425 3.6045 -1.53569 0
M  V30 8058 H 741.122 3.52149 -1.91812 0
M  V30 8059 H 737.712 2.86152 -3.19085 0
M  V30 8060 H 741.896 2.70754 -4.1594 0
M  V30 8061 H 737.152 2.53784 -5.5624 0
M  V30 8062 H 741.326 2.39473 -6.53931 0
M  V30 8063 H 738.953 2.30485 -7.24417 0
M  V30 8064 N 740.528 1.15101 1.07655 0
M  V30 8065 C 741.438 0.858869 2.18313 0
M  V30 8066 C 742.454 -0.163641 1.73229 0
M  V30 8067 O 743.63 0.00969541 2.01398 0
M  V30 8068 C 740.695 0.34893 3.4494 0
M  V30 8069 C 739.756 1.43495 4.04608 0
M  V30 8070 C 738.989 0.949253 5.2519 0
M  V30 8071 O 739.212 -0.20636 5.70027 0
M  V30 8072 O 738.146 1.73161 5.76454 0
M  V30 8073 H 741.972 1.78386 2.45788 0
M  V30 8074 H 739.557 0.929876 1.16934 0
M  V30 8075 H 741.439 0.070851 4.2134 0
M  V30 8076 H 740.114 -0.548237 3.19024 0
M  V30 8077 H 739.021 1.7666 3.29761 0
M  V30 8078 H 740.354 2.30692 4.3479 0
M  V30 8079 N 742.006 -1.2595 0.947325 0
M  V30 8080 C 742.954 -2.28152 0.452687 0
M  V30 8081 C 743.948 -1.62655 -0.473239 0
M  V30 8082 O 745.154 -1.76549 -0.350774 0
M  V30 8083 H 741.529 -0.741049 0.12787 0
M  V30 8084 H 743.5 -2.67267 1.32707 0
M  V30 8085 C 742.249 -3.46719 -0.26098 0
M  V30 8086 H 741.572 -3.97345 0.442352 0
M  V30 8087 H 743.012 -4.20135 -0.571208 0
M  V30 8088 C 741.471 -3.02605 -1.48094 0
M  V30 8089 O 742.001 -3.07979 -2.57899 0
M  V30 8090 N 740.207 -2.57877 -1.33969 0
M  V30 8091 H 739.754 -2.53704 -0.446295 0
M  V30 8092 H 739.712 -2.28725 -2.15713 0
M  V30 8093 N 743.484 -0.715051 -1.40445 0
M  V30 8094 C 744.414 -0.0768699 -2.33373 0
M  V30 8095 C 745.395 0.746109 -1.52863 0
M  V30 8096 O 746.58 0.695142 -1.81332 0
M  V30 8097 C 743.71 0.846014 -3.36838 0
M  V30 8098 C 742.664 0.128694 -4.27806 0
M  V30 8099 C 741.99 1.16726 -5.21804 0
M  V30 8100 C 743.29 -1.01679 -5.12307 0
M  V30 8101 H 744.984 -0.853061 -2.8699 0
M  V30 8102 H 742.53 -0.41167 -1.3799 0
M  V30 8103 H 744.483 1.30185 -4.00786 0
M  V30 8104 H 743.207 1.6541 -2.81615 0
M  V30 8105 H 741.866 -0.307314 -3.6531 0
M  V30 8106 H 741.514 1.96838 -4.62887 0
M  V30 8107 H 741.214 0.692188 -5.83509 0
M  V30 8108 H 742.738 1.62321 -5.88629 0
M  V30 8109 H 744.152 -0.640337 -5.69713 0
M  V30 8110 H 742.549 -1.4202 -5.83053 0
M  V30 8111 H 743.619 -1.84769 -4.48317 0
M  V30 8112 N 744.962 1.50701 -0.461195 0
M  V30 8113 C 746.373 1.867 -0.00370227 0
M  V30 8114 C 746.724 1.37673 1.39787 0
M  V30 8115 O 745.849 0.737515 2.03445 0
M  V30 8116 C 746.444 3.388 5.75786e-05 0
M  V30 8117 C 745.003 3.74247 0.402044 0
M  V30 8118 C 744.15 2.74549 -0.389652 0
M  V30 8119 H 747.101 1.43585 -0.675942 0
M  V30 8120 H 747.122 3.719 0.804414 0
M  V30 8121 H 746.634 3.74452 -1.02015 0
M  V30 8122 H 744.735 3.44192 1.42697 0
M  V30 8123 H 744.848 4.78973 0.110265 0
M  V30 8124 H 743.212 2.54226 0.155314 0
M  V30 8125 H 743.995 3.13044 -1.40919 0
M  V30 8126 N 746.441 0.193421 1.56409 0
M  V30 8127 C 747.718 -0.493318 1.89277 0
M  V30 8128 C 748.098 -1.79765 1.10669 0
M  V30 8129 O 747.446 -2.27558 0.207274 0
M  V30 8130 C 747.656 -0.713732 3.41624 0
M  V30 8131 C 749.004 -1.03385 4.11821 0
M  V30 8132 O 750.028 -0.801511 3.47065 0
M  V30 8133 O 748.887 -1.47327 5.26267 0
M  V30 8134 H 745.981 -0.256973 0.786062 0
M  V30 8135 H 748.527 0.23351 1.68086 0
M  V30 8136 H 747.299 0.207446 3.9075 0
M  V30 8137 H 746.922 -1.49308 3.68501 0
M  V30 8138 N 747.919 -1.57396 -0.0801906 0
M  V30 8139 C 749.168 -1.8602 -0.779702 0
M  V30 8140 C 749.481 -0.784864 -1.79163 0
M  V30 8141 O 750.687 -0.958691 -2.54011 0
M  V30 8142 C 749.143 -3.29942 -1.43758 0
M  V30 8143 C 748.751 -4.45584 -0.464654 0
M  V30 8144 C 750.495 -3.67775 -2.11995 0
M  V30 8145 C 748.402 -5.80544 -1.12797 0
M  V30 8146 H 747.332 -0.69392 -0.294943 0
M  V30 8147 H 749.983 -1.83471 -0.0328527 0
M  V30 8148 H 748.365 -3.27078 -2.2324 0
M  V30 8149 H 749.539 -4.59824 0.299749 0
M  V30 8150 H 747.854 -4.16247 0.112813 0
M  V30 8151 H 750.451 -4.65896 -2.62383 0
M  V30 8152 H 750.794 -2.9715 -2.91561 0
M  V30 8153 H 751.327 -3.72593 -1.39354 0
M  V30 8154 H 748.066 -6.54439 -0.372807 0
M  V30 8155 H 747.586 -5.70119 -1.86344 0
M  V30 8156 H 749.265 -6.25602 -1.6502 0
M  V30 8157 N 749.397 0.351382 -1.53633 0
M  V30 8158 C 750.36 1.41403 -1.80383 0
M  V30 8159 C 751.36 1.45963 -0.674635 0
M  V30 8160 O 752.55 1.46476 -0.942895 0
M  V30 8161 C 749.682 2.80401 -1.93876 0
M  V30 8162 H 750.875 1.18951 -2.75301 0
M  V30 8163 H 748.428 0.58533 -1.44926 0
M  V30 8164 H 749.163 3.08147 -1.01074 0
M  V30 8165 H 748.948 2.78488 -2.7602 0
M  V30 8166 H 750.438 3.57329 -2.16116 0
M  V30 8167 N 750.875 1.45233 0.611969 0
M  V30 8168 C 752.115 1.50558 1.38245 0
M  V30 8169 C 752.479 0.141959 1.91474 0
M  V30 8170 O 753.68 0.0698926 2.68709 0
M  V30 8171 C 751.951 2.55136 2.50281 0
M  V30 8172 S 753.51 2.79652 3.38142 0
M  V30 8173 H 750.328 0.532281 0.471378 0
M  V30 8174 H 752.93 1.82285 0.706578 0
M  V30 8175 H 751.634 3.52888 2.09518 0
M  V30 8176 H 751.165 2.25045 3.22674 0
M  V30 8177 H 753.18 2.12699 4.48301 0
M  V30 8178 N 752.353 -0.854086 1.3245 0
M  V30 8179 C 753.283 -1.97827 1.24044 0
M  V30 8180 C 754.264 -1.69646 0.124166 0
M  V30 8181 O 755.449 -1.91687 0.31143 0
M  V30 8182 C 752.579 -3.33673 0.963324 0
M  V30 8183 C 751.533 -3.76207 2.04089 0
M  V30 8184 C 750.859 -5.0969 1.61618 0
M  V30 8185 C 752.159 -3.91612 3.45597 0
M  V30 8186 H 753.853 -2.05118 2.18099 0
M  V30 8187 H 751.399 -0.985489 1.04996 0
M  V30 8188 H 753.352 -4.11871 0.891061 0
M  V30 8189 H 752.076 -3.26597 -0.0128649 0
M  V30 8190 H 750.735 -3.0026 2.10332 0
M  V30 8191 H 750.383 -4.99072 0.627418 0
M  V30 8192 H 750.083 -5.3912 2.33717 0
M  V30 8193 H 751.607 -5.90381 1.55829 0
M  V30 8194 H 753.021 -4.60163 3.4194 0
M  V30 8195 H 751.418 -4.3246 4.16051 0
M  V30 8196 H 752.488 -2.9451 3.85217 0
M  V30 8197 N 753.831 -1.1567 -1.07043 0
M  V30 8198 C 754.779 -0.852204 -2.16426 0
M  V30 8199 C 755.773 0.175661 -1.68487 0
M  V30 8200 O 756.979 0.0303874 -1.79974 0
M  V30 8201 H 753.354 -0.257942 -0.706378 0
M  V30 8202 H 755.325 -1.78231 -2.39324 0
M  V30 8203 C 754.074 -0.361362 -3.45817 0
M  V30 8204 H 753.397 -1.14369 -3.83092 0
M  V30 8205 H 754.837 -0.186997 -4.23587 0
M  V30 8206 C 753.296 0.917703 -3.2416 0
M  V30 8207 O 753.826 1.98858 -3.49025 0
M  V30 8208 N 752.032 0.858456 -2.77631 0
M  V30 8209 H 751.579 -0.0131821 -2.57597 0
M  V30 8210 H 751.537 1.71478 -2.6352 0
M  V30 8211 N 755.309 1.25446 -0.953992 0
M  V30 8212 C 756.239 2.28264 -0.491717 0
M  V30 8213 C 757.22 1.63717 0.461617 0
M  V30 8214 O 758.405 1.90821 0.36071 0
M  V30 8215 C 755.535 3.46525 0.231915 0
M  V30 8216 C 754.489 4.23247 -0.636098 0
M  V30 8217 C 753.815 5.34254 0.218238 0
M  V30 8218 C 755.115 4.85971 -1.91389 0
M  V30 8219 H 756.809 2.67183 -1.35106 0
M  V30 8220 H 754.355 1.2844 -0.651095 0
M  V30 8221 H 756.308 4.17576 0.566439 0
M  V30 8222 H 755.032 3.06594 1.12551 0
M  V30 8223 H 753.691 3.53978 -0.953696 0
M  V30 8224 H 753.339 4.90564 1.11156 0
M  V30 8225 H 753.039 5.86501 -0.359232 0
M  V30 8226 H 754.563 6.08138 0.547743 0
M  V30 8227 H 755.977 5.49168 -1.64581 0
M  V30 8228 H 754.374 5.48391 -2.43696 0
M  V30 8229 H 755.444 4.08192 -2.61738 0
M  V30 8230 N 756.787 0.722489 1.40064 0
M  V30 8231 C 758.012 0.273446 2.05589 0
M  V30 8232 C 758.437 -1.07875 1.54093 0
M  V30 8233 O 757.795 -1.68095 0.679252 0
M  V30 8234 C 757.843 0.271023 3.5958 0
M  V30 8235 O 756.947 -0.745499 4.05606 0
M  V30 8236 H 756.288 0.126856 0.65177 0
M  V30 8237 H 758.818 0.984906 1.79334 0
M  V30 8238 H 758.828 0.111084 4.07849 0
M  V30 8239 H 757.503 1.25776 3.96425 0
M  V30 8240 H 756.08 -0.552719 3.68781 0
M  V30 8241 N 758.265 -1.50454 0.469181 0
M  V30 8242 C 759.228 -2.2703 -0.314643 0
M  V30 8243 C 760.228 -1.31734 -0.922111 0
M  V30 8244 O 761.418 -1.55176 -0.791588 0
M  V30 8245 C 758.55 -3.08616 -1.44806 0
M  V30 8246 H 759.743 -2.97769 0.356892 0
M  V30 8247 H 757.296 -1.54698 0.223191 0
M  V30 8248 H 758.031 -2.42369 -2.1547 0
M  V30 8249 H 757.816 -3.78647 -1.01829 0
M  V30 8250 H 759.306 -3.66536 -2.00103 0
M  V30 8251 N 759.743 -0.201713 -1.56304 0
M  V30 8252 C 760.691 0.733133 -2.20744 0
M  V30 8253 C 761.685 1.2148 -1.18064 0
M  V30 8254 O 762.891 1.17692 -1.36193 0
M  V30 8255 H 759.266 0.254789 -0.707521 0
M  V30 8256 H 761.237 0.165996 -2.97938 0
M  V30 8257 C 759.986 1.93925 -2.88597 0
M  V30 8258 H 759.309 1.5777 -3.67353 0
M  V30 8259 H 760.749 2.57158 -3.37114 0
M  V30 8260 C 759.208 2.78219 -1.89989 0
M  V30 8261 O 759.738 3.76353 -1.40432 0
M  V30 8262 N 757.944 2.43847 -1.58072 0
M  V30 8263 H 757.491 1.64103 -1.98565 0
M  V30 8264 H 757.449 3.0053 -0.923524 0
M  V30 8265 N 761.222 1.57436 0.0718424 0
M  V30 8266 C 762.447 1.91858 0.787745 0
M  V30 8267 C 762.872 0.798119 1.70328 0
M  V30 8268 O 762.23 -0.24905 1.79581 0
M  V30 8269 C 762.278 3.25232 1.55744 0
M  V30 8270 O 761.382 3.14462 2.6681 0
M  V30 8271 H 760.723 0.628258 0.214914 0
M  V30 8272 H 763.253 2.04561 0.0401012 0
M  V30 8273 H 763.263 3.59105 1.9367 0
M  V30 8274 H 761.938 4.0636 0.885691 0
M  V30 8275 H 760.515 2.92148 2.31741 0
M  V30 8276 N 762.7 -0.34323 1.53817 0
M  V30 8277 C 763.648 -1.44176 1.82527 0
M  V30 8278 C 764.642 -1.54452 0.695772 0
M  V30 8279 O 765.848 -1.57072 0.879114 0
M  V30 8280 H 762.223 -0.480729 0.578277 0
M  V30 8281 H 764.194 -1.17176 2.74431 0
M  V30 8282 C 762.943 -2.80695 2.05197 0
M  V30 8283 H 762.266 -2.73554 2.91561 0
M  V30 8284 H 763.706 -3.56679 2.29251 0
M  V30 8285 C 762.165 -3.26322 0.837589 0
M  V30 8286 O 762.695 -4.01683 0.0371631 0
M  V30 8287 N 760.901 -2.83128 0.654724 0
M  V30 8288 H 760.448 -2.21965 1.30725 0
M  V30 8289 H 760.406 -3.14011 -0.156345 0
M  V30 8290 N 764.178 -1.45556 -0.604258 0
M  V30 8291 C 765.141 -1.54091 -1.69672 0
M  V30 8292 C 766.141 -0.420076 -1.55216 0
M  V30 8293 O 767.331 -0.683671 -1.60224 0
M  V30 8294 C 764.463 -1.44063 -3.08964 0
M  V30 8295 H 765.656 -2.51431 -1.6347 0
M  V30 8296 H 763.209 -1.33046 -0.820273 0
M  V30 8297 H 763.944 -0.479201 -3.2074 0
M  V30 8298 H 763.729 -2.25362 -3.20865 0
M  V30 8299 H 765.219 -1.53075 -3.88533 0
M  V30 8300 N 765.656 0.84705 -1.32902 0
M  V30 8301 C 766.588 1.96308 -1.18304 0
M  V30 8302 C 767.601 1.62386 -0.116082 0
M  V30 8303 O 768.79 1.74713 -0.365751 0
M  V30 8304 C 765.89 3.29556 -0.790305 0
M  V30 8305 C 765.063 3.91668 -1.94717 0
M  V30 8306 C 764.122 5.0326 -1.53674 0
M  V30 8307 O 763.148 5.22847 -2.24989 0
M  V30 8308 N 764.35 5.78852 -0.437075 0
M  V30 8309 H 767.115 2.09369 -2.14441 0
M  V30 8310 H 764.676 1.02233 -1.25539 0
M  V30 8311 H 766.668 4.01624 -0.49799 0
M  V30 8312 H 765.238 3.12497 0.0801286 0
M  V30 8313 H 764.458 3.12292 -2.40557 0
M  V30 8314 H 765.746 4.299 -2.72146 0
M  V30 8315 H 765.144 5.65484 0.156316 0
M  V30 8316 H 763.701 6.51479 -0.204399 0
M  V30 8317 N 767.134 1.16236 1.06428 0
M  V30 8318 C 768.38 0.944431 1.79467 0
M  V30 8319 C 768.713 -0.526558 1.86925 0
M  V30 8320 O 767.988 -1.39061 1.35986 0
M  V30 8321 C 768.271 1.57092 3.24028 0
M  V30 8322 C 768.124 3.11315 3.24658 0
M  V30 8323 C 769.443 1.26447 4.21544 0
M  V30 8324 H 766.562 0.344521 0.651517 0
M  V30 8325 H 769.204 1.43545 1.24478 0
M  V30 8326 H 767.354 1.15337 3.70985 0
M  V30 8327 H 769.026 3.62042 2.85873 0
M  V30 8328 H 767.269 3.44716 2.6335 0
M  V30 8329 H 767.94 3.50269 4.26633 0
M  V30 8330 H 770.416 1.62581 3.83023 0
M  V30 8331 H 769.292 1.72885 5.20963 0
M  V30 8332 H 769.553 0.183068 4.41721 0
M  V30 8333 N 768.612 -1.24939 0.960631 0
M  V30 8334 C 769.542 -2.28 0.503815 0
M  V30 8335 C 770.523 -1.63959 -0.452928 0
M  V30 8336 O 771.708 -1.91009 -0.350585 0
M  V30 8337 C 768.838 -3.46643 -0.213535 0
M  V30 8338 C 767.792 -4.22903 0.658535 0
M  V30 8339 C 767.118 -5.34363 -0.189902 0
M  V30 8340 C 768.418 -4.84949 1.93963 0
M  V30 8341 H 770.112 -2.66462 1.36521 0
M  V30 8342 H 767.658 -1.28093 0.657897 0
M  V30 8343 H 769.611 -4.1787 -0.544286 0
M  V30 8344 H 768.335 -3.07187 -1.10923 0
M  V30 8345 H 766.994 -3.53467 0.972455 0
M  V30 8346 H 766.642 -4.91147 -1.08553 0
M  V30 8347 H 766.342 -5.86302 0.390331 0
M  V30 8348 H 767.866 -6.0842 -0.515484 0
M  V30 8349 H 769.28 -5.48288 1.67491 0
M  V30 8350 H 767.677 -5.47091 2.46601 0
M  V30 8351 H 768.747 -4.06799 2.639 0
M  V30 8352 N 770.09 -0.729906 -1.39679 0
M  V30 8353 C 771.315 -0.284345 -2.05442 0
M  V30 8354 C 771.74 1.07056 -1.54663 0
M  V30 8355 O 771.098 1.67732 -0.688157 0
M  V30 8356 C 771.146 -0.290089 -3.59431 0
M  V30 8357 O 770.25 0.723978 -4.05995 0
M  V30 8358 H 769.591 -0.130311 -0.651088 0
M  V30 8359 H 772.121 -0.994403 -1.78809 0
M  V30 8360 H 772.131 -0.132712 -4.07784 0
M  V30 8361 H 770.806 -1.27877 -3.95753 0
M  V30 8362 H 769.383 0.533154 -3.69069 0
M  V30 8363 N 771.568 1.50203 -0.477153 0
M  V30 8364 C 772.816 2.01959 0.0755889 0
M  V30 8365 C 773.137 1.3608 1.39668 0
M  V30 8366 O 772.407 0.508136 1.89195 0
M  V30 8367 H 770.987 0.74636 0.0309248 0
M  V30 8368 H 773.649 1.84473 -0.628959 0
M  V30 8369 H 772.745 3.11305 0.222683 0
M  V30 8370 N 773.046 0.209999 1.56195 0
M  V30 8371 C 774.274 -0.429996 2.02382 0
M  V30 8372 C 774.689 -1.54159 1.08998 0
M  V30 8373 O 774.046 -1.82239 0.0974856 0
M  V30 8374 C 774.097 -0.972433 3.48175 0
M  V30 8375 O 773.818 0.0948231 4.37997 0
M  V30 8376 C 775.319 -1.68683 4.09952 0
M  V30 8377 H 772.539 -0.106475 0.662498 0
M  V30 8378 H 775.083 0.323072 2.01932 0
M  V30 8379 H 773.238 -1.67582 3.49278 0
M  V30 8380 H 773.652 -0.31113 5.23576 0
M  V30 8381 H 775.126 -2.01851 5.13771 0
M  V30 8382 H 775.603 -2.59587 3.54276 0
M  V30 8383 H 776.209 -1.02893 4.12666 0
M  V30 8384 N 774.524 -1.57472 -0.0634922 0
M  V30 8385 C 775.434 -2.07621 -1.09227 0
M  V30 8386 C 776.45 -1.00746 -1.41867 0
M  V30 8387 O 777.626 -1.32269 -1.51878 0
M  V30 8388 C 774.691 -2.51707 -2.38421 0
M  V30 8389 C 773.752 -3.72917 -2.12676 0
M  V30 8390 C 772.985 -4.14891 -3.3571 0
M  V30 8391 O 773.208 -3.56663 -4.45137 0
M  V30 8392 O 772.142 -5.07616 -3.23434 0
M  V30 8393 H 775.968 -2.95612 -0.696205 0
M  V30 8394 H 773.553 -1.46787 -0.27819 0
M  V30 8395 H 775.435 -2.80547 -3.14438 0
M  V30 8396 H 774.11 -1.66842 -2.77391 0
M  V30 8397 H 773.017 -3.49148 -1.34337 0
M  V30 8398 H 774.35 -4.5866 -1.78583 0
M  V30 8399 N 776.003 0.335068 -1.53997 0
M  V30 8400 C 777.25 1.07435 -1.71651 0
M  V30 8401 C 777.578 1.88378 -0.48413 0
M  V30 8402 O 776.833 1.8827 0.534139 0
M  V30 8403 C 777.132 2.0364 -2.9371 0
M  V30 8404 C 776.798 1.38942 -4.28959 0
M  V30 8405 C 775.46 1.21027 -4.65732 0
M  V30 8406 C 777.812 0.924083 -5.12943 0
M  V30 8407 C 775.14 0.552097 -5.84097 0
M  V30 8408 C 777.492 0.27978 -6.31981 0
M  V30 8409 C 776.156 0.0883843 -6.67441 0
M  V30 8410 H 775.426 0.393133 -0.628114 0
M  V30 8411 H 778.073 0.352712 -1.88224 0
M  V30 8412 H 776.378 2.82215 -2.71775 0
M  V30 8413 H 778.075 2.6085 -3.04562 0
M  V30 8414 H 774.665 1.53885 -4.00022 0
M  V30 8415 H 778.849 1.05032 -4.85059 0
M  V30 8416 H 774.105 0.392502 -6.10139 0
M  V30 8417 H 778.279 -0.0888479 -6.96343 0
M  V30 8418 H 775.906 -0.423657 -7.59019 0
M  V30 8419 N 777.481 1.45874 0.596531 0
M  V30 8420 C 778.706 1.54247 1.38646 0
M  V30 8421 C 779.131 0.179571 1.87241 0
M  V30 8422 O 778.489 -0.837831 1.6078 0
M  V30 8423 C 778.537 2.54015 2.55946 0
M  V30 8424 O 777.641 2.06561 3.5694 0
M  V30 8425 H 776.982 0.519555 0.413471 0
M  V30 8426 H 779.512 1.91327 0.724936 0
M  V30 8427 H 779.522 2.73179 3.03047 0
M  V30 8428 H 778.197 3.52994 2.19928 0
M  V30 8429 H 776.774 1.97324 3.16414 0
M  V30 8430 N 778.959 -0.83999 1.33349 0
M  V30 8431 C 779.922 -1.93128 1.23426 0
M  V30 8432 C 780.922 -1.60065 0.153599 0
M  V30 8433 O 782.112 -1.69425 0.405049 0
M  V30 8434 C 779.244 -3.28761 0.901622 0
M  V30 8435 H 780.437 -2.03352 2.20427 0
M  V30 8436 H 777.99 -1.03194 1.17391 0
M  V30 8437 H 778.725 -3.24233 -0.0659337 0
M  V30 8438 H 778.51 -3.54138 1.68311 0
M  V30 8439 H 780 -4.08714 0.856913 0
M  V30 8440 N 780.437 -1.16799 -1.0581 0
M  V30 8441 C 781.686 -0.94698 -1.78088 0
M  V30 8442 C 781.999 0.526016 -1.88394 0
M  V30 8443 O 783.205 0.865061 -2.5735 0
M  V30 8444 C 781.661 -1.64508 -3.20102 0
M  V30 8445 C 781.269 -3.15618 -3.17946 0
M  V30 8446 C 783.013 -1.50622 -3.96879 0
M  V30 8447 C 780.92 -3.78144 -4.5471 0
M  V30 8448 H 779.85 -0.35067 -0.667493 0
M  V30 8449 H 782.501 -1.39985 -1.18645 0
M  V30 8450 H 780.883 -1.11993 -3.79834 0
M  V30 8451 H 782.057 -3.75016 -2.67768 0
M  V30 8452 H 780.372 -3.29444 -2.54667 0
M  V30 8453 H 782.969 -1.94713 -4.97987 0
M  V30 8454 H 783.312 -0.455864 -4.13797 0
M  V30 8455 H 783.845 -2.00319 -3.43682 0
M  V30 8456 H 780.584 -4.83149 -4.42998 0
M  V30 8457 H 780.104 -3.23532 -5.05062 0
M  V30 8458 H 781.783 -3.79986 -5.2366 0
M  V30 8459 N 781.915 1.24427 -0.967243 0
M  V30 8460 C 783.326 1.74349 -0.667785 0
M  V30 8461 C 783.677 1.78403 0.816509 0
M  V30 8462 O 782.802 1.41315 1.63887 0
M  V30 8463 C 783.397 3.16628 -1.20548 0
M  V30 8464 C 781.956 3.64059 -0.955934 0
M  V30 8465 C 781.103 2.42715 -1.34106 0
M  V30 8466 H 784.054 1.10136 -1.14262 0
M  V30 8467 H 784.075 3.76183 -0.571547 0
M  V30 8468 H 783.587 3.13646 -2.28578 0
M  V30 8469 H 781.688 3.72441 0.108858 0
M  V30 8470 H 781.801 4.51549 -1.60126 0
M  V30 8471 H 780.165 2.43114 -0.759452 0
M  V30 8472 H 780.948 2.42414 -2.43085 0
M  V30 8473 N 783.393 0.737304 1.3929 0
M  V30 8474 C 784.343 0.0748537 2.27877 0
M  V30 8475 C 785.327 -0.71022 1.44377 0
M  V30 8476 O 786.519 -0.578851 1.67267 0
M  V30 8477 C 783.648 -0.82991 3.33118 0
M  V30 8478 C 782.734 -0.0388619 4.24082 0
M  V30 8479 N 783.125 0.989182 4.96033 0
M  V30 8480 C 781.423 -0.268167 4.45193 0
M  V30 8481 C 782.124 1.46639 5.62914 0
M  V30 8482 N 781.1 0.784581 5.37908 0
M  V30 8483 H 784.902 0.862457 2.80961 0
M  V30 8484 H 782.416 0.571845 1.51999 0
M  V30 8485 H 784.413 -1.31999 3.95452 0
M  V30 8486 H 783.073 -1.61665 2.81593 0
M  V30 8487 H 784.084 1.3706 4.99435 0
M  V30 8488 H 780.761 -1.02953 4.04607 0
M  V30 8489 H 782.151 2.32182 6.30508 0
M  V30 8490 N 784.871 -1.49948 0.485112 0
M  V30 8491 C 786.117 -2.02695 -0.0651022 0
M  V30 8492 C 786.45 -1.36534 -1.38102 0
M  V30 8493 O 785.725 -0.495677 -1.88078 0
M  V30 8494 C 786.008 -3.59337 -0.234285 0
M  V30 8495 C 785.861 -4.3605 1.10364 0
M  V30 8496 C 787.18 -4.28996 -0.982351 0
M  V30 8497 H 784.299 -0.736666 -0.0221856 0
M  V30 8498 H 786.941 -1.7913 0.633433 0
M  V30 8499 H 785.091 -3.79546 -0.829262 0
M  V30 8500 H 786.763 -4.27377 1.73627 0
M  V30 8501 H 785.006 -3.99236 1.69686 0
M  V30 8502 H 785.677 -5.43959 0.938743 0
M  V30 8503 H 788.153 -4.13346 -0.477904 0
M  V30 8504 H 787.029 -5.38379 -1.06955 0
M  V30 8505 H 787.29 -3.93135 -2.02231 0
M  V30 8506 N 786.349 -0.21828 -1.56081 0
M  V30 8507 C 787.296 0.693189 -2.20144 0
M  V30 8508 C 788.266 1.19274 -1.15598 0
M  V30 8509 O 789.451 1.25243 -1.4394 0
M  V30 8510 C 786.591 1.89715 -2.88275 0
M  V30 8511 C 785.704 1.4368 -4.07407 0
M  V30 8512 C 784.839 2.59807 -4.63329 0
M  V30 8513 C 783.878 2.10492 -5.74769 0
M  V30 8514 N 783.015 3.1988 -6.24997 0
M  V30 8515 H 787.855 0.14016 -2.9767 0
M  V30 8516 H 785.392 0.0574292 -1.46988 0
M  V30 8517 H 787.35 2.60398 -3.25958 0
M  V30 8518 H 785.98 2.42311 -2.13273 0
M  V30 8519 H 785.032 0.625007 -3.7523 0
M  V30 8520 H 786.344 1.03517 -4.8794 0
M  V30 8521 H 785.498 3.38577 -5.03438 0
M  V30 8522 H 784.237 3.03256 -3.81951 0
M  V30 8523 H 783.242 1.30182 -5.34165 0
M  V30 8524 H 784.467 1.68045 -6.5798 0
M  V30 8525 H 782.413 3.62817 -5.46534 0
M  V30 8526 H 782.33 2.83958 -7.00645 0
M  V30 8527 H 783.598 3.98796 -6.69763 0
M  V30 8528 N 787.827 1.57504 0.0551401 0
M  V30 8529 C 789.057 1.92015 0.762472 0
M  V30 8530 C 789.465 0.814088 1.7079 0
M  V30 8531 O 788.808 -0.220273 1.82375 0
M  V30 8532 C 788.87 3.22132 1.59598 0
M  V30 8533 C 788.534 4.49617 0.818141 0
M  V30 8534 C 789.531 5.19738 0.129933 0
M  V30 8535 C 787.216 4.96201 0.780387 0
M  V30 8536 C 789.21 6.34704 -0.585616 0
M  V30 8537 C 786.897 6.11069 0.0610756 0
M  V30 8538 C 787.895 6.80174 -0.62071 0
M  V30 8539 O 787.583 7.92849 -1.3284 0
M  V30 8540 H 787.315 0.638866 0.220967 0
M  V30 8541 H 789.869 2.05385 0.0246362 0
M  V30 8542 H 788.099 3.05016 2.37701 0
M  V30 8543 H 789.788 3.42166 2.18351 0
M  V30 8544 H 790.554 4.84767 0.150299 0
M  V30 8545 H 786.433 4.42275 1.30054 0
M  V30 8546 H 789.977 6.88578 -1.11833 0
M  V30 8547 H 785.874 6.45488 0.0386945 0
M  V30 8548 H 786.642 8.09062 -1.23938 0
M  V30 8549 N 789.305 -0.326896 1.54172 0
M  V30 8550 C 790.235 -1.40741 1.86317 0
M  V30 8551 C 791.216 -1.54125 0.719684 0
M  V30 8552 O 792.401 -1.6806 0.973117 0
M  V30 8553 C 789.531 -2.77557 2.08757 0
M  V30 8554 C 788.485 -2.78965 3.24596 0
M  V30 8555 C 787.811 -4.18824 3.32401 0
M  V30 8556 C 789.111 -2.4301 4.62324 0
M  V30 8557 H 790.805 -1.14088 2.76811 0
M  V30 8558 H 788.351 -0.547389 1.3319 0
M  V30 8559 H 790.304 -3.53209 2.29829 0
M  V30 8560 H 789.028 -3.0568 1.15009 0
M  V30 8561 H 787.687 -2.05767 3.03406 0
M  V30 8562 H 787.335 -4.44083 2.36218 0
M  V30 8563 H 787.035 -4.20673 4.10253 0
M  V30 8564 H 788.559 -4.96294 3.55703 0
M  V30 8565 H 789.973 -3.08375 4.83299 0
M  V30 8566 H 788.37 -2.56116 5.42701 0
M  V30 8567 H 789.44 -1.38165 4.64799 0
M  V30 8568 N 790.784 -1.46188 -0.588786 0
M  V30 8569 C 792.061 -1.41659 -1.34878 0
M  V30 8570 C 792.441 -0.0968913 -2.10878 0
M  V30 8571 O 791.789 0.921468 -2.09096 0
M  V30 8572 C 791.999 -2.6424 -2.27988 0
M  V30 8573 C 793.347 -3.1013 -2.90008 0
M  V30 8574 O 794.371 -2.64745 -2.38303 0
M  V30 8575 O 793.23 -3.88944 -3.83908 0
M  V30 8576 H 790.324 -0.563058 -0.605718 0
M  V30 8577 H 792.87 -1.58346 -0.610309 0
M  V30 8578 H 791.642 -3.51853 -1.71217 0
M  V30 8579 H 791.265 -2.49982 -3.09184 0
M  V30 8580 N 792.262 0.832906 -1.33792 0
M  V30 8581 C 793.192 1.95828 -1.27176 0
M  V30 8582 C 794.173 1.69427 -0.15114 0
M  V30 8583 O 795.358 1.91167 -0.341886 0
M  V30 8584 C 792.488 3.32098 -1.01629 0
M  V30 8585 C 791.442 3.72912 -2.10049 0
M  V30 8586 C 790.768 5.07054 -1.69706 0
M  V30 8587 C 792.068 3.86064 -3.51783 0
M  V30 8588 H 793.762 2.01622 -2.21334 0
M  V30 8589 H 791.308 0.96866 -1.0655 0
M  V30 8590 H 793.261 4.10402 -0.956474 0
M  V30 8591 H 791.985 3.26577 -0.0390956 0
M  V30 8592 H 790.644 2.96876 -2.15082 0
M  V30 8593 H 790.292 4.9801 -0.706737 0
M  V30 8594 H 789.992 5.35333 -2.42264 0
M  V30 8595 H 791.516 5.87827 -1.65202 0
M  V30 8596 H 792.93 4.54665 -3.49218 0
M  V30 8597 H 791.327 4.25787 -4.22878 0
M  V30 8598 H 792.397 2.88344 -3.89854 0
M  V30 8599 N 793.74 1.17359 1.05189 0
M  V30 8600 C 794.968 0.986529 1.81866 0
M  V30 8601 C 795.383 -0.46522 1.82979 0
M  V30 8602 O 794.74 -1.32305 1.25705 0
M  V30 8603 C 794.791 1.52021 3.27982 0
M  V30 8604 O 794.512 2.91511 3.27037 0
M  V30 8605 C 796.013 1.37774 4.21347 0
M  V30 8606 H 793.233 0.349021 0.573084 0
M  V30 8607 H 795.777 1.55648 1.32643 0
M  V30 8608 H 793.932 0.992287 3.74476 0
M  V30 8609 H 794.346 3.16178 4.18488 0
M  V30 8610 H 795.82 1.7993 5.21852 0
M  V30 8611 H 796.297 0.32483 4.37997 0
M  V30 8612 H 796.903 1.89583 3.80708 0
M  V30 8613 N 795.218 -1.23913 0.973828 0
M  V30 8614 C 796.166 -2.27141 0.50098 0
M  V30 8615 C 797.16 -1.63623 -0.438631 0
M  V30 8616 O 798.366 -1.77253 -0.313247 0
M  V30 8617 H 794.741 -0.73817 0.14356 0
M  V30 8618 H 796.712 -2.64392 1.38346 0
M  V30 8619 C 795.461 -3.47195 -0.187377 0
M  V30 8620 H 794.784 -3.96318 0.526535 0
M  V30 8621 H 796.224 -4.21252 -0.481962 0
M  V30 8622 C 794.683 -3.05678 -1.41642 0
M  V30 8623 O 795.213 -3.1338 -2.51309 0
M  V30 8624 N 793.419 -2.60661 -1.28469 0
M  V30 8625 H 792.966 -2.54594 -0.39238 0
M  V30 8626 H 792.924 -2.33249 -2.10813 0
M  V30 8627 N 796.696 -0.74468 -1.38897 0
M  V30 8628 C 797.644 -0.100312 -2.32384 0
M  V30 8629 C 798.638 0.715191 -1.53562 0
M  V30 8630 O 799.844 0.615288 -1.69157 0
M  V30 8631 H 796.219 -0.0136403 -0.751876 0
M  V30 8632 H 798.19 -0.905007 -2.84345 0
M  V30 8633 C 796.939 0.785432 -3.38713 0
M  V30 8634 H 796.262 0.167308 -3.9945 0
M  V30 8635 H 797.702 1.20374 -4.06554 0
M  V30 8636 C 796.161 1.92408 -2.76552 0
M  V30 8637 O 796.691 3.01752 -2.65157 0
M  V30 8638 N 794.897 1.71642 -2.34494 0
M  V30 8639 H 794.444 0.827079 -2.43961 0
M  V30 8640 H 794.402 2.48 -1.93244 0
M  V30 8641 N 798.174 1.49689 -0.493057 0
M  V30 8642 C 799.59 1.58907 -0.148526 0
M  V30 8643 C 799.79 1.4991 1.34645 0
M  V30 8644 O 798.846 1.36893 2.12171 0
M  V30 8645 C 800.159 2.91996 -0.718265 0
M  V30 8646 C 801.707 3.05443 -0.683658 0
M  V30 8647 C 802.182 4.41138 -1.23132 0
M  V30 8648 N 803.673 4.47608 -1.19167 0
M  V30 8649 C 804.408 5.51038 -1.5857 0
M  V30 8650 N 803.904 6.61612 -2.05528 0
M  V30 8651 N 805.697 5.41706 -1.50036 0
M  V30 8652 H 797.848 1.5378 -1.46511 0
M  V30 8653 H 800.111 0.727996 -0.607228 0
M  V30 8654 H 799.817 3.04123 -1.7664 0
M  V30 8655 H 799.691 3.76798 -0.17419 0
M  V30 8656 H 802.078 2.92949 0.355626 0
M  V30 8657 H 802.159 2.22344 -1.26479 0
M  V30 8658 H 801.803 4.54382 -2.26935 0
M  V30 8659 H 801.733 5.22864 -0.626201 0
M  V30 8660 H 804.224 3.68274 -0.847524 0
M  V30 8661 H 804.537 7.36622 -2.33685 0
M  V30 8662 H 802.882 6.62674 -2.09497 0
M  V30 8663 H 806.073 4.54212 -1.13176 0
M  V30 8664 H 806.246 6.22188 -1.81068 0
M  V30 8665 N 799.652 0.226554 1.55963 0
M  V30 8666 C 800.582 -0.676079 2.23498 0
M  V30 8667 C 801.563 -1.19718 1.20837 0
M  V30 8668 O 802.748 -1.24027 1.49436 0
M  V30 8669 C 799.878 -1.88217 2.91876 0
M  V30 8670 C 798.832 -1.4947 4.01052 0
M  V30 8671 C 798.158 -2.77997 4.56751 0
M  V30 8672 C 799.458 -0.680951 5.17842 0
M  V30 8673 H 801.152 -0.112989 2.99187 0
M  V30 8674 H 798.698 -0.0529046 1.43903 0
M  V30 8675 H 800.651 -2.51911 3.37815 0
M  V30 8676 H 799.375 -2.47031 2.13643 0
M  V30 8677 H 798.034 -0.881199 3.55852 0
M  V30 8678 H 797.682 -3.34966 3.75243 0
M  V30 8679 H 797.382 -2.52803 5.30438 0
M  V30 8680 H 798.906 -3.42625 5.05411 0
M  V30 8681 H 800.32 -1.22171 5.60131 0
M  V30 8682 H 798.717 -0.525898 5.97791 0
M  V30 8683 H 799.787 0.311346 4.83899 0
M  V30 8684 N 801.13 -1.57531 -0.0467866 0
M  V30 8685 C 802.407 -1.79568 -0.775536 0
M  V30 8686 C 802.787 -0.820322 -1.94509 0
M  V30 8687 O 802.135 0.14134 -2.28062 0
M  V30 8688 C 802.345 -3.26789 -1.22516 0
M  V30 8689 C 803.693 -3.91299 -1.64835 0
M  V30 8690 O 804.717 -3.30831 -1.3202 0
M  V30 8691 O 803.576 -4.97727 -2.25677 0
M  V30 8692 H 800.67 -0.737817 -0.373572 0
M  V30 8693 H 803.216 -1.69682 -0.0249302 0
M  V30 8694 H 801.988 -3.89357 -0.389446 0
M  V30 8695 H 801.611 -3.41496 -2.03633 0
M  V30 8696 N 802.608 0.318715 -1.54344 0
M  V30 8697 C 803.855 1.05608 -1.72781 0
M  V30 8698 C 804.183 1.87854 -0.504083 0
M  V30 8699 O 803.438 1.88826 0.51414 0
M  V30 8700 C 803.737 2.00514 -2.95853 0
M  V30 8701 C 803.403 1.34385 -4.30409 0
M  V30 8702 C 802.065 1.16081 -4.66989 0
M  V30 8703 C 804.417 0.869627 -5.13894 0
M  V30 8704 C 801.745 0.490114 -5.84649 0
M  V30 8705 C 804.097 0.212735 -6.32242 0
M  V30 8706 C 802.761 0.0175882 -6.67498 0
M  V30 8707 H 802.031 0.386449 -0.632249 0
M  V30 8708 H 804.678 0.332729 -1.88587 0
M  V30 8709 H 802.983 2.79317 -2.74753 0
M  V30 8710 H 804.68 2.57605 -3.07312 0
M  V30 8711 H 801.27 1.49634 -4.01631 0
M  V30 8712 H 805.454 0.998809 -4.86146 0
M  V30 8713 H 800.71 0.327767 -6.10521 0
M  V30 8714 H 804.884 -0.162699 -6.9621 0
M  V30 8715 H 802.511 -0.504137 -7.58527 0
M  V30 8716 N 804.086 1.46499 0.581025 0
M  V30 8717 C 805.363 1.42372 1.34125 0
M  V30 8718 C 805.743 0.108073 2.10823 0
M  V30 8719 O 805.091 -0.910366 2.09582 0
M  V30 8720 C 805.301 2.65445 2.26583 0
M  V30 8721 C 806.649 3.11664 2.88359 0
M  V30 8722 O 807.673 2.66006 2.36896 0
M  V30 8723 O 806.532 3.90974 3.81839 0
M  V30 8724 H 803.626 0.566262 0.602724 0
M  V30 8725 H 806.172 1.58667 0.601903 0
M  V30 8726 H 804.944 3.52756 1.69348 0
M  V30 8727 H 804.567 2.51618 3.07854 0
M  V30 8728 N 805.565 -0.825799 1.34232 0
M  V30 8729 C 806.513 -1.95792 1.25572 0
M  V30 8730 C 807.507 -1.68695 0.154404 0
M  V30 8731 O 808.713 -1.77147 0.319196 0
M  V30 8732 H 805.088 -0.642949 0.390027 0
M  V30 8733 H 807.059 -2.00219 2.21258 0
M  V30 8734 C 805.808 -3.32245 1.02511 0
M  V30 8735 H 805.131 -3.53642 1.86487 0
M  V30 8736 H 806.571 -4.1192 1.00487 0
M  V30 8737 C 805.03 -3.35803 -0.27167 0
M  V30 8738 O 805.56 -3.80962 -1.274 0
M  V30 8739 N 803.766 -2.89008 -0.303778 0
M  V30 8740 H 803.313 -2.52451 0.512464 0
M  V30 8741 H 803.271 -2.9177 -1.17121 0
M  V30 8742 N 807.043 -1.17915 -1.04565 0
M  V30 8743 C 808.006 -0.903787 -2.10628 0
M  V30 8744 C 809.006 0.10873 -1.60432 0
M  V30 8745 O 810.196 -0.124152 -1.73757 0
M  V30 8746 C 807.328 -0.355017 -3.39046 0
M  V30 8747 H 808.521 -1.84425 -2.3649 0
M  V30 8748 H 806.074 -0.990477 -1.2091 0
M  V30 8749 H 806.809 0.592297 -3.18845 0
M  V30 8750 H 806.594 -1.08484 -3.76794 0
M  V30 8751 H 808.084 -0.180891 -4.17208 0
M  V30 8752 N 808.521 1.23394 -0.980386 0
M  V30 8753 C 809.746 1.96384 -0.666935 0
M  V30 8754 C 810.171 1.72087 0.759456 0
M  V30 8755 O 809.529 0.992328 1.51732 0
M  V30 8756 C 809.577 3.47499 -0.963177 0
M  V30 8757 O 808.681 4.12363 -0.0552051 0
M  V30 8758 H 808.022 0.614797 -0.250839 0
M  V30 8759 H 810.552 1.56831 -1.31398 0
M  V30 8760 H 810.562 3.97953 -0.899877 0
M  V30 8761 H 809.237 3.6451 -2.00264 0
M  V30 8762 H 807.814 3.72499 -0.172914 0
M  V30 8763 N 809.999 0.752036 1.385 0
M  V30 8764 C 810.962 0.131587 2.28822 0
M  V30 8765 C 811.962 -0.649149 1.47115 0
M  V30 8766 O 813.152 -0.475645 1.67581 0
M  V30 8767 C 810.284 -0.822101 3.30839 0
M  V30 8768 H 811.477 0.927551 2.85196 0
M  V30 8769 H 809.03 0.518945 1.47434 0
M  V30 8770 H 809.765 -1.6438 2.79553 0
M  V30 8771 H 809.55 -0.264689 3.91206 0
M  V30 8772 H 811.04 -1.25226 3.98382 0
M  V30 8773 N 811.477 -1.49425 0.500989 0
M  V30 8774 C 812.407 -2.31971 -0.266775 0
M  V30 8775 C 813.388 -1.40245 -0.962563 0
M  V30 8776 O 814.573 -1.69154 -0.953968 0
M  V30 8777 C 811.703 -3.20757 -1.33163 0
M  V30 8778 C 810.657 -4.21275 -0.75572 0
M  V30 8779 C 809.983 -4.98997 -1.92109 0
M  V30 8780 C 811.283 -5.21686 0.253213 0
M  V30 8781 H 812.977 -2.96408 0.422237 0
M  V30 8782 H 810.523 -1.4254 0.204505 0
M  V30 8783 H 812.476 -3.77315 -1.87646 0
M  V30 8784 H 811.2 -2.54263 -2.04983 0
M  V30 8785 H 809.859 -3.65861 -0.232637 0
M  V30 8786 H 809.507 -4.28951 -2.62698 0
M  V30 8787 H 809.207 -5.67011 -1.54182 0
M  V30 8788 H 810.731 -5.584 -2.47026 0
M  V30 8789 H 812.145 -5.72939 -0.203483 0
M  V30 8790 H 810.542 -5.9759 0.548322 0
M  V30 8791 H 811.612 -4.70596 1.16909 0
M  V30 8792 N 812.955 -0.234822 -1.55841 0
M  V30 8793 C 814.183 0.397745 -2.03041 0
M  V30 8794 C 814.598 1.52405 -1.11437 0
M  V30 8795 O 813.955 1.82061 -0.126466 0
M  V30 8796 C 814.006 0.916919 -3.49678 0
M  V30 8797 O 813.727 -0.164493 -4.37791 0
M  V30 8798 C 815.228 1.62139 -4.12584 0
M  V30 8799 H 812.448 0.0959214 -0.664108 0
M  V30 8800 H 814.992 -0.355156 -2.01392 0
M  V30 8801 H 813.147 1.62004 -3.519 0
M  V30 8802 H 813.561 0.227794 -5.24005 0
M  V30 8803 H 815.035 1.93651 -5.16917 0
M  V30 8804 H 815.512 2.53918 -3.58361 0
M  V30 8805 H 816.118 0.963145 -4.14251 0
M  V30 8806 N 814.433 1.57553 0.0384317 0
M  V30 8807 C 815.343 2.09333 1.0591 0
M  V30 8808 C 816.359 1.0299 1.40247 0
M  V30 8809 O 817.535 1.34669 1.49754 0
M  V30 8810 C 814.6 2.55468 2.34386 0
M  V30 8811 C 813.661 3.76254 2.06716 0
M  V30 8812 C 812.894 4.20179 3.29067 0
M  V30 8813 O 813.117 3.637 4.39407 0
M  V30 8814 O 812.051 5.12697 3.15317 0
M  V30 8815 H 815.877 2.96683 0.649087 0
M  V30 8816 H 813.462 1.47211 0.254802 0
M  V30 8817 H 815.344 2.85514 3.09935 0
M  V30 8818 H 814.019 1.71234 2.74701 0
M  V30 8819 H 812.926 3.51241 1.28766 0
M  V30 8820 H 814.259 4.61443 1.71263 0
M  V30 8821 N 815.911 -0.310526 1.54511 0
M  V30 8822 C 816.841 -1.38757 1.878 0
M  V30 8823 C 817.822 -1.53353 0.735991 0
M  V30 8824 O 819.007 -1.67018 0.990887 0
M  V30 8825 C 816.137 -2.75327 2.11689 0
M  V30 8826 C 815.091 -2.75506 3.27537 0
M  V30 8827 C 814.417 -4.15275 3.36824 0
M  V30 8828 C 815.717 -2.38093 4.64875 0
M  V30 8829 H 817.411 -1.11146 2.78005 0
M  V30 8830 H 814.957 -0.533232 1.33763 0
M  V30 8831 H 816.91 -3.50752 2.33562 0
M  V30 8832 H 815.634 -3.04443 1.18245 0
M  V30 8833 H 814.293 -2.02538 3.05572 0
M  V30 8834 H 813.941 -4.41553 2.40915 0
M  V30 8835 H 813.641 -4.16299 4.14692 0
M  V30 8836 H 815.165 -4.92493 3.60947 0
M  V30 8837 H 816.579 -3.03232 4.86542 0
M  V30 8838 H 814.976 -2.50345 5.45387 0
M  V30 8839 H 816.046 -1.33227 4.66239 0
M  V30 8840 N 817.389 -1.46805 -0.573248 0
M  V30 8841 C 818.614 -1.56433 -1.36175 0
M  V30 8842 C 819.039 -0.209336 -1.86932 0
M  V30 8843 O 818.397 0.812146 -1.62092 0
M  V30 8844 C 818.445 -2.58055 -2.51873 0
M  V30 8845 O 817.549 -2.12214 -3.53609 0
M  V30 8846 H 816.89 -0.526068 -0.405153 0
M  V30 8847 H 819.42 -1.92456 -0.694405 0
M  V30 8848 H 819.43 -2.77966 -2.98662 0
M  V30 8849 H 818.105 -3.56448 -2.14284 0
M  V30 8850 H 816.682 -2.02333 -3.13234 0
M  V30 8851 N 818.867 0.818669 -1.34668 0
M  V30 8852 C 820.144 1.56118 -1.17841 0
M  V30 8853 C 820.524 2.09646 0.24731 0
M  V30 8854 O 819.872 1.91329 1.24922 0
M  V30 8855 C 820.082 2.67922 -2.23649 0
M  V30 8856 C 821.43 3.36579 -2.58843 0
M  V30 8857 O 822.454 2.78182 -2.22471 0
M  V30 8858 O 821.313 4.42045 -3.21339 0
M  V30 8859 H 818.407 0.689216 -0.457067 0
M  V30 8860 H 820.953 0.859674 -1.46314 0
M  V30 8861 H 819.725 2.26153 -3.19328 0
M  V30 8862 H 819.348 3.45719 -1.96377 0
M  V30 8863 N 820.346 1.18468 1.03938 0
M  V30 8864 C 821.276 0.936389 2.13902 0
M  V30 8865 C 822.257 -0.126381 1.6963 0
M  V30 8866 O 823.442 0.0264757 1.94182 0
M  V30 8867 C 820.572 0.462729 3.44204 0
M  V30 8868 C 819.526 1.46613 4.02105 0
M  V30 8869 C 818.852 0.84994 5.27902 0
M  V30 8870 C 820.152 2.84323 4.3813 0
M  V30 8871 H 821.846 1.85602 2.3493 0
M  V30 8872 H 819.392 0.893806 1.12903 0
M  V30 8873 H 821.345 0.276382 4.20493 0
M  V30 8874 H 820.069 -0.492477 3.22866 0
M  V30 8875 H 818.728 1.63944 3.27899 0
M  V30 8876 H 818.376 -0.112493 5.02874 0
M  V30 8877 H 818.076 1.51988 5.67603 0
M  V30 8878 H 819.6 0.674152 6.06867 0
M  V30 8879 H 821.014 2.70636 5.054 0
M  V30 8880 H 819.411 3.48012 4.88884 0
M  V30 8881 H 820.481 3.37776 3.47901 0
M  V30 8882 N 821.824 -1.22873 0.986916 0
M  V30 8883 C 822.734 -2.28277 0.540978 0
M  V30 8884 C 823.75 -1.69164 -0.407363 0
M  V30 8885 O 824.926 -1.99504 -0.275674 0
M  V30 8886 C 821.991 -3.46404 -0.143181 0
M  V30 8887 C 821.052 -4.20854 0.847375 0
M  V30 8888 C 820.285 -5.33341 0.19577 0
M  V30 8889 O 820.508 -5.61356 -1.0117 0
M  V30 8890 O 819.442 -5.95169 0.897623 0
M  V30 8891 H 823.268 -2.68578 1.41773 0
M  V30 8892 H 820.853 -1.28927 0.754867 0
M  V30 8893 H 822.735 -4.18096 -0.526676 0
M  V30 8894 H 821.41 -3.08041 -0.994593 0
M  V30 8895 H 820.317 -3.51459 1.28169 0
M  V30 8896 H 821.65 -4.63082 1.6678 0
M  V30 8897 N 823.302 -0.75937 -1.38099 0
M  V30 8898 C 824.548 -0.318584 -2.00282 0
M  V30 8899 C 824.881 1.09854 -1.60143 0
M  V30 8900 O 824.156 1.75344 -0.841702 0
M  V30 8901 C 824.439 -0.448047 -3.57302 0
M  V30 8902 C 824.292 -1.9067 -4.07388 0
M  V30 8903 C 825.611 0.155119 -4.39827 0
M  V30 8904 H 822.73 -0.117233 -0.727616 0
M  V30 8905 H 825.372 -0.960097 -1.63958 0
M  V30 8906 H 823.522 0.0981003 -3.88376 0
M  V30 8907 H 825.194 -2.5116 -3.86932 0
M  V30 8908 H 823.437 -2.41979 -3.6004 0
M  V30 8909 H 824.108 -1.94841 -5.1647 0
M  V30 8910 H 826.584 -0.31073 -4.14938 0
M  V30 8911 H 825.46 0.0343264 -5.48889 0
M  V30 8912 H 825.721 1.24407 -4.24235 0
M  V30 8913 N 824.78 1.49157 -0.508906 0
M  V30 8914 C 825.71 2.32109 0.254469 0
M  V30 8915 C 826.691 1.40754 0.955111 0
M  V30 8916 O 827.876 1.69658 0.944983 0
M  V30 8917 C 825.006 3.21458 1.3146 0
M  V30 8918 C 823.96 4.2167 0.733368 0
M  V30 8919 C 823.286 5.00009 1.8946 0
M  V30 8920 C 824.586 5.21544 -0.280875 0
M  V30 8921 H 826.28 2.9618 -0.43795 0
M  V30 8922 H 823.826 1.4243 -0.212062 0
M  V30 8923 H 825.779 3.78305 1.85643 0
M  V30 8924 H 824.503 2.55346 2.03632 0
M  V30 8925 H 823.162 3.65979 0.213231 0
M  V30 8926 H 822.81 4.30338 2.60419 0
M  V30 8927 H 822.51 5.67821 1.51173 0
M  V30 8928 H 824.034 5.59702 2.44061 0
M  V30 8929 H 825.448 5.73039 0.173095 0
M  V30 8930 H 823.845 5.97291 -0.580006 0
M  V30 8931 H 824.915 4.69969 -1.19404 0
M  V30 8932 N 826.258 0.243083 1.55714 0
M  V30 8933 C 827.535 -0.432851 1.90751 0
M  V30 8934 C 827.915 -1.76153 1.16333 0
M  V30 8935 O 827.263 -2.26783 0.279565 0
M  V30 8936 C 827.473 -0.604685 3.43722 0
M  V30 8937 C 828.821 -0.90231 4.14902 0
M  V30 8938 O 829.845 -0.690689 3.49439 0
M  V30 8939 O 828.704 -1.3051 5.30688 0
M  V30 8940 H 825.798 -0.231835 0.79384 0
M  V30 8941 H 828.344 0.286867 1.67258 0
M  V30 8942 H 827.116 0.331655 3.89892 0
M  V30 8943 H 826.739 -1.37509 3.73065 0
M  V30 8944 N 827.736 -1.57571 -0.0300757 0
M  V30 8945 C 828.666 -2.0953 -1.03051 0
M  V30 8946 C 829.647 -0.99761 -1.37774 0
M  V30 8947 O 830.832 -1.27279 -1.46676 0
M  V30 8948 C 827.962 -2.57385 -2.33174 0
M  V30 8949 C 826.916 -3.71409 -2.12696 0
M  V30 8950 C 826.242 -4.05467 -3.4857 0
M  V30 8951 C 827.542 -4.99877 -1.51396 0
M  V30 8952 H 829.236 -2.93367 -0.597999 0
M  V30 8953 H 826.782 -1.41127 -0.286203 0
M  V30 8954 H 828.735 -2.92355 -3.03491 0
M  V30 8955 H 827.459 -1.70629 -2.78484 0
M  V30 8956 H 826.118 -3.36786 -1.44813 0
M  V30 8957 H 825.766 -3.15779 -3.91526 0
M  V30 8958 H 825.466 -4.82269 -3.35694 0
M  V30 8959 H 826.99 -4.4297 -4.2025 0
M  V30 8960 H 828.404 -5.3281 -2.11629 0
M  V30 8961 H 826.801 -5.81283 -1.49098 0
M  V30 8962 H 827.871 -4.82522 -0.479676 0
M  V30 8963 N 829.214 0.302327 -1.54673 0
M  V30 8964 C 830.439 1.06103 -1.78205 0
M  V30 8965 C 830.864 1.80204 -0.53926 0
M  V30 8966 O 830.222 1.73975 0.510142 0
M  V30 8967 C 830.27 2.01829 -2.98827 0
M  V30 8968 O 829.374 3.10108 -2.71858 0
M  V30 8969 H 828.715 0.30487 -0.589873 0
M  V30 8970 H 831.245 0.340153 -2.01753 0
M  V30 8971 H 831.255 2.44319 -3.2676 0
M  V30 8972 H 829.93 1.473 -3.88942 0
M  V30 8973 H 828.507 2.72142 -2.54937 0
M  V30 8974 N 830.692 1.47107 0.565454 0
M  V30 8975 C 831.922 1.56681 1.34664 0
M  V30 8976 C 832.33 0.213011 1.87997 0
M  V30 8977 O 831.673 -0.802629 1.65238 0
M  V30 8978 C 831.735 2.52528 2.55871 0
M  V30 8979 C 831.399 3.98403 2.23883 0
M  V30 8980 C 832.396 4.87125 1.81673 0
M  V30 8981 C 830.081 4.43674 2.35496 0
M  V30 8982 C 832.075 6.19135 1.51494 0
M  V30 8983 C 829.762 5.75714 2.0493 0
M  V30 8984 C 830.76 6.63266 1.62996 0
M  V30 8985 O 830.448 7.92853 1.32813 0
M  V30 8986 H 830.18 0.531967 0.417117 0
M  V30 8987 H 832.734 1.93368 0.692669 0
M  V30 8988 H 830.964 2.10893 3.24131 0
M  V30 8989 H 832.653 2.5232 3.17945 0
M  V30 8990 H 833.419 4.534 1.72201 0
M  V30 8991 H 829.298 3.7574 2.67096 0
M  V30 8992 H 832.842 6.87429 1.1869 0
M  V30 8993 H 828.739 6.08983 2.14031 0
M  V30 8994 H 829.507 8.0528 1.46513 0
M  V30 8995 N 832.17 -0.811516 1.35101 0
M  V30 8996 C 833.118 -1.94449 1.27642 0
M  V30 8997 C 834.112 -1.68522 0.172287 0
M  V30 8998 O 835.318 -1.76799 0.337967 0
M  V30 8999 H 831.693 -0.638776 0.396824 0
M  V30 9000 H 833.664 -1.97861 2.23369 0
M  V30 9001 C 832.413 -3.31139 1.06029 0
M  V30 9002 H 831.736 -3.51644 1.90227 0
M  V30 9003 H 833.176 -4.10831 1.0485 0
M  V30 9004 C 831.635 -3.36072 -0.236039 0
M  V30 9005 O 832.165 -3.82292 -1.23353 0
M  V30 9006 N 830.371 -2.89314 -0.273107 0
M  V30 9007 H 829.918 -2.51893 0.539211 0
M  V30 9008 H 829.876 -2.92996 -1.1402 0
M  V30 9009 N 833.648 -1.19017 -1.03309 0
M  V30 9010 C 834.873 -1.01598 -1.80811 0
M  V30 9011 C 835.298 0.430773 -1.83101 0
M  V30 9012 O 834.656 1.30946 -1.25391 0
M  V30 9013 C 834.704 -1.5845 -3.23923 0
M  V30 9014 O 833.808 -0.810972 -4.04348 0
M  V30 9015 H 833.149 -0.359398 -0.558327 0
M  V30 9016 H 835.679 -1.57945 -1.30055 0
M  V30 9017 H 835.689 -1.61486 -3.74682 0
M  V30 9018 H 834.364 -2.63752 -3.21571 0
M  V30 9019 H 832.941 -0.85353 -3.63 0
M  V30 9020 N 835.127 1.22348 -0.993418 0
M  V30 9021 C 836.077 2.221 -0.515333 0
M  V30 9022 C 837.061 1.55409 0.416762 0
M  V30 9023 O 838.253 1.75317 0.243497 0
M  V30 9024 C 835.382 3.42888 0.168173 0
M  V30 9025 C 834.468 4.16786 -0.784257 0
M  V30 9026 N 834.859 4.67435 -1.93231 0
M  V30 9027 C 833.157 4.41942 -0.600243 0
M  V30 9028 C 833.858 5.23792 -2.53016 0
M  V30 9029 N 832.834 5.12483 -1.8128 0
M  V30 9030 H 836.636 2.58902 -1.39093 0
M  V30 9031 H 834.15 1.38024 -0.855747 0
M  V30 9032 H 836.147 4.13542 0.528069 0
M  V30 9033 H 834.807 3.07598 1.03989 0
M  V30 9034 H 835.818 4.63375 -2.31309 0
M  V30 9035 H 832.495 4.16891 0.225369 0
M  V30 9036 H 833.885 5.73515 -3.50043 0
M  V30 9037 N 836.605 0.766683 1.37694 0
M  V30 9038 C 837.835 0.339446 2.03792 0
M  V30 9039 C 838.243 -1.04153 1.57952 0
M  V30 9040 O 837.586 -1.67521 0.753826 0
M  V30 9041 C 837.648 0.29822 3.58261 0
M  V30 9042 C 837.312 1.62293 4.27212 0
M  V30 9043 C 838.309 2.57447 4.51682 0
M  V30 9044 C 835.994 1.89597 4.65143 0
M  V30 9045 C 837.988 3.78117 5.13134 0
M  V30 9046 C 835.675 3.10538 5.26317 0
M  V30 9047 C 836.673 4.04617 5.50249 0
M  V30 9048 O 836.361 5.23429 6.10145 0
M  V30 9049 H 836.093 0.140952 0.661142 0
M  V30 9050 H 838.647 1.04022 1.77111 0
M  V30 9051 H 836.877 -0.458897 3.83967 0
M  V30 9052 H 838.566 -0.101263 4.05774 0
M  V30 9053 H 839.332 2.37633 4.22795 0
M  V30 9054 H 835.211 1.17199 4.45854 0
M  V30 9055 H 838.755 4.51563 5.3173 0
M  V30 9056 H 834.652 3.3024 5.54628 0
M  V30 9057 H 835.42 5.24187 6.28626 0
M  V30 9058 N 838.083 -1.48885 0.516809 0
M  V30 9059 C 839.33 -2.02488 -0.0220602 0
M  V30 9060 C 839.658 -1.39513 -1.35523 0
M  V30 9061 O 838.913 -0.52558 -1.8851 0
M  V30 9062 C 839.212 -3.56801 -0.206798 0
M  V30 9063 C 838.878 -4.38496 1.05035 0
M  V30 9064 C 837.54 -4.60538 1.39492 0
M  V30 9065 C 839.892 -4.85909 1.88525 0
M  V30 9066 C 837.22 -5.2724 2.57361 0
M  V30 9067 C 839.572 -5.53909 3.05561 0
M  V30 9068 C 838.236 -5.74193 3.4038 0
M  V30 9069 H 837.506 -0.740956 -0.00807238 0
M  V30 9070 H 840.153 -1.79014 0.680168 0
M  V30 9071 H 838.458 -3.79042 -0.991687 0
M  V30 9072 H 840.155 -3.95885 -0.638447 0
M  V30 9073 H 836.745 -4.2159 0.771984 0
M  V30 9074 H 840.929 -4.68694 1.63218 0
M  V30 9075 H 836.185 -5.41145 2.84556 0
M  V30 9076 H 840.359 -5.89619 3.7057 0
M  V30 9077 H 837.986 -6.25652 4.31814 0
M  V30 9078 N 839.561 -0.251338 -1.55583 0
M  V30 9079 C 840.977 0.103409 -1.59265 0
M  V30 9080 C 841.177 1.56559 -1.26852 0
M  V30 9081 O 840.233 2.31071 -1.01796 0
M  V30 9082 C 841.546 -0.249781 -2.99661 0
M  V30 9083 C 843.094 -0.194442 -3.12395 0
M  V30 9084 C 843.569 -0.521728 -4.55019 0
M  V30 9085 N 845.06 -0.472393 -4.60785 0
M  V30 9086 C 845.795 -0.698737 -5.69127 0
M  V30 9087 N 845.291 -0.988443 -6.85713 0
M  V30 9088 N 847.084 -0.629143 -5.58568 0
M  V30 9089 H 839.235 -1.20484 -1.74921 0
M  V30 9090 H 841.498 -0.485092 -0.814488 0
M  V30 9091 H 841.204 -1.26577 -3.28133 0
M  V30 9092 H 841.078 0.420973 -3.74844 0
M  V30 9093 H 843.465 0.812229 -2.83702 0
M  V30 9094 H 843.546 -0.899111 -2.39478 0
M  V30 9095 H 843.19 -1.52597 -4.84434 0
M  V30 9096 H 843.12 0.204468 -5.26203 0
M  V30 9097 H 845.611 -0.257386 -3.77022 0
M  V30 9098 H 845.924 -1.14846 -7.64219 0
M  V30 9099 H 844.269 -1.02596 -6.87386 0
M  V30 9100 H 847.46 -0.402826 -4.66364 0
M  V30 9101 H 847.633 -0.808935 -6.42931 0
M  V30 9102 N 841.039 1.57585 0.0217189 0
M  V30 9103 C 842.288 1.88786 0.710125 0
M  V30 9104 C 842.601 0.850819 1.76126 0
M  V30 9105 O 843.807 1.0523 2.50277 0
M  V30 9106 C 842.263 3.3505 1.31413 0
M  V30 9107 C 841.871 4.47001 0.298959 0
M  V30 9108 C 843.615 3.7539 1.98199 0
M  V30 9109 C 841.522 5.8433 0.911727 0
M  V30 9110 H 840.452 0.704388 0.268986 0
M  V30 9111 H 843.103 1.83466 -0.0352638 0
M  V30 9112 H 841.485 3.35138 2.10947 0
M  V30 9113 H 842.659 4.58395 -0.470203 0
M  V30 9114 H 840.974 4.15542 -0.267222 0
M  V30 9115 H 843.571 4.75314 2.4491 0
M  V30 9116 H 843.914 3.07766 2.80331 0
M  V30 9117 H 844.447 3.77508 1.2543 0
M  V30 9118 H 841.186 6.55372 0.129659 0
M  V30 9119 H 840.706 5.76643 1.65056 0
M  V30 9120 H 842.385 6.31295 1.41688 0
M  V30 9121 N 842.517 -0.29412 1.54831 0
M  V30 9122 C 843.48 -1.3461 1.85507 0
M  V30 9123 C 844.48 -1.43359 0.728343 0
M  V30 9124 O 845.67 -1.42875 0.996609 0
M  V30 9125 C 842.802 -2.73012 2.0415 0
M  V30 9126 H 843.995 -1.08651 2.79526 0
M  V30 9127 H 841.548 -0.531138 1.46999 0
M  V30 9128 H 842.283 -3.04183 1.12441 0
M  V30 9129 H 842.068 -2.68051 2.86166 0
M  V30 9130 H 843.558 -3.49061 2.29229 0
M  V30 9131 N 843.995 -1.47404 -0.557645 0
M  V30 9132 C 845.243 -1.53703 -1.31224 0
M  V30 9133 C 845.564 -0.200742 -1.93964 0
M  V30 9134 O 844.834 0.775253 -1.79907 0
M  V30 9135 H 843.414 -0.566171 -0.487299 0
M  V30 9136 H 846.076 -1.83699 -0.651195 0
M  V30 9137 H 845.172 -2.30335 -2.10599 0
M  V30 9138 N 845.473 0.80434 -1.35529 0
M  V30 9139 C 846.719 1.56385 -1.29118 0
M  V30 9140 C 847.052 1.9374 0.133536 0
M  V30 9141 O 846.327 1.6153 1.08344 0
M  V30 9142 C 846.61 2.85097 -2.19981 0
M  V30 9143 C 846.463 2.54204 -3.7108 0
M  V30 9144 C 847.782 3.86817 -2.09907 0
M  V30 9145 H 844.901 0.567382 -0.470368 0
M  V30 9146 H 847.543 0.925235 -1.6595 0
M  V30 9147 H 845.693 3.39594 -1.88701 0
M  V30 9148 H 847.365 2.05872 -4.12813 0
M  V30 9149 H 845.608 1.87364 -3.91251 0
M  V30 9150 H 846.279 3.46068 -4.30048 0
M  V30 9151 H 848.755 3.41725 -2.37409 0
M  V30 9152 H 847.631 4.7465 -2.75678 0
M  V30 9153 H 847.892 4.28663 -1.08171 0
M  V30 9154 N 846.951 1.19563 1.02676 0
M  V30 9155 C 848.179 1.02488 1.79732 0
M  V30 9156 C 848.594 -0.426302 1.83924 0
M  V30 9157 O 847.951 -1.29609 1.28483 0
M  V30 9158 C 848.002 1.58944 3.24683 0
M  V30 9159 O 847.723 2.98382 3.2078 0
M  V30 9160 C 849.224 1.46681 4.1833 0
M  V30 9161 H 846.444 0.361098 0.565552 0
M  V30 9162 H 848.988 1.58426 1.29311 0
M  V30 9163 H 847.143 1.0715 3.72287 0
M  V30 9164 H 847.557 3.24983 4.11687 0
M  V30 9165 H 849.031 1.90959 5.17918 0
M  V30 9166 H 849.508 0.417663 4.3721 0
M  V30 9167 H 850.114 1.97616 3.76601 0
M  V30 9168 N 848.429 -1.21819 0.999893 0
M  V30 9169 C 849.379 -2.21823 0.527104 0
M  V30 9170 C 850.363 -1.55628 -0.408515 0
M  V30 9171 O 851.555 -1.75444 -0.234196 0
M  V30 9172 C 848.684 -3.42972 -0.149986 0
M  V30 9173 C 847.77 -4.16364 0.806349 0
M  V30 9174 N 848.161 -4.66403 1.95708 0
M  V30 9175 C 846.459 -4.41618 0.623672 0
M  V30 9176 C 847.16 -5.22443 2.5579 0
M  V30 9177 N 846.136 -5.11514 1.83995 0
M  V30 9178 H 849.938 -2.58161 1.40464 0
M  V30 9179 H 847.452 -1.37569 0.863054 0
M  V30 9180 H 849.449 -4.13816 -0.50613 0
M  V30 9181 H 848.109 -3.08145 -1.02357 0
M  V30 9182 H 849.12 -4.62142 2.33763 0
M  V30 9183 H 845.797 -4.17005 -0.203257 0
M  V30 9184 H 847.187 -5.7165 3.5308 0
M  V30 9185 N 849.908 -0.773975 -1.37286 0
M  V30 9186 C 850.858 -0.135245 -2.27599 0
M  V30 9187 C 851.842 0.671691 -1.46209 0
M  V30 9188 O 853.034 0.534299 -1.68743 0
M  V30 9189 C 850.163 0.741298 -3.35201 0
M  V30 9190 C 849.249 -0.0735896 -4.24036 0
M  V30 9191 N 849.64 -1.12035 -4.93236 0
M  V30 9192 C 847.938 0.150038 -4.45748 0
M  V30 9193 C 848.639 -1.61512 -5.58828 0
M  V30 9194 N 847.615 -0.926922 -5.35639 0
M  V30 9195 H 851.417 -0.936646 -2.78575 0
M  V30 9196 H 848.931 -0.611944 -1.50429 0
M  V30 9197 H 850.928 1.21468 -3.98812 0
M  V30 9198 H 849.588 1.54142 -2.8578 0
M  V30 9199 H 850.599 -1.50253 -4.95625 0
M  V30 9200 H 847.276 0.921891 -4.07195 0
M  V30 9201 H 848.666 -2.48818 -6.24131 0
M  V30 9202 N 851.386 1.48609 -0.524698 0
M  V30 9203 C 852.316 2.32366 0.229837 0
M  V30 9204 C 853.297 1.41759 0.940129 0
M  V30 9205 O 854.482 1.7065 0.926936 0
M  V30 9206 C 851.612 3.22835 1.28043 0
M  V30 9207 C 850.566 4.22424 0.688603 0
M  V30 9208 C 849.892 5.0199 1.84146 0
M  V30 9209 C 851.192 5.21217 -0.336176 0
M  V30 9210 H 852.886 2.95698 -0.469339 0
M  V30 9211 H 850.432 1.42197 -0.227156 0
M  V30 9212 H 852.385 3.80253 1.8162 0
M  V30 9213 H 851.109 2.57492 2.00912 0
M  V30 9214 H 849.768 3.66185 0.174402 0
M  V30 9215 H 849.416 4.33076 2.5584 0
M  V30 9216 H 849.116 5.69392 1.45142 0
M  V30 9217 H 850.64 5.62259 2.38111 0
M  V30 9218 H 852.054 5.7319 0.112307 0
M  V30 9219 H 850.451 5.96642 -0.643324 0
M  V30 9220 H 851.521 4.68676 -1.24381 0
M  V30 9221 N 852.864 0.259585 1.55447 0
M  V30 9222 C 853.774 -0.645026 2.25558 0
M  V30 9223 C 854.79 -1.18291 1.27606 0
M  V30 9224 O 855.966 -1.21649 1.6051 0
M  V30 9225 C 853.031 -1.81964 2.9511 0
M  V30 9226 C 852.092 -1.31997 4.08504 0
M  V30 9227 C 851.325 -2.43861 4.74729 0
M  V30 9228 O 851.548 -3.62876 4.40088 0
M  V30 9229 O 850.482 -2.12898 5.6299 0
M  V30 9230 H 854.308 -0.0775399 3.03601 0
M  V30 9231 H 851.893 0.0275859 1.49375 0
M  V30 9232 H 853.775 -2.50485 3.38873 0
M  V30 9233 H 852.45 -2.37451 2.19997 0
M  V30 9234 H 851.357 -0.601676 3.6923 0
M  V30 9235 H 852.69 -0.811045 4.85472 0
M  V30 9236 N 854.342 -1.57594 -0.0133615 0
M  V30 9237 C 855.589 -1.8998 -0.70098 0
M  V30 9238 C 855.917 -0.858802 -1.74513 0
M  V30 9239 O 855.172 0.138209 -1.95211 0
M  V30 9240 C 855.471 -3.29121 -1.39336 0
M  V30 9241 C 855.137 -4.48298 -0.483687 0
M  V30 9242 C 853.799 -4.80635 -0.233186 0
M  V30 9243 C 856.151 -5.21003 0.143426 0
M  V30 9244 C 853.479 -5.83055 0.652943 0
M  V30 9245 C 855.831 -6.24366 1.01735 0
M  V30 9246 C 854.495 -6.55168 1.27716 0
M  V30 9247 H 853.765 -0.695187 -0.256507 0
M  V30 9248 H 856.412 -1.9146 0.0392965 0
M  V30 9249 H 854.717 -3.23703 -2.20735 0
M  V30 9250 H 856.414 -3.51433 -1.93121 0
M  V30 9251 H 853.004 -4.23024 -0.689092 0
M  V30 9252 H 857.188 -4.96286 -0.0371139 0
M  V30 9253 H 852.444 -6.05288 0.862379 0
M  V30 9254 H 856.618 -6.79839 1.5097 0
M  V30 9255 H 854.245 -7.34351 1.9655 0
M  V30 9256 N 855.82 0.285905 -1.54985 0
M  V30 9257 C 857.069 1.01691 -1.74189 0
M  V30 9258 C 857.382 1.87908 -0.543135 0
M  V30 9259 O 858.588 2.64389 -0.617305 0
M  V30 9260 C 857.044 1.85785 -3.0824 0
M  V30 9261 C 856.652 1.04497 -4.35642 0
M  V30 9262 C 858.396 2.58393 -3.36798 0
M  V30 9263 C 856.303 1.87955 -5.60738 0
M  V30 9264 H 855.233 0.383396 -0.649248 0
M  V30 9265 H 857.884 0.27317 -1.81455 0
M  V30 9266 H 856.266 2.64205 -2.94978 0
M  V30 9267 H 857.44 0.305847 -4.59784 0
M  V30 9268 H 855.755 0.434023 -4.14132 0
M  V30 9269 H 858.352 3.21214 -4.27464 0
M  V30 9270 H 858.695 3.28011 -2.56349 0
M  V30 9271 H 859.228 1.87012 -3.511 0
M  V30 9272 H 855.967 1.22781 -6.43898 0
M  V30 9273 H 855.487 2.59499 -5.40759 0
M  V30 9274 H 857.166 2.45636 -5.98558 0
M  V30 9275 N 857.298 1.47698 0.54982 0
M  V30 9276 C 858.23 1.56806 1.67166 0
M  V30 9277 C 859.243 0.453709 1.5635 0
M  V30 9278 O 860.432 0.723663 1.63173 0
M  V30 9279 C 857.532 1.4632 3.05686 0
M  V30 9280 C 856.705 2.72452 3.42182 0
M  V30 9281 C 855.764 2.55698 4.59897 0
M  V30 9282 O 854.79 3.29534 4.64108 0
M  V30 9283 N 855.992 1.64009 5.56849 0
M  V30 9284 H 858.757 2.53545 1.59797 0
M  V30 9285 H 856.318 1.44171 0.736635 0
M  V30 9286 H 858.31 1.32835 3.82279 0
M  V30 9287 H 856.88 0.57634 3.07241 0
M  V30 9288 H 856.1 3.00644 2.54964 0
M  V30 9289 H 857.388 3.56172 3.63344 0
M  V30 9290 H 856.786 1.03186 5.5621 0
M  V30 9291 H 855.343 1.56473 6.3274 0
M  V30 9292 N 858.776 -0.797141 1.35954 0
M  V30 9293 C 859.724 -1.93084 1.29697 0
M  V30 9294 C 860.718 -1.68329 0.190152 0
M  V30 9295 O 861.924 -1.7643 0.3567 0
M  V30 9296 H 858.299 -0.634531 0.403577 0
M  V30 9297 H 860.27 -1.95481 2.25455 0
M  V30 9298 C 859.019 -3.29996 1.09536 0
M  V30 9299 H 858.342 -3.49607 1.93946 0
M  V30 9300 H 859.782 -4.09696 1.09202 0
M  V30 9301 C 858.241 -3.36304 -0.200381 0
M  V30 9302 O 858.771 -3.83579 -1.19291 0
M  V30 9303 N 856.977 -2.89587 -0.242406 0
M  V30 9304 H 856.524 -2.51307 0.565897 0
M  V30 9305 H 856.482 -2.94189 -1.10906 0
M  V30 9306 N 860.254 -1.20106 -1.0204 0
M  V30 9307 C 861.501 -1.00889 -1.75578 0
M  V30 9308 C 861.829 0.459415 -1.88996 0
M  V30 9309 O 861.084 1.35735 -1.40977 0
M  V30 9310 C 861.383 -1.63308 -3.17908 0
M  V30 9311 C 861.049 -3.13091 -3.24476 0
M  V30 9312 C 859.711 -3.53968 -3.25976 0
M  V30 9313 C 862.063 -4.09093 -3.22944 0
M  V30 9314 C 859.391 -4.89381 -3.2361 0
M  V30 9315 C 861.743 -5.44447 -3.22119 0
M  V30 9316 C 860.407 -5.84742 -3.2192 0
M  V30 9317 H 859.677 -0.36918 -0.642485 0
M  V30 9318 H 862.324 -1.49475 -1.19706 0
M  V30 9319 H 860.629 -1.06974 -3.76914 0
M  V30 9320 H 862.326 -1.45958 -3.73493 0
M  V30 9321 H 858.916 -2.80526 -3.24042 0
M  V30 9322 H 863.1 -3.78549 -3.20958 0
M  V30 9323 H 858.356 -5.1987 -3.21785 0
M  V30 9324 H 862.53 -6.18584 -3.19885 0
M  V30 9325 H 860.157 -6.89642 -3.19841 0
M  V30 9326 N 861.732 1.21287 -1.00634 0
M  V30 9327 C 862.96 1.94385 -0.708678 0
M  V30 9328 C 863.375 1.7416 0.728957 0
M  V30 9329 O 862.732 1.04906 1.49335 0
M  V30 9330 C 862.783 3.46755 -1.02193 0
M  V30 9331 O 862.504 3.6631 -2.40309 0
M  V30 9332 C 864.005 4.37014 -0.743867 0
M  V30 9333 H 861.225 0.618136 -0.261052 0
M  V30 9334 H 863.769 1.54067 -1.34475 0
M  V30 9335 H 861.924 3.8499 -0.431441 0
M  V30 9336 H 862.338 4.60393 -2.51274 0
M  V30 9337 H 863.812 5.42621 -1.01321 0
M  V30 9338 H 864.289 4.38017 0.322084 0
M  V30 9339 H 864.895 4.04426 -1.31603 0
M  V30 9340 N 863.21 0.781244 1.36873 0
M  V30 9341 C 864.158 0.161889 2.32036 0
M  V30 9342 C 865.152 -0.674225 1.55405 0
M  V30 9343 O 866.358 -0.570223 1.70729 0
M  V30 9344 H 862.733 0.0335702 0.75125 0
M  V30 9345 H 864.704 0.980078 2.81846 0
M  V30 9346 C 863.453 -0.695352 3.40676 0
M  V30 9347 H 862.776 -0.0613425 3.99753 0
M  V30 9348 H 864.216 -1.09553 4.09602 0
M  V30 9349 C 862.675 -1.85008 2.81556 0
M  V30 9350 O 863.205 -2.94616 2.73065 0
M  V30 9351 N 861.411 -1.65364 2.38962 0
M  V30 9352 H 860.958 -0.762106 2.46068 0
M  V30 9353 H 860.916 -2.42789 1.99752 0
M  V30 9354 N 864.689 -1.48329 0.532571 0
M  V30 9355 C 865.619 -2.32485 -0.217511 0
M  V30 9356 C 866.6 -1.42255 -0.932598 0
M  V30 9357 O 867.785 -1.7114 -0.917873 0
M  V30 9358 C 864.915 -3.23509 -1.26329 0
M  V30 9359 C 863.869 -4.22784 -0.666191 0
M  V30 9360 C 863.195 -5.0296 -1.81482 0
M  V30 9361 C 864.495 -5.21031 0.363813 0
M  V30 9362 H 866.189 -2.95445 0.485014 0
M  V30 9363 H 863.735 -1.42075 0.234694 0
M  V30 9364 H 865.688 -3.81211 -1.79601 0
M  V30 9365 H 864.412 -2.58554 -1.99543 0
M  V30 9366 H 863.071 -3.66272 -0.15498 0
M  V30 9367 H 862.719 -4.34427 -2.5354 0
M  V30 9368 H 862.419 -5.70154 -1.4212 0
M  V30 9369 H 863.943 -5.63514 -2.35126 0
M  V30 9370 H 865.357 -5.73241 -0.0819079 0
M  V30 9371 H 863.754 -5.96292 0.674956 0
M  V30 9372 H 864.824 -4.6801 1.26865 0
M  V30 9373 N 866.167 -0.267825 -1.55308 0
M  V30 9374 C 867.114 0.6228 -2.22238 0
M  V30 9375 C 868.084 1.15536 -1.19334 0
M  V30 9376 O 869.269 1.206 -1.47852 0
M  V30 9377 C 866.409 1.80447 -2.94164 0
M  V30 9378 C 865.522 1.30646 -4.11771 0
M  V30 9379 C 864.657 2.44935 -4.7136 0
M  V30 9380 C 863.696 1.92099 -5.81175 0
M  V30 9381 N 862.833 2.99834 -6.34857 0
M  V30 9382 H 867.673 0.0453874 -2.97965 0
M  V30 9383 H 865.21 0.0106371 -1.47096 0
M  V30 9384 H 867.168 2.49896 -3.34078 0
M  V30 9385 H 865.798 2.35403 -2.20874 0
M  V30 9386 H 864.85 0.505314 -3.77029 0
M  V30 9387 H 866.162 0.879409 -4.90987 0
M  V30 9388 H 865.316 3.2239 -5.13955 0
M  V30 9389 H 864.055 2.90951 -3.91406 0
M  V30 9390 H 863.06 1.13122 -5.38037 0
M  V30 9391 H 864.285 1.47027 -6.62993 0
M  V30 9392 H 862.231 3.45246 -5.578 0
M  V30 9393 H 862.148 2.61524 -7.09324 0
M  V30 9394 H 863.416 3.77286 -6.82111 0
M  V30 9395 N 867.645 1.57599 0.00500368 0
M  V30 9396 C 868.891 1.90631 0.691919 0
M  V30 9397 C 869.224 0.868443 1.737 0
M  V30 9398 O 868.499 -0.113482 1.94169 0
M  V30 9399 C 868.782 3.34255 1.33961 0
M  V30 9400 C 868.635 4.48755 0.306413 0
M  V30 9401 C 869.954 3.77211 2.26715 0
M  V30 9402 H 867.073 0.693279 0.250066 0
M  V30 9403 H 869.715 1.89946 -0.0452634 0
M  V30 9404 H 867.865 3.3497 1.96793 0
M  V30 9405 H 869.537 4.60176 -0.321841 0
M  V30 9406 H 867.78 4.32203 -0.371852 0
M  V30 9407 H 868.451 5.46193 0.798554 0
M  V30 9408 H 870.927 3.78017 1.73904 0
M  V30 9409 H 869.803 4.78466 2.69002 0
M  V30 9410 H 870.064 3.10801 3.14413 0
M  V30 9411 N 869.123 -0.277682 1.55134 0
M  V30 9412 C 870.053 -1.34742 1.90701 0
M  V30 9413 C 871.034 -1.51757 0.768354 0
M  V30 9414 O 872.219 -1.64879 1.02609 0
M  V30 9415 C 869.349 -2.70775 2.17481 0
M  V30 9416 C 868.303 -2.68497 3.33307 0
M  V30 9417 C 867.629 -4.08037 3.45557 0
M  V30 9418 C 868.929 -2.28178 4.69821 0
M  V30 9419 H 870.623 -1.05224 2.803 0
M  V30 9420 H 868.169 -0.504738 1.34864 0
M  V30 9421 H 870.122 -3.45719 2.40949 0
M  V30 9422 H 868.846 -3.01867 1.24676 0
M  V30 9423 H 867.505 -1.9601 3.09799 0
M  V30 9424 H 867.153 -4.36344 2.50226 0
M  V30 9425 H 866.853 -4.07409 4.23429 0
M  V30 9426 H 868.377 -4.84726 3.71312 0
M  V30 9427 H 869.791 -2.92843 4.92865 0
M  V30 9428 H 868.188 -2.3872 5.50575 0
M  V30 9429 H 869.258 -1.23308 4.6896 0
M  V30 9430 N 870.601 -1.47988 -0.541979 0
M  V30 9431 C 871.549 -1.62044 -1.66867 0
M  V30 9432 C 872.543 -0.487217 -1.62242 0
M  V30 9433 O 873.749 -0.66554 -1.67244 0
M  V30 9434 H 870.124 -0.51024 -0.552412 0
M  V30 9435 H 872.095 -2.56695 -1.52153 0
M  V30 9436 C 870.844 -1.66615 -3.0518 0
M  V30 9437 H 870.167 -2.5317 -3.09427 0
M  V30 9438 H 871.607 -1.80496 -3.83663 0
M  V30 9439 C 870.066 -0.402421 -3.34488 0
M  V30 9440 O 870.596 0.48992 -3.98701 0
M  V30 9441 N 868.802 -0.277778 -2.89269 0
M  V30 9442 H 868.349 -1.00488 -2.37192 0
M  V30 9443 H 868.307 0.566784 -3.09249 0
M  V30 9444 N 872.079 0.78992 -1.36375 0
M  V30 9445 C 873.009 1.91683 -1.33341 0
M  V30 9446 C 873.99 1.68861 -0.204965 0
M  V30 9447 O 875.175 1.89982 -0.402531 0
M  V30 9448 C 872.305 3.28696 -1.12143 0
M  V30 9449 C 871.259 3.66041 -2.21806 0
M  V30 9450 C 870.585 5.01399 -1.85751 0
M  V30 9451 C 871.885 3.74677 -3.63888 0
M  V30 9452 H 873.579 1.94478 -2.27637 0
M  V30 9453 H 871.125 0.934271 -1.09578 0
M  V30 9454 H 873.078 4.07151 -1.08656 0
M  V30 9455 H 871.802 3.26287 -0.142974 0
M  V30 9456 H 870.461 2.89883 -2.24418 0
M  V30 9457 H 870.109 4.9551 -0.864817 0
M  V30 9458 H 869.809 5.27355 -2.59173 0
M  V30 9459 H 871.333 5.82274 -1.83819 0
M  V30 9460 H 872.747 4.43324 -3.63506 0
M  V30 9461 H 871.144 4.12118 -4.3621 0
M  V30 9462 H 872.214 2.75795 -3.9883 0
M  V30 9463 N 873.557 1.20646 1.01402 0
M  V30 9464 C 874.782 1.04462 1.79172 0
M  V30 9465 C 875.207 -0.401588 1.83763 0
M  V30 9466 O 874.565 -1.28934 1.27459 0
M  V30 9467 C 874.613 1.63583 3.21361 0
M  V30 9468 O 873.717 0.875198 4.03006 0
M  V30 9469 H 873.058 0.368235 0.552539 0
M  V30 9470 H 875.588 1.59994 1.27526 0
M  V30 9471 H 875.598 1.67426 3.72065 0
M  V30 9472 H 874.273 2.68835 3.17334 0
M  V30 9473 H 872.85 0.911172 3.61597 0
M  V30 9474 N 875.035 -1.20752 1.01276 0
M  V30 9475 C 875.985 -2.21252 0.550602 0
M  V30 9476 C 876.969 -1.56052 -0.391985 0
M  V30 9477 O 878.161 -1.75682 -0.215575 0
M  V30 9478 C 875.29 -3.43112 -0.113601 0
M  V30 9479 C 874.376 -4.15485 0.850465 0
M  V30 9480 N 874.767 -4.64301 2.00643 0
M  V30 9481 C 873.065 -4.40932 0.670476 0
M  V30 9482 C 873.766 -5.197 2.61317 0
M  V30 9483 N 872.742 -5.09534 1.8941 0
M  V30 9484 H 876.544 -2.56657 1.43194 0
M  V30 9485 H 874.058 -1.36646 0.877597 0
M  V30 9486 H 876.055 -4.1433 -0.462211 0
M  V30 9487 H 874.715 -3.09213 -0.990825 0
M  V30 9488 H 875.726 -4.59637 2.38651 0
M  V30 9489 H 872.403 -4.17197 -0.159016 0
M  V30 9490 H 873.793 -5.67873 3.59123 0
M  V30 9491 N 876.513 -0.788492 -1.36457 0
M  V30 9492 C 877.461 -0.174192 -2.31947 0
M  V30 9493 C 878.455 0.665974 -1.5576 0
M  V30 9494 O 879.661 0.561161 -1.71029 0
M  V30 9495 H 876.036 -0.0375538 -0.751062 0
M  V30 9496 H 878.007 -0.995011 -2.81322 0
M  V30 9497 C 876.756 0.677276 -3.4104 0
M  V30 9498 H 876.079 0.0401418 -3.9978 0
M  V30 9499 H 877.519 1.07379 -4.10178 0
M  V30 9500 C 875.978 1.83512 -2.82533 0
M  V30 9501 O 876.508 2.93164 -2.74623 0
M  V30 9502 N 874.714 1.64095 -2.39836 0
M  V30 9503 H 874.261 0.749046 -2.46469 0
M  V30 9504 H 874.219 2.41726 -2.01037 0
M  V30 9505 N 877.991 1.48044 -0.54043 0
M  V30 9506 C 878.939 2.31461 0.229862 0
M  V30 9507 C 879.933 1.41884 0.925495 0
M  V30 9508 O 881.139 1.58736 0.848689 0
M  V30 9509 H 877.514 0.746227 0.0929975 0
M  V30 9510 H 879.485 2.94297 -0.493118 0
M  V30 9511 C 878.234 3.24172 1.25729 0
M  V30 9512 H 877.557 3.93052 0.731426 0
M  V30 9513 H 878.997 3.85404 1.76747 0
M  V30 9514 C 877.456 2.4651 2.2964 0
M  V30 9515 O 877.986 2.19742 3.36268 0
M  V30 9516 N 876.192 2.07817 2.03127 0
M  V30 9517 H 875.739 2.29786 1.1643 0
M  V30 9518 H 875.697 1.56168 2.72872 0
M  V30 9519 N 879.47 0.276058 1.55163 0
M  V30 9520 C 880.719 -0.341098 1.98795 0
M  V30 9521 C 881.032 -1.56905 1.16791 0
M  V30 9522 O 882.238 -2.25922 1.50571 0
M  V30 9523 C 880.694 -0.658231 3.5383 0
M  V30 9524 C 880.302 0.549972 4.44611 0
M  V30 9525 C 882.046 -1.23796 4.06048 0
M  V30 9526 C 879.953 0.207373 5.91036 0
M  V30 9527 H 878.883 -0.131224 0.742493 0
M  V30 9528 H 881.534 0.380858 1.79504 0
M  V30 9529 H 879.916 -1.43911 3.68925 0
M  V30 9530 H 881.09 1.32681 4.41285 0
M  V30 9531 H 879.405 1.04661 4.03032 0
M  V30 9532 H 882.002 -1.50811 5.12991 0
M  V30 9533 H 882.345 -2.17214 3.55139 0
M  V30 9534 H 882.878 -0.519345 3.94395 0
M  V30 9535 H 879.617 1.10946 6.46043 0
M  V30 9536 H 879.137 -0.532687 5.9743 0
M  V30 9537 H 880.816 -0.200072 6.46691 0
M  V30 9538 N 880.948 -1.576 0.00335426 0
M  V30 9539 C 882.178 -1.94713 -0.690682 0
M  V30 9540 C 882.586 -0.876915 -1.67651 0
M  V30 9541 O 881.929 0.152434 -1.83066 0
M  V30 9542 C 881.991 -3.27833 -1.47532 0
M  V30 9543 C 881.655 -4.52344 -0.650704 0
M  V30 9544 C 882.652 -5.19862 0.0630537 0
M  V30 9545 C 880.337 -4.98755 -0.595687 0
M  V30 9546 C 882.331 -6.32093 0.820779 0
M  V30 9547 C 880.018 -6.10875 0.165761 0
M  V30 9548 C 881.016 -6.77401 0.872724 0
M  V30 9549 O 880.704 -7.87372 1.62174 0
M  V30 9550 H 880.436 -0.646627 -0.197104 0
M  V30 9551 H 882.99 -2.05335 0.0516082 0
M  V30 9552 H 881.22 -3.13628 -2.26217 0
M  V30 9553 H 882.909 -3.50034 -2.05501 0
M  V30 9554 H 883.675 -4.84991 0.0297223 0
M  V30 9555 H 879.554 -4.46797 -1.13549 0
M  V30 9556 H 883.098 -6.83953 1.37312 0
M  V30 9557 H 878.995 -6.45187 0.200901 0
M  V30 9558 H 879.763 -8.03905 1.5388 0
M  V30 9559 N 882.426 0.269451 -1.5528 0
M  V30 9560 C 883.654 1.01872 -1.80082 0
M  V30 9561 C 884.069 1.79802 -0.575917 0
M  V30 9562 O 883.426 1.76735 0.455081 0
M  V30 9563 C 883.477 1.9745 -3.02813 0
M  V30 9564 O 883.198 1.22677 -4.20573 0
M  V30 9565 C 884.699 2.8416 -3.40247 0
M  V30 9566 H 881.919 0.300781 -0.59981 0
M  V30 9567 H 884.463 0.29916 -2.023 0
M  V30 9568 H 882.618 2.64864 -2.82712 0
M  V30 9569 H 883.032 1.87129 -4.89982 0
M  V30 9570 H 884.506 3.47014 -4.29284 0
M  V30 9571 H 884.983 3.54113 -2.59809 0
M  V30 9572 H 885.589 2.22232 -3.6262 0
M  V30 9573 N 883.904 1.48273 0.534124 0
M  V30 9574 C 884.834 1.6538 1.64839 0
M  V30 9575 C 885.815 0.502741 1.62501 0
M  V30 9576 O 887 0.734799 1.79762 0
M  V30 9577 C 884.13 1.68949 3.03436 0
M  V30 9578 C 883.084 2.83513 3.20631 0
M  V30 9579 C 882.41 2.72169 4.60248 0
M  V30 9580 C 883.71 4.24858 3.03797 0
M  V30 9581 H 885.404 2.58663 1.50777 0
M  V30 9582 H 882.95 1.24479 0.723937 0
M  V30 9583 H 884.903 1.79505 3.81256 0
M  V30 9584 H 883.627 0.722415 3.1851 0
M  V30 9585 H 882.286 2.72505 2.45227 0
M  V30 9586 H 881.934 1.7344 4.72152 0
M  V30 9587 H 881.634 3.49042 4.72698 0
M  V30 9588 H 883.158 2.84687 5.40172 0
M  V30 9589 H 884.572 4.36721 3.71413 0
M  V30 9590 H 882.969 5.02697 3.27743 0
M  V30 9591 H 884.039 4.41611 2.0027 0
M  V30 9592 N 885.382 -0.782676 1.36792 0
M  V30 9593 C 886.61 -1.57162 1.34565 0
M  V30 9594 C 887.025 -1.88664 -0.0715501 0
M  V30 9595 O 886.382 -1.50633 -1.03033 0
M  V30 9596 C 886.433 -2.88854 2.1736 0
M  V30 9597 O 886.154 -2.58707 3.53557 0
M  V30 9598 C 887.655 -3.83132 2.2299 0
M  V30 9599 H 884.875 -0.487245 0.461338 0
M  V30 9600 H 887.419 -0.970905 1.79982 0
M  V30 9601 H 885.574 -3.45377 1.7548 0
M  V30 9602 H 885.988 -3.42961 3.96835 0
M  V30 9603 H 887.462 -4.72575 2.85266 0
M  V30 9604 H 887.939 -4.21472 1.23524 0
M  V30 9605 H 888.545 -3.32541 2.65135 0
M  V30 9606 N 886.86 -1.21182 -1.00761 0
M  V30 9607 C 888.137 -0.936297 -1.71735 0
M  V30 9608 C 888.517 0.552585 -2.03739 0
M  V30 9609 O 887.865 1.51672 -1.70903 0
M  V30 9610 C 888.075 -1.81867 -2.97868 0
M  V30 9611 C 889.423 -2.06594 -3.7095 0
M  V30 9612 O 890.447 -1.79194 -3.07844 0
M  V30 9613 O 889.306 -2.5292 -4.84452 0
M  V30 9614 H 886.4 -0.350867 -0.74888 0
M  V30 9615 H 888.946 -1.32098 -1.06527 0
M  V30 9616 H 887.718 -2.82643 -2.70607 0
M  V30 9617 H 887.341 -1.43463 -3.70815 0
M  V30 9618 N 888.338 1.20213 -1.01915 0
M  V30 9619 C 889.285 2.2309 -0.591571 0
M  V30 9620 C 890.255 1.61465 0.389649 0
M  V30 9621 O 891.44 1.88606 0.288511 0
M  V30 9622 C 888.58 3.45045 0.0614028 0
M  V30 9623 C 887.693 4.21091 -0.964688 0
M  V30 9624 C 886.828 5.30448 -0.282499 0
M  V30 9625 C 885.867 5.98241 -1.29517 0
M  V30 9626 N 885.004 6.99182 -0.639472 0
M  V30 9627 H 889.844 2.59023 -1.47347 0
M  V30 9628 H 887.381 1.27274 -0.737547 0
M  V30 9629 H 889.339 4.14688 0.45714 0
M  V30 9630 H 887.969 3.09797 0.906937 0
M  V30 9631 H 887.021 3.50489 -1.47857 0
M  V30 9632 H 888.333 4.67662 -1.73475 0
M  V30 9633 H 887.487 6.06466 0.168603 0
M  V30 9634 H 886.226 4.84922 0.519843 0
M  V30 9635 H 885.231 5.20982 -1.75663 0
M  V30 9636 H 886.456 6.45853 -2.09884 0
M  V30 9637 H 884.402 6.55844 0.142955 0
M  V30 9638 H 884.319 7.43893 -1.34756 0
M  V30 9639 H 885.587 7.79212 -0.212047 0
M  V30 9640 N 889.816 0.795718 1.36037 0
M  V30 9641 C 891.046 0.382597 2.03026 0
M  V30 9642 C 891.454 -1.00779 1.60126 0
M  V30 9643 O 890.797 -1.65884 0.78919 0
M  V30 9644 C 890.859 0.374145 3.57548 0
M  V30 9645 C 890.523 1.71318 4.23673 0
M  V30 9646 C 891.52 2.6697 4.4612 0
M  V30 9647 C 889.205 1.99421 4.61017 0
M  V30 9648 C 891.199 3.88916 5.04998 0
M  V30 9649 C 888.886 3.21632 5.19611 0
M  V30 9650 C 889.884 4.16198 5.41542 0
M  V30 9651 O 889.572 5.36254 5.98905 0
M  V30 9652 H 889.304 0.154944 0.658003 0
M  V30 9653 H 891.858 1.07756 1.74865 0
M  V30 9654 H 890.088 -0.377349 3.84854 0
M  V30 9655 H 891.777 -0.01517 4.05897 0
M  V30 9656 H 892.543 2.46548 4.17659 0
M  V30 9657 H 888.422 1.2663 4.43267 0
M  V30 9658 H 891.966 4.6274 5.22032 0
M  V30 9659 H 887.863 3.4193 5.47498 0
M  V30 9660 H 888.631 5.37403 6.17366 0
M  V30 9661 N 891.294 -1.47756 0.548274 0
M  V30 9662 C 892.242 -2.3158 -0.217584 0
M  V30 9663 C 893.236 -1.42372 -0.917957 0
M  V30 9664 O 894.442 -1.59184 -0.840259 0
M  V30 9665 H 890.817 -0.74671 -0.0890388 0
M  V30 9666 H 892.788 -2.94032 0.508719 0
M  V30 9667 C 891.537 -3.24834 -1.24008 0
M  V30 9668 H 890.86 -3.93435 -0.710572 0
M  V30 9669 H 892.3 -3.86336 -1.74701 0
M  V30 9670 C 890.759 -2.47724 -2.2833 0
M  V30 9671 O 891.289 -2.21522 -3.35098 0
M  V30 9672 N 889.495 -2.08891 -2.02022 0
M  V30 9673 H 889.042 -2.30401 -1.1521 0
M  V30 9674 H 889 -1.57613 -2.7204 0
M  V30 9675 N 892.772 -0.284283 -1.55015 0
M  V30 9676 C 893.702 0.592663 -2.25853 0
M  V30 9677 C 894.683 1.15151 -1.25197 0
M  V30 9678 O 895.868 1.18395 -1.53936 0
M  V30 9679 C 892.998 1.77254 -2.98661 0
M  V30 9680 C 891.952 1.34482 -4.06323 0
M  V30 9681 C 891.278 2.60853 -4.66754 0
M  V30 9682 C 892.578 0.488288 -5.20013 0
M  V30 9683 H 894.272 0.00187041 -2.994 0
M  V30 9684 H 891.818 -0.000540402 -1.44 0
M  V30 9685 H 893.771 2.39199 -3.46932 0
M  V30 9686 H 892.495 2.38931 -2.22664 0
M  V30 9687 H 891.154 0.748519 -3.58877 0
M  V30 9688 H 890.802 3.20808 -3.87416 0
M  V30 9689 H 890.502 2.32942 -5.39455 0
M  V30 9690 H 892.026 3.23631 -5.1778 0
M  V30 9691 H 893.44 1.01298 -5.6428 0
M  V30 9692 H 891.837 0.303669 -5.99331 0
M  V30 9693 H 892.907 -0.490727 -4.8241 0
M  V30 9694 N 894.251 1.57596 -0.0117121 0
M  V30 9695 C 895.161 2.12596 0.991964 0
M  V30 9696 C 896.177 1.07399 1.36899 0
M  V30 9697 O 897.353 1.39365 1.45394 0
M  V30 9698 C 894.418 2.62796 2.2614 0
M  V30 9699 C 893.479 3.8264 1.94642 0
M  V30 9700 C 892.712 4.30435 3.15533 0
M  V30 9701 O 892.935 3.77495 4.27614 0
M  V30 9702 O 891.869 5.22469 2.98847 0
M  V30 9703 H 895.695 2.98597 0.554371 0
M  V30 9704 H 893.28 1.47947 0.207839 0
M  V30 9705 H 895.162 2.9523 3.00695 0
M  V30 9706 H 893.837 1.79886 2.69114 0
M  V30 9707 H 892.744 3.5516 1.17526 0
M  V30 9708 H 894.077 4.66658 1.56496 0
M  V30 9709 N 895.729 -0.261212 1.5542 0
M  V30 9710 C 896.954 -1.01341 1.80955 0
M  V30 9711 C 897.379 -1.78711 0.586849 0
M  V30 9712 O 896.737 -1.75266 -0.463837 0
M  V30 9713 C 896.785 -1.93835 3.04073 0
M  V30 9714 O 895.889 -3.02791 2.79985 0
M  V30 9715 H 895.23 -0.289123 0.597749 0
M  V30 9716 H 897.76 -0.286543 2.02584 0
M  V30 9717 H 897.77 -2.3557 3.33123 0
M  V30 9718 H 896.445 -1.36936 3.9271 0
M  V30 9719 H 895.022 -2.65287 2.62063 0
M  V30 9720 N 897.207 -1.48554 -0.526253 0
M  V30 9721 C 898.154 -1.63354 -1.63046 0
M  V30 9722 C 899.124 -0.475509 -1.59148 0
M  V30 9723 O 900.309 -0.699453 -1.77517 0
M  V30 9724 C 897.449 -1.68271 -3.01295 0
M  V30 9725 C 896.562 -2.95207 -3.15399 0
M  V30 9726 C 895.697 -2.91262 -4.4423 0
M  V30 9727 C 894.736 -4.12886 -4.51876 0
M  V30 9728 N 893.873 -4.06996 -5.721 0
M  V30 9729 H 898.713 -2.57649 -1.49737 0
M  V30 9730 H 896.25 -1.27769 -0.728938 0
M  V30 9731 H 898.208 -1.69104 -3.81392 0
M  V30 9732 H 896.838 -0.774641 -3.13367 0
M  V30 9733 H 895.89 -3.04102 -2.2853 0
M  V30 9734 H 897.202 -3.85187 -3.1691 0
M  V30 9735 H 896.356 -2.90516 -5.32621 0
M  V30 9736 H 895.095 -1.99016 -4.45246 0
M  V30 9737 H 894.1 -4.13902 -3.61891 0
M  V30 9738 H 895.325 -5.06294 -4.52596 0
M  V30 9739 H 893.271 -3.17573 -5.74006 0
M  V30 9740 H 893.188 -4.90685 -5.75121 0
M  V30 9741 H 894.456 -4.10315 -6.62768 0
M  V30 9742 N 898.685 0.775411 -1.37205 0
M  V30 9743 C 899.91 1.5696 -1.35567 0
M  V30 9744 C 900.335 1.88012 0.0575554 0
M  V30 9745 O 899.693 1.48954 1.03355 0
M  V30 9746 C 899.741 2.85886 -2.19776 0
M  V30 9747 O 898.845 3.80103 -1.59987 0
M  V30 9748 H 898.186 0.475583 -0.463375 0
M  V30 9749 H 900.716 0.96001 -1.80679 0
M  V30 9750 H 900.726 3.35024 -2.32859 0
M  V30 9751 H 899.401 2.62613 -3.22502 0
M  V30 9752 H 897.978 3.38736 -1.55924 0
M  V30 9753 N 900.163 1.21714 1.00117 0
M  V30 9754 C 901.093 1.00397 2.10815 0
M  V30 9755 C 902.074 -0.0723502 1.69946 0
M  V30 9756 O 903.259 0.0882398 1.93999 0
M  V30 9757 C 900.389 0.572001 3.42557 0
M  V30 9758 C 899.343 1.59331 3.97237 0
M  V30 9759 C 898.669 1.01746 5.2493 0
M  V30 9760 C 899.969 2.98117 4.28863 0
M  V30 9761 H 901.663 1.92983 2.28906 0
M  V30 9762 H 899.209 0.929273 1.10002 0
M  V30 9763 H 901.162 0.410018 4.19401 0
M  V30 9764 H 899.886 -0.38951 3.24269 0
M  V30 9765 H 898.545 1.74293 3.22518 0
M  V30 9766 H 898.193 0.0475491 5.02978 0
M  V30 9767 H 897.893 1.69969 5.62481 0
M  V30 9768 H 899.417 0.866881 6.04415 0
M  V30 9769 H 900.831 2.86578 4.96534 0
M  V30 9770 H 899.228 3.63389 4.77565 0
M  V30 9771 H 900.298 3.48674 3.36979 0
M  V30 9772 N 901.641 -1.19671 1.02551 0
M  V30 9773 C 902.887 -1.89548 0.721069 0
M  V30 9774 C 903.22 -1.79209 -0.748176 0
M  V30 9775 O 902.495 -1.1822 -1.54448 0
M  V30 9776 C 902.778 -3.4061 1.16861 0
M  V30 9777 C 902.631 -3.59838 2.69883 0
M  V30 9778 C 903.95 -4.33718 0.746782 0
M  V30 9779 H 901.069 -0.688315 0.263422 0
M  V30 9780 H 903.711 -1.40883 1.27483 0
M  V30 9781 H 901.861 -3.82188 0.697477 0
M  V30 9782 H 903.533 -3.27454 3.24917 0
M  V30 9783 H 901.776 -3.03005 3.10435 0
M  V30 9784 H 902.447 -4.65766 2.96253 0
M  V30 9785 H 904.923 -3.99837 1.15195 0
M  V30 9786 H 903.799 -5.38012 1.08786 0
M  V30 9787 H 904.06 -4.40704 -0.351057 0
M  V30 9788 N 903.119 -0.802921 -1.35613 0
M  V30 9789 C 904.029 -0.212177 -2.33639 0
M  V30 9790 C 905.045 0.642871 -1.61689 0
M  V30 9791 O 906.221 0.555485 -1.93588 0
M  V30 9792 C 903.286 0.632406 -3.40883 0
M  V30 9793 C 902.347 -0.242708 -4.28613 0
M  V30 9794 C 901.58 0.56166 -5.30736 0
M  V30 9795 O 901.803 1.79664 -5.41366 0
M  V30 9796 O 900.737 -0.0455387 -6.01883 0
M  V30 9797 H 904.563 -1.023 -2.85952 0
M  V30 9798 H 902.148 -0.564636 -1.38319 0
M  V30 9799 H 904.03 1.11358 -4.0642 0
M  V30 9800 H 902.705 1.42089 -2.90848 0
M  V30 9801 H 901.612 -0.77094 -3.6607 0
M  V30 9802 H 902.945 -0.995046 -4.82037 0
M  V30 9803 N 904.597 1.47463 -0.556102 0
M  V30 9804 C 905.527 2.32801 0.180497 0
M  V30 9805 C 906.508 1.43721 0.909848 0
M  V30 9806 O 907.693 1.72578 0.89053 0
M  V30 9807 C 904.823 3.25478 1.21167 0
M  V30 9808 C 903.777 4.2379 0.598846 0
M  V30 9809 C 903.103 5.05783 1.73457 0
M  V30 9810 C 904.403 5.20387 -0.446659 0
M  V30 9811 H 906.097 2.94636 -0.531956 0
M  V30 9812 H 903.643 1.41683 -0.257267 0
M  V30 9813 H 905.596 3.8402 1.73513 0
M  V30 9814 H 904.32 2.61695 1.95405 0
M  V30 9815 H 902.979 3.66472 0.0966897 0
M  V30 9816 H 902.627 4.38405 2.46596 0
M  V30 9817 H 902.327 5.72343 1.33031 0
M  V30 9818 H 903.851 5.67183 2.26131 0
M  V30 9819 H 905.265 5.73299 -0.00930019 0
M  V30 9820 H 903.662 5.95143 -0.769735 0
M  V30 9821 H 904.732 4.65932 -1.34295 0
M  V30 9822 N 906.075 0.2925 1.54862 0
M  V30 9823 C 907.321 -0.319736 2.00264 0
M  V30 9824 C 907.654 -1.5419 1.18064 0
M  V30 9825 O 906.929 -1.92821 0.254983 0
M  V30 9826 C 907.212 -0.684753 3.5353 0
M  V30 9827 C 907.065 0.545961 4.46474 0
M  V30 9828 C 908.384 -1.51456 4.13218 0
M  V30 9829 H 905.503 -0.11474 0.728014 0
M  V30 9830 H 908.145 0.402907 1.85679 0
M  V30 9831 H 906.295 -1.30044 3.66089 0
M  V30 9832 H 907.967 1.18448 4.45834 0
M  V30 9833 H 906.21 1.1808 4.1742 0
M  V30 9834 H 906.881 0.246544 5.51449 0
M  V30 9835 H 909.357 -0.994421 4.04043 0
M  V30 9836 H 908.233 -1.73875 5.20633 0
M  V30 9837 H 908.494 -2.5011 3.64551 0
M  V30 9838 N 907.553 -1.57587 0.0200696 0
M  V30 9839 C 908.8 -1.91424 -0.660525 0
M  V30 9840 C 909.128 -0.895626 -1.72652 0
M  V30 9841 O 908.383 0.096771 -1.95461 0
M  V30 9842 C 908.682 -3.32002 -1.32323 0
M  V30 9843 C 908.348 -4.49223 -0.388487 0
M  V30 9844 C 907.01 -4.81021 -0.131184 0
M  V30 9845 C 909.362 -5.20581 0.253906 0
M  V30 9846 C 906.69 -5.81539 0.776471 0
M  V30 9847 C 909.042 -6.22067 1.14956 0
M  V30 9848 C 907.706 -6.52311 1.41584 0
M  V30 9849 H 906.976 -0.700472 -0.241703 0
M  V30 9850 H 909.623 -1.91333 0.0798991 0
M  V30 9851 H 907.928 -3.28312 -2.13819 0
M  V30 9852 H 909.625 -3.5545 -1.85623 0
M  V30 9853 H 906.215 -4.24391 -0.599207 0
M  V30 9854 H 910.399 -4.96253 0.068164 0
M  V30 9855 H 905.655 -6.03322 0.990575 0
M  V30 9856 H 909.829 -6.76484 1.65357 0
M  V30 9857 H 907.456 -7.30017 2.12083 0
M  V30 9858 N 909.032 0.252966 -1.55557 0
M  V30 9859 C 910.257 1.0038 -1.8149 0
M  V30 9860 C 910.682 1.78397 -0.596318 0
M  V30 9861 O 910.04 1.7551 0.454535 0
M  V30 9862 C 910.088 1.9222 -3.05096 0
M  V30 9863 O 909.192 3.01302 -2.81587 0
M  V30 9864 H 908.533 0.285949 -0.599274 0
M  V30 9865 H 911.063 0.275795 -2.02733 0
M  V30 9866 H 911.073 2.338 -3.34368 0
M  V30 9867 H 909.748 1.34852 -3.93431 0
M  V30 9868 H 908.325 2.63894 -2.63466 0
M  V30 9869 N 910.51 1.48831 0.518367 0
M  V30 9870 C 911.758 1.57128 1.27103 0
M  V30 9871 C 912.079 0.252098 1.93364 0
M  V30 9872 O 911.349 -0.727281 1.819 0
M  V30 9873 H 909.929 0.578891 0.472116 0
M  V30 9874 H 912.591 1.85361 0.602262 0
M  V30 9875 H 911.687 2.35838 2.04418 0
M  V30 9876 N 911.988 -0.768124 1.37614 0
M  V30 9877 C 912.936 -1.9029 1.33763 0
M  V30 9878 C 913.93 -1.67888 0.225814 0
M  V30 9879 O 915.136 -1.75634 0.394043 0
M  V30 9880 H 911.511 -0.625828 0.416945 0
M  V30 9881 H 913.482 -1.90654 2.29551 0
M  V30 9882 C 912.231 -3.27598 1.16511 0
M  V30 9883 H 911.554 -3.45414 2.01318 0
M  V30 9884 H 912.994 -4.07288 1.17867 0
M  V30 9885 C 911.453 -3.36653 -0.129001 0
M  V30 9886 O 911.983 -3.86023 -1.11128 0
M  V30 9887 N 910.189 -2.90036 -0.180926 0
M  V30 9888 H 909.736 -2.5005 0.619076 0
M  V30 9889 H 909.694 -2.96475 -1.04641 0
M  V30 9890 N 913.466 -1.22244 -0.994698 0
M  V30 9891 C 914.882 -0.982006 -1.25813 0
M  V30 9892 C 915.082 0.325488 -1.98854 0
M  V30 9893 O 914.138 1.04857 -2.29698 0
M  V30 9894 C 915.451 -2.1795 -2.07167 0
M  V30 9895 C 916.999 -2.22287 -2.20358 0
M  V30 9896 C 917.474 -3.41583 -3.05098 0
M  V30 9897 N 918.965 -3.41734 -3.12686 0
M  V30 9898 C 919.7 -4.30692 -3.78539 0
M  V30 9899 N 919.196 -5.29865 -4.46335 0
M  V30 9900 N 920.989 -4.18473 -3.75283 0
M  V30 9901 H 913.14 -2.0631 -0.504963 0
M  V30 9902 H 915.403 -0.90395 -0.285618 0
M  V30 9903 H 915.109 -3.12758 -1.60858 0
M  V30 9904 H 914.983 -2.17862 -3.07922 0
M  V30 9905 H 917.37 -1.28028 -2.65881 0
M  V30 9906 H 917.451 -2.26414 -1.19039 0
M  V30 9907 H 917.095 -4.36141 -2.60275 0
M  V30 9908 H 917.025 -3.34695 -4.06555 0
M  V30 9909 H 919.516 -2.69969 -2.64433 0
M  V30 9910 H 919.829 -5.94027 -4.9432 0
M  V30 9911 H 918.174 -5.3378 -4.45089 0
M  V30 9912 H 921.365 -3.40249 -3.21478 0
M  V30 9913 H 921.538 -4.88007 -4.26326 0
M  V30 9914 N 914.944 1.19125 -1.03184 0
M  V30 9915 C 915.874 2.24675 -0.635889 0
M  V30 9916 C 916.855 1.66321 0.356565 0
M  V30 9917 O 918.04 1.92728 0.238625 0
M  V30 9918 C 915.17 3.47298 0.011069 0
M  V30 9919 C 914.124 4.18345 -0.903979 0
M  V30 9920 C 913.45 5.34561 -0.12197 0
M  V30 9921 C 914.75 4.72816 -2.21907 0
M  V30 9922 H 916.444 2.5805 -1.51825 0
M  V30 9923 H 913.99 1.24039 -0.73146 0
M  V30 9924 H 915.943 4.20333 0.299729 0
M  V30 9925 H 914.667 3.13131 0.928245 0
M  V30 9926 H 913.326 3.47196 -1.17688 0
M  V30 9927 H 912.974 4.9664 0.797334 0
M  V30 9928 H 912.674 5.83029 -0.731498 0
M  V30 9929 H 914.198 6.10391 0.159881 0
M  V30 9930 H 915.612 5.3759 -1.99173 0
M  V30 9931 H 914.009 5.31782 -2.78078 0
M  V30 9932 H 915.079 3.9072 -2.87168 0
M  V30 9933 N 916.422 0.810101 1.35185 0
M  V30 9934 C 917.699 0.315235 1.93043 0
M  V30 9935 C 918.079 -1.19567 1.73974 0
M  V30 9936 O 917.427 -1.99682 1.11083 0
M  V30 9937 C 917.637 0.730492 3.41269 0
M  V30 9938 C 918.985 0.721985 4.18417 0
M  V30 9939 O 920.009 0.672258 3.49799 0
M  V30 9940 O 918.868 0.783535 5.40854 0
M  V30 9941 H 915.962 0.0832774 0.822796 0
M  V30 9942 H 918.508 0.894034 1.4424 0
M  V30 9943 H 917.28 1.77169 3.48894 0
M  V30 9944 H 916.903 0.12669 3.97398 0
M  V30 9945 N 917.9 -1.47166 0.563914 0
M  V30 9946 C 919.149 -2.0166 0.0401871 0
M  V30 9947 C 919.462 -1.44303 -1.32046 0
M  V30 9948 O 920.668 -1.905 -1.93448 0
M  V30 9949 C 919.124 -3.59894 0.0213257 0
M  V30 9950 C 918.732 -4.26244 1.37914 0
M  V30 9951 C 920.476 -4.22114 -0.449442 0
M  V30 9952 C 918.383 -5.76503 1.31902 0
M  V30 9953 H 917.313 -0.753916 0.0112534 0
M  V30 9954 H 919.964 -1.69091 0.712766 0
M  V30 9955 H 918.346 -3.89454 -0.717038 0
M  V30 9956 H 919.52 -4.08317 2.13574 0
M  V30 9957 H 917.835 -3.76039 1.78839 0
M  V30 9958 H 920.432 -5.32234 -0.51292 0
M  V30 9959 H 920.775 -3.89749 -1.46291 0
M  V30 9960 H 921.308 -3.9711 0.23427 0
M  V30 9961 H 918.047 -6.13498 2.3087 0
M  V30 9962 H 917.567 -5.96748 0.604324 0
M  V30 9963 H 919.246 -6.38846 1.02392 0
M  V30 9964 N 919.378 -0.300708 -1.54705 0
M  V30 9965 C 920.308 0.568675 -2.26469 0
M  V30 9966 C 921.289 1.13817 -1.26411 0
M  V30 9967 O 922.474 1.16756 -1.55183 0
M  V30 9968 C 919.604 1.74077 -3.00524 0
M  V30 9969 C 918.558 1.30165 -4.07727 0
M  V30 9970 C 917.884 2.55888 -4.69495 0
M  V30 9971 C 919.184 0.433106 -5.20501 0
M  V30 9972 H 920.878 -0.0298851 -2.99385 0
M  V30 9973 H 918.424 -0.0158135 -1.43991 0
M  V30 9974 H 920.377 2.35506 -3.49449 0
M  V30 9975 H 919.101 2.36556 -2.25186 0
M  V30 9976 H 917.76 0.710414 -3.59651 0
M  V30 9977 H 917.408 3.16681 -3.90797 0
M  V30 9978 H 917.108 2.27207 -5.41895 0
M  V30 9979 H 918.632 3.18121 -5.21183 0
M  V30 9980 H 920.046 0.95307 -5.65322 0
M  V30 9981 H 918.443 0.240085 -5.9962 0
M  V30 9982 H 919.513 -0.541866 -4.81863 0
M  V30 9983 N 920.856 1.57574 -0.0284266 0
M  V30 9984 C 922.102 1.92884 0.645544 0
M  V30 9985 C 922.457 0.905203 1.69776 0
M  V30 9986 O 921.75 -0.0788509 1.91438 0
M  V30 9987 C 921.944 3.32699 1.3056 0
M  V30 9988 C 921.773 4.48568 0.318848 0
M  V30 9989 C 920.543 5.05235 -0.0810373 0
M  V30 9990 C 922.741 5.12528 -0.426575 0
M  V30 9991 N 920.723 6.04626 -1.06303 0
M  V30 9992 C 922.094 6.07013 -1.26235 0
M  V30 9993 C 924.149 4.95509 -0.48735 0
M  V30 9994 C 922.852 6.8631 -2.15341 0
M  V30 9995 C 924.878 5.75414 -1.36575 0
M  V30 9996 C 924.24 6.69514 -2.1893 0
M  V30 9997 H 920.339 0.753677 0.208555 0
M  V30 9998 H 922.923 1.94466 -0.095439 0
M  V30 9999 H 921.094 3.31938 2.01673 0
M  V30 10000 H 922.826 3.55359 1.93655 0
M  V30 10001 H 919.581 4.72691 0.293264 0
M  V30 10002 H 920.005 6.59012 -1.55025 0
M  V30 10003 H 924.647 4.22584 0.135112 0
M  V30 10004 H 922.365 7.58541 -2.78642 0
M  V30 10005 H 925.951 5.64279 -1.41705 0
M  V30 10006 H 924.831 7.30266 -2.85799 0
M  V30 10007 N 922.334 -0.244713 1.55689 0
M  V30 10008 C 923.282 -1.32276 1.91326 0
M  V30 10009 C 924.276 -1.49714 0.792589 0
M  V30 10010 O 925.482 -1.51163 0.977227 0
M  V30 10011 H 921.857 -0.442979 0.607679 0
M  V30 10012 H 923.828 -0.99486 2.81327 0
M  V30 10013 C 922.577 -2.67077 2.22633 0
M  V30 10014 H 921.9 -2.54458 3.08368 0
M  V30 10015 H 923.34 -3.41378 2.5147 0
M  V30 10016 C 921.799 -3.20335 1.04342 0
M  V30 10017 O 922.329 -4.00633 0.292543 0
M  V30 10018 N 920.535 -2.78392 0.833457 0
M  V30 10019 H 920.082 -2.13202 1.44577 0
M  V30 10020 H 920.04 -3.1437 0.0436713 0
M  V30 10021 N 923.813 -1.49104 -0.510467 0
M  V30 10022 C 925.09 -1.48609 -1.27179 0
M  V30 10023 C 925.47 -0.208537 -2.10067 0
M  V30 10024 O 924.818 0.809335 -2.13687 0
M  V30 10025 C 925.028 -2.75953 -2.1366 0
M  V30 10026 C 926.376 -3.25067 -2.73161 0
M  V30 10027 O 927.4 -2.77005 -2.23934 0
M  V30 10028 O 926.259 -4.08747 -3.62751 0
M  V30 10029 H 923.353 -0.594374 -0.57502 0
M  V30 10030 H 925.899 -1.61358 -0.525515 0
M  V30 10031 H 924.671 -3.60434 -1.52325 0
M  V30 10032 H 924.294 -2.66019 -2.95499 0
M  V30 10033 N 925.291 0.760815 -1.38019 0
M  V30 10034 C 926.568 1.5098 -1.24356 0
M  V30 10035 C 926.948 2.10507 0.158169 0
M  V30 10036 O 926.296 1.96455 1.16695 0
M  V30 10037 C 926.506 2.58195 -2.34811 0
M  V30 10038 C 927.854 3.25297 -2.72886 0
M  V30 10039 O 928.878 2.68496 -2.34069 0
M  V30 10040 O 927.737 4.28018 -3.39799 0
M  V30 10041 H 924.831 0.66921 -0.485888 0
M  V30 10042 H 927.377 0.796844 -1.49828 0
M  V30 10043 H 926.149 2.12406 -3.28633 0
M  V30 10044 H 925.772 3.37079 -2.10864 0
M  V30 10045 N 926.769 1.22769 0.988202 0
M  V30 10046 C 928.046 0.9635 1.70223 0
M  V30 10047 C 928.426 -0.520102 2.04593 0
M  V30 10048 O 927.774 -1.48934 1.73295 0
M  V30 10049 C 927.984 1.86583 2.94937 0
M  V30 10050 C 929.332 2.12469 3.67616 0
M  V30 10051 O 930.356 1.84069 3.04954 0
M  V30 10052 O 929.215 2.60595 4.80367 0
M  V30 10053 H 926.309 0.362737 0.743203 0
M  V30 10054 H 928.855 1.33776 1.04412 0
M  V30 10055 H 927.627 2.86913 2.66077 0
M  V30 10056 H 927.25 1.49344 3.68486 0
M  V30 10057 N 928.247 -1.18576 1.03814 0
M  V30 10058 C 929.195 -2.24166 0.620678 0
M  V30 10059 C 930.189 -1.65718 -0.351282 0
M  V30 10060 O 931.395 -1.78665 -0.218848 0
M  V30 10061 H 927.77 -0.729522 0.182487 0
M  V30 10062 H 929.741 -2.56686 1.52166 0
M  V30 10063 C 928.49 -3.477 -0.00307331 0
M  V30 10064 H 927.813 -3.92969 0.735874 0
M  V30 10065 H 929.253 -4.23214 -0.257988 0
M  V30 10066 C 927.712 -3.12757 -1.2524 0
M  V30 10067 O 928.242 -3.26261 -2.34344 0
M  V30 10068 N 926.448 -2.67104 -1.14471 0
M  V30 10069 H 925.995 -2.56316 -0.256873 0
M  V30 10070 H 925.953 -2.44096 -1.98153 0
M  V30 10071 N 929.725 -0.817259 -1.34754 0
M  V30 10072 C 931.141 -0.502309 -1.51489 0
M  V30 10073 C 931.341 0.974568 -1.76364 0
M  V30 10074 O 930.397 1.75924 -1.81127 0
M  V30 10075 C 931.71 -1.35693 -2.68343 0
M  V30 10076 C 933.258 -1.35347 -2.82224 0
M  V30 10077 C 933.733 -2.19244 -4.02114 0
M  V30 10078 N 935.224 -2.16837 -4.09311 0
M  V30 10079 C 935.959 -2.78505 -5.01221 0
M  V30 10080 N 935.455 -3.4914 -5.98392 0
M  V30 10081 N 937.248 -2.68089 -4.94049 0
M  V30 10082 H 929.399 -1.77359 -1.16866 0
M  V30 10083 H 931.662 -0.755476 -0.572678 0
M  V30 10084 H 931.368 -2.40548 -2.56573 0
M  V30 10085 H 931.242 -1.01764 -3.63213 0
M  V30 10086 H 933.629 -0.312727 -2.93438 0
M  V30 10087 H 933.71 -1.7327 -1.88179 0
M  V30 10088 H 933.354 -3.23365 -3.9166 0
M  V30 10089 H 933.284 -1.78675 -4.95361 0
M  V30 10090 H 935.775 -1.65452 -3.39756 0
M  V30 10091 H 936.088 -3.93455 -6.65141 0
M  V30 10092 H 934.433 -3.53246 -5.98533 0
M  V30 10093 H 937.624 -2.12485 -4.17094 0
M  V30 10094 H 937.797 -3.16436 -5.65484 0
M  V30 10095 N 931.203 1.46865 -0.571711 0
M  V30 10096 C 932.433 2.06518 -0.0583129 0
M  V30 10097 C 932.841 1.4227 1.24723 0
M  V30 10098 O 932.184 0.518293 1.76237 0
M  V30 10099 C 932.246 3.5898 0.193214 0
M  V30 10100 C 931.91 4.45355 -1.02507 0
M  V30 10101 C 932.907 4.82575 -1.93435 0
M  V30 10102 C 930.592 4.86656 -1.24382 0
M  V30 10103 C 932.586 5.59912 -3.04595 0
M  V30 10104 C 930.273 5.63754 -2.35849 0
M  V30 10105 C 931.271 6.00294 -3.25785 0
M  V30 10106 O 930.959 6.75836 -4.35318 0
M  V30 10107 H 930.691 0.674188 -0.0494584 0
M  V30 10108 H 933.245 1.89644 -0.788934 0
M  V30 10109 H 931.475 3.7412 0.978319 0
M  V30 10110 H 933.164 4.006 0.653769 0
M  V30 10111 H 933.93 4.51256 -1.77745 0
M  V30 10112 H 929.809 4.57672 -0.55292 0
M  V30 10113 H 933.353 5.88351 -3.74818 0
M  V30 10114 H 929.25 5.94487 -2.51506 0
M  V30 10115 H 930.018 6.94247 -4.33547 0
M  V30 10116 N 932.681 0.308908 1.54543 0
M  V30 10117 C 933.93 -0.298854 1.99474 0
M  V30 10118 C 934.243 -1.54393 1.20093 0
M  V30 10119 O 935.449 -2.22677 1.55329 0
M  V30 10120 C 933.905 -0.58303 3.55146 0
M  V30 10121 C 933.513 0.644157 4.43345 0
M  V30 10122 C 935.257 -1.15155 4.08582 0
M  V30 10123 C 933.164 0.332694 5.90463 0
M  V30 10124 H 932.094 -0.115445 0.74511 0
M  V30 10125 H 934.745 0.418848 1.78656 0
M  V30 10126 H 933.127 -1.36053 3.71894 0
M  V30 10127 H 934.301 1.42012 4.38371 0
M  V30 10128 H 932.616 1.13186 4.00722 0
M  V30 10129 H 935.213 -1.39896 5.16075 0
M  V30 10130 H 935.556 -2.09632 3.59667 0
M  V30 10131 H 936.089 -0.435571 3.95408 0
M  V30 10132 H 932.828 1.24624 6.43544 0
M  V30 10133 H 932.348 -0.405844 5.98425 0
M  V30 10134 H 934.027 -0.0628545 6.46969 0
M  V30 10135 N 934.159 -1.57557 0.0367827 0
M  V30 10136 C 935.384 -1.96828 -0.653707 0
M  V30 10137 C 935.809 -0.913559 -1.64425 0
M  V30 10138 O 935.167 0.124749 -1.8087 0
M  V30 10139 C 935.215 -3.35189 -1.32969 0
M  V30 10140 O 934.319 -3.32095 -2.44513 0
M  V30 10141 H 933.66 -0.64157 -0.171124 0
M  V30 10142 H 936.19 -2.04351 0.100912 0
M  V30 10143 H 936.2 -3.71593 -1.68472 0
M  V30 10144 H 934.875 -4.11496 -0.603654 0
M  V30 10145 H 933.452 -3.07418 -2.11065 0
M  V30 10146 N 935.637 0.236453 -1.55816 0
M  V30 10147 C 936.886 0.960981 -1.77336 0
M  V30 10148 C 937.199 1.86085 -0.602641 0
M  V30 10149 O 938.405 2.62291 -0.701106 0
M  V30 10150 C 936.861 1.75884 -3.13995 0
M  V30 10151 C 936.469 0.905849 -4.38746 0
M  V30 10152 C 938.213 2.47548 -3.44848 0
M  V30 10153 C 936.12 1.7002 -5.66434 0
M  V30 10154 H 935.05 0.362547 -0.661117 0
M  V30 10155 H 937.701 0.215303 -1.82233 0
M  V30 10156 H 936.083 2.54687 -3.03234 0
M  V30 10157 H 937.257 0.159415 -4.60524 0
M  V30 10158 H 935.572 0.30205 -4.15303 0
M  V30 10159 H 938.169 3.07452 -4.37467 0
M  V30 10160 H 938.512 3.19689 -2.66655 0
M  V30 10161 H 939.045 1.75747 -3.56872 0
M  V30 10162 H 935.784 1.02234 -6.47479 0
M  V30 10163 H 935.304 2.42164 -5.48741 0
M  V30 10164 H 936.983 2.26469 -6.0607 0
M  V30 10165 N 937.115 1.49373 0.502552 0
M  V30 10166 C 938.362 1.58781 1.25678 0
M  V30 10167 C 938.69 0.273819 1.92563 0
M  V30 10168 O 937.945 -0.738141 1.81246 0
M  V30 10169 C 938.244 2.69508 2.34735 0
M  V30 10170 C 937.91 4.11057 1.85318 0
M  V30 10171 C 936.572 4.49578 1.7156 0
M  V30 10172 C 938.924 4.99653 1.48312 0
M  V30 10173 C 936.252 5.74469 1.19172 0
M  V30 10174 C 938.604 6.2506 0.97377 0
M  V30 10175 C 937.268 6.62412 0.822573 0
M  V30 10176 H 936.538 0.581021 0.459887 0
M  V30 10177 H 939.185 1.83197 0.557767 0
M  V30 10178 H 937.49 2.39057 3.10418 0
M  V30 10179 H 939.187 2.73997 2.92791 0
M  V30 10180 H 935.777 3.80651 1.96985 0
M  V30 10181 H 939.961 4.70549 1.57789 0
M  V30 10182 H 935.217 6.0211 1.06176 0
M  V30 10183 H 939.391 6.93089 0.678233 0
M  V30 10184 H 937.018 7.59069 0.414453 0
M  V30 10185 N 938.594 -0.753485 1.38421 0
M  V30 10186 C 939.541 -1.86723 1.35659 0
M  V30 10187 C 940.511 -1.64648 0.219121 0
M  V30 10188 O 941.696 -1.86313 0.411366 0
M  V30 10189 C 938.836 -3.24023 1.18758 0
M  V30 10190 C 937.949 -3.57928 2.41892 0
M  V30 10191 C 937.084 -4.84532 2.17721 0
M  V30 10192 C 936.123 -5.11224 3.36626 0
M  V30 10193 N 935.26 -6.29023 3.11889 0
M  V30 10194 H 940.1 -1.88419 2.30873 0
M  V30 10195 H 937.637 -0.920934 1.14705 0
M  V30 10196 H 939.595 -4.03252 1.06974 0
M  V30 10197 H 938.225 -3.21654 0.27182 0
M  V30 10198 H 937.277 -2.73541 2.64347 0
M  V30 10199 H 938.589 -3.73581 3.30513 0
M  V30 10200 H 937.743 -5.71704 2.03074 0
M  V30 10201 H 936.482 -4.71018 1.26465 0
M  V30 10202 H 935.487 -4.2252 3.51791 0
M  V30 10203 H 936.712 -5.26635 4.28757 0
M  V30 10204 H 934.658 -6.16832 2.2328 0
M  V30 10205 H 934.575 -6.45177 3.9406 0
M  V30 10206 H 935.843 -7.19083 3.00898 0
M  V30 10207 N 940.072 -1.23292 -0.981677 0
M  V30 10208 C 941.32 -1.06214 -1.71939 0
M  V30 10209 C 941.641 0.401989 -1.90812 0
M  V30 10210 O 940.911 1.28825 -1.47584 0
M  V30 10211 H 939.491 -0.390042 -0.637084 0
M  V30 10212 H 942.153 -1.54988 -1.18173 0
M  V30 10213 H 941.249 -1.54904 -2.70945 0
M  V30 10214 N 941.55 1.18024 -1.04442 0
M  V30 10215 C 942.48 2.23988 -0.659683 0
M  V30 10216 C 943.461 1.6669 0.338904 0
M  V30 10217 O 944.646 1.92971 0.21817 0
M  V30 10218 C 941.776 3.4729 -0.0257672 0
M  V30 10219 C 940.73 4.17362 -0.948299 0
M  V30 10220 C 940.056 5.34401 -0.17866 0
M  V30 10221 C 941.356 4.70435 -2.26909 0
M  V30 10222 H 943.05 2.56425 -1.54553 0
M  V30 10223 H 940.596 1.23256 -0.744575 0
M  V30 10224 H 942.549 4.20627 0.255131 0
M  V30 10225 H 941.273 3.14098 0.894981 0
M  V30 10226 H 939.932 3.45928 -1.21364 0
M  V30 10227 H 939.58 4.97458 0.744614 0
M  V30 10228 H 939.28 5.8222 -0.793294 0
M  V30 10229 H 940.804 6.10526 0.0951315 0
M  V30 10230 H 942.218 5.35447 -2.04864 0
M  V30 10231 H 940.615 5.28803 -2.83703 0
M  V30 10232 H 941.685 3.87653 -2.91296 0
M  V30 10233 N 943.028 0.824394 1.34319 0
M  V30 10234 C 943.975 0.245282 2.29493 0
M  V30 10235 C 944.945 -0.630762 1.53657 0
M  V30 10236 O 946.13 -0.572094 1.82021 0
M  V30 10237 C 943.27 -0.585631 3.40095 0
M  V30 10238 C 942.383 0.312821 4.30866 0
M  V30 10239 C 941.518 -0.527801 5.28571 0
M  V30 10240 C 940.557 0.369946 6.10981 0
M  V30 10241 N 939.694 -0.43169 7.00772 0
M  V30 10242 H 944.534 1.06225 2.78425 0
M  V30 10243 H 942.071 0.53533 1.37013 0
M  V30 10244 H 944.029 -1.08271 4.02906 0
M  V30 10245 H 942.659 -1.3677 2.92393 0
M  V30 10246 H 941.711 0.928129 3.68904 0
M  V30 10247 H 943.023 1.00306 4.8861 0
M  V30 10248 H 942.177 -1.0893 5.96841 0
M  V30 10249 H 940.916 -1.25154 4.71368 0
M  V30 10250 H 939.921 0.943577 5.41643 0
M  V30 10251 H 941.146 1.09182 6.70266 0
M  V30 10252 H 939.092 -1.13908 6.46035 0
M  V30 10253 H 939.009 0.200133 7.55735 0
M  V30 10254 H 940.277 -0.975894 7.73367 0
M  V30 10255 N 944.506 -1.46559 0.579492 0
M  V30 10256 C 945.454 -2.3199 -0.168413 0
M  V30 10257 C 946.448 -1.44288 -0.887551 0
M  V30 10258 O 947.654 -1.60931 -0.806305 0
M  V30 10259 H 944.029 -0.748431 -0.0731799 0
M  V30 10260 H 946 -2.92886 0.570973 0
M  V30 10261 C 944.749 -3.27392 -1.1709 0
M  V30 10262 H 944.072 -3.94853 -0.626958 0
M  V30 10263 H 945.512 -3.89955 -1.66467 0
M  V30 10264 C 943.971 -2.52511 -2.23024 0
M  V30 10265 O 944.501 -2.2858 -3.30324 0
M  V30 10266 N 942.707 -2.1313 -1.97545 0
M  V30 10267 H 942.254 -2.32793 -1.10297 0
M  V30 10268 H 942.212 -1.63348 -2.68635 0
M  V30 10269 N 945.984 -0.3171 -1.54377 0
M  V30 10270 C 946.914 0.544623 -2.2706 0
M  V30 10271 C 947.895 1.12469 -1.27611 0
M  V30 10272 O 949.08 1.15103 -1.56413 0
M  V30 10273 C 946.21 1.70879 -3.02353 0
M  V30 10274 C 945.164 1.25833 -4.09084 0
M  V30 10275 C 944.49 2.50894 -4.72182 0
M  V30 10276 C 945.79 0.377876 -5.20931 0
M  V30 10277 H 947.484 -0.0616372 -2.99337 0
M  V30 10278 H 945.03 -0.0310848 -1.43966 0
M  V30 10279 H 946.983 2.31787 -3.51927 0
M  V30 10280 H 945.707 2.34155 -2.27682 0
M  V30 10281 H 944.366 0.672228 -3.60384 0
M  V30 10282 H 944.014 3.12518 -3.94134 0
M  V30 10283 H 943.714 2.21447 -5.44275 0
M  V30 10284 H 945.238 3.12575 -5.24528 0
M  V30 10285 H 946.652 0.893056 -5.66302 0
M  V30 10286 H 945.049 0.176474 -5.9984 0
M  V30 10287 H 946.119 -0.592943 -4.81261 0
M  V30 10288 N 947.462 1.57535 -0.0451378 0
M  V30 10289 C 948.69 1.96761 0.639742 0
M  V30 10290 C 949.105 0.922405 1.64734 0
M  V30 10291 O 948.462 -0.0940535 1.82257 0
M  V30 10292 C 948.513 3.36066 1.33199 0
M  V30 10293 O 948.234 4.36579 0.364757 0
M  V30 10294 C 949.735 3.90015 2.1072 0
M  V30 10295 H 946.955 0.64769 0.175324 0
M  V30 10296 H 949.499 2.04206 -0.109651 0
M  V30 10297 H 947.654 3.2979 2.03266 0
M  V30 10298 H 948.068 5.17432 0.858168 0
M  V30 10299 H 949.542 4.89785 2.54586 0
M  V30 10300 H 950.019 3.25117 2.95288 0
M  V30 10301 H 950.625 3.99609 1.45577 0
M  V30 10302 N 948.94 -0.228186 1.55939 0
M  V30 10303 C 950.356 -0.577583 1.48782 0
M  V30 10304 C 950.556 -1.87461 0.738972 0
M  V30 10305 O 949.612 -2.50988 0.275929 0
M  V30 10306 C 950.925 -0.662961 2.93301 0
M  V30 10307 C 952.473 -0.754035 3.03782 0
M  V30 10308 C 952.948 -0.870815 4.49645 0
M  V30 10309 N 954.439 -0.935208 4.53661 0
M  V30 10310 C 955.174 -1.04516 5.63794 0
M  V30 10311 N 954.67 -1.11948 6.83696 0
M  V30 10312 N 956.463 -1.07978 5.51631 0
M  V30 10313 H 948.614 0.623018 2.03057 0
M  V30 10314 H 950.877 0.217692 0.922667 0
M  V30 10315 H 950.583 0.220375 3.51009 0
M  V30 10316 H 950.457 -1.52876 3.44831 0
M  V30 10317 H 952.844 -1.62782 2.46143 0
M  V30 10318 H 952.925 0.137301 2.55431 0
M  V30 10319 H 952.569 -0.0015186 5.079 0
M  V30 10320 H 952.499 -1.77747 4.95695 0
M  V30 10321 H 954.99 -0.88836 3.6731 0
M  V30 10322 H 955.303 -1.20297 7.6338 0
M  V30 10323 H 953.648 -1.08873 6.8642 0
M  V30 10324 H 956.839 -1.01833 4.56889 0
M  V30 10325 H 957.012 -1.16202 6.37496 0
M  V30 10326 N 950.418 -1.49637 -0.494624 0
M  V30 10327 C 951.348 -1.69692 -1.60396 0
M  V30 10328 C 952.329 -0.545648 -1.61111 0
M  V30 10329 O 953.514 -0.782202 -1.77751 0
M  V30 10330 C 950.644 -1.76934 -2.9885 0
M  V30 10331 C 949.598 -2.91915 -3.13001 0
M  V30 10332 C 948.924 -2.84276 -4.5287 0
M  V30 10333 C 950.224 -4.32764 -2.92426 0
M  V30 10334 H 951.918 -2.6257 -1.43866 0
M  V30 10335 H 949.464 -1.26355 -0.690679 0
M  V30 10336 H 951.417 -1.8955 -3.76362 0
M  V30 10337 H 950.141 -0.806609 -3.16483 0
M  V30 10338 H 948.8 -2.78911 -2.37916 0
M  V30 10339 H 948.448 -1.85897 -4.67388 0
M  V30 10340 H 948.148 -3.61452 -4.63278 0
M  V30 10341 H 949.672 -2.98909 -5.32434 0
M  V30 10342 H 951.086 -4.46415 -3.59703 0
M  V30 10343 H 949.483 -5.1121 -3.143 0
M  V30 10344 H 950.553 -4.46765 -1.88491 0
M  V30 10345 N 951.896 0.746133 -1.38819 0
M  V30 10346 C 953.173 1.49652 -1.25951 0
M  V30 10347 C 953.553 2.10663 0.135833 0
M  V30 10348 O 952.901 1.97682 1.14604 0
M  V30 10349 C 953.111 2.5569 -2.37537 0
M  V30 10350 C 954.459 3.22385 -2.76321 0
M  V30 10351 O 955.483 2.65998 -2.36904 0
M  V30 10352 O 954.342 4.2439 -3.44319 0
M  V30 10353 H 951.436 0.664019 -0.492958 0
M  V30 10354 H 953.982 0.780908 -1.50665 0
M  V30 10355 H 952.754 2.08908 -3.30867 0
M  V30 10356 H 952.377 3.34823 -2.14427 0
M  V30 10357 N 953.375 1.23811 0.975125 0
M  V30 10358 C 954.305 1.04846 2.08638 0
M  V30 10359 C 955.286 -0.0362859 1.70061 0
M  V30 10360 O 956.471 0.12937 1.93769 0
M  V30 10361 C 953.601 0.644534 3.41267 0
M  V30 10362 C 952.555 1.67722 3.93768 0
M  V30 10363 C 951.881 1.12857 5.22654 0
M  V30 10364 C 953.181 3.07147 4.22443 0
M  V30 10365 H 954.875 1.97795 2.24761 0
M  V30 10366 H 952.421 0.952397 1.08006 0
M  V30 10367 H 954.374 0.498887 4.18436 0
M  V30 10368 H 953.098 -0.320641 3.25022 0
M  V30 10369 H 951.757 1.81095 3.18748 0
M  V30 10370 H 951.405 0.154227 5.02764 0
M  V30 10371 H 951.105 1.81862 5.58749 0
M  V30 10372 H 952.629 0.994891 6.0244 0
M  V30 10373 H 954.043 2.97045 4.90344 0
M  V30 10374 H 952.44 3.73437 4.6975 0
M  V30 10375 H 953.51 3.55743 3.29507 0
M  V30 10376 N 954.853 -1.17469 1.05066 0
M  V30 10377 C 956.078 -1.92162 0.780298 0
M  V30 10378 C 956.503 -1.76222 -0.657832 0
M  V30 10379 O 955.861 -1.0791 -1.45688 0
M  V30 10380 C 955.909 -3.41292 1.16414 0
M  V30 10381 O 955.013 -4.1134 0.295531 0
M  V30 10382 H 954.354 -0.599127 0.286257 0
M  V30 10383 H 956.884 -1.48903 1.40318 0
M  V30 10384 H 956.894 -3.92029 1.13036 0
M  V30 10385 H 955.569 -3.52214 2.21175 0
M  V30 10386 H 954.146 -3.70857 0.389797 0
M  V30 10387 N 956.331 -0.831506 -1.3388 0
M  V30 10388 C 957.261 -0.274378 -2.31882 0
M  V30 10389 C 958.242 0.613872 -1.58637 0
M  V30 10390 O 959.427 0.538961 -1.86571 0
M  V30 10391 C 956.557 0.557498 -3.42796 0
M  V30 10392 C 955.511 -0.234337 -4.27358 0
M  V30 10393 C 954.837 0.720825 -5.29819 0
M  V30 10394 C 956.137 -1.44732 -5.01847 0
M  V30 10395 H 957.831 -1.09322 -2.78728 0
M  V30 10396 H 955.377 -0.527136 -1.34005 0
M  V30 10397 H 957.33 0.957501 -4.10378 0
M  V30 10398 H 956.054 1.40947 -2.94621 0
M  V30 10399 H 954.713 -0.61581 -3.61391 0
M  V30 10400 H 954.361 1.569 -4.77903 0
M  V30 10401 H 954.061 0.195171 -5.87276 0
M  V30 10402 H 955.585 1.1185 -6.00268 0
M  V30 10403 H 956.999 -1.12087 -5.62236 0
M  V30 10404 H 955.396 -1.90923 -5.68919 0
M  V30 10405 H 956.466 -2.22099 -4.31045 0
M  V30 10406 N 957.809 1.4625 -0.587256 0
M  V30 10407 C 958.757 2.32076 0.156108 0
M  V30 10408 C 959.751 1.44756 0.879887 0
M  V30 10409 O 960.957 1.61356 0.797759 0
M  V30 10410 H 957.332 0.748808 0.0692098 0
M  V30 10411 H 959.303 2.9258 -0.586497 0
M  V30 10412 C 958.052 3.28008 1.15352 0
M  V30 10413 H 957.375 3.9518 0.60601 0
M  V30 10414 H 958.815 3.90832 1.64396 0
M  V30 10415 C 957.274 2.53691 2.21681 0
M  V30 10416 O 957.804 2.30329 3.29107 0
M  V30 10417 N 956.01 2.14174 1.96412 0
M  V30 10418 H 955.557 2.33374 1.09061 0
M  V30 10419 H 955.515 1.6477 2.67765 0
M  V30 10420 N 959.287 0.325282 1.54207 0
M  V30 10421 C 960.703 -0.0273036 1.59577 0
M  V30 10422 C 960.903 -1.50329 1.34177 0
M  V30 10423 O 959.959 -2.25951 1.12705 0
M  V30 10424 C 961.272 0.392468 2.98128 0
M  V30 10425 C 962.82 0.343269 3.11112 0
M  V30 10426 C 963.295 0.738229 4.52011 0
M  V30 10427 N 964.786 0.691701 4.58006 0
M  V30 10428 C 965.521 0.969479 5.65145 0
M  V30 10429 N 965.017 1.31448 6.80216 0
M  V30 10430 N 966.81 0.894926 5.5493 0
M  V30 10431 H 958.961 1.28692 1.68974 0
M  V30 10432 H 961.224 0.523399 0.790416 0
M  V30 10433 H 960.93 1.42089 3.2172 0
M  V30 10434 H 960.804 -0.241651 3.76425 0
M  V30 10435 H 963.191 -0.675946 2.87254 0
M  V30 10436 H 963.272 1.01235 2.34915 0
M  V30 10437 H 962.916 1.75537 4.76602 0
M  V30 10438 H 962.846 0.0468226 5.26579 0
M  V30 10439 H 965.337 0.436975 3.75365 0
M  V30 10440 H 965.65 1.51177 7.57869 0
M  V30 10441 H 963.995 1.35276 6.81708 0
M  V30 10442 H 967.186 0.624876 4.6391 0
M  V30 10443 H 967.359 1.11476 6.38339 0
M  V30 10444 N 960.765 -1.57509 0.0534917 0
M  V30 10445 C 961.695 -2.14698 -0.917999 0
M  V30 10446 C 962.676 -1.06924 -1.32292 0
M  V30 10447 O 963.861 -1.34875 -1.39723 0
M  V30 10448 C 960.991 -2.69383 -2.19203 0
M  V30 10449 C 959.945 -3.82161 -1.9271 0
M  V30 10450 C 959.271 -4.23373 -3.26587 0
M  V30 10451 C 960.571 -5.07199 -1.24686 0
M  V30 10452 H 962.265 -2.96125 -0.44165 0
M  V30 10453 H 959.811 -1.42446 -0.210993 0
M  V30 10454 H 961.764 -3.08031 -2.87567 0
M  V30 10455 H 960.488 -1.85151 -2.69048 0
M  V30 10456 H 959.147 -3.43989 -1.26757 0
M  V30 10457 H 958.795 -3.36089 -3.74237 0
M  V30 10458 H 958.495 -4.99385 -3.09658 0
M  V30 10459 H 960.019 -4.64623 -3.96178 0
M  V30 10460 H 961.433 -5.43279 -1.83088 0
M  V30 10461 H 959.83 -5.88369 -1.18076 0
M  V30 10462 H 960.9 -4.84386 -0.223227 0
M  V30 10463 N 962.243 0.219913 -1.56058 0
M  V30 10464 C 963.19 1.27254 -1.92549 0
M  V30 10465 C 964.16 1.46493 -0.782883 0
M  V30 10466 O 965.345 1.60035 -1.03892 0
M  V30 10467 C 962.485 2.61756 -2.24896 0
M  V30 10468 C 961.598 2.50302 -3.52098 0
M  V30 10469 C 960.733 3.77338 -3.73884 0
M  V30 10470 C 959.772 3.60613 -4.94595 0
M  V30 10471 N 958.909 4.79603 -5.12763 0
M  V30 10472 H 963.749 0.954352 -2.82305 0
M  V30 10473 H 961.286 0.459928 -1.39725 0
M  V30 10474 H 963.244 3.40082 -2.4166 0
M  V30 10475 H 961.874 2.91668 -1.38311 0
M  V30 10476 H 960.926 1.63401 -3.43517 0
M  V30 10477 H 962.238 2.33866 -4.40577 0
M  V30 10478 H 961.392 4.64108 -3.90754 0
M  V30 10479 H 960.131 3.96702 -2.83689 0
M  V30 10480 H 959.136 2.72228 -4.77674 0
M  V30 10481 H 960.361 3.42719 -5.86277 0
M  V30 10482 H 958.307 4.99277 -4.2551 0
M  V30 10483 H 958.224 4.65899 -5.95377 0
M  V30 10484 H 959.492 5.67794 -5.34069 0
M  V30 10485 N 963.721 1.49897 0.486681 0
M  V30 10486 C 964.671 1.6401 1.58381 0
M  V30 10487 C 965.655 0.495215 1.5309 0
M  V30 10488 O 966.847 0.748876 1.60377 0
M  V30 10489 C 963.976 1.72321 2.96918 0
M  V30 10490 C 963.062 2.92435 3.07152 0
M  V30 10491 N 963.453 4.16326 2.87238 0
M  V30 10492 C 961.751 2.90669 3.38271 0
M  V30 10493 C 962.452 4.97144 3.02031 0
M  V30 10494 N 961.428 4.3079 3.31544 0
M  V30 10495 H 965.23 2.57506 1.41661 0
M  V30 10496 H 962.744 1.46867 0.693106 0
M  V30 10497 H 964.741 1.80532 3.75784 0
M  V30 10498 H 963.401 0.799724 3.14697 0
M  V30 10499 H 964.412 4.46076 2.63128 0
M  V30 10500 H 961.089 2.07758 3.62137 0
M  V30 10501 H 962.479 6.05611 2.91006 0
M  V30 10502 N 965.199 -0.738761 1.39212 0
M  V30 10503 C 966.448 -1.49368 1.35543 0
M  V30 10504 C 966.761 -1.95543 -0.0471091 0
M  V30 10505 O 967.967 -2.70714 -0.206376 0
M  V30 10506 C 966.423 -2.69882 2.381 0
M  V30 10507 C 966.031 -2.30672 3.8405 0
M  V30 10508 C 967.775 -3.47718 2.435 0
M  V30 10509 C 965.682 -3.47886 4.78256 0
M  V30 10510 H 964.612 -0.560898 0.503894 0
M  V30 10511 H 967.263 -0.806221 1.6484 0
M  V30 10512 H 965.645 -3.40684 2.01867 0
M  V30 10513 H 966.819 -1.67441 4.29302 0
M  V30 10514 H 965.134 -1.65936 3.81909 0
M  V30 10515 H 967.731 -4.34897 3.11077 0
M  V30 10516 H 968.074 -3.89919 1.45838 0
M  V30 10517 H 968.607 -2.83942 2.78606 0
M  V30 10518 H 965.346 -3.10739 5.77167 0
M  V30 10519 H 964.866 -4.10111 4.37686 0
M  V30 10520 H 966.545 -4.14271 4.96979 0
M  V30 10521 N 966.677 -1.24326 -0.968545 0
M  V30 10522 C 968.088 -1.07561 -1.52603 0
M  V30 10523 C 968.439 0.353245 -1.92994 0
M  V30 10524 O 967.564 1.24151 -1.77244 0
M  V30 10525 C 968.159 -1.94634 -2.77314 0
M  V30 10526 C 966.718 -1.82095 -3.29421 0
M  V30 10527 C 965.865 -1.8962 -2.02335 0
M  V30 10528 H 968.816 -1.37815 -0.786932 0
M  V30 10529 H 968.837 -1.47812 -3.50616 0
M  V30 10530 H 968.349 -2.98621 -2.47885 0
M  V30 10531 H 966.45 -0.809376 -3.63703 0
M  V30 10532 H 966.563 -2.66142 -3.98378 0
M  V30 10533 H 964.927 -1.33339 -2.17009 0
M  V30 10534 H 965.71 -2.95185 -1.75273 0
M  V30 10535 N 968.156 1.1691 -1.05688 0
M  V30 10536 C 969.104 2.2315 -0.656262 0
M  V30 10537 C 970.098 1.66256 0.324873 0
M  V30 10538 O 971.304 1.7899 0.190397 0
M  V30 10539 H 967.679 0.726527 -0.19407 0
M  V30 10540 H 969.65 2.54233 -1.56231 0
M  V30 10541 C 968.399 3.47661 -0.0522431 0
M  V30 10542 H 967.722 3.91749 -0.798299 0
M  V30 10543 H 969.162 4.23571 0.190626 0
M  V30 10544 C 967.621 3.14709 1.20248 0
M  V30 10545 O 968.151 3.29947 2.29124 0
M  V30 10546 N 966.357 2.68892 1.10207 0
M  V30 10547 H 965.904 2.56692 0.216063 0
M  V30 10548 H 965.862 2.47218 1.94244 0
M  V30 10549 N 969.634 0.838594 1.33437 0
M  V30 10550 C 970.544 0.274048 2.32994 0
M  V30 10551 C 971.56 -0.599776 1.63336 0
M  V30 10552 O 972.736 -0.503963 1.94993 0
M  V30 10553 C 969.801 -0.541804 3.4244 0
M  V30 10554 C 968.862 0.356262 4.27819 0
M  V30 10555 C 968.095 -0.420747 5.32039 0
M  V30 10556 O 968.318 -1.65247 5.45939 0
M  V30 10557 O 967.252 0.205101 6.0155 0
M  V30 10558 H 971.078 1.09846 2.83139 0
M  V30 10559 H 968.663 0.601111 1.36774 0
M  V30 10560 H 970.545 -1.00544 4.0923 0
M  V30 10561 H 969.22 -1.34328 2.94513 0
M  V30 10562 H 968.127 0.867726 3.63897 0
M  V30 10563 H 969.46 1.1225 4.79229 0
M  V30 10564 N 971.112 -1.45937 0.595003 0
M  V30 10565 C 972.075 -2.2888 -0.121102 0
M  V30 10566 C 973.075 -1.39075 -0.807149 0
M  V30 10567 O 974.265 -1.61326 -0.657228 0
M  V30 10568 C 971.397 -3.19778 -1.1813 0
M  V30 10569 H 972.59 -2.93673 0.607968 0
M  V30 10570 H 970.143 -1.5225 0.353495 0
M  V30 10571 H 970.878 -2.59759 -1.94154 0
M  V30 10572 H 970.663 -3.85914 -0.693724 0
M  V30 10573 H 972.153 -3.82176 -1.68319 0
M  V30 10574 N 972.59 -0.333456 -1.54032 0
M  V30 10575 C 973.837 0.266133 -2.00744 0
M  V30 10576 C 974.165 1.51361 -1.22148 0
M  V30 10577 O 973.42 1.93473 -0.294368 0
M  V30 10578 C 973.719 0.63565 -3.51702 0
M  V30 10579 C 973.385 -0.513786 -4.47963 0
M  V30 10580 C 972.047 -0.829253 -4.74001 0
M  V30 10581 C 974.399 -1.2854 -5.05101 0
M  V30 10582 C 971.727 -1.91888 -5.54433 0
M  V30 10583 C 974.079 -2.3652 -5.86721 0
M  V30 10584 C 972.743 -2.68637 -6.11057 0
M  V30 10585 H 972.013 0.097385 -0.734573 0
M  V30 10586 H 974.66 -0.459282 -1.85911 0
M  V30 10587 H 972.965 1.44163 -3.64313 0
M  V30 10588 H 974.662 1.11129 -3.85294 0
M  V30 10589 H 971.252 -0.25784 -4.27824 0
M  V30 10590 H 975.436 -1.05494 -4.84958 0
M  V30 10591 H 970.692 -2.17208 -5.71516 0
M  V30 10592 H 974.866 -2.96747 -6.30011 0
M  V30 10593 H 972.493 -3.53197 -6.73169 0
M  V30 10594 N 974.068 1.57479 -0.061844 0
M  V30 10595 C 974.998 2.15181 0.9066 0
M  V30 10596 C 975.979 1.07624 1.31724 0
M  V30 10597 O 977.164 1.35614 1.39006 0
M  V30 10598 C 974.294 2.70542 2.17771 0
M  V30 10599 C 973.248 3.83178 1.9068 0
M  V30 10600 C 972.574 4.25099 3.24337 0
M  V30 10601 C 973.874 5.07853 1.21994 0
M  V30 10602 H 975.568 2.96355 0.42594 0
M  V30 10603 H 973.114 1.42556 0.203435 0
M  V30 10604 H 975.067 3.09552 2.85929 0
M  V30 10605 H 973.791 1.86575 2.68062 0
M  V30 10606 H 972.45 3.44656 1.24931 0
M  V30 10607 H 972.098 3.38069 3.72449 0
M  V30 10608 H 971.798 5.01021 3.07005 0
M  V30 10609 H 973.322 4.66718 3.93709 0
M  V30 10610 H 974.736 5.44242 1.80204 0
M  V30 10611 H 973.133 5.88987 1.14954 0
M  V30 10612 H 974.203 4.84497 0.197536 0
M  V30 10613 N 975.546 -0.211634 1.56173 0
M  V30 10614 C 976.494 -1.28188 1.94089 0
M  V30 10615 C 977.488 -1.47999 0.824167 0
M  V30 10616 O 978.694 -1.49056 1.00907 0
M  V30 10617 H 975.069 -0.42999 0.616938 0
M  V30 10618 H 977.04 -0.934962 2.83374 0
M  V30 10619 C 975.789 -2.62294 2.28248 0
M  V30 10620 H 975.112 -2.4786 3.13696 0
M  V30 10621 H 976.552 -3.35967 2.58655 0
M  V30 10622 C 975.011 -3.18049 1.11113 0
M  V30 10623 O 975.541 -3.99923 0.377458 0
M  V30 10624 N 973.747 -2.76561 0.892321 0
M  V30 10625 H 973.294 -2.10088 1.49067 0
M  V30 10626 H 973.252 -3.14206 0.110344 0
M  V30 10627 N 977.024 -1.50153 -0.478725 0
M  V30 10628 C 977.954 -1.71384 -1.58587 0
M  V30 10629 C 978.935 -0.562705 -1.60523 0
M  V30 10630 O 980.12 -0.80101 -1.76911 0
M  V30 10631 C 977.25 -1.80094 -2.96957 0
M  V30 10632 C 976.204 -2.95218 -3.09888 0
M  V30 10633 C 975.53 -2.89063 -4.49829 0
M  V30 10634 C 976.83 -4.35841 -2.8782 0
M  V30 10635 H 978.524 -2.64081 -1.41073 0
M  V30 10636 H 976.07 -1.27081 -0.677239 0
M  V30 10637 H 978.023 -1.93531 -3.74331 0
M  V30 10638 H 976.747 -0.840131 -3.1561 0
M  V30 10639 H 975.406 -2.81419 -2.34944 0
M  V30 10640 H 975.054 -1.90844 -4.6539 0
M  V30 10641 H 974.754 -3.66345 -4.59418 0
M  V30 10642 H 976.278 -3.04539 -5.29234 0
M  V30 10643 H 977.692 -4.50205 -3.54948 0
M  V30 10644 H 976.089 -5.14515 -3.0886 0
M  V30 10645 H 977.159 -4.48739 -1.83742 0
M  V30 10646 N 978.502 0.731368 -1.39602 0
M  V30 10647 C 979.913 1.30981 -1.33045 0
M  V30 10648 C 980.264 1.962 0.00349918 0
M  V30 10649 O 979.389 1.96539 0.905615 0
M  V30 10650 C 979.984 2.3817 -2.40958 0
M  V30 10651 C 978.543 2.91678 -2.3791 0
M  V30 10652 C 977.69 1.65286 -2.22656 0
M  V30 10653 H 980.641 0.528615 -1.49637 0
M  V30 10654 H 980.662 3.18645 -2.07955 0
M  V30 10655 H 980.174 1.90673 -3.38032 0
M  V30 10656 H 978.275 3.43446 -1.44485 0
M  V30 10657 H 978.388 3.44545 -3.32904 0
M  V30 10658 H 976.752 1.89759 -1.69893 0
M  V30 10659 H 977.535 1.19836 -3.21705 0
M  V30 10660 N 979.98 1.24838 0.961938 0
M  V30 10661 C 980.943 1.04674 2.03902 0
M  V30 10662 C 981.943 0.00204674 1.608 0
M  V30 10663 O 983.133 0.243555 1.72489 0
M  V30 10664 C 980.265 0.587736 3.35795 0
M  V30 10665 H 981.458 2.00278 2.23223 0
M  V30 10666 H 979.011 1.07142 1.138 0
M  V30 10667 H 979.746 -0.371244 3.22168 0
M  V30 10668 H 979.531 1.34182 3.68426 0
M  V30 10669 H 981.021 0.467867 4.14971 0
M  V30 10670 N 981.458 -1.16348 1.06306 0
M  V30 10671 C 982.683 -1.91323 0.800636 0
M  V30 10672 C 983.108 -1.7691 -0.639105 0
M  V30 10673 O 982.466 -1.0945 -1.44535 0
M  V30 10674 C 982.514 -3.40038 1.20027 0
M  V30 10675 O 981.618 -4.11003 0.339142 0
M  V30 10676 H 980.959 -0.596057 0.292595 0
M  V30 10677 H 983.489 -1.47406 1.41889 0
M  V30 10678 H 983.499 -3.90808 1.17188 0
M  V30 10679 H 982.174 -3.49848 2.24898 0
M  V30 10680 H 980.751 -3.70423 0.42911 0
M  V30 10681 N 982.937 -0.845659 -1.3299 0
M  V30 10682 C 983.867 -0.298957 -2.31578 0
M  V30 10683 C 984.848 0.597012 -1.59279 0
M  V30 10684 O 986.033 0.519142 -1.87132 0
M  V30 10685 C 983.163 0.521109 -3.43368 0
M  V30 10686 C 982.117 -0.279651 -4.27085 0
M  V30 10687 C 981.443 0.664591 -5.30554 0
M  V30 10688 C 982.743 -1.50046 -5.00283 0
M  V30 10689 H 984.437 -1.12272 -2.77552 0
M  V30 10690 H 981.983 -0.54132 -1.33438 0
M  V30 10691 H 983.936 0.913921 -4.1137 0
M  V30 10692 H 982.66 1.37815 -2.96099 0
M  V30 10693 H 981.319 -0.654106 -3.60717 0
M  V30 10694 H 980.967 1.51822 -4.79541 0
M  V30 10695 H 980.667 0.132871 -5.8745 0
M  V30 10696 H 982.191 1.05477 -6.01421 0
M  V30 10697 H 983.605 -1.18044 -5.61016 0
M  V30 10698 H 982.002 -1.96946 -5.66862 0
M  V30 10699 H 983.072 -2.26659 -4.28665 0
M  V30 10700 N 984.415 1.45619 -0.602734 0
M  V30 10701 C 985.643 2.06647 -0.102253 0
M  V30 10702 C 986.058 1.4482 1.21131 0
M  V30 10703 O 985.415 0.560621 1.73676 0
M  V30 10704 C 985.466 3.61467 0.0490113 0
M  V30 10705 O 985.187 4.20985 -1.21257 0
M  V30 10706 C 986.688 4.39469 0.581517 0
M  V30 10707 H 983.908 0.667685 -0.0666155 0
M  V30 10708 H 986.452 1.86939 -0.829091 0
M  V30 10709 H 984.607 3.80534 0.726153 0
M  V30 10710 H 985.021 5.14103 -1.03915 0
M  V30 10711 H 986.495 5.48318 0.636462 0
M  V30 10712 H 986.972 4.0891 1.60277 0
M  V30 10713 H 987.578 4.25256 -0.061419 0
M  V30 10714 N 985.893 0.34162 1.53853 0
M  V30 10715 C 986.803 -0.524555 2.2866 0
M  V30 10716 C 987.819 -1.1136 1.33697 0
M  V30 10717 O 988.995 -1.1297 1.66732 0
M  V30 10718 C 986.06 -1.66065 3.04341 0
M  V30 10719 C 985.121 -1.10158 4.14926 0
M  V30 10720 C 984.354 -2.18353 4.86988 0
M  V30 10721 O 984.577 -3.39038 4.58704 0
M  V30 10722 O 983.511 -1.82756 5.73484 0
M  V30 10723 H 987.337 0.0835014 3.03585 0
M  V30 10724 H 984.922 0.106727 1.49018 0
M  V30 10725 H 986.804 -2.3217 3.51674 0
M  V30 10726 H 985.479 -2.25456 2.32275 0
M  V30 10727 H 984.386 -0.405109 3.719 0
M  V30 10728 H 985.719 -0.552567 4.89088 0
M  V30 10729 N 987.371 -1.57444 0.0701946 0
M  V30 10730 C 988.301 -2.15659 -0.895176 0
M  V30 10731 C 989.282 -1.08321 -1.31151 0
M  V30 10732 O 990.467 -1.36349 -1.38284 0
M  V30 10733 C 987.597 -2.71693 -2.16334 0
M  V30 10734 C 986.551 -3.84183 -1.88645 0
M  V30 10735 C 985.877 -4.26814 -3.22078 0
M  V30 10736 C 987.177 -5.08493 -1.19299 0
M  V30 10737 H 988.871 -2.96576 -0.410217 0
M  V30 10738 H 986.417 -1.42662 -0.195872 0
M  V30 10739 H 988.37 -3.11064 -2.84284 0
M  V30 10740 H 987.094 -1.87994 -2.67069 0
M  V30 10741 H 985.753 -3.45314 -1.23101 0
M  V30 10742 H 985.401 -3.40039 -3.70651 0
M  V30 10743 H 985.101 -5.02642 -3.04344 0
M  V30 10744 H 986.625 -4.68799 -3.91228 0
M  V30 10745 H 988.039 -5.4519 -1.77316 0
M  V30 10746 H 986.436 -5.89588 -1.11828 0
M  V30 10747 H 987.506 -4.84595 -0.171839 0
M  V30 10748 N 988.849 0.203349 -1.56283 0
M  V30 10749 C 989.799 1.25595 -1.90289 0
M  V30 10750 C 990.783 1.41403 -0.767732 0
M  V30 10751 O 991.975 1.43912 -1.03046 0
M  V30 10752 C 989.104 2.60255 -2.23881 0
M  V30 10753 C 988.19 2.48274 -3.43833 0
M  V30 10754 N 988.581 2.05963 -4.61966 0
M  V30 10755 C 986.879 2.79188 -3.47808 0
M  V30 10756 C 987.58 2.05674 -5.44126 0
M  V30 10757 N 986.556 2.46862 -4.84314 0
M  V30 10758 H 990.358 0.920016 -2.79129 0
M  V30 10759 H 987.872 0.411829 -1.57091 0
M  V30 10760 H 989.869 3.36274 -2.46425 0
M  V30 10761 H 988.529 2.94678 -1.36363 0
M  V30 10762 H 989.54 1.76803 -4.86787 0
M  V30 10763 H 986.217 3.17863 -2.70684 0
M  V30 10764 H 987.607 1.74932 -6.48728 0
M  V30 10765 N 990.327 1.50405 0.470755 0
M  V30 10766 C 991.576 1.60652 1.21959 0
M  V30 10767 C 991.889 0.312521 1.93087 0
M  V30 10768 O 993.095 0.293901 2.69905 0
M  V30 10769 C 991.551 2.83581 2.21607 0
M  V30 10770 C 991.159 4.19858 1.5628 0
M  V30 10771 C 992.903 3.03173 2.9713 0
M  V30 10772 C 990.81 5.33974 2.54217 0
M  V30 10773 H 989.74 0.598264 0.458907 0
M  V30 10774 H 992.391 1.76836 0.490041 0
M  V30 10775 H 990.773 2.60957 2.97855 0
M  V30 10776 H 991.947 4.52738 0.85819 0
M  V30 10777 H 990.262 4.05873 0.930366 0
M  V30 10778 H 992.859 3.856 3.70428 0
M  V30 10779 H 993.202 2.14914 3.56536 0
M  V30 10780 H 993.735 3.2598 2.27995 0
M  V30 10781 H 990.474 6.24388 1.99549 0
M  V30 10782 H 989.994 5.05511 3.22829 0
M  V30 10783 H 991.673 5.64561 3.16039 0
M  V30 10784 N 991.805 -0.723954 1.39988 0
M  V30 10785 C 992.753 -1.85938 1.39749 0
M  V30 10786 C 993.747 -1.67085 0.279112 0
M  V30 10787 O 994.953 -1.74291 0.44972 0
M  V30 10788 H 991.328 -0.612246 0.436644 0
M  V30 10789 H 993.299 -1.83255 2.355 0
M  V30 10790 C 992.048 -3.23726 1.26874 0
M  V30 10791 H 991.371 -3.38835 2.12206 0
M  V30 10792 H 992.811 -4.03332 1.30765 0
M  V30 10793 C 991.27 -3.36893 -0.0218317 0
M  V30 10794 O 991.8 -3.89363 -0.987905 0
M  V30 10795 N 990.006 -2.90465 -0.0885618 0
M  V30 10796 H 989.553 -2.47954 0.698314 0
M  V30 10797 H 989.511 -2.99654 -0.951557 0
M  V30 10798 N 993.283 -1.25346 -0.955304 0
M  V30 10799 C 994.56 -1.00829 -1.67609 0
M  V30 10800 C 994.94 0.465675 -2.059 0
M  V30 10801 O 994.288 1.44287 -1.77182 0
M  V30 10802 C 994.498 -1.94337 -2.89886 0
M  V30 10803 C 995.846 -2.22142 -3.61854 0
M  V30 10804 O 996.87 -1.9209 -2.99967 0
M  V30 10805 O 995.729 -2.73239 -4.73289 0
M  V30 10806 H 992.823 -0.382314 -0.733325 0
M  V30 10807 H 995.369 -1.36498 -1.00829 0
M  V30 10808 H 994.141 -2.93867 -2.58376 0
M  V30 10809 H 993.764 -1.59062 -3.64397 0
M  V30 10810 N 994.761 1.15782 -1.06922 0
M  V30 10811 C 995.709 2.22441 -0.679893 0
M  V30 10812 C 996.703 1.66591 0.307221 0
M  V30 10813 O 997.909 1.79182 0.171402 0
M  V30 10814 H 994.284 0.724427 -0.201765 0
M  V30 10815 H 996.255 2.52562 -1.58918 0
M  V30 10816 C 995.004 3.47586 -0.0891142 0
M  V30 10817 H 994.327 3.9088 -0.839805 0
M  V30 10818 H 995.767 4.2375 0.14569 0
M  V30 10819 C 994.226 3.15967 1.16903 0
M  V30 10820 O 994.756 3.32359 2.25611 0
M  V30 10821 N 992.962 2.70046 1.07349 0
M  V30 10822 H 992.509 2.56907 0.188825 0
M  V30 10823 H 992.467 2.49264 1.91611 0
M  V30 10824 N 996.239 0.8527 1.3254 0
M  V30 10825 C 997.172 0.240733 2.26927 0
M  V30 10826 C 998.15 -0.620158 1.50309 0
M  V30 10827 O 999.334 -0.577389 1.79439 0
M  V30 10828 C 996.461 -0.660644 3.32195 0
M  V30 10829 C 995.507 0.126604 4.26312 0
M  V30 10830 S 996.34 1.49372 5.14245 0
M  V30 10831 C 997.496 0.598002 6.23037 0
M  V30 10832 H 997.729 1.04088 2.78483 0
M  V30 10833 H 995.262 0.650222 1.40041 0
M  V30 10834 H 997.22 -1.17506 3.93323 0
M  V30 10835 H 995.881 -1.43458 2.79426 0
M  V30 10836 H 995.074 -0.559851 5.00881 0
M  V30 10837 H 994.676 0.572536 3.69592 0
M  V30 10838 H 996.968 -0.198555 6.77209 0
M  V30 10839 H 997.911 1.31428 6.95796 0
M  V30 10840 H 998.319 0.173211 5.64234 0
M  V30 10841 N 997.718 -1.45297 0.610449 0
M  V30 10842 C 998.648 -2.33311 -0.0939698 0
M  V30 10843 C 999.629 -1.46999 -0.85588 0
M  V30 10844 O 1000.81 -1.75764 -0.825865 0
M  V30 10845 C 997.944 -3.29751 -1.09003 0
M  V30 10846 C 996.898 -4.2572 -0.441146 0
M  V30 10847 C 996.224 -5.11873 -1.54566 0
M  V30 10848 C 997.524 -5.1837 0.639489 0
M  V30 10849 H 999.218 -2.92459 0.640941 0
M  V30 10850 H 996.764 -1.40631 0.309675 0
M  V30 10851 H 998.717 -3.90195 -1.59141 0
M  V30 10852 H 997.441 -2.68768 -1.85557 0
M  V30 10853 H 996.1 -3.66579 0.0393908 0
M  V30 10854 H 995.748 -4.47256 -2.30155 0
M  V30 10855 H 995.448 -5.76886 -1.11698 0
M  V30 10856 H 996.972 -5.75185 -2.04925 0
M  V30 10857 H 998.386 -5.7287 0.22207 0
M  V30 10858 H 996.783 -5.91876 0.990089 0
M  V30 10859 H 997.853 -4.60627 1.51495 0
M  V30 10860 N 999.196 -0.349774 -1.5367 0
M  V30 10861 C 1000.14 0.504121 -2.25227 0
M  V30 10862 C 1001.11 1.09048 -1.2529 0
M  V30 10863 O 1002.3 1.12594 -1.54037 0
M  V30 10864 C 999.438 1.64601 -3.03316 0
M  V30 10865 C 998.551 1.08635 -4.18118 0
M  V30 10866 C 997.686 2.19605 -4.83681 0
M  V30 10867 C 996.725 1.61023 -5.90541 0
M  V30 10868 N 995.862 2.6576 -6.49858 0
M  V30 10869 H 1000.7 -0.112621 -2.97787 0
M  V30 10870 H 998.239 -0.0673503 -1.46946 0
M  V30 10871 H 1000.2 2.31836 -3.46854 0
M  V30 10872 H 998.827 2.23364 -2.33041 0
M  V30 10873 H 997.879 0.304748 -3.79177 0
M  V30 10874 H 999.191 0.617911 -4.94958 0
M  V30 10875 H 998.345 2.94693 -5.30322 0
M  V30 10876 H 997.084 2.69795 -4.06278 0
M  V30 10877 H 996.089 0.844428 -5.43277 0
M  V30 10878 H 997.314 1.11677 -6.69855 0
M  V30 10879 H 995.26 3.15193 -5.75317 0
M  V30 10880 H 995.177 2.23557 -7.2219 0
M  V30 10881 H 996.445 3.40598 -7.01151 0
M  V30 10882 N 1000.67 1.57404 -0.0785433 0
M  V30 10883 C 1001.92 1.93744 0.589024 0
M  V30 10884 C 1002.25 0.959087 1.69209 0
M  V30 10885 O 1001.5 -0.0241604 1.95685 0
M  V30 10886 C 1001.8 3.36684 1.1991 0
M  V30 10887 C 1001.47 4.50356 0.221493 0
M  V30 10888 C 1000.13 4.81177 -0.0474347 0
M  V30 10889 C 1002.48 5.1928 -0.446941 0
M  V30 10890 C 999.811 5.78257 -0.99177 0
M  V30 10891 C 1002.16 6.17372 -1.37964 0
M  V30 10892 C 1000.83 6.46607 -1.65697 0
M  V30 10893 H 1000.1 0.70896 0.215539 0
M  V30 10894 H 1002.74 1.90905 -0.150856 0
M  V30 10895 H 1001.05 3.36022 2.01486 0
M  V30 10896 H 1002.75 3.62095 1.72303 0
M  V30 10897 H 999.336 4.26322 0.441284 0
M  V30 10898 H 1003.52 4.95658 -0.252298 0
M  V30 10899 H 998.776 5.9923 -1.21381 0
M  V30 10900 H 1002.95 6.6988 -1.9035 0
M  V30 10901 H 1000.58 7.21643 -2.39031 0
M  V30 10902 N 1002.15 -0.195058 1.56388 0
M  V30 10903 C 1003.4 -0.915444 1.80626 0
M  V30 10904 C 1003.73 -1.83255 0.651768 0
M  V30 10905 O 1002.98 -1.92314 -0.362464 0
M  V30 10906 C 1003.28 -1.7637 3.10851 0
M  V30 10907 C 1002.95 -0.997572 4.39726 0
M  V30 10908 C 1001.61 -0.786043 4.74737 0
M  V30 10909 C 1003.96 -0.45851 5.19179 0
M  V30 10910 C 1001.29 -0.023972 5.86695 0
M  V30 10911 C 1003.64 0.29035 6.31933 0
M  V30 10912 C 1002.3 0.512895 6.65527 0
M  V30 10913 H 1001.57 -0.334985 0.660959 0
M  V30 10914 H 1004.22 -0.181815 1.90635 0
M  V30 10915 H 1002.53 -2.566 2.9608 0
M  V30 10916 H 1004.22 -2.3237 3.26811 0
M  V30 10917 H 1000.81 -1.17245 4.12252 0
M  V30 10918 H 1005 -0.609334 4.92545 0
M  V30 10919 H 1000.25 0.158421 6.11195 0
M  V30 10920 H 1004.43 0.715429 6.92715 0
M  V30 10921 H 1002.05 1.10531 7.52122 0
M  V30 10922 N 1003.63 -1.50653 -0.462772 0
M  V30 10923 C 1004.58 -1.70661 -1.58043 0
M  V30 10924 C 1005.57 -0.572533 -1.59432 0
M  V30 10925 O 1006.78 -0.753257 -1.63481 0
M  V30 10926 H 1003.15 -0.538805 -0.524588 0
M  V30 10927 H 1005.12 -2.64399 -1.38332 0
M  V30 10928 C 1003.87 -1.82558 -2.95919 0
M  V30 10929 H 1003.2 -2.69216 -2.95572 0
M  V30 10930 H 1004.64 -2.0058 -3.73556 0
M  V30 10931 C 1003.09 -0.57916 -3.31885 0
M  V30 10932 O 1003.62 0.277888 -4.00738 0
M  V30 10933 N 1001.83 -0.430723 -2.8739 0
M  V30 10934 H 1001.38 -1.1292 -2.31531 0
M  V30 10935 H 1001.34 0.402061 -3.11819 0
M  V30 10936 N 1005.11 0.71652 -1.4037 0
M  V30 10937 C 1006.35 1.47736 -1.39805 0
M  V30 10938 C 1006.71 1.924 0.000340438 0
M  V30 10939 O 1006 1.652 0.970547 0
M  V30 10940 C 1006.2 2.71777 -2.32103 0
M  V30 10941 C 1006.03 2.39245 -3.80778 0
M  V30 10942 C 1004.8 2.30632 -4.49597 0
M  V30 10943 C 1006.99 2.03576 -4.72294 0
M  V30 10944 N 1004.98 1.90764 -5.83509 0
M  V30 10945 C 1006.35 1.74302 -5.94995 0
M  V30 10946 C 1008.4 1.90204 -4.60138 0
M  V30 10947 C 1007.1 1.33001 -7.06897 0
M  V30 10948 C 1009.13 1.50307 -5.71981 0
M  V30 10949 C 1008.49 1.2193 -6.93767 0
M  V30 10950 H 1004.59 0.538721 -0.566836 0
M  V30 10951 H 1007.18 0.831018 -1.76074 0
M  V30 10952 H 1005.35 3.34163 -1.97963 0
M  V30 10953 H 1007.08 3.38112 -2.22402 0
M  V30 10954 H 1003.83 2.48341 -4.03266 0
M  V30 10955 H 1004.26 1.73372 -6.54424 0
M  V30 10956 H 1008.9 2.10805 -3.66499 0
M  V30 10957 H 1006.62 1.11143 -8.0042 0
M  V30 10958 H 1010.2 1.4054 -5.6457 0
M  V30 10959 H 1009.08 0.915214 -7.78841 0
M  V30 10960 N 1006.59 1.25851 0.948643 0
M  V30 10961 C 1007.81 1.13711 1.72851 0
M  V30 10962 C 1008.23 -0.308471 1.86263 0
M  V30 10963 O 1007.59 -1.21175 1.36465 0
M  V30 10964 C 1007.64 1.79271 3.13918 0
M  V30 10965 O 1007.36 3.18179 3.01154 0
M  V30 10966 C 1008.86 1.72988 4.08154 0
M  V30 10967 H 1006.08 0.396334 0.541443 0
M  V30 10968 H 1008.62 1.66329 1.18974 0
M  V30 10969 H 1006.78 1.30609 3.64719 0
M  V30 10970 H 1007.19 3.50507 3.90186 0
M  V30 10971 H 1008.67 2.2351 5.04725 0
M  V30 10972 H 1009.14 0.694866 4.33668 0
M  V30 10973 H 1009.75 2.21166 3.63271 0
M  V30 10974 N 1008.06 -1.15214 1.07534 0
M  V30 10975 C 1008.99 -2.2216 0.718837 0
M  V30 10976 C 1009.98 -1.6753 -0.29459 0
M  V30 10977 O 1011.16 -1.93481 -0.166931 0
M  V30 10978 C 1008.29 -3.471 0.117836 0
M  V30 10979 C 1007.24 -4.14701 1.05862 0
M  V30 10980 C 1006.57 -5.3374 0.320284 0
M  V30 10981 C 1007.87 -4.64254 2.39302 0
M  V30 10982 H 1009.56 -2.52237 1.61297 0
M  V30 10983 H 1007.11 -1.21239 0.776992 0
M  V30 10984 H 1009.06 -4.21156 -0.143519 0
M  V30 10985 H 1007.79 -3.16361 -0.811389 0
M  V30 10986 H 1006.45 -3.42589 1.30493 0
M  V30 10987 H 1006.09 -4.99257 -0.61246 0
M  V30 10988 H 1005.79 -5.79912 0.947381 0
M  V30 10989 H 1007.32 -6.10563 0.0667721 0
M  V30 10990 H 1008.73 -5.29827 2.18988 0
M  V30 10991 H 1007.13 -5.21095 2.97623 0
M  V30 10992 H 1008.2 -3.79793 3.01472 0
M  V30 10993 N 1009.54 -0.859717 -1.32086 0
M  V30 10994 C 1010.47 -0.323502 -2.31248 0
M  V30 10995 C 1011.45 0.580085 -1.59903 0
M  V30 10996 O 1012.64 0.499265 -1.87673 0
M  V30 10997 C 1009.77 0.484661 -3.43902 0
M  V30 10998 C 1008.72 -0.324933 -4.26765 0
M  V30 10999 C 1008.05 0.608281 -5.31229 0
M  V30 11000 C 1009.35 -1.55344 -4.98664 0
M  V30 11001 H 1011.04 -1.15209 -2.76346 0
M  V30 11002 H 1008.59 -0.555442 -1.32856 0
M  V30 11003 H 1010.54 0.870238 -4.12316 0
M  V30 11004 H 1009.27 1.34666 -2.97544 0
M  V30 11005 H 1007.92 -0.692328 -3.60003 0
M  V30 11006 H 1007.57 1.46727 -4.81124 0
M  V30 11007 H 1007.27 0.0705571 -5.87558 0
M  V30 11008 H 1008.8 0.990925 -6.02506 0
M  V30 11009 H 1010.21 -1.23987 -5.59732 0
M  V30 11010 H 1008.61 -2.02947 -5.64741 0
M  V30 11011 H 1009.68 -2.31192 -4.26237 0
M  V30 11012 N 1011.02 1.44971 -0.618145 0
M  V30 11013 C 1011.95 2.28815 0.132751 0
M  V30 11014 C 1012.97 1.40551 0.821535 0
M  V30 11015 O 1014.15 1.64827 0.685155 0
M  V30 11016 C 1011.25 3.1658 1.20955 0
M  V30 11017 C 1010.43 4.33184 0.605821 0
M  V30 11018 C 1009.49 5.0208 1.57488 0
M  V30 11019 O 1008.51 5.58528 1.09706 0
M  V30 11020 N 1009.71 5.02335 2.9093 0
M  V30 11021 H 1012.48 2.939 -0.58674 0
M  V30 11022 H 1010.04 1.55276 -0.458375 0
M  V30 11023 H 1012.03 3.59535 1.85787 0
M  V30 11024 H 1010.6 2.53333 1.83143 0
M  V30 11025 H 1009.82 3.93581 -0.220827 0
M  V30 11026 H 1011.11 5.08471 0.182883 0
M  V30 11027 H 1010.51 4.57783 3.32342 0
M  V30 11028 H 1009.07 5.49119 3.51157 0
M  V30 11029 N 1012.5 0.357919 1.53482 0
M  V30 11030 C 1013.43 -0.526753 2.23065 0
M  V30 11031 C 1014.44 -1.05239 1.24212 0
M  V30 11032 O 1015.63 -0.960078 1.50482 0
M  V30 11033 C 1012.73 -1.73919 2.9087 0
M  V30 11034 C 1011.91 -1.34638 4.16163 0
M  V30 11035 C 1010.96 -2.42005 4.67247 0
M  V30 11036 O 1009.99 -2.04714 5.31113 0
M  V30 11037 N 1011.19 -3.73478 4.44404 0
M  V30 11038 H 1013.96 0.0692386 2.9962 0
M  V30 11039 H 1011.52 0.182726 1.60866 0
M  V30 11040 H 1013.51 -2.45207 3.21956 0
M  V30 11041 H 1012.08 -2.24223 2.17814 0
M  V30 11042 H 1011.3 -0.463667 3.91464 0
M  V30 11043 H 1012.59 -1.06012 4.97633 0
M  V30 11044 H 1011.99 -4.06555 3.93357 0
M  V30 11045 H 1010.54 -4.40893 4.80059 0
M  V30 11046 N 1013.98 -1.5736 0.0868897 0
M  V30 11047 C 1015.22 -1.94054 -0.578741 0
M  V30 11048 C 1015.55 -0.968047 -1.68698 0
M  V30 11049 O 1014.81 0.0137824 -1.95695 0
M  V30 11050 C 1015.11 -3.37316 -1.18123 0
M  V30 11051 C 1014.77 -4.50467 -0.197607 0
M  V30 11052 C 1013.43 -4.81145 0.072952 0
M  V30 11053 C 1015.79 -5.19036 0.474473 0
M  V30 11054 C 1013.11 -5.77723 1.02242 0
M  V30 11055 C 1015.47 -6.16632 1.41236 0
M  V30 11056 C 1014.13 -6.45719 1.69124 0
M  V30 11057 H 1013.4 -0.710093 -0.211776 0
M  V30 11058 H 1016.05 -1.90822 0.160978 0
M  V30 11059 H 1014.35 -3.37085 -1.99701 0
M  V30 11060 H 1016.05 -3.63003 -1.7038 0
M  V30 11061 H 1012.64 -4.2655 -0.418669 0
M  V30 11062 H 1016.82 -4.95518 0.278581 0
M  V30 11063 H 1012.08 -5.98578 1.24557 0
M  V30 11064 H 1016.25 -6.68862 1.939 0
M  V30 11065 H 1013.88 -7.20365 2.42855 0
M  V30 11066 N 1015.45 0.186762 -1.56489 0
M  V30 11067 C 1016.87 0.750675 -1.70944 0
M  V30 11068 C 1017.22 1.83483 -0.694858 0
M  V30 11069 O 1016.34 2.159 0.147009 0
M  V30 11070 C 1016.94 1.36843 -3.09934 0
M  V30 11071 C 1015.5 1.87934 -3.26125 0
M  V30 11072 C 1014.64 0.75242 -2.66897 0
M  V30 11073 H 1017.59 -0.0384292 -1.58653 0
M  V30 11074 H 1017.61 2.23795 -3.07727 0
M  V30 11075 H 1017.13 0.579135 -3.83755 0
M  V30 11076 H 1015.23 2.69556 -2.57235 0
M  V30 11077 H 1015.34 2.0354 -4.33715 0
M  V30 11078 H 1013.7 1.16888 -2.26295 0
M  V30 11079 H 1014.49 -0.0247769 -3.43291 0
M  V30 11080 N 1016.93 1.50896 0.454776 0
M  V30 11081 C 1018.35 1.38684 0.78987 0
M  V30 11082 C 1018.55 0.455587 1.96282 0
M  V30 11083 O 1017.6 -0.0957503 2.52318 0
M  V30 11084 C 1018.92 2.80381 1.08661 0
M  V30 11085 C 1020.47 2.8941 1.19209 0
M  V30 11086 C 1020.94 4.31976 1.52187 0
M  V30 11087 N 1022.43 4.35002 1.59146 0
M  V30 11088 C 1023.17 5.42326 1.862 0
M  V30 11089 N 1022.66 6.59835 2.11164 0
M  V30 11090 N 1024.46 5.29786 1.87838 0
M  V30 11091 H 1016.61 2.10006 -0.317981 0
M  V30 11092 H 1018.87 0.944636 -0.0797969 0
M  V30 11093 H 1018.58 3.50438 0.297626 0
M  V30 11094 H 1018.45 3.18634 2.01872 0
M  V30 11095 H 1020.84 2.19561 1.97173 0
M  V30 11096 H 1020.92 2.54677 0.239401 0
M  V30 11097 H 1020.56 5.02368 0.747576 0
M  V30 11098 H 1020.49 4.64208 2.48633 0
M  V30 11099 H 1022.98 3.50276 1.41828 0
M  V30 11100 H 1023.3 7.37428 2.31128 0
M  V30 11101 H 1021.64 6.62981 2.08522 0
M  V30 11102 H 1024.83 4.36974 1.67843 0
M  V30 11103 H 1025 6.13511 2.08585 0
M  V30 11104 N 1018.41 -0.709066 1.40748 0
M  V30 11105 C 1019.34 -1.83583 1.4429 0
M  V30 11106 C 1020.32 -1.67378 0.303067 0
M  V30 11107 O 1021.51 -1.87312 0.512612 0
M  V30 11108 C 1018.64 -3.21599 1.31116 0
M  V30 11109 C 1017.59 -3.52486 2.4277 0
M  V30 11110 C 1016.92 -4.89716 2.14668 0
M  V30 11111 C 1018.22 -3.52824 3.85113 0
M  V30 11112 H 1019.91 -1.80876 2.38588 0
M  V30 11113 H 1017.46 -0.868795 1.14839 0
M  V30 11114 H 1019.41 -4.00123 1.32209 0
M  V30 11115 H 1018.13 -3.24898 0.332965 0
M  V30 11116 H 1016.79 -2.76305 2.40937 0
M  V30 11117 H 1016.44 -4.89625 1.15224 0
M  V30 11118 H 1016.14 -5.11347 2.89478 0
M  V30 11119 H 1017.66 -5.70566 2.17455 0
M  V30 11120 H 1019.08 -4.21377 3.88734 0
M  V30 11121 H 1017.48 -3.85984 4.59496 0
M  V30 11122 H 1018.55 -2.52073 4.14231 0
M  V30 11123 N 1019.89 -1.26353 -0.941956 0
M  V30 11124 C 1020.8 -1.09618 -2.07415 0
M  V30 11125 C 1021.82 -0.0298963 -1.73974 0
M  V30 11126 O 1022.99 -0.233466 -2.00042 0
M  V30 11127 C 1020.06 -0.73013 -3.38925 0
M  V30 11128 C 1019.12 -1.87574 -3.86153 0
M  V30 11129 C 1018.35 -1.52706 -5.11387 0
M  V30 11130 O 1018.57 -0.428438 -5.68789 0
M  V30 11131 O 1017.51 -2.36154 -5.53638 0
M  V30 11132 H 1021.33 -2.04598 -2.2444 0
M  V30 11133 H 1018.92 -1.05407 -1.05876 0
M  V30 11134 H 1020.8 -0.538684 -4.17943 0
M  V30 11135 H 1019.48 0.190282 -3.2314 0
M  V30 11136 H 1018.38 -2.12214 -3.08084 0
M  V30 11137 H 1019.72 -2.77585 -4.06457 0
M  V30 11138 N 1021.37 1.14642 -1.08144 0
M  V30 11139 C 1022.3 2.21775 -0.730609 0
M  V30 11140 C 1023.28 1.67683 0.285702 0
M  V30 11141 O 1024.46 1.93567 0.156667 0
M  V30 11142 C 1021.59 3.47033 -0.136242 0
M  V30 11143 C 1020.55 4.14134 -1.0806 0
M  V30 11144 C 1019.87 5.33563 -0.348585 0
M  V30 11145 C 1021.17 4.62978 -2.41761 0
M  V30 11146 H 1022.87 2.51378 -1.62633 0
M  V30 11147 H 1020.41 1.20825 -0.783411 0
M  V30 11148 H 1022.37 4.21226 0.121182 0
M  V30 11149 H 1021.09 3.16786 0.7946 0
M  V30 11150 H 1019.75 3.41892 -1.32308 0
M  V30 11151 H 1019.4 4.99575 0.585974 0
M  V30 11152 H 1019.1 5.79402 -0.978122 0
M  V30 11153 H 1020.62 6.10519 -0.0991508 0
M  V30 11154 H 1022.04 5.28659 -2.21795 0
M  V30 11155 H 1020.43 5.1951 -3.00383 0
M  V30 11156 H 1021.5 3.78189 -3.03482 0
M  V30 11157 N 1022.85 0.866709 1.31628 0
M  V30 11158 C 1023.78 0.335762 2.31073 0
M  V30 11159 C 1024.76 -0.571597 1.60209 0
M  V30 11160 O 1025.94 -0.489306 1.87935 0
M  V30 11161 C 1023.07 -0.466416 3.44154 0
M  V30 11162 C 1022.03 0.347561 4.26586 0
M  V30 11163 C 1021.35 -0.5801 5.31544 0
M  V30 11164 C 1022.65 1.57986 4.97833 0
M  V30 11165 H 1024.35 1.16673 2.75731 0
M  V30 11166 H 1021.89 0.56248 1.3256 0
M  V30 11167 H 1023.84 -0.84836 4.12772 0
M  V30 11168 H 1022.57 -1.33086 2.98254 0
M  V30 11169 H 1021.23 0.71141 3.59631 0
M  V30 11170 H 1020.88 -1.44174 4.81895 0
M  V30 11171 H 1020.58 -0.0393965 5.87587 0
M  V30 11172 H 1022.1 -0.958958 6.03023 0
M  V30 11173 H 1023.51 1.26954 5.59067 0
M  V30 11174 H 1021.91 2.05939 5.63657 0
M  V30 11175 H 1022.98 2.3345 4.25005 0
M  V30 11176 N 1024.32 -1.44642 0.625825 0
M  V30 11177 C 1025.6 -1.9551 0.0593587 0
M  V30 11178 C 1025.98 -1.56792 -1.41349 0
M  V30 11179 O 1025.33 -0.839373 -2.12525 0
M  V30 11180 C 1025.54 -3.47902 0.276647 0
M  V30 11181 C 1026.89 -4.24271 0.167044 0
M  V30 11182 O 1027.91 -3.55594 0.207731 0
M  V30 11183 O 1026.77 -5.46458 0.0675 0
M  V30 11184 H 1023.86 -0.826612 -0.0253422 0
M  V30 11185 H 1026.41 -1.54718 0.697159 0
M  V30 11186 H 1025.18 -3.69115 1.29885 0
M  V30 11187 H 1024.8 -3.95628 -0.395547 0
M  V30 11188 N 1025.8 -0.366053 -1.5329 0
M  V30 11189 C 1026.73 0.47211 -2.28677 0
M  V30 11190 C 1027.71 1.08353 -1.31125 0
M  V30 11191 O 1028.9 1.10069 -1.59995 0
M  V30 11192 C 1026.03 1.61174 -3.07637 0
M  V30 11193 C 1024.98 1.12755 -4.12881 0
M  V30 11194 C 1024.31 2.35745 -4.79925 0
M  V30 11195 C 1025.61 0.211954 -5.2187 0
M  V30 11196 H 1027.3 -0.156838 -2.98989 0
M  V30 11197 H 1024.85 -0.0768709 -1.43795 0
M  V30 11198 H 1026.8 2.20473 -3.59123 0
M  V30 11199 H 1025.52 2.26793 -2.35016 0
M  V30 11200 H 1024.18 0.557234 -3.6234 0
M  V30 11201 H 1023.83 2.99821 -4.03877 0
M  V30 11202 H 1023.53 2.04019 -5.51044 0
M  V30 11203 H 1025.06 2.95729 -5.34207 0
M  V30 11204 H 1026.47 0.71244 -5.68856 0
M  V30 11205 H 1024.87 -0.0144501 -6.00098 0
M  V30 11206 H 1025.94 -0.745753 -4.79131 0
M  V30 11207 N 1027.28 1.57312 -0.0952337 0
M  V30 11208 C 1028.7 1.57445 0.261416 0
M  V30 11209 C 1028.9 1.10639 1.68408 0
M  V30 11210 O 1027.95 0.782912 2.40056 0
M  V30 11211 C 1029.26 3.00659 0.0497206 0
M  V30 11212 C 1030.81 3.1278 0.117459 0
M  V30 11213 C 1031.29 4.57952 -0.0662441 0
M  V30 11214 N 1032.78 4.63199 -0.0114146 0
M  V30 11215 C 1033.51 5.73255 -0.128799 0
M  V30 11216 N 1033.01 6.92146 -0.301026 0
M  V30 11217 N 1034.8 5.62056 -0.0700599 0
M  V30 11218 H 1026.95 1.86045 -1.02475 0
M  V30 11219 H 1029.22 0.858726 -0.401614 0
M  V30 11220 H 1028.92 3.39102 -0.932888 0
M  V30 11221 H 1028.8 3.68792 0.791975 0
M  V30 11222 H 1031.18 2.74209 1.09057 0
M  V30 11223 H 1031.26 2.47238 -0.656288 0
M  V30 11224 H 1030.91 4.97217 -1.03623 0
M  V30 11225 H 1030.84 5.21555 0.727198 0
M  V30 11226 H 1033.33 3.77712 0.119154 0
M  V30 11227 H 1033.64 7.71855 -0.382104 0
M  V30 11228 H 1031.99 6.94184 -0.336695 0
M  V30 11229 H 1035.18 4.68057 0.0633587 0
M  V30 11230 H 1035.35 6.4779 -0.164991 0
M  V30 11231 N 1028.76 -0.17846 1.56586 0
M  V30 11232 C 1030.01 -0.894464 1.81228 0
M  V30 11233 C 1030.33 -1.83089 0.671062 0
M  V30 11234 O 1029.6 -1.93439 -0.309557 0
M  V30 11235 H 1028.18 -0.333288 0.668527 0
M  V30 11236 H 1030.84 -0.179986 1.94067 0
M  V30 11237 H 1029.93 -1.47565 2.75011 0
M  V30 11238 N 1030.24 -1.51135 -0.446768 0
M  V30 11239 C 1031.18 -1.72328 -1.56224 0
M  V30 11240 C 1032.18 -0.589411 -1.58815 0
M  V30 11241 O 1033.38 -0.770554 -1.62673 0
M  V30 11242 H 1029.76 -0.544339 -0.518844 0
M  V30 11243 H 1031.73 -2.65851 -1.3552 0
M  V30 11244 C 1030.48 -1.85686 -2.93966 0
M  V30 11245 H 1029.8 -2.72336 -2.927 0
M  V30 11246 H 1031.24 -2.0453 -3.71407 0
M  V30 11247 C 1029.7 -0.614328 -3.31252 0
M  V30 11248 O 1030.23 0.235369 -4.0101 0
M  V30 11249 N 1028.44 -0.461181 -2.86917 0
M  V30 11250 H 1027.98 -1.15369 -2.30321 0
M  V30 11251 H 1027.94 0.368966 -3.12227 0
M  V30 11252 N 1031.71 0.701592 -1.41122 0
M  V30 11253 C 1032.66 1.81559 -1.42495 0
M  V30 11254 C 1033.63 1.63722 -0.280078 0
M  V30 11255 O 1034.82 1.84658 -0.480231 0
M  V30 11256 C 1031.96 3.19392 -1.30702 0
M  V30 11257 C 1031.07 3.48704 -2.55009 0
M  V30 11258 C 1030.2 4.76118 -2.35554 0
M  V30 11259 C 1029.24 4.98378 -3.55367 0
M  V30 11260 N 1028.38 6.17014 -3.3502 0
M  V30 11261 H 1033.22 1.7972 -2.37707 0
M  V30 11262 H 1030.76 0.877727 -1.18044 0
M  V30 11263 H 1032.71 3.99004 -1.21867 0
M  V30 11264 H 1031.34 3.20423 -0.391012 0
M  V30 11265 H 1030.4 2.63542 -2.74317 0
M  V30 11266 H 1031.71 3.61057 -3.44151 0
M  V30 11267 H 1030.86 5.63774 -2.24152 0
M  V30 11268 H 1029.6 4.66 -1.43859 0
M  V30 11269 H 1028.61 4.09172 -3.6723 0
M  V30 11270 H 1029.83 5.10359 -4.48007 0
M  V30 11271 H 1027.78 6.0812 -2.4602 0
M  V30 11272 H 1027.69 6.30107 -4.17733 0
M  V30 11273 H 1028.96 7.0742 -3.27379 0
M  V30 11274 N 1033.19 1.2685 0.935242 0
M  V30 11275 C 1034.12 1.1143 2.05196 0
M  V30 11276 C 1035.1 0.0178362 1.70091 0
M  V30 11277 O 1036.29 0.190951 1.93259 0
M  V30 11278 C 1033.42 0.752779 3.39044 0
M  V30 11279 C 1032.37 1.80164 3.88233 0
M  V30 11280 C 1031.7 1.29428 5.18799 0
M  V30 11281 C 1033 3.20431 4.12457 0
M  V30 11282 H 1034.69 2.04845 2.18355 0
M  V30 11283 H 1032.24 0.986276 1.04922 0
M  V30 11284 H 1034.19 0.631757 4.16637 0
M  V30 11285 H 1032.91 -0.217075 3.25878 0
M  V30 11286 H 1031.57 1.91144 3.12825 0
M  V30 11287 H 1031.22 0.3141 5.02018 0
M  V30 11288 H 1030.92 1.99546 5.5268 0
M  V30 11289 H 1032.45 1.18605 5.9897 0
M  V30 11290 H 1033.86 3.12495 4.80645 0
M  V30 11291 H 1032.26 3.88193 4.57631 0
M  V30 11292 H 1033.33 3.66046 3.18023 0
M  V30 11293 N 1034.67 -1.14067 1.0875 0
M  V30 11294 C 1035.6 -2.21385 0.74236 0
M  V30 11295 C 1036.58 -1.67833 -0.276805 0
M  V30 11296 O 1037.77 -1.93647 -0.1464 0
M  V30 11297 C 1034.9 -3.46956 0.154644 0
M  V30 11298 C 1033.85 -4.13555 1.10255 0
M  V30 11299 C 1033.18 -5.3337 0.376877 0
M  V30 11300 C 1034.48 -4.6169 2.44213 0
M  V30 11301 H 1036.17 -2.50512 1.63964 0
M  V30 11302 H 1033.72 -1.20408 0.789807 0
M  V30 11303 H 1035.67 -4.21284 -0.0988419 0
M  V30 11304 H 1034.39 -3.17203 -0.777789 0
M  V30 11305 H 1033.05 -3.41186 1.34119 0
M  V30 11306 H 1032.7 -4.99879 -0.559472 0
M  V30 11307 H 1032.4 -5.78875 1.00884 0
M  V30 11308 H 1033.92 -6.10458 0.131527 0
M  V30 11309 H 1035.34 -5.27475 2.24595 0
M  V30 11310 H 1033.74 -5.17909 3.03134 0
M  V30 11311 H 1034.81 -3.76574 3.05483 0
M  V30 11312 N 1036.15 -0.873678 -1.31166 0
M  V30 11313 C 1037.4 -0.486457 -1.9657 0
M  V30 11314 C 1037.72 0.962042 -1.69041 0
M  V30 11315 O 1036.98 1.69305 -0.981543 0
M  V30 11316 C 1037.28 -0.69462 -3.50585 0
M  V30 11317 C 1036.94 -2.11647 -3.98141 0
M  V30 11318 C 1035.61 -2.50531 -4.10838 0
M  V30 11319 C 1037.96 -3.0436 -4.23101 0
M  V30 11320 C 1035.29 -3.81361 -4.45848 0
M  V30 11321 C 1037.64 -4.34709 -4.59577 0
M  V30 11322 C 1036.3 -4.73502 -4.70481 0
M  V30 11323 H 1035.57 -0.178007 -0.719301 0
M  V30 11324 H 1038.22 -1.10737 -1.56235 0
M  V30 11325 H 1036.52 0.00940878 -3.91799 0
M  V30 11326 H 1038.22 -0.374782 -3.99245 0
M  V30 11327 H 1034.81 -1.8046 -3.88757 0
M  V30 11328 H 1038.99 -2.75544 -4.12782 0
M  V30 11329 H 1034.25 -4.11174 -4.52488 0
M  V30 11330 H 1038.42 -5.06596 -4.77842 0
M  V30 11331 H 1036.05 -5.74919 -4.97365 0
M  V30 11332 N 1037.63 1.44308 -0.633487 0
M  V30 11333 C 1038.56 2.33431 0.0568402 0
M  V30 11334 C 1039.54 1.48342 0.832386 0
M  V30 11335 O 1040.72 1.77056 0.797798 0
M  V30 11336 C 1037.85 3.31443 1.03743 0
M  V30 11337 C 1036.81 4.26368 0.373362 0
M  V30 11338 C 1036.13 5.14267 1.46403 0
M  V30 11339 C 1037.43 5.17287 -0.721876 0
M  V30 11340 H 1039.13 2.91402 -0.687388 0
M  V30 11341 H 1036.67 1.4012 -0.332009 0
M  V30 11342 H 1038.63 3.92677 1.52913 0
M  V30 11343 H 1037.35 2.71686 1.81258 0
M  V30 11344 H 1036.01 3.6647 -0.0977053 0
M  V30 11345 H 1035.66 4.50861 2.23011 0
M  V30 11346 H 1035.36 5.7859 1.02506 0
M  V30 11347 H 1036.88 5.78373 1.95748 0
M  V30 11348 H 1038.29 5.72444 -0.313181 0
M  V30 11349 H 1036.69 5.90226 -1.08413 0
M  V30 11350 H 1037.76 4.58159 -1.58804 0
M  V30 11351 N 1039.1 0.374177 1.53094 0
M  V30 11352 C 1040.33 -0.213325 2.05797 0
M  V30 11353 C 1040.75 -1.41753 1.24706 0
M  V30 11354 O 1040.1 -1.80183 0.289868 0
M  V30 11355 C 1040.16 -0.598367 3.56513 0
M  V30 11356 O 1039.88 0.557983 4.34532 0
M  V30 11357 C 1041.38 -1.24334 4.25507 0
M  V30 11358 H 1038.6 -0.0357398 0.670048 0
M  V30 11359 H 1041.14 0.535035 1.97377 0
M  V30 11360 H 1039.3 -1.29663 3.65056 0
M  V30 11361 H 1039.71 0.244911 5.23928 0
M  V30 11362 H 1041.18 -1.46325 5.32253 0
M  V30 11363 H 1041.66 -2.20622 3.79766 0
M  V30 11364 H 1042.27 -0.586269 4.2124 0
M  V30 11365 N 1040.58 -1.57259 0.103575 0
M  V30 11366 C 1041.86 -1.86143 -0.600852 0
M  V30 11367 C 1042.24 -1.00198 -1.85805 0
M  V30 11368 O 1041.59 -0.0766791 -2.28371 0
M  V30 11369 C 1041.8 -3.36978 -0.908108 0
M  V30 11370 C 1043.15 -4.05228 -1.26788 0
M  V30 11371 O 1044.17 -3.41908 -0.998859 0
M  V30 11372 O 1043.03 -5.16971 -1.7721 0
M  V30 11373 H 1040.12 -0.770064 -0.301547 0
M  V30 11374 H 1042.67 -1.69147 0.136914 0
M  V30 11375 H 1041.44 -3.91296 -0.0165615 0
M  V30 11376 H 1041.06 -3.5935 -1.70156 0
M  V30 11377 N 1042.06 0.170153 -1.56679 0
M  V30 11378 C 1043.29 0.90618 -1.86556 0
M  V30 11379 C 1043.71 1.74986 -0.690044 0
M  V30 11380 O 1043.07 1.77672 0.360862 0
M  V30 11381 C 1043.12 1.75777 -3.14857 0
M  V30 11382 O 1042.22 2.85952 -2.97162 0
M  V30 11383 H 1041.56 0.253781 -0.613589 0
M  V30 11384 H 1044.09 0.167943 -2.0391 0
M  V30 11385 H 1044.1 2.15747 -3.46291 0
M  V30 11386 H 1042.78 1.13807 -4.00026 0
M  V30 11387 H 1041.35 2.49557 -2.77084 0
M  V30 11388 N 1043.54 1.5137 0.438746 0
M  V30 11389 C 1044.47 1.75528 1.53987 0
M  V30 11390 C 1045.45 0.605067 1.58975 0
M  V30 11391 O 1046.63 0.847634 1.74725 0
M  V30 11392 C 1043.76 1.87904 2.92078 0
M  V30 11393 C 1042.72 3.0333 3.01951 0
M  V30 11394 C 1042.04 3.00888 4.42007 0
M  V30 11395 C 1043.34 4.43319 2.76163 0
M  V30 11396 H 1045.04 2.67728 1.34022 0
M  V30 11397 H 1042.58 1.28831 0.643308 0
M  V30 11398 H 1044.54 2.03388 3.69068 0
M  V30 11399 H 1043.26 0.923514 3.13271 0
M  V30 11400 H 1041.92 2.87549 2.274 0
M  V30 11401 H 1041.57 2.03116 4.60166 0
M  V30 11402 H 1041.27 3.78397 4.49544 0
M  V30 11403 H 1042.79 3.18464 5.20973 0
M  V30 11404 H 1044.21 4.59458 3.42887 0
M  V30 11405 H 1042.6 5.22523 2.9511 0
M  V30 11406 H 1043.67 4.53453 1.71779 0
M  V30 11407 N 1045.02 -0.694098 1.41492 0
M  V30 11408 C 1046.24 -1.48789 1.44488 0
M  V30 11409 C 1046.67 -1.88028 0.0521588 0
M  V30 11410 O 1046.02 -1.54727 -0.944952 0
M  V30 11411 C 1046.07 -2.72586 2.3607 0
M  V30 11412 O 1045.18 -3.70128 1.81876 0
M  V30 11413 H 1044.52 -0.447758 0.490315 0
M  V30 11414 H 1047.05 -0.853036 1.85969 0
M  V30 11415 H 1047.06 -3.20877 2.51995 0
M  V30 11416 H 1045.73 -2.43363 3.37264 0
M  V30 11417 H 1044.31 -3.29069 1.75408 0
M  V30 11418 N 1046.49 -1.27344 -0.928501 0
M  V30 11419 C 1047.77 -1.04362 -1.65433 0
M  V30 11420 C 1048.15 0.421896 -2.06841 0
M  V30 11421 O 1047.5 1.40496 -1.80203 0
M  V30 11422 C 1047.71 -2.00442 -2.85699 0
M  V30 11423 C 1049.06 -2.29767 -3.57061 0
M  V30 11424 O 1050.08 -1.98409 -2.95825 0
M  V30 11425 O 1048.94 -2.83217 -4.67387 0
M  V30 11426 H 1046.03 -0.397783 -0.72505 0
M  V30 11427 H 1048.58 -1.38606 -0.979109 0
M  V30 11428 H 1047.35 -2.99281 -2.52085 0
M  V30 11429 H 1046.98 -1.66755 -3.60941 0
M  V30 11430 N 1047.97 1.13488 -1.09353 0
M  V30 11431 C 1049.22 1.84748 -0.829126 0
M  V30 11432 C 1049.55 1.83485 0.645247 0
M  V30 11433 O 1048.8 1.26767 1.49093 0
M  V30 11434 C 1049.1 3.32584 -1.30854 0
M  V30 11435 C 1048.77 3.54028 -2.7924 0
M  V30 11436 C 1047.43 3.59588 -3.19765 0
M  V30 11437 C 1049.78 3.62058 -3.74918 0
M  V30 11438 C 1047.11 3.70712 -4.54741 0
M  V30 11439 C 1049.46 3.7471 -5.09682 0
M  V30 11440 C 1048.13 3.78523 -5.49797 0
M  V30 11441 H 1047.4 0.67604 -0.303399 0
M  V30 11442 H 1050.04 1.33989 -1.36818 0
M  V30 11443 H 1048.35 3.85689 -0.689275 0
M  V30 11444 H 1050.04 3.86166 -1.08059 0
M  V30 11445 H 1046.63 3.50354 -2.4688 0
M  V30 11446 H 1050.82 3.57043 -3.44723 0
M  V30 11447 H 1046.07 3.71931 -4.8526 0
M  V30 11448 H 1050.25 3.79866 -5.83674 0
M  V30 11449 H 1047.88 3.86895 -6.54382 0
M  V30 11450 N 1049.45 0.880621 1.30701 0
M  V30 11451 C 1050.68 0.511682 2.00473 0
M  V30 11452 C 1051.09 -0.898684 1.6604 0
M  V30 11453 O 1050.45 -1.59035 0.895218 0
M  V30 11454 C 1050.5 0.671723 3.55204 0
M  V30 11455 O 1050.22 2.02656 3.8841 0
M  V30 11456 C 1051.72 0.3052 4.42248 0
M  V30 11457 H 1048.94 0.198231 0.64105 0
M  V30 11458 H 1051.49 1.18472 1.66687 0
M  V30 11459 H 1049.64 0.0461066 3.87373 0
M  V30 11460 H 1050.06 2.04202 4.83117 0
M  V30 11461 H 1051.53 0.468095 5.50012 0
M  V30 11462 H 1052.01 -0.756456 4.32637 0
M  V30 11463 H 1052.61 0.906959 4.15517 0
M  V30 11464 N 1050.93 -1.4397 0.641131 0
M  V30 11465 C 1052.15 -2.06818 0.155318 0
M  V30 11466 C 1052.58 -1.47665 -1.16519 0
M  V30 11467 O 1051.94 -0.58192 -1.71707 0
M  V30 11468 C 1051.99 -3.60542 0.0647537 0
M  V30 11469 O 1051.09 -4.00674 -0.976447 0
M  V30 11470 H 1050.43 -0.657962 0.0893404 0
M  V30 11471 H 1052.96 -1.84678 0.88064 0
M  V30 11472 H 1052.97 -4.07816 -0.122552 0
M  V30 11473 H 1051.65 -4.02975 1.02878 0
M  V30 11474 H 1050.22 -3.65013 -0.762905 0
M  V30 11475 N 1052.41 -0.382291 -1.52893 0
M  V30 11476 C 1053.63 0.204961 -2.06385 0
M  V30 11477 C 1054.06 1.40316 -1.25271 0
M  V30 11478 O 1053.42 1.79187 -0.275969 0
M  V30 11479 C 1053.46 0.560205 -3.56222 0
M  V30 11480 O 1052.57 1.65515 -3.77728 0
M  V30 11481 H 1051.91 0.0258798 -0.663495 0
M  V30 11482 H 1054.44 -0.547733 -1.97132 0
M  V30 11483 H 1054.45 0.826501 -3.99541 0
M  V30 11484 H 1053.12 -0.31584 -4.14699 0
M  V30 11485 H 1051.7 1.38311 -3.46301 0
M  V30 11486 N 1053.89 1.57202 -0.111913 0
M  V30 11487 C 1054.82 2.17957 0.837683 0
M  V30 11488 C 1055.8 1.1176 1.28233 0
M  V30 11489 O 1056.98 1.39967 1.34621 0
M  V30 11490 C 1054.11 2.77333 2.09054 0
M  V30 11491 C 1053.07 3.8905 1.78393 0
M  V30 11492 C 1052.39 4.35203 3.10649 0
M  V30 11493 C 1053.69 5.11477 1.05775 0
M  V30 11494 H 1055.39 2.9756 0.331441 0
M  V30 11495 H 1052.93 1.43131 0.157979 0
M  V30 11496 H 1054.88 3.18492 2.75936 0
M  V30 11497 H 1053.61 1.95009 2.6199 0
M  V30 11498 H 1052.27 3.48456 1.13903 0
M  V30 11499 H 1051.92 3.49747 3.61506 0
M  V30 11500 H 1051.62 5.10534 2.9091 0
M  V30 11501 H 1053.14 4.79007 3.78661 0
M  V30 11502 H 1054.55 5.497 1.62798 0
M  V30 11503 H 1052.95 5.92346 0.961573 0
M  V30 11504 H 1054.02 4.84881 0.043297 0
M  V30 11505 N 1055.36 -0.161842 1.56767 0
M  V30 11506 C 1056.78 -0.51396 1.51098 0
M  V30 11507 C 1056.98 -1.84158 0.817815 0
M  V30 11508 O 1056.04 -2.49592 0.382133 0
M  V30 11509 C 1057.35 -0.537966 2.95849 0
M  V30 11510 C 1058.9 -0.624512 3.06706 0
M  V30 11511 C 1059.37 -0.679322 4.52934 0
M  V30 11512 N 1060.86 -0.741953 4.57219 0
M  V30 11513 C 1061.6 -0.805096 5.6772 0
M  V30 11514 N 1061.09 -0.828492 6.87828 0
M  V30 11515 N 1062.89 -0.844843 5.55715 0
M  V30 11516 H 1055.04 0.708581 2.00232 0
M  V30 11517 H 1057.3 0.25663 0.912603 0
M  V30 11518 H 1057.01 0.369052 3.49758 0
M  V30 11519 H 1056.88 -1.38113 3.51005 0
M  V30 11520 H 1059.27 -1.52195 2.52825 0
M  V30 11521 H 1059.35 0.245515 2.54619 0
M  V30 11522 H 1058.99 0.213901 5.07449 0
M  V30 11523 H 1058.92 -1.56563 5.02788 0
M  V30 11524 H 1061.41 -0.731772 3.70747 0
M  V30 11525 H 1061.73 -0.878109 7.67795 0
M  V30 11526 H 1060.07 -0.796612 6.9042 0
M  V30 11527 H 1063.26 -0.823632 4.60797 0
M  V30 11528 H 1063.44 -0.890588 6.41851 0
M  V30 11529 N 1056.84 -1.516 -0.430713 0
M  V30 11530 C 1058.07 -1.68414 -1.20185 0
M  V30 11531 C 1058.48 -0.384297 -1.84847 0
M  V30 11532 O 1057.84 0.637808 -1.70992 0
M  V30 11533 C 1057.89 -2.80451 -2.28099 0
M  V30 11534 O 1057.61 -4.05399 -1.66081 0
M  V30 11535 C 1059.11 -3.0859 -3.18256 0
M  V30 11536 H 1056.33 -0.564982 -0.361989 0
M  V30 11537 H 1058.88 -1.9805 -0.50954 0
M  V30 11538 H 1057.03 -2.53395 -2.93036 0
M  V30 11539 H 1057.45 -4.67671 -2.37453 0
M  V30 11540 H 1058.92 -3.9055 -3.90096 0
M  V30 11541 H 1059.4 -2.21264 -3.79393 0
M  V30 11542 H 1060 -3.37331 -2.59014 0
M  V30 11543 N 1058.32 0.686584 -1.41858 0
M  V30 11544 C 1059.25 1.81264 -1.47193 0
M  V30 11545 C 1060.23 1.66875 -0.329657 0
M  V30 11546 O 1061.42 1.86473 -0.542347 0
M  V30 11547 C 1058.55 3.19472 -1.36216 0
M  V30 11548 C 1057.5 3.4858 -2.48347 0
M  V30 11549 C 1056.83 4.86239 -2.22432 0
M  V30 11550 C 1058.13 3.46653 -3.90678 0
M  V30 11551 H 1059.82 1.77057 -2.41436 0
M  V30 11552 H 1057.37 0.850415 -1.16206 0
M  V30 11553 H 1059.32 3.97969 -1.38558 0
M  V30 11554 H 1058.04 3.24327 -0.384611 0
M  V30 11555 H 1056.7 2.72437 -2.45303 0
M  V30 11556 H 1056.35 4.8773 -1.22999 0
M  V30 11557 H 1056.05 5.06677 -2.97577 0
M  V30 11558 H 1057.57 5.67034 -2.26505 0
M  V30 11559 H 1058.99 4.15139 -3.95389 0
M  V30 11560 H 1057.38 3.78625 -4.65578 0
M  V30 11561 H 1058.45 2.45451 -4.18189 0
M  V30 11562 N 1059.8 1.27835 0.921735 0
M  V30 11563 C 1060.73 1.136 2.04003 0
M  V30 11564 C 1061.71 0.0358756 1.70062 0
M  V30 11565 O 1062.89 0.211438 1.93046 0
M  V30 11566 C 1060.02 0.788697 3.38226 0
M  V30 11567 C 1058.98 1.84272 3.863 0
M  V30 11568 C 1058.3 1.34923 5.17397 0
M  V30 11569 C 1059.6 3.24788 4.09035 0
M  V30 11570 H 1061.3 2.07149 2.1617 0
M  V30 11571 H 1058.84 0.997349 1.0387 0
M  V30 11572 H 1060.8 0.675911 4.15944 0
M  V30 11573 H 1059.52 -0.182499 3.2609 0
M  V30 11574 H 1058.18 1.94451 3.1078 0
M  V30 11575 H 1057.83 0.367328 5.01657 0
M  V30 11576 H 1057.53 2.05397 5.50532 0
M  V30 11577 H 1059.05 1.24951 5.97678 0
M  V30 11578 H 1060.47 3.17575 4.77304 0
M  V30 11579 H 1058.86 3.93025 4.53488 0
M  V30 11580 H 1059.93 3.69398 3.14122 0
M  V30 11581 N 1061.28 -1.12907 1.09954 0
M  V30 11582 C 1062.21 -2.20585 0.765799 0
M  V30 11583 C 1063.19 -1.68117 -0.258989 0
M  V30 11584 O 1064.37 -1.93792 -0.125853 0
M  V30 11585 C 1061.5 -3.46772 0.191435 0
M  V30 11586 C 1060.46 -4.12363 1.14635 0
M  V30 11587 C 1059.78 -5.3294 0.433426 0
M  V30 11588 C 1061.08 -4.59073 2.49096 0
M  V30 11589 H 1062.78 -2.48759 1.66612 0
M  V30 11590 H 1060.32 -1.19563 0.802534 0
M  V30 11591 H 1062.27 -4.21365 -0.0541535 0
M  V30 11592 H 1061 -3.18011 -0.744101 0
M  V30 11593 H 1059.66 -3.39744 1.37731 0
M  V30 11594 H 1059.31 -5.00444 -0.506422 0
M  V30 11595 H 1059.01 -5.77772 1.07018 0
M  V30 11596 H 1060.53 -6.10284 0.196267 0
M  V30 11597 H 1061.94 -5.25063 2.30177 0
M  V30 11598 H 1060.34 -5.14665 3.0861 0
M  V30 11599 H 1061.41 -3.73313 3.0946 0
M  V30 11600 N 1062.75 -0.88754 -1.30232 0
M  V30 11601 C 1063.98 -0.521562 -2.00735 0
M  V30 11602 C 1064.4 0.883247 -1.66073 0
M  V30 11603 O 1063.76 1.58581 -0.878731 0
M  V30 11604 C 1063.81 -0.706521 -3.53611 0
M  V30 11605 O 1062.91 0.246447 -4.11663 0
M  V30 11606 H 1062.25 -0.205216 -0.631492 0
M  V30 11607 H 1064.78 -1.19579 -1.66018 0
M  V30 11608 H 1064.79 -0.606501 -4.03467 0
M  V30 11609 H 1063.47 -1.73076 -3.78177 0
M  V30 11610 H 1062.05 0.0999062 -3.72766 0
M  V30 11611 N 1064.23 1.43628 -0.648757 0
M  V30 11612 C 1065.18 2.27899 0.0677939 0
M  V30 11613 C 1066.17 1.39653 0.799115 0
M  V30 11614 O 1067.36 1.6332 0.682317 0
M  V30 11615 C 1064.49 3.27276 1.0366 0
M  V30 11616 C 1063.57 4.23009 0.303982 0
M  V30 11617 N 1063.96 5.01248 -0.677056 0
M  V30 11618 C 1062.26 4.42645 0.546041 0
M  V30 11619 C 1062.96 5.70982 -1.11151 0
M  V30 11620 N 1061.94 5.41762 -0.446669 0
M  V30 11621 H 1065.74 2.85804 -0.685073 0
M  V30 11622 H 1063.26 1.55277 -0.475674 0
M  V30 11623 H 1065.25 3.86423 1.5647 0
M  V30 11624 H 1063.91 2.70932 1.78958 0
M  V30 11625 H 1064.92 5.07028 -1.0556 0
M  V30 11626 H 1061.6 3.97377 1.28053 0
M  V30 11627 H 1062.99 6.43794 -1.923 0
M  V30 11628 N 1065.71 0.390394 1.52688 0
M  V30 11629 C 1066.66 -0.4591 2.28024 0
M  V30 11630 C 1067.65 -1.06212 1.31967 0
M  V30 11631 O 1068.86 -1.00247 1.49501 0
M  V30 11632 H 1065.23 -0.16681 0.733266 0
M  V30 11633 H 1067.2 0.197747 2.97744 0
M  V30 11634 C 1065.95 -1.5737 3.10048 0
M  V30 11635 H 1065.28 -1.11901 3.83821 0
M  V30 11636 H 1066.72 -2.1423 3.65898 0
M  V30 11637 C 1065.18 -2.53036 2.22429 0
M  V30 11638 O 1065.71 -3.5647 1.85181 0
M  V30 11639 N 1063.91 -2.22802 1.86567 0
M  V30 11640 H 1063.46 -1.38723 2.17057 0
M  V30 11641 H 1063.42 -2.87061 1.28233 0
M  V30 11642 N 1067.19 -1.57141 0.120249 0
M  V30 11643 C 1068.6 -1.5784 -0.236335 0
M  V30 11644 C 1068.8 -1.13304 -1.66626 0
M  V30 11645 O 1067.86 -0.821004 -2.3878 0
M  V30 11646 C 1069.17 -3.007 -0.00188211 0
M  V30 11647 C 1070.72 -3.12927 -0.0676838 0
M  V30 11648 C 1071.2 -4.57789 0.139092 0
M  V30 11649 N 1072.69 -4.63122 0.085104 0
M  V30 11650 C 1073.42 -5.72978 0.219983 0
M  V30 11651 N 1072.92 -6.91579 0.411102 0
M  V30 11652 N 1074.71 -5.61874 0.159469 0
M  V30 11653 H 1066.86 -1.84391 1.05422 0
M  V30 11654 H 1069.13 -0.852228 0.415225 0
M  V30 11655 H 1068.83 -3.37575 0.986718 0
M  V30 11656 H 1068.71 -3.70005 -0.733203 0
M  V30 11657 H 1071.09 -2.75909 -1.04681 0
M  V30 11658 H 1071.17 -2.46162 0.695538 0
M  V30 11659 H 1070.82 -4.95506 1.1152 0
M  V30 11660 H 1070.75 -5.22646 -0.644131 0
M  V30 11661 H 1073.24 -3.77854 -0.0590479 0
M  V30 11662 H 1073.55 -7.71149 0.504851 0
M  V30 11663 H 1071.9 -6.9356 0.447091 0
M  V30 11664 H 1075.09 -4.68099 0.0111131 0
M  V30 11665 H 1075.26 -6.47445 0.268028 0
M  V30 11666 N 1068.67 0.153526 -1.5685 0
M  V30 11667 C 1069.92 0.865628 -1.82181 0
M  V30 11668 C 1070.23 1.82629 -0.700434 0
M  V30 11669 O 1071.43 2.58206 -0.839155 0
M  V30 11670 C 1069.89 1.58993 -3.22877 0
M  V30 11671 C 1069.5 0.672006 -4.42931 0
M  V30 11672 C 1071.24 2.2892 -3.57486 0
M  V30 11673 C 1069.15 1.39755 -5.7465 0
M  V30 11674 H 1068.08 0.326993 -0.679406 0
M  V30 11675 H 1070.73 0.118403 -1.83118 0
M  V30 11676 H 1069.11 2.38255 -3.16308 0
M  V30 11677 H 1070.29 -0.0849226 -4.60722 0
M  V30 11678 H 1068.6 0.0814825 -4.1632 0
M  V30 11679 H 1071.2 2.8383 -4.5315 0
M  V30 11680 H 1071.54 3.05105 -2.83226 0
M  V30 11681 H 1072.07 1.56583 -3.65686 0
M  V30 11682 H 1068.81 0.677686 -6.51987 0
M  V30 11683 H 1068.33 2.12736 -5.60806 0
M  V30 11684 H 1070.01 1.94024 -6.17223 0
M  V30 11685 N 1070.14 1.51827 0.422667 0
M  V30 11686 C 1071.37 1.69337 1.19748 0
M  V30 11687 C 1071.79 0.396312 1.83878 0
M  V30 11688 O 1071.15 -0.644976 1.6944 0
M  V30 11689 C 1071.2 2.82082 2.24637 0
M  V30 11690 O 1070.3 2.46708 3.30468 0
M  V30 11691 H 1069.65 0.564154 0.35018 0
M  V30 11692 H 1072.18 1.98465 0.497289 0
M  V30 11693 H 1072.19 3.06599 2.69186 0
M  V30 11694 H 1070.86 3.76195 1.77341 0
M  V30 11695 H 1069.44 2.32815 2.91293 0
M  V30 11696 N 1071.62 -0.679052 1.4222 0
M  V30 11697 C 1072.57 -1.78522 1.41824 0
M  V30 11698 C 1073.56 -1.58262 0.290179 0
M  V30 11699 O 1074.75 -1.68813 0.532092 0
M  V30 11700 C 1071.88 -3.16952 1.31895 0
M  V30 11701 C 1070.96 -3.42849 2.4963 0
M  V30 11702 N 1071.35 -3.39354 3.75063 0
M  V30 11703 C 1069.65 -3.73468 2.43799 0
M  V30 11704 C 1070.35 -3.64617 4.53243 0
M  V30 11705 N 1069.33 -3.85174 3.83591 0
M  V30 11706 H 1073.13 -1.74206 2.36705 0
M  V30 11707 H 1070.65 -0.879719 1.36509 0
M  V30 11708 H 1072.64 -3.96214 1.29693 0
M  V30 11709 H 1071.3 -3.22467 0.380127 0
M  V30 11710 H 1072.31 -3.19354 4.07718 0
M  V30 11711 H 1068.99 -3.86254 1.58474 0
M  V30 11712 H 1070.38 -3.67912 5.62219 0
M  V30 11713 N 1073.1 -1.28322 -0.914942 0
M  V30 11714 C 1074.03 -1.14681 -2.03398 0
M  V30 11715 C 1075.01 -0.0448939 -1.70041 0
M  V30 11716 O 1076.2 -0.221672 -1.92931 0
M  V30 11717 C 1073.33 -0.806623 -3.37803 0
M  V30 11718 C 1072.28 -1.86318 -3.85318 0
M  V30 11719 C 1071.61 -1.37665 -5.16674 0
M  V30 11720 C 1072.91 -3.26953 -4.07307 0
M  V30 11721 H 1074.6 -2.08293 -2.15068 0
M  V30 11722 H 1072.15 -1.00284 -1.03339 0
M  V30 11723 H 1074.1 -0.69796 -4.1558 0
M  V30 11724 H 1072.82 0.165203 -3.26182 0
M  V30 11725 H 1071.48 -1.96096 -3.09745 0
M  V30 11726 H 1071.13 -0.393927 -5.01455 0
M  V30 11727 H 1070.83 -2.08313 -5.49435 0
M  V30 11728 H 1072.35 -1.28119 -5.97007 0
M  V30 11729 H 1073.77 -3.20102 -4.75613 0
M  V30 11730 H 1072.17 -3.95424 -4.51398 0
M  V30 11731 H 1073.24 -3.71059 -3.12159 0
M  V30 11732 N 1074.58 1.12322 -1.10551 0
M  V30 11733 C 1075.99 1.6539 -0.8662 0
M  V30 11734 C 1076.34 1.86695 0.603284 0
M  V30 11735 O 1075.47 1.59432 1.46323 0
M  V30 11736 C 1076.06 3.00443 -1.56587 0
M  V30 11737 C 1074.62 3.50456 -1.37323 0
M  V30 11738 C 1073.77 2.25454 -1.61449 0
M  V30 11739 H 1076.72 0.960866 -1.26305 0
M  V30 11740 H 1076.74 3.66972 -1.00557 0
M  V30 11741 H 1076.25 2.84905 -2.63535 0
M  V30 11742 H 1074.35 3.71176 -0.325431 0
M  V30 11743 H 1074.46 4.29839 -2.11601 0
M  V30 11744 H 1072.83 2.32621 -1.03729 0
M  V30 11745 H 1073.61 2.12469 -2.69651 0
M  V30 11746 N 1076.06 0.894434 1.2976 0
M  V30 11747 C 1077.28 0.5322 2.00455 0
M  V30 11748 C 1077.71 -0.874427 1.66539 0
M  V30 11749 O 1077.06 -1.58113 0.887129 0
M  V30 11750 C 1077.11 0.725264 3.53231 0
M  V30 11751 O 1076.22 -0.224612 4.11788 0
M  V30 11752 H 1075.56 0.208562 0.630395 0
M  V30 11753 H 1078.09 1.20458 1.65382 0
M  V30 11754 H 1078.1 0.627889 4.0314 0
M  V30 11755 H 1076.77 1.75079 3.77253 0
M  V30 11756 H 1075.35 -0.0801361 3.72814 0
M  V30 11757 N 1077.53 -1.43282 0.656365 0
M  V30 11758 C 1078.78 -2.01378 0.170702 0
M  V30 11759 C 1079.1 -1.52063 -1.22073 0
M  V30 11760 O 1078.37 -0.73456 -1.81607 0
M  V30 11761 H 1076.95 -0.744577 0.0601168 0
M  V30 11762 H 1079.62 -1.75449 0.848739 0
M  V30 11763 H 1078.71 -3.11701 0.157745 0
M  V30 11764 N 1079.01 -0.398486 -1.52479 0
M  V30 11765 C 1080.26 0.180752 -2.01692 0
M  V30 11766 C 1080.59 1.46044 -1.28457 0
M  V30 11767 O 1079.84 1.92051 -0.376162 0
M  V30 11768 C 1080.14 0.485909 -3.54081 0
M  V30 11769 C 1079.81 -0.703321 -4.45381 0
M  V30 11770 C 1078.47 -1.02955 -4.70057 0
M  V30 11771 C 1080.82 -1.49848 -4.99194 0
M  V30 11772 C 1078.15 -2.15231 -5.45795 0
M  V30 11773 C 1080.5 -2.61192 -5.76161 0
M  V30 11774 C 1079.17 -2.94313 -5.99113 0
M  V30 11775 H 1078.44 0.0661417 -0.738042 0
M  V30 11776 H 1081.08 -0.53772 -1.83796 0
M  V30 11777 H 1079.39 1.28582 -3.701 0
M  V30 11778 H 1081.09 0.946872 -3.89661 0
M  V30 11779 H 1077.68 -0.439062 -4.26345 0
M  V30 11780 H 1081.86 -1.25968 -4.80048 0
M  V30 11781 H 1077.12 -2.41252 -5.61789 0
M  V30 11782 H 1081.29 -3.23201 -6.16858 0
M  V30 11783 H 1078.92 -3.81431 -6.57583 0
M  V30 11784 N 1080.49 1.57075 -0.12858 0
M  V30 11785 C 1081.42 2.18833 0.814519 0
M  V30 11786 C 1082.4 1.13114 1.2704 0
M  V30 11787 O 1083.59 1.41387 1.33129 0
M  V30 11788 C 1080.72 2.79535 2.06101 0
M  V30 11789 C 1079.67 3.9092 1.74257 0
M  V30 11790 C 1079 4.38473 3.06015 0
M  V30 11791 C 1080.3 5.1257 1.00345 0
M  V30 11792 H 1081.99 2.97895 0.299862 0
M  V30 11793 H 1079.54 1.4329 0.14279 0
M  V30 11794 H 1081.49 3.21401 2.72543 0
M  V30 11795 H 1080.21 1.97777 2.59907 0
M  V30 11796 H 1078.87 3.49645 1.102 0
M  V30 11797 H 1078.52 3.53561 3.57776 0
M  V30 11798 H 1078.22 5.13591 2.85479 0
M  V30 11799 H 1079.75 4.82997 3.7356 0
M  V30 11800 H 1081.16 5.51395 1.56959 0
M  V30 11801 H 1079.56 5.93333 0.898693 0
M  V30 11802 H 1080.63 4.84899 -0.0081335 0
M  V30 11803 N 1081.97 -0.145205 1.5693 0
M  V30 11804 C 1083.19 -0.876386 1.87974 0
M  V30 11805 C 1083.62 -1.73866 0.717795 0
M  V30 11806 O 1082.98 -1.78224 -0.332551 0
M  V30 11807 C 1083.03 -1.70746 3.17613 0
M  V30 11808 O 1082.13 -2.81188 3.01674 0
M  V30 11809 H 1081.47 -0.243987 0.617549 0
M  V30 11810 H 1084 -0.135482 2.04151 0
M  V30 11811 H 1084.01 -2.1021 3.49679 0
M  V30 11812 H 1082.69 -1.07429 4.01786 0
M  V30 11813 H 1081.26 -2.45117 2.81019 0
M  V30 11814 N 1083.45 -1.52049 -0.414609 0
M  V30 11815 C 1084.36 -1.7788 -1.52958 0
M  V30 11816 C 1085.37 -0.66408 -1.60829 0
M  V30 11817 O 1086.55 -0.948882 -1.77646 0
M  V30 11818 C 1083.61 -1.91906 -2.88744 0
M  V30 11819 C 1082.68 -3.15803 -2.90804 0
M  V30 11820 C 1081.91 -3.29151 -4.20114 0
M  V30 11821 O 1082.13 -2.47892 -5.13718 0
M  V30 11822 O 1081.07 -4.2227 -4.28919 0
M  V30 11823 H 1084.89 -2.72506 -1.34067 0
M  V30 11824 H 1082.48 -1.36826 -0.599918 0
M  V30 11825 H 1084.36 -2.02986 -3.6929 0
M  V30 11826 H 1083.03 -1.00468 -3.07714 0
M  V30 11827 H 1081.94 -3.10185 -2.09131 0
M  V30 11828 H 1083.27 -4.07004 -2.76783 0
M  V30 11829 N 1084.93 0.6715 -1.42579 0
M  V30 11830 C 1086.17 1.43366 -1.43436 0
M  V30 11831 C 1086.5 1.94131 -0.0517339 0
M  V30 11832 O 1085.78 1.71121 0.924548 0
M  V30 11833 C 1086.06 2.62832 -2.46154 0
M  V30 11834 C 1085.92 2.17677 -3.9362 0
M  V30 11835 C 1087.23 3.65049 -2.4582 0
M  V30 11836 H 1084.35 0.519967 -0.522306 0
M  V30 11837 H 1087 0.762849 -1.74013 0
M  V30 11838 H 1085.15 3.20062 -2.2021 0
M  V30 11839 H 1086.82 1.65588 -4.30556 0
M  V30 11840 H 1085.06 1.49219 -4.07328 0
M  V30 11841 H 1085.73 3.03503 -4.61075 0
M  V30 11842 H 1088.21 3.17541 -2.68899 0
M  V30 11843 H 1087.08 4.46213 -3.19664 0
M  V30 11844 H 1087.34 4.16401 -1.48536 0
M  V30 11845 N 1086.4 1.28806 0.908124 0
M  V30 11846 C 1087.63 1.19271 1.69674 0
M  V30 11847 C 1088.05 -0.244403 1.86505 0
M  V30 11848 O 1087.41 -1.17668 1.37927 0
M  V30 11849 C 1087.46 1.9023 3.06341 0
M  V30 11850 O 1086.56 1.2136 3.94139 0
M  V30 11851 H 1085.9 0.413738 0.519343 0
M  V30 11852 H 1088.43 1.70227 1.13508 0
M  V30 11853 H 1088.44 1.98356 3.56537 0
M  V30 11854 H 1087.12 2.94762 2.93408 0
M  V30 11855 H 1085.7 1.21435 3.52573 0
M  V30 11856 N 1087.88 -1.11734 1.11145 0
M  V30 11857 C 1089.11 -1.87755 0.881062 0
M  V30 11858 C 1089.53 -1.79461 -0.563496 0
M  V30 11859 O 1088.89 -1.15481 -1.39763 0
M  V30 11860 C 1088.94 -3.34641 1.34342 0
M  V30 11861 O 1088.04 -4.09195 0.513157 0
M  V30 11862 H 1087.38 -0.583111 0.317613 0
M  V30 11863 H 1089.91 -1.41256 1.48013 0
M  V30 11864 H 1089.92 -3.85486 1.33658 0
M  V30 11865 H 1088.6 -3.39994 2.39534 0
M  V30 11866 H 1087.17 -3.68269 0.585833 0
M  V30 11867 N 1089.36 -0.901303 -1.29284 0
M  V30 11868 C 1090.29 -0.396909 -2.30102 0
M  V30 11869 C 1091.27 0.528919 -1.61668 0
M  V30 11870 O 1092.46 0.439306 -1.89166 0
M  V30 11871 C 1089.59 0.375006 -3.45269 0
M  V30 11872 C 1088.54 -0.46054 -4.25515 0
M  V30 11873 C 1087.87 0.438967 -5.32895 0
M  V30 11874 C 1089.17 -1.7113 -4.93469 0
M  V30 11875 H 1090.86 -1.23943 -2.72541 0
M  V30 11876 H 1088.41 -0.597428 -1.31022 0
M  V30 11877 H 1090.36 0.738622 -4.14876 0
M  V30 11878 H 1089.08 1.25132 -3.01678 0
M  V30 11879 H 1087.74 -0.80651 -3.57618 0
M  V30 11880 H 1087.39 1.31346 -4.85548 0
M  V30 11881 H 1087.09 -0.116406 -5.87485 0
M  V30 11882 H 1088.61 0.79874 -6.05353 0
M  V30 11883 H 1090.03 -1.41732 -5.55504 0
M  V30 11884 H 1088.42 -2.20811 -5.57999 0
M  V30 11885 H 1089.49 -2.44636 -4.18666 0
M  V30 11886 N 1090.84 1.42931 -0.663954 0
M  V30 11887 C 1091.78 2.3079 0.0210764 0
M  V30 11888 C 1092.75 1.45356 0.803796 0
M  V30 11889 O 1093.94 1.74207 0.778237 0
M  V30 11890 C 1091.08 3.31069 0.974023 0
M  V30 11891 C 1090.19 4.31598 0.186273 0
M  V30 11892 C 1089.33 5.18955 1.13399 0
M  V30 11893 C 1088.37 6.1117 0.337292 0
M  V30 11894 N 1087.5 6.91114 1.23715 0
M  V30 11895 H 1092.34 2.88819 -0.733995 0
M  V30 11896 H 1089.88 1.42274 -0.373711 0
M  V30 11897 H 1091.84 3.87727 1.54024 0
M  V30 11898 H 1090.47 2.74665 1.69585 0
M  V30 11899 H 1089.52 3.77147 -0.496402 0
M  V30 11900 H 1090.83 4.96919 -0.432753 0
M  V30 11901 H 1089.99 5.80292 1.77049 0
M  V30 11902 H 1088.73 4.53785 1.78691 0
M  V30 11903 H 1087.73 5.48911 -0.312492 0
M  V30 11904 H 1088.96 6.78386 -0.31138 0
M  V30 11905 H 1086.9 6.28583 1.87668 0
M  V30 11906 H 1086.82 7.52999 0.672946 0
M  V30 11907 H 1088.09 7.56948 1.86146 0
M  V30 11908 N 1092.32 0.406567 1.52266 0
M  V30 11909 C 1093.27 -0.437483 2.23763 0
M  V30 11910 C 1094.25 -1.01557 1.248 0
M  V30 11911 O 1095.44 -0.938813 1.50051 0
M  V30 11912 C 1092.57 -1.55499 3.06064 0
M  V30 11913 C 1091.66 -0.987799 4.12436 0
M  V30 11914 N 1092.05 -0.147044 5.05586 0
M  V30 11915 C 1090.35 -1.25857 4.27874 0
M  V30 11916 C 1091.05 0.168229 5.81457 0
M  V30 11917 N 1090.02 -0.440245 5.41814 0
M  V30 11918 H 1093.82 0.211203 2.9314 0
M  V30 11919 H 1091.34 0.216843 1.60946 0
M  V30 11920 H 1093.34 -2.17224 3.55836 0
M  V30 11921 H 1092 -2.20632 2.38226 0
M  V30 11922 H 1093.01 0.217062 5.17445 0
M  V30 11923 H 1089.68 -1.90967 3.71265 0
M  V30 11924 H 1091.07 0.850516 6.66495 0
M  V30 11925 N 1093.79 -1.57004 0.136909 0
M  V30 11926 C 1094.72 -2.19262 -0.802902 0
M  V30 11927 C 1095.71 -1.13786 -1.26439 0
M  V30 11928 O 1096.89 -1.42091 -1.32377 0
M  V30 11929 C 1094.02 -2.80624 -2.04615 0
M  V30 11930 C 1092.97 -3.91839 -1.72181 0
M  V30 11931 C 1092.3 -4.4009 -3.03686 0
M  V30 11932 C 1093.6 -5.13095 -0.976249 0
M  V30 11933 H 1095.29 -2.98049 -0.28406 0
M  V30 11934 H 1092.84 -1.43364 -0.135189 0
M  V30 11935 H 1094.79 -3.22842 -2.70834 0
M  V30 11936 H 1093.52 -1.99153 -2.58855 0
M  V30 11937 H 1092.18 -3.50224 -1.08344 0
M  V30 11938 H 1091.82 -3.55454 -3.55896 0
M  V30 11939 H 1091.52 -5.15098 -2.82751 0
M  V30 11940 H 1093.05 -4.84971 -3.70993 0
M  V30 11941 H 1094.46 -5.5222 -1.54033 0
M  V30 11942 H 1092.86 -5.93801 -0.867214 0
M  V30 11943 H 1093.93 -4.84888 0.0338488 0
M  V30 11944 N 1095.27 0.136881 -1.57004 0
M  V30 11945 C 1096.55 0.87705 -1.74835 0
M  V30 11946 C 1096.93 1.98886 -0.707639 0
M  V30 11947 O 1096.28 2.26879 0.271652 0
M  V30 11948 C 1096.49 1.41021 -3.1924 0
M  V30 11949 C 1097.84 1.86963 -3.81222 0
M  V30 11950 O 1098.86 1.5074 -3.22732 0
M  V30 11951 O 1097.72 2.53798 -4.83993 0
M  V30 11952 H 1094.81 0.415192 -0.715223 0
M  V30 11953 H 1097.36 0.122016 -1.69261 0
M  V30 11954 H 1096.13 0.611677 -3.8649 0
M  V30 11955 H 1095.75 2.22846 -3.2928 0
M  V30 11956 N 1096.75 1.52266 0.40654 0
M  V30 11957 C 1097.68 1.78755 1.50229 0
M  V30 11958 C 1098.66 0.638652 1.57655 0
M  V30 11959 O 1099.85 0.884505 1.72888 0
M  V30 11960 C 1096.98 1.94057 2.88026 0
M  V30 11961 C 1095.93 3.09667 2.95449 0
M  V30 11962 C 1095.26 3.10196 4.35526 0
M  V30 11963 C 1096.56 4.49077 2.66697 0
M  V30 11964 H 1098.25 2.70511 1.28313 0
M  V30 11965 H 1095.8 1.30167 0.615836 0
M  V30 11966 H 1097.75 2.11171 3.64671 0
M  V30 11967 H 1096.47 0.989755 3.11242 0
M  V30 11968 H 1095.13 2.92308 2.2125 0
M  V30 11969 H 1094.78 2.12831 4.55754 0
M  V30 11970 H 1094.48 3.87847 4.41416 0
M  V30 11971 H 1096 3.29443 5.14101 0
M  V30 11972 H 1097.42 4.66628 3.33064 0
M  V30 11973 H 1095.82 5.28665 2.8396 0
M  V30 11974 H 1096.89 4.56995 1.62122 0
M  V30 11975 N 1098.23 -0.663929 1.42933 0
M  V30 11976 C 1099.45 -1.45691 1.47611 0
M  V30 11977 C 1099.88 -1.87875 0.0920305 0
M  V30 11978 O 1099.24 -1.56696 -0.91192 0
M  V30 11979 C 1099.28 -2.67517 2.41799 0
M  V30 11980 O 1098.39 -3.66187 1.89686 0
M  V30 11981 H 1097.73 -0.437257 0.499702 0
M  V30 11982 H 1100.26 -0.813397 1.87737 0
M  V30 11983 H 1100.27 -3.1546 2.58745 0
M  V30 11984 H 1098.94 -2.36155 3.4235 0
M  V30 11985 H 1097.52 -3.25274 1.82349 0
M  V30 11986 N 1099.71 -1.29285 -0.901281 0
M  V30 11987 C 1100.93 -1.20169 -1.69039 0
M  V30 11988 C 1101.36 0.234509 -1.86632 0
M  V30 11989 O 1100.71 1.16935 -1.38549 0
M  V30 11990 C 1100.76 -1.91852 -3.05328 0
M  V30 11991 O 1099.87 -1.23448 -3.9349 0
M  V30 11992 H 1099.21 -0.416486 -0.517141 0
M  V30 11993 H 1101.74 -1.70826 -1.12603 0
M  V30 11994 H 1101.75 -2.00244 -3.5548 0
M  V30 11995 H 1100.42 -2.96313 -2.91841 0
M  V30 11996 H 1099 -1.23303 -3.51924 0
M  V30 11997 N 1101.18 1.11143 -1.11736 0
M  V30 11998 C 1102.13 2.19358 -0.773626 0
M  V30 11999 C 1103.13 1.67744 0.236288 0
M  V30 12000 O 1104.33 1.79748 0.09525 0
M  V30 12001 H 1100.71 0.715218 -0.232309 0
M  V30 12002 H 1102.68 2.45594 -1.69487 0
M  V30 12003 C 1101.43 3.46895 -0.236457 0
M  V30 12004 H 1100.75 3.86967 -1.00483 0
M  V30 12005 H 1102.19 4.23986 -0.034168 0
M  V30 12006 C 1100.65 3.20641 1.03397 0
M  V30 12007 O 1101.18 3.41629 2.11312 0
M  V30 12008 N 1099.39 2.74356 0.957986 0
M  V30 12009 H 1098.93 2.57477 0.0796924 0
M  V30 12010 H 1098.89 2.57166 1.80867 0
M  V30 12011 N 1102.66 0.908147 1.28804 0
M  V30 12012 C 1103.59 0.409106 2.29888 0
M  V30 12013 C 1104.57 -0.520338 1.61946 0
M  V30 12014 O 1105.76 -0.429268 1.89396 0
M  V30 12015 C 1102.89 -0.35669 3.45463 0
M  V30 12016 C 1101.84 0.4831 4.25265 0
M  V30 12017 C 1101.17 -0.4107 5.3312 0
M  V30 12018 C 1102.47 1.73744 4.92555 0
M  V30 12019 H 1104.16 1.25386 2.7188 0
M  V30 12020 H 1101.71 0.604368 1.30703 0
M  V30 12021 H 1103.66 -0.71661 4.15262 0
M  V30 12022 H 1102.39 -1.2353 3.02337 0
M  V30 12023 H 1101.04 0.825464 3.57186 0
M  V30 12024 H 1100.69 -1.28769 4.86238 0
M  V30 12025 H 1100.39 0.14756 5.87415 0
M  V30 12026 H 1101.92 -0.766626 6.05768 0
M  V30 12027 H 1103.33 1.44676 5.54745 0
M  V30 12028 H 1101.73 2.23767 5.5682 0
M  V30 12029 H 1102.8 2.46853 4.17363 0
M  V30 12030 N 1104.14 -1.42577 0.671525 0
M  V30 12031 C 1105.07 -2.33499 0.00506984 0
M  V30 12032 C 1106.05 -1.50497 -0.792763 0
M  V30 12033 O 1107.24 -1.79109 -0.750574 0
M  V30 12034 C 1104.37 -3.34077 -0.949194 0
M  V30 12035 C 1103.32 -4.27208 -0.260187 0
M  V30 12036 C 1102.65 -5.17968 -1.32716 0
M  V30 12037 C 1103.95 -5.15192 0.858772 0
M  V30 12038 H 1105.64 -2.89477 0.764407 0
M  V30 12039 H 1103.19 -1.39191 0.369043 0
M  V30 12040 H 1105.14 -3.96594 -1.42448 0
M  V30 12041 H 1103.86 -2.76396 -1.73991 0
M  V30 12042 H 1102.52 -3.66082 0.194834 0
M  V30 12043 H 1102.17 -4.56615 -2.10979 0
M  V30 12044 H 1101.87 -5.81104 -0.871293 0
M  V30 12045 H 1103.39 -5.83359 -1.80345 0
M  V30 12046 H 1104.81 -5.71412 0.464844 0
M  V30 12047 H 1103.21 -5.87144 1.24023 0
M  V30 12048 H 1104.28 -4.53787 1.70895 0
M  V30 12049 N 1105.62 -0.414636 -1.52048 0
M  V30 12050 C 1106.57 0.408141 -2.27163 0
M  V30 12051 C 1107.54 1.03636 -1.29803 0
M  V30 12052 O 1108.72 1.05959 -1.58674 0
M  V30 12053 C 1105.86 1.51588 -3.10024 0
M  V30 12054 C 1104.97 0.908034 -4.22349 0
M  V30 12055 C 1104.11 1.98893 -4.9256 0
M  V30 12056 C 1103.15 1.35831 -5.96839 0
M  V30 12057 N 1102.28 2.37958 -6.60545 0
M  V30 12058 H 1107.12 -0.238822 -2.97041 0
M  V30 12059 H 1104.66 -0.129614 -1.46528 0
M  V30 12060 H 1106.62 2.16916 -3.56375 0
M  V30 12061 H 1105.25 2.13279 -2.42305 0
M  V30 12062 H 1104.3 0.143652 -3.80129 0
M  V30 12063 H 1105.61 0.407426 -4.97133 0
M  V30 12064 H 1104.77 2.71935 -5.42343 0
M  V30 12065 H 1103.51 2.5232 -4.17356 0
M  V30 12066 H 1102.51 0.613246 -5.46369 0
M  V30 12067 H 1103.74 0.831655 -6.73988 0
M  V30 12068 H 1101.68 2.90508 -5.88167 0
M  V30 12069 H 1101.6 1.92725 -7.31022 0
M  V30 12070 H 1102.87 3.10553 -7.14966 0
M  V30 12071 N 1107.1 1.56929 -0.145233 0
M  V30 12072 C 1108.32 2.00431 0.513314 0
M  V30 12073 C 1108.74 1.0253 1.58534 0
M  V30 12074 O 1108.1 0.0220459 1.82487 0
M  V30 12075 C 1108.15 3.43856 1.11557 0
M  V30 12076 O 1107.87 4.38015 0.0863707 0
M  V30 12077 C 1109.37 4.02627 1.8549 0
M  V30 12078 H 1106.59 0.657529 0.133778 0
M  V30 12079 H 1109.13 2.03095 -0.239296 0
M  V30 12080 H 1107.29 3.4205 1.81881 0
M  V30 12081 H 1107.7 5.21842 0.527363 0
M  V30 12082 H 1109.18 5.04985 2.22923 0
M  V30 12083 H 1109.65 3.43239 2.74014 0
M  V30 12084 H 1110.26 4.08058 1.19869 0
M  V30 12085 N 1108.58 -0.128553 1.57075 0
M  V30 12086 C 1109.82 -0.836536 1.83535 0
M  V30 12087 C 1110.14 -1.81491 0.7294 0
M  V30 12088 O 1111.34 -2.56838 0.880128 0
M  V30 12089 C 1109.8 -1.53836 3.25365 0
M  V30 12090 C 1109.41 -0.601454 4.43944 0
M  V30 12091 C 1111.15 -2.23204 3.61082 0
M  V30 12092 C 1109.06 -1.30596 5.768 0
M  V30 12093 H 1107.99 -0.316142 0.684522 0
M  V30 12094 H 1110.64 -0.0892555 1.83283 0
M  V30 12095 H 1109.02 -2.33192 3.20058 0
M  V30 12096 H 1110.2 0.158209 4.60528 0
M  V30 12097 H 1108.51 -0.0152393 4.16397 0
M  V30 12098 H 1111.11 -2.76585 4.57608 0
M  V30 12099 H 1111.45 -3.0056 2.88044 0
M  V30 12100 H 1111.98 -1.50746 3.68131 0
M  V30 12101 H 1108.72 -0.573874 6.52983 0
M  V30 12102 H 1108.24 -2.03787 5.6412 0
M  V30 12103 H 1109.92 -1.8418 6.20231 0
M  V30 12104 N 1110.05 -1.5248 -0.398459 0
M  V30 12105 C 1111 -1.77211 -1.50662 0
M  V30 12106 C 1112 -0.639638 -1.5686 0
M  V30 12107 O 1113.2 -0.821917 -1.60139 0
M  V30 12108 H 1109.58 -0.56057 -0.501264 0
M  V30 12109 H 1111.55 -2.70028 -1.26993 0
M  V30 12110 C 1110.3 -1.94944 -2.8791 0
M  V30 12111 H 1109.62 -2.8151 -2.83888 0
M  V30 12112 H 1111.06 -2.16243 -3.64712 0
M  V30 12113 C 1109.52 -0.719402 -3.29129 0
M  V30 12114 O 1110.05 0.107671 -4.01556 0
M  V30 12115 N 1108.25 -0.552228 -2.85305 0
M  V30 12116 H 1107.8 -1.22638 -2.26534 0
M  V30 12117 H 1107.76 0.269447 -3.13243 0
M  V30 12118 N 1111.53 0.65634 -1.43283 0
M  V30 12119 C 1112.48 1.76934 -1.48199 0
M  V30 12120 C 1113.45 1.62748 -0.332023 0
M  V30 12121 O 1114.63 1.83036 -0.538735 0
M  V30 12122 C 1111.77 3.15072 -1.40797 0
M  V30 12123 C 1110.89 3.40414 -2.65974 0
M  V30 12124 C 1110.02 4.68383 -2.50582 0
M  V30 12125 C 1109.06 4.8682 -3.71043 0
M  V30 12126 N 1108.2 6.06043 -3.5448 0
M  V30 12127 H 1113.04 1.72067 -2.43304 0
M  V30 12128 H 1110.57 0.839728 -1.20777 0
M  V30 12129 H 1112.53 3.94925 -1.345 0
M  V30 12130 H 1111.16 3.19017 -0.492754 0
M  V30 12131 H 1110.21 2.54681 -2.82563 0
M  V30 12132 H 1111.53 3.49925 -3.55463 0
M  V30 12133 H 1110.68 5.56357 -2.41975 0
M  V30 12134 H 1109.42 4.61187 -1.58612 0
M  V30 12135 H 1108.42 3.97282 -3.80062 0
M  V30 12136 H 1109.65 4.95847 -4.64017 0
M  V30 12137 H 1107.6 5.99985 -2.65242 0
M  V30 12138 H 1107.51 6.16498 -4.37568 0
M  V30 12139 H 1108.78 6.96647 -3.49719 0
M  V30 12140 N 1113.01 1.29761 0.894412 0
M  V30 12141 C 1114.23 1.21064 1.68399 0
M  V30 12142 C 1114.66 -0.224608 1.86754 0
M  V30 12143 O 1114.02 -1.16199 1.39167 0
M  V30 12144 C 1114.07 1.93468 3.04306 0
M  V30 12145 O 1113.17 1.25533 3.9283 0
M  V30 12146 H 1112.51 0.419223 0.514925 0
M  V30 12147 H 1115.04 1.71421 1.11696 0
M  V30 12148 H 1115.05 2.02127 3.54413 0
M  V30 12149 H 1113.73 2.97857 2.90265 0
M  V30 12150 H 1112.3 1.25168 3.51266 0
M  V30 12151 N 1114.49 -1.10549 1.12324 0
M  V30 12152 C 1115.45 -2.15039 0.793156 0
M  V30 12153 C 1116.45 -1.59651 -0.19192 0
M  V30 12154 O 1117.64 -1.74167 0.0337262 0
M  V30 12155 C 1114.77 -3.40433 0.17842 0
M  V30 12156 H 1115.97 -2.4575 1.71892 0
M  V30 12157 H 1113.52 -1.25892 0.926333 0
M  V30 12158 H 1114.25 -3.15338 -0.757122 0
M  V30 12159 H 1114.04 -3.81921 0.887645 0
M  V30 12160 H 1115.53 -4.17584 -0.0360724 0
M  V30 12161 N 1115.97 -0.914965 -1.28321 0
M  V30 12162 C 1116.9 -0.421292 -2.29668 0
M  V30 12163 C 1117.88 0.511743 -1.6222 0
M  V30 12164 O 1119.06 0.419218 -1.89621 0
M  V30 12165 C 1116.19 0.338364 -3.45648 0
M  V30 12166 C 1115.15 -0.505646 -4.25003 0
M  V30 12167 C 1114.47 0.382421 -5.33331 0
M  V30 12168 C 1115.77 -1.76354 -4.91626 0
M  V30 12169 H 1117.47 -1.26826 -2.71211 0
M  V30 12170 H 1115.01 -0.611291 -1.30381 0
M  V30 12171 H 1116.96 0.694578 -4.15636 0
M  V30 12172 H 1115.69 1.21925 -3.02988 0
M  V30 12173 H 1114.35 -0.844395 -3.56743 0
M  V30 12174 H 1114 1.26189 -4.86914 0
M  V30 12175 H 1113.7 -0.17871 -5.87328 0
M  V30 12176 H 1115.22 0.73449 -6.06166 0
M  V30 12177 H 1116.63 -1.47616 -5.5397 0
M  V30 12178 H 1115.03 -2.26717 -5.55625 0
M  V30 12179 H 1116.1 -2.49063 -4.16048 0
M  V30 12180 N 1117.44 1.42219 -0.679077 0
M  V30 12181 C 1118.35 2.346 -0.00345919 0
M  V30 12182 C 1119.37 1.55327 0.784181 0
M  V30 12183 O 1120.55 1.87878 0.725524 0
M  V30 12184 C 1117.61 3.33905 0.933194 0
M  V30 12185 C 1116.67 4.29073 0.139607 0
M  V30 12186 C 1115.9 5.23634 1.03165 0
M  V30 12187 O 1116.13 5.23234 2.27119 0
M  V30 12188 O 1115.06 5.99901 0.490159 0
M  V30 12189 H 1118.89 2.9392 -0.764525 0
M  V30 12190 H 1116.47 1.42794 -0.439329 0
M  V30 12191 H 1118.35 3.949 1.47077 0
M  V30 12192 H 1117.03 2.77052 1.67404 0
M  V30 12193 H 1115.94 3.71478 -0.442177 0
M  V30 12194 H 1117.27 4.88979 -0.562214 0
M  V30 12195 N 1118.92 0.422693 1.51826 0
M  V30 12196 C 1120.15 -0.147744 2.06372 0
M  V30 12197 C 1120.56 -1.37714 1.29152 0
M  V30 12198 O 1119.92 -1.7917 0.347046 0
M  V30 12199 C 1119.97 -0.484642 3.58237 0
M  V30 12200 O 1119.69 0.695944 4.32537 0
M  V30 12201 C 1121.19 -1.10734 4.29247 0
M  V30 12202 H 1118.41 -0.0144047 0.670845 0
M  V30 12203 H 1120.96 0.597558 1.95575 0
M  V30 12204 H 1119.11 -1.17984 3.68997 0
M  V30 12205 H 1119.53 0.411471 5.22884 0
M  V30 12206 H 1121 -1.29318 5.36639 0
M  V30 12207 H 1121.48 -2.08429 3.86593 0
M  V30 12208 H 1122.08 -0.451958 4.22892 0
M  V30 12209 N 1120.4 -1.5685 0.153553 0
M  V30 12210 C 1121.35 -2.1709 -0.783626 0
M  V30 12211 C 1122.32 -1.10567 -1.23952 0
M  V30 12212 O 1123.5 -1.38638 -1.31088 0
M  V30 12213 C 1120.64 -2.80183 -2.01473 0
M  V30 12214 C 1119.75 -4.01117 -1.60403 0
M  V30 12215 C 1118.89 -4.5219 -2.78743 0
M  V30 12216 C 1117.93 -5.65574 -2.34079 0
M  V30 12217 N 1117.07 -6.11235 -3.4545 0
M  V30 12218 H 1121.91 -2.96836 -0.263127 0
M  V30 12219 H 1119.44 -1.46625 -0.11816 0
M  V30 12220 H 1121.4 -3.14912 -2.73654 0
M  V30 12221 H 1120.03 -2.03071 -2.50923 0
M  V30 12222 H 1119.08 -3.72325 -0.779631 0
M  V30 12223 H 1120.39 -4.83243 -1.23605 0
M  V30 12224 H 1119.55 -4.89008 -3.59105 0
M  V30 12225 H 1118.29 -3.69085 -3.18791 0
M  V30 12226 H 1117.29 -5.28326 -1.52158 0
M  V30 12227 H 1118.52 -6.50468 -1.95109 0
M  V30 12228 H 1116.46 -5.31064 -3.85106 0
M  V30 12229 H 1116.38 -6.88304 -3.12687 0
M  V30 12230 H 1117.65 -6.527 -4.26149 0
M  V30 12231 N 1121.88 0.120221 -1.57141 0
M  V30 12232 C 1123.11 0.842441 -1.88972 0
M  V30 12233 C 1123.52 1.73494 -0.744671 0
M  V30 12234 O 1122.88 1.80268 0.284557 0
M  V30 12235 C 1122.93 1.67688 -3.20254 0
M  V30 12236 O 1122.65 0.820319 -4.30351 0
M  V30 12237 C 1124.15 2.50436 -3.65782 0
M  V30 12238 H 1121.37 0.242241 -0.625748 0
M  V30 12239 H 1123.91 0.104978 -2.0423 0
M  V30 12240 H 1122.07 2.36712 -3.0667 0
M  V30 12241 H 1122.48 1.39575 -5.05588 0
M  V30 12242 H 1123.96 3.04518 -4.60405 0
M  V30 12243 H 1124.43 3.27737 -2.92378 0
M  V30 12244 H 1125.04 1.86657 -3.82151 0
M  V30 12245 N 1123.36 1.52689 0.390367 0
M  V30 12246 C 1124.58 1.71541 1.15678 0
M  V30 12247 C 1125 0.433171 1.83764 0
M  V30 12248 O 1124.36 -0.592248 1.72623 0
M  V30 12249 C 1124.41 2.864 2.20584 0
M  V30 12250 O 1124.13 4.0966 1.55274 0
M  V30 12251 C 1125.63 3.1692 3.09962 0
M  V30 12252 H 1122.85 0.574381 0.346883 0
M  V30 12253 H 1125.39 1.99332 0.456851 0
M  V30 12254 H 1123.55 2.61075 2.86214 0
M  V30 12255 H 1123.96 4.73802 2.2497 0
M  V30 12256 H 1125.44 4.00755 3.79604 0
M  V30 12257 H 1125.91 2.31245 3.73393 0
M  V30 12258 H 1126.52 3.4408 2.49979 0
M  V30 12259 N 1124.83 -0.648732 1.43629 0
M  V30 12260 C 1126.06 -1.4362 1.48932 0
M  V30 12261 C 1126.48 -1.88487 0.108599 0
M  V30 12262 O 1125.83 -1.59768 -0.882066 0
M  V30 12263 C 1125.89 -2.66822 2.43903 0
M  V30 12264 O 1125.61 -2.2383 3.76606 0
M  V30 12265 C 1127.11 -3.60134 2.58493 0
M  V30 12266 H 1124.33 -0.441055 0.505679 0
M  V30 12267 H 1126.87 -0.794936 1.88417 0
M  V30 12268 H 1125.03 -3.27079 2.07601 0
M  V30 12269 H 1125.44 -3.03575 4.27718 0
M  V30 12270 H 1126.91 -4.43234 3.29011 0
M  V30 12271 H 1127.39 -4.07779 1.63134 0
M  V30 12272 H 1128 -3.05756 2.95624 0
M  V30 12273 N 1126.31 -1.30234 -0.887518 0
M  V30 12274 C 1127.26 -1.164 -1.99298 0
M  V30 12275 C 1128.23 -0.0541536 -1.66012 0
M  V30 12276 O 1129.41 -0.223881 -1.89482 0
M  V30 12277 C 1126.55 -0.859169 -3.34234 0
M  V30 12278 C 1125.67 -2.05065 -3.80227 0
M  V30 12279 C 1124.8 -1.68413 -5.03796 0
M  V30 12280 C 1123.84 -2.8407 -5.4219 0
M  V30 12281 N 1122.98 -2.47732 -6.56942 0
M  V30 12282 H 1127.82 -2.10973 -2.10463 0
M  V30 12283 H 1125.36 -1.04969 -1.03053 0
M  V30 12284 H 1127.31 -0.663064 -4.11897 0
M  V30 12285 H 1125.94 0.0496808 -3.22762 0
M  V30 12286 H 1125 -2.35808 -2.98494 0
M  V30 12287 H 1126.31 -2.91688 -4.04623 0
M  V30 12288 H 1125.46 -1.45162 -5.89078 0
M  V30 12289 H 1124.2 -0.789553 -4.81266 0
M  V30 12290 H 1123.21 -3.0799 -4.55437 0
M  V30 12291 H 1124.43 -3.74211 -5.66695 0
M  V30 12292 H 1122.38 -1.60777 -6.35993 0
M  V30 12293 H 1122.29 -3.27887 -6.81195 0
M  V30 12294 H 1123.56 -2.27831 -7.45462 0
M  V30 12295 N 1127.79 1.09952 -1.12909 0
M  V30 12296 C 1128.72 2.18477 -0.824014 0
M  V30 12297 C 1129.7 1.68744 0.214324 0
M  V30 12298 O 1130.89 1.94057 0.0744281 0
M  V30 12299 C 1128.02 3.46143 -0.283308 0
M  V30 12300 C 1126.97 4.09178 -1.25528 0
M  V30 12301 C 1126.3 5.31604 -0.574574 0
M  V30 12302 C 1127.6 4.52308 -2.6118 0
M  V30 12303 H 1129.29 2.44254 -1.73148 0
M  V30 12304 H 1126.84 1.17394 -0.833952 0
M  V30 12305 H 1128.79 4.21361 -0.057583 0
M  V30 12306 H 1127.51 3.19872 0.659525 0
M  V30 12307 H 1126.17 3.35973 -1.4669 0
M  V30 12308 H 1125.82 5.01611 0.37356 0
M  V30 12309 H 1125.52 5.74732 -1.22299 0
M  V30 12310 H 1127.04 6.0955 -0.358004 0
M  V30 12311 H 1128.46 5.18776 -2.44017 0
M  V30 12312 H 1126.86 5.06302 -3.22147 0
M  V30 12313 H 1127.93 3.64977 -3.19249 0
M  V30 12314 N 1129.27 0.921757 1.27833 0
M  V30 12315 C 1130.49 0.574599 1.99281 0
M  V30 12316 C 1130.92 -0.838905 1.68357 0
M  V30 12317 O 1130.28 -1.56196 0.920468 0
M  V30 12318 C 1130.32 0.800027 3.51613 0
M  V30 12319 O 1129.43 -0.137215 4.12172 0
M  V30 12320 H 1128.77 0.221887 0.625829 0
M  V30 12321 H 1131.3 1.23939 1.62789 0
M  V30 12322 H 1131.31 0.71326 4.01717 0
M  V30 12323 H 1129.98 1.83042 3.73455 0
M  V30 12324 H 1128.56 -0.00103872 3.729 0
M  V30 12325 N 1130.75 -1.41857 0.686609 0
M  V30 12326 C 1131.68 -2.28174 -0.0347358 0
M  V30 12327 C 1132.66 -1.41732 -0.796928 0
M  V30 12328 O 1133.84 -1.71165 -0.789607 0
M  V30 12329 C 1130.97 -3.21801 -1.0565 0
M  V30 12330 C 1130.01 -4.24727 -0.388523 0
M  V30 12331 S 1130.85 -5.28508 0.862546 0
M  V30 12332 C 1132 -6.25701 -0.157849 0
M  V30 12333 H 1132.24 -2.89005 0.697381 0
M  V30 12334 H 1129.77 -1.46861 0.476562 0
M  V30 12335 H 1131.73 -3.76278 -1.64089 0
M  V30 12336 H 1130.39 -2.60082 -1.76114 0
M  V30 12337 H 1129.58 -4.90471 -1.15991 0
M  V30 12338 H 1129.18 -3.73799 0.122567 0
M  V30 12339 H 1131.48 -6.6987 -1.01393 0
M  V30 12340 H 1132.42 -7.06569 0.465437 0
M  V30 12341 H 1132.83 -5.62204 -0.508614 0
M  V30 12342 N 1132.22 -0.430739 -1.51599 0
M  V30 12343 C 1133.15 0.374695 -2.30474 0
M  V30 12344 C 1134.14 1.02694 -1.35602 0
M  V30 12345 O 1135.32 1.03184 -1.6452 0
M  V30 12346 C 1132.45 1.47981 -3.14196 0
M  V30 12347 C 1131.4 0.951415 -4.17291 0
M  V30 12348 C 1130.73 2.15177 -4.89492 0
M  V30 12349 C 1132.03 -0.00957951 -5.22299 0
M  V30 12350 H 1133.72 -0.283508 -2.98055 0
M  V30 12351 H 1131.27 -0.13779 -1.43339 0
M  V30 12352 H 1133.22 2.05043 -3.68151 0
M  V30 12353 H 1131.95 2.16621 -2.44424 0
M  V30 12354 H 1130.61 0.403052 -3.64378 0
M  V30 12355 H 1130.25 2.82421 -4.1623 0
M  V30 12356 H 1129.95 1.80464 -5.59202 0
M  V30 12357 H 1131.48 2.72806 -5.46269 0
M  V30 12358 H 1132.89 0.470527 -5.71366 0
M  V30 12359 H 1131.29 -0.268959 -5.99497 0
M  V30 12360 H 1132.36 -0.948297 -4.75537 0
M  V30 12361 N 1133.7 1.56767 -0.161869 0
M  V30 12362 C 1134.61 2.21083 0.784814 0
M  V30 12363 C 1135.63 1.19959 1.26039 0
M  V30 12364 O 1136.8 1.52588 1.31449 0
M  V30 12365 C 1133.87 2.83153 2.00063 0
M  V30 12366 C 1132.93 3.9945 1.57285 0
M  V30 12367 C 1132.16 4.5855 2.7307 0
M  V30 12368 O 1132.39 4.16534 3.89686 0
M  V30 12369 O 1131.32 5.48575 2.47688 0
M  V30 12370 H 1135.15 3.02522 0.267243 0
M  V30 12371 H 1132.73 1.49255 0.0658783 0
M  V30 12372 H 1134.61 3.22546 2.71186 0
M  V30 12373 H 1133.29 2.04718 2.50744 0
M  V30 12374 H 1132.2 3.64745 0.831393 0
M  V30 12375 H 1133.53 4.7945 1.11304 0
M  V30 12376 N 1135.18 -0.111886 1.57202 0
M  V30 12377 C 1136.11 -1.13796 2.03894 0
M  V30 12378 C 1137.09 -1.4277 0.924696 0
M  V30 12379 O 1138.28 -1.53089 1.19488 0
M  V30 12380 C 1135.41 -2.46229 2.44925 0
M  V30 12381 C 1134.36 -2.31702 3.59859 0
M  V30 12382 C 1133.69 -3.69161 3.86813 0
M  V30 12383 C 1134.99 -1.77158 4.91337 0
M  V30 12384 H 1136.68 -0.749581 2.89865 0
M  V30 12385 H 1134.23 -0.359126 1.3945 0
M  V30 12386 H 1136.18 -3.18267 2.76195 0
M  V30 12387 H 1134.9 -2.86971 1.55933 0
M  V30 12388 H 1133.56 -1.62112 3.28809 0
M  V30 12389 H 1133.21 -4.07401 2.95015 0
M  V30 12390 H 1132.91 -3.60292 4.6418 0
M  V30 12391 H 1134.43 -4.42693 4.20542 0
M  V30 12392 H 1135.85 -2.3902 5.21097 0
M  V30 12393 H 1134.25 -1.79091 5.72753 0
M  V30 12394 H 1135.32 -0.729675 4.79379 0
M  V30 12395 N 1136.66 -1.52894 -0.382264 0
M  V30 12396 C 1137.61 -1.74531 -1.46707 0
M  V30 12397 C 1138.59 -0.599499 -1.49315 0
M  V30 12398 O 1139.78 -0.857577 -1.54837 0
M  V30 12399 C 1136.91 -1.92366 -2.84342 0
M  V30 12400 C 1136 -3.12899 -2.86278 0
M  V30 12401 N 1136.39 -4.35125 -2.57876 0
M  V30 12402 C 1134.69 -3.13282 -3.17444 0
M  V30 12403 C 1135.39 -5.16769 -2.67066 0
M  V30 12404 N 1134.37 -4.52606 -3.0108 0
M  V30 12405 H 1138.17 -2.66653 -1.23585 0
M  V30 12406 H 1135.68 -1.51292 -0.590286 0
M  V30 12407 H 1137.68 -2.0599 -3.62455 0
M  V30 12408 H 1136.34 -1.01461 -3.08441 0
M  V30 12409 H 1137.35 -4.63143 -2.31774 0
M  V30 12410 H 1134.03 -2.32211 -3.46964 0
M  V30 12411 H 1135.42 -6.24219 -2.48595 0
M  V30 12412 N 1138.14 0.641106 -1.43971 0
M  V30 12413 C 1139.39 1.39807 -1.4594 0
M  V30 12414 C 1139.71 1.94795 -0.0893874 0
M  V30 12415 O 1138.98 1.75175 0.876962 0
M  V30 12416 H 1137.56 0.518908 -0.537349 0
M  V30 12417 H 1140.22 0.755278 -1.79671 0
M  V30 12418 H 1139.31 2.23439 -2.17903 0
M  V30 12419 N 1139.62 1.30703 0.880598 0
M  V30 12420 C 1140.56 1.17369 2.00817 0
M  V30 12421 C 1141.56 0.0845159 1.69189 0
M  V30 12422 O 1142.76 0.245673 1.78316 0
M  V30 12423 H 1139.14 0.363107 0.658527 0
M  V30 12424 H 1141.11 2.12789 2.09197 0
M  V30 12425 C 1139.86 0.886851 3.362 0
M  V30 12426 H 1139.18 1.71704 3.61051 0
M  V30 12427 H 1140.62 0.83368 4.15723 0
M  V30 12428 C 1139.08 -0.410293 3.34392 0
M  V30 12429 O 1139.61 -1.43044 3.75368 0
M  V30 12430 N 1137.82 -0.423023 2.87505 0
M  V30 12431 H 1137.36 0.407637 2.54354 0
M  V30 12432 H 1137.32 -1.29086 2.86678 0
M  V30 12433 N 1141.09 -1.09351 1.1349 0
M  V30 12434 C 1142.5 -1.63035 0.909746 0
M  V30 12435 C 1142.86 -1.88229 -0.553573 0
M  V30 12436 O 1141.98 -1.63256 -1.42044 0
M  V30 12437 C 1142.58 -2.96186 1.64497 0
M  V30 12438 C 1141.13 -3.46692 1.46566 0
M  V30 12439 C 1140.28 -2.21095 1.67369 0
M  V30 12440 H 1143.23 -0.92704 1.28809 0
M  V30 12441 H 1143.25 -3.64177 1.10251 0
M  V30 12442 H 1142.77 -2.77818 2.70996 0
M  V30 12443 H 1140.87 -3.70183 0.423728 0
M  V30 12444 H 1140.98 -4.24078 2.22923 0
M  V30 12445 H 1139.34 -2.29789 1.0986 0
M  V30 12446 H 1140.13 -2.05245 2.7519 0
M  V30 12447 N 1142.57 -0.928524 -1.27343 0
M  V30 12448 C 1143.82 -0.569392 -1.9433 0
M  V30 12449 C 1144.15 0.889481 -1.7297 0
M  V30 12450 O 1143.4 1.6499 -1.05247 0
M  V30 12451 C 1143.7 -0.84269 -3.47323 0
M  V30 12452 C 1143.37 -2.28344 -3.88806 0
M  V30 12453 C 1142.03 -2.67731 -3.99842 0
M  V30 12454 C 1144.38 -3.22031 -4.09811 0
M  V30 12455 C 1141.71 -3.99928 -4.29272 0
M  V30 12456 C 1144.06 -4.5381 -4.40725 0
M  V30 12457 C 1142.72 -4.93031 -4.49975 0
M  V30 12458 H 1141.99 -0.208355 -0.711104 0
M  V30 12459 H 1144.64 -1.17264 -1.51398 0
M  V30 12460 H 1142.95 -0.156775 -3.91486 0
M  V30 12461 H 1144.64 -0.543779 -3.97296 0
M  V30 12462 H 1141.23 -1.96787 -3.80753 0
M  V30 12463 H 1145.42 -2.92803 -4.00724 0
M  V30 12464 H 1140.67 -4.29996 -4.34642 0
M  V30 12465 H 1144.85 -5.26407 -4.55926 0
M  V30 12466 H 1142.47 -5.95497 -4.72533 0
M  V30 12467 N 1144.05 1.41491 -0.694123 0
M  V30 12468 C 1144.96 2.34583 -0.0283414 0
M  V30 12469 C 1145.98 1.5615 0.767662 0
M  V30 12470 O 1147.15 1.88637 0.705556 0
M  V30 12471 C 1144.22 3.34876 0.897726 0
M  V30 12472 C 1143.28 4.29197 0.0940905 0
M  V30 12473 C 1142.51 5.24699 0.976051 0
M  V30 12474 O 1142.73 5.25613 2.21556 0
M  V30 12475 O 1141.67 6.00387 0.426503 0
M  V30 12476 H 1145.49 2.93092 -0.795656 0
M  V30 12477 H 1143.08 1.4232 -0.45445 0
M  V30 12478 H 1144.96 3.96438 1.4288 0
M  V30 12479 H 1143.64 2.78812 1.64456 0
M  V30 12480 H 1142.54 3.70988 -0.481552 0
M  V30 12481 H 1143.88 4.88355 -0.614045 0
M  V30 12482 N 1145.53 0.438773 1.51369 0
M  V30 12483 C 1146.77 -0.126367 2.04009 0
M  V30 12484 C 1147.13 -1.39837 1.31566 0
M  V30 12485 O 1148.33 -2.04384 1.74587 0
M  V30 12486 C 1146.6 -0.338531 3.55793 0
M  V30 12487 S 1148.16 -0.866869 4.30152 0
M  V30 12488 H 1144.98 -0.0311763 0.710316 0
M  V30 12489 H 1147.58 0.598507 1.86113 0
M  V30 12490 H 1146.29 0.593555 4.06085 0
M  V30 12491 H 1145.82 -1.09044 3.77985 0
M  V30 12492 H 1147.83 -2.14427 4.47477 0
M  V30 12493 N 1147.01 -1.56678 0.170181 0
M  V30 12494 C 1148.23 -2.01223 -0.481362 0
M  V30 12495 C 1148.65 -1.05039 -1.56883 0
M  V30 12496 O 1148.01 -0.0510751 -1.82429 0
M  V30 12497 C 1148.06 -3.45588 -1.06073 0
M  V30 12498 O 1147.78 -4.38097 -0.0166754 0
M  V30 12499 C 1149.28 -4.05527 -1.79061 0
M  V30 12500 H 1146.5 -0.659574 -0.1233 0
M  V30 12501 H 1149.04 -2.02689 0.271576 0
M  V30 12502 H 1147.2 -3.449 -1.76417 0
M  V30 12503 H 1147.61 -5.22615 -0.444276 0
M  V30 12504 H 1149.09 -5.08467 -2.1486 0
M  V30 12505 H 1149.56 -3.47554 -2.68519 0
M  V30 12506 H 1150.17 -4.09914 -1.13361 0
M  V30 12507 N 1148.48 0.103547 -1.57259 0
M  V30 12508 C 1149.72 0.814289 -1.8748 0
M  V30 12509 C 1150.09 1.76312 -0.760126 0
M  V30 12510 O 1151.29 2.51659 -0.944514 0
M  V30 12511 C 1149.56 1.53119 -3.22938 0
M  V30 12512 S 1151.12 2.28138 -3.74831 0
M  V30 12513 H 1147.94 0.271464 -0.657136 0
M  V30 12514 H 1150.54 0.07183 -1.95368 0
M  V30 12515 H 1149.24 0.826397 -4.01994 0
M  V30 12516 H 1148.77 2.31372 -3.18167 0
M  V30 12517 H 1150.79 3.54132 -3.4757 0
M  V30 12518 N 1149.96 1.53094 0.37415 0
M  V30 12519 C 1151.24 1.59456 1.13283 0
M  V30 12520 C 1151.62 0.396821 2.07337 0
M  V30 12521 O 1150.97 -0.613659 2.20106 0
M  V30 12522 C 1151.18 2.94069 1.87948 0
M  V30 12523 C 1152.52 3.4834 2.42785 0
M  V30 12524 O 1153.55 2.96042 1.98085 0
M  V30 12525 O 1152.41 4.39747 3.24477 0
M  V30 12526 H 1149.5 0.643731 0.519171 0
M  V30 12527 H 1152.05 1.65434 0.378105 0
M  V30 12528 H 1150.82 3.72685 1.19255 0
M  V30 12529 H 1150.44 2.91544 2.70348 0
M  V30 12530 N 1151.44 -0.633461 1.44309 0
M  V30 12531 C 1152.69 -1.38902 1.4625 0
M  V30 12532 C 1153 -1.95354 0.0980699 0
M  V30 12533 O 1154.21 -2.715 -0.0049983 0
M  V30 12534 C 1152.66 -2.51477 2.57463 0
M  V30 12535 C 1152.27 -2.01549 4.00103 0
M  V30 12536 C 1154.02 -3.28698 2.68622 0
M  V30 12537 C 1151.92 -3.11452 5.02744 0
M  V30 12538 H 1150.85 -0.521976 0.544112 0
M  V30 12539 H 1153.5 -0.681725 1.70367 0
M  V30 12540 H 1151.89 -3.24771 2.26582 0
M  V30 12541 H 1153.06 -1.35135 4.4054 0
M  V30 12542 H 1151.37 -1.3715 3.93165 0
M  V30 12543 H 1153.97 -4.10624 3.42479 0
M  V30 12544 H 1154.31 -3.78027 1.7436 0
M  V30 12545 H 1154.85 -2.62494 2.98901 0
M  V30 12546 H 1151.59 -2.6707 5.98627 0
M  V30 12547 H 1151.11 -3.76514 4.66902 0
M  V30 12548 H 1152.79 -3.76265 5.2634 0
M  V30 12549 N 1152.92 -1.31168 -0.873655 0
M  V30 12550 C 1154.17 -1.20404 -1.62319 0
M  V30 12551 C 1154.49 0.238829 -1.93532 0
M  V30 12552 O 1153.76 1.15854 -1.57971 0
M  V30 12553 H 1152.34 -0.442632 -0.601736 0
M  V30 12554 H 1155 -1.64445 -1.04613 0
M  V30 12555 H 1154.1 -1.77309 -2.56842 0
M  V30 12556 N 1154.4 1.08748 -1.14068 0
M  V30 12557 C 1155.67 1.7769 -0.81766 0
M  V30 12558 C 1156.05 1.99522 0.689501 0
M  V30 12559 O 1155.4 1.60222 1.62914 0
M  V30 12560 C 1155.61 3.09517 -1.61245 0
M  V30 12561 C 1156.96 3.84108 -1.80958 0
M  V30 12562 O 1157.98 3.19289 -1.57902 0
M  V30 12563 O 1156.84 5.00491 -2.19479 0
M  V30 12564 H 1153.94 0.770953 -0.299265 0
M  V30 12565 H 1156.48 1.15242 -1.24569 0
M  V30 12566 H 1155.25 2.89155 -2.63638 0
M  V30 12567 H 1154.88 3.79692 -1.17982 0
M  V30 12568 N 1155.87 0.935264 1.26849 0
M  V30 12569 C 1157.12 0.57969 1.94025 0
M  V30 12570 C 1157.45 -0.880295 1.73439 0
M  V30 12571 O 1156.7 -1.64429 1.0612 0
M  V30 12572 C 1157 0.861098 3.46872 0
M  V30 12573 C 1156.67 2.30402 3.87589 0
M  V30 12574 C 1155.33 2.69848 3.98417 0
M  V30 12575 C 1157.68 3.242 4.08098 0
M  V30 12576 C 1155.01 4.02199 4.27145 0
M  V30 12577 C 1157.36 4.56141 4.38313 0
M  V30 12578 C 1156.03 4.9541 4.47354 0
M  V30 12579 H 1155.3 0.212123 0.709989 0
M  V30 12580 H 1157.94 1.18066 1.50774 0
M  V30 12581 H 1156.25 0.177534 3.91398 0
M  V30 12582 H 1157.95 0.564841 3.97002 0
M  V30 12583 H 1154.54 1.98803 3.79704 0
M  V30 12584 H 1158.72 2.94924 3.99166 0
M  V30 12585 H 1153.98 4.32295 4.32355 0
M  V30 12586 H 1158.15 5.28818 4.53128 0
M  V30 12587 H 1155.78 5.97994 4.69368 0
M  V30 12588 N 1157.35 -1.41121 0.701616 0
M  V30 12589 C 1158.77 -1.55162 0.373766 0
M  V30 12590 C 1158.97 -1.6759 -1.11875 0
M  V30 12591 O 1158.02 -1.65768 -1.90465 0
M  V30 12592 C 1159.34 -2.78758 1.12759 0
M  V30 12593 C 1160.89 -2.92561 1.11253 0
M  V30 12594 C 1161.36 -4.19052 1.84822 0
M  V30 12595 N 1162.85 -4.26023 1.81821 0
M  V30 12596 C 1163.59 -5.22771 2.3558 0
M  V30 12597 N 1163.08 -6.25512 2.97836 0
M  V30 12598 N 1164.88 -5.14752 2.25802 0
M  V30 12599 H 1157.03 -1.31299 1.66956 0
M  V30 12600 H 1159.29 -0.633894 0.704898 0
M  V30 12601 H 1159 -2.75804 2.18231 0
M  V30 12602 H 1158.87 -3.70456 0.710095 0
M  V30 12603 H 1161.26 -2.95026 0.0660506 0
M  V30 12604 H 1161.34 -2.0202 1.56913 0
M  V30 12605 H 1160.98 -4.17349 2.89452 0
M  V30 12606 H 1160.91 -5.08577 1.36592 0
M  V30 12607 H 1163.4 -3.52411 1.36438 0
M  V30 12608 H 1163.72 -6.95736 3.36409 0
M  V30 12609 H 1162.06 -6.25997 3.01916 0
M  V30 12610 H 1165.25 -4.33414 1.76833 0
M  V30 12611 H 1165.42 -5.89983 2.68001 0
M  V30 12612 N 1158.83 -0.446794 -1.51134 0
M  V30 12613 C 1160.25 -0.0995905 -1.59289 0
M  V30 12614 C 1160.45 1.39191 -1.45699 0
M  V30 12615 O 1159.5 2.1628 -1.30303 0
M  V30 12616 C 1160.82 -0.628135 -2.94066 0
M  V30 12617 C 1162.36 -0.589409 -3.074 0
M  V30 12618 C 1162.84 -1.09509 -4.44715 0
M  V30 12619 N 1164.33 -1.05347 -4.51061 0
M  V30 12620 C 1165.06 -1.41551 -5.55654 0
M  V30 12621 N 1164.56 -1.85086 -6.67619 0
M  V30 12622 N 1166.35 -1.33307 -5.46064 0
M  V30 12623 H 1158.5 -1.41713 -1.58213 0
M  V30 12624 H 1160.77 -0.584555 -0.746324 0
M  V30 12625 H 1160.47 -1.67205 -3.09411 0
M  V30 12626 H 1160.35 -0.0582398 -3.77155 0
M  V30 12627 H 1162.73 0.445541 -2.91717 0
M  V30 12628 H 1162.82 -1.19582 -2.26128 0
M  V30 12629 H 1162.46 -2.12855 -4.61146 0
M  V30 12630 H 1162.39 -0.465122 -5.24542 0
M  V30 12631 H 1164.88 -0.733877 -3.70706 0
M  V30 12632 H 1165.19 -2.10923 -7.43459 0
M  V30 12633 H 1163.54 -1.8902 -6.68802 0
M  V30 12634 H 1166.73 -0.991547 -4.57478 0
M  V30 12635 H 1166.9 -1.6185 -6.27462 0
M  V30 12636 N 1160.31 1.56586 -0.178487 0
M  V30 12637 C 1161.55 1.98159 0.45876 0
M  V30 12638 C 1161.91 1.0629 1.60375 0
M  V30 12639 O 1161.2 0.103975 1.91318 0
M  V30 12640 C 1161.4 3.43629 0.982552 0
M  V30 12641 C 1161.23 4.49565 -0.110152 0
M  V30 12642 C 1160 5.02162 -0.562228 0
M  V30 12643 C 1162.19 5.06129 -0.913143 0
M  V30 12644 N 1160.18 5.91741 -1.63449 0
M  V30 12645 C 1161.55 5.92217 -1.83517 0
M  V30 12646 C 1163.6 4.88608 -0.957421 0
M  V30 12647 C 1162.3 6.6266 -2.79775 0
M  V30 12648 C 1164.33 5.59777 -1.90798 0
M  V30 12649 C 1163.69 6.45599 -2.81747 0
M  V30 12650 H 1159.79 0.770124 0.13577 0
M  V30 12651 H 1162.38 1.92671 -0.280358 0
M  V30 12652 H 1160.55 3.49649 1.69117 0
M  V30 12653 H 1162.28 3.72199 1.58902 0
M  V30 12654 H 1159.03 4.73334 -0.158612 0
M  V30 12655 H 1159.46 6.41235 -2.17132 0
M  V30 12656 H 1164.1 4.21948 -0.268285 0
M  V30 12657 H 1161.82 7.28529 -3.49673 0
M  V30 12658 H 1165.4 5.48204 -1.94844 0
M  V30 12659 H 1164.28 6.99701 -3.54102 0
M  V30 12660 N 1161.79 -0.095206 1.57312 0
M  V30 12661 C 1162.72 -1.14662 1.97301 0
M  V30 12662 C 1163.7 -1.38845 0.846212 0
M  V30 12663 O 1164.88 -1.52607 1.1065 0
M  V30 12664 C 1162.01 -2.49582 2.28968 0
M  V30 12665 C 1161.05 -2.41681 3.51415 0
M  V30 12666 S 1161.89 -1.83343 5.03136 0
M  V30 12667 C 1163.04 -3.19888 5.3798 0
M  V30 12668 H 1163.28 -0.805726 2.86174 0
M  V30 12669 H 1160.81 -0.302881 1.514 0
M  V30 12670 H 1162.77 -3.27202 2.47889 0
M  V30 12671 H 1161.43 -2.80841 1.40667 0
M  V30 12672 H 1160.62 -3.41122 3.71015 0
M  V30 12673 H 1160.22 -1.7219 3.32004 0
M  V30 12674 H 1162.52 -4.16161 5.34618 0
M  V30 12675 H 1163.46 -3.05093 6.39002 0
M  V30 12676 H 1163.87 -3.19414 4.6544 0
M  V30 12677 N 1163.26 -1.53291 -0.366026 0
M  V30 12678 C 1164.54 -1.60055 -1.12436 0
M  V30 12679 C 1164.92 -0.407811 -2.07123 0
M  V30 12680 O 1164.27 0.601977 -2.20428 0
M  V30 12681 C 1164.48 -2.95062 -1.86385 0
M  V30 12682 C 1165.83 -3.49623 -2.40934 0
M  V30 12683 O 1166.85 -2.97088 -1.96512 0
M  V30 12684 O 1165.71 -4.41461 -3.2214 0
M  V30 12685 H 1162.8 -0.646476 -0.51575 0
M  V30 12686 H 1165.35 -1.65632 -0.369326 0
M  V30 12687 H 1164.12 -3.73312 -1.17277 0
M  V30 12688 H 1163.75 -2.92973 -2.68798 0
M  V30 12689 N 1164.74 0.6258 -1.44643 0
M  V30 12690 C 1165.65 1.76611 -1.5442 0
M  V30 12691 C 1166.67 1.68614 -0.429576 0
M  V30 12692 O 1167.84 1.89296 -0.687686 0
M  V30 12693 C 1164.91 3.13015 -1.49071 0
M  V30 12694 C 1163.97 3.32604 -2.71428 0
M  V30 12695 C 1163.2 4.62501 -2.66325 0
M  V30 12696 O 1163.43 5.43651 -1.72626 0
M  V30 12697 O 1162.36 4.84408 -3.57258 0
M  V30 12698 H 1166.19 1.71315 -2.50769 0
M  V30 12699 H 1163.77 0.787677 -1.26949 0
M  V30 12700 H 1165.65 3.94318 -1.48631 0
M  V30 12701 H 1164.33 3.18842 -0.558686 0
M  V30 12702 H 1163.24 2.50959 -2.77435 0
M  V30 12703 H 1164.57 3.31642 -3.63695 0
M  V30 12704 N 1166.22 1.31629 0.866686 0
M  V30 12705 C 1167.17 1.16149 1.96197 0
M  V30 12706 C 1168.15 0.0716068 1.60741 0
M  V30 12707 O 1169.35 0.296868 1.74493 0
M  V30 12708 C 1166.48 0.874322 3.3198 0
M  V30 12709 C 1165.56 2.00534 3.73693 0
M  V30 12710 N 1165.95 3.25272 3.87339 0
M  V30 12711 C 1164.25 1.90582 4.0323 0
M  V30 12712 C 1164.95 3.99275 4.2303 0
M  V30 12713 N 1163.93 3.27471 4.33894 0
M  V30 12714 H 1167.73 2.10732 2.04864 0
M  V30 12715 H 1165.24 1.23234 1.05769 0
M  V30 12716 H 1167.24 0.7444 4.102 0
M  V30 12717 H 1165.9 -0.0632521 3.24638 0
M  V30 12718 H 1166.91 3.60349 3.71979 0
M  V30 12719 H 1163.59 1.0431 4.0426 0
M  V30 12720 H 1164.98 5.06784 4.41157 0
M  V30 12721 N 1167.7 -1.08142 1.14644 0
M  V30 12722 C 1168.63 -2.17139 0.858667 0
M  V30 12723 C 1169.61 -1.69064 -0.187452 0
M  V30 12724 O 1170.8 -1.94151 -0.0435458 0
M  V30 12725 C 1167.93 -3.45648 0.33834 0
M  V30 12726 C 1166.88 -4.07129 1.32021 0
M  V30 12727 C 1166.21 -5.30623 0.659075 0
M  V30 12728 C 1167.51 -4.48095 2.68343 0
M  V30 12729 H 1169.2 -2.41468 1.77012 0
M  V30 12730 H 1166.75 -1.16052 0.852523 0
M  V30 12731 H 1168.7 -4.21216 0.124611 0
M  V30 12732 H 1167.42 -3.2088 -0.608553 0
M  V30 12733 H 1166.08 -3.33596 1.52016 0
M  V30 12734 H 1165.73 -5.02142 -0.293711 0
M  V30 12735 H 1165.43 -5.72714 1.31427 0
M  V30 12736 H 1166.95 -6.08903 0.454933 0
M  V30 12737 H 1168.37 -5.14828 2.5224 0
M  V30 12738 H 1166.76 -5.01113 3.30161 0
M  V30 12739 H 1167.83 -3.59852 3.25015 0
M  V30 12740 N 1169.18 -0.941978 -1.26351 0
M  V30 12741 C 1170.13 -0.443011 -2.28342 0
M  V30 12742 C 1171.12 0.48013 -1.62453 0
M  V30 12743 O 1172.33 0.358255 -1.76399 0
M  V30 12744 H 1168.7 -0.124728 -0.741584 0
M  V30 12745 H 1170.67 -1.31573 -2.67827 0
M  V30 12746 C 1169.42 0.275675 -3.46605 0
M  V30 12747 H 1168.74 -0.425504 -3.97529 0
M  V30 12748 H 1170.18 0.589012 -4.19889 0
M  V30 12749 C 1168.64 1.49376 -3.01974 0
M  V30 12750 O 1169.17 2.59203 -3.06883 0
M  V30 12751 N 1167.38 1.35061 -2.57307 0
M  V30 12752 H 1166.93 0.457045 -2.53513 0
M  V30 12753 H 1166.88 2.16681 -2.27809 0
M  V30 12754 N 1170.66 1.40747 -0.709091 0
M  V30 12755 C 1171.9 2.013 -0.246174 0
M  V30 12756 C 1172.23 1.56078 1.15556 0
M  V30 12757 O 1171.51 0.777941 1.78265 0
M  V30 12758 C 1171.79 3.58685 -0.318945 0
M  V30 12759 C 1171.65 4.13997 -1.75859 0
M  V30 12760 C 1172.96 4.38981 0.31358 0
M  V30 12761 H 1170.08 0.73137 -0.0909255 0
M  V30 12762 H 1172.73 1.67312 -0.900365 0
M  V30 12763 H 1170.88 3.8777 0.23805 0
M  V30 12764 H 1172.55 3.95735 -2.37047 0
M  V30 12765 H 1170.79 3.6853 -2.28841 0
M  V30 12766 H 1171.46 5.23158 -1.76095 0
M  V30 12767 H 1173.94 4.15789 -0.160939 0
M  V30 12768 H 1172.81 5.48409 0.232184 0
M  V30 12769 H 1173.07 4.19474 1.39621 0
M  V30 12770 N 1172.13 0.454803 1.50895 0
M  V30 12771 C 1173.08 -0.347769 2.28165 0
M  V30 12772 C 1174.05 -1.00158 1.32505 0
M  V30 12773 O 1175.24 -1.01715 1.61427 0
M  V30 12774 C 1172.38 -1.43315 3.13934 0
M  V30 12775 C 1171.49 -0.795736 4.24608 0
M  V30 12776 C 1170.62 -1.85763 4.9766 0
M  V30 12777 C 1169.66 -1.19959 6.0023 0
M  V30 12778 N 1168.8 -2.20361 6.66622 0
M  V30 12779 H 1173.64 0.317493 2.96304 0
M  V30 12780 H 1171.18 0.168418 1.46133 0
M  V30 12781 H 1173.13 -2.07391 3.62001 0
M  V30 12782 H 1171.76 -2.0678 2.47875 0
M  V30 12783 H 1170.82 -0.0428173 3.80376 0
M  V30 12784 H 1172.13 -0.275477 4.98039 0
M  V30 12785 H 1171.28 -2.5746 5.49363 0
M  V30 12786 H 1170.02 -2.41166 4.23899 0
M  V30 12787 H 1169.03 -0.46817 5.47803 0
M  V30 12788 H 1170.25 -0.652666 6.75956 0
M  V30 12789 H 1168.2 -2.74812 5.95663 0
M  V30 12790 H 1168.11 -1.73275 7.35875 0
M  V30 12791 H 1169.38 -2.91488 7.22949 0
M  V30 12792 N 1173.61 -1.56489 0.186789 0
M  V30 12793 C 1174.86 -1.96517 -0.45433 0
M  V30 12794 C 1175.17 -1.07618 -1.63333 0
M  V30 12795 O 1176.38 -1.37392 -2.3417 0
M  V30 12796 C 1174.84 -3.49482 -0.859685 0
M  V30 12797 C 1174.44 -4.47031 0.294572 0
M  V30 12798 C 1176.19 -3.98296 -1.46835 0
M  V30 12799 C 1174.09 -5.91254 -0.131279 0
M  V30 12800 H 1173.02 -0.733765 -0.17351 0
M  V30 12801 H 1175.68 -1.8139 0.277485 0
M  V30 12802 H 1174.06 -3.60082 -1.64793 0
M  V30 12803 H 1175.23 -4.48156 1.07205 0
M  V30 12804 H 1173.55 -4.08362 0.814197 0
M  V30 12805 H 1176.14 -5.03518 -1.79928 0
M  V30 12806 H 1176.49 -3.42123 -2.37186 0
M  V30 12807 H 1177.02 -3.90776 -0.744247 0
M  V30 12808 H 1173.76 -6.51334 0.737839 0
M  V30 12809 H 1173.28 -5.93401 -0.873786 0
M  V30 12810 H 1174.96 -6.44485 -0.569913 0
M  V30 12811 N 1175.09 0.086862 -1.5736 0
M  V30 12812 C 1176.5 0.640442 -1.75372 0
M  V30 12813 C 1176.85 1.78693 -0.81014 0
M  V30 12814 O 1175.98 2.16398 0.00940712 0
M  V30 12815 C 1176.57 1.16856 -3.1801 0
M  V30 12816 C 1175.13 1.66813 -3.37417 0
M  V30 12817 C 1174.28 0.58116 -2.71142 0
M  V30 12818 H 1177.23 -0.139249 -1.58088 0
M  V30 12819 H 1177.25 2.03772 -3.21337 0
M  V30 12820 H 1176.76 0.333909 -3.86661 0
M  V30 12821 H 1174.86 2.52652 -2.73858 0
M  V30 12822 H 1174.98 1.75545 -4.45781 0
M  V30 12823 H 1173.34 1.0226 -2.3327 0
M  V30 12824 H 1174.12 -0.243047 -3.42439 0
M  V30 12825 N 1176.57 1.53483 0.357892 0
M  V30 12826 C 1177.98 1.43426 0.700073 0
M  V30 12827 C 1178.18 0.579493 1.92987 0
M  V30 12828 O 1177.24 0.0649086 2.52417 0
M  V30 12829 C 1178.55 2.86723 0.906099 0
M  V30 12830 C 1180.1 2.96405 1.00563 0
M  V30 12831 C 1180.58 4.4078 1.24407 0
M  V30 12832 N 1182.07 4.44243 1.3116 0
M  V30 12833 C 1182.8 5.53069 1.51333 0
M  V30 12834 N 1182.3 6.71928 1.68774 0
M  V30 12835 N 1184.09 5.40659 1.53765 0
M  V30 12836 H 1176.24 2.07559 -0.450894 0
M  V30 12837 H 1178.5 0.937649 -0.139711 0
M  V30 12838 H 1178.21 3.51622 0.0741579 0
M  V30 12839 H 1178.08 3.30827 1.81199 0
M  V30 12840 H 1180.47 2.31656 1.8281 0
M  V30 12841 H 1180.55 2.55684 0.0769512 0
M  V30 12842 H 1180.2 5.06105 0.426575 0
M  V30 12843 H 1180.13 4.7908 2.18608 0
M  V30 12844 H 1182.62 3.58587 1.19265 0
M  V30 12845 H 1182.93 7.50634 1.83762 0
M  V30 12846 H 1181.28 6.749 1.65937 0
M  V30 12847 H 1184.47 4.46764 1.39713 0
M  V30 12848 H 1184.64 6.25535 1.69146 0
M  V30 12849 N 1178.05 -0.61812 1.44973 0
M  V30 12850 C 1178.98 -1.74035 1.55673 0
M  V30 12851 C 1179.96 -1.65112 0.4089 0
M  V30 12852 O 1181.14 -1.83673 0.630698 0
M  V30 12853 C 1178.27 -3.1261 1.51303 0
M  V30 12854 C 1177.23 -3.36334 2.64696 0
M  V30 12855 C 1176.55 -4.75072 2.45378 0
M  V30 12856 C 1177.85 -3.27618 4.06772 0
M  V30 12857 H 1179.55 -1.65336 2.49608 0
M  V30 12858 H 1177.09 -0.794003 1.20132 0
M  V30 12859 H 1179.04 -3.90906 1.57388 0
M  V30 12860 H 1177.77 -3.22123 0.538914 0
M  V30 12861 H 1176.43 -2.60423 2.58022 0
M  V30 12862 H 1176.08 -4.81306 1.46129 0
M  V30 12863 H 1175.78 -4.91903 3.21412 0
M  V30 12864 H 1177.3 -5.55582 2.53301 0
M  V30 12865 H 1178.71 -3.95802 4.14746 0
M  V30 12866 H 1177.11 -3.55981 4.83113 0
M  V30 12867 H 1178.18 -2.25219 4.29423 0
M  V30 12868 N 1179.52 -1.32087 -0.859693 0
M  V30 12869 C 1180.77 -1.22542 -1.6159 0
M  V30 12870 C 1181.1 0.213533 -1.93022 0
M  V30 12871 O 1180.38 1.14931 -1.56911 0
M  V30 12872 C 1180.66 -2.08004 -2.93949 0
M  V30 12873 C 1180.51 -3.60252 -2.6933 0
M  V30 12874 C 1181.83 -1.93732 -3.95166 0
M  V30 12875 H 1178.95 -0.446504 -0.586347 0
M  V30 12876 H 1181.59 -1.61982 -0.993064 0
M  V30 12877 H 1179.74 -1.74498 -3.47106 0
M  V30 12878 H 1181.42 -4.03947 -2.22766 0
M  V30 12879 H 1179.66 -3.83169 -2.03382 0
M  V30 12880 H 1180.33 -4.1537 -3.63555 0
M  V30 12881 H 1182.81 -2.23075 -3.5125 0
M  V30 12882 H 1181.68 -2.55815 -4.85644 0
M  V30 12883 H 1181.94 -0.903528 -4.32769 0
M  V30 12884 N 1181 1.07532 -1.15215 0
M  V30 12885 C 1182.28 1.76813 -0.83646 0
M  V30 12886 C 1182.66 2.00242 0.6683 0
M  V30 12887 O 1182.01 1.61941 1.61206 0
M  V30 12888 C 1182.22 3.0779 -1.64519 0
M  V30 12889 C 1183.56 3.82168 -1.85022 0
M  V30 12890 O 1184.59 3.17596 -1.61279 0
M  V30 12891 O 1183.45 4.98135 -2.24775 0
M  V30 12892 H 1180.54 0.767736 -0.307426 0
M  V30 12893 H 1183.09 1.13914 -1.25784 0
M  V30 12894 H 1181.86 2.86342 -2.6669 0
M  V30 12895 H 1181.48 3.78419 -1.22002 0
M  V30 12896 N 1182.48 0.948665 1.2585 0
M  V30 12897 C 1183.73 0.601125 1.93686 0
M  V30 12898 C 1184.06 -0.858779 1.7418 0
M  V30 12899 O 1183.33 -1.61539 1.0833 0
M  V30 12900 C 1183.62 0.95333 3.47252 0
M  V30 12901 C 1183.47 2.46853 3.7601 0
M  V30 12902 C 1184.79 0.474098 4.37539 0
M  V30 12903 H 1181.91 0.219864 0.703441 0
M  V30 12904 H 1184.55 1.18424 1.48579 0
M  V30 12905 H 1182.7 0.457114 3.85801 0
M  V30 12906 H 1184.37 3.03804 3.47132 0
M  V30 12907 H 1182.62 2.9088 3.21825 0
M  V30 12908 H 1183.29 2.66547 4.83381 0
M  V30 12909 H 1185.76 0.899664 4.06258 0
M  V30 12910 H 1184.64 0.749287 5.43762 0
M  V30 12911 H 1184.9 -0.625961 4.37646 0
M  V30 12912 N 1183.96 -1.40369 0.716545 0
M  V30 12913 C 1185.21 -2.00101 0.253452 0
M  V30 12914 C 1185.52 -1.57471 -1.16027 0
M  V30 12915 O 1186.73 -2.09909 -1.72193 0
M  V30 12916 C 1185.18 -3.57645 0.402213 0
M  V30 12917 C 1184.79 -4.09248 1.82264 0
M  V30 12918 C 1186.53 -4.245 -3.88526e-05 0
M  V30 12919 C 1184.44 -5.59299 1.92193 0
M  V30 12920 H 1183.37 -0.748488 0.0910047 0
M  V30 12921 H 1186.02 -1.60595 0.887772 0
M  V30 12922 H 1184.4 -3.94857 -0.300706 0
M  V30 12923 H 1185.58 -3.83412 2.55601 0
M  V30 12924 H 1183.89 -3.54993 2.17644 0
M  V30 12925 H 1186.49 -5.34673 0.0534202 0
M  V30 12926 H 1186.83 -4.03046 -1.04208 0
M  V30 12927 H 1187.37 -3.92398 0.65336 0
M  V30 12928 H 1184.11 -5.85608 2.94522 0
M  V30 12929 H 1183.63 -5.86997 1.23268 0
M  V30 12930 H 1185.3 -6.24416 1.6945 0
M  V30 12931 N 1185.44 -0.462799 -1.50652 0
M  V30 12932 C 1186.68 0.0938945 -2.04184 0
M  V30 12933 C 1187.04 1.37726 -1.33774 0
M  V30 12934 O 1188.24 2.01581 -1.77817 0
M  V30 12935 C 1186.51 0.281884 -3.56287 0
M  V30 12936 S 1188.07 0.798326 -4.31477 0
M  V30 12937 H 1184.89 0.0198719 -0.710722 0
M  V30 12938 H 1187.49 -0.62804 -1.85138 0
M  V30 12939 H 1186.2 -0.658084 -4.05089 0
M  V30 12940 H 1185.73 1.03017 -3.79672 0
M  V30 12941 H 1187.74 2.07281 -4.50832 0
M  V30 12942 N 1186.91 1.56388 -0.195085 0
M  V30 12943 C 1187.88 2.17859 0.712053 0
M  V30 12944 C 1188.88 1.13304 1.141 0
M  V30 12945 O 1190.07 1.38689 1.05409 0
M  V30 12946 C 1187.2 2.78065 1.97213 0
M  V30 12947 H 1188.39 2.9938 0.176529 0
M  V30 12948 H 1185.95 1.56205 0.0545322 0
M  V30 12949 H 1186.68 2.00342 2.55017 0
M  V30 12950 H 1186.47 3.54603 1.67329 0
M  V30 12951 H 1187.96 3.25266 2.619 0
M  V30 12952 N 1188.39 -0.0785156 1.57404 0
M  V30 12953 C 1189.62 -0.795871 1.91522 0
M  V30 12954 C 1190.04 -1.70665 0.790892 0
M  V30 12955 O 1189.4 -1.79474 -0.25666 0
M  V30 12956 C 1189.45 -1.57121 3.24569 0
M  V30 12957 O 1188.55 -2.6814 3.13328 0
M  V30 12958 H 1187.89 -0.217575 0.627341 0
M  V30 12959 H 1190.42 -0.0487724 2.04542 0
M  V30 12960 H 1190.43 -1.9519 3.5828 0
M  V30 12961 H 1189.11 -0.902909 4.05981 0
M  V30 12962 H 1187.69 -2.32978 2.91163 0
M  V30 12963 N 1189.87 -1.5367 -0.349747 0
M  V30 12964 C 1191.28 -1.62135 -0.925704 0
M  V30 12965 C 1191.63 -0.498725 -1.89756 0
M  V30 12966 O 1190.76 0.372481 -2.1317 0
M  V30 12967 C 1191.35 -2.93885 -1.68573 0
M  V30 12968 C 1189.91 -3.04632 -2.2108 0
M  V30 12969 C 1189.06 -2.57541 -1.02801 0
M  V30 12970 H 1192.01 -1.58182 -0.128065 0
M  V30 12971 H 1192.03 -2.82577 -2.54815 0
M  V30 12972 H 1191.54 -3.75571 -0.978153 0
M  V30 12973 H 1189.64 -2.27567 -2.95032 0
M  V30 12974 H 1189.76 -4.09993 -2.47876 0
M  V30 12975 H 1188.12 -2.12798 -1.39962 0
M  V30 12976 H 1188.9 -3.4166 -0.335157 0
M  V30 12977 N 1191.35 0.610423 -1.45298 0
M  V30 12978 C 1192.6 1.3668 -1.48872 0
M  V30 12979 C 1192.92 1.94562 -0.130686 0
M  V30 12980 O 1192.19 1.76996 0.839607 0
M  V30 12981 H 1190.77 0.507393 -0.548235 0
M  V30 12982 H 1193.43 0.716997 -1.81232 0
M  V30 12983 H 1192.53 2.18766 -2.22593 0
M  V30 12984 N 1192.83 1.32541 0.852676 0
M  V30 12985 C 1194.1 1.1383 1.59067 0
M  V30 12986 C 1194.48 -0.300584 2.08949 0
M  V30 12987 O 1193.83 -1.29751 1.88088 0
M  V30 12988 C 1194.04 2.16758 2.73527 0
M  V30 12989 C 1195.39 2.50194 3.43057 0
M  V30 12990 O 1196.41 2.15319 2.83754 0
M  V30 12991 O 1195.27 3.09985 4.50079 0
M  V30 12992 H 1192.37 0.439379 0.700625 0
M  V30 12993 H 1194.91 1.44078 0.896632 0
M  V30 12994 H 1193.68 3.13469 2.34207 0
M  V30 12995 H 1193.31 1.87515 3.50605 0
M  V30 12996 N 1194.3 -1.0692 1.15784 0
M  V30 12997 C 1195.24 -2.14168 0.816375 0
M  V30 12998 C 1196.25 -1.61872 -0.17357 0
M  V30 12999 O 1197.44 -1.78429 0.0502973 0
M  V30 13000 C 1194.54 -3.38346 0.193682 0
M  V30 13001 C 1193.71 -4.19979 1.22215 0
M  V30 13002 C 1192.77 -5.2253 0.620424 0
M  V30 13003 O 1191.8 -5.54446 1.28757 0
M  V30 13004 N 1193 -5.77434 -0.595811 0
M  V30 13005 H 1195.76 -2.44062 1.73937 0
M  V30 13006 H 1193.32 -1.22865 1.05431 0
M  V30 13007 H 1195.32 -4.04092 -0.22174 0
M  V30 13008 H 1193.89 -3.06129 -0.632735 0
M  V30 13009 H 1193.11 -3.49984 1.81397 0
M  V30 13010 H 1194.39 -4.71329 1.91641 0
M  V30 13011 H 1193.79 -5.5376 -1.15611 0
M  V30 13012 H 1192.35 -6.44788 -0.953529 0
M  V30 13013 N 1195.78 -0.955326 -1.25345 0
M  V30 13014 C 1197.2 -0.659863 -1.4532 0
M  V30 13015 C 1197.4 0.78238 -1.85691 0
M  V30 13016 O 1196.45 1.5576 -1.98734 0
M  V30 13017 C 1197.77 -1.63339 -2.5247 0
M  V30 13018 C 1199.32 -1.64464 -2.66309 0
M  V30 13019 C 1199.79 -2.60583 -3.76644 0
M  V30 13020 N 1201.28 -2.58951 -3.84055 0
M  V30 13021 C 1202.02 -3.30002 -4.6892 0
M  V30 13022 N 1201.51 -4.10528 -5.58067 0
M  V30 13023 N 1203.31 -3.18886 -4.62891 0
M  V30 13024 H 1195.46 -1.88734 -0.97433 0
M  V30 13025 H 1197.72 -0.811858 -0.48948 0
M  V30 13026 H 1197.43 -2.66358 -2.29665 0
M  V30 13027 H 1197.3 -1.39644 -3.50399 0
M  V30 13028 H 1199.69 -0.621622 -2.88479 0
M  V30 13029 H 1199.77 -1.92218 -1.68778 0
M  V30 13030 H 1199.41 -3.63011 -3.55226 0
M  V30 13031 H 1199.34 -2.30113 -4.73662 0
M  V30 13032 H 1201.83 -2.00491 -3.20331 0
M  V30 13033 H 1202.15 -4.6166 -6.1975 0
M  V30 13034 H 1200.49 -4.14626 -5.57773 0
M  V30 13035 H 1203.68 -2.55447 -3.92255 0
M  V30 13036 H 1203.85 -3.74524 -5.28806 0
M  V30 13037 N 1197.26 1.39987 -0.723979 0
M  V30 13038 C 1198.51 2.00334 -0.266587 0
M  V30 13039 C 1198.83 1.57714 1.14679 0
M  V30 13040 O 1198.1 0.82037 1.77895 0
M  V30 13041 H 1196.68 0.740861 -0.095573 0
M  V30 13042 H 1199.34 1.712 -0.931481 0
M  V30 13043 H 1198.44 3.10594 -0.306282 0
M  V30 13044 N 1198.74 0.470782 1.50404 0
M  V30 13045 C 1199.69 -0.32355 2.28521 0
M  V30 13046 C 1200.66 -0.987472 1.3356 0
M  V30 13047 O 1201.84 -0.999969 1.62497 0
M  V30 13048 C 1198.98 -1.39977 3.15437 0
M  V30 13049 C 1198.09 -0.750656 4.25428 0
M  V30 13050 C 1197.23 -1.80474 4.99602 0
M  V30 13051 C 1196.27 -1.13586 6.01469 0
M  V30 13052 N 1195.41 -2.13279 6.68922 0
M  V30 13053 H 1200.25 0.348902 2.9595 0
M  V30 13054 H 1197.78 0.183908 1.45946 0
M  V30 13055 H 1199.74 -2.0354 3.6418 0
M  V30 13056 H 1198.37 -2.04139 2.50054 0
M  V30 13057 H 1197.42 -0.00247092 3.804 0
M  V30 13058 H 1198.73 -0.222638 4.98303 0
M  V30 13059 H 1197.89 -2.51619 5.52062 0
M  V30 13060 H 1196.63 -2.36657 4.26433 0
M  V30 13061 H 1195.63 -0.410042 5.48269 0
M  V30 13062 H 1196.86 -0.580935 6.76611 0
M  V30 13063 H 1194.8 -2.68479 5.98544 0
M  V30 13064 H 1194.72 -1.65461 7.37671 0
M  V30 13065 H 1195.99 -2.83804 7.26 0
M  V30 13066 N 1200.22 -1.56282 0.203376 0
M  V30 13067 C 1201.44 -2.02643 -0.441658 0
M  V30 13068 C 1201.87 -1.0825 -1.5383 0
M  V30 13069 O 1201.23 -0.0674337 -1.81175 0
M  V30 13070 C 1201.27 -3.47382 -0.967369 0
M  V30 13071 O 1200.38 -3.56115 -2.07981 0
M  V30 13072 H 1199.72 -0.656081 -0.102242 0
M  V30 13073 H 1202.25 -2.02134 0.316684 0
M  V30 13074 H 1202.26 -3.8734 -1.28186 0
M  V30 13075 H 1200.93 -4.15574 -0.164625 0
M  V30 13076 H 1199.51 -3.28035 -1.77334 0
M  V30 13077 N 1201.7 0.070167 -1.57444 0
M  V30 13078 C 1202.94 0.767842 -1.86513 0
M  V30 13079 C 1203.26 1.78659 -0.796257 0
M  V30 13080 O 1204.46 2.53395 -0.974845 0
M  V30 13081 C 1202.92 1.41654 -3.30851 0
M  V30 13082 C 1202.53 0.436273 -4.45871 0
M  V30 13083 C 1204.27 2.09649 -3.69117 0
M  V30 13084 C 1202.18 1.09098 -5.8125 0
M  V30 13085 H 1201.11 0.290519 -0.695784 0
M  V30 13086 H 1203.76 0.0211697 -1.83488 0
M  V30 13087 H 1202.14 2.21153 -3.28493 0
M  V30 13088 H 1203.32 -0.329022 -4.59624 0
M  V30 13089 H 1201.63 -0.139314 -4.16167 0
M  V30 13090 H 1204.23 2.59411 -4.67558 0
M  V30 13091 H 1204.57 2.89663 -2.99 0
M  V30 13092 H 1205.1 1.36979 -3.73472 0
M  V30 13093 H 1201.84 0.331128 -6.54663 0
M  V30 13094 H 1201.36 1.8271 -5.71294 0
M  V30 13095 H 1203.04 1.61034 -6.2664 0
M  V30 13096 N 1203.17 1.53854 0.341593 0
M  V30 13097 C 1204.42 1.71447 1.08322 0
M  V30 13098 C 1204.75 0.477289 1.88243 0
M  V30 13099 O 1204.03 -0.525695 1.87261 0
M  V30 13100 C 1204.31 2.97917 2.02281 0
M  V30 13101 C 1204.16 4.31847 1.25809 0
M  V30 13102 C 1205.48 3.20065 3.0207 0
M  V30 13103 H 1202.6 0.623847 0.392408 0
M  V30 13104 H 1205.24 1.86527 0.361594 0
M  V30 13105 H 1203.39 2.85191 2.63815 0
M  V30 13106 H 1205.07 4.56427 0.668737 0
M  V30 13107 H 1203.31 4.30169 0.560119 0
M  V30 13108 H 1203.98 5.16522 1.94704 0
M  V30 13109 H 1206.46 3.32135 2.50651 0
M  V30 13110 H 1205.33 4.09947 3.65013 0
M  V30 13111 H 1205.59 2.36452 3.73554 0
M  V30 13112 N 1204.65 -0.602709 1.4562 0
M  V30 13113 C 1205.88 -1.39299 1.53657 0
M  V30 13114 C 1206.3 -1.87315 0.171632 0
M  V30 13115 O 1205.66 -1.60423 -0.844639 0
M  V30 13116 C 1205.71 -2.57021 2.52928 0
M  V30 13117 O 1204.81 -3.57812 2.05047 0
M  V30 13118 H 1204.15 -0.41567 0.517798 0
M  V30 13119 H 1206.68 -0.73304 1.91018 0
M  V30 13120 H 1206.69 -3.04202 2.71892 0
M  V30 13121 H 1205.37 -2.21422 3.52058 0
M  V30 13122 H 1203.94 -3.17247 1.95981 0
M  V30 13123 N 1206.13 -1.32992 -0.845635 0
M  V30 13124 C 1207.06 -1.25301 -1.97033 0
M  V30 13125 C 1208.04 -0.134966 -1.69564 0
M  V30 13126 O 1209.23 -0.323629 -1.91484 0
M  V30 13127 C 1206.36 -0.984551 -3.33052 0
M  V30 13128 C 1205.31 -2.06481 -3.749 0
M  V30 13129 C 1204.64 -1.6486 -5.08651 0
M  V30 13130 C 1205.94 -3.48083 -3.89404 0
M  V30 13131 H 1207.63 -2.194 -2.03725 0
M  V30 13132 H 1205.18 -1.05621 -0.978783 0
M  V30 13133 H 1207.13 -0.917269 -4.11296 0
M  V30 13134 H 1205.85 -0.00793116 -3.26599 0
M  V30 13135 H 1204.51 -2.1224 -2.98915 0
M  V30 13136 H 1204.16 -0.659183 -4.98662 0
M  V30 13137 H 1203.86 -2.37145 -5.37621 0
M  V30 13138 H 1205.38 -1.59585 -5.89377 0
M  V30 13139 H 1206.8 -3.44863 -4.57976 0
M  V30 13140 H 1205.19 -4.18796 -4.29802 0
M  V30 13141 H 1206.26 -3.87084 -2.92051 0
M  V30 13142 N 1207.61 1.06304 -1.1635 0
M  V30 13143 C 1208.52 2.17296 -0.884289 0
M  V30 13144 C 1209.53 1.73408 0.143414 0
M  V30 13145 O 1210.71 2.01373 -0.0331987 0
M  V30 13146 C 1207.77 3.44509 -0.389163 0
M  V30 13147 C 1206.84 4.02906 -1.48208 0
M  V30 13148 C 1206.07 5.24047 -1.01048 0
M  V30 13149 O 1206.29 5.70229 0.139821 0
M  V30 13150 O 1205.23 5.74394 -1.79876 0
M  V30 13151 H 1209.05 2.4369 -1.81243 0
M  V30 13152 H 1206.64 1.15841 -0.943459 0
M  V30 13153 H 1208.52 4.21229 -0.120018 0
M  V30 13154 H 1207.19 3.19642 0.510968 0
M  V30 13155 H 1206.1 3.27677 -1.80496 0
M  V30 13156 H 1207.43 4.32068 -2.35751 0
M  V30 13157 N 1209.09 0.96196 1.24836 0
M  V30 13158 C 1210.02 0.506241 2.27946 0
M  V30 13159 C 1211 -0.451183 1.64007 0
M  V30 13160 O 1212.18 -0.348552 1.91046 0
M  V30 13161 C 1209.31 -0.209846 3.46665 0
M  V30 13162 C 1208.27 0.663035 4.22833 0
M  V30 13163 C 1207.59 -0.184216 5.34383 0
M  V30 13164 C 1208.89 1.94479 4.84742 0
M  V30 13165 H 1210.59 1.36805 2.66317 0
M  V30 13166 H 1208.13 0.65926 1.28023 0
M  V30 13167 H 1210.08 -0.539838 4.17928 0
M  V30 13168 H 1208.81 -1.10596 3.07305 0
M  V30 13169 H 1207.47 0.976216 3.53363 0
M  V30 13170 H 1207.12 -1.08031 4.91262 0
M  V30 13171 H 1206.82 0.39657 5.8626 0
M  V30 13172 H 1208.34 -0.509009 6.08475 0
M  V30 13173 H 1209.75 1.68074 5.48109 0
M  V30 13174 H 1208.15 2.47183 5.46828 0
M  V30 13175 H 1209.22 2.64332 4.06517 0
M  V30 13176 N 1210.56 -1.39601 0.731392 0
M  V30 13177 C 1211.79 -2.04887 0.28789 0
M  V30 13178 C 1212.21 -1.55138 -1.076 0
M  V30 13179 O 1211.56 -0.71471 -1.67923 0
M  V30 13180 C 1211.61 -3.6044 0.276629 0
M  V30 13181 O 1211.34 -4.08358 1.58668 0
M  V30 13182 C 1212.84 -4.4292 -0.183485 0
M  V30 13183 H 1210.06 -0.658976 0.126459 0
M  V30 13184 H 1212.6 -1.78716 0.994031 0
M  V30 13185 H 1210.76 -3.85526 -0.380597 0
M  V30 13186 H 1211.17 -5.02659 1.4978 0
M  V30 13187 H 1212.64 -5.51822 -0.140207 0
M  V30 13188 H 1213.12 -4.2168 -1.22811 0
M  V30 13189 H 1213.73 -4.22976 0.444042 0
M  V30 13190 N 1212.04 -0.478751 -1.50152 0
M  V30 13191 C 1213.27 0.0710485 -2.06778 0
M  V30 13192 C 1213.69 1.32826 -1.34174 0
M  V30 13193 O 1213.04 1.77758 -0.413304 0
M  V30 13194 C 1213.09 0.351351 -3.59789 0
M  V30 13195 O 1212.81 -0.855998 -4.29656 0
M  V30 13196 C 1214.32 0.947269 -4.33061 0
M  V30 13197 H 1211.54 -0.0105032 -0.670918 0
M  V30 13198 H 1214.08 -0.669732 -1.93222 0
M  V30 13199 H 1212.23 1.04207 -3.73121 0
M  V30 13200 H 1212.65 -0.605252 -5.20996 0
M  V30 13201 H 1214.12 1.09312 -5.41068 0
M  V30 13202 H 1214.6 1.93937 -3.94062 0
M  V30 13203 H 1215.21 0.294693 -4.24278 0
M  V30 13204 N 1213.52 1.56172 -0.211661 0
M  V30 13205 C 1214.76 1.9994 0.424672 0
M  V30 13206 C 1215.12 1.09598 1.57646 0
M  V30 13207 O 1216.33 1.4267 2.27813 0
M  V30 13208 C 1214.6 3.46961 0.857497 0
M  V30 13209 S 1216.16 4.12752 1.48933 0
M  V30 13210 H 1212.97 0.698031 0.135179 0
M  V30 13211 H 1215.58 1.92886 -0.318625 0
M  V30 13212 H 1214.28 4.10399 0.009398 0
M  V30 13213 H 1213.81 3.57867 1.63385 0
M  V30 13214 H 1215.83 4.11125 2.77833 0
M  V30 13215 N 1215 -0.0618163 1.57479 0
M  V30 13216 C 1216.24 -0.760193 1.88013 0
M  V30 13217 C 1216.58 -1.76718 0.805258 0
M  V30 13218 O 1215.85 -1.93633 -0.183408 0
M  V30 13219 C 1216.14 -1.45924 3.29208 0
M  V30 13220 C 1215.99 -0.467994 4.47359 0
M  V30 13221 C 1217.31 -2.40166 3.68793 0
M  V30 13222 H 1214.43 -0.274896 0.683814 0
M  V30 13223 H 1217.07 -0.0232433 1.89986 0
M  V30 13224 H 1215.22 -2.08741 3.27657 0
M  V30 13225 H 1216.89 0.155735 4.61037 0
M  V30 13226 H 1215.13 0.215797 4.33263 0
M  V30 13227 H 1215.8 -0.994942 5.42959 0
M  V30 13228 H 1218.28 -1.87419 3.71501 0
M  V30 13229 H 1217.16 -2.86076 4.68457 0
M  V30 13230 H 1217.42 -3.25413 2.99264 0
M  V30 13231 N 1216.48 -1.54033 -0.333429 0
M  V30 13232 C 1217.7 -1.76031 -1.09672 0
M  V30 13233 C 1218.13 -0.502844 -1.81254 0
M  V30 13234 O 1217.48 0.54509 -1.72912 0
M  V30 13235 C 1217.53 -2.947 -2.07809 0
M  V30 13236 O 1216.64 -2.65555 -3.15522 0
M  V30 13237 H 1215.98 -0.583611 -0.316692 0
M  V30 13238 H 1218.51 -2.01026 -0.380732 0
M  V30 13239 H 1218.52 -3.21771 -2.50853 0
M  V30 13240 H 1217.19 -3.85895 -1.55106 0
M  V30 13241 H 1215.77 -2.49403 -2.77223 0
M  V30 13242 N 1217.95 0.594978 -1.45938 0
M  V30 13243 C 1219.23 1.35477 -1.41086 0
M  V30 13244 C 1219.61 2.10917 -0.0879512 0
M  V30 13245 O 1218.96 2.08704 0.930323 0
M  V30 13246 C 1219.17 2.29106 -2.63271 0
M  V30 13247 C 1220.52 2.9132 -3.08898 0
M  V30 13248 O 1221.54 2.39423 -2.63733 0
M  V30 13249 O 1220.4 3.85553 -3.87313 0
M  V30 13250 H 1217.49 0.6081 -0.560485 0
M  V30 13251 H 1220.04 0.617016 -1.58085 0
M  V30 13252 H 1218.81 1.72707 -3.51124 0
M  V30 13253 H 1218.44 3.10241 -2.48669 0
M  V30 13254 N 1219.43 1.33438 0.838571 0
M  V30 13255 C 1220.68 1.25097 1.5962 0
M  V30 13256 C 1221.01 -0.182798 1.93338 0
M  V30 13257 O 1220.29 -1.1242 1.5872 0
M  V30 13258 C 1220.57 2.12655 2.90603 0
M  V30 13259 C 1220.42 3.64491 2.63565 0
M  V30 13260 C 1221.74 1.99994 3.92033 0
M  V30 13261 H 1218.86 0.455776 0.579169 0
M  V30 13262 H 1221.5 1.63542 0.967169 0
M  V30 13263 H 1219.65 1.79998 3.44286 0
M  V30 13264 H 1221.32 4.0744 2.16312 0
M  V30 13265 H 1219.57 3.86356 1.9726 0
M  V30 13266 H 1220.24 4.21101 3.569 0
M  V30 13267 H 1222.71 2.28635 3.47657 0
M  V30 13268 H 1221.59 2.63509 4.81512 0
M  V30 13269 H 1221.85 0.972263 4.31277 0
M  V30 13270 N 1220.91 -1.05686 1.16912 0
M  V30 13271 C 1222.14 -1.82282 0.978811 0
M  V30 13272 C 1222.55 -1.8278 -0.472972 0
M  V30 13273 O 1221.91 -1.25143 -1.32836 0
M  V30 13274 C 1221.96 -3.28623 1.50629 0
M  V30 13275 O 1221.68 -3.28269 2.90122 0
M  V30 13276 C 1223.18 -4.21927 1.35987 0
M  V30 13277 H 1220.4 -0.574558 0.346588 0
M  V30 13278 H 1222.95 -1.33301 1.55084 0
M  V30 13279 H 1221.1 -3.74893 0.976404 0
M  V30 13280 H 1221.52 -4.19824 3.14401 0
M  V30 13281 H 1222.99 -5.2261 1.77716 0
M  V30 13282 H 1223.47 -4.38131 0.30626 0
M  V30 13283 H 1224.07 -3.81508 1.87968 0
M  V30 13284 N 1222.39 -0.968567 -1.24324 0
M  V30 13285 C 1223.35 -0.504307 -2.23583 0
M  V30 13286 C 1224.35 0.399626 -1.55755 0
M  V30 13287 O 1225.54 0.194966 -1.73106 0
M  V30 13288 C 1222.67 0.26956 -3.39833 0
M  V30 13289 H 1223.87 -1.3818 -2.6617 0
M  V30 13290 H 1221.42 -0.753241 -1.36952 0
M  V30 13291 H 1222.15 1.16411 -3.02686 0
M  V30 13292 H 1221.94 -0.379133 -3.90263 0
M  V30 13293 H 1223.43 0.583376 -4.13505 0
M  V30 13294 N 1223.87 1.39211 -0.738786 0
M  V30 13295 C 1225.11 2.00733 -0.288817 0
M  V30 13296 C 1225.45 1.58494 1.1222 0
M  V30 13297 O 1224.72 0.815579 1.76575 0
M  V30 13298 C 1225 3.57928 -0.394956 0
M  V30 13299 C 1224.86 4.10174 -1.84601 0
M  V30 13300 C 1226.18 4.39548 0.220395 0
M  V30 13301 H 1223.29 0.729276 -0.106418 0
M  V30 13302 H 1225.94 1.65365 -0.935652 0
M  V30 13303 H 1224.09 3.88188 0.155744 0
M  V30 13304 H 1225.76 3.90618 -2.45388 0
M  V30 13305 H 1224 3.63593 -2.36607 0
M  V30 13306 H 1224.67 5.19305 -1.87152 0
M  V30 13307 H 1227.15 4.15354 -0.249098 0
M  V30 13308 H 1226.02 5.48778 0.115806 0
M  V30 13309 H 1226.29 4.22341 1.30691 0
M  V30 13310 N 1225.34 0.486708 1.49896 0
M  V30 13311 C 1226.59 -0.0646197 2.01596 0
M  V30 13312 C 1226.91 -1.39363 1.37249 0
M  V30 13313 O 1228.11 -2.03082 1.80194 0
M  V30 13314 C 1226.57 -0.16565 3.59519 0
M  V30 13315 C 1226.18 1.15586 4.32832 0
M  V30 13316 C 1227.92 -0.668103 4.1921 0
M  V30 13317 C 1225.83 1.01778 5.82576 0
M  V30 13318 H 1224.76 -0.0279241 0.753483 0
M  V30 13319 H 1227.41 0.623969 1.72566 0
M  V30 13320 H 1225.79 -0.918372 3.85204 0
M  V30 13321 H 1226.96 1.92076 4.1886 0
M  V30 13322 H 1225.28 1.59064 3.84822 0
M  V30 13323 H 1227.88 -0.788698 5.28851 0
M  V30 13324 H 1228.22 -1.66339 3.81624 0
M  V30 13325 H 1228.75 0.0276746 3.9779 0
M  V30 13326 H 1225.49 1.9869 6.24662 0
M  V30 13327 H 1225.01 0.293527 5.99081 0
M  V30 13328 H 1226.69 0.690693 6.43303 0
M  V30 13329 N 1226.82 -1.56058 0.219941 0
M  V30 13330 C 1227.75 -2.2321 -0.685547 0
M  V30 13331 C 1228.73 -1.20328 -1.20229 0
M  V30 13332 O 1229.92 -1.48909 -1.24659 0
M  V30 13333 C 1227.05 -2.91076 -1.89452 0
M  V30 13334 C 1226 -4.00415 -1.51169 0
M  V30 13335 C 1225.33 -4.55569 -2.79931 0
M  V30 13336 C 1226.63 -5.17549 -0.702896 0
M  V30 13337 H 1228.32 -2.99136 -0.125671 0
M  V30 13338 H 1225.87 -1.43879 -0.0590043 0
M  V30 13339 H 1227.82 -3.36744 -2.53341 0
M  V30 13340 H 1226.55 -2.12594 -2.47934 0
M  V30 13341 H 1225.21 -3.55475 -0.896275 0
M  V30 13342 H 1224.85 -3.73819 -3.36553 0
M  V30 13343 H 1224.55 -5.29361 -2.55049 0
M  V30 13344 H 1226.08 -5.03955 -3.44764 0
M  V30 13345 H 1227.49 -5.59608 -1.24544 0
M  V30 13346 H 1225.89 -5.97563 -0.551234 0
M  V30 13347 H 1226.96 -4.84027 0.29083 0
M  V30 13348 N 1228.3 0.053464 -1.57509 0
M  V30 13349 C 1229.55 0.749102 -1.88135 0
M  V30 13350 C 1229.88 1.76642 -0.814111 0
M  V30 13351 O 1229.13 1.94796 0.187845 0
M  V30 13352 C 1229.43 1.47666 -3.25468 0
M  V30 13353 C 1229.1 0.597619 -4.46922 0
M  V30 13354 C 1227.76 0.355429 -4.79886 0
M  V30 13355 C 1230.11 -0.0107869 -5.21199 0
M  V30 13356 C 1227.44 -0.504347 -5.84528 0
M  V30 13357 C 1229.79 -0.858123 -6.26753 0
M  V30 13358 C 1228.45 -1.11001 -6.58206 0
M  V30 13359 H 1227.72 0.274116 -0.688434 0
M  V30 13360 H 1230.37 0.00944162 -1.91498 0
M  V30 13361 H 1228.68 2.28901 -3.1798 0
M  V30 13362 H 1230.37 2.02002 -3.46404 0
M  V30 13363 H 1226.96 0.796526 -4.21134 0
M  V30 13364 H 1231.15 0.163404 -4.96031 0
M  V30 13365 H 1226.4 -0.708057 -6.07286 0
M  V30 13366 H 1230.58 -1.3362 -6.83461 0
M  V30 13367 H 1228.2 -1.77798 -7.39116 0
M  V30 13368 N 1229.78 1.54207 0.325255 0
M  V30 13369 C 1231.03 1.72331 1.0634 0
M  V30 13370 C 1231.35 0.496115 1.88066 0
M  V30 13371 O 1230.61 -0.52214 1.88606 0
M  V30 13372 C 1230.91 2.95 2.01766 0
M  V30 13373 C 1230.57 4.29835 1.36208 0
M  V30 13374 C 1229.24 4.66493 1.18059 0
M  V30 13375 C 1231.59 5.13521 0.891404 0
M  V30 13376 C 1228.92 5.84436 0.514894 0
M  V30 13377 C 1231.27 6.32146 0.239534 0
M  V30 13378 C 1229.93 6.67484 0.0458839 0
M  V30 13379 H 1229.2 0.630605 0.389125 0
M  V30 13380 H 1231.85 1.88445 0.34072 0
M  V30 13381 H 1230.15 2.73567 2.80479 0
M  V30 13382 H 1231.85 3.06217 2.58906 0
M  V30 13383 H 1228.44 4.00993 1.51335 0
M  V30 13384 H 1232.63 4.85718 1.01941 0
M  V30 13385 H 1227.88 6.10376 0.353644 0
M  V30 13386 H 1232.06 6.96273 -0.133185 0
M  V30 13387 H 1229.68 7.58733 -0.471978 0
M  V30 13388 N 1231.26 -0.58723 1.46251 0
M  V30 13389 C 1232.5 -1.3456 1.51327 0
M  V30 13390 C 1232.83 -1.93815 0.163146 0
M  V30 13391 O 1232.09 -1.76723 -0.840677 0
M  V30 13392 C 1232.39 -2.49776 2.5563 0
M  V30 13393 C 1232.05 -2.08543 3.99776 0
M  V30 13394 C 1230.71 -1.97013 4.39021 0
M  V30 13395 C 1233.07 -1.76669 4.90344 0
M  V30 13396 C 1230.39 -1.5186 5.66706 0
M  V30 13397 C 1232.75 -1.32996 6.18462 0
M  V30 13398 C 1231.41 -1.20039 6.56618 0
M  V30 13399 H 1230.68 -0.492391 0.553744 0
M  V30 13400 H 1233.33 -0.661715 1.79704 0
M  V30 13401 H 1231.63 -3.23592 2.20897 0
M  V30 13402 H 1233.33 -3.07995 2.56788 0
M  V30 13403 H 1229.92 -2.18451 3.68751 0
M  V30 13404 H 1234.1 -1.84465 4.60746 0
M  V30 13405 H 1229.36 -1.40467 5.95045 0
M  V30 13406 H 1233.53 -1.07385 6.88071 0
M  V30 13407 H 1231.16 -0.848268 7.55452 0
M  V30 13408 N 1232.74 -1.33881 -0.831482 0
M  V30 13409 C 1233.96 -1.28812 -1.61911 0
M  V30 13410 C 1234.38 0.139519 -1.88284 0
M  V30 13411 O 1233.74 1.08397 -1.46821 0
M  V30 13412 C 1233.79 -2.06806 -2.96502 0
M  V30 13413 O 1233.51 -3.44 -2.71285 0
M  V30 13414 C 1235.01 -2.09033 -3.90922 0
M  V30 13415 H 1232.23 -0.443473 -0.50356 0
M  V30 13416 H 1234.77 -1.76365 -1.03516 0
M  V30 13417 H 1232.93 -1.62915 -3.51479 0
M  V30 13418 H 1233.34 -3.84213 -3.57044 0
M  V30 13419 H 1234.82 -2.68044 -4.82552 0
M  V30 13420 H 1235.29 -1.08249 -4.25651 0
M  V30 13421 H 1235.9 -2.52975 -3.41883 0
M  V30 13422 N 1234.21 1.05064 -1.1747 0
M  V30 13423 C 1235.46 1.78089 -0.963883 0
M  V30 13424 C 1235.79 1.87766 0.507365 0
M  V30 13425 O 1235.04 1.37477 1.39279 0
M  V30 13426 C 1235.34 3.21961 -1.55164 0
M  V30 13427 C 1235.01 3.32339 -3.04732 0
M  V30 13428 C 1233.67 3.34878 -3.45557 0
M  V30 13429 C 1236.02 3.3325 -4.00741 0
M  V30 13430 C 1233.35 3.35959 -4.80987 0
M  V30 13431 C 1235.7 3.3587 -5.36073 0
M  V30 13432 C 1234.37 3.36697 -5.7636 0
M  V30 13433 H 1233.64 0.651672 -0.35271 0
M  V30 13434 H 1236.28 1.23471 -1.4638 0
M  V30 13435 H 1234.59 3.79514 -0.973471 0
M  V30 13436 H 1236.29 3.77087 -1.36406 0
M  V30 13437 H 1232.88 3.31076 -2.72188 0
M  V30 13438 H 1237.06 3.30488 -3.70258 0
M  V30 13439 H 1232.32 3.34911 -5.11512 0
M  V30 13440 H 1236.49 3.35524 -6.10243 0
M  V30 13441 H 1234.12 3.37288 -6.81279 0
M  V30 13442 N 1235.69 0.975146 1.23809 0
M  V30 13443 C 1236.94 0.641124 1.92083 0
M  V30 13444 C 1237.27 -0.824671 1.76152 0
M  V30 13445 O 1236.52 -1.6097 1.11298 0
M  V30 13446 C 1236.82 0.971016 3.43956 0
M  V30 13447 C 1236.49 2.42616 3.80063 0
M  V30 13448 C 1235.15 2.82386 3.8963 0
M  V30 13449 C 1237.5 3.37019 3.97577 0
M  V30 13450 C 1234.83 4.15585 4.14133 0
M  V30 13451 C 1237.18 4.69855 4.23579 0
M  V30 13452 C 1235.84 5.09391 4.31366 0
M  V30 13453 H 1235.11 0.234604 0.702881 0
M  V30 13454 H 1237.76 1.22803 1.46941 0
M  V30 13455 H 1236.07 0.301965 3.90635 0
M  V30 13456 H 1237.76 0.690858 3.95004 0
M  V30 13457 H 1234.35 2.10782 3.73187 0
M  V30 13458 H 1238.54 3.07474 3.89581 0
M  V30 13459 H 1233.79 4.45831 4.18383 0
M  V30 13460 H 1237.97 5.42966 4.36074 0
M  V30 13461 H 1235.59 6.12624 4.50106 0
M  V30 13462 N 1237.17 -1.38817 0.746158 0
M  V30 13463 C 1238.42 -1.99519 0.295839 0
M  V30 13464 C 1238.73 -1.59897 -1.12661 0
M  V30 13465 O 1239.94 -2.13514 -1.67702 0
M  V30 13466 C 1238.39 -3.56712 0.477984 0
M  V30 13467 C 1238 -4.0529 1.90904 0
M  V30 13468 C 1239.75 -4.24405 0.0900039 0
M  V30 13469 C 1237.65 -5.55097 2.04014 0
M  V30 13470 H 1236.58 -0.746389 0.106861 0
M  V30 13471 H 1239.23 -1.58676 0.921637 0
M  V30 13472 H 1237.62 -3.95406 -0.216884 0
M  V30 13473 H 1238.79 -3.77904 2.63677 0
M  V30 13474 H 1237.1 -3.50297 2.25125 0
M  V30 13475 H 1239.7 -5.3444 0.16682 0
M  V30 13476 H 1240.04 -4.05166 -0.956349 0
M  V30 13477 H 1240.58 -3.90924 0.736446 0
M  V30 13478 H 1237.32 -5.7923 3.06877 0
M  V30 13479 H 1236.84 -5.8425 1.35692 0
M  V30 13480 H 1238.52 -6.20682 1.82656 0
M  V30 13481 N 1238.65 -0.49465 -1.49636 0
M  V30 13482 C 1239.88 0.0491129 -2.06842 0
M  V30 13483 C 1240.29 1.31395 -1.35576 0
M  V30 13484 O 1239.65 1.7731 -0.432135 0
M  V30 13485 C 1239.7 0.313171 -3.60141 0
M  V30 13486 O 1239.42 -0.90152 -4.28724 0
M  V30 13487 C 1240.92 0.901284 -4.34041 0
M  V30 13488 H 1238.14 -0.0176186 -0.670769 0
M  V30 13489 H 1240.68 -0.690188 -1.92501 0
M  V30 13490 H 1238.84 1.00244 -3.74206 0
M  V30 13491 H 1239.25 -0.660477 -5.20325 0
M  V30 13492 H 1240.73 1.03567 -5.42197 0
M  V30 13493 H 1241.2 1.89746 -3.96097 0
M  V30 13494 H 1241.81 0.249677 -4.24566 0
M  V30 13495 N 1240.13 1.55939 -0.228214 0
M  V30 13496 C 1241.35 2.0287 0.406348 0
M  V30 13497 C 1241.77 1.1079 1.52876 0
M  V30 13498 O 1241.13 0.118747 1.82113 0
M  V30 13499 C 1241.18 3.49286 0.931734 0
M  V30 13500 O 1240.9 4.37857 -0.145933 0
M  V30 13501 C 1242.4 4.11893 1.63887 0
M  V30 13502 H 1239.62 0.663696 0.0987358 0
M  V30 13503 H 1242.16 2.01541 -0.346616 0
M  V30 13504 H 1240.32 3.5121 1.63494 0
M  V30 13505 H 1240.73 5.23904 0.250005 0
M  V30 13506 H 1242.21 5.16091 1.95841 0
M  V30 13507 H 1242.68 3.57281 2.55435 0
M  V30 13508 H 1243.29 4.13839 0.980697 0
M  V30 13509 N 1241.6 -0.0451101 1.57535 0
M  V30 13510 C 1242.54 -1.08327 2.00849 0
M  V30 13511 C 1243.52 -1.36083 0.889957 0
M  V30 13512 O 1244.7 -1.49009 1.15449 0
M  V30 13513 C 1241.83 -2.42171 2.36793 0
M  V30 13514 C 1240.87 -2.30378 3.58926 0
M  V30 13515 S 1241.71 -1.67244 5.08714 0
M  V30 13516 C 1242.86 -3.02611 5.47885 0
M  V30 13517 H 1243.09 -0.714274 2.88592 0
M  V30 13518 H 1240.63 -0.254561 1.52287 0
M  V30 13519 H 1242.59 -3.1915 2.58174 0
M  V30 13520 H 1241.25 -2.76224 1.49531 0
M  V30 13521 H 1240.44 -3.29146 3.81679 0
M  V30 13522 H 1240.04 -1.6154 3.37314 0
M  V30 13523 H 1242.33 -3.98941 5.47587 0
M  V30 13524 H 1243.28 -2.84609 6.48385 0
M  V30 13525 H 1243.68 -3.04445 4.75367 0
M  V30 13526 N 1243.08 -1.54377 -0.317073 0
M  V30 13527 C 1244.33 -1.73149 -1.05581 0
M  V30 13528 C 1244.66 -0.507176 -1.8746 0
M  V30 13529 O 1243.94 0.495837 -1.88074 0
M  V30 13530 C 1244.22 -3.01098 -1.97515 0
M  V30 13531 C 1244.07 -4.33794 -1.18922 0
M  V30 13532 C 1245.39 -3.24831 -2.9694 0
M  V30 13533 H 1242.51 -0.630011 -0.382434 0
M  V30 13534 H 1245.15 -1.87079 -0.331873 0
M  V30 13535 H 1243.3 -2.89352 -2.59244 0
M  V30 13536 H 1244.97 -4.57433 -0.596039 0
M  V30 13537 H 1243.22 -4.31005 -0.491612 0
M  V30 13538 H 1243.89 -5.19554 -1.86462 0
M  V30 13539 H 1246.36 -3.3608 -2.45335 0
M  V30 13540 H 1245.24 -4.15702 -3.58445 0
M  V30 13541 H 1245.5 -2.42365 -3.69745 0
M  V30 13542 N 1244.56 0.579466 -1.4656 0
M  V30 13543 C 1245.49 1.7031 -1.51887 0
M  V30 13544 C 1246.47 1.58271 -0.372721 0
M  V30 13545 O 1247.66 1.79441 -0.577336 0
M  V30 13546 C 1244.78 3.0839 -1.40048 0
M  V30 13547 C 1243.83 3.3894 -2.58886 0
M  V30 13548 S 1244.66 3.30652 -4.21224 0
M  V30 13549 C 1245.82 4.71264 -4.119 0
M  V30 13550 H 1246.05 1.65533 -2.46954 0
M  V30 13551 H 1243.58 0.758477 -1.34486 0
M  V30 13552 H 1245.54 3.88046 -1.33905 0
M  V30 13553 H 1244.2 3.10653 -0.464048 0
M  V30 13554 H 1243.4 4.39547 -2.46605 0
M  V30 13555 H 1243 2.66858 -2.62036 0
M  V30 13556 H 1245.29 5.61722 -3.7878 0
M  V30 13557 H 1246.23 4.88602 -5.12517 0
M  V30 13558 H 1246.64 4.48266 -3.43101 0
M  V30 13559 N 1246.04 1.3432 0.824371 0
M  V30 13560 C 1246.97 1.2842 1.95014 0
M  V30 13561 C 1247.95 0.161925 1.69328 0
M  V30 13562 O 1249.13 0.354052 1.90945 0
M  V30 13563 C 1246.26 1.03741 3.31444 0
M  V30 13564 C 1245.22 2.12419 3.71567 0
M  V30 13565 C 1244.54 1.72931 5.05963 0
M  V30 13566 C 1245.84 3.54235 3.83817 0
M  V30 13567 H 1247.54 2.22614 2.00209 0
M  V30 13568 H 1245.08 1.07165 0.961856 0
M  V30 13569 H 1247.04 0.982586 4.09784 0
M  V30 13570 H 1245.76 0.0598892 3.26545 0
M  V30 13571 H 1244.42 2.16968 2.955 0
M  V30 13572 H 1244.07 0.738433 4.9755 0
M  V30 13573 H 1243.77 2.45668 5.3378 0
M  V30 13574 H 1245.29 1.68941 5.86763 0
M  V30 13575 H 1246.71 3.52106 4.52432 0
M  V30 13576 H 1245.1 4.25581 4.23085 0
M  V30 13577 H 1246.17 3.91682 2.85856 0
M  V30 13578 N 1247.52 -1.0444 1.18026 0
M  V30 13579 C 1248.48 -2.10532 0.906028 0
M  V30 13580 C 1249.48 -1.60443 -0.107022 0
M  V30 13581 O 1250.67 -1.73744 0.126001 0
M  V30 13582 C 1247.8 -3.39008 0.358625 0
M  V30 13583 H 1248.99 -2.36293 1.84677 0
M  V30 13584 H 1246.55 -1.20805 0.991763 0
M  V30 13585 H 1247.28 -3.18908 -0.588904 0
M  V30 13586 H 1247.07 -3.76678 1.08884 0
M  V30 13587 H 1248.56 -4.17189 0.185331 0
M  V30 13588 N 1248.99 -0.981699 -1.2329 0
M  V30 13589 C 1249.96 -0.527992 -2.23036 0
M  V30 13590 C 1250.96 0.383083 -1.5617 0
M  V30 13591 O 1252.15 0.176595 -1.73303 0
M  V30 13592 C 1249.28 0.233501 -3.40099 0
M  V30 13593 H 1250.47 -1.40995 -2.64689 0
M  V30 13594 H 1248.03 -0.767724 -1.36146 0
M  V30 13595 H 1248.76 1.13194 -3.03904 0
M  V30 13596 H 1248.55 -0.420505 -3.89839 0
M  V30 13597 H 1250.04 0.539485 -4.14101 0
M  V30 13598 N 1250.47 1.3842 -0.753509 0
M  V30 13599 C 1251.4 2.33073 -0.141198 0
M  V30 13600 C 1252.38 1.54863 0.70367 0
M  V30 13601 O 1253.57 1.8318 0.644872 0
M  V30 13602 C 1250.7 3.39043 0.752802 0
M  V30 13603 C 1249.65 4.27999 0.0106692 0
M  V30 13604 C 1248.98 5.24824 1.02291 0
M  V30 13605 C 1250.28 5.09308 -1.15768 0
M  V30 13606 H 1251.97 2.84528 -0.93188 0
M  V30 13607 H 1249.52 1.36802 -0.449567 0
M  V30 13608 H 1251.47 4.04224 1.19083 0
M  V30 13609 H 1250.2 2.8607 1.57581 0
M  V30 13610 H 1248.85 3.64323 -0.407939 0
M  V30 13611 H 1248.5 4.68139 1.83998 0
M  V30 13612 H 1248.2 5.85196 0.53101 0
M  V30 13613 H 1249.73 5.92882 1.46026 0
M  V30 13614 H 1251.14 5.6773 -0.797203 0
M  V30 13615 H 1249.54 5.78914 -1.58044 0
M  V30 13616 H 1250.61 4.43051 -1.97062 0
M  V30 13617 N 1251.95 0.502579 1.49372 0
M  V30 13618 C 1252.91 -0.263993 2.27675 0
M  V30 13619 C 1253.91 -0.892538 1.33755 0
M  V30 13620 O 1255.1 -0.756826 1.56901 0
M  V30 13621 C 1252.24 -1.37895 3.11765 0
M  V30 13622 H 1253.43 0.423132 2.969 0
M  V30 13623 H 1250.98 0.257595 1.54163 0
M  V30 13624 H 1251.72 -2.10018 2.47109 0
M  V30 13625 H 1251.5 -0.933694 3.80821 0
M  V30 13626 H 1252.99 -1.91889 3.70902 0
M  V30 13627 N 1253.43 -1.55816 0.23648 0
M  V30 13628 C 1254.38 -2.17588 -0.681145 0
M  V30 13629 C 1255.36 -1.12862 -1.14678 0
M  V30 13630 O 1256.55 -1.38805 -1.09829 0
M  V30 13631 C 1253.68 -2.87086 -1.88246 0
M  V30 13632 C 1252.77 -3.99056 -1.43581 0
M  V30 13633 N 1253.16 -5.00895 -0.702704 0
M  V30 13634 C 1251.46 -4.11419 -1.72192 0
M  V30 13635 C 1252.16 -5.79775 -0.472866 0
M  V30 13636 N 1251.14 -5.33675 -1.034 0
M  V30 13637 H 1254.94 -2.93684 -0.112772 0
M  V30 13638 H 1252.45 -1.62355 0.0383551 0
M  V30 13639 H 1254.45 -3.29761 -2.55075 0
M  V30 13640 H 1253.11 -2.1249 -2.45516 0
M  V30 13641 H 1254.12 -5.1669 -0.353865 0
M  V30 13642 H 1250.8 -3.47987 -2.30676 0
M  V30 13643 H 1252.19 -6.71807 0.111664 0
M  V30 13644 N 1254.91 0.036755 -1.57557 0
M  V30 13645 C 1255.86 1.04744 -2.02516 0
M  V30 13646 C 1256.84 1.3248 -0.913116 0
M  V30 13647 O 1258.03 1.32194 -1.17702 0
M  V30 13648 C 1255.16 2.3509 -2.50175 0
M  V30 13649 C 1254.25 2.10478 -3.68185 0
M  V30 13650 N 1254.64 1.55899 -4.81175 0
M  V30 13651 C 1252.94 2.40797 -3.7541 0
M  V30 13652 C 1253.64 1.46913 -5.62842 0
M  V30 13653 N 1252.61 1.94202 -5.07727 0
M  V30 13654 H 1256.42 0.619342 -2.873 0
M  V30 13655 H 1253.93 0.243208 -1.60569 0
M  V30 13656 H 1255.93 3.08297 -2.8064 0
M  V30 13657 H 1254.59 2.78586 -1.66793 0
M  V30 13658 H 1255.6 1.24275 -5.02769 0
M  V30 13659 H 1252.27 2.8742 -3.02813 0
M  V30 13660 H 1253.66 1.0527 -6.63602 0
M  V30 13661 N 1256.39 1.54543 0.308881 0
M  V30 13662 C 1257.32 1.87947 1.38557 0
M  V30 13663 C 1258.3 0.737622 1.53275 0
M  V30 13664 O 1259.48 0.992664 1.66913 0
M  V30 13665 C 1256.61 2.11982 2.75102 0
M  V30 13666 C 1255.57 3.2783 2.75158 0
M  V30 13667 C 1254.89 3.37266 4.14917 0
M  V30 13668 C 1256.19 4.65129 2.37598 0
M  V30 13669 H 1257.89 2.78123 1.1085 0
M  V30 13670 H 1255.43 1.3382 0.531808 0
M  V30 13671 H 1257.38 2.33935 3.50503 0
M  V30 13672 H 1256.11 1.18569 3.04317 0
M  V30 13673 H 1254.77 3.05787 2.02212 0
M  V30 13674 H 1254.42 2.41384 4.41296 0
M  V30 13675 H 1254.12 4.15135 4.15857 0
M  V30 13676 H 1255.64 3.61471 4.92109 0
M  V30 13677 H 1257.05 4.86865 3.02714 0
M  V30 13678 H 1255.45 5.45653 2.49765 0
M  V30 13679 H 1256.52 4.6638 1.32731 0
M  V30 13680 N 1257.86 -0.571685 1.46866 0
M  V30 13681 C 1259.11 -1.32948 1.52745 0
M  V30 13682 C 1259.44 -1.93631 0.183694 0
M  V30 13683 O 1258.69 -1.77605 -0.821886 0
M  V30 13684 C 1258.99 -2.47051 2.58264 0
M  V30 13685 C 1258.66 -2.04291 4.01965 0
M  V30 13686 C 1257.32 -1.92345 4.41086 0
M  V30 13687 C 1259.67 -1.71458 4.9219 0
M  V30 13688 C 1257 -1.4584 5.68285 0
M  V30 13689 C 1259.35 -1.26429 6.19837 0
M  V30 13690 C 1258.02 -1.13068 6.57854 0
M  V30 13691 H 1257.29 -0.48649 0.558935 0
M  V30 13692 H 1259.93 -0.642618 1.80396 0
M  V30 13693 H 1258.24 -3.21231 2.24316 0
M  V30 13694 H 1259.94 -3.05254 2.6004 0
M  V30 13695 H 1256.53 -2.14527 3.71047 0
M  V30 13696 H 1260.71 -1.79567 4.62676 0
M  V30 13697 H 1255.97 -1.34148 5.96502 0
M  V30 13698 H 1260.14 -1.00081 6.89171 0
M  V30 13699 H 1257.77 -0.768094 7.5631 0
M  V30 13700 N 1259.34 -1.34755 -0.817236 0
M  V30 13701 C 1260.57 -1.30333 -1.60303 0
M  V30 13702 C 1260.98 0.12357 -1.88796 0
M  V30 13703 O 1260.32 1.08279 -1.48396 0
M  V30 13704 C 1260.38 -2.03179 -2.96578 0
M  V30 13705 C 1260.05 -3.52414 -2.90952 0
M  V30 13706 C 1261.05 -4.47213 -2.65136 0
M  V30 13707 C 1258.73 -3.9491 -3.10405 0
M  V30 13708 C 1260.72 -5.82481 -2.58832 0
M  V30 13709 C 1258.41 -5.30277 -3.03726 0
M  V30 13710 C 1259.41 -6.23875 -2.77973 0
M  V30 13711 O 1259.1 -7.5676 -2.71237 0
M  V30 13712 H 1258.83 -0.449615 -0.5048 0
M  V30 13713 H 1261.38 -1.7803 -1.02443 0
M  V30 13714 H 1259.61 -1.50104 -3.56379 0
M  V30 13715 H 1261.3 -1.91972 -3.57633 0
M  V30 13716 H 1262.07 -4.157 -2.49836 0
M  V30 13717 H 1257.95 -3.22451 -3.29464 0
M  V30 13718 H 1261.49 -6.55508 -2.38652 0
M  V30 13719 H 1257.39 -5.61406 -3.1858 0
M  V30 13720 H 1258.16 -7.66562 -2.86923 0
M  V30 13721 N 1260.82 1.03812 -1.18578 0
M  V30 13722 C 1262.07 1.77447 -0.994191 0
M  V30 13723 C 1262.42 1.86546 0.470974 0
M  V30 13724 O 1261.71 1.3644 1.34517 0
M  V30 13725 C 1261.91 3.20297 -1.5857 0
M  V30 13726 C 1261.74 3.25122 -3.10686 0
M  V30 13727 C 1260.51 3.33604 -3.79521 0
M  V30 13728 C 1262.7 3.12923 -4.08147 0
M  V30 13729 N 1260.69 3.27705 -5.19117 0
M  V30 13730 C 1262.06 3.14553 -5.34281 0
M  V30 13731 C 1264.11 2.96983 -3.99631 0
M  V30 13732 C 1262.82 3.0188 -6.52887 0
M  V30 13733 C 1264.84 2.85657 -5.17836 0
M  V30 13734 C 1264.2 2.87933 -6.42864 0
M  V30 13735 H 1260.3 0.661013 -0.417835 0
M  V30 13736 H 1262.89 1.23648 -1.50397 0
M  V30 13737 H 1261.06 3.72437 -1.10207 0
M  V30 13738 H 1262.79 3.82243 -1.32937 0
M  V30 13739 H 1259.54 3.39442 -3.30266 0
M  V30 13740 H 1259.97 3.28188 -5.92133 0
M  V30 13741 H 1264.61 2.94052 -3.03798 0
M  V30 13742 H 1262.33 3.03563 -7.48916 0
M  V30 13743 H 1265.91 2.74374 -5.1304 0
M  V30 13744 H 1264.79 2.79259 -7.32792 0
M  V30 13745 N 1262.3 0.988223 1.22768 0
M  V30 13746 C 1263.57 0.577578 1.86878 0
M  V30 13747 C 1263.95 -0.945197 1.88757 0
M  V30 13748 O 1263.3 -1.82519 1.37474 0
M  V30 13749 C 1263.51 1.19263 3.2799 0
M  V30 13750 C 1264.86 1.29024 4.04522 0
M  V30 13751 O 1265.88 1.14667 3.37239 0
M  V30 13752 O 1264.74 1.51949 5.24951 0
M  V30 13753 H 1261.84 0.195579 0.803541 0
M  V30 13754 H 1264.38 1.0838 1.30582 0
M  V30 13755 H 1263.16 2.23442 3.21231 0
M  V30 13756 H 1262.78 0.671706 3.91885 0
M  V30 13757 N 1263.78 -1.38018 0.760839 0
M  V30 13758 C 1265.02 -2.00248 0.320716 0
M  V30 13759 C 1265.35 -1.60259 -1.09684 0
M  V30 13760 O 1264.63 -0.843567 -1.75255 0
M  V30 13761 C 1264.91 -3.57254 0.451849 0
M  V30 13762 C 1264.77 -4.07185 1.91103 0
M  V30 13763 C 1266.08 -4.39843 -0.150439 0
M  V30 13764 H 1263.2 -0.727491 0.118007 0
M  V30 13765 H 1265.85 -1.63855 0.961842 0
M  V30 13766 H 1264 -3.88386 -0.0939672 0
M  V30 13767 H 1265.67 -3.86665 2.51571 0
M  V30 13768 H 1263.91 -3.59782 2.42362 0
M  V30 13769 H 1264.58 -5.16262 1.9539 0
M  V30 13770 H 1267.06 -4.14905 0.315145 0
M  V30 13771 H 1265.93 -5.48893 -0.0284853 0
M  V30 13772 H 1266.19 -4.24367 -1.23956 0
M  V30 13773 N 1265.25 -0.510493 -1.49103 0
M  V30 13774 C 1266.5 0.0226445 -2.03387 0
M  V30 13775 C 1266.85 1.33817 -1.38242 0
M  V30 13776 O 1266.15 1.84625 -0.512282 0
M  V30 13777 C 1266.34 0.221921 -3.5671 0
M  V30 13778 C 1266.17 -1.07273 -4.36718 0
M  V30 13779 C 1264.94 -1.62719 -4.78383 0
M  V30 13780 C 1267.14 -1.97844 -4.74723 0
M  V30 13781 N 1265.12 -2.86676 -5.42854 0
M  V30 13782 C 1266.49 -3.06378 -5.3901 0
M  V30 13783 C 1268.55 -1.98407 -4.56661 0
M  V30 13784 C 1267.25 -4.15515 -5.87145 0
M  V30 13785 C 1269.28 -3.06525 -5.05763 0
M  V30 13786 C 1268.64 -4.13778 -5.70059 0
M  V30 13787 H 1264.74 -0.0327303 -0.781315 0
M  V30 13788 H 1267.32 -0.687457 -1.8216 0
M  V30 13789 H 1265.49 0.901088 -3.77803 0
M  V30 13790 H 1267.22 0.752916 -3.97635 0
M  V30 13791 H 1263.98 -1.17109 -4.58893 0
M  V30 13792 H 1264.4 -3.49733 -5.79669 0
M  V30 13793 H 1269.04 -1.16789 -4.0635 0
M  V30 13794 H 1266.76 -4.97925 -6.36472 0
M  V30 13795 H 1270.35 -3.07992 -4.93591 0
M  V30 13796 H 1269.23 -4.96061 -6.07366 0
M  V30 13797 N 1266.73 1.55688 -0.24474 0
M  V30 13798 C 1267.98 1.98891 0.380603 0
M  V30 13799 C 1268.31 1.13283 1.58105 0
M  V30 13800 O 1267.56 0.183141 1.94841 0
M  V30 13801 C 1267.86 3.47487 0.835923 0
M  V30 13802 C 1267.53 4.5017 -0.256528 0
M  V30 13803 C 1266.19 4.7797 -0.556573 0
M  V30 13804 C 1268.54 5.1163 -0.994174 0
M  V30 13805 C 1265.87 5.64508 -1.59838 0
M  V30 13806 C 1268.22 5.99297 -2.02548 0
M  V30 13807 C 1266.88 6.25432 -2.3322 0
M  V30 13808 H 1266.15 0.727794 0.139273 0
M  V30 13809 H 1268.8 1.88235 -0.352113 0
M  V30 13810 H 1267.11 3.55464 1.64781 0
M  V30 13811 H 1268.8 3.78301 1.33001 0
M  V30 13812 H 1265.39 4.28598 -0.0125284 0
M  V30 13813 H 1269.58 4.90202 -0.775617 0
M  V30 13814 H 1264.83 5.83012 -1.84138 0
M  V30 13815 H 1269.01 6.45964 -2.60198 0
M  V30 13816 H 1266.63 6.92282 -3.14085 0
M  V30 13817 N 1268.21 -0.0283989 1.57574 0
M  V30 13818 C 1269.46 -0.718121 1.88483 0
M  V30 13819 C 1269.77 -1.76485 0.843345 0
M  V30 13820 O 1270.98 -2.50721 1.04169 0
M  V30 13821 C 1269.43 -1.32832 3.3449 0
M  V30 13822 C 1269.04 -0.317905 4.46871 0
M  V30 13823 C 1270.79 -1.99788 3.74546 0
M  V30 13824 C 1268.69 -0.936489 5.83938 0
M  V30 13825 H 1267.62 -0.271969 0.703242 0
M  V30 13826 H 1270.27 0.0274862 1.83479 0
M  V30 13827 H 1268.66 -2.12366 3.34241 0
M  V30 13828 H 1269.83 0.450767 4.5859 0
M  V30 13829 H 1268.14 0.249605 4.15651 0
M  V30 13830 H 1270.74 -2.46923 4.74271 0
M  V30 13831 H 1271.08 -2.81633 3.06575 0
M  V30 13832 H 1271.62 -1.27029 3.76973 0
M  V30 13833 H 1268.36 -0.15744 6.55311 0
M  V30 13834 H 1267.88 -1.67499 5.75938 0
M  V30 13835 H 1269.56 -1.44363 6.30689 0
M  V30 13836 N 1269.69 -1.54705 -0.300681 0
M  V30 13837 C 1270.92 -1.77735 -1.05327 0
M  V30 13838 C 1271.33 -0.53709 -1.81417 0
M  V30 13839 O 1270.67 0.502663 -1.76689 0
M  V30 13840 C 1270.73 -2.93222 -2.07993 0
M  V30 13841 C 1270.39 -4.313 -1.51095 0
M  V30 13842 C 1271.39 -5.11317 -0.94082 0
M  V30 13843 C 1269.08 -4.77901 -1.54648 0
M  V30 13844 C 1271.07 -6.36055 -0.413791 0
M  V30 13845 C 1268.76 -6.02602 -1.01558 0
M  V30 13846 C 1269.76 -6.81515 -0.450209 0
M  V30 13847 O 1269.44 -8.03867 0.0726375 0
M  V30 13848 H 1269.18 -0.596468 -0.318122 0
M  V30 13849 H 1271.73 -2.02475 -0.345404 0
M  V30 13850 H 1269.96 -2.64108 -2.82461 0
M  V30 13851 H 1271.65 -3.03826 -2.69156 0
M  V30 13852 H 1272.41 -4.76458 -0.906268 0
M  V30 13853 H 1268.29 -4.16507 -1.97594 0
M  V30 13854 H 1271.84 -6.97594 0.0281534 0
M  V30 13855 H 1267.73 -6.36948 -1.04728 0
M  V30 13856 H 1268.5 -8.1849 -0.0406321 0
M  V30 13857 N 1271.17 0.563888 -1.47167 0
M  V30 13858 C 1272.11 1.69254 -1.59549 0
M  V30 13859 C 1273.11 1.62948 -0.463078 0
M  V30 13860 O 1274.31 1.68214 -0.640639 0
M  V30 13861 H 1270.69 0.559925 -0.501984 0
M  V30 13862 H 1272.66 1.55946 -2.54408 0
M  V30 13863 C 1271.41 3.0762 -1.62066 0
M  V30 13864 H 1270.73 3.13151 -2.48549 0
M  V30 13865 H 1272.17 3.863 -1.74781 0
M  V30 13866 C 1270.63 3.35048 -0.352721 0
M  V30 13867 O 1271.16 3.9793 0.549053 0
M  V30 13868 N 1269.37 2.8965 -0.234805 0
M  V30 13869 H 1268.91 2.38657 -0.969561 0
M  V30 13870 H 1268.87 3.08373 0.61263 0
M  V30 13871 N 1272.64 1.35187 0.810078 0
M  V30 13872 C 1273.89 1.28454 1.56931 0
M  V30 13873 C 1274.22 -0.141747 1.93682 0
M  V30 13874 O 1273.5 -1.09028 1.61069 0
M  V30 13875 C 1273.78 2.18771 2.86027 0
M  V30 13876 C 1273.63 3.69999 2.55774 0
M  V30 13877 C 1274.95 2.08265 3.87703 0
M  V30 13878 H 1272.07 0.467959 0.569371 0
M  V30 13879 H 1274.71 1.65556 0.932262 0
M  V30 13880 H 1272.86 1.8726 3.40391 0
M  V30 13881 H 1274.54 4.11936 2.07621 0
M  V30 13882 H 1272.78 3.90453 1.89021 0
M  V30 13883 H 1273.45 4.28577 3.47888 0
M  V30 13884 H 1275.93 2.35958 3.42729 0
M  V30 13885 H 1274.8 2.73663 4.75815 0
M  V30 13886 H 1275.06 1.06352 4.29117 0
M  V30 13887 N 1274.12 -1.03182 1.19127 0
M  V30 13888 C 1275.36 -1.78089 1.00318 0
M  V30 13889 C 1275.73 -1.86451 -0.458252 0
M  V30 13890 O 1276.93 -2.57653 -0.766061 0
M  V30 13891 C 1275.2 -3.17012 1.6504 0
M  V30 13892 S 1276.76 -4.08146 1.61129 0
M  V30 13893 H 1273.58 -0.613096 0.360048 0
M  V30 13894 H 1276.18 -1.23657 1.51424 0
M  V30 13895 H 1274.88 -3.08541 2.70612 0
M  V30 13896 H 1274.41 -3.7652 1.14001 0
M  V30 13897 H 1276.43 -4.92141 0.633408 0
M  V30 13898 N 1275.6 -0.99472 -1.22242 0
M  V30 13899 C 1276.53 -0.566499 -2.26524 0
M  V30 13900 C 1277.51 0.407541 -1.65146 0
M  V30 13901 O 1278.7 0.297777 -1.91903 0
M  V30 13902 C 1275.83 0.11786 -3.471 0
M  V30 13903 C 1274.78 -0.774908 -4.20927 0
M  V30 13904 C 1274.11 0.0424687 -5.34683 0
M  V30 13905 C 1275.41 -2.07263 -4.79416 0
M  V30 13906 H 1277.1 -1.43818 -2.62596 0
M  V30 13907 H 1274.65 -0.692971 -1.2623 0
M  V30 13908 H 1276.6 0.428842 -4.19212 0
M  V30 13909 H 1275.32 1.0241 -3.10129 0
M  V30 13910 H 1273.98 -1.06956 -3.50651 0
M  V30 13911 H 1273.63 0.949677 -4.93954 0
M  V30 13912 H 1273.33 -0.551867 -5.85003 0
M  V30 13913 H 1274.85 0.347504 -6.0961 0
M  V30 13914 H 1276.27 -1.82548 -5.4346 0
M  V30 13915 H 1274.67 -2.61594 -5.40082 0
M  V30 13916 H 1275.74 -2.75017 -3.99366 0
M  V30 13917 N 1277.08 1.37613 -0.768148 0
M  V30 13918 C 1278.04 2.28653 -0.158283 0
M  V30 13919 C 1279.04 1.47862 0.631936 0
M  V30 13920 O 1280.23 1.68124 0.456055 0
M  V30 13921 C 1277.36 3.31776 0.783435 0
M  V30 13922 H 1278.56 2.84094 -0.960772 0
M  V30 13923 H 1276.11 1.46818 -0.536116 0
M  V30 13924 H 1276.84 2.81452 1.61106 0
M  V30 13925 H 1276.63 3.91488 0.219016 0
M  V30 13926 H 1278.12 3.99816 1.20568 0
M  V30 13927 N 1278.56 0.518393 1.4883 0
M  V30 13928 C 1279.5 -0.250684 2.29435 0
M  V30 13929 C 1280.47 -0.944481 1.36634 0
M  V30 13930 O 1281.66 -0.947766 1.65596 0
M  V30 13931 C 1278.8 -1.29871 3.1973 0
M  V30 13932 C 1277.91 -0.61493 4.27601 0
M  V30 13933 C 1277.05 -1.64489 5.05091 0
M  V30 13934 C 1276.09 -0.943932 6.04778 0
M  V30 13935 N 1275.22 -1.91889 6.75369 0
M  V30 13936 H 1280.06 0.44288 2.94691 0
M  V30 13937 H 1277.6 0.230246 1.45287 0
M  V30 13938 H 1279.56 -1.91851 3.70471 0
M  V30 13939 H 1278.19 -1.96081 2.56422 0
M  V30 13940 H 1277.24 0.118552 3.80215 0
M  V30 13941 H 1278.55 -0.063994 4.98759 0
M  V30 13942 H 1277.71 -2.33928 5.59788 0
M  V30 13943 H 1276.44 -2.2297 4.33746 0
M  V30 13944 H 1275.45 -0.235407 5.49296 0
M  V30 13945 H 1276.67 -0.365383 6.78116 0
M  V30 13946 H 1274.62 -2.493 6.06783 0
M  V30 13947 H 1274.54 -1.41909 7.42562 0
M  V30 13948 H 1275.81 -2.60563 7.34661 0
M  V30 13949 N 1280.03 -1.55556 0.252993 0
M  V30 13950 C 1281.28 -1.99385 -0.370599 0
M  V30 13951 C 1281.61 -1.14101 -1.57145 0
M  V30 13952 O 1280.89 -0.205828 -1.93408 0
M  V30 13953 C 1281.17 -3.51672 -0.774503 0
M  V30 13954 C 1281.02 -4.47719 0.432159 0
M  V30 13955 C 1282.34 -4.0923 -1.61923 0
M  V30 13956 H 1279.46 -0.724858 -0.133231 0
M  V30 13957 H 1282.1 -1.86644 0.355522 0
M  V30 13958 H 1280.25 -3.62661 -1.39318 0
M  V30 13959 H 1281.93 -4.48704 1.07063 0
M  V30 13960 H 1280.17 -4.2029 1.07419 0
M  V30 13961 H 1280.84 -5.51898 0.106123 0
M  V30 13962 H 1283.32 -4.01381 -1.09693 0
M  V30 13963 H 1282.19 -5.16039 -1.87068 0
M  V30 13964 H 1282.45 -3.58067 -2.59307 0
M  V30 13965 N 1281.51 0.0200419 -1.57587 0
M  V30 13966 C 1282.46 1.01784 -2.07144 0
M  V30 13967 C 1283.43 1.3537 -0.962501 0
M  V30 13968 O 1284.61 1.45553 -1.23365 0
M  V30 13969 C 1281.75 2.31091 -2.56302 0
M  V30 13970 C 1280.87 2.03584 -3.81022 0
M  V30 13971 C 1280 3.26827 -4.18757 0
M  V30 13972 C 1279.04 2.94915 -5.36369 0
M  V30 13973 N 1278.18 4.10636 -5.69493 0
M  V30 13974 H 1283.02 0.588288 -2.92136 0
M  V30 13975 H 1280.56 0.278848 -1.44433 0
M  V30 13976 H 1282.51 3.06656 -2.82874 0
M  V30 13977 H 1281.14 2.71752 -1.74215 0
M  V30 13978 H 1280.2 1.18475 -3.6148 0
M  V30 13979 H 1281.51 1.76049 -4.66699 0
M  V30 13980 H 1280.66 4.10753 -4.46505 0
M  V30 13981 H 1279.4 3.57483 -3.31749 0
M  V30 13982 H 1278.41 2.09392 -5.08365 0
M  V30 13983 H 1279.63 2.65528 -6.25037 0
M  V30 13984 H 1277.58 4.41226 -4.85444 0
M  V30 13985 H 1277.49 3.86556 -6.497 0
M  V30 13986 H 1278.76 4.95409 -6.01822 0
M  V30 13987 N 1282.99 1.54862 0.292472 0
M  V30 13988 C 1284.24 1.74203 1.02458 0
M  V30 13989 C 1284.56 0.535398 1.87506 0
M  V30 13990 O 1283.83 -0.450164 1.90658 0
M  V30 13991 H 1282.41 0.642369 0.381276 0
M  V30 13992 H 1285.07 1.92232 0.321398 0
M  V30 13993 H 1284.17 2.63486 1.67277 0
M  V30 13994 N 1284.47 -0.556076 1.47464 0
M  V30 13995 C 1285.7 -1.33664 1.57536 0
M  V30 13996 C 1286.11 -1.87858 0.224977 0
M  V30 13997 O 1285.45 -1.65746 -0.792091 0
M  V30 13998 C 1285.51 -2.54257 2.54152 0
M  V30 13999 C 1285.18 -2.21342 3.99821 0
M  V30 14000 C 1286.17 -1.78568 4.88272 0
M  V30 14001 C 1283.86 -2.32666 4.45165 0
M  V30 14002 C 1285.85 -1.47549 6.20087 0
M  V30 14003 C 1283.54 -2.0126 5.77008 0
M  V30 14004 C 1284.54 -1.58769 6.6429 0
M  V30 14005 O 1284.22 -1.27762 7.93683 0
M  V30 14006 H 1283.96 -0.413721 0.534613 0
M  V30 14007 H 1286.51 -0.680342 1.93805 0
M  V30 14008 H 1284.74 -3.22782 2.12952 0
M  V30 14009 H 1286.43 -3.16332 2.5434 0
M  V30 14010 H 1287.2 -1.69311 4.54487 0
M  V30 14011 H 1283.07 -2.64698 3.77433 0
M  V30 14012 H 1286.62 -1.1431 6.88171 0
M  V30 14013 H 1282.52 -2.10149 6.10334 0
M  V30 14014 H 1283.28 -1.41383 8.06197 0
M  V30 14015 N 1285.95 -1.35615 -0.802897 0
M  V30 14016 C 1287.36 -1.15733 -1.099 0
M  V30 14017 C 1287.56 0.0277094 -2.01481 0
M  V30 14018 O 1286.62 0.697196 -2.42684 0
M  V30 14019 C 1287.93 -2.46201 -1.72643 0
M  V30 14020 C 1289.48 -2.52442 -1.85046 0
M  V30 14021 C 1289.96 -3.82962 -2.51205 0
M  V30 14022 N 1291.45 -3.84234 -2.58686 0
M  V30 14023 C 1292.18 -4.81956 -3.10654 0
M  V30 14024 N 1291.68 -5.90068 -3.63032 0
M  V30 14025 N 1293.47 -4.69389 -3.09241 0
M  V30 14026 H 1285.62 -2.11511 -0.194177 0
M  V30 14027 H 1287.88 -0.936259 -0.148739 0
M  V30 14028 H 1287.59 -3.33114 -1.12817 0
M  V30 14029 H 1287.46 -2.6102 -2.72302 0
M  V30 14030 H 1289.85 -1.65955 -2.44014 0
M  V30 14031 H 1289.93 -2.41534 -0.842316 0
M  V30 14032 H 1289.58 -4.69848 -1.92885 0
M  V30 14033 H 1289.51 -3.9116 -3.52564 0
M  V30 14034 H 1292 -3.0612 -2.21582 0
M  V30 14035 H 1292.31 -6.60623 -4.00996 0
M  V30 14036 H 1290.66 -5.93755 -3.6122 0
M  V30 14037 H 1293.85 -3.84066 -2.67602 0
M  V30 14038 H 1294.02 -5.4571 -3.49435 0
M  V30 14039 N 1287.43 1.02549 -1.19673 0
M  V30 14040 C 1288.65 1.8016 -1.02748 0
M  V30 14041 C 1289.08 1.83372 0.419105 0
M  V30 14042 O 1288.43 1.26222 1.30144 0
M  V30 14043 C 1288.48 3.22907 -1.60509 0
M  V30 14044 O 1287.59 4.03823 -0.836702 0
M  V30 14045 H 1286.93 0.556027 -0.362946 0
M  V30 14046 H 1289.46 1.29047 -1.5877 0
M  V30 14047 H 1289.47 3.73646 -1.63868 0
M  V30 14048 H 1288.14 3.19885 -2.65794 0
M  V30 14049 H 1286.72 3.6245 -0.876626 0
M  V30 14050 N 1288.9 1.00119 1.21713 0
M  V30 14051 C 1289.83 0.578504 2.2622 0
M  V30 14052 C 1290.81 -0.398777 1.6536 0
M  V30 14053 O 1292 -0.287596 1.92059 0
M  V30 14054 C 1289.13 -0.0994508 3.47158 0
M  V30 14055 C 1288.08 0.79722 4.2051 0
M  V30 14056 C 1287.41 -0.0141125 5.34698 0
M  V30 14057 C 1288.71 2.09802 4.7831 0
M  V30 14058 H 1290.4 1.45208 2.6183 0
M  V30 14059 H 1287.95 0.699656 1.2586 0
M  V30 14060 H 1289.9 -0.406605 4.19434 0
M  V30 14061 H 1288.63 -1.00763 3.10667 0
M  V30 14062 H 1287.29 1.08814 3.50079 0
M  V30 14063 H 1286.93 -0.923468 4.9445 0
M  V30 14064 H 1286.63 0.582883 5.84702 0
M  V30 14065 H 1288.16 -0.31517 6.09786 0
M  V30 14066 H 1289.57 1.85427 5.42485 0
M  V30 14067 H 1287.97 2.64455 5.38687 0
M  V30 14068 H 1289.04 2.77132 3.97902 0
M  V30 14069 N 1290.38 -1.37203 0.775435 0
M  V30 14070 C 1291.61 -2.04396 0.351737 0
M  V30 14071 C 1292.03 -1.58099 -1.01913 0
M  V30 14072 O 1291.39 -0.742932 -1.65379 0
M  V30 14073 C 1291.44 -3.58283 0.408105 0
M  V30 14074 O 1290.54 -4.08156 -0.590104 0
M  V30 14075 H 1289.88 -0.646451 0.151647 0
M  V30 14076 H 1292.41 -1.75443 1.05265 0
M  V30 14077 H 1292.42 -4.07127 0.266711 0
M  V30 14078 H 1291.1 -3.91335 1.40819 0
M  V30 14079 H 1289.67 -3.70622 -0.411524 0
M  V30 14080 N 1291.86 -0.526279 -1.48553 0
M  V30 14081 C 1293.09 0.0052277 -2.06899 0
M  V30 14082 C 1293.5 1.2849 -1.38332 0
M  V30 14083 O 1292.86 1.76354 -0.469648 0
M  V30 14084 C 1292.91 0.236709 -3.60724 0
M  V30 14085 O 1292.63 -0.992256 -4.26715 0
M  V30 14086 C 1294.13 0.809014 -4.35855 0
M  V30 14087 H 1291.35 -0.0318426 -0.670244 0
M  V30 14088 H 1293.9 -0.730865 -1.90994 0
M  V30 14089 H 1292.05 0.922842 -3.76248 0
M  V30 14090 H 1292.47 -0.770697 -5.18807 0
M  V30 14091 H 1293.94 0.920428 -5.44272 0
M  V30 14092 H 1294.42 1.81302 -4.00033 0
M  V30 14093 H 1295.02 0.159564 -4.25001 0
M  V30 14094 N 1293.34 1.5542 -0.261239 0
M  V30 14095 C 1294.56 2.04142 0.366144 0
M  V30 14096 C 1294.99 1.13884 1.49706 0
M  V30 14097 O 1294.35 0.134629 1.80799 0
M  V30 14098 C 1294.39 3.50733 0.837774 0
M  V30 14099 O 1293.5 3.63588 1.94621 0
M  V30 14100 H 1292.84 0.659424 0.077821 0
M  V30 14101 H 1295.37 2.0082 -0.391487 0
M  V30 14102 H 1295.38 3.91831 1.13721 0
M  V30 14103 H 1294.05 4.15899 0.0102742 0
M  V30 14104 H 1292.63 3.34391 1.65037 0
M  V30 14105 N 1294.82 -0.0116844 1.57596 0
M  V30 14106 C 1295.75 -1.03477 2.04512 0
M  V30 14107 C 1296.76 -1.31414 0.960945 0
M  V30 14108 O 1297.95 -1.28596 1.23796 0
M  V30 14109 C 1295.05 -2.37234 2.42019 0
M  V30 14110 C 1294.22 -2.28405 3.73028 0
M  V30 14111 C 1293.28 -3.44753 3.97532 0
M  V30 14112 O 1292.31 -3.23465 4.68358 0
M  V30 14113 N 1293.51 -4.67212 3.44518 0
M  V30 14114 H 1296.27 -0.634758 2.92901 0
M  V30 14115 H 1293.84 -0.1993 1.60669 0
M  V30 14116 H 1295.83 -3.13821 2.55535 0
M  V30 14117 H 1294.4 -2.69018 1.5921 0
M  V30 14118 H 1293.62 -1.36804 3.697 0
M  V30 14119 H 1294.91 -2.19666 4.58938 0
M  V30 14120 H 1294.3 -4.87407 2.87142 0
M  V30 14121 H 1292.86 -5.41105 3.63384 0
M  V30 14122 N 1296.29 -1.55015 -0.284256 0
M  V30 14123 C 1297.52 -1.79102 -1.03586 0
M  V30 14124 C 1297.94 -0.558733 -1.80343 0
M  V30 14125 O 1297.29 0.471925 -1.76293 0
M  V30 14126 C 1297.34 -3.00915 -2.0033 0
M  V30 14127 O 1297.07 -4.19384 -1.26685 0
M  V30 14128 C 1298.57 -3.3752 -2.87394 0
M  V30 14129 H 1295.79 -0.596912 -0.306491 0
M  V30 14130 H 1298.33 -2.02005 -0.31845 0
M  V30 14131 H 1296.49 -2.80171 -2.67549 0
M  V30 14132 H 1296.9 -4.88175 -1.91796 0
M  V30 14133 H 1298.37 -4.25953 -3.51095 0
M  V30 14134 H 1298.85 -2.56418 -3.56576 0
M  V30 14135 H 1299.46 -3.60483 -2.25682 0
M  V30 14136 N 1297.77 0.548248 -1.47757 0
M  V30 14137 C 1299.02 1.30501 -1.54841 0
M  V30 14138 C 1299.35 1.93314 -0.214476 0
M  V30 14139 O 1298.6 1.7889 0.793526 0
M  V30 14140 C 1298.9 2.42911 -2.62162 0
M  V30 14141 C 1298.57 1.97871 -4.05164 0
M  V30 14142 C 1297.23 1.85304 -4.4409 0
M  V30 14143 C 1299.58 1.63606 -4.94856 0
M  V30 14144 C 1296.91 1.36781 -5.70533 0
M  V30 14145 C 1299.26 1.16552 -6.2177 0
M  V30 14146 C 1297.92 1.02588 -6.5957 0
M  V30 14147 H 1297.19 0.477536 -0.566604 0
M  V30 14148 H 1299.84 0.613837 -1.81395 0
M  V30 14149 H 1298.15 3.17622 -2.29398 0
M  V30 14150 H 1299.84 3.01078 -2.64864 0
M  V30 14151 H 1296.43 2.08597 -3.74413 0
M  V30 14152 H 1300.62 1.72184 -4.65474 0
M  V30 14153 H 1295.87 1.24641 -5.9856 0
M  V30 14154 H 1300.05 0.891041 -6.90676 0
M  V30 14155 H 1297.67 0.647675 -7.57436 0
M  V30 14156 N 1299.25 1.36039 0.795694 0
M  V30 14157 C 1300.48 1.32866 1.58209 0
M  V30 14158 C 1300.89 -0.0935189 1.88969 0
M  V30 14159 O 1300.23 -1.05905 1.501 0
M  V30 14160 C 1300.29 2.07872 2.93308 0
M  V30 14161 C 1299.96 3.56999 2.85309 0
M  V30 14162 C 1300.95 4.51374 2.57987 0
M  V30 14163 C 1298.64 3.99798 3.04083 0
M  V30 14164 C 1300.63 5.86526 2.49533 0
M  V30 14165 C 1298.32 5.35042 2.95251 0
M  V30 14166 C 1299.32 6.28218 2.68013 0
M  V30 14167 O 1299.01 7.60979 2.59163 0
M  V30 14168 H 1298.74 0.457589 0.497583 0
M  V30 14169 H 1301.29 1.79637 0.995978 0
M  V30 14170 H 1299.52 1.55755 3.53945 0
M  V30 14171 H 1301.21 1.97638 3.54534 0
M  V30 14172 H 1301.98 4.19623 2.43191 0
M  V30 14173 H 1297.86 3.27652 3.24292 0
M  V30 14174 H 1301.4 6.59222 2.28193 0
M  V30 14175 H 1297.3 5.66404 3.09608 0
M  V30 14176 H 1298.06 7.7103 2.74691 0
M  V30 14177 N 1300.73 -1.01913 1.20215 0
M  V30 14178 C 1302.01 -1.7262 0.919867 0
M  V30 14179 C 1302.39 -2.03203 -0.572001 0
M  V30 14180 O 1301.73 -1.69448 -1.53296 0
M  V30 14181 C 1301.94 -2.9959 1.79016 0
M  V30 14182 C 1303.29 -3.72905 2.03045 0
M  V30 14183 O 1304.32 -3.0954 1.76249 0
M  V30 14184 O 1303.17 -4.86844 2.48285 0
M  V30 14185 H 1300.27 -0.752194 0.343705 0
M  V30 14186 H 1302.81 -1.07783 1.31076 0
M  V30 14187 H 1301.59 -2.73292 2.80048 0
M  V30 14188 H 1301.21 -3.72168 1.39918 0
M  V30 14189 N 1302.21 -1.00763 -1.2118 0
M  V30 14190 C 1303.17 -0.575183 -2.21865 0
M  V30 14191 C 1304.17 0.349871 -1.56948 0
M  V30 14192 O 1305.36 0.139795 -1.73638 0
M  V30 14193 C 1302.49 0.161308 -3.40518 0
M  V30 14194 H 1303.68 -1.46578 -2.61639 0
M  V30 14195 H 1301.24 -0.79643 -1.34487 0
M  V30 14196 H 1301.97 1.06723 -3.06236 0
M  V30 14197 H 1301.76 -0.503101 -3.88859 0
M  V30 14198 H 1303.25 0.451527 -4.15152 0
M  V30 14199 N 1303.68 1.3679 -0.7827 0
M  V30 14200 C 1304.91 2.03382 -0.363207 0
M  V30 14201 C 1305.32 1.59157 1.02302 0
M  V30 14202 O 1304.67 0.773325 1.66629 0
M  V30 14203 C 1304.73 3.57889 -0.34001 0
M  V30 14204 C 1304.39 4.25289 -1.67268 0
M  V30 14205 C 1305.39 4.48647 -2.62701 0
M  V30 14206 C 1303.07 4.62899 -1.95013 0
M  V30 14207 C 1305.07 5.08686 -3.8408 0
M  V30 14208 C 1302.75 5.22657 -3.16659 0
M  V30 14209 C 1303.75 5.45489 -4.11012 0
M  V30 14210 O 1303.44 6.03995 -5.30515 0
M  V30 14211 H 1303.17 0.659452 -0.148658 0
M  V30 14212 H 1305.73 1.75885 -1.06082 0
M  V30 14213 H 1303.96 3.84477 0.414055 0
M  V30 14214 H 1305.65 4.05864 0.0539009 0
M  V30 14215 H 1306.41 4.19993 -2.42551 0
M  V30 14216 H 1302.29 4.44455 -1.22395 0
M  V30 14217 H 1305.83 5.26423 -4.57738 0
M  V30 14218 H 1301.73 5.50736 -3.3669 0
M  V30 14219 H 1302.5 6.22466 -5.31487 0
M  V30 14220 N 1305.16 0.53415 1.48272 0
M  V30 14221 C 1306.41 -0.000450626 2.017 0
M  V30 14222 C 1306.72 -1.34926 1.41613 0
M  V30 14223 O 1307.93 -1.97246 1.86564 0
M  V30 14224 C 1306.39 -0.0511883 3.59864 0
M  V30 14225 C 1305.99 1.29298 4.28936 0
M  V30 14226 C 1307.74 -0.534397 4.21123 0
M  V30 14227 C 1305.65 1.2026 5.79044 0
M  V30 14228 H 1304.58 -0.00393844 0.75399 0
M  V30 14229 H 1307.23 0.678554 1.70493 0
M  V30 14230 H 1305.61 -0.795358 3.8793 0
M  V30 14231 H 1306.78 2.05305 4.12537 0
M  V30 14232 H 1305.1 1.71226 3.79566 0
M  V30 14233 H 1307.69 -0.620048 5.31093 0
M  V30 14234 H 1308.04 -1.54114 3.86723 0
M  V30 14235 H 1308.57 0.154215 3.97501 0
M  V30 14236 H 1305.31 2.18463 6.18025 0
M  V30 14237 H 1304.83 0.483971 5.97844 0
M  V30 14238 H 1306.51 0.895005 6.4078 0
M  V30 14239 N 1306.64 -1.55279 0.269478 0
M  V30 14240 C 1307.87 -2.04334 -0.355313 0
M  V30 14241 C 1308.29 -1.14677 -1.491 0
M  V30 14242 O 1307.65 -0.144215 -1.80726 0
M  V30 14243 C 1307.7 -3.51172 -0.819162 0
M  V30 14244 O 1306.8 -3.64615 -1.9269 0
M  V30 14245 H 1306.14 -0.659827 -0.0743229 0
M  V30 14246 H 1308.67 -2.00609 0.402131 0
M  V30 14247 H 1308.68 -3.92428 -1.11642 0
M  V30 14248 H 1307.36 -4.15898 0.0117821 0
M  V30 14249 H 1305.93 -3.35261 -1.63261 0
M  V30 14250 N 1308.12 0.00332656 -1.576 0
M  V30 14251 C 1309.35 0.69893 -1.94418 0
M  V30 14252 C 1309.76 1.68021 -0.8698 0
M  V30 14253 O 1309.1 1.83 0.160193 0
M  V30 14254 C 1309.16 1.4892 -3.27205 0
M  V30 14255 C 1308.83 0.669874 -4.52064 0
M  V30 14256 C 1309.82 -0.0410157 -5.19884 0
M  V30 14257 C 1307.51 0.616824 -4.98498 0
M  V30 14258 C 1309.5 -0.793976 -6.32436 0
M  V30 14259 C 1307.19 -0.139864 -6.1094 0
M  V30 14260 C 1308.19 -0.844001 -6.77765 0
M  V30 14261 O 1307.87 -1.58835 -7.88052 0
M  V30 14262 H 1307.61 0.199843 -0.645785 0
M  V30 14263 H 1310.16 -0.0429034 -2.05355 0
M  V30 14264 H 1308.39 2.27544 -3.12667 0
M  V30 14265 H 1310.08 2.06983 -3.4916 0
M  V30 14266 H 1310.85 -0.00916281 -4.84999 0
M  V30 14267 H 1306.72 1.15442 -4.46312 0
M  V30 14268 H 1310.27 -1.34411 -6.84529 0
M  V30 14269 H 1306.17 -0.173549 -6.45267 0
M  V30 14270 H 1306.93 -1.50471 -8.0455 0
M  V30 14271 N 1309.6 1.55164 0.276031 0
M  V30 14272 C 1310.87 1.66338 1.02913 0
M  V30 14273 C 1311.25 0.527876 2.04393 0
M  V30 14274 O 1310.6 -0.472437 2.23563 0
M  V30 14275 C 1310.81 3.05427 1.68865 0
M  V30 14276 C 1312.16 3.63075 2.2014 0
M  V30 14277 O 1313.18 3.0804 1.78857 0
M  V30 14278 O 1312.04 4.59492 2.95854 0
M  V30 14279 H 1309.14 0.675446 0.477181 0
M  V30 14280 H 1311.68 1.67504 0.272129 0
M  V30 14281 H 1310.45 3.79514 0.953125 0
M  V30 14282 H 1310.08 3.08147 2.5126 0
M  V30 14283 N 1311.07 -0.540404 1.48045 0
M  V30 14284 C 1312.3 -1.32177 1.59175 0
M  V30 14285 C 1312.72 -1.87163 0.248115 0
M  V30 14286 O 1312.07 -1.65871 -0.761124 0
M  V30 14287 C 1312.13 -2.47995 2.63023 0
M  V30 14288 O 1311.85 -1.95278 3.92171 0
M  V30 14289 C 1313.35 -3.39967 2.84495 0
M  V30 14290 H 1310.57 -0.40233 0.537002 0
M  V30 14291 H 1313.11 -0.652983 1.93795 0
M  V30 14292 H 1311.27 -3.10779 2.31291 0
M  V30 14293 H 1311.68 -2.71012 4.49058 0
M  V30 14294 H 1313.15 -4.17607 3.60982 0
M  V30 14295 H 1313.63 -3.94555 1.92932 0
M  V30 14296 H 1314.24 -2.82985 3.1749 0
M  V30 14297 N 1312.55 -1.36459 -0.788468 0
M  V30 14298 C 1313.5 -1.30863 -1.90115 0
M  V30 14299 C 1314.47 -0.177148 -1.65153 0
M  V30 14300 O 1315.65 -0.363817 -1.87299 0
M  V30 14301 C 1312.79 -1.10473 -3.2694 0
M  V30 14302 C 1311.91 -2.32704 -3.63968 0
M  V30 14303 C 1311.04 -2.05319 -4.89916 0
M  V30 14304 C 1310.08 -3.23506 -5.19625 0
M  V30 14305 N 1309.22 -2.9578 -6.36756 0
M  V30 14306 H 1314.06 -2.26003 -1.94233 0
M  V30 14307 H 1311.6 -1.12324 -0.949827 0
M  V30 14308 H 1313.55 -0.966773 -4.05844 0
M  V30 14309 H 1312.18 -0.189873 -3.22241 0
M  V30 14310 H 1311.24 -2.573 -2.8018 0
M  V30 14311 H 1312.55 -3.20899 -3.81871 0
M  V30 14312 H 1311.7 -1.88459 -5.76687 0
M  V30 14313 H 1310.44 -1.14437 -4.74084 0
M  V30 14314 H 1309.45 -3.40924 -4.31336 0
M  V30 14315 H 1310.67 -4.15216 -5.37376 0
M  V30 14316 H 1308.62 -2.0751 -6.22315 0
M  V30 14317 H 1308.53 -3.77513 -6.54996 0
M  V30 14318 H 1309.8 -2.825 -7.26508 0
M  V30 14319 N 1314.03 1.01274 -1.20754 0
M  V30 14320 C 1315.31 1.7213 -0.929008 0
M  V30 14321 C 1315.69 2.03503 0.561217 0
M  V30 14322 O 1315.04 1.70259 1.52395 0
M  V30 14323 C 1315.25 2.98636 -1.80603 0
M  V30 14324 C 1316.59 3.71823 -2.0502 0
M  V30 14325 O 1317.62 3.08601 -1.77888 0
M  V30 14326 O 1316.48 4.8552 -2.50864 0
M  V30 14327 H 1313.57 0.750361 -0.347689 0
M  V30 14328 H 1316.12 1.07086 -1.31646 0
M  V30 14329 H 1314.89 2.71803 -2.81494 0
M  V30 14330 H 1314.51 3.7142 -1.4189 0
M  V30 14331 N 1315.51 1.01404 1.20644 0
M  V30 14332 C 1316.47 0.586941 2.21557 0
M  V30 14333 C 1317.47 -0.341543 1.57131 0
M  V30 14334 O 1318.66 -0.130585 1.7371 0
M  V30 14335 C 1315.79 -0.143248 3.40599 0
M  V30 14336 H 1316.99 1.47964 2.60858 0
M  V30 14337 H 1314.54 0.803551 1.34063 0
M  V30 14338 H 1315.28 -1.05097 3.06798 0
M  V30 14339 H 1315.06 0.523716 3.88587 0
M  V30 14340 H 1316.55 -0.429504 4.15385 0
M  V30 14341 N 1316.99 -1.36373 0.789944 0
M  V30 14342 C 1318.21 -2.04011 0.373396 0
M  V30 14343 C 1318.64 -1.59171 -1.00231 0
M  V30 14344 O 1318 -0.760431 -1.64582 0
M  V30 14345 C 1318.04 -3.5783 0.446083 0
M  V30 14346 O 1317.15 -4.08759 -0.54678 0
M  V30 14347 H 1316.49 -0.644807 0.158495 0
M  V30 14348 H 1319.02 -1.74317 1.0712 0
M  V30 14349 H 1319.03 -4.06822 0.309877 0
M  V30 14350 H 1317.7 -3.89819 1.44962 0
M  V30 14351 H 1316.28 -3.71038 -0.372192 0
M  V30 14352 N 1318.47 -0.542005 -1.47987 0
M  V30 14353 C 1319.71 -0.0123299 -2.02796 0
M  V30 14354 C 1320.04 1.32789 -1.41707 0
M  V30 14355 O 1319.32 1.86048 -0.567119 0
M  V30 14356 C 1319.6 0.0969277 -3.5997 0
M  V30 14357 C 1319.46 -1.26931 -4.31519 0
M  V30 14358 C 1320.77 0.817854 -4.32434 0
M  V30 14359 H 1317.89 -0.00595479 -0.736976 0
M  V30 14360 H 1320.54 -0.70136 -1.76581 0
M  V30 14361 H 1318.69 0.683755 -3.82436 0
M  V30 14362 H 1320.36 -1.89817 -4.20437 0
M  V30 14363 H 1318.6 -1.84804 -3.92467 0
M  V30 14364 H 1319.27 -1.14573 -5.39979 0
M  V30 14365 H 1321.75 0.319749 -4.1487 0
M  V30 14366 H 1320.62 0.863225 -5.4207 0
M  V30 14367 H 1320.88 1.87075 -4.00569 0
M  V30 14368 N 1319.94 1.55134 -0.277709 0
M  V30 14369 C 1321.17 2.04061 0.341601 0
M  V30 14370 C 1321.59 1.15597 1.49274 0
M  V30 14371 O 1320.94 0.176625 1.81643 0
M  V30 14372 C 1320.99 3.52074 0.820139 0
M  V30 14373 O 1320.72 4.37171 -0.28516 0
M  V30 14374 C 1322.22 4.16899 1.507 0
M  V30 14375 H 1319.44 0.666501 0.0775708 0
M  V30 14376 H 1321.98 2.00336 -0.410559 0
M  V30 14377 H 1320.14 3.56233 1.52238 0
M  V30 14378 H 1320.55 5.24434 0.0832022 0
M  V30 14379 H 1322.02 5.22061 1.79323 0
M  V30 14380 H 1322.5 3.65227 2.43939 0
M  V30 14381 H 1323.11 4.16749 0.848541 0
M  V30 14382 N 1321.42 0.00503138 1.57599 0
M  V30 14383 C 1322.7 -0.716079 1.82021 0
M  V30 14384 C 1323.08 -1.91707 0.883829 0
M  V30 14385 O 1322.43 -2.28404 -0.0662812 0
M  V30 14386 C 1322.64 -1.11706 3.3064 0
M  V30 14387 C 1323.98 -1.51881 3.96506 0
M  V30 14388 O 1325.01 -1.21071 3.34993 0
M  V30 14389 O 1323.87 -2.09191 5.04877 0
M  V30 14390 H 1320.96 -0.349112 0.7497 0
M  V30 14391 H 1323.51 0.030871 1.69672 0
M  V30 14392 H 1322.28 -0.261223 3.90427 0
M  V30 14393 H 1321.9 -1.92295 3.48006 0
M  V30 14394 N 1322.9 -1.55308 -0.267798 0
M  V30 14395 C 1324.15 -1.77342 -0.99606 0
M  V30 14396 C 1324.5 -0.570502 -1.83747 0
M  V30 14397 O 1323.79 0.436721 -1.86556 0
M  V30 14398 C 1323.99 -3.02286 -1.90678 0
M  V30 14399 C 1323.82 -4.34614 -1.15501 0
M  V30 14400 C 1322.59 -4.97779 -0.868576 0
M  V30 14401 C 1324.78 -5.11427 -0.542865 0
M  V30 14402 N 1322.77 -6.13833 -0.0905541 0
M  V30 14403 C 1324.14 -6.19918 0.100738 0
M  V30 14404 C 1326.19 -4.95851 -0.45123 0
M  V30 14405 C 1324.9 -7.14528 0.827151 0
M  V30 14406 C 1326.92 -5.90821 0.261602 0
M  V30 14407 C 1326.28 -6.98705 0.893924 0
M  V30 14408 H 1322.38 -0.701146 -0.346292 0
M  V30 14409 H 1324.97 -1.92802 -0.271211 0
M  V30 14410 H 1323.14 -2.88192 -2.60384 0
M  V30 14411 H 1324.87 -3.12702 -2.56904 0
M  V30 14412 H 1321.62 -4.58789 -1.17515 0
M  V30 14413 H 1322.05 -6.76396 0.28594 0
M  V30 14414 H 1326.69 -4.1254 -0.925774 0
M  V30 14415 H 1324.41 -7.97356 1.31336 0
M  V30 14416 H 1327.99 -5.80847 0.332892 0
M  V30 14417 H 1326.87 -7.70927 1.43672 0
M  V30 14418 N 1324.38 0.532545 -1.4833 0
M  V30 14419 C 1325.62 1.29042 -1.56448 0
M  V30 14420 C 1325.96 1.92754 -0.236532 0
M  V30 14421 O 1325.23 1.79154 0.757237 0
M  V30 14422 C 1325.51 2.38173 -2.70084 0
M  V30 14423 C 1325.37 1.79169 -4.12576 0
M  V30 14424 C 1326.69 3.39957 -2.79495 0
M  V30 14425 H 1323.81 0.467816 -0.569488 0
M  V30 14426 H 1326.45 0.593517 -1.80492 0
M  V30 14427 H 1324.6 2.97616 -2.49714 0
M  V30 14428 H 1326.27 1.23797 -4.44378 0
M  V30 14429 H 1324.51 1.09716 -4.19696 0
M  V30 14430 H 1325.18 2.58174 -4.87904 0
M  V30 14431 H 1327.66 2.90466 -2.97941 0
M  V30 14432 H 1326.54 4.13714 -3.60739 0
M  V30 14433 H 1326.8 4.00347 -1.87548 0
M  V30 14434 N 1325.86 1.36875 0.78122 0
M  V30 14435 C 1327.1 1.30886 1.53466 0
M  V30 14436 C 1327.42 -0.107218 1.95306 0
M  V30 14437 O 1328.62 -0.289525 2.69952 0
M  V30 14438 C 1327.08 2.29688 2.77076 0
M  V30 14439 C 1326.69 3.76775 2.42373 0
M  V30 14440 C 1328.43 2.32692 3.55042 0
M  V30 14441 C 1326.34 4.67332 3.62428 0
M  V30 14442 H 1325.27 0.486408 0.576128 0
M  V30 14443 H 1327.92 1.62283 0.856529 0
M  V30 14444 H 1326.3 1.91296 3.4673 0
M  V30 14445 H 1327.48 4.2395 1.80563 0
M  V30 14446 H 1325.79 3.76625 1.77602 0
M  V30 14447 H 1328.39 2.97556 4.44257 0
M  V30 14448 H 1328.73 1.33779 3.94219 0
M  V30 14449 H 1329.26 2.69743 2.92375 0
M  V30 14450 H 1326 5.67339 3.2834 0
M  V30 14451 H 1325.52 4.24868 4.23376 0
M  V30 14452 H 1327.2 4.84005 4.29358 0
M  V30 14453 N 1327.33 -1.00632 1.21289 0
M  V30 14454 C 1328.28 -2.11502 0.96798 0
M  V30 14455 C 1329.28 -1.6919 -0.0843024 0
M  V30 14456 O 1330.48 -1.79875 0.06697 0
M  V30 14457 H 1326.86 -0.691398 0.295759 0
M  V30 14458 H 1328.83 -2.29337 1.90911 0
M  V30 14459 C 1327.58 -3.43357 0.547818 0
M  V30 14460 H 1326.9 -3.76348 1.34915 0
M  V30 14461 H 1328.34 -4.21957 0.415759 0
M  V30 14462 C 1326.8 -3.28648 -0.741086 0
M  V30 14463 O 1327.33 -3.59267 -1.79695 0
M  V30 14464 N 1325.53 -2.81866 -0.707084 0
M  V30 14465 H 1325.08 -2.57149 0.152447 0
M  V30 14466 H 1325.04 -2.72406 -1.56979 0
M  V30 14467 N 1328.81 -1.02043 -1.20104 0
M  V30 14468 C 1329.72 -0.603724 -2.26699 0
M  V30 14469 C 1330.74 0.360558 -1.70223 0
M  V30 14470 O 1331.91 0.220552 -2.00189 0
M  V30 14471 C 1328.98 0.0475988 -3.46667 0
M  V30 14472 C 1328.04 -0.963111 -4.18357 0
M  V30 14473 C 1327.27 -0.342775 -5.32598 0
M  V30 14474 O 1327.5 0.856509 -5.63933 0
M  V30 14475 O 1326.43 -1.06141 -5.92467 0
M  V30 14476 H 1330.26 -1.49125 -2.64566 0
M  V30 14477 H 1327.84 -0.790134 -1.26796 0
M  V30 14478 H 1329.72 0.411177 -4.19389 0
M  V30 14479 H 1328.4 0.909266 -3.10667 0
M  V30 14480 H 1327.3 -1.37813 -3.47791 0
M  V30 14481 H 1328.64 -1.79487 -4.58307 0
M  V30 14482 N 1330.29 1.35952 -0.797165 0
M  V30 14483 C 1331.22 2.32506 -0.215277 0
M  V30 14484 C 1332.2 1.57023 0.654046 0
M  V30 14485 O 1333.39 1.85139 0.586268 0
M  V30 14486 C 1330.52 3.41266 0.644557 0
M  V30 14487 C 1329.47 4.27816 -0.125501 0
M  V30 14488 C 1328.8 5.27813 0.855428 0
M  V30 14489 C 1330.1 5.05367 -1.31913 0
M  V30 14490 H 1331.79 2.8142 -1.02193 0
M  V30 14491 H 1329.34 1.35303 -0.492862 0
M  V30 14492 H 1331.29 4.07808 1.06163 0
M  V30 14493 H 1330.01 2.90938 1.484 0
M  V30 14494 H 1328.67 3.62841 -0.523639 0
M  V30 14495 H 1328.32 4.73755 1.69011 0
M  V30 14496 H 1328.02 5.86589 0.344566 0
M  V30 14497 H 1329.54 5.97227 1.2709 0
M  V30 14498 H 1330.96 5.64907 -0.977418 0
M  V30 14499 H 1329.36 5.73593 -1.76382 0
M  V30 14500 H 1330.43 4.36558 -2.11057 0
M  V30 14501 N 1331.77 0.549846 1.47697 0
M  V30 14502 C 1333.18 0.209085 1.58225 0
M  V30 14503 C 1333.38 -1.28823 1.54941 0
M  V30 14504 O 1332.44 -2.0679 1.44893 0
M  V30 14505 C 1333.75 0.829219 2.89041 0
M  V30 14506 C 1335.3 0.79977 3.0261 0
M  V30 14507 C 1335.78 1.39884 4.36115 0
M  V30 14508 N 1337.27 1.36169 4.42733 0
M  V30 14509 C 1338 1.79492 5.44583 0
M  V30 14510 N 1337.5 2.30637 6.53283 0
M  V30 14511 N 1339.29 1.70608 5.35583 0
M  V30 14512 H 1331.44 1.52275 1.48074 0
M  V30 14513 H 1333.71 0.634579 0.704283 0
M  V30 14514 H 1333.41 1.88122 2.97158 0
M  V30 14515 H 1333.29 0.317916 3.75858 0
M  V30 14516 H 1335.67 -0.243525 2.94093 0
M  V30 14517 H 1335.75 1.34875 2.17353 0
M  V30 14518 H 1335.4 2.44116 4.45387 0
M  V30 14519 H 1335.33 0.825362 5.20092 0
M  V30 14520 H 1337.82 0.987505 3.64769 0
M  V30 14521 H 1338.13 2.61637 7.27163 0
M  V30 14522 H 1336.48 2.34643 6.54192 0
M  V30 14523 H 1339.67 1.30434 4.4956 0
M  V30 14524 H 1339.84 2.0469 6.14822 0
M  V30 14525 N 1333.25 -1.54984 0.285932 0
M  V30 14526 C 1334.48 -2.03943 -0.330295 0
M  V30 14527 C 1334.88 -1.16336 -1.49207 0
M  V30 14528 O 1334.23 -0.178341 -1.82832 0
M  V30 14529 C 1334.29 -3.48976 -0.863479 0
M  V30 14530 C 1333.95 -4.5668 0.171058 0
M  V30 14531 C 1334.95 -5.10303 0.994329 0
M  V30 14532 C 1332.64 -5.01352 0.308416 0
M  V30 14533 C 1334.63 -6.07126 1.94104 0
M  V30 14534 C 1332.32 -5.97999 1.25859 0
M  V30 14535 C 1333.31 -6.50768 2.0734 0
M  V30 14536 O 1333 -7.45524 3.00749 0
M  V30 14537 H 1332.73 -0.671491 -0.0779452 0
M  V30 14538 H 1335.29 -2.01081 0.419011 0
M  V30 14539 H 1333.52 -3.49113 -1.66305 0
M  V30 14540 H 1335.21 -3.81213 -1.39396 0
M  V30 14541 H 1335.97 -4.76595 0.899002 0
M  V30 14542 H 1331.85 -4.59917 -0.315817 0
M  V30 14543 H 1335.4 -6.48239 2.57743 0
M  V30 14544 H 1331.29 -6.31125 1.35469 0
M  V30 14545 H 1332.06 -7.63276 2.95554 0
M  V30 14546 N 1334.72 -0.0133892 -1.57594 0
M  V30 14547 C 1335.67 0.982482 -2.05746 0
M  V30 14548 C 1336.66 1.29508 -0.954801 0
M  V30 14549 O 1337.85 1.28382 -1.21848 0
M  V30 14550 C 1334.98 2.27012 -2.57527 0
M  V30 14551 C 1334.07 1.98658 -3.74694 0
M  V30 14552 N 1334.46 1.40512 -4.85891 0
M  V30 14553 C 1332.75 2.28732 -3.82881 0
M  V30 14554 C 1333.46 1.28933 -5.67231 0
M  V30 14555 N 1332.43 1.77951 -5.13648 0
M  V30 14556 H 1336.23 0.527626 -2.89125 0
M  V30 14557 H 1333.75 0.192001 -1.61261 0
M  V30 14558 H 1335.74 2.99212 -2.90306 0
M  V30 14559 H 1334.4 2.73139 -1.75572 0
M  V30 14560 H 1335.42 1.08217 -5.06468 0
M  V30 14561 H 1332.09 2.77641 -3.11804 0
M  V30 14562 H 1333.48 0.841051 -6.66615 0
M  V30 14563 N 1336.2 1.55448 0.259558 0
M  V30 14564 C 1337.13 1.9226 1.32508 0
M  V30 14565 C 1338.11 0.786012 1.5085 0
M  V30 14566 O 1339.3 1.04526 1.6367 0
M  V30 14567 C 1336.43 2.20627 2.68218 0
M  V30 14568 C 1335.38 3.36418 2.64589 0
M  V30 14569 C 1334.71 3.50295 4.03977 0
M  V30 14570 C 1336.01 4.72452 2.2268 0
M  V30 14571 H 1337.7 2.81509 1.01945 0
M  V30 14572 H 1335.25 1.35444 0.488965 0
M  V30 14573 H 1337.2 2.44968 3.42883 0
M  V30 14574 H 1335.93 1.28191 3.00391 0
M  V30 14575 H 1334.58 3.12065 1.92382 0
M  V30 14576 H 1334.23 2.55302 4.33394 0
M  V30 14577 H 1333.93 4.28155 4.02439 0
M  V30 14578 H 1335.46 3.76944 4.8036 0
M  V30 14579 H 1336.87 4.96249 2.87071 0
M  V30 14580 H 1335.27 5.53323 2.32279 0
M  V30 14581 H 1336.34 4.70367 1.17826 0
M  V30 14582 N 1337.68 -0.524672 1.4861 0
M  V30 14583 C 1338.59 -1.65554 1.6622 0
M  V30 14584 C 1339.61 -1.65254 0.54471 0
M  V30 14585 O 1340.78 -1.84109 0.816454 0
M  V30 14586 C 1337.85 -3.02003 1.7028 0
M  V30 14587 C 1336.91 -3.13116 2.93695 0
M  V30 14588 C 1336.14 -4.43055 2.97553 0
M  V30 14589 O 1336.36 -5.30468 2.09667 0
M  V30 14590 O 1335.3 -4.58646 3.89779 0
M  V30 14591 H 1339.12 -1.53633 2.61974 0
M  V30 14592 H 1336.71 -0.698354 1.32073 0
M  V30 14593 H 1338.59 -3.83143 1.75441 0
M  V30 14594 H 1337.27 -3.14236 0.777002 0
M  V30 14595 H 1336.17 -2.31251 2.94064 0
M  V30 14596 H 1337.51 -3.058 3.85677 0
M  V30 14597 N 1339.16 -1.37287 -0.77395 0
M  V30 14598 C 1340.07 -1.35059 -1.91823 0
M  V30 14599 C 1341.08 -0.250489 -1.72188 0
M  V30 14600 O 1342.26 -0.485501 -1.95461 0
M  V30 14601 C 1339.33 -1.15444 -3.26915 0
M  V30 14602 C 1338.39 -2.35073 -3.5922 0
M  V30 14603 C 1337.62 -2.16384 -4.87867 0
M  V30 14604 O 1337.84 -1.14696 -5.58749 0
M  V30 14605 O 1336.78 -3.0452 -5.19183 0
M  V30 14606 H 1340.6 -2.31432 -1.96654 0
M  V30 14607 H 1338.19 -1.17994 -0.916392 0
M  V30 14608 H 1340.07 -1.06484 -4.07724 0
M  V30 14609 H 1338.74 -0.221435 -3.22942 0
M  V30 14610 H 1337.65 -2.49604 -2.78655 0
M  V30 14611 H 1338.98 -3.26933 -3.67934 0
M  V30 14612 N 1340.64 0.999871 -1.21821 0
M  V30 14613 C 1341.86 1.7794 -1.06546 0
M  V30 14614 C 1342.29 1.84219 0.380115 0
M  V30 14615 O 1341.64 1.28955 1.27438 0
M  V30 14616 C 1341.69 3.1943 -1.67322 0
M  V30 14617 O 1340.8 4.01957 -0.922171 0
M  V30 14618 H 1340.14 0.548204 -0.374658 0
M  V30 14619 H 1342.67 1.2565 -1.61472 0
M  V30 14620 H 1342.68 3.70086 -1.71757 0
M  V30 14621 H 1341.35 3.14175 -2.7252 0
M  V30 14622 H 1339.93 3.60509 -0.95331 0
M  V30 14623 N 1342.11 1.02678 1.19562 0
M  V30 14624 C 1343.53 0.743467 1.41226 0
M  V30 14625 C 1343.73 -0.672786 1.89936 0
M  V30 14626 O 1342.79 -1.43908 2.07477 0
M  V30 14627 C 1344.1 1.77781 2.42517 0
M  V30 14628 C 1345.65 1.79711 2.56267 0
M  V30 14629 C 1346.12 2.82099 3.60811 0
M  V30 14630 N 1347.61 2.80902 3.68304 0
M  V30 14631 C 1348.35 3.5678 4.48882 0
M  V30 14632 N 1347.84 4.42367 5.33182 0
M  V30 14633 N 1349.64 3.45331 4.43512 0
M  V30 14634 H 1341.79 1.94094 0.862635 0
M  V30 14635 H 1344.05 0.839015 0.441313 0
M  V30 14636 H 1343.76 2.79295 2.13745 0
M  V30 14637 H 1343.63 1.59836 3.41661 0
M  V30 14638 H 1346.02 0.788756 2.84364 0
M  V30 14639 H 1346.1 2.01731 1.57284 0
M  V30 14640 H 1345.74 3.83104 3.33457 0
M  V30 14641 H 1345.67 2.57338 4.5944 0
M  V30 14642 H 1348.16 2.18826 3.08097 0
M  V30 14643 H 1348.48 4.97008 5.9178 0
M  V30 14644 H 1346.82 4.4644 5.3265 0
M  V30 14645 H 1350.01 2.77883 3.76695 0
M  V30 14646 H 1350.19 4.04718 5.06071 0
M  V30 14647 N 1343.59 -1.35528 0.804364 0
M  V30 14648 C 1344.87 -1.93175 0.307049 0
M  V30 14649 C 1345.25 -1.73466 -1.20303 0
M  V30 14650 O 1344.6 -1.10235 -2.00151 0
M  V30 14651 C 1344.81 -3.41576 0.716018 0
M  V30 14652 C 1346.16 -4.18719 0.704242 0
M  V30 14653 O 1347.18 -3.50081 0.657423 0
M  V30 14654 O 1346.04 -5.41181 0.760601 0
M  V30 14655 H 1343.13 -0.823142 0.0797888 0
M  V30 14656 H 1345.68 -1.44617 0.887912 0
M  V30 14657 H 1344.45 -3.49642 1.75688 0
M  V30 14658 H 1344.07 -3.97448 0.109843 0
M  V30 14659 N 1345.07 -0.557671 -1.47404 0
M  V30 14660 C 1346.02 0.189765 -2.30019 0
M  V30 14661 C 1346.99 0.907923 -1.3909 0
M  V30 14662 O 1348.17 0.903528 -1.68051 0
M  V30 14663 C 1345.31 1.21348 -3.23061 0
M  V30 14664 C 1344.43 0.501343 -4.29081 0
M  V30 14665 C 1343.56 1.51039 -5.09275 0
M  V30 14666 C 1342.6 0.783254 -6.07068 0
M  V30 14667 N 1341.74 1.73916 -6.80219 0
M  V30 14668 H 1346.58 -0.520856 -2.93413 0
M  V30 14669 H 1344.11 -0.268686 -1.44625 0
M  V30 14670 H 1346.07 1.81961 -3.75428 0
M  V30 14671 H 1344.7 1.89213 -2.61531 0
M  V30 14672 H 1343.75 -0.219317 -3.79767 0
M  V30 14673 H 1345.07 -0.0682656 -4.98753 0
M  V30 14674 H 1344.22 2.19004 -5.65793 0
M  V30 14675 H 1342.96 2.11392 -4.39505 0
M  V30 14676 H 1341.96 0.0896883 -5.49727 0
M  V30 14677 H 1343.19 0.185464 -6.78847 0
M  V30 14678 H 1341.14 2.33125 -6.13179 0
M  V30 14679 H 1341.05 1.22171 -7.46063 0
M  V30 14680 H 1342.32 2.40993 -7.41311 0
M  V30 14681 N 1346.55 1.54831 -0.294147 0
M  V30 14682 C 1347.5 2.24707 0.600795 0
M  V30 14683 C 1348.49 1.25067 1.14257 0
M  V30 14684 O 1349.7 1.42939 1.094 0
M  V30 14685 H 1346.07 0.721399 0.212338 0
M  V30 14686 H 1348.04 2.98398 -0.0111682 0
M  V30 14687 C 1346.79 2.996 1.76451 0
M  V30 14688 H 1346.12 3.76072 1.35684 0
M  V30 14689 H 1347.56 3.51785 2.36692 0
M  V30 14690 C 1346.01 2.0617 2.6645 0
M  V30 14691 O 1346.54 1.62527 3.67353 0
M  V30 14692 N 1344.75 1.7227 2.34033 0
M  V30 14693 H 1344.3 2.07957 1.52025 0
M  V30 14694 H 1344.26 1.10031 2.94518 0
M  V30 14695 N 1348.03 0.0217466 1.57585 0
M  V30 14696 C 1349.27 -0.659463 1.91778 0
M  V30 14697 C 1349.61 -1.72201 0.897801 0
M  V30 14698 O 1348.88 -1.94333 -0.080509 0
M  V30 14699 C 1349.16 -1.28269 3.36481 0
M  V30 14700 C 1349.02 -0.230201 4.49211 0
M  V30 14701 C 1350.34 -2.20279 3.81005 0
M  V30 14702 H 1347.46 -0.238263 0.697424 0
M  V30 14703 H 1350.1 0.0774967 1.89842 0
M  V30 14704 H 1348.25 -1.9108 3.38262 0
M  V30 14705 H 1349.92 0.399901 4.59563 0
M  V30 14706 H 1348.16 0.445157 4.3151 0
M  V30 14707 H 1348.83 -0.705732 5.4747 0
M  V30 14708 H 1351.31 -1.67463 3.80914 0
M  V30 14709 H 1350.19 -2.60842 4.82962 0
M  V30 14710 H 1350.45 -3.09092 3.16093 0
M  V30 14711 N 1349.51 -1.55583 -0.251311 0
M  V30 14712 C 1350.44 -1.9296 -1.31486 0
M  V30 14713 C 1351.42 -0.794001 -1.50431 0
M  V30 14714 O 1352.6 -1.05393 -1.63113 0
M  V30 14715 C 1349.73 -2.22046 -2.67045 0
M  V30 14716 C 1348.69 -3.37816 -2.62801 0
M  V30 14717 C 1348.01 -3.52433 -4.02113 0
M  V30 14718 C 1349.31 -4.73626 -2.20171 0
M  V30 14719 H 1351.01 -2.82046 -1.00451 0
M  V30 14720 H 1348.55 -1.35702 -0.481775 0
M  V30 14721 H 1350.5 -2.46783 -3.41579 0
M  V30 14722 H 1349.23 -1.29782 -2.99707 0
M  V30 14723 H 1347.89 -3.13081 -1.90724 0
M  V30 14724 H 1347.54 -2.57597 -4.32034 0
M  V30 14725 H 1347.24 -4.30283 -4.00163 0
M  V30 14726 H 1348.76 -3.79486 -4.78354 0
M  V30 14727 H 1350.17 -4.97764 -2.84436 0
M  V30 14728 H 1348.57 -5.54547 -2.29341 0
M  V30 14729 H 1349.64 -4.70985 -1.1533 0
M  V30 14730 N 1350.98 0.516783 -1.48886 0
M  V30 14731 C 1351.91 1.62897 -1.67292 0
M  V30 14732 C 1352.89 1.61903 -0.521671 0
M  V30 14733 O 1354.08 1.78892 -0.755728 0
M  V30 14734 C 1351.21 3.01444 -1.72478 0
M  V30 14735 C 1350.16 3.173 -2.87236 0
M  V30 14736 C 1349.49 4.5704 -2.77522 0
M  V30 14737 C 1350.79 2.98818 -4.28375 0
M  V30 14738 H 1352.48 1.47748 -2.60405 0
M  V30 14739 H 1350.03 0.709361 -1.25316 0
M  V30 14740 H 1351.98 3.79135 -1.83942 0
M  V30 14741 H 1350.71 3.17645 -0.759538 0
M  V30 14742 H 1349.37 2.4203 -2.75349 0
M  V30 14743 H 1349.01 4.70096 -1.78938 0
M  V30 14744 H 1348.71 4.68593 -3.54534 0
M  V30 14745 H 1350.24 5.36813 -2.90972 0
M  V30 14746 H 1351.65 3.66291 -4.41026 0
M  V30 14747 H 1350.05 3.21854 -5.06488 0
M  V30 14748 H 1351.12 1.95102 -4.43918 0
M  V30 14749 N 1352.46 1.37696 0.766659 0
M  V30 14750 C 1353.7 1.34588 1.53836 0
M  V30 14751 C 1354.07 -0.0676384 1.91881 0
M  V30 14752 O 1355.27 -0.223479 2.67869 0
M  V30 14753 C 1353.54 2.26329 2.76604 0
M  V30 14754 S 1355.1 2.4112 3.66615 0
M  V30 14755 H 1351.91 0.477717 0.5266 0
M  V30 14756 H 1354.52 1.73495 0.901099 0
M  V30 14757 H 1353.22 3.27943 2.46742 0
M  V30 14758 H 1352.75 1.88525 3.45285 0
M  V30 14759 H 1354.77 1.62556 4.68818 0
M  V30 14760 N 1353.94 -0.993397 1.22349 0
M  V30 14761 C 1354.87 -2.10171 1.01737 0
M  V30 14762 C 1355.85 -1.69989 -0.0615276 0
M  V30 14763 O 1357.04 -1.93939 0.100591 0
M  V30 14764 C 1354.17 -3.42186 0.593801 0
M  V30 14765 C 1353.12 -3.96215 1.61858 0
M  V30 14766 C 1352.45 -5.24272 1.05086 0
M  V30 14767 C 1353.75 -4.26956 3.00842 0
M  V30 14768 H 1355.44 -2.27673 1.94436 0
M  V30 14769 H 1352.99 -1.09408 0.936258 0
M  V30 14770 H 1354.94 -4.19131 0.436715 0
M  V30 14771 H 1353.66 -3.2451 -0.368855 0
M  V30 14772 H 1352.32 -3.21401 1.76343 0
M  V30 14773 H 1351.97 -5.02937 0.0795747 0
M  V30 14774 H 1351.67 -5.61387 1.73547 0
M  V30 14775 H 1353.19 -6.03851 0.905349 0
M  V30 14776 H 1354.61 -4.94699 2.89734 0
M  V30 14777 H 1353 -4.75242 3.66422 0
M  V30 14778 H 1354.07 -3.34752 3.50812 0
M  V30 14779 N 1355.42 -1.03311 -1.19015 0
M  V30 14780 C 1356.33 -0.627735 -2.26046 0
M  V30 14781 C 1357.34 0.342483 -1.70596 0
M  V30 14782 O 1358.52 0.199307 -2.00411 0
M  V30 14783 C 1355.58 0.0108274 -3.46698 0
M  V30 14784 C 1354.65 -1.00743 -4.17312 0
M  V30 14785 C 1353.88 -0.399245 -5.32205 0
M  V30 14786 O 1354.1 0.796649 -5.64809 0
M  V30 14787 O 1353.04 -1.12419 -5.91308 0
M  V30 14788 H 1356.86 -1.51923 -2.6297 0
M  V30 14789 H 1354.45 -0.803538 -1.25951 0
M  V30 14790 H 1356.33 0.366672 -4.19802 0
M  V30 14791 H 1355 0.876265 -3.11614 0
M  V30 14792 H 1353.91 -1.41494 -3.4631 0
M  V30 14793 H 1355.24 -1.84338 -4.56377 0
M  V30 14794 N 1356.9 1.35099 -0.81154 0
M  V30 14795 C 1357.81 2.33499 -0.22705 0
M  V30 14796 C 1358.82 1.62095 0.632562 0
M  V30 14797 O 1360 1.93938 0.543147 0
M  V30 14798 C 1357.06 3.41279 0.610687 0
M  V30 14799 C 1356.12 4.2845 -0.269994 0
M  V30 14800 C 1355.36 5.31083 0.527854 0
M  V30 14801 O 1355.58 5.42499 1.76213 0
M  V30 14802 O 1354.51 6.01842 -0.083862 0
M  V30 14803 H 1358.34 2.85294 -1.04119 0
M  V30 14804 H 1355.92 1.37957 -0.573432 0
M  V30 14805 H 1357.81 4.07121 1.08768 0
M  V30 14806 H 1356.48 2.91746 1.40235 0
M  V30 14807 H 1355.39 3.65572 -0.794234 0
M  V30 14808 H 1356.72 4.81394 -1.02572 0
M  V30 14809 N 1358.37 0.56548 1.47106 0
M  V30 14810 C 1359.79 0.225855 1.57994 0
M  V30 14811 C 1359.99 -1.27173 1.56299 0
M  V30 14812 O 1359.05 -2.05242 1.47078 0
M  V30 14813 C 1360.36 0.859829 2.88145 0
M  V30 14814 C 1361.91 0.831821 3.01744 0
M  V30 14815 C 1362.38 1.44502 4.34607 0
M  V30 14816 N 1363.87 1.40857 4.41263 0
M  V30 14817 C 1364.61 1.85258 5.42648 0
M  V30 14818 N 1364.1 2.37553 6.508 0
M  V30 14819 N 1365.9 1.76279 5.33744 0
M  V30 14820 H 1358.05 1.53837 1.46451 0
M  V30 14821 H 1360.31 0.642013 0.697512 0
M  V30 14822 H 1360.02 1.91264 2.95146 0
M  V30 14823 H 1359.89 0.357762 3.755 0
M  V30 14824 H 1362.28 -0.212319 2.94335 0
M  V30 14825 H 1362.36 1.37173 2.1591 0
M  V30 14826 H 1362 2.48827 4.42773 0
M  V30 14827 H 1361.93 0.880479 5.19187 0
M  V30 14828 H 1364.42 1.02614 3.63702 0
M  V30 14829 H 1364.74 2.69335 7.24347 0
M  V30 14830 H 1363.08 2.41569 6.51667 0
M  V30 14831 H 1366.27 1.35195 4.48152 0
M  V30 14832 H 1366.45 2.11199 6.12616 0
M  V30 14833 N 1359.85 -1.54672 0.302354 0
M  V30 14834 C 1361.13 -1.92264 -0.359711 0
M  V30 14835 C 1361.51 -1.22973 -1.71583 0
M  V30 14836 O 1360.86 -0.365942 -2.25551 0
M  V30 14837 C 1361.07 -3.4578 -0.473019 0
M  V30 14838 C 1362.42 -4.18044 -0.743252 0
M  V30 14839 O 1363.44 -3.51822 -0.556778 0
M  V30 14840 O 1362.3 -5.35283 -1.10155 0
M  V30 14841 H 1359.39 -0.802112 -0.201359 0
M  V30 14842 H 1361.94 -1.66041 0.350513 0
M  V30 14843 H 1360.71 -3.88342 0.480265 0
M  V30 14844 H 1360.33 -3.78042 -1.23166 0
M  V30 14845 N 1361.33 -0.0301034 -1.57571 0
M  V30 14846 C 1362.58 0.643491 -1.92953 0
M  V30 14847 C 1362.93 1.69679 -0.907009 0
M  V30 14848 O 1362.22 1.91446 0.0768136 0
M  V30 14849 C 1362.42 1.30206 -3.32838 0
M  V30 14850 C 1362.25 0.314074 -4.48602 0
M  V30 14851 C 1361.02 -0.0864138 -5.05226 0
M  V30 14852 C 1363.22 -0.432028 -5.12482 0
M  V30 14853 N 1361.2 -1.06947 -6.04513 0
M  V30 14854 C 1362.57 -1.26881 -6.06878 0
M  V30 14855 C 1364.62 -0.492623 -4.95457 0
M  V30 14856 C 1363.33 -2.16071 -6.8608 0
M  V30 14857 C 1365.35 -1.37187 -5.75268 0
M  V30 14858 C 1364.71 -2.19642 -6.69281 0
M  V30 14859 H 1360.81 0.207753 -0.753898 0
M  V30 14860 H 1363.4 -0.0975084 -1.94456 0
M  V30 14861 H 1361.57 2.0132 -3.32152 0
M  V30 14862 H 1363.3 1.93276 -3.55565 0
M  V30 14863 H 1360.06 0.288233 -4.72722 0
M  V30 14864 H 1360.48 -1.55726 -6.58846 0
M  V30 14865 H 1365.12 0.130615 -4.22598 0
M  V30 14866 H 1362.84 -2.79449 -7.58244 0
M  V30 14867 H 1366.43 -1.42306 -5.64128 0
M  V30 14868 H 1365.31 -2.86576 -7.29962 0
M  V30 14869 N 1362.81 1.55714 0.243056 0
M  V30 14870 C 1364.09 1.68483 0.993614 0
M  V30 14871 C 1364.47 0.571112 2.03228 0
M  V30 14872 O 1363.81 -0.42491 2.24515 0
M  V30 14873 C 1364.02 3.0894 1.62349 0
M  V30 14874 C 1365.37 3.67663 2.12389 0
M  V30 14875 O 1366.4 3.11764 1.72283 0
M  V30 14876 O 1365.25 4.65664 2.8604 0
M  V30 14877 H 1362.35 0.685415 0.462747 0
M  V30 14878 H 1364.89 1.68043 0.236538 0
M  V30 14879 H 1363.67 3.81451 0.87241 0
M  V30 14880 H 1363.29 3.13407 2.44667 0
M  V30 14881 N 1364.29 -0.50888 1.49158 0
M  V30 14882 C 1365.7 -1.09054 1.51539 0
M  V30 14883 C 1366.05 -1.93938 0.297099 0
M  V30 14884 O 1365.17 -2.08092 -0.593849 0
M  V30 14885 C 1365.77 -1.98447 2.74599 0
M  V30 14886 C 1364.33 -2.5179 2.79783 0
M  V30 14887 C 1363.47 -1.29227 2.45348 0
M  V30 14888 H 1366.43 -0.293148 1.55969 0
M  V30 14889 H 1366.45 -2.83028 2.54314 0
M  V30 14890 H 1365.96 -1.3664 3.63251 0
M  V30 14891 H 1364.06 -3.17258 1.95392 0
M  V30 14892 H 1364.17 -2.89481 3.81756 0
M  V30 14893 H 1362.54 -1.61494 1.96957 0
M  V30 14894 H 1363.32 -0.6914 3.36266 0
M  V30 14895 N 1365.76 -1.381 -0.759346 0
M  V30 14896 C 1367.01 -1.33727 -1.5153 0
M  V30 14897 C 1367.33 0.0739504 -1.9486 0
M  V30 14898 O 1366.6 1.02049 -1.67221 0
M  V30 14899 H 1365.18 -0.492037 -0.562058 0
M  V30 14900 H 1367.85 -1.72719 -0.902995 0
M  V30 14901 H 1366.94 -1.98439 -2.40891 0
M  V30 14902 N 1367.24 0.986894 -1.22875 0
M  V30 14903 C 1368.17 2.09628 -1.0285 0
M  V30 14904 C 1369.15 1.70019 0.0525118 0
M  V30 14905 O 1370.34 1.93883 -0.110874 0
M  V30 14906 C 1367.47 3.41866 -0.61194 0
M  V30 14907 C 1366.42 3.95351 -1.63956 0
M  V30 14908 C 1365.75 5.23707 -1.07865 0
M  V30 14909 C 1367.05 4.25354 -3.03102 0
M  V30 14910 H 1368.74 2.26639 -1.95641 0
M  V30 14911 H 1366.29 1.0891 -0.942048 0
M  V30 14912 H 1368.24 4.18893 -0.458936 0
M  V30 14913 H 1366.97 3.24701 0.35164 0
M  V30 14914 H 1365.62 3.20462 -1.78045 0
M  V30 14915 H 1365.27 5.02888 -0.106246 0
M  V30 14916 H 1364.97 5.60459 -1.76522 0
M  V30 14917 H 1366.5 6.03362 -0.937359 0
M  V30 14918 H 1367.91 4.93156 -2.92353 0
M  V30 14919 H 1366.31 4.73292 -3.68938 0
M  V30 14920 H 1367.38 3.32887 -3.52583 0
M  V30 14921 N 1368.72 1.0394 1.18466 0
M  V30 14922 C 1369.68 0.633804 2.20262 0
M  V30 14923 C 1370.68 -0.308136 1.5782 0
M  V30 14924 O 1371.87 -0.0937087 1.73948 0
M  V30 14925 C 1369.01 -0.0709693 3.40826 0
M  V30 14926 H 1370.2 1.53463 2.57661 0
M  V30 14927 H 1367.75 0.831806 1.32328 0
M  V30 14928 H 1368.49 -0.985659 3.08958 0
M  V30 14929 H 1368.27 0.606023 3.87388 0
M  V30 14930 H 1369.76 -0.341298 4.16203 0
M  V30 14931 N 1370.2 -1.34667 0.818693 0
M  V30 14932 C 1371.45 -1.9767 0.401184 0
M  V30 14933 C 1371.76 -1.65644 -1.04027 0
M  V30 14934 O 1372.97 -2.22104 -1.56148 0
M  V30 14935 C 1371.42 -3.53677 0.666398 0
M  V30 14936 C 1371.03 -3.94601 2.12119 0
M  V30 14937 C 1372.77 -4.23331 0.314845 0
M  V30 14938 C 1370.68 -5.43502 2.33151 0
M  V30 14939 H 1369.61 -0.739675 0.146275 0
M  V30 14940 H 1372.26 -1.53568 1.00445 0
M  V30 14941 H 1370.64 -3.95999 -0.00698307 0
M  V30 14942 H 1371.82 -3.63396 2.83338 0
M  V30 14943 H 1370.13 -3.37871 2.43377 0
M  V30 14944 H 1372.73 -5.32804 0.449881 0
M  V30 14945 H 1373.07 -4.09666 -0.740235 0
M  V30 14946 H 1373.61 -3.8647 0.942631 0
M  V30 14947 H 1370.35 -5.62148 3.37149 0
M  V30 14948 H 1369.87 -5.76236 1.66471 0
M  V30 14949 H 1371.54 -6.10127 2.153 0
M  V30 14950 N 1371.68 -0.573274 -1.46804 0
M  V30 14951 C 1372.93 -0.0530267 -2.0163 0
M  V30 14952 C 1373.24 1.31124 -1.45141 0
M  V30 14953 O 1374.44 1.92231 -1.91728 0
M  V30 14954 C 1372.9 -0.0442411 -3.59873 0
M  V30 14955 C 1372.51 -1.40625 -4.25357 0
M  V30 14956 C 1374.25 0.422556 -4.22392 0
M  V30 14957 C 1372.16 -1.3557 -5.75652 0
M  V30 14958 H 1371.09 -0.0160537 -0.753829 0
M  V30 14959 H 1373.74 -0.723518 -1.68634 0
M  V30 14960 H 1372.12 0.692225 -3.89903 0
M  V30 14961 H 1373.3 -2.1617 -4.06949 0
M  V30 14962 H 1371.61 -1.81229 -3.74893 0
M  V30 14963 H 1374.21 0.479021 -5.3255 0
M  V30 14964 H 1374.55 1.43806 -3.90673 0
M  V30 14965 H 1375.08 -0.259551 -3.96952 0
M  V30 14966 H 1371.82 -2.34772 -6.12015 0
M  V30 14967 H 1371.34 -0.642309 -5.96351 0
M  V30 14968 H 1373.02 -1.06458 -6.38182 0
M  V30 14969 N 1373.15 1.5451 -0.310553 0
M  V30 14970 C 1374.43 1.92452 0.34951 0
M  V30 14971 C 1374.81 1.23881 1.70929 0
M  V30 14972 O 1374.16 0.377898 2.25353 0
M  V30 14973 C 1374.37 3.46026 0.454675 0
M  V30 14974 C 1375.72 4.18432 0.721071 0
M  V30 14975 O 1376.74 3.52112 0.538112 0
M  V30 14976 O 1375.6 5.3586 1.07314 0
M  V30 14977 H 1372.69 0.803168 0.197103 0
M  V30 14978 H 1375.24 1.65852 -0.359313 0
M  V30 14979 H 1374.01 3.88081 -0.500853 0
M  V30 14980 H 1373.64 3.7869 1.21159 0
M  V30 14981 N 1374.63 0.0384594 1.57553 0
M  V30 14982 C 1375.58 -0.958199 2.11946 0
M  V30 14983 C 1376.58 -1.33073 1.04823 0
M  V30 14984 O 1377.78 -1.31187 1.23247 0
M  V30 14985 H 1374.16 -0.326819 0.677269 0
M  V30 14986 H 1376.13 -0.474211 2.94608 0
M  V30 14987 C 1374.88 -2.22821 2.6692 0
M  V30 14988 H 1374.2 -1.95032 3.49002 0
M  V30 14989 H 1375.64 -2.90746 3.08614 0
M  V30 14990 C 1374.1 -2.96429 1.60098 0
M  V30 14991 O 1374.63 -3.88892 1.00628 0
M  V30 14992 N 1372.83 -2.58931 1.3192 0
M  V30 14993 H 1372.38 -1.83818 1.80468 0
M  V30 14994 H 1372.34 -3.0849 0.60674 0
M  V30 14995 N 1376.11 -1.55841 -0.234795 0
M  V30 14996 C 1377.04 -1.94344 -1.29432 0
M  V30 14997 C 1378.02 -0.809912 -1.49581 0
M  V30 14998 O 1379.21 -1.07117 -1.61986 0
M  V30 14999 C 1376.34 -2.24866 -2.64675 0
M  V30 15000 C 1375.29 -3.40584 -2.59203 0
M  V30 15001 C 1374.62 -3.56678 -3.98353 0
M  V30 15002 C 1375.92 -4.75935 -2.15135 0
M  V30 15003 H 1377.61 -2.83096 -0.97454 0
M  V30 15004 H 1375.16 -1.36205 -0.467355 0
M  V30 15005 H 1377.11 -2.50392 -3.38942 0
M  V30 15006 H 1375.83 -1.32953 -2.98314 0
M  V30 15007 H 1374.49 -3.15087 -1.87393 0
M  V30 15008 H 1374.14 -2.62164 -4.29277 0
M  V30 15009 H 1373.84 -4.34503 -3.95577 0
M  V30 15010 H 1375.37 -3.84538 -4.74302 0
M  V30 15011 H 1376.78 -5.00753 -2.7914 0
M  V30 15012 H 1375.18 -5.56949 -2.23446 0
M  V30 15013 H 1376.25 -4.72182 -1.10328 0
M  V30 15014 N 1377.59 0.500963 -1.49426 0
M  V30 15015 C 1378.52 1.62019 -1.60701 0
M  V30 15016 C 1379.5 1.56072 -0.456092 0
M  V30 15017 O 1380.68 1.76128 -0.671642 0
M  V30 15018 C 1377.81 3.00532 -1.56199 0
M  V30 15019 C 1376.86 3.2474 -2.76489 0
M  V30 15020 S 1377.69 3.07859 -4.38159 0
M  V30 15021 C 1378.85 4.48767 -4.36301 0
M  V30 15022 H 1379.08 1.5221 -2.55381 0
M  V30 15023 H 1376.61 0.686122 -1.38317 0
M  V30 15024 H 1378.57 3.80402 -1.54287 0
M  V30 15025 H 1377.23 3.07757 -0.628067 0
M  V30 15026 H 1376.42 4.25858 -2.69558 0
M  V30 15027 H 1376.03 2.52593 -2.75813 0
M  V30 15028 H 1378.32 5.40854 -4.08023 0
M  V30 15029 H 1379.26 4.60748 -5.37696 0
M  V30 15030 H 1379.67 4.29448 -3.6638 0
M  V30 15031 N 1379.07 1.38501 0.752011 0
M  V30 15032 C 1380 1.31746 1.87551 0
M  V30 15033 C 1381.01 0.229386 1.61176 0
M  V30 15034 O 1382.2 0.487066 1.71726 0
M  V30 15035 C 1379.3 1.01889 3.23221 0
M  V30 15036 C 1378.47 2.21637 3.77088 0
M  V30 15037 C 1377.53 1.885 4.91278 0
M  V30 15038 O 1376.56 2.61011 5.05828 0
M  V30 15039 N 1377.76 0.840909 5.74377 0
M  V30 15040 H 1380.53 2.28561 1.93856 0
M  V30 15041 H 1378.09 1.32383 0.932013 0
M  V30 15042 H 1380.08 0.777704 3.97157 0
M  V30 15043 H 1378.65 0.138658 3.12292 0
M  V30 15044 H 1377.87 2.61812 2.947 0
M  V30 15045 H 1379.16 3.01551 4.0981 0
M  V30 15046 H 1378.56 0.23962 5.65192 0
M  V30 15047 H 1377.11 0.659604 6.48454 0
M  V30 15048 N 1380.55 -0.980364 1.23396 0
M  V30 15049 C 1381.77 -1.76223 1.09363 0
M  V30 15050 C 1382.2 -1.84801 -0.350759 0
M  V30 15051 O 1381.55 -1.30966 -1.2537 0
M  V30 15052 C 1381.6 -3.16728 1.72383 0
M  V30 15053 O 1380.71 -4.00439 0.986002 0
M  V30 15054 H 1380.05 -0.542174 0.383332 0
M  V30 15055 H 1382.58 -1.23066 1.6345 0
M  V30 15056 H 1382.59 -3.67307 1.77623 0
M  V30 15057 H 1381.26 -3.098 2.77483 0
M  V30 15058 H 1379.84 -3.58946 1.01054 0
M  V30 15059 N 1382.02 -1.04567 -1.17913 0
M  V30 15060 C 1383.27 -0.747179 -1.8735 0
M  V30 15061 C 1383.59 0.728274 -1.81537 0
M  V30 15062 O 1384.79 1.14048 -2.46385 0
M  V30 15063 C 1383.25 -1.28629 -3.36129 0
M  V30 15064 C 1382.86 -2.79073 -3.5046 0
M  V30 15065 C 1384.6 -1.06455 -4.10935 0
M  V30 15066 C 1382.51 -3.26316 -4.93226 0
M  V30 15067 H 1381.44 -0.275807 -0.701745 0
M  V30 15068 H 1384.09 -1.26215 -1.33199 0
M  V30 15069 H 1382.47 -0.699151 -3.89779 0
M  V30 15070 H 1383.64 -3.43587 -3.07057 0
M  V30 15071 H 1381.96 -2.99716 -2.89066 0
M  V30 15072 H 1384.56 -1.3926 -5.16247 0
M  V30 15073 H 1384.9 -0.00201298 -4.163 0
M  V30 15074 H 1385.43 -1.61656 -3.63472 0
M  V30 15075 H 1382.17 -4.31972 -4.93032 0
M  V30 15076 H 1381.69 -2.6654 -5.37323 0
M  V30 15077 H 1383.37 -3.2063 -5.61966 0
M  V30 15078 N 1383.5 1.34231 -0.825823 0
M  V30 15079 C 1384.45 2.31378 -0.23809 0
M  V30 15080 C 1385.44 1.57537 0.622767 0
M  V30 15081 O 1386.65 1.72512 0.513783 0
M  V30 15082 H 1383.02 0.74974 -0.0582516 0
M  V30 15083 H 1385 2.78471 -1.07221 0
M  V30 15084 C 1383.74 3.42778 0.582969 0
M  V30 15085 H 1383.07 3.99739 -0.0701208 0
M  V30 15086 H 1384.51 4.12983 0.960266 0
M  V30 15087 C 1382.97 2.87486 1.75651 0
M  V30 15088 O 1383.5 2.82603 2.85479 0
M  V30 15089 N 1381.7 2.4427 1.57418 0
M  V30 15090 H 1381.25 2.48441 0.680792 0
M  V30 15091 H 1381.21 2.07626 2.36091 0
M  V30 15092 N 1384.98 0.581051 1.46498 0
M  V30 15093 C 1385.91 -0.19094 2.28403 0
M  V30 15094 C 1386.92 -0.857039 1.38415 0
M  V30 15095 O 1388.11 -0.726881 1.6303 0
M  V30 15096 C 1385.21 -1.28972 3.134 0
M  V30 15097 C 1384.39 -0.715867 4.31502 0
M  V30 15098 C 1383.45 -1.70215 4.97909 0
M  V30 15099 O 1382.47 -1.23885 5.55555 0
M  V30 15100 N 1383.67 -3.0362 4.94768 0
M  V30 15101 H 1386.44 0.511754 2.95298 0
M  V30 15102 H 1384 0.41871 1.56392 0
M  V30 15103 H 1385.99 -1.94877 3.5469 0
M  V30 15104 H 1384.56 -1.8953 2.4859 0
M  V30 15105 H 1383.78 0.120591 3.94016 0
M  V30 15106 H 1385.07 -0.312226 5.07841 0
M  V30 15107 H 1384.47 -3.43885 4.49177 0
M  V30 15108 H 1383.02 -3.65018 5.40005 0
M  V30 15109 N 1386.46 -1.54343 0.318742 0
M  V30 15110 C 1387.68 -2.05361 -0.290126 0
M  V30 15111 C 1388.11 -1.19362 -1.45376 0
M  V30 15112 O 1387.47 -0.201639 -1.80175 0
M  V30 15113 C 1387.51 -3.53601 -0.707025 0
M  V30 15114 O 1386.62 -3.70561 -1.80992 0
M  V30 15115 H 1385.96 -0.661858 -0.0532933 0
M  V30 15116 H 1388.49 -1.99228 0.46575 0
M  V30 15117 H 1388.5 -3.95782 -0.991005 0
M  V30 15118 H 1387.17 -4.1565 0.144091 0
M  V30 15119 H 1385.75 -3.40286 -1.52513 0
M  V30 15120 N 1387.94 -0.0468143 -1.5753 0
M  V30 15121 C 1388.88 0.929065 -2.11275 0
M  V30 15122 C 1389.85 1.31166 -1.01905 0
M  V30 15123 O 1391.04 1.40189 -1.29428 0
M  V30 15124 C 1388.18 2.20012 -2.65873 0
M  V30 15125 C 1387.29 1.8724 -3.89314 0
M  V30 15126 C 1386.43 3.08772 -4.32242 0
M  V30 15127 C 1385.46 2.719 -5.48395 0
M  V30 15128 N 1384.6 3.86112 -5.86397 0
M  V30 15129 H 1389.44 0.463854 -2.94368 0
M  V30 15130 H 1386.98 0.217338 -1.45486 0
M  V30 15131 H 1388.94 2.94383 -2.95626 0
M  V30 15132 H 1387.57 2.64118 -1.85584 0
M  V30 15133 H 1386.62 1.03037 -3.6618 0
M  V30 15134 H 1387.93 1.56096 -4.73746 0
M  V30 15135 H 1387.08 3.91446 -4.63525 0
M  V30 15136 H 1385.82 3.4309 -3.46613 0
M  V30 15137 H 1384.83 1.87642 -5.16789 0
M  V30 15138 H 1386.05 2.38779 -6.35737 0
M  V30 15139 H 1384 4.2024 -5.03721 0
M  V30 15140 H 1383.92 3.58652 -6.65511 0
M  V30 15141 H 1385.18 4.69438 -6.22293 0
M  V30 15142 N 1389.41 1.55964 0.226527 0
M  V30 15143 C 1390.36 1.92007 1.28069 0
M  V30 15144 C 1391.33 0.776666 1.46823 0
M  V30 15145 O 1392.52 1.03213 1.60474 0
M  V30 15146 C 1389.66 2.23784 2.62707 0
M  V30 15147 C 1388.77 3.51034 2.51792 0
M  V30 15148 C 1387.9 3.72281 3.7892 0
M  V30 15149 C 1386.94 4.93062 3.62707 0
M  V30 15150 N 1386.08 5.10725 4.81772 0
M  V30 15151 H 1390.92 2.81898 0.96631 0
M  V30 15152 H 1388.46 1.39529 0.465847 0
M  V30 15153 H 1390.42 2.40217 3.41104 0
M  V30 15154 H 1389.05 1.37073 2.92251 0
M  V30 15155 H 1388.1 3.42822 1.64856 0
M  V30 15156 H 1389.41 4.39582 2.35731 0
M  V30 15157 H 1388.56 3.88783 4.6576 0
M  V30 15158 H 1387.3 2.82004 3.97901 0
M  V30 15159 H 1386.31 4.76515 2.7425 0
M  V30 15160 H 1387.53 5.84819 3.45201 0
M  V30 15161 H 1385.48 4.2339 5.01076 0
M  V30 15162 H 1385.4 5.93397 4.68419 0
M  V30 15163 H 1386.66 5.31658 5.70053 0
M  V30 15164 N 1390.89 -0.493031 1.4969 0
M  V30 15165 C 1392.12 -1.27046 1.633 0
M  V30 15166 C 1392.54 -1.86278 0.307534 0
M  V30 15167 O 1391.89 -1.68208 -0.707968 0
M  V30 15168 C 1391.94 -2.39501 2.70779 0
M  V30 15169 O 1391.66 -1.82702 3.98185 0
M  V30 15170 C 1393.17 -3.30744 2.95166 0
M  V30 15171 H 1390.39 -0.385042 0.54953 0
M  V30 15172 H 1392.93 -0.590998 1.95774 0
M  V30 15173 H 1391.08 -3.03263 2.41061 0
M  V30 15174 H 1391.5 -2.56588 4.57452 0
M  V30 15175 H 1392.97 -4.05912 3.74085 0
M  V30 15176 H 1393.45 -3.88217 2.05387 0
M  V30 15177 H 1394.06 -2.72741 3.26332 0
M  V30 15178 N 1392.37 -1.38898 -0.744656 0
M  V30 15179 C 1393.62 -1.35795 -1.50623 0
M  V30 15180 C 1393.95 0.0491775 -1.94138 0
M  V30 15181 O 1393.22 1.01219 -1.66087 0
M  V30 15182 C 1393.51 -2.32168 -2.75263 0
M  V30 15183 C 1393.36 -3.81781 -2.3783 0
M  V30 15184 C 1394.68 -2.26526 -3.77325 0
M  V30 15185 H 1391.8 -0.494591 -0.546396 0
M  V30 15186 H 1394.44 -1.69816 -0.852211 0
M  V30 15187 H 1392.59 -2.03287 -3.31069 0
M  V30 15188 H 1394.26 -4.21373 -1.8773 0
M  V30 15189 H 1392.51 -3.99027 -1.70176 0
M  V30 15190 H 1393.18 -4.44687 -3.27044 0
M  V30 15191 H 1395.65 -2.52041 -3.31081 0
M  V30 15192 H 1394.53 -2.96053 -4.62216 0
M  V30 15193 H 1394.79 -1.26705 -4.23554 0
M  V30 15194 N 1393.85 0.973806 -1.23914 0
M  V30 15195 C 1395.1 1.71598 -1.07519 0
M  V30 15196 C 1395.42 1.90613 0.386926 0
M  V30 15197 O 1394.68 1.46056 1.30254 0
M  V30 15198 C 1394.98 3.11441 -1.75326 0
M  V30 15199 C 1394.64 3.12286 -3.25251 0
M  V30 15200 C 1393.31 3.12224 -3.66155 0
M  V30 15201 C 1395.66 3.0709 -4.21124 0
M  V30 15202 C 1392.99 3.0469 -5.01379 0
M  V30 15203 C 1395.34 3.01098 -5.56348 0
M  V30 15204 C 1394 2.99362 -5.96606 0
M  V30 15205 H 1393.27 0.627922 -0.39344 0
M  V30 15206 H 1395.92 1.13912 -1.53936 0
M  V30 15207 H 1394.22 3.72555 -1.21286 0
M  V30 15208 H 1395.92 3.67649 -1.60111 0
M  V30 15209 H 1392.51 3.13096 -2.92693 0
M  V30 15210 H 1396.69 3.06272 -3.90527 0
M  V30 15211 H 1391.95 3.01703 -5.31776 0
M  V30 15212 H 1396.12 2.96036 -6.30346 0
M  V30 15213 H 1393.75 2.93279 -7.0135 0
M  V30 15214 N 1395.33 1.05191 1.17357 0
M  V30 15215 C 1396.57 0.763113 1.87895 0
M  V30 15216 C 1396.91 -0.708071 1.80831 0
M  V30 15217 O 1396.18 -1.51777 1.21631 0
M  V30 15218 C 1396.46 1.2442 3.37923 0
M  V30 15219 C 1396.32 2.77832 3.53737 0
M  V30 15220 C 1397.64 0.843209 4.31947 0
M  V30 15221 H 1394.75 0.27869 0.682276 0
M  V30 15222 H 1397.4 1.3059 1.38008 0
M  V30 15223 H 1395.55 0.782438 3.80539 0
M  V30 15224 H 1397.22 3.32131 3.20135 0
M  V30 15225 H 1395.46 3.17108 2.96015 0
M  V30 15226 H 1396.13 3.06555 4.59052 0
M  V30 15227 H 1398.61 1.24073 3.97171 0
M  V30 15228 H 1397.48 1.20743 5.35455 0
M  V30 15229 H 1397.75 -0.252802 4.41377 0
M  V30 15230 N 1396.8 -1.33791 0.83293 0
M  V30 15231 C 1397.73 -2.31853 0.276846 0
M  V30 15232 C 1398.72 -1.58702 -0.612184 0
M  V30 15233 O 1399.9 -1.86629 -0.536975 0
M  V30 15234 C 1397.03 -3.42855 -0.55385 0
M  V30 15235 C 1395.98 -4.27333 0.238884 0
M  V30 15236 C 1395.31 -5.29895 -0.715187 0
M  V30 15237 C 1396.61 -5.01692 1.45265 0
M  V30 15238 H 1398.3 -2.78611 1.09618 0
M  V30 15239 H 1395.85 -1.33949 0.528562 0
M  V30 15240 H 1397.8 -4.10479 -0.953133 0
M  V30 15241 H 1396.53 -2.94771 -1.40634 0
M  V30 15242 H 1395.19 -3.61325 0.619656 0
M  V30 15243 H 1394.83 -4.7807 -1.56391 0
M  V30 15244 H 1394.53 -5.87296 -0.188921 0
M  V30 15245 H 1396.06 -6.00387 -1.11211 0
M  V30 15246 H 1397.47 -5.62117 1.12685 0
M  V30 15247 H 1395.87 -5.68715 1.91528 0
M  V30 15248 H 1396.94 -4.30809 2.22558 0
M  V30 15249 N 1398.28 -0.588812 -1.46187 0
M  V30 15250 C 1399.51 -0.0825301 -2.06735 0
M  V30 15251 C 1399.93 1.22507 -1.43658 0
M  V30 15252 O 1399.28 1.74203 -0.544022 0
M  V30 15253 C 1399.33 0.083501 -3.61404 0
M  V30 15254 O 1399.05 -1.17235 -4.22123 0
M  V30 15255 C 1400.56 0.623425 -4.38894 0
M  V30 15256 H 1397.78 -0.0602413 -0.66829 0
M  V30 15257 H 1400.32 -0.811215 -1.87722 0
M  V30 15258 H 1398.47 0.762432 -3.79823 0
M  V30 15259 H 1398.89 -0.990047 -5.15071 0
M  V30 15260 H 1400.36 0.688755 -5.47686 0
M  V30 15261 H 1400.84 1.64172 -4.07362 0
M  V30 15262 H 1401.45 -0.0208373 -4.25295 0
M  V30 15263 N 1399.76 1.54172 -0.326923 0
M  V30 15264 C 1400.71 2.24454 0.537501 0
M  V30 15265 C 1401.68 1.23658 1.10896 0
M  V30 15266 O 1402.86 1.52348 1.14868 0
M  V30 15267 C 1400 3.00839 1.69085 0
M  V30 15268 C 1399.12 4.16459 1.1483 0
M  V30 15269 C 1398.25 4.80368 2.26761 0
M  V30 15270 C 1397.29 5.88085 1.69771 0
M  V30 15271 N 1396.43 6.45842 2.75378 0
M  V30 15272 H 1401.27 2.97921 -0.0684022 0
M  V30 15273 H 1398.8 1.4703 -0.0455287 0
M  V30 15274 H 1400.76 3.43375 2.36959 0
M  V30 15275 H 1399.39 2.297 2.26799 0
M  V30 15276 H 1398.44 3.78683 0.361004 0
M  V30 15277 H 1399.76 4.93986 0.69132 0
M  V30 15278 H 1398.91 5.25889 3.02533 0
M  V30 15279 H 1397.65 4.02228 2.75796 0
M  V30 15280 H 1396.65 5.41963 0.924985 0
M  V30 15281 H 1397.88 6.68123 1.21609 0
M  V30 15282 H 1395.82 5.70574 3.23699 0
M  V30 15283 H 1395.74 7.18792 2.34253 0
M  V30 15284 H 1397.01 6.96018 3.50969 0
M  V30 15285 N 1401.24 0.0551678 1.57503 0
M  V30 15286 C 1402.19 -0.917847 2.11764 0
M  V30 15287 C 1403.16 -1.30624 1.02599 0
M  V30 15288 O 1404.34 -1.39501 1.30169 0
M  V30 15289 C 1401.48 -2.18599 2.67036 0
M  V30 15290 C 1400.59 -1.85173 3.90301 0
M  V30 15291 C 1399.73 -3.06475 4.33874 0
M  V30 15292 C 1398.77 -2.68988 5.49829 0
M  V30 15293 N 1397.9 -3.82997 5.88437 0
M  V30 15294 H 1402.74 -0.448236 2.9461 0
M  V30 15295 H 1400.28 -0.209619 1.45599 0
M  V30 15296 H 1402.24 -2.92811 2.97183 0
M  V30 15297 H 1400.87 -2.6313 1.86982 0
M  V30 15298 H 1399.92 -1.01094 3.66721 0
M  V30 15299 H 1401.23 -1.53582 4.74567 0
M  V30 15300 H 1400.39 -3.88982 4.65594 0
M  V30 15301 H 1399.13 -3.41247 3.48427 0
M  V30 15302 H 1398.13 -1.84899 5.17776 0
M  V30 15303 H 1399.36 -2.35404 6.36994 0
M  V30 15304 H 1397.3 -4.17562 5.05942 0
M  V30 15305 H 1397.22 -3.55118 6.67403 0
M  V30 15306 H 1398.49 -4.66131 6.24773 0
M  V30 15307 N 1402.72 -1.56081 -0.218252 0
M  V30 15308 C 1403.95 -1.83069 -0.957574 0
M  V30 15309 C 1404.35 -0.6325 -1.78315 0
M  V30 15310 O 1403.7 0.408298 -1.79105 0
M  V30 15311 C 1403.76 -3.03835 -1.92157 0
M  V30 15312 C 1403.42 -4.38702 -1.2802 0
M  V30 15313 C 1404.42 -5.15585 -0.66846 0
M  V30 15314 C 1402.11 -4.85427 -1.29098 0
M  V30 15315 C 1404.1 -6.37355 -0.0760499 0
M  V30 15316 C 1401.79 -6.07138 -0.69473 0
M  V30 15317 C 1402.78 -6.82943 -0.0883201 0
M  V30 15318 O 1402.47 -8.02352 0.498648 0
M  V30 15319 H 1402.2 -0.612493 -0.286057 0
M  V30 15320 H 1404.76 -2.04021 -0.23759 0
M  V30 15321 H 1402.99 -2.78709 -2.68064 0
M  V30 15322 H 1404.68 -3.17666 -2.52672 0
M  V30 15323 H 1405.44 -4.80592 -0.652434 0
M  V30 15324 H 1401.32 -4.26395 -1.75238 0
M  V30 15325 H 1404.87 -6.96464 0.397893 0
M  V30 15326 H 1400.76 -6.41604 -0.70818 0
M  V30 15327 H 1401.53 -8.17555 0.393289 0
M  V30 15328 N 1404.2 0.485086 -1.49949 0
M  V30 15329 C 1405.16 1.56713 -1.67253 0
M  V30 15330 C 1406.16 1.51329 -0.543701 0
M  V30 15331 O 1407.35 1.54198 -0.810472 0
M  V30 15332 C 1404.48 2.9636 -1.68475 0
M  V30 15333 H 1405.67 1.42693 -2.63778 0
M  V30 15334 H 1403.23 0.710473 -1.39219 0
M  V30 15335 H 1403.96 3.1584 -0.735924 0
M  V30 15336 H 1403.75 3.01675 -2.50469 0
M  V30 15337 H 1405.24 3.74945 -1.83865 0
M  V30 15338 N 1405.67 1.39291 0.737279 0
M  V30 15339 C 1406.62 1.37829 1.85127 0
M  V30 15340 C 1407.59 0.238321 1.64381 0
M  V30 15341 O 1408.78 0.433081 1.8582 0
M  V30 15342 C 1405.92 1.22531 3.22615 0
M  V30 15343 C 1405.03 2.46052 3.55081 0
M  V30 15344 C 1404.16 2.2336 4.81958 0
M  V30 15345 C 1403.2 3.42569 5.0726 0
M  V30 15346 N 1402.34 3.19209 6.2534 0
M  V30 15347 H 1407.18 2.33056 1.85712 0
M  V30 15348 H 1404.72 1.15772 0.907484 0
M  V30 15349 H 1406.67 1.11673 4.01976 0
M  V30 15350 H 1405.3 0.30934 3.21314 0
M  V30 15351 H 1404.36 2.67521 2.70438 0
M  V30 15352 H 1405.67 3.3485 3.69698 0
M  V30 15353 H 1404.82 2.09732 5.69295 0
M  V30 15354 H 1403.56 1.31953 4.6951 0
M  V30 15355 H 1402.57 3.56698 4.18386 0
M  V30 15356 H 1403.79 4.34874 5.21595 0
M  V30 15357 H 1401.74 2.30464 6.14184 0
M  V30 15358 H 1401.65 4.01562 6.40534 0
M  V30 15359 H 1402.92 3.09269 7.15523 0
M  V30 15360 N 1407.15 -0.967221 1.24429 0
M  V30 15361 C 1408.38 -1.75053 1.11226 0
M  V30 15362 C 1408.8 -1.85162 -0.331139 0
M  V30 15363 O 1408.16 -1.32288 -1.23974 0
M  V30 15364 C 1408.21 -3.14882 1.75733 0
M  V30 15365 O 1407.31 -3.99371 1.02842 0
M  V30 15366 H 1406.65 -0.538078 0.389061 0
M  V30 15367 H 1409.18 -1.21325 1.64746 0
M  V30 15368 H 1409.19 -3.65402 1.81509 0
M  V30 15369 H 1407.87 -3.06839 2.80754 0
M  V30 15370 H 1406.44 -3.57854 1.04856 0
M  V30 15371 N 1408.63 -1.05812 -1.16797 0
M  V30 15372 C 1409.88 -0.782869 -1.8773 0
M  V30 15373 C 1410.23 0.683013 -1.79869 0
M  V30 15374 O 1409.52 1.49357 -1.20012 0
M  V30 15375 C 1409.72 -1.20565 -3.3645 0
M  V30 15376 C 1409.55 -2.71109 -3.58789 0
M  V30 15377 C 1408.32 -3.38506 -3.75155 0
M  V30 15378 C 1410.51 -3.69327 -3.57914 0
M  V30 15379 N 1408.5 -4.77851 -3.85398 0
M  V30 15380 C 1409.87 -4.94431 -3.74082 0
M  V30 15381 C 1411.92 -3.62707 -3.41099 0
M  V30 15382 C 1410.63 -6.13707 -3.75175 0
M  V30 15383 C 1412.65 -4.81429 -3.43483 0
M  V30 15384 C 1412.01 -6.0536 -3.60165 0
M  V30 15385 H 1408.11 -0.338798 -0.704798 0
M  V30 15386 H 1410.7 -1.3513 -1.40171 0
M  V30 15387 H 1408.87 -0.665104 -3.82663 0
M  V30 15388 H 1410.6 -0.879581 -3.95026 0
M  V30 15389 H 1407.35 -2.88907 -3.75273 0
M  V30 15390 H 1407.78 -5.50324 -3.943 0
M  V30 15391 H 1412.42 -2.67851 -3.27133 0
M  V30 15392 H 1410.14 -7.08901 -3.87925 0
M  V30 15393 H 1413.72 -4.77966 -3.31722 0
M  V30 15394 H 1412.6 -6.95688 -3.61923 0
M  V30 15395 N 1410.11 1.33347 -0.840014 0
M  V30 15396 C 1411.06 2.31113 -0.262617 0
M  V30 15397 C 1412.05 1.58189 0.606023 0
M  V30 15398 O 1413.26 1.73047 0.495457 0
M  V30 15399 H 1409.63 0.74908 -0.0662003 0
M  V30 15400 H 1411.6 2.77318 -1.10169 0
M  V30 15401 C 1410.35 3.43377 0.54658 0
M  V30 15402 H 1409.67 3.99642 -0.112514 0
M  V30 15403 H 1411.11 4.13978 0.91641 0
M  V30 15404 C 1409.57 2.89333 1.72592 0
M  V30 15405 O 1410.1 2.85615 2.82466 0
M  V30 15406 N 1408.31 2.45926 1.54819 0
M  V30 15407 H 1407.86 2.49149 0.654404 0
M  V30 15408 H 1407.81 2.10119 2.33875 0
M  V30 15409 N 1411.59 0.596556 1.45873 0
M  V30 15410 C 1412.83 0.0874583 2.02311 0
M  V30 15411 C 1413.16 -1.27781 1.46636 0
M  V30 15412 O 1412.42 -1.85393 0.62674 0
M  V30 15413 C 1412.71 -0.0135714 3.57397 0
M  V30 15414 C 1412.38 1.28591 4.32175 0
M  V30 15415 C 1411.04 1.6419 4.52322 0
M  V30 15416 C 1413.39 2.14523 4.75005 0
M  V30 15417 C 1410.72 2.85493 5.12553 0
M  V30 15418 C 1413.07 3.35065 5.36577 0
M  V30 15419 C 1411.74 3.70929 5.54949 0
M  V30 15420 H 1411.01 0.0320033 0.740309 0
M  V30 15421 H 1413.66 0.775967 1.75074 0
M  V30 15422 H 1411.96 -0.785287 3.8385 0
M  V30 15423 H 1413.66 -0.423456 3.98758 0
M  V30 15424 H 1410.25 0.99881 4.16799 0
M  V30 15425 H 1414.43 1.88321 4.59183 0
M  V30 15426 H 1409.69 3.134 5.24967 0
M  V30 15427 H 1413.86 4.01909 5.6872 0
M  V30 15428 H 1411.49 4.65011 6.01389 0
M  V30 15429 N 1413.06 -1.53996 0.335095 0
M  V30 15430 C 1414.01 -2.24736 -0.52559 0
M  V30 15431 C 1414.98 -1.24244 -1.10239 0
M  V30 15432 O 1416.17 -1.52955 -1.14058 0
M  V30 15433 C 1413.31 -3.01732 -1.67487 0
M  V30 15434 C 1412.42 -4.17062 -1.1262 0
M  V30 15435 C 1411.55 -4.81563 -2.2421 0
M  V30 15436 C 1410.59 -5.88977 -1.6665 0
M  V30 15437 N 1409.73 -6.47293 -2.71949 0
M  V30 15438 H 1414.57 -2.97881 0.0842008 0
M  V30 15439 H 1412.11 -1.47003 0.0533254 0
M  V30 15440 H 1414.06 -3.44626 -2.35135 0
M  V30 15441 H 1412.69 -2.30899 -2.25578 0
M  V30 15442 H 1411.75 -3.78869 -0.340917 0
M  V30 15443 H 1413.06 -4.94346 -0.665113 0
M  V30 15444 H 1412.21 -5.27486 -2.9974 0
M  V30 15445 H 1410.95 -4.03685 -2.73659 0
M  V30 15446 H 1409.96 -5.42446 -0.89623 0
M  V30 15447 H 1411.18 -6.68758 -1.18064 0
M  V30 15448 H 1409.13 -5.72283 -3.20668 0
M  V30 15449 H 1409.04 -7.20024 -2.30438 0
M  V30 15450 H 1410.31 -6.97869 -3.47273 0
M  V30 15451 N 1414.54 -0.0635198 -1.57472 0
M  V30 15452 C 1415.77 0.616735 -1.97494 0
M  V30 15453 C 1416.18 1.63646 -0.941568 0
M  V30 15454 O 1415.54 1.82355 0.0727768 0
M  V30 15455 C 1415.59 1.29268 -3.37597 0
M  V30 15456 O 1415.31 0.313781 -4.36975 0
M  V30 15457 C 1416.81 2.06154 -3.92448 0
M  V30 15458 H 1414.03 0.167753 -0.649692 0
M  V30 15459 H 1416.58 -0.133475 -2.04064 0
M  V30 15460 H 1414.73 1.99404 -3.3214 0
M  V30 15461 H 1415.15 0.797723 -5.18398 0
M  V30 15462 H 1416.62 2.48853 -4.92723 0
M  V30 15463 H 1417.1 2.91474 -3.28541 0
M  V30 15464 H 1417.7 1.40903 -4.01281 0
M  V30 15465 N 1416.02 1.56195 0.209972 0
M  V30 15466 C 1416.98 1.92514 1.24383 0
M  V30 15467 C 1417.98 0.804793 1.39211 0
M  V30 15468 O 1419.17 1.0724 1.37278 0
M  V30 15469 C 1416.3 2.18613 2.61574 0
M  V30 15470 H 1417.5 2.84992 0.933781 0
M  V30 15471 H 1415.05 1.49656 0.450878 0
M  V30 15472 H 1415.79 1.28724 2.97659 0
M  V30 15473 H 1415.57 3.00241 2.52186 0
M  V30 15474 H 1417.06 2.47767 3.36156 0
M  V30 15475 N 1417.5 -0.477127 1.50204 0
M  V30 15476 C 1418.74 -1.22964 1.60891 0
M  V30 15477 C 1419.07 -1.9207 0.306464 0
M  V30 15478 O 1418.33 -1.82472 -0.707272 0
M  V30 15479 C 1418.63 -2.30126 2.73453 0
M  V30 15480 C 1418.29 -1.78314 4.14143 0
M  V30 15481 C 1416.95 -1.63904 4.52425 0
M  V30 15482 C 1419.31 -1.3981 5.02098 0
M  V30 15483 C 1416.63 -1.09404 5.76409 0
M  V30 15484 C 1418.99 -0.867538 6.26623 0
M  V30 15485 C 1417.65 -0.710022 6.63713 0
M  V30 15486 H 1416.92 -0.449959 0.588743 0
M  V30 15487 H 1419.57 -0.526592 1.84118 0
M  V30 15488 H 1417.87 -3.06315 2.44291 0
M  V30 15489 H 1419.57 -2.88099 2.78927 0
M  V30 15490 H 1416.16 -1.90496 3.83939 0
M  V30 15491 H 1420.34 -1.49779 4.73159 0
M  V30 15492 H 1415.6 -0.959413 6.03825 0
M  V30 15493 H 1419.77 -0.560496 6.94141 0
M  V30 15494 H 1417.4 -0.285555 7.59663 0
M  V30 15495 N 1418.98 -1.3968 -0.729882 0
M  V30 15496 C 1420.21 -1.40263 -1.5169 0
M  V30 15497 C 1420.61 0.00325293 -1.892 0
M  V30 15498 O 1419.96 0.986225 -1.54982 0
M  V30 15499 C 1420.02 -2.21629 -2.83056 0
M  V30 15500 C 1419.68 -3.70204 -2.67951 0
M  V30 15501 C 1420.68 -4.63169 -2.36158 0
M  V30 15502 C 1418.37 -4.13851 -2.84662 0
M  V30 15503 C 1420.36 -5.97763 -2.21265 0
M  V30 15504 C 1418.05 -5.4852 -2.69387 0
M  V30 15505 C 1419.04 -6.4029 -2.37734 0
M  V30 15506 O 1418.73 -7.72478 -2.22561 0
M  V30 15507 H 1418.46 -0.480808 -0.475184 0
M  V30 15508 H 1421.02 -1.84184 -0.909136 0
M  V30 15509 H 1419.25 -1.72465 -3.46111 0
M  V30 15510 H 1420.94 -2.14328 -3.447 0
M  V30 15511 H 1421.7 -4.30748 -2.22893 0
M  V30 15512 H 1417.58 -3.42751 -3.0829 0
M  V30 15513 H 1421.13 -6.69359 -1.96481 0
M  V30 15514 H 1417.02 -5.8053 -2.82232 0
M  V30 15515 H 1417.79 -7.83258 -2.37591 0
M  V30 15516 N 1420.45 0.960609 -1.2494 0
M  V30 15517 C 1421.38 2.074 -1.07274 0
M  V30 15518 C 1422.37 1.70092 0.0164365 0
M  V30 15519 O 1423.55 1.93604 -0.151975 0
M  V30 15520 C 1420.68 3.40491 -0.684317 0
M  V30 15521 C 1419.63 3.91784 -1.72306 0
M  V30 15522 C 1418.96 5.21301 -1.18949 0
M  V30 15523 C 1420.26 4.18829 -3.12056 0
M  V30 15524 H 1421.95 2.22438 -2.00404 0
M  V30 15525 H 1419.5 1.06888 -0.964937 0
M  V30 15526 H 1421.45 4.17826 -0.547686 0
M  V30 15527 H 1420.18 3.25374 0.282687 0
M  V30 15528 H 1418.84 3.16613 -1.84802 0
M  V30 15529 H 1418.48 5.02549 -0.212892 0
M  V30 15530 H 1418.18 5.56588 -1.8837 0
M  V30 15531 H 1419.71 6.01238 -1.06513 0
M  V30 15532 H 1421.12 4.86844 -3.02748 0
M  V30 15533 H 1419.52 4.6536 -3.78894 0
M  V30 15534 H 1420.59 3.25333 -3.59564 0
M  V30 15535 N 1421.93 1.0643 1.16234 0
M  V30 15536 C 1422.9 0.680383 2.18869 0
M  V30 15537 C 1423.9 -0.274591 1.58438 0
M  V30 15538 O 1425.09 -0.0567907 1.74107 0
M  V30 15539 C 1422.22 0.00134091 3.409 0
M  V30 15540 H 1423.41 1.58894 2.54347 0
M  V30 15541 H 1420.96 0.859688 1.30534 0
M  V30 15542 H 1421.7 -0.919903 3.1098 0
M  V30 15543 H 1421.48 0.688057 3.86016 0
M  V30 15544 H 1422.97 -0.252938 4.16833 0
M  V30 15545 N 1423.41 -1.329 0.847073 0
M  V30 15546 C 1424.34 -2.31546 0.301422 0
M  V30 15547 C 1425.32 -1.59342 -0.595317 0
M  V30 15548 O 1426.51 -1.87188 -0.517151 0
M  V30 15549 C 1423.64 -3.43423 -0.517454 0
M  V30 15550 C 1422.59 -4.27055 0.284195 0
M  V30 15551 C 1421.92 -5.30624 -0.658944 0
M  V30 15552 C 1423.22 -5.00123 1.50578 0
M  V30 15553 H 1424.91 -2.77433 1.12567 0
M  V30 15554 H 1422.46 -1.3338 0.542739 0
M  V30 15555 H 1424.41 -4.11467 -0.909543 0
M  V30 15556 H 1423.13 -2.96246 -1.37499 0
M  V30 15557 H 1421.79 -3.60648 0.657944 0
M  V30 15558 H 1421.44 -4.79702 -1.51311 0
M  V30 15559 H 1421.14 -5.87464 -0.12662 0
M  V30 15560 H 1422.66 -6.01533 -1.04837 0
M  V30 15561 H 1424.08 -5.6089 1.18641 0
M  V30 15562 H 1422.48 -5.66652 1.97549 0
M  V30 15563 H 1423.55 -4.28424 2.27115 0
M  V30 15564 N 1424.89 -0.604284 -1.45555 0
M  V30 15565 C 1425.82 0.154579 -2.28678 0
M  V30 15566 C 1426.83 0.83491 -1.39761 0
M  V30 15567 O 1428.02 0.700852 -1.64166 0
M  V30 15568 C 1425.12 1.2397 -3.15412 0
M  V30 15569 C 1424.3 0.647128 -4.32586 0
M  V30 15570 C 1423.35 1.62272 -5.00554 0
M  V30 15571 O 1422.38 1.15031 -5.57455 0
M  V30 15572 N 1423.58 2.9571 -4.99536 0
M  V30 15573 H 1426.35 -0.558668 -2.94447 0
M  V30 15574 H 1423.91 -0.443538 -1.55706 0
M  V30 15575 H 1425.9 1.89209 -3.57746 0
M  V30 15576 H 1424.47 1.85552 -2.51574 0
M  V30 15577 H 1423.69 -0.183261 -3.93774 0
M  V30 15578 H 1424.98 0.231394 -5.08274 0
M  V30 15579 H 1424.38 3.36695 -4.54591 0
M  V30 15580 H 1422.93 3.56381 -5.45744 0
M  V30 15581 N 1426.37 1.53816 -0.343257 0
M  V30 15582 C 1427.78 1.59598 0.00867849 0
M  V30 15583 C 1427.98 1.35922 1.48753 0
M  V30 15584 O 1427.04 1.15334 2.2462 0
M  V30 15585 C 1428.35 2.97649 -0.427234 0
M  V30 15586 C 1429.9 3.1069 -0.379554 0
M  V30 15587 C 1430.37 4.51119 -0.79093 0
M  V30 15588 N 1431.87 4.57168 -0.745105 0
M  V30 15589 C 1432.6 5.63975 -1.03537 0
M  V30 15590 N 1432.1 6.78635 -1.39377 0
M  V30 15591 N 1433.89 5.53848 -0.959628 0
M  V30 15592 H 1426.04 1.6746 -1.30656 0
M  V30 15593 H 1428.3 0.784254 -0.532588 0
M  V30 15594 H 1428.01 3.2004 -1.45834 0
M  V30 15595 H 1427.88 3.76682 0.197704 0
M  V30 15596 H 1430.27 2.88024 0.642376 0
M  V30 15597 H 1430.35 2.33718 -1.03969 0
M  V30 15598 H 1430 4.74521 -1.81087 0
M  V30 15599 H 1429.93 5.26489 -0.108274 0
M  V30 15600 H 1432.42 3.7483 -0.480752 0
M  V30 15601 H 1432.73 7.56053 -1.60011 0
M  V30 15602 H 1431.07 6.80083 -1.43222 0
M  V30 15603 H 1434.27 4.6315 -0.678974 0
M  V30 15604 H 1434.44 6.36995 -1.18919 0
M  V30 15605 N 1427.84 0.0718701 1.57436 0
M  V30 15606 C 1428.77 -0.89288 2.15754 0
M  V30 15607 C 1429.76 -1.31036 1.0846 0
M  V30 15608 O 1430.94 -1.38139 1.36496 0
M  V30 15609 C 1428.07 -2.16044 2.71923 0
M  V30 15610 C 1427.02 -1.88236 3.84384 0
M  V30 15611 C 1426.35 -3.21624 4.27156 0
M  V30 15612 C 1427.65 -1.18758 5.0862 0
M  V30 15613 H 1429.34 -0.407061 2.9662 0
M  V30 15614 H 1426.89 -0.194354 1.42682 0
M  V30 15615 H 1428.84 -2.83952 3.11366 0
M  V30 15616 H 1427.57 -2.66868 1.88279 0
M  V30 15617 H 1426.23 -1.22734 3.45445 0
M  V30 15618 H 1425.87 -3.70289 3.40433 0
M  V30 15619 H 1425.57 -3.03809 5.02965 0
M  V30 15620 H 1427.1 -3.90729 4.69215 0
M  V30 15621 H 1428.51 -1.76735 5.45378 0
M  V30 15622 H 1426.91 -1.11201 5.89707 0
M  V30 15623 H 1427.98 -0.166682 4.84613 0
M  V30 15624 N 1429.32 -1.56304 -0.201686 0
M  V30 15625 C 1430.26 -1.8907 -1.27781 0
M  V30 15626 C 1431.23 -0.75009 -1.44265 0
M  V30 15627 O 1432.42 -1.00044 -1.59761 0
M  V30 15628 C 1429.54 -2.11513 -2.64537 0
M  V30 15629 C 1428.59 -3.34214 -2.64959 0
M  V30 15630 S 1429.42 -4.89541 -2.17047 0
M  V30 15631 C 1430.58 -5.15044 -3.55641 0
M  V30 15632 H 1430.81 -2.8005 -0.997971 0
M  V30 15633 H 1428.35 -1.48997 -0.404872 0
M  V30 15634 H 1430.3 -2.25126 -3.43262 0
M  V30 15635 H 1428.96 -1.21295 -2.89735 0
M  V30 15636 H 1428.16 -3.47023 -3.65501 0
M  V30 15637 H 1427.76 -3.1956 -1.94312 0
M  V30 15638 H 1430.05 -5.05161 -4.51463 0
M  V30 15639 H 1430.99 -6.16838 -3.47731 0
M  V30 15640 H 1431.4 -4.42704 -3.50248 0
M  V30 15641 N 1430.8 0.469154 -1.50455 0
M  V30 15642 C 1432.08 1.23033 -1.5206 0
M  V30 15643 C 1432.46 2.09412 -0.266388 0
M  V30 15644 O 1431.81 2.15837 0.750099 0
M  V30 15645 C 1432.02 2.05969 -2.81741 0
M  V30 15646 C 1433.36 2.64093 -3.32476 0
M  V30 15647 O 1434.39 2.1621 -2.83075 0
M  V30 15648 O 1433.25 3.51341 -4.18595 0
M  V30 15649 H 1430.34 0.55841 -0.610006 0
M  V30 15650 H 1432.89 0.480818 -1.62746 0
M  V30 15651 H 1431.66 1.42327 -3.64498 0
M  V30 15652 H 1431.28 2.8805 -2.74067 0
M  V30 15653 N 1432.28 1.40065 0.722464 0
M  V30 15654 C 1433.19 1.42086 1.86678 0
M  V30 15655 C 1434.2 0.314223 1.71139 0
M  V30 15656 O 1435.38 0.55771 1.93524 0
M  V30 15657 C 1432.45 1.27498 3.22405 0
M  V30 15658 C 1431.51 2.48243 3.50248 0
M  V30 15659 C 1430.74 2.34342 4.79499 0
M  V30 15660 O 1430.96 1.35355 5.54108 0
M  V30 15661 O 1429.9 3.23579 5.07523 0
M  V30 15662 H 1433.72 2.38571 1.87929 0
M  V30 15663 H 1431.31 1.21314 0.871968 0
M  V30 15664 H 1433.19 1.21543 4.03491 0
M  V30 15665 H 1431.86 0.341141 3.21897 0
M  V30 15666 H 1430.77 2.59775 2.69199 0
M  V30 15667 H 1432.1 3.40364 3.55547 0
M  V30 15668 N 1433.76 -0.95397 1.25448 0
M  V30 15669 C 1434.71 -2.07206 1.05681 0
M  V30 15670 C 1435.7 -1.69395 -0.0124672 0
M  V30 15671 O 1436.91 -1.79429 0.143201 0
M  V30 15672 H 1433.28 -0.678231 0.324817 0
M  V30 15673 H 1435.25 -2.21034 2.00466 0
M  V30 15674 C 1434 -3.40725 0.692955 0
M  V30 15675 H 1433.32 -3.70287 1.50756 0
M  V30 15676 H 1434.76 -4.19814 0.594351 0
M  V30 15677 C 1433.22 -3.31495 -0.601028 0
M  V30 15678 O 1433.75 -3.66565 -1.64296 0
M  V30 15679 N 1431.96 -2.84612 -0.586899 0
M  V30 15680 H 1431.51 -2.56271 0.261375 0
M  V30 15681 H 1431.46 -2.78819 -1.45284 0
M  V30 15682 N 1435.24 -1.07045 -1.15668 0
M  V30 15683 C 1436.17 -0.632171 -2.19269 0
M  V30 15684 C 1437.15 0.348973 -1.58811 0
M  V30 15685 O 1438.33 0.256137 -1.86752 0
M  V30 15686 C 1435.46 0.0721491 -3.38623 0
M  V30 15687 C 1434.5 -0.866947 -4.17596 0
M  V30 15688 S 1435.34 -2.36628 -4.80382 0
M  V30 15689 C 1436.49 -1.67367 -6.03108 0
M  V30 15690 H 1436.73 -1.50986 -2.56106 0
M  V30 15691 H 1434.26 -0.884123 -1.2658 0
M  V30 15692 H 1436.22 0.472272 -4.07774 0
M  V30 15693 H 1434.88 0.926138 -3.00136 0
M  V30 15694 H 1434.07 -0.320814 -5.02978 0
M  V30 15695 H 1433.67 -1.20731 -3.53977 0
M  V30 15696 H 1435.96 -0.983606 -6.70322 0
M  V30 15697 H 1436.91 -2.50569 -6.62284 0
M  V30 15698 H 1437.32 -1.15299 -5.526 0
M  V30 15699 N 1436.71 1.32449 -0.85411 0
M  V30 15700 C 1437.99 1.91902 -0.378533 0
M  V30 15701 C 1438.37 1.77811 1.13782 0
M  V30 15702 O 1437.72 1.17588 1.95922 0
M  V30 15703 C 1437.93 3.38683 -0.842299 0
M  V30 15704 C 1439.28 4.15817 -0.859161 0
M  V30 15705 O 1440.3 3.47399 -0.786901 0
M  V30 15706 O 1439.16 5.37985 -0.960933 0
M  V30 15707 H 1436.25 0.819614 -0.110284 0
M  V30 15708 H 1438.8 1.41222 -0.940974 0
M  V30 15709 H 1437.57 3.4288 -1.88544 0
M  V30 15710 H 1437.19 3.96767 -0.257278 0
M  V30 15711 N 1438.19 0.611994 1.45232 0
M  V30 15712 C 1439.44 0.109073 2.02506 0
M  V30 15713 C 1439.77 -1.25876 1.47881 0
M  V30 15714 O 1439.05 -1.83131 0.65524 0
M  V30 15715 C 1439.33 0.0749288 3.60022 0
M  V30 15716 C 1439.18 1.47374 4.24972 0
M  V30 15717 C 1440.5 -0.610602 4.35844 0
M  V30 15718 H 1437.62 0.0411101 0.735853 0
M  V30 15719 H 1440.26 0.78481 1.73034 0
M  V30 15720 H 1438.41 -0.500511 3.85262 0
M  V30 15721 H 1440.08 2.0966 4.10902 0
M  V30 15722 H 1438.33 2.03319 3.83202 0
M  V30 15723 H 1439 1.40206 5.33897 0
M  V30 15724 H 1441.47 -0.121445 4.15923 0
M  V30 15725 H 1440.35 -0.603614 5.45571 0
M  V30 15726 H 1440.61 -1.6775 4.09038 0
M  V30 15727 N 1439.67 -1.53632 0.351409 0
M  V30 15728 C 1440.92 -2.00222 -0.243731 0
M  V30 15729 C 1441.23 -1.24305 -1.51022 0
M  V30 15730 O 1442.44 -1.61411 -2.18309 0
M  V30 15731 C 1440.89 -3.56619 -0.48487 0
M  V30 15732 C 1440.5 -4.414 0.766173 0
M  V30 15733 C 1442.25 -4.11603 -1.03844 0
M  V30 15734 C 1440.15 -5.89321 0.4954 0
M  V30 15735 H 1439.08 -0.74801 -0.0948534 0
M  V30 15736 H 1441.73 -1.77433 0.467957 0
M  V30 15737 H 1440.12 -3.75505 -1.25746 0
M  V30 15738 H 1441.29 -4.34288 1.54047 0
M  V30 15739 H 1439.6 -3.97448 1.24194 0
M  V30 15740 H 1442.2 -5.19736 -1.25611 0
M  V30 15741 H 1442.54 -3.65311 -1.99634 0
M  V30 15742 H 1443.08 -3.96459 -0.326363 0
M  V30 15743 H 1439.82 -6.39863 1.42324 0
M  V30 15744 H 1439.34 -5.99317 -0.240662 0
M  V30 15745 H 1441.02 -6.46897 0.115584 0
M  V30 15746 N 1441.15 -0.0802183 -1.57396 0
M  V30 15747 C 1442.4 0.586573 -1.92982 0
M  V30 15748 C 1442.71 1.70256 -0.962918 0
M  V30 15749 O 1443.92 2.4295 -1.21193 0
M  V30 15750 C 1442.37 1.09475 -3.42846 0
M  V30 15751 C 1441.98 0.0093098 -4.47999 0
M  V30 15752 C 1443.72 1.73512 -3.87419 0
M  V30 15753 C 1441.63 0.532002 -5.89002 0
M  V30 15754 H 1440.56 0.222878 -0.720306 0
M  V30 15755 H 1443.21 -0.153816 -1.82854 0
M  V30 15756 H 1441.59 1.88836 -3.48076 0
M  V30 15757 H 1442.77 -0.765609 -4.54395 0
M  V30 15758 H 1441.08 -0.535345 -4.12944 0
M  V30 15759 H 1443.68 2.13665 -4.90154 0
M  V30 15760 H 1444.02 2.59845 -3.25248 0
M  V30 15761 H 1444.56 1.00758 -3.84828 0
M  V30 15762 H 1441.29 -0.294364 -6.54839 0
M  V30 15763 H 1440.81 1.27425 -5.86108 0
M  V30 15764 H 1442.49 1.00573 -6.39135 0
M  V30 15765 N 1442.63 1.56409 0.193394 0
M  V30 15766 C 1443.87 1.80724 0.913521 0
M  V30 15767 C 1444.2 0.653718 1.83185 0
M  V30 15768 O 1443.46 -0.360417 1.92353 0
M  V30 15769 C 1443.75 3.11039 1.76039 0
M  V30 15770 C 1443.42 4.39832 0.992892 0
M  V30 15771 C 1442.08 4.7482 0.780991 0
M  V30 15772 C 1444.43 5.19228 0.452985 0
M  V30 15773 C 1441.76 5.86697 0.0177286 0
M  V30 15774 C 1444.11 6.31902 -0.297075 0
M  V30 15775 C 1442.78 6.65472 -0.519977 0
M  V30 15776 H 1442.05 0.661315 0.334281 0
M  V30 15777 H 1444.7 1.90654 0.179786 0
M  V30 15778 H 1443 2.96353 2.56285 0
M  V30 15779 H 1444.7 3.27058 2.32022 0
M  V30 15780 H 1441.29 4.12376 1.16806 0
M  V30 15781 H 1445.47 4.9261 0.604092 0
M  V30 15782 H 1440.73 6.11178 -0.164925 0
M  V30 15783 H 1444.9 6.92639 -0.7228 0
M  V30 15784 H 1442.53 7.52004 -1.11331 0
M  V30 15785 N 1444.1 -0.461169 1.50702 0
M  V30 15786 C 1445.35 -1.20934 1.61425 0
M  V30 15787 C 1445.67 -1.92884 0.32481 0
M  V30 15788 O 1446.87 -2.69712 0.311081 0
M  V30 15789 C 1445.33 -2.19797 2.84987 0
M  V30 15790 C 1444.94 -1.53604 4.20844 0
M  V30 15791 C 1446.68 -2.95194 3.05059 0
M  V30 15792 C 1444.59 -2.50811 5.35582 0
M  V30 15793 H 1443.52 -0.455088 0.601174 0
M  V30 15794 H 1446.17 -0.478771 1.77144 0
M  V30 15795 H 1444.55 -2.96187 2.62848 0
M  V30 15796 H 1445.72 -0.829345 4.53275 0
M  V30 15797 H 1444.04 -0.904504 4.06457 0
M  V30 15798 H 1446.64 -3.67965 3.87951 0
M  V30 15799 H 1446.98 -3.5516 2.1718 0
M  V30 15800 H 1447.51 -2.25915 3.27425 0
M  V30 15801 H 1444.25 -1.9557 6.25646 0
M  V30 15802 H 1443.77 -3.19604 5.07556 0
M  V30 15803 H 1445.45 -3.12437 5.66561 0
M  V30 15804 N 1445.58 -1.40446 -0.715026 0
M  V30 15805 C 1446.51 -1.43511 -1.84193 0
M  V30 15806 C 1447.49 -0.295969 -1.67505 0
M  V30 15807 O 1448.68 -0.504667 -1.87528 0
M  V30 15808 C 1445.81 -1.29751 -3.22152 0
M  V30 15809 C 1444.76 -2.41274 -3.53512 0
M  V30 15810 C 1444.09 -2.12591 -4.90621 0
M  V30 15811 C 1445.39 -3.83614 -3.54454 0
M  V30 15812 H 1447.08 -2.37819 -1.81885 0
M  V30 15813 H 1444.63 -1.14469 -0.873655 0
M  V30 15814 H 1446.58 -1.30511 -4.0068 0
M  V30 15815 H 1445.3 -0.319189 -3.25037 0
M  V30 15816 H 1443.96 -2.39764 -2.77324 0
M  V30 15817 H 1443.61 -1.13148 -4.90109 0
M  V30 15818 H 1443.31 -2.87308 -5.1257 0
M  V30 15819 H 1444.84 -2.15034 -5.71483 0
M  V30 15820 H 1446.25 -3.86945 -4.23021 0
M  V30 15821 H 1444.65 -4.57855 -3.87929 0
M  V30 15822 H 1445.72 -4.13159 -2.53827 0
M  V30 15823 N 1447.06 0.947303 -1.25952 0
M  V30 15824 C 1447.99 2.0625 -1.09467 0
M  V30 15825 C 1448.97 1.701 -0.00160498 0
M  V30 15826 O 1450.16 1.93432 -0.172501 0
M  V30 15827 C 1447.29 3.39746 -0.720392 0
M  V30 15828 C 1446.24 3.89935 -1.76451 0
M  V30 15829 C 1445.57 5.2001 -1.24472 0
M  V30 15830 C 1446.87 4.15496 -3.16481 0
M  V30 15831 H 1448.56 2.203 -2.02752 0
M  V30 15832 H 1446.11 1.05858 -0.97622 0
M  V30 15833 H 1448.06 4.17221 -0.591972 0
M  V30 15834 H 1446.78 3.25656 0.248161 0
M  V30 15835 H 1445.44 3.14635 -1.8815 0
M  V30 15836 H 1445.09 5.02295 -0.266182 0
M  V30 15837 H 1444.79 5.54559 -1.94263 0
M  V30 15838 H 1446.31 6.00075 -1.12884 0
M  V30 15839 H 1447.73 4.83605 -3.07894 0
M  V30 15840 H 1446.12 4.61315 -3.83808 0
M  V30 15841 H 1447.19 3.21501 -3.62995 0
M  V30 15842 N 1448.54 1.07657 1.15099 0
M  V30 15843 C 1449.45 0.711198 2.2356 0
M  V30 15844 C 1450.46 -0.278932 1.7175 0
M  V30 15845 O 1451.64 -0.124788 2.01013 0
M  V30 15846 C 1448.71 0.117855 3.465 0
M  V30 15847 C 1447.77 1.16162 4.13286 0
M  V30 15848 C 1447 0.596494 5.30356 0
M  V30 15849 O 1447.22 -0.586474 5.67377 0
M  V30 15850 O 1446.16 1.34288 5.86729 0
M  V30 15851 H 1449.98 1.61578 2.5715 0
M  V30 15852 H 1447.57 0.84973 1.22882 0
M  V30 15853 H 1449.45 -0.210613 4.20873 0
M  V30 15854 H 1448.12 -0.760008 3.14652 0
M  V30 15855 H 1447.03 1.54249 3.4082 0
M  V30 15856 H 1448.36 2.01149 4.49221 0
M  V30 15857 N 1450.02 -1.31994 0.861122 0
M  V30 15858 C 1451.43 -1.79271 0.521437 0
M  V30 15859 C 1451.78 -1.71046 -0.96113 0
M  V30 15860 O 1450.9 -1.2729 -1.75003 0
M  V30 15861 C 1451.5 -3.25507 0.939731 0
M  V30 15862 C 1450.06 -3.70713 0.651845 0
M  V30 15863 C 1449.2 -2.52967 1.13592 0
M  V30 15864 H 1452.16 -1.19201 1.0477 0
M  V30 15865 H 1452.18 -3.79619 0.258754 0
M  V30 15866 H 1451.69 -3.3146 2.0188 0
M  V30 15867 H 1449.79 -3.70268 -0.416232 0
M  V30 15868 H 1449.9 -4.63236 1.22267 0
M  V30 15869 H 1448.27 -2.48558 0.555971 0
M  V30 15870 H 1449.05 -2.61671 2.22223 0
M  V30 15871 N 1451.49 -0.619688 -1.44906 0
M  V30 15872 C 1452.74 -0.11981 -2.02446 0
M  V30 15873 C 1453.07 1.2509 -1.48546 0
M  V30 15874 O 1452.35 1.82781 -0.664942 0
M  V30 15875 C 1452.63 -0.0940205 -3.59977 0
M  V30 15876 C 1452.48 -1.49626 -4.24184 0
M  V30 15877 C 1453.8 0.58748 -4.36161 0
M  V30 15878 H 1450.92 -0.0450119 -0.735624 0
M  V30 15879 H 1453.56 -0.793975 -1.72615 0
M  V30 15880 H 1451.71 0.480073 -3.85522 0
M  V30 15881 H 1453.39 -2.11836 -4.09784 0
M  V30 15882 H 1451.63 -2.05348 -3.82119 0
M  V30 15883 H 1452.3 -1.43035 -5.33146 0
M  V30 15884 H 1454.78 0.0993863 -4.15981 0
M  V30 15885 H 1453.65 0.574672 -5.45883 0
M  V30 15886 H 1453.91 1.65579 -4.09922 0
M  V30 15887 N 1452.97 1.53444 -0.359552 0
M  V30 15888 C 1453.9 2.28475 0.4818 0
M  V30 15889 C 1454.88 1.30664 1.08908 0
M  V30 15890 O 1456.07 1.59527 1.10746 0
M  V30 15891 C 1453.2 3.06951 1.62477 0
M  V30 15892 C 1452.15 4.12399 1.14504 0
M  V30 15893 C 1451.48 4.78922 2.37777 0
M  V30 15894 C 1452.78 5.21775 0.234075 0
M  V30 15895 H 1454.47 2.99053 -0.144162 0
M  V30 15896 H 1452.02 1.43826 -0.0707746 0
M  V30 15897 H 1453.97 3.58186 2.21993 0
M  V30 15898 H 1452.7 2.34053 2.27787 0
M  V30 15899 H 1451.35 3.62101 0.572589 0
M  V30 15900 H 1451 4.02602 3.0153 0
M  V30 15901 H 1450.7 5.50175 2.06353 0
M  V30 15902 H 1452.23 5.32948 2.97991 0
M  V30 15903 H 1453.64 5.68549 0.736548 0
M  V30 15904 H 1452.04 6.00099 0.0109887 0
M  V30 15905 H 1453.11 4.79443 -0.725435 0
M  V30 15906 N 1454.45 0.0885642 1.57351 0
M  V30 15907 C 1455.38 -0.902617 2.10679 0
M  V30 15908 C 1456.4 -1.25037 1.04257 0
M  V30 15909 O 1457.58 -1.20462 1.31723 0
M  V30 15910 C 1454.68 -2.21362 2.56616 0
M  V30 15911 C 1453.86 -2.04219 3.86799 0
M  V30 15912 C 1452.92 -3.18774 4.18652 0
M  V30 15913 O 1451.94 -2.93024 4.87981 0
M  V30 15914 N 1453.14 -4.44357 3.73534 0
M  V30 15915 H 1455.91 -0.447199 2.96345 0
M  V30 15916 H 1453.47 -0.0967178 1.61611 0
M  V30 15917 H 1455.46 -2.96935 2.74976 0
M  V30 15918 H 1454.03 -2.58349 1.75996 0
M  V30 15919 H 1453.25 -1.13015 3.77652 0
M  V30 15920 H 1454.54 -1.90035 4.71979 0
M  V30 15921 H 1453.94 -4.68159 3.17558 0
M  V30 15922 H 1452.5 -5.169 3.97061 0
M  V30 15923 N 1455.93 -1.56509 -0.185096 0
M  V30 15924 C 1456.88 -1.91742 -1.23366 0
M  V30 15925 C 1457.86 -0.784182 -1.40497 0
M  V30 15926 O 1459.05 -1.04718 -1.42699 0
M  V30 15927 C 1456.18 -2.26903 -2.57624 0
M  V30 15928 C 1455.27 -3.46707 -2.44244 0
M  V30 15929 N 1455.66 -4.64338 -2.00558 0
M  V30 15930 C 1453.96 -3.51042 -2.7511 0
M  V30 15931 C 1454.66 -5.46489 -1.9931 0
M  V30 15932 N 1453.64 -4.87162 -2.41193 0
M  V30 15933 H 1457.44 -2.80184 -0.887378 0
M  V30 15934 H 1454.95 -1.57561 -0.393468 0
M  V30 15935 H 1456.95 -2.50332 -3.33376 0
M  V30 15936 H 1455.61 -1.39792 -2.93067 0
M  V30 15937 H 1456.62 -4.88817 -1.7111 0
M  V30 15938 H 1453.3 -2.74375 -3.14682 0
M  V30 15939 H 1454.69 -6.50726 -1.67349 0
M  V30 15940 N 1457.41 0.45317 -1.50944 0
M  V30 15941 C 1458.63 1.23136 -1.6689 0
M  V30 15942 C 1459.06 1.84639 -0.359185 0
M  V30 15943 O 1458.41 1.68106 0.678983 0
M  V30 15944 C 1458.46 2.30275 -2.77499 0
M  V30 15945 O 1457.57 3.35371 -2.39999 0
M  V30 15946 H 1456.91 0.361475 -0.556984 0
M  V30 15947 H 1459.44 0.537174 -1.97422 0
M  V30 15948 H 1459.45 2.75309 -3.01113 0
M  V30 15949 H 1458.12 1.84885 -3.72546 0
M  V30 15950 H 1456.7 2.95924 -2.26899 0
M  V30 15951 N 1458.88 1.40823 0.707568 0
M  V30 15952 C 1459.82 1.37646 1.83265 0
M  V30 15953 C 1460.83 0.280547 1.60365 0
M  V30 15954 O 1462.02 0.541453 1.7009 0
M  V30 15955 C 1459.12 1.12121 3.19816 0
M  V30 15956 C 1458.29 2.33522 3.69846 0
M  V30 15957 C 1457.35 2.04035 4.85032 0
M  V30 15958 O 1456.38 2.76971 4.97268 0
M  V30 15959 N 1457.58 1.02322 5.71411 0
M  V30 15960 H 1460.34 2.34612 1.86486 0
M  V30 15961 H 1457.9 1.35281 0.889424 0
M  V30 15962 H 1459.9 0.903663 3.94482 0
M  V30 15963 H 1458.47 0.237941 3.11693 0
M  V30 15964 H 1457.69 2.71055 2.86221 0
M  V30 15965 H 1458.97 3.14436 4.00009 0
M  V30 15966 H 1458.37 0.419311 5.64144 0
M  V30 15967 H 1456.93 0.865571 6.46027 0
M  V30 15968 N 1460.36 -0.94061 1.26453 0
M  V30 15969 C 1461.59 -1.71874 1.14643 0
M  V30 15970 C 1462 -1.86791 -0.300969 0
M  V30 15971 O 1461.34 -1.37529 -1.21784 0
M  V30 15972 C 1461.41 -3.14408 1.74321 0
M  V30 15973 C 1461.07 -3.22873 3.23422 0
M  V30 15974 C 1462.07 -3.06107 4.20231 0
M  V30 15975 C 1459.75 -3.46245 3.63895 0
M  V30 15976 C 1461.75 -3.12581 5.55492 0
M  V30 15977 C 1459.43 -3.52354 4.99289 0
M  V30 15978 C 1460.43 -3.35539 5.94897 0
M  V30 15979 O 1460.12 -3.41357 7.27826 0
M  V30 15980 H 1459.85 -0.544931 0.400033 0
M  V30 15981 H 1462.4 -1.18767 1.67581 0
M  V30 15982 H 1460.63 -3.6894 1.15846 0
M  V30 15983 H 1462.32 -3.74135 1.57409 0
M  V30 15984 H 1463.09 -2.87906 3.90302 0
M  V30 15985 H 1458.97 -3.58389 2.89962 0
M  V30 15986 H 1462.51 -2.99374 6.30096 0
M  V30 15987 H 1458.41 -3.70077 5.2888 0
M  V30 15988 H 1459.18 -3.57897 7.36106 0
M  V30 15989 N 1461.84 -1.08266 -1.14527 0
M  V30 15990 C 1462.77 -0.732968 -2.21698 0
M  V30 15991 C 1463.75 0.283917 -1.67714 0
M  V30 15992 O 1464.94 0.154607 -1.93584 0
M  V30 15993 C 1462.07 -0.139935 -3.47018 0
M  V30 15994 C 1461.02 -1.08501 -4.14019 0
M  V30 15995 C 1460.35 -0.354263 -5.33525 0
M  V30 15996 C 1461.65 -2.42254 -4.62721 0
M  V30 15997 H 1463.34 -1.629 -2.51205 0
M  V30 15998 H 1460.89 -0.784696 -1.20742 0
M  V30 15999 H 1462.84 0.1167 -4.21238 0
M  V30 16000 H 1461.56 0.791228 -3.16871 0
M  V30 16001 H 1460.22 -1.32672 -3.41751 0
M  V30 16002 H 1459.87 0.580658 -4.99637 0
M  V30 16003 H 1459.57 -0.984287 -5.79297 0
M  V30 16004 H 1461.09 -0.105648 -6.10509 0
M  V30 16005 H 1462.51 -2.22357 -5.28422 0
M  V30 16006 H 1460.91 -3.00935 -5.1919 0
M  V30 16007 H 1461.98 -3.03884 -3.77866 0
M  V30 16008 N 1463.32 1.31536 -0.86811 0
M  V30 16009 C 1464.74 1.49461 -0.559778 0
M  V30 16010 C 1464.94 1.79957 0.906525 0
M  V30 16011 O 1463.99 1.87711 1.68881 0
M  V30 16012 C 1465.3 2.62967 -1.45839 0
M  V30 16013 C 1466.85 2.76851 -1.46023 0
M  V30 16014 C 1467.33 3.93451 -2.34436 0
M  V30 16015 N 1468.82 4.00735 -2.32306 0
M  V30 16016 C 1469.55 4.90223 -2.97437 0
M  V30 16017 N 1469.05 5.84626 -3.71731 0
M  V30 16018 N 1470.84 4.83454 -2.86755 0
M  V30 16019 H 1462.99 1.1001 -1.81691 0
M  V30 16020 H 1465.26 0.543418 -0.776789 0
M  V30 16021 H 1464.96 2.47203 -2.50168 0
M  V30 16022 H 1464.84 3.59063 -1.15556 0
M  V30 16023 H 1467.22 2.9203 -0.424527 0
M  V30 16024 H 1467.3 1.81427 -1.80327 0
M  V30 16025 H 1466.95 3.79029 -3.38082 0
M  V30 16026 H 1466.88 4.88179 -1.97457 0
M  V30 16027 H 1469.37 3.33191 -1.78303 0
M  V30 16028 H 1469.68 6.49635 -4.18562 0
M  V30 16029 H 1468.03 5.84611 -3.75839 0
M  V30 16030 H 1471.22 4.08678 -2.28254 0
M  V30 16031 H 1471.39 5.52991 -3.37795 0
M  V30 16032 N 1464.8 0.627364 1.44575 0
M  V30 16033 C 1465.73 -0.066735 2.33405 0
M  V30 16034 C 1466.71 -0.838666 1.47988 0
M  V30 16035 O 1467.89 -0.805296 1.76716 0
M  V30 16036 C 1465.02 -1.05148 3.31 0
M  V30 16037 C 1463.98 -0.391433 4.26206 0
M  V30 16038 C 1463.3 -1.48581 5.13642 0
M  V30 16039 C 1464.6 0.699942 5.17589 0
M  V30 16040 H 1466.3 0.675029 2.91691 0
M  V30 16041 H 1463.84 0.326066 1.4026 0
M  V30 16042 H 1465.8 -1.54576 3.92026 0
M  V30 16043 H 1464.52 -1.82408 2.70915 0
M  V30 16044 H 1463.18 0.0821694 3.66508 0
M  V30 16045 H 1462.83 -2.2492 4.49911 0
M  V30 16046 H 1462.53 -1.04957 5.7815 0
M  V30 16047 H 1464.05 -1.98198 5.77538 0
M  V30 16048 H 1465.47 0.288911 5.72572 0
M  V30 16049 H 1463.86 1.0591 5.9068 0
M  V30 16050 H 1464.93 1.5686 4.58828 0
M  V30 16051 N 1466.28 -1.53251 0.367684 0
M  V30 16052 C 1467.69 -1.59591 0.0167132 0
M  V30 16053 C 1467.89 -1.38272 -1.46571 0
M  V30 16054 O 1466.95 -1.18893 -2.22757 0
M  V30 16055 C 1468.26 -2.96932 0.474534 0
M  V30 16056 C 1469.81 -3.10047 0.428934 0
M  V30 16057 C 1470.28 -4.49804 0.862599 0
M  V30 16058 N 1471.77 -4.55925 0.817742 0
M  V30 16059 C 1472.51 -5.62256 1.12496 0
M  V30 16060 N 1472.01 -6.76332 1.50156 0
M  V30 16061 N 1473.8 -5.52251 1.04762 0
M  V30 16062 H 1465.95 -1.6536 1.33303 0
M  V30 16063 H 1468.21 -0.775681 0.544998 0
M  V30 16064 H 1467.92 -3.17679 1.50907 0
M  V30 16065 H 1467.79 -3.76948 -0.137752 0
M  V30 16066 H 1470.18 -2.89009 -0.596473 0
M  V30 16067 H 1470.26 -2.32034 1.07674 0
M  V30 16068 H 1469.9 -4.7158 1.88613 0
M  V30 16069 H 1469.83 -5.2625 0.19202 0
M  V30 16070 H 1472.33 -3.74017 0.540323 0
M  V30 16071 H 1472.64 -7.53412 1.72019 0
M  V30 16072 H 1470.98 -6.77718 1.54024 0
M  V30 16073 H 1474.17 -4.62011 0.752571 0
M  V30 16074 H 1474.35 -6.35022 1.29038 0
M  V30 16075 N 1467.75 -0.0969077 -1.57302 0
M  V30 16076 C 1468.69 0.891431 -2.11154 0
M  V30 16077 C 1469.7 1.24482 -1.04919 0
M  V30 16078 O 1470.89 1.19762 -1.3236 0
M  V30 16079 C 1467.99 2.19998 -2.57787 0
M  V30 16080 C 1467.16 2.02165 -3.87876 0
M  V30 16081 C 1466.22 3.16549 -4.20337 0
M  V30 16082 O 1465.25 2.90432 -4.89528 0
M  V30 16083 N 1466.45 4.42369 -3.75885 0
M  V30 16084 H 1469.21 0.431477 -2.96578 0
M  V30 16085 H 1466.77 0.0881458 -1.6166 0
M  V30 16086 H 1468.77 2.95472 -2.76547 0
M  V30 16087 H 1467.34 2.57412 -1.77364 0
M  V30 16088 H 1466.56 1.11011 -3.78246 0
M  V30 16089 H 1467.84 1.87529 -4.7298 0
M  V30 16090 H 1467.24 4.66469 -3.20036 0
M  V30 16091 H 1465.8 5.14787 -3.99797 0
M  V30 16092 N 1469.23 1.56605 0.176793 0
M  V30 16093 C 1470.65 1.50601 0.528354 0
M  V30 16094 C 1470.85 0.800205 1.8493 0
M  V30 16095 O 1469.9 0.358299 2.49945 0
M  V30 16096 C 1471.22 2.95322 0.566172 0
M  V30 16097 C 1472.76 3.06097 0.653751 0
M  V30 16098 C 1473.24 4.52265 0.722511 0
M  V30 16099 N 1474.73 4.5649 0.785548 0
M  V30 16100 C 1475.47 5.66926 0.859232 0
M  V30 16101 N 1474.96 6.87006 0.894088 0
M  V30 16102 N 1476.75 5.54883 0.897832 0
M  V30 16103 H 1468.91 2.00899 -0.689442 0
M  V30 16104 H 1471.17 0.915011 -0.24791 0
M  V30 16105 H 1470.87 3.50095 -0.33566 0
M  V30 16106 H 1470.75 3.49671 1.41456 0
M  V30 16107 H 1473.14 2.51361 1.54601 0
M  V30 16108 H 1473.22 2.54842 -0.221207 0
M  V30 16109 H 1472.86 5.0763 -0.165469 0
M  V30 16110 H 1472.79 5.01271 1.61353 0
M  V30 16111 H 1475.28 3.70032 0.767117 0
M  V30 16112 H 1475.59 7.66922 0.951333 0
M  V30 16113 H 1473.94 6.89628 0.862457 0
M  V30 16114 H 1477.13 4.5999 0.867564 0
M  V30 16115 H 1477.3 6.40972 0.951795 0
M  V30 16116 N 1470.71 -0.445159 1.51182 0
M  V30 16117 C 1471.96 -1.19215 1.62698 0
M  V30 16118 C 1472.27 -1.92529 0.345249 0
M  V30 16119 O 1473.48 -2.69367 0.33967 0
M  V30 16120 C 1471.93 -2.16762 2.87302 0
M  V30 16121 C 1471.54 -1.49131 4.2245 0
M  V30 16122 C 1473.29 -2.91942 3.08172 0
M  V30 16123 C 1471.19 -2.45117 5.38212 0
M  V30 16124 H 1470.12 -0.448687 0.605967 0
M  V30 16125 H 1472.77 -0.459956 1.77642 0
M  V30 16126 H 1471.16 -2.93383 2.65975 0
M  V30 16127 H 1472.33 -0.781222 4.54129 0
M  V30 16128 H 1470.64 -0.861342 4.07394 0
M  V30 16129 H 1473.24 -3.6383 3.91832 0
M  V30 16130 H 1473.58 -3.52837 2.20934 0
M  V30 16131 H 1474.12 -2.22429 3.29803 0
M  V30 16132 H 1470.86 -1.88923 6.27685 0
M  V30 16133 H 1470.38 -3.14202 5.10918 0
M  V30 16134 H 1472.06 -3.06411 5.69843 0
M  V30 16135 N 1472.19 -1.41197 -0.700089 0
M  V30 16136 C 1473.43 -1.41775 -1.47239 0
M  V30 16137 C 1473.79 -0.0239874 -1.91985 0
M  V30 16138 O 1474.99 0.0954207 -2.68631 0
M  V30 16139 C 1473.26 -2.39268 -2.65491 0
M  V30 16140 S 1474.82 -2.58337 -3.54693 0
M  V30 16141 H 1471.64 -0.502298 -0.503207 0
M  V30 16142 H 1474.24 -1.77596 -0.817296 0
M  V30 16143 H 1472.95 -3.39342 -2.30815 0
M  V30 16144 H 1472.48 -2.04784 -3.35897 0
M  V30 16145 H 1474.49 -1.84739 -4.60528 0
M  V30 16146 N 1473.67 0.933891 -1.2695 0
M  V30 16147 C 1474.61 2.03365 -1.09139 0
M  V30 16148 C 1475.58 1.66099 0.00573029 0
M  V30 16149 O 1476.77 1.90166 -0.155425 0
M  V30 16150 C 1473.91 3.37114 -0.738117 0
M  V30 16151 C 1473.02 3.87372 -1.91224 0
M  V30 16152 C 1472.16 5.0954 -1.50141 0
M  V30 16153 C 1471.19 5.52079 -2.64339 0
M  V30 16154 N 1470.33 6.65446 -2.23887 0
M  V30 16155 H 1475.17 2.17932 -2.03248 0
M  V30 16156 H 1472.71 1.0677 -1.01186 0
M  V30 16157 H 1474.67 4.1402 -0.514141 0
M  V30 16158 H 1473.3 3.22373 0.166007 0
M  V30 16159 H 1472.35 3.06801 -2.24894 0
M  V30 16160 H 1473.66 4.14875 -2.76912 0
M  V30 16161 H 1472.81 5.93928 -1.23831 0
M  V30 16162 H 1471.55 4.838 -0.615539 0
M  V30 16163 H 1470.56 4.66244 -2.9137 0
M  V30 16164 H 1471.78 5.79817 -3.53537 0
M  V30 16165 H 1469.73 6.41376 -1.37744 0
M  V30 16166 H 1469.65 6.92573 -3.03116 0
M  V30 16167 H 1470.91 7.53191 -2.00809 0
M  V30 16168 N 1475.14 1.08871 1.13951 0
M  V30 16169 C 1476.37 0.843055 1.89492 0
M  V30 16170 C 1476.79 -0.599539 1.78289 0
M  V30 16171 O 1476.15 -1.42062 1.12642 0
M  V30 16172 C 1476.2 1.27572 3.3728 0
M  V30 16173 O 1475.3 0.430611 4.10146 0
M  V30 16174 H 1474.64 0.3058 0.589391 0
M  V30 16175 H 1477.17 1.45137 1.44209 0
M  V30 16176 H 1477.18 1.25864 3.88101 0
M  V30 16177 H 1475.86 2.32635 3.44751 0
M  V30 16178 H 1474.44 0.511516 3.69375 0
M  V30 16179 N 1476.62 -1.31073 0.875073 0
M  V30 16180 C 1477.85 -2.01223 0.502383 0
M  V30 16181 C 1478.27 -1.65223 -0.899053 0
M  V30 16182 O 1477.63 -0.863559 -1.59412 0
M  V30 16183 C 1477.68 -3.54269 0.672747 0
M  V30 16184 O 1476.78 -4.11409 -0.285718 0
M  V30 16185 H 1476.12 -0.633422 0.199181 0
M  V30 16186 H 1478.65 -1.67152 1.17989 0
M  V30 16187 H 1478.66 -4.04027 0.567973 0
M  V30 16188 H 1477.34 -3.79811 1.69459 0
M  V30 16189 H 1475.91 -3.72654 -0.135472 0
M  V30 16190 N 1478.1 -0.635022 -1.4424 0
M  V30 16191 C 1479.35 -0.138497 -2.01224 0
M  V30 16192 C 1479.66 1.2485 -1.50571 0
M  V30 16193 O 1480.87 1.83926 -1.99709 0
M  V30 16194 C 1479.32 -0.196836 -3.59361 0
M  V30 16195 C 1478.93 -1.58539 -4.1901 0
M  V30 16196 C 1480.68 0.243025 -4.23804 0
M  V30 16197 C 1478.58 -1.59864 -5.69384 0
M  V30 16198 H 1477.51 -0.0480117 -0.75247 0
M  V30 16199 H 1480.16 -0.794391 -1.65414 0
M  V30 16200 H 1478.55 0.526231 -3.92488 0
M  V30 16201 H 1479.72 -2.33236 -3.97414 0
M  V30 16202 H 1478.04 -1.96967 -3.66869 0
M  V30 16203 H 1480.63 0.252717 -5.34102 0
M  V30 16204 H 1480.98 1.27107 -3.96421 0
M  V30 16205 H 1481.51 -0.427678 -3.95494 0
M  V30 16206 H 1478.25 -2.60518 -6.01507 0
M  V30 16207 H 1477.77 -0.894664 -5.9309 0
M  V30 16208 H 1479.45 -1.3343 -6.33092 0
M  V30 16209 N 1479.58 1.53054 -0.375806 0
M  V30 16210 C 1480.51 2.28973 0.45754 0
M  V30 16211 C 1481.49 1.31812 1.07516 0
M  V30 16212 O 1482.67 1.60693 1.09048 0
M  V30 16213 C 1479.8 3.08657 1.59212 0
M  V30 16214 C 1478.76 4.1359 1.10123 0
M  V30 16215 C 1478.08 4.81417 2.32684 0
M  V30 16216 C 1479.38 5.21994 0.17872 0
M  V30 16217 H 1481.08 2.98883 -0.175872 0
M  V30 16218 H 1478.62 1.43743 -0.0860253 0
M  V30 16219 H 1480.58 3.6052 2.18182 0
M  V30 16220 H 1479.3 2.36456 2.25291 0
M  V30 16221 H 1477.96 3.62688 0.534151 0
M  V30 16222 H 1477.61 4.05778 2.97243 0
M  V30 16223 H 1477.31 5.52332 2.00506 0
M  V30 16224 H 1478.83 5.36079 2.92322 0
M  V30 16225 H 1480.25 5.69298 0.676204 0
M  V30 16226 H 1478.64 6.00077 -0.0526605 0
M  V30 16227 H 1479.71 4.78646 -0.776246 0
M  V30 16228 N 1481.06 0.105248 1.57248 0
M  V30 16229 C 1481.99 -0.880221 2.11624 0
M  V30 16230 C 1483 -1.23924 1.05578 0
M  V30 16231 O 1484.19 -1.19059 1.32994 0
M  V30 16232 C 1481.29 -2.18628 2.5895 0
M  V30 16233 C 1480.46 -2.00105 3.88943 0
M  V30 16234 C 1479.52 -3.14315 4.2201 0
M  V30 16235 O 1478.55 -2.87832 4.91061 0
M  V30 16236 N 1479.75 -4.4037 3.78226 0
M  V30 16237 H 1482.52 -0.415742 2.96802 0
M  V30 16238 H 1480.08 -0.0795714 1.61704 0
M  V30 16239 H 1482.07 -2.94002 2.7811 0
M  V30 16240 H 1480.64 -2.56467 1.78727 0
M  V30 16241 H 1479.86 -1.09003 3.7883 0
M  V30 16242 H 1481.15 -1.85018 4.73968 0
M  V30 16243 H 1480.54 -4.64765 3.22506 0
M  V30 16244 H 1479.1 -5.1266 4.02521 0
M  V30 16245 N 1482.53 -1.56697 -0.168486 0
M  V30 16246 C 1483.78 -1.83318 -0.88126 0
M  V30 16247 C 1484.14 -0.686203 -1.79747 0
M  V30 16248 O 1483.43 0.317194 -1.88956 0
M  V30 16249 C 1483.62 -3.138 -1.71068 0
M  V30 16250 C 1483.45 -4.4108 -0.876273 0
M  V30 16251 C 1482.22 -5.02295 -0.550249 0
M  V30 16252 C 1484.42 -5.13844 -0.216518 0
M  V30 16253 N 1482.4 -6.13167 0.300004 0
M  V30 16254 C 1483.77 -6.18023 0.494779 0
M  V30 16255 C 1485.83 -4.97717 -0.134974 0
M  V30 16256 C 1484.53 -7.07822 1.27989 0
M  V30 16257 C 1486.56 -5.87961 0.636813 0
M  V30 16258 C 1485.92 -6.91605 1.33646 0
M  V30 16259 H 1482.02 -0.72175 -0.301001 0
M  V30 16260 H 1484.6 -1.94136 -0.148047 0
M  V30 16261 H 1482.77 -3.04168 -2.41529 0
M  V30 16262 H 1484.5 -3.28407 -2.36497 0
M  V30 16263 H 1481.26 -4.65334 -0.881 0
M  V30 16264 H 1481.68 -6.73208 0.715523 0
M  V30 16265 H 1486.33 -4.17592 -0.66154 0
M  V30 16266 H 1484.04 -7.87389 1.81779 0
M  V30 16267 H 1487.63 -5.77554 0.701615 0
M  V30 16268 H 1486.51 -7.60229 1.92409 0
M  V30 16269 N 1484.01 0.437135 -1.51416 0
M  V30 16270 C 1485.42 1.01699 -1.5657 0
M  V30 16271 C 1485.77 1.92299 -0.389291 0
M  V30 16272 O 1484.9 2.10689 0.49389 0
M  V30 16273 C 1485.49 1.85119 -2.83754 0
M  V30 16274 C 1484.05 2.38154 -2.91478 0
M  V30 16275 C 1483.2 1.17374 -2.51234 0
M  V30 16276 H 1486.15 0.218399 -1.5719 0
M  V30 16277 H 1486.17 2.70572 -2.67528 0
M  V30 16278 H 1485.68 1.19153 -3.69357 0
M  V30 16279 H 1483.79 3.07575 -2.10306 0
M  V30 16280 H 1483.9 2.70937 -3.95133 0
M  V30 16281 H 1482.26 1.51913 -2.04437 0
M  V30 16282 H 1483.05 0.530176 -3.39181 0
M  V30 16283 N 1485.49 1.41566 0.692592 0
M  V30 16284 C 1486.77 1.31572 1.44735 0
M  V30 16285 C 1487.15 -0.0553081 2.11028 0
M  V30 16286 O 1486.5 -1.06974 2.01913 0
M  V30 16287 C 1486.71 2.47125 2.46435 0
M  V30 16288 C 1488.05 2.88427 3.11601 0
M  V30 16289 O 1489.08 2.46886 2.5676 0
M  V30 16290 O 1487.94 3.6027 4.10935 0
M  V30 16291 H 1485.03 0.517949 0.644715 0
M  V30 16292 H 1487.58 1.53536 0.722818 0
M  V30 16293 H 1486.35 3.38601 1.96124 0
M  V30 16294 H 1485.97 2.27054 3.26393 0
M  V30 16295 N 1486.97 -0.927146 1.27443 0
M  V30 16296 C 1487.92 -2.04917 1.10053 0
M  V30 16297 C 1488.91 -1.69384 0.0234668 0
M  V30 16298 O 1490.12 -1.79085 0.181228 0
M  V30 16299 H 1486.49 -0.671189 0.33913 0
M  V30 16300 H 1488.46 -2.16732 2.05109 0
M  V30 16301 C 1487.21 -3.39178 0.765072 0
M  V30 16302 H 1486.53 -3.67006 1.58577 0
M  V30 16303 H 1487.97 -4.18458 0.683266 0
M  V30 16304 C 1486.43 -3.32696 -0.530578 0
M  V30 16305 O 1486.96 -3.69967 -1.56484 0
M  V30 16306 N 1485.17 -2.85793 -0.526396 0
M  V30 16307 H 1484.72 -2.55658 0.315675 0
M  V30 16308 H 1484.67 -2.81838 -1.39337 0
M  V30 16309 N 1488.45 -1.09474 -1.13372 0
M  V30 16310 C 1489.86 -0.850378 -1.66209 0
M  V30 16311 C 1490.21 0.621071 -1.86111 0
M  V30 16312 O 1489.33 1.47837 -1.58029 0
M  V30 16313 C 1489.93 -1.53713 -3.01924 0
M  V30 16314 C 1488.49 -1.33972 -3.5175 0
M  V30 16315 C 1487.63 -1.5929 -2.26985 0
M  V30 16316 H 1490.59 -1.25383 -0.972874 0
M  V30 16317 H 1490.61 -0.970503 -3.67915 0
M  V30 16318 H 1490.12 -2.60804 -2.87407 0
M  V30 16319 H 1488.22 -0.289998 -3.7147 0
M  V30 16320 H 1488.33 -2.0749 -4.31839 0
M  V30 16321 H 1486.7 -1.01505 -2.336 0
M  V30 16322 H 1487.48 -2.67611 -2.15033 0
M  V30 16323 N 1489.92 1.30607 -0.882012 0
M  V30 16324 C 1490.87 2.2821 -0.344826 0
M  V30 16325 C 1491.84 1.56254 0.563361 0
M  V30 16326 O 1493.03 1.84336 0.492416 0
M  V30 16327 C 1490.17 3.42319 0.437216 0
M  V30 16328 C 1489.28 4.29098 -0.499851 0
M  V30 16329 C 1488.41 5.30366 0.297497 0
M  V30 16330 C 1487.45 6.08795 -0.63523 0
M  V30 16331 N 1486.59 7.01986 0.12661 0
M  V30 16332 H 1491.43 2.73543 -1.18229 0
M  V30 16333 H 1488.97 1.34556 -0.594392 0
M  V30 16334 H 1490.93 4.07232 0.906521 0
M  V30 16335 H 1489.56 2.98063 1.23928 0
M  V30 16336 H 1488.61 3.6452 -1.08764 0
M  V30 16337 H 1489.92 4.83787 -1.21454 0
M  V30 16338 H 1489.07 6.01013 0.828786 0
M  V30 16339 H 1487.81 4.76364 1.04542 0
M  V30 16340 H 1486.82 5.37028 -1.17817 0
M  V30 16341 H 1488.04 6.64885 -1.3822 0
M  V30 16342 H 1485.99 6.50376 0.857125 0
M  V30 16343 H 1485.91 7.5415 -0.528512 0
M  V30 16344 H 1487.17 7.76879 0.638738 0
M  V30 16345 N 1491.4 0.642663 1.43901 0
M  V30 16346 C 1492.37 -0.0457858 2.29154 0
M  V30 16347 C 1493.37 -0.760988 1.41653 0
M  V30 16348 O 1494.56 -0.603832 1.634 0
M  V30 16349 C 1491.69 -1.07552 3.23489 0
M  V30 16350 H 1492.88 0.704193 2.91515 0
M  V30 16351 H 1490.43 0.403361 1.51006 0
M  V30 16352 H 1491.17 -1.85509 2.66002 0
M  V30 16353 H 1490.95 -0.566468 3.87987 0
M  V30 16354 H 1492.44 -1.55663 3.87503 0
M  V30 16355 N 1492.88 -1.52852 0.383918 0
M  V30 16356 C 1493.79 -2.3002 -0.461298 0
M  V30 16357 C 1494.81 -1.36717 -1.07631 0
M  V30 16358 O 1495.98 -1.69784 -1.08329 0
M  V30 16359 C 1493.05 -3.08804 -1.57609 0
M  V30 16360 C 1492.11 -4.17806 -0.986737 0
M  V30 16361 C 1491.34 -4.92825 -2.04841 0
M  V30 16362 O 1491.57 -4.67879 -3.26259 0
M  V30 16363 O 1490.5 -5.78306 -1.66871 0
M  V30 16364 H 1494.33 -3.03239 0.167189 0
M  V30 16365 H 1491.91 -1.48667 0.147781 0
M  V30 16366 H 1493.79 -3.57943 -2.22384 0
M  V30 16367 H 1492.47 -2.38404 -2.18964 0
M  V30 16368 H 1491.37 -3.72876 -0.302396 0
M  V30 16369 H 1492.71 -4.90426 -0.417481 0
M  V30 16370 N 1494.36 -0.113586 -1.5719 0
M  V30 16371 C 1495.61 0.544642 -1.94623 0
M  V30 16372 C 1495.93 1.6756 -0.997428 0
M  V30 16373 O 1495.2 1.95829 -0.0527521 0
M  V30 16374 H 1493.78 0.204186 -0.718552 0
M  V30 16375 H 1496.44 -0.181258 -1.94055 0
M  V30 16376 H 1495.54 0.942765 -2.9752 0
M  V30 16377 N 1495.84 1.56784 0.160173 0
M  V30 16378 C 1496.77 2.00298 1.20012 0
M  V30 16379 C 1497.75 0.880356 1.45546 0
M  V30 16380 O 1498.93 1.14724 1.56691 0
M  V30 16381 C 1496.06 2.37238 2.53645 0
M  V30 16382 C 1495.02 3.52563 2.42658 0
M  V30 16383 C 1494.34 3.75278 3.80881 0
M  V30 16384 C 1495.64 4.85657 1.92183 0
M  V30 16385 H 1497.34 2.87423 0.838362 0
M  V30 16386 H 1494.88 1.3828 0.401838 0
M  V30 16387 H 1496.84 2.66278 3.2661 0
M  V30 16388 H 1495.56 1.47035 2.9163 0
M  V30 16389 H 1494.22 3.23669 1.72146 0
M  V30 16390 H 1493.87 2.82347 4.1628 0
M  V30 16391 H 1493.57 4.52882 3.74396 0
M  V30 16392 H 1495.09 4.0673 4.55415 0
M  V30 16393 H 1496.51 5.13501 2.54931 0
M  V30 16394 H 1494.9 5.66975 1.96619 0
M  V30 16395 H 1495.97 4.76908 0.876742 0
M  V30 16396 N 1497.32 -0.429099 1.51646 0
M  V30 16397 C 1498.56 -1.17784 1.64722 0
M  V30 16398 C 1498.89 -1.90998 0.367415 0
M  V30 16399 O 1498.15 -1.8463 -0.648862 0
M  V30 16400 C 1498.44 -2.2131 2.80636 0
M  V30 16401 C 1498.11 -1.65048 4.19607 0
M  V30 16402 C 1496.77 -1.49428 4.57411 0
M  V30 16403 C 1499.12 -1.23765 5.06292 0
M  V30 16404 C 1496.45 -0.910109 5.79598 0
M  V30 16405 C 1498.8 -0.667743 6.29066 0
M  V30 16406 C 1497.47 -0.498507 6.65636 0
M  V30 16407 H 1496.74 -0.431001 0.60276 0
M  V30 16408 H 1499.39 -0.46775 1.857 0
M  V30 16409 H 1497.69 -2.98388 2.53913 0
M  V30 16410 H 1499.39 -2.79079 2.87951 0
M  V30 16411 H 1495.98 -1.78185 3.89805 0
M  V30 16412 H 1500.16 -1.3465 4.77685 0
M  V30 16413 H 1495.42 -0.766825 6.06572 0
M  V30 16414 H 1499.59 -0.339377 6.95573 0
M  V30 16415 H 1497.22 -0.0437292 7.60187 0
M  V30 16416 N 1498.79 -1.41931 -0.685074 0
M  V30 16417 C 1500.04 -1.43062 -1.44585 0
M  V30 16418 C 1500.39 -0.0425175 -1.92353 0
M  V30 16419 O 1499.69 0.933507 -1.67321 0
M  V30 16420 C 1499.88 -2.38099 -2.6654 0
M  V30 16421 C 1499.71 -3.86013 -2.30704 0
M  V30 16422 C 1498.48 -4.54622 -2.20559 0
M  V30 16423 C 1500.68 -4.76711 -1.93005 0
M  V30 16424 N 1498.66 -5.87613 -1.77719 0
M  V30 16425 C 1500.03 -5.9873 -1.61005 0
M  V30 16426 C 1502.09 -4.6426 -1.79907 0
M  V30 16427 C 1500.79 -7.09684 -1.17221 0
M  V30 16428 C 1502.82 -5.75187 -1.37529 0
M  V30 16429 C 1502.18 -6.96311 -1.06445 0
M  V30 16430 H 1498.28 -0.578696 -0.525961 0
M  V30 16431 H 1500.86 -1.77882 -0.791591 0
M  V30 16432 H 1499.03 -2.05358 -3.29671 0
M  V30 16433 H 1500.76 -2.29878 -3.33074 0
M  V30 16434 H 1497.52 -4.08698 -2.39296 0
M  V30 16435 H 1497.94 -6.58124 -1.58751 0
M  V30 16436 H 1502.58 -3.71104 -2.02588 0
M  V30 16437 H 1500.3 -8.02698 -0.932855 0
M  V30 16438 H 1503.89 -5.67561 -1.27929 0
M  V30 16439 H 1502.77 -7.80687 -0.741497 0
M  V30 16440 N 1500.27 0.920374 -1.27933 0
M  V30 16441 C 1501.2 2.02644 -1.07089 0
M  V30 16442 C 1502.22 1.62781 -0.024674 0
M  V30 16443 O 1503.41 1.76491 -0.267023 0
M  V30 16444 C 1500.51 3.33476 -0.603919 0
M  V30 16445 C 1499.68 4.01988 -1.72407 0
M  V30 16446 C 1498.74 5.11098 -1.25159 0
M  V30 16447 O 1497.76 5.3466 -1.95261 0
M  V30 16448 N 1498.97 5.80393 -0.111197 0
M  V30 16449 H 1501.73 2.21085 -2.0234 0
M  V30 16450 H 1499.29 1.09124 -1.19597 0
M  V30 16451 H 1501.28 4.03788 -0.271579 0
M  V30 16452 H 1499.85 3.11554 0.255557 0
M  V30 16453 H 1499.07 3.25312 -2.22633 0
M  V30 16454 H 1500.36 4.4451 -2.47566 0
M  V30 16455 H 1499.76 5.63713 0.473746 0
M  V30 16456 H 1498.32 6.51599 0.161912 0
M  V30 16457 N 1501.75 1.10074 1.1279 0
M  V30 16458 C 1502.98 0.862906 1.88047 0
M  V30 16459 C 1503.39 -0.586346 1.79464 0
M  V30 16460 O 1502.75 -1.40402 1.16591 0
M  V30 16461 C 1502.8 1.29784 3.37399 0
M  V30 16462 O 1502.52 2.69026 3.4577 0
M  V30 16463 C 1504.02 1.09336 4.29605 0
M  V30 16464 H 1501.24 0.309981 0.595108 0
M  V30 16465 H 1503.79 1.46444 1.42738 0
M  V30 16466 H 1501.94 0.740056 3.80266 0
M  V30 16467 H 1502.36 2.87532 4.38663 0
M  V30 16468 H 1503.83 1.44687 5.327 0
M  V30 16469 H 1504.31 0.031679 4.39189 0
M  V30 16470 H 1504.91 1.63743 3.92516 0
M  V30 16471 N 1503.23 -1.30138 0.888926 0
M  V30 16472 C 1504.16 -2.3047 0.374934 0
M  V30 16473 C 1505.14 -1.61156 -0.544322 0
M  V30 16474 O 1506.32 -1.88738 -0.457337 0
M  V30 16475 C 1503.45 -3.44896 -0.407935 0
M  V30 16476 C 1502.41 -4.25935 0.419916 0
M  V30 16477 C 1501.73 -5.32452 -0.489797 0
M  V30 16478 C 1503.03 -4.9508 1.66413 0
M  V30 16479 H 1504.73 -2.73711 1.21337 0
M  V30 16480 H 1502.27 -1.31586 0.584899 0
M  V30 16481 H 1504.23 -4.14153 -0.778177 0
M  V30 16482 H 1502.95 -3.0047 -1.28005 0
M  V30 16483 H 1501.61 -3.58372 0.772348 0
M  V30 16484 H 1501.26 -4.84273 -1.35974 0
M  V30 16485 H 1500.96 -5.87569 0.0603412 0
M  V30 16486 H 1502.48 -6.04563 -0.856468 0
M  V30 16487 H 1503.9 -5.56831 1.36425 0
M  V30 16488 H 1502.29 -5.6008 2.15477 0
M  V30 16489 H 1503.36 -4.20981 2.4063 0
M  V30 16490 N 1504.71 -0.650285 -1.43559 0
M  V30 16491 C 1506.12 -0.317586 -1.56408 0
M  V30 16492 C 1506.32 1.17844 -1.63447 0
M  V30 16493 O 1505.38 1.96318 -1.58794 0
M  V30 16494 C 1506.69 -1.02636 -2.82642 0
M  V30 16495 C 1508.24 -1.00633 -2.96381 0
M  V30 16496 C 1508.71 -1.69595 -4.25443 0
M  V30 16497 N 1510.2 -1.66345 -4.323 0
M  V30 16498 C 1510.94 -2.16581 -5.30924 0
M  V30 16499 N 1510.44 -2.75092 -6.35843 0
M  V30 16500 N 1512.23 -2.07098 -5.22558 0
M  V30 16501 H 1504.38 -1.62114 -1.37233 0
M  V30 16502 H 1506.64 -0.681588 -0.658895 0
M  V30 16503 H 1506.35 -2.08146 -2.83493 0
M  V30 16504 H 1506.22 -0.576081 -3.72775 0
M  V30 16505 H 1508.61 0.0403519 -2.95072 0
M  V30 16506 H 1508.69 -1.49528 -2.07545 0
M  V30 16507 H 1508.33 -2.74218 -4.27512 0
M  V30 16508 H 1508.26 -1.18168 -5.1317 0
M  V30 16509 H 1510.76 -1.23644 -3.571 0
M  V30 16510 H 1511.07 -3.11108 -7.07412 0
M  V30 16511 H 1509.41 -2.79152 -6.36474 0
M  V30 16512 H 1512.6 -1.61093 -4.39507 0
M  V30 16513 H 1512.78 -2.46557 -5.99261 0
M  V30 16514 N 1506.18 1.52647 -0.392018 0
M  V30 16515 C 1507.13 2.28073 0.456674 0
M  V30 16516 C 1508.13 1.3208 1.06071 0
M  V30 16517 O 1509.33 1.49608 1.00088 0
M  V30 16518 H 1505.71 0.733443 0.166029 0
M  V30 16519 H 1507.68 2.97723 -0.200916 0
M  V30 16520 C 1506.43 3.10216 1.5704 0
M  V30 16521 H 1505.75 3.83939 1.11493 0
M  V30 16522 H 1507.19 3.66126 2.1384 0
M  V30 16523 C 1505.65 2.22698 2.52799 0
M  V30 16524 O 1506.18 1.8556 3.56273 0
M  V30 16525 N 1504.38 1.86804 2.22604 0
M  V30 16526 H 1503.93 2.17204 1.38492 0
M  V30 16527 H 1503.89 1.28538 2.86924 0
M  V30 16528 N 1507.66 0.121921 1.57128 0
M  V30 16529 C 1508.91 -0.536164 1.95584 0
M  V30 16530 C 1509.24 -1.66143 1.0055 0
M  V30 16531 O 1508.52 -1.94452 0.0432427 0
M  V30 16532 C 1508.8 -1.0661 3.43957 0
M  V30 16533 C 1508.65 0.0559458 4.49765 0
M  V30 16534 C 1509.97 -1.95603 3.94243 0
M  V30 16535 H 1507.09 -0.193427 0.711165 0
M  V30 16536 H 1509.73 0.198072 1.88965 0
M  V30 16537 H 1507.88 -1.69181 3.49729 0
M  V30 16538 H 1509.55 0.691357 4.5609 0
M  V30 16539 H 1507.8 0.71868 4.27805 0
M  V30 16540 H 1508.47 -0.356133 5.5085 0
M  V30 16541 H 1510.94 -1.42899 3.90793 0
M  V30 16542 H 1509.82 -2.29599 4.98573 0
M  V30 16543 H 1510.08 -2.88364 3.3511 0
M  V30 16544 N 1509.14 -1.56867 -0.151857 0
M  V30 16545 C 1510.39 -1.83353 -0.866566 0
M  V30 16546 C 1510.72 -0.702784 -1.81038 0
M  V30 16547 O 1509.99 0.293944 -1.92266 0
M  V30 16548 C 1510.28 -3.20316 -1.64529 0
M  V30 16549 C 1510.13 -4.43946 -0.723297 0
M  V30 16550 C 1511.45 -3.54441 -2.60882 0
M  V30 16551 H 1508.57 -0.666957 -0.313588 0
M  V30 16552 H 1511.21 -1.89541 -0.131954 0
M  V30 16553 H 1509.36 -3.15172 -2.27154 0
M  V30 16554 H 1511.03 -4.61173 -0.10842 0
M  V30 16555 H 1509.28 -4.33788 -0.0325582 0
M  V30 16556 H 1509.95 -5.36374 -1.3041 0
M  V30 16557 H 1512.42 -3.60164 -2.08377 0
M  V30 16558 H 1511.3 -4.51314 -3.12422 0
M  V30 16559 H 1511.56 -2.80146 -3.42009 0
M  V30 16560 N 1510.62 0.421051 -1.51871 0
M  V30 16561 C 1511.55 1.51928 -1.77313 0
M  V30 16562 C 1512.53 1.58258 -0.623579 0
M  V30 16563 O 1513.71 1.73724 -0.867967 0
M  V30 16564 C 1510.84 2.89865 -1.913 0
M  V30 16565 C 1509.8 2.98391 -3.06834 0
M  V30 16566 C 1509.12 4.38466 -3.06026 0
M  V30 16567 C 1510.42 2.7097 -4.46511 0
M  V30 16568 H 1512.12 1.30889 -2.69274 0
M  V30 16569 H 1509.66 0.628229 -1.29573 0
M  V30 16570 H 1511.62 3.66669 -2.07682 0
M  V30 16571 H 1510.34 3.12172 -0.960011 0
M  V30 16572 H 1509 2.24029 -2.90184 0
M  V30 16573 H 1508.65 4.57764 -2.08472 0
M  V30 16574 H 1508.35 4.45097 -3.83618 0
M  V30 16575 H 1509.87 5.17221 -3.24522 0
M  V30 16576 H 1511.29 3.37501 -4.63428 0
M  V30 16577 H 1509.68 2.88992 -5.25931 0
M  V30 16578 H 1510.75 1.66476 -4.55427 0
M  V30 16579 N 1512.1 1.42293 0.677538 0
M  V30 16580 C 1513.32 1.46008 1.46592 0
M  V30 16581 C 1513.74 0.0706015 1.88668 0
M  V30 16582 O 1513.1 -0.914076 1.57959 0
M  V30 16583 C 1513.15 2.38477 2.71682 0
M  V30 16584 O 1512.87 3.72019 2.31372 0
M  V30 16585 C 1514.37 2.51185 3.65269 0
M  V30 16586 H 1511.59 0.49669 0.451154 0
M  V30 16587 H 1514.13 1.86777 0.832736 0
M  V30 16588 H 1512.29 2.00969 3.31195 0
M  V30 16589 H 1512.7 4.21514 3.12131 0
M  V30 16590 H 1514.18 3.20014 4.49772 0
M  V30 16591 H 1514.65 1.54885 4.10983 0
M  V30 16592 H 1515.26 2.89404 3.1165 0
M  V30 16593 N 1513.57 -0.913576 1.28419 0
M  V30 16594 C 1514.48 -2.04922 1.14211 0
M  V30 16595 C 1515.5 -1.73865 0.0686424 0
M  V30 16596 O 1516.68 -1.99473 0.277968 0
M  V30 16597 C 1513.74 -3.37214 0.805445 0
M  V30 16598 C 1512.8 -3.81879 1.96129 0
M  V30 16599 C 1512.04 -5.07858 1.6406 0
M  V30 16600 O 1512.26 -5.67693 0.555032 0
M  V30 16601 O 1511.19 -5.4824 2.48428 0
M  V30 16602 H 1515.02 -2.19827 2.09547 0
M  V30 16603 H 1512.6 -1.03501 1.0774 0
M  V30 16604 H 1514.49 -4.16639 0.631648 0
M  V30 16605 H 1513.16 -3.23484 -0.118254 0
M  V30 16606 H 1512.07 -3.03281 2.19024 0
M  V30 16607 H 1513.4 -4.00173 2.8657 0
M  V30 16608 N 1515.05 -1.1067 -1.12204 0
M  V30 16609 C 1516 -0.752659 -2.20086 0
M  V30 16610 C 1516.99 0.252284 -1.67511 0
M  V30 16611 O 1518.2 0.112398 -1.79649 0
M  V30 16612 H 1514.58 -0.225473 -0.717402 0
M  V30 16613 H 1516.55 -1.67136 -2.472 0
M  V30 16614 C 1515.3 -0.203345 -3.47105 0
M  V30 16615 H 1514.62 -0.967864 -3.87908 0
M  V30 16616 H 1516.06 0.00629123 -4.24 0
M  V30 16617 C 1514.52 1.06452 -3.1964 0
M  V30 16618 O 1515.05 2.14562 -3.39597 0
M  V30 16619 N 1513.25 0.984122 -2.73429 0
M  V30 16620 H 1512.8 0.104258 -2.57389 0
M  V30 16621 H 1512.76 1.83312 -2.55429 0
M  V30 16622 N 1516.53 1.29665 -0.895815 0
M  V30 16623 C 1517.81 1.90601 -0.439394 0
M  V30 16624 C 1518.19 1.81341 1.08068 0
M  V30 16625 O 1517.54 1.23761 1.92082 0
M  V30 16626 C 1517.75 3.35832 -0.949622 0
M  V30 16627 C 1519.09 4.12873 -0.991015 0
M  V30 16628 O 1520.12 3.4472 -0.897025 0
M  V30 16629 O 1518.98 5.34656 -1.1316 0
M  V30 16630 H 1516.07 0.81569 -0.136304 0
M  V30 16631 H 1518.62 1.38157 -0.985426 0
M  V30 16632 H 1517.39 3.36708 -1.99357 0
M  V30 16633 H 1517.01 3.95747 -0.383376 0
M  V30 16634 N 1518.01 0.657889 1.43212 0
M  V30 16635 C 1519.23 0.179444 2.06622 0
M  V30 16636 C 1519.66 -1.14787 1.49015 0
M  V30 16637 O 1519.02 -1.71016 0.60192 0
M  V30 16638 C 1519.06 0.106826 3.60442 0
M  V30 16639 O 1518.17 -0.92962 4.01786 0
M  V30 16640 H 1517.51 0.0970131 0.656875 0
M  V30 16641 H 1520.04 0.902132 1.83638 0
M  V30 16642 H 1520.05 -0.07495 4.07931 0
M  V30 16643 H 1518.72 1.07574 4.01747 0
M  V30 16644 H 1517.3 -0.720255 3.65878 0
M  V30 16645 N 1519.49 -1.52437 0.400108 0
M  V30 16646 C 1520.9 -1.5952 0.0505611 0
M  V30 16647 C 1521.1 -1.4135 -1.43606 0
M  V30 16648 O 1520.16 -1.23591 -2.20185 0
M  V30 16649 C 1521.47 -2.95859 0.537411 0
M  V30 16650 C 1523.02 -3.09067 0.494603 0
M  V30 16651 C 1523.49 -4.47873 0.957815 0
M  V30 16652 N 1524.99 -4.54087 0.914267 0
M  V30 16653 C 1525.72 -5.59744 1.24397 0
M  V30 16654 N 1525.22 -6.72995 1.64469 0
M  V30 16655 N 1527.01 -5.49905 1.16452 0
M  V30 16656 H 1519.16 -1.62496 1.36781 0
M  V30 16657 H 1521.42 -0.763947 0.561328 0
M  V30 16658 H 1521.13 -3.14407 1.57611 0
M  V30 16659 H 1521 -3.77156 -0.0577652 0
M  V30 16660 H 1523.39 -2.90209 -0.535035 0
M  V30 16661 H 1523.47 -2.29698 1.12572 0
M  V30 16662 H 1523.12 -4.67473 1.98574 0
M  V30 16663 H 1523.05 -5.25724 0.303602 0
M  V30 16664 H 1525.54 -3.72787 0.619536 0
M  V30 16665 H 1525.85 -7.49594 1.87961 0
M  V30 16666 H 1524.19 -6.74298 1.68364 0
M  V30 16667 H 1527.39 -4.60311 0.850401 0
M  V30 16668 H 1527.56 -6.32142 1.42478 0
M  V30 16669 N 1520.96 -0.130252 -1.57061 0
M  V30 16670 C 1522.19 0.531644 -1.99642 0
M  V30 16671 C 1522.6 1.60045 -1.00907 0
M  V30 16672 O 1521.95 1.83699 0.00452296 0
M  V30 16673 C 1522.01 1.20654 -3.38649 0
M  V30 16674 C 1521.67 0.284337 -4.56115 0
M  V30 16675 C 1522.67 -0.481472 -5.17666 0
M  V30 16676 C 1520.35 0.192125 -5.01932 0
M  V30 16677 C 1522.35 -1.32711 -6.23431 0
M  V30 16678 C 1520.03 -0.657135 -6.07557 0
M  V30 16679 C 1521.03 -1.41537 -6.68174 0
M  V30 16680 O 1520.72 -2.25051 -7.71756 0
M  V30 16681 H 1520.45 0.144394 -0.660399 0
M  V30 16682 H 1523.01 -0.216789 -2.04253 0
M  V30 16683 H 1521.24 2.00227 -3.30826 0
M  V30 16684 H 1522.93 1.76647 -3.65446 0
M  V30 16685 H 1523.69 -0.420169 -4.83177 0
M  V30 16686 H 1519.57 0.772017 -4.5449 0
M  V30 16687 H 1523.11 -1.91942 -6.70674 0
M  V30 16688 H 1519.01 -0.719791 -6.41474 0
M  V30 16689 H 1519.78 -2.18116 -7.88903 0
M  V30 16690 N 1522.44 1.56945 0.143535 0
M  V30 16691 C 1523.39 1.99479 1.19628 0
M  V30 16692 C 1524.39 0.887733 1.44276 0
M  V30 16693 O 1525.59 1.07292 1.44528 0
M  V30 16694 H 1521.97 0.635049 0.402761 0
M  V30 16695 H 1523.94 2.87171 0.810877 0
M  V30 16696 C 1522.69 2.39436 2.52123 0
M  V30 16697 H 1522.01 3.24176 2.33987 0
M  V30 16698 H 1523.45 2.73017 3.24404 0
M  V30 16699 C 1521.91 1.24836 3.12918 0
M  V30 16700 O 1522.44 0.550973 3.97903 0
M  V30 16701 N 1520.64 1.01172 2.7242 0
M  V30 16702 H 1520.19 1.5806 2.03408 0
M  V30 16703 H 1520.15 0.246846 3.13429 0
M  V30 16704 N 1523.92 -0.412991 1.52093 0
M  V30 16705 C 1524.87 -1.52347 1.75765 0
M  V30 16706 C 1525.86 -1.57463 0.624641 0
M  V30 16707 O 1527.07 -1.60916 0.806599 0
M  V30 16708 H 1523.44 -0.50659 0.555761 0
M  V30 16709 H 1525.42 -1.29564 2.68804 0
M  V30 16710 C 1524.16 -2.89757 1.92188 0
M  V30 16711 H 1523.49 -2.86561 2.78788 0
M  V30 16712 H 1524.93 -3.66759 2.12753 0
M  V30 16713 C 1523.39 -3.29801 0.687963 0
M  V30 16714 O 1523.92 -4.01435 -0.145984 0
M  V30 16715 N 1522.12 -2.85819 0.524978 0
M  V30 16716 H 1521.67 -2.27694 1.20471 0
M  V30 16717 H 1521.63 -3.12972 -0.299325 0
M  V30 16718 N 1525.4 -1.4265 -0.669982 0
M  V30 16719 C 1526.33 -1.4094 -1.79475 0
M  V30 16720 C 1527.31 -0.273018 -1.60292 0
M  V30 16721 O 1528.49 -0.463994 -1.827 0
M  V30 16722 C 1525.62 -1.20489 -3.16544 0
M  V30 16723 C 1524.67 -2.37184 -3.54466 0
M  V30 16724 S 1525.5 -3.99722 -3.56346 0
M  V30 16725 C 1526.66 -3.81624 -4.96099 0
M  V30 16726 H 1526.89 -2.36119 -1.80652 0
M  V30 16727 H 1524.42 -1.2948 -0.841092 0
M  V30 16728 H 1526.38 -1.09377 -3.9566 0
M  V30 16729 H 1525.04 -0.268876 -3.12947 0
M  V30 16730 H 1524.23 -2.18636 -4.54108 0
M  V30 16731 H 1523.84 -2.44836 -2.82722 0
M  V30 16732 H 1526.13 -3.42912 -5.8431 0
M  V30 16733 H 1527.07 -4.8096 -5.19696 0
M  V30 16734 H 1527.48 -3.14397 -4.68844 0
M  V30 16735 N 1526.88 0.906753 -1.28902 0
M  V30 16736 C 1528.11 1.68774 -1.1916 0
M  V30 16737 C 1528.52 1.87523 0.251339 0
M  V30 16738 O 1527.86 1.4071 1.18095 0
M  V30 16739 C 1527.92 3.09676 -1.82596 0
M  V30 16740 C 1527.58 3.14185 -3.31869 0
M  V30 16741 C 1528.58 2.94858 -4.282 0
M  V30 16742 C 1526.27 3.36476 -3.72947 0
M  V30 16743 C 1528.26 2.97744 -5.63584 0
M  V30 16744 C 1525.95 3.38993 -5.08456 0
M  V30 16745 C 1526.95 3.19648 -6.03584 0
M  V30 16746 O 1526.63 3.2194 -7.3662 0
M  V30 16747 H 1526.37 0.534133 -0.41434 0
M  V30 16748 H 1528.92 1.14282 -1.70671 0
M  V30 16749 H 1527.15 3.65739 -1.25587 0
M  V30 16750 H 1528.84 3.6983 -1.67273 0
M  V30 16751 H 1529.6 2.77456 -3.97798 0
M  V30 16752 H 1525.48 3.50576 -2.99362 0
M  V30 16753 H 1529.03 2.82563 -6.37812 0
M  V30 16754 H 1524.92 3.55924 -5.38506 0
M  V30 16755 H 1525.69 3.38255 -7.45336 0
M  V30 16756 N 1528.36 1.11264 1.11616 0
M  V30 16757 C 1529.6 0.861639 1.83585 0
M  V30 16758 C 1529.93 -0.611221 1.8433 0
M  V30 16759 O 1529.21 -1.45116 1.29505 0
M  V30 16760 C 1529.49 1.42157 3.30852 0
M  V30 16761 C 1529.35 2.96192 3.38512 0
M  V30 16762 C 1530.66 1.07099 4.2687 0
M  V30 16763 H 1527.78 0.314464 0.666545 0
M  V30 16764 H 1530.43 1.37722 1.30892 0
M  V30 16765 H 1528.58 0.983054 3.75857 0
M  V30 16766 H 1530.25 3.48634 3.0208 0
M  V30 16767 H 1528.49 3.32353 2.7879 0
M  V30 16768 H 1529.16 3.30457 4.42156 0
M  V30 16769 H 1531.64 1.44952 3.90036 0
M  V30 16770 H 1530.51 1.48957 5.28302 0
M  V30 16771 H 1530.77 -0.018482 4.42096 0
M  V30 16772 N 1529.83 -1.29188 0.902679 0
M  V30 16773 C 1531.11 -1.90365 0.449496 0
M  V30 16774 C 1531.49 -1.81911 -1.07105 0
M  V30 16775 O 1530.84 -1.24778 -1.91423 0
M  V30 16776 C 1531.05 -3.35324 0.967418 0
M  V30 16777 C 1532.4 -4.12342 1.0129 0
M  V30 16778 O 1533.42 -3.44239 0.915293 0
M  V30 16779 O 1532.28 -5.34048 1.15994 0
M  V30 16780 H 1529.37 -0.814956 0.140628 0
M  V30 16781 H 1531.92 -1.37633 0.992739 0
M  V30 16782 H 1530.69 -3.35646 2.0114 0
M  V30 16783 H 1530.31 -3.95539 0.404358 0
M  V30 16784 N 1531.31 -0.665475 -1.42861 0
M  V30 16785 C 1532.54 -0.190399 -2.06524 0
M  V30 16786 C 1532.96 1.13995 -1.49622 0
M  V30 16787 O 1532.32 1.70695 -0.610981 0
M  V30 16788 C 1532.37 -0.12594 -3.6038 0
M  V30 16789 O 1531.47 0.908299 -4.02273 0
M  V30 16790 H 1530.81 -0.100495 -0.656351 0
M  V30 16791 H 1533.34 -0.911858 -1.83156 0
M  V30 16792 H 1533.35 0.0533153 -4.07965 0
M  V30 16793 H 1532.03 -1.09703 -4.01171 0
M  V30 16794 H 1530.6 0.700841 -3.66255 0
M  V30 16795 N 1532.79 1.52222 -0.408187 0
M  V30 16796 C 1534.04 2.00989 0.169252 0
M  V30 16797 C 1534.35 1.29824 1.46305 0
M  V30 16798 O 1535.56 1.69402 2.12168 0
M  V30 16799 C 1534.01 3.58173 0.352179 0
M  V30 16800 C 1533.62 4.38252 -0.929468 0
M  V30 16801 C 1535.37 4.15173 0.88496 0
M  V30 16802 C 1533.27 5.87077 -0.713781 0
M  V30 16803 H 1532.2 0.751015 0.0670261 0
M  V30 16804 H 1534.85 1.75574 -0.533487 0
M  V30 16805 H 1533.24 3.79913 1.11723 0
M  V30 16806 H 1534.41 4.28272 -1.70059 0
M  V30 16807 H 1532.72 3.92565 -1.38859 0
M  V30 16808 H 1535.32 5.2404 1.06235 0
M  V30 16809 H 1535.66 3.72468 1.85938 0
M  V30 16810 H 1536.2 3.97397 0.178995 0
M  V30 16811 H 1532.94 6.3414 -1.65974 0
M  V30 16812 H 1532.46 5.99797 0.0180631 0
M  V30 16813 H 1534.14 6.46022 -0.355596 0
M  V30 16814 N 1534.27 0.138579 1.5699 0
M  V30 16815 C 1535.21 -0.804305 2.16332 0
M  V30 16816 C 1536.18 -1.25002 1.09379 0
M  V30 16817 O 1537.37 -1.32405 1.37381 0
M  V30 16818 C 1534.51 -2.04137 2.78248 0
M  V30 16819 C 1533.62 -1.64223 3.99568 0
M  V30 16820 C 1532.76 -2.83046 4.49509 0
M  V30 16821 C 1531.8 -2.39465 5.63314 0
M  V30 16822 N 1530.93 -3.51267 6.07911 0
M  V30 16823 H 1535.77 -0.29144 2.96571 0
M  V30 16824 H 1533.31 -0.132146 1.46505 0
M  V30 16825 H 1535.27 -2.76646 3.12286 0
M  V30 16826 H 1533.9 -2.52849 2.00667 0
M  V30 16827 H 1532.95 -0.815123 3.71564 0
M  V30 16828 H 1534.26 -1.2821 4.82041 0
M  V30 16829 H 1533.42 -3.63755 4.85559 0
M  V30 16830 H 1532.16 -3.22298 3.66026 0
M  V30 16831 H 1531.16 -1.57193 5.2685 0
M  V30 16832 H 1532.39 -2.01307 6.48577 0
M  V30 16833 H 1530.33 -3.90156 5.27365 0
M  V30 16834 H 1530.25 -3.19241 6.85289 0
M  V30 16835 H 1531.52 -4.32358 6.48604 0
M  V30 16836 N 1535.75 -1.57019 -0.13521 0
M  V30 16837 C 1536.68 -1.95769 -1.19193 0
M  V30 16838 C 1537.69 -0.854953 -1.38544 0
M  V30 16839 O 1538.88 -1.13332 -1.37906 0
M  V30 16840 C 1535.98 -2.22674 -2.55479 0
M  V30 16841 C 1535.15 -3.53972 -2.56949 0
M  V30 16842 C 1534.21 -3.69278 -3.7486 0
M  V30 16843 O 1533.24 -4.41555 -3.59191 0
M  V30 16844 N 1534.44 -3.06826 -4.92786 0
M  V30 16845 H 1537.2 -2.87022 -0.862451 0
M  V30 16846 H 1534.77 -1.58611 -0.324658 0
M  V30 16847 H 1536.76 -2.30144 -3.3289 0
M  V30 16848 H 1535.33 -1.37628 -2.80673 0
M  V30 16849 H 1534.55 -3.57836 -1.65368 0
M  V30 16850 H 1535.84 -4.40303 -2.54973 0
M  V30 16851 H 1535.23 -2.48043 -5.0842 0
M  V30 16852 H 1533.79 -3.19841 -5.67931 0
M  V30 16853 N 1537.22 0.404919 -1.52309 0
M  V30 16854 C 1538.45 1.17139 -1.70182 0
M  V30 16855 C 1538.86 1.84642 -0.412805 0
M  V30 16856 O 1538.21 1.72873 0.621347 0
M  V30 16857 C 1538.27 2.27402 -2.78439 0
M  V30 16858 C 1537.93 1.8 -4.20058 0
M  V30 16859 C 1538.93 1.28546 -5.03758 0
M  V30 16860 C 1536.61 1.86706 -4.66311 0
M  V30 16861 C 1538.61 0.84425 -6.31784 0
M  V30 16862 C 1536.29 1.42197 -5.94326 0
M  V30 16863 C 1537.29 0.911418 -6.76892 0
M  V30 16864 O 1536.98 0.472762 -8.02509 0
M  V30 16865 H 1536.71 0.357845 -0.573518 0
M  V30 16866 H 1539.27 0.481939 -1.99666 0
M  V30 16867 H 1537.5 2.99724 -2.44341 0
M  V30 16868 H 1539.19 2.89143 -2.8487 0
M  V30 16869 H 1539.95 1.22734 -4.69213 0
M  V30 16870 H 1535.83 2.25389 -4.02145 0
M  V30 16871 H 1539.37 0.445063 -6.96179 0
M  V30 16872 H 1535.27 1.47689 -6.28377 0
M  V30 16873 H 1536.04 0.595689 -8.16329 0
M  V30 16874 O 1538.74 1.51817 0.550815 0
M  V30 16875 H 1539.43 1.5158 1.20595 0
M  V30 END ATOM
M  V30 BEGIN BOND
M  V30 END BOND
M  V30 END CTAB
M  END
$$$$
