drugbank_target|Q9UM73 ALK tyrosine kinase receptor (DB00171; DB08865; DB09063; DB11363; DB12010; DB12130; DB12141; DB12267)
 OpenBabel12092119303D

  0  0  0     0  0            999 V3000
M  V30 BEGIN CTAB
M  V30 COUNTS 24605 24925 0 0 0
M  V30 BEGIN ATOM
M  V30 1 H -0.908 1.98254 -0.117106 0
M  V30 2 N 0 1.576 0 0
M  V30 3 C 0.933 2.03868 1.02534 0
M  V30 4 C 1.911 0.928543 1.3348 0
M  V30 5 O 3.095 1.19667 1.45644 0
M  V30 6 C 0.222 2.43627 2.35294 0
M  V30 7 C -0.732 3.65373 2.2001 0
M  V30 8 S 0.101 5.13292 1.52614 0
M  V30 9 C 1.257 5.56322 2.86805 0
M  V30 10 H 1.49 2.90518 0.631377 0
M  V30 11 H -0.977 1.52953 0.210867 0
M  V30 12 H 0.981 2.67203 3.11629 0
M  V30 13 H -0.358 1.57376 2.7183 0
M  V30 14 H -1.165 3.90944 3.18086 0
M  V30 15 H -1.563 3.418 1.51819 0
M  V30 16 H 0.729 5.58782 3.83104 0
M  V30 17 H 1.672 6.56266 2.65933 0
M  V30 18 H 2.08 4.83886 2.90714 0
M  V30 19 N 1.4781 -0.272755 1.55222 0
M  V30 20 C 2.7261 -1.00234 1.75492 0
M  V30 21 C 3.0471 -1.8681 0.5592 0
M  V30 22 O 2.3171 -1.91215 -0.425882 0
M  V30 23 H 0.8971 -0.373076 0.647166 0
M  V30 24 H 3.5591 -0.296926 1.92625 0
M  V30 25 H 2.6551 -1.63913 2.65592 0
M  V30 26 N 2.9562 -1.48159 -0.537278 0
M  V30 27 C 3.9192 -1.61665 -1.62472 0
M  V30 28 C 4.9192 -0.490395 -1.5314 0
M  V30 29 O 6.1092 -0.755998 -1.5694 0
M  V30 30 C 3.2412 -1.57997 -3.02076 0
M  V30 31 H 4.4342 -2.58621 -1.51839 0
M  V30 32 H 1.9872 -1.36647 -0.758771 0
M  V30 33 H 2.7222 -0.624913 -3.18222 0
M  V30 34 H 2.5072 -2.39755 -3.10258 0
M  V30 35 H 3.9972 -1.70627 -3.81151 0
M  V30 36 N 4.4343 0.785586 -1.36625 0
M  V30 37 C 5.6833 1.53883 -1.30396 0
M  V30 38 C 5.9963 1.95271 0.113452 0
M  V30 39 O 7.2023 2.69858 0.298142 0
M  V30 40 C 5.6583 2.77808 -2.28802 0
M  V30 41 C 5.2663 2.43574 -3.75999 0
M  V30 42 C 7.0103 3.55783 -2.31558 0
M  V30 43 C 4.9173 3.63919 -4.66173 0
M  V30 44 H 3.8473 0.577678 -0.484566 0
M  V30 45 H 6.4983 0.861705 -1.62009 0
M  V30 46 H 4.8803 3.47339 -1.90188 0
M  V30 47 H 6.0543 1.81916 -4.23371 0
M  V30 48 H 4.3693 1.78803 -3.76056 0
M  V30 49 H 6.9663 4.45205 -2.96137 0
M  V30 50 H 7.3093 3.94644 -1.3252 0
M  V30 51 H 7.8423 2.93235 -2.68809 0
M  V30 52 H 4.5813 3.3015 -5.66287 0
M  V30 53 H 4.1013 4.2473 -4.23515 0
M  V30 54 H 5.7803 4.30901 -4.82632 0
M  V30 55 N 5.9124 1.20967 1.01018 0
M  V30 56 C 7.1604 1.02172 1.74371 0
M  V30 57 C 7.4814 -0.446414 1.89821 0
M  V30 58 O 6.7514 -1.32234 1.44537 0
M  V30 59 H 5.3314 0.375066 0.646014 0
M  V30 60 H 7.9934 1.52187 1.21758 0
M  V30 61 H 7.0894 1.48538 2.74487 0
M  V30 62 N 7.3905 -1.2043 1.01659 0
M  V30 63 C 8.3205 -2.25466 0.607226 0
M  V30 64 C 9.3015 -1.65853 -0.377716 0
M  V30 65 O 10.4865 -1.92409 -0.263149 0
M  V30 66 C 7.6165 -3.47256 -0.0552949 0
M  V30 67 C 6.5705 -4.19462 0.850632 0
M  V30 68 C 5.8965 -5.34673 0.0538859 0
M  V30 69 C 7.1965 -4.75603 2.15868 0
M  V30 70 H 8.8905 -2.59962 1.48526 0
M  V30 71 H 6.4365 -1.2496 0.715605 0
M  V30 72 H 8.3895 -4.19917 -0.353233 0
M  V30 73 H 7.1135 -3.11924 -0.968045 0
M  V30 74 H 5.7725 -3.48667 1.13257 0
M  V30 75 H 5.4205 -4.95585 -0.860514 0
M  V30 76 H 5.1205 -5.83913 0.657192 0
M  V30 77 H 6.6445 -6.10138 -0.237598 0
M  V30 78 H 8.0585 -5.40083 1.92311 0
M  V30 79 H 6.4555 -5.3528 2.71284 0
M  V30 80 H 7.5255 -3.94346 2.82169 0
M  V30 81 N 8.8686 -0.792821 -1.36206 0
M  V30 82 C 9.7986 -0.207853 -2.32573 0
M  V30 83 C 10.7796 0.659055 -1.56813 0
M  V30 84 O 11.9646 0.592176 -1.84951 0
M  V30 85 C 9.0946 0.655449 -3.41059 0
M  V30 86 C 8.0486 -0.111842 -4.27854 0
M  V30 87 C 7.3746 0.872274 -5.27537 0
M  V30 88 C 8.6746 -1.30299 -5.05786 0
M  V30 89 H 10.3686 -1.01294 -2.81744 0
M  V30 90 H 7.9146 -0.48854 -1.3546 0
M  V30 91 H 9.8676 1.07464 -4.07467 0
M  V30 92 H 8.5916 1.49328 -2.90463 0
M  V30 93 H 7.2506 -0.512053 -3.63006 0
M  V30 94 H 6.8986 1.70523 -4.73214 0
M  V30 95 H 6.5986 0.363291 -5.86476 0
M  V30 96 H 8.1226 1.28996 -5.96818 0
M  V30 97 H 9.5366 -0.959379 -5.65216 0
M  V30 98 H 7.9336 -1.7455 -5.74154 0
M  V30 99 H 9.0036 -2.09663 -4.37229 0
M  V30 100 N 10.3467 1.47872 -0.545128 0
M  V30 101 C 11.5927 2.03385 -0.0247951 0
M  V30 102 C 11.9477 1.41325 1.30556 0
M  V30 103 O 11.2407 0.5552 1.8338 0
M  V30 104 C 11.4347 3.57131 0.13867 0
M  V30 105 C 11.2637 4.34097 -1.17429 0
M  V30 106 C 10.0337 4.74458 -1.73831 0
M  V30 107 C 12.2317 4.6998 -2.08861 0
M  V30 108 N 10.2137 5.3602 -2.99258 0
M  V30 109 C 11.5847 5.31719 -3.18866 0
M  V30 110 C 13.6397 4.5191 -2.09003 0
M  V30 111 C 12.3427 5.77295 -4.29096 0
M  V30 112 C 14.3687 4.98477 -3.18237 0
M  V30 113 C 13.7307 5.60253 -4.26961 0
M  V30 114 H 9.8297 0.780339 -0.050943 0
M  V30 115 H 12.4137 1.80507 -0.729753 0
M  V30 116 H 10.5847 3.79802 0.812733 0
M  V30 117 H 12.3167 3.99282 0.659976 0
M  V30 118 H 9.0717 4.56037 -1.2778 0
M  V30 119 H 9.4957 5.71355 -3.63157 0
M  V30 120 H 14.1377 4.03516 -1.26234 0
M  V30 121 H 11.8557 6.24687 -5.12633 0
M  V30 122 H 15.4417 4.86274 -3.1942 0
M  V30 123 H 14.3217 5.95631 -5.10091 0
M  V30 124 N 11.8248 0.280983 1.55075 0
M  V30 125 C 12.7548 -0.597469 2.25727 0
M  V30 126 C 13.7358 -1.15417 1.24952 0
M  V30 127 O 14.9208 -1.18722 1.53684 0
M  V30 128 C 12.0508 -1.7789 2.98283 0
M  V30 129 C 11.0048 -1.35347 4.06036 0
M  V30 130 C 10.3308 -2.61846 4.66198 0
M  V30 131 C 11.6308 -0.499354 5.19907 0
M  V30 132 H 13.3248 -0.00824265 2.99399 0
M  V30 133 H 10.8708 -0.0025244 1.44 0
M  V30 134 H 12.8238 -2.39937 3.46422 0
M  V30 135 H 11.5478 -2.39405 2.22155 0
M  V30 136 H 10.2068 -0.756156 3.58717 0
M  V30 137 H 9.8548 -3.21632 3.86732 0
M  V30 138 H 9.5548 -2.3409 5.38958 0
M  V30 139 H 11.0788 -3.24732 5.1709 0
M  V30 140 H 12.4928 -1.02498 5.64063 0
M  V30 141 H 10.8898 -0.316424 5.99265 0
M  V30 142 H 11.9598 0.480459 4.82514 0
M  V30 143 N 13.3029 -1.57598 0.00835791 0
M  V30 144 C 14.2329 -2.1198 -0.979113 0
M  V30 145 C 15.2139 -1.03091 -1.35301 0
M  V30 146 O 16.3989 -1.30818 -1.43528 0
M  V30 147 C 13.5289 -2.62995 -2.26828 0
M  V30 148 C 12.4829 -3.76485 -2.03576 0
M  V30 149 C 11.8089 -4.13846 -3.38579 0
M  V30 150 C 13.1089 -5.0342 -1.39161 0
M  V30 151 H 14.8029 -2.94738 -0.526281 0
M  V30 152 H 12.3489 -1.41783 -0.251704 0
M  V30 153 H 14.3019 -2.99669 -2.96271 0
M  V30 154 H 13.0259 -1.7737 -2.7424 0
M  V30 155 H 11.6849 -3.40217 -1.36557 0
M  V30 156 H 11.3329 -3.25232 -3.83709 0
M  V30 157 H 11.0329 -4.90312 -3.23834 0
M  V30 158 H 12.5569 -4.53086 -4.09323 0
M  V30 159 H 13.9709 -5.37812 -1.98573 0
M  V30 160 H 12.3679 -5.84746 -1.34878 0
M  V30 161 H 13.4379 -4.83548 -0.361868 0
M  V30 162 N 14.781 0.264519 -1.55364 0
M  V30 163 C 16.192 0.834936 -1.6699 0
M  V30 164 C 16.543 1.86718 -0.602552 0
M  V30 165 O 15.668 2.14899 0.254425 0
M  V30 166 C 16.263 1.5212 -3.02729 0
M  V30 167 C 14.822 2.03954 -3.16354 0
M  V30 168 C 13.969 0.884498 -2.62815 0
M  V30 169 H 16.92 0.0406869 -1.58648 0
M  V30 170 H 16.941 2.38853 -2.96191 0
M  V30 171 H 16.453 0.769668 -3.80392 0
M  V30 172 H 14.554 2.82041 -2.43482 0
M  V30 173 H 14.667 2.24902 -4.23032 0
M  V30 174 H 13.031 1.2802 -2.20188 0
M  V30 175 H 13.814 0.14634 -3.42988 0
M  V30 176 N 16.2591 1.48442 0.529413 0
M  V30 177 C 17.1891 1.65902 1.64313 0
M  V30 178 C 18.1701 0.507897 1.6234 0
M  V30 179 O 19.3551 0.740503 1.79528 0
M  V30 180 C 16.4851 1.69911 3.02898 0
M  V30 181 C 15.4391 2.8453 3.19729 0
M  V30 182 C 14.7651 2.73629 4.59381 0
M  V30 183 C 16.0651 4.25821 3.02447 0
M  V30 184 H 17.7591 2.5914 1.49955 0
M  V30 185 H 15.3051 1.24709 0.719982 0
M  V30 186 H 17.2581 1.80715 3.80684 0
M  V30 187 H 15.9821 0.732524 3.18279 0
M  V30 188 H 14.6411 2.73283 2.44361 0
M  V30 189 H 14.2891 1.74938 4.71599 0
M  V30 190 H 13.9891 3.50541 4.71588 0
M  V30 191 H 15.5131 2.86401 5.39265 0
M  V30 192 H 16.9271 4.37898 3.70024 0
M  V30 193 H 15.3241 5.03735 3.26146 0
M  V30 194 H 16.3941 4.42244 1.98867 0
M  V30 195 N 17.7372 -0.778329 1.37039 0
M  V30 196 C 18.6672 -1.90546 1.34962 0
M  V30 197 C 19.6482 -1.68681 0.219274 0
M  V30 198 O 20.8332 -1.89634 0.418624 0
M  V30 199 C 17.9632 -3.27734 1.14925 0
M  V30 200 C 16.9172 -3.64147 2.24902 0
M  V30 201 C 16.2432 -4.99806 1.89996 0
M  V30 202 C 17.5432 -3.71579 3.67051 0
M  V30 203 H 19.2372 -1.92541 2.29277 0
M  V30 204 H 16.7832 -0.924948 1.10366 0
M  V30 205 H 18.7362 -4.06215 1.12104 0
M  V30 206 H 17.4602 -3.26154 0.170631 0
M  V30 207 H 16.1192 -2.8797 2.26868 0
M  V30 208 H 15.7672 -4.94759 0.906796 0
M  V30 209 H 15.4672 -5.25139 2.63634 0
M  V30 210 H 16.9912 -5.80694 1.88749 0
M  V30 211 H 18.4052 -4.40227 3.67251 0
M  V30 212 H 16.8022 -4.08405 4.39688 0
M  V30 213 H 17.8722 -2.72404 4.01154 0
M  V30 214 N 19.2153 -1.21501 -1.00376 0
M  V30 215 C 20.1453 -0.999478 -2.11028 0
M  V30 216 C 21.1263 0.0759671 -1.6993 0
M  V30 217 O 22.3113 -0.0841106 -1.94018 0
M  V30 218 C 19.4413 -0.564709 -3.42678 0
M  V30 219 C 18.3953 -1.58486 -3.97576 0
M  V30 220 C 17.7213 -1.00628 -5.25146 0
M  V30 221 C 19.0213 -2.97204 -4.29496 0
M  V30 222 H 20.7153 -1.92495 -2.29317 0
M  V30 223 H 18.2613 -0.92693 -1.102 0
M  V30 224 H 20.2143 -0.401091 -4.19487 0
M  V30 225 H 18.9383 0.396411 -3.24185 0
M  V30 226 H 17.5973 -1.73606 -3.22888 0
M  V30 227 H 17.2453 -0.0368439 -5.02987 0
M  V30 228 H 16.9453 -1.68771 -5.62841 0
M  V30 229 H 18.4693 -0.854015 -6.04598 0
M  V30 230 H 19.8833 -2.8552 -4.97143 0
M  V30 231 H 18.2803 -3.62372 -4.78338 0
M  V30 232 H 19.3503 -3.47956 -3.3772 0
M  V30 233 N 20.6934 1.19889 -1.02296 0
M  V30 234 C 21.9184 1.9393 -0.735237 0
M  V30 235 C 22.3434 1.74639 0.698782 0
M  V30 236 O 21.7014 1.04481 1.48167 0
M  V30 237 C 21.7494 3.43916 -1.08417 0
M  V30 238 O 20.8534 4.11917 -0.199446 0
M  V30 239 H 20.1944 0.605645 -0.272196 0
M  V30 240 H 22.7244 1.52137 -1.36804 0
M  V30 241 H 22.7344 3.9456 -1.03856 0
M  V30 242 H 21.4094 3.5728 -2.12894 0
M  V30 243 H 19.9864 3.71666 -0.303136 0
M  V30 244 N 22.1715 0.800033 1.35784 0
M  V30 245 C 23.3995 0.389606 2.03199 0
M  V30 246 C 23.8145 -0.997375 1.60306 0
M  V30 247 O 23.1715 -1.64154 0.797481 0
M  V30 248 C 23.2225 0.455855 3.58614 0
M  V30 249 O 22.9435 1.78815 3.99946 0
M  V30 250 C 24.4445 0.0374032 4.43284 0
M  V30 251 H 21.6645 0.159132 0.651857 0
M  V30 252 H 24.2085 1.08183 1.73541 0
M  V30 253 H 22.3635 -0.188057 3.86943 0
M  V30 254 H 22.7775 1.74636 4.94573 0
M  V30 255 H 24.2515 0.134882 5.51835 0
M  V30 256 H 24.7285 -1.01651 4.27275 0
M  V30 257 H 25.3345 0.654215 4.20238 0
M  V30 258 N 23.6496 -1.47581 0.552962 0
M  V30 259 C 24.6126 -2.28439 -0.186605 0
M  V30 260 C 25.6126 -1.36706 -0.84665 0
M  V30 261 O 26.8026 -1.59378 -0.703164 0
M  V30 262 C 23.9346 -3.16264 -1.2724 0
M  V30 263 H 25.1276 -2.95294 0.523609 0
M  V30 264 H 22.6806 -1.532 0.309745 0
M  V30 265 H 23.4156 -2.54091 -2.01514 0
M  V30 266 H 23.2006 -3.83769 -0.803968 0
M  V30 267 H 24.6906 -3.77198 -1.79196 0
M  V30 268 N 25.1277 -0.289203 -1.54924 0
M  V30 269 C 26.0907 0.579144 -2.21762 0
M  V30 270 C 27.0907 1.07047 -1.1999 0
M  V30 271 O 28.2807 0.968384 -1.44803 0
M  V30 272 C 25.4127 1.80055 -2.8947 0
M  V30 273 H 26.6057 -0.00464908 -2.999 0
M  V30 274 H 24.1587 -0.0399306 -1.56249 0
M  V30 275 H 24.8937 2.42449 -2.15381 0
M  V30 276 H 24.6787 1.45602 -3.64064 0
M  V30 277 H 26.1687 2.41773 -3.40493 0
M  V30 278 N 26.6058 1.57591 -0.0167156 0
M  V30 279 C 27.8518 1.91567 0.665582 0
M  V30 280 C 28.1848 0.892298 1.72487 0
M  V30 281 O 27.4598 -0.0867127 1.94307 0
M  V30 282 C 27.7428 3.36069 1.29342 0
M  V30 283 C 27.5958 4.49135 0.244541 0
M  V30 284 C 28.9148 3.803 2.21495 0
M  V30 285 H 26.0338 0.69666 0.240488 0
M  V30 286 H 28.6758 1.89866 -0.0714356 0
M  V30 287 H 26.8258 3.3765 1.92158 0
M  V30 288 H 28.4978 4.59689 -0.385228 0
M  V30 289 H 26.7408 4.3165 -0.431379 0
M  V30 290 H 27.4118 5.47242 0.723207 0
M  V30 291 H 29.8878 3.80377 1.68678 0
M  V30 292 H 28.7638 4.82127 2.62382 0
M  V30 293 H 29.0248 3.15104 3.101 0
M  V30 294 N 28.0839 -0.256276 1.55502 0
M  V30 295 C 29.3319 -0.983672 1.76545 0
M  V30 296 C 29.6529 -1.86206 0.578982 0
M  V30 297 O 28.9229 -1.91656 -0.405577 0
M  V30 298 H 27.5029 -0.366191 0.651086 0
M  V30 299 H 30.1649 -0.276479 1.92929 0
M  V30 300 H 29.2609 -1.61087 2.67315 0
M  V30 301 N 29.562 -1.4872 -0.521534 0
M  V30 302 C 30.787 -1.61101 -1.30618 0
M  V30 303 C 31.212 -0.274611 -1.86085 0
M  V30 304 O 30.57 0.754937 -1.64834 0
M  V30 305 C 30.618 -2.66709 -2.4269 0
M  V30 306 O 29.722 -2.24456 -3.45967 0
M  V30 307 H 29.063 -0.539921 -0.386499 0
M  V30 308 H 31.593 -1.94767 -0.626645 0
M  V30 309 H 31.603 -2.88245 -2.88754 0
M  V30 310 H 30.278 -3.63727 -2.01682 0
M  V30 311 H 28.855 -2.13168 -3.05964 0
M  V30 312 N 31.0401 0.771051 -1.3745 0
M  V30 313 C 32.2881 1.52661 -1.32435 0
M  V30 314 C 32.6091 1.9479 0.0905024 0
M  V30 315 O 31.8791 1.66348 1.03466 0
M  V30 316 H 30.4591 0.566218 -0.487244 0
M  V30 317 H 33.1211 0.917636 -1.71946 0
M  V30 318 H 32.2171 2.42568 -1.96385 0
M  V30 319 N 32.5182 1.22032 0.997298 0
M  V30 320 C 33.4512 0.929735 2.08401 0
M  V30 321 C 34.4292 -0.125681 1.62114 0
M  V30 322 O 35.6132 0.00495409 1.88499 0
M  V30 323 C 32.7402 0.397488 3.3636 0
M  V30 324 C 31.7862 1.4369 4.01566 0
M  V30 325 S 32.6192 3.00874 4.42984 0
M  V30 326 C 33.7752 2.49276 5.74119 0
M  V30 327 H 34.0082 1.84998 2.32729 0
M  V30 328 H 31.5412 1.0509 1.13117 0
M  V30 329 H 33.4992 0.0969846 4.10385 0
M  V30 330 H 32.1602 -0.501571 3.10069 0
M  V30 331 H 31.3532 1.01427 4.93689 0
M  V30 332 H 30.9552 1.68588 3.33847 0
M  V30 333 H 33.2472 1.90242 6.50242 0
M  V30 334 H 34.1902 3.39872 6.21203 0
M  V30 335 H 34.5982 1.90714 5.31308 0
M  V30 336 N 33.9963 -1.19345 1.0293 0
M  V30 337 C 35.2443 -1.88665 0.724574 0
M  V30 338 C 35.5653 -1.80036 -0.749144 0
M  V30 339 O 34.8353 -1.2111 -1.53978 0
M  V30 340 H 33.4153 -0.698406 0.265025 0
M  V30 341 H 36.0773 -1.44885 1.30362 0
M  V30 342 H 35.1733 -2.94987 1.01926 0
M  V30 343 N 35.4744 -0.807222 -1.35358 0
M  V30 344 C 36.7024 -0.400377 -2.02989 0
M  V30 345 C 37.1174 0.988859 -1.60832 0
M  V30 346 O 36.4744 1.63729 -0.806175 0
M  V30 347 C 36.5254 -0.474867 -3.58368 0
M  V30 348 O 36.2464 -1.80933 -3.98992 0
M  V30 349 C 37.7474 -0.0609112 -4.43258 0
M  V30 350 H 34.9674 -0.162587 -0.651004 0
M  V30 351 H 37.5114 -1.09102 -1.72965 0
M  V30 352 H 35.6664 0.167534 -3.87038 0
M  V30 353 H 36.0804 -1.77256 -4.9364 0
M  V30 354 H 37.5544 -0.164145 -5.51756 0
M  V30 355 H 38.0314 0.993831 -4.27808 0
M  V30 356 H 38.6374 -0.676492 -4.19885 0
M  V30 357 N 36.9525 1.47285 -0.560781 0
M  V30 358 C 38.2005 2.02064 -0.0379868 0
M  V30 359 C 38.5215 1.43711 1.31803 0
M  V30 360 O 37.7915 0.61362 1.86042 0
M  V30 361 H 36.3715 0.746918 -0.0110531 0
M  V30 362 H 39.0335 1.80648 -0.731598 0
M  V30 363 H 38.1295 3.12064 0.0474463 0
M  V30 364 N 38.4306 0.297415 1.54768 0
M  V30 365 C 39.3626 -0.613881 2.20826 0
M  V30 366 C 40.3756 -1.10032 1.19987 0
M  V30 367 O 41.5646 -1.01839 1.46598 0
M  V30 368 C 38.6646 -1.852 2.83821 0
M  V30 369 C 37.8376 -1.50865 4.10559 0
M  V30 370 C 36.8966 -2.60154 4.57391 0
M  V30 371 O 35.9226 -2.25398 5.2267 0
M  V30 372 N 37.1246 -3.90629 4.29406 0
M  V30 373 H 39.8896 -0.048389 2.99661 0
M  V30 374 H 37.4506 0.11946 1.61459 0
M  V30 375 H 39.4426 -2.57652 3.12086 0
M  V30 376 H 38.0126 -2.32597 2.08847 0
M  V30 377 H 37.2326 -0.616925 3.89343 0
M  V30 378 H 38.5206 -1.25458 4.9309 0
M  V30 379 H 37.9186 -4.21677 3.77101 0
M  V30 380 H 36.4756 -4.59391 4.62388 0
M  V30 381 N 39.9087 -1.5758 0.0250728 0
M  V30 382 C 41.3247 -1.56124 -0.331282 0
M  V30 383 C 41.5247 -1.03029 -1.73169 0
M  V30 384 O 40.5807 -0.675215 -2.43305 0
M  V30 385 C 41.8937 -3.00139 -0.183584 0
M  V30 386 C 43.4417 -3.11946 -0.256654 0
M  V30 387 C 43.9167 -4.57793 -0.137792 0
M  V30 388 N 45.4077 -4.6279 -0.194904 0
M  V30 389 C 46.1427 -5.7326 -0.126655 0
M  V30 390 N 45.6387 -6.928 -0.00755288 0
M  V30 391 N 47.4317 -5.61811 -0.180348 0
M  V30 392 H 39.5827 -1.90424 0.94087 0
M  V30 393 H 41.8457 -0.875761 0.362968 0
M  V30 394 H 41.5517 -3.4292 0.780927 0
M  V30 395 H 41.4257 -3.64899 -0.955448 0
M  V30 396 H 43.8127 -2.69079 -1.21162 0
M  V30 397 H 43.8937 -2.49915 0.545517 0
M  V30 398 H 43.5377 -5.01339 0.813739 0
M  V30 399 H 43.4677 -5.17798 -0.958775 0
M  V30 400 H 45.9587 -3.76807 -0.287267 0
M  V30 401 H 46.2717 -7.72791 0.0379428 0
M  V30 402 H 44.6167 -6.94995 0.0271731 0
M  V30 403 H 47.8077 -4.6731 -0.271767 0
M  V30 404 H 47.9807 -6.47882 -0.123697 0
M  V30 405 N 41.3868 0.248026 -1.55636 0
M  V30 406 C 42.3498 1.29044 -1.89421 0
M  V30 407 C 43.3498 1.41134 -0.770581 0
M  V30 408 O 44.5398 1.39854 -1.03858 0
M  V30 409 C 41.6718 2.66831 -2.12165 0
M  V30 410 H 42.8648 1.00305 -2.82629 0
M  V30 411 H 40.4178 0.487265 -1.48511 0
M  V30 412 H 41.1528 3.00711 -1.21422 0
M  V30 413 H 40.9378 2.59438 -2.93997 0
M  V30 414 H 42.4278 3.42103 -2.3949 0
M  V30 415 N 42.8649 1.48995 0.513639 0
M  V30 416 C 44.1129 1.57531 1.26604 0
M  V30 417 C 44.4339 0.258236 1.93283 0
M  V30 418 O 43.7039 -0.721502 1.8213 0
M  V30 419 H 42.2839 0.580387 0.470276 0
M  V30 420 H 44.9459 1.85552 0.596373 0
M  V30 421 H 44.0419 2.36486 2.03669 0
M  V30 422 N 44.343 -0.763751 1.37857 0
M  V30 423 C 45.568 -1.55805 1.36893 0
M  V30 424 C 45.993 -1.88054 -0.0416135 0
M  V30 425 O 45.351 -1.49825 -1.02089 0
M  V30 426 C 45.399 -2.84012 2.22192 0
M  V30 427 O 44.503 -3.78732 1.63204 0
M  V30 428 H 43.844 -0.471638 0.46739 0
M  V30 429 H 46.374 -0.944657 1.81487 0
M  V30 430 H 46.384 -3.33037 2.35691 0
M  V30 431 H 45.059 -2.59869 3.24716 0
M  V30 432 H 43.636 -3.37402 1.58791 0
M  V30 433 N 45.8211 -1.22559 -0.990812 0
M  V30 434 C 47.2321 -1.04791 -1.54518 0
M  V30 435 C 47.5831 0.387998 -1.92325 0
M  V30 436 O 46.7081 1.27328 -1.74976 0
M  V30 437 C 47.3031 -1.896 -2.80779 0
M  V30 438 C 45.8621 -1.76124 -3.32652 0
M  V30 439 C 45.0091 -1.8594 -2.05722 0
M  V30 440 H 47.9601 -1.36374 -0.811662 0
M  V30 441 H 47.9811 -1.41464 -3.53225 0
M  V30 442 H 47.4931 -2.94101 -2.53231 0
M  V30 443 H 45.5941 -0.743643 -3.65104 0
M  V30 444 H 45.7071 -2.58913 -4.03114 0
M  V30 445 H 44.0711 -1.29403 -2.19379 0
M  V30 446 H 44.8541 -2.91976 -1.80568 0
M  V30 447 N 47.2992 1.18797 -1.03562 0
M  V30 448 C 48.2622 2.20464 -0.626769 0
M  V30 449 C 49.2622 1.57721 0.313173 0
M  V30 450 O 50.4522 1.73917 0.0992615 0
M  V30 451 C 47.5842 3.40802 0.0818498 0
M  V30 452 H 48.7772 2.58149 -1.5264 0
M  V30 453 H 46.3302 1.32593 -0.827578 0
M  V30 454 H 47.0652 3.08642 0.995518 0
M  V30 455 H 46.8502 3.8758 -0.593652 0
M  V30 456 H 48.3402 4.16092 0.354584 0
M  V30 457 N 48.7773 0.814389 1.34928 0
M  V30 458 C 49.7403 0.235759 2.27984 0
M  V30 459 C 50.7403 -0.581412 1.49921 0
M  V30 460 O 51.9303 -0.398758 1.69575 0
M  V30 461 C 49.0623 -0.670433 3.34242 0
M  V30 462 H 50.2553 1.05659 2.80671 0
M  V30 463 H 47.8083 0.585614 1.44915 0
M  V30 464 H 48.5433 -1.51466 2.86755 0
M  V30 465 H 48.3283 -0.0860822 3.92005 0
M  V30 466 H 49.8183 -1.06935 4.03676 0
M  V30 467 N 50.2554 -1.46986 0.568584 0
M  V30 468 C 51.5034 -2.02041 0.0487022 0
M  V30 469 C 51.8244 -1.44408 -1.31039 0
M  V30 470 O 51.0944 -0.623477 -1.85714 0
M  V30 471 H 49.6744 -0.746849 0.015014 0
M  V30 472 H 52.3364 -1.80257 0.741168 0
M  V30 473 H 51.4324 -3.12085 -0.0308961 0
M  V30 474 N 51.7335 -0.305618 -1.54608 0
M  V30 475 C 53.1445 0.186098 -1.8577 0
M  V30 476 C 53.4955 1.53058 -1.22751 0
M  V30 477 O 52.6205 2.09888 -0.526893 0
M  V30 478 C 53.2155 0.344449 -3.37044 0
M  V30 479 C 51.7745 0.780384 -3.68221 0
M  V30 480 C 50.9215 -0.108554 -2.77087 0
M  V30 481 H 53.8725 -0.526485 -1.49712 0
M  V30 482 H 53.8935 1.17828 -3.61796 0
M  V30 483 H 53.4055 -0.634235 -3.82883 0
M  V30 484 H 51.5065 1.76945 -3.27904 0
M  V30 485 H 51.6195 0.596572 -4.75371 0
M  V30 486 H 49.9835 0.412931 -2.5133 0
M  V30 487 H 50.7665 -1.08368 -3.25747 0
M  V30 488 N 53.2116 1.57565 -0.0334293 0
M  V30 489 C 54.6226 1.79746 0.504798 0
M  V30 490 C 54.9736 0.944091 1.71992 0
M  V30 491 O 54.0986 0.155694 2.15839 0
M  V30 492 C 54.6936 3.25997 0.922567 0
M  V30 493 C 53.2526 3.49159 1.40588 0
M  V30 494 C 52.3996 2.74785 0.372633 0
M  V30 495 H 55.3506 1.56565 -0.259436 0
M  V30 496 H 55.3716 3.35945 1.78666 0
M  V30 497 H 54.8836 3.88081 0.0379825 0
M  V30 498 H 52.9846 2.92332 2.31025 0
M  V30 499 H 53.0976 4.57873 1.41028 0
M  V30 500 H 51.4616 2.40391 0.841672 0
M  V30 501 H 52.2446 3.39587 -0.503559 0
M  V30 502 N 54.6897 -0.239769 1.55765 0
M  V30 503 C 55.6197 -1.30052 1.9393 0
M  V30 504 C 56.6007 -1.49839 0.805132 0
M  V30 505 O 57.7857 -1.62328 1.06599 0
M  V30 506 C 54.9157 -2.65391 2.2402 0
M  V30 507 C 53.8697 -2.60289 3.39755 0
M  V30 508 C 53.1957 -3.99489 3.55405 0
M  V30 509 C 54.4957 -2.16654 4.75246 0
M  V30 510 H 56.1897 -0.983573 2.82783 0
M  V30 511 H 53.7357 -0.471701 1.36055 0
M  V30 512 H 55.6887 -3.3974 2.49308 0
M  V30 513 H 54.4127 -2.98736 1.32 0
M  V30 514 H 53.0717 -1.88398 3.14487 0
M  V30 515 H 52.7197 -4.30112 2.60793 0
M  V30 516 H 52.4197 -3.96962 4.33238 0
M  V30 517 H 53.9437 -4.75528 3.83022 0
M  V30 518 H 55.3577 -2.80737 4.99859 0
M  V30 519 H 53.7547 -2.25223 5.56232 0
M  V30 520 H 54.8247 -1.11835 4.71827 0
M  V30 521 N 56.1678 -1.49265 -0.50573 0
M  V30 522 C 57.0998 -1.617 -1.62437 0
M  V30 523 C 58.1128 -0.499924 -1.54934 0
M  V30 524 O 59.3018 -0.771785 -1.60953 0
M  V30 525 C 56.4018 -1.5533 -3.01207 0
M  V30 526 C 55.5748 -2.8249 -3.33943 0
M  V30 527 C 54.6338 -2.69238 -4.52103 0
M  V30 528 O 53.6598 -3.43167 -4.5412 0
M  V30 529 N 54.8618 -1.80468 -5.51735 0
M  V30 530 H 57.6268 -2.58177 -1.52199 0
M  V30 531 H 55.1878 -1.46294 -0.693511 0
M  V30 532 H 57.1798 -1.44125 -3.78167 0
M  V30 533 H 55.7498 -0.667297 -3.05395 0
M  V30 534 H 54.9698 -3.08081 -2.45926 0
M  V30 535 H 56.2578 -3.66802 -3.5261 0
M  V30 536 H 55.6558 -1.19653 -5.52901 0
M  V30 537 H 54.2128 -1.75188 -6.27816 0
M  V30 538 N 57.6459 0.756429 -1.3826 0
M  V30 539 C 59.0569 1.33359 -1.30661 0
M  V30 540 C 59.4079 1.96161 0.0388875 0
M  V30 541 O 58.5329 1.94874 0.940918 0
M  V30 542 C 59.1279 2.42477 -2.36622 0
M  V30 543 C 57.6869 2.95922 -2.3261 0
M  V30 544 C 56.8339 1.69275 -2.19639 0
M  V30 545 H 59.7849 0.55552 -1.4866 0
M  V30 546 H 59.8059 3.22345 -2.02174 0
M  V30 547 H 59.3179 1.96739 -3.34538 0
M  V30 548 H 57.4189 3.45996 -1.38267 0
M  V30 549 H 57.5319 3.50494 -3.26636 0
M  V30 550 H 55.8959 1.92793 -1.66442 0
M  V30 551 H 56.6789 1.25619 -3.19491 0
M  V30 552 N 59.124 1.23083 0.984299 0
M  V30 553 C 60.54 0.992637 1.24975 0
M  V30 554 C 60.74 -0.308618 1.99123 0
M  V30 555 O 59.796 -1.02905 2.30579 0
M  V30 556 C 61.109 2.19698 2.05312 0
M  V30 557 C 62.657 2.24147 2.18465 0
M  V30 558 C 63.132 3.44157 3.02192 0
M  V30 559 N 64.623 3.44372 3.09777 0
M  V30 560 C 65.358 4.33886 3.74874 0
M  V30 561 N 64.854 5.3363 4.41827 0
M  V30 562 N 66.647 4.21639 3.71721 0
M  V30 563 H 58.798 2.06731 0.487453 0
M  V30 564 H 61.061 0.906339 0.277944 0
M  V30 565 H 60.767 3.1411 1.58201 0
M  V30 566 H 60.641 2.20465 3.06064 0
M  V30 567 H 63.028 1.30277 2.64786 0
M  V30 568 H 63.109 2.27415 1.17115 0
M  V30 569 H 62.753 4.38332 2.56568 0
M  V30 570 H 62.683 3.3813 4.03702 0
M  V30 571 H 65.174 2.72201 2.62135 0
M  V30 572 H 65.487 5.98196 4.89266 0
M  V30 573 H 63.832 5.37534 4.40548 0
M  V30 574 H 67.023 3.42962 3.18582 0
M  V30 575 H 67.196 4.91604 4.22173 0
M  V30 576 N 60.6021 -1.18246 1.0419 0
M  V30 577 C 61.5121 -2.25574 0.644476 0
M  V30 578 C 62.5281 -1.70845 -0.329826 0
M  V30 579 O 63.7041 -2.00554 -0.184443 0
M  V30 580 C 60.7691 -3.46697 0.014877 0
M  V30 581 C 59.8301 -4.16554 1.03834 0
M  V30 582 C 59.0631 -5.31894 0.438692 0
M  V30 583 O 59.2861 -5.65385 -0.754752 0
M  V30 584 O 58.2201 -5.90459 1.168 0
M  V30 585 H 62.0461 -2.61836 1.53869 0
M  V30 586 H 59.6311 -1.25352 0.812854 0
M  V30 587 H 61.5131 -4.20062 -0.335538 0
M  V30 588 H 60.1881 -3.12255 -0.853138 0
M  V30 589 H 59.0951 -3.45251 1.44057 0
M  V30 590 H 60.4281 -4.54998 1.87716 0
M  V30 591 N 62.0802 -0.821533 -1.34494 0
M  V30 592 C 63.4912 -0.467956 -1.8074 0
M  V30 593 C 63.8422 1.01151 -1.68116 0
M  V30 594 O 62.9672 1.78707 -1.22036 0
M  V30 595 C 63.5622 -0.842627 -3.28154 0
M  V30 596 C 62.1212 -0.541439 -3.72485 0
M  V30 597 C 61.2682 -1.06028 -2.56229 0
M  V30 598 H 64.2192 -1.01183 -1.22261 0
M  V30 599 H 64.2402 -0.145876 -3.8022 0
M  V30 600 H 63.7522 -1.91945 -3.37311 0
M  V30 601 H 61.8532 0.526034 -3.68868 0
M  V30 602 H 61.9662 -1.08453 -4.66663 0
M  V30 603 H 60.3302 -0.481892 -2.501 0
M  V30 604 H 61.1132 -2.14352 -2.68157 0
M  V30 605 N 63.5583 1.46682 -0.576371 0
M  V30 606 C 64.4883 2.33028 0.148397 0
M  V30 607 C 65.4693 1.44961 0.889956 0
M  V30 608 O 66.6543 1.73789 0.866662 0
M  V30 609 C 63.7843 3.27117 1.1667 0
M  V30 610 C 62.7383 4.24575 0.540386 0
M  V30 611 C 62.0643 5.08126 1.6647 0
M  V30 612 C 63.3643 5.19722 -0.518331 0
M  V30 613 H 65.0583 2.93875 -0.572509 0
M  V30 614 H 62.6043 1.41315 -0.276768 0
M  V30 615 H 64.5573 3.86374 1.68204 0
M  V30 616 H 63.2813 2.64364 1.9178 0
M  V30 617 H 61.9403 3.66571 0.0461769 0
M  V30 618 H 61.5883 4.41762 2.40531 0
M  V30 619 H 61.2883 5.74122 1.25131 0
M  V30 620 H 62.8123 5.70246 2.18293 0
M  V30 621 H 64.2263 5.73232 -0.0883058 0
M  V30 622 H 62.6233 5.94026 -0.851679 0
M  V30 623 H 63.6933 4.64037 -1.40703 0
M  V30 624 N 65.0364 0.313813 1.54444 0
M  V30 625 C 66.2614 -0.296681 2.05267 0
M  V30 626 C 66.6864 -1.45757 1.18897 0
M  V30 627 O 66.0444 -1.80239 0.195886 0
M  V30 628 C 66.0924 -0.71831 3.53373 0
M  V30 629 O 65.1964 -1.82175 3.69981 0
M  V30 630 H 64.5374 -0.0554061 0.661684 0
M  V30 631 H 67.0674 0.459387 1.99376 0
M  V30 632 H 67.0774 -1.00364 3.95463 0
M  V30 633 H 65.7524 0.130821 4.15694 0
M  V30 634 H 64.3294 -1.53598 3.39797 0
M  V30 635 N 66.5145 -1.57545 0.0417849 0
M  V30 636 C 67.7445 -1.96339 -0.642995 0
M  V30 637 C 68.1525 -0.917536 -1.65463 0
M  V30 638 O 67.4955 0.107747 -1.83384 0
M  V30 639 C 67.5575 -3.31333 -1.39494 0
M  V30 640 C 67.2215 -4.53796 -0.540204 0
M  V30 641 C 68.2185 -5.19553 0.189806 0
M  V30 642 C 65.9035 -5.0006 -0.473886 0
M  V30 643 C 67.8975 -6.29904 0.974674 0
M  V30 644 C 65.5845 -6.10289 0.314677 0
M  V30 645 C 66.5825 -6.75072 1.03765 0
M  V30 646 O 66.2705 -7.83183 1.81327 0
M  V30 647 H 66.0025 -0.651241 -0.181277 0
M  V30 648 H 68.5565 -2.05148 0.101665 0
M  V30 649 H 66.7865 -3.19052 -2.18502 0
M  V30 650 H 68.4755 -3.54942 -1.96904 0
M  V30 651 H 69.2415 -4.84774 0.147981 0
M  V30 652 H 65.1205 -4.49433 -1.0262 0
M  V30 653 H 68.6645 -6.80401 1.5395 0
M  V30 654 H 64.5615 -6.44506 0.358174 0
M  V30 655 H 65.3295 -7.99913 1.73438 0
M  V30 656 N 67.9926 0.231505 -1.5589 0
M  V30 657 C 69.2176 0.978689 -1.82856 0
M  V30 658 C 69.6426 1.77559 -0.620846 0
M  V30 659 O 69.0006 1.76119 0.430305 0
M  V30 660 C 69.0486 1.87997 -3.07716 0
M  V30 661 O 68.1526 2.97393 -2.85712 0
M  V30 662 H 67.4936 0.277663 -0.603158 0
M  V30 663 H 70.0236 0.24783 -2.03093 0
M  V30 664 H 70.0336 2.2917 -3.37558 0
M  V30 665 H 68.7086 1.29417 -3.95252 0
M  V30 666 H 67.2856 2.60238 -2.67078 0
M  V30 667 N 69.4707 1.49531 0.497807 0
M  V30 668 C 70.8867 1.36365 0.829266 0
M  V30 669 C 71.0867 0.399184 1.97506 0
M  V30 670 O 70.1427 -0.167977 2.51941 0
M  V30 671 C 71.4557 2.77153 1.16647 0
M  V30 672 C 73.0037 2.85877 1.27449 0
M  V30 673 C 73.4787 4.2744 1.64497 0
M  V30 674 N 74.9697 4.30265 1.7154 0
M  V30 675 C 75.7047 5.3677 2.01656 0
M  V30 676 N 75.2007 6.53516 2.29976 0
M  V30 677 N 76.9937 5.24189 2.02934 0
M  V30 678 H 69.1447 2.10831 -0.257703 0
M  V30 679 H 71.4077 0.946534 -0.0527091 0
M  V30 680 H 71.1137 3.49442 0.397872 0
M  V30 681 H 70.9877 3.12722 2.10915 0
M  V30 682 H 73.3747 2.13824 2.0338 0
M  V30 683 H 73.4557 2.53887 0.312244 0
M  V30 684 H 73.0997 5.00021 0.891151 0
M  V30 685 H 73.0297 4.56896 2.61827 0
M  V30 686 H 75.5207 3.4607 1.51802 0
M  V30 687 H 75.8337 7.30506 2.52153 0
M  V30 688 H 74.1787 6.56737 2.27425 0
M  V30 689 H 77.3697 4.31988 1.80289 0
M  V30 690 H 77.5427 6.07286 2.26071 0
M  V30 691 N 70.9488 -0.749086 1.3866 0
M  V30 692 C 71.8788 -1.8764 1.38973 0
M  V30 693 C 72.8598 -1.68178 0.255004 0
M  V30 694 O 74.0448 -1.88704 0.458754 0
M  V30 695 C 71.1748 -3.25222 1.21851 0
M  V30 696 C 70.1288 -3.59295 2.32575 0
M  V30 697 C 69.4548 -4.95663 2.00555 0
M  V30 698 C 70.7548 -3.63709 3.7485 0
M  V30 699 H 72.4488 -1.87635 2.3331 0
M  V30 700 H 69.9948 -0.901329 1.12303 0
M  V30 701 H 71.9478 -4.03746 1.20695 0
M  V30 702 H 70.6718 -3.25719 0.239775 0
M  V30 703 H 69.3308 -2.83093 2.32925 0
M  V30 704 H 68.9788 -4.92724 1.01154 0
M  V30 705 H 68.6788 -5.19429 2.74714 0
M  V30 706 H 70.2028 -5.7656 2.01024 0
M  V30 707 H 71.6168 -4.32338 3.76506 0
M  V30 708 H 70.0138 -3.98986 4.48252 0
M  V30 709 H 71.0838 -2.63834 4.06841 0
M  V30 710 N 72.4269 -1.23603 -0.977757 0
M  V30 711 C 73.3589 -0.977369 -2.07317 0
M  V30 712 C 74.3719 0.0495845 -1.62724 0
M  V30 713 O 75.5609 -0.186261 -1.77526 0
M  V30 714 C 72.6609 -0.451216 -3.35883 0
M  V30 715 C 71.8339 -1.53896 -4.09432 0
M  V30 716 C 70.8929 -1.01721 -5.16274 0
M  V30 717 O 69.9189 -1.70676 -5.43009 0
M  V30 718 N 71.1209 0.153594 -5.80297 0
M  V30 719 H 73.8859 -1.92047 -2.30082 0
M  V30 720 H 71.4469 -1.14497 -1.14465 0
M  V30 721 H 73.4389 -0.0871574 -4.04606 0
M  V30 722 H 72.0089 0.397368 -3.10064 0
M  V30 723 H 71.2289 -2.07566 -3.35127 0
M  V30 724 H 72.5169 -2.27037 -4.55337 0
M  V30 725 H 71.9149 0.730323 -5.60966 0
M  V30 726 H 70.4719 0.458892 -6.50183 0
M  V30 727 N 73.905 1.17692 -1.04816 0
M  V30 728 C 75.321 1.39863 -0.768794 0
M  V30 729 C 75.521 1.91118 0.638451 0
M  V30 730 O 74.577 2.10036 1.40146 0
M  V30 731 C 75.89 2.39274 -1.82122 0
M  V30 732 C 77.438 2.52987 -1.843 0
M  V30 733 C 77.913 3.55669 -2.88555 0
M  V30 734 N 79.404 3.63183 -2.87493 0
M  V30 735 C 80.139 4.42381 -3.64811 0
M  V30 736 N 79.635 5.25125 -4.51903 0
M  V30 737 N 81.428 4.37217 -3.53267 0
M  V30 738 H 73.579 0.82752 -1.95617 0
M  V30 739 H 75.842 0.426123 -0.846831 0
M  V30 740 H 75.548 2.08678 -2.83102 0
M  V30 741 H 75.422 3.38725 -1.65967 0
M  V30 742 H 77.809 2.82896 -0.839869 0
M  V30 743 H 77.89 1.53623 -2.04532 0
M  V30 744 H 77.534 3.26499 -3.89051 0
M  V30 745 H 77.464 4.54728 -2.65575 0
M  V30 746 H 79.955 3.04103 -2.24343 0
M  V30 747 H 80.268 5.82728 -5.07591 0
M  V30 748 H 78.613 5.24519 -4.55966 0
M  V30 749 H 81.804 3.71626 -2.84625 0
M  V30 750 H 81.977 4.98696 -4.13771 0
M  V30 751 N 75.3831 0.828654 1.34056 0
M  V30 752 C 76.3301 0.252567 2.29414 0
M  V30 753 C 77.3001 -0.62588 1.53857 0
M  V30 754 O 78.4851 -0.566312 1.82202 0
M  V30 755 C 75.6251 -0.574831 3.40279 0
M  V30 756 C 74.7381 0.326499 4.30764 0
M  V30 757 C 73.8731 -0.511016 5.28736 0
M  V30 758 C 72.9121 0.389342 6.1086 0
M  V30 759 N 72.0491 -0.409439 7.00905 0
M  V30 760 H 76.8891 1.07108 2.78086 0
M  V30 761 H 74.4261 0.539677 1.36843 0
M  V30 762 H 76.3841 -1.06992 4.03248 0
M  V30 763 H 75.0141 -1.35841 2.92826 0
M  V30 764 H 74.0661 0.939837 3.68607 0
M  V30 765 H 75.3781 1.01857 4.88289 0
M  V30 766 H 74.5321 -1.07035 5.97184 0
M  V30 767 H 73.2711 -1.23657 4.71763 0
M  V30 768 H 72.2761 0.960769 5.4134 0
M  V30 769 H 73.5011 1.1131 6.69916 0
M  V30 770 H 71.4471 -1.11856 6.46393 0
M  V30 771 H 71.3641 0.224126 7.55668 0
M  V30 772 H 72.6321 -0.951336 7.73673 0
M  V30 773 N 76.8612 -1.46375 0.584142 0
M  V30 774 C 78.0862 -2.07268 0.0740405 0
M  V30 775 C 78.5112 -1.42979 -1.22223 0
M  V30 776 O 77.8692 -0.514092 -1.73859 0
M  V30 777 C 77.9172 -3.60518 -0.0767769 0
M  V30 778 O 77.0212 -3.96533 -1.13292 0
M  V30 779 H 76.3622 -0.660961 0.0634524 0
M  V30 780 H 78.8922 -1.87991 0.807492 0
M  V30 781 H 78.9022 -4.07021 -0.282489 0
M  V30 782 H 77.5772 -4.06702 0.86986 0
M  V30 783 H 76.1542 -3.61738 -0.905553 0
M  V30 784 N 78.3393 -0.321999 -1.54275 0
M  V30 785 C 79.2693 0.537411 -2.27231 0
M  V30 786 C 80.2503 1.12064 -1.27968 0
M  V30 787 O 81.4353 1.14606 -1.56777 0
M  V30 788 C 78.5653 1.69919 -3.02894 0
M  V30 789 C 77.5193 1.24534 -4.09482 0
M  V30 790 C 76.8453 2.49394 -4.72977 0
M  V30 791 C 78.1453 0.361335 -5.21049 0
M  V30 792 H 79.8393 -0.0711406 -2.99315 0
M  V30 793 H 77.3853 -0.0356555 -1.43956 0
M  V30 794 H 79.3383 2.30668 -3.52662 0
M  V30 795 H 78.0623 2.33431 -2.28424 0
M  V30 796 H 76.7213 0.660782 -3.60596 0
M  V30 797 H 76.3693 3.11265 -3.95124 0
M  V30 798 H 76.0693 2.19718 -5.44975 0
M  V30 799 H 77.5933 3.10908 -5.25517 0
M  V30 800 H 79.0073 0.875072 -5.66582 0
M  V30 801 H 77.4043 0.157428 -5.99893 0
M  V30 802 H 78.4743 -0.60822 -4.8107 0
M  V30 803 N 79.8174 1.5752 -0.0501392 0
M  V30 804 C 80.7804 2.1037 0.909786 0
M  V30 805 C 81.7804 1.02308 1.24056 0
M  V30 806 O 82.9704 1.28385 1.17741 0
M  V30 807 C 80.1024 2.58708 2.21998 0
M  V30 808 H 81.2954 2.96479 0.451665 0
M  V30 809 H 78.8484 1.55038 0.198248 0
M  V30 810 H 79.5834 1.75989 2.72394 0
M  V30 811 H 79.3684 3.37675 1.99295 0
M  V30 812 H 80.8584 2.99747 2.9076 0
M  V30 813 N 81.2955 -0.223234 1.56011 0
M  V30 814 C 82.5415 -0.949279 1.79211 0
M  V30 815 C 82.8745 -1.84054 0.619494 0
M  V30 816 O 82.1495 -1.90726 -0.381317 0
M  V30 817 C 82.4325 -1.78965 3.12479 0
M  V30 818 C 82.2855 -0.924997 4.40186 0
M  V30 819 C 83.6045 -2.76774 3.42175 0
M  V30 820 H 80.7235 -0.343676 0.651963 0
M  V30 821 H 83.3655 -0.218253 1.88742 0
M  V30 822 H 81.5155 -2.41291 3.04485 0
M  V30 823 H 83.1875 -0.318615 4.60198 0
M  V30 824 H 81.4305 -0.230344 4.33188 0
M  V30 825 H 82.1015 -1.54735 5.29869 0
M  V30 826 H 84.5775 -2.24584 3.50287 0
M  V30 827 H 83.4535 -3.32678 4.36597 0
M  V30 828 H 83.7145 -3.54429 2.64258 0
M  V30 829 N 82.7736 -1.49793 -0.48987 0
M  V30 830 C 84.0506 -1.50348 -1.25119 0
M  V30 831 C 84.4306 -0.237466 -2.0976 0
M  V30 832 O 83.7786 0.77981 -2.14782 0
M  V30 833 C 83.9886 -2.78872 -2.09837 0
M  V30 834 C 85.3366 -3.288 -2.68655 0
M  V30 835 O 86.3606 -2.80065 -2.20096 0
M  V30 836 O 85.2196 -4.13707 -3.57083 0
M  V30 837 H 82.3136 -0.602242 -0.566775 0
M  V30 838 H 84.8596 -1.62067 -0.503229 0
M  V30 839 H 83.6316 -3.62499 -1.47343 0
M  V30 840 H 83.2546 -2.70066 -2.91805 0
M  V30 841 N 84.2517 0.741722 -1.39055 0
M  V30 842 C 85.4987 1.50114 -1.35912 0
M  V30 843 C 85.8267 1.94443 0.0470937 0
M  V30 844 O 85.0817 1.66612 1.02659 0
M  V30 845 C 85.3807 2.7592 -2.27163 0
M  V30 846 C 85.0467 2.50493 -3.74919 0
M  V30 847 C 83.7087 2.43267 -4.1518 0
M  V30 848 C 86.0607 2.28585 -4.684 0
M  V30 849 C 83.3887 2.12166 -5.46994 0
M  V30 850 C 85.7407 1.99002 -6.00484 0
M  V30 851 C 84.4047 1.90241 -6.39816 0
M  V30 852 H 83.6747 0.549306 -0.497336 0
M  V30 853 H 86.3217 0.851896 -1.71508 0
M  V30 854 H 84.6267 3.45553 -1.84663 0
M  V30 855 H 86.3237 3.33923 -2.22028 0
M  V30 856 H 82.9137 2.56992 -3.43006 0
M  V30 857 H 87.0977 2.33139 -4.38132 0
M  V30 858 H 82.3537 2.03901 -5.76398 0
M  V30 859 H 86.5277 1.81057 -6.72452 0
M  V30 860 H 84.1547 1.65907 -7.41875 0
M  V30 861 N 85.7298 1.2412 0.971189 0
M  V30 862 C 86.9758 1.08041 1.71625 0
M  V30 863 C 87.3088 -0.380407 1.90438 0
M  V30 864 O 86.5838 -1.28127 1.46334 0
M  V30 865 C 86.8668 1.81682 3.10908 0
M  V30 866 C 86.7198 3.35493 2.99608 0
M  V30 867 C 88.0388 1.58671 4.10501 0
M  V30 868 H 85.1578 0.39388 0.622919 0
M  V30 869 H 87.7998 1.52743 1.13003 0
M  V30 870 H 85.9498 1.43684 3.60953 0
M  V30 871 H 87.6218 3.83068 2.57015 0
M  V30 872 H 85.8648 3.64052 2.35899 0
M  V30 873 H 86.5358 3.82217 3.98264 0
M  V30 874 H 89.0118 1.91719 3.69301 0
M  V30 875 H 87.8878 2.1266 5.06031 0
M  V30 876 H 88.1488 0.524161 4.38982 0
M  V30 877 N 87.2079 -1.17134 1.05439 0
M  V30 878 C 88.4539 -1.87733 0.767077 0
M  V30 879 C 88.7869 -1.8098 -0.704253 0
M  V30 880 O 88.0619 -1.21951 -1.5152 0
M  V30 881 C 88.3449 -3.37659 1.25133 0
M  V30 882 C 88.1979 -3.53149 2.78578 0
M  V30 883 C 89.5169 -4.31768 0.852324 0
M  V30 884 H 86.6359 -0.681687 0.280129 0
M  V30 885 H 89.2779 -1.37732 1.30881 0
M  V30 886 H 87.4279 -3.80373 0.790469 0
M  V30 887 H 89.0999 -3.19434 3.32806 0
M  V30 888 H 87.3429 -2.95345 3.17732 0
M  V30 889 H 88.0139 -4.58403 3.07523 0
M  V30 890 H 90.4899 -3.96909 1.24911 0
M  V30 891 H 89.3659 -5.35199 1.21873 0
M  V30 892 H 89.6269 -4.41429 -0.243485 0
M  V30 893 N 88.686 -0.835752 -1.33615 0
M  V30 894 C 90.097 -0.487099 -1.80234 0
M  V30 895 C 90.448 0.993627 -1.69179 0
M  V30 896 O 89.573 1.77403 -1.23924 0
M  V30 897 C 90.168 -0.877385 -3.27242 0
M  V30 898 C 88.727 -0.580915 -3.7189 0
M  V30 899 C 87.874 -1.0874 -2.5509 0
M  V30 900 H 90.825 -1.02474 -1.2118 0
M  V30 901 H 90.846 -0.186195 -3.80044 0
M  V30 902 H 90.358 -1.95512 -3.35256 0
M  V30 903 H 88.459 0.486881 -3.69405 0
M  V30 904 H 88.572 -1.13396 -4.65487 0
M  V30 905 H 86.936 -0.508392 -2.49575 0
M  V30 906 H 87.719 -2.17184 -2.65868 0
M  V30 907 N 90.1641 1.46063 -0.591896 0
M  V30 908 C 91.3891 2.07226 -0.0850314 0
M  V30 909 C 91.8141 1.43625 1.21463 0
M  V30 910 O 91.1721 0.523305 1.73583 0
M  V30 911 C 91.2201 3.60554 0.0576567 0
M  V30 912 O 90.3241 3.97128 1.11188 0
M  V30 913 H 89.6651 0.660615 -0.0669568 0
M  V30 914 H 92.1951 1.8756 -0.81745 0
M  V30 915 H 92.2051 4.07165 0.2609 0
M  V30 916 H 90.8801 4.06235 -0.891416 0
M  V30 917 H 89.4571 3.62213 0.886356 0
M  V30 918 N 91.6422 0.330177 1.54103 0
M  V30 919 C 92.5722 -0.525353 2.27513 0
M  V30 920 C 93.5532 -1.11383 1.2856 0
M  V30 921 O 94.7382 -1.13773 1.57383 0
M  V30 922 C 91.8682 -1.6831 3.03791 0
M  V30 923 C 90.8222 -1.2236 4.10137 0
M  V30 924 C 90.1482 -2.46882 4.74293 0
M  V30 925 C 91.4482 -0.333697 5.21233 0
M  V30 926 H 93.1422 0.087013 2.99274 0
M  V30 927 H 90.6882 0.0432893 1.43935 0
M  V30 928 H 92.6412 -2.28795 3.5388 0
M  V30 929 H 91.3652 -2.32216 2.29659 0
M  V30 930 H 90.0242 -0.64165 3.60941 0
M  V30 931 H 89.6722 -3.09165 3.96769 0
M  V30 932 H 89.3722 -2.16825 5.46133 0
M  V30 933 H 90.8962 -3.08117 5.27159 0
M  V30 934 H 92.3102 -0.845013 5.67038 0
M  V30 935 H 90.7072 -0.125612 5.99969 0
M  V30 936 H 91.7772 0.633724 4.80741 0
M  V30 937 N 93.1203 -1.57491 0.0584922 0
M  V30 938 C 94.3673 -1.92978 -0.613648 0
M  V30 939 C 94.6953 -0.937461 -1.70417 0
M  V30 940 O 93.9503 0.049078 -1.95638 0
M  V30 941 C 94.2493 -3.3513 -1.24188 0
M  V30 942 C 93.9153 -4.50037 -0.278826 0
M  V30 943 C 92.5773 -4.81198 -0.0138447 0
M  V30 944 C 94.9293 -5.19807 0.380777 0
M  V30 945 C 92.2573 -5.79473 0.918052 0
M  V30 946 C 94.6093 -6.19079 1.30091 0
M  V30 947 C 93.2733 -6.48665 1.57449 0
M  V30 948 H 92.5433 -0.706157 -0.22455 0
M  V30 949 H 95.1903 -1.91082 0.126533 0
M  V30 950 H 93.4953 -3.33429 -2.05749 0
M  V30 951 H 95.1923 -3.59871 -1.769 0
M  V30 952 H 91.7823 -4.25726 -0.495539 0
M  V30 953 H 95.9663 -4.95939 0.189158 0
M  V30 954 H 91.2223 -6.00727 1.1374 0
M  V30 955 H 95.3963 -6.7225 1.81804 0
M  V30 956 H 93.0233 -7.24628 2.29822 0
M  V30 957 N 94.5984 0.214957 -1.56127 0
M  V30 958 C 96.0144 0.564948 -1.49267 0
M  V30 959 C 96.2144 1.86827 -0.754838 0
M  V30 960 O 95.2704 2.50745 -0.297198 0
M  V30 961 C 96.5834 0.638071 -2.93852 0
M  V30 962 C 98.1314 0.728253 -3.0441 0
M  V30 963 C 98.6064 0.832663 -4.50367 0
M  V30 964 N 100.097 0.896712 -4.54437 0
M  V30 965 C 100.832 0.997324 -5.6466 0
M  V30 966 N 100.328 1.06147 -6.8462 0
M  V30 967 N 102.121 1.03297 -5.52527 0
M  V30 968 H 94.2724 -0.640211 -2.02522 0
M  V30 969 H 96.5354 -0.225507 -0.920788 0
M  V30 970 H 96.2414 -0.250126 -3.50809 0
M  V30 971 H 96.1154 1.49947 -3.46115 0
M  V30 972 H 98.5024 1.60689 -2.47514 0
M  V30 973 H 98.5834 -0.158952 -2.55306 0
M  V30 974 H 98.2274 -0.0415417 -5.07883 0
M  V30 975 H 98.1574 1.73538 -4.97184 0
M  V30 976 H 100.648 0.857188 -3.6805 0
M  V30 977 H 100.961 1.1382 -7.64372 0
M  V30 978 H 99.3064 1.03049 -6.87318 0
M  V30 979 H 102.497 0.979558 -4.57736 0
M  V30 980 H 102.67 1.10793 -6.38458 0
M  V30 981 N 96.0765 1.50051 0.48192 0
M  V30 982 C 97.3225 1.60736 1.2366 0
M  V30 983 C 97.6555 0.301786 1.91841 0
M  V30 984 O 96.9305 -0.696025 1.8162 0
M  V30 985 C 97.2135 2.78009 2.28874 0
M  V30 986 C 97.0665 4.18416 1.65069 0
M  V30 987 C 98.3855 2.90867 3.30279 0
M  V30 988 H 95.5045 0.585031 0.448228 0
M  V30 989 H 98.1465 1.82402 0.531946 0
M  V30 990 H 96.2965 2.59667 2.88973 0
M  V30 991 H 97.9685 4.48322 1.0865 0
M  V30 992 H 96.2115 4.23177 0.954148 0
M  V30 993 H 96.8825 4.96381 2.41474 0
M  V30 994 H 99.3585 3.07623 2.80191 0
M  V30 995 H 98.2345 3.74566 4.01238 0
M  V30 996 H 98.4955 2.01021 3.93755 0
M  V30 997 N 97.5546 -0.734337 1.39446 0
M  V30 998 C 98.7846 -1.52137 1.39778 0
M  V30 999 C 99.1926 -1.89198 -0.00929312 0
M  V30 1000 O 98.5356 -1.54666 -0.991168 0
M  V30 1001 C 98.5976 -2.83762 2.20724 0
M  V30 1002 C 98.2616 -2.69131 3.69347 0
M  V30 1003 C 99.2586 -2.37635 4.62413 0
M  V30 1004 C 96.9436 -2.85982 4.1294 0
M  V30 1005 C 98.9376 -2.23172 5.97054 0
M  V30 1006 C 96.6246 -2.71137 5.47657 0
M  V30 1007 C 97.6226 -2.39777 6.39528 0
M  V30 1008 O 97.3106 -2.25026 7.71763 0
M  V30 1009 H 97.0426 -0.476717 0.479288 0
M  V30 1010 H 99.5966 -0.915012 1.83893 0
M  V30 1011 H 97.8266 -3.4666 1.71359 0
M  V30 1012 H 99.5156 -3.45383 2.13226 0
M  V30 1013 H 100.282 -2.24267 4.30034 0
M  V30 1014 H 96.1606 -3.09383 3.41765 0
M  V30 1015 H 99.7046 -1.98617 6.68728 0
M  V30 1016 H 95.6016 -2.84083 5.79626 0
M  V30 1017 H 96.3696 -2.40091 7.82495 0
M  V30 1018 N 99.0327 -1.24633 -0.964593 0
M  V30 1019 C 99.9957 -1.0424 -2.04124 0
M  V30 1020 C 100.996 0.00137563 -1.608 0
M  V30 1021 O 102.186 -0.239883 -1.7254 0
M  V30 1022 C 99.3177 -0.580588 -3.3592 0
M  V30 1023 H 100.511 -1.99803 -2.23649 0
M  V30 1024 H 98.0637 -1.06899 -1.14027 0
M  V30 1025 H 98.7987 0.3781 -3.22088 0
M  V30 1026 H 98.5837 -1.33398 -3.6871 0
M  V30 1027 H 100.074 -0.459034 -4.15069 0
M  V30 1028 N 100.511 1.16574 -1.06058 0
M  V30 1029 C 101.927 1.3904 -0.783585 0
M  V30 1030 C 102.127 1.91784 0.618145 0
M  V30 1031 O 101.183 2.11511 1.37911 0
M  V30 1032 C 102.496 2.37329 -1.84649 0
M  V30 1033 C 104.044 2.51018 -1.86973 0
M  V30 1034 C 104.519 3.52588 -2.92311 0
M  V30 1035 N 106.01 3.60113 -2.91329 0
M  V30 1036 C 106.745 4.38486 -3.69482 0
M  V30 1037 N 106.241 5.20302 -4.57447 0
M  V30 1038 N 108.034 4.33446 -3.57885 0
M  V30 1039 H 100.185 0.806725 -1.96483 0
M  V30 1040 H 102.448 0.417117 -0.851303 0
M  V30 1041 H 102.154 2.05663 -2.85299 0
M  V30 1042 H 102.028 3.36946 -1.6955 0
M  V30 1043 H 104.415 2.81989 -0.869827 0
M  V30 1044 H 104.496 1.51445 -2.0615 0
M  V30 1045 H 104.14 3.22354 -3.92492 0
M  V30 1046 H 104.07 4.51886 -2.70383 0
M  V30 1047 H 106.561 3.01707 -2.27555 0
M  V30 1048 H 106.874 5.77311 -5.13743 0
M  V30 1049 H 105.219 5.19653 -4.61503 0
M  V30 1050 H 108.41 3.68586 -2.88551 0
M  V30 1051 H 108.583 4.94279 -4.19037 0
M  V30 1052 N 101.989 0.842826 1.3317 0
M  V30 1053 C 103.266 0.362216 1.92217 0
M  V30 1054 C 103.646 -1.15289 1.76838 0
M  V30 1055 O 102.994 -1.96914 1.15919 0
M  V30 1056 C 103.204 0.813495 3.39387 0
M  V30 1057 C 104.552 0.823804 4.16532 0
M  V30 1058 O 105.576 0.757358 3.48055 0
M  V30 1059 O 104.435 0.915193 5.38782 0
M  V30 1060 H 101.529 0.103317 0.820521 0
M  V30 1061 H 104.075 0.928942 1.42017 0
M  V30 1062 H 102.847 1.85624 3.4447 0
M  V30 1063 H 102.47 0.223561 3.96971 0
M  V30 1064 N 103.467 -1.45747 0.599634 0
M  V30 1065 C 104.397 -2.33235 -0.111306 0
M  V30 1066 C 105.378 -1.46359 -0.866781 0
M  V30 1067 O 106.563 -1.75146 -0.838904 0
M  V30 1068 C 103.693 -3.28932 -1.11451 0
M  V30 1069 C 102.647 -4.25381 -0.472772 0
M  V30 1070 C 101.973 -5.1071 -1.58365 0
M  V30 1071 C 103.273 -5.18831 0.600948 0
M  V30 1072 H 104.967 -2.92927 0.61919 0
M  V30 1073 H 102.513 -1.40857 0.299215 0
M  V30 1074 H 104.466 -3.89002 -1.62036 0
M  V30 1075 H 103.19 -2.67381 -1.8755 0
M  V30 1076 H 101.849 -3.66598 0.0121472 0
M  V30 1077 H 101.497 -4.45533 -2.33473 0
M  V30 1078 H 101.197 -5.7604 -1.15982 0
M  V30 1079 H 102.721 -5.73647 -2.09194 0
M  V30 1080 H 104.135 -5.73019 0.179491 0
M  V30 1081 H 102.532 -5.92595 0.946076 0
M  V30 1082 H 103.602 -4.6174 1.48068 0
M  V30 1083 N 104.945 -0.338344 -1.53925 0
M  V30 1084 C 105.875 0.51328 -2.27789 0
M  V30 1085 C 106.856 1.107 -1.29149 0
M  V30 1086 O 108.041 1.12937 -1.57984 0
M  V30 1087 C 105.171 1.66697 -3.04679 0
M  V30 1088 C 104.125 1.20183 -4.1078 0
M  V30 1089 C 103.451 2.44363 -4.75595 0
M  V30 1090 C 104.751 0.30605 -5.21403 0
M  V30 1091 H 106.445 -0.102883 -2.99223 0
M  V30 1092 H 103.991 -0.0509219 -1.4391 0
M  V30 1093 H 105.944 2.26915 -3.55088 0
M  V30 1094 H 104.668 2.30995 -2.30887 0
M  V30 1095 H 103.327 0.622499 -3.61276 0
M  V30 1096 H 102.975 3.07057 -3.98403 0
M  V30 1097 H 102.675 2.13925 -5.47275 0
M  V30 1098 H 104.199 3.05317 -5.28786 0
M  V30 1099 H 105.613 0.814929 -5.67478 0
M  V30 1100 H 104.01 0.0937929 -6.00027 0
M  V30 1101 H 105.08 -0.65921 -4.80398 0
M  V30 1102 N 106.423 1.57458 -0.0668435 0
M  V30 1103 C 107.353 2.15468 0.899764 0
M  V30 1104 C 108.334 1.08042 1.31381 0
M  V30 1105 O 109.519 1.36054 1.38574 0
M  V30 1106 C 106.649 2.71232 2.16911 0
M  V30 1107 C 105.603 3.83781 1.89463 0
M  V30 1108 C 104.929 4.26127 3.22986 0
M  V30 1109 C 106.229 5.08238 1.20381 0
M  V30 1110 H 107.923 2.96488 0.416529 0
M  V30 1111 H 105.469 1.4262 0.198908 0
M  V30 1112 H 107.422 3.10458 2.84945 0
M  V30 1113 H 106.146 1.87426 2.67468 0
M  V30 1114 H 104.805 3.45051 1.23836 0
M  V30 1115 H 104.453 3.39249 3.71374 0
M  V30 1116 H 104.153 5.01993 3.05413 0
M  V30 1117 H 105.677 4.67966 3.92225 0
M  V30 1118 H 107.091 5.44811 1.78475 0
M  V30 1119 H 105.488 5.89349 1.13083 0
M  V30 1120 H 106.558 4.84558 0.182153 0
M  V30 1121 N 107.901 -0.206675 1.56239 0
M  V30 1122 C 109.312 -0.772383 1.69974 0
M  V30 1123 C 109.663 -1.84353 0.671436 0
M  V30 1124 O 108.788 -2.15695 -0.174491 0
M  V30 1125 C 109.383 -1.40779 3.08167 0
M  V30 1126 C 107.942 -1.92072 3.23706 0
M  V30 1127 C 107.089 -0.786347 2.65917 0
M  V30 1128 H 110.04 0.0182223 1.5869 0
M  V30 1129 H 110.061 -2.27696 3.04852 0
M  V30 1130 H 109.573 -0.627958 3.82986 0
M  V30 1131 H 107.674 -2.7281 2.53782 0
M  V30 1132 H 107.787 -2.09046 4.31087 0
M  V30 1133 H 106.151 -1.1976 2.24788 0
M  V30 1134 H 106.934 -0.0189416 3.43295 0
M  V30 1135 N 109.379 -1.50304 -0.473955 0
M  V30 1136 C 110.79 -1.54042 -1.0549 0
M  V30 1137 C 111.141 -0.342248 -1.93192 0
M  V30 1138 O 110.266 0.545157 -2.09421 0
M  V30 1139 C 110.861 -2.79152 -1.91989 0
M  V30 1140 C 109.42 -2.8558 -2.45196 0
M  V30 1141 C 108.567 -2.48295 -1.2347 0
M  V30 1142 H 111.518 -1.5661 -0.256693 0
M  V30 1143 H 111.539 -2.60845 -2.7702 0
M  V30 1144 H 111.051 -3.66339 -1.28131 0
M  V30 1145 H 109.152 -2.02738 -3.12615 0
M  V30 1146 H 109.265 -3.88403 -2.80499 0
M  V30 1147 H 107.629 -2.00669 -1.56856 0
M  V30 1148 H 108.412 -3.37787 -0.612789 0
M  V30 1149 N 110.857 0.726932 -1.39834 0
M  V30 1150 C 112.082 1.52121 -1.40976 0
M  V30 1151 C 112.507 1.88098 -0.00826029 0
M  V30 1152 O 111.865 1.52479 0.980807 0
M  V30 1153 C 111.913 2.78021 -2.29644 0
M  V30 1154 O 111.017 3.74272 -1.73188 0
M  V30 1155 H 110.358 0.45908 -0.479731 0
M  V30 1156 H 112.888 0.896207 -1.83927 0
M  V30 1157 H 112.898 3.26671 -2.44438 0
M  V30 1158 H 111.573 2.51169 -3.31492 0
M  V30 1159 H 110.15 3.33073 -1.6768 0
M  V30 1160 N 112.336 1.25143 0.95797 0
M  V30 1161 C 113.561 1.12521 1.74223 0
M  V30 1162 C 113.986 -0.317402 1.85403 0
M  V30 1163 O 113.344 -1.2299 1.33204 0
M  V30 1164 C 113.392 1.78062 3.1357 0
M  V30 1165 O 112.496 1.058 3.98598 0
M  V30 1166 H 111.837 0.39304 0.535178 0
M  V30 1167 H 114.367 1.65641 1.201 0
M  V30 1168 H 114.377 1.84213 3.64046 0
M  V30 1169 H 113.052 2.83021 3.04749 0
M  V30 1170 H 111.629 1.07506 3.57067 0
M  V30 1171 N 113.814 -1.1601 1.06675 0
M  V30 1172 C 115.039 -1.91068 0.806706 0
M  V30 1173 C 115.464 -1.77112 -0.633485 0
M  V30 1174 O 114.822 -1.09908 -1.44187 0
M  V30 1175 C 114.87 -3.39655 1.21106 0
M  V30 1176 O 113.974 -4.10893 0.352189 0
M  V30 1177 H 113.315 -0.595125 0.294486 0
M  V30 1178 H 115.845 -1.46955 1.42356 0
M  V30 1179 H 115.855 -3.90434 1.18428 0
M  V30 1180 H 114.53 -3.49132 2.26008 0
M  V30 1181 H 113.107 -3.70285 0.440868 0
M  V30 1182 N 115.292 -0.849877 -1.32721 0
M  V30 1183 C 116.202 -0.293791 -2.32753 0
M  V30 1184 C 117.218 0.585906 -1.63839 0
M  V30 1185 O 118.394 0.487413 -1.95413 0
M  V30 1186 C 115.459 0.512752 -3.42887 0
M  V30 1187 C 114.52 -0.39252 -4.27502 0
M  V30 1188 C 113.753 0.375625 -5.32377 0
M  V30 1189 O 113.976 1.60613 -5.4732 0
M  V30 1190 O 112.91 -0.256094 -6.01355 0
M  V30 1191 H 116.736 -1.12242 -2.82197 0
M  V30 1192 H 114.321 -0.612685 -1.36259 0
M  V30 1193 H 116.203 0.970704 -4.10067 0
M  V30 1194 H 114.878 1.31826 -2.95641 0
M  V30 1195 H 113.785 -0.898547 -3.63149 0
M  V30 1196 H 115.118 -1.16309 -4.7826 0
M  V30 1197 N 116.77 1.45427 -0.607355 0
M  V30 1198 C 117.7 2.3329 0.0989352 0
M  V30 1199 C 118.681 1.46816 0.859007 0
M  V30 1200 O 119.866 1.75588 0.829604 0
M  V30 1201 C 116.996 3.29518 1.09705 0
M  V30 1202 C 115.95 4.25626 0.450206 0
M  V30 1203 C 115.276 5.11542 1.55655 0
M  V30 1204 C 116.576 5.18505 -0.628455 0
M  V30 1205 H 118.27 2.92595 -0.634716 0
M  V30 1206 H 115.816 1.40696 -0.306681 0
M  V30 1207 H 117.769 3.89855 1.59971 0
M  V30 1208 H 116.493 2.68372 1.86129 0
M  V30 1209 H 115.152 3.66586 -0.0315886 0
M  V30 1210 H 114.8 4.46765 2.31107 0
M  V30 1211 H 114.5 5.76647 1.12925 0
M  V30 1212 H 116.024 5.74748 2.06148 0
M  V30 1213 H 117.438 5.72916 -0.209877 0
M  V30 1214 H 115.835 5.92085 -0.977489 0
M  V30 1215 H 116.905 4.60948 -1.50514 0
M  V30 1216 N 118.248 0.346503 1.53744 0
M  V30 1217 C 119.195 -0.508914 2.25119 0
M  V30 1218 C 120.165 -1.09315 1.25058 0
M  V30 1219 O 121.35 -1.12921 1.53797 0
M  V30 1220 C 118.49 -1.65246 3.02965 0
M  V30 1221 C 117.603 -1.09525 4.17886 0
M  V30 1222 C 116.738 -2.20634 4.83212 0
M  V30 1223 C 115.777 -1.62279 5.90196 0
M  V30 1224 N 114.914 -2.67143 6.49291 0
M  V30 1225 H 119.754 0.106283 2.9781 0
M  V30 1226 H 117.291 0.0642227 1.4696 0
M  V30 1227 H 119.249 -2.32574 3.4636 0
M  V30 1228 H 117.879 -2.2386 2.32565 0
M  V30 1229 H 116.931 -0.312818 3.79112 0
M  V30 1230 H 118.243 -0.628444 4.94825 0
M  V30 1231 H 117.397 -2.95821 5.29693 0
M  V30 1232 H 116.136 -2.70659 4.05703 0
M  V30 1233 H 115.141 -0.855989 5.43096 0
M  V30 1234 H 116.366 -1.13102 6.69615 0
M  V30 1235 H 114.312 -3.16417 5.74645 0
M  V30 1236 H 114.229 -2.25093 7.21713 0
M  V30 1237 H 115.497 -3.4209 7.00425 0
M  V30 1238 N 119.726 -1.57421 0.075193 0
M  V30 1239 C 120.689 -2.11791 -0.876203 0
M  V30 1240 C 121.689 -1.04268 -1.22412 0
M  V30 1241 O 122.879 -1.30242 -1.15684 0
M  V30 1242 C 120.011 -2.62207 -2.17854 0
M  V30 1243 H 121.204 -2.9716 -0.40444 0
M  V30 1244 H 118.757 -1.55333 -0.173557 0
M  V30 1245 H 119.492 -1.803 -2.6956 0
M  V30 1246 H 119.277 -3.40802 -1.93897 0
M  V30 1247 H 120.767 -3.04335 -2.85955 0
M  V30 1248 N 121.204 0.198386 -1.56346 0
M  V30 1249 C 122.452 0.91747 -1.80075 0
M  V30 1250 C 122.773 1.83929 -0.647692 0
M  V30 1251 O 122.043 1.93029 0.334166 0
M  V30 1252 H 120.623 0.341774 -0.664228 0
M  V30 1253 H 123.285 0.204684 -1.93822 0
M  V30 1254 H 122.381 1.51055 -2.7311 0
M  V30 1255 N 122.682 1.50554 0.465978 0
M  V30 1256 C 124.098 1.38093 0.800154 0
M  V30 1257 C 124.298 0.440988 1.96615 0
M  V30 1258 O 123.354 -0.114499 2.5224 0
M  V30 1259 C 124.667 2.79565 1.10742 0
M  V30 1260 C 126.215 2.88516 1.21357 0
M  V30 1261 C 126.69 4.30833 1.55393 0
M  V30 1262 N 128.181 4.33807 1.62375 0
M  V30 1263 C 128.916 5.40927 1.90225 0
M  V30 1264 N 128.412 6.58247 2.16062 0
M  V30 1265 N 130.205 5.28376 1.9177 0
M  V30 1266 H 122.356 2.10237 -0.302366 0
M  V30 1267 H 124.619 0.945203 -0.0727746 0
M  V30 1268 H 124.325 3.50208 0.323661 0
M  V30 1269 H 124.199 3.17125 2.04234 0
M  V30 1270 H 126.586 2.1809 1.98799 0
M  V30 1271 H 126.667 2.54492 0.258321 0
M  V30 1272 H 126.311 5.01799 0.784889 0
M  V30 1273 H 126.241 4.62347 2.52076 0
M  V30 1274 H 128.732 3.49212 1.44427 0
M  V30 1275 H 129.045 7.3569 2.36601 0
M  V30 1276 H 127.39 6.61413 2.13444 0
M  V30 1277 H 130.581 4.35715 1.71085 0
M  V30 1278 H 130.754 6.11944 2.13139 0
M  V30 1279 N 124.16 -0.719506 1.40217 0
M  V30 1280 C 125.571 -1.29848 1.34151 0
M  V30 1281 C 125.922 -1.96196 0.0131349 0
M  V30 1282 O 125.047 -1.973 -0.88892 0
M  V30 1283 C 125.642 -2.36118 2.42968 0
M  V30 1284 C 124.201 -2.8965 2.40374 0
M  V30 1285 C 123.348 -1.63393 2.24049 0
M  V30 1286 H 126.299 -0.51591 1.5008 0
M  V30 1287 H 126.32 -3.16871 2.10649 0
M  V30 1288 H 125.832 -1.878 3.39636 0
M  V30 1289 H 123.933 -3.42208 1.47392 0
M  V30 1290 H 124.046 -3.4171 3.35814 0
M  V30 1291 H 122.41 -1.88312 1.71495 0
M  V30 1292 H 123.193 -1.17104 3.2271 0
M  V30 1293 N 125.638 -1.25649 -0.95132 0
M  V30 1294 C 126.548 -1.08073 -2.08224 0
M  V30 1295 C 127.564 -0.0169666 -1.73992 0
M  V30 1296 O 128.74 -0.218593 -2.0021 0
M  V30 1297 C 125.805 -0.704922 -3.39458 0
M  V30 1298 C 124.866 -1.84699 -3.87537 0
M  V30 1299 C 124.099 -1.48902 -5.12508 0
M  V30 1300 O 124.322 -0.386156 -5.69091 0
M  V30 1301 O 123.256 -2.32033 -5.55378 0
M  V30 1302 H 127.082 -2.02924 -2.25954 0
M  V30 1303 H 124.667 -1.04618 -1.06656 0
M  V30 1304 H 126.549 -0.507609 -4.18332 0
M  V30 1305 H 125.224 0.214291 -3.2299 0
M  V30 1306 H 124.131 -2.09919 -3.09653 0
M  V30 1307 H 125.464 -2.74557 -4.08509 0
M  V30 1308 N 127.117 1.15442 -1.07289 0
M  V30 1309 C 128.08 2.18358 -0.696591 0
M  V30 1310 C 129.08 1.58637 0.262837 0
M  V30 1311 O 130.27 1.74145 0.0438809 0
M  V30 1312 C 127.402 3.4089 -0.0266151 0
M  V30 1313 H 128.595 2.53162 -1.60776 0
M  V30 1314 H 126.148 1.29893 -0.869342 0
M  V30 1315 H 126.883 3.11653 0.896822 0
M  V30 1316 H 126.668 3.85495 -0.716657 0
M  V30 1317 H 128.158 4.17009 0.222028 0
M  V30 1318 N 128.595 0.856903 1.32268 0
M  V30 1319 C 130.011 0.547061 1.49931 0
M  V30 1320 C 130.211 -0.921781 1.7918 0
M  V30 1321 O 129.267 -1.70469 1.8627 0
M  V30 1322 C 130.58 1.43599 2.64196 0
M  V30 1323 C 132.128 1.43665 2.78081 0
M  V30 1324 C 132.603 2.31085 3.95428 0
M  V30 1325 N 134.094 2.28893 4.02694 0
M  V30 1326 C 134.829 2.93262 4.92732 0
M  V30 1327 N 134.325 3.66751 5.87763 0
M  V30 1328 N 136.118 2.82638 4.85873 0
M  V30 1329 H 128.269 1.8075 1.11549 0
M  V30 1330 H 130.532 0.772144 0.549997 0
M  V30 1331 H 130.238 2.48058 2.49319 0
M  V30 1332 H 130.112 1.12502 3.60032 0
M  V30 1333 H 132.499 0.399701 2.92381 0
M  V30 1334 H 132.58 1.7878 1.82952 0
M  V30 1335 H 132.224 3.34849 3.81888 0
M  V30 1336 H 132.154 1.93302 4.89839 0
M  V30 1337 H 134.645 1.75466 3.34694 0
M  V30 1338 H 134.958 4.13027 6.53168 0
M  V30 1339 H 133.303 3.70859 5.87783 0
M  V30 1340 H 136.494 2.24774 4.10602 0
M  V30 1341 H 136.667 3.33084 5.55841 0
M  V30 1342 N 130.073 -1.45103 0.615059 0
M  V30 1343 C 131.321 -2.01784 0.112955 0
M  V30 1344 C 131.642 -1.48504 -1.26378 0
M  V30 1345 O 130.912 -0.682245 -1.83636 0
M  V30 1346 H 129.492 -0.745993 0.0387668 0
M  V30 1347 H 132.154 -1.77808 0.798141 0
M  V30 1348 H 131.25 -3.12025 0.0684069 0
M  V30 1349 N 131.551 -0.354651 -1.53558 0
M  V30 1350 C 132.776 0.242153 -2.05981 0
M  V30 1351 C 133.201 1.42553 -1.2272 0
M  V30 1352 O 132.559 1.79656 -0.243604 0
M  V30 1353 C 132.607 0.624367 -3.55154 0
M  V30 1354 O 131.711 1.72301 -3.74681 0
M  V30 1355 H 131.052 0.0378432 -0.662921 0
M  V30 1356 H 133.582 -0.512087 -1.98088 0
M  V30 1357 H 133.592 0.898433 -3.97985 0
M  V30 1358 H 132.267 -0.240989 -4.15201 0
M  V30 1359 H 130.844 1.44535 -3.4375 0
M  V30 1360 N 133.029 1.57378 -0.0835403 0
M  V30 1361 C 133.959 2.1641 0.87686 0
M  V30 1362 C 134.94 1.09429 1.30228 0
M  V30 1363 O 136.125 1.37516 1.37124 0
M  V30 1364 C 133.255 2.73517 2.14022 0
M  V30 1365 C 132.209 3.85769 1.85381 0
M  V30 1366 C 131.535 4.29529 3.18448 0
M  V30 1367 C 132.835 5.09486 1.14984 0
M  V30 1368 H 134.529 2.96914 0.385059 0
M  V30 1369 H 132.075 1.42823 0.18377 0
M  V30 1370 H 134.028 3.13463 2.81636 0
M  V30 1371 H 132.752 1.90252 2.65465 0
M  V30 1372 H 131.411 3.46345 1.20169 0
M  V30 1373 H 131.059 3.43169 3.67755 0
M  V30 1374 H 130.759 5.05204 3.00071 0
M  V30 1375 H 132.283 4.72099 3.8724 0
M  V30 1376 H 133.697 5.46674 1.72687 0
M  V30 1377 H 132.094 5.90515 1.06826 0
M  V30 1378 H 133.164 4.84724 0.130749 0
M  V30 1379 N 134.507 -0.190092 1.56449 0
M  V30 1380 C 135.47 -1.21925 1.9408 0
M  V30 1381 C 136.47 -1.38176 0.822431 0
M  V30 1382 O 137.66 -1.35903 1.08977 0
M  V30 1383 C 134.792 -2.58773 2.21922 0
M  V30 1384 H 135.985 -0.897464 2.86157 0
M  V30 1385 H 133.538 -0.43181 1.50217 0
M  V30 1386 H 134.273 -2.95998 1.32499 0
M  V30 1387 H 134.058 -2.48348 3.03424 0
M  V30 1388 H 135.548 -3.32978 2.52022 0
M  V30 1389 N 135.985 -1.50799 -0.457987 0
M  V30 1390 C 136.915 -1.73553 -1.5621 0
M  V30 1391 C 137.896 -0.584774 -1.59732 0
M  V30 1392 O 139.081 -0.825314 -1.7579 0
M  V30 1393 C 136.211 -1.84169 -2.94447 0
M  V30 1394 C 135.165 -2.99461 -3.0579 0
M  V30 1395 C 134.491 -2.95235 -4.45803 0
M  V30 1396 C 135.791 -4.39766 -2.81786 0
M  V30 1397 H 137.485 -2.66 -1.37421 0
M  V30 1398 H 135.031 -1.28002 -0.659662 0
M  V30 1399 H 136.984 -1.98672 -3.71628 0
M  V30 1400 H 135.708 -0.883545 -3.14422 0
M  V30 1401 H 134.367 -2.8463 -2.31044 0
M  V30 1402 H 134.015 -1.97239 -4.62715 0
M  V30 1403 H 133.715 -3.72642 -4.54326 0
M  V30 1404 H 135.239 -3.11803 -5.24987 0
M  V30 1405 H 136.653 -4.55054 -3.4871 0
M  V30 1406 H 135.05 -5.18722 -3.0174 0
M  V30 1407 H 136.12 -4.51229 -1.7754 0
M  V30 1408 N 137.463 0.71206 -1.40597 0
M  V30 1409 C 138.74 1.46536 -1.29563 0
M  V30 1410 C 139.12 2.10931 0.0844217 0
M  V30 1411 O 138.468 2.00418 1.0975 0
M  V30 1412 C 138.678 2.49821 -2.43701 0
M  V30 1413 C 140.026 3.15551 -2.841 0
M  V30 1414 O 141.05 2.60142 -2.4332 0
M  V30 1415 O 139.909 4.15867 -3.54566 0
M  V30 1416 H 137.003 0.651801 -0.509004 0
M  V30 1417 H 139.549 0.743935 -1.52524 0
M  V30 1418 H 138.321 2.00778 -3.35863 0
M  V30 1419 H 137.944 3.29495 -2.22528 0
M  V30 1420 N 138.941 1.26152 0.944643 0
M  V30 1421 C 140.181 1.12708 1.70517 0
M  V30 1422 C 140.545 -0.324727 1.89234 0
M  V30 1423 O 141.746 -0.581211 2.62441 0
M  V30 1424 C 140.017 1.8713 3.04495 0
M  V30 1425 S 141.576 1.89698 3.95677 0
M  V30 1426 H 138.394 0.402665 0.585988 0
M  V30 1427 H 140.996 1.59821 1.12594 0
M  V30 1428 H 139.7 2.91833 2.88551 0
M  V30 1429 H 139.231 1.40444 3.67477 0
M  V30 1430 H 141.246 0.981198 4.86402 0
M  V30 1431 N 140.419 -1.14872 1.07899 0
M  V30 1432 C 141.382 -2.17986 0.708161 0
M  V30 1433 C 142.382 -1.58775 -0.25442 0
M  V30 1434 O 143.572 -1.74166 -0.034645 0
M  V30 1435 C 140.704 -3.40871 0.0446929 0
M  V30 1436 H 141.897 -2.52306 1.62116 0
M  V30 1437 H 139.45 -1.2943 0.876218 0
M  V30 1438 H 140.185 -3.12124 -0.880281 0
M  V30 1439 H 139.97 -3.8511 0.737091 0
M  V30 1440 H 141.46 -4.17121 -0.19991 0
M  V30 1441 N 141.898 -0.863906 -1.31812 0
M  V30 1442 C 143.309 -0.52522 -1.7916 0
M  V30 1443 C 143.66 0.957518 -1.71248 0
M  V30 1444 O 142.785 1.74734 -1.27659 0
M  V30 1445 C 143.38 -0.9466 -3.25307 0
M  V30 1446 C 141.939 -0.659668 -3.70574 0
M  V30 1447 C 141.086 -1.14126 -2.52726 0
M  V30 1448 H 144.037 -1.05022 -1.1898 0
M  V30 1449 H 144.058 -0.266766 -3.79564 0
M  V30 1450 H 143.57 -2.02579 -3.31034 0
M  V30 1451 H 141.671 0.408416 -3.70355 0
M  V30 1452 H 141.784 -1.23245 -4.62977 0
M  V30 1453 H 140.148 -0.561216 -2.4844 0
M  V30 1454 H 140.931 -2.22775 -2.61201 0
M  V30 1455 N 143.376 1.44774 -0.622745 0
M  V30 1456 C 144.306 2.33382 0.0741861 0
M  V30 1457 C 145.287 1.47719 0.843387 0
M  V30 1458 O 146.472 1.76458 0.810934 0
M  V30 1459 C 143.602 3.30663 1.06204 0
M  V30 1460 C 142.556 4.26079 0.405037 0
M  V30 1461 C 141.882 5.13165 1.5022 0
M  V30 1462 C 143.182 5.1781 -0.683414 0
M  V30 1463 H 144.876 2.91905 -0.665713 0
M  V30 1464 H 142.422 1.40363 -0.321587 0
M  V30 1465 H 144.375 3.9153 1.55827 0
M  V30 1466 H 143.099 2.70331 1.83272 0
M  V30 1467 H 141.758 3.66532 -0.0704683 0
M  V30 1468 H 141.406 4.49191 2.26355 0
M  V30 1469 H 141.106 5.77812 1.06803 0
M  V30 1470 H 142.63 5.76902 2.00041 0
M  V30 1471 H 144.044 5.72661 -0.270631 0
M  V30 1472 H 142.441 5.91015 -1.04023 0
M  V30 1473 H 143.511 4.59326 -1.55395 0
M  V30 1474 N 144.854 0.36279 1.53368 0
M  V30 1475 C 145.784 -0.476976 2.28576 0
M  V30 1476 C 146.765 -1.08631 1.30894 0
M  V30 1477 O 147.95 -1.10409 1.59761 0
M  V30 1478 C 145.08 -1.61828 3.07293 0
M  V30 1479 C 144.034 -1.13633 4.1264 0
M  V30 1480 C 143.36 -2.36766 4.79423 0
M  V30 1481 C 144.66 -0.223061 5.21823 0
M  V30 1482 H 146.354 0.150474 2.99022 0
M  V30 1483 H 143.9 0.0738103 1.43811 0
M  V30 1484 H 145.853 -2.21237 3.58653 0
M  V30 1485 H 144.577 -2.27292 2.34533 0
M  V30 1486 H 143.236 -0.564945 3.62221 0
M  V30 1487 H 142.884 -3.0068 4.03238 0
M  V30 1488 H 142.584 -2.05192 5.50609 0
M  V30 1489 H 144.108 -2.96865 5.33576 0
M  V30 1490 H 145.522 -0.724545 5.68703 0
M  V30 1491 H 143.919 0.001678 6.001 0
M  V30 1492 H 144.989 0.735553 4.79289 0
M  V30 1493 N 146.332 -1.57332 0.0918853 0
M  V30 1494 C 147.748 -1.57389 -0.264766 0
M  V30 1495 C 147.948 -1.10281 -1.68643 0
M  V30 1496 O 147.004 -0.777801 -2.40222 0
M  V30 1497 C 148.317 -3.00648 -0.0561195 0
M  V30 1498 C 149.865 -3.12754 -0.124116 0
M  V30 1499 C 150.34 -4.57965 0.0564972 0
M  V30 1500 N 151.831 -4.632 0.00155611 0
M  V30 1501 C 152.566 -5.73281 0.116598 0
M  V30 1502 N 152.062 -6.92208 0.286294 0
M  V30 1503 N 153.855 -5.6207 0.0580973 0
M  V30 1504 H 146.006 -1.86262 1.02079 0
M  V30 1505 H 148.269 -0.859579 0.399786 0
M  V30 1506 H 147.975 -3.393 0.925669 0
M  V30 1507 H 147.849 -3.68623 -0.799823 0
M  V30 1508 H 150.236 -2.73976 -1.09641 0
M  V30 1509 H 150.317 -2.47377 0.651024 0
M  V30 1510 H 149.961 -4.97436 1.02564 0
M  V30 1511 H 149.891 -5.21399 -0.738297 0
M  V30 1512 H 152.382 -3.77686 -0.127192 0
M  V30 1513 H 152.695 -7.71934 0.365676 0
M  V30 1514 H 151.04 -6.94254 0.32192 0
M  V30 1515 H 154.231 -4.68043 -0.0733204 0
M  V30 1516 H 154.404 -6.47824 0.151203 0
M  V30 1517 N 147.81 0.181792 -1.56548 0
M  V30 1518 C 148.74 1.22765 -1.98623 0
M  V30 1519 C 149.721 1.46747 -0.860189 0
M  V30 1520 O 150.906 1.58259 -1.12551 0
M  V30 1521 C 148.036 2.56894 -2.33715 0
M  V30 1522 C 146.99 2.475 -3.49182 0
M  V30 1523 C 146.316 3.86023 -3.69986 0
M  V30 1524 C 147.616 1.98866 -4.82959 0
M  V30 1525 H 149.31 0.877942 -2.86239 0
M  V30 1526 H 146.856 0.42088 -1.37712 0
M  V30 1527 H 148.809 3.30253 -2.61746 0
M  V30 1528 H 147.533 2.93632 -1.42997 0
M  V30 1529 H 146.192 1.76596 -3.21262 0
M  V30 1530 H 145.84 4.20136 -2.76576 0
M  V30 1531 H 145.54 3.80609 -4.47672 0
M  V30 1532 H 147.064 4.60984 -4.00407 0
M  V30 1533 H 148.478 2.61992 -5.09934 0
M  V30 1534 H 146.875 2.04424 -5.64208 0
M  V30 1535 H 147.945 0.942465 -4.75653 0
M  V30 1536 N 149.288 1.51039 0.449983 0
M  V30 1537 C 150.218 1.74379 1.55288 0
M  V30 1538 C 151.199 0.593236 1.5942 0
M  V30 1539 O 152.384 0.834625 1.7535 0
M  V30 1540 C 149.514 1.85728 2.93466 0
M  V30 1541 C 148.468 3.01078 3.04197 0
M  V30 1542 C 147.794 2.97595 4.44231 0
M  V30 1543 C 149.094 4.41254 2.7945 0
M  V30 1544 H 150.788 2.66725 1.36008 0
M  V30 1545 H 148.334 1.2835 0.652864 0
M  V30 1546 H 150.287 2.0064 3.70569 0
M  V30 1547 H 149.011 0.900207 3.13949 0
M  V30 1548 H 147.67 2.85851 2.29531 0
M  V30 1549 H 147.318 1.99691 4.61663 0
M  V30 1550 H 147.018 3.75046 4.52343 0
M  V30 1551 H 148.542 3.14583 5.23326 0
M  V30 1552 H 149.956 4.56897 3.46292 0
M  V30 1553 H 148.353 5.20315 2.98985 0
M  V30 1554 H 149.423 4.52164 1.75144 0
M  V30 1555 N 150.766 -0.704594 1.40972 0
M  V30 1556 C 152.014 -1.46169 1.39568 0
M  V30 1557 C 152.335 -1.95 0.00253745 0
M  V30 1558 O 151.605 -1.71095 -0.954114 0
M  V30 1559 H 150.185 -0.542326 0.513704 0
M  V30 1560 H 152.847 -0.834553 1.76128 0
M  V30 1561 H 151.943 -2.32922 2.07735 0
M  V30 1562 N 152.244 -1.26651 -0.937939 0
M  V30 1563 C 153.655 -1.1125 -1.49934 0
M  V30 1564 C 154.006 0.306077 -1.93798 0
M  V30 1565 O 153.131 1.19792 -1.80219 0
M  V30 1566 C 153.726 -2.01339 -2.72485 0
M  V30 1567 C 152.285 -1.90074 -3.24883 0
M  V30 1568 C 151.432 -1.94498 -1.97651 0
M  V30 1569 H 154.383 -1.39693 -0.753091 0
M  V30 1570 H 154.404 -1.56319 -3.46907 0
M  V30 1571 H 153.916 -3.04577 -2.40529 0
M  V30 1572 H 152.017 -0.897827 -3.61621 0
M  V30 1573 H 152.13 -2.75778 -3.9177 0
M  V30 1574 H 150.494 -1.38591 -2.13693 0
M  V30 1575 H 151.277 -2.99372 -1.68022 0
M  V30 1576 N 153.722 1.14298 -1.08507 0
M  V30 1577 C 154.685 2.17607 -0.719711 0
M  V30 1578 C 155.685 1.58907 0.245997 0
M  V30 1579 O 156.875 1.74181 0.0254081 0
M  V30 1580 C 154.007 3.40842 -0.0627695 0
M  V30 1581 H 155.2 2.51443 -1.63452 0
M  V30 1582 H 152.753 1.28963 -0.88307 0
M  V30 1583 H 153.488 3.12587 0.863716 0
M  V30 1584 H 153.273 3.84713 -0.757504 0
M  V30 1585 H 154.763 4.17221 0.177786 0
M  V30 1586 N 155.201 0.870884 1.31352 0
M  V30 1587 C 156.612 0.534714 1.78879 0
M  V30 1588 C 156.963 -0.948423 1.71754 0
M  V30 1589 O 156.088 -1.74055 1.28584 0
M  V30 1590 C 156.683 0.963839 3.24801 0
M  V30 1591 C 155.242 0.679311 3.70219 0
M  V30 1592 C 154.389 1.15465 2.52117 0
M  V30 1593 H 157.34 1.05651 1.18421 0
M  V30 1594 H 157.361 0.286892 3.79417 0
M  V30 1595 H 156.873 2.04332 3.29955 0
M  V30 1596 H 154.974 -0.388769 3.70566 0
M  V30 1597 H 155.087 1.25698 4.62317 0
M  V30 1598 H 153.451 0.574383 2.48139 0
M  V30 1599 H 154.234 2.24157 2.60016 0
M  V30 1600 N 156.679 -1.44442 0.630414 0
M  V30 1601 C 157.927 -2.01653 0.134351 0
M  V30 1602 C 158.248 -1.49836 -1.24796 0
M  V30 1603 O 157.518 -0.701684 -1.82902 0
M  V30 1604 H 156.098 -0.74554 0.0466769 0
M  V30 1605 H 158.76 -1.76952 0.816955 0
M  V30 1606 H 157.856 -3.11935 0.101498 0
M  V30 1607 N 158.157 -0.370918 -1.53173 0
M  V30 1608 C 159.403 0.217423 -2.01631 0
M  V30 1609 C 159.736 1.47983 -1.25756 0
M  V30 1610 O 159.011 1.91274 -0.352764 0
M  V30 1611 C 159.294 0.503982 -3.56556 0
M  V30 1612 C 159.147 -0.77243 -4.43118 0
M  V30 1613 C 160.466 1.30234 -4.20389 0
M  V30 1614 H 157.585 0.0775486 -0.732909 0
M  V30 1615 H 160.227 -0.496863 -1.83388 0
M  V30 1616 H 158.377 1.11248 -3.72231 0
M  V30 1617 H 160.049 -1.4098 -4.39229 0
M  V30 1618 H 158.292 -1.39167 -4.10871 0
M  V30 1619 H 158.963 -0.526815 -5.4948 0
M  V30 1620 H 161.439 0.787546 -4.08579 0
M  V30 1621 H 160.315 1.47158 -5.28806 0
M  V30 1622 H 160.576 2.31237 -3.76805 0
M  V30 1623 N 159.635 1.57281 -0.100228 0
M  V30 1624 C 160.86 1.99302 0.573881 0
M  V30 1625 C 161.285 0.979059 1.60611 0
M  V30 1626 O 160.643 -0.0517803 1.81226 0
M  V30 1627 C 160.691 3.40274 1.19358 0
M  V30 1628 O 159.795 3.41676 2.30935 0
M  V30 1629 H 159.136 0.647944 0.145138 0
M  V30 1630 H 161.666 2.03779 -0.183156 0
M  V30 1631 H 161.676 3.78078 1.53365 0
M  V30 1632 H 160.351 4.13594 0.437385 0
M  V30 1633 H 158.928 3.15672 1.98509 0
M  V30 1634 N 161.113 -0.173488 1.56642 0
M  V30 1635 C 162.359 -0.887108 1.83035 0
M  V30 1636 C 162.714 -1.79965 0.680461 0
M  V30 1637 O 162.007 -1.88854 -0.323225 0
M  V30 1638 C 162.201 -1.72069 3.13252 0
M  V30 1639 C 162.03 -0.89035 4.40798 0
M  V30 1640 C 160.8 -0.566282 5.02117 0
M  V30 1641 C 162.998 -0.232921 5.13772 0
M  V30 1642 N 160.98 0.280427 6.13259 0
M  V30 1643 C 162.351 0.475046 6.18177 0
M  V30 1644 C 164.406 -0.150863 4.97671 0
M  V30 1645 C 163.109 1.25729 7.08227 0
M  V30 1646 C 165.135 0.618039 5.88162 0
M  V30 1647 C 164.497 1.31438 6.92029 0
M  V30 1648 H 160.596 -0.303303 0.720785 0
M  V30 1649 H 163.18 -0.154244 1.94088 0
M  V30 1650 H 161.351 -2.42499 3.03395 0
M  V30 1651 H 163.083 -2.37545 3.2765 0
M  V30 1652 H 159.838 -0.895852 4.6505 0
M  V30 1653 H 160.262 0.694027 6.73433 0
M  V30 1654 H 164.904 -0.674868 4.17379 0
M  V30 1655 H 162.622 1.79265 7.87966 0
M  V30 1656 H 166.208 0.683173 5.77775 0
M  V30 1657 H 165.088 1.89981 7.6084 0
M  V30 1658 N 162.591 -1.51276 -0.441967 0
M  V30 1659 C 163.819 -1.67516 -1.21434 0
M  V30 1660 C 164.234 -0.37055 -1.85128 0
M  V30 1661 O 163.591 0.650498 -1.70513 0
M  V30 1662 C 163.642 -2.78748 -2.30177 0
M  V30 1663 O 163.363 -4.04154 -1.69089 0
M  V30 1664 C 164.864 -3.06217 -3.20541 0
M  V30 1665 H 162.084 -0.562276 -0.366178 0
M  V30 1666 H 164.628 -1.97666 -0.524244 0
M  V30 1667 H 162.783 -2.5121 -2.94911 0
M  V30 1668 H 163.197 -4.65894 -2.40922 0
M  V30 1669 H 164.671 -3.8764 -3.92987 0
M  V30 1670 H 165.148 -2.18439 -3.81026 0
M  V30 1671 H 165.754 -3.35397 -2.61513 0
M  V30 1672 N 164.069 0.697108 -1.41344 0
M  V30 1673 C 165.032 1.79281 -1.42797 0
M  V30 1674 C 166.032 1.57607 -0.318837 0
M  V30 1675 O 167.222 1.64309 -0.578642 0
M  V30 1676 C 164.354 3.17632 -1.23785 0
M  V30 1677 H 165.547 1.79385 -2.40335 0
M  V30 1678 H 163.1 0.904582 -1.27464 0
M  V30 1679 H 163.835 3.23167 -0.270814 0
M  V30 1680 H 163.62 3.34765 -2.04144 0
M  V30 1681 H 165.11 3.97617 -1.27633 0
M  V30 1682 N 165.547 1.27147 0.931209 0
M  V30 1683 C 166.795 1.13055 1.6752 0
M  V30 1684 C 167.116 -0.324791 1.92276 0
M  V30 1685 O 166.386 -1.22775 1.52654 0
M  V30 1686 H 164.966 0.415391 0.620854 0
M  V30 1687 H 167.628 1.59623 1.11833 0
M  V30 1688 H 166.724 1.65694 2.64485 0
M  V30 1689 N 167.025 -1.13721 1.09112 0
M  V30 1690 C 168.25 -1.89314 0.847053 0
M  V30 1691 C 168.675 -1.78416 -0.595774 0
M  V30 1692 O 168.033 -1.12942 -1.41823 0
M  V30 1693 C 168.081 -3.3701 1.28284 0
M  V30 1694 O 167.185 -4.10054 0.439267 0
M  V30 1695 H 166.526 -0.588745 0.307044 0
M  V30 1696 H 169.056 -1.43902 1.45442 0
M  V30 1697 H 169.066 -3.87834 1.26683 0
M  V30 1698 H 167.741 -3.4426 2.33363 0
M  V30 1699 H 166.318 -3.69266 0.519312 0
M  V30 1700 N 168.503 -0.877838 -1.30888 0
M  V30 1701 C 169.914 -0.544193 -1.78593 0
M  V30 1702 C 170.265 0.939301 -1.72254 0
M  V30 1703 O 169.39 1.7337 -1.29505 0
M  V30 1704 C 169.985 -0.98105 -3.24285 0
M  V30 1705 C 168.544 -0.698935 -3.69854 0
M  V30 1706 C 167.691 -1.168 -2.51502 0
M  V30 1707 H 170.642 -1.06278 -1.17859 0
M  V30 1708 H 170.663 -0.307009 -3.79259 0
M  V30 1709 H 170.175 -2.06079 -3.28866 0
M  V30 1710 H 168.276 0.369112 -3.70767 0
M  V30 1711 H 168.389 -1.28148 -4.61644 0
M  V30 1712 H 166.753 -0.587535 -2.47831 0
M  V30 1713 H 167.536 -2.25533 -2.58824 0
M  V30 1714 N 169.982 1.44106 -0.638065 0
M  V30 1715 C 170.945 2.29138 0.0531013 0
M  V30 1716 C 171.945 1.41409 0.765506 0
M  V30 1717 O 173.135 1.63206 0.609046 0
M  V30 1718 C 170.267 3.23144 1.08584 0
M  V30 1719 H 171.46 2.91739 -0.694883 0
M  V30 1720 H 169.013 1.51134 -0.398538 0
M  V30 1721 H 169.748 2.65408 1.86357 0
M  V30 1722 H 169.533 3.87804 0.578852 0
M  V30 1723 H 171.023 3.87004 1.56899 0
M  V30 1724 N 171.46 0.379036 1.52974 0
M  V30 1725 C 172.871 -0.0972525 1.86447 0
M  V30 1726 C 173.222 -1.47027 1.29914 0
M  V30 1727 O 172.347 -2.07135 0.626433 0
M  V30 1728 C 172.942 -0.183248 3.38304 0
M  V30 1729 C 171.501 -0.603812 3.71525 0
M  V30 1730 C 170.648 0.240632 2.76254 0
M  V30 1731 H 173.599 0.597316 1.4703 0
M  V30 1732 H 173.62 -1.00432 3.67006 0
M  V30 1733 H 173.132 0.816191 3.79421 0
M  V30 1734 H 171.233 -1.61099 3.35973 0
M  V30 1735 H 171.346 -0.369086 4.77676 0
M  V30 1736 H 169.71 -0.292548 2.53014 0
M  V30 1737 H 170.493 1.23786 3.20206 0
M  V30 1738 N 172.938 -1.57226 0.108567 0
M  V30 1739 C 173.901 -2.13602 -0.831082 0
M  V30 1740 C 174.901 -1.06841 -1.20173 0
M  V30 1741 O 176.091 -1.32666 -1.12895 0
M  V30 1742 C 173.223 -2.66769 -2.12243 0
M  V30 1743 H 174.416 -2.97951 -0.341317 0
M  V30 1744 H 171.969 -1.55667 -0.14057 0
M  V30 1745 H 172.704 -1.85977 -2.65675 0
M  V30 1746 H 172.489 -3.44839 -1.86625 0
M  V30 1747 H 173.979 -3.10332 -2.79435 0
M  V30 1748 N 174.416 0.165178 -1.56732 0
M  V30 1749 C 175.326 1.22423 -2.00125 0
M  V30 1750 C 176.342 1.48084 -0.913619 0
M  V30 1751 O 177.518 1.60112 -1.22172 0
M  V30 1752 C 174.583 2.54197 -2.35764 0
M  V30 1753 C 173.644 2.36343 -3.58386 0
M  V30 1754 C 172.877 3.61834 -3.92316 0
M  V30 1755 O 173.1 4.67267 -3.27135 0
M  V30 1756 O 172.034 3.55579 -4.85641 0
M  V30 1757 H 175.86 0.885886 -2.90492 0
M  V30 1758 H 173.445 0.372518 -1.44681 0
M  V30 1759 H 175.327 3.3192 -2.59629 0
M  V30 1760 H 174.002 2.87598 -1.48557 0
M  V30 1761 H 172.909 1.56632 -3.39731 0
M  V30 1762 H 174.242 2.07865 -4.46154 0
M  V30 1763 N 175.894 1.51508 0.433938 0
M  V30 1764 C 176.857 1.72473 1.50949 0
M  V30 1765 C 177.857 0.594725 1.49398 0
M  V30 1766 O 179.047 0.862315 1.5136 0
M  V30 1767 C 176.179 1.78431 2.90474 0
M  V30 1768 H 177.372 2.68467 1.33662 0
M  V30 1769 H 174.925 1.41549 0.662836 0
M  V30 1770 H 175.66 0.842645 3.13161 0
M  V30 1771 H 175.445 2.60558 2.93005 0
M  V30 1772 H 176.935 1.96479 3.68491 0
M  V30 1773 N 177.372 -0.689602 1.41712 0
M  V30 1774 C 178.788 -1.00093 1.24312 0
M  V30 1775 C 178.988 -2.01036 0.136729 0
M  V30 1776 O 178.044 -2.47562 -0.496918 0
M  V30 1777 C 179.357 -1.51985 2.59463 0
M  V30 1778 C 180.905 -1.63838 2.66695 0
M  V30 1779 C 181.38 -2.1913 4.02177 0
M  V30 1780 N 182.871 -2.26483 4.04054 0
M  V30 1781 C 183.606 -2.70306 5.0569 0
M  V30 1782 N 183.102 -3.13691 6.17713 0
M  V30 1783 N 184.895 -2.69923 4.9305 0
M  V30 1784 H 177.046 -0.0210029 2.1239 0
M  V30 1785 H 179.309 -0.0718733 0.945272 0
M  V30 1786 H 179.015 -0.85269 3.41207 0
M  V30 1787 H 178.889 -2.50103 2.82362 0
M  V30 1788 H 181.276 -2.29664 1.85306 0
M  V30 1789 H 181.357 -0.642492 2.476 0
M  V30 1790 H 181.001 -1.53918 4.84016 0
M  V30 1791 H 180.931 -3.19482 4.18615 0
M  V30 1792 H 183.422 -1.95874 3.23174 0
M  V30 1793 H 183.735 -3.45773 6.9113 0
M  V30 1794 H 182.08 -3.11585 6.21241 0
M  V30 1795 H 185.271 -2.35382 4.04614 0
M  V30 1796 H 185.444 -3.03758 5.72394 0
M  V30 1797 N 178.85 -1.27639 -0.924453 0
M  V30 1798 C 180.078 -1.16989 -1.70649 0
M  V30 1799 C 180.493 0.272869 -1.86818 0
M  V30 1800 O 179.85 1.18549 -1.38753 0
M  V30 1801 C 179.901 -1.85229 -3.10439 0
M  V30 1802 O 179.622 -3.23868 -2.95028 0
M  V30 1803 C 181.123 -1.80746 -4.04779 0
M  V30 1804 H 178.343 -0.406595 -0.53378 0
M  V30 1805 H 180.887 -1.68569 -1.15778 0
M  V30 1806 H 179.042 -1.37545 -3.6216 0
M  V30 1807 H 179.456 -3.57889 -3.83426 0
M  V30 1808 H 180.93 -2.33101 -5.00368 0
M  V30 1809 H 181.407 -0.777499 -4.32263 0
M  V30 1810 H 182.013 -2.28059 -3.58984 0
M  V30 1811 N 180.328 1.1314 -1.09713 0
M  V30 1812 C 181.258 2.20748 -0.761102 0
M  V30 1813 C 182.239 1.68061 0.262566 0
M  V30 1814 O 183.424 1.93765 0.129977 0
M  V30 1815 C 180.554 3.46812 -0.184054 0
M  V30 1816 C 179.508 4.12606 -1.13757 0
M  V30 1817 C 178.834 5.33031 -0.422083 0
M  V30 1818 C 180.134 4.59603 -2.48118 0
M  V30 1819 H 181.828 2.49113 -1.66082 0
M  V30 1820 H 179.374 1.19734 -0.799987 0
M  V30 1821 H 181.327 4.21353 0.0631215 0
M  V30 1822 H 180.051 3.17851 0.750868 0
M  V30 1823 H 178.71 3.40036 -1.37007 0
M  V30 1824 H 178.358 5.00335 0.517072 0
M  V30 1825 H 178.058 5.77999 -1.05788 0
M  V30 1826 H 179.582 6.10325 -0.183277 0
M  V30 1827 H 180.996 5.25552 -2.29059 0
M  V30 1828 H 179.393 5.15321 -3.07514 0
M  V30 1829 H 180.463 3.73971 -3.08665 0
M  V30 1830 N 181.806 0.884767 1.30421 0
M  V30 1831 C 183.031 0.517288 2.00845 0
M  V30 1832 C 183.456 -0.886779 1.65885 0
M  V30 1833 O 182.814 -1.58768 0.875354 0
M  V30 1834 C 182.862 0.698994 3.5376 0
M  V30 1835 O 181.966 -0.255208 4.1161 0
M  V30 1836 H 181.307 0.203872 0.631927 0
M  V30 1837 H 183.837 1.19225 1.66272 0
M  V30 1838 H 183.847 0.597912 4.03595 0
M  V30 1839 H 182.522 1.72271 3.78544 0
M  V30 1840 H 181.099 -0.10784 3.72744 0
M  V30 1841 N 183.284 -1.43765 0.645699 0
M  V30 1842 C 184.7 -1.56509 0.312591 0
M  V30 1843 C 184.9 -1.6307 -1.18365 0
M  V30 1844 O 183.956 -1.58167 -1.96824 0
M  V30 1845 C 185.269 -2.82968 1.01733 0
M  V30 1846 C 186.817 -2.96701 0.996865 0
M  V30 1847 C 187.292 -4.25982 1.68236 0
M  V30 1848 N 188.783 -4.32829 1.64964 0
M  V30 1849 C 189.518 -5.31613 2.14885 0
M  V30 1850 N 189.014 -6.36718 2.73061 0
M  V30 1851 N 190.807 -5.23217 2.05428 0
M  V30 1852 H 182.958 -1.3775 1.61675 0
M  V30 1853 H 185.221 -0.661067 0.679481 0
M  V30 1854 H 184.927 -2.84156 2.0724 0
M  V30 1855 H 184.801 -3.72957 0.564177 0
M  V30 1856 H 187.188 -2.95058 -0.0497719 0
M  V30 1857 H 187.269 -2.08022 1.48865 0
M  V30 1858 H 186.913 -4.28386 2.72852 0
M  V30 1859 H 186.843 -5.13545 1.16529 0
M  V30 1860 H 189.334 -3.57493 1.22503 0
M  V30 1861 H 189.647 -7.08401 3.08848 0
M  V30 1862 H 187.992 -6.37362 2.77118 0
M  V30 1863 H 191.183 -4.40019 1.59689 0
M  V30 1864 H 191.356 -6.00045 2.44643 0
M  V30 1865 N 184.763 -0.387143 -1.52771 0
M  V30 1866 C 186.009 0.196025 -2.0185 0
M  V30 1867 C 186.342 1.46641 -1.27319 0
M  V30 1868 O 185.617 1.90889 -0.373032 0
M  V30 1869 C 185.9 0.466136 -3.5707 0
M  V30 1870 C 185.753 -0.819385 -4.42274 0
M  V30 1871 C 187.072 1.25768 -4.21747 0
M  V30 1872 H 184.191 0.0697708 -0.73369 0
M  V30 1873 H 186.833 -0.516286 -1.82851 0
M  V30 1874 H 184.983 1.07293 -3.7339 0
M  V30 1875 H 186.655 -1.4563 -4.37709 0
M  V30 1876 H 184.898 -1.43517 -4.09372 0
M  V30 1877 H 185.569 -0.585065 -5.48891 0
M  V30 1878 H 188.045 0.744167 -4.09391 0
M  V30 1879 H 186.921 1.41541 -5.30337 0
M  V30 1880 H 187.182 2.27228 -3.79236 0
M  V30 1881 N 186.241 1.57166 -0.116904 0
M  V30 1882 C 187.171 2.18222 0.830759 0
M  V30 1883 C 188.152 1.12167 1.27877 0
M  V30 1884 O 189.337 1.40394 1.34176 0
M  V30 1885 C 186.467 2.77996 2.08172 0
M  V30 1886 C 185.421 3.89614 1.77157 0
M  V30 1887 C 184.747 4.36187 3.09265 0
M  V30 1888 C 186.047 5.1181 1.04151 0
M  V30 1889 H 187.741 2.97664 0.321992 0
M  V30 1890 H 185.287 1.4318 0.153434 0
M  V30 1891 H 187.24 3.19366 2.74924 0
M  V30 1892 H 185.964 1.9584 2.6137 0
M  V30 1893 H 184.623 3.48816 1.12796 0
M  V30 1894 H 184.271 3.50893 3.60393 0
M  V30 1895 H 183.971 5.11455 2.89288 0
M  V30 1896 H 185.495 4.80207 3.77139 0
M  V30 1897 H 186.909 5.50214 1.61052 0
M  V30 1898 H 185.306 5.92648 0.942762 0
M  V30 1899 H 186.376 4.84892 0.0279022 0
M  V30 1900 N 187.719 -0.156864 1.56817 0
M  V30 1901 C 188.666 -1.19394 1.97519 0
M  V30 1902 C 189.636 -1.4322 0.841265 0
M  V30 1903 O 190.821 -1.55719 1.10255 0
M  V30 1904 C 187.961 -2.52483 2.35258 0
M  V30 1905 C 187.074 -2.35914 3.61896 0
M  V30 1906 C 186.209 -3.61969 3.88782 0
M  V30 1907 C 185.248 -3.40395 5.08722 0
M  V30 1908 N 184.385 -4.58556 5.31668 0
M  V30 1909 H 189.225 -0.839845 2.85921 0
M  V30 1910 H 186.762 -0.403264 1.41464 0
M  V30 1911 H 188.72 -3.30071 2.55165 0
M  V30 1912 H 187.35 -2.85859 1.49949 0
M  V30 1913 H 186.402 -1.49429 3.49821 0
M  V30 1914 H 187.714 -2.15926 4.49641 0
M  V30 1915 H 186.868 -4.47989 4.09135 0
M  V30 1916 H 185.607 -3.84951 2.9944 0
M  V30 1917 H 184.612 -2.52763 4.88253 0
M  V30 1918 H 185.837 -3.18822 5.99608 0
M  V30 1919 H 183.783 -4.81729 4.45279 0
M  V30 1920 H 183.7 -4.41535 6.13664 0
M  V30 1921 H 184.968 -5.45817 5.5651 0
M  V30 1922 N 189.197 -1.51736 -0.425897 0
M  V30 1923 C 190.445 -1.64644 -1.17204 0
M  V30 1924 C 190.766 -0.370486 -1.91448 0
M  V30 1925 O 190.036 0.614088 -1.86026 0
M  V30 1926 H 188.616 -0.606819 -0.435638 0
M  V30 1927 H 191.278 -1.88713 -0.487177 0
M  V30 1928 H 190.374 -2.47958 -1.89534 0
M  V30 1929 N 190.675 0.682077 -1.42076 0
M  V30 1930 C 191.923 1.4393 -1.41876 0
M  V30 1931 C 192.244 1.94971 -0.0335599 0
M  V30 1932 O 191.514 1.72591 0.926773 0
M  V30 1933 H 190.094 0.534085 -0.522267 0
M  V30 1934 H 192.756 0.806427 -1.77434 0
M  V30 1935 H 191.852 2.29588 -2.11414 0
M  V30 1936 N 192.153 1.28127 0.917671 0
M  V30 1937 C 193.378 1.18007 1.70555 0
M  V30 1938 C 193.803 -0.258257 1.86319 0
M  V30 1939 O 193.161 -1.1869 1.37049 0
M  V30 1940 C 193.209 1.87948 3.07746 0
M  V30 1941 O 192.313 1.18427 3.9503 0
M  V30 1942 H 191.654 0.409867 0.522403 0
M  V30 1943 H 194.184 1.69379 1.1477 0
M  V30 1944 H 194.194 1.95701 3.58001 0
M  V30 1945 H 192.869 2.92573 2.95591 0
M  V30 1946 H 191.446 1.18811 3.53466 0
M  V30 1947 N 193.631 -1.12557 1.10312 0
M  V30 1948 C 194.877 -1.84311 0.846011 0
M  V30 1949 C 195.21 -1.83805 -0.626859 0
M  V30 1950 O 194.485 -1.28268 -1.46211 0
M  V30 1951 C 194.768 -3.32048 1.39341 0
M  V30 1952 C 194.621 -3.41016 2.93305 0
M  V30 1953 C 195.94 -4.27764 1.03468 0
M  V30 1954 H 193.059 -0.669192 0.30879 0
M  V30 1955 H 195.701 -1.32057 1.36605 0
M  V30 1956 H 193.851 -3.76678 0.951087 0
M  V30 1957 H 195.523 -3.05031 3.46055 0
M  V30 1958 H 193.766 -2.81603 3.29973 0
M  V30 1959 H 194.437 -4.44948 3.26689 0
M  V30 1960 H 196.913 -3.91253 1.41633 0
M  V30 1961 H 195.789 -5.29549 1.44463 0
M  V30 1962 H 196.05 -4.42064 -0.0560404 0
M  V30 1963 N 195.109 -0.891671 -1.2995 0
M  V30 1964 C 196.525 -0.58662 -1.48428 0
M  V30 1965 C 196.725 0.873951 -1.81561 0
M  V30 1966 O 195.781 1.65471 -1.90724 0
M  V30 1967 C 197.094 -1.50553 -2.60296 0
M  V30 1968 C 198.642 -1.50988 -2.74175 0
M  V30 1969 C 199.117 -2.41488 -3.89163 0
M  V30 1970 N 200.608 -2.39489 -3.96483 0
M  V30 1971 C 201.343 -3.06223 -4.84784 0
M  V30 1972 N 200.839 -3.82206 -5.77833 0
M  V30 1973 N 202.632 -2.95421 -4.78208 0
M  V30 1974 H 194.783 -1.83644 -1.06718 0
M  V30 1975 H 197.046 -0.786455 -0.529332 0
M  V30 1976 H 196.752 -2.54581 -2.42654 0
M  V30 1977 H 196.626 -1.22008 -3.56923 0
M  V30 1978 H 199.013 -0.47708 -2.91218 0
M  V30 1979 H 199.094 -1.83567 -1.78148 0
M  V30 1980 H 198.738 -3.44857 -3.72876 0
M  V30 1981 H 198.668 -2.06222 -4.84541 0
M  V30 1982 H 201.159 -1.84278 -3.29924 0
M  V30 1983 H 201.472 -4.302 -6.41988 0
M  V30 1984 H 199.817 -3.86313 -5.77743 0
M  V30 1985 H 203.008 -2.35581 -4.04499 0
M  V30 1986 H 203.181 -3.47704 -5.46814 0
M  V30 1987 N 196.587 1.43421 -0.653314 0
M  V30 1988 C 197.534 2.30768 0.0382271 0
M  V30 1989 C 198.504 1.44755 0.814576 0
M  V30 1990 O 199.689 1.73624 0.791162 0
M  V30 1991 C 196.829 3.30336 0.998599 0
M  V30 1992 C 195.942 4.31448 0.218342 0
M  V30 1993 C 195.077 5.18098 1.17252 0
M  V30 1994 C 194.116 6.10902 0.382702 0
M  V30 1995 N 193.253 6.90176 1.28848 0
M  V30 1996 H 198.093 2.89357 -0.712511 0
M  V30 1997 H 195.63 1.42548 -0.363128 0
M  V30 1998 H 197.588 3.86572 1.56901 0
M  V30 1999 H 196.218 2.73397 1.71621 0
M  V30 2000 H 195.27 3.77506 -0.46836 0
M  V30 2001 H 196.582 4.97227 -0.395812 0
M  V30 2002 H 195.736 5.7896 1.81356 0
M  V30 2003 H 194.475 4.52444 1.82058 0
M  V30 2004 H 193.48 5.49128 -0.27169 0
M  V30 2005 H 194.705 6.78598 -0.260957 0
M  V30 2006 H 192.651 6.27171 1.92334 0
M  V30 2007 H 192.568 7.52478 0.728887 0
M  V30 2008 H 193.836 7.55543 1.91766 0
M  V30 2009 N 198.065 0.39524 1.52563 0
M  V30 2010 C 198.995 -0.428384 2.29537 0
M  V30 2011 C 199.976 -1.05831 1.33169 0
M  V30 2012 O 201.161 -1.06995 1.62067 0
M  V30 2013 C 198.291 -1.55274 3.10656 0
M  V30 2014 C 197.245 -1.04855 4.14957 0
M  V30 2015 C 196.571 -2.26543 4.84337 0
M  V30 2016 C 197.871 -0.112324 5.22179 0
M  V30 2017 H 199.565 0.213867 2.98635 0
M  V30 2018 H 197.111 0.104298 1.43622 0
M  V30 2019 H 199.064 -2.1358 3.63265 0
M  V30 2020 H 197.788 -2.22266 2.39302 0
M  V30 2021 H 196.447 -0.487985 3.63338 0
M  V30 2022 H 196.095 -2.92059 4.09525 0
M  V30 2023 H 195.795 -1.93466 5.54837 0
M  V30 2024 H 197.319 -2.85481 5.39753 0
M  V30 2025 H 198.733 -0.603752 5.70112 0
M  V30 2026 H 197.13 0.128968 5.99961 0
M  V30 2027 H 198.2 0.837052 4.77621 0
M  V30 2028 N 199.544 -1.57102 0.125237 0
M  V30 2029 C 200.96 -1.57915 -0.231322 0
M  V30 2030 C 201.16 -1.13833 -1.66266 0
M  V30 2031 O 200.216 -0.828581 -2.38518 0
M  V30 2032 C 201.529 -3.00699 0.00766489 0
M  V30 2033 C 203.077 -3.12947 -0.0577483 0
M  V30 2034 C 203.552 -4.57742 0.153626 0
M  V30 2035 N 205.043 -4.63092 0.0998073 0
M  V30 2036 C 205.778 -5.72905 0.238174 0
M  V30 2037 N 205.274 -6.91445 0.433057 0
M  V30 2038 N 207.067 -5.6182 0.177308 0
M  V30 2039 H 199.218 -1.84055 1.06007 0
M  V30 2040 H 201.481 -0.850905 0.417929 0
M  V30 2041 H 201.187 -3.3726 0.997431 0
M  V30 2042 H 201.061 -3.70236 -0.721452 0
M  V30 2043 H 203.448 -2.7624 -1.03804 0
M  V30 2044 H 203.529 -2.4594 0.70335 0
M  V30 2045 H 203.173 -4.95149 1.13092 0
M  V30 2046 H 203.103 -5.22848 -0.627534 0
M  V30 2047 H 205.594 -3.77871 -0.047051 0
M  V30 2048 H 205.907 -7.70985 0.529332 0
M  V30 2049 H 204.252 -6.93415 0.469109 0
M  V30 2050 H 207.443 -4.68093 0.0259748 0
M  V30 2051 H 207.616 -6.47357 0.288582 0
M  V30 2052 N 201.022 0.148545 -1.56898 0
M  V30 2053 C 202.438 0.501131 -1.51528 0
M  V30 2054 C 202.638 1.83458 -0.833399 0
M  V30 2055 O 201.694 2.49259 -0.40328 0
M  V30 2056 C 203.007 0.512864 -2.96294 0
M  V30 2057 C 204.555 0.598487 -3.07225 0
M  V30 2058 C 205.03 0.640897 -4.53494 0
M  V30 2059 N 206.521 0.703163 -4.57832 0
M  V30 2060 C 207.256 0.756935 -5.68382 0
M  V30 2061 N 206.752 0.770147 -6.88506 0
M  V30 2062 N 208.545 0.797698 -5.56411 0
M  V30 2063 H 200.696 -0.725532 -1.99624 0
M  V30 2064 H 202.959 -0.264358 -0.910395 0
M  V30 2065 H 202.665 -0.398691 -3.49433 0
M  V30 2066 H 202.539 1.35133 -3.52163 0
M  V30 2067 H 204.926 1.50046 -2.54106 0
M  V30 2068 H 205.007 -0.267093 -2.54402 0
M  V30 2069 H 204.651 -0.256915 -5.0725 0
M  V30 2070 H 204.581 1.52295 -5.04097 0
M  V30 2071 H 207.072 0.700314 -3.71354 0
M  V30 2072 H 207.385 0.812983 -7.68512 0
M  V30 2073 H 205.73 0.738049 -6.9107 0
M  V30 2074 H 208.921 0.784535 -4.61479 0
M  V30 2075 H 209.094 0.83614 -6.42583 0
M  V30 2076 N 202.5 1.5196 0.417844 0
M  V30 2077 C 203.463 1.74065 1.49111 0
M  V30 2078 C 204.463 0.610537 1.48758 0
M  V30 2079 O 205.653 0.87832 1.50437 0
M  V30 2080 C 202.785 1.81502 2.88565 0
M  V30 2081 H 203.978 2.69869 1.30807 0
M  V30 2082 H 201.531 1.42244 0.647785 0
M  V30 2083 H 202.266 0.875813 3.1225 0
M  V30 2084 H 202.051 2.63651 2.90225 0
M  V30 2085 H 203.541 2.00376 3.66387 0
M  V30 2086 N 203.978 -0.674533 1.42435 0
M  V30 2087 C 204.925 -1.78807 1.45934 0
M  V30 2088 C 205.895 -1.63157 0.311271 0
M  V30 2089 O 207.08 -1.83707 0.515383 0
M  V30 2090 C 204.22 -3.16839 1.36773 0
M  V30 2091 C 203.333 -3.43774 2.61617 0
M  V30 2092 C 202.468 -4.71536 2.44597 0
M  V30 2093 C 201.507 -4.91505 3.64814 0
M  V30 2094 N 200.644 -6.10508 3.46734 0
M  V30 2095 H 205.484 -1.75151 2.41093 0
M  V30 2096 H 203.021 -0.85504 1.19697 0
M  V30 2097 H 204.979 -3.96606 1.29459 0
M  V30 2098 H 203.609 -3.19619 0.452089 0
M  V30 2099 H 202.661 -2.58259 2.79297 0
M  V30 2100 H 203.973 -3.54423 3.50978 0
M  V30 2101 H 203.127 -5.59393 2.3487 0
M  V30 2102 H 201.866 -4.6317 1.52726 0
M  V30 2103 H 200.871 -4.0209 3.74972 0
M  V30 2104 H 202.096 -5.01716 4.57665 0
M  V30 2105 H 200.042 -6.03315 2.5758 0
M  V30 2106 H 199.959 -6.2202 4.29682 0
M  V30 2107 H 201.227 -7.01044 3.40819 0
M  V30 2108 N 205.456 -1.28612 -0.910864 0
M  V30 2109 C 206.388 -1.08589 -2.01844 0
M  V30 2110 C 207.401 -0.0367419 -1.62759 0
M  V30 2111 O 208.59 -0.280101 -1.76289 0
M  V30 2112 C 205.69 -0.628626 -3.33019 0
M  V30 2113 C 204.863 -1.75382 -4.00699 0
M  V30 2114 C 203.922 -1.28945 -5.10156 0
M  V30 2115 O 202.948 -1.9922 -5.33198 0
M  V30 2116 N 204.15 -0.154224 -5.80295 0
M  V30 2117 H 206.915 -2.03973 -2.19579 0
M  V30 2118 H 204.476 -1.20403 -1.08234 0
M  V30 2119 H 206.468 -0.301508 -4.03575 0
M  V30 2120 H 205.038 0.232451 -3.11735 0
M  V30 2121 H 204.258 -2.25039 -3.23653 0
M  V30 2122 H 205.546 -2.50854 -4.42662 0
M  V30 2123 H 204.944 0.43194 -5.64049 0
M  V30 2124 H 203.501 0.113599 -6.51701 0
M  V30 2125 N 206.934 1.1197 -1.10907 0
M  V30 2126 C 207.864 2.19928 -0.784473 0
M  V30 2127 C 208.845 1.6833 0.244726 0
M  V30 2128 O 210.03 1.93892 0.109418 0
M  V30 2129 C 207.16 3.46597 -0.220827 0
M  V30 2130 C 206.114 4.11376 -1.18127 0
M  V30 2131 C 205.44 5.32554 -0.478594 0
M  V30 2132 C 206.74 4.56945 -2.52979 0
M  V30 2133 H 208.434 2.47337 -1.68715 0
M  V30 2134 H 205.98 1.18879 -0.812642 0
M  V30 2135 H 207.933 4.21396 0.0184278 0
M  V30 2136 H 206.657 3.1863 0.717113 0
M  V30 2137 H 205.316 3.38564 -1.40606 0
M  V30 2138 H 204.964 5.00856 0.463976 0
M  V30 2139 H 204.664 5.76844 -1.11912 0
M  V30 2140 H 206.188 6.10096 -0.248 0
M  V30 2141 H 207.602 5.23093 -2.3462 0
M  V30 2142 H 205.999 5.1203 -3.12962 0
M  V30 2143 H 207.069 3.70676 -3.12614 0
M  V30 2144 N 208.412 0.89855 1.29475 0
M  V30 2145 C 209.658 0.524658 1.95896 0
M  V30 2146 C 209.991 -0.926468 1.70676 0
M  V30 2147 O 209.266 -1.65665 1.01908 0
M  V30 2148 C 209.549 0.81633 3.50725 0
M  V30 2149 C 209.402 2.31907 3.85408 0
M  V30 2150 C 210.721 0.302038 4.39062 0
M  V30 2151 H 207.84 0.19209 0.711527 0
M  V30 2152 H 210.482 1.12502 1.53112 0
M  V30 2153 H 208.632 0.305369 3.87298 0
M  V30 2154 H 210.304 2.89949 3.58786 0
M  V30 2155 H 208.547 2.78027 3.32992 0
M  V30 2156 H 209.218 2.47373 4.93468 0
M  V30 2157 H 211.694 0.739551 4.09475 0
M  V30 2158 H 210.57 0.535331 5.46283 0
M  V30 2159 H 210.831 -0.797216 4.34853 0
M  V30 2160 N 209.89 -1.43072 0.660911 0
M  V30 2161 C 210.82 -2.33497 -0.0122829 0
M  V30 2162 C 211.801 -1.49903 -0.803925 0
M  V30 2163 O 212.986 -1.78546 -0.763864 0
M  V30 2164 C 210.116 -3.33363 -0.973994 0
M  V30 2165 C 209.07 -4.27003 -0.291928 0
M  V30 2166 C 208.396 -5.16967 -1.36562 0
M  V30 2167 C 209.696 -5.15816 0.820462 0
M  V30 2168 H 211.39 -2.90038 0.742873 0
M  V30 2169 H 208.936 -1.39461 0.358688 0
M  V30 2170 H 210.889 -3.95524 -1.45392 0
M  V30 2171 H 209.613 -2.75095 -1.7604 0
M  V30 2172 H 208.272 -3.66217 0.167623 0
M  V30 2173 H 207.92 -4.55034 -2.14366 0
M  V30 2174 H 207.62 -5.80441 -0.914454 0
M  V30 2175 H 209.144 -5.82003 -1.84675 0
M  V30 2176 H 210.558 -5.71742 0.422366 0
M  V30 2177 H 208.955 -5.8805 1.19656 0
M  V30 2178 H 210.025 -4.55045 1.67518 0
M  V30 2179 N 211.368 -0.403325 -1.52352 0
M  V30 2180 C 212.278 0.432009 -2.30588 0
M  V30 2181 C 213.294 1.05884 -1.38075 0
M  V30 2182 O 214.47 1.06161 -1.71148 0
M  V30 2183 C 211.535 1.53669 -3.10784 0
M  V30 2184 C 210.596 0.933525 -4.19027 0
M  V30 2185 C 209.829 1.98557 -4.9539 0
M  V30 2186 O 210.052 3.20283 -4.71991 0
M  V30 2187 O 208.986 1.59504 -5.80381 0
M  V30 2188 H 212.812 -0.205739 -3.03002 0
M  V30 2189 H 210.397 -0.166675 -1.48467 0
M  V30 2190 H 212.279 2.17814 -3.60742 0
M  V30 2191 H 210.954 2.15915 -2.41169 0
M  V30 2192 H 209.861 0.254954 -3.7323 0
M  V30 2193 H 211.194 0.35508 -4.90918 0
M  V30 2194 N 212.846 1.57033 -0.133567 0
M  V30 2195 C 213.776 2.1909 0.807567 0
M  V30 2196 C 214.757 1.13517 1.26681 0
M  V30 2197 O 215.942 1.41809 1.32679 0
M  V30 2198 C 213.072 2.80188 2.05212 0
M  V30 2199 C 212.026 3.91471 1.73015 0
M  V30 2200 C 211.352 4.39443 3.04622 0
M  V30 2201 C 212.652 5.12886 0.987168 0
M  V30 2202 H 214.346 2.97988 0.290403 0
M  V30 2203 H 211.892 1.43335 0.138239 0
M  V30 2204 H 213.845 3.22264 2.71521 0
M  V30 2205 H 212.569 1.98601 2.59278 0
M  V30 2206 H 211.228 3.49993 1.0909 0
M  V30 2207 H 210.876 3.54695 3.56651 0
M  V30 2208 H 210.576 5.14495 2.83847 0
M  V30 2209 H 212.1 4.8418 3.72024 0
M  V30 2210 H 213.514 5.51891 1.55208 0
M  V30 2211 H 211.911 5.93615 0.87985 0
M  V30 2212 H 212.981 4.84894 -0.0235286 0
M  V30 2213 N 214.325 -0.140222 1.56975 0
M  V30 2214 C 215.573 -0.850005 1.83356 0
M  V30 2215 C 215.894 -1.81399 0.71551 0
M  V30 2216 O 215.164 -1.94136 -0.262294 0
M  V30 2217 H 213.744 -0.316886 0.676456 0
M  V30 2218 H 216.406 -0.132608 1.94448 0
M  V30 2219 H 215.502 -1.40814 2.78528 0
M  V30 2220 N 215.803 -1.52179 -0.40978 0
M  V30 2221 C 216.713 -1.78364 -1.52392 0
M  V30 2222 C 217.729 -0.669183 -1.60617 0
M  V30 2223 O 218.905 -0.954518 -1.77344 0
M  V30 2224 C 215.97 -1.92822 -2.88133 0
M  V30 2225 C 215.031 -3.16725 -2.898 0
M  V30 2226 C 214.264 -3.30483 -4.19067 0
M  V30 2227 O 214.487 -2.49522 -5.12928 0
M  V30 2228 O 213.421 -4.2363 -4.27576 0
M  V30 2229 H 217.247 -2.72931 -1.33201 0
M  V30 2230 H 214.832 -1.37016 -0.59557 0
M  V30 2231 H 216.714 -2.04157 -3.68643 0
M  V30 2232 H 215.389 -1.01444 -3.07393 0
M  V30 2233 H 214.296 -3.10848 -2.08146 0
M  V30 2234 H 215.629 -4.07881 -2.75489 0
M  V30 2235 N 217.281 0.66697 -1.42791 0
M  V30 2236 C 218.191 1.80962 -1.49299 0
M  V30 2237 C 219.207 1.69775 -0.381108 0
M  V30 2238 O 220.383 1.91188 -0.633188 0
M  V30 2239 C 217.448 3.17156 -1.40045 0
M  V30 2240 C 216.509 3.40242 -2.6179 0
M  V30 2241 C 215.742 4.69939 -2.52969 0
M  V30 2242 O 215.965 5.48372 -1.56985 0
M  V30 2243 O 214.899 4.94441 -3.43237 0
M  V30 2244 H 218.725 1.78427 -2.45759 0
M  V30 2245 H 216.31 0.823713 -1.24641 0
M  V30 2246 H 218.192 3.98413 -1.37276 0
M  V30 2247 H 216.867 3.20312 -0.467138 0
M  V30 2248 H 215.774 2.58802 -2.70134 0
M  V30 2249 H 217.107 3.41923 -3.54047 0
M  V30 2250 N 218.759 1.29093 0.90403 0
M  V30 2251 C 219.722 1.1386 1.98919 0
M  V30 2252 C 220.722 0.0753457 1.60623 0
M  V30 2253 O 221.912 0.321931 1.71199 0
M  V30 2254 C 219.044 0.740198 3.32767 0
M  V30 2255 H 220.237 2.10246 2.13861 0
M  V30 2256 H 217.79 1.12218 1.08797 0
M  V30 2257 H 218.525 -0.223997 3.23525 0
M  V30 2258 H 218.31 1.50838 3.61926 0
M  V30 2259 H 219.8 0.656546 4.12407 0
M  V30 2260 N 220.237 -1.11381 1.11499 0
M  V30 2261 C 221.486 -1.82494 0.858993 0
M  V30 2262 C 221.799 -1.85605 -0.617278 0
M  V30 2263 O 223.005 -2.52824 -0.989552 0
M  V30 2264 C 221.461 -3.27745 1.48699 0
M  V30 2265 C 221.069 -3.32961 2.99735 0
M  V30 2266 C 222.813 -4.03754 1.31085 0
M  V30 2267 C 220.72 -4.72612 3.55516 0
M  V30 2268 H 219.65 -0.683802 0.317696 0
M  V30 2269 H 222.301 -1.25331 1.34031 0
M  V30 2270 H 220.683 -3.84844 0.933339 0
M  V30 2271 H 221.857 -2.85741 3.61509 0
M  V30 2272 H 220.172 -2.70433 3.16631 0
M  V30 2273 H 222.769 -5.06891 1.70192 0
M  V30 2274 H 223.112 -4.15527 0.253496 0
M  V30 2275 H 223.645 -3.53043 1.83318 0
M  V30 2276 H 220.384 -4.66036 4.60967 0
M  V30 2277 H 219.904 -5.2024 2.98513 0
M  V30 2278 H 221.583 -5.4157 3.53992 0
M  V30 2279 N 221.715 -0.905404 -1.28997 0
M  V30 2280 C 222.645 -0.404212 -2.29975 0
M  V30 2281 C 223.626 0.523784 -1.61835 0
M  V30 2282 O 224.811 0.433298 -1.89304 0
M  V30 2283 C 221.941 0.364042 -3.45387 0
M  V30 2284 C 220.895 -0.474048 -4.25367 0
M  V30 2285 C 220.221 0.422045 -5.33032 0
M  V30 2286 C 221.521 -1.72696 -4.92923 0
M  V30 2287 H 223.215 -1.24807 -2.72146 0
M  V30 2288 H 220.761 -0.601585 -1.30832 0
M  V30 2289 H 222.714 0.725447 -4.15109 0
M  V30 2290 H 221.438 1.24174 -3.02074 0
M  V30 2291 H 220.097 -0.81786 -3.57361 0
M  V30 2292 H 219.745 1.29804 -4.85963 0
M  V30 2293 H 219.445 -0.135057 -5.87445 0
M  V30 2294 H 220.969 0.779517 -6.05604 0
M  V30 2295 H 222.383 -1.43495 -5.55051 0
M  V30 2296 H 220.78 -2.22582 -5.57295 0
M  V30 2297 H 221.85 -2.45964 -4.17887 0
M  V30 2298 N 223.193 1.4272 -0.668489 0
M  V30 2299 C 224.103 2.34596 0.0139753 0
M  V30 2300 C 225.119 1.5474 0.795703 0
M  V30 2301 O 226.295 1.87334 0.739466 0
M  V30 2302 C 223.36 3.33202 0.957982 0
M  V30 2303 C 222.421 4.28957 0.17149 0
M  V30 2304 C 221.654 5.22853 1.07053 0
M  V30 2305 O 221.877 5.21531 2.31001 0
M  V30 2306 O 220.811 5.9952 0.534727 0
M  V30 2307 H 224.637 2.9448 -0.742661 0
M  V30 2308 H 222.222 1.43117 -0.428705 0
M  V30 2309 H 224.104 3.93796 1.50008 0
M  V30 2310 H 222.779 2.758 1.69458 0
M  V30 2311 H 221.686 3.71796 -0.414558 0
M  V30 2312 H 223.019 4.89383 -0.52586 0
M  V30 2313 N 224.671 0.411399 1.52136 0
M  V30 2314 C 225.919 -0.163322 2.01439 0
M  V30 2315 C 226.24 -1.45453 1.29879 0
M  V30 2316 O 225.51 -1.91225 0.4254 0
M  V30 2317 H 224.09 -0.0633447 0.744309 0
M  V30 2318 H 226.752 0.548161 1.87033 0
M  V30 2319 H 225.848 -0.357817 3.10042 0
M  V30 2320 N 226.149 -1.5696 0.141893 0
M  V30 2321 C 227.389 -1.9785 -0.513304 0
M  V30 2322 C 227.753 -1.02467 -1.62371 0
M  V30 2323 O 228.954 -1.32382 -2.33941 0
M  V30 2324 C 227.225 -3.42797 -1.01118 0
M  V30 2325 S 228.784 -4.05709 -1.67169 0
M  V30 2326 H 225.602 -0.691318 -0.166135 0
M  V30 2327 H 228.204 -1.94114 0.232398 0
M  V30 2328 H 226.908 -4.0995 -0.192179 0
M  V30 2329 H 226.439 -3.50235 -1.79162 0
M  V30 2330 H 228.454 -3.98342 -2.95868 0
M  V30 2331 N 227.627 0.131896 -1.57047 0
M  V30 2332 C 228.873 0.843179 -1.84441 0
M  V30 2333 C 229.206 1.80129 -0.725749 0
M  V30 2334 O 228.481 1.92624 0.269469 0
M  V30 2335 C 228.764 1.60442 -3.22382 0
M  V30 2336 C 228.617 0.666782 -4.4483 0
M  V30 2337 C 229.936 2.56354 -3.5773 0
M  V30 2338 H 227.055 0.305081 -0.670891 0
M  V30 2339 H 229.697 0.107839 -1.89694 0
M  V30 2340 H 227.847 2.23128 -3.18035 0
M  V30 2341 H 229.519 0.0497646 -4.61273 0
M  V30 2342 H 227.762 -0.022609 -4.33794 0
M  V30 2343 H 228.433 1.23579 -5.37989 0
M  V30 2344 H 230.909 2.0378 -3.62785 0
M  V30 2345 H 229.785 3.06657 -4.5525 0
M  V30 2346 H 230.046 3.38419 -2.84473 0
M  V30 2347 N 229.106 1.52395 0.401703 0
M  V30 2348 C 230.354 1.66488 1.14569 0
M  V30 2349 C 230.675 0.400897 1.90835 0
M  V30 2350 O 229.945 -0.584415 1.8698 0
M  V30 2351 H 228.525 0.613672 0.425929 0
M  V30 2352 H 231.187 1.89464 0.457093 0
M  V30 2353 H 230.283 2.50942 1.85566 0
M  V30 2354 N 230.584 -0.659388 1.43143 0
M  V30 2355 C 231.995 -1.24041 1.39537 0
M  V30 2356 C 232.346 -1.95963 0.0963364 0
M  V30 2357 O 231.471 -2.00892 -0.804438 0
M  V30 2358 C 232.066 -2.25601 2.52764 0
M  V30 2359 C 230.625 -2.79195 2.52443 0
M  V30 2360 C 229.772 -1.53743 2.30778 0
M  V30 2361 H 232.723 -0.451792 1.52133 0
M  V30 2362 H 232.744 -3.07651 2.23899 0
M  V30 2363 H 232.256 -1.73226 3.47296 0
M  V30 2364 H 230.357 -3.35649 1.61773 0
M  V30 2365 H 230.47 -3.2716 3.50004 0
M  V30 2366 H 228.834 -1.80869 1.79328 0
M  V30 2367 H 229.617 -1.03312 3.27386 0
M  V30 2368 N 232.062 -1.29571 -0.897171 0
M  V30 2369 C 233.473 -1.15964 -1.46319 0
M  V30 2370 C 233.824 0.244267 -1.94674 0
M  V30 2371 O 232.949 1.13998 -1.83939 0
M  V30 2372 C 233.544 -2.09906 -2.65942 0
M  V30 2373 C 232.103 -2.00314 -3.18671 0
M  V30 2374 C 231.25 -2.00687 -1.91363 0
M  V30 2375 H 234.201 -1.42019 -0.708268 0
M  V30 2376 H 234.222 -1.67276 -3.41759 0
M  V30 2377 H 233.734 -3.12075 -2.30718 0
M  V30 2378 H 231.835 -1.01242 -3.58582 0
M  V30 2379 H 231.948 -2.88102 -3.82798 0
M  V30 2380 H 230.312 -1.45319 -2.09175 0
M  V30 2381 H 231.095 -3.04566 -1.58413 0
M  V30 2382 N 233.54 1.10788 -1.12088 0
M  V30 2383 C 234.788 1.8231 -0.872205 0
M  V30 2384 C 235.109 1.85419 0.603709 0
M  V30 2385 O 234.379 1.32963 1.43867 0
M  V30 2386 H 232.959 0.675137 -0.319686 0
M  V30 2387 H 235.621 1.34068 -1.41463 0
M  V30 2388 H 234.717 2.85955 -1.25045 0
M  V30 2389 N 235.018 0.912232 1.28515 0
M  V30 2390 C 235.928 0.404506 2.31086 0
M  V30 2391 C 236.944 -0.50707 1.66448 0
M  V30 2392 O 238.12 -0.393624 1.97516 0
M  V30 2393 C 235.185 -0.348572 3.44943 0
M  V30 2394 C 234.246 0.59604 4.25142 0
M  V30 2395 C 233.479 -0.121194 5.33562 0
M  V30 2396 O 233.702 -1.34317 5.5436 0
M  V30 2397 O 232.636 0.542716 5.99448 0
M  V30 2398 H 236.462 1.25579 2.76521 0
M  V30 2399 H 234.047 0.676998 1.33181 0
M  V30 2400 H 235.929 -0.77395 4.14232 0
M  V30 2401 H 234.604 -1.17571 3.01594 0
M  V30 2402 H 233.511 1.07079 3.58448 0
M  V30 2403 H 234.844 1.38995 4.72167 0
M  V30 2404 N 236.496 -1.42363 0.676048 0
M  V30 2405 C 237.459 -2.29199 0.00766941 0
M  V30 2406 C 238.459 -1.43389 -0.727745 0
M  V30 2407 O 239.649 -1.64764 -0.56556 0
M  V30 2408 C 236.781 -3.2591 -0.999785 0
M  V30 2409 H 237.974 -2.89794 0.771988 0
M  V30 2410 H 235.527 -1.50024 0.438468 0
M  V30 2411 H 236.262 -2.70256 -1.79255 0
M  V30 2412 H 236.047 -3.89202 -0.475829 0
M  V30 2413 H 237.537 -3.91028 -1.46583 0
M  V30 2414 N 237.974 -0.419461 -1.51915 0
M  V30 2415 C 238.937 0.389116 -2.25873 0
M  V30 2416 C 239.937 0.964924 -1.28631 0
M  V30 2417 O 241.127 0.842179 -1.52489 0
M  V30 2418 C 238.259 1.54874 -3.03689 0
M  V30 2419 H 239.452 -0.258799 -2.98781 0
M  V30 2420 H 237.005 -0.172209 -1.55348 0
M  V30 2421 H 237.74 2.23323 -2.35154 0
M  V30 2422 H 237.525 1.14223 -3.75094 0
M  V30 2423 H 239.015 2.12046 -3.59759 0
M  V30 2424 N 239.452 1.56882 -0.150215 0
M  V30 2425 C 240.698 1.96518 0.500834 0
M  V30 2426 C 241.031 1.03527 1.64304 0
M  V30 2427 O 240.306 0.0782751 1.94342 0
M  V30 2428 C 240.589 3.45822 1.00395 0
M  V30 2429 C 240.442 4.49591 -0.136983 0
M  V30 2430 C 241.761 3.97704 1.88467 0
M  V30 2431 H 238.88 0.714535 0.18058 0
M  V30 2432 H 241.522 1.88577 -0.232091 0
M  V30 2433 H 239.672 3.5272 1.62851 0
M  V30 2434 H 241.344 4.5477 -0.77343 0
M  V30 2435 H 239.587 4.26441 -0.795652 0
M  V30 2436 H 240.258 5.51402 0.256815 0
M  V30 2437 H 242.734 3.93304 1.35834 0
M  V30 2438 H 241.61 5.0263 2.20578 0
M  V30 2439 H 241.871 3.40252 2.82279 0
M  V30 2440 N 240.93 -0.123565 1.57115 0
M  V30 2441 C 242.178 -0.83051 1.84247 0
M  V30 2442 C 242.499 -1.80629 0.73471 0
M  V30 2443 O 241.769 -1.94403 -0.241688 0
M  V30 2444 H 240.349 -0.309694 0.679778 0
M  V30 2445 H 243.011 -0.111976 1.94578 0
M  V30 2446 H 242.107 -1.37852 2.80006 0
M  V30 2447 N 242.408 -1.52605 -0.393616 0
M  V30 2448 C 243.338 -1.80022 -1.48709 0
M  V30 2449 C 244.319 -0.651995 -1.57108 0
M  V30 2450 O 245.504 -0.89913 -1.72132 0
M  V30 2451 C 242.634 -1.96492 -2.86371 0
M  V30 2452 C 241.588 -3.12161 -2.92813 0
M  V30 2453 C 240.914 -3.13877 -4.3288 0
M  V30 2454 C 242.214 -4.51322 -2.6288 0
M  V30 2455 H 243.908 -2.71589 -1.26015 0
M  V30 2456 H 241.454 -1.30684 -0.604778 0
M  V30 2457 H 243.407 -2.14255 -3.62867 0
M  V30 2458 H 242.131 -1.01611 -3.10391 0
M  V30 2459 H 240.79 -2.94173 -2.18764 0
M  V30 2460 H 240.438 -2.16687 -4.53933 0
M  V30 2461 H 240.138 -3.91576 -4.38112 0
M  V30 2462 H 241.662 -3.33789 -5.1129 0
M  V30 2463 H 243.076 -4.69435 -3.29096 0
M  V30 2464 H 241.473 -5.31053 -2.79468 0
M  V30 2465 H 242.543 -4.58353 -1.58242 0
M  V30 2466 N 243.887 0.651787 -1.4349 0
M  V30 2467 C 244.817 1.77621 -1.51569 0
M  V30 2468 C 245.798 1.66022 -0.370253 0
M  V30 2469 O 246.983 1.85095 -0.587658 0
M  V30 2470 C 244.113 3.16056 -1.43966 0
M  V30 2471 C 243.067 3.4242 -2.56774 0
M  V30 2472 C 242.393 4.8067 -2.34223 0
M  V30 2473 C 243.693 3.37023 -3.99015 0
M  V30 2474 H 245.387 1.71117 -2.45681 0
M  V30 2475 H 242.933 0.821825 -1.18246 0
M  V30 2476 H 244.886 3.94472 -1.48221 0
M  V30 2477 H 243.61 3.23293 -0.463586 0
M  V30 2478 H 242.269 2.66375 -2.51873 0
M  V30 2479 H 241.917 4.84585 -1.34856 0
M  V30 2480 H 241.617 4.9927 -3.09844 0
M  V30 2481 H 243.141 5.61342 -2.40265 0
M  V30 2482 H 244.555 4.05374 -4.05395 0
M  V30 2483 H 242.952 3.67159 -4.74673 0
M  V30 2484 H 244.022 2.3518 -4.2405 0
M  V30 2485 N 245.365 1.30045 0.890287 0
M  V30 2486 C 246.297 1.11786 2.00091 0
M  V30 2487 C 247.31 0.0626307 1.62679 0
M  V30 2488 O 248.499 0.308112 1.75821 0
M  V30 2489 C 245.599 0.681527 3.31977 0
M  V30 2490 C 244.772 1.81735 3.97858 0
M  V30 2491 C 243.831 1.37045 5.08041 0
M  V30 2492 O 242.857 2.07677 5.29961 0
M  V30 2493 N 244.059 0.246525 5.79976 0
M  V30 2494 H 246.824 2.07441 2.16306 0
M  V30 2495 H 244.385 1.2211 1.06305 0
M  V30 2496 H 246.377 0.365675 4.03045 0
M  V30 2497 H 244.947 -0.182828 3.12065 0
M  V30 2498 H 244.167 2.30159 3.20032 0
M  V30 2499 H 245.455 2.57865 4.38615 0
M  V30 2500 H 244.853 -0.34215 5.64664 0
M  V30 2501 H 243.41 -0.00990438 6.51799 0
M  V30 2502 N 246.843 -1.10192 1.12674 0
M  V30 2503 C 248.09 -1.82205 0.883606 0
M  V30 2504 C 248.418 -1.8532 -0.590492 0
M  V30 2505 O 247.673 -1.31137 -1.45264 0
M  V30 2506 C 247.972 -3.28552 1.4067 0
M  V30 2507 C 247.638 -3.45582 2.89627 0
M  V30 2508 C 246.3 -3.49937 3.30299 0
M  V30 2509 C 248.652 -3.50768 3.85501 0
M  V30 2510 C 245.98 -3.57049 4.65546 0
M  V30 2511 C 248.332 -3.59414 5.20581 0
M  V30 2512 C 246.996 -3.62034 5.60792 0
M  V30 2513 H 246.266 -0.666735 0.323334 0
M  V30 2514 H 248.913 -1.29868 1.40736 0
M  V30 2515 H 247.218 -3.83473 0.80347 0
M  V30 2516 H 248.915 -3.82788 1.19475 0
M  V30 2517 H 245.505 -3.42871 2.57172 0
M  V30 2518 H 249.689 -3.46651 3.55171 0
M  V30 2519 H 244.945 -3.57361 4.96088 0
M  V30 2520 H 249.119 -3.62371 5.94693 0
M  V30 2521 H 246.746 -3.67298 6.6558 0
M  V30 2522 N 248.321 -0.919034 -1.28029 0
M  V30 2523 C 249.269 -0.401753 -2.29104 0
M  V30 2524 C 250.263 0.509354 -1.61561 0
M  V30 2525 O 251.469 0.390014 -1.75724 0
M  V30 2526 H 247.844 -0.111331 -0.743713 0
M  V30 2527 H 249.815 -1.2672 -2.70156 0
M  V30 2528 C 248.564 0.338148 -3.46052 0
M  V30 2529 H 247.887 -0.353732 -3.98232 0
M  V30 2530 H 249.327 0.664653 -4.18758 0
M  V30 2531 C 247.786 1.54798 -2.99231 0
M  V30 2532 O 248.316 2.64696 -3.02157 0
M  V30 2533 N 246.522 1.3968 -2.54829 0
M  V30 2534 H 246.069 0.502698 -2.52647 0
M  V30 2535 H 246.027 2.20755 -2.23863 0
M  V30 2536 N 249.799 1.42003 -0.683588 0
M  V30 2537 C 250.729 2.33487 -0.024866 0
M  V30 2538 C 251.71 1.51163 0.779975 0
M  V30 2539 O 252.895 1.79739 0.735362 0
M  V30 2540 C 250.025 3.3487 0.920836 0
M  V30 2541 C 248.979 4.27414 0.223958 0
M  V30 2542 C 248.305 5.19074 1.2832 0
M  V30 2543 C 249.605 5.14445 -0.90242 0
M  V30 2544 H 251.299 2.88819 -0.788921 0
M  V30 2545 H 248.845 1.38873 -0.38083 0
M  V30 2546 H 250.798 3.97787 1.39081 0
M  V30 2547 H 249.522 2.77861 1.71642 0
M  V30 2548 H 248.181 3.65904 -0.225864 0
M  V30 2549 H 247.829 4.58387 2.071 0
M  V30 2550 H 247.529 5.81822 0.821995 0
M  V30 2551 H 249.053 5.84867 1.75392 0
M  V30 2552 H 250.467 5.70998 -0.513272 0
M  V30 2553 H 248.864 5.86072 -1.28997 0
M  V30 2554 H 249.934 4.52322 -1.74737 0
M  V30 2555 N 251.277 0.427512 1.51691 0
M  V30 2556 C 252.502 -0.143601 2.06902 0
M  V30 2557 C 252.927 -1.36536 1.29382 0
M  V30 2558 O 252.285 -1.78289 0.329043 0
M  V30 2559 C 252.333 -0.454207 3.57728 0
M  V30 2560 O 251.437 -1.54228 3.82475 0
M  V30 2561 H 250.778 -0.00617128 0.663971 0
M  V30 2562 H 253.308 0.606014 1.95419 0
M  V30 2563 H 253.318 -0.707525 4.01818 0
M  V30 2564 H 251.993 0.438812 4.13579 0
M  V30 2565 H 250.57 -1.2797 3.50254 0
M  V30 2566 N 252.755 -1.56801 0.158532 0
M  V30 2567 C 253.665 -2.20916 -0.789518 0
M  V30 2568 C 254.681 -1.1969 -1.26294 0
M  V30 2569 O 255.857 -1.52308 -1.31773 0
M  V30 2570 C 252.922 -2.82727 -2.00665 0
M  V30 2571 C 251.983 -3.99114 -1.58134 0
M  V30 2572 C 251.216 -4.57968 -2.74045 0
M  V30 2573 O 251.439 -4.15704 -3.90572 0
M  V30 2574 O 250.373 -5.48047 -2.48855 0
M  V30 2575 H 254.199 -3.02464 -0.273681 0
M  V30 2576 H 251.784 -1.4924 -0.0690548 0
M  V30 2577 H 253.666 -3.21968 -2.71872 0
M  V30 2578 H 252.341 -2.04184 -2.51179 0
M  V30 2579 H 251.248 -3.64567 -0.839155 0
M  V30 2580 H 252.581 -4.79212 -1.12325 0
M  V30 2581 N 254.233 0.115231 -1.57178 0
M  V30 2582 C 255.163 1.1423 -2.03651 0
M  V30 2583 C 256.144 1.42967 -0.921655 0
M  V30 2584 O 257.329 1.53343 -1.19162 0
M  V30 2585 C 254.459 2.4675 -2.44401 0
M  V30 2586 C 253.413 2.32467 -3.59365 0
M  V30 2587 C 252.739 3.69984 -3.86026 0
M  V30 2588 C 254.039 1.78203 -4.90959 0
M  V30 2589 H 255.733 0.755749 -2.89705 0
M  V30 2590 H 253.279 0.362093 -1.39373 0
M  V30 2591 H 255.232 3.18854 -2.75517 0
M  V30 2592 H 253.956 2.87302 -1.55322 0
M  V30 2593 H 252.615 1.62811 -3.28463 0
M  V30 2594 H 252.263 4.08028 -2.94147 0
M  V30 2595 H 251.963 3.61279 -4.63412 0
M  V30 2596 H 253.487 4.43587 -4.19599 0
M  V30 2597 H 254.901 2.40128 -5.20587 0
M  V30 2598 H 253.298 1.8031 -5.72371 0
M  V30 2599 H 254.368 0.739876 -4.79222 0
M  V30 2600 N 255.711 1.52812 0.385517 0
M  V30 2601 C 256.958 1.68026 1.1302 0
M  V30 2602 C 257.286 0.421934 1.89868 0
M  V30 2603 O 256.541 -0.595749 1.86412 0
M  V30 2604 C 256.84 2.86856 2.13187 0
M  V30 2605 C 256.506 4.24159 1.5297 0
M  V30 2606 C 255.168 4.61501 1.36274 0
M  V30 2607 C 257.52 5.09627 1.09223 0
M  V30 2608 C 254.848 5.81966 0.743837 0
M  V30 2609 C 257.2 6.30719 0.487411 0
M  V30 2610 C 255.864 6.6679 0.307777 0
M  V30 2611 H 255.134 0.614849 0.413571 0
M  V30 2612 H 257.781 1.86962 0.414405 0
M  V30 2613 H 256.086 2.6235 2.90998 0
M  V30 2614 H 257.783 2.95821 2.70722 0
M  V30 2615 H 254.373 3.94746 1.66954 0
M  V30 2616 H 258.557 4.81343 1.20922 0
M  V30 2617 H 253.813 6.08519 0.592891 0
M  V30 2618 H 257.987 6.96259 0.140143 0
M  V30 2619 H 255.614 7.60001 -0.173879 0
M  V30 2620 N 257.189 -0.644168 1.43834 0
M  V30 2621 C 258.414 -1.43642 1.49605 0
M  V30 2622 C 258.839 -1.8773 0.117913 0
M  V30 2623 O 258.197 -1.57938 -0.890239 0
M  V30 2624 C 258.245 -2.6416 2.45463 0
M  V30 2625 O 257.349 -3.63538 1.94714 0
M  V30 2626 H 256.69 -0.430329 0.50568 0
M  V30 2627 H 259.22 -0.787448 1.8884 0
M  V30 2628 H 259.23 -3.11864 2.63068 0
M  V30 2629 H 257.905 -2.31414 3.45572 0
M  V30 2630 H 256.482 -3.2273 1.86814 0
M  V30 2631 N 258.668 -1.30515 -0.883378 0
M  V30 2632 C 259.914 -1.20617 -1.63778 0
M  V30 2633 C 260.269 0.236469 -1.90941 0
M  V30 2634 O 259.562 1.16596 -1.52039 0
M  V30 2635 C 259.756 -1.96994 -2.98209 0
M  V30 2636 C 259.585 -3.48537 -2.84169 0
M  V30 2637 C 258.355 -4.17893 -2.84067 0
M  V30 2638 C 260.553 -4.43738 -2.60001 0
M  V30 2639 N 258.535 -5.55685 -2.60936 0
M  V30 2640 C 259.906 -5.69105 -2.46007 0
M  V30 2641 C 261.961 -4.33316 -2.45239 0
M  V30 2642 C 260.664 -6.8523 -2.18752 0
M  V30 2643 C 262.69 -5.4921 -2.19369 0
M  V30 2644 C 262.052 -6.73558 -2.06153 0
M  V30 2645 H 258.151 -0.496434 -0.604216 0
M  V30 2646 H 260.735 -1.64544 -1.04083 0
M  V30 2647 H 258.906 -1.55455 -3.55933 0
M  V30 2648 H 260.638 -1.79225 -3.62851 0
M  V30 2649 H 257.393 -3.69739 -2.95956 0
M  V30 2650 H 257.817 -6.28199 -2.52378 0
M  V30 2651 H 262.459 -3.37856 -2.54191 0
M  V30 2652 H 260.177 -7.80729 -2.08537 0
M  V30 2653 H 263.763 -5.43054 -2.08766 0
M  V30 2654 H 262.643 -7.61721 -1.86416 0
M  V30 2655 N 260.146 1.09593 -1.13257 0
M  V30 2656 C 261.392 1.82181 -0.904521 0
M  V30 2657 C 261.747 1.83967 0.563358 0
M  V30 2658 O 261.04 1.29566 1.41149 0
M  V30 2659 C 261.234 3.27802 -1.42411 0
M  V30 2660 C 261.063 3.40201 -2.94097 0
M  V30 2661 C 259.833 3.52104 -3.62424 0
M  V30 2662 C 262.031 3.32875 -3.92044 0
M  V30 2663 N 260.013 3.53169 -5.0214 0
M  V30 2664 C 261.384 3.40789 -5.17941 0
M  V30 2665 C 263.439 3.16531 -3.84334 0
M  V30 2666 C 262.142 3.34042 -6.37031 0
M  V30 2667 C 264.168 3.11109 -5.02956 0
M  V30 2668 C 263.53 3.19614 -6.27715 0
M  V30 2669 H 259.629 0.681015 -0.384373 0
M  V30 2670 H 262.213 1.3099 -1.44048 0
M  V30 2671 H 260.384 3.77466 -0.915086 0
M  V30 2672 H 262.116 3.88393 -1.13722 0
M  V30 2673 H 258.871 3.5548 -3.12939 0
M  V30 2674 H 259.295 3.57291 -5.75041 0
M  V30 2675 H 263.937 3.08827 -2.88766 0
M  V30 2676 H 261.655 3.4051 -7.32857 0
M  V30 2677 H 265.241 2.99601 -4.98729 0
M  V30 2678 H 264.121 3.15432 -7.17964 0
M  V30 2679 N 261.624 0.925811 1.2754 0
M  V30 2680 C 262.873 0.561084 1.93739 0
M  V30 2681 C 263.186 -0.901685 1.73577 0
M  V30 2682 O 264.392 -1.37511 2.34101 0
M  V30 2683 C 262.848 0.952668 3.47062 0
M  V30 2684 C 262.456 2.43599 3.75983 0
M  V30 2685 C 264.2 0.659103 4.19352 0
M  V30 2686 C 262.107 2.76707 5.22673 0
M  V30 2687 H 261.037 0.206122 0.725279 0
M  V30 2688 H 263.688 1.12637 1.44863 0
M  V30 2689 H 262.07 0.316053 3.94737 0
M  V30 2690 H 263.244 3.12035 3.39073 0
M  V30 2691 H 261.559 2.70125 3.16893 0
M  V30 2692 H 264.156 0.882985 5.27359 0
M  V30 2693 H 264.499 -0.403607 4.14339 0
M  V30 2694 H 265.032 1.25473 3.77494 0
M  V30 2695 H 261.771 3.8188 5.32774 0
M  V30 2696 H 261.291 2.12919 5.60737 0
M  V30 2697 H 262.97 2.6435 5.90532 0
M  V30 2698 N 263.102 -1.41638 0.69111 0
M  V30 2699 C 264.518 -1.55435 0.362224 0
M  V30 2700 C 264.718 -1.66754 -1.13117 0
M  V30 2701 O 263.774 -1.64348 -1.91692 0
M  V30 2702 C 265.087 -2.79588 1.10684 0
M  V30 2703 C 266.635 -2.9338 1.09075 0
M  V30 2704 C 267.11 -4.20414 1.81703 0
M  V30 2705 N 268.601 -4.27362 1.7865 0
M  V30 2706 C 269.336 -5.24507 2.31689 0
M  V30 2707 N 268.832 -6.27708 2.93179 0
M  V30 2708 N 270.625 -5.16416 2.2197 0
M  V30 2709 H 262.776 -1.32536 1.65976 0
M  V30 2710 H 265.039 -0.639115 0.700168 0
M  V30 2711 H 264.745 -2.77419 2.16175 0
M  V30 2712 H 264.619 -3.70973 0.682545 0
M  V30 2713 H 267.006 -2.95067 0.0441238 0
M  V30 2714 H 267.087 -2.0318 1.55407 0
M  V30 2715 H 266.731 -4.19488 2.86343 0
M  V30 2716 H 266.661 -5.09578 1.32808 0
M  V30 2717 H 269.152 -3.53415 1.33815 0
M  V30 2718 H 269.465 -6.98217 3.31229 0
M  V30 2719 H 267.81 -6.28223 2.97255 0
M  V30 2720 H 271.001 -4.34716 1.73607 0
M  V30 2721 H 271.174 -5.91958 2.63609 0
M  V30 2722 N 264.58 -0.43555 -1.51462 0
M  V30 2723 C 265.512 0.41257 -2.25456 0
M  V30 2724 C 266.525 0.987822 -1.29406 0
M  V30 2725 O 267.714 0.882266 -1.55172 0
M  V30 2726 C 264.814 1.58894 -2.99342 0
M  V30 2727 C 263.987 1.13288 -4.22474 0
M  V30 2728 C 263.046 2.17917 -4.78956 0
M  V30 2729 O 262.072 1.77425 -5.40841 0
M  V30 2730 N 263.274 3.50382 -4.62832 0
M  V30 2731 H 266.039 -0.221603 -2.9888 0
M  V30 2732 H 263.6 -0.264342 -1.59727 0
M  V30 2733 H 265.592 2.28508 -3.34015 0
M  V30 2734 H 264.162 2.12849 -2.28941 0
M  V30 2735 H 263.382 0.263881 -3.93316 0
M  V30 2736 H 264.67 0.805542 -5.02383 0
M  V30 2737 H 264.068 3.86013 -4.13534 0
M  V30 2738 H 262.625 4.15895 -5.01871 0
M  V30 2739 N 266.058 1.56714 -0.166846 0
M  V30 2740 C 267.306 1.96358 0.478305 0
M  V30 2741 C 267.627 1.0537 1.6408 0
M  V30 2742 O 266.897 0.119154 1.95537 0
M  V30 2743 H 265.477 0.725065 0.179692 0
M  V30 2744 H 268.139 1.93329 -0.246985 0
M  V30 2745 H 267.235 3.00547 0.841292 0
M  V30 2746 N 267.536 -0.106894 1.57237 0
M  V30 2747 C 268.446 -1.14911 2.0453 0
M  V30 2748 C 269.462 -1.44592 0.96795 0
M  V30 2749 O 270.638 -1.55468 1.2803 0
M  V30 2750 C 267.703 -2.45272 2.45036 0
M  V30 2751 C 266.764 -2.22879 3.66911 0
M  V30 2752 C 265.997 -3.47024 4.05475 0
M  V30 2753 O 266.22 -4.54804 3.44252 0
M  V30 2754 O 265.154 -3.3731 4.98504 0
M  V30 2755 H 268.98 -0.777461 2.9358 0
M  V30 2756 H 266.565 -0.318563 1.45964 0
M  V30 2757 H 268.447 -3.22055 2.71769 0
M  V30 2758 H 267.122 -2.81886 1.59129 0
M  V30 2759 H 266.029 -1.43915 3.45311 0
M  V30 2760 H 267.362 -1.91163 4.53561 0
M  V30 2761 N 269.014 -1.53014 -0.377408 0
M  V30 2762 C 270.262 -1.6829 -1.11906 0
M  V30 2763 C 270.583 -0.431206 -1.90173 0
M  V30 2764 O 269.853 0.554595 -1.87886 0
M  V30 2765 H 268.433 -0.620371 -0.416112 0
M  V30 2766 H 271.095 -1.90167 -0.426893 0
M  V30 2767 H 270.191 -2.53862 -1.8155 0
M  V30 2768 N 270.492 0.636531 -1.44174 0
M  V30 2769 C 271.908 0.954104 -1.27941 0
M  V30 2770 C 272.108 2.0039 -0.211248 0
M  V30 2771 O 271.164 2.49236 0.404695 0
M  V30 2772 C 272.477 1.4225 -2.64925 0
M  V30 2773 C 274.025 1.53827 -2.72592 0
M  V30 2774 C 274.5 2.04053 -4.10032 0
M  V30 2775 N 275.991 2.11331 -4.12182 0
M  V30 2776 C 276.726 2.51352 -5.15374 0
M  V30 2777 N 276.222 2.90549 -6.2893 0
M  V30 2778 N 278.015 2.51438 -5.02728 0
M  V30 2779 H 270.166 -0.0578386 -2.12321 0
M  V30 2780 H 272.429 0.0367406 -0.947288 0
M  V30 2781 H 272.135 0.725466 -3.44136 0
M  V30 2782 H 272.009 2.39451 -2.9145 0
M  V30 2783 H 274.396 2.22628 -1.93702 0
M  V30 2784 H 274.477 0.550154 -2.49814 0
M  V30 2785 H 274.121 1.35848 -4.89395 0
M  V30 2786 H 274.051 3.03726 -4.30184 0
M  V30 2787 H 276.542 1.83745 -3.30222 0
M  V30 2788 H 276.855 3.19884 -7.03487 0
M  V30 2789 H 275.2 2.88313 -6.32377 0
M  V30 2790 H 278.391 2.20203 -4.13072 0
M  V30 2791 H 278.564 2.82304 -5.83274 0
M  V30 2792 N 271.97 1.30982 0.876444 0
M  V30 2793 C 272.9 1.20668 1.99903 0
M  V30 2794 C 273.881 0.095354 1.69833 0
M  V30 2795 O 275.066 0.27885 1.92188 0
M  V30 2796 C 272.196 0.90655 3.3526 0
M  V30 2797 C 271.15 1.97675 3.79617 0
M  V30 2798 C 270.476 1.52943 5.1236 0
M  V30 2799 C 271.776 3.389 3.97422 0
M  V30 2800 H 273.47 2.14586 2.0879 0
M  V30 2801 H 271.016 1.03308 1.00317 0
M  V30 2802 H 272.969 0.821025 4.13324 0
M  V30 2803 H 271.693 -0.0682969 3.26529 0
M  V30 2804 H 270.352 2.05205 3.03787 0
M  V30 2805 H 270 0.54262 5.00065 0
M  V30 2806 H 269.7 2.24532 5.43009 0
M  V30 2807 H 271.224 1.45786 5.92941 0
M  V30 2808 H 272.638 3.34081 4.659 0
M  V30 2809 H 271.035 4.0865 4.3946 0
M  V30 2810 H 272.105 3.80163 3.01006 0
M  V30 2811 N 273.449 -1.08991 1.13837 0
M  V30 2812 C 274.865 -1.33312 0.877506 0
M  V30 2813 C 275.065 -1.95587 -0.48456 0
M  V30 2814 O 274.121 -2.20509 -1.23013 0
M  V30 2815 C 275.434 -2.24045 2.0056 0
M  V30 2816 C 276.982 -2.37542 2.03821 0
M  V30 2817 C 277.457 -3.31614 3.15905 0
M  V30 2818 N 278.948 -3.39189 3.15445 0
M  V30 2819 C 279.683 -4.11992 3.98811 0
M  V30 2820 N 279.179 -4.87553 4.92203 0
M  V30 2821 N 280.972 -4.07762 3.86894 0
M  V30 2822 H 273.123 -0.669456 2.01574 0
M  V30 2823 H 275.386 -0.357482 0.878015 0
M  V30 2824 H 275.092 -1.85521 2.98789 0
M  V30 2825 H 274.966 -3.24466 1.92359 0
M  V30 2826 H 277.353 -2.75327 1.06202 0
M  V30 2827 H 277.434 -1.36884 2.16093 0
M  V30 2828 H 277.078 -2.94551 4.13766 0
M  V30 2829 H 277.008 -4.32186 3.0087 0
M  V30 2830 H 279.499 -2.85314 2.47799 0
M  V30 2831 H 279.812 -5.40549 5.52292 0
M  V30 2832 H 278.157 -4.86627 4.96205 0
M  V30 2833 H 281.348 -3.47833 3.13257 0
M  V30 2834 H 281.521 -4.64238 4.52092 0
M  V30 2835 N 274.927 -0.932562 -1.27047 0
M  V30 2836 C 276.176 -0.571351 -1.93439 0
M  V30 2837 C 276.489 0.892467 -1.74053 0
M  V30 2838 O 277.695 1.36267 -2.34826 0
M  V30 2839 C 276.151 -0.97106 -3.46552 0
M  V30 2840 C 275.759 -2.4559 -3.74686 0
M  V30 2841 C 277.503 -0.681333 -4.18997 0
M  V30 2842 C 275.41 -2.79475 -5.21198 0
M  V30 2843 H 274.34 -0.209966 -0.724176 0
M  V30 2844 H 276.991 -1.13403 -1.44263 0
M  V30 2845 H 275.373 -0.336983 -3.94564 0
M  V30 2846 H 276.547 -3.13829 -3.37414 0
M  V30 2847 H 274.862 -2.71802 -3.15456 0
M  V30 2848 H 277.459 -0.910939 -5.26883 0
M  V30 2849 H 277.802 0.381628 -4.14547 0
M  V30 2850 H 278.335 -1.27473 -3.76823 0
M  V30 2851 H 275.074 -3.847 -5.30741 0
M  V30 2852 H 274.594 -2.1589 -5.596 0
M  V30 2853 H 276.273 -2.67478 -5.89122 0
M  V30 2854 N 276.405 1.4127 -0.698611 0
M  V30 2855 C 277.821 1.55241 -0.370462 0
M  V30 2856 C 278.021 1.67351 1.12231 0
M  V30 2857 O 277.077 1.65363 1.90818 0
M  V30 2858 C 278.39 2.78997 -1.12165 0
M  V30 2859 C 279.938 2.92797 -1.1063 0
M  V30 2860 C 280.413 4.19445 -1.8393 0
M  V30 2861 N 281.904 4.26409 -1.80914 0
M  V30 2862 C 282.639 5.23271 -2.34467 0
M  V30 2863 N 282.135 6.26145 -2.96504 0
M  V30 2864 N 283.928 5.15232 -2.24706 0
M  V30 2865 H 276.079 1.31654 -1.66676 0
M  V30 2866 H 278.342 0.635393 -0.703548 0
M  V30 2867 H 278.048 2.76268 -2.17644 0
M  V30 2868 H 277.922 3.70606 -0.702209 0
M  V30 2869 H 280.309 2.95039 -0.0597713 0
M  V30 2870 H 280.39 2.02353 -1.56483 0
M  V30 2871 H 280.034 4.17964 -2.88563 0
M  V30 2872 H 279.964 5.08866 -1.35509 0
M  V30 2873 H 282.455 3.527 -1.35687 0
M  V30 2874 H 282.768 6.96451 -3.34927 0
M  V30 2875 H 281.113 6.26638 -3.00583 0
M  V30 2876 H 284.304 4.33789 -1.7591 0
M  V30 2877 H 284.477 5.90552 -2.66745 0
M  V30 2878 N 277.883 0.443576 1.51229 0
M  V30 2879 C 278.813 -0.355142 2.30783 0
M  V30 2880 C 279.794 -1.0154 1.36468 0
M  V30 2881 O 280.979 -1.01785 1.65389 0
M  V30 2882 C 278.109 -1.45312 3.15439 0
M  V30 2883 C 277.063 -0.916002 4.18083 0
M  V30 2884 C 276.389 -2.1102 4.91299 0
M  V30 2885 C 277.689 0.0538602 5.22272 0
M  V30 2886 H 279.383 0.308767 2.97804 0
M  V30 2887 H 276.929 0.149937 1.43217 0
M  V30 2888 H 278.882 -2.01914 3.69876 0
M  V30 2889 H 277.606 -2.14541 2.46252 0
M  V30 2890 H 276.265 -0.372145 3.64706 0
M  V30 2891 H 275.913 -2.78882 4.18609 0
M  V30 2892 H 275.613 -1.75717 5.60712 0
M  V30 2893 H 277.137 -2.68164 5.48562 0
M  V30 2894 H 278.551 -0.422069 5.71744 0
M  V30 2895 H 276.948 0.319776 5.99247 0
M  V30 2896 H 278.018 0.98858 4.74716 0
M  V30 2897 N 279.361 -1.56624 0.175154 0
M  V30 2898 C 280.294 -2.14 -0.792412 0
M  V30 2899 C 281.272 -1.07114 -1.22333 0
M  V30 2900 O 282.456 -1.35112 -1.31442 0
M  V30 2901 C 279.583 -2.68268 -2.0676 0
M  V30 2902 C 278.629 -3.87562 -1.7804 0
M  V30 2903 S 279.462 -5.27074 -0.946222 0
M  V30 2904 C 280.618 -5.8475 -2.23199 0
M  V30 2905 H 280.851 -2.95736 -0.304588 0
M  V30 2906 H 278.384 -1.54349 -0.0395705 0
M  V30 2907 H 280.342 -3.00182 -2.80002 0
M  V30 2908 H 279.003 -1.86612 -2.52656 0
M  V30 2909 H 278.196 -4.23874 -2.72666 0
M  V30 2910 H 277.798 -3.56555 -1.12891 0
M  V30 2911 H 280.09 -5.97898 -3.18629 0
M  V30 2912 H 281.033 -6.81756 -1.91349 0
M  V30 2913 H 281.441 -5.13198 -2.35134 0
M  V30 2914 N 280.839 0.0985539 -1.57292 0
M  V30 2915 C 282.25 0.653457 -1.74891 0
M  V30 2916 C 282.601 1.7929 -0.796838 0
M  V30 2917 O 281.726 2.16385 0.0254886 0
M  V30 2918 C 282.321 1.19216 -3.17133 0
M  V30 2919 C 280.88 1.69316 -3.36168 0
M  V30 2920 C 280.027 0.601294 -2.70702 0
M  V30 2921 H 282.978 -0.127497 -1.58187 0
M  V30 2922 H 282.999 2.06154 -3.19814 0
M  V30 2923 H 282.511 0.362635 -3.86402 0
M  V30 2924 H 280.612 2.5468 -2.71972 0
M  V30 2925 H 280.725 1.78853 -4.44464 0
M  V30 2926 H 279.089 1.0399 -2.32504 0
M  V30 2927 H 279.872 -0.217592 -3.4261 0
M  V30 2928 N 282.317 1.53212 0.369288 0
M  V30 2929 C 283.227 1.82342 1.47609 0
M  V30 2930 C 284.243 0.711532 1.58787 0
M  V30 2931 O 285.419 1.0012 1.74751 0
M  V30 2932 C 282.484 2.00393 2.8292 0
M  V30 2933 C 281.545 3.24297 2.81301 0
M  V30 2934 C 280.778 3.41478 4.10157 0
M  V30 2935 O 281.001 2.63033 5.06132 0
M  V30 2936 O 279.935 4.34817 4.16194 0
M  V30 2937 H 283.761 2.76366 1.25918 0
M  V30 2938 H 281.346 1.38547 0.559034 0
M  V30 2939 H 283.228 2.13859 3.63101 0
M  V30 2940 H 281.903 1.09559 3.04596 0
M  V30 2941 H 280.81 3.16257 1.99831 0
M  V30 2942 H 282.143 4.15041 2.64578 0
M  V30 2943 N 283.795 -0.628877 1.44509 0
M  V30 2944 C 284.742 -1.74074 1.51549 0
M  V30 2945 C 285.712 -1.62084 0.363021 0
M  V30 2946 O 286.897 -1.81975 0.573567 0
M  V30 2947 C 284.037 -3.12328 1.46784 0
M  V30 2948 C 283.15 -3.35277 2.72422 0
M  V30 2949 C 282.285 -4.63515 2.59475 0
M  V30 2950 C 281.324 -4.7965 3.80266 0
M  V30 2951 N 280.461 -5.99168 3.65981 0
M  V30 2952 H 285.301 -1.67392 2.46544 0
M  V30 2953 H 282.838 -0.816527 1.22357 0
M  V30 2954 H 284.796 -3.92286 1.42012 0
M  V30 2955 H 283.426 -3.18018 0.553544 0
M  V30 2956 H 282.478 -2.49242 2.87372 0
M  V30 2957 H 283.79 -3.43078 3.62076 0
M  V30 2958 H 282.944 -5.51638 2.52548 0
M  V30 2959 H 281.683 -4.58076 1.67384 0
M  V30 2960 H 280.688 -3.89957 3.87574 0
M  V30 2961 H 281.913 -4.86902 4.73395 0
M  V30 2962 H 279.859 -5.94814 2.76644 0
M  V30 2963 H 279.776 -6.08035 4.49254 0
M  V30 2964 H 281.044 -6.89846 3.6295 0
M  V30 2965 N 285.273 -1.31445 -0.869486 0
M  V30 2966 C 286.22 -1.19135 -1.97675 0
M  V30 2967 C 287.19 -0.0770266 -1.65921 0
M  V30 2968 O 288.375 -0.249972 -1.89155 0
M  V30 2969 C 285.515 -0.905149 -3.33018 0
M  V30 2970 C 284.628 -2.10285 -3.77365 0
M  V30 2971 C 283.763 -1.75339 -5.01427 0
M  V30 2972 C 282.802 -2.91515 -5.38224 0
M  V30 2973 N 281.939 -2.56762 -6.53466 0
M  V30 2974 H 286.779 -2.13853 -2.07535 0
M  V30 2975 H 284.316 -1.06379 -1.01597 0
M  V30 2976 H 286.274 -0.719765 -4.10944 0
M  V30 2977 H 284.904 0.00519624 -3.228 0
M  V30 2978 H 283.956 -2.39899 -2.95216 0
M  V30 2979 H 285.268 -2.97237 -4.00564 0
M  V30 2980 H 284.422 -1.53266 -5.87022 0
M  V30 2981 H 283.161 -0.855801 -4.80133 0
M  V30 2982 H 282.166 -3.14237 -4.51149 0
M  V30 2983 H 283.391 -3.81985 -5.61484 0
M  V30 2984 H 281.337 -1.69526 -6.33717 0
M  V30 2985 H 281.254 -3.37243 -6.76612 0
M  V30 2986 H 282.522 -2.38083 -7.42251 0
M  V30 2987 N 286.751 1.08385 -1.14413 0
M  V30 2988 C 287.714 2.13486 -0.834048 0
M  V30 2989 C 288.714 1.59988 0.161418 0
M  V30 2990 O 289.904 1.74071 -0.0669575 0
M  V30 2991 C 287.036 3.4003 -0.243354 0
M  V30 2992 H 288.229 2.42425 -1.7655 0
M  V30 2993 H 285.782 1.24101 -0.950189 0
M  V30 2994 H 286.517 3.16726 0.696807 0
M  V30 2995 H 286.302 3.80157 -0.960367 0
M  V30 2996 H 287.792 4.17577 -0.0436242 0
M  V30 2997 N 288.23 0.939286 1.26551 0
M  V30 2998 C 289.455 0.602008 1.98471 0
M  V30 2999 C 289.88 -0.815624 1.69497 0
M  V30 3000 O 289.238 -1.54912 0.941905 0
M  V30 3001 C 289.286 0.848407 3.50477 0
M  V30 3002 O 288.39 -0.0804009 4.12322 0
M  V30 3003 H 287.731 0.23049 0.622712 0
M  V30 3004 H 290.261 1.2617 1.61066 0
M  V30 3005 H 290.271 0.768553 4.00696 0
M  V30 3006 H 288.946 1.88171 3.70897 0
M  V30 3007 H 287.523 0.0503508 3.72866 0
M  V30 3008 N 289.708 -1.40897 0.706093 0
M  V30 3009 C 290.618 -2.3455 0.0482286 0
M  V30 3010 C 291.634 -1.56796 -0.754396 0
M  V30 3011 O 292.81 -1.89228 -0.689538 0
M  V30 3012 C 289.875 -3.35625 -0.869303 0
M  V30 3013 C 288.936 -4.29261 -0.0576994 0
M  V30 3014 C 288.169 -5.25508 -0.931531 0
M  V30 3015 O 288.392 -5.27472 -2.17092 0
M  V30 3016 O 287.326 -6.00727 -0.375587 0
M  V30 3017 H 291.152 -2.92407 0.820476 0
M  V30 3018 H 288.737 -1.4193 0.4665 0
M  V30 3019 H 290.619 -3.97635 -1.39514 0
M  V30 3020 H 289.294 -2.80196 -1.62086 0
M  V30 3021 H 288.201 -3.70566 0.512988 0
M  V30 3022 H 289.534 -4.87817 0.655426 0
M  V30 3023 N 291.186 -0.45159 -1.50991 0
M  V30 3024 C 292.432 0.110237 -2.025 0
M  V30 3025 C 292.765 1.41109 -1.33424 0
M  V30 3026 O 292.04 1.89135 -0.453659 0
M  V30 3027 C 292.323 0.314271 -3.58726 0
M  V30 3028 C 292.176 -1.00623 -4.38401 0
M  V30 3029 C 293.495 1.07767 -4.26702 0
M  V30 3030 H 290.614 0.0385897 -0.735989 0
M  V30 3031 H 293.256 -0.593374 -1.80497 0
M  V30 3032 H 291.406 0.913601 -3.77605 0
M  V30 3033 H 293.078 -1.64064 -4.31139 0
M  V30 3034 H 291.321 -1.6075 -4.02917 0
M  V30 3035 H 291.992 -0.817341 -5.45915 0
M  V30 3036 H 294.468 0.56986 -4.12179 0
M  V30 3037 H 293.344 1.18921 -5.35863 0
M  V30 3038 H 293.605 2.10939 -3.88532 0
M  V30 3039 N 292.664 1.56529 -0.183458 0
M  V30 3040 C 293.912 1.96855 0.457452 0
M  V30 3041 C 294.233 1.07104 1.62953 0
M  V30 3042 O 293.503 0.139887 1.954 0
M  V30 3043 H 292.083 0.72693 0.171992 0
M  V30 3044 H 294.745 1.93056 -0.267476 0
M  V30 3045 H 293.841 3.01423 0.809368 0
M  V30 3046 N 294.142 -0.090211 1.57342 0
M  V30 3047 C 295.558 -0.444547 1.53284 0
M  V30 3048 C 295.758 -1.80238 0.900914 0
M  V30 3049 O 294.814 -2.4759 0.495513 0
M  V30 3050 C 296.127 -0.402543 2.97993 0
M  V30 3051 C 297.675 -0.48405 3.09234 0
M  V30 3052 C 298.15 -0.472144 4.5556 0
M  V30 3053 N 299.641 -0.532757 4.60126 0
M  V30 3054 C 300.376 -0.545462 5.708 0
M  V30 3055 N 299.872 -0.514082 6.9089 0
M  V30 3056 N 301.665 -0.59064 5.58988 0
M  V30 3057 H 293.816 0.799121 1.96794 0
M  V30 3058 H 296.079 0.297965 0.899956 0
M  V30 3059 H 295.785 0.528106 3.47712 0
M  V30 3060 H 295.659 -1.21969 3.56936 0
M  V30 3061 H 298.046 -1.40512 2.595 0
M  V30 3062 H 298.127 0.361328 2.53235 0
M  V30 3063 H 297.771 0.445 5.05947 0
M  V30 3064 H 297.701 -1.3348 5.09402 0
M  V30 3065 H 300.192 -0.562006 3.73698 0
M  V30 3066 H 300.505 -0.527195 7.71 0
M  V30 3067 H 298.85 -0.481054 6.93333 0
M  V30 3068 H 302.041 -0.61272 4.64073 0
M  V30 3069 H 302.214 -0.597073 6.45243 0
M  V30 3070 N 295.62 -1.53406 -0.361157 0
M  V30 3071 C 296.53 -1.83122 -1.4664 0
M  V30 3072 C 297.546 -0.719943 -1.58407 0
M  V30 3073 O 298.722 -1.01046 -1.74218 0
M  V30 3074 C 295.787 -2.01891 -2.81853 0
M  V30 3075 C 294.848 -3.25784 -2.79577 0
M  V30 3076 C 294.081 -3.43648 -4.0834 0
M  V30 3077 O 294.304 -2.65714 -5.0473 0
M  V30 3078 O 293.238 -4.37018 -4.13883 0
M  V30 3079 H 297.064 -2.7703 -1.24451 0
M  V30 3080 H 294.649 -1.38841 -0.551678 0
M  V30 3081 H 296.531 -2.15782 -3.61962 0
M  V30 3082 H 295.206 -1.11173 -3.0401 0
M  V30 3083 H 294.113 -3.17312 -1.98151 0
M  V30 3084 H 295.446 -4.16439 -2.62373 0
M  V30 3085 N 297.098 0.621204 -1.44841 0
M  V30 3086 C 298.346 1.37783 -1.47852 0
M  V30 3087 C 298.667 1.94653 -0.116224 0
M  V30 3088 O 297.937 1.76367 0.852737 0
M  V30 3089 H 296.517 0.511453 -0.544449 0
M  V30 3090 H 299.179 0.730446 -1.80694 0
M  V30 3091 H 298.275 2.20414 -2.20961 0
M  V30 3092 N 298.576 1.31904 0.862503 0
M  V30 3093 C 299.992 1.10724 1.14945 0
M  V30 3094 C 300.192 -0.117421 2.01158 0
M  V30 3095 O 299.248 -0.804595 2.39338 0
M  V30 3096 C 300.561 2.38267 1.83437 0
M  V30 3097 C 302.109 2.43949 1.96106 0
M  V30 3098 C 302.584 3.71394 2.68013 0
M  V30 3099 N 304.075 3.72331 2.75543 0
M  V30 3100 C 304.81 4.67641 3.31812 0
M  V30 3101 N 304.306 5.73313 3.88953 0
M  V30 3102 N 306.099 4.5515 3.29841 0
M  V30 3103 H 298.25 2.10436 0.288191 0
M  V30 3104 H 300.513 0.928705 0.190292 0
M  V30 3105 H 300.219 3.27759 1.27542 0
M  V30 3106 H 300.093 2.48633 2.83657 0
M  V30 3107 H 302.48 1.54922 2.51164 0
M  V30 3108 H 302.561 2.37543 0.949059 0
M  V30 3109 H 302.205 4.60791 2.13621 0
M  V30 3110 H 302.135 3.75069 3.69636 0
M  V30 3111 H 304.626 2.95947 2.34997 0
M  V30 3112 H 304.939 6.42107 4.30022 0
M  V30 3113 H 303.284 5.77077 3.87308 0
M  V30 3114 H 306.475 3.71766 2.84443 0
M  V30 3115 H 306.648 5.29604 3.73394 0
M  V30 3116 N 300.054 -1.07777 1.14986 0
M  V30 3117 C 300.984 -2.16865 0.865557 0
M  V30 3118 C 301.965 -1.69123 -0.182083 0
M  V30 3119 O 303.15 -1.94164 -0.0373815 0
M  V30 3120 C 300.28 -3.45539 0.349313 0
M  V30 3121 C 299.234 -4.06708 1.33313 0
M  V30 3122 C 298.56 -5.30411 0.675918 0
M  V30 3123 C 299.86 -4.47241 2.69764 0
M  V30 3124 H 301.554 -2.40905 1.77778 0
M  V30 3125 H 299.1 -1.15781 0.856203 0
M  V30 3126 H 301.053 -4.21174 0.137983 0
M  V30 3127 H 299.777 -3.21072 -0.598362 0
M  V30 3128 H 298.436 -3.33112 1.53075 0
M  V30 3129 H 298.084 -5.02232 -0.277767 0
M  V30 3130 H 297.784 -5.72293 1.33244 0
M  V30 3131 H 299.308 -6.08755 0.474262 0
M  V30 3132 H 300.722 -5.14025 2.53873 0
M  V30 3133 H 299.119 -5.00062 3.3175 0
M  V30 3134 H 300.189 -3.58818 3.26156 0
M  V30 3135 N 301.532 -0.945985 -1.26051 0
M  V30 3136 C 302.757 -0.612525 -1.98149 0
M  V30 3137 C 303.182 0.806623 -1.69927 0
M  V30 3138 O 302.54 1.54411 -0.950108 0
M  V30 3139 C 302.588 -0.866981 -3.50023 0
M  V30 3140 O 301.692 0.0585333 -4.12358 0
M  V30 3141 H 301.033 -0.23379 -0.621481 0
M  V30 3142 H 303.563 -1.27023 -1.60395 0
M  V30 3143 H 303.573 -0.789792 -4.00283 0
M  V30 3144 H 302.248 -1.90135 -3.69894 0
M  V30 3145 H 300.825 -0.0701241 -3.72834 0
M  V30 3146 N 303.011 1.40521 -0.713556 0
M  V30 3147 C 303.974 2.29098 -0.0684347 0
M  V30 3148 C 304.974 1.45268 0.689472 0
M  V30 3149 O 306.164 1.66205 0.521677 0
M  V30 3150 C 303.296 3.28446 0.913024 0
M  V30 3151 H 304.489 2.87645 -0.84855 0
M  V30 3152 H 302.042 1.48809 -0.47809 0
M  V30 3153 H 302.777 2.74913 1.72027 0
M  V30 3154 H 302.562 3.90327 0.372472 0
M  V30 3155 H 304.052 3.94777 1.36165 0
M  V30 3156 N 304.489 0.459591 1.5075 0
M  V30 3157 C 305.452 -0.329093 2.26825 0
M  V30 3158 C 306.452 -0.930481 1.31144 0
M  V30 3159 O 307.642 -0.801453 1.54669 0
M  V30 3160 C 304.774 -1.46768 3.07688 0
M  V30 3161 H 305.967 0.337924 2.9799 0
M  V30 3162 H 303.52 0.213336 1.54837 0
M  V30 3163 H 304.255 -2.17009 2.40993 0
M  V30 3164 H 304.04 -1.04238 3.77991 0
M  V30 3165 H 305.53 -2.02433 3.65254 0
M  V30 3166 N 305.967 -1.56429 0.191757 0
M  V30 3167 C 307.216 -1.9666 -0.448088 0
M  V30 3168 C 307.529 -1.08136 -1.62991 0
M  V30 3169 O 308.735 -1.38135 -2.33733 0
M  V30 3170 C 307.191 -3.49753 -0.848585 0
M  V30 3171 C 306.799 -4.46935 0.308764 0
M  V30 3172 C 308.543 -3.9876 -1.4557 0
M  V30 3173 C 306.45 -5.91293 -0.112506 0
M  V30 3174 H 305.38 -0.734312 -0.171179 0
M  V30 3175 H 308.031 -1.81301 0.283242 0
M  V30 3176 H 306.413 -3.60604 -1.63649 0
M  V30 3177 H 307.587 -4.47813 1.08627 0
M  V30 3178 H 305.902 -4.08102 0.827158 0
M  V30 3179 H 308.499 -5.04086 -1.78328 0
M  V30 3180 H 308.842 -3.42875 -2.36099 0
M  V30 3181 H 309.375 -3.9101 -0.731836 0
M  V30 3182 H 306.114 -6.51097 0.758514 0
M  V30 3183 H 305.634 -5.93676 -0.854941 0
M  V30 3184 H 307.313 -6.44663 -0.549448 0
M  V30 3185 N 307.445 0.0818655 -1.57387 0
M  V30 3186 C 308.861 0.436412 -1.53517 0
M  V30 3187 C 309.061 1.79758 -0.910459 0
M  V30 3188 O 308.117 2.47324 -0.508636 0
M  V30 3189 C 309.43 0.386734 -2.98203 0
M  V30 3190 C 310.978 0.467644 -3.09487 0
M  V30 3191 C 311.453 0.447978 -4.55804 0
M  V30 3192 N 312.944 0.508348 -4.60402 0
M  V30 3193 C 313.679 0.515184 -5.71081 0
M  V30 3194 N 313.175 0.477435 -6.91153 0
M  V30 3195 N 314.968 0.560988 -5.59294 0
M  V30 3196 H 307.119 -0.809546 -1.96367 0
M  V30 3197 H 309.382 -0.302733 -0.898363 0
M  V30 3198 H 309.088 -0.546539 -3.47427 0
M  V30 3199 H 308.962 1.20075 -3.57578 0
M  V30 3200 H 311.349 1.39134 -2.60242 0
M  V30 3201 H 311.43 -0.374753 -2.5304 0
M  V30 3202 H 311.074 -0.471826 -5.05704 0
M  V30 3203 H 311.004 1.30777 -5.10103 0
M  V30 3204 H 313.495 0.54218 -3.7399 0
M  V30 3205 H 313.808 0.486299 -7.71268 0
M  V30 3206 H 312.153 0.444278 -6.93579 0
M  V30 3207 H 315.344 0.5881 -4.64391 0
M  V30 3208 H 315.517 0.562846 -6.45551 0
M  V30 3209 N 308.923 1.53595 0.353017 0
M  V30 3210 C 309.886 1.80232 1.41594 0
M  V30 3211 C 310.886 0.673081 1.46035 0
M  V30 3212 O 312.076 0.941335 1.46576 0
M  V30 3213 C 309.208 1.93578 2.80607 0
M  V30 3214 H 310.401 2.75174 1.19244 0
M  V30 3215 H 307.954 1.44864 0.586872 0
M  V30 3216 H 308.689 1.00746 3.08254 0
M  V30 3217 H 308.474 2.75724 2.78781 0
M  V30 3218 H 309.964 2.15735 3.57558 0
M  V30 3219 N 310.401 -0.613514 1.45168 0
M  V30 3220 C 311.626 -1.40437 1.52618 0
M  V30 3221 C 312.051 -1.87438 0.157707 0
M  V30 3222 O 311.409 -1.59791 -0.856537 0
M  V30 3223 C 311.457 -2.58894 2.51011 0
M  V30 3224 O 310.561 -3.59326 2.02382 0
M  V30 3225 H 309.902 -0.419506 0.514695 0
M  V30 3226 H 312.432 -0.747215 1.90467 0
M  V30 3227 H 312.442 -3.06214 2.69624 0
M  V30 3228 H 311.117 -2.24032 3.50403 0
M  V30 3229 H 309.694 -3.18695 1.93618 0
M  V30 3230 N 311.879 -1.3236 -0.855495 0
M  V30 3231 C 312.811 -1.17052 -1.97057 0
M  V30 3232 C 313.824 -0.10574 -1.62456 0
M  V30 3233 O 315.013 -0.354619 -1.74942 0
M  V30 3234 C 312.113 -0.769305 -3.30053 0
M  V30 3235 C 311.286 -1.9222 -3.929 0
M  V30 3236 C 310.345 -1.50466 -5.04228 0
M  V30 3237 O 309.371 -2.21655 -5.24269 0
M  V30 3238 N 310.573 -0.400209 -5.79119 0
M  V30 3239 H 313.338 -2.13103 -2.1073 0
M  V30 3240 H 310.899 -1.24885 -1.0303 0
M  V30 3241 H 312.891 -0.472407 -4.01933 0
M  V30 3242 H 311.461 0.100025 -3.1244 0
M  V30 3243 H 310.681 -2.38563 -3.13817 0
M  V30 3244 H 311.969 -2.69403 -4.31624 0
M  V30 3245 H 311.367 0.192319 -5.65373 0
M  V30 3246 H 309.924 -0.162912 -6.51596 0
M  V30 3247 N 313.357 1.07166 -1.15556 0
M  V30 3248 C 314.768 1.6127 -0.940693 0
M  V30 3249 C 315.119 1.89251 0.517551 0
M  V30 3250 O 314.244 1.65937 1.38903 0
M  V30 3251 C 314.839 2.92993 -1.7012 0
M  V30 3252 C 313.398 3.43832 -1.53156 0
M  V30 3253 C 312.545 2.1786 -1.71558 0
M  V30 3254 H 315.496 0.90229 -1.30554 0
M  V30 3255 H 315.517 3.62007 -1.17181 0
M  V30 3256 H 315.029 2.72596 -2.76248 0
M  V30 3257 H 313.13 3.69307 -0.494294 0
M  V30 3258 H 313.243 4.19747 -2.30975 0
M  V30 3259 H 311.607 2.2765 -1.14225 0
M  V30 3260 H 312.39 1.99956 -2.79056 0
M  V30 3261 N 314.835 0.952656 1.25548 0
M  V30 3262 C 316.251 0.656769 1.4546 0
M  V30 3263 C 316.451 -0.78633 1.85524 0
M  V30 3264 O 315.507 -1.56183 1.98402 0
M  V30 3265 C 316.82 1.62801 2.52817 0
M  V30 3266 C 318.368 1.63897 2.66659 0
M  V30 3267 C 318.843 2.5978 3.77198 0
M  V30 3268 N 320.334 2.58133 3.84606 0
M  V30 3269 C 321.069 3.29003 4.69621 0
M  V30 3270 N 320.565 4.09339 5.58939 0
M  V30 3271 N 322.358 3.179 4.63569 0
M  V30 3272 H 314.509 1.88526 0.978344 0
M  V30 3273 H 316.772 0.810815 0.491206 0
M  V30 3274 H 316.478 2.65869 2.30232 0
M  V30 3275 H 316.352 1.38898 3.50695 0
M  V30 3276 H 318.739 0.615481 2.8861 0
M  V30 3277 H 318.82 1.91858 1.69187 0
M  V30 3278 H 318.464 3.62254 3.55997 0
M  V30 3279 H 318.394 2.29105 4.7415 0
M  V30 3280 H 320.885 1.99809 3.20757 0
M  V30 3281 H 321.198 4.6034 6.20731 0
M  V30 3282 H 319.543 4.13438 5.58654 0
M  V30 3283 H 322.734 2.54612 3.92798 0
M  V30 3284 H 322.907 3.73398 5.29602 0
M  V30 3285 N 316.313 -1.40141 0.720998 0
M  V30 3286 C 317.243 -2.33339 0.0867621 0
M  V30 3287 C 318.224 -1.53178 -0.739622 0
M  V30 3288 O 319.409 -1.81625 -0.687449 0
M  V30 3289 C 316.539 -3.37194 -0.831728 0
M  V30 3290 C 315.493 -4.27857 -0.110558 0
M  V30 3291 C 314.819 -5.22294 -1.14513 0
M  V30 3292 C 316.119 -5.11872 1.0385 0
M  V30 3293 H 317.813 -2.86626 0.865219 0
M  V30 3294 H 315.359 -1.37814 0.417516 0
M  V30 3295 H 317.312 -4.01335 -1.28485 0
M  V30 3296 H 316.036 -2.82314 -1.64214 0
M  V30 3297 H 314.695 -3.65176 0.322797 0
M  V30 3298 H 314.343 -4.63717 -1.94874 0
M  V30 3299 H 314.043 -5.83797 -0.667446 0
M  V30 3300 H 315.567 -5.89312 -1.59824 0
M  V30 3301 H 316.981 -5.69436 0.664482 0
M  V30 3302 H 315.378 -5.82445 1.4449 0
M  V30 3303 H 316.448 -4.4753 1.86668 0
M  V30 3304 N 317.792 -0.46758 -1.50504 0
M  V30 3305 C 318.722 0.318381 -2.31319 0
M  V30 3306 C 319.703 0.993564 -1.38066 0
M  V30 3307 O 320.888 0.991411 -1.66987 0
M  V30 3308 C 318.018 1.40275 -3.17711 0
M  V30 3309 C 316.972 0.849373 -4.19487 0
M  V30 3310 C 316.298 2.03177 -4.94594 0
M  V30 3311 C 317.598 -0.136942 -5.2212 0
M  V30 3312 H 319.292 -0.356106 -2.97275 0
M  V30 3313 H 316.838 -0.172703 -1.42961 0
M  V30 3314 H 318.791 1.96004 -3.73042 0
M  V30 3315 H 317.515 2.10596 -2.49634 0
M  V30 3316 H 316.174 0.314076 -3.65252 0
M  V30 3317 H 315.822 2.72187 -4.22993 0
M  V30 3318 H 315.522 1.66774 -5.63436 0
M  V30 3319 H 317.046 2.59403 -5.52759 0
M  V30 3320 H 318.46 0.331056 -5.72343 0
M  V30 3321 H 316.857 -0.41507 -5.98663 0
M  V30 3322 H 317.927 -1.06398 -4.73083 0
M  V30 3323 N 319.27 1.56325 -0.20005 0
M  V30 3324 C 320.517 1.97719 0.437411 0
M  V30 3325 C 320.845 1.08709 1.61284 0
M  V30 3326 O 320.1 0.127261 1.95286 0
M  V30 3327 C 320.399 3.4495 0.935103 0
M  V30 3328 C 320.065 4.5072 -0.12749 0
M  V30 3329 C 318.727 4.79368 -0.419451 0
M  V30 3330 C 321.079 5.14268 -0.847231 0
M  V30 3331 C 318.407 5.68854 -1.43604 0
M  V30 3332 C 320.759 6.04852 -1.85301 0
M  V30 3333 C 319.423 6.31855 -2.15211 0
M  V30 3334 H 318.693 0.723507 0.16006 0
M  V30 3335 H 321.34 1.89166 -0.298056 0
M  V30 3336 H 319.645 3.50599 1.74894 0
M  V30 3337 H 321.342 3.74337 1.43781 0
M  V30 3338 H 317.932 4.28458 0.11023 0
M  V30 3339 H 322.116 4.92222 -0.634901 0
M  V30 3340 H 317.372 5.88047 -1.67364 0
M  V30 3341 H 321.546 6.53152 -2.41591 0
M  V30 3342 H 319.173 7.00994 -2.94129 0
M  V30 3343 N 320.748 -0.0735177 1.57428 0
M  V30 3344 C 321.68 -1.11423 2.00294 0
M  V30 3345 C 322.693 -1.35084 0.908637 0
M  V30 3346 O 323.882 -1.33355 1.18654 0
M  V30 3347 C 320.982 -2.46548 2.32523 0
M  V30 3348 C 320.155 -2.42867 3.63778 0
M  V30 3349 C 319.214 -3.60087 3.83697 0
M  V30 3350 O 318.24 -3.41595 4.55304 0
M  V30 3351 N 319.442 -4.80372 3.25919 0
M  V30 3352 H 322.207 -0.749206 2.90184 0
M  V30 3353 H 319.768 -0.262195 1.59763 0
M  V30 3354 H 321.76 -3.23607 2.43024 0
M  V30 3355 H 320.33 -2.75059 1.48531 0
M  V30 3356 H 319.55 -1.51206 3.64047 0
M  V30 3357 H 320.838 -2.37506 4.49965 0
M  V30 3358 H 320.236 -4.983 2.67795 0
M  V30 3359 H 318.793 -5.54948 3.41871 0
M  V30 3360 N 322.226 -1.5378 -0.344866 0
M  V30 3361 C 323.475 -1.7018 -1.08267 0
M  V30 3362 C 323.788 -0.471 -1.89845 0
M  V30 3363 O 324.994 -0.515917 -2.66553 0
M  V30 3364 C 323.45 -3.00923 -1.97417 0
M  V30 3365 C 323.058 -4.31335 -1.21053 0
M  V30 3366 C 324.802 -3.26688 -2.71063 0
M  V30 3367 C 322.709 -5.53153 -2.09225 0
M  V30 3368 H 321.639 -0.634138 -0.407903 0
M  V30 3369 H 324.29 -1.8028 -0.342246 0
M  V30 3370 H 322.672 -2.84676 -2.75274 0
M  V30 3371 H 323.846 -4.58281 -0.481159 0
M  V30 3372 H 322.161 -4.12173 -0.591813 0
M  V30 3373 H 324.758 -4.1489 -3.37299 0
M  V30 3374 H 325.101 -2.43639 -3.37558 0
M  V30 3375 H 325.634 -3.43705 -2.0028 0
M  V30 3376 H 322.373 -6.38741 -1.47274 0
M  V30 3377 H 321.893 -5.30458 -2.79955 0
M  V30 3378 H 323.572 -5.88744 -2.68308 0
M  V30 3379 N 323.704 0.605807 -1.45491 0
M  V30 3380 C 324.951 1.36476 -1.49601 0
M  V30 3381 C 325.279 1.94007 -0.138452 0
M  V30 3382 O 324.534 1.75638 0.863114 0
M  V30 3383 C 324.833 2.53012 -2.52428 0
M  V30 3384 C 324.499 2.13617 -3.97087 0
M  V30 3385 C 323.161 2.02587 -4.36477 0
M  V30 3386 C 325.513 1.82899 -4.88055 0
M  V30 3387 C 322.841 1.59064 -5.64726 0
M  V30 3388 C 325.193 1.40861 -6.16718 0
M  V30 3389 C 323.857 1.28391 -6.55036 0
M  V30 3390 H 323.127 0.499402 -0.547429 0
M  V30 3391 H 325.774 0.684546 -1.78847 0
M  V30 3392 H 324.079 3.26379 -2.16758 0
M  V30 3393 H 325.776 3.1124 -2.52845 0
M  V30 3394 H 322.366 2.23129 -3.65939 0
M  V30 3395 H 326.55 1.90317 -4.58359 0
M  V30 3396 H 321.806 1.48034 -5.93208 0
M  V30 3397 H 325.98 1.16138 -6.86648 0
M  V30 3398 H 323.607 0.944403 -7.54311 0
M  V30 3399 N 325.182 1.32811 0.848464 0
M  V30 3400 C 326.43 1.23479 1.59991 0
M  V30 3401 C 326.751 -0.201853 1.93952 0
M  V30 3402 O 326.021 -1.12818 1.60153 0
M  V30 3403 H 324.601 0.454034 0.593179 0
M  V30 3404 H 327.263 1.66412 1.01455 0
M  V30 3405 H 326.359 1.82178 2.53412 0
M  V30 3406 N 326.66 -1.06551 1.16123 0
M  V30 3407 C 327.888 -1.83005 0.965237 0
M  V30 3408 C 328.303 -1.82423 -0.486542 0
M  V30 3409 O 327.66 -1.24152 -1.33763 0
M  V30 3410 C 327.711 -3.29733 1.48183 0
M  V30 3411 O 327.432 -3.30416 2.87674 0
M  V30 3412 C 328.933 -4.22926 1.32848 0
M  V30 3413 H 326.153 -0.577118 0.342309 0
M  V30 3414 H 328.697 -1.3445 1.54089 0
M  V30 3415 H 326.852 -3.75609 0.948517 0
M  V30 3416 H 327.266 -4.22149 3.11272 0
M  V30 3417 H 328.74 -5.23916 1.73827 0
M  V30 3418 H 329.217 -4.38346 0.273692 0
M  V30 3419 H 329.823 -3.82894 1.85127 0
M  V30 3420 N 328.138 -0.959301 -1.25041 0
M  V30 3421 C 329.386 -0.615393 -1.92503 0
M  V30 3422 C 329.707 0.850969 -1.75452 0
M  V30 3423 O 328.977 1.60658 -1.12098 0
M  V30 3424 H 327.557 -0.224613 -0.712431 0
M  V30 3425 H 330.219 -1.21855 -1.5211 0
M  V30 3426 H 329.315 -0.848738 -3.00338 0
M  V30 3427 N 329.616 1.39756 -0.72842 0
M  V30 3428 C 330.566 2.2792 -0.0603424 0
M  V30 3429 C 331.55 1.43922 0.719399 0
M  V30 3430 O 332.742 1.66895 0.589489 0
M  V30 3431 C 329.871 3.32582 0.851104 0
M  V30 3432 C 328.957 4.24049 0.0658641 0
M  V30 3433 N 329.348 4.96653 -0.957578 0
M  V30 3434 C 327.646 4.45013 0.296509 0
M  V30 3435 C 328.347 5.63836 -1.43052 0
M  V30 3436 N 327.323 5.38397 -0.750315 0
M  V30 3437 H 331.125 2.81504 -0.84455 0
M  V30 3438 H 328.639 1.5236 -0.562155 0
M  V30 3439 H 330.636 3.94603 1.34514 0
M  V30 3440 H 329.296 2.80558 1.63454 0
M  V30 3441 H 330.307 5.00297 -1.33877 0
M  V30 3442 H 326.984 4.03943 1.05527 0
M  V30 3443 H 328.374 6.31974 -2.28163 0
M  V30 3444 N 331.094 0.475555 1.50254 0
M  V30 3445 C 332.319 -0.0777042 2.07254 0
M  V30 3446 C 332.744 -1.3235 1.3366 0
M  V30 3447 O 332.102 -1.77152 0.385597 0
M  V30 3448 C 332.15 -0.340169 3.58992 0
M  V30 3449 O 331.254 -1.41982 3.87188 0
M  V30 3450 H 330.595 0.0149556 0.663832 0
M  V30 3451 H 333.125 0.667878 1.93392 0
M  V30 3452 H 333.135 -0.579332 4.03866 0
M  V30 3453 H 331.81 0.570167 4.11973 0
M  V30 3454 H 330.387 -1.16762 3.54148 0
M  V30 3455 N 332.573 -1.56217 0.208337 0
M  V30 3456 C 333.798 -2.02782 -0.435222 0
M  V30 3457 C 334.223 -1.08738 -1.53485 0
M  V30 3458 O 333.581 -0.0731855 -1.81152 0
M  V30 3459 C 333.629 -3.47687 -0.956335 0
M  V30 3460 O 332.733 -3.56773 -2.06849 0
M  V30 3461 H 332.074 -0.656403 -0.100158 0
M  V30 3462 H 334.604 -2.02033 0.3231 0
M  V30 3463 H 334.614 -3.87745 -1.26955 0
M  V30 3464 H 333.289 -4.15624 -0.15143 0
M  V30 3465 H 331.866 -3.28597 -1.76292 0
M  V30 3466 N 334.051 0.0651679 -1.57465 0
M  V30 3467 C 334.981 1.07693 -2.07182 0
M  V30 3468 C 335.962 1.39962 -0.966673 0
M  V30 3469 O 337.147 1.49475 -1.2398 0
M  V30 3470 C 334.277 2.3885 -2.52127 0
M  V30 3471 C 333.231 2.20917 -3.66579 0
M  V30 3472 C 332.557 3.57515 -3.97601 0
M  V30 3473 C 333.857 1.62493 -4.9638 0
M  V30 3474 H 335.551 0.663199 -2.91962 0
M  V30 3475 H 333.097 0.317569 -1.40455 0
M  V30 3476 H 335.05 3.09928 -2.85522 0
M  V30 3477 H 333.774 2.82215 -1.64384 0
M  V30 3478 H 332.433 1.52279 -3.33477 0
M  V30 3479 H 332.081 3.98463 -3.06979 0
M  V30 3480 H 331.781 3.46353 -4.74672 0
M  V30 3481 H 333.305 4.30013 -4.33499 0
M  V30 3482 H 334.719 2.23445 -5.27963 0
M  V30 3483 H 333.116 1.62009 -5.77818 0
M  V30 3484 H 334.186 0.587041 -4.81333 0
M  V30 3485 N 335.529 1.53961 0.336706 0
M  V30 3486 C 336.439 1.85432 1.43708 0
M  V30 3487 C 337.455 0.745053 1.57242 0
M  V30 3488 O 338.631 1.03804 1.72588 0
M  V30 3489 C 335.696 2.06349 2.78605 0
M  V30 3490 C 334.757 3.30191 2.74358 0
M  V30 3491 C 333.99 3.50101 4.02822 0
M  V30 3492 O 334.213 2.7371 5.00439 0
M  V30 3493 O 333.147 4.43547 4.06878 0
M  V30 3494 H 336.973 2.78975 1.20028 0
M  V30 3495 H 334.558 1.39701 0.52952 0
M  V30 3496 H 336.44 2.21513 3.58483 0
M  V30 3497 H 335.115 1.15995 3.02203 0
M  V30 3498 H 334.022 3.20425 1.93078 0
M  V30 3499 H 335.355 4.2056 2.55715 0
M  V30 3500 N 337.007 -0.598083 1.45811 0
M  V30 3501 C 338.232 -1.3881 1.54099 0
M  V30 3502 C 338.657 -1.8726 0.177578 0
M  V30 3503 O 338.015 -1.6069 -0.839541 0
M  V30 3504 C 338.063 -2.56217 2.53743 0
M  V30 3505 O 337.167 -3.5716 2.06182 0
M  V30 3506 H 336.508 -0.414024 0.519115 0
M  V30 3507 H 339.038 -0.726971 1.91249 0
M  V30 3508 H 339.048 -3.03337 2.72856 0
M  V30 3509 H 337.723 -2.20303 3.5276 0
M  V30 3510 H 336.3 -3.16624 1.96987 0
M  V30 3511 N 338.485 -1.33259 -0.841409 0
M  V30 3512 C 339.896 -1.22066 -1.41269 0
M  V30 3513 C 340.247 0.161479 -1.95534 0
M  V30 3514 O 339.372 1.06094 -1.88608 0
M  V30 3515 C 339.967 -2.20996 -2.568 0
M  V30 3516 C 338.526 -2.13649 -3.09888 0
M  V30 3517 C 337.673 -2.08623 -1.82679 0
M  V30 3518 H 340.624 -1.44895 -0.647395 0
M  V30 3519 H 340.645 -1.81621 -3.34356 0
M  V30 3520 H 340.157 -3.2158 -2.17274 0
M  V30 3521 H 338.258 -1.16359 -3.53965 0
M  V30 3522 H 338.371 -3.04079 -3.70234 0
M  V30 3523 H 336.735 -1.54061 -2.02824 0
M  V30 3524 H 337.518 -3.1101 -1.45353 0
M  V30 3525 N 339.963 1.05934 -1.16686 0
M  V30 3526 C 341.191 1.8249 -0.974929 0
M  V30 3527 C 341.606 1.82679 0.476861 0
M  V30 3528 O 340.963 1.2486 1.33103 0
M  V30 3529 C 341.014 3.28943 -1.49929 0
M  V30 3530 O 340.735 3.28886 -2.89423 0
M  V30 3531 C 342.236 4.22215 -1.35089 0
M  V30 3532 H 339.456 0.575295 -0.345365 0
M  V30 3533 H 342 1.33631 -1.548 0
M  V30 3534 H 340.155 3.751 -0.968423 0
M  V30 3535 H 340.569 4.20493 -3.13506 0
M  V30 3536 H 342.043 5.22987 -1.76603 0
M  V30 3537 H 342.52 4.38195 -0.296935 0
M  V30 3538 H 343.126 3.81907 -1.87155 0
M  V30 3539 N 341.441 0.965919 1.2453 0
M  V30 3540 C 342.389 0.486506 2.27455 0
M  V30 3541 C 343.383 -0.449041 1.6334 0
M  V30 3542 O 344.589 -0.324527 1.7705 0
M  V30 3543 H 340.964 0.138857 0.739069 0
M  V30 3544 H 342.935 1.3666 2.65267 0
M  V30 3545 C 341.684 -0.209481 3.47068 0
M  V30 3546 H 341.007 0.50129 3.96645 0
M  V30 3547 H 342.447 -0.508775 4.20936 0
M  V30 3548 C 340.906 -1.43586 3.0477 0
M  V30 3549 O 341.436 -2.53299 3.11773 0
M  V30 3550 N 339.642 -1.30126 2.59838 0
M  V30 3551 H 339.189 -0.408583 2.54339 0
M  V30 3552 H 339.147 -2.12294 2.31902 0
M  V30 3553 N 342.919 -1.39368 0.735821 0
M  V30 3554 C 343.852 -2.28155 0.0451175 0
M  V30 3555 C 344.83 -1.44433 -0.746852 0
M  V30 3556 O 346.014 -1.73823 -0.729237 0
M  V30 3557 C 343.141 -3.253 -0.943266 0
M  V30 3558 C 342.187 -4.25826 -0.239685 0
M  V30 3559 S 343.02 -5.25166 1.04693 0
M  V30 3560 C 344.176 -6.2587 0.0611639 0
M  V30 3561 H 344.409 -2.86388 0.79807 0
M  V30 3562 H 341.942 -1.45104 0.527653 0
M  V30 3563 H 343.9 -3.81789 -1.50824 0
M  V30 3564 H 342.561 -2.66085 -1.66906 0
M  V30 3565 H 341.754 -4.94229 -0.987596 0
M  V30 3566 H 341.356 -3.73141 0.253274 0
M  V30 3567 H 343.648 -6.73007 -0.778941 0
M  V30 3568 H 344.591 -7.04508 0.712362 0
M  V30 3569 H 344.999 -5.63639 -0.311602 0
M  V30 3570 N 344.397 -0.483516 -1.5 0
M  V30 3571 C 345.808 -0.0314176 -1.86674 0
M  V30 3572 C 346.159 1.37728 -1.39733 0
M  V30 3573 O 345.284 2.02327 -0.767635 0
M  V30 3574 C 345.879 -0.0502376 -3.38763 0
M  V30 3575 C 344.438 0.346442 -3.74802 0
M  V30 3576 C 343.585 -0.430366 -2.7394 0
M  V30 3577 H 346.536 -0.697182 -1.42566 0
M  V30 3578 H 346.557 0.749116 -3.73053 0
M  V30 3579 H 346.069 -1.07563 -3.72897 0
M  V30 3580 H 344.17 1.37572 -3.46273 0
M  V30 3581 H 344.283 0.0391486 -4.79084 0
M  V30 3582 H 342.647 0.117557 -2.54429 0
M  V30 3583 H 343.43 -1.4555 -3.10918 0
M  V30 3584 N 345.875 1.56104 -0.216619 0
M  V30 3585 C 347.1 2.0301 0.424462 0
M  V30 3586 C 347.525 1.0955 1.52907 0
M  V30 3587 O 346.883 0.0827914 1.81111 0
M  V30 3588 C 346.931 3.4819 0.937883 0
M  V30 3589 O 346.035 3.57865 2.04955 0
M  V30 3590 H 345.376 0.656925 0.0966755 0
M  V30 3591 H 347.906 2.01859 -0.33381 0
M  V30 3592 H 347.916 3.88413 1.24897 0
M  V30 3593 H 346.591 4.15699 0.129387 0
M  V30 3594 H 345.168 3.29527 1.74546 0
M  V30 3595 N 347.353 -0.0568162 1.57498 0
M  V30 3596 C 348.764 -0.606858 1.76562 0
M  V30 3597 C 349.115 -1.77114 0.844094 0
M  V30 3598 O 348.24 -2.16376 0.0318911 0
M  V30 3599 C 348.835 -1.10766 3.20182 0
M  V30 3600 C 347.394 -1.60344 3.40539 0
M  V30 3601 C 346.541 -0.529311 2.72201 0
M  V30 3602 H 349.492 0.169393 1.57793 0
M  V30 3603 H 349.513 -1.97602 3.25167 0
M  V30 3604 H 349.025 -0.26006 3.87228 0
M  V30 3605 H 347.126 -2.47379 2.78629 0
M  V30 3606 H 347.239 -1.67006 4.4905 0
M  V30 3607 H 345.603 -0.977893 2.35179 0
M  V30 3608 H 346.386 0.308352 3.41912 0
M  V30 3609 N 348.832 -1.54138 -0.328536 0
M  V30 3610 C 350.057 -1.76378 -1.09112 0
M  V30 3611 C 350.482 -0.508596 -1.81094 0
M  V30 3612 O 349.84 0.539598 -1.73084 0
M  V30 3613 C 349.888 -2.95358 -2.06872 0
M  V30 3614 O 348.992 -2.66556 -3.14677 0
M  V30 3615 H 348.333 -0.584614 -0.314838 0
M  V30 3616 H 350.863 -2.01146 -0.374348 0
M  V30 3617 H 350.873 -3.22566 -2.4983 0
M  V30 3618 H 349.548 -3.86385 -1.5388 0
M  V30 3619 H 348.125 -2.50282 -2.7643 0
M  V30 3620 N 350.31 0.590341 -1.46126 0
M  V30 3621 C 351.721 1.17243 -1.45296 0
M  V30 3622 C 352.072 1.95281 -0.189723 0
M  V30 3623 O 351.197 2.04502 0.707674 0
M  V30 3624 C 351.792 2.13284 -2.6324 0
M  V30 3625 C 350.351 2.66832 -2.65476 0
M  V30 3626 C 349.498 1.42557 -2.3785 0
M  V30 3627 H 352.449 0.378692 -1.54116 0
M  V30 3628 H 352.47 2.96619 -2.38323 0
M  V30 3629 H 351.982 1.56459 -3.55165 0
M  V30 3630 H 350.083 3.27548 -1.77603 0
M  V30 3631 H 350.196 3.10088 -3.65215 0
M  V30 3632 H 348.56 1.72107 -1.87753 0
M  V30 3633 H 349.343 0.875741 -3.31942 0
M  V30 3634 N 351.788 1.33704 0.83433 0
M  V30 3635 C 353.065 1.16011 1.57483 0
M  V30 3636 C 353.445 -0.27176 2.09343 0
M  V30 3637 O 352.793 -1.27146 1.89858 0
M  V30 3638 C 353.003 2.20507 2.70514 0
M  V30 3639 C 354.351 2.54898 3.39577 0
M  V30 3640 O 355.375 2.19209 2.80759 0
M  V30 3641 O 354.234 3.16158 4.45765 0
M  V30 3642 H 351.328 0.448992 0.694503 0
M  V30 3643 H 353.874 1.453 0.876691 0
M  V30 3644 H 352.646 3.16667 2.29865 0
M  V30 3645 H 352.269 1.92329 3.47987 0
M  V30 3646 N 353.266 -1.05314 1.17247 0
M  V30 3647 C 354.496 -1.81707 0.983166 0
M  V30 3648 C 354.904 -1.83222 -0.471822 0
M  V30 3649 O 354.247 -1.25721 -1.3394 0
M  V30 3650 C 354.309 -3.29134 1.44606 0
M  V30 3651 C 353.973 -3.51304 2.92292 0
M  V30 3652 C 354.97 -3.4353 3.90235 0
M  V30 3653 C 352.655 -3.78306 3.30439 0
M  V30 3654 C 354.649 -3.62442 5.24323 0
M  V30 3655 C 352.336 -3.96866 4.64694 0
M  V30 3656 C 353.334 -3.88933 5.61445 0
M  V30 3657 O 353.022 -4.06976 6.93272 0
M  V30 3658 H 352.754 -0.579476 0.348114 0
M  V30 3659 H 355.308 -1.33705 1.55924 0
M  V30 3660 H 353.538 -3.78046 0.813537 0
M  V30 3661 H 355.227 -3.87049 1.22262 0
M  V30 3662 H 355.993 -3.22648 3.62109 0
M  V30 3663 H 351.872 -3.83585 2.55702 0
M  V30 3664 H 355.416 -3.56165 5.99827 0
M  V30 3665 H 351.313 -4.1724 4.92525 0
M  V30 3666 H 352.081 -4.24209 6.99992 0
M  V30 3667 N 354.744 -0.972509 -1.24016 0
M  V30 3668 C 355.991 -0.637034 -1.92219 0
M  V30 3669 C 356.319 0.828418 -1.75976 0
M  V30 3670 O 355.574 1.61206 -1.10955 0
M  V30 3671 C 355.873 -0.963694 -3.44162 0
M  V30 3672 C 355.539 -2.41807 -3.80579 0
M  V30 3673 C 354.201 -2.81556 -3.9023 0
M  V30 3674 C 356.553 -3.36172 -3.98293 0
M  V30 3675 C 353.881 -4.14702 -4.15017 0
M  V30 3676 C 356.233 -4.68952 -4.24578 0
M  V30 3677 C 354.897 -5.08472 -4.32449 0
M  V30 3678 H 354.167 -0.233107 -0.703379 0
M  V30 3679 H 356.814 -1.2249 -1.47202 0
M  V30 3680 H 355.119 -0.29365 -3.90698 0
M  V30 3681 H 356.816 -0.682449 -3.9515 0
M  V30 3682 H 353.406 -2.09988 -3.73635 0
M  V30 3683 H 357.59 -3.06644 -3.90234 0
M  V30 3684 H 352.846 -4.4494 -4.19331 0
M  V30 3685 H 357.02 -5.42037 -4.37229 0
M  V30 3686 H 354.647 -6.11665 -4.51409 0
M  V30 3687 N 356.222 1.38976 -0.743202 0
M  V30 3688 C 357.45 2.04636 -0.30525 0
M  V30 3689 C 357.865 1.56044 1.06281 0
M  V30 3690 O 357.222 0.728921 1.67311 0
M  V30 3691 C 357.273 3.60193 -0.307177 0
M  V30 3692 O 356.994 4.06998 -1.62124 0
M  V30 3693 C 358.495 4.4306 0.145928 0
M  V30 3694 H 355.715 0.65788 -0.132041 0
M  V30 3695 H 358.259 1.77866 -1.00915 0
M  V30 3696 H 356.414 3.85835 0.347898 0
M  V30 3697 H 356.828 5.01371 -1.54036 0
M  V30 3698 H 358.302 5.51921 0.0934183 0
M  V30 3699 H 358.779 4.22706 1.19231 0
M  V30 3700 H 359.385 4.22584 -0.479886 0
M  V30 3701 N 357.7 0.491464 1.49741 0
M  V30 3702 C 358.946 -0.0485431 2.03342 0
M  V30 3703 C 359.301 -1.35566 1.36527 0
M  V30 3704 O 358.594 -1.85262 0.488729 0
M  V30 3705 C 358.788 -0.267329 3.56399 0
M  V30 3706 C 358.617 1.01703 4.38049 0
M  V30 3707 C 357.387 1.56614 4.80417 0
M  V30 3708 C 359.585 1.91782 4.77204 0
M  V30 3709 N 357.567 2.7974 5.4646 0
M  V30 3710 C 358.938 2.99489 5.42868 0
M  V30 3711 C 360.993 1.92575 4.5915 0
M  V30 3712 C 359.696 4.08005 5.92389 0
M  V30 3713 C 361.722 3.0006 5.09626 0
M  V30 3714 C 361.084 4.06485 5.75282 0
M  V30 3715 H 357.183 0.0227779 0.781668 0
M  V30 3716 H 359.767 0.664204 1.8302 0
M  V30 3717 H 357.938 -0.949126 3.76625 0
M  V30 3718 H 359.67 -0.803492 3.96644 0
M  V30 3719 H 356.425 1.11256 4.60347 0
M  V30 3720 H 356.849 3.42323 5.84075 0
M  V30 3721 H 361.491 1.11605 4.07804 0
M  V30 3722 H 359.209 4.89779 6.42761 0
M  V30 3723 H 362.795 3.01681 4.97473 0
M  V30 3724 H 361.675 4.88287 6.13633 0
M  V30 3725 N 359.178 -1.55987 0.224894 0
M  V30 3726 C 360.126 -2.21808 -0.700283 0
M  V30 3727 C 361.12 -1.19854 -1.19714 0
M  V30 3728 O 362.326 -1.37925 -1.15658 0
M  V30 3729 H 358.701 -0.711226 -0.244258 0
M  V30 3730 H 360.672 -2.98152 -0.121749 0
M  V30 3731 C 359.421 -2.91444 -1.8962 0
M  V30 3732 H 358.744 -3.69655 -1.52299 0
M  V30 3733 H 360.184 -3.40894 -2.52125 0
M  V30 3734 C 358.643 -1.94098 -2.75368 0
M  V30 3735 O 359.173 -1.46004 -3.74227 0
M  V30 3736 N 357.379 -1.61675 -2.41474 0
M  V30 3737 H 356.926 -2.00979 -1.61137 0
M  V30 3738 H 356.884 -0.968036 -2.99126 0
M  V30 3739 N 360.656 0.0484629 -1.57525 0
M  V30 3740 C 361.586 1.0549 -2.08313 0
M  V30 3741 C 362.567 1.38929 -0.981463 0
M  V30 3742 O 363.752 1.48151 -1.25558 0
M  V30 3743 C 360.882 2.36162 -2.54646 0
M  V30 3744 C 359.836 2.17016 -3.68901 0
M  V30 3745 C 359.162 3.53278 -4.01371 0
M  V30 3746 C 360.462 1.57219 -4.98076 0
M  V30 3747 H 362.156 0.632195 -2.92649 0
M  V30 3748 H 359.702 0.302654 -1.40784 0
M  V30 3749 H 361.655 3.06882 -2.88793 0
M  V30 3750 H 360.379 2.80456 -1.67368 0
M  V30 3751 H 359.038 1.48733 -3.35073 0
M  V30 3752 H 358.686 3.95185 -3.11188 0
M  V30 3753 H 358.386 3.41299 -4.78318 0
M  V30 3754 H 359.91 4.25391 -4.38035 0
M  V30 3755 H 361.324 2.17832 -5.30304 0
M  V30 3756 H 359.721 1.55871 -5.79503 0
M  V30 3757 H 360.791 0.535956 -4.81929 0
M  V30 3758 N 362.134 1.5431 0.320358 0
M  V30 3759 C 363.362 1.76636 1.07738 0
M  V30 3760 C 363.777 0.51649 1.81598 0
M  V30 3761 O 363.134 -0.512942 1.75143 0
M  V30 3762 C 363.185 2.96158 2.07299 0
M  V30 3763 O 362.906 4.16313 1.36438 0
M  V30 3764 C 364.407 3.3072 2.95193 0
M  V30 3765 H 361.627 0.589597 0.320339 0
M  V30 3766 H 364.171 2.01207 0.36551 0
M  V30 3767 H 362.326 2.73851 2.74016 0
M  V30 3768 H 362.74 4.83565 2.03138 0
M  V30 3769 H 364.214 4.17643 3.60941 0
M  V30 3770 H 364.691 2.48026 3.62463 0
M  V30 3771 H 365.297 3.55117 2.34034 0
M  V30 3772 N 363.613 -0.582584 1.46437 0
M  V30 3773 C 364.859 -1.34064 1.52965 0
M  V30 3774 C 365.214 -1.91566 0.178968 0
M  V30 3775 O 364.507 -1.73526 -0.812365 0
M  V30 3776 C 364.701 -2.48964 2.56421 0
M  V30 3777 C 364.53 -2.02717 4.01417 0
M  V30 3778 C 363.3 -1.87728 4.69134 0
M  V30 3779 C 365.498 -1.58675 4.8921 0
M  V30 3780 N 363.48 -1.35554 5.98747 0
M  V30 3781 C 364.851 -1.18093 6.08649 0
M  V30 3782 C 366.906 -1.46494 4.75861 0
M  V30 3783 C 365.609 -0.665427 7.16215 0
M  V30 3784 C 367.635 -0.96347 5.83499 0
M  V30 3785 C 366.997 -0.567432 7.02111 0
M  V30 3786 H 363.096 -0.483551 0.614575 0
M  V30 3787 H 365.68 -0.663309 1.83053 0
M  V30 3788 H 363.851 -3.1426 2.28244 0
M  V30 3789 H 365.583 -3.15913 2.52944 0
M  V30 3790 H 362.338 -2.09678 4.24655 0
M  V30 3791 H 362.762 -1.11628 6.67734 0
M  V30 3792 H 367.404 -1.75731 3.8455 0
M  V30 3793 H 365.122 -0.360639 8.07295 0
M  V30 3794 H 368.708 -0.873129 5.75211 0
M  V30 3795 H 367.588 -0.185389 7.83981 0
M  V30 3796 N 365.091 -1.34144 -0.827227 0
M  V30 3797 C 366.34 -1.25602 -1.5782 0
M  V30 3798 C 366.653 0.173445 -1.94829 0
M  V30 3799 O 367.859 0.380984 -2.68814 0
M  V30 3800 C 366.315 -2.20151 -2.84713 0
M  V30 3801 C 365.923 -3.68331 -2.55021 0
M  V30 3802 C 367.667 -2.20508 -3.62735 0
M  V30 3803 C 365.574 -4.54762 -3.78082 0
M  V30 3804 H 364.504 -0.466573 -0.592306 0
M  V30 3805 H 367.155 -1.59283 -0.911116 0
M  V30 3806 H 365.537 -1.79417 -3.53023 0
M  V30 3807 H 366.711 -4.17577 -1.94849 0
M  V30 3808 H 365.026 -3.7038 -1.90283 0
M  V30 3809 H 367.623 -2.82306 -4.54101 0
M  V30 3810 H 367.966 -1.20322 -3.98533 0
M  V30 3811 H 368.499 -2.59664 -3.01362 0
M  V30 3812 H 365.238 -5.55867 -3.47407 0
M  V30 3813 H 364.758 -4.10254 -4.37552 0
M  V30 3814 H 366.437 -4.69153 -4.45538 0
M  V30 3815 N 366.569 1.04691 -1.17803 0
M  V30 3816 C 367.502 2.12068 -0.842765 0
M  V30 3817 C 368.48 1.61455 0.192608 0
M  V30 3818 O 369.664 1.88359 0.072995 0
M  V30 3819 C 366.791 3.37715 -0.258063 0
M  V30 3820 C 365.837 4.07164 -1.26962 0
M  V30 3821 S 366.67 4.55047 -2.82299 0
M  V30 3822 C 367.826 5.83935 -2.25323 0
M  V30 3823 H 368.059 2.4018 -1.75217 0
M  V30 3824 H 365.592 1.17366 -1.00323 0
M  V30 3825 H 367.55 4.10435 0.0727935 0
M  V30 3826 H 366.211 3.0773 0.629357 0
M  V30 3827 H 365.404 4.9746 -0.809263 0
M  V30 3828 H 365.006 3.40533 -1.54639 0
M  V30 3829 H 367.298 6.57552 -1.63192 0
M  V30 3830 H 368.241 6.34725 -3.13894 0
M  V30 3831 H 368.649 5.3874 -1.68582 0
M  V30 3832 N 368.047 0.979072 1.23499 0
M  V30 3833 C 368.994 0.517904 2.24914 0
M  V30 3834 C 369.964 -0.442525 1.60097 0
M  V30 3835 O 371.149 -0.350365 1.87556 0
M  V30 3836 C 368.289 -0.174813 3.44657 0
M  V30 3837 C 367.402 0.825721 4.24035 0
M  V30 3838 C 366.537 0.107946 5.3109 0
M  V30 3839 C 365.576 1.09778 6.02175 0
M  V30 3840 N 364.713 0.40925 7.00906 0
M  V30 3841 H 369.553 1.38751 2.63727 0
M  V30 3842 H 367.09 0.695303 1.2963 0
M  V30 3843 H 369.048 -0.593233 4.12961 0
M  V30 3844 H 367.678 -1.0083 3.06648 0
M  V30 3845 H 366.73 1.36253 3.55161 0
M  V30 3846 H 368.042 1.58005 4.73113 0
M  V30 3847 H 367.196 -0.367904 6.05583 0
M  V30 3848 H 365.935 -0.678994 4.8295 0
M  V30 3849 H 364.94 1.5844 5.26476 0
M  V30 3850 H 366.165 1.88536 6.52404 0
M  V30 3851 H 364.111 -0.358506 6.5502 0
M  V30 3852 H 364.028 1.10226 7.47921 0
M  V30 3853 H 365.296 -0.0442557 7.79487 0
M  V30 3854 N 369.525 -1.3858 0.750561 0
M  V30 3855 C 370.802 -1.94231 0.231009 0
M  V30 3856 C 371.182 -1.68611 -1.27018 0
M  V30 3857 O 370.53 -1.02296 -2.04323 0
M  V30 3858 C 370.74 -3.44123 0.581428 0
M  V30 3859 C 372.088 -4.2116 0.539389 0
M  V30 3860 O 373.112 -3.52391 0.519541 0
M  V30 3861 O 371.971 -5.43749 0.54765 0
M  V30 3862 H 369.065 -0.825639 0.0474263 0
M  V30 3863 H 371.611 -1.4799 0.830478 0
M  V30 3864 H 370.383 -3.56267 1.61833 0
M  V30 3865 H 370.006 -3.97573 -0.0462047 0
M  V30 3866 N 371.003 -0.499398 -1.49478 0
M  V30 3867 C 372.228 0.044722 -2.07352 0
M  V30 3868 C 372.653 1.30207 -1.35749 0
M  V30 3869 O 372.011 1.76516 -0.413732 0
M  V30 3870 C 372.059 0.283013 -3.59488 0
M  V30 3871 O 371.163 1.35804 -3.89398 0
M  V30 3872 H 370.504 -0.0255147 -0.66351 0
M  V30 3873 H 373.034 -0.698561 -1.92305 0
M  V30 3874 H 373.044 0.515007 -4.04737 0
M  V30 3875 H 371.719 -0.635636 -4.11014 0
M  V30 3876 H 370.296 1.11113 -3.55961 0
M  V30 3877 N 372.481 1.55866 -0.233164 0
M  V30 3878 C 373.728 1.98603 0.395374 0
M  V30 3879 C 374.056 1.12105 1.58942 0
M  V30 3880 O 373.311 0.168656 1.94972 0
M  V30 3881 C 373.61 3.46856 0.861724 0
M  V30 3882 C 373.276 4.50348 -0.223066 0
M  V30 3883 C 371.938 4.78371 -0.521038 0
M  V30 3884 C 374.29 5.12355 -0.956124 0
M  V30 3885 C 371.618 5.6568 -1.55638 0
M  V30 3886 C 373.97 6.00786 -1.98089 0
M  V30 3887 C 372.634 6.27148 -2.28565 0
M  V30 3888 H 371.904 0.726739 0.144677 0
M  V30 3889 H 374.551 1.88491 -0.338114 0
M  V30 3890 H 372.856 3.5423 1.67418 0
M  V30 3891 H 374.553 3.77302 1.35809 0
M  V30 3892 H 371.143 4.28596 0.0193234 0
M  V30 3893 H 375.327 4.90765 -0.739166 0
M  V30 3894 H 370.583 5.84365 -1.798 0
M  V30 3895 H 374.757 6.4788 -2.55391 0
M  V30 3896 H 372.384 6.94597 -3.08932 0
M  V30 3897 N 373.959 -0.0401083 1.57549 0
M  V30 3898 C 375.37 -0.588097 1.77196 0
M  V30 3899 C 375.721 -1.76209 0.862832 0
M  V30 3900 O 374.846 -2.16331 0.0548389 0
M  V30 3901 C 375.441 -1.07363 3.21339 0
M  V30 3902 C 374 -1.56723 3.42221 0
M  V30 3903 C 373.147 -0.50041 2.72747 0
M  V30 3904 H 376.098 0.186119 1.57605 0
M  V30 3905 H 376.119 -1.94143 3.27244 0
M  V30 3906 H 375.631 -0.218975 3.87482 0
M  V30 3907 H 373.732 -2.4441 2.81237 0
M  V30 3908 H 373.845 -1.62234 4.50796 0
M  V30 3909 H 372.209 -0.952894 2.36203 0
M  V30 3910 H 372.992 0.344599 3.41566 0
M  V30 3911 N 375.437 -1.54477 -0.31217 0
M  V30 3912 C 376.684 -1.73227 -1.04875 0
M  V30 3913 C 377.012 -0.512042 -1.87639 0
M  V30 3914 O 376.267 0.506131 -1.89042 0
M  V30 3915 C 376.566 -2.967 -1.99258 0
M  V30 3916 C 376.232 -4.30974 -1.32559 0
M  V30 3917 C 374.894 -4.67477 -1.141 0
M  V30 3918 C 377.246 -5.14258 -0.847835 0
M  V30 3919 C 374.574 -5.84852 -0.465326 0
M  V30 3920 C 376.926 -6.32327 -0.185931 0
M  V30 3921 C 375.59 -6.67499 0.0107077 0
M  V30 3922 H 374.86 -0.633881 -0.383765 0
M  V30 3923 H 377.507 -1.88727 -0.324731 0
M  V30 3924 H 375.812 -2.75935 -2.7815 0
M  V30 3925 H 377.509 -3.08401 -2.563 0
M  V30 3926 H 374.099 -4.02262 -1.4793 0
M  V30 3927 H 378.283 -4.86565 -0.978192 0
M  V30 3928 H 373.539 -6.10654 -0.301883 0
M  V30 3929 H 377.713 -6.96135 0.192211 0
M  V30 3930 H 375.34 -7.58306 0.536287 0
M  V30 3931 N 376.915 0.57481 -1.46744 0
M  V30 3932 C 377.845 1.69337 -1.60771 0
M  V30 3933 C 378.826 1.63825 -0.457736 0
M  V30 3934 O 380.011 1.8172 -0.684947 0
M  V30 3935 C 377.141 3.0798 -1.60517 0
M  V30 3936 C 376.095 3.28327 -2.74564 0
M  V30 3937 C 375.421 4.67578 -2.59373 0
M  V30 3938 C 376.721 3.15398 -4.16319 0
M  V30 3939 H 378.415 1.57853 -2.54407 0
M  V30 3940 H 375.961 0.75799 -1.22436 0
M  V30 3941 H 377.914 3.86061 -1.68923 0
M  V30 3942 H 376.638 3.20381 -0.634305 0
M  V30 3943 H 375.297 2.52649 -2.65639 0
M  V30 3944 H 374.945 4.76755 -1.60353 0
M  V30 3945 H 374.645 4.82144 -3.35873 0
M  V30 3946 H 376.169 5.47817 -2.69682 0
M  V30 3947 H 377.583 3.83315 -4.26313 0
M  V30 3948 H 375.98 3.41482 -4.93468 0
M  V30 3949 H 377.05 2.12372 -4.3592 0
M  V30 3950 N 378.394 1.34581 0.820102 0
M  V30 3951 C 379.619 1.30333 1.61332 0
M  V30 3952 C 380.044 -0.119339 1.87721 0
M  V30 3953 O 379.402 -1.08197 1.45475 0
M  V30 3954 C 379.45 2.10258 2.92957 0
M  V30 3955 O 378.554 1.47404 3.85157 0
M  V30 3956 H 377.895 0.447488 0.490561 0
M  V30 3957 H 380.425 1.77425 1.01889 0
M  V30 3958 H 380.435 2.21718 3.42498 0
M  V30 3959 H 379.11 3.13693 2.73074 0
M  V30 3960 H 377.687 1.44703 3.43679 0
M  V30 3961 N 379.872 -1.04064 1.18357 0
M  V30 3962 C 380.822 -2.10393 0.878561 0
M  V30 3963 C 381.806 -1.60183 -0.151713 0
M  V30 3964 O 382.998 -1.76923 0.0523303 0
M  V30 3965 C 380.127 -3.4089 0.406096 0
M  V30 3966 C 379.213 -3.97866 1.46844 0
M  V30 3967 N 379.604 -4.28657 2.68489 0
M  V30 3968 C 377.902 -4.2574 1.32896 0
M  V30 3969 C 378.603 -4.74253 3.36836 0
M  V30 3970 N 377.579 -4.75068 2.64219 0
M  V30 3971 H 381.381 -2.32076 1.80327 0
M  V30 3972 H 378.895 -1.21818 1.07397 0
M  V30 3973 H 380.892 -4.16557 0.169088 0
M  V30 3974 H 379.552 -3.20633 -0.512275 0
M  V30 3975 H 380.563 -4.18304 3.05356 0
M  V30 3976 H 377.24 -4.1481 0.473134 0
M  V30 3977 H 378.63 -5.07096 4.40798 0
M  V30 3978 N 381.35 -0.985608 -1.22978 0
M  V30 3979 C 382.766 -0.695104 -1.43668 0
M  V30 3980 C 382.966 0.736866 -1.87543 0
M  V30 3981 O 382.022 1.50868 -2.02473 0
M  V30 3982 C 383.335 -1.69447 -2.48412 0
M  V30 3983 C 384.883 -1.70909 -2.62219 0
M  V30 3984 C 385.358 -2.6969 -3.70178 0
M  V30 3985 N 386.849 -2.6824 -3.77626 0
M  V30 3986 C 387.584 -3.41339 -4.60733 0
M  V30 3987 N 387.08 -4.24015 -5.4789 0
M  V30 3988 N 388.873 -3.30079 -4.54977 0
M  V30 3989 H 381.024 -1.91054 -0.928016 0
M  V30 3990 H 383.287 -0.823553 -0.469536 0
M  V30 3991 H 382.993 -2.7188 -2.23102 0
M  V30 3992 H 382.867 -1.48147 -3.46889 0
M  V30 3993 H 385.254 -0.691785 -2.86877 0
M  V30 3994 H 385.335 -1.96276 -1.6404 0
M  V30 3995 H 384.979 -3.71566 -3.46268 0
M  V30 3996 H 384.909 -2.41595 -4.67909 0
M  V30 3997 H 387.4 -2.08243 -3.15346 0
M  V30 3998 H 387.713 -4.76636 -6.08308 0
M  V30 3999 H 386.058 -4.28104 -5.47496 0
M  V30 4000 H 389.249 -2.64937 -3.85909 0
M  V30 4001 H 389.422 -3.87308 -5.19516 0
M  V30 4002 N 382.828 1.3818 -0.7579 0
M  V30 4003 C 384.053 2.04827 -0.325679 0
M  V30 4004 C 384.478 1.56788 1.03919 0
M  V30 4005 O 383.836 0.721811 1.66312 0
M  V30 4006 C 383.884 3.58774 -0.362447 0
M  V30 4007 O 382.988 4.07372 0.642033 0
M  V30 4008 H 382.329 0.64833 -0.143402 0
M  V30 4009 H 384.859 1.7677 -1.03023 0
M  V30 4010 H 384.869 4.07434 -0.214844 0
M  V30 4011 H 383.544 3.93096 -1.35824 0
M  V30 4012 H 382.121 3.70068 0.458688 0
M  V30 4013 N 384.306 0.507319 1.49211 0
M  V30 4014 C 385.722 0.163682 1.58758 0
M  V30 4015 C 385.922 -1.33208 1.51188 0
M  V30 4016 O 384.978 -2.10855 1.38911 0
M  V30 4017 C 386.291 0.746095 2.91297 0
M  V30 4018 C 387.839 0.712773 3.04776 0
M  V30 4019 C 388.314 1.27336 4.39943 0
M  V30 4020 N 389.805 1.23433 4.46451 0
M  V30 4021 C 390.54 1.63821 5.495 0
M  V30 4022 N 390.036 2.11832 6.5962 0
M  V30 4023 N 391.829 1.55198 5.4025 0
M  V30 4024 H 383.98 1.47972 1.52375 0
M  V30 4025 H 386.243 0.614147 0.722168 0
M  V30 4026 H 385.949 1.79534 3.02424 0
M  V30 4027 H 385.823 0.210137 3.76614 0
M  V30 4028 H 388.21 -0.327656 2.93275 0
M  V30 4029 H 388.291 1.28595 2.21127 0
M  V30 4030 H 387.935 2.3126 4.52196 0
M  V30 4031 H 387.865 0.676066 5.22242 0
M  V30 4032 H 390.356 0.882627 3.67448 0
M  V30 4033 H 390.669 2.40703 7.34358 0
M  V30 4034 H 389.014 2.1581 6.60644 0
M  V30 4035 H 392.205 1.17505 4.53112 0
M  V30 4036 H 392.378 1.86997 6.20432 0
M  V30 4037 N 385.784 -1.5574 0.241426 0
M  V30 4038 C 387.014 -2.02913 -0.38857 0
M  V30 4039 C 387.422 -1.12014 -1.52478 0
M  V30 4040 O 386.765 -0.125903 -1.83268 0
M  V30 4041 C 386.827 -3.4636 -0.963075 0
M  V30 4042 C 386.491 -4.56982 0.0401916 0
M  V30 4043 C 387.488 -5.12941 0.847766 0
M  V30 4044 C 385.173 -5.0203 0.164699 0
M  V30 4045 C 387.167 -6.12437 1.76636 0
M  V30 4046 C 384.854 -6.01358 1.0868 0
M  V30 4047 C 385.852 -6.5644 1.88616 0
M  V30 4048 O 385.54 -7.53831 2.79273 0
M  V30 4049 H 385.272 -0.668983 -0.0971452 0
M  V30 4050 H 387.826 -2.02198 0.361248 0
M  V30 4051 H 386.056 -3.44206 -1.76235 0
M  V30 4052 H 387.745 -3.77065 -1.50257 0
M  V30 4053 H 388.511 -4.78974 0.762133 0
M  V30 4054 H 384.39 -4.58824 -0.447411 0
M  V30 4055 H 387.934 -6.55355 2.39071 0
M  V30 4056 H 383.831 -6.34746 1.17338 0
M  V30 4057 H 384.599 -7.71428 2.73572 0
M  V30 4058 N 387.262 0.0317525 -1.57568 0
M  V30 4059 C 388.51 0.721676 -1.88776 0
M  V30 4060 C 388.831 1.76039 -0.838772 0
M  V30 4061 O 388.101 1.95482 0.127935 0
M  V30 4062 H 386.681 0.269534 -0.696678 0
M  V30 4063 H 389.343 -0.00165879 -1.949 0
M  V30 4064 H 388.439 1.21293 -2.87566 0
M  V30 4065 N 388.74 1.54641 0.303973 0
M  V30 4066 C 389.67 1.88386 1.3796 0
M  V30 4067 C 390.651 0.742485 1.5304 0
M  V30 4068 O 391.836 0.997959 1.66597 0
M  V30 4069 C 388.966 2.12854 2.74427 0
M  V30 4070 C 387.92 3.28702 2.74115 0
M  V30 4071 C 387.246 3.38582 4.13844 0
M  V30 4072 C 388.546 4.65881 2.3612 0
M  V30 4073 H 390.24 2.78474 1.09966 0
M  V30 4074 H 387.786 1.33988 0.527556 0
M  V30 4075 H 389.739 2.35047 3.49758 0
M  V30 4076 H 388.463 1.19535 3.03939 0
M  V30 4077 H 387.122 3.06428 2.0124 0
M  V30 4078 H 386.77 2.42784 4.40528 0
M  V30 4079 H 386.47 4.16453 4.14537 0
M  V30 4080 H 387.994 3.63031 4.90959 0
M  V30 4081 H 389.408 4.87823 3.01167 0
M  V30 4082 H 387.805 5.46444 2.48031 0
M  V30 4083 H 388.875 4.66799 1.3125 0
M  V30 4084 N 390.218 -0.567019 1.47046 0
M  V30 4085 C 391.128 -1.70247 1.6141 0
M  V30 4086 C 392.144 -1.66746 0.497157 0
M  V30 4087 O 393.32 -1.86371 0.763389 0
M  V30 4088 C 390.385 -3.06756 1.61561 0
M  V30 4089 C 389.446 -3.21399 2.84607 0
M  V30 4090 C 388.679 -4.51396 2.84741 0
M  V30 4091 O 388.902 -5.36255 1.94388 0
M  V30 4092 O 387.836 -4.69621 3.76483 0
M  V30 4093 H 391.662 -1.61073 2.57467 0
M  V30 4094 H 389.247 -0.735894 1.30019 0
M  V30 4095 H 391.129 -3.8801 1.64396 0
M  V30 4096 H 389.804 -3.16333 0.686684 0
M  V30 4097 H 388.711 -2.39579 2.8732 0
M  V30 4098 H 390.044 -3.16721 3.76761 0
M  V30 4099 N 391.696 -1.35014 -0.812953 0
M  V30 4100 C 392.936 -1.29289 -1.58315 0
M  V30 4101 C 393.3 0.132727 -1.91541 0
M  V30 4102 O 394.501 0.314269 -2.66957 0
M  V30 4103 C 392.772 -2.1681 -2.84127 0
M  V30 4104 S 394.331 -2.28538 -3.74588 0
M  V30 4105 H 391.149 -0.459569 -0.542511 0
M  V30 4106 H 393.751 -1.70336 -0.959467 0
M  V30 4107 H 392.455 -3.19379 -2.57731 0
M  V30 4108 H 391.986 -1.76697 -3.51485 0
M  V30 4109 H 394.001 -1.4655 -4.74065 0
M  V30 4110 N 393.175 1.03435 -1.18907 0
M  V30 4111 C 394.4 1.80919 -1.01406 0
M  V30 4112 C 394.825 1.83055 0.432721 0
M  V30 4113 O 394.183 1.25252 1.31079 0
M  V30 4114 C 394.231 3.24091 -1.58105 0
M  V30 4115 O 393.335 4.04434 -0.806669 0
M  V30 4116 H 392.676 0.558709 -0.358803 0
M  V30 4117 H 395.206 1.30223 -1.57807 0
M  V30 4118 H 395.216 3.74853 -1.61087 0
M  V30 4119 H 393.891 3.21851 -2.6341 0
M  V30 4120 H 392.468 3.63091 -0.849666 0
M  V30 4121 N 394.653 0.992116 1.22453 0
M  V30 4122 C 395.9 0.667534 1.91181 0
M  V30 4123 C 396.228 -0.800317 1.77271 0
M  V30 4124 O 395.483 -1.59421 1.13505 0
M  V30 4125 C 395.782 1.01832 3.42586 0
M  V30 4126 C 395.448 2.47831 3.76684 0
M  V30 4127 C 394.11 2.87729 3.85701 0
M  V30 4128 C 396.462 3.42466 3.92895 0
M  V30 4129 C 393.79 4.21252 4.08367 0
M  V30 4130 C 396.142 4.75648 4.17064 0
M  V30 4131 C 394.806 5.15288 4.24305 0
M  V30 4132 H 394.076 0.244268 0.699581 0
M  V30 4133 H 396.723 1.24816 1.45235 0
M  V30 4134 H 395.028 0.355769 3.90181 0
M  V30 4135 H 396.725 0.745228 3.94014 0
M  V30 4136 H 393.315 2.15905 3.70247 0
M  V30 4137 H 397.499 3.12814 3.85307 0
M  V30 4138 H 392.755 4.51554 4.122 0
M  V30 4139 H 396.929 5.48924 4.2855 0
M  V30 4140 H 394.556 6.18769 4.41621 0
M  V30 4141 N 396.131 -1.37776 0.765217 0
M  V30 4142 C 397.408 -1.93975 0.251596 0
M  V30 4143 C 397.788 -1.69949 -1.25222 0
M  V30 4144 O 397.136 -1.04457 -2.03226 0
M  V30 4145 C 397.346 -3.43487 0.617895 0
M  V30 4146 C 398.694 -4.20564 0.584029 0
M  V30 4147 O 399.718 -3.5182 0.556888 0
M  V30 4148 O 398.577 -5.43138 0.605291 0
M  V30 4149 H 395.671 -0.82509 0.0561806 0
M  V30 4150 H 398.217 -1.47101 0.846128 0
M  V30 4151 H 396.989 -3.5453 1.65602 0
M  V30 4152 H 396.612 -3.976 -0.00403411 0
M  V30 4153 N 397.609 -0.515225 -1.4894 0
M  V30 4154 C 398.856 0.024215 -2.02486 0
M  V30 4155 C 399.184 1.35671 -1.39368 0
M  V30 4156 O 398.439 1.88566 -0.523574 0
M  V30 4157 C 398.738 0.210595 -3.56779 0
M  V30 4158 C 398.404 -1.04569 -4.38607 0
M  V30 4159 C 397.066 -1.39002 -4.60686 0
M  V30 4160 C 399.418 -1.88008 -4.86109 0
M  V30 4161 C 396.746 -2.568 -5.27514 0
M  V30 4162 C 399.098 -3.04972 -5.54234 0
M  V30 4163 C 397.762 -3.39768 -5.74555 0
M  V30 4164 H 397.032 0.00886088 -0.740947 0
M  V30 4165 H 399.679 -0.678263 -1.79086 0
M  V30 4166 H 397.984 0.99572 -3.78936 0
M  V30 4167 H 399.681 0.642659 -3.95817 0
M  V30 4168 H 396.271 -0.767497 -4.21672 0
M  V30 4169 H 400.455 -1.62719 -4.68867 0
M  V30 4170 H 395.711 -2.8398 -5.41447 0
M  V30 4171 H 399.885 -3.69943 -5.90013 0
M  V30 4172 H 397.512 -4.31148 -6.26112 0
M  V30 4173 N 399.087 1.5561 -0.249682 0
M  V30 4174 C 400.498 1.84979 0.252949 0
M  V30 4175 C 400.849 1.17153 1.57384 0
M  V30 4176 O 399.974 0.450884 2.11651 0
M  V30 4177 C 400.569 3.35584 0.465732 0
M  V30 4178 C 399.128 3.65169 0.912624 0
M  V30 4179 C 398.275 2.77299 -0.00859085 0
M  V30 4180 H 401.226 1.51513 -0.47217 0
M  V30 4181 H 401.247 3.57313 1.30795 0
M  V30 4182 H 400.759 3.8492 -0.49579 0
M  V30 4183 H 398.86 3.21312 1.88652 0
M  V30 4184 H 398.973 4.72912 0.767559 0
M  V30 4185 H 397.337 2.49678 0.50327 0
M  V30 4186 H 398.12 3.29442 -0.965537 0
M  V30 4187 N 400.565 -0.0233959 1.57583 0
M  V30 4188 C 401.805 -0.71784 1.9138 0
M  V30 4189 C 402.169 -1.72216 0.848853 0
M  V30 4190 O 403.37 -2.46527 1.07134 0
M  V30 4191 C 401.641 -1.36489 3.30311 0
M  V30 4192 S 403.2 -2.0877 3.85954 0
M  V30 4193 H 400.018 -0.237676 0.670098 0
M  V30 4194 H 402.62 0.0276709 1.9548 0
M  V30 4195 H 401.324 -0.620782 4.05678 0
M  V30 4196 H 400.855 -2.14883 3.29528 0
M  V30 4197 H 402.87 -3.35988 3.65139 0
M  V30 4198 N 402.043 -1.548 -0.295768 0
M  V30 4199 C 402.953 -1.89177 -1.38742 0
M  V30 4200 C 403.969 -0.786481 -1.55211 0
M  V30 4201 O 405.145 -1.08344 -1.69775 0
M  V30 4202 C 402.21 -2.13663 -2.73036 0
M  V30 4203 C 401.271 -3.37349 -2.65508 0
M  V30 4204 C 400.504 -3.60658 -3.93398 0
M  V30 4205 O 400.727 -2.86882 -4.93006 0
M  V30 4206 O 399.661 -4.54179 -3.94975 0
M  V30 4207 H 403.487 -2.82059 -1.12589 0
M  V30 4208 H 401.072 -1.41056 -0.492295 0
M  V30 4209 H 402.954 -2.3094 -3.52484 0
M  V30 4210 H 401.629 -1.23967 -2.99022 0
M  V30 4211 H 400.536 -3.25431 -1.84514 0
M  V30 4212 H 401.869 -4.27192 -2.44474 0
M  V30 4213 N 403.521 0.559213 -1.47345 0
M  V30 4214 C 404.451 1.67622 -1.62558 0
M  V30 4215 C 405.432 1.63331 -0.475087 0
M  V30 4216 O 406.617 1.80983 -0.704182 0
M  V30 4217 C 403.747 3.0626 -1.63774 0
M  V30 4218 C 402.701 3.25397 -2.7803 0
M  V30 4219 C 402.027 4.64801 -2.64318 0
M  V30 4220 C 403.327 3.10965 -4.19641 0
M  V30 4221 H 405.021 1.55146 -2.56067 0
M  V30 4222 H 402.567 0.744961 -1.23233 0
M  V30 4223 H 404.52 3.84247 -1.73008 0
M  V30 4224 H 403.244 3.1969 -0.66825 0
M  V30 4225 H 401.903 2.49817 -2.68304 0
M  V30 4226 H 401.551 4.75028 -1.65401 0
M  V30 4227 H 401.251 4.78555 -3.40968 0
M  V30 4228 H 402.775 5.44926 -2.75478 0
M  V30 4229 H 404.189 3.78772 -4.30354 0
M  V30 4230 H 402.586 3.36229 -4.97062 0
M  V30 4231 H 403.656 2.07736 -4.38148 0
M  V30 4232 N 404.999 1.35443 0.805782 0
M  V30 4233 C 405.909 1.30546 1.94923 0
M  V30 4234 C 406.925 0.210233 1.72725 0
M  V30 4235 O 408.101 0.43975 1.9654 0
M  V30 4236 C 405.166 1.07782 3.29521 0
M  V30 4237 C 404.227 2.26625 3.64609 0
M  V30 4238 C 403.46 2.04938 4.92784 0
M  V30 4239 O 403.683 1.01624 5.61274 0
M  V30 4240 O 402.617 2.9232 5.26149 0
M  V30 4241 H 406.443 2.26779 2.02002 0
M  V30 4242 H 404.028 1.15823 0.943682 0
M  V30 4243 H 405.91 0.969392 4.10098 0
M  V30 4244 H 404.585 0.146003 3.23371 0
M  V30 4245 H 403.492 2.43033 2.84404 0
M  V30 4246 H 404.825 3.18257 3.75464 0
M  V30 4247 N 406.477 -1.02803 1.19454 0
M  V30 4248 C 407.707 -1.79581 1.02149 0
M  V30 4249 C 408.115 -1.84182 -0.432851 0
M  V30 4250 O 407.458 -1.28534 -1.31243 0
M  V30 4251 C 407.52 -3.25993 1.51554 0
M  V30 4252 C 407.184 -3.45025 2.99678 0
M  V30 4253 C 408.181 -3.35175 3.97434 0
M  V30 4254 C 405.866 -3.71212 3.38389 0
M  V30 4255 C 407.86 -3.51238 5.31893 0
M  V30 4256 C 405.547 -3.8692 4.73008 0
M  V30 4257 C 406.545 -3.76936 5.69569 0
M  V30 4258 O 406.233 -3.92179 7.01748 0
M  V30 4259 H 405.965 -0.571962 0.360327 0
M  V30 4260 H 408.519 -1.30367 1.58725 0
M  V30 4261 H 406.749 -3.76235 0.893543 0
M  V30 4262 H 408.438 -3.84368 1.30444 0
M  V30 4263 H 409.204 -3.14895 3.68872 0
M  V30 4264 H 405.083 -3.78075 2.6378 0
M  V30 4265 H 408.627 -3.43362 6.07247 0
M  V30 4266 H 404.524 -4.06699 5.01265 0
M  V30 4267 H 405.292 -4.09265 7.08833 0
M  V30 4268 N 407.956 -0.998596 -1.21925 0
M  V30 4269 C 409.181 -0.696015 -1.95372 0
M  V30 4270 C 409.606 0.733826 -1.73195 0
M  V30 4271 O 408.964 1.50242 -1.01474 0
M  V30 4272 C 409.012 -1.01466 -3.4603 0
M  V30 4273 O 408.116 -0.116415 -4.12236 0
M  V30 4274 H 407.457 -0.259938 -0.611006 0
M  V30 4275 H 409.987 -1.33711 -1.54863 0
M  V30 4276 H 409.997 -0.958855 -3.96573 0
M  V30 4277 H 408.672 -2.05653 -3.61497 0
M  V30 4278 H 407.249 -0.228193 -3.72201 0
M  V30 4279 N 409.434 1.37368 -0.772513 0
M  V30 4280 C 410.845 1.8231 -0.402493 0
M  V30 4281 C 411.196 1.6436 1.07146 0
M  V30 4282 O 410.321 1.15514 1.82991 0
M  V30 4283 C 410.916 3.30979 -0.723776 0
M  V30 4284 C 409.475 3.74195 -0.406802 0
M  V30 4285 C 408.622 2.59885 -0.967218 0
M  V30 4286 H 411.573 1.25829 -0.967099 0
M  V30 4287 H 411.594 3.80499 -0.00870832 0
M  V30 4288 H 411.106 3.44011 -1.7966 0
M  V30 4289 H 409.207 3.66732 0.658673 0
M  V30 4290 H 409.32 4.7027 -0.915588 0
M  V30 4291 H 407.684 2.51674 -0.391416 0
M  V30 4292 H 408.467 2.7571 -2.04546 0
M  V30 4293 N 410.912 0.523116 1.48665 0
M  V30 4294 C 412.323 0.0808997 1.86525 0
M  V30 4295 C 412.674 -1.33975 1.43336 0
M  V30 4296 O 411.799 -2.00221 0.821009 0
M  V30 4297 C 412.394 0.140037 3.3851 0
M  V30 4298 C 410.953 -0.246948 3.75589 0
M  V30 4299 C 410.1 0.502845 2.72703 0
M  V30 4300 H 413.051 0.734736 1.40667 0
M  V30 4301 H 413.072 -0.649945 3.74908 0
M  V30 4302 H 412.584 1.17412 3.69914 0
M  V30 4303 H 410.685 -1.28343 3.49798 0
M  V30 4304 H 410.798 0.0878859 4.79019 0
M  V30 4305 H 409.162 -0.0500581 2.54651 0
M  V30 4306 H 409.945 1.53743 3.0695 0
M  V30 4307 N 412.39 -1.55475 0.257931 0
M  V30 4308 C 413.32 -2.24815 -0.630912 0
M  V30 4309 C 414.301 -1.23224 -1.17259 0
M  V30 4310 O 415.486 -1.51904 -1.20991 0
M  V30 4311 C 412.616 -2.95609 -1.82298 0
M  V30 4312 C 411.57 -4.03982 -1.41359 0
M  V30 4313 C 410.896 -4.6226 -2.68738 0
M  V30 4314 C 412.196 -5.19109 -0.57648 0
M  V30 4315 H 413.89 -2.99354 -0.0526878 0
M  V30 4316 H 411.436 -1.4398 -0.023901 0
M  V30 4317 H 413.389 -3.42822 -2.45054 0
M  V30 4318 H 412.113 -2.18577 -2.42676 0
M  V30 4319 H 410.772 -3.57555 -0.809324 0
M  V30 4320 H 410.42 -3.81915 -3.27338 0
M  V30 4321 H 410.12 -5.35424 -2.42065 0
M  V30 4322 H 411.644 -5.12212 -3.32372 0
M  V30 4323 H 413.058 -5.62479 -1.10861 0
M  V30 4324 H 411.455 -5.98729 -0.405351 0
M  V30 4325 H 412.525 -4.83174 0.408776 0
M  V30 4326 N 413.868 0.0150385 -1.57593 0
M  V30 4327 C 414.818 1.01943 -2.0394 0
M  V30 4328 C 415.802 1.31209 -0.931286 0
M  V30 4329 O 416.994 1.30559 -1.19513 0
M  V30 4330 C 414.123 2.31621 -2.53391 0
M  V30 4331 C 413.209 2.05384 -3.7105 0
M  V30 4332 N 413.6 1.49253 -4.83278 0
M  V30 4333 C 411.898 2.35601 -3.78693 0
M  V30 4334 C 412.599 1.39143 -5.64813 0
M  V30 4335 N 411.575 1.87187 -5.10355 0
M  V30 4336 H 415.377 0.57969 -2.88126 0
M  V30 4337 H 412.891 0.221056 -1.60888 0
M  V30 4338 H 414.888 3.044 -2.84862 0
M  V30 4339 H 413.548 2.76261 -1.70616 0
M  V30 4340 H 414.559 1.17334 -5.04433 0
M  V30 4341 H 411.236 2.8322 -3.06746 0
M  V30 4342 H 412.626 0.961153 -6.6499 0
M  V30 4343 N 415.346 1.54954 0.287554 0
M  V30 4344 C 416.623 1.65569 1.04146 0
M  V30 4345 C 417.003 0.512672 2.0478 0
M  V30 4346 O 416.351 -0.489038 2.23205 0
M  V30 4347 C 416.561 3.04163 1.71131 0
M  V30 4348 C 417.909 3.61429 2.22832 0
M  V30 4349 O 418.933 3.06702 1.81141 0
M  V30 4350 O 417.792 4.57281 2.9926 0
M  V30 4351 H 414.886 0.671881 0.482188 0
M  V30 4352 H 417.432 1.67297 0.28457 0
M  V30 4353 H 416.204 3.78796 0.981303 0
M  V30 4354 H 415.827 3.06271 2.53543 0
M  V30 4355 N 416.824 -0.551391 1.4764 0
M  V30 4356 C 417.754 -1.66757 1.63445 0
M  V30 4357 C 418.735 -1.63077 0.483742 0
M  V30 4358 O 419.92 -1.80607 0.71377 0
M  V30 4359 C 417.05 -3.05387 1.65396 0
M  V30 4360 C 416.004 -3.23918 2.79752 0
M  V30 4361 C 415.33 -4.63393 2.66779 0
M  V30 4362 C 416.63 -3.08735 4.21284 0
M  V30 4363 H 418.324 -1.53786 2.56886 0
M  V30 4364 H 415.87 -0.738415 1.23626 0
M  V30 4365 H 417.823 -3.83325 1.75043 0
M  V30 4366 H 416.547 -3.19332 0.685195 0
M  V30 4367 H 415.206 -2.48391 2.69625 0
M  V30 4368 H 414.854 -4.74144 1.67918 0
M  V30 4369 H 414.554 -4.7674 3.43501 0
M  V30 4370 H 416.078 -5.43458 2.78364 0
M  V30 4371 H 417.492 -3.76484 4.32357 0
M  V30 4372 H 415.889 -3.33588 4.98838 0
M  V30 4373 H 416.959 -2.0541 4.39243 0
M  V30 4374 N 418.302 -1.35869 -0.798587 0
M  V30 4375 C 419.718 -1.16082 -1.09532 0
M  V30 4376 C 419.918 0.0213124 -2.01489 0
M  V30 4377 O 418.974 0.689488 -2.42904 0
M  V30 4378 C 420.287 -2.46748 -1.7186 0
M  V30 4379 C 421.835 -2.53028 -1.84244 0
M  V30 4380 C 422.31 -3.83758 -2.49988 0
M  V30 4381 N 423.801 -3.85053 -2.57465 0
M  V30 4382 C 424.536 -4.8294 -3.09122 0
M  V30 4383 N 424.032 -5.91217 -3.61157 0
M  V30 4384 N 425.825 -4.70369 -3.0775 0
M  V30 4385 H 417.976 -2.11571 -0.187461 0
M  V30 4386 H 420.239 -0.936726 -0.145765 0
M  V30 4387 H 419.945 -3.33471 -1.11759 0
M  V30 4388 H 419.819 -2.61883 -2.71472 0
M  V30 4389 H 422.206 -1.66729 -2.43486 0
M  V30 4390 H 422.287 -2.418 -0.834643 0
M  V30 4391 H 421.931 -4.70459 -1.91393 0
M  V30 4392 H 421.861 -3.92278 -3.5132 0
M  V30 4393 H 424.352 -3.06822 -2.20609 0
M  V30 4394 H 424.665 -6.61892 -3.98896 0
M  V30 4395 H 423.01 -5.94899 -3.59333 0
M  V30 4396 H 426.201 -3.84914 -2.66381 0
M  V30 4397 H 426.374 -5.46816 -3.47701 0
M  V30 4398 N 419.78 1.02168 -1.19998 0
M  V30 4399 C 420.728 2.12717 -0.940967 0
M  V30 4400 C 421.722 1.69069 0.105841 0
M  V30 4401 O 422.928 1.79946 -0.0440583 0
M  V30 4402 H 419.303 0.695108 -0.28693 0
M  V30 4403 H 421.274 2.3175 -1.87975 0
M  V30 4404 C 420.023 3.44027 -0.504049 0
M  V30 4405 H 419.346 3.78036 -1.30112 0
M  V30 4406 H 420.786 4.22452 -0.361991 0
M  V30 4407 C 419.245 3.27678 0.782878 0
M  V30 4408 O 419.775 3.56949 1.84256 0
M  V30 4409 N 417.981 2.80943 0.742921 0
M  V30 4410 H 417.528 2.57322 -0.119687 0
M  V30 4411 H 417.486 2.70385 1.60435 0
M  V30 4412 N 421.258 1.00505 1.21394 0
M  V30 4413 C 422.19 0.52372 2.23136 0
M  V30 4414 C 423.203 -0.387714 1.58116 0
M  V30 4415 O 424.392 -0.187905 1.77508 0
M  V30 4416 C 421.492 -0.258885 3.3791 0
M  V30 4417 C 420.665 0.651634 4.32519 0
M  V30 4418 C 419.724 -0.0813705 5.26137 0
M  V30 4419 O 418.75 0.537295 5.66658 0
M  V30 4420 N 419.952 -1.35992 5.64346 0
M  V30 4421 H 422.717 1.39865 2.65062 0
M  V30 4422 H 420.278 0.881196 1.35818 0
M  V30 4423 H 422.27 -0.758208 3.97534 0
M  V30 4424 H 420.84 -1.035 2.94968 0
M  V30 4425 H 420.06 1.33145 3.71034 0
M  V30 4426 H 421.348 1.27129 4.92662 0
M  V30 4427 H 420.746 -1.88368 5.33417 0
M  V30 4428 H 419.303 -1.8042 6.26332 0
M  V30 4429 N 422.737 -1.36956 0.779787 0
M  V30 4430 C 423.962 -2.04283 0.358224 0
M  V30 4431 C 424.387 -1.58422 -1.01411 0
M  V30 4432 O 423.745 -0.748179 -1.65142 0
M  V30 4433 C 423.793 -3.58152 0.419479 0
M  V30 4434 O 422.897 -4.08342 -0.577142 0
M  V30 4435 H 422.238 -0.645967 0.153698 0
M  V30 4436 H 424.768 -1.75108 1.05822 0
M  V30 4437 H 424.778 -4.07041 0.279636 0
M  V30 4438 H 423.453 -3.90886 1.42061 0
M  V30 4439 H 422.03 -3.70751 -0.399755 0
M  V30 4440 N 424.215 -0.530993 -1.48385 0
M  V30 4441 C 425.461 -0.00538653 -2.03399 0
M  V30 4442 C 425.816 1.31899 -1.40073 0
M  V30 4443 O 425.109 1.83901 -0.537676 0
M  V30 4444 C 425.303 0.172742 -3.56982 0
M  V30 4445 C 425.132 -1.13282 -4.35198 0
M  V30 4446 C 423.902 -1.69296 -4.76096 0
M  V30 4447 C 426.1 -2.04367 -4.71952 0
M  V30 4448 N 424.082 -2.9413 -5.38851 0
M  V30 4449 C 425.453 -3.13777 -5.34737 0
M  V30 4450 C 427.508 -2.04681 -4.53883 0
M  V30 4451 C 426.211 -4.23567 -5.81363 0
M  V30 4452 C 428.237 -3.13466 -5.01491 0
M  V30 4453 C 427.599 -4.21595 -5.64302 0
M  V30 4454 H 423.698 -0.0434945 -0.780789 0
M  V30 4455 H 426.282 -0.712495 -1.81195 0
M  V30 4456 H 424.453 0.848937 -3.79009 0
M  V30 4457 H 426.185 0.698046 -3.98634 0
M  V30 4458 H 422.94 -1.23422 -4.57235 0
M  V30 4459 H 423.364 -3.57689 -5.74794 0
M  V30 4460 H 428.006 -1.22378 -4.04702 0
M  V30 4461 H 425.724 -5.06648 -6.2955 0
M  V30 4462 H 429.31 -3.14765 -4.893 0
M  V30 4463 H 428.19 -5.04384 -6.00472 0
M  V30 4464 N 425.693 1.55336 -0.266172 0
M  V30 4465 C 426.918 2.04258 0.359661 0
M  V30 4466 C 427.343 1.14359 1.49344 0
M  V30 4467 O 426.701 0.140369 1.80756 0
M  V30 4468 C 426.749 3.50997 0.826635 0
M  V30 4469 O 425.853 3.64204 1.93466 0
M  V30 4470 H 425.194 0.659668 0.075727 0
M  V30 4471 H 427.724 2.00694 -0.39786 0
M  V30 4472 H 427.734 3.9219 1.12477 0
M  V30 4473 H 426.409 4.159 -0.00293032 0
M  V30 4474 H 424.986 3.34913 1.63974 0
M  V30 4475 N 427.171 -0.0066808 1.57599 0
M  V30 4476 C 428.417 -0.68835 1.91398 0
M  V30 4477 C 428.772 -1.7175 0.86716 0
M  V30 4478 O 428.065 -1.91215 -0.121475 0
M  V30 4479 C 428.259 -1.37939 3.29708 0
M  V30 4480 C 428.088 -0.418689 4.47747 0
M  V30 4481 C 426.858 -0.031526 5.0529 0
M  V30 4482 C 429.056 0.312301 5.13351 0
M  V30 4483 N 427.038 0.928088 6.06844 0
M  V30 4484 C 428.409 1.12682 6.09674 0
M  V30 4485 C 430.464 0.376853 4.96472 0
M  V30 4486 C 429.167 2 6.90936 0
M  V30 4487 C 431.193 1.23723 5.78314 0
M  V30 4488 C 430.555 2.03962 6.74225 0
M  V30 4489 H 426.654 -0.225292 0.748844 0
M  V30 4490 H 429.238 0.0520973 1.9463 0
M  V30 4491 H 427.409 -2.09017 3.27363 0
M  V30 4492 H 429.141 -2.01522 3.50957 0
M  V30 4493 H 425.896 -0.398485 4.71921 0
M  V30 4494 H 426.32 1.40307 6.62301 0
M  V30 4495 H 430.962 -0.22921 4.22178 0
M  V30 4496 H 428.68 2.61676 7.64559 0
M  V30 4497 H 432.266 1.291 5.67296 0
M  V30 4498 H 431.146 2.69461 7.36451 0
M  V30 4499 N 428.649 -1.55105 -0.279332 0
M  V30 4500 C 430.065 -1.46803 -0.626187 0
M  V30 4501 C 430.265 -0.676939 -1.89789 0
M  V30 4502 O 429.321 -0.19326 -2.51759 0
M  V30 4503 C 430.634 -2.90962 -0.759034 0
M  V30 4504 C 432.182 -3.01138 -0.853504 0
M  V30 4505 C 432.657 -4.46539 -1.01818 0
M  V30 4506 N 434.148 -4.50341 -1.08386 0
M  V30 4507 C 434.883 -5.60053 -1.22996 0
M  V30 4508 N 434.379 -6.79645 -1.34366 0
M  V30 4509 N 436.172 -5.47783 -1.26056 0
M  V30 4510 H 428.323 -2.04996 0.555921 0
M  V30 4511 H 430.586 -0.929325 0.187239 0
M  V30 4512 H 430.292 -3.51544 0.104852 0
M  V30 4513 H 430.166 -3.39619 -1.64131 0
M  V30 4514 H 432.553 -2.40658 -1.70786 0
M  V30 4515 H 432.634 -2.55745 0.0532466 0
M  V30 4516 H 432.278 -5.0762 -0.168504 0
M  V30 4517 H 432.208 -4.89583 -1.93948 0
M  V30 4518 H 434.699 -3.64191 -1.00864 0
M  V30 4519 H 435.012 -7.59012 -1.4533 0
M  V30 4520 H 433.357 -6.82469 -1.31382 0
M  V30 4521 H 436.548 -4.53294 -1.168 0
M  V30 4522 H 436.721 -6.33331 -1.37098 0
M  V30 4523 N 430.127 0.543554 -1.4793 0
M  V30 4524 C 431.543 0.870806 -1.3375 0
M  V30 4525 C 431.743 1.9864 -0.338261 0
M  V30 4526 O 430.799 2.51305 0.245371 0
M  V30 4527 C 432.112 1.25114 -2.73435 0
M  V30 4528 C 433.66 1.3618 -2.81823 0
M  V30 4529 C 434.135 1.77563 -4.22179 0
M  V30 4530 N 435.626 1.8469 -4.24787 0
M  V30 4531 C 436.361 2.18067 -5.30315 0
M  V30 4532 N 435.857 2.49963 -6.46135 0
M  V30 4533 N 437.65 2.18958 -5.17701 0
M  V30 4534 H 429.801 -0.19275 -2.11524 0
M  V30 4535 H 432.064 -0.0235777 -0.947707 0
M  V30 4536 H 431.77 0.50514 -3.48053 0
M  V30 4537 H 431.644 2.20431 -3.06088 0
M  V30 4538 H 434.031 2.09859 -2.07468 0
M  V30 4539 H 434.112 0.390169 -2.52807 0
M  V30 4540 H 433.756 1.04449 -4.97044 0
M  V30 4541 H 433.686 2.75753 -4.48629 0
M  V30 4542 H 436.177 1.62372 -3.41239 0
M  V30 4543 H 436.49 2.74497 -7.22406 0
M  V30 4544 H 434.835 2.47513 -6.49432 0
M  V30 4545 H 438.026 1.93488 -4.2624 0
M  V30 4546 H 438.199 2.44639 -6.00047 0
M  V30 4547 N 431.605 1.3629 0.791371 0
M  V30 4548 C 432.854 1.29742 1.54434 0
M  V30 4549 C 433.167 -0.121729 1.95221 0
M  V30 4550 O 434.373 -0.309579 2.69729 0
M  V30 4551 C 432.829 2.27623 2.78776 0
M  V30 4552 C 432.437 3.74963 2.45166 0
M  V30 4553 C 434.181 2.30047 3.56761 0
M  V30 4554 C 432.088 4.64626 3.65891 0
M  V30 4555 H 431.018 0.482113 0.579727 0
M  V30 4556 H 433.669 1.61642 0.868565 0
M  V30 4557 H 432.051 1.88714 3.48142 0
M  V30 4558 H 433.225 4.22596 1.83709 0
M  V30 4559 H 431.54 3.75295 1.80396 0
M  V30 4560 H 434.137 2.94247 4.46456 0
M  V30 4561 H 434.48 1.30846 3.95203 0
M  V30 4562 H 435.013 2.67563 2.94372 0
M  V30 4563 H 431.752 5.64883 3.32547 0
M  V30 4564 H 431.272 4.2171 4.26521 0
M  V30 4565 H 432.951 4.80801 4.32943 0
M  V30 4566 N 433.083 -1.0153 1.20538 0
M  V30 4567 C 434.494 -1.56598 1.01657 0
M  V30 4568 C 434.845 -1.91505 -0.426668 0
M  V30 4569 O 433.97 -1.72375 -1.30827 0
M  V30 4570 C 434.565 -2.84542 1.83905 0
M  V30 4571 C 433.124 -3.36133 1.69386 0
M  V30 4572 C 432.271 -2.09427 1.81757 0
M  V30 4573 H 435.222 -0.838974 1.34711 0
M  V30 4574 H 435.243 -3.56004 1.34319 0
M  V30 4575 H 434.755 -2.59105 2.8894 0
M  V30 4576 H 432.856 -3.66528 0.669933 0
M  V30 4577 H 432.969 -4.08248 2.50739 0
M  V30 4578 H 431.333 -2.21941 1.24957 0
M  V30 4579 H 432.116 -1.86414 2.88279 0
M  V30 4580 N 434.561 -1.01147 -1.20859 0
M  V30 4581 C 435.786 -0.716698 -1.94623 0
M  V30 4582 C 436.211 0.715415 -1.73964 0
M  V30 4583 O 435.569 1.49157 -1.03062 0
M  V30 4584 C 435.617 -1.0513 -3.44935 0
M  V30 4585 O 434.721 -0.160131 -4.12089 0
M  V30 4586 H 434.062 -0.266404 -0.608214 0
M  V30 4587 H 436.592 -1.35346 -1.53436 0
M  V30 4588 H 436.602 -1.00086 -3.95533 0
M  V30 4589 H 435.277 -2.09475 -3.59295 0
M  V30 4590 H 433.854 -0.267657 -3.71938 0
M  V30 4591 N 436.039 1.36541 -0.78704 0
M  V30 4592 C 436.949 2.3387 -0.184896 0
M  V30 4593 C 437.965 1.60927 0.661697 0
M  V30 4594 O 439.141 1.92927 0.57804 0
M  V30 4595 C 436.206 3.40122 0.672145 0
M  V30 4596 C 435.267 4.28867 -0.19267 0
M  V30 4597 C 434.5 5.30045 0.623561 0
M  V30 4598 O 434.723 5.39232 1.8597 0
M  V30 4599 O 433.657 6.01895 0.0247068 0
M  V30 4600 H 437.483 2.87126 -0.989562 0
M  V30 4601 H 435.068 1.38969 -0.548455 0
M  V30 4602 H 436.95 4.05093 1.16094 0
M  V30 4603 H 435.625 2.89169 1.45474 0
M  V30 4604 H 434.532 3.66945 -0.728166 0
M  V30 4605 H 435.865 4.83165 -0.938722 0
M  V30 4606 N 437.518 0.538854 1.48102 0
M  V30 4607 C 438.428 -0.222648 2.33541 0
M  V30 4608 C 439.444 -0.930225 1.47047 0
M  V30 4609 O 440.62 -0.903211 1.80011 0
M  V30 4610 C 437.685 -1.25064 3.23357 0
M  V30 4611 C 436.746 -0.552469 4.2573 0
M  V30 4612 C 435.979 -1.53149 5.11254 0
M  V30 4613 O 436.202 -2.76487 4.9891 0
M  V30 4614 O 435.136 -1.06602 5.92385 0
M  V30 4615 H 438.962 0.477707 2.99919 0
M  V30 4616 H 436.547 0.299669 1.46364 0
M  V30 4617 H 438.429 -1.8445 3.78888 0
M  V30 4618 H 437.104 -1.93325 2.59629 0
M  V30 4619 H 436.011 0.082114 3.7401 0
M  V30 4620 H 437.344 0.0883526 4.92121 0
M  V30 4621 N 438.996 -1.55193 0.274407 0
M  V30 4622 C 439.959 -2.212 -0.600279 0
M  V30 4623 C 440.959 -1.18963 -1.08187 0
M  V30 4624 O 442.149 -1.43873 -0.982158 0
M  V30 4625 C 439.281 -2.87739 -1.82809 0
M  V30 4626 H 440.474 -2.9989 -0.0239682 0
M  V30 4627 H 438.027 -1.5628 0.0250192 0
M  V30 4628 H 438.762 -2.13058 -2.44493 0
M  V30 4629 H 438.547 -3.62658 -1.49069 0
M  V30 4630 H 440.037 -3.38171 -2.45011 0
M  V30 4631 N 440.474 -0.00167713 -1.576 0
M  V30 4632 C 441.699 0.69739 -1.95323 0
M  V30 4633 C 442.124 1.6642 -0.876706 0
M  V30 4634 O 441.482 1.80548 0.165007 0
M  V30 4635 C 441.53 1.40403 -3.32144 0
M  V30 4636 O 440.634 2.5185 -3.26566 0
M  V30 4637 H 439.975 0.185373 -0.637599 0
M  V30 4638 H 442.505 -0.0553665 -2.04525 0
M  V30 4639 H 442.515 1.76707 -3.67748 0
M  V30 4640 H 441.19 0.695167 -4.10049 0
M  V30 4641 H 439.767 2.17861 -3.0264 0
M  V30 4642 N 441.952 1.55251 0.271103 0
M  V30 4643 C 442.884 1.84675 1.35749 0
M  V30 4644 C 443.897 0.731366 1.45447 0
M  V30 4645 O 445.086 1.00924 1.4723 0
M  V30 4646 C 442.186 1.99638 2.73857 0
M  V30 4647 C 441.359 3.30312 2.86727 0
M  V30 4648 C 440.418 3.35318 4.05522 0
M  V30 4649 O 439.444 4.08682 3.96191 0
M  V30 4650 N 440.646 2.62857 5.17577 0
M  V30 4651 H 443.411 2.78445 1.10853 0
M  V30 4652 H 440.972 1.55191 0.461218 0
M  V30 4653 H 442.964 2.00355 3.51625 0
M  V30 4654 H 441.534 1.12725 2.91568 0
M  V30 4655 H 440.754 3.42118 1.95829 0
M  V30 4656 H 442.042 4.16488 2.92258 0
M  V30 4657 H 441.44 2.02939 5.28046 0
M  V30 4658 H 439.997 2.69295 5.93568 0
M  V30 4659 N 443.43 -0.535701 1.48216 0
M  V30 4660 C 444.363 -1.65726 1.56876 0
M  V30 4661 C 445.341 -1.57094 0.419542 0
M  V30 4662 O 446.525 -1.77648 0.630352 0
M  V30 4663 C 443.652 -3.04096 1.49142 0
M  V30 4664 C 442.698 -3.31105 2.68834 0
M  V30 4665 S 443.531 -3.18001 4.30854 0
M  V30 4666 C 444.687 -4.58828 4.25709 0
M  V30 4667 H 444.92 -1.58129 2.51759 0
M  V30 4668 H 442.453 -0.718218 1.36678 0
M  V30 4669 H 444.411 -3.839 1.45366 0
M  V30 4670 H 443.072 -3.09139 0.556067 0
M  V30 4671 H 442.265 -4.32033 2.59545 0
M  V30 4672 H 441.867 -2.58961 2.69843 0
M  V30 4673 H 444.159 -5.5023 3.95289 0
M  V30 4674 H 445.102 -4.73172 5.26796 0
M  V30 4675 H 445.51 -4.37883 3.56257 0
M  V30 4676 N 444.908 -1.36708 -0.784132 0
M  V30 4677 C 446.185 -1.21776 -1.53069 0
M  V30 4678 C 446.565 0.193876 -2.10208 0
M  V30 4679 O 445.913 1.20012 -1.94446 0
M  V30 4680 C 446.123 -2.30395 -2.62143 0
M  V30 4681 C 447.471 -2.67325 -3.29882 0
M  V30 4682 O 448.495 -2.29478 -2.7243 0
M  V30 4683 O 447.354 -3.32485 -4.33724 0
M  V30 4684 H 444.448 -0.474459 -0.677361 0
M  V30 4685 H 446.994 -1.48454 -0.82216 0
M  V30 4686 H 445.766 -3.2498 -2.17953 0
M  V30 4687 H 445.389 -2.05112 -3.40609 0
M  V30 4688 N 446.386 1.0089 -1.21074 0
M  V30 4689 C 447.316 2.1145 -0.990523 0
M  V30 4690 C 448.297 1.69897 0.0831699 0
M  V30 4691 O 449.482 1.94052 -0.0758853 0
M  V30 4692 C 446.612 3.42914 -0.550177 0
M  V30 4693 C 445.566 3.98244 -1.56799 0
M  V30 4694 C 444.892 5.25568 -0.984013 0
M  V30 4695 C 446.192 4.30752 -2.95381 0
M  V30 4696 H 447.886 2.3013 -1.91521 0
M  V30 4697 H 445.432 1.10592 -0.92225 0
M  V30 4698 H 447.385 4.19653 -0.383305 0
M  V30 4699 H 446.109 3.24014 0.41015 0
M  V30 4700 H 444.768 3.23621 -1.72236 0
M  V30 4701 H 444.416 5.02998 -0.0155216 0
M  V30 4702 H 444.116 5.63551 -1.66384 0
M  V30 4703 H 445.64 6.04955 -0.828378 0
M  V30 4704 H 447.054 4.98349 -2.8341 0
M  V30 4705 H 445.451 4.79869 -3.60341 0
M  V30 4706 H 446.521 3.39192 -3.46521 0
M  V30 4707 N 447.864 1.01787 1.20321 0
M  V30 4708 C 448.794 0.609625 2.25401 0
M  V30 4709 C 449.775 -0.375951 1.65893 0
M  V30 4710 O 450.96 -0.261101 1.92437 0
M  V30 4711 C 448.09 -0.0515995 3.47262 0
M  V30 4712 C 447.044 0.855095 4.19371 0
M  V30 4713 C 446.37 0.0595757 5.34667 0
M  V30 4714 C 447.67 2.16374 4.75373 0
M  V30 4715 H 449.364 1.48803 2.59804 0
M  V30 4716 H 446.91 0.716934 1.24884 0
M  V30 4717 H 448.863 -0.348764 4.19954 0
M  V30 4718 H 447.587 -0.964726 3.12027 0
M  V30 4719 H 446.246 1.13628 3.48546 0
M  V30 4720 H 445.894 -0.85524 4.95676 0
M  V30 4721 H 445.594 0.663406 5.83843 0
M  V30 4722 H 447.118 -0.231105 6.10162 0
M  V30 4723 H 448.532 1.92885 5.39878 0
M  V30 4724 H 446.929 2.71853 5.34991 0
M  V30 4725 H 447.999 2.82589 3.94045 0
M  V30 4726 N 449.342 -1.36122 0.79427 0
M  V30 4727 C 450.619 -1.93398 0.292685 0
M  V30 4728 C 450.999 -1.72567 -1.21589 0
M  V30 4729 O 450.347 -1.08745 -2.00965 0
M  V30 4730 C 450.557 -3.42099 0.690614 0
M  V30 4731 C 451.905 -4.19231 0.673105 0
M  V30 4732 O 452.929 -3.50559 0.631389 0
M  V30 4733 O 451.788 -5.41732 0.720362 0
M  V30 4734 H 448.882 -0.823712 0.0736693 0
M  V30 4735 H 451.428 -1.45273 0.87714 0
M  V30 4736 H 450.2 -3.50938 1.73085 0
M  V30 4737 H 449.823 -3.97519 0.0803036 0
M  V30 4738 N 450.82 -0.546701 -1.47814 0
M  V30 4739 C 452.068 -0.0187037 -2.02091 0
M  V30 4740 C 452.389 1.33168 -1.42447 0
M  V30 4741 O 451.659 1.86619 -0.595839 0
M  V30 4742 H 450.239 -0.00392531 -0.74699 0
M  V30 4743 H 452.901 -0.714327 -1.81338 0
M  V30 4744 H 451.997 0.0772219 -3.12004 0
M  V30 4745 N 452.299 1.55045 -0.282633 0
M  V30 4746 C 453.71 1.85473 0.213655 0
M  V30 4747 C 454.061 1.20465 1.54863 0
M  V30 4748 O 453.186 0.495676 2.10647 0
M  V30 4749 C 453.781 3.36496 0.394445 0
M  V30 4750 C 452.34 3.67022 0.834961 0
M  V30 4751 C 451.487 2.77218 -0.0674081 0
M  V30 4752 H 454.438 1.50478 -0.504202 0
M  V30 4753 H 454.459 3.60007 1.23186 0
M  V30 4754 H 453.971 3.83782 -0.577326 0
M  V30 4755 H 452.072 3.25241 1.81794 0
M  V30 4756 H 452.185 4.74433 0.667075 0
M  V30 4757 H 450.549 2.5069 0.450196 0
M  V30 4758 H 451.332 3.2732 -1.0352 0
M  V30 4759 N 453.777 0.010035 1.57597 0
M  V30 4760 C 455.025 -0.671371 1.90623 0
M  V30 4761 C 455.346 -1.73753 0.885151 0
M  V30 4762 O 454.616 -1.95752 -0.0760611 0
M  V30 4763 H 453.196 -0.250968 0.703579 0
M  V30 4764 H 455.858 0.0533325 1.94827 0
M  V30 4765 H 454.954 -1.13626 2.90681 0
M  V30 4766 N 455.255 -1.55392 -0.262866 0
M  V30 4767 C 456.218 -1.88181 -1.30846 0
M  V30 4768 C 457.218 -0.757079 -1.41862 0
M  V30 4769 O 458.408 -1.02519 -1.40838 0
M  V30 4770 C 455.54 -2.09609 -2.68844 0
M  V30 4771 H 456.733 -2.81659 -1.02997 0
M  V30 4772 H 454.286 -1.48039 -0.501414 0
M  V30 4773 H 455.021 -1.18547 -3.01856 0
M  V30 4774 H 454.806 -2.91508 -2.62231 0
M  V30 4775 H 456.296 -2.36215 -3.44372 0
M  V30 4776 N 456.733 0.527833 -1.48498 0
M  V30 4777 C 457.643 1.65907 -1.65867 0
M  V30 4778 C 458.659 1.6537 -0.541192 0
M  V30 4779 O 459.835 1.84282 -0.812534 0
M  V30 4780 C 456.9 3.02364 -1.69637 0
M  V30 4781 C 455.961 3.1374 -2.93028 0
M  V30 4782 C 455.194 4.43688 -2.96609 0
M  V30 4783 O 455.417 5.30913 -2.08538 0
M  V30 4784 O 454.351 4.59475 -3.88802 0
M  V30 4785 H 458.177 1.5419 -2.61647 0
M  V30 4786 H 455.762 0.701163 -1.31924 0
M  V30 4787 H 457.644 3.83515 -1.74625 0
M  V30 4788 H 456.319 3.14401 -0.770312 0
M  V30 4789 H 455.226 2.31877 -2.93571 0
M  V30 4790 H 456.559 3.06621 -3.85026 0
M  V30 4791 N 458.211 1.37122 0.776871 0
M  V30 4792 C 459.627 1.1781 1.07671 0
M  V30 4793 C 459.827 0.0107454 2.01497 0
M  V30 4794 O 458.883 -0.650756 2.4397 0
M  V30 4795 C 460.196 2.49451 1.67913 0
M  V30 4796 C 461.744 2.55927 1.80195 0
M  V30 4797 C 462.219 3.87686 2.43851 0
M  V30 4798 N 463.71 3.891 2.51307 0
M  V30 4799 C 464.445 4.87797 3.014 0
M  V30 4800 N 463.941 5.96888 3.51705 0
M  V30 4801 N 465.734 4.75205 3.00227 0
M  V30 4802 H 457.885 2.11843 0.153778 0
M  V30 4803 H 460.148 0.938927 0.130844 0
M  V30 4804 H 459.854 3.35207 1.06439 0
M  V30 4805 H 459.728 2.66169 2.67271 0
M  V30 4806 H 462.115 1.70582 2.40803 0
M  V30 4807 H 462.196 2.43097 0.796069 0
M  V30 4808 H 461.84 4.73444 1.83884 0
M  V30 4809 H 461.77 3.97817 3.45035 0
M  V30 4810 H 464.261 3.10293 2.157 0
M  V30 4811 H 464.574 6.68155 3.88316 0
M  V30 4812 H 462.919 6.0054 3.49824 0
M  V30 4813 H 466.11 3.89103 2.60224 0
M  V30 4814 H 466.283 5.52279 3.38957 0
M  V30 4815 N 459.689 -1.00246 1.21608 0
M  V30 4816 C 460.914 -1.78167 1.06167 0
M  V30 4817 C 461.339 -1.84138 -0.384035 0
M  V30 4818 O 460.697 -1.28683 -1.27712 0
M  V30 4819 C 460.745 -3.19786 1.66642 0
M  V30 4820 O 459.849 -4.02153 0.913613 0
M  V30 4821 H 459.19 -0.549 0.37349 0
M  V30 4822 H 461.72 -1.25994 1.61204 0
M  V30 4823 H 461.73 -3.70451 1.70969 0
M  V30 4824 H 460.405 -3.14754 2.7185 0
M  V30 4825 H 458.982 -3.60711 0.945635 0
M  V30 4826 N 461.167 -1.02423 -1.1978 0
M  V30 4827 C 462.114 -0.601023 -2.22837 0
M  V30 4828 C 463.084 0.382801 -1.61629 0
M  V30 4829 O 464.269 0.280514 -1.88727 0
M  V30 4830 C 461.409 0.0467755 -3.45068 0
M  V30 4831 C 460.522 -0.98253 -4.20678 0
M  V30 4832 C 459.657 -0.304982 -5.30324 0
M  V30 4833 C 458.696 -1.32052 -5.97686 0
M  V30 4834 N 457.833 -0.669105 -6.98904 0
M  V30 4835 H 462.673 -1.48444 -2.58396 0
M  V30 4836 H 460.21 -0.742936 -1.2696 0
M  V30 4837 H 462.168 0.439556 -4.14878 0
M  V30 4838 H 460.798 0.893796 -3.10179 0
M  V30 4839 H 459.85 -1.49341 -3.49859 0
M  V30 4840 H 461.162 -1.75455 -4.66923 0
M  V30 4841 H 460.316 0.142893 -6.06532 0
M  V30 4842 H 459.055 0.499283 -4.85138 0
M  V30 4843 H 458.06 -1.7787 -5.20233 0
M  V30 4844 H 459.285 -2.1262 -6.44957 0
M  V30 4845 H 457.231 0.115152 -6.55899 0
M  V30 4846 H 457.148 -1.37908 -7.43315 0
M  V30 4847 H 458.416 -0.245076 -7.79115 0
M  V30 4848 N 462.645 1.35699 -0.801477 0
M  V30 4849 C 463.555 2.33661 -0.209691 0
M  V30 4850 C 464.571 1.6162 0.644591 0
M  V30 4851 O 465.747 1.93529 0.557545 0
M  V30 4852 C 462.812 3.40816 0.636033 0
M  V30 4853 C 461.873 4.28639 -0.238147 0
M  V30 4854 C 461.106 5.30676 0.567307 0
M  V30 4855 O 461.329 5.41174 1.8024 0
M  V30 4856 O 460.263 6.01887 -0.0391336 0
M  V30 4857 H 464.089 2.8606 -1.01996 0
M  V30 4858 H 461.674 1.38379 -0.563164 0
M  V30 4859 H 463.556 4.06301 1.11791 0
M  V30 4860 H 462.231 2.90696 1.42399 0
M  V30 4861 H 461.138 3.66152 -0.767044 0
M  V30 4862 H 462.471 4.82143 -0.989915 0
M  V30 4863 N 464.123 0.554532 1.47522 0
M  V30 4864 C 465.056 -0.242442 2.26908 0
M  V30 4865 C 466.034 -0.922722 1.33883 0
M  V30 4866 O 467.218 -0.942244 1.63261 0
M  V30 4867 C 464.345 -1.34525 3.10839 0
M  V30 4868 C 463.391 -0.773805 4.19422 0
M  V30 4869 S 464.224 0.377525 5.34168 0
M  V30 4870 C 465.38 -0.727164 6.21662 0
M  V30 4871 H 465.613 0.431218 2.94156 0
M  V30 4872 H 463.146 0.3408 1.50592 0
M  V30 4873 H 465.104 -1.97683 3.59766 0
M  V30 4874 H 463.765 -1.99073 2.42958 0
M  V30 4875 H 462.958 -1.60187 4.77866 0
M  V30 4876 H 462.56 -0.218448 3.73361 0
M  V30 4877 H 464.852 -1.61992 6.57849 0
M  V30 4878 H 465.795 -0.180135 7.07871 0
M  V30 4879 H 466.203 -1.01863 5.55233 0
M  V30 4880 N 465.601 -1.54893 0.290851 0
M  V30 4881 C 467.012 -1.85584 -0.203816 0
M  V30 4882 C 467.363 -1.21285 -1.54222 0
M  V30 4883 O 466.488 -0.506841 -2.10381 0
M  V30 4884 C 467.083 -3.367 -0.376595 0
M  V30 4885 C 465.642 -3.6746 -0.815485 0
M  V30 4886 C 464.789 -2.77178 0.0821087 0
M  V30 4887 H 467.74 -1.50208 0.512175 0
M  V30 4888 H 467.761 -3.60656 -1.21275 0
M  V30 4889 H 467.273 -3.8347 0.59767 0
M  V30 4890 H 465.374 -3.26201 -1.80066 0
M  V30 4891 H 465.487 -4.7478 -0.641905 0
M  V30 4892 H 463.851 -2.50925 -0.436895 0
M  V30 4893 H 464.634 -3.26767 1.05254 0
M  V30 4894 N 467.08 -0.0183926 -1.57589 0
M  V30 4895 C 468.496 0.337897 -1.55982 0
M  V30 4896 C 468.696 1.73604 -1.02294 0
M  V30 4897 O 467.752 2.43589 -0.664895 0
M  V30 4898 C 469.065 0.196305 -3.00059 0
M  V30 4899 C 470.613 0.269875 -3.11834 0
M  V30 4900 C 471.088 0.157197 -4.5773 0
M  V30 4901 N 472.579 0.214521 -4.62703 0
M  V30 4902 C 473.314 0.150955 -5.73201 0
M  V30 4903 N 472.81 0.0369212 -6.9279 0
M  V30 4904 N 474.603 0.204162 -5.61729 0
M  V30 4905 H 466.754 -0.93279 -1.90821 0
M  V30 4906 H 469.017 -0.359253 -0.877292 0
M  V30 4907 H 468.723 -0.766383 -3.43248 0
M  V30 4908 H 468.597 0.970908 -3.6449 0
M  V30 4909 H 470.984 1.22302 -2.68563 0
M  V30 4910 H 471.065 -0.534918 -2.50144 0
M  V30 4911 H 470.709 -0.792479 -5.01679 0
M  V30 4912 H 470.639 0.980717 -5.17387 0
M  V30 4913 H 473.13 0.303238 -3.76681 0
M  V30 4914 H 473.443 -0.00518321 -7.728 0
M  V30 4915 H 471.788 0.0022886 -6.95 0
M  V30 4916 H 474.979 0.291575 -4.67191 0
M  V30 4917 H 475.152 0.15116 -6.47824 0
M  V30 4918 N 468.558 1.5553 0.254621 0
M  V30 4919 C 469.806 1.7665 0.981793 0
M  V30 4920 C 470.127 0.580963 1.86145 0
M  V30 4921 O 469.397 -0.403537 1.91699 0
M  V30 4922 H 467.977 0.651475 0.365498 0
M  V30 4923 H 470.639 1.92958 0.274426 0
M  V30 4924 H 469.735 2.67486 1.60802 0
M  V30 4925 N 470.036 -0.519951 1.48776 0
M  V30 4926 C 471.261 -1.30447 1.6124 0
M  V30 4927 C 471.686 -1.86055 0.276591 0
M  V30 4928 O 471.044 -1.64915 -0.753183 0
M  V30 4929 C 471.092 -2.42406 2.66967 0
M  V30 4930 O 470.196 -3.45728 2.24824 0
M  V30 4931 H 469.537 -0.385924 0.540332 0
M  V30 4932 H 472.067 -0.624572 1.94834 0
M  V30 4933 H 472.077 -2.88447 2.88552 0
M  V30 4934 H 470.752 -2.01294 3.63941 0
M  V30 4935 H 469.329 -3.05737 2.13494 0
M  V30 4936 N 471.514 -1.37532 -0.769588 0
M  V30 4937 C 472.761 -1.3286 -1.52822 0
M  V30 4938 C 473.089 0.0862597 -1.94309 0
M  V30 4939 O 472.344 1.05995 -1.6451 0
M  V30 4940 C 472.643 -2.21558 -2.8044 0
M  V30 4941 C 472.309 -3.69796 -2.57996 0
M  V30 4942 C 470.971 -4.10194 -2.51583 0
M  V30 4943 C 473.323 -4.63699 -2.37976 0
M  V30 4944 C 470.651 -5.42608 -2.23144 0
M  V30 4945 C 473.003 -5.96353 -2.1106 0
M  V30 4946 C 471.667 -6.35853 -2.03093 0
M  V30 4947 H 470.937 -0.486168 -0.559215 0
M  V30 4948 H 473.584 -1.69757 -0.886277 0
M  V30 4949 H 471.889 -1.77663 -3.49204 0
M  V30 4950 H 473.586 -2.15256 -3.38328 0
M  V30 4951 H 470.176 -3.37759 -2.63851 0
M  V30 4952 H 474.36 -4.33346 -2.41919 0
M  V30 4953 H 469.616 -5.72173 -2.15472 0
M  V30 4954 H 473.79 -6.68667 -1.94568 0
M  V30 4955 H 471.417 -7.38382 -1.8082 0
M  V30 4956 N 472.992 0.995999 -1.22138 0
M  V30 4957 C 473.922 2.10387 -1.01289 0
M  V30 4958 C 474.903 1.69975 0.0651454 0
M  V30 4959 O 476.088 1.9396 -0.0964628 0
M  V30 4960 C 473.218 3.42312 -0.586517 0
M  V30 4961 C 472.172 3.96558 -1.61014 0
M  V30 4962 C 471.498 5.24494 -1.0397 0
M  V30 4963 C 472.798 4.27595 -2.99933 0
M  V30 4964 H 474.492 2.28086 -1.93951 0
M  V30 4965 H 472.038 1.09607 -0.933928 0
M  V30 4966 H 473.991 4.19223 -0.427793 0
M  V30 4967 H 472.715 3.24431 0.375761 0
M  V30 4968 H 471.374 3.21776 -1.75658 0
M  V30 4969 H 471.022 5.02953 -0.0688703 0
M  V30 4970 H 470.722 5.61755 -1.72352 0
M  V30 4971 H 472.246 6.04042 -0.892494 0
M  V30 4972 H 473.66 4.95315 -2.8868 0
M  V30 4973 H 472.057 4.76021 -3.6541 0
M  V30 4974 H 473.127 3.35498 -3.50099 0
M  V30 4975 N 474.47 1.03057 1.19235 0
M  V30 4976 C 475.4 0.633497 2.24742 0
M  V30 4977 C 476.381 -0.358335 1.66283 0
M  V30 4978 O 477.566 -0.240676 1.92703 0
M  V30 4979 C 474.696 -0.0147648 3.47297 0
M  V30 4980 C 473.65 0.899527 4.18441 0
M  V30 4981 C 472.976 0.116281 5.34574 0
M  V30 4982 C 474.276 2.21404 4.73051 0
M  V30 4983 H 475.97 1.5155 2.58211 0
M  V30 4984 H 473.516 0.73014 1.24117 0
M  V30 4985 H 475.469 -0.304202 4.20301 0
M  V30 4986 H 474.193 -0.931577 3.13032 0
M  V30 4987 H 472.852 1.17319 3.47321 0
M  V30 4988 H 472.5 -0.802619 4.96555 0
M  V30 4989 H 472.2 0.725293 5.83107 0
M  V30 4990 H 473.724 -0.166376 6.10373 0
M  V30 4991 H 475.138 1.98601 5.37802 0
M  V30 4992 H 473.535 2.77512 5.32078 0
M  V30 4993 H 474.605 2.86752 3.91026 0
M  V30 4994 N 475.948 -1.35272 0.808662 0
M  V30 4995 C 476.878 -2.32315 0.234981 0
M  V30 4996 C 477.859 -1.57572 -0.64071 0
M  V30 4997 O 479.044 -1.8563 -0.570551 0
M  V30 4998 C 476.174 -3.41801 -0.615601 0
M  V30 4999 C 475.128 -4.27694 0.161767 0
M  V30 5000 C 474.454 -5.28519 -0.810649 0
M  V30 5001 C 475.754 -5.04231 1.36193 0
M  V30 5002 H 477.448 -2.80543 1.04575 0
M  V30 5003 H 474.994 -1.3488 0.504315 0
M  V30 5004 H 476.947 -4.08693 -1.02702 0
M  V30 5005 H 475.671 -2.92186 -1.45928 0
M  V30 5006 H 474.33 -3.62384 0.554382 0
M  V30 5007 H 473.978 -4.75171 -1.64988 0
M  V30 5008 H 473.678 -5.8686 -0.294822 0
M  V30 5009 H 475.202 -5.98283 -1.22023 0
M  V30 5010 H 476.616 -5.64058 1.02528 0
M  V30 5011 H 475.013 -5.72077 1.81239 0
M  V30 5012 H 476.083 -4.34753 2.14751 0
M  V30 5013 N 477.426 -0.562348 -1.47226 0
M  V30 5014 C 478.374 0.195476 -2.31777 0
M  V30 5015 C 479.368 0.90433 -1.43242 0
M  V30 5016 O 480.574 0.825031 -1.59979 0
M  V30 5017 H 476.949 0.0819095 -0.747526 0
M  V30 5018 H 478.92 -0.536753 -2.93533 0
M  V30 5019 C 477.669 1.20902 -3.26003 0
M  V30 5020 H 476.992 0.672997 -3.94095 0
M  V30 5021 H 478.432 1.71006 -3.87986 0
M  V30 5022 C 476.891 2.25955 -2.49891 0
M  V30 5023 O 477.421 3.32969 -2.2471 0
M  V30 5024 N 475.627 2.00019 -2.1081 0
M  V30 5025 H 475.174 1.13006 -2.31489 0
M  V30 5026 H 475.132 2.70523 -1.60201 0
M  V30 5027 N 478.904 1.54736 -0.299062 0
M  V30 5028 C 480.132 2.04512 0.313447 0
M  V30 5029 C 480.547 1.17643 1.47667 0
M  V30 5030 O 479.904 0.20164 1.81383 0
M  V30 5031 C 479.955 3.53171 0.771542 0
M  V30 5032 O 479.676 4.36736 -0.345379 0
M  V30 5033 C 481.177 4.18936 1.4494 0
M  V30 5034 H 478.397 0.667507 0.0683784 0
M  V30 5035 H 480.941 1.99752 -0.438129 0
M  V30 5036 H 479.096 3.58298 1.47314 0
M  V30 5037 H 479.51 5.24499 0.0109219 0
M  V30 5038 H 480.984 5.24482 1.72111 0
M  V30 5039 H 481.461 3.68554 2.38883 0
M  V30 5040 H 482.067 4.17879 0.791028 0
M  V30 5041 N 480.382 0.0267497 1.57577 0
M  V30 5042 C 481.607 -0.666227 1.96408 0
M  V30 5043 C 482.032 -1.65004 0.903071 0
M  V30 5044 O 481.39 -1.80787 -0.136263 0
M  V30 5045 C 481.438 -1.35101 3.34335 0
M  V30 5046 O 480.542 -2.46623 3.30531 0
M  V30 5047 H 479.883 -0.175206 0.640468 0
M  V30 5048 H 482.413 0.0878977 2.04411 0
M  V30 5049 H 482.423 -1.70834 3.70513 0
M  V30 5050 H 481.098 -0.629844 4.11103 0
M  V30 5051 H 479.675 -2.13019 3.06068 0
M  V30 5052 N 481.861 -1.55662 -0.24637 0
M  V30 5053 C 482.824 -1.89558 -1.28842 0
M  V30 5054 C 483.824 -0.772082 -1.41052 0
M  V30 5055 O 485.014 -1.04007 -1.39743 0
M  V30 5056 C 482.146 -2.12449 -2.66605 0
M  V30 5057 H 483.339 -2.82735 -1.00004 0
M  V30 5058 H 480.892 -1.48562 -0.485684 0
M  V30 5059 H 481.627 -1.21742 -3.00582 0
M  V30 5060 H 481.412 -2.94273 -2.59125 0
M  V30 5061 H 482.902 -2.39854 -3.41847 0
M  V30 5062 N 483.339 0.512053 -1.4905 0
M  V30 5063 C 484.616 1.27337 -1.48474 0
M  V30 5064 C 484.996 2.1009 -0.206301 0
M  V30 5065 O 484.344 2.136 0.811609 0
M  V30 5066 C 484.554 2.13954 -2.75726 0
M  V30 5067 C 485.902 2.73507 -3.24776 0
M  V30 5068 O 486.926 2.24229 -2.76767 0
M  V30 5069 O 485.785 3.63186 -4.08361 0
M  V30 5070 H 482.879 0.575652 -0.593762 0
M  V30 5071 H 485.425 0.527232 -1.61302 0
M  V30 5072 H 484.197 1.52709 -3.60272 0
M  V30 5073 H 483.82 2.95782 -2.65705 0
M  V30 5074 N 484.817 1.37938 0.762283 0
M  V30 5075 C 486.042 1.37059 1.55659 0
M  V30 5076 C 486.467 -0.0396123 1.88058 0
M  V30 5077 O 485.825 -1.01929 1.49934 0
M  V30 5078 C 485.873 2.22494 2.83776 0
M  V30 5079 O 484.977 1.63607 3.78559 0
M  V30 5080 H 484.318 0.467892 0.47114 0
M  V30 5081 H 486.848 1.81587 0.942725 0
M  V30 5082 H 486.858 2.36045 3.32786 0
M  V30 5083 H 485.533 3.24993 2.59524 0
M  V30 5084 H 484.11 1.5915 3.37233 0
M  V30 5085 N 486.295 -0.989507 1.22664 0
M  V30 5086 C 487.242 -2.08024 0.999733 0
M  V30 5087 C 488.212 -1.65909 -0.0797047 0
M  V30 5088 O 489.397 -1.90669 0.0705715 0
M  V30 5089 C 486.537 -3.40067 0.587234 0
M  V30 5090 C 485.65 -3.95505 1.73781 0
M  V30 5091 C 484.785 -5.15722 1.27297 0
M  V30 5092 C 483.824 -5.63305 2.39488 0
M  V30 5093 N 482.961 -6.74758 1.94026 0
M  V30 5094 H 487.801 -2.26768 1.9334 0
M  V30 5095 H 485.338 -1.11171 0.963297 0
M  V30 5096 H 487.296 -4.15899 0.329227 0
M  V30 5097 H 485.926 -3.21314 -0.309426 0
M  V30 5098 H 484.978 -3.16513 2.11006 0
M  V30 5099 H 486.29 -4.26797 2.58158 0
M  V30 5100 H 485.444 -5.98854 0.972546 0
M  V30 5101 H 484.183 -4.86061 0.399445 0
M  V30 5102 H 483.188 -4.78759 2.70315 0
M  V30 5103 H 484.413 -5.94988 3.27362 0
M  V30 5104 H 482.359 -6.46874 1.09041 0
M  V30 5105 H 482.276 -7.05386 2.71968 0
M  V30 5106 H 483.544 -7.61387 1.67062 0
M  V30 5107 N 487.773 -1.03688 -1.18687 0
M  V30 5108 C 488.723 -0.595067 -2.20098 0
M  V30 5109 C 489.707 0.360465 -1.5681 0
M  V30 5110 O 490.899 0.180136 -1.76081 0
M  V30 5111 C 488.028 0.0444495 -3.43271 0
M  V30 5112 C 487.114 -0.934002 -4.13687 0
M  V30 5113 N 487.505 -2.09957 -4.60165 0
M  V30 5114 C 485.803 -0.759177 -4.39491 0
M  V30 5115 C 486.504 -2.71735 -5.1433 0
M  V30 5116 N 485.48 -1.99638 -5.05614 0
M  V30 5117 H 489.282 -1.48336 -2.5372 0
M  V30 5118 H 486.796 -0.904949 -1.3485 0
M  V30 5119 H 488.793 0.37864 -4.15177 0
M  V30 5120 H 487.453 0.928325 -3.11147 0
M  V30 5121 H 488.464 -2.47863 -4.54735 0
M  V30 5122 H 485.141 0.0749292 -4.17433 0
M  V30 5123 H 486.531 -3.70492 -5.60523 0
M  V30 5124 N 489.251 1.34841 -0.815825 0
M  V30 5125 C 490.479 2.0273 -0.413294 0
M  V30 5126 C 490.894 1.61459 0.978599 0
M  V30 5127 O 490.251 0.816584 1.63212 0
M  V30 5128 C 490.302 3.58058 -0.497676 0
M  V30 5129 O 490.023 3.97832 -1.8347 0
M  V30 5130 C 491.524 4.4321 -0.0891339 0
M  V30 5131 H 488.744 0.649956 -0.166728 0
M  V30 5132 H 491.288 1.72267 -1.10201 0
M  V30 5133 H 489.443 3.87136 0.142886 0
M  V30 5134 H 489.857 4.92501 -1.80396 0
M  V30 5135 H 491.331 5.5164 -0.199274 0
M  V30 5136 H 491.808 4.28432 0.966571 0
M  V30 5137 H 492.414 4.19446 -0.703214 0
M  V30 5138 N 490.729 0.570148 1.46925 0
M  V30 5139 C 491.978 0.0487352 2.01641 0
M  V30 5140 C 492.291 -1.31433 1.44861 0
M  V30 5141 O 493.497 -1.92638 1.91318 0
M  V30 5142 C 491.953 0.0365817 3.59881 0
M  V30 5143 C 491.561 1.39719 4.25655 0
M  V30 5144 C 493.305 -0.431545 4.22301 0
M  V30 5145 C 491.212 1.34345 5.75939 0
M  V30 5146 H 490.142 0.0144492 0.753862 0
M  V30 5147 H 492.793 0.719928 1.68788 0
M  V30 5148 H 491.175 -0.700522 3.89755 0
M  V30 5149 H 492.349 2.15303 4.07408 0
M  V30 5150 H 490.664 1.80431 3.75278 0
M  V30 5151 H 493.261 -0.490354 5.32447 0
M  V30 5152 H 493.604 -1.44638 3.90366 0
M  V30 5153 H 494.137 0.251102 3.97007 0
M  V30 5154 H 490.876 2.33469 6.12513 0
M  V30 5155 H 490.396 0.629615 5.96486 0
M  V30 5156 H 492.075 1.051 6.38407 0
M  V30 5157 N 492.207 -1.54576 0.307264 0
M  V30 5158 C 493.137 -2.26708 -0.55907 0
M  V30 5159 C 494.118 -1.26893 -1.1328 0
M  V30 5160 O 495.303 -1.55677 -1.16097 0
M  V30 5161 C 492.433 -3.01259 -1.72801 0
M  V30 5162 C 491.387 -4.08275 -1.28435 0
M  V30 5163 C 490.713 -4.70575 -2.53895 0
M  V30 5164 C 492.013 -5.2068 -0.411038 0
M  V30 5165 H 493.707 -2.9937 0.042576 0
M  V30 5166 H 491.253 -1.43983 0.0219173 0
M  V30 5167 H 493.206 -3.50444 -2.34023 0
M  V30 5168 H 491.93 -2.26187 -2.356 0
M  V30 5169 H 490.589 -3.59949 -0.695161 0
M  V30 5170 H 490.237 -3.92136 -3.15021 0
M  V30 5171 H 489.937 -5.42854 -2.24908 0
M  V30 5172 H 491.461 -5.22527 -3.15908 0
M  V30 5173 H 492.875 -5.65721 -0.929097 0
M  V30 5174 H 491.272 -5.99716 -0.214664 0
M  V30 5175 H 492.342 -4.81629 0.562287 0
M  V30 5176 N 493.685 -0.035106 -1.57561 0
M  V30 5177 C 494.91 0.655802 -1.96759 0
M  V30 5178 C 495.335 1.64523 -0.911809 0
M  V30 5179 O 494.693 1.80857 0.126673 0
M  V30 5180 C 494.741 1.33326 -3.35047 0
M  V30 5181 O 493.845 2.44866 -3.31835 0
M  V30 5182 H 493.186 0.171807 -0.641388 0
M  V30 5183 H 495.716 -0.0987369 -2.04362 0
M  V30 5184 H 495.726 1.68867 -3.71413 0
M  V30 5185 H 494.401 0.608033 -4.11431 0
M  V30 5186 H 492.978 2.11392 -3.07193 0
M  V30 5187 N 495.163 1.55791 0.238111 0
M  V30 5188 C 496.574 1.68383 0.806472 0
M  V30 5189 C 496.925 0.634157 1.85669 0
M  V30 5190 O 496.05 -0.217913 2.153 0
M  V30 5191 C 496.645 3.05268 1.46959 0
M  V30 5192 C 495.204 3.1977 1.98555 0
M  V30 5193 C 494.351 2.64279 0.839763 0
M  V30 5194 H 497.302 1.58694 0.0137535 0
M  V30 5195 H 497.323 3.00203 2.33792 0
M  V30 5196 H 496.835 3.81643 0.704993 0
M  V30 5197 H 494.936 2.48234 2.77868 0
M  V30 5198 H 495.049 4.26788 2.17689 0
M  V30 5199 H 493.413 2.22329 1.24265 0
M  V30 5200 H 494.196 3.43187 0.0881032 0
M  V30 5201 N 496.642 -0.504142 1.49319 0
M  V30 5202 C 497.888 -1.25767 1.59857 0
M  V30 5203 C 498.243 -1.90348 0.280262 0
M  V30 5204 O 497.536 -1.77588 -0.719241 0
M  V30 5205 C 497.73 -2.35021 2.69258 0
M  V30 5206 C 497.559 -1.81154 4.11598 0
M  V30 5207 C 496.329 -1.62596 4.78425 0
M  V30 5208 C 498.527 -1.3252 4.96934 0
M  V30 5209 N 496.509 -1.03625 6.05091 0
M  V30 5210 C 497.88 -0.856633 6.14054 0
M  V30 5211 C 499.935 -1.21063 4.82958 0
M  V30 5212 C 498.638 -0.284841 7.18736 0
M  V30 5213 C 500.664 -0.652815 5.87786 0
M  V30 5214 C 500.026 -0.194461 7.04132 0
M  V30 5215 H 496.125 -0.450293 0.639343 0
M  V30 5216 H 498.709 -0.565344 1.86311 0
M  V30 5217 H 496.88 -3.01719 2.44581 0
M  V30 5218 H 498.612 -3.02061 2.69335 0
M  V30 5219 H 495.367 -1.86873 4.35173 0
M  V30 5220 H 495.791 -0.76076 6.72712 0
M  V30 5221 H 500.433 -1.551 3.93324 0
M  V30 5222 H 498.151 0.0677979 8.08072 0
M  V30 5223 H 501.737 -0.566994 5.79031 0
M  V30 5224 H 500.617 0.230442 7.83861 0
M  V30 5225 N 498.12 -1.38341 -0.754957 0
M  V30 5226 C 499.053 -1.29837 -1.87663 0
M  V30 5227 C 500.031 -0.175659 -1.61648 0
M  V30 5228 O 501.215 -0.352745 -1.8517 0
M  V30 5229 C 498.342 -1.01141 -3.23246 0
M  V30 5230 C 497.388 -2.15331 -3.6815 0
M  V30 5231 S 498.221 -3.77459 -3.79849 0
M  V30 5232 C 499.377 -3.50948 -5.18253 0
M  V30 5233 H 499.61 -2.24771 -1.9459 0
M  V30 5234 H 497.143 -1.24161 -0.917796 0
M  V30 5235 H 499.101 -0.852687 -4.01546 0
M  V30 5236 H 497.762 -0.0792784 -3.14 0
M  V30 5237 H 496.955 -1.90795 -4.6649 0
M  V30 5238 H 496.557 -2.27304 -2.97 0
M  V30 5239 H 498.849 -3.06977 -6.03963 0
M  V30 5240 H 499.792 -4.48677 -5.47809 0
M  V30 5241 H 500.2 -2.85492 -4.86985 0
M  V30 5242 N 499.598 0.982988 -1.23187 0
M  V30 5243 C 501.014 1.2487 -0.993967 0
M  V30 5244 C 501.214 1.99155 0.306498 0
M  V30 5245 O 500.27 2.30688 1.0266 0
M  V30 5246 C 501.583 2.05078 -2.19917 0
M  V30 5247 C 503.131 2.18227 -2.2438 0
M  V30 5248 C 503.606 3.01825 -3.44479 0
M  V30 5249 N 505.097 3.09411 -3.44702 0
M  V30 5250 C 505.832 3.74412 -4.34285 0
M  V30 5251 N 505.328 4.41259 -5.341 0
M  V30 5252 N 507.121 3.71273 -4.22035 0
M  V30 5253 H 499.272 0.485253 -2.06783 0
M  V30 5254 H 501.535 0.276979 -0.906635 0
M  V30 5255 H 501.241 1.57867 -3.14279 0
M  V30 5256 H 501.115 3.05829 -2.2079 0
M  V30 5257 H 503.502 2.64648 -1.30559 0
M  V30 5258 H 503.583 1.16873 -2.2754 0
M  V30 5259 H 503.227 2.56102 -4.38605 0
M  V30 5260 H 503.157 4.03342 -3.38559 0
M  V30 5261 H 505.648 2.61845 -2.7248 0
M  V30 5262 H 505.961 4.88629 -5.98717 0
M  V30 5263 H 504.306 4.39975 -5.38002 0
M  V30 5264 H 507.497 3.18217 -3.43301 0
M  V30 5265 H 507.67 4.21649 -4.92053 0
M  V30 5266 N 501.076 1.04316 1.18135 0
M  V30 5267 C 502.301 0.768047 1.92655 0
M  V30 5268 C 502.726 -0.66904 1.758 0
M  V30 5269 O 502.084 -1.46372 1.06981 0
M  V30 5270 C 502.132 1.14239 3.42026 0
M  V30 5271 O 501.236 0.269333 4.1152 0
M  V30 5272 H 500.577 0.282436 0.600937 0
M  V30 5273 H 503.107 1.39367 1.49793 0
M  V30 5274 H 503.117 1.10538 3.92741 0
M  V30 5275 H 501.792 2.18928 3.53615 0
M  V30 5276 H 500.369 0.366175 3.71098 0
M  V30 5277 N 502.554 -1.34406 0.822964 0
M  V30 5278 C 503.779 -2.0304 0.423034 0
M  V30 5279 C 504.204 -1.61568 -0.963196 0
M  V30 5280 O 503.562 -0.800339 -1.62678 0
M  V30 5281 C 503.61 -3.56636 0.53321 0
M  V30 5282 O 502.714 -4.09971 -0.446939 0
M  V30 5283 H 502.055 -0.64075 0.174171 0
M  V30 5284 H 504.585 -1.71653 1.11339 0
M  V30 5285 H 504.595 -4.05945 0.408991 0
M  V30 5286 H 503.27 -3.86168 1.54425 0
M  V30 5287 H 501.847 -3.71835 -0.281601 0
M  V30 5288 N 504.032 -0.577932 -1.46621 0
M  V30 5289 C 505.257 -0.0652536 -2.07297 0
M  V30 5290 C 505.682 1.22828 -1.4246 0
M  V30 5291 O 505.04 1.74075 -0.506718 0
M  V30 5292 C 505.088 0.0920589 -3.60482 0
M  V30 5293 O 504.192 1.14972 -3.96049 0
M  V30 5294 H 503.533 -0.06065 -0.661224 0
M  V30 5295 H 506.063 -0.799515 -1.88332 0
M  V30 5296 H 506.073 0.299741 -4.06897 0
M  V30 5297 H 504.748 -0.852612 -4.07067 0
M  V30 5298 H 503.325 0.920879 -3.61351 0
M  V30 5299 N 505.51 1.54411 -0.315457 0
M  V30 5300 C 506.42 2.27737 0.56329 0
M  V30 5301 C 507.436 1.31787 1.13614 0
M  V30 5302 O 508.612 1.64791 1.15784 0
M  V30 5303 C 505.677 3.01478 1.71207 0
M  V30 5304 C 504.738 4.12997 1.17185 0
M  V30 5305 C 503.971 4.83212 2.26588 0
M  V30 5306 O 504.194 4.52884 3.46775 0
M  V30 5307 O 503.128 5.70299 1.92463 0
M  V30 5308 H 506.954 3.03683 -0.0319614 0
M  V30 5309 H 504.539 1.49178 -0.0814188 0
M  V30 5310 H 506.421 3.47683 2.38106 0
M  V30 5311 H 505.096 2.28414 2.29366 0
M  V30 5312 H 504.003 3.71159 0.468174 0
M  V30 5313 H 505.336 4.8808 0.635501 0
M  V30 5314 N 506.988 0.0434614 1.5754 0
M  V30 5315 C 507.938 -0.943039 2.07583 0
M  V30 5316 C 508.922 -1.27662 0.979342 0
M  V30 5317 O 510.114 -1.26034 1.24276 0
M  V30 5318 C 507.243 -2.22056 2.61813 0
M  V30 5319 C 506.329 -1.91471 3.78417 0
M  V30 5320 N 506.72 -1.31214 4.88484 0
M  V30 5321 C 505.018 -2.21384 3.87176 0
M  V30 5322 C 505.719 -1.18084 5.69588 0
M  V30 5323 N 504.695 -1.68116 5.16951 0
M  V30 5324 H 508.497 -0.472354 2.90079 0
M  V30 5325 H 506.011 -0.161191 1.61598 0
M  V30 5326 H 508.008 -2.93618 2.95963 0
M  V30 5327 H 506.668 -2.69738 1.80752 0
M  V30 5328 H 507.679 -0.985318 5.08441 0
M  V30 5329 H 504.356 -2.7164 3.17046 0
M  V30 5330 H 505.746 -0.713684 6.68099 0
M  V30 5331 N 508.466 -1.55915 -0.229846 0
M  V30 5332 C 509.706 -1.80314 -0.962614 0
M  V30 5333 C 510.07 -0.61568 -1.81861 0
M  V30 5334 O 511.271 -0.738795 -2.58448 0
M  V30 5335 C 509.542 -3.0956 -1.78627 0
M  V30 5336 S 511.101 -3.55243 -2.57581 0
M  V30 5337 H 507.919 -0.633142 -0.323499 0
M  V30 5338 H 510.521 -1.94155 -0.228919 0
M  V30 5339 H 509.225 -3.94033 -1.14742 0
M  V30 5340 H 508.756 -2.98503 -2.56241 0
M  V30 5341 H 510.771 -3.17924 -3.80971 0
M  V30 5342 N 509.944 0.496216 -1.49584 0
M  V30 5343 C 511.172 1.27394 -1.63029 0
M  V30 5344 C 511.587 1.86344 -0.303569 0
M  V30 5345 O 510.944 1.68057 0.711547 0
M  V30 5346 C 510.995 2.40077 -2.70269 0
M  V30 5347 O 510.716 1.83549 -3.97796 0
M  V30 5348 C 512.217 3.31372 -2.94462 0
M  V30 5349 H 509.437 0.386211 -0.54871 0
M  V30 5350 H 511.981 0.595163 -1.95648 0
M  V30 5351 H 510.136 3.03775 -2.40415 0
M  V30 5352 H 510.55 2.57561 -4.56905 0
M  V30 5353 H 512.024 4.06707 -3.73221 0
M  V30 5354 H 512.501 3.88654 -2.0456 0
M  V30 5355 H 513.107 2.73435 -3.25751 0
M  V30 5356 N 511.423 1.38739 0.74761 0
M  V30 5357 C 512.353 1.39173 1.87492 0
M  V30 5358 C 513.334 0.256794 1.6815 0
M  V30 5359 O 514.519 0.460762 1.88655 0
M  V30 5360 C 511.649 1.22197 3.25093 0
M  V30 5361 C 510.603 2.32957 3.59047 0
M  V30 5362 C 509.929 2.01082 4.95449 0
M  V30 5363 C 511.229 3.75237 3.6331 0
M  V30 5364 H 512.923 2.3351 1.87386 0
M  V30 5365 H 510.469 1.12399 0.900134 0
M  V30 5366 H 512.422 1.21124 4.03617 0
M  V30 5367 H 511.146 0.243241 3.25693 0
M  V30 5368 H 509.805 2.33226 2.82845 0
M  V30 5369 H 509.453 1.01678 4.92616 0
M  V30 5370 H 509.153 2.75267 5.19136 0
M  V30 5371 H 510.677 2.01638 5.76346 0
M  V30 5372 H 512.091 3.76966 4.31937 0
M  V30 5373 H 510.488 4.48677 3.98509 0
M  V30 5374 H 511.558 4.07122 2.634 0
M  V30 5375 N 512.901 -0.976442 1.23707 0
M  V30 5376 C 513.864 -2.0511 1.02287 0
M  V30 5377 C 514.864 -1.60791 -0.0167195 0
M  V30 5378 O 516.054 -1.72761 0.223408 0
M  V30 5379 C 513.186 -3.36458 0.548507 0
M  V30 5380 H 514.379 -2.25545 1.9766 0
M  V30 5381 H 511.932 -1.15042 1.05806 0
M  V30 5382 H 512.667 -3.21713 -0.408818 0
M  V30 5383 H 512.452 -3.69967 1.29874 0
M  V30 5384 H 513.942 -4.15489 0.419406 0
M  V30 5385 N 514.379 -1.04941 -1.1758 0
M  V30 5386 C 515.625 -0.759112 -1.88057 0
M  V30 5387 C 515.958 0.711918 -1.8068 0
M  V30 5388 O 515.233 1.52035 -1.21308 0
M  V30 5389 C 515.516 -1.237 -3.38187 0
M  V30 5390 C 515.369 -2.77078 -3.54327 0
M  V30 5391 C 516.688 -0.834014 -4.32125 0
M  V30 5392 H 513.807 -0.277237 -0.682868 0
M  V30 5393 H 516.449 -1.30296 -1.38286 0
M  V30 5394 H 514.599 -0.774337 -3.80705 0
M  V30 5395 H 516.271 -3.31449 -3.20842 0
M  V30 5396 H 514.514 -3.16477 -2.96689 0
M  V30 5397 H 515.185 -3.05577 -4.59703 0
M  V30 5398 H 517.661 -1.23228 -3.97434 0
M  V30 5399 H 516.537 -1.19603 -5.35711 0
M  V30 5400 H 516.798 0.262195 -4.41322 0
M  V30 5401 N 515.857 1.33968 -0.830081 0
M  V30 5402 C 517.082 2.02813 -0.433796 0
M  V30 5403 C 517.507 1.62076 0.954614 0
M  V30 5404 O 516.865 0.808955 1.62252 0
M  V30 5405 C 516.913 3.56348 -0.552115 0
M  V30 5406 O 516.017 4.10202 0.425191 0
M  V30 5407 H 515.358 0.639817 -0.177567 0
M  V30 5408 H 517.888 1.7106 -1.12248 0
M  V30 5409 H 517.898 4.05722 -0.430513 0
M  V30 5410 H 516.573 3.85344 -1.56471 0
M  V30 5411 H 515.15 3.71979 0.261878 0
M  V30 5412 N 517.335 0.585699 1.46312 0
M  V30 5413 C 518.581 0.0725284 2.0267 0
M  V30 5414 C 518.914 -1.28523 1.45586 0
M  V30 5415 O 518.189 -1.84283 0.622101 0
M  V30 5416 C 518.472 0.0099788 3.60099 0
M  V30 5417 C 518.325 1.39685 4.27561 0
M  V30 5418 C 519.644 -0.689117 4.34671 0
M  V30 5419 H 516.763 0.0278307 0.736474 0
M  V30 5420 H 519.405 0.753472 1.74421 0
M  V30 5421 H 517.555 -0.56992 3.84297 0
M  V30 5422 H 519.227 2.02215 4.14617 0
M  V30 5423 H 517.47 1.96374 3.86807 0
M  V30 5424 H 518.141 1.30553 5.36339 0
M  V30 5425 H 520.617 -0.196446 4.15636 0
M  V30 5426 H 519.493 -0.701921 5.44393 0
M  V30 5427 H 519.754 -1.75101 4.05946 0
M  V30 5428 N 518.813 -1.54241 0.323641 0
M  V30 5429 C 519.763 -2.21071 -0.557833 0
M  V30 5430 C 520.747 -1.19126 -1.08157 0
M  V30 5431 O 521.939 -1.44755 -1.01857 0
M  V30 5432 C 519.068 -2.97208 -1.71821 0
M  V30 5433 C 518.154 -4.06491 -1.20936 0
M  V30 5434 N 518.545 -5.04052 -0.420202 0
M  V30 5435 C 516.843 -4.20443 -1.48808 0
M  V30 5436 C 517.544 -5.81516 -0.146413 0
M  V30 5437 N 516.52 -5.38641 -0.732562 0
M  V30 5438 H 520.322 -2.93853 0.0523921 0
M  V30 5439 H 517.836 -1.61883 0.129502 0
M  V30 5440 H 519.833 -3.4357 -2.36146 0
M  V30 5441 H 518.493 -2.25947 -2.33191 0
M  V30 5442 H 519.504 -5.17862 -0.0630401 0
M  V30 5443 H 516.181 -3.60396 -2.10762 0
M  V30 5444 H 517.571 -6.70119 0.488895 0
M  V30 5445 N 520.291 -0.0518155 -1.57515 0
M  V30 5446 C 521.707 0.304735 -1.56664 0
M  V30 5447 C 521.907 1.71395 -1.05953 0
M  V30 5448 O 520.963 2.42123 -0.716414 0
M  V30 5449 C 522.276 0.132614 -3.00407 0
M  V30 5450 C 523.824 0.20367 -3.12337 0
M  V30 5451 C 524.299 0.0600706 -4.57961 0
M  V30 5452 N 525.79 0.116326 -4.63054 0
M  V30 5453 C 526.525 0.0293363 -5.73392 0
M  V30 5454 N 526.021 -0.110038 -6.92713 0
M  V30 5455 N 527.814 0.0849651 -5.62036 0
M  V30 5456 H 519.965 -0.973056 -1.888 0
M  V30 5457 H 522.228 -0.377781 -0.869474 0
M  V30 5458 H 521.934 -0.839019 -3.41546 0
M  V30 5459 H 521.808 0.893376 -3.66468 0
M  V30 5460 H 524.195 1.16578 -2.71097 0
M  V30 5461 H 524.276 -0.587857 -2.48954 0
M  V30 5462 H 523.92 -0.898715 -4.99886 0
M  V30 5463 H 523.85 0.87075 -5.19351 0
M  V30 5464 H 526.341 0.22327 -3.7724 0
M  V30 5465 H 526.654 -0.169104 -7.72615 0
M  V30 5466 H 524.999 -0.145132 -6.94848 0
M  V30 5467 H 528.19 0.192411 -4.67704 0
M  V30 5468 H 528.363 0.0137131 -6.47999 0
M  V30 5469 N 521.769 1.56035 0.221574 0
M  V30 5470 C 522.719 1.8881 1.27807 0
M  V30 5471 C 523.703 0.751177 1.42289 0
M  V30 5472 O 524.895 1.01359 1.45104 0
M  V30 5473 C 522.024 2.20828 2.6285 0
M  V30 5474 C 521.11 3.40912 2.52269 0
M  V30 5475 N 521.501 4.59531 2.1134 0
M  V30 5476 C 519.799 3.44526 2.83228 0
M  V30 5477 C 520.5 5.41689 2.1201 0
M  V30 5478 N 519.476 4.814 2.52497 0
M  V30 5479 H 523.278 2.78036 0.952529 0
M  V30 5480 H 520.792 1.566 0.430134 0
M  V30 5481 H 522.789 2.42483 3.39127 0
M  V30 5482 H 521.449 1.32914 2.9625 0
M  V30 5483 H 522.46 4.8469 1.82472 0
M  V30 5484 H 519.137 2.66956 3.21 0
M  V30 5485 H 520.527 6.46643 1.82491 0
M  V30 5486 N 523.247 -0.488276 1.49845 0
M  V30 5487 C 524.177 -1.59675 1.70371 0
M  V30 5488 C 525.158 -1.60878 0.552473 0
M  V30 5489 O 526.343 -1.77417 0.78973 0
M  V30 5490 C 523.473 -2.98098 1.782 0
M  V30 5491 C 522.427 -3.11761 2.93239 0
M  V30 5492 C 521.753 -4.51661 2.86193 0
M  V30 5493 C 523.053 -2.90589 4.33999 0
M  V30 5494 H 524.747 -1.42752 2.63177 0
M  V30 5495 H 522.293 -0.685317 1.26647 0
M  V30 5496 H 524.246 -3.75555 1.91144 0
M  V30 5497 H 522.97 -3.16138 0.820018 0
M  V30 5498 H 521.629 -2.36732 2.79917 0
M  V30 5499 H 521.277 -4.66595 1.87877 0
M  V30 5500 H 520.977 -4.61742 3.63412 0
M  V30 5501 H 522.501 -5.31162 3.01163 0
M  V30 5502 H 523.915 -3.57807 4.47936 0
M  V30 5503 H 522.312 -3.1213 5.12538 0
M  V30 5504 H 523.382 -1.86595 4.4756 0
M  V30 5505 N 524.725 -1.39134 -0.740242 0
M  V30 5506 C 525.657 -1.33332 -1.86428 0
M  V30 5507 C 526.67 -0.243042 -1.60976 0
M  V30 5508 O 527.859 -0.501608 -1.71307 0
M  V30 5509 C 524.959 -1.04626 -3.22346 0
M  V30 5510 C 524.132 -2.24826 -3.75196 0
M  V30 5511 C 523.191 -1.92659 -4.89662 0
M  V30 5512 O 522.217 -2.6529 -5.03597 0
M  V30 5513 N 523.419 -0.889575 -5.73643 0
M  V30 5514 H 526.184 -2.30196 -1.91911 0
M  V30 5515 H 523.745 -1.33168 -0.920756 0
M  V30 5516 H 525.737 -0.811347 -3.96484 0
M  V30 5517 H 524.307 -0.165129 -3.12164 0
M  V30 5518 H 523.527 -2.64301 -2.9247 0
M  V30 5519 H 524.815 -3.05015 -4.07239 0
M  V30 5520 H 524.213 -0.287529 -5.64969 0
M  V30 5521 H 522.77 -0.714557 -6.47871 0
M  V30 5522 N 526.204 0.969867 -1.24223 0
M  V30 5523 C 527.615 1.52717 -1.07399 0
M  V30 5524 C 527.966 1.92956 0.355298 0
M  V30 5525 O 527.091 1.77112 1.2434 0
M  V30 5526 C 527.686 2.77521 -1.94339 0
M  V30 5527 C 526.245 3.29615 -1.81744 0
M  V30 5528 C 525.392 2.02537 -1.89405 0
M  V30 5529 H 528.343 0.788399 -1.37732 0
M  V30 5530 H 528.364 3.50773 -1.47439 0
M  V30 5531 H 527.876 2.48203 -2.98357 0
M  V30 5532 H 525.977 3.63789 -0.805505 0
M  V30 5533 H 526.09 3.98661 -2.65718 0
M  V30 5534 H 524.454 2.17151 -1.33108 0
M  V30 5535 H 525.237 1.75587 -2.94999 0
M  V30 5536 N 527.682 1.05563 1.17022 0
M  V30 5537 C 528.907 0.788437 1.91829 0
M  V30 5538 C 529.332 -0.650356 1.76499 0
M  V30 5539 O 528.69 -1.45229 1.08527 0
M  V30 5540 C 528.738 1.1786 3.40795 0
M  V30 5541 O 527.842 0.312965 4.11211 0
M  V30 5542 H 527.183 0.288794 0.597908 0
M  V30 5543 H 529.713 1.40948 1.48307 0
M  V30 5544 H 529.723 1.14697 3.91546 0
M  V30 5545 H 528.398 2.22666 3.51273 0
M  V30 5546 H 526.975 0.405515 3.70689 0
M  V30 5547 N 529.16 -1.33526 0.837174 0
M  V30 5548 C 530.408 -1.97446 0.431211 0
M  V30 5549 C 530.729 -1.6665 -1.01255 0
M  V30 5550 O 529.999 -0.964559 -1.70508 0
M  V30 5551 H 528.579 -0.73043 0.156463 0
M  V30 5552 H 531.241 -1.62918 1.06976 0
M  V30 5553 H 530.337 -3.07001 0.561877 0
M  V30 5554 N 530.638 -0.59345 -1.46 0
M  V30 5555 C 532.054 -0.255965 -1.57534 0
M  V30 5556 C 532.254 1.24167 -1.58697 0
M  V30 5557 O 531.31 2.02398 -1.50968 0
M  V30 5558 C 532.623 -0.91466 -2.86451 0
M  V30 5559 C 534.171 -0.889253 -3.00102 0
M  V30 5560 C 534.646 -1.52769 -4.3177 0
M  V30 5561 N 536.137 -1.49253 -4.38495 0
M  V30 5562 C 536.872 -1.9558 -5.39014 0
M  V30 5563 N 536.368 -2.49929 -6.46148 0
M  V30 5564 N 538.161 -1.86432 -5.30282 0
M  V30 5565 H 530.312 -1.56604 -1.43489 0
M  V30 5566 H 532.575 -0.655207 -0.685133 0
M  V30 5567 H 532.281 -1.96861 -2.91442 0
M  V30 5568 H 532.155 -0.429356 -3.74748 0
M  V30 5569 H 534.542 0.156111 -2.94687 0
M  V30 5570 H 534.623 -1.41268 -2.13253 0
M  V30 5571 H 534.267 -2.57231 -4.37944 0
M  V30 5572 H 534.197 -0.979398 -5.17412 0
M  V30 5573 H 536.688 -1.09536 -3.61677 0
M  V30 5574 H 537.001 -2.83109 -7.19075 0
M  V30 5575 H 535.346 -2.53961 -6.46938 0
M  V30 5576 H 538.537 -1.43722 -4.4549 0
M  V30 5577 H 538.71 -2.22852 -6.08474 0
M  V30 5578 N 532.116 1.54067 -0.331816 0
M  V30 5579 C 533.346 2.04833 0.269605 0
M  V30 5580 C 533.754 1.20714 1.45687 0
M  V30 5581 O 533.097 0.232539 1.82222 0
M  V30 5582 C 533.159 3.51386 0.759499 0
M  V30 5583 C 532.823 4.55971 -0.306557 0
M  V30 5584 C 533.82 5.07126 -1.14538 0
M  V30 5585 C 531.505 5.00216 -0.457116 0
M  V30 5586 C 533.499 6.01096 -2.12042 0
M  V30 5587 C 531.186 5.93999 -1.43556 0
M  V30 5588 C 532.184 6.44326 -2.26568 0
M  V30 5589 O 531.872 7.36267 -3.22749 0
M  V30 5590 H 531.604 0.673509 0.0579763 0
M  V30 5591 H 534.158 1.99748 -0.478521 0
M  V30 5592 H 532.388 3.53896 1.55867 0
M  V30 5593 H 534.077 3.85184 1.28017 0
M  V30 5594 H 534.843 4.73716 -1.04009 0
M  V30 5595 H 530.722 4.60652 0.179142 0
M  V30 5596 H 534.266 6.40302 -2.76873 0
M  V30 5597 H 530.163 6.26825 -1.54146 0
M  V30 5598 H 530.931 7.54165 -3.18083 0
M  V30 5599 N 533.594 0.0601682 1.57485 0
M  V30 5600 C 534.843 -0.611101 1.9222 0
M  V30 5601 C 535.156 -1.71469 0.941159 0
M  V30 5602 O 536.362 -2.44473 1.18089 0
M  V30 5603 C 534.818 -1.13832 3.41424 0
M  V30 5604 C 534.426 -0.0663596 4.47951 0
M  V30 5605 C 536.17 -1.78432 3.85178 0
M  V30 5606 C 534.077 -0.606965 5.88277 0
M  V30 5607 H 533.007 -0.232033 0.71741 0
M  V30 5608 H 535.658 0.130518 1.83035 0
M  V30 5609 H 534.04 -1.93254 3.45643 0
M  V30 5610 H 535.214 0.707682 4.55333 0
M  V30 5611 H 533.529 0.482715 4.13593 0
M  V30 5612 H 536.126 -2.1989 4.87394 0
M  V30 5613 H 536.469 -2.63966 3.21913 0
M  V30 5614 H 537.002 -1.05651 3.83514 0
M  V30 5615 H 533.741 0.21095 6.5516 0
M  V30 5616 H 533.261 -1.34879 5.84438 0
M  V30 5617 H 534.94 -1.08704 6.37803 0
M  V30 5618 N 535.072 -1.5615 -0.213296 0
M  V30 5619 C 536.035 -1.92249 -1.24792 0
M  V30 5620 C 537.035 -0.801828 -1.39382 0
M  V30 5621 O 538.225 -1.06948 -1.37506 0
M  V30 5622 C 535.357 -2.18056 -2.62039 0
M  V30 5623 H 536.55 -2.84793 -0.939845 0
M  V30 5624 H 534.103 -1.49559 -0.454062 0
M  V30 5625 H 534.838 -1.2809 -2.97932 0
M  V30 5626 H 534.623 -2.99703 -2.52825 0
M  V30 5627 H 536.113 -2.47051 -3.36683 0
M  V30 5628 N 536.55 0.480323 -1.50102 0
M  V30 5629 C 537.482 1.59669 -1.64433 0
M  V30 5630 C 538.495 1.54063 -0.52615 0
M  V30 5631 O 539.684 1.59619 -0.798992 0
M  V30 5632 C 536.784 2.98527 -1.6042 0
M  V30 5633 C 535.957 3.291 -2.88117 0
M  V30 5634 C 535.016 4.47468 -2.76873 0
M  V30 5635 O 534.042 4.4823 -3.50825 0
M  V30 5636 N 535.244 5.48593 -1.89806 0
M  V30 5637 H 538.009 1.47795 -2.60723 0
M  V30 5638 H 535.57 0.66858 -1.4745 0
M  V30 5639 H 537.562 3.75666 -1.50523 0
M  V30 5640 H 536.132 3.04218 -0.719036 0
M  V30 5641 H 535.352 2.40662 -3.12211 0
M  V30 5642 H 536.64 3.46334 -3.72734 0
M  V30 5643 H 536.038 5.50791 -1.2902 0
M  V30 5644 H 534.595 6.24752 -1.85819 0
M  V30 5645 N 538.028 1.39524 0.732853 0
M  V30 5646 C 538.958 1.41153 1.86005 0
M  V30 5647 C 539.939 0.274614 1.67869 0
M  V30 5648 O 541.124 0.480745 1.88155 0
M  V30 5649 C 538.254 1.25638 3.23778 0
M  V30 5650 C 537.208 2.36752 3.56556 0
M  V30 5651 C 536.534 2.06326 4.93289 0
M  V30 5652 C 537.834 3.79069 3.5931 0
M  V30 5653 H 539.528 2.35484 1.84899 0
M  V30 5654 H 537.074 1.13348 0.888162 0
M  V30 5655 H 539.027 1.25398 4.0231 0
M  V30 5656 H 537.751 0.277772 3.25417 0
M  V30 5657 H 536.41 2.36213 2.80355 0
M  V30 5658 H 536.058 1.06897 4.9151 0
M  V30 5659 H 535.758 2.80757 5.16187 0
M  V30 5660 H 537.282 2.07739 5.74175 0
M  V30 5661 H 538.696 3.81526 4.27914 0
M  V30 5662 H 537.093 4.52878 3.93728 0
M  V30 5663 H 538.163 4.09893 2.59068 0
M  V30 5664 N 539.506 -0.963266 1.24736 0
M  V30 5665 C 540.436 -2.07628 1.06832 0
M  V30 5666 C 541.417 -1.70088 -0.0200566 0
M  V30 5667 O 542.602 -1.93636 0.147854 0
M  V30 5668 C 539.732 -3.40636 0.677069 0
M  V30 5669 C 538.686 -3.9215 1.71471 0
M  V30 5670 C 538.012 -5.21553 1.1784 0
M  V30 5671 C 539.312 -4.19493 3.11164 0
M  V30 5672 H 541.006 -2.22864 1.9993 0
M  V30 5673 H 538.552 -1.07093 0.96266 0
M  V30 5674 H 540.505 -4.17941 0.538792 0
M  V30 5675 H 539.229 -3.25313 -0.289612 0
M  V30 5676 H 537.888 -3.17005 1.84128 0
M  V30 5677 H 537.536 -5.02593 0.202195 0
M  V30 5678 H 537.236 -5.56988 1.87185 0
M  V30 5679 H 538.76 -6.01463 1.05233 0
M  V30 5680 H 540.174 -4.87487 3.01711 0
M  V30 5681 H 538.571 -4.66165 3.77902 0
M  V30 5682 H 539.641 -3.26097 3.58871 0
M  V30 5683 N 540.985 -1.06182 -1.16461 0
M  V30 5684 C 542.396 -0.802426 -1.68576 0
M  V30 5685 C 542.747 0.67412 -1.84255 0
M  V30 5686 O 541.872 1.52303 -1.5373 0
M  V30 5687 C 542.467 -1.45002 -3.06202 0
M  V30 5688 C 541.026 -1.23843 -3.55443 0
M  V30 5689 C 540.173 -1.52724 -2.31454 0
M  V30 5690 H 543.124 -1.22545 -1.00839 0
M  V30 5691 H 543.145 -0.864731 -3.70544 0
M  V30 5692 H 542.657 -2.52466 -2.94759 0
M  V30 5693 H 540.758 -0.183487 -3.72148 0
M  V30 5694 H 540.871 -1.95036 -4.37604 0
M  V30 5695 H 539.235 -0.947726 -2.36411 0
M  V30 5696 H 540.018 -2.61343 -2.22609 0
M  V30 5697 N 542.463 1.3308 -0.844243 0
M  V30 5698 C 543.413 2.26589 -0.253289 0
M  V30 5699 C 544.397 1.49501 0.594836 0
M  V30 5700 O 545.589 1.71291 0.445924 0
M  V30 5701 C 542.718 3.38599 0.566176 0
M  V30 5702 C 541.804 4.23081 -0.293756 0
M  V30 5703 N 542.195 4.86751 -1.37505 0
M  V30 5704 C 540.493 4.45925 -0.0817086 0
M  V30 5705 C 541.194 5.49684 -1.90323 0
M  V30 5706 N 540.17 5.30101 -1.20391 0
M  V30 5707 H 543.972 2.73334 -1.08009 0
M  V30 5708 H 541.486 1.47048 -0.689258 0
M  V30 5709 H 543.483 4.04584 1.00587 0
M  V30 5710 H 542.143 2.93401 1.39089 0
M  V30 5711 H 543.154 4.87151 -1.75796 0
M  V30 5712 H 539.831 4.11434 0.709129 0
M  V30 5713 H 541.221 6.10363 -2.80902 0
M  V30 5714 N 543.941 0.601185 1.45683 0
M  V30 5715 C 544.889 -0.133955 2.32214 0
M  V30 5716 C 545.883 -0.866034 1.45589 0
M  V30 5717 O 547.089 -0.782326 1.6211 0
M  V30 5718 H 543.464 -0.0620613 0.749435 0
M  V30 5719 H 545.435 0.614389 2.92007 0
M  V30 5720 C 544.184 -1.12216 3.29094 0
M  V30 5721 H 543.507 -0.568273 3.95741 0
M  V30 5722 H 544.947 -1.60659 3.92383 0
M  V30 5723 C 543.406 -2.19251 2.55794 0
M  V30 5724 O 543.936 -3.26894 2.33459 0
M  V30 5725 N 542.142 -1.9436 2.16039 0
M  V30 5726 H 541.689 -1.06829 2.34404 0
M  V30 5727 H 541.647 -2.66181 1.67318 0
M  V30 5728 N 545.419 -1.53889 0.339982 0
M  V30 5729 C 546.329 -2.28604 -0.526988 0
M  V30 5730 C 547.345 -1.33578 -1.11503 0
M  V30 5731 O 548.521 -1.66612 -1.13148 0
M  V30 5732 C 545.586 -3.04164 -1.66389 0
M  V30 5733 C 544.647 -4.14809 -1.10599 0
M  V30 5734 C 543.88 -4.86756 -2.18871 0
M  V30 5735 O 544.103 -4.58343 -3.39526 0
M  V30 5736 O 543.037 -5.73289 -1.83366 0
M  V30 5737 H 546.863 -3.03594 0.0802707 0
M  V30 5738 H 544.448 -1.4903 0.105141 0
M  V30 5739 H 546.33 -3.51427 -2.32544 0
M  V30 5740 H 545.005 -2.32035 -2.25703 0
M  V30 5741 H 543.912 -3.71857 -0.409067 0
M  V30 5742 H 545.245 -4.89029 -0.557771 0
M  V30 5743 N 546.897 -0.0685191 -1.57451 0
M  V30 5744 C 547.86 0.885173 -2.11417 0
M  V30 5745 C 548.86 1.22853 -1.03748 0
M  V30 5746 O 550.05 1.16235 -1.2975 0
M  V30 5747 C 547.182 2.18964 -2.61281 0
M  V30 5748 H 548.375 0.417034 -2.96986 0
M  V30 5749 H 545.928 0.18014 -1.55258 0
M  V30 5750 H 546.663 2.70321 -1.79156 0
M  V30 5751 H 546.448 1.9534 -3.39977 0
M  V30 5752 H 547.938 2.87242 -3.0312 0
M  V30 5753 N 548.375 1.56261 0.205012 0
M  V30 5754 C 549.338 1.92908 1.23771 0
M  V30 5755 C 550.338 0.809208 1.38955 0
M  V30 5756 O 551.528 1.07676 1.36936 0
M  V30 5757 C 548.66 2.19442 2.60879 0
M  V30 5758 H 549.853 2.85287 0.924728 0
M  V30 5759 H 547.406 1.49798 0.446125 0
M  V30 5760 H 548.141 1.29668 2.97248 0
M  V30 5761 H 547.926 3.0104 2.51232 0
M  V30 5762 H 549.416 2.48833 3.35368 0
M  V30 5763 N 549.853 -0.472356 1.50355 0
M  V30 5764 C 551.269 -0.806001 1.37753 0
M  V30 5765 C 551.469 -1.968 0.432649 0
M  V30 5766 O 550.525 -2.52189 -0.12519 0
M  V30 5767 C 551.838 -1.11926 2.79093 0
M  V30 5768 C 553.386 -1.22579 2.87999 0
M  V30 5769 C 553.861 -1.57218 4.3017 0
M  V30 5770 N 555.352 -1.64212 4.33115 0
M  V30 5771 C 556.087 -1.92517 5.40116 0
M  V30 5772 N 555.583 -2.1885 6.57325 0
M  V30 5773 N 557.376 -1.94008 5.27558 0
M  V30 5774 H 549.527 0.293451 2.10363 0
M  V30 5775 H 551.79 0.0687672 0.945503 0
M  V30 5776 H 551.496 -0.338504 3.50067 0
M  V30 5777 H 551.37 -2.05577 3.16256 0
M  V30 5778 H 553.757 -1.99722 2.17245 0
M  V30 5779 H 553.838 -0.269107 2.54381 0
M  V30 5780 H 553.482 -0.806154 5.01461 0
M  V30 5781 H 553.412 -2.54034 4.61275 0
M  V30 5782 H 555.903 -1.45906 3.48597 0
M  V30 5783 H 556.216 -2.39718 7.3468 0
M  V30 5784 H 554.561 -2.16245 6.60502 0
M  V30 5785 H 557.752 -1.72931 4.34986 0
M  V30 5786 H 557.925 -2.15731 6.11035 0
M  V30 5787 N 551.331 -1.39911 -0.725443 0
M  V30 5788 C 552.241 -1.41688 -1.8698 0
M  V30 5789 C 553.257 -0.310579 -1.71206 0
M  V30 5790 O 554.433 -0.55359 -1.93642 0
M  V30 5791 C 551.498 -1.26811 -3.22676 0
M  V30 5792 C 550.559 -2.47497 -3.50776 0
M  V30 5793 C 549.792 -2.3332 -4.79997 0
M  V30 5794 O 550.015 -1.34175 -5.54394 0
M  V30 5795 O 548.949 -3.22498 -5.08211 0
M  V30 5796 H 552.775 -2.38171 -1.88436 0
M  V30 5797 H 550.36 -1.21128 -0.874548 0
M  V30 5798 H 552.242 -1.20684 -4.03749 0
M  V30 5799 H 550.917 -0.334289 -3.21969 0
M  V30 5800 H 549.824 -2.59201 -2.69751 0
M  V30 5801 H 551.157 -3.39606 -3.5627 0
M  V30 5802 N 552.809 0.956637 -1.25245 0
M  V30 5803 C 554.058 1.69537 -1.0927 0
M  V30 5804 C 554.371 1.92136 0.366503 0
M  V30 5805 O 555.577 2.63687 0.64665 0
M  V30 5806 C 554.033 3.05211 -1.9072 0
M  V30 5807 C 553.641 2.90416 -3.41119 0
M  V30 5808 C 555.385 3.82882 -1.83308 0
M  V30 5809 C 553.292 4.21468 -4.14872 0
M  V30 5810 H 552.222 0.635804 -0.405302 0
M  V30 5811 H 554.873 1.06513 -1.49423 0
M  V30 5812 H 553.255 3.69128 -1.43389 0
M  V30 5813 H 554.429 2.35444 -3.9611 0
M  V30 5814 H 552.744 2.26203 -3.49602 0
M  V30 5815 H 555.341 4.79944 -2.35706 0
M  V30 5816 H 555.684 4.0853 -0.800572 0
M  V30 5817 H 556.217 3.25711 -2.28379 0
M  V30 5818 H 552.956 4.01009 -5.18529 0
M  V30 5819 H 552.476 4.76213 -3.64665 0
M  V30 5820 H 554.155 4.90022 -4.22478 0
M  V30 5821 N 554.287 1.06798 1.15896 0
M  V30 5822 C 555.217 0.704677 2.22613 0
M  V30 5823 C 556.198 -0.305252 1.67339 0
M  V30 5824 O 557.383 -0.179247 1.93371 0
M  V30 5825 C 554.513 0.0957325 3.47168 0
M  V30 5826 C 553.467 1.0322 4.15367 0
M  V30 5827 C 552.793 0.286293 5.33933 0
M  V30 5828 C 554.093 2.36341 4.65768 0
M  V30 5829 H 555.787 1.59688 2.53259 0
M  V30 5830 H 553.333 0.769257 1.21731 0
M  V30 5831 H 555.286 -0.170333 4.21056 0
M  V30 5832 H 554.01 -0.831516 3.15838 0
M  V30 5833 H 552.669 1.28309 3.43413 0
M  V30 5834 H 552.317 -0.644237 4.98857 0
M  V30 5835 H 552.017 0.910436 5.80504 0
M  V30 5836 H 553.541 0.0278938 6.10594 0
M  V30 5837 H 554.955 2.1561 5.31211 0
M  V30 5838 H 553.352 2.94299 5.2298 0
M  V30 5839 H 554.422 2.99047 3.81705 0
M  V30 5840 N 555.766 -1.3263 0.851289 0
M  V30 5841 C 556.696 -2.31449 0.308771 0
M  V30 5842 C 557.677 -1.59531 -0.590255 0
M  V30 5843 O 558.862 -1.87351 -0.511205 0
M  V30 5844 C 555.992 -3.43586 -0.506548 0
M  V30 5845 C 554.946 -4.26963 0.297753 0
M  V30 5846 C 554.272 -5.30831 -0.642094 0
M  V30 5847 C 555.572 -4.99643 1.52166 0
M  V30 5848 H 557.266 -2.77074 1.13447 0
M  V30 5849 H 554.812 -1.33207 0.546971 0
M  V30 5850 H 556.765 -4.11754 -0.896474 0
M  V30 5851 H 555.489 -2.96681 -1.36558 0
M  V30 5852 H 554.148 -3.60437 0.669391 0
M  V30 5853 H 553.796 -4.8018 -1.49788 0
M  V30 5854 H 553.496 -5.87501 -0.107968 0
M  V30 5855 H 555.02 -6.01862 -1.02927 0
M  V30 5856 H 556.434 -5.6051 1.20421 0
M  V30 5857 H 554.831 -5.66022 1.99347 0
M  V30 5858 H 555.901 -4.27701 2.28474 0
M  V30 5859 N 557.244 -0.608902 -1.45362 0
M  V30 5860 C 558.177 0.158059 -2.27652 0
M  V30 5861 C 559.155 0.872397 -1.37215 0
M  V30 5862 O 560.339 0.881002 -1.66645 0
M  V30 5863 C 557.466 1.22896 -3.15617 0
M  V30 5864 C 556.512 0.617607 -4.22005 0
M  V30 5865 S 557.345 -0.575518 -5.32398 0
M  V30 5866 C 558.501 0.495938 -6.23932 0
M  V30 5867 H 558.734 -0.540095 -2.92353 0
M  V30 5868 H 556.267 -0.396456 -1.49223 0
M  V30 5869 H 558.225 1.84195 -3.66855 0
M  V30 5870 H 556.886 1.89919 -2.50179 0
M  V30 5871 H 556.079 1.42341 -4.83482 0
M  V30 5872 H 555.681 0.0797273 -3.73915 0
M  V30 5873 H 557.973 1.37465 -6.63408 0
M  V30 5874 H 558.916 -0.0827108 -7.08052 0
M  V30 5875 H 559.324 0.811856 -5.58631 0
M  V30 5876 N 558.722 1.53707 -0.348139 0
M  V30 5877 C 560.133 1.86213 0.134797 0
M  V30 5878 C 560.484 1.26925 1.49614 0
M  V30 5879 O 559.609 0.584573 2.08355 0
M  V30 5880 C 560.204 3.37866 0.251371 0
M  V30 5881 C 558.763 3.70233 0.678543 0
M  V30 5882 C 557.91 2.76683 -0.184925 0
M  V30 5883 H 560.861 1.48204 -0.567571 0
M  V30 5884 H 560.882 3.64908 1.07806 0
M  V30 5885 H 560.394 3.80988 -0.739581 0
M  V30 5886 H 558.495 3.32659 1.67835 0
M  V30 5887 H 558.608 4.76836 0.465251 0
M  V30 5888 H 556.972 2.52374 0.343465 0
M  V30 5889 H 557.755 3.22635 -1.1731 0
M  V30 5890 N 560.2 0.0768682 1.57412 0
M  V30 5891 C 561.428 -0.59997 1.9801 0
M  V30 5892 C 561.843 -1.62842 0.955408 0
M  V30 5893 O 561.2 -1.8241 -0.057314 0
M  V30 5894 C 561.251 -1.26401 3.38681 0
M  V30 5895 O 560.972 -0.276723 4.37225 0
M  V30 5896 C 562.473 -2.0282 3.94182 0
M  V30 5897 H 559.693 -0.162239 0.651091 0
M  V30 5898 H 562.237 0.150771 2.03943 0
M  V30 5899 H 560.392 -1.96581 3.33819 0
M  V30 5900 H 560.806 -0.753744 5.19056 0
M  V30 5901 H 562.28 -2.44667 4.94815 0
M  V30 5902 H 562.757 -2.88678 3.31001 0
M  V30 5903 H 563.363 -1.37496 4.02461 0
M  V30 5904 N 561.678 -1.56367 -0.196722 0
M  V30 5905 C 563.089 -1.70462 -0.761545 0
M  V30 5906 C 563.44 -0.683161 -1.83922 0
M  V30 5907 O 562.565 0.160753 -2.15802 0
M  V30 5908 C 563.16 -3.09057 -1.38814 0
M  V30 5909 C 561.719 -3.24922 -1.90007 0
M  V30 5910 C 560.866 -2.66412 -0.769399 0
M  V30 5911 H 563.817 -1.58675 0.0283263 0
M  V30 5912 H 563.838 -3.06296 -2.2575 0
M  V30 5913 H 563.35 -3.83378 -0.603559 0
M  V30 5914 H 561.451 -2.55514 -2.71189 0
M  V30 5915 H 561.564 -4.3241 -2.06297 0
M  V30 5916 H 559.928 -2.25546 -1.18326 0
M  V30 5917 H 560.711 -3.433 0.00291773 0
M  V30 5918 N 563.156 0.464375 -1.50603 0
M  V30 5919 C 564.404 1.21356 -1.61608 0
M  V30 5920 C 564.725 1.92329 -0.321643 0
M  V30 5921 O 563.995 1.84403 0.661232 0
M  V30 5922 H 562.575 0.45094 -0.595535 0
M  V30 5923 H 565.237 0.535046 -1.87412 0
M  V30 5924 H 564.333 1.95783 -2.43054 0
M  V30 5925 N 564.634 1.40294 0.718013 0
M  V30 5926 C 565.581 1.40367 1.8321 0
M  V30 5927 C 566.551 0.260952 1.64037 0
M  V30 5928 O 567.736 0.458648 1.85205 0
M  V30 5929 C 564.876 1.26965 3.20895 0
M  V30 5930 C 563.989 2.50922 3.51656 0
M  V30 5931 C 563.124 2.29981 4.78834 0
M  V30 5932 C 562.163 3.49527 5.02491 0
M  V30 5933 N 561.3 3.27796 6.20882 0
M  V30 5934 H 566.14 2.35593 1.82482 0
M  V30 5935 H 563.677 1.17012 0.891444 0
M  V30 5936 H 565.635 1.17202 4.00399 0
M  V30 5937 H 564.265 0.353591 3.20858 0
M  V30 5938 H 563.317 2.71223 2.66725 0
M  V30 5939 H 564.629 3.39913 3.65048 0
M  V30 5940 H 563.783 2.17558 5.66351 0
M  V30 5941 H 562.522 1.38411 4.67647 0
M  V30 5942 H 561.527 3.6243 4.1343 0
M  V30 5943 H 562.752 4.42021 5.15553 0
M  V30 5944 H 560.698 2.38906 6.1095 0
M  V30 5945 H 560.615 4.10351 6.34939 0
M  V30 5946 H 561.883 3.19101 7.11193 0
M  V30 5947 N 566.112 -0.949982 1.2575 0
M  V30 5948 C 567.062 -2.03297 1.03221 0
M  V30 5949 C 568.046 -1.60867 -0.0324751 0
M  V30 5950 O 569.238 -1.76047 0.183423 0
M  V30 5951 C 566.367 -3.36938 0.657841 0
M  V30 5952 C 565.453 -3.85878 1.75952 0
M  V30 5953 N 565.844 -4.0756 2.99547 0
M  V30 5954 C 564.142 -4.14709 1.64111 0
M  V30 5955 C 564.843 -4.47961 3.71087 0
M  V30 5956 N 563.819 -4.5416 2.98731 0
M  V30 5957 H 567.621 -2.1806 1.97045 0
M  V30 5958 H 565.135 -1.13516 1.16138 0
M  V30 5959 H 567.132 -4.14155 0.477614 0
M  V30 5960 H 565.792 -3.2355 -0.273025 0
M  V30 5961 H 566.803 -3.94501 3.35544 0
M  V30 5962 H 563.48 -4.10158 0.779527 0
M  V30 5963 H 564.87 -4.73002 4.77199 0
M  V30 5964 N 567.59 -1.07411 -1.15328 0
M  V30 5965 C 568.838 -0.796073 -1.85761 0
M  V30 5966 C 569.159 0.679864 -1.82764 0
M  V30 5967 O 568.429 1.49242 -1.269 0
M  V30 5968 H 567.009 -0.291495 -0.687779 0
M  V30 5969 H 569.671 -1.35799 -1.39802 0
M  V30 5970 H 568.767 -1.13114 -2.90881 0
M  V30 5971 N 569.068 1.32177 -0.85831 0
M  V30 5972 C 570.314 1.97813 -0.47346 0
M  V30 5973 C 570.669 1.66674 0.961122 0
M  V30 5974 O 569.962 0.94657 1.66585 0
M  V30 5975 C 570.156 3.51372 -0.653658 0
M  V30 5976 C 569.985 3.97433 -2.1042 0
M  V30 5977 C 568.755 4.24338 -2.74345 0
M  V30 5978 C 570.953 4.12233 -3.0752 0
M  V30 5979 N 568.935 4.56672 -4.10272 0
M  V30 5980 C 570.306 4.48146 -4.28445 0
M  V30 5981 C 572.361 3.94577 -3.03667 0
M  V30 5982 C 571.064 4.68246 -5.4602 0
M  V30 5983 C 573.09 4.15864 -4.20489 0
M  V30 5984 C 572.452 4.52098 -5.40173 0
M  V30 5985 H 568.551 0.749808 -0.222061 0
M  V30 5986 H 571.135 1.59927 -1.11047 0
M  V30 5987 H 569.306 3.88372 -0.0463267 0
M  V30 5988 H 571.038 4.03998 -0.238343 0
M  V30 5989 H 567.793 4.16544 -2.25362 0
M  V30 5990 H 568.217 4.77019 -4.80398 0
M  V30 5991 H 572.859 3.65662 -2.12252 0
M  V30 5992 H 570.577 4.96014 -6.37962 0
M  V30 5993 H 574.163 4.03702 -4.18947 0
M  V30 5994 H 573.043 4.68238 -6.29065 0
M  V30 5995 N 570.547 0.616602 1.45037 0
M  V30 5996 C 571.775 0.121968 2.0654 0
M  V30 5997 C 572.19 -1.19743 1.45969 0
M  V30 5998 O 571.547 -1.73133 0.577168 0
M  V30 5999 C 571.598 -0.0145171 3.61497 0
M  V30 6000 O 571.319 1.25269 4.19809 0
M  V30 6001 C 572.82 -0.539555 4.40004 0
M  V30 6002 H 570.04 0.0729837 0.667019 0
M  V30 6003 H 572.584 0.846891 1.8614 0
M  V30 6004 H 570.739 -0.689809 3.81209 0
M  V30 6005 H 571.153 1.08816 5.13088 0
M  V30 6006 H 572.627 -0.584112 5.48901 0
M  V30 6007 H 573.104 -1.56368 4.10421 0
M  V30 6008 H 573.71 0.101995 4.25178 0
M  V30 6009 N 572.025 -1.5352 0.356285 0
M  V30 6010 C 573.271 -2.01414 -0.236653 0
M  V30 6011 C 573.604 -1.24339 -1.49176 0
M  V30 6012 O 572.879 -0.334496 -1.91602 0
M  V30 6013 C 573.162 -3.56059 -0.537982 0
M  V30 6014 C 573.015 -4.43835 0.730112 0
M  V30 6015 C 574.334 -4.19127 -1.34239 0
M  V30 6016 H 571.453 -0.732135 -0.0845386 0
M  V30 6017 H 574.095 -1.83854 0.479341 0
M  V30 6018 H 572.245 -3.71153 -1.14795 0
M  V30 6019 H 573.917 -4.40555 1.36782 0
M  V30 6020 H 572.16 -4.1218 1.3524 0
M  V30 6021 H 572.831 -5.49958 0.474358 0
M  V30 6022 H 575.307 -4.07809 -0.826498 0
M  V30 6023 H 574.183 -5.27378 -1.52198 0
M  V30 6024 H 574.444 -3.74581 -2.34822 0
M  V30 6025 N 573.503 -0.0852151 -1.57369 0
M  V30 6026 C 574.433 0.874556 -2.16503 0
M  V30 6027 C 575.414 1.30111 -1.09568 0
M  V30 6028 O 576.599 1.36977 -1.37662 0
M  V30 6029 C 573.729 2.13731 -2.73745 0
M  V30 6030 C 572.683 1.84971 -3.85966 0
M  V30 6031 C 572.009 3.17991 -4.29867 0
M  V30 6032 C 573.309 1.14442 -5.09608 0
M  V30 6033 H 575.003 0.381899 -2.96954 0
M  V30 6034 H 572.549 0.18225 -1.42842 0
M  V30 6035 H 574.502 2.81302 -3.13763 0
M  V30 6036 H 573.226 2.65263 -1.90534 0
M  V30 6037 H 571.885 1.19801 -3.46473 0
M  V30 6038 H 571.533 3.6739 -3.4356 0
M  V30 6039 H 571.233 2.99534 -5.05523 0
M  V30 6040 H 572.757 3.86737 -4.72511 0
M  V30 6041 H 574.171 1.72105 -5.46857 0
M  V30 6042 H 572.568 1.06197 -5.90629 0
M  V30 6043 H 573.638 0.12559 -4.84737 0
M  V30 6044 N 574.981 1.5647 0.188427 0
M  V30 6045 C 575.913 1.91611 1.25769 0
M  V30 6046 C 576.926 0.807436 1.41366 0
M  V30 6047 O 578.115 1.08586 1.41673 0
M  V30 6048 C 575.215 2.13874 2.6289 0
M  V30 6049 C 574.388 3.45047 2.68815 0
M  V30 6050 C 573.447 3.56342 3.87178 0
M  V30 6051 O 572.473 4.29109 3.73971 0
M  V30 6052 N 573.675 2.89924 5.02916 0
M  V30 6053 H 576.44 2.8393 0.959373 0
M  V30 6054 H 574.001 1.57418 0.378306 0
M  V30 6055 H 575.993 2.18713 3.4051 0
M  V30 6056 H 574.563 1.28022 2.85183 0
M  V30 6057 H 573.783 3.52017 1.77419 0
M  V30 6058 H 575.071 4.31395 2.6977 0
M  V30 6059 H 574.469 2.30644 5.16546 0
M  V30 6060 H 573.026 3.0038 5.78459 0
M  V30 6061 N 576.459 -0.456382 1.50847 0
M  V30 6062 C 577.707 -1.20497 1.62249 0
M  V30 6063 C 578.028 -1.92156 0.331839 0
M  V30 6064 O 577.298 -1.84751 -0.651443 0
M  V30 6065 H 575.878 -0.447775 0.597918 0
M  V30 6066 H 578.54 -0.525099 1.87693 0
M  V30 6067 H 577.636 -1.94492 2.44089 0
M  V30 6068 N 577.937 -1.40673 -0.710563 0
M  V30 6069 C 579.353 -1.22813 -1.01928 0
M  V30 6070 C 579.553 -0.10687 -2.01216 0
M  V30 6071 O 578.609 0.533614 -2.46797 0
M  V30 6072 C 579.922 -2.57178 -1.5582 0
M  V30 6073 C 581.47 -2.64233 -1.67779 0
M  V30 6074 C 581.945 -3.98879 -2.25076 0
M  V30 6075 N 583.436 -4.00647 -2.32456 0
M  V30 6076 C 584.171 -5.01621 -2.77784 0
M  V30 6077 N 583.667 -6.12989 -3.22826 0
M  V30 6078 N 585.46 -4.88988 -2.77213 0
M  V30 6079 H 577.611 -2.12335 -0.05253 0
M  V30 6080 H 579.874 -0.9441 -0.085898 0
M  V30 6081 H 579.58 -3.39903 -0.903249 0
M  V30 6082 H 579.454 -2.78618 -2.54267 0
M  V30 6083 H 581.841 -1.81876 -2.3239 0
M  V30 6084 H 581.922 -2.46619 -0.679178 0
M  V30 6085 H 581.566 -4.81678 -1.61086 0
M  V30 6086 H 581.496 -4.13826 -3.25661 0
M  V30 6087 H 583.987 -3.20231 -2.0065 0
M  V30 6088 H 584.3 -6.85921 -3.55995 0
M  V30 6089 H 582.645 -6.16547 -3.20773 0
M  V30 6090 H 585.836 -4.01075 -2.41363 0
M  V30 6091 H 586.009 -5.67822 -3.12221 0
M  V30 6092 N 579.415 0.9433 -1.26252 0
M  V30 6093 C 580.664 1.68369 -1.11062 0
M  V30 6094 C 580.977 1.92514 0.346104 0
M  V30 6095 O 582.183 2.64358 0.618646 0
M  V30 6096 C 580.639 3.03171 -1.93946 0
M  V30 6097 C 580.247 2.86782 -3.4418 0
M  V30 6098 C 581.991 3.80916 -1.87359 0
M  V30 6099 C 579.898 4.17044 -4.19319 0
M  V30 6100 H 578.828 0.631469 -0.412023 0
M  V30 6101 H 581.479 1.04922 -1.50544 0
M  V30 6102 H 579.861 3.67587 -1.47296 0
M  V30 6103 H 581.035 2.31229 -3.98585 0
M  V30 6104 H 579.35 2.22482 -3.51981 0
M  V30 6105 H 581.947 4.77417 -2.40784 0
M  V30 6106 H 582.29 4.07658 -0.843857 0
M  V30 6107 H 582.823 3.2327 -2.31821 0
M  V30 6108 H 579.562 3.95487 -5.22753 0
M  V30 6109 H 579.082 4.72319 -3.69696 0
M  V30 6110 H 580.761 4.85513 -4.27651 0
M  V30 6111 N 580.893 1.08022 1.14757 0
M  V30 6112 C 582.141 0.805913 1.85336 0
M  V30 6113 C 582.462 -0.670162 1.83122 0
M  V30 6114 O 581.732 -1.48567 1.2769 0
M  V30 6115 H 580.312 0.295138 0.686223 0
M  V30 6116 H 582.974 1.36538 1.3908 0
M  V30 6117 H 582.07 1.14655 2.90277 0
M  V30 6118 N 582.371 -1.3172 0.865308 0
M  V30 6119 C 583.787 -1.4958 0.556596 0
M  V30 6120 C 583.987 -1.79763 -0.910353 0
M  V30 6121 O 583.043 -1.87351 -1.6928 0
M  V30 6122 C 584.356 -2.63277 1.45279 0
M  V30 6123 C 585.904 -2.77161 1.45433 0
M  V30 6124 C 586.379 -3.93949 2.33598 0
M  V30 6125 N 587.87 -4.01228 2.31453 0
M  V30 6126 C 588.605 -4.90855 2.96393 0
M  V30 6127 N 588.101 -5.85416 3.70486 0
M  V30 6128 N 589.894 -4.84063 2.85726 0
M  V30 6129 H 582.045 -1.10396 1.81456 0
M  V30 6130 H 584.308 -0.54507 0.775631 0
M  V30 6131 H 584.014 -2.47734 2.49641 0
M  V30 6132 H 583.888 -3.59309 1.14792 0
M  V30 6133 H 586.275 -2.9212 0.41831 0
M  V30 6134 H 586.356 -1.8181 1.79941 0
M  V30 6135 H 586 -3.79748 3.37274 0
M  V30 6136 H 585.93 -4.88598 1.96417 0
M  V30 6137 H 588.421 -3.3357 1.77593 0
M  V30 6138 H 588.734 -6.50525 4.17178 0
M  V30 6139 H 587.079 -5.85409 3.74594 0
M  V30 6140 H 590.27 -4.09163 2.27384 0
M  V30 6141 H 590.443 -5.53708 3.36617 0
M  V30 6142 N 583.85 -0.624285 -1.44708 0
M  V30 6143 C 585.26 -0.2092 -1.85524 0
M  V30 6144 C 585.611 1.23783 -1.52225 0
M  V30 6145 O 584.736 1.94089 -0.956986 0
M  V30 6146 C 585.332 -0.372897 -3.36742 0
M  V30 6147 C 583.891 -0.012374 -3.76398 0
M  V30 6148 C 583.038 -0.68951 -2.68591 0
M  V30 6149 H 585.989 -0.829894 -1.35272 0
M  V30 6150 H 586.01 0.390134 -3.78495 0
M  V30 6151 H 585.522 -1.42615 -3.60947 0
M  V30 6152 H 583.623 1.03941 -3.57809 0
M  V30 6153 H 583.736 -0.417663 -4.77276 0
M  V30 6154 H 582.1 -0.125484 -2.54391 0
M  V30 6155 H 582.883 -1.74522 -2.9563 0
M  V30 6156 N 585.328 1.53329 -0.364422 0
M  V30 6157 C 586.605 1.93557 0.281962 0
M  V30 6158 C 586.985 1.29786 1.6649 0
M  V30 6159 O 586.333 0.456512 2.23893 0
M  V30 6160 C 586.543 3.47405 0.333331 0
M  V30 6161 C 587.891 4.20699 0.574231 0
M  V30 6162 O 588.915 3.53779 0.414588 0
M  V30 6163 O 587.774 5.39287 0.885002 0
M  V30 6164 H 584.868 0.809573 0.168881 0
M  V30 6165 H 587.414 1.64494 -0.417121 0
M  V30 6166 H 586.186 3.86091 -0.636326 0
M  V30 6167 H 585.809 3.82697 1.07836 0
M  V30 6168 N 586.806 0.0935595 1.57322 0
M  V30 6169 C 587.754 -0.883457 2.15169 0
M  V30 6170 C 588.748 -1.29324 1.09415 0
M  V30 6171 O 589.954 -1.26795 1.27762 0
M  V30 6172 H 586.329 -0.302923 0.688289 0
M  V30 6173 H 588.3 -0.370845 2.96087 0
M  V30 6174 C 587.049 -2.13345 2.74552 0
M  V30 6175 H 586.372 -1.82702 3.55612 0
M  V30 6176 H 587.812 -2.7977 3.18598 0
M  V30 6177 C 586.271 -2.90646 1.70371 0
M  V30 6178 O 586.801 -3.85133 1.14173 0
M  V30 6179 N 585.007 -2.54157 1.40899 0
M  V30 6180 H 584.554 -1.77391 1.86789 0
M  V30 6181 H 584.512 -3.06178 0.714301 0
M  V30 6182 N 588.284 -1.56567 -0.180126 0
M  V30 6183 C 589.695 -1.7126 -0.743422 0
M  V30 6184 C 590.046 -0.70263 -1.83187 0
M  V30 6185 O 589.171 0.137856 -2.1596 0
M  V30 6186 C 589.766 -3.10512 -1.35528 0
M  V30 6187 C 588.325 -3.26919 -1.8655 0
M  V30 6188 C 587.472 -2.67213 -0.741099 0
M  V30 6189 H 590.423 -1.58636 0.0451543 0
M  V30 6190 H 590.444 -3.08673 -2.22489 0
M  V30 6191 H 589.956 -3.83997 -0.562862 0
M  V30 6192 H 588.057 -2.58376 -2.68464 0
M  V30 6193 H 588.17 -4.34574 -2.01699 0
M  V30 6194 H 586.534 -2.26788 -1.15927 0
M  V30 6195 H 587.317 -3.43277 0.0393291 0
M  V30 6196 N 589.762 0.448376 -1.51087 0
M  V30 6197 C 591.009 1.19872 -1.63209 0
M  V30 6198 C 591.337 1.91451 -0.343062 0
M  V30 6199 O 590.592 1.83789 0.672321 0
M  V30 6200 C 590.891 2.24866 -2.77795 0
M  V30 6201 C 590.557 1.70378 -4.17471 0
M  V30 6202 C 589.219 1.55241 -4.55471 0
M  V30 6203 C 591.571 1.30203 -5.04675 0
M  V30 6204 C 588.899 0.983844 -5.78392 0
M  V30 6205 C 591.251 0.747798 -6.28165 0
M  V30 6206 C 589.915 0.583233 -6.64947 0
M  V30 6207 H 589.185 0.438642 -0.597222 0
M  V30 6208 H 591.832 0.49136 -1.85089 0
M  V30 6209 H 590.137 3.01598 -2.50092 0
M  V30 6210 H 591.834 2.82723 -2.84374 0
M  V30 6211 H 588.424 1.83134 -3.87505 0
M  V30 6212 H 592.608 1.40723 -4.75932 0
M  V30 6213 H 587.864 0.844007 -6.05546 0
M  V30 6214 H 592.038 0.427927 -6.95084 0
M  V30 6215 H 589.665 0.140532 -7.6007 0
M  V30 6216 N 591.24 1.41047 0.703093 0
M  V30 6217 C 592.656 1.23351 1.01275 0
M  V30 6218 C 592.856 0.11754 2.01157 0
M  V30 6219 O 591.912 -0.520518 2.47077 0
M  V30 6220 C 593.225 2.58001 1.54454 0
M  V30 6221 C 594.773 2.65119 1.66376 0
M  V30 6222 C 595.248 4.00067 2.22958 0
M  V30 6223 N 596.739 4.01875 2.30328 0
M  V30 6224 C 597.474 5.03087 2.75119 0
M  V30 6225 N 596.97 6.14692 3.19571 0
M  V30 6226 N 598.763 4.90451 2.74616 0
M  V30 6227 H 590.914 2.1236 0.0412686 0
M  V30 6228 H 593.177 0.944543 0.08089 0
M  V30 6229 H 592.883 3.40378 0.88521 0
M  V30 6230 H 592.757 2.79962 2.52786 0
M  V30 6231 H 595.144 1.83106 2.31422 0
M  V30 6232 H 595.225 2.46975 0.666089 0
M  V30 6233 H 594.869 4.82526 1.58529 0
M  V30 6234 H 594.799 4.15547 3.23462 0
M  V30 6235 H 597.29 3.21291 1.98949 0
M  V30 6236 H 597.603 6.87799 3.52352 0
M  V30 6237 H 595.948 6.18239 3.17498 0
M  V30 6238 H 599.139 4.0235 2.39233 0
M  V30 6239 H 599.312 5.6947 3.09206 0
M  V30 6240 N 592.718 -0.936591 1.26751 0
M  V30 6241 C 593.964 -1.6858 1.12733 0
M  V30 6242 C 594.297 -1.91414 -0.327745 0
M  V30 6243 O 593.572 -1.49812 -1.24043 0
M  V30 6244 C 593.855 -3.05779 1.90187 0
M  V30 6245 C 593.708 -2.90242 3.43627 0
M  V30 6246 C 595.027 -4.0597 1.69931 0
M  V30 6247 H 592.146 -0.61182 0.410908 0
M  V30 6248 H 594.788 -1.08747 1.55801 0
M  V30 6249 H 592.938 -3.56853 1.53584 0
M  V30 6250 H 594.61 -2.46354 3.9001 0
M  V30 6251 H 592.853 -2.2577 3.70419 0
M  V30 6252 H 593.524 -3.87572 3.93055 0
M  V30 6253 H 596 -3.63874 2.0183 0
M  V30 6254 H 594.876 -4.99974 2.26534 0
M  V30 6255 H 595.137 -4.37369 0.64502 0
M  V30 6256 N 594.196 -1.08629 -1.14182 0
M  V30 6257 C 595.159 -0.722027 -2.1753 0
M  V30 6258 C 596.159 0.244305 -1.58933 0
M  V30 6259 O 597.349 0.0235545 -1.74184 0
M  V30 6260 C 594.481 -0.0663966 -3.40835 0
M  V30 6261 H 595.674 -1.63719 -2.51269 0
M  V30 6262 H 593.227 -0.884442 -1.28869 0
M  V30 6263 H 593.962 0.860389 -3.12678 0
M  V30 6264 H 593.747 -0.761598 -3.84632 0
M  V30 6265 H 595.237 0.173346 -4.1724 0
M  V30 6266 N 595.674 1.31259 -0.872281 0
M  V30 6267 C 596.604 2.30929 -0.345554 0
M  V30 6268 C 597.585 1.60449 0.5648 0
M  V30 6269 O 598.77 1.8814 0.481335 0
M  V30 6270 C 595.9 3.44348 0.451823 0
M  V30 6271 C 594.854 4.26435 -0.365641 0
M  V30 6272 C 594.18 5.31785 0.557562 0
M  V30 6273 C 595.48 4.97159 -1.60095 0
M  V30 6274 H 597.174 2.75234 -1.17841 0
M  V30 6275 H 594.72 1.3232 -0.568094 0
M  V30 6276 H 596.673 4.13128 0.830854 0
M  V30 6277 H 595.397 2.98816 1.31821 0
M  V30 6278 H 594.056 3.59326 -0.726649 0
M  V30 6279 H 593.704 4.82502 1.4213 0
M  V30 6280 H 593.404 5.87598 0.0144878 0
M  V30 6281 H 594.928 6.03424 0.933387 0
M  V30 6282 H 596.342 5.58523 -1.29323 0
M  V30 6283 H 594.739 5.62779 -2.08327 0
M  V30 6284 H 595.809 4.24012 -2.35249 0
M  V30 6285 N 597.152 0.631951 1.44375 0
M  V30 6286 C 598.062 -0.073674 2.34484 0
M  V30 6287 C 599.078 -0.834825 1.52665 0
M  V30 6288 O 600.254 -0.786902 1.85391 0
M  V30 6289 C 597.319 -1.04247 3.30656 0
M  V30 6290 C 596.38 -0.280602 4.28382 0
M  V30 6291 C 595.613 -1.20325 5.19959 0
M  V30 6292 O 595.836 -2.44199 5.15484 0
M  V30 6293 O 594.77 -0.687128 5.97965 0
M  V30 6294 H 598.596 0.667477 2.96274 0
M  V30 6295 H 596.181 0.392144 1.44162 0
M  V30 6296 H 598.063 -1.59981 3.89851 0
M  V30 6297 H 596.738 -1.76422 2.71398 0
M  V30 6298 H 595.645 0.319804 3.72731 0
M  V30 6299 H 596.978 0.401144 4.90563 0
M  V30 6300 N 598.631 -1.53133 0.372548 0
M  V30 6301 C 599.861 -2.05476 -0.215202 0
M  V30 6302 C 600.269 -1.24534 -1.42436 0
M  V30 6303 O 599.612 -0.280771 -1.81542 0
M  V30 6304 C 599.674 -3.53276 -0.666068 0
M  V30 6305 C 599.338 -4.54998 0.427342 0
M  V30 6306 C 600.335 -5.03911 1.27944 0
M  V30 6307 C 598.02 -4.98828 0.589579 0
M  V30 6308 C 600.014 -5.95263 2.27905 0
M  V30 6309 C 597.701 -5.89984 1.59255 0
M  V30 6310 C 598.699 -6.38093 2.43571 0
M  V30 6311 O 598.387 -7.27451 3.42156 0
M  V30 6312 H 598.119 -0.67481 -0.040099 0
M  V30 6313 H 600.673 -1.98409 0.531312 0
M  V30 6314 H 598.903 -3.57904 -1.4643 0
M  V30 6315 H 600.592 -3.88442 -1.1776 0
M  V30 6316 H 601.358 -4.70792 1.16532 0
M  V30 6317 H 597.237 -4.60965 -0.0569456 0
M  V30 6318 H 600.781 -6.32736 2.93753 0
M  V30 6319 H 596.678 -6.22518 1.70711 0
M  V30 6320 H 597.446 -7.45467 3.37967 0
M  V30 6321 N 600.109 -0.101901 -1.5727 0
M  V30 6322 C 601.358 0.559922 -1.93772 0
M  V30 6323 C 601.671 1.68913 -0.98629 0
M  V30 6324 O 602.877 2.41256 -1.24529 0
M  V30 6325 C 601.333 1.04739 -3.44322 0
M  V30 6326 C 600.941 -0.05243 -4.47969 0
M  V30 6327 C 602.685 1.68157 -3.89774 0
M  V30 6328 C 600.592 0.450781 -5.8968 0
M  V30 6329 H 599.522 0.212931 -0.723309 0
M  V30 6330 H 602.173 -0.179001 -1.82625 0
M  V30 6331 H 600.555 1.84021 -3.50645 0
M  V30 6332 H 601.729 -0.828157 -4.53297 0
M  V30 6333 H 600.044 -0.592202 -4.12167 0
M  V30 6334 H 602.641 2.0689 -4.93052 0
M  V30 6335 H 602.984 2.55338 -3.28798 0
M  V30 6336 H 603.517 0.954453 -3.8618 0
M  V30 6337 H 600.256 -0.38458 -6.54371 0
M  V30 6338 H 599.776 1.19336 -5.87809 0
M  V30 6339 H 601.455 0.917555 -6.40461 0
M  V30 6340 N 601.587 1.56661 0.17182 0
M  V30 6341 C 602.812 1.86459 0.908165 0
M  V30 6342 C 603.237 0.688181 1.75059 0
M  V30 6343 O 602.595 -0.362753 1.77634 0
M  V30 6344 C 602.643 3.14669 1.76112 0
M  V30 6345 O 601.747 2.96858 2.86268 0
M  V30 6346 H 601.088 0.613318 0.254434 0
M  V30 6347 H 603.618 2.03892 0.170113 0
M  V30 6348 H 603.628 3.46061 2.16115 0
M  V30 6349 H 602.303 3.99905 1.14233 0
M  V30 6350 H 600.88 2.76819 2.49852 0
M  V30 6351 N 603.065 -0.440357 1.51323 0
M  V30 6352 C 604.29 -1.21716 1.67928 0
M  V30 6353 C 604.715 -1.84328 0.374826 0
M  V30 6354 O 604.073 -1.68675 -0.664706 0
M  V30 6355 C 604.121 -2.27914 2.79442 0
M  V30 6356 O 603.225 -3.33325 2.42834 0
M  V30 6357 H 602.566 -0.35674 0.560029 0
M  V30 6358 H 605.096 -0.520417 1.97871 0
M  V30 6359 H 605.106 -2.72746 3.03436 0
M  V30 6360 H 603.781 -1.8172 3.741 0
M  V30 6361 H 602.358 -2.9399 2.294 0
M  V30 6362 N 604.543 -1.41418 -0.695603 0
M  V30 6363 C 605.791 -1.40496 -1.45277 0
M  V30 6364 C 606.112 -0.0149538 -1.94994 0
M  V30 6365 O 605.382 0.9432 -1.71699 0
M  V30 6366 H 603.962 -0.517147 -0.539044 0
M  V30 6367 H 606.624 -1.76656 -0.823321 0
M  V30 6368 H 605.72 -2.09214 -2.31595 0
M  V30 6369 N 606.021 0.929856 -1.27246 0
M  V30 6370 C 606.969 2.05151 -1.09616 0
M  V30 6371 C 607.963 1.69388 -0.0198617 0
M  V30 6372 O 609.169 1.79124 -0.177417 0
M  V30 6373 H 605.544 0.671909 -0.337701 0
M  V30 6374 H 607.515 2.17168 -2.04648 0
M  V30 6375 C 606.264 3.3934 -0.757851 0
M  V30 6376 H 605.587 3.67343 -1.57795 0
M  V30 6377 H 607.027 4.18603 -0.674358 0
M  V30 6378 C 605.486 3.32582 0.537658 0
M  V30 6379 O 606.016 3.69633 1.57271 0
M  V30 6380 N 604.222 2.8568 0.532478 0
M  V30 6381 H 603.769 2.55725 -0.310233 0
M  V30 6382 H 603.727 2.81541 1.39936 0
M  V30 6383 N 607.499 1.09233 1.13605 0
M  V30 6384 C 608.915 0.82163 1.36826 0
M  V30 6385 C 609.115 -0.565021 1.93416 0
M  V30 6386 O 608.171 -1.32026 2.15234 0
M  V30 6387 C 609.484 1.91124 2.32147 0
M  V30 6388 C 611.032 1.93824 2.45767 0
M  V30 6389 C 611.507 3.01923 3.44393 0
M  V30 6390 N 612.998 3.01149 3.51942 0
M  V30 6391 C 613.733 3.81434 4.2813 0
M  V30 6392 N 613.229 4.71621 5.07489 0
M  V30 6393 N 615.022 3.69702 4.23411 0
M  V30 6394 H 607.173 1.98633 0.752234 0
M  V30 6395 H 609.436 0.862482 0.393482 0
M  V30 6396 H 609.142 2.90862 1.97717 0
M  V30 6397 H 609.016 1.78777 3.32142 0
M  V30 6398 H 611.403 0.94726 2.79483 0
M  V30 6399 H 611.484 2.10248 1.45703 0
M  V30 6400 H 611.128 4.01232 3.11408 0
M  V30 6401 H 611.058 2.82742 4.44257 0
M  V30 6402 H 613.549 2.35789 2.95317 0
M  V30 6403 H 613.862 5.29468 5.62924 0
M  V30 6404 H 612.207 4.75658 5.06729 0
M  V30 6405 H 615.398 2.98606 3.60489 0
M  V30 6406 H 615.571 4.32509 4.82535 0
M  V30 6407 N 608.977 -1.30795 0.87923 0
M  V30 6408 C 610.202 -2.01063 0.508769 0
M  V30 6409 C 610.627 -1.65508 -0.893803 0
M  V30 6410 O 609.985 -0.868616 -1.59138 0
M  V30 6411 C 610.033 -3.54054 0.683991 0
M  V30 6412 O 609.137 -4.11498 -0.272654 0
M  V30 6413 H 608.478 -0.632786 0.201191 0
M  V30 6414 H 611.008 -1.66776 1.18519 0
M  V30 6415 H 611.018 -4.03845 0.580798 0
M  V30 6416 H 609.693 -3.79271 1.70665 0
M  V30 6417 H 608.27 -3.72695 -0.12364 0
M  V30 6418 N 610.455 -0.639598 -1.44038 0
M  V30 6419 C 611.385 0.0469443 -2.33453 0
M  V30 6420 C 612.366 0.82609 -1.48694 0
M  V30 6421 O 613.551 0.790285 -1.77393 0
M  V30 6422 C 610.681 1.02338 -3.3188 0
M  V30 6423 C 609.635 0.355284 -4.26523 0
M  V30 6424 C 608.961 1.44221 -5.14883 0
M  V30 6425 C 610.261 -0.743798 -5.16977 0
M  V30 6426 H 611.955 -0.699735 -2.91108 0
M  V30 6427 H 609.501 -0.337946 -1.39978 0
M  V30 6428 H 611.454 1.51247 -3.93322 0
M  V30 6429 H 610.178 1.80105 -2.72451 0
M  V30 6430 H 608.837 -0.113239 -3.66425 0
M  V30 6431 H 608.485 2.21097 -4.51802 0
M  V30 6432 H 608.185 1.00052 -5.79019 0
M  V30 6433 H 609.709 1.93295 -5.79197 0
M  V30 6434 H 611.123 -0.337444 -5.72306 0
M  V30 6435 H 609.52 -1.10914 -5.89761 0
M  V30 6436 H 610.59 -1.60745 -4.57481 0
M  V30 6437 N 611.933 1.52934 -0.380664 0
M  V30 6438 C 613.158 2.06363 0.207157 0
M  V30 6439 C 613.583 1.25122 1.4045 0
M  V30 6440 O 612.941 0.274062 1.79217 0
M  V30 6441 C 612.989 3.56162 0.563996 0
M  V30 6442 O 612.093 3.77552 1.65917 0
M  V30 6443 H 611.434 0.663468 0.0265859 0
M  V30 6444 H 613.964 1.9719 -0.545635 0
M  V30 6445 H 613.974 3.99453 0.830752 0
M  V30 6446 H 612.649 4.14732 -0.311427 0
M  V30 6447 H 611.226 3.46154 1.3868 0
M  V30 6448 N 613.412 0.11024 1.57214 0
M  V30 6449 C 614.375 -0.828808 2.1369 0
M  V30 6450 C 615.375 -1.20059 1.06969 0
M  V30 6451 O 616.565 -1.12754 1.32786 0
M  V30 6452 C 613.697 -2.11959 2.66994 0
M  V30 6453 H 614.89 -0.338146 2.97988 0
M  V30 6454 H 612.443 -0.138913 1.55681 0
M  V30 6455 H 613.178 -2.65476 1.8626 0
M  V30 6456 H 612.963 -1.86258 3.45037 0
M  V30 6457 H 614.453 -2.79105 3.10629 0
M  V30 6458 N 614.89 -1.56749 -0.16351 0
M  V30 6459 C 616.136 -1.82704 -0.880168 0
M  V30 6460 C 616.469 -0.689311 -1.81555 0
M  V30 6461 O 615.744 0.308224 -1.92042 0
M  V30 6462 C 616.027 -3.19084 -1.66905 0
M  V30 6463 C 615.88 -4.43397 -0.756269 0
M  V30 6464 C 617.199 -3.52493 -2.63509 0
M  V30 6465 H 614.318 -0.664608 -0.318535 0
M  V30 6466 H 616.96 -1.89438 -0.146036 0
M  V30 6467 H 615.11 -3.13475 -2.2949 0
M  V30 6468 H 616.782 -4.61079 -0.14269 0
M  V30 6469 H 615.025 -4.33752 -0.0647944 0
M  V30 6470 H 615.696 -5.3539 -1.34393 0
M  V30 6471 H 618.172 -3.58606 -2.11047 0
M  V30 6472 H 617.048 -4.48979 -3.15767 0
M  V30 6473 H 617.309 -2.77597 -3.44082 0
M  V30 6474 N 616.368 0.432326 -1.51554 0
M  V30 6475 C 617.645 1.19288 -1.55015 0
M  V30 6476 C 618.025 2.08701 -0.317375 0
M  V30 6477 O 617.373 2.17602 0.697243 0
M  V30 6478 C 617.583 1.99037 -2.86679 0
M  V30 6479 C 618.931 2.55907 -3.38817 0
M  V30 6480 O 619.955 2.09243 -2.88263 0
M  V30 6481 O 618.814 3.41029 -4.27038 0
M  V30 6482 H 615.908 0.543369 -0.623441 0
M  V30 6483 H 618.454 0.440988 -1.6387 0
M  V30 6484 H 617.226 1.33397 -3.6786 0
M  V30 6485 H 616.849 2.81281 -2.8101 0
M  V30 6486 N 617.846 1.41785 0.688094 0
M  V30 6487 C 619.093 1.41544 1.44816 0
M  V30 6488 C 619.421 0.0271746 1.94481 0
M  V30 6489 O 618.676 -0.962235 1.7041 0
M  V30 6490 C 618.975 2.37532 2.67046 0
M  V30 6491 C 618.641 3.84209 2.35996 0
M  V30 6492 C 617.303 4.24165 2.27239 0
M  V30 6493 C 619.655 4.76785 2.10536 0
M  V30 6494 C 616.983 5.54695 1.91128 0
M  V30 6495 C 619.335 6.07644 1.75931 0
M  V30 6496 C 617.999 6.46613 1.65675 0
M  V30 6497 H 617.269 0.517945 0.529919 0
M  V30 6498 H 619.916 1.74635 0.785797 0
M  V30 6499 H 618.221 1.9772 3.38251 0
M  V30 6500 H 619.918 2.34615 3.25203 0
M  V30 6501 H 616.508 3.52567 2.4371 0
M  V30 6502 H 620.692 4.46714 2.16242 0
M  V30 6503 H 615.948 5.83762 1.81746 0
M  V30 6504 H 620.122 6.78874 1.55252 0
M  V30 6505 H 617.749 7.47668 1.37463 0
M  V30 6506 N 619.324 -0.923095 1.27737 0
M  V30 6507 C 620.571 -1.67127 1.14345 0
M  V30 6508 C 620.899 -1.92017 -0.30982 0
M  V30 6509 O 620.154 -1.51185 -1.24264 0
M  V30 6510 C 620.453 -3.04125 1.8773 0
M  V30 6511 C 620.119 -2.98929 3.37568 0
M  V30 6512 C 618.781 -2.9722 3.78436 0
M  V30 6513 C 621.133 -2.89875 4.33154 0
M  V30 6514 C 618.461 -2.84244 5.13247 0
M  V30 6515 C 620.813 -2.7844 5.68026 0
M  V30 6516 C 619.477 -2.75083 6.08182 0
M  V30 6517 H 618.747 -0.611562 0.418417 0
M  V30 6518 H 621.394 -1.07618 1.584 0
M  V30 6519 H 619.699 -3.67366 1.36196 0
M  V30 6520 H 621.396 -3.609 1.74792 0
M  V30 6521 H 617.986 -3.0105 3.05069 0
M  V30 6522 H 622.17 -2.9029 4.02548 0
M  V30 6523 H 617.426 -2.80034 5.43499 0
M  V30 6524 H 621.6 -2.70401 6.4176 0
M  V30 6525 H 619.227 -2.64786 7.12596 0
M  V30 6526 N 620.802 -1.09834 -1.13024 0
M  V30 6527 C 621.765 -0.745058 -2.16752 0
M  V30 6528 C 622.765 0.227435 -1.59183 0
M  V30 6529 O 623.955 0.0050786 -1.74199 0
M  V30 6530 C 621.087 -0.102543 -3.40746 0
M  V30 6531 H 622.28 -1.66375 -2.49518 0
M  V30 6532 H 619.833 -0.898061 -1.27924 0
M  V30 6533 H 620.568 0.827177 -3.13573 0
M  V30 6534 H 620.353 -0.80235 -3.83803 0
M  V30 6535 H 621.843 0.129082 -4.174 0
M  V30 6536 N 622.28 1.30327 -0.886154 0
M  V30 6537 C 623.21 2.30549 -0.370028 0
M  V30 6538 C 624.191 1.61039 0.547751 0
M  V30 6539 O 625.376 1.8864 0.461353 0
M  V30 6540 C 622.506 3.44808 0.415275 0
M  V30 6541 C 621.46 4.26024 -0.41085 0
M  V30 6542 C 620.786 5.32347 0.501128 0
M  V30 6543 C 622.086 4.95433 -1.65359 0
M  V30 6544 H 623.78 2.73969 -1.20754 0
M  V30 6545 H 621.326 1.3171 -0.582097 0
M  V30 6546 H 623.279 4.13986 0.78699 0
M  V30 6547 H 622.003 3.00197 1.28644 0
M  V30 6548 H 620.662 3.58535 -0.764719 0
M  V30 6549 H 620.31 4.83982 1.37004 0
M  V30 6550 H 620.01 5.87581 -0.0478356 0
M  V30 6551 H 621.534 6.0438 0.869333 0
M  V30 6552 H 622.948 5.5712 -1.35239 0
M  V30 6553 H 621.345 5.60537 -2.14284 0
M  V30 6554 H 622.415 4.21493 -2.39733 0
M  V30 6555 N 623.758 0.647228 1.43697 0
M  V30 6556 C 624.705 -0.0480092 2.3075 0
M  V30 6557 C 625.675 -0.820705 1.44408 0
M  V30 6558 O 626.86 -0.798515 1.73287 0
M  V30 6559 C 624 -1.01259 3.2991 0
M  V30 6560 C 623.113 -0.236629 4.31351 0
M  V30 6561 C 622.248 -1.19447 5.17596 0
M  V30 6562 C 621.287 -0.408595 6.10735 0
M  V30 6563 N 620.424 -1.31772 6.89623 0
M  V30 6564 H 625.264 0.700238 2.89656 0
M  V30 6565 H 622.801 0.357082 1.427 0
M  V30 6566 H 624.759 -1.58538 3.85903 0
M  V30 6567 H 623.389 -1.72778 2.72667 0
M  V30 6568 H 622.441 0.452353 3.77701 0
M  V30 6569 H 623.753 0.374731 4.9739 0
M  V30 6570 H 622.907 -1.83809 5.78186 0
M  V30 6571 H 621.646 -1.83975 4.51669 0
M  V30 6572 H 620.651 0.24841 5.49239 0
M  V30 6573 H 621.876 0.232188 6.78703 0
M  V30 6574 H 619.822 -1.94991 6.2635 0
M  V30 6575 H 619.739 -0.760779 7.52162 0
M  V30 6576 H 621.007 -1.94967 7.54724 0
M  V30 6577 N 625.236 -1.5273 0.388769 0
M  V30 6578 C 626.184 -2.27975 -0.461527 0
M  V30 6579 C 627.178 -1.31854 -1.06352 0
M  V30 6580 O 628.384 -1.49394 -1.00406 0
M  V30 6581 H 624.759 -0.733088 -0.16759 0
M  V30 6582 H 626.73 -2.97765 0.194579 0
M  V30 6583 C 625.479 -3.09881 -1.577 0
M  V30 6584 H 624.802 -3.83701 -1.12309 0
M  V30 6585 H 626.242 -3.6567 -2.14619 0
M  V30 6586 C 624.701 -2.22159 -2.53272 0
M  V30 6587 O 625.231 -1.84802 -3.56667 0
M  V30 6588 N 623.437 -1.8633 -2.23001 0
M  V30 6589 H 622.984 -2.16909 -1.38954 0
M  V30 6590 H 622.942 -1.27927 -2.87197 0
M  V30 6591 N 626.714 -0.118576 -1.57153 0
M  V30 6592 C 627.954 0.542618 -1.97066 0
M  V30 6593 C 628.318 1.63874 -1.00046 0
M  V30 6594 O 629.519 2.3588 -1.28895 0
M  V30 6595 C 627.79 1.06196 -3.41258 0
M  V30 6596 S 629.349 1.73174 -4.03183 0
M  V30 6597 H 626.167 0.17638 -0.688775 0
M  V30 6598 H 628.769 -0.203556 -1.94437 0
M  V30 6599 H 627.473 0.253016 -4.09619 0
M  V30 6600 H 627.004 1.84342 -3.47536 0
M  V30 6601 H 629.019 3.01749 -3.93906 0
M  V30 6602 N 628.193 1.56834 0.155195 0
M  V30 6603 C 629.418 1.87412 0.888337 0
M  V30 6604 C 629.843 0.70671 1.74319 0
M  V30 6605 O 629.201 -0.343892 1.78009 0
M  V30 6606 C 629.249 3.1652 1.72765 0
M  V30 6607 O 628.353 2.99877 2.83103 0
M  V30 6608 H 627.694 0.615983 0.247914 0
M  V30 6609 H 630.224 2.04061 0.148478 0
M  V30 6610 H 630.234 3.48334 2.12433 0
M  V30 6611 H 628.909 4.01094 1.09985 0
M  V30 6612 H 627.486 2.79453 2.46902 0
M  V30 6613 N 629.671 -0.424282 1.51781 0
M  V30 6614 C 630.581 -1.54087 1.76902 0
M  V30 6615 C 631.597 -1.61249 0.653826 0
M  V30 6616 O 632.773 -1.78247 0.937552 0
M  V30 6617 C 629.838 -2.8996 1.90063 0
M  V30 6618 C 628.899 -2.92809 3.13945 0
M  V30 6619 C 628.132 -4.22201 3.26469 0
M  V30 6620 O 628.355 -5.15286 2.44616 0
M  V30 6621 O 627.289 -4.31599 4.1953 0
M  V30 6622 H 631.115 -1.358 2.71647 0
M  V30 6623 H 628.7 -0.608618 1.36441 0
M  V30 6624 H 630.582 -3.70575 2.0063 0
M  V30 6625 H 629.257 -3.08347 0.985067 0
M  V30 6626 H 628.164 -2.11102 3.08847 0
M  V30 6627 H 629.497 -2.79369 4.05233 0
M  V30 6628 N 631.149 -1.42148 -0.680565 0
M  V30 6629 C 632.397 -1.42029 -1.43779 0
M  V30 6630 C 632.718 -0.0356347 -1.94967 0
M  V30 6631 O 631.988 0.924936 -1.7269 0
M  V30 6632 H 630.568 -0.522835 -0.533529 0
M  V30 6633 H 633.23 -1.7752 -0.804538 0
M  V30 6634 H 632.326 -2.11658 -2.29363 0
M  V30 6635 N 632.627 0.916307 -1.28225 0
M  V30 6636 C 633.855 1.69901 -1.18073 0
M  V30 6637 C 634.27 1.86988 0.260968 0
M  V30 6638 O 633.627 1.39505 1.17663 0
M  V30 6639 C 633.678 3.09254 -1.87201 0
M  V30 6640 O 633.399 2.92959 -3.2574 0
M  V30 6641 C 634.9 4.0362 -1.83319 0
M  V30 6642 H 632.12 0.531181 -0.409985 0
M  V30 6643 H 634.664 1.14703 -1.69303 0
M  V30 6644 H 632.819 3.61277 -1.39848 0
M  V30 6645 H 633.233 3.81139 -3.60324 0
M  V30 6646 H 634.707 4.98873 -2.36282 0
M  V30 6647 H 635.184 4.3176 -0.805007 0
M  V30 6648 H 635.79 3.57524 -2.3034 0
M  V30 6649 N 634.105 1.10431 1.1244 0
M  V30 6650 C 635.33 0.869089 1.88313 0
M  V30 6651 C 635.755 -0.574912 1.79099 0
M  V30 6652 O 635.113 -1.40496 1.14589 0
M  V30 6653 C 635.161 1.32208 3.3549 0
M  V30 6654 O 634.265 0.487092 4.09513 0
M  V30 6655 H 633.606 0.313894 0.585121 0
M  V30 6656 H 636.136 1.47111 1.42195 0
M  V30 6657 H 636.146 1.31201 3.86329 0
M  V30 6658 H 634.821 2.37364 3.41513 0
M  V30 6659 H 633.398 0.562372 3.68635 0
M  V30 6660 N 635.583 -1.29855 0.893053 0
M  V30 6661 C 636.994 -1.77946 0.564998 0
M  V30 6662 C 637.345 -1.73339 -0.919134 0
M  V30 6663 O 636.47 -1.3152 -1.71847 0
M  V30 6664 C 637.065 -3.23118 1.01883 0
M  V30 6665 C 635.624 -3.69013 0.742051 0
M  V30 6666 C 634.771 -2.50121 1.19727 0
M  V30 6667 H 637.722 -1.16611 1.07646 0
M  V30 6668 H 637.743 -3.78875 0.351249 0
M  V30 6669 H 637.255 -3.26439 2.09903 0
M  V30 6670 H 635.356 -3.71173 -0.325816 0
M  V30 6671 H 635.469 -4.60117 1.33527 0
M  V30 6672 H 633.833 -2.47128 0.616418 0
M  V30 6673 H 634.616 -2.56174 2.28538 0
M  V30 6674 N 637.061 -0.65484 -1.43351 0
M  V30 6675 C 638.309 -0.168559 -2.01396 0
M  V30 6676 C 638.63 1.22235 -1.51933 0
M  V30 6677 O 637.9 1.81685 -0.732627 0
M  V30 6678 H 636.48 -0.0593244 -0.744641 0
M  V30 6679 H 639.142 -0.846871 -1.75539 0
M  V30 6680 H 638.238 -0.154428 -3.11718 0
M  V30 6681 N 638.539 1.52521 -0.396863 0
M  V30 6682 C 639.764 2.06571 0.185258 0
M  V30 6683 C 640.189 1.26605 1.39115 0
M  V30 6684 O 639.547 0.293055 1.78916 0
M  V30 6685 C 639.595 3.5674 0.526189 0
M  V30 6686 O 638.699 3.7929 1.61903 0
M  V30 6687 H 638.04 0.663712 0.0195474 0
M  V30 6688 H 640.57 1.966 -0.566519 0
M  V30 6689 H 640.58 4.00311 0.788338 0
M  V30 6690 H 639.255 4.14379 -0.355397 0
M  V30 6691 H 637.832 3.47605 1.35 0
M  V30 6692 N 640.017 0.126909 1.57088 0
M  V30 6693 C 640.964 -0.82036 2.15728 0
M  V30 6694 C 641.934 -1.25811 1.08447 0
M  V30 6695 O 643.119 -1.33422 1.36393 0
M  V30 6696 C 640.259 -2.06199 2.76724 0
M  V30 6697 C 639.372 -1.67188 3.98337 0
M  V30 6698 C 638.507 -2.86378 4.47393 0
M  V30 6699 C 637.546 -2.43644 5.61519 0
M  V30 6700 N 636.683 -3.55775 6.05284 0
M  V30 6701 H 641.523 -0.313472 2.96347 0
M  V30 6702 H 639.06 -0.14303 1.46403 0
M  V30 6703 H 641.018 -2.78959 3.10222 0
M  V30 6704 H 639.648 -2.54333 1.98782 0
M  V30 6705 H 638.7 -0.842714 3.70948 0
M  V30 6706 H 640.012 -1.31789 4.81075 0
M  V30 6707 H 639.166 -3.67353 4.82842 0
M  V30 6708 H 637.905 -3.25009 3.63621 0
M  V30 6709 H 636.91 -1.61104 5.25667 0
M  V30 6710 H 638.135 -2.06122 6.47063 0
M  V30 6711 H 636.081 -3.94065 5.24451 0
M  V30 6712 H 635.998 -3.24325 6.82898 0
M  V30 6713 H 637.266 -4.37166 6.45373 0
M  V30 6714 N 641.495 -1.56914 -0.146875 0
M  V30 6715 C 642.428 -1.93425 -1.21087 0
M  V30 6716 C 643.406 -0.800106 -1.41552 0
M  V30 6717 O 644.59 -1.05572 -1.56162 0
M  V30 6718 C 641.717 -2.20639 -2.56975 0
M  V30 6719 C 640.763 -3.43279 -2.53104 0
M  V30 6720 S 641.596 -4.96836 -1.99786 0
M  V30 6721 C 642.752 -5.27172 -3.37403 0
M  V30 6722 H 642.985 -2.8337 -0.899378 0
M  V30 6723 H 640.518 -1.50322 -0.352494 0
M  V30 6724 H 642.476 -2.36998 -3.35175 0
M  V30 6725 H 641.137 -1.31357 -2.85314 0
M  V30 6726 H 640.33 -3.59599 -3.53136 0
M  V30 6727 H 639.932 -3.26163 -1.83012 0
M  V30 6728 H 642.224 -5.20647 -4.33513 0
M  V30 6729 H 643.167 -6.28626 -3.25937 0
M  V30 6730 H 643.575 -4.54687 -3.34544 0
M  V30 6731 N 642.974 0.416227 -1.52004 0
M  V30 6732 C 643.937 1.48926 -1.74223 0
M  V30 6733 C 644.937 1.48693 -0.612119 0
M  V30 6734 O 646.127 1.50343 -0.879921 0
M  V30 6735 C 643.259 2.88372 -1.81809 0
M  V30 6736 H 644.452 1.3052 -2.70008 0
M  V30 6737 H 642.005 0.646271 -1.42313 0
M  V30 6738 H 642.74 3.12157 -0.879135 0
M  V30 6739 H 642.525 2.89944 -2.6396 0
M  V30 6740 H 644.015 3.66173 -2.00766 0
M  V30 6741 N 644.452 1.42507 0.673017 0
M  V30 6742 C 645.382 1.48916 1.79851 0
M  V30 6743 C 646.363 0.345566 1.66553 0
M  V30 6744 O 647.548 0.560116 1.85947 0
M  V30 6745 C 644.678 1.39258 3.18158 0
M  V30 6746 C 643.632 2.51662 3.46194 0
M  V30 6747 C 642.958 2.27062 4.84094 0
M  V30 6748 C 644.258 3.93968 3.42909 0
M  V30 6749 H 645.952 2.43114 1.74745 0
M  V30 6750 H 643.498 1.17013 0.839288 0
M  V30 6751 H 645.451 1.42349 3.96629 0
M  V30 6752 H 644.175 0.415542 3.23946 0
M  V30 6753 H 642.834 2.47891 2.70084 0
M  V30 6754 H 642.482 1.27648 4.86534 0
M  V30 6755 H 642.182 3.02398 5.03815 0
M  V30 6756 H 643.706 2.31905 5.64847 0
M  V30 6757 H 645.12 3.99332 4.11347 0
M  V30 6758 H 643.517 4.6917 3.74165 0
M  V30 6759 H 644.587 4.20512 2.41449 0
M  V30 6760 N 645.93 -0.909495 1.28709 0
M  V30 6761 C 646.862 -2.01729 1.08804 0
M  V30 6762 C 647.875 -1.62755 0.0384739 0
M  V30 6763 O 649.064 -1.76259 0.281977 0
M  V30 6764 C 646.164 -3.32952 0.63217 0
M  V30 6765 C 645.337 -4.00512 1.75809 0
M  V30 6766 C 644.396 -5.10019 1.29488 0
M  V30 6767 O 643.422 -5.32986 1.99787 0
M  V30 6768 N 644.624 -5.80278 0.1604 0
M  V30 6769 H 647.389 -2.19362 2.04207 0
M  V30 6770 H 644.95 -1.08106 1.20518 0
M  V30 6771 H 646.942 -4.03543 0.305802 0
M  V30 6772 H 645.512 -3.11759 -0.229134 0
M  V30 6773 H 644.732 -3.23413 2.25383 0
M  V30 6774 H 646.02 -4.42395 2.51325 0
M  V30 6775 H 645.418 -5.64094 -0.425937 0
M  V30 6776 H 643.975 -6.51713 -0.106663 0
M  V30 6777 N 647.408 -1.11026 -1.11852 0
M  V30 6778 C 648.633 -0.879064 -1.87849 0
M  V30 6779 C 649.058 0.565406 -1.79401 0
M  V30 6780 O 648.416 1.39886 -1.15333 0
M  V30 6781 C 648.464 -1.33985 -3.34784 0
M  V30 6782 O 647.568 -0.508803 -4.09249 0
M  V30 6783 H 646.909 -0.316992 -0.583448 0
M  V30 6784 H 649.439 -1.47863 -1.41413 0
M  V30 6785 H 649.449 -1.33248 -3.85628 0
M  V30 6786 H 648.124 -2.39172 -3.40249 0
M  V30 6787 H 646.701 -0.581913 -3.68332 0
M  V30 6788 N 648.886 1.2938 -0.899927 0
M  V30 6789 C 650.111 2.00228 -0.540692 0
M  V30 6790 C 650.536 1.66909 0.867359 0
M  V30 6791 O 649.894 0.893824 1.57735 0
M  V30 6792 C 649.942 3.52921 -0.740232 0
M  V30 6793 O 649.046 4.11879 0.207154 0
M  V30 6794 H 648.387 0.629505 -0.211233 0
M  V30 6795 H 650.917 1.6487 -1.21158 0
M  V30 6796 H 650.927 4.0287 -0.644973 0
M  V30 6797 H 649.602 3.76508 -1.76677 0
M  V30 6798 H 648.179 3.72845 0.0643315 0
M  V30 6799 N 650.364 0.662433 1.43002 0
M  V30 6800 C 651.611 0.179591 2.01702 0
M  V30 6801 C 651.939 -1.20964 1.52309 0
M  V30 6802 O 651.194 -1.82343 0.7106 0
M  V30 6803 C 651.493 0.149363 3.57088 0
M  V30 6804 C 651.159 1.48158 4.25864 0
M  V30 6805 C 649.821 1.84638 4.44367 0
M  V30 6806 C 652.173 2.35953 4.64732 0
M  V30 6807 C 649.501 3.08561 4.99006 0
M  V30 6808 C 651.853 3.59176 5.20745 0
M  V30 6809 C 650.517 3.95841 5.37463 0
M  V30 6810 H 649.787 0.0657172 0.73808 0
M  V30 6811 H 652.434 0.854968 1.71355 0
M  V30 6812 H 650.739 -0.609491 3.8703 0
M  V30 6813 H 652.436 -0.241241 4.00274 0
M  V30 6814 H 649.026 1.18777 4.11813 0
M  V30 6815 H 653.21 2.09058 4.50121 0
M  V30 6816 H 648.466 3.37005 5.10135 0
M  V30 6817 H 652.64 4.27417 5.49807 0
M  V30 6818 H 650.267 4.91942 5.79566 0
M  V30 6819 N 651.842 -1.52309 0.404946 0
M  V30 6820 C 653.07 -2.06185 -0.171818 0
M  V30 6821 C 653.485 -1.27536 -1.39212 0
M  V30 6822 O 652.842 -0.326112 -1.79563 0
M  V30 6823 C 652.893 -3.57647 -0.526417 0
M  V30 6824 O 652.614 -4.3332 0.645417 0
M  V30 6825 C 654.115 -4.27925 -1.15736 0
M  V30 6826 H 651.335 -0.670632 -0.0222328 0
M  V30 6827 H 653.879 -1.96259 0.574692 0
M  V30 6828 H 652.034 -3.67595 -1.22282 0
M  V30 6829 H 652.448 -5.23328 0.35042 0
M  V30 6830 H 653.922 -5.35093 -1.35572 0
M  V30 6831 H 654.399 -3.84134 -2.12926 0
M  V30 6832 H 655.005 -4.22335 -0.501281 0
M  V30 6833 N 653.32 -0.135238 -1.57019 0
M  V30 6834 C 654.56 0.521686 -1.9763 0
M  V30 6835 C 654.924 1.62804 -1.01778 0
M  V30 6836 O 656.125 2.345 -1.31389 0
M  V30 6837 C 654.396 1.0257 -3.42365 0
M  V30 6838 S 655.955 1.68888 -4.04997 0
M  V30 6839 H 652.773 0.169064 -0.690607 0
M  V30 6840 H 655.375 -0.224168 -1.94211 0
M  V30 6841 H 654.079 0.209556 -4.09865 0
M  V30 6842 H 653.61 1.80645 -3.49472 0
M  V30 6843 H 655.625 2.97554 -3.97084 0
M  V30 6844 N 654.798 1.5699 0.138552 0
M  V30 6845 C 656.044 1.84966 0.846116 0
M  V30 6846 C 656.399 0.72038 1.78405 0
M  V30 6847 O 655.692 -0.281076 1.89527 0
M  V30 6848 C 655.886 3.17007 1.65049 0
M  V30 6849 C 655.715 4.42672 0.79194 0
M  V30 6850 C 654.485 5.03254 0.454293 0
M  V30 6851 C 656.683 5.14164 0.118419 0
M  V30 6852 N 654.665 6.12482 -0.416964 0
M  V30 6853 C 656.036 6.16966 -0.61263 0
M  V30 6854 C 658.091 4.97884 0.0399671 0
M  V30 6855 C 656.794 7.0525 -1.41473 0
M  V30 6856 C 658.82 5.86639 -0.748901 0
M  V30 6857 C 658.182 6.88929 -1.4682 0
M  V30 6858 H 654.281 0.727362 0.287172 0
M  V30 6859 H 656.865 1.94383 0.110972 0
M  V30 6860 H 655.036 3.08722 2.35681 0
M  V30 6861 H 656.768 3.3286 2.30187 0
M  V30 6862 H 653.523 4.6693 0.792038 0
M  V30 6863 H 653.947 6.7172 -0.843865 0
M  V30 6864 H 658.589 4.18779 0.581728 0
M  V30 6865 H 656.307 7.83777 -1.96772 0
M  V30 6866 H 659.893 5.7611 -0.811705 0
M  V30 6867 H 658.773 7.56419 -2.06882 0
M  V30 6868 N 656.276 -0.40816 1.52223 0
M  V30 6869 C 657.224 -1.51788 1.76248 0
M  V30 6870 C 658.218 -1.57264 0.629638 0
M  V30 6871 O 659.424 -1.60659 0.811704 0
M  V30 6872 H 655.799 -0.504823 0.557367 0
M  V30 6873 H 657.77 -1.2871 2.69214 0
M  V30 6874 C 656.519 -2.89145 1.93107 0
M  V30 6875 H 655.842 -2.85674 2.79697 0
M  V30 6876 H 657.282 -3.66082 2.13916 0
M  V30 6877 C 655.741 -3.29581 0.698431 0
M  V30 6878 O 656.271 -4.01479 -0.133238 0
M  V30 6879 N 654.477 -2.85651 0.53405 0
M  V30 6880 H 654.024 -2.2731 1.21194 0
M  V30 6881 H 653.982 -3.13065 -0.289387 0
M  V30 6882 N 657.755 -1.42862 -0.66545 0
M  V30 6883 C 659.003 -1.43546 -1.42264 0
M  V30 6884 C 659.324 -0.0563116 -1.94919 0
M  V30 6885 O 658.594 0.906568 -1.73661 0
M  V30 6886 H 657.174 -0.528464 -0.527953 0
M  V30 6887 H 659.836 -1.78363 -0.785665 0
M  V30 6888 H 658.932 -2.14079 -2.27105 0
M  V30 6889 N 659.233 0.902656 -1.29189 0
M  V30 6890 C 660.461 1.68639 -1.19869 0
M  V30 6891 C 660.876 1.87254 0.241121 0
M  V30 6892 O 660.233 1.40745 1.16177 0
M  V30 6893 C 660.284 3.07251 -1.90471 0
M  V30 6894 O 660.005 2.89488 -3.28829 0
M  V30 6895 C 661.506 4.01653 -1.8759 0
M  V30 6896 H 658.726 0.526802 -0.415596 0
M  V30 6897 H 661.27 1.12901 -1.7051 0
M  V30 6898 H 659.425 3.59774 -1.43672 0
M  V30 6899 H 659.839 3.77296 -3.64346 0
M  V30 6900 H 661.313 4.96339 -2.4156 0
M  V30 6901 H 661.79 4.30881 -0.850756 0
M  V30 6902 H 662.396 3.55061 -2.34119 0
M  V30 6903 N 660.711 1.11618 1.11262 0
M  V30 6904 C 661.957 0.867463 1.83311 0
M  V30 6905 C 662.29 -0.605366 1.84524 0
M  V30 6906 O 661.565 -1.44704 1.29965 0
M  V30 6907 C 661.848 1.43207 3.30399 0
M  V30 6908 C 661.701 2.97265 3.3757 0
M  V30 6909 C 663.02 1.08454 4.26528 0
M  V30 6910 H 660.139 0.316578 0.665543 0
M  V30 6911 H 662.781 1.38137 1.30454 0
M  V30 6912 H 660.931 0.994982 3.75543 0
M  V30 6913 H 662.603 3.49591 3.00971 0
M  V30 6914 H 660.846 3.33237 2.77733 0
M  V30 6915 H 661.517 3.31859 4.41105 0
M  V30 6916 H 663.993 1.4619 3.89574 0
M  V30 6917 H 662.869 1.50633 5.27826 0
M  V30 6918 H 663.13 -0.00444568 4.421 0
M  V30 6919 N 662.189 -1.289 0.906776 0
M  V30 6920 C 663.119 -2.29932 0.406659 0
M  V30 6921 C 664.1 -1.6189 -0.522061 0
M  V30 6922 O 665.285 -1.8935 -0.431283 0
M  V30 6923 C 662.415 -3.45425 -0.360366 0
M  V30 6924 C 661.369 -4.25316 0.478574 0
M  V30 6925 C 660.695 -5.33076 -0.416373 0
M  V30 6926 C 661.995 -4.92739 1.7322 0
M  V30 6927 H 663.689 -2.72013 1.25097 0
M  V30 6928 H 661.235 -1.30768 0.602977 0
M  V30 6929 H 663.188 -4.15186 -0.721029 0
M  V30 6930 H 661.912 -3.02206 -1.23852 0
M  V30 6931 H 660.571 -3.57273 0.821662 0
M  V30 6932 H 660.219 -4.86101 -1.29287 0
M  V30 6933 H 659.919 -5.8743 0.141309 0
M  V30 6934 H 661.443 -6.05686 -0.773072 0
M  V30 6935 H 662.857 -5.54898 1.44086 0
M  V30 6936 H 661.254 -5.57057 2.23175 0
M  V30 6937 H 662.324 -4.17625 2.46408 0
M  V30 6938 N 663.667 -0.670007 -1.42649 0
M  V30 6939 C 664.599 0.0501746 -2.29145 0
M  V30 6940 C 665.612 0.770331 -1.43422 0
M  V30 6941 O 666.801 0.625288 -1.6719 0
M  V30 6942 C 663.901 1.09463 -3.20735 0
M  V30 6943 C 663.074 0.44926 -4.35087 0
M  V30 6944 C 662.133 1.39285 -5.07431 0
M  V30 6945 O 661.159 0.894997 -5.6212 0
M  V30 6946 N 662.361 2.72631 -5.12496 0
M  V30 6947 H 665.126 -0.692312 -2.91594 0
M  V30 6948 H 662.687 -0.514056 -1.53522 0
M  V30 6949 H 664.679 1.72705 -3.65999 0
M  V30 6950 H 663.249 1.73891 -2.59771 0
M  V30 6951 H 662.469 -0.362573 -3.92529 0
M  V30 6952 H 663.757 -0.000544776 -5.088 0
M  V30 6953 H 663.155 3.15623 -4.69467 0
M  V30 6954 H 661.712 3.31132 -5.61422 0
M  V30 6955 N 665.145 1.52092 -0.413018 0
M  V30 6956 C 666.075 2.30021 0.401567 0
M  V30 6957 C 667.056 1.34395 1.04269 0
M  V30 6958 O 668.241 1.63304 1.05097 0
M  V30 6959 C 665.371 3.12447 1.51638 0
M  V30 6960 C 664.325 4.16153 1.00005 0
M  V30 6961 C 663.651 4.86948 2.20875 0
M  V30 6962 C 664.951 5.22275 0.0513757 0
M  V30 6963 H 666.645 2.98365 -0.248704 0
M  V30 6964 H 664.191 1.4349 -0.121052 0
M  V30 6965 H 666.144 3.65733 2.09326 0
M  V30 6966 H 664.868 2.41879 2.19458 0
M  V30 6967 H 663.527 3.63882 0.445549 0
M  V30 6968 H 663.175 4.12905 2.8726 0
M  V30 6969 H 662.875 5.57057 1.86978 0
M  V30 6970 H 664.399 5.43048 2.79162 0
M  V30 6971 H 665.813 5.70778 0.537176 0
M  V30 6972 H 664.21 5.9977 -0.198977 0
M  V30 6973 H 665.28 4.76611 -0.892736 0
M  V30 6974 N 666.623 0.143563 1.56945 0
M  V30 6975 C 667.871 -0.507402 1.95627 0
M  V30 6976 C 668.192 -1.65626 1.02922 0
M  V30 6977 O 667.462 -1.95693 0.0901136 0
M  V30 6978 H 666.042 -0.190436 0.722318 0
M  V30 6979 H 668.704 0.218257 1.93674 0
M  V30 6980 H 667.8 -0.885816 2.99265 0
M  V30 6981 N 668.101 -1.57061 -0.130224 0
M  V30 6982 C 669.033 -1.96147 -1.18571 0
M  V30 6983 C 670.046 -0.859347 -1.38272 0
M  V30 6984 O 671.235 -1.13769 -1.37545 0
M  V30 6985 C 668.335 -2.23484 -2.54771 0
M  V30 6986 C 667.508 -3.54786 -2.55824 0
M  V30 6987 C 666.567 -3.70467 -3.73686 0
M  V30 6988 O 665.593 -4.42693 -3.57787 0
M  V30 6989 N 666.795 -3.08389 -4.91809 0
M  V30 6990 H 669.56 -2.87295 -0.853333 0
M  V30 6991 H 667.121 -1.58714 -0.319621 0
M  V30 6992 H 669.113 -2.312 -3.32158 0
M  V30 6993 H 667.683 -1.38518 -2.80235 0
M  V30 6994 H 666.903 -3.5836 -1.64232 0
M  V30 6995 H 668.191 -4.4111 -2.53573 0
M  V30 6996 H 667.589 -2.49656 -5.0763 0
M  V30 6997 H 666.146 -3.21642 -5.66912 0
M  V30 6998 N 669.579 0.400081 -1.52437 0
M  V30 6999 C 670.542 1.4707 -1.75793 0
M  V30 7000 C 671.542 1.48036 -0.627856 0
M  V30 7001 O 672.732 1.49401 -0.895817 0
M  V30 7002 C 669.864 2.86427 -1.84858 0
M  V30 7003 H 671.057 1.27649 -2.71377 0
M  V30 7004 H 668.61 0.631141 -1.42991 0
M  V30 7005 H 669.345 3.11207 -0.912194 0
M  V30 7006 H 669.13 2.87128 -2.6702 0
M  V30 7007 H 670.62 3.64023 -2.04638 0
M  V30 7008 N 671.057 1.43213 0.657864 0
M  V30 7009 C 672.297 1.46083 1.42965 0
M  V30 7010 C 672.661 0.0809712 1.91829 0
M  V30 7011 O 673.862 -0.0156305 2.68795 0
M  V30 7012 C 672.133 2.47044 2.58271 0
M  V30 7013 S 673.692 2.68753 3.46868 0
M  V30 7014 H 670.51 0.517015 0.488074 0
M  V30 7015 H 673.112 1.79945 0.764213 0
M  V30 7016 H 671.816 3.46044 2.20639 0
M  V30 7017 H 671.347 2.14665 3.2967 0
M  V30 7018 H 673.362 1.98329 4.54841 0
M  V30 7019 N 672.536 -0.895792 1.29666 0
M  V30 7020 C 673.813 -1.62723 1.08538 0
M  V30 7021 C 674.193 -2.07848 -0.369119 0
M  V30 7022 O 673.541 -1.8372 -1.35864 0
M  V30 7023 C 673.751 -2.80505 2.07648 0
M  V30 7024 C 675.099 -3.51098 2.3878 0
M  V30 7025 O 676.123 -2.90679 2.05874 0
M  V30 7026 O 674.982 -4.60028 2.9502 0
M  V30 7027 H 672.076 -0.714692 0.416106 0
M  V30 7028 H 674.622 -0.943517 1.41053 0
M  V30 7029 H 673.394 -2.44386 3.05599 0
M  V30 7030 H 673.017 -3.5658 1.75887 0
M  V30 7031 N 674.014 -1.12206 -1.10668 0
M  V30 7032 C 675.261 -0.875875 -1.82578 0
M  V30 7033 C 675.589 0.598342 -1.85068 0
M  V30 7034 O 674.844 1.45818 -1.3052 0
M  V30 7035 C 675.143 -1.39276 -3.29146 0
M  V30 7036 C 674.809 -2.8816 -3.46806 0
M  V30 7037 C 673.471 -3.28813 -3.51334 0
M  V30 7038 C 675.823 -3.8401 -3.52399 0
M  V30 7039 C 673.151 -4.64028 -3.59019 0
M  V30 7040 C 675.503 -5.19053 -3.61617 0
M  V30 7041 C 674.167 -5.59252 -3.64408 0
M  V30 7042 H 673.437 -0.320505 -0.6681 0
M  V30 7043 H 676.084 -1.40184 -1.30464 0
M  V30 7044 H 674.389 -0.787207 -3.8381 0
M  V30 7045 H 676.086 -1.17851 -3.83291 0
M  V30 7046 H 672.676 -2.55716 -3.43958 0
M  V30 7047 H 676.86 -3.53698 -3.48154 0
M  V30 7048 H 672.116 -4.94568 -3.59461 0
M  V30 7049 H 676.29 -5.93152 -3.64889 0
M  V30 7050 H 673.917 -6.64017 -3.70116 0
M  V30 7051 N 675.492 1.28418 -0.913599 0
M  V30 7052 C 676.442 2.24928 -0.373042 0
M  V30 7053 C 677.426 1.52444 0.514753 0
M  V30 7054 O 678.618 1.73414 0.3545 0
M  V30 7055 C 675.747 3.41124 0.385896 0
M  V30 7056 C 674.833 4.20929 -0.51761 0
M  V30 7057 N 675.224 4.78777 -1.63113 0
M  V30 7058 C 673.522 4.44865 -0.317969 0
M  V30 7059 C 674.223 5.38822 -2.19193 0
M  V30 7060 N 673.199 5.22974 -1.48321 0
M  V30 7061 H 677.001 2.67224 -1.22346 0
M  V30 7062 H 674.515 1.43187 -0.766236 0
M  V30 7063 H 676.512 4.09347 0.789997 0
M  V30 7064 H 675.172 3.00362 1.23341 0
M  V30 7065 H 676.183 4.77148 -2.01372 0
M  V30 7066 H 672.86 4.14614 0.49004 0
M  V30 7067 H 674.25 5.94615 -3.12861 0
M  V30 7068 N 676.97 0.677563 1.42291 0
M  V30 7069 C 677.902 -0.0380218 2.29168 0
M  V30 7070 C 678.915 -0.762714 1.43828 0
M  V30 7071 O 680.104 -0.616413 1.67519 0
M  V30 7072 C 677.204 -1.07761 3.21311 0
M  V30 7073 C 676.377 -0.42618 4.35319 0
M  V30 7074 C 675.436 -1.36592 5.08162 0
M  V30 7075 O 674.462 -0.865174 5.62586 0
M  V30 7076 N 675.664 -2.69909 5.13935 0
M  V30 7077 H 678.429 0.707766 2.91223 0
M  V30 7078 H 675.99 0.52219 1.53247 0
M  V30 7079 H 677.982 -1.70761 3.6691 0
M  V30 7080 H 676.552 -1.72511 2.60689 0
M  V30 7081 H 675.772 0.383385 3.92331 0
M  V30 7082 H 677.06 0.0275277 5.08793 0
M  V30 7083 H 676.458 -3.13129 4.71134 0
M  V30 7084 H 675.015 -3.2815 5.6317 0
M  V30 7085 N 678.448 -1.51871 0.421078 0
M  V30 7086 C 679.725 -1.9447 -0.20993 0
M  V30 7087 C 680.105 -1.35875 -1.61558 0
M  V30 7088 O 679.453 -0.539294 -2.22045 0
M  V30 7089 C 679.663 -3.48402 -0.204165 0
M  V30 7090 C 681.011 -4.2254 -0.417696 0
M  V30 7091 O 682.035 -3.55074 -0.282999 0
M  V30 7092 O 680.894 -5.422 -0.684239 0
M  V30 7093 H 677.988 -0.815283 -0.138718 0
M  V30 7094 H 680.534 -1.62832 0.477884 0
M  V30 7095 H 679.306 -3.83464 0.779183 0
M  V30 7096 H 678.929 -3.86436 -0.935576 0
M  V30 7097 N 679.926 -0.151884 -1.56866 0
M  V30 7098 C 681.166 0.500695 -1.98173 0
M  V30 7099 C 681.53 1.61715 -1.03499 0
M  V30 7100 O 682.731 2.33093 -1.33869 0
M  V30 7101 C 681.002 0.989333 -3.43434 0
M  V30 7102 S 682.561 1.64583 -4.06765 0
M  V30 7103 H 679.379 0.16173 -0.692361 0
M  V30 7104 H 681.981 -0.244754 -1.93962 0
M  V30 7105 H 680.685 0.166072 -4.10064 0
M  V30 7106 H 680.216 1.76929 -3.51368 0
M  V30 7107 H 682.231 2.93326 -4.00218 0
M  V30 7108 N 681.404 1.57128 0.121893 0
M  V30 7109 C 682.367 1.99197 1.13372 0
M  V30 7110 C 683.367 0.881728 1.3447 0
M  V30 7111 O 684.557 1.14783 1.31036 0
M  V30 7112 C 681.689 2.32963 2.4888 0
M  V30 7113 H 682.882 2.89788 0.772204 0
M  V30 7114 H 680.435 1.51952 0.366093 0
M  V30 7115 H 681.17 1.45243 2.89957 0
M  V30 7116 H 680.955 3.13934 2.34921 0
M  V30 7117 H 682.445 2.66261 3.21706 0
M  V30 7118 N 682.882 -0.391992 1.52647 0
M  V30 7119 C 683.814 -1.49811 1.73463 0
M  V30 7120 C 684.827 -1.50734 0.615078 0
M  V30 7121 O 686.016 -1.5469 0.890696 0
M  V30 7122 C 683.116 -2.88667 1.77552 0
M  V30 7123 C 682.289 -3.11743 3.06815 0
M  V30 7124 C 681.348 -4.30564 3.02491 0
M  V30 7125 O 680.374 -4.27014 3.76361 0
M  V30 7126 N 681.576 -5.36593 2.21468 0
M  V30 7127 H 684.341 -1.32343 2.68897 0
M  V30 7128 H 681.902 -0.581475 1.51098 0
M  V30 7129 H 683.894 -3.66251 1.7217 0
M  V30 7130 H 682.464 -2.99508 0.895181 0
M  V30 7131 H 681.684 -2.2205 3.25711 0
M  V30 7132 H 682.972 -3.24013 3.92292 0
M  V30 7133 H 682.37 -5.42332 1.60913 0
M  V30 7134 H 680.927 -6.12855 2.21928 0
M  V30 7135 N 684.36 -1.4356 -0.65026 0
M  V30 7136 C 685.608 -1.45046 -1.40734 0
M  V30 7137 C 685.929 -0.0769822 -1.94848 0
M  V30 7138 O 685.199 0.888098 -1.74613 0
M  V30 7139 H 683.779 -0.534034 -0.522318 0
M  V30 7140 H 686.441 -1.79186 -0.766703 0
M  V30 7141 H 685.537 -2.16476 -2.24822 0
M  V30 7142 N 685.838 0.888903 -1.30139 0
M  V30 7143 C 686.748 2.02705 -1.18101 0
M  V30 7144 C 687.764 1.73702 -0.101809 0
M  V30 7145 O 688.94 1.98906 -0.315984 0
M  V30 7146 C 686.005 3.35616 -0.869651 0
M  V30 7147 C 685.066 3.78067 -2.03381 0
M  V30 7148 C 684.299 5.04635 -1.73721 0
M  V30 7149 O 684.522 5.66531 -0.663267 0
M  V30 7150 O 683.456 5.43399 -2.58845 0
M  V30 7151 H 687.282 2.15788 -2.13704 0
M  V30 7152 H 684.867 1.01426 -1.09695 0
M  V30 7153 H 686.749 4.15358 -0.711043 0
M  V30 7154 H 685.424 3.23651 0.0565002 0
M  V30 7155 H 684.331 2.99046 -2.24772 0
M  V30 7156 H 685.664 3.94631 -2.94155 0
M  V30 7157 N 687.317 1.12792 1.10072 0
M  V30 7158 C 688.594 0.796867 1.78632 0
M  V30 7159 C 688.974 -0.712739 1.98704 0
M  V30 7160 O 688.322 -1.64773 1.5831 0
M  V30 7161 C 688.532 1.57622 3.11378 0
M  V30 7162 C 689.88 1.76463 3.86194 0
M  V30 7163 O 690.904 1.54165 3.2111 0
M  V30 7164 O 689.763 2.13623 5.03018 0
M  V30 7165 H 686.857 0.290248 0.774394 0
M  V30 7166 H 689.403 1.23215 1.16688 0
M  V30 7167 H 688.175 2.60246 2.92212 0
M  V30 7168 H 687.798 1.13543 3.81043 0
M  V30 7169 N 688.795 -1.27931 0.920396 0
M  V30 7170 C 689.705 -2.30824 0.419212 0
M  V30 7171 C 690.721 -1.66767 -0.496461 0
M  V30 7172 O 691.897 -1.97763 -0.38104 0
M  V30 7173 C 688.962 -3.45158 -0.326601 0
M  V30 7174 C 688.023 -4.24754 0.623098 0
M  V30 7175 C 687.256 -5.33629 -0.0872172 0
M  V30 7176 O 687.479 -5.55204 -1.30784 0
M  V30 7177 O 686.413 -5.99091 0.580875 0
M  V30 7178 H 690.239 -2.75716 1.27337 0
M  V30 7179 H 687.824 -1.32747 0.685465 0
M  V30 7180 H 689.706 -4.14716 -0.747559 0
M  V30 7181 H 688.381 -3.02336 -1.15648 0
M  V30 7182 H 687.288 -3.57759 1.09359 0
M  V30 7183 H 688.621 -4.71272 1.41998 0
M  V30 7184 N 690.273 -0.685099 -1.4193 0
M  V30 7185 C 691.498 -0.218842 -2.06242 0
M  V30 7186 C 691.923 1.11923 -1.51178 0
M  V30 7187 O 691.281 1.69837 -0.634446 0
M  V30 7188 C 691.329 -0.175592 -3.60172 0
M  V30 7189 O 690.433 0.852776 -4.03487 0
M  V30 7190 H 689.774 -0.109531 -0.654904 0
M  V30 7191 H 692.304 -0.937013 -1.81882 0
M  V30 7192 H 692.314 -0.00291151 -4.08 0
M  V30 7193 H 690.989 -1.15222 -3.99621 0
M  V30 7194 H 689.566 0.650301 -3.67186 0
M  V30 7195 N 691.751 1.51645 -0.429126 0
M  V30 7196 C 692.683 2.25279 0.422124 0
M  V30 7197 C 693.696 1.28986 0.993299 0
M  V30 7198 O 694.885 1.54797 0.888836 0
M  V30 7199 C 691.985 2.98666 1.60162 0
M  V30 7200 C 691.158 4.2199 1.15078 0
M  V30 7201 C 690.217 4.78028 2.19946 0
M  V30 7202 O 689.243 5.40084 1.79716 0
M  V30 7203 N 690.445 4.61342 3.5234 0
M  V30 7204 H 693.21 2.98971 -0.208931 0
M  V30 7205 H 690.771 1.59838 -0.257568 0
M  V30 7206 H 692.763 3.33044 2.29922 0
M  V30 7207 H 691.333 2.28036 2.13818 0
M  V30 7208 H 690.553 3.932 0.280552 0
M  V30 7209 H 691.841 5.02037 0.826831 0
M  V30 7210 H 691.239 4.11894 3.87763 0
M  V30 7211 H 689.796 5.00104 4.18019 0
M  V30 7212 N 693.229 0.160201 1.56784 0
M  V30 7213 C 694.162 -0.812797 2.13234 0
M  V30 7214 C 695.14 -1.2335 1.05942 0
M  V30 7215 O 696.324 -1.32725 1.33852 0
M  V30 7216 C 693.451 -2.09311 2.66283 0
M  V30 7217 C 692.497 -1.8173 3.85845 0
M  V30 7218 S 693.33 -0.996473 5.26147 0
M  V30 7219 C 694.486 -2.28769 5.82594 0
M  V30 7220 H 694.719 -0.332794 2.95432 0
M  V30 7221 H 692.252 -0.0542971 1.54304 0
M  V30 7222 H 694.21 -2.82854 2.97496 0
M  V30 7223 H 692.871 -2.54425 1.84192 0
M  V30 7224 H 692.064 -2.76699 4.21253 0
M  V30 7225 H 691.666 -1.16289 3.55462 0
M  V30 7226 H 693.958 -3.24319 5.9483 0
M  V30 7227 H 694.901 -1.97846 6.79899 0
M  V30 7228 H 695.309 -2.40021 5.10931 0
M  V30 7229 N 694.707 -1.5719 -0.113559 0
M  V30 7230 C 695.947 -1.86958 -0.82621 0
M  V30 7231 C 696.311 -0.748884 -1.76793 0
M  V30 7232 O 697.512 -0.92847 -2.52256 0
M  V30 7233 C 695.783 -3.21957 -1.55173 0
M  V30 7234 S 697.342 -3.73371 -2.3052 0
M  V30 7235 H 694.16 -0.655394 -0.275643 0
M  V30 7236 H 696.762 -1.95318 -0.0842684 0
M  V30 7237 H 695.466 -4.01459 -0.851977 0
M  V30 7238 H 694.997 -3.16688 -2.33393 0
M  V30 7239 H 697.012 -3.45308 -3.56338 0
M  V30 7240 N 696.185 0.383891 -1.52853 0
M  V30 7241 C 697.601 0.724316 -1.42218 0
M  V30 7242 C 697.801 1.93943 -0.546654 0
M  V30 7243 O 696.857 2.5249 -0.0220562 0
M  V30 7244 C 698.17 0.954635 -2.85144 0
M  V30 7245 C 699.718 1.05579 -2.94656 0
M  V30 7246 C 700.193 1.3187 -4.38605 0
M  V30 7247 N 701.684 1.38681 -4.41952 0
M  V30 7248 C 702.419 1.60699 -5.50421 0
M  V30 7249 N 701.915 1.80154 -6.68967 0
M  V30 7250 N 703.708 1.6292 -5.37972 0
M  V30 7251 H 695.859 -0.4156 -2.08294 0
M  V30 7252 H 698.122 -0.123776 -0.939885 0
M  V30 7253 H 697.828 0.133829 -3.51445 0
M  V30 7254 H 697.702 1.86788 -3.27704 0
M  V30 7255 H 700.089 1.86716 -2.2852 0
M  V30 7256 H 700.17 0.120338 -2.55517 0
M  V30 7257 H 699.814 0.512416 -5.05309 0
M  V30 7258 H 699.744 2.26708 -4.75301 0
M  V30 7259 H 702.235 1.25334 -3.56511 0
M  V30 7260 H 702.548 1.96476 -7.47407 0
M  V30 7261 H 700.893 1.77368 -6.71986 0
M  V30 7262 H 704.084 1.47276 -4.44328 0
M  V30 7263 H 704.257 1.79739 -6.22574 0
M  V30 7264 N 697.663 1.43903 0.642637 0
M  V30 7265 C 698.61 1.49881 1.75512 0
M  V30 7266 C 699.58 0.347538 1.62423 0
M  V30 7267 O 700.765 0.556177 1.82514 0
M  V30 7268 C 697.905 1.43797 3.13714 0
M  V30 7269 C 697.018 2.6921 3.37861 0
M  V30 7270 C 696.153 2.5504 4.6597 0
M  V30 7271 C 695.192 3.75671 4.83257 0
M  V30 7272 N 694.329 3.60247 6.02633 0
M  V30 7273 H 699.169 2.44935 1.69737 0
M  V30 7274 H 696.706 1.21572 0.828165 0
M  V30 7275 H 698.664 1.38262 3.93624 0
M  V30 7276 H 697.294 0.523173 3.18532 0
M  V30 7277 H 696.346 2.8498 2.51973 0
M  V30 7278 H 697.658 3.58786 3.46517 0
M  V30 7279 H 696.812 2.47273 5.54023 0
M  V30 7280 H 695.551 1.63006 4.59653 0
M  V30 7281 H 694.556 3.83836 3.93637 0
M  V30 7282 H 695.781 4.68728 4.91397 0
M  V30 7283 H 693.727 2.70955 5.97427 0
M  V30 7284 H 693.644 4.43431 6.12295 0
M  V30 7285 H 694.912 3.56351 6.93278 0
M  V30 7286 N 699.141 -0.881989 1.30609 0
M  V30 7287 C 700.071 -2.00413 1.1982 0
M  V30 7288 C 701.052 -1.69871 0.0881538 0
M  V30 7289 O 702.237 -1.92304 0.2707 0
M  V30 7290 C 699.367 -3.35641 0.89233 0
M  V30 7291 C 698.321 -3.80451 1.96064 0
M  V30 7292 C 697.647 -5.13003 1.5077 0
M  V30 7293 C 698.947 -3.98855 3.37213 0
M  V30 7294 H 700.641 -2.09698 2.13699 0
M  V30 7295 H 698.187 -1.00754 1.02882 0
M  V30 7296 H 700.14 -4.13669 0.803497 0
M  V30 7297 H 698.864 -3.26497 -0.0821381 0
M  V30 7298 H 697.523 -3.04654 2.03916 0
M  V30 7299 H 697.171 -5.0029 0.521417 0
M  V30 7300 H 696.871 -5.43956 2.22229 0
M  V30 7301 H 698.395 -5.93554 1.43271 0
M  V30 7302 H 699.809 -4.67312 3.32103 0
M  V30 7303 H 698.206 -4.41188 4.06784 0
M  V30 7304 H 699.276 -3.02614 3.78883 0
M  V30 7305 N 700.619 -1.13374 -1.09472 0
M  V30 7306 C 702.03 -0.90801 -1.63132 0
M  V30 7307 C 702.381 0.555576 -1.8817 0
M  V30 7308 O 701.506 1.42218 -1.63104 0
M  V30 7309 C 702.101 -1.64182 -2.96361 0
M  V30 7310 C 700.66 -1.46197 -3.46848 0
M  V30 7311 C 699.807 -1.67134 -2.21273 0
M  V30 7312 H 702.758 -1.2871 -0.928411 0
M  V30 7313 H 702.779 -1.09863 -3.64294 0
M  V30 7314 H 702.291 -2.707 -2.78106 0
M  V30 7315 H 700.392 -0.419788 -3.70228 0
M  V30 7316 H 700.505 -2.22472 -4.24315 0
M  V30 7317 H 698.869 -1.09616 -2.29905 0
M  V30 7318 H 699.652 -2.74971 -2.05538 0
M  V30 7319 N 702.098 1.27442 -0.927168 0
M  V30 7320 C 703.344 1.94679 -0.568164 0
M  V30 7321 C 703.677 1.72697 0.888219 0
M  V30 7322 O 702.952 1.05573 1.63354 0
M  V30 7323 C 703.235 3.4882 -0.894253 0
M  V30 7324 C 703.088 3.80146 -2.40435 0
M  V30 7325 C 704.407 4.38281 -0.399766 0
M  V30 7326 H 701.526 0.707071 -0.207892 0
M  V30 7327 H 704.168 1.50568 -1.15885 0
M  V30 7328 H 702.318 3.86522 -0.391566 0
M  V30 7329 H 703.99 3.52238 -2.97869 0
M  V30 7330 H 702.233 3.26716 -2.85375 0
M  V30 7331 H 702.904 4.87835 -2.58304 0
M  V30 7332 H 705.38 4.07726 -0.83058 0
M  V30 7333 H 704.256 5.44955 -0.656885 0
M  V30 7334 H 704.517 4.36521 0.700153 0
M  V30 7335 N 703.576 0.692616 1.41565 0
M  V30 7336 C 704.824 0.221896 2.00878 0
M  V30 7337 C 705.145 -1.18164 1.5512 0
M  V30 7338 O 704.415 -1.79679 0.78054 0
M  V30 7339 H 702.995 0.0790463 0.742806 0
M  V30 7340 H 705.657 0.893115 1.73232 0
M  V30 7341 H 704.753 0.23702 3.11199 0
M  V30 7342 N 705.054 -1.51416 0.437162 0
M  V30 7343 C 706.301 -2.02086 -0.129364 0
M  V30 7344 C 706.629 -1.32133 -1.42728 0
M  V30 7345 O 705.884 -0.424916 -1.91031 0
M  V30 7346 C 706.183 -3.55203 -0.39564 0
M  V30 7347 C 705.849 -4.43447 0.81644 0
M  V30 7348 C 704.511 -4.67285 1.14884 0
M  V30 7349 C 706.863 -4.95219 1.62503 0
M  V30 7350 C 704.191 -5.40141 2.29052 0
M  V30 7351 C 706.543 -5.69327 2.7577 0
M  V30 7352 C 705.207 -5.91429 3.09464 0
M  V30 7353 H 704.477 -0.739486 -0.0473375 0
M  V30 7354 H 707.124 -1.82368 0.584321 0
M  V30 7355 H 705.429 -3.73252 -1.19121 0
M  V30 7356 H 707.126 -3.91944 -0.847399 0
M  V30 7357 H 703.716 -4.2509 0.547422 0
M  V30 7358 H 707.9 -4.76686 1.38144 0
M  V30 7359 H 703.156 -5.55468 2.55471 0
M  V30 7360 H 707.33 -6.08433 3.38795 0
M  V30 7361 H 704.957 -6.47662 3.98042 0
M  V30 7362 N 706.532 -0.168513 -1.56696 0
M  V30 7363 C 707.762 0.482802 -2.0088 0
M  V30 7364 C 708.17 1.57537 -1.0478 0
M  V30 7365 O 707.513 1.83656 -0.0402746 0
M  V30 7366 C 707.575 1.1236 -3.4149 0
M  V30 7367 C 707.239 0.173027 -4.56672 0
M  V30 7368 C 708.236 -0.607565 -5.16338 0
M  V30 7369 C 705.921 0.0696691 -5.02252 0
M  V30 7370 C 707.915 -1.47874 -6.2001 0
M  V30 7371 C 705.602 -0.805096 -6.05773 0
M  V30 7372 C 706.6 -1.57789 -6.64524 0
M  V30 7373 O 706.288 -2.43804 -7.66038 0
M  V30 7374 H 706.02 0.128246 -0.663723 0
M  V30 7375 H 708.574 -0.266532 -2.03663 0
M  V30 7376 H 706.804 1.921 -3.35611 0
M  V30 7377 H 708.493 1.67683 -3.69645 0
M  V30 7378 H 709.259 -0.53787 -4.82008 0
M  V30 7379 H 705.138 0.660957 -4.56237 0
M  V30 7380 H 708.682 -2.0824 -6.65794 0
M  V30 7381 H 704.579 -0.876005 -6.39528 0
M  V30 7382 H 705.347 -2.37289 -7.83349 0
M  V30 7383 N 708.01 1.57248 0.105221 0
M  V30 7384 C 709.25 1.87393 0.816283 0
M  V30 7385 C 709.614 0.758249 1.76393 0
M  V30 7386 O 710.815 0.941835 2.5176 0
M  V30 7387 C 709.086 3.22775 1.53463 0
M  V30 7388 S 710.645 3.74588 2.28537 0
M  V30 7389 H 707.463 0.656847 0.272164 0
M  V30 7390 H 710.065 1.9536 0.073909 0
M  V30 7391 H 708.769 4.01905 0.830674 0
M  V30 7392 H 708.3 3.17921 2.3171 0
M  V30 7393 H 710.315 3.47193 3.54502 0
M  V30 7394 N 709.488 -0.375779 1.53054 0
M  V30 7395 C 710.436 -1.48015 1.79428 0
M  V30 7396 C 711.43 -1.55893 0.662854 0
M  V30 7397 O 712.636 -1.58901 0.845599 0
M  V30 7398 H 709.011 -0.492887 0.56795 0
M  V30 7399 H 710.982 -1.22971 2.71884 0
M  V30 7400 C 709.731 -2.84984 1.99197 0
M  V30 7401 H 709.054 -2.79677 2.85693 0
M  V30 7402 H 710.494 -3.61462 2.21633 0
M  V30 7403 C 708.953 -3.28025 0.768183 0
M  V30 7404 O 709.483 -4.01671 -0.0480482 0
M  V30 7405 N 707.689 -2.84454 0.594521 0
M  V30 7406 H 707.236 -2.24688 1.25988 0
M  V30 7407 H 707.194 -3.13609 -0.222916 0
M  V30 7408 N 710.966 -1.44241 -0.634997 0
M  V30 7409 C 712.213 -1.46821 -1.39463 0
M  V30 7410 C 712.541 -0.0993362 -1.94246 0
M  V30 7411 O 711.796 0.898325 -1.73864 0
M  V30 7412 C 712.095 -2.47279 -2.58046 0
M  V30 7413 C 711.761 -3.92703 -2.21574 0
M  V30 7414 C 710.423 -4.32306 -2.1134 0
M  V30 7415 C 712.775 -4.84271 -1.92695 0
M  V30 7416 C 710.103 -5.61407 -1.70409 0
M  V30 7417 C 712.455 -6.13755 -1.53258 0
M  V30 7418 C 711.119 -6.52316 -1.41562 0
M  V30 7419 H 710.389 -0.537256 -0.51033 0
M  V30 7420 H 713.036 -1.77431 -0.720441 0
M  V30 7421 H 711.341 -2.10138 -3.3068 0
M  V30 7422 H 713.038 -2.46523 -3.16271 0
M  V30 7423 H 709.628 -3.61369 -2.30456 0
M  V30 7424 H 713.812 -4.54432 -1.99513 0
M  V30 7425 H 709.068 -5.90105 -1.59955 0
M  V30 7426 H 713.242 -6.84168 -1.29949 0
M  V30 7427 H 710.869 -7.52255 -1.09619 0
M  V30 7428 N 712.444 0.87505 -1.31075 0
M  V30 7429 C 713.354 2.01441 -1.20244 0
M  V30 7430 C 714.37 1.73584 -0.120227 0
M  V30 7431 O 715.546 1.98559 -0.337063 0
M  V30 7432 C 712.611 3.34675 -0.905199 0
M  V30 7433 C 711.672 3.75889 -2.0738 0
M  V30 7434 C 710.905 5.02764 -1.79064 0
M  V30 7435 O 711.128 5.65795 -0.723318 0
M  V30 7436 O 710.062 5.40623 -2.64594 0
M  V30 7437 H 713.888 2.13509 -2.1598 0
M  V30 7438 H 711.473 1.00257 -1.10765 0
M  V30 7439 H 713.355 4.1458 -0.755057 0
M  V30 7440 H 712.03 3.23692 0.0221695 0
M  V30 7441 H 710.937 2.96645 -2.27931 0
M  V30 7442 H 712.27 3.91489 -2.98324 0
M  V30 7443 N 713.922 1.13953 1.08869 0
M  V30 7444 C 715.199 0.815768 1.77777 0
M  V30 7445 C 715.579 -0.691624 1.99449 0
M  V30 7446 O 714.927 -1.63085 1.60049 0
M  V30 7447 C 715.137 1.60916 3.09689 0
M  V30 7448 C 716.485 1.80549 3.84301 0
M  V30 7449 O 717.509 1.57562 3.19457 0
M  V30 7450 O 716.368 2.18946 5.00724 0
M  V30 7451 H 713.462 0.298445 0.771271 0
M  V30 7452 H 716.008 1.24446 1.15374 0
M  V30 7453 H 714.78 2.6333 2.89435 0
M  V30 7454 H 714.403 1.17578 3.79817 0
M  V30 7455 N 715.4 -1.26948 0.933913 0
M  V30 7456 C 716.648 -1.93704 0.576484 0
M  V30 7457 C 716.969 -1.73702 -0.886145 0
M  V30 7458 O 716.239 -1.08838 -1.62884 0
M  V30 7459 H 714.819 -0.716812 0.210214 0
M  V30 7460 H 717.481 -1.54534 1.18766 0
M  V30 7461 H 716.577 -3.01987 0.788055 0
M  V30 7462 N 716.879 -0.700114 -1.41195 0
M  V30 7463 C 718.126 -0.233006 -2.01155 0
M  V30 7464 C 718.454 1.16883 -1.55462 0
M  V30 7465 O 717.709 1.80395 -0.758695 0
M  V30 7466 C 718.008 -0.243986 -3.56566 0
M  V30 7467 C 717.674 -1.59397 -4.21786 0
M  V30 7468 C 716.336 -1.96355 -4.39316 0
M  V30 7469 C 718.688 -2.48192 -4.58312 0
M  V30 7470 C 716.016 -3.21683 -4.9065 0
M  V30 7471 C 718.368 -3.72857 -5.11039 0
M  V30 7472 C 717.032 -4.09951 -5.26779 0
M  V30 7473 H 716.302 -0.085263 -0.736078 0
M  V30 7474 H 718.949 -0.9001 -1.69028 0
M  V30 7475 H 717.254 0.506663 -3.8851 0
M  V30 7476 H 718.951 0.135031 -4.00773 0
M  V30 7477 H 715.541 -1.29654 -4.08519 0
M  V30 7478 H 719.725 -2.20918 -4.4442 0
M  V30 7479 H 714.981 -3.50412 -5.01021 0
M  V30 7480 H 719.155 -4.41844 -5.38282 0
M  V30 7481 H 716.782 -5.07136 -5.66319 0
M  V30 7482 N 718.357 1.51182 -0.445186 0
M  V30 7483 C 719.597 2.04061 0.117717 0
M  V30 7484 C 719.961 1.32158 1.39278 0
M  V30 7485 O 721.162 1.75452 2.03642 0
M  V30 7486 C 719.433 3.55933 0.323445 0
M  V30 7487 S 720.992 4.30516 0.848627 0
M  V30 7488 H 717.81 0.710442 0.028165 0
M  V30 7489 H 720.412 1.85858 -0.606391 0
M  V30 7490 H 719.116 4.0583 -0.610764 0
M  V30 7491 H 718.647 3.78444 1.07441 0
M  V30 7492 H 720.662 4.48382 2.12528 0
M  V30 7493 N 719.835 0.176821 1.56605 0
M  V30 7494 C 721.083 -0.465793 1.96659 0
M  V30 7495 C 721.404 -1.63406 1.06412 0
M  V30 7496 O 720.674 -1.95457 0.131603 0
M  V30 7497 H 719.254 -0.175072 0.726195 0
M  V30 7498 H 721.916 0.25929 1.93168 0
M  V30 7499 H 721.012 -0.822138 3.01077 0
M  V30 7500 N 721.313 -1.57302 -0.09688 0
M  V30 7501 C 722.559 -1.87144 -0.796778 0
M  V30 7502 C 722.914 -0.767428 -1.76432 0
M  V30 7503 O 722.207 0.230728 -1.90206 0
M  V30 7504 C 722.401 -3.21272 -1.56586 0
M  V30 7505 C 722.23 -4.44616 -0.674295 0
M  V30 7506 C 721 -5.04281 -0.320705 0
M  V30 7507 C 723.198 -5.14297 0.0179445 0
M  V30 7508 N 721.18 -6.11162 0.579206 0
M  V30 7509 C 722.551 -6.15125 0.775992 0
M  V30 7510 C 724.606 -4.97815 0.0920521 0
M  V30 7511 C 723.309 -7.01251 1.60122 0
M  V30 7512 C 725.335 -5.84447 0.904175 0
M  V30 7513 C 724.697 -6.84794 1.65035 0
M  V30 7514 H 720.796 -0.734721 -0.267787 0
M  V30 7515 H 723.38 -1.94609 -0.0593955 0
M  V30 7516 H 721.551 -3.14862 -2.27413 0
M  V30 7517 H 723.283 -3.38846 -2.21281 0
M  V30 7518 H 720.038 -4.68866 -0.667961 0
M  V30 7519 H 720.462 -6.69247 1.02166 0
M  V30 7520 H 725.104 -4.20174 -0.470492 0
M  V30 7521 H 722.822 -7.78284 2.17484 0
M  V30 7522 H 726.408 -5.73755 0.964165 0
M  V30 7523 H 725.288 -7.50668 2.26864 0
M  V30 7524 N 722.791 0.367657 -1.53252 0
M  V30 7525 C 724.019 1.13119 -1.73239 0
M  V30 7526 C 724.434 1.831 -0.460404 0
M  V30 7527 O 723.791 1.73483 0.566557 0
M  V30 7528 C 723.842 2.16308 -2.89643 0
M  V30 7529 O 723.563 1.49175 -4.1192 0
M  V30 7530 C 725.064 3.05224 -3.21486 0
M  V30 7531 H 722.284 0.338318 -0.579467 0
M  V30 7532 H 724.828 0.42721 -1.99988 0
M  V30 7533 H 722.983 2.82307 -2.65295 0
M  V30 7534 H 723.397 2.17912 -4.7709 0
M  V30 7535 H 724.871 3.73613 -4.06346 0
M  V30 7536 H 725.348 3.69919 -2.36763 0
M  V30 7537 H 725.954 2.44843 -3.47753 0
M  V30 7538 N 724.269 1.44576 0.627338 0
M  V30 7539 C 725.201 1.47724 1.75243 0
M  V30 7540 C 726.214 0.370193 1.58535 0
M  V30 7541 O 727.403 0.636151 1.66779 0
M  V30 7542 C 724.503 1.2991 3.13012 0
M  V30 7543 C 723.676 2.5393 3.56143 0
M  V30 7544 C 722.735 2.30961 4.72804 0
M  V30 7545 O 721.761 3.04469 4.80923 0
M  V30 7546 N 722.963 1.34261 5.6476 0
M  V30 7547 H 725.728 2.44718 1.73012 0
M  V30 7548 H 723.289 1.40064 0.812022 0
M  V30 7549 H 725.281 1.12385 3.88782 0
M  V30 7550 H 723.851 0.412668 3.09864 0
M  V30 7551 H 723.071 2.86707 2.70542 0
M  V30 7552 H 724.359 3.36411 3.81713 0
M  V30 7553 H 723.757 0.735573 5.60897 0
M  V30 7554 H 722.314 1.22713 6.40144 0
M  V30 7555 N 725.747 -0.868086 1.31537 0
M  V30 7556 C 726.995 -1.61807 1.21091 0
M  V30 7557 C 727.316 -1.93631 -0.230623 0
M  V30 7558 O 726.586 -1.5846 -1.15183 0
M  V30 7559 H 725.166 -0.599854 0.445178 0
M  V30 7560 H 727.828 -1.03915 1.64887 0
M  V30 7561 H 726.924 -2.56088 1.78396 0
M  V30 7562 N 727.225 -1.14528 -1.08264 0
M  V30 7563 C 728.453 -0.937964 -1.84418 0
M  V30 7564 C 728.868 0.51357 -1.81681 0
M  V30 7565 O 728.225 1.35591 -1.22153 0
M  V30 7566 C 728.276 -1.43272 -3.31897 0
M  V30 7567 O 727.997 -2.82738 -3.34651 0
M  V30 7568 C 729.498 -1.26555 -4.24851 0
M  V30 7569 H 726.718 -0.333704 -0.582136 0
M  V30 7570 H 729.262 -1.52076 -1.36723 0
M  V30 7571 H 727.417 -0.892653 -3.76975 0
M  V30 7572 H 727.831 -3.04971 -4.26724 0
M  V30 7573 H 729.305 -1.66031 -5.26439 0
M  V30 7574 H 729.782 -0.208589 -4.38704 0
M  V30 7575 H 730.388 -1.79423 -3.856 0
M  V30 7576 N 728.703 1.26451 -0.940633 0
M  V30 7577 C 729.633 2.28773 -0.467479 0
M  V30 7578 C 730.614 1.63218 0.478955 0
M  V30 7579 O 731.799 1.90427 0.380929 0
M  V30 7580 C 728.929 3.46259 0.268656 0
M  V30 7581 C 727.883 4.23898 -0.591171 0
M  V30 7582 C 727.209 5.33993 0.274891 0
M  V30 7583 C 728.509 4.87974 -1.86223 0
M  V30 7584 H 730.203 2.68601 -1.32265 0
M  V30 7585 H 727.749 1.29123 -0.637436 0
M  V30 7586 H 729.702 4.16951 0.610696 0
M  V30 7587 H 728.426 3.05383 1.15796 0
M  V30 7588 H 727.085 3.54969 -0.916098 0
M  V30 7589 H 726.733 4.89358 1.16353 0
M  V30 7590 H 726.433 5.86849 -0.297006 0
M  V30 7591 H 727.957 6.07523 0.612213 0
M  V30 7592 H 729.371 5.50883 -1.58747 0
M  V30 7593 H 727.768 5.50945 -2.37866 0
M  V30 7594 H 728.838 4.10945 -2.57394 0
M  V30 7595 N 730.181 0.707592 1.40822 0
M  V30 7596 C 731.406 0.251626 2.05868 0
M  V30 7597 C 731.831 -1.09503 1.5294 0
M  V30 7598 O 731.189 -1.68806 0.661385 0
M  V30 7599 C 731.237 0.23287 3.59847 0
M  V30 7600 O 730.341 -0.788477 4.04792 0
M  V30 7601 H 729.682 0.119936 0.653078 0
M  V30 7602 H 732.212 0.96583 1.80369 0
M  V30 7603 H 732.222 0.0678204 4.07944 0
M  V30 7604 H 730.897 1.21565 3.97737 0
M  V30 7605 H 729.474 -0.591802 3.68174 0
M  V30 7606 N 731.66 -1.50943 0.453197 0
M  V30 7607 C 733.071 -1.86699 -0.00619892 0
M  V30 7608 C 733.422 -1.3693 -1.40515 0
M  V30 7609 O 732.547 -0.726715 -2.03833 0
M  V30 7610 C 733.142 -3.38795 -0.018025 0
M  V30 7611 C 731.701 -3.74028 -0.421885 0
M  V30 7612 C 730.848 -2.74752 0.375087 0
M  V30 7613 H 733.799 -1.43942 0.668317 0
M  V30 7614 H 733.82 -3.71468 -0.824125 0
M  V30 7615 H 733.332 -3.74988 1.00028 0
M  V30 7616 H 731.433 -3.43431 -1.44521 0
M  V30 7617 H 731.546 -4.78908 -0.135664 0
M  V30 7618 H 729.91 -2.5414 -0.168794 0
M  V30 7619 H 730.693 -3.13787 1.39256 0
M  V30 7620 N 733.138 -0.185124 -1.56509 0
M  V30 7621 C 734.088 0.752315 -2.15231 0
M  V30 7622 C 735.072 1.18327 -1.0903 0
M  V30 7623 O 736.264 1.14333 -1.35119 0
M  V30 7624 C 733.393 1.97583 -2.80742 0
M  V30 7625 C 732.479 1.56623 -3.94119 0
M  V30 7626 N 732.87 0.867008 -4.98314 0
M  V30 7627 C 731.168 1.85626 -4.05535 0
M  V30 7628 C 731.869 0.663228 -5.77907 0
M  V30 7629 N 730.845 1.20891 -5.29987 0
M  V30 7630 H 734.647 0.209267 -2.93154 0
M  V30 7631 H 732.161 0.0150444 -1.62393 0
M  V30 7632 H 734.158 2.65779 -3.21197 0
M  V30 7633 H 732.818 2.52369 -2.04303 0
M  V30 7634 H 733.829 0.52355 -5.15247 0
M  V30 7635 H 730.506 2.41992 -3.40215 0
M  V30 7636 H 731.896 0.109273 -6.71811 0
M  V30 7637 N 734.616 1.57351 0.0885366 0
M  V30 7638 C 735.844 1.90631 0.804196 0
M  V30 7639 C 736.259 0.779474 1.71958 0
M  V30 7640 O 735.616 -0.248179 1.80805 0
M  V30 7641 C 735.667 3.23568 1.61202 0
M  V30 7642 O 735.388 4.31917 0.733447 0
M  V30 7643 C 736.889 3.70753 2.43016 0
M  V30 7644 H 734.109 0.630501 0.229585 0
M  V30 7645 H 736.653 2.044 0.0638092 0
M  V30 7646 H 734.808 3.11377 2.30485 0
M  V30 7647 H 735.222 5.08297 1.29361 0
M  V30 7648 H 736.696 4.66447 2.9518 0
M  V30 7649 H 737.173 2.98922 3.2178 0
M  V30 7650 H 737.779 3.85834 1.7892 0
M  V30 7651 N 736.094 -0.359525 1.53444 0
M  V30 7652 C 737.505 -0.936009 1.61542 0
M  V30 7653 C 737.856 -1.90069 0.486633 0
M  V30 7654 O 736.981 -2.12929 -0.386047 0
M  V30 7655 C 737.576 -1.70441 2.92806 0
M  V30 7656 C 736.135 -2.23015 3.03218 0
M  V30 7657 C 735.282 -1.04438 2.56881 0
M  V30 7658 H 738.233 -0.138134 1.58098 0
M  V30 7659 H 738.254 -2.56609 2.80948 0
M  V30 7660 H 737.766 -1.00205 3.74941 0
M  V30 7661 H 735.867 -2.96475 2.25684 0
M  V30 7662 H 735.98 -2.50481 4.08407 0
M  V30 7663 H 734.344 -1.41314 2.11902 0
M  V30 7664 H 735.127 -0.356905 3.4144 0
M  V30 7665 N 737.572 -1.44907 -0.619662 0
M  V30 7666 C 738.504 -1.48652 -1.74457 0
M  V30 7667 C 739.517 -0.378596 -1.58337 0
M  V30 7668 O 740.706 -0.644987 -1.6644 0
M  V30 7669 C 737.806 -1.31568 -3.12319 0
M  V30 7670 C 736.979 -2.55816 -3.54792 0
M  V30 7671 C 736.038 -2.33465 -4.71573 0
M  V30 7672 O 735.064 -3.07015 -4.79302 0
M  V30 7673 N 736.266 -1.37254 -5.6404 0
M  V30 7674 H 739.031 -2.45632 -1.71712 0
M  V30 7675 H 736.592 -1.40492 -0.804582 0
M  V30 7676 H 738.584 -1.14445 -3.88181 0
M  V30 7677 H 737.154 -0.429095 -3.09641 0
M  V30 7678 H 736.374 -2.88137 -2.69018 0
M  V30 7679 H 737.662 -3.38431 -3.79924 0
M  V30 7680 H 737.06 -0.765309 -5.60499 0
M  V30 7681 H 735.617 -1.26106 -6.39485 0
M  V30 7682 N 739.05 0.861098 -1.31996 0
M  V30 7683 C 740.296 1.61707 -1.23379 0
M  V30 7684 C 740.651 1.91315 0.204026 0
M  V30 7685 O 739.944 1.53997 1.13998 0
M  V30 7686 C 740.138 2.94822 -2.02027 0
M  V30 7687 C 739.967 2.78212 -3.5331 0
M  V30 7688 C 738.737 2.76933 -4.22654 0
M  V30 7689 C 740.935 2.52432 -4.48088 0
M  V30 7690 N 738.917 2.51466 -5.60034 0
M  V30 7691 C 740.288 2.36312 -5.73198 0
M  V30 7692 C 742.343 2.37848 -4.37416 0
M  V30 7693 C 741.046 2.0709 -6.88844 0
M  V30 7694 C 743.072 2.10016 -5.52854 0
M  V30 7695 C 742.434 1.94691 -6.7696 0
M  V30 7696 H 738.533 0.595703 -0.506618 0
M  V30 7697 H 741.117 1.01275 -1.66287 0
M  V30 7698 H 739.288 3.53243 -1.61474 0
M  V30 7699 H 741.02 3.59756 -1.85358 0
M  V30 7700 H 737.775 2.89638 -3.74709 0
M  V30 7701 H 738.199 2.41679 -6.32392 0
M  V30 7702 H 742.841 2.4842 -3.42122 0
M  V30 7703 H 740.559 1.95256 -7.84156 0
M  V30 7704 H 744.145 1.99519 -5.46519 0
M  V30 7705 H 743.025 1.7346 -7.64775 0
M  V30 7706 N 740.528 1.15101 1.07655 0
M  V30 7707 C 741.46 0.802722 2.14684 0
M  V30 7708 C 742.473 -0.183874 1.61758 0
M  V30 7709 O 743.662 0.0389349 1.78458 0
M  V30 7710 C 740.762 0.172135 3.38463 0
M  V30 7711 C 739.935 1.19538 4.20749 0
M  V30 7712 C 738.994 0.58714 5.22914 0
M  V30 7713 O 738.02 1.25224 5.55255 0
M  V30 7714 N 739.222 -0.632566 5.77043 0
M  V30 7715 H 741.987 1.72379 2.45164 0
M  V30 7716 H 739.548 1.04647 1.23534 0
M  V30 7717 H 741.54 -0.247465 4.03943 0
M  V30 7718 H 740.11 -0.652214 3.0572 0
M  V30 7719 H 739.33 1.79165 3.51132 0
M  V30 7720 H 740.618 1.88636 4.7254 0
M  V30 7721 H 740.016 -1.19135 5.53013 0
M  V30 7722 H 738.573 -0.994566 6.44167 0
M  V30 7723 N 742.006 -1.2595 0.947325 0
M  V30 7724 C 743.252 -1.9375 0.599064 0
M  V30 7725 C 743.585 -1.74088 -0.860632 0
M  V30 7726 O 742.86 -1.08158 -1.61654 0
M  V30 7727 C 743.143 -3.47353 0.949634 0
M  V30 7728 C 742.996 -3.76273 2.46452 0
M  V30 7729 C 744.315 -4.37589 0.469442 0
M  V30 7730 H 741.434 -0.703674 0.219115 0
M  V30 7731 H 744.076 -1.48705 1.18266 0
M  V30 7732 H 742.226 -3.8585 0.453008 0
M  V30 7733 H 743.898 -3.47455 3.03435 0
M  V30 7734 H 742.141 -3.22135 2.90537 0
M  V30 7735 H 742.812 -4.83664 2.66032 0
M  V30 7736 H 745.288 -4.06353 0.89534 0
M  V30 7737 H 744.164 -5.43841 0.7435 0
M  V30 7738 H 744.425 -4.37579 -0.630618 0
M  V30 7739 N 743.484 -0.715051 -1.40445 0
M  V30 7740 C 744.9 -0.388555 -1.54798 0
M  V30 7741 C 745.1 1.10271 -1.68649 0
M  V30 7742 O 744.156 1.88875 -1.67578 0
M  V30 7743 C 745.469 -1.15414 -2.77669 0
M  V30 7744 C 747.017 -1.14039 -2.91486 0
M  V30 7745 C 747.492 -1.88812 -4.1727 0
M  V30 7746 N 748.983 -1.85878 -4.24268 0
M  V30 7747 C 749.718 -2.40558 -5.20499 0
M  V30 7748 N 749.214 -3.03791 -6.22642 0
M  V30 7749 N 751.007 -2.30703 -5.12574 0
M  V30 7750 H 743.158 -1.68201 -1.297 0
M  V30 7751 H 745.421 -0.710915 -0.627139 0
M  V30 7752 H 745.127 -2.20853 -2.7371 0
M  V30 7753 H 745.001 -0.745412 -3.69761 0
M  V30 7754 H 747.388 -0.0941996 -2.9495 0
M  V30 7755 H 747.469 -1.58834 -2.00513 0
M  V30 7756 H 747.113 -2.93422 -4.14568 0
M  V30 7757 H 747.043 -1.41438 -5.0725 0
M  V30 7758 H 749.534 -1.39794 -3.51093 0
M  V30 7759 H 749.847 -3.43032 -6.92495 0
M  V30 7760 H 748.192 -3.07875 -6.23087 0
M  V30 7761 H 751.383 -1.80961 -4.31707 0
M  V30 7762 H 751.556 -2.73618 -5.87398 0
M  V30 7763 N 744.962 1.50701 -0.461195 0
M  V30 7764 C 746.19 2.06681 0.0951756 0
M  V30 7765 C 746.605 1.32615 1.34382 0
M  V30 7766 O 745.962 0.392531 1.78229 0
M  V30 7767 C 746.013 3.59354 0.393316 0
M  V30 7768 O 745.734 4.30626 -0.805797 0
M  V30 7769 C 747.235 4.31926 0.997744 0
M  V30 7770 H 744.455 0.670995 -0.00267259 0
M  V30 7771 H 746.999 1.93991 -0.647137 0
M  V30 7772 H 745.154 3.7188 1.08555 0
M  V30 7773 H 745.568 5.21667 -0.544409 0
M  V30 7774 H 747.042 5.39756 1.15619 0
M  V30 7775 H 747.519 3.91772 1.98523 0
M  V30 7776 H 748.125 4.23905 0.344188 0
M  V30 7777 N 746.441 0.193421 1.56409 0
M  V30 7778 C 747.371 -0.723334 2.22014 0
M  V30 7779 C 748.352 -1.22254 1.1827 0
M  V30 7780 O 749.537 -1.27168 1.46771 0
M  V30 7781 C 746.667 -1.94366 2.87818 0
M  V30 7782 C 745.621 -1.57943 3.97791 0
M  V30 7783 C 744.947 -2.87623 4.50752 0
M  V30 7784 C 746.247 -0.790639 5.16281 0
M  V30 7785 H 747.941 -0.176426 2.9888 0
M  V30 7786 H 745.487 -0.0834166 1.43758 0
M  V30 7787 H 747.44 -2.5902 3.32396 0
M  V30 7788 H 746.164 -2.51507 2.08355 0
M  V30 7789 H 744.823 -0.956482 3.53903 0
M  V30 7790 H 744.471 -3.4285 3.68053 0
M  V30 7791 H 744.171 -2.63998 5.24956 0
M  V30 7792 H 745.695 -3.53268 4.9803 0
M  V30 7793 H 747.109 -1.34024 5.57414 0
M  V30 7794 H 745.506 -0.65258 5.96541 0
M  V30 7795 H 746.576 0.208633 4.84451 0
M  V30 7796 N 747.919 -1.57396 -0.0801906 0
M  V30 7797 C 748.866 -2.03107 -1.09618 0
M  V30 7798 C 749.836 -0.910118 -1.38946 0
M  V30 7799 O 751.021 -1.17719 -1.50156 0
M  V30 7800 C 748.161 -2.47293 -2.40708 0
M  V30 7801 C 747.274 -3.72972 -2.17982 0
M  V30 7802 C 746.409 -4.05975 -3.42576 0
M  V30 7803 C 745.448 -5.24719 -3.15177 0
M  V30 7804 N 744.585 -5.53401 -4.32078 0
M  V30 7805 H 749.425 -2.89677 -0.69939 0
M  V30 7806 H 746.962 -1.43263 -0.333785 0
M  V30 7807 H 748.92 -2.7096 -3.17232 0
M  V30 7808 H 747.55 -1.63713 -2.78205 0
M  V30 7809 H 746.602 -3.56693 -1.32189 0
M  V30 7810 H 747.914 -4.59638 -1.93738 0
M  V30 7811 H 747.068 -4.30498 -4.275 0
M  V30 7812 H 745.807 -3.17859 -3.69887 0
M  V30 7813 H 744.812 -5 -2.28648 0
M  V30 7814 H 746.037 -6.14445 -2.89197 0
M  V30 7815 H 743.983 -4.68245 -4.59437 0
M  V30 7816 H 743.9 -6.34469 -4.11078 0
M  V30 7817 H 745.168 -5.8247 -5.18024 0
M  V30 7818 N 749.397 0.351382 -1.53633 0
M  V30 7819 C 750.674 1.10903 -1.6112 0
M  V30 7820 C 751.054 2.06725 -0.427556 0
M  V30 7821 O 750.402 2.20992 0.580916 0
M  V30 7822 C 750.612 1.83561 -2.96827 0
M  V30 7823 C 751.96 2.37587 -3.51906 0
M  V30 7824 O 752.984 1.93669 -2.9895 0
M  V30 7825 O 751.843 3.17913 -4.44515 0
M  V30 7826 H 748.937 0.509558 -0.651368 0
M  V30 7827 H 751.483 0.353504 -1.65977 0
M  V30 7828 H 750.255 1.1371 -3.74414 0
M  V30 7829 H 749.878 2.6599 -2.95525 0
M  V30 7830 N 750.875 1.45233 0.611969 0
M  V30 7831 C 751.838 1.53189 1.70487 0
M  V30 7832 C 752.838 0.411839 1.55437 0
M  V30 7833 O 754.028 0.675164 1.60584 0
M  V30 7834 C 751.16 1.42422 3.09723 0
M  V30 7835 H 752.353 2.5056 1.64802 0
M  V30 7836 H 749.906 1.32609 0.827318 0
M  V30 7837 H 750.641 0.462185 3.2099 0
M  V30 7838 H 750.426 2.23658 3.22055 0
M  V30 7839 H 751.916 1.51012 3.89339 0
M  V30 7840 N 752.353 -0.854086 1.3245 0
M  V30 7841 C 753.769 -1.14238 1.11453 0
M  V30 7842 C 753.969 -2.01228 -0.10461 0
M  V30 7843 O 753.025 -2.39845 -0.789339 0
M  V30 7844 C 754.338 -1.81916 2.39431 0
M  V30 7845 C 755.886 -1.94549 2.45193 0
M  V30 7846 C 756.361 -2.65642 3.73093 0
M  V30 7847 N 757.852 -2.73167 3.74078 0
M  V30 7848 C 758.587 -3.28828 4.69744 0
M  V30 7849 N 758.083 -3.85295 5.75778 0
M  V30 7850 N 759.876 -3.26936 4.57241 0
M  V30 7851 H 752.027 -0.274786 2.10615 0
M  V30 7852 H 754.29 -0.184375 0.929898 0
M  V30 7853 H 753.996 -1.25452 3.28565 0
M  V30 7854 H 753.87 -2.82068 2.50434 0
M  V30 7855 H 756.257 -2.50172 1.56518 0
M  V30 7856 H 756.338 -0.933914 2.38142 0
M  V30 7857 H 755.982 -2.10683 4.62142 0
M  V30 7858 H 755.912 -3.6724 3.77415 0
M  V30 7859 H 758.403 -2.33108 2.97438 0
M  V30 7860 H 758.716 -4.25925 6.44832 0
M  V30 7861 H 757.061 -3.83625 5.79531 0
M  V30 7862 H 760.252 -2.8207 3.7357 0
M  V30 7863 H 760.425 -3.70014 5.31971 0
M  V30 7864 N 753.831 -1.1567 -1.07043 0
M  V30 7865 C 755.078 -0.933517 -1.79699 0
M  V30 7866 C 755.406 0.539162 -1.86878 0
M  V30 7867 O 754.661 1.41592 -1.35093 0
M  V30 7868 C 754.96 -1.49677 -3.24548 0
M  V30 7869 C 754.626 -2.99047 -3.37463 0
M  V30 7870 C 753.288 -3.39824 -3.40695 0
M  V30 7871 C 755.64 -3.95027 -3.40004 0
M  V30 7872 C 752.968 -4.75215 -3.44075 0
M  V30 7873 C 755.32 -5.30295 -3.44921 0
M  V30 7874 C 753.984 -5.70562 -3.46432 0
M  V30 7875 H 753.254 -0.341598 -0.657565 0
M  V30 7876 H 755.901 -1.44263 -1.25938 0
M  V30 7877 H 754.206 -0.908915 -3.81111 0
M  V30 7878 H 755.903 -1.29986 -3.79348 0
M  V30 7879 H 752.493 -2.6653 -3.35648 0
M  V30 7880 H 756.677 -3.64596 -3.36725 0
M  V30 7881 H 751.933 -5.05754 -3.43545 0
M  V30 7882 H 756.107 -6.0446 -3.45833 0
M  V30 7883 H 753.734 -6.75456 -3.48803 0
M  V30 7884 N 755.309 1.25446 -0.953992 0
M  V30 7885 C 756.241 2.25111 -0.431004 0
M  V30 7886 C 757.254 1.56377 0.452764 0
M  V30 7887 O 758.443 1.76579 0.261144 0
M  V30 7888 C 755.543 3.3655 0.39839 0
M  V30 7889 C 754.716 4.34843 -0.472229 0
M  V30 7890 C 753.775 5.25351 0.29886 0
M  V30 7891 O 752.801 5.68396 -0.302522 0
M  V30 7892 N 754.003 5.5824 1.59211 0
M  V30 7893 H 756.768 2.70619 -1.28785 0
M  V30 7894 H 754.329 1.39346 -0.824281 0
M  V30 7895 H 756.321 3.94059 0.921941 0
M  V30 7896 H 754.891 2.90436 1.15609 0
M  V30 7897 H 754.111 3.76222 -1.17689 0
M  V30 7898 H 755.399 4.97497 -1.06648 0
M  V30 7899 H 754.797 5.25172 2.10264 0
M  V30 7900 H 753.354 6.18336 2.06164 0
M  V30 7901 N 756.787 0.722489 1.40064 0
M  V30 7902 C 758.064 0.191829 1.94657 0
M  V30 7903 C 758.444 -1.30389 1.66018 0
M  V30 7904 O 757.792 -2.06342 0.981588 0
M  V30 7905 C 758.002 0.511978 3.45224 0
M  V30 7906 C 759.35 0.454426 4.22161 0
M  V30 7907 O 760.374 0.448438 3.53366 0
M  V30 7908 O 759.233 0.437986 5.44742 0
M  V30 7909 H 756.327 0.0307821 0.826427 0
M  V30 7910 H 758.873 0.800493 1.49634 0
M  V30 7911 H 757.645 1.54622 3.59455 0
M  V30 7912 H 757.268 -0.126296 3.97399 0
M  V30 7913 N 758.265 -1.50454 0.469181 0
M  V30 7914 C 759.215 -2.25381 -0.344582 0
M  V30 7915 C 760.199 -1.28892 -0.963098 0
M  V30 7916 O 761.391 -1.53805 -0.875964 0
M  V30 7917 C 758.52 -3.12232 -1.4271 0
M  V30 7918 C 757.606 -4.16168 -0.816411 0
M  V30 7919 N 757.997 -5.05762 0.0621424 0
M  V30 7920 C 756.295 -4.32712 -1.08056 0
M  V30 7921 C 756.996 -5.80264 0.408519 0
M  V30 7922 N 755.972 -5.43171 -0.215827 0
M  V30 7923 H 759.774 -2.92016 0.332237 0
M  V30 7924 H 757.288 -1.59911 0.283209 0
M  V30 7925 H 759.285 -3.64514 -2.02324 0
M  V30 7926 H 757.945 -2.47145 -2.10593 0
M  V30 7927 H 758.956 -5.16105 0.430841 0
M  V30 7928 H 755.633 -3.78844 -1.75452 0
M  V30 7929 H 757.023 -6.62408 1.12539 0
M  V30 7930 N 759.743 -0.201713 -1.56304 0
M  V30 7931 C 760.675 0.748466 -2.16635 0
M  V30 7932 C 761.688 1.172 -1.12996 0
M  V30 7933 O 762.877 1.10658 -1.40061 0
M  V30 7934 C 759.977 2.02296 -2.719 0
M  V30 7935 C 759.15 1.75818 -4.00508 0
M  V30 7936 C 758.209 2.87779 -4.40533 0
M  V30 7937 O 757.235 2.57101 -5.07826 0
M  V30 7938 N 758.437 4.16287 -4.04581 0
M  V30 7939 H 761.202 0.232505 -2.98797 0
M  V30 7940 H 758.763 -0.0199822 -1.61888 0
M  V30 7941 H 760.755 2.7635 -2.95657 0
M  V30 7942 H 759.325 2.44996 -1.94154 0
M  V30 7943 H 758.545 0.855095 -3.84814 0
M  V30 7944 H 759.833 1.55532 -4.84445 0
M  V30 7945 H 759.231 4.44061 -3.50466 0
M  V30 7946 H 757.788 4.86946 -4.33274 0
M  V30 7947 N 761.222 1.57436 0.0718424 0
M  V30 7948 C 762.499 1.78312 0.804006 0
M  V30 7949 C 762.879 0.789273 1.9579 0
M  V30 7950 O 762.227 -0.177605 2.27809 0
M  V30 7951 C 762.437 3.24798 1.277 0
M  V30 7952 C 763.785 3.88627 1.71039 0
M  V30 7953 O 764.809 3.28689 1.37266 0
M  V30 7954 O 763.668 4.94073 2.33567 0
M  V30 7955 H 760.762 0.73178 0.385262 0
M  V30 7956 H 763.308 1.69621 0.0519219 0
M  V30 7957 H 762.08 3.88688 0.45134 0
M  V30 7958 H 761.703 3.38213 2.0904 0
M  V30 7959 N 762.7 -0.34323 1.53817 0
M  V30 7960 C 763.65 -1.42217 1.78208 0
M  V30 7961 C 764.634 -1.4774 0.637304 0
M  V30 7962 O 765.826 -1.52605 0.896705 0
M  V30 7963 C 762.955 -2.79354 1.9954 0
M  V30 7964 C 762.041 -2.78222 3.20084 0
M  V30 7965 N 762.432 -2.46719 4.41547 0
M  V30 7966 C 760.73 -3.09368 3.21259 0
M  V30 7967 C 761.431 -2.53828 5.23399 0
M  V30 7968 N 760.407 -2.89464 4.60121 0
M  V30 7969 H 764.209 -1.16759 2.69712 0
M  V30 7970 H 761.723 -0.551592 1.52746 0
M  V30 7971 H 763.72 -3.57095 2.15148 0
M  V30 7972 H 762.38 -3.05759 1.09278 0
M  V30 7973 H 763.391 -2.19912 4.68891 0
M  V30 7974 H 760.068 -3.40942 2.40966 0
M  V30 7975 H 761.458 -2.32629 6.30344 0
M  V30 7976 N 764.178 -1.45556 -0.604258 0
M  V30 7977 C 765.141 -1.54091 -1.69672 0
M  V30 7978 C 766.141 -0.420076 -1.55216 0
M  V30 7979 O 767.331 -0.683671 -1.60224 0
M  V30 7980 C 764.463 -1.44063 -3.08964 0
M  V30 7981 H 765.656 -2.51431 -1.6347 0
M  V30 7982 H 763.209 -1.33046 -0.820273 0
M  V30 7983 H 763.944 -0.479201 -3.2074 0
M  V30 7984 H 763.729 -2.25362 -3.20865 0
M  V30 7985 H 765.219 -1.53075 -3.88533 0
M  V30 7986 N 765.656 0.84705 -1.32902 0
M  V30 7987 C 766.586 1.97166 -1.25091 0
M  V30 7988 C 767.567 1.69578 -0.133161 0
M  V30 7989 O 768.752 1.91519 -0.321591 0
M  V30 7990 C 765.882 3.33157 -0.981006 0
M  V30 7991 C 764.836 3.75119 -2.06082 0
M  V30 7992 C 764.162 5.08826 -1.64318 0
M  V30 7993 C 765.462 3.89774 -3.47669 0
M  V30 7994 H 767.156 2.03958 -2.19184 0
M  V30 7995 H 764.702 0.979907 -1.05517 0
M  V30 7996 H 766.655 4.11393 -0.912891 0
M  V30 7997 H 765.379 3.266 -0.00445559 0
M  V30 7998 H 764.038 2.9914 -2.11921 0
M  V30 7999 H 763.686 4.98732 -0.653876 0
M  V30 8000 H 763.386 5.37873 -2.36572 0
M  V30 8001 H 764.91 5.89546 -1.58958 0
M  V30 8002 H 766.324 4.58343 -3.44376 0
M  V30 8003 H 764.721 4.30248 -4.18338 0
M  V30 8004 H 765.791 2.92463 -3.86773 0
M  V30 8005 N 767.134 1.16236 1.06428 0
M  V30 8006 C 768.064 0.890807 2.1584 0
M  V30 8007 C 769.045 -0.162333 1.69324 0
M  V30 8008 O 770.23 -0.0147191 1.94194 0
M  V30 8009 C 767.36 0.389615 3.45108 0
M  V30 8010 C 766.314 1.38051 4.05125 0
M  V30 8011 C 765.64 0.737773 5.29586 0
M  V30 8012 C 766.94 2.74965 4.44062 0
M  V30 8013 H 768.634 1.80577 2.38814 0
M  V30 8014 H 766.18 0.869657 1.14774 0
M  V30 8015 H 768.133 0.187127 4.20984 0
M  V30 8016 H 766.857 -0.560851 3.21748 0
M  V30 8017 H 765.516 1.56952 3.31303 0
M  V30 8018 H 765.164 -0.219135 5.02522 0
M  V30 8019 H 764.864 1.39914 5.70699 0
M  V30 8020 H 766.388 0.545275 6.0816 0
M  V30 8021 H 767.802 2.59855 5.11027 0
M  V30 8022 H 766.199 3.37563 4.96156 0
M  V30 8023 H 767.269 3.30321 3.54987 0
M  V30 8024 N 768.612 -1.24939 0.960631 0
M  V30 8025 C 769.542 -2.28 0.503815 0
M  V30 8026 C 770.523 -1.63959 -0.452928 0
M  V30 8027 O 771.708 -1.91009 -0.350585 0
M  V30 8028 C 768.838 -3.46643 -0.213535 0
M  V30 8029 C 767.792 -4.22903 0.658535 0
M  V30 8030 C 767.118 -5.34363 -0.189902 0
M  V30 8031 C 768.418 -4.84949 1.93963 0
M  V30 8032 H 770.112 -2.66462 1.36521 0
M  V30 8033 H 767.658 -1.28093 0.657897 0
M  V30 8034 H 769.611 -4.1787 -0.544286 0
M  V30 8035 H 768.335 -3.07187 -1.10923 0
M  V30 8036 H 766.994 -3.53467 0.972455 0
M  V30 8037 H 766.642 -4.91147 -1.08553 0
M  V30 8038 H 766.342 -5.86302 0.390331 0
M  V30 8039 H 767.866 -6.0842 -0.515484 0
M  V30 8040 H 769.28 -5.48288 1.67491 0
M  V30 8041 H 767.677 -5.47091 2.46601 0
M  V30 8042 H 768.747 -4.06799 2.639 0
M  V30 8043 N 770.09 -0.729906 -1.39679 0
M  V30 8044 C 771.315 -0.284345 -2.05442 0
M  V30 8045 C 771.74 1.07056 -1.54663 0
M  V30 8046 O 771.098 1.67732 -0.688157 0
M  V30 8047 C 771.146 -0.290089 -3.59431 0
M  V30 8048 O 770.25 0.723978 -4.05995 0
M  V30 8049 H 769.591 -0.130311 -0.651088 0
M  V30 8050 H 772.121 -0.994403 -1.78809 0
M  V30 8051 H 772.131 -0.132712 -4.07784 0
M  V30 8052 H 770.806 -1.27877 -3.95753 0
M  V30 8053 H 769.383 0.533154 -3.69069 0
M  V30 8054 N 771.568 1.50203 -0.477153 0
M  V30 8055 C 772.796 2.0677 0.0732489 0
M  V30 8056 C 773.211 1.34033 1.32968 0
M  V30 8057 O 772.568 0.411412 1.77802 0
M  V30 8058 C 772.619 3.59751 0.35518 0
M  V30 8059 O 772.34 4.29747 -0.851425 0
M  V30 8060 C 773.841 4.3296 0.951877 0
M  V30 8061 H 771.061 0.670929 -0.00978923 0
M  V30 8062 H 773.605 1.93293 -0.667676 0
M  V30 8063 H 771.76 3.7301 1.04605 0
M  V30 8064 H 772.174 5.2106 -0.599708 0
M  V30 8065 H 773.648 5.40952 1.09888 0
M  V30 8066 H 774.125 3.93856 1.94356 0
M  V30 8067 H 774.731 4.24246 0.299208 0
M  V30 8068 N 773.046 0.209999 1.56195 0
M  V30 8069 C 774.274 -0.429996 2.02382 0
M  V30 8070 C 774.689 -1.54159 1.08998 0
M  V30 8071 O 774.046 -1.82239 0.0974856 0
M  V30 8072 C 774.097 -0.972433 3.48175 0
M  V30 8073 O 773.818 0.0948231 4.37997 0
M  V30 8074 C 775.319 -1.68683 4.09952 0
M  V30 8075 H 772.539 -0.106475 0.662498 0
M  V30 8076 H 775.083 0.323072 2.01932 0
M  V30 8077 H 773.238 -1.67582 3.49278 0
M  V30 8078 H 773.652 -0.31113 5.23576 0
M  V30 8079 H 775.126 -2.01851 5.13771 0
M  V30 8080 H 775.603 -2.59587 3.54276 0
M  V30 8081 H 776.209 -1.02893 4.12666 0
M  V30 8082 N 774.524 -1.57472 -0.0634922 0
M  V30 8083 C 775.801 -1.78736 -0.794538 0
M  V30 8084 C 776.181 -0.799645 -1.95369 0
M  V30 8085 O 775.529 0.165521 -2.279 0
M  V30 8086 C 775.739 -3.25471 -1.25975 0
M  V30 8087 C 777.087 -3.89528 -1.68976 0
M  V30 8088 O 778.111 -3.29412 -1.35521 0
M  V30 8089 O 776.97 -4.95305 -2.30944 0
M  V30 8090 H 774.064 -0.733813 -0.381376 0
M  V30 8091 H 776.61 -1.69646 -0.0429258 0
M  V30 8092 H 775.382 -3.88922 -0.430721 0
M  V30 8093 H 775.005 -3.39317 -2.07243 0
M  V30 8094 N 776.003 0.335068 -1.53997 0
M  V30 8095 C 777.249 1.07594 -1.71905 0
M  V30 8096 C 777.582 1.88039 -0.485264 0
M  V30 8097 O 776.857 1.87482 0.517752 0
M  V30 8098 C 777.14 2.01016 -2.98772 0
M  V30 8099 C 776.993 1.23977 -4.32377 0
M  V30 8100 C 778.312 3.0071 -3.21343 0
M  V30 8101 H 775.431 0.38976 -0.625505 0
M  V30 8102 H 778.073 0.353684 -1.86679 0
M  V30 8103 H 776.223 2.62603 -2.86307 0
M  V30 8104 H 777.895 0.649383 -4.56706 0
M  V30 8105 H 776.138 0.541878 -4.30402 0
M  V30 8106 H 776.809 1.92512 -5.17342 0
M  V30 8107 H 779.285 2.4924 -3.33194 0
M  V30 8108 H 778.161 3.63272 -4.11491 0
M  V30 8109 H 778.422 3.72549 -2.38033 0
M  V30 8110 N 777.481 1.45874 0.596531 0
M  V30 8111 C 778.892 1.44798 1.17857 0
M  V30 8112 C 779.243 0.181443 1.95359 0
M  V30 8113 O 778.368 -0.716336 2.042 0
M  V30 8114 C 778.963 2.62333 2.14398 0
M  V30 8115 C 777.522 2.64342 2.67955 0
M  V30 8116 C 776.669 2.37244 1.43564 0
M  V30 8117 H 779.62 1.53954 0.385222 0
M  V30 8118 H 779.641 2.37063 2.97626 0
M  V30 8119 H 779.153 3.54499 1.57963 0
M  V30 8120 H 777.254 1.76213 3.28298 0
M  V30 8121 H 777.367 3.63897 3.11634 0
M  V30 8122 H 775.731 1.87022 1.72901 0
M  V30 8123 H 776.514 3.31568 0.889805 0
M  V30 8124 N 778.959 -0.83999 1.33349 0
M  V30 8125 C 779.922 -1.93128 1.23426 0
M  V30 8126 C 780.922 -1.60065 0.153599 0
M  V30 8127 O 782.112 -1.69425 0.405049 0
M  V30 8128 C 779.244 -3.28761 0.901622 0
M  V30 8129 H 780.437 -2.03352 2.20427 0
M  V30 8130 H 777.99 -1.03194 1.17391 0
M  V30 8131 H 778.725 -3.24233 -0.0659337 0
M  V30 8132 H 778.51 -3.54138 1.68311 0
M  V30 8133 H 780 -4.08714 0.856913 0
M  V30 8134 N 780.437 -1.16799 -1.0581 0
M  V30 8135 C 781.662 -0.977402 -1.82925 0
M  V30 8136 C 782.087 0.469514 -1.82146 0
M  V30 8137 O 781.445 1.33576 -1.22585 0
M  V30 8138 C 781.493 -1.51543 -3.27211 0
M  V30 8139 O 780.597 -0.725021 -4.05977 0
M  V30 8140 H 779.938 -0.347474 -0.565825 0
M  V30 8141 H 782.468 -1.55151 -1.33376 0
M  V30 8142 H 782.478 -1.53502 -3.78023 0
M  V30 8143 H 781.153 -2.56872 -3.27093 0
M  V30 8144 H 779.73 -0.77634 -3.64729 0
M  V30 8145 N 781.915 1.24427 -0.967243 0
M  V30 8146 C 782.825 2.29109 -0.504592 0
M  V30 8147 C 783.841 1.68495 0.434224 0
M  V30 8148 O 785.017 1.99041 0.307379 0
M  V30 8149 C 782.082 3.46133 0.198273 0
M  V30 8150 C 781.143 4.22149 -0.780313 0
M  V30 8151 C 780.376 5.33585 -0.110896 0
M  V30 8152 O 780.599 5.59676 1.10088 0
M  V30 8153 O 779.533 5.96522 -0.802823 0
M  V30 8154 H 783.359 2.708 -1.37482 0
M  V30 8155 H 780.944 1.30111 -0.73426 0
M  V30 8156 H 782.826 4.17205 0.593124 0
M  V30 8157 H 781.501 3.0642 1.04347 0
M  V30 8158 H 780.408 3.53454 -1.22561 0
M  V30 8159 H 781.741 4.65677 -1.59392 0
M  V30 8160 N 783.393 0.737304 1.3929 0
M  V30 8161 C 784.618 0.295237 2.05288 0
M  V30 8162 C 785.043 -1.06235 1.55228 0
M  V30 8163 O 784.401 -1.67365 0.697043 0
M  V30 8164 C 784.449 0.309146 3.59272 0
M  V30 8165 O 783.553 -0.702437 4.06374 0
M  V30 8166 H 782.894 0.133762 0.650387 0
M  V30 8167 H 785.424 1.00387 1.78279 0
M  V30 8168 H 785.434 0.154336 4.07708 0
M  V30 8169 H 784.109 1.29974 3.95069 0
M  V30 8170 H 782.686 -0.513574 3.69346 0
M  V30 8171 N 784.871 -1.49948 0.485112 0
M  V30 8172 C 785.834 -2.27351 -0.290546 0
M  V30 8173 C 786.834 -1.32704 -0.908087 0
M  V30 8174 O 788.024 -1.56007 -0.775085 0
M  V30 8175 C 785.156 -3.10135 -1.41524 0
M  V30 8176 H 786.349 -2.97374 0.388454 0
M  V30 8177 H 783.902 -1.54453 0.239586 0
M  V30 8178 H 784.637 -2.44641 -2.12888 0
M  V30 8179 H 784.422 -3.79705 -0.978074 0
M  V30 8180 H 785.912 -3.68638 -1.96204 0
M  V30 8181 N 786.349 -0.21828 -1.56081 0
M  V30 8182 C 787.577 0.419258 -2.02608 0
M  V30 8183 C 787.992 1.53578 -1.09814 0
M  V30 8184 O 787.349 1.82185 -0.107149 0
M  V30 8185 C 787.4 0.953955 -3.48686 0
M  V30 8186 O 787.121 -0.11805 -4.37941 0
M  V30 8187 C 788.622 1.66506 -4.10841 0
M  V30 8188 H 785.842 0.10296 -0.663054 0
M  V30 8189 H 788.386 -0.333776 -2.01758 0
M  V30 8190 H 786.541 1.65727 -3.50162 0
M  V30 8191 H 786.955 0.283359 -5.23734 0
M  V30 8192 H 788.429 1.99123 -5.14834 0
M  V30 8193 H 788.906 2.57705 -3.55647 0
M  V30 8194 H 789.512 1.00703 -4.13206 0
M  V30 8195 N 787.827 1.57504 0.0551401 0
M  V30 8196 C 789.073 1.88334 0.752216 0
M  V30 8197 C 789.406 0.812742 1.76375 0
M  V30 8198 O 788.681 -0.175198 1.93709 0
M  V30 8199 C 788.964 3.29824 1.44528 0
M  V30 8200 C 788.817 4.47553 0.449026 0
M  V30 8201 C 790.136 3.69808 2.38601 0
M  V30 8202 H 787.255 0.684973 0.271995 0
M  V30 8203 H 789.897 1.89994 0.0151895 0
M  V30 8204 H 788.047 3.28539 2.07351 0
M  V30 8205 H 789.719 4.60967 -0.175277 0
M  V30 8206 H 787.962 4.33168 -0.234162 0
M  V30 8207 H 788.633 5.43376 0.971917 0
M  V30 8208 H 791.109 3.72293 1.85842 0
M  V30 8209 H 789.985 4.69665 2.84088 0
M  V30 8210 H 790.246 3.00641 3.24141 0
M  V30 8211 N 789.305 -0.326896 1.54172 0
M  V30 8212 C 790.533 -1.08486 1.76177 0
M  V30 8213 C 790.948 -1.81815 0.508788 0
M  V30 8214 O 790.305 -1.74924 -0.520362 0
M  V30 8215 C 790.356 -2.08552 2.95276 0
M  V30 8216 O 790.077 -1.38202 4.15731 0
M  V30 8217 C 791.578 -2.96593 3.29466 0
M  V30 8218 H 788.798 -0.322835 0.588233 0
M  V30 8219 H 791.342 -0.374036 2.0105 0
M  V30 8220 H 789.497 -2.75174 2.72687 0
M  V30 8221 H 789.911 -2.05186 4.827 0
M  V30 8222 H 791.385 -3.62708 4.16109 0
M  V30 8223 H 791.862 -3.63511 2.46487 0
M  V30 8224 H 792.468 -2.35537 3.54122 0
M  V30 8225 N 790.784 -1.46188 -0.588786 0
M  V30 8226 C 792.009 -1.5498 -1.37826 0
M  V30 8227 C 792.434 -0.189498 -1.87143 0
M  V30 8228 O 791.792 0.829293 -1.61222 0
M  V30 8229 C 791.84 -2.55369 -2.54596 0
M  V30 8230 O 790.944 -2.08452 -3.55839 0
M  V30 8231 H 790.285 -0.521741 -0.41071 0
M  V30 8232 H 792.815 -1.91708 -0.714779 0
M  V30 8233 H 792.825 -2.74782 -3.01594 0
M  V30 8234 H 791.5 -3.54155 -2.18052 0
M  V30 8235 H 790.077 -1.98999 -3.15363 0
M  V30 8236 N 792.262 0.832906 -1.33792 0
M  V30 8237 C 793.225 1.92471 -1.24449 0
M  V30 8238 C 794.225 1.59981 -0.162085 0
M  V30 8239 O 795.415 1.69208 -0.414029 0
M  V30 8240 C 792.547 3.28278 -0.919044 0
M  V30 8241 H 793.74 2.0218 -2.21502 0
M  V30 8242 H 791.293 1.0257 -1.17936 0
M  V30 8243 H 792.028 3.24263 0.048738 0
M  V30 8244 H 791.813 3.53241 -1.70187 0
M  V30 8245 H 793.303 4.08253 -0.878576 0
M  V30 8246 N 793.74 1.17359 1.05189 0
M  V30 8247 C 794.968 0.986529 1.81866 0
M  V30 8248 C 795.383 -0.46522 1.82979 0
M  V30 8249 O 794.74 -1.32305 1.25705 0
M  V30 8250 C 794.791 1.52021 3.27982 0
M  V30 8251 O 794.512 2.91511 3.27037 0
M  V30 8252 C 796.013 1.37774 4.21347 0
M  V30 8253 H 793.233 0.349021 0.573084 0
M  V30 8254 H 795.777 1.55648 1.32643 0
M  V30 8255 H 793.932 0.992287 3.74476 0
M  V30 8256 H 794.346 3.16178 4.18488 0
M  V30 8257 H 795.82 1.7993 5.21852 0
M  V30 8258 H 796.297 0.32483 4.37997 0
M  V30 8259 H 796.903 1.89583 3.80708 0
M  V30 8260 N 795.218 -1.23913 0.973828 0
M  V30 8261 C 796.465 -1.92151 0.639079 0
M  V30 8262 C 796.793 -1.76064 -0.826545 0
M  V30 8263 O 796.048 -1.11126 -1.61088 0
M  V30 8264 C 796.347 -3.4406 0.967356 0
M  V30 8265 C 796.013 -3.80321 2.42212 0
M  V30 8266 C 794.675 -3.8993 2.81971 0
M  V30 8267 C 797.027 -3.97935 3.36596 0
M  V30 8268 C 794.355 -4.14575 4.15144 0
M  V30 8269 C 796.707 -4.24079 4.69404 0
M  V30 8270 C 795.371 -4.31908 5.08932 0
M  V30 8271 H 794.641 -0.70313 0.233856 0
M  V30 8272 H 797.288 -1.47072 1.22646 0
M  V30 8273 H 795.593 -3.90667 0.297807 0
M  V30 8274 H 797.29 -3.95077 0.686654 0
M  V30 8275 H 793.88 -3.73411 2.10385 0
M  V30 8276 H 798.064 -3.89908 3.07059 0
M  V30 8277 H 793.32 -4.18858 4.45385 0
M  V30 8278 H 797.494 -4.36652 5.42502 0
M  V30 8279 H 795.121 -4.50758 6.12145 0
M  V30 8280 N 796.696 -0.74468 -1.38897 0
M  V30 8281 C 798.107 -0.36568 -1.83084 0
M  V30 8282 C 798.458 1.10436 -1.62168 0
M  V30 8283 O 797.583 1.85281 -1.11804 0
M  V30 8284 C 798.178 -0.656946 -3.3237 0
M  V30 8285 C 796.737 -0.331329 -3.74939 0
M  V30 8286 C 795.884 -0.914661 -2.61781 0
M  V30 8287 H 798.835 -0.941551 -1.27752 0
M  V30 8288 H 798.856 0.0679546 -3.80439 0
M  V30 8289 H 798.368 -1.72693 -3.47561 0
M  V30 8290 H 796.469 0.732426 -3.6533 0
M  V30 8291 H 796.582 -0.820655 -4.72019 0
M  V30 8292 H 794.946 -0.34063 -2.52412 0
M  V30 8293 H 795.729 -1.98949 -2.79775 0
M  V30 8294 N 798.174 1.49689 -0.493057 0
M  V30 8295 C 799.137 2.27502 0.278485 0
M  V30 8296 C 800.137 1.33184 0.901037 0
M  V30 8297 O 801.327 1.56415 0.766801 0
M  V30 8298 C 798.459 3.10881 1.39878 0
M  V30 8299 H 799.652 2.97163 -0.404219 0
M  V30 8300 H 797.205 1.54324 -0.247774 0
M  V30 8301 H 797.94 2.45767 2.11587 0
M  V30 8302 H 797.725 3.80219 0.957924 0
M  V30 8303 H 799.215 3.69673 1.94247 0
M  V30 8304 N 799.652 0.226554 1.55963 0
M  V30 8305 C 801.063 -0.280381 1.84583 0
M  V30 8306 C 801.414 -1.59105 1.14804 0
M  V30 8307 O 800.539 -2.12297 0.419414 0
M  V30 8308 C 801.134 -0.515499 3.34855 0
M  V30 8309 C 799.693 -0.966733 3.63774 0
M  V30 8310 C 798.84 -0.0325753 2.77281 0
M  V30 8311 H 801.791 0.449626 1.52197 0
M  V30 8312 H 801.812 -1.36085 3.55332 0
M  V30 8313 H 801.324 0.438594 3.85614 0
M  V30 8314 H 799.425 -1.93401 3.18476 0
M  V30 8315 H 799.538 -0.837679 4.7172 0
M  V30 8316 H 797.902 -0.540279 2.48904 0
M  V30 8317 H 798.685 0.916524 3.30839 0
M  V30 8318 N 801.13 -1.57531 -0.0467866 0
M  V30 8319 C 802.379 -1.87632 -0.740069 0
M  V30 8320 C 802.692 -0.822691 -1.77457 0
M  V30 8321 O 803.898 -1.01235 -2.5192 0
M  V30 8322 C 802.354 -3.32917 -1.36727 0
M  V30 8323 C 801.962 -4.46469 -0.370035 0
M  V30 8324 C 803.706 -3.72189 -2.04146 0
M  V30 8325 C 801.613 -5.82806 -1.00457 0
M  V30 8326 H 800.543 -0.70002 -0.280158 0
M  V30 8327 H 803.194 -1.83499 0.00607151 0
M  V30 8328 H 801.576 -3.31739 -2.16252 0
M  V30 8329 H 802.75 -4.59085 0.397217 0
M  V30 8330 H 801.065 -4.15914 0.201079 0
M  V30 8331 H 803.662 -4.71357 -2.52441 0
M  V30 8332 H 804.005 -3.03268 -2.85192 0
M  V30 8333 H 804.538 -3.75465 -1.3142 0
M  V30 8334 H 801.277 -6.55083 -0.233907 0
M  V30 8335 H 800.797 -5.73944 -1.74209 0
M  V30 8336 H 802.476 -6.28961 -1.51713 0
M  V30 8337 N 802.608 0.318715 -1.54344 0
M  V30 8338 C 803.555 1.39242 -1.84066 0
M  V30 8339 C 804.525 1.51175 -0.688134 0
M  V30 8340 O 805.71 1.66318 -0.935039 0
M  V30 8341 C 802.85 2.75528 -2.07794 0
M  V30 8342 C 801.963 2.72187 -3.35467 0
M  V30 8343 C 801.098 4.00352 -3.4913 0
M  V30 8344 C 800.137 3.91338 -4.7066 0
M  V30 8345 N 799.274 5.11242 -4.81224 0
M  V30 8346 H 804.114 1.13196 -2.75664 0
M  V30 8347 H 801.651 0.547857 -1.36517 0
M  V30 8348 H 803.609 3.54763 -2.19543 0
M  V30 8349 H 802.239 2.99873 -1.19482 0
M  V30 8350 H 801.291 1.84917 -3.3243 0
M  V30 8351 H 802.603 2.61411 -4.24812 0
M  V30 8352 H 801.757 4.88019 -3.60448 0
M  V30 8353 H 800.496 4.1394 -2.57886 0
M  V30 8354 H 799.501 3.02055 -4.59394 0
M  V30 8355 H 800.726 3.7931 -5.63294 0
M  V30 8356 H 798.672 5.25327 -3.92897 0
M  V30 8357 H 798.589 5.0282 -5.64543 0
M  V30 8358 H 799.857 6.0061 -4.96879 0
M  V30 8359 N 804.086 1.46499 0.581025 0
M  V30 8360 C 805.311 1.55708 1.37002 0
M  V30 8361 C 805.736 0.19942 1.8704 0
M  V30 8362 O 805.094 -0.820731 1.61659 0
M  V30 8363 C 805.142 2.56716 2.53238 0
M  V30 8364 O 804.246 2.10336 3.54729 0
M  V30 8365 H 803.587 0.523912 0.407937 0
M  V30 8366 H 806.117 1.92085 0.704602 0
M  V30 8367 H 806.127 2.76378 3.00132 0
M  V30 8368 H 804.802 3.55307 2.16171 0
M  V30 8369 H 803.379 2.00669 3.14303 0
M  V30 8370 N 805.565 -0.825799 1.34232 0
M  V30 8371 C 806.79 -1.61883 1.29648 0
M  V30 8372 C 807.215 -1.87669 -0.127295 0
M  V30 8373 O 806.573 -1.45016 -1.08813 0
M  V30 8374 C 806.621 -2.93846 2.09014 0
M  V30 8375 O 805.725 -3.85778 1.4577 0
M  V30 8376 H 805.066 -0.492454 0.445405 0
M  V30 8377 H 807.596 -1.02641 1.76992 0
M  V30 8378 H 807.606 -3.43435 2.20264 0
M  V30 8379 H 806.281 -2.74401 3.12533 0
M  V30 8380 H 804.858 -3.4429 1.43245 0
M  V30 8381 N 807.043 -1.17915 -1.04565 0
M  V30 8382 C 808.454 -0.976383 -1.59134 0
M  V30 8383 C 808.805 0.475267 -1.90357 0
M  V30 8384 O 807.93 1.35172 -1.6899 0
M  V30 8385 C 808.525 -1.76604 -2.89131 0
M  V30 8386 C 807.084 -1.60777 -3.40335 0
M  V30 8387 C 806.231 -1.76369 -2.13985 0
M  V30 8388 H 809.182 -1.32532 -0.872985 0
M  V30 8389 H 809.203 -1.25215 -3.59307 0
M  V30 8390 H 808.715 -2.82252 -2.66375 0
M  V30 8391 H 806.816 -0.576436 -3.68114 0
M  V30 8392 H 806.929 -2.40268 -4.14497 0
M  V30 8393 H 805.293 -1.19268 -2.25049 0
M  V30 8394 H 806.076 -2.83441 -1.9369 0
M  V30 8395 N 808.521 1.23394 -0.980386 0
M  V30 8396 C 809.761 1.93543 -0.657288 0
M  V30 8397 C 810.125 1.74791 0.794477 0
M  V30 8398 O 811.326 2.39089 1.2284 0
M  V30 8399 C 809.597 3.42025 -1.03701 0
M  V30 8400 S 811.156 4.30871 -0.830379 0
M  V30 8401 H 807.974 0.669012 -0.240717 0
M  V30 8402 H 810.576 1.49478 -1.26002 0
M  V30 8403 H 809.28 3.53183 -2.09022 0
M  V30 8404 H 808.811 3.91091 -0.425559 0
M  V30 8405 H 810.826 4.95377 0.285719 0
M  V30 8406 N 809.999 0.752036 1.385 0
M  V30 8407 C 810.909 0.125318 2.34265 0
M  V30 8408 C 811.925 -0.702437 1.59191 0
M  V30 8409 O 813.101 -0.626951 1.91393 0
M  V30 8410 C 810.166 -0.758486 3.38301 0
M  V30 8411 C 809.227 0.0834636 4.29219 0
M  V30 8412 C 808.46 -0.758252 5.28286 0
M  V30 8413 O 808.683 -1.99632 5.34325 0
M  V30 8414 O 807.617 -0.177878 6.01637 0
M  V30 8415 H 811.443 0.91617 2.89551 0
M  V30 8416 H 809.028 0.512911 1.4032 0
M  V30 8417 H 810.91 -1.26365 4.02007 0
M  V30 8418 H 809.585 -1.52786 2.85374 0
M  V30 8419 H 808.492 0.634545 3.68679 0
M  V30 8420 H 809.825 0.815455 4.85398 0
M  V30 8421 N 811.477 -1.49425 0.500989 0
M  V30 8422 C 812.407 -2.31971 -0.266775 0
M  V30 8423 C 813.388 -1.40245 -0.962563 0
M  V30 8424 O 814.573 -1.69154 -0.953968 0
M  V30 8425 C 811.703 -3.20757 -1.33163 0
M  V30 8426 C 810.657 -4.21275 -0.75572 0
M  V30 8427 C 809.983 -4.98997 -1.92109 0
M  V30 8428 C 811.283 -5.21686 0.253213 0
M  V30 8429 H 812.977 -2.96408 0.422237 0
M  V30 8430 H 810.523 -1.4254 0.204505 0
M  V30 8431 H 812.476 -3.77315 -1.87646 0
M  V30 8432 H 811.2 -2.54263 -2.04983 0
M  V30 8433 H 809.859 -3.65861 -0.232637 0
M  V30 8434 H 809.507 -4.28951 -2.62698 0
M  V30 8435 H 809.207 -5.67011 -1.54182 0
M  V30 8436 H 810.731 -5.584 -2.47026 0
M  V30 8437 H 812.145 -5.72939 -0.203483 0
M  V30 8438 H 810.542 -5.9759 0.548322 0
M  V30 8439 H 811.612 -4.70596 1.16909 0
M  V30 8440 N 812.955 -0.234822 -1.55841 0
M  V30 8441 C 814.371 0.120295 -1.59146 0
M  V30 8442 C 814.571 1.57896 -1.25184 0
M  V30 8443 O 813.627 2.32138 -0.993393 0
M  V30 8444 C 814.94 -0.217984 -2.99909 0
M  V30 8445 C 816.488 -0.161298 -3.12584 0
M  V30 8446 C 816.963 -0.473438 -4.55546 0
M  V30 8447 N 818.454 -0.423494 -4.6126 0
M  V30 8448 C 819.189 -0.638334 -5.69836 0
M  V30 8449 N 818.685 -0.915659 -6.86722 0
M  V30 8450 N 820.478 -0.569864 -5.59204 0
M  V30 8451 H 812.629 -1.18622 -1.76189 0
M  V30 8452 H 814.892 -0.476426 -0.819587 0
M  V30 8453 H 814.598 -1.2309 -3.29457 0
M  V30 8454 H 814.472 0.460707 -3.74376 0
M  V30 8455 H 816.859 0.842274 -2.82825 0
M  V30 8456 H 816.94 -0.873661 -2.40418 0
M  V30 8457 H 816.584 -1.47451 -4.86025 0
M  V30 8458 H 816.514 0.260268 -5.25956 0
M  V30 8459 H 819.005 -0.217383 -3.77274 0
M  V30 8460 H 819.318 -1.06734 -7.65394 0
M  V30 8461 H 817.663 -0.953 -6.88435 0
M  V30 8462 H 820.854 -0.35334 -4.66765 0
M  V30 8463 H 821.027 -0.740698 -6.43753 0
M  V30 8464 N 814.433 1.57553 0.0384317 0
M  V30 8465 C 815.366 2.01307 1.07475 0
M  V30 8466 C 816.344 0.895717 1.35704 0
M  V30 8467 O 817.528 1.16079 1.48519 0
M  V30 8468 C 814.655 2.37817 2.41165 0
M  V30 8469 C 813.701 3.599 2.28855 0
M  V30 8470 S 814.534 5.09418 1.65086 0
M  V30 8471 C 815.69 5.49162 3.00286 0
M  V30 8472 H 815.923 2.88892 0.702034 0
M  V30 8473 H 813.456 1.52394 0.248103 0
M  V30 8474 H 815.414 2.59524 3.18053 0
M  V30 8475 H 814.075 1.507 2.75587 0
M  V30 8476 H 813.268 3.83071 3.27525 0
M  V30 8477 H 812.87 3.37996 1.60109 0
M  V30 8478 H 815.162 5.49274 3.96617 0
M  V30 8479 H 816.105 6.49586 2.81858 0
M  V30 8480 H 816.513 4.76653 3.02427 0
M  V30 8481 N 815.911 -0.310526 1.54511 0
M  V30 8482 C 817.136 -1.07046 1.7764 0
M  V30 8483 C 817.561 -1.80488 0.529696 0
M  V30 8484 O 816.919 -1.73702 -0.519361 0
M  V30 8485 C 816.967 -2.03411 2.97752 0
M  V30 8486 O 816.071 -3.11545 2.7021 0
M  V30 8487 H 815.412 -0.307994 0.588248 0
M  V30 8488 H 817.942 -0.350848 2.01569 0
M  V30 8489 H 817.952 -2.46048 3.2546 0
M  V30 8490 H 816.627 -1.49361 3.88155 0
M  V30 8491 H 815.204 -2.7349 2.53491 0
M  V30 8492 N 817.389 -1.46805 -0.573248 0
M  V30 8493 C 818.635 -1.53816 -1.33088 0
M  V30 8494 C 818.99 -0.191162 -1.91448 0
M  V30 8495 O 818.283 0.801299 -1.7404 0
M  V30 8496 C 818.477 -2.58001 -2.47326 0
M  V30 8497 C 818.306 -4.027 -2.00157 0
M  V30 8498 C 817.076 -4.70319 -1.84737 0
M  V30 8499 C 819.274 -4.90211 -1.55557 0
M  V30 8500 N 817.256 -5.99598 -1.31739 0
M  V30 8501 C 818.627 -6.09389 -1.14215 0
M  V30 8502 C 820.682 -4.76784 -1.43461 0
M  V30 8503 C 819.385 -7.16625 -0.619809 0
M  V30 8504 C 821.411 -5.84101 -0.926297 0
M  V30 8505 C 820.773 -7.02458 -0.522715 0
M  V30 8506 H 816.872 -0.617642 -0.479627 0
M  V30 8507 H 819.456 -1.83471 -0.65164 0
M  V30 8508 H 817.627 -2.3024 -3.128 0
M  V30 8509 H 819.359 -2.54951 -3.14296 0
M  V30 8510 H 816.114 -4.25982 -2.06969 0
M  V30 8511 H 816.538 -6.68431 -1.07374 0
M  V30 8512 H 821.18 -3.85661 -1.73279 0
M  V30 8513 H 818.898 -8.07508 -0.309228 0
M  V30 8514 H 822.484 -5.75755 -0.836485 0
M  V30 8515 H 821.364 -7.84083 -0.135467 0
M  V30 8516 N 818.867 0.818669 -1.34668 0
M  V30 8517 C 819.797 1.94468 -1.29245 0
M  V30 8518 C 820.778 1.69257 -0.169101 0
M  V30 8519 O 821.963 1.90794 -0.362143 0
M  V30 8520 C 819.093 3.31001 -1.05145 0
M  V30 8521 C 818.047 3.70663 -2.13992 0
M  V30 8522 C 817.373 5.05226 -1.75074 0
M  V30 8523 C 818.673 3.82312 -3.55858 0
M  V30 8524 H 820.367 1.99263 -2.2346 0
M  V30 8525 H 817.913 0.957304 -1.07572 0
M  V30 8526 H 819.866 4.09364 -0.999949 0
M  V30 8527 H 818.59 3.26517 -0.0737312 0
M  V30 8528 H 817.249 2.94578 -2.18219 0
M  V30 8529 H 816.897 4.97233 -0.759518 0
M  V30 8530 H 816.597 5.32734 -2.47928 0
M  V30 8531 H 818.121 5.86042 -1.71427 0
M  V30 8532 H 819.535 4.50935 -3.5402 0
M  V30 8533 H 817.932 4.21278 -4.2737 0
M  V30 8534 H 819.002 2.84193 -3.9289 0
M  V30 8535 N 820.346 1.18468 1.03938 0
M  V30 8536 C 821.595 0.975193 1.76558 0
M  V30 8537 C 821.908 -0.495978 1.89207 0
M  V30 8538 O 823.114 -0.824009 2.58694 0
M  V30 8539 C 821.57 1.69579 3.17444 0
M  V30 8540 C 821.178 3.20636 3.12884 0
M  V30 8541 C 822.922 1.56917 3.94433 0
M  V30 8542 C 820.829 3.8533 4.48636 0
M  V30 8543 H 819.759 0.361244 0.66183 0
M  V30 8544 H 822.41 1.41854 1.16403 0
M  V30 8545 H 820.792 1.18022 3.78004 0
M  V30 8546 H 821.966 3.79228 2.61768 0
M  V30 8547 H 820.281 3.33454 2.49394 0
M  V30 8548 H 822.878 2.02611 4.94826 0
M  V30 8549 H 823.221 0.521638 4.13019 0
M  V30 8550 H 823.754 2.05762 3.40451 0
M  V30 8551 H 820.493 4.90136 4.35255 0
M  V30 8552 H 820.013 3.31526 4.99851 0
M  V30 8553 H 821.692 3.88269 5.17549 0
M  V30 8554 N 821.824 -1.22873 0.986916 0
M  V30 8555 C 823.24 -1.43594 0.696633 0
M  V30 8556 C 823.44 -1.87622 -0.734869 0
M  V30 8557 O 822.496 -2.02633 -1.50652 0
M  V30 8558 C 823.809 -2.48231 1.69711 0
M  V30 8559 C 825.357 -2.62037 1.71188 0
M  V30 8560 C 825.832 -3.6989 2.70084 0
M  V30 8561 N 827.323 -3.77341 2.68641 0
M  V30 8562 C 828.058 -4.6037 3.41829 0
M  V30 8563 N 827.554 -5.47438 4.24598 0
M  V30 8564 N 829.347 -4.54626 3.30563 0
M  V30 8565 H 821.498 -0.925982 1.91153 0
M  V30 8566 H 823.761 -0.46866 0.824052 0
M  V30 8567 H 823.467 -2.22812 2.72117 0
M  V30 8568 H 823.341 -3.46731 1.48516 0
M  V30 8569 H 825.728 -2.86803 0.694837 0
M  V30 8570 H 825.809 -1.63831 1.96451 0
M  V30 8571 H 825.453 -3.45872 3.71934 0
M  V30 8572 H 825.383 -4.67652 2.42093 0
M  V30 8573 H 827.874 -3.15124 2.08578 0
M  V30 8574 H 828.187 -6.078 4.77283 0
M  V30 8575 H 826.532 -5.4704 4.28687 0
M  V30 8576 H 829.723 -3.85627 2.65347 0
M  V30 8577 H 829.896 -5.19103 3.8786 0
M  V30 8578 N 823.302 -0.75937 -1.38099 0
M  V30 8579 C 824.55 -0.317485 -1.99591 0
M  V30 8580 C 824.871 1.10628 -1.60581 0
M  V30 8581 O 824.141 1.7575 -0.865378 0
M  V30 8582 H 822.721 -0.114397 -0.738189 0
M  V30 8583 H 825.383 -0.974749 -1.68774 0
M  V30 8584 H 824.479 -0.385227 -3.09713 0
M  V30 8585 N 824.78 1.49157 -0.508906 0
M  V30 8586 C 826.026 2.02773 0.0328469 0
M  V30 8587 C 826.359 1.38714 1.35912 0
M  V30 8588 O 825.634 0.525536 1.87266 0
M  V30 8589 C 825.917 3.59664 0.177088 0
M  V30 8590 C 825.77 4.34239 -1.17287 0
M  V30 8591 C 827.089 4.30505 0.913977 0
M  V30 8592 H 824.208 0.736926 0.0104631 0
M  V30 8593 H 826.85 1.781 -0.661851 0
M  V30 8594 H 825 3.80818 0.768774 0
M  V30 8595 H 826.672 4.24561 -1.80404 0
M  V30 8596 H 824.915 3.96486 -1.76016 0
M  V30 8597 H 825.586 5.42397 -1.02516 0
M  V30 8598 H 828.062 4.14054 0.412084 0
M  V30 8599 H 826.938 5.40012 0.983759 0
M  V30 8600 H 827.199 3.96302 1.95951 0
M  V30 8601 N 826.258 0.243083 1.55714 0
M  V30 8602 C 827.188 -0.652336 2.24203 0
M  V30 8603 C 828.169 -1.1843 1.221 0
M  V30 8604 O 829.354 -1.22435 1.50743 0
M  V30 8605 C 826.484 -1.85111 2.93856 0
M  V30 8606 C 825.438 -1.45208 4.02615 0
M  V30 8607 C 824.764 -2.73137 4.59674 0
M  V30 8608 C 826.064 -0.625988 5.18535 0
M  V30 8609 H 827.758 -0.0812504 2.9929 0
M  V30 8610 H 825.304 -0.0376388 1.43951 0
M  V30 8611 H 827.257 -2.48314 3.40468 0
M  V30 8612 H 825.981 -2.44751 2.16251 0
M  V30 8613 H 824.64 -0.843406 3.56766 0
M  V30 8614 H 824.288 -3.30967 3.78774 0
M  V30 8615 H 823.988 -2.47163 5.33089 0
M  V30 8616 H 825.512 -3.37245 5.09017 0
M  V30 8617 H 826.926 -1.16223 5.61396 0
M  V30 8618 H 825.323 -0.462465 5.98315 0
M  V30 8619 H 826.393 0.362652 4.83542 0
M  V30 8620 N 827.736 -1.57571 -0.0300757 0
M  V30 8621 C 829.152 -1.54869 -0.385703 0
M  V30 8622 C 829.352 -0.969068 -1.76667 0
M  V30 8623 O 828.408 -0.589676 -2.45518 0
M  V30 8624 C 829.721 -2.99313 -0.288482 0
M  V30 8625 C 831.269 -3.10857 -0.365638 0
M  V30 8626 C 831.744 -4.5703 -0.297878 0
M  V30 8627 N 833.235 -4.61825 -0.356703 0
M  V30 8628 C 833.97 -5.72466 -0.327146 0
M  V30 8629 N 833.466 -6.92349 -0.249941 0
M  V30 8630 N 835.259 -5.60836 -0.376801 0
M  V30 8631 H 827.41 -1.936 0.87367 0
M  V30 8632 H 829.673 -0.887924 0.332106 0
M  V30 8633 H 829.379 -3.45443 0.66047 0
M  V30 8634 H 829.253 -3.61332 -1.08253 0
M  V30 8635 H 831.64 -2.64676 -1.30502 0
M  V30 8636 H 831.721 -2.51671 0.457744 0
M  V30 8637 H 831.365 -5.03879 0.637835 0
M  V30 8638 H 831.295 -5.14127 -1.13935 0
M  V30 8639 H 833.786 -3.75571 -0.418926 0
M  V30 8640 H 834.099 -7.7245 -0.23246 0
M  V30 8641 H 832.444 -6.94664 -0.216004 0
M  V30 8642 H 835.635 -4.66073 -0.435101 0
M  V30 8643 H 835.808 -6.47052 -0.350298 0
M  V30 8644 N 829.214 0.302327 -1.54673 0
M  V30 8645 C 830.462 1.03565 -1.73547 0
M  V30 8646 C 830.783 1.87843 -0.523448 0
M  V30 8647 O 830.053 1.90367 0.462295 0
M  V30 8648 H 828.633 0.385358 -0.639928 0
M  V30 8649 H 831.295 0.333632 -1.92023 0
M  V30 8650 H 830.391 1.68952 -2.62415 0
M  V30 8651 N 830.692 1.47107 0.565454 0
M  V30 8652 C 831.64 1.59368 1.69424 0
M  V30 8653 C 832.634 0.461344 1.62997 0
M  V30 8654 O 833.84 0.638849 1.68282 0
M  V30 8655 H 830.215 0.501387 0.560459 0
M  V30 8656 H 832.186 2.54242 1.56217 0
M  V30 8657 C 830.935 1.61739 3.07792 0
M  V30 8658 H 830.258 2.48215 3.13416 0
M  V30 8659 H 831.698 1.7437 3.86486 0
M  V30 8660 C 830.157 0.349156 3.35086 0
M  V30 8661 O 830.687 -0.553287 3.97871 0
M  V30 8662 N 828.893 0.231723 2.89675 0
M  V30 8663 H 828.44 0.967021 2.3876 0
M  V30 8664 H 828.398 -0.615911 3.08308 0
M  V30 8665 N 832.17 -0.811516 1.35101 0
M  V30 8666 C 833.416 -1.57068 1.28287 0
M  V30 8667 C 833.749 -1.93667 -0.143808 0
M  V30 8668 O 833.024 -1.60953 -1.09199 0
M  V30 8669 C 833.307 -2.86259 2.18466 0
M  V30 8670 C 833.16 -2.56168 3.69727 0
M  V30 8671 C 834.479 -3.87924 2.07852 0
M  V30 8672 H 831.598 -0.569869 0.467353 0
M  V30 8673 H 834.24 -0.934023 1.65457 0
M  V30 8674 H 832.39 -3.4059 1.86898 0
M  V30 8675 H 834.062 -2.08059 4.11715 0
M  V30 8676 H 832.305 -1.89436 3.90252 0
M  V30 8677 H 832.976 -3.48344 4.28206 0
M  V30 8678 H 835.452 -3.4298 2.35593 0
M  V30 8679 H 834.328 -4.76106 2.73157 0
M  V30 8680 H 834.589 -4.2923 1.05896 0
M  V30 8681 N 833.648 -1.19017 -1.03309 0
M  V30 8682 C 834.873 -1.01598 -1.80811 0
M  V30 8683 C 835.298 0.430773 -1.83101 0
M  V30 8684 O 834.656 1.30946 -1.25391 0
M  V30 8685 C 834.704 -1.5845 -3.23923 0
M  V30 8686 O 833.808 -0.810972 -4.04348 0
M  V30 8687 H 833.149 -0.359398 -0.558327 0
M  V30 8688 H 835.679 -1.57945 -1.30055 0
M  V30 8689 H 835.689 -1.61486 -3.74682 0
M  V30 8690 H 834.364 -2.63752 -3.21571 0
M  V30 8691 H 832.941 -0.85353 -3.63 0
M  V30 8692 N 835.127 1.22348 -0.993418 0
M  V30 8693 C 836.057 2.26584 -0.564088 0
M  V30 8694 C 837.038 1.65102 0.409298 0
M  V30 8695 O 838.223 1.91872 0.299819 0
M  V30 8696 C 835.353 3.47087 0.121554 0
M  V30 8697 C 834.307 4.21009 -0.770429 0
M  V30 8698 C 833.633 5.34678 0.0481586 0
M  V30 8699 C 834.933 4.79636 -2.06752 0
M  V30 8700 H 836.627 2.62749 -1.43538 0
M  V30 8701 H 834.173 1.26303 -0.691628 0
M  V30 8702 H 836.126 4.19166 0.433303 0
M  V30 8703 H 834.85 3.1002 1.0274 0
M  V30 8704 H 833.509 3.50764 -1.06583 0
M  V30 8705 H 833.157 4.93852 0.954933 0
M  V30 8706 H 832.857 5.85061 -0.545641 0
M  V30 8707 H 834.381 6.09573 0.353991 0
M  V30 8708 H 835.795 5.43654 -1.81969 0
M  V30 8709 H 834.192 5.4036 -2.61019 0
M  V30 8710 H 835.262 3.99659 -2.74592 0
M  V30 8711 N 836.605 0.766683 1.37694 0
M  V30 8712 C 837.851 0.329201 2.0011 0
M  V30 8713 C 838.184 -1.09004 1.60723 0
M  V30 8714 O 837.459 -1.74895 0.850989 0
M  V30 8715 C 837.742 0.466989 3.57059 0
M  V30 8716 C 837.595 1.92828 4.06371 0
M  V30 8717 C 838.914 -0.131792 4.39903 0
M  V30 8718 H 836.033 0.12109 0.726984 0
M  V30 8719 H 838.675 0.968779 1.63446 0
M  V30 8720 H 836.825 -0.0775023 3.88423 0
M  V30 8721 H 838.497 2.53208 3.85595 0
M  V30 8722 H 836.74 2.43884 3.58752 0
M  V30 8723 H 837.411 1.97577 5.15429 0
M  V30 8724 H 839.887 0.332731 4.14768 0
M  V30 8725 H 838.763 -0.005217 5.489 0
M  V30 8726 H 839.024 -1.22156 4.24889 0
M  V30 8727 N 838.083 -1.48885 0.516809 0
M  V30 8728 C 839.013 -2.32241 -0.242157 0
M  V30 8729 C 839.994 -1.41258 -0.947633 0
M  V30 8730 O 841.179 -1.70156 -0.935973 0
M  V30 8731 C 838.309 -3.22151 -1.29754 0
M  V30 8732 C 837.263 -4.22053 -0.710995 0
M  V30 8733 C 836.589 -5.01007 -1.86806 0
M  V30 8734 C 837.889 -5.21388 0.30853 0
M  V30 8735 H 839.583 -2.95943 0.453651 0
M  V30 8736 H 837.129 -1.42316 0.219612 0
M  V30 8737 H 839.082 -3.79284 -1.83634 0
M  V30 8738 H 837.806 -2.56423 -2.02274 0
M  V30 8739 H 836.465 -3.66087 -0.193819 0
M  V30 8740 H 836.113 -4.31713 -2.58133 0
M  V30 8741 H 835.813 -5.68615 -1.48159 0
M  V30 8742 H 837.337 -5.60989 -2.4109 0
M  V30 8743 H 838.751 -5.73122 -0.142703 0
M  V30 8744 H 837.148 -5.96975 0.611673 0
M  V30 8745 H 838.218 -4.69329 1.21894 0
M  V30 8746 N 839.561 -0.251338 -1.55583 0
M  V30 8747 C 840.807 0.37272 -1.99346 0
M  V30 8748 C 841.14 1.57266 -1.13934 0
M  V30 8749 O 840.415 1.9343 -0.20377 0
M  V30 8750 C 840.698 0.778245 -3.5159 0
M  V30 8751 C 840.551 -0.427394 -4.47765 0
M  V30 8752 C 841.87 1.62358 -4.09057 0
M  V30 8753 H 838.989 0.134002 -0.724715 0
M  V30 8754 H 841.631 -0.353536 -1.86682 0
M  V30 8755 H 839.781 1.39704 -3.62512 0
M  V30 8756 H 841.453 -1.06586 -4.48818 0
M  V30 8757 H 839.696 -1.06972 -4.20404 0
M  V30 8758 H 840.367 -0.10025 -5.51909 0
M  V30 8759 H 842.843 1.1012 -4.01264 0
M  V30 8760 H 841.719 1.87617 -5.1584 0
M  V30 8761 H 841.98 2.59688 -3.57791 0
M  V30 8762 N 841.039 1.57585 0.0217189 0
M  V30 8763 C 841.949 2.10444 1.03684 0
M  V30 8764 C 842.965 1.04472 1.39146 0
M  V30 8765 O 844.141 1.36249 1.48317 0
M  V30 8766 C 841.206 2.5794 2.31664 0
M  V30 8767 C 840.267 3.78425 2.02714 0
M  V30 8768 C 839.5 4.23646 3.24592 0
M  V30 8769 O 839.723 3.6834 4.35525 0
M  V30 8770 O 838.657 5.16013 3.09862 0
M  V30 8771 H 842.483 2.97354 0.617584 0
M  V30 8772 H 840.068 1.47473 0.239174 0
M  V30 8773 H 841.95 2.88785 3.06889 0
M  V30 8774 H 840.625 1.74138 2.7287 0
M  V30 8775 H 839.532 3.52587 1.25033 0
M  V30 8776 H 840.865 4.63234 1.66359 0
M  V30 8777 N 842.517 -0.29412 1.54831 0
M  V30 8778 C 843.465 -1.38296 1.87021 0
M  V30 8779 C 844.459 -1.5216 0.744557 0
M  V30 8780 O 845.665 -1.54196 0.92864 0
M  V30 8781 H 842.04 -0.462088 0.593278 0
M  V30 8782 H 844.011 -1.08386 2.7802 0
M  V30 8783 C 842.76 -2.74024 2.14023 0
M  V30 8784 H 842.083 -2.6414 3.00117 0
M  V30 8785 H 843.523 -3.49205 2.40482 0
M  V30 8786 C 841.982 -3.23492 0.940982 0
M  V30 8787 O 842.512 -4.01361 0.164937 0
M  V30 8788 N 840.718 -2.80902 0.744467 0
M  V30 8789 H 840.265 -2.17694 1.37721 0
M  V30 8790 H 840.223 -3.14349 -0.0563652 0
M  V30 8791 N 843.995 -1.47404 -0.557645 0
M  V30 8792 C 844.942 -1.59859 -1.66475 0
M  V30 8793 C 845.912 -0.441644 -1.60121 0
M  V30 8794 O 847.097 -0.661641 -1.78961 0
M  V30 8795 C 844.237 -1.61843 -3.04797 0
M  V30 8796 C 843.35 -2.8845 -3.2159 0
M  V30 8797 C 842.485 -2.81773 -4.50308 0
M  V30 8798 C 841.524 -4.03208 -4.60532 0
M  V30 8799 N 840.661 -3.94769 -5.80604 0
M  V30 8800 H 845.501 -2.54415 -1.55168 0
M  V30 8801 H 843.038 -1.26194 -0.755876 0
M  V30 8802 H 844.996 -1.60976 -3.84893 0
M  V30 8803 H 843.626 -0.707997 -3.1494 0
M  V30 8804 H 842.678 -2.99186 -2.34929 0
M  V30 8805 H 843.99 -3.78379 -3.25009 0
M  V30 8806 H 843.144 -2.79153 -5.38663 0
M  V30 8807 H 841.883 -1.89527 -4.49367 0
M  V30 8808 H 840.888 -4.06133 -3.70589 0
M  V30 8809 H 842.113 -4.9658 -4.63233 0
M  V30 8810 H 840.059 -3.05326 -5.80613 0
M  V30 8811 H 839.976 -4.78375 -5.854 0
M  V30 8812 H 841.244 -3.96165 -6.71322 0
M  V30 8813 N 845.473 0.80434 -1.35529 0
M  V30 8814 C 846.701 1.59283 -1.32048 0
M  V30 8815 C 847.116 1.88527 0.101556 0
M  V30 8816 O 846.473 1.48975 1.05417 0
M  V30 8817 C 846.524 2.92276 -2.12737 0
M  V30 8818 O 846.245 2.64299 -3.49396 0
M  V30 8819 C 847.746 3.86631 -2.16867 0
M  V30 8820 H 844.966 0.494523 -0.453528 0
M  V30 8821 H 847.51 0.999415 -1.78415 0
M  V30 8822 H 845.665 3.48125 -1.69964 0
M  V30 8823 H 846.079 3.4923 -3.91329 0
M  V30 8824 H 847.553 4.77053 -2.77712 0
M  V30 8825 H 848.03 4.23384 -1.16803 0
M  V30 8826 H 848.636 3.36717 -2.59811 0
M  V30 8827 N 846.951 1.19563 1.02676 0
M  V30 8828 C 848.199 0.997593 1.75763 0
M  V30 8829 C 848.52 -0.47253 1.89188 0
M  V30 8830 O 847.79 -1.34214 1.42701 0
M  V30 8831 H 846.37 0.366128 0.651122 0
M  V30 8832 H 849.032 1.50495 1.23844 0
M  V30 8833 H 848.128 1.44741 2.76508 0
M  V30 8834 N 848.429 -1.21819 0.999893 0
M  V30 8835 C 849.376 -2.24003 0.556005 0
M  V30 8836 C 850.346 -1.60825 -0.415287 0
M  V30 8837 O 851.531 -1.88123 -0.318481 0
M  V30 8838 C 848.671 -3.44904 -0.116289 0
M  V30 8839 C 847.784 -4.22573 0.897574 0
M  V30 8840 C 846.919 -5.30831 0.198073 0
M  V30 8841 C 845.958 -6.00225 1.19983 0
M  V30 8842 N 845.095 -7.00111 0.528157 0
M  V30 8843 H 849.935 -2.61334 1.43208 0
M  V30 8844 H 847.472 -1.28431 0.717205 0
M  V30 8845 H 849.43 -4.13908 -0.523055 0
M  V30 8846 H 848.06 -3.08315 -0.956108 0
M  V30 8847 H 847.112 -3.52797 1.42262 0
M  V30 8848 H 848.424 -4.70363 1.66013 0
M  V30 8849 H 847.578 -6.06121 -0.265065 0
M  V30 8850 H 846.317 -4.84033 -0.596924 0
M  V30 8851 H 845.322 -5.23711 1.67353 0
M  V30 8852 H 846.547 -6.4911 1.99582 0
M  V30 8853 H 844.493 -6.55534 -0.247276 0
M  V30 8854 H 844.41 -7.45943 1.22904 0
M  V30 8855 H 845.678 -7.7945 0.0880543 0
M  V30 8856 N 849.908 -0.773975 -1.37286 0
M  V30 8857 C 850.818 -0.162571 -2.34036 0
M  V30 8858 C 851.834 0.677022 -1.60289 0
M  V30 8859 O 853.01 0.596423 -1.92366 0
M  V30 8860 C 850.075 0.70457 -3.39465 0
M  V30 8861 C 849.136 -0.151738 -4.29032 0
M  V30 8862 C 848.369 0.674111 -5.29426 0
M  V30 8863 O 848.592 1.91107 -5.37433 0
M  V30 8864 O 847.526 0.0821398 -6.01844 0
M  V30 8865 H 851.352 -0.962119 -2.88057 0
M  V30 8866 H 848.937 -0.53517 -1.39486 0
M  V30 8867 H 850.819 1.19954 -4.03967 0
M  V30 8868 H 849.494 1.48227 -2.87768 0
M  V30 8869 H 848.401 -0.693118 -3.67623 0
M  V30 8870 H 849.734 -0.892575 -4.84039 0
M  V30 8871 N 851.386 1.48609 -0.524698 0
M  V30 8872 C 852.318 2.27508 0.278 0
M  V30 8873 C 853.331 1.35042 0.909258 0
M  V30 8874 O 854.52 1.60136 0.788592 0
M  V30 8875 C 851.62 3.08247 1.40843 0
M  V30 8876 C 850.793 4.28455 0.880083 0
M  V30 8877 C 849.852 4.91048 1.891 0
M  V30 8878 O 848.878 5.5042 1.45005 0
M  V30 8879 N 850.08 4.82816 3.22288 0
M  V30 8880 H 852.845 2.97037 -0.398642 0
M  V30 8881 H 850.406 1.57876 -0.358698 0
M  V30 8882 H 852.398 3.46992 2.08276 0
M  V30 8883 H 850.968 2.41173 1.98883 0
M  V30 8884 H 850.188 3.94189 0.0299228 0
M  V30 8885 H 851.476 5.06279 0.505881 0
M  V30 8886 H 850.874 4.3572 3.60783 0
M  V30 8887 H 849.431 5.25676 3.85368 0
M  V30 8888 N 852.864 0.259585 1.55447 0
M  V30 8889 C 854.112 -0.360893 1.98852 0
M  V30 8890 C 854.433 -1.57535 1.14924 0
M  V30 8891 O 853.703 -1.94485 0.235025 0
M  V30 8892 H 852.283 -0.136332 0.734454 0
M  V30 8893 H 854.945 0.361319 1.91522 0
M  V30 8894 H 854.041 -0.661388 3.05012 0
M  V30 8895 N 854.342 -1.57594 -0.0133615 0
M  V30 8896 C 855.758 -1.5527 -0.369255 0
M  V30 8897 C 855.958 -0.987751 -1.7563 0
M  V30 8898 O 855.014 -0.615683 -2.44879 0
M  V30 8899 C 856.327 -2.99602 -0.25672 0
M  V30 8900 C 857.875 -3.11227 -0.332647 0
M  V30 8901 C 858.35 -4.57321 -0.249387 0
M  V30 8902 N 859.841 -4.62177 -0.3077 0
M  V30 8903 C 860.576 -5.72781 -0.26641 0
M  V30 8904 N 860.072 -6.92575 -0.176494 0
M  V30 8905 N 861.865 -5.61204 -0.317295 0
M  V30 8906 H 854.016 -1.92662 0.894154 0
M  V30 8907 H 856.279 -0.884352 0.341505 0
M  V30 8908 H 855.985 -3.44723 0.697072 0
M  V30 8909 H 855.859 -3.6246 -1.04415 0
M  V30 8910 H 858.246 -2.66045 -1.27688 0
M  V30 8911 H 858.327 -2.51171 0.484412 0
M  V30 8912 H 857.971 -5.03174 0.691242 0
M  V30 8913 H 857.901 -5.15306 -1.08476 0
M  V30 8914 H 860.392 -3.75994 -0.379069 0
M  V30 8915 H 860.705 -7.72653 -0.150518 0
M  V30 8916 H 859.05 -6.94854 -0.142314 0
M  V30 8917 H 862.241 -4.66509 -0.385643 0
M  V30 8918 H 862.414 -6.47388 -0.28165 0
M  V30 8919 N 855.82 0.285905 -1.54985 0
M  V30 8920 C 856.753 1.37817 -1.81884 0
M  V30 8921 C 857.731 1.4811 -0.670988 0
M  V30 8922 O 858.915 1.64936 -0.912595 0
M  V30 8923 C 856.042 2.75587 -1.969 0
M  V30 8924 C 855.088 2.82643 -3.19398 0
M  V30 8925 S 855.921 2.43199 -4.7709 0
M  V30 8926 C 857.077 3.82969 -4.95061 0
M  V30 8927 H 857.31 1.14794 -2.74244 0
M  V30 8928 H 854.843 0.484843 -1.4659 0
M  V30 8929 H 856.801 3.54932 -2.06236 0
M  V30 8930 H 855.462 2.9587 -1.05451 0
M  V30 8931 H 854.655 3.8373 -3.26753 0
M  V30 8932 H 854.257 2.11306 -3.08586 0
M  V30 8933 H 856.549 4.78117 -4.80011 0
M  V30 8934 H 857.492 3.80575 -5.97133 0
M  V30 8935 H 857.9 3.73673 -4.23118 0
M  V30 8936 N 857.298 1.47698 0.54982 0
M  V30 8937 C 858.544 1.54931 1.30859 0
M  V30 8938 C 858.877 0.214021 1.93017 0
M  V30 8939 O 858.152 -0.778093 1.78258 0
M  V30 8940 C 858.435 2.67286 2.41309 0
M  V30 8941 C 858.288 4.10457 1.83971 0
M  V30 8942 C 859.607 2.75509 3.43195 0
M  V30 8943 H 856.726 0.56399 0.474431 0
M  V30 8944 H 859.368 1.79787 0.614541 0
M  V30 8945 H 857.518 2.46224 3.0051 0
M  V30 8946 H 859.19 4.42903 1.28974 0
M  V30 8947 H 857.433 4.18387 1.14606 0
M  V30 8948 H 858.104 4.84857 2.63851 0
M  V30 8949 H 860.58 2.94531 2.93923 0
M  V30 8950 H 859.456 3.55886 4.17895 0
M  V30 8951 H 859.717 1.82863 4.02509 0
M  V30 8952 N 858.776 -0.797141 1.35954 0
M  V30 8953 C 860.022 -1.55636 1.30954 0
M  V30 8954 C 860.377 -1.92071 -0.112515 0
M  V30 8955 O 859.67 -1.5926 -1.06521 0
M  V30 8956 C 859.864 -2.84847 2.15863 0
M  V30 8957 C 859.693 -2.61039 3.66182 0
M  V30 8958 C 858.463 -2.56452 4.35385 0
M  V30 8959 C 860.661 -2.30766 4.59621 0
M  V30 8960 N 858.643 -2.2446 5.71394 0
M  V30 8961 C 860.014 -2.08695 5.8382 0
M  V30 8962 C 862.069 -2.16708 4.48266 0
M  V30 8963 C 860.772 -1.73989 6.9794 0
M  V30 8964 C 862.798 -1.83399 5.62244 0
M  V30 8965 C 862.16 -1.62171 6.85478 0
M  V30 8966 H 858.259 -0.570853 0.534463 0
M  V30 8967 H 860.843 -0.932261 1.7093 0
M  V30 8968 H 859.014 -3.45137 1.78144 0
M  V30 8969 H 860.746 -3.50503 2.02311 0
M  V30 8970 H 857.501 -2.7143 3.88101 0
M  V30 8971 H 857.925 -2.11232 6.43203 0
M  V30 8972 H 862.567 -2.31814 3.53585 0
M  V30 8973 H 860.285 -1.57621 7.92579 0
M  V30 8974 H 863.871 -1.73217 5.55416 0
M  V30 8975 H 862.751 -1.36774 7.7218 0
M  V30 8976 N 860.254 -1.20106 -1.0204 0
M  V30 8977 C 861.204 -0.914145 -2.08872 0
M  V30 8978 C 862.188 0.124503 -1.60418 0
M  V30 8979 O 863.38 -0.0823521 -1.76808 0
M  V30 8980 C 860.509 -0.463897 -3.40151 0
M  V30 8981 C 859.595 -1.53576 -3.95317 0
M  V30 8982 N 859.986 -2.75726 -4.24038 0
M  V30 8983 C 858.284 -1.40103 -4.23423 0
M  V30 8984 C 858.985 -3.44838 -4.68468 0
M  V30 8985 N 857.961 -2.72245 -4.70514 0
M  V30 8986 H 861.763 -1.8424 -2.28982 0
M  V30 8987 H 859.277 -1.0945 -1.19977 0
M  V30 8988 H 861.274 -0.239766 -4.1621 0
M  V30 8989 H 859.934 0.457779 -3.21457 0
M  V30 8990 H 860.945 -3.12412 -4.13061 0
M  V30 8991 H 857.622 -0.543472 -4.13948 0
M  V30 8992 H 859.012 -4.49342 -4.99541 0
M  V30 8993 N 861.732 1.21287 -1.00634 0
M  V30 8994 C 862.978 1.90671 -0.690822 0
M  V30 8995 C 863.311 1.77996 0.776592 0
M  V30 8996 O 862.586 1.15748 1.5631 0
M  V30 8997 C 862.869 3.42426 -1.11428 0
M  V30 8998 C 862.722 3.64086 -2.64124 0
M  V30 8999 C 864.041 4.34851 -0.677686 0
M  V30 9000 H 861.16 0.692419 -0.252439 0
M  V30 9001 H 863.802 1.42893 -1.25226 0
M  V30 9002 H 861.952 3.83249 -0.636586 0
M  V30 9003 H 863.624 3.32582 -3.19667 0
M  V30 9004 H 861.867 3.07906 -3.05576 0
M  V30 9005 H 862.538 4.7042 -2.88806 0
M  V30 9006 H 865.014 4.01619 -1.0882 0
M  V30 9007 H 863.89 5.39675 -1.00213 0
M  V30 9008 H 864.151 4.4009 0.421125 0
M  V30 9009 N 863.21 0.781244 1.36873 0
M  V30 9010 C 864.173 0.180094 2.28491 0
M  V30 9011 C 865.173 -0.617798 1.48458 0
M  V30 9012 O 866.363 -0.439991 1.68552 0
M  V30 9013 C 863.495 -0.751741 3.32508 0
M  V30 9014 H 864.688 0.987837 2.83164 0
M  V30 9015 H 862.241 0.550102 1.463 0
M  V30 9016 H 862.976 -1.58413 2.82977 0
M  V30 9017 H 862.761 -0.181649 3.91679 0
M  V30 9018 H 864.251 -1.16748 4.00949 0
M  V30 9019 N 864.689 -1.48329 0.532571 0
M  V30 9020 C 865.652 -2.2816 -0.218069 0
M  V30 9021 C 866.652 -1.35526 -0.865409 0
M  V30 9022 O 867.842 -1.58394 -0.725061 0
M  V30 9023 C 864.974 -3.1448 -1.31586 0
M  V30 9024 H 866.167 -2.95987 0.482865 0
M  V30 9025 H 863.72 -1.53612 0.288603 0
M  V30 9026 H 864.455 -2.5129 -2.04997 0
M  V30 9027 H 864.24 -3.82625 -0.856779 0
M  V30 9028 H 865.73 -3.74693 -1.84377 0
M  V30 9029 N 866.167 -0.267825 -1.55308 0
M  V30 9030 C 867.397 0.354073 -2.03543 0
M  V30 9031 C 867.805 1.50554 -1.14586 0
M  V30 9032 O 867.148 1.83028 -0.156991 0
M  V30 9033 C 867.21 0.904148 -3.47945 0
M  V30 9034 C 866.874 -0.11775 -4.56848 0
M  V30 9035 C 867.871 -0.934707 -5.11429 0
M  V30 9036 C 865.556 -0.249885 -5.01678 0
M  V30 9037 C 867.55 -1.87005 -6.0935 0
M  V30 9038 C 865.237 -1.18872 -5.99427 0
M  V30 9039 C 866.235 -1.99731 -6.53144 0
M  V30 9040 O 865.923 -2.92028 -7.48983 0
M  V30 9041 H 865.655 0.0857765 -0.670536 0
M  V30 9042 H 868.209 -0.395515 -2.01556 0
M  V30 9043 H 866.439 1.70368 -3.47148 0
M  V30 9044 H 868.128 1.43835 -3.79561 0
M  V30 9045 H 868.894 -0.84332 -4.77612 0
M  V30 9046 H 864.773 0.369469 -4.59517 0
M  V30 9047 H 868.317 -2.5016 -6.51203 0
M  V30 9048 H 864.214 -1.28095 -6.32663 0
M  V30 9049 H 864.982 -2.86627 -7.66673 0
M  V30 9050 N 867.645 1.57599 0.00500368 0
M  V30 9051 C 868.555 2.11532 1.01446 0
M  V30 9052 C 869.571 1.05941 1.3803 0
M  V30 9053 O 870.747 1.37815 1.46864 0
M  V30 9054 C 867.812 2.60382 2.28915 0
M  V30 9055 C 866.873 3.80554 1.98689 0
M  V30 9056 C 866.106 4.27064 3.20081 0
M  V30 9057 O 866.329 3.72939 4.31593 0
M  V30 9058 O 865.263 5.1927 3.04371 0
M  V30 9059 H 869.089 2.97993 0.586011 0
M  V30 9060 H 866.674 1.47718 0.223519 0
M  V30 9061 H 868.556 2.92024 3.03809 0
M  V30 9062 H 867.231 1.77022 2.71007 0
M  V30 9063 H 866.138 3.53893 1.21286 0
M  V30 9064 H 867.471 4.64972 1.61437 0
M  V30 9065 N 869.123 -0.277682 1.55134 0
M  V30 9066 C 870.371 -1.00791 1.75173 0
M  V30 9067 C 870.692 -1.86987 0.553266 0
M  V30 9068 O 869.962 -1.91079 -0.43195 0
M  V30 9069 H 868.542 -0.375129 0.645978 0
M  V30 9070 H 871.204 -0.303041 1.9253 0
M  V30 9071 H 870.3 -1.64756 2.6507 0
M  V30 9072 N 870.601 -1.47988 -0.541979 0
M  V30 9073 C 871.531 -1.64503 -1.65713 0
M  V30 9074 C 872.512 -0.494116 -1.62765 0
M  V30 9075 O 873.697 -0.725256 -1.80149 0
M  V30 9076 C 870.827 -1.67337 -3.04328 0
M  V30 9077 C 869.781 -2.81809 -3.2213 0
M  V30 9078 C 869.107 -2.69724 -4.61685 0
M  V30 9079 C 870.407 -4.23241 -3.06046 0
M  V30 9080 H 872.101 -2.5786 -1.52147 0
M  V30 9081 H 869.647 -1.24094 -0.730529 0
M  V30 9082 H 871.6 -1.77481 -3.82202 0
M  V30 9083 H 870.324 -0.705514 -3.18889 0
M  V30 9084 H 868.983 -2.71201 -2.46669 0
M  V30 9085 H 868.631 -1.70934 -4.73065 0
M  V30 9086 H 868.331 -3.4653 -4.74543 0
M  V30 9087 H 869.855 -2.81818 -5.41674 0
M  V30 9088 H 871.269 -4.34746 -3.73723 0
M  V30 9089 H 869.666 -5.00952 -3.30405 0
M  V30 9090 H 870.736 -4.40543 -2.02609 0
M  V30 9091 N 872.079 0.78992 -1.36375 0
M  V30 9092 C 873.304 1.58389 -1.33895 0
M  V30 9093 C 873.729 1.8794 0.0774934 0
M  V30 9094 O 873.087 1.4785 1.0493 0
M  V30 9095 C 873.135 2.88201 -2.16732 0
M  V30 9096 O 872.239 3.81778 -1.55946 0
M  V30 9097 H 871.58 0.480471 -0.458305 0
M  V30 9098 H 874.11 0.979119 -1.79651 0
M  V30 9099 H 874.12 3.37475 -2.29292 0
M  V30 9100 H 872.795 2.66019 -3.19698 0
M  V30 9101 H 871.372 3.40371 -1.52323 0
M  V30 9102 N 873.557 1.20646 1.01402 0
M  V30 9103 C 874.487 0.98155 2.11867 0
M  V30 9104 C 875.468 -0.0903712 1.6986 0
M  V30 9105 O 876.653 0.0676586 1.94082 0
M  V30 9106 C 873.783 0.535636 3.43145 0
M  V30 9107 C 872.737 1.55109 3.98905 0
M  V30 9108 C 872.063 0.961725 5.2598 0
M  V30 9109 C 873.363 2.93552 4.32001 0
M  V30 9110 H 875.057 1.90544 2.3094 0
M  V30 9111 H 872.603 0.917554 1.10982 0
M  V30 9112 H 874.556 0.365512 4.19812 0
M  V30 9113 H 873.28 -0.423882 3.23838 0
M  V30 9114 H 871.939 1.70862 3.24348 0
M  V30 9115 H 871.587 -0.00580108 5.03 0
M  V30 9116 H 871.287 1.63993 5.64252 0
M  V30 9117 H 872.811 0.802726 6.053 0
M  V30 9118 H 874.225 2.81295 4.99546 0
M  V30 9119 H 872.622 3.58303 4.81393 0
M  V30 9120 H 873.692 3.4508 3.40658 0
M  V30 9121 N 875.035 -1.20752 1.01276 0
M  V30 9122 C 876.281 -1.90582 0.710627 0
M  V30 9123 C 876.636 -1.7713 -0.751184 0
M  V30 9124 O 875.929 -1.14223 -1.5383 0
M  V30 9125 C 876.123 -3.40808 1.07633 0
M  V30 9126 C 875.952 -3.68878 2.57214 0
M  V30 9127 C 874.722 -3.87805 3.23937 0
M  V30 9128 C 876.92 -3.71753 3.55393 0
M  V30 9129 N 874.902 -4.0336 4.62789 0
M  V30 9130 C 876.273 -3.92686 4.79789 0
M  V30 9131 C 878.328 -3.54697 3.4942 0
M  V30 9132 C 877.031 -3.98332 5.98936 0
M  V30 9133 C 879.057 -3.61612 4.67964 0
M  V30 9134 C 878.419 -3.83014 5.91168 0
M  V30 9135 H 874.518 -0.717219 0.311643 0
M  V30 9136 H 877.102 -1.45228 1.2968 0
M  V30 9137 H 875.273 -3.84923 0.518527 0
M  V30 9138 H 877.005 -3.98096 0.728128 0
M  V30 9139 H 873.76 -3.86029 2.74369 0
M  V30 9140 H 874.184 -4.15023 5.34869 0
M  V30 9141 H 878.826 -3.3712 2.55166 0
M  V30 9142 H 876.544 -4.14706 6.93574 0
M  V30 9143 H 880.13 -3.49728 4.64954 0
M  V30 9144 H 879.01 -3.88219 6.81363 0
M  V30 9145 N 876.513 -0.788492 -1.36457 0
M  V30 9146 C 877.445 -0.144208 -2.28746 0
M  V30 9147 C 878.458 0.646009 -1.49434 0
M  V30 9148 O 879.647 0.481344 -1.71888 0
M  V30 9149 C 876.747 0.818869 -3.28858 0
M  V30 9150 C 875.92 0.0789055 -4.37329 0
M  V30 9151 C 874.979 0.957791 -5.1741 0
M  V30 9152 O 874.005 0.415378 -5.67682 0
M  V30 9153 N 875.207 2.28216 -5.33758 0
M  V30 9154 H 877.972 -0.936949 -2.84678 0
M  V30 9155 H 875.533 -0.642317 -1.48613 0
M  V30 9156 H 877.525 1.41065 -3.79319 0
M  V30 9157 H 876.095 1.51249 -2.73573 0
M  V30 9158 H 875.315 -0.693939 -3.88044 0
M  V30 9159 H 876.603 -0.431753 -5.06965 0
M  V30 9160 H 876.001 2.747 -4.94527 0
M  V30 9161 H 874.558 2.8236 -5.87466 0
M  V30 9162 N 877.991 1.48044 -0.54043 0
M  V30 9163 C 879.237 2.03392 -0.0183377 0
M  V30 9164 C 879.592 1.4091 1.31004 0
M  V30 9165 O 878.885 0.549375 1.83555 0
M  V30 9166 C 879.079 3.57085 0.150008 0
M  V30 9167 C 878.908 4.34468 -1.1605 0
M  V30 9168 C 877.678 4.75008 -1.72324 0
M  V30 9169 C 879.876 4.70641 -2.07368 0
M  V30 9170 N 877.858 5.36968 -2.97555 0
M  V30 9171 C 879.229 5.32728 -3.17176 0
M  V30 9172 C 881.284 4.52571 -2.07567 0
M  V30 9173 C 879.987 5.78654 -4.27261 0
M  V30 9174 C 882.013 4.99485 -3.16653 0
M  V30 9175 C 881.375 5.61606 -4.2518 0
M  V30 9176 H 877.474 0.780497 -0.0484652 0
M  V30 9177 H 880.058 1.80738 -0.724018 0
M  V30 9178 H 878.229 3.79542 0.824787 0
M  V30 9179 H 879.961 3.99071 0.672649 0
M  V30 9180 H 876.716 4.5644 -1.26331 0
M  V30 9181 H 877.14 5.72505 -3.61341 0
M  V30 9182 H 881.782 4.03914 -1.24952 0
M  V30 9183 H 879.5 6.26311 -5.10647 0
M  V30 9184 H 883.086 4.87286 -3.17874 0
M  V30 9185 H 881.966 5.97248 -5.08197 0
M  V30 9186 N 879.47 0.276058 1.55163 0
M  V30 9187 C 880.403 -0.652386 2.18676 0
M  V30 9188 C 881.381 -1.15151 1.148 0
M  V30 9189 O 882.565 -1.22431 1.43328 0
M  V30 9190 C 879.692 -1.88982 2.81076 0
M  V30 9191 C 878.738 -1.52609 3.98262 0
M  V30 9192 S 879.571 -0.603445 5.32089 0
M  V30 9193 C 880.727 -1.84923 5.97958 0
M  V30 9194 H 880.96 -0.112733 2.97086 0
M  V30 9195 H 878.493 0.0603118 1.54282 0
M  V30 9196 H 880.451 -2.60007 3.17658 0
M  V30 9197 H 879.112 -2.40061 2.02557 0
M  V30 9198 H 878.305 -2.44689 4.40617 0
M  V30 9199 H 877.907 -0.89601 3.63108 0
M  V30 9200 H 880.199 -2.79303 6.17249 0
M  V30 9201 H 881.142 -1.46868 6.92702 0
M  V30 9202 H 881.55 -2.0146 5.27327 0
M  V30 9203 N 880.948 -1.576 0.00335426 0
M  V30 9204 C 882.194 -1.90996 -0.681799 0
M  V30 9205 C 882.527 -0.877643 -1.73237 0
M  V30 9206 O 881.802 0.103183 -1.94226 0
M  V30 9207 C 882.085 -3.34961 -1.32187 0
M  V30 9208 C 881.938 -4.48911 -0.28261 0
M  V30 9209 C 883.257 -3.78408 -2.24711 0
M  V30 9210 H 880.376 -0.694596 -0.246386 0
M  V30 9211 H 883.018 -1.89919 0.055336 0
M  V30 9212 H 881.168 -3.36008 -1.95014 0
M  V30 9213 H 882.84 -4.59999 0.346241 0
M  V30 9214 H 881.083 -4.32 0.394768 0
M  V30 9215 H 881.754 -5.46609 -0.769576 0
M  V30 9216 H 884.23 -3.78934 -1.71897 0
M  V30 9217 H 883.106 -4.79885 -2.66461 0
M  V30 9218 H 883.367 -3.12464 -3.1276 0
M  V30 9219 N 882.426 0.269451 -1.5528 0
M  V30 9220 C 883.356 1.33729 -1.91413 0
M  V30 9221 C 884.337 1.51348 -0.776391 0
M  V30 9222 O 885.522 1.64332 -1.03482 0
M  V30 9223 C 882.652 2.69618 -2.18914 0
M  V30 9224 C 881.606 2.66725 -3.34726 0
M  V30 9225 C 880.932 4.06199 -3.47716 0
M  V30 9226 C 882.232 2.25684 -4.71025 0
M  V30 9227 H 883.926 1.03736 -2.80854 0
M  V30 9228 H 881.472 0.497579 -1.3513 0
M  V30 9229 H 883.425 3.44436 -2.42779 0
M  V30 9230 H 882.149 3.01201 -1.26275 0
M  V30 9231 H 880.808 1.94365 -3.10834 0
M  V30 9232 H 880.456 4.3501 -2.52537 0
M  V30 9233 H 880.156 4.05157 -4.25583 0
M  V30 9234 H 881.68 4.8275 -3.73877 0
M  V30 9235 H 883.094 2.90225 -4.94411 0
M  V30 9236 H 881.491 2.35797 -5.51833 0
M  V30 9237 H 882.561 1.20819 -4.69607 0
M  V30 9238 N 883.904 1.48273 0.534124 0
M  V30 9239 C 885.315 1.49667 1.1161 0
M  V30 9240 C 885.666 0.264139 1.94414 0
M  V30 9241 O 884.791 -0.629084 2.07054 0
M  V30 9242 C 885.386 2.71191 2.03079 0
M  V30 9243 C 883.945 2.7547 2.56502 0
M  V30 9244 C 883.092 2.43119 1.33373 0
M  V30 9245 H 886.043 1.55449 0.319578 0
M  V30 9246 H 886.064 2.49473 2.87304 0
M  V30 9247 H 885.576 3.60879 1.42785 0
M  V30 9248 H 883.677 1.89979 3.20529 0
M  V30 9249 H 883.79 3.76787 2.95919 0
M  V30 9250 H 882.154 1.94187 1.64813 0
M  V30 9251 H 882.937 3.35044 0.748375 0
M  V30 9252 N 885.382 -0.782676 1.36792 0
M  V30 9253 C 886.312 -1.90973 1.34356 0
M  V30 9254 C 887.293 -1.6875 0.213917 0
M  V30 9255 O 888.478 -1.89766 0.412601 0
M  V30 9256 C 885.608 -3.28097 1.13884 0
M  V30 9257 C 884.562 -3.6486 2.23744 0
M  V30 9258 C 883.888 -5.00406 1.88408 0
M  V30 9259 C 885.188 -3.72742 3.6587 0
M  V30 9260 H 886.882 -1.93268 2.28665 0
M  V30 9261 H 884.428 -0.928447 1.10072 0
M  V30 9262 H 886.381 -4.06569 1.10813 0
M  V30 9263 H 885.105 -3.26206 0.160275 0
M  V30 9264 H 883.764 -2.88689 2.25952 0
M  V30 9265 H 883.412 -4.95044 0.891083 0
M  V30 9266 H 883.112 -5.25973 2.61966 0
M  V30 9267 H 884.636 -5.81291 1.86905 0
M  V30 9268 H 886.05 -4.4139 3.65852 0
M  V30 9269 H 884.447 -4.09798 4.38389 0
M  V30 9270 H 885.517 -2.73676 4.00287 0
M  V30 9271 N 886.86 -1.21182 -1.00761 0
M  V30 9272 C 887.79 -0.992773 -2.11344 0
M  V30 9273 C 888.771 0.0813618 -1.69905 0
M  V30 9274 O 889.956 -0.0779503 -1.94043 0
M  V30 9275 C 887.086 -0.553826 -3.42856 0
M  V30 9276 C 886.04 -1.57223 -3.98077 0
M  V30 9277 C 885.366 -0.989605 -5.25463 0
M  V30 9278 C 886.666 -2.95839 -4.30438 0
M  V30 9279 H 888.36 -1.91766 -2.29927 0
M  V30 9280 H 885.906 -0.923426 -1.10494 0
M  V30 9281 H 887.859 -0.387771 -4.19612 0
M  V30 9282 H 886.583 0.406702 -3.24058 0
M  V30 9283 H 885.242 -1.7258 -3.23437 0
M  V30 9284 H 884.89 -0.0208743 -5.02996 0
M  V30 9285 H 884.59 -1.66984 -5.63374 0
M  V30 9286 H 886.114 -0.834815 -6.04866 0
M  V30 9287 H 887.528 -2.8394 -4.98047 0
M  V30 9288 H 885.925 -3.60851 -4.79486 0
M  V30 9289 H 886.995 -3.46882 -3.38823 0
M  V30 9290 N 888.338 1.20213 -1.01915 0
M  V30 9291 C 889.615 1.85348 -0.62495 0
M  V30 9292 C 889.995 1.91101 0.896854 0
M  V30 9293 O 889.343 1.42075 1.78961 0
M  V30 9294 C 889.553 3.24849 -1.27571 0
M  V30 9295 C 890.901 4.01107 -1.39277 0
M  V30 9296 O 891.925 3.34211 -1.23212 0
M  V30 9297 O 890.784 5.20914 -1.6526 0
M  V30 9298 H 887.878 0.798303 -0.215965 0
M  V30 9299 H 890.424 1.27782 -1.11669 0
M  V30 9300 H 889.196 3.1544 -2.31545 0
M  V30 9301 H 888.819 3.90049 -0.77122 0
M  V30 9302 N 889.816 0.795718 1.36037 0
M  V30 9303 C 891.062 0.371574 1.99367 0
M  V30 9304 C 891.395 -1.0557 1.62999 0
M  V30 9305 O 890.67 -1.73051 0.887895 0
M  V30 9306 C 890.953 0.542622 3.55988 0
M  V30 9307 C 890.806 2.01404 4.0219 0
M  V30 9308 C 892.125 -0.0384527 4.40083 0
M  V30 9309 H 889.244 0.136483 0.724252 0
M  V30 9310 H 891.886 1.00323 1.61355 0
M  V30 9311 H 890.036 0.0049053 3.885 0
M  V30 9312 H 891.708 2.6133 3.80137 0
M  V30 9313 H 889.951 2.51439 3.53498 0
M  V30 9314 H 890.622 2.08466 5.11122 0
M  V30 9315 H 893.098 0.420634 4.13968 0
M  V30 9316 H 891.974 0.111214 5.48787 0
M  V30 9317 H 892.235 -1.13116 4.27384 0
M  V30 9318 N 891.294 -1.47756 0.548274 0
M  V30 9319 C 892.519 -2.07387 0.023475 0
M  V30 9320 C 892.944 -1.39956 -1.25674 0
M  V30 9321 O 892.302 -0.471543 -1.7506 0
M  V30 9322 C 892.35 -3.60224 -0.164669 0
M  V30 9323 O 891.454 -3.93653 -1.22928 0
M  V30 9324 H 890.795 -0.662312 0.0473156 0
M  V30 9325 H 893.325 -1.89905 0.761409 0
M  V30 9326 H 893.335 -4.06211 -0.38166 0
M  V30 9327 H 892.01 -4.08702 0.770425 0
M  V30 9328 H 890.587 -3.59422 -0.993495 0
M  V30 9329 N 892.772 -0.284283 -1.55015 0
M  V30 9330 C 894.049 0.382125 -1.91831 0
M  V30 9331 C 894.429 1.73007 -1.20962 0
M  V30 9332 O 893.777 2.25962 -0.339594 0
M  V30 9333 C 893.987 0.513341 -3.45204 0
M  V30 9334 C 895.335 0.791989 -4.17148 0
M  V30 9335 O 896.359 0.597799 -3.51148 0
M  V30 9336 O 895.218 1.16394 -5.33961 0
M  V30 9337 H 892.312 0.210707 -0.799707 0
M  V30 9338 H 894.858 -0.331111 -1.66438 0
M  V30 9339 H 893.63 -0.434911 -3.88876 0
M  V30 9340 H 893.253 1.27569 -3.76579 0
M  V30 9341 N 894.251 1.57596 -0.0117121 0
M  V30 9342 C 895.667 1.55837 0.344506 0
M  V30 9343 C 895.867 1.01557 1.74036 0
M  V30 9344 O 894.923 0.654563 2.43868 0
M  V30 9345 C 896.236 2.99973 0.209023 0
M  V30 9346 C 897.784 3.11717 0.283092 0
M  V30 9347 C 898.259 4.57659 0.176599 0
M  V30 9348 N 899.75 4.62608 0.234133 0
M  V30 9349 C 900.485 5.73132 0.175252 0
M  V30 9350 N 899.981 6.92768 0.0662888 0
M  V30 9351 N 901.774 5.61638 0.227972 0
M  V30 9352 H 893.925 1.91215 -0.924692 0
M  V30 9353 H 896.188 0.878807 -0.355531 0
M  V30 9354 H 895.894 3.4357 -0.751826 0
M  V30 9355 H 895.768 3.64075 0.98635 0
M  V30 9356 H 898.155 2.68043 1.23439 0
M  V30 9357 H 898.236 2.50369 -0.52431 0
M  V30 9358 H 897.88 5.02011 -0.771205 0
M  V30 9359 H 897.81 5.16967 1.00264 0
M  V30 9360 H 900.301 3.76549 0.319203 0
M  V30 9361 H 900.614 7.72795 0.0275765 0
M  V30 9362 H 898.959 6.94993 0.0317502 0
M  V30 9363 H 902.15 4.67063 0.311377 0
M  V30 9364 H 902.323 6.47754 0.178621 0
M  V30 9365 N 895.729 -0.261212 1.5542 0
M  V30 9366 C 896.976 -0.99123 1.76581 0
M  V30 9367 C 897.304 -1.85854 0.573457 0
M  V30 9368 O 896.559 -1.90604 -0.443705 0
M  V30 9369 C 896.858 -1.89395 3.03091 0
M  V30 9370 C 896.524 -1.18318 4.351 0
M  V30 9371 C 895.186 -0.986688 4.70975 0
M  V30 9372 C 897.538 -0.678299 5.16767 0
M  V30 9373 C 894.866 -0.272788 5.86065 0
M  V30 9374 C 897.218 0.0220646 6.32596 0
M  V30 9375 C 895.882 0.230161 6.67103 0
M  V30 9376 H 895.152 -0.362717 0.646156 0
M  V30 9377 H 897.799 -0.262506 1.89692 0
M  V30 9378 H 896.104 -2.68927 2.8493 0
M  V30 9379 H 897.801 -2.46022 3.16661 0
M  V30 9380 H 894.391 -1.34625 4.06908 0
M  V30 9381 H 898.575 -0.817691 4.89518 0
M  V30 9382 H 893.831 -0.10095 6.11317 0
M  V30 9383 H 898.005 0.420981 6.95126 0
M  V30 9384 H 895.632 0.785312 7.56133 0
M  V30 9385 N 897.207 -1.48554 -0.526253 0
M  V30 9386 C 898.453 -1.57972 -1.28127 0
M  V30 9387 C 898.808 -0.251973 -1.90743 0
M  V30 9388 O 898.101 0.745524 -1.76501 0
M  V30 9389 C 898.295 -2.65739 -2.38993 0
M  V30 9390 C 898.124 -4.08864 -1.87244 0
M  V30 9391 C 896.894 -4.75959 -1.6968 0
M  V30 9392 C 899.092 -4.94912 -1.39882 0
M  V30 9393 N 897.074 -6.03486 -1.12596 0
M  V30 9394 C 898.445 -6.12714 -0.947696 0
M  V30 9395 C 900.5 -4.81107 -1.2822 0
M  V30 9396 C 899.203 -7.18234 -0.391507 0
M  V30 9397 C 901.229 -5.86752 -0.740001 0
M  V30 9398 C 900.591 -7.03765 -0.298968 0
M  V30 9399 H 896.69 -0.632588 -0.459735 0
M  V30 9400 H 899.274 -1.85452 -0.59294 0
M  V30 9401 H 897.445 -2.40075 -3.05317 0
M  V30 9402 H 899.177 -2.64821 -3.06026 0
M  V30 9403 H 895.932 -4.32351 -1.93312 0
M  V30 9404 H 896.356 -6.71509 -0.860541 0
M  V30 9405 H 900.998 -3.90978 -1.60922 0
M  V30 9406 H 898.716 -8.08083 -0.0521685 0
M  V30 9407 H 902.302 -5.78125 -0.652889 0
M  V30 9408 H 901.182 -7.84117 0.114052 0
M  V30 9409 N 898.685 0.775411 -1.37205 0
M  V30 9410 C 899.615 1.90258 -1.35367 0
M  V30 9411 C 900.596 1.68634 -0.222864 0
M  V30 9412 O 901.781 1.89545 -0.422659 0
M  V30 9413 C 898.911 3.27488 -1.15623 0
M  V30 9414 C 897.865 3.63668 -2.25676 0
M  V30 9415 C 897.191 4.994 -1.91059 0
M  V30 9416 C 898.491 3.70797 -3.67841 0
M  V30 9417 H 900.185 1.92053 -2.29687 0
M  V30 9418 H 897.731 0.922597 -1.10563 0
M  V30 9419 H 899.684 4.05976 -1.12968 0
M  V30 9420 H 898.408 3.26117 -0.177573 0
M  V30 9421 H 897.067 2.87486 -2.2748 0
M  V30 9422 H 896.715 4.94565 -0.917324 0
M  V30 9423 H 896.415 5.24576 -2.64751 0
M  V30 9424 H 897.939 5.80291 -1.89985 0
M  V30 9425 H 899.353 4.39444 -3.68187 0
M  V30 9426 H 897.75 4.07468 -4.40556 0
M  V30 9427 H 898.82 2.71549 -4.01732 0
M  V30 9428 N 900.163 1.21714 1.00117 0
M  V30 9429 C 901.095 0.937627 2.09144 0
M  V30 9430 C 902.108 -0.0806291 1.626 0
M  V30 9431 O 903.297 0.152348 1.77849 0
M  V30 9432 C 900.397 0.387036 3.36683 0
M  V30 9433 C 899.57 1.46054 4.12295 0
M  V30 9434 C 898.629 0.918505 5.18122 0
M  V30 9435 O 897.655 1.60282 5.46167 0
M  V30 9436 N 898.857 -0.264308 5.79898 0
M  V30 9437 H 901.622 1.87622 2.33705 0
M  V30 9438 H 899.183 1.12291 1.16629 0
M  V30 9439 H 901.175 0.00992825 4.04699 0
M  V30 9440 H 899.745 -0.456467 3.09249 0
M  V30 9441 H 898.965 2.01133 3.39027 0
M  V30 9442 H 900.253 2.18306 4.59587 0
M  V30 9443 H 899.651 -0.837242 5.5947 0
M  V30 9444 H 898.208 -0.582886 6.49188 0
M  V30 9445 N 901.641 -1.19671 1.02551 0
M  V30 9446 C 902.574 -2.21522 0.547998 0
M  V30 9447 C 903.552 -1.57363 -0.409349 0
M  V30 9448 O 904.736 -1.85638 -0.327248 0
M  V30 9449 C 901.863 -3.38101 -0.201375 0
M  V30 9450 C 900.909 -4.20601 0.706886 0
M  V30 9451 S 901.742 -4.89066 2.18116 0
M  V30 9452 C 902.898 -6.09058 1.4422 0
M  V30 9453 H 903.131 -2.61684 1.41099 0
M  V30 9454 H 900.664 -1.29864 0.835153 0
M  V30 9455 H 902.622 -4.05674 -0.627607 0
M  V30 9456 H 901.283 -2.96381 -1.04005 0
M  V30 9457 H 900.476 -5.03836 0.128554 0
M  V30 9458 H 900.078 -3.58329 1.07129 0
M  V30 9459 H 902.37 -6.73588 0.726975 0
M  V30 9460 H 903.313 -6.71368 2.25102 0
M  V30 9461 H 903.721 -5.56599 0.941176 0
M  V30 9462 N 903.119 -0.802921 -1.35613 0
M  V30 9463 C 904.365 -0.382141 -1.99167 0
M  V30 9464 C 904.698 1.04704 -1.63556 0
M  V30 9465 O 903.973 1.72578 -0.89706 0
M  V30 9466 C 904.256 -0.561493 -3.55695 0
M  V30 9467 C 904.109 -2.03534 -4.01116 0
M  V30 9468 C 905.428 0.0151135 -4.40097 0
M  V30 9469 H 902.547 -0.140322 -0.723518 0
M  V30 9470 H 905.189 -1.01177 -1.6082 0
M  V30 9471 H 903.339 -0.0255083 -3.88492 0
M  V30 9472 H 905.011 -2.63343 -3.78746 0
M  V30 9473 H 903.254 -2.5331 -3.52159 0
M  V30 9474 H 903.925 -2.11173 -5.1001 0
M  V30 9475 H 906.401 -0.442582 -4.1374 0
M  V30 9476 H 905.277 -0.140316 -5.48721 0
M  V30 9477 H 905.538 1.10848 -4.27978 0
M  V30 9478 N 904.597 1.47463 -0.556102 0
M  V30 9479 C 905.56 2.28478 0.181743 0
M  V30 9480 C 906.56 1.36886 0.843738 0
M  V30 9481 O 907.75 1.59527 0.69977 0
M  V30 9482 C 904.882 3.16534 1.26566 0
M  V30 9483 H 906.075 2.95182 -0.529892 0
M  V30 9484 H 903.628 1.53134 -0.313005 0
M  V30 9485 H 904.363 2.5452 2.00973 0
M  V30 9486 H 904.148 3.83939 0.795798 0
M  V30 9487 H 905.638 3.77579 1.78393 0
M  V30 9488 N 906.075 0.2925 1.54862 0
M  V30 9489 C 907.321 -0.312645 2.00983 0
M  V30 9490 C 907.676 -1.52174 1.17732 0
M  V30 9491 O 906.969 -1.90045 0.243581 0
M  V30 9492 C 907.163 -0.728674 3.49893 0
M  V30 9493 C 906.992 0.438562 4.47556 0
M  V30 9494 C 905.762 0.927885 4.96708 0
M  V30 9495 C 907.96 1.28076 4.98097 0
M  V30 9496 N 905.942 2.06277 5.78207 0
M  V30 9497 C 907.313 2.26326 5.77214 0
M  V30 9498 C 909.368 1.31211 4.803 0
M  V30 9499 C 908.071 3.27478 6.4043 0
M  V30 9500 C 910.097 2.31216 5.44328 0
M  V30 9501 C 909.459 3.28197 6.23271 0
M  V30 9502 H 905.558 -0.0790979 0.777989 0
M  V30 9503 H 908.142 0.420481 1.90105 0
M  V30 9504 H 906.313 -1.43099 3.61078 0
M  V30 9505 H 908.045 -1.31263 3.82821 0
M  V30 9506 H 904.8 0.504272 4.70908 0
M  V30 9507 H 905.224 2.63436 6.23643 0
M  V30 9508 H 909.866 0.576079 4.18857 0
M  V30 9509 H 907.584 4.02005 7.01012 0
M  V30 9510 H 911.17 2.34405 5.3249 0
M  V30 9511 H 910.05 4.04314 6.71937 0
M  V30 9512 N 907.553 -1.57587 0.0200696 0
M  V30 9513 C 908.799 -1.92539 -0.655764 0
M  V30 9514 C 909.154 -0.896187 -1.70253 0
M  V30 9515 O 908.447 0.0890022 -1.91393 0
M  V30 9516 C 908.641 -3.32002 -1.32323 0
M  V30 9517 C 908.47 -4.48393 -0.342632 0
M  V30 9518 C 907.24 -5.05271 0.0542423 0
M  V30 9519 C 909.438 -5.12747 0.399388 0
M  V30 9520 N 907.42 -6.05181 1.03095 0
M  V30 9521 C 908.791 -6.07674 1.23014 0
M  V30 9522 C 910.846 -4.95761 0.461065 0
M  V30 9523 C 909.549 -6.87442 2.11698 0
M  V30 9524 C 911.575 -5.7613 1.33521 0
M  V30 9525 C 910.937 -6.70666 2.15376 0
M  V30 9526 H 907.036 -0.75256 -0.212549 0
M  V30 9527 H 909.62 -1.94514 0.0851247 0
M  V30 9528 H 907.791 -3.30863 -2.0343 0
M  V30 9529 H 909.523 -3.54327 -1.95537 0
M  V30 9530 H 906.278 -4.72529 -0.318327 0
M  V30 9531 H 906.702 -6.59824 1.51528 0
M  V30 9532 H 911.344 -4.22506 -0.15752 0
M  V30 9533 H 909.062 -7.60008 2.74616 0
M  V30 9534 H 912.648 -5.65023 1.38711 0
M  V30 9535 H 911.528 -7.31772 2.81922 0
M  V30 9536 N 909.032 0.252966 -1.55557 0
M  V30 9537 C 910.28 0.979912 -1.76754 0
M  V30 9538 C 910.601 1.86083 -0.582944 0
M  V30 9539 O 909.871 1.91742 0.401497 0
M  V30 9540 H 908.451 0.364805 -0.651864 0
M  V30 9541 H 911.113 0.272372 -1.92987 0
M  V30 9542 H 910.209 1.60518 -2.67657 0
M  V30 9543 N 910.51 1.48831 0.518367 0
M  V30 9544 C 911.442 1.60317 1.63802 0
M  V30 9545 C 912.455 0.486771 1.55352 0
M  V30 9546 O 913.644 0.758111 1.61601 0
M  V30 9547 C 910.744 1.52771 3.02513 0
M  V30 9548 C 909.917 2.79649 3.36326 0
M  V30 9549 C 908.976 2.65396 4.54369 0
M  V30 9550 O 908.002 3.39304 4.57013 0
M  V30 9551 N 909.204 1.75784 5.53245 0
M  V30 9552 H 911.969 2.56878 1.54383 0
M  V30 9553 H 909.53 1.45701 0.705889 0
M  V30 9554 H 911.522 1.40914 3.79375 0
M  V30 9555 H 910.092 0.641381 3.05949 0
M  V30 9556 H 909.312 3.05985 2.48529 0
M  V30 9557 H 910.6 3.63799 3.55707 0
M  V30 9558 H 909.998 1.14961 5.53896 0
M  V30 9559 H 908.555 1.69859 6.29278 0
M  V30 9560 N 911.988 -0.768124 1.37614 0
M  V30 9561 C 913.236 -1.52379 1.3276 0
M  V30 9562 C 913.557 -1.94809 -0.0863564 0
M  V30 9563 O 912.827 -1.66568 -1.03112 0
M  V30 9564 H 911.407 -0.565179 0.488448 0
M  V30 9565 H 914.069 -0.913974 1.72141 0
M  V30 9566 H 913.165 -2.4215 1.96901 0
M  V30 9567 N 913.466 -1.22244 -0.994698 0
M  V30 9568 C 914.691 -1.07299 -1.77487 0
M  V30 9569 C 915.116 0.372302 -1.84379 0
M  V30 9570 O 914.474 1.2689 -1.29494 0
M  V30 9571 C 914.522 -1.68675 -3.18718 0
M  V30 9572 O 913.626 -0.939202 -4.01563 0
M  V30 9573 H 912.967 -0.376979 -0.546611 0
M  V30 9574 H 915.497 -1.62003 -1.24965 0
M  V30 9575 H 915.507 -1.73324 -3.69354 0
M  V30 9576 H 914.182 -2.73849 -3.13017 0
M  V30 9577 H 912.759 -0.968583 -3.60101 0
M  V30 9578 N 914.944 1.19125 -1.03184 0
M  V30 9579 C 916.36 1.40909 -0.749447 0
M  V30 9580 C 916.56 1.9022 0.664729 0
M  V30 9581 O 915.616 2.08085 1.43028 0
M  V30 9582 C 916.929 2.41761 -1.78807 0
M  V30 9583 C 918.477 2.55503 -1.80796 0
M  V30 9584 C 918.952 3.59612 -2.83626 0
M  V30 9585 N 920.443 3.6711 -2.82461 0
M  V30 9586 C 921.178 4.47366 -3.5868 0
M  V30 9587 N 920.674 5.31302 -4.44623 0
M  V30 9588 N 922.467 4.42044 -3.47208 0
M  V30 9589 H 914.618 0.854399 -1.94458 0
M  V30 9590 H 916.881 0.437753 -0.840878 0
M  V30 9591 H 916.587 2.12559 -2.80199 0
M  V30 9592 H 916.461 3.40981 -1.61283 0
M  V30 9593 H 918.848 2.84027 -0.800803 0
M  V30 9594 H 918.929 1.56427 -2.02396 0
M  V30 9595 H 918.573 3.3183 -3.84515 0
M  V30 9596 H 918.503 4.58345 -2.59283 0
M  V30 9597 H 920.994 3.07166 -2.2013 0
M  V30 9598 H 921.307 5.89667 -4.99512 0
M  V30 9599 H 919.652 5.30753 -4.48694 0
M  V30 9600 H 922.843 3.75513 -2.79477 0
M  V30 9601 H 923.016 5.0435 -4.06859 0
M  V30 9602 N 916.422 0.810101 1.35185 0
M  V30 9603 C 917.385 0.22852 2.28058 0
M  V30 9604 C 918.385 -0.586168 1.49735 0
M  V30 9605 O 919.575 -0.40414 1.69447 0
M  V30 9606 C 916.707 -0.681041 3.34028 0
M  V30 9607 H 917.9 1.04768 2.81005 0
M  V30 9608 H 915.453 0.58101 1.451 0
M  V30 9609 H 916.188 -1.52375 2.86273 0
M  V30 9610 H 915.973 -0.0985276 3.91976 0
M  V30 9611 H 917.463 -1.08217 4.03335 0
M  V30 9612 N 917.9 -1.47166 0.563914 0
M  V30 9613 C 919.149 -2.0166 0.0401871 0
M  V30 9614 C 919.462 -1.44303 -1.32046 0
M  V30 9615 O 920.668 -1.905 -1.93448 0
M  V30 9616 C 919.124 -3.59894 0.0213257 0
M  V30 9617 C 918.732 -4.26244 1.37914 0
M  V30 9618 C 920.476 -4.22114 -0.449442 0
M  V30 9619 C 918.383 -5.76503 1.31902 0
M  V30 9620 H 917.313 -0.753916 0.0112534 0
M  V30 9621 H 919.964 -1.69091 0.712766 0
M  V30 9622 H 918.346 -3.89454 -0.717038 0
M  V30 9623 H 919.52 -4.08317 2.13574 0
M  V30 9624 H 917.835 -3.76039 1.78839 0
M  V30 9625 H 920.432 -5.32234 -0.51292 0
M  V30 9626 H 920.775 -3.89749 -1.46291 0
M  V30 9627 H 921.308 -3.9711 0.23427 0
M  V30 9628 H 918.047 -6.13498 2.3087 0
M  V30 9629 H 917.567 -5.96748 0.604324 0
M  V30 9630 H 919.246 -6.38846 1.02392 0
M  V30 9631 N 919.378 -0.300708 -1.54705 0
M  V30 9632 C 920.624 0.309111 -2.0043 0
M  V30 9633 C 920.957 1.53562 -1.1888 0
M  V30 9634 O 920.232 1.92683 -0.265205 0
M  V30 9635 C 920.515 0.665995 -3.53888 0
M  V30 9636 C 920.368 -0.56963 -4.46178 0
M  V30 9637 C 921.687 1.49262 -4.14016 0
M  V30 9638 H 918.806 0.110878 -0.728612 0
M  V30 9639 H 921.448 -0.412748 -1.85463 0
M  V30 9640 H 919.598 1.281 -3.66773 0
M  V30 9641 H 921.27 -1.20811 -4.45199 0
M  V30 9642 H 919.513 -1.20292 -4.16788 0
M  V30 9643 H 920.184 -0.275785 -5.51311 0
M  V30 9644 H 922.66 0.972979 -4.04564 0
M  V30 9645 H 921.536 1.71111 -5.21548 0
M  V30 9646 H 921.797 2.48174 -3.65872 0
M  V30 9647 N 920.856 1.57574 -0.0284266 0
M  V30 9648 C 921.819 2.09096 0.938691 0
M  V30 9649 C 922.819 1.00588 1.25454 0
M  V30 9650 O 924.009 1.2675 1.19499 0
M  V30 9651 C 921.141 2.55624 2.25542 0
M  V30 9652 H 922.334 2.95829 0.49248 0
M  V30 9653 H 919.887 1.5475 0.219594 0
M  V30 9654 H 920.622 1.72218 2.74793 0
M  V30 9655 H 920.407 3.34896 2.03929 0
M  V30 9656 H 921.897 2.95712 2.94863 0
M  V30 9657 N 922.334 -0.244713 1.55689 0
M  V30 9658 C 923.581 -0.972446 1.77622 0
M  V30 9659 C 923.909 -1.85235 0.593137 0
M  V30 9660 O 923.164 -1.91064 -0.423464 0
M  V30 9661 C 923.463 -1.8617 3.05083 0
M  V30 9662 C 923.129 -1.13696 4.3633 0
M  V30 9663 C 921.791 -0.936679 4.71996 0
M  V30 9664 C 924.143 -0.623451 5.17458 0
M  V30 9665 C 921.471 -0.210612 5.86322 0
M  V30 9666 C 923.823 0.0891587 6.32537 0
M  V30 9667 C 922.487 0.300904 6.66821 0
M  V30 9668 H 921.757 -0.355843 0.649967 0
M  V30 9669 H 924.404 -0.242372 1.8996 0
M  V30 9670 H 922.709 -2.6589 2.87767 0
M  V30 9671 H 924.406 -2.4265 3.19253 0
M  V30 9672 H 920.996 -1.30301 4.08313 0
M  V30 9673 H 925.18 -0.765725 4.90357 0
M  V30 9674 H 920.436 -0.0361062 6.11389 0
M  V30 9675 H 924.61 0.494685 6.94641 0
M  V30 9676 H 922.237 0.865466 7.55257 0
M  V30 9677 N 923.813 -1.49104 -0.510467 0
M  V30 9678 C 925.09 -1.48609 -1.27179 0
M  V30 9679 C 925.47 -0.208537 -2.10067 0
M  V30 9680 O 924.818 0.809335 -2.13687 0
M  V30 9681 C 925.028 -2.75953 -2.1366 0
M  V30 9682 C 926.376 -3.25067 -2.73161 0
M  V30 9683 O 927.4 -2.77005 -2.23934 0
M  V30 9684 O 926.259 -4.08747 -3.62751 0
M  V30 9685 H 923.353 -0.594374 -0.57502 0
M  V30 9686 H 925.899 -1.61358 -0.525515 0
M  V30 9687 H 924.671 -3.60434 -1.52325 0
M  V30 9688 H 924.294 -2.66019 -2.95499 0
M  V30 9689 N 925.291 0.760815 -1.38019 0
M  V30 9690 C 926.239 1.89578 -1.34771 0
M  V30 9691 C 927.233 1.67766 -0.234714 0
M  V30 9692 O 928.439 1.75423 -0.403352 0
M  V30 9693 H 924.814 0.623608 -0.420258 0
M  V30 9694 H 926.785 1.89434 -2.30558 0
M  V30 9695 C 925.534 3.26976 -1.18246 0
M  V30 9696 H 924.857 3.44342 -2.03147 0
M  V30 9697 H 926.297 4.06657 -1.20026 0
M  V30 9698 C 924.756 3.36717 0.111145 0
M  V30 9699 O 925.286 3.86607 1.09079 0
M  V30 9700 N 923.492 2.90128 0.165542 0
M  V30 9701 H 923.039 2.49719 -0.632328 0
M  V30 9702 H 922.997 2.97026 1.03067 0
M  V30 9703 N 926.769 1.22769 0.988202 0
M  V30 9704 C 928.018 1.0492 1.72263 0
M  V30 9705 C 928.331 -0.415282 1.91141 0
M  V30 9706 O 929.537 -0.713547 2.61956 0
M  V30 9707 C 927.993 1.82891 3.09966 0
M  V30 9708 C 927.601 3.33618 2.99003 0
M  V30 9709 C 929.345 1.73505 3.87423 0
M  V30 9710 C 927.252 4.04012 4.3189 0
M  V30 9711 H 926.182 0.38899 0.645912 0
M  V30 9712 H 928.833 1.46664 1.10281 0
M  V30 9713 H 927.215 1.33948 3.72658 0
M  V30 9714 H 928.389 3.8999 2.45448 0
M  V30 9715 H 926.704 3.43732 2.35027 0
M  V30 9716 H 929.301 2.23416 4.85787 0
M  V30 9717 H 929.644 0.696344 4.10435 0
M  V30 9718 H 930.177 2.20016 3.31418 0
M  V30 9719 H 926.916 5.08155 4.14075 0
M  V30 9720 H 926.436 3.52428 4.8534 0
M  V30 9721 H 928.115 4.0987 5.00615 0
M  V30 9722 N 928.247 -1.18576 1.03814 0
M  V30 9723 C 929.472 -1.92978 0.759873 0
M  V30 9724 C 929.897 -1.75514 -0.676486 0
M  V30 9725 O 929.255 -1.06359 -1.46824 0
M  V30 9726 C 929.303 -3.42507 1.12788 0
M  V30 9727 O 928.407 -4.1163 0.251886 0
M  V30 9728 H 927.748 -0.602129 0.279886 0
M  V30 9729 H 930.278 -1.50383 1.3873 0
M  V30 9730 H 930.288 -3.93206 1.08872 0
M  V30 9731 H 928.963 -3.5454 2.17427 0
M  V30 9732 H 927.54 -3.7125 0.350441 0
M  V30 9733 N 929.725 -0.817259 -1.34754 0
M  V30 9734 C 930.974 -0.39908 -1.97713 0
M  V30 9735 C 931.287 1.04203 -1.65533 0
M  V30 9736 O 932.493 1.56384 -2.21937 0
M  V30 9737 C 930.949 -0.662634 -3.53747 0
M  V30 9738 C 930.557 -2.11699 -3.94826 0
M  V30 9739 C 932.301 -0.31034 -4.23364 0
M  V30 9740 C 930.208 -2.32573 -5.4375 0
M  V30 9741 H 929.138 -0.145488 -0.739831 0
M  V30 9742 H 931.789 -1.00282 -1.53674 0
M  V30 9743 H 930.171 0.0111972 -3.95998 0
M  V30 9744 H 931.345 -2.82951 -3.63697 0
M  V30 9745 H 929.66 -2.43017 -3.3813 0
M  V30 9746 H 932.257 -0.44421 -5.32852 0
M  V30 9747 H 932.6 0.744594 -4.09587 0
M  V30 9748 H 933.133 -0.938518 -3.8657 0
M  V30 9749 H 929.872 -3.36551 -5.62507 0
M  V30 9750 H 929.392 -1.65858 -5.76412 0
M  V30 9751 H 931.071 -2.14651 -6.10356 0
M  V30 9752 N 931.203 1.46865 -0.571711 0
M  V30 9753 C 932.428 2.07323 -0.0564655 0
M  V30 9754 C 932.853 1.41938 1.23431 0
M  V30 9755 O 932.211 0.499334 1.74288 0
M  V30 9756 C 932.259 3.6044 0.107339 0
M  V30 9757 O 931.363 3.95558 1.1665 0
M  V30 9758 H 930.704 0.661475 -0.0578465 0
M  V30 9759 H 933.234 1.88669 -0.791524 0
M  V30 9760 H 933.244 4.06767 0.316987 0
M  V30 9761 H 931.919 4.07425 -0.835348 0
M  V30 9762 H 930.496 3.60957 0.936189 0
M  V30 9763 N 932.681 0.308908 1.54543 0
M  V30 9764 C 933.611 -0.556657 2.26768 0
M  V30 9765 C 934.592 -1.13145 1.27013 0
M  V30 9766 O 935.777 -1.15931 1.558 0
M  V30 9767 C 932.907 -1.72481 3.01443 0
M  V30 9768 C 931.861 -1.28001 4.08411 0
M  V30 9769 C 931.187 -2.53395 4.70845 0
M  V30 9770 C 932.487 -0.405497 5.20724 0
M  V30 9771 H 934.181 0.0457618 2.99365 0
M  V30 9772 H 931.727 0.0234495 1.43981 0
M  V30 9773 H 933.68 -2.3365 3.50693 0
M  V30 9774 H 932.404 -2.35359 2.26437 0
M  V30 9775 H 931.063 -0.69133 3.60022 0
M  V30 9776 H 930.711 -3.14604 3.92471 0
M  V30 9777 H 930.411 -2.2433 5.43093 0
M  V30 9778 H 931.935 -3.15352 5.22863 0
M  V30 9779 H 933.349 -0.923076 5.6582 0
M  V30 9780 H 931.746 -0.208282 5.99738 0
M  V30 9781 H 932.816 0.567412 4.81569 0
M  V30 9782 N 934.159 -1.57557 0.0367827 0
M  V30 9783 C 935.436 -1.83427 -0.679261 0
M  V30 9784 C 935.816 -0.922274 -1.89888 0
M  V30 9785 O 935.164 0.02025 -2.28491 0
M  V30 9786 C 935.374 -3.32823 -1.05022 0
M  V30 9787 C 936.722 -3.99486 -1.43861 0
M  V30 9788 O 937.746 -3.37364 -1.14297 0
M  V30 9789 O 936.605 -5.0899 -1.98977 0
M  V30 9790 H 933.699 -0.756581 -0.333936 0
M  V30 9791 H 936.245 -1.69575 0.0650494 0
M  V30 9792 H 935.017 -3.90874 -0.182509 0
M  V30 9793 H 934.64 -3.5181 -1.85244 0
M  V30 9794 N 935.637 0.236453 -1.55816 0
M  V30 9795 C 936.877 0.970249 -1.79904 0
M  V30 9796 C 937.241 1.8212 -0.607965 0
M  V30 9797 O 938.442 2.58759 -0.727833 0
M  V30 9798 C 936.713 1.79938 -3.088 0
M  V30 9799 S 938.272 2.59084 -3.54148 0
M  V30 9800 H 935.09 0.32618 -0.631765 0
M  V30 9801 H 937.692 0.237147 -1.94056 0
M  V30 9802 H 936.396 1.16412 -3.93544 0
M  V30 9803 H 935.927 2.57504 -2.97414 0
M  V30 9804 H 937.942 3.82315 -3.16306 0
M  V30 9805 N 937.115 1.49373 0.502552 0
M  V30 9806 C 938.345 1.62252 1.27898 0
M  V30 9807 C 938.753 0.292555 1.86924 0
M  V30 9808 O 938.096 -0.731823 1.68493 0
M  V30 9809 C 938.158 2.63153 2.4493 0
M  V30 9810 C 937.822 4.07541 2.06784 0
M  V30 9811 C 938.819 4.94392 1.60849 0
M  V30 9812 C 936.504 4.53263 2.16466 0
M  V30 9813 C 938.498 6.25003 1.25098 0
M  V30 9814 C 936.185 5.83888 1.80327 0
M  V30 9815 C 937.183 6.69582 1.34718 0
M  V30 9816 O 936.871 7.97773 0.990661 0
M  V30 9817 H 936.603 0.54918 0.394179 0
M  V30 9818 H 939.157 1.96132 0.610031 0
M  V30 9819 H 937.387 2.2445 3.14895 0
M  V30 9820 H 939.076 2.65578 3.06957 0
M  V30 9821 H 939.842 4.60296 1.52816 0
M  V30 9822 H 935.721 3.86731 2.50919 0
M  V30 9823 H 939.265 6.91844 0.894269 0
M  V30 9824 H 935.162 6.17513 1.8801 0
M  V30 9825 H 935.93 8.1077 1.12227 0
M  V30 9826 N 938.594 -0.753485 1.38421 0
M  V30 9827 C 939.524 -1.8808 1.38377 0
M  V30 9828 C 940.505 -1.68258 0.249664 0
M  V30 9829 O 941.69 -1.88848 0.45276 0
M  V30 9830 C 938.82 -3.25608 1.20818 0
M  V30 9831 C 937.774 -3.60032 2.31433 0
M  V30 9832 C 937.1 -4.96297 1.9898 0
M  V30 9833 C 938.4 -3.64898 3.73694 0
M  V30 9834 H 940.094 -1.88375 2.32713 0
M  V30 9835 H 937.64 -0.90489 1.12017 0
M  V30 9836 H 939.593 -4.04127 1.19412 0
M  V30 9837 H 938.317 -3.25793 0.229433 0
M  V30 9838 H 936.976 -2.83831 2.32025 0
M  V30 9839 H 936.624 -4.93043 0.995889 0
M  V30 9840 H 936.324 -5.20298 2.73063 0
M  V30 9841 H 937.848 -5.77196 1.99193 0
M  V30 9842 H 939.262 -4.33531 3.75132 0
M  V30 9843 H 937.659 -4.00407 4.46983 0
M  V30 9844 H 938.729 -2.65124 4.06002 0
M  V30 9845 N 940.072 -1.23292 -0.981677 0
M  V30 9846 C 941.3 -1.09088 -1.75805 0
M  V30 9847 C 941.715 0.357746 -1.8538 0
M  V30 9848 O 941.072 1.24751 -1.33205 0
M  V30 9849 C 941.123 -1.70885 -3.1856 0
M  V30 9850 O 940.844 -3.10082 -3.09484 0
M  V30 9851 C 942.345 -1.62106 -4.12597 0
M  V30 9852 H 939.565 -0.38184 -0.55176 0
M  V30 9853 H 942.109 -1.63116 -1.23342 0
M  V30 9854 H 940.264 -1.20893 -3.68054 0
M  V30 9855 H 940.678 -3.40039 -3.99342 0
M  V30 9856 H 942.152 -2.10049 -5.10474 0
M  V30 9857 H 942.629 -0.579642 -4.35358 0
M  V30 9858 H 943.235 -2.11457 -3.69007 0
M  V30 9859 N 941.55 1.18024 -1.04442 0
M  V30 9860 C 942.799 1.8743 -0.745185 0
M  V30 9861 C 943.112 1.81459 0.730206 0
M  V30 9862 O 944.318 2.46263 1.1431 0
M  V30 9863 C 942.774 3.36266 -1.28271 0
M  V30 9864 C 942.382 3.50757 -2.787 0
M  V30 9865 C 944.126 4.11048 -1.06018 0
M  V30 9866 C 942.033 4.93573 -3.25791 0
M  V30 9867 H 940.963 0.702038 -0.27506 0
M  V30 9868 H 943.614 1.33333 -1.26073 0
M  V30 9869 H 941.996 3.89853 -0.695002 0
M  V30 9870 H 943.17 3.07423 -3.43261 0
M  V30 9871 H 941.485 2.89385 -2.99408 0
M  V30 9872 H 944.082 5.16395 -1.38711 0
M  V30 9873 H 944.425 4.163 0.00241716 0
M  V30 9874 H 944.958 3.63644 -1.61269 0
M  V30 9875 H 941.697 4.93491 -4.31447 0
M  V30 9876 H 941.217 5.37607 -2.65968 0
M  V30 9877 H 942.896 5.62307 -3.20031 0
M  V30 9878 N 943.028 0.824394 1.34319 0
M  V30 9879 C 944.253 0.425194 2.02995 0
M  V30 9880 C 944.678 -0.961476 1.6167 0
M  V30 9881 O 944.036 -1.62593 0.80207 0
M  V30 9882 C 944.084 0.537004 3.56579 0
M  V30 9883 O 943.188 -0.442576 4.10018 0
M  V30 9884 H 942.529 0.174853 0.640564 0
M  V30 9885 H 945.059 1.11522 1.71534 0
M  V30 9886 H 945.069 0.413311 4.05901 0
M  V30 9887 H 943.744 1.54836 3.86004 0
M  V30 9888 H 942.321 -0.277644 3.71865 0
M  V30 9889 N 944.506 -1.46559 0.579492 0
M  V30 9890 C 945.754 -2.02 0.0637157 0
M  V30 9891 C 946.075 -1.45378 -1.29962 0
M  V30 9892 O 945.345 -0.637262 -1.85245 0
M  V30 9893 H 943.925 -0.746717 0.0205638 0
M  V30 9894 H 946.587 -1.79702 0.754544 0
M  V30 9895 H 945.683 -3.12099 -0.00770254 0
M  V30 9896 N 945.984 -0.3171 -1.54377 0
M  V30 9897 C 946.894 0.560867 -2.27797 0
M  V30 9898 C 947.91 1.13473 -1.31908 0
M  V30 9899 O 949.086 1.15608 -1.64914 0
M  V30 9900 C 946.151 1.70886 -3.0166 0
M  V30 9901 C 945.212 1.16745 -4.13121 0
M  V30 9902 C 944.445 2.26073 -4.83453 0
M  V30 9903 O 944.668 3.46292 -4.53252 0
M  V30 9904 O 943.602 1.91856 -5.70504 0
M  V30 9905 H 947.428 -0.035193 -3.0368 0
M  V30 9906 H 945.013 -0.0830062 -1.49169 0
M  V30 9907 H 946.895 2.37736 -3.47936 0
M  V30 9908 H 945.57 2.29122 -2.28658 0
M  V30 9909 H 944.477 0.464224 -3.71209 0
M  V30 9910 H 945.81 0.630307 -4.88147 0
M  V30 9911 N 947.462 1.57535 -0.0451378 0
M  V30 9912 C 948.739 1.83785 0.669523 0
M  V30 9913 C 949.119 0.932331 1.89396 0
M  V30 9914 O 948.467 -0.00813229 2.28499 0
M  V30 9915 C 948.677 3.33376 1.03255 0
M  V30 9916 C 950.025 4.00243 1.41741 0
M  V30 9917 O 951.049 3.37965 1.12507 0
M  V30 9918 O 949.908 5.10038 1.96275 0
M  V30 9919 H 947.002 0.758342 0.329919 0
M  V30 9920 H 949.548 1.69538 -0.0740415 0
M  V30 9921 H 948.32 3.90965 0.161777 0
M  V30 9922 H 947.943 3.52787 1.83376 0
M  V30 9923 N 948.94 -0.228186 1.55939 0
M  V30 9924 C 949.887 -1.28274 1.91871 0
M  V30 9925 C 950.857 -1.46906 0.775103 0
M  V30 9926 O 952.042 -1.60583 1.03042 0
M  V30 9927 C 949.182 -2.62945 2.23504 0
M  V30 9928 C 948.295 -2.52166 3.50766 0
M  V30 9929 C 947.43 -3.79316 3.71878 0
M  V30 9930 C 946.469 -3.63231 4.92676 0
M  V30 9931 N 945.606 -4.82315 5.10212 0
M  V30 9932 H 950.446 -0.96931 2.81795 0
M  V30 9933 H 947.983 -0.467331 1.39479 0
M  V30 9934 H 949.941 -3.41359 2.39854 0
M  V30 9935 H 948.571 -2.92397 1.36762 0
M  V30 9936 H 947.623 -1.65221 3.42646 0
M  V30 9937 H 948.935 -2.36199 4.39331 0
M  V30 9938 H 948.089 -4.66173 3.88288 0
M  V30 9939 H 946.828 -3.982 2.81581 0
M  V30 9940 H 945.833 -2.74757 4.76223 0
M  V30 9941 H 947.058 -3.45823 5.84451 0
M  V30 9942 H 945.004 -5.01526 4.22856 0
M  V30 9943 H 944.921 -4.6905 5.92898 0
M  V30 9944 H 946.189 -5.70618 5.31051 0
M  V30 9945 N 950.418 -1.49637 -0.494624 0
M  V30 9946 C 951.667 -1.58691 -1.24499 0
M  V30 9947 C 951.98 -0.281763 -1.9356 0
M  V30 9948 O 953.186 -0.250925 -2.70338 0
M  V30 9949 C 951.642 -2.8002 -2.26091 0
M  V30 9950 C 951.25 -4.17318 -1.6294 0
M  V30 9951 C 952.994 -2.98407 -3.01916 0
M  V30 9952 C 950.901 -5.29862 -2.62679 0
M  V30 9953 H 949.831 -0.590888 -0.468367 0
M  V30 9954 H 952.482 -1.76034 -0.518112 0
M  V30 9955 H 950.864 -2.56185 -3.01969 0
M  V30 9956 H 952.038 -4.51315 -0.930108 0
M  V30 9957 H 950.353 -4.04342 -0.994819 0
M  V30 9958 H 952.95 -3.79658 -3.76516 0
M  V30 9959 H 953.293 -2.09214 -3.5991 0
M  V30 9960 H 953.826 -3.22312 -2.33152 0
M  V30 9961 H 950.565 -6.21134 -2.09458 0
M  V30 9962 H 950.085 -5.00311 -3.3083 0
M  V30 9963 H 951.764 -5.59461 -3.2498 0
M  V30 9964 N 951.896 0.746133 -1.38819 0
M  V30 9965 C 952.826 1.87344 -1.39372 0
M  V30 9966 C 953.807 1.68123 -0.258583 0
M  V30 9967 O 954.992 1.88606 -0.462769 0
M  V30 9968 C 952.122 3.24962 -1.22543 0
M  V30 9969 C 951.076 3.58799 -2.33339 0
M  V30 9970 C 950.402 4.95235 -2.01609 0
M  V30 9971 C 951.702 3.62911 -3.75624 0
M  V30 9972 H 953.396 1.87138 -2.33709 0
M  V30 9973 H 950.942 0.898937 -1.12495 0
M  V30 9974 H 952.895 4.03488 -1.21554 0
M  V30 9975 H 951.619 3.25667 -0.246707 0
M  V30 9976 H 950.278 2.82596 -2.33527 0
M  V30 9977 H 949.926 4.92508 -1.02202 0
M  V30 9978 H 949.626 5.18843 -2.75819 0
M  V30 9979 H 951.15 5.76131 -2.02251 0
M  V30 9980 H 952.564 4.31535 -3.77426 0
M  V30 9981 H 950.961 3.98031 -4.491 0
M  V30 9982 H 952.031 2.62967 -4.07402 0
M  V30 9983 N 953.375 1.23811 0.975125 0
M  V30 9984 C 954.307 0.981779 2.07108 0
M  V30 9985 C 955.32 -0.0461211 1.62735 0
M  V30 9986 O 956.509 0.190039 1.77486 0
M  V30 9987 C 953.609 0.458364 3.35786 0
M  V30 9988 C 952.782 1.54767 4.09104 0
M  V30 9989 C 951.841 1.0282 5.16057 0
M  V30 9990 O 950.867 1.71831 5.42644 0
M  V30 9991 N 952.069 -0.141243 5.80328 0
M  V30 9992 H 954.834 1.92537 2.29673 0
M  V30 9993 H 952.395 1.1474 1.14221 0
M  V30 9994 H 954.387 0.0957686 4.04587 0
M  V30 9995 H 952.957 -0.390768 3.10148 0
M  V30 9996 H 952.177 2.08279 3.34684 0
M  V30 9997 H 953.465 2.28006 4.54853 0
M  V30 9998 H 952.863 -0.718382 5.6112 0
M  V30 9999 H 951.42 -0.445052 6.50279 0
M  V30 10000 N 954.853 -1.17469 1.05066 0
M  V30 10001 C 955.801 -2.23495 0.644418 0
M  V30 10002 C 956.795 -1.66081 -0.333685 0
M  V30 10003 O 958.001 -1.78887 -0.199886 0
M  V30 10004 H 954.376 -0.727546 0.190214 0
M  V30 10005 H 956.347 -2.55058 1.5488 0
M  V30 10006 C 955.096 -3.47684 0.0338051 0
M  V30 10007 H 954.419 -3.92167 0.777513 0
M  V30 10008 H 955.859 -4.23464 -0.213086 0
M  V30 10009 C 954.318 -3.14067 -1.21915 0
M  V30 10010 O 954.848 -3.28728 -2.3087 0
M  V30 10011 N 953.054 -2.68304 -1.11631 0
M  V30 10012 H 952.601 -2.56574 -0.229673 0
M  V30 10013 H 952.559 -2.46184 -1.95553 0
M  V30 10014 N 956.331 -0.831506 -1.3388 0
M  V30 10015 C 957.559 -0.436925 -2.02234 0
M  V30 10016 C 957.974 0.959689 -1.6259 0
M  V30 10017 O 957.331 1.62248 -0.835576 0
M  V30 10018 C 957.382 -0.539429 -3.57453 0
M  V30 10019 O 957.103 -1.88101 -3.95664 0
M  V30 10020 C 958.604 -0.140852 -4.43076 0
M  V30 10021 H 955.824 -0.174302 -0.647966 0
M  V30 10022 H 958.368 -1.12204 -1.70969 0
M  V30 10023 H 956.523 0.0976959 -3.87277 0
M  V30 10024 H 956.937 -1.86131 -4.90363 0
M  V30 10025 H 958.411 -0.26364 -5.5137 0
M  V30 10026 H 958.888 0.916505 -4.29531 0
M  V30 10027 H 959.494 -0.752117 -4.18597 0
M  V30 10028 N 957.809 1.4625 -0.587256 0
M  V30 10029 C 958.772 2.28812 0.133238 0
M  V30 10030 C 959.772 1.38645 0.814513 0
M  V30 10031 O 960.962 1.60975 0.665774 0
M  V30 10032 C 958.094 3.19147 1.19824 0
M  V30 10033 H 959.287 2.93991 -0.592386 0
M  V30 10034 H 956.84 1.52435 -0.345416 0
M  V30 10035 H 957.575 2.58725 1.95529 0
M  V30 10036 H 957.36 3.85541 0.71418 0
M  V30 10037 H 958.85 3.81278 1.70344 0
M  V30 10038 N 959.287 0.325282 1.54207 0
M  V30 10039 C 960.698 -0.162426 1.85992 0
M  V30 10040 C 961.049 -1.51482 1.2469 0
M  V30 10041 O 960.174 -2.092 0.553578 0
M  V30 10042 C 960.769 -0.3015 3.37456 0
M  V30 10043 C 959.328 -0.73343 3.69185 0
M  V30 10044 C 958.475 0.143831 2.76927 0
M  V30 10045 H 961.426 0.545508 1.4903 0
M  V30 10046 H 961.447 -1.13212 3.63268 0
M  V30 10047 H 960.959 0.682942 3.82044 0
M  V30 10048 H 959.06 -1.72755 3.30131 0
M  V30 10049 H 959.173 -0.535987 4.76092 0
M  V30 10050 H 957.537 -0.380892 2.51836 0
M  V30 10051 H 958.32 1.12507 3.24341 0
M  V30 10052 N 960.765 -1.57509 0.0534917 0
M  V30 10053 C 961.712 -2.11667 -0.920101 0
M  V30 10054 C 962.682 -1.0246 -1.30733 0
M  V30 10055 O 963.867 -1.30021 -1.39639 0
M  V30 10056 C 961.007 -2.66803 -2.18883 0
M  V30 10057 C 960.12 -3.90104 -1.85588 0
M  V30 10058 C 959.255 -4.33547 -3.06937 0
M  V30 10059 C 958.294 -5.49542 -2.69573 0
M  V30 10060 N 957.431 -5.88029 -3.83623 0
M  V30 10061 H 962.271 -2.94562 -0.451371 0
M  V30 10062 H 959.808 -1.45576 -0.211168 0
M  V30 10063 H 961.766 -2.96871 -2.93127 0
M  V30 10064 H 960.396 -1.86702 -2.63329 0
M  V30 10065 H 959.448 -3.66613 -1.01484 0
M  V30 10066 H 960.76 -4.74404 -1.54087 0
M  V30 10067 H 959.914 -4.6518 -3.89477 0
M  V30 10068 H 958.653 -3.48064 -3.41618 0
M  V30 10069 H 957.658 -5.17579 -1.8545 0
M  V30 10070 H 958.883 -6.36743 -2.36082 0
M  V30 10071 H 956.829 -5.05498 -4.181 0
M  V30 10072 H 956.746 -6.67025 -3.55828 0
M  V30 10073 H 958.014 -6.24277 -4.66796 0
M  V30 10074 N 962.243 0.219913 -1.56058 0
M  V30 10075 C 963.468 0.965073 -1.83579 0
M  V30 10076 C 963.893 1.77092 -0.634024 0
M  V30 10077 O 963.251 1.76434 0.417205 0
M  V30 10078 C 963.299 1.85705 -3.09105 0
M  V30 10079 O 962.403 2.95261 -2.87914 0
M  V30 10080 H 961.744 0.273173 -0.605204 0
M  V30 10081 H 964.274 0.23273 -2.03272 0
M  V30 10082 H 964.284 2.26655 -3.39252 0
M  V30 10083 H 962.959 1.26476 -3.96203 0
M  V30 10084 H 961.536 2.58246 -2.69005 0
M  V30 10085 N 963.721 1.49897 0.486681 0
M  V30 10086 C 965.137 1.36977 0.819109 0
M  V30 10087 C 965.337 0.41385 1.97204 0
M  V30 10088 O 964.393 -0.149249 2.52059 0
M  V30 10089 C 965.706 2.78013 1.14584 0
M  V30 10090 C 967.254 2.86816 1.25321 0
M  V30 10091 C 967.729 4.28651 1.61316 0
M  V30 10092 N 969.22 4.31528 1.68337 0
M  V30 10093 C 969.955 5.38254 1.97662 0
M  V30 10094 N 969.451 6.55207 2.25113 0
M  V30 10095 N 971.244 5.25683 1.99033 0
M  V30 10096 H 963.395 2.10634 -0.273364 0
M  V30 10097 H 965.658 0.946116 -0.0597418 0
M  V30 10098 H 965.364 3.49728 0.371892 0
M  V30 10099 H 965.238 3.1428 2.08585 0
M  V30 10100 H 967.625 2.15329 2.01785 0
M  V30 10101 H 967.706 2.54112 0.293368 0
M  V30 10102 H 967.35 5.00669 0.853968 0
M  V30 10103 H 967.28 4.5883 2.58424 0
M  V30 10104 H 969.771 3.47189 1.49226 0
M  V30 10105 H 970.084 7.32359 2.46717 0
M  V30 10106 H 968.429 6.58408 2.22538 0
M  V30 10107 H 971.62 4.33316 1.77074 0
M  V30 10108 H 971.793 6.08949 2.21552 0
M  V30 10109 N 965.199 -0.738761 1.39212 0
M  V30 10110 C 966.147 -1.8741 1.3777 0
M  V30 10111 C 967.141 -1.67371 0.261375 0
M  V30 10112 O 968.347 -1.74759 0.431209 0
M  V30 10113 H 964.722 -0.616843 0.430126 0
M  V30 10114 H 966.693 -1.85742 2.33543 0
M  V30 10115 C 965.442 -3.25053 1.23433 0
M  V30 10116 H 964.765 -3.41066 2.086 0
M  V30 10117 H 966.205 -4.04696 1.2648 0
M  V30 10118 C 964.664 -3.36851 -0.0575624 0
M  V30 10119 O 965.194 -3.88293 -1.02915 0
M  V30 10120 N 963.4 -2.90355 -0.119364 0
M  V30 10121 H 962.947 -2.48681 0.671976 0
M  V30 10122 H 962.905 -2.98628 -0.983286 0
M  V30 10123 N 966.677 -1.24326 -0.968545 0
M  V30 10124 C 967.607 -1.05951 -2.08079 0
M  V30 10125 C 968.588 0.0272666 -1.70078 0
M  V30 10126 O 969.773 -0.139644 -1.93697 0
M  V30 10127 C 966.903 -0.662623 -3.4092 0
M  V30 10128 C 965.857 -1.69807 -3.92873 0
M  V30 10129 C 965.183 -1.15628 -5.22048 0
M  V30 10130 C 966.483 -3.09383 -4.20808 0
M  V30 10131 H 968.177 -1.98984 -2.23709 0
M  V30 10132 H 965.723 -0.958112 -1.075 0
M  V30 10133 H 967.676 -0.521071 -4.18166 0
M  V30 10134 H 966.4 0.303399 -3.25188 0
M  V30 10135 H 965.059 -1.82783 -3.17783 0
M  V30 10136 H 964.707 -0.180888 -5.02675 0
M  V30 10137 H 964.407 -1.84822 -5.57776 0
M  V30 10138 H 965.931 -1.02683 -6.01904 0
M  V30 10139 H 967.345 -2.99642 -4.88761 0
M  V30 10140 H 965.742 -3.75923 -4.67763 0
M  V30 10141 H 966.812 -3.57486 -3.27616 0
M  V30 10142 N 968.156 1.1691 -1.05688 0
M  V30 10143 C 969.403 1.87292 -0.76993 0
M  V30 10144 C 969.731 1.81339 0.703295 0
M  V30 10145 O 968.986 1.21959 1.5305 0
M  V30 10146 C 969.285 3.36578 -1.20207 0
M  V30 10147 C 968.951 3.62732 -2.67836 0
M  V30 10148 C 967.613 3.69579 -3.08163 0
M  V30 10149 C 969.965 3.73803 -3.63209 0
M  V30 10150 C 967.293 3.84992 -4.42717 0
M  V30 10151 C 969.645 3.90735 -4.97503 0
M  V30 10152 C 968.309 3.95823 -5.37476 0
M  V30 10153 H 967.579 0.68535 -0.281737 0
M  V30 10154 H 970.226 1.38274 -1.32486 0
M  V30 10155 H 968.531 3.87687 -0.566222 0
M  V30 10156 H 970.228 3.89409 -0.957183 0
M  V30 10157 H 966.818 3.58031 -2.35609 0
M  V30 10158 H 971.002 3.67829 -3.3319 0
M  V30 10159 H 966.258 3.87181 -4.73182 0
M  V30 10160 H 970.432 3.98243 -5.71293 0
M  V30 10161 H 968.059 4.07518 -6.41742 0
M  V30 10162 N 969.634 0.838594 1.33437 0
M  V30 10163 C 970.544 0.274048 2.32994 0
M  V30 10164 C 971.56 -0.599776 1.63336 0
M  V30 10165 O 972.736 -0.503963 1.94993 0
M  V30 10166 C 969.801 -0.541804 3.4244 0
M  V30 10167 C 968.862 0.356262 4.27819 0
M  V30 10168 C 968.095 -0.420747 5.32039 0
M  V30 10169 O 968.318 -1.65247 5.45939 0
M  V30 10170 O 967.252 0.205101 6.0155 0
M  V30 10171 H 971.078 1.09846 2.83139 0
M  V30 10172 H 968.663 0.601111 1.36774 0
M  V30 10173 H 970.545 -1.00544 4.0923 0
M  V30 10174 H 969.22 -1.34328 2.94513 0
M  V30 10175 H 968.127 0.867726 3.63897 0
M  V30 10176 H 969.46 1.1225 4.79229 0
M  V30 10177 N 971.112 -1.45937 0.595003 0
M  V30 10178 C 972.528 -1.57507 0.257641 0
M  V30 10179 C 972.728 -1.58829 -1.23998 0
M  V30 10180 O 971.784 -1.51183 -2.02237 0
M  V30 10181 C 973.097 -2.86354 0.917708 0
M  V30 10182 C 974.645 -3.00007 0.892446 0
M  V30 10183 C 975.12 -4.31607 1.53229 0
M  V30 10184 N 976.611 -4.38336 1.49719 0
M  V30 10185 C 977.346 -5.38805 1.96154 0
M  V30 10186 N 976.842 -6.45882 2.50617 0
M  V30 10187 N 978.635 -5.30084 1.86997 0
M  V30 10188 H 970.786 -1.43322 1.56756 0
M  V30 10189 H 973.049 -0.684436 0.655936 0
M  V30 10190 H 972.755 -2.91233 1.97171 0
M  V30 10191 H 972.629 -3.74703 0.433344 0
M  V30 10192 H 975.016 -2.94703 -0.152975 0
M  V30 10193 H 975.097 -2.13103 1.41495 0
M  V30 10194 H 974.741 -4.3767 2.57697 0
M  V30 10195 H 974.671 -5.17308 0.984903 0
M  V30 10196 H 977.162 -3.6156 1.09921 0
M  V30 10197 H 977.475 -7.18774 2.83874 0
M  V30 10198 H 975.82 -6.46668 2.54649 0
M  V30 10199 H 979.011 -4.45337 1.44196 0
M  V30 10200 H 979.184 -6.08237 2.23499 0
M  V30 10201 N 972.59 -0.333456 -1.54032 0
M  V30 10202 C 973.538 0.543414 -2.26163 0
M  V30 10203 C 974.532 1.11037 -1.27934 0
M  V30 10204 O 975.738 1.05727 -1.45677 0
M  V30 10205 H 972.113 0.19391 -0.726569 0
M  V30 10206 H 974.084 -0.0871052 -2.98273 0
M  V30 10207 C 972.833 1.68769 -3.03994 0
M  V30 10208 H 972.156 1.26069 -3.79403 0
M  V30 10209 H 973.596 2.27662 -3.57695 0
M  V30 10210 C 972.055 2.61117 -2.12884 0
M  V30 10211 O 972.585 3.63097 -1.71823 0
M  V30 10212 N 970.791 2.29573 -1.7817 0
M  V30 10213 H 970.338 1.46684 -2.11759 0
M  V30 10214 H 970.296 2.91622 -1.1749 0
M  V30 10215 N 974.068 1.57479 -0.061844 0
M  V30 10216 C 975.479 1.80627 0.472295 0
M  V30 10217 C 975.83 0.97496 1.70261 0
M  V30 10218 O 974.955 0.1946 2.15523 0
M  V30 10219 C 975.55 3.27608 0.863616 0
M  V30 10220 C 974.109 3.51638 1.34267 0
M  V30 10221 C 973.256 2.75412 0.323009 0
M  V30 10222 H 976.207 1.56072 -0.287634 0
M  V30 10223 H 976.228 3.39113 1.72577 0
M  V30 10224 H 975.74 3.88087 -0.0320226 0
M  V30 10225 H 973.841 2.96452 2.25714 0
M  V30 10226 H 973.954 4.60342 1.32747 0
M  V30 10227 H 972.318 2.4187 0.798175 0
M  V30 10228 H 973.101 3.38623 -0.564729 0
M  V30 10229 N 975.546 -0.211634 1.56173 0
M  V30 10230 C 976.494 -1.28188 1.94089 0
M  V30 10231 C 977.488 -1.47999 0.824167 0
M  V30 10232 O 978.694 -1.49056 1.00907 0
M  V30 10233 H 975.069 -0.42999 0.616938 0
M  V30 10234 H 977.04 -0.934962 2.83374 0
M  V30 10235 C 975.789 -2.62294 2.28248 0
M  V30 10236 H 975.112 -2.4786 3.13696 0
M  V30 10237 H 976.552 -3.35967 2.58655 0
M  V30 10238 C 975.011 -3.18049 1.11113 0
M  V30 10239 O 975.541 -3.99923 0.377458 0
M  V30 10240 N 973.747 -2.76561 0.892321 0
M  V30 10241 H 973.294 -2.10088 1.49067 0
M  V30 10242 H 973.252 -3.14206 0.110344 0
M  V30 10243 N 977.024 -1.50153 -0.478725 0
M  V30 10244 C 977.971 -1.68458 -1.57767 0
M  V30 10245 C 978.941 -0.5259 -1.57555 0
M  V30 10246 O 980.126 -0.755574 -1.75202 0
M  V30 10247 C 977.266 -1.77772 -2.95789 0
M  V30 10248 C 976.379 -3.05092 -3.05848 0
M  V30 10249 C 975.514 -3.05247 -4.34739 0
M  V30 10250 C 974.553 -4.27053 -4.38512 0
M  V30 10251 N 973.69 -4.24991 -5.58862 0
M  V30 10252 H 978.53 -2.62282 -1.41464 0
M  V30 10253 H 976.067 -1.30023 -0.687921 0
M  V30 10254 H 978.025 -1.81152 -3.75819 0
M  V30 10255 H 976.655 -0.873944 -3.10744 0
M  V30 10256 H 975.707 -3.11219 -2.1874 0
M  V30 10257 H 977.019 -3.95075 -3.04495 0
M  V30 10258 H 976.173 -3.07314 -5.23109 0
M  V30 10259 H 974.912 -2.13081 -4.38689 0
M  V30 10260 H 973.917 -4.25206 -3.4854 0
M  V30 10261 H 975.142 -5.20437 -4.36259 0
M  V30 10262 H 973.088 -3.35674 -5.63612 0
M  V30 10263 H 973.005 -5.08734 -5.59219 0
M  V30 10264 H 974.273 -4.31193 -6.49379 0
M  V30 10265 N 978.502 0.731368 -1.39602 0
M  V30 10266 C 979.412 1.87579 -1.40894 0
M  V30 10267 C 980.428 1.71336 -0.303319 0
M  V30 10268 O 981.604 1.93875 -0.545377 0
M  V30 10269 C 978.669 3.23211 -1.25442 0
M  V30 10270 C 977.73 3.51822 -2.46008 0
M  V30 10271 C 976.963 4.80982 -2.31284 0
M  V30 10272 O 977.186 5.54958 -1.31824 0
M  V30 10273 O 976.12 5.09574 -3.20341 0
M  V30 10274 H 979.946 1.89444 -2.3737 0
M  V30 10275 H 977.531 0.879675 -1.20756 0
M  V30 10276 H 979.413 4.04257 -1.18972 0
M  V30 10277 H 978.088 3.22108 -0.320637 0
M  V30 10278 H 976.995 2.70847 -2.58055 0
M  V30 10279 H 978.328 3.57707 -3.38093 0
M  V30 10280 N 979.98 1.24838 0.961938 0
M  V30 10281 C 980.91 1.07053 2.07514 0
M  V30 10282 C 981.891 -0.0182465 1.7009 0
M  V30 10283 O 983.076 0.149915 1.9362 0
M  V30 10284 C 980.206 0.680693 3.40564 0
M  V30 10285 C 979.16 1.71889 3.91967 0
M  V30 10286 C 978.486 1.18395 5.21428 0
M  V30 10287 C 979.786 3.1161 4.19161 0
M  V30 10288 H 981.48 2.00167 2.22651 0
M  V30 10289 H 979.026 0.963799 1.0699 0
M  V30 10290 H 980.979 0.54324 4.17884 0
M  V30 10291 H 979.703 -0.28615 3.25344 0
M  V30 10292 H 978.362 1.84465 3.16809 0
M  V30 10293 H 978.01 0.207543 5.02572 0
M  V30 10294 H 977.71 1.87778 5.56788 0
M  V30 10295 H 979.234 1.05873 6.01351 0
M  V30 10296 H 980.648 3.0223 4.87165 0
M  V30 10297 H 979.045 3.78398 4.65763 0
M  V30 10298 H 980.115 3.59218 3.25715 0
M  V30 10299 N 981.458 -1.16348 1.06306 0
M  V30 10300 C 982.405 -2.20741 0.673962 0
M  V30 10301 C 983.375 -1.628 -0.329454 0
M  V30 10302 O 984.56 -1.89547 -0.218313 0
M  V30 10303 C 981.7 -3.45036 0.0667008 0
M  V30 10304 C 980.813 -4.17221 1.12031 0
M  V30 10305 C 979.948 -5.29034 0.479176 0
M  V30 10306 C 978.987 -5.93021 1.51631 0
M  V30 10307 N 978.124 -6.96327 0.898528 0
M  V30 10308 H 982.964 -2.53376 1.56859 0
M  V30 10309 H 980.501 -1.24449 0.784276 0
M  V30 10310 H 982.459 -4.16099 -0.302916 0
M  V30 10311 H 981.089 -3.1295 -0.791333 0
M  V30 10312 H 980.141 -3.4476 1.60763 0
M  V30 10313 H 981.453 -4.60902 1.90712 0
M  V30 10314 H 980.607 -6.06674 0.0565993 0
M  V30 10315 H 979.346 -4.86517 -0.33951 0
M  V30 10316 H 978.351 -5.14104 1.94878 0
M  V30 10317 H 979.576 -6.37618 2.3371 0
M  V30 10318 H 977.522 -6.55923 0.100555 0
M  V30 10319 H 977.439 -7.38379 1.62272 0
M  V30 10320 H 978.707 -7.77888 0.5011 0
M  V30 10321 N 982.937 -0.845659 -1.3299 0
M  V30 10322 C 984.348 -0.50048 -1.79867 0
M  V30 10323 C 984.699 0.981027 -1.69913 0
M  V30 10324 O 983.824 1.76477 -1.25239 0
M  V30 10325 C 984.419 -0.901679 -3.26581 0
M  V30 10326 C 982.978 -0.608536 -3.71448 0
M  V30 10327 C 982.125 -1.10632 -2.54275 0
M  V30 10328 H 985.076 -1.03372 -1.20416 0
M  V30 10329 H 985.097 -0.214433 -3.79895 0
M  V30 10330 H 984.609 -1.97998 -3.33794 0
M  V30 10331 H 982.71 0.459416 -3.69757 0
M  V30 10332 H 982.823 -1.16853 -4.64631 0
M  V30 10333 H 981.187 -0.526925 -2.4919 0
M  V30 10334 H 981.97 -2.19154 -2.64247 0
M  V30 10335 N 984.415 1.45619 -0.602734 0
M  V30 10336 C 985.663 2.01873 -0.095844 0
M  V30 10337 C 985.984 1.47427 1.27633 0
M  V30 10338 O 985.254 0.666652 1.84208 0
M  V30 10339 H 983.834 0.746295 -0.0324408 0
M  V30 10340 H 986.496 1.78478 -0.783037 0
M  V30 10341 H 985.592 3.12072 -0.0419507 0
M  V30 10342 N 985.893 0.34162 1.53853 0
M  V30 10343 C 986.803 -0.524555 2.2866 0
M  V30 10344 C 987.819 -1.1136 1.33697 0
M  V30 10345 O 988.995 -1.1297 1.66732 0
M  V30 10346 C 986.06 -1.66065 3.04341 0
M  V30 10347 C 985.121 -1.10158 4.14926 0
M  V30 10348 C 984.354 -2.18353 4.86988 0
M  V30 10349 O 984.577 -3.39038 4.58704 0
M  V30 10350 O 983.511 -1.82756 5.73484 0
M  V30 10351 H 987.337 0.0835014 3.03585 0
M  V30 10352 H 984.922 0.106727 1.49018 0
M  V30 10353 H 986.804 -2.3217 3.51674 0
M  V30 10354 H 985.479 -2.25456 2.32275 0
M  V30 10355 H 984.386 -0.405109 3.719 0
M  V30 10356 H 985.719 -0.552567 4.89088 0
M  V30 10357 N 987.371 -1.57444 0.0701946 0
M  V30 10358 C 988.319 -2.13834 -0.915302 0
M  V30 10359 C 989.313 -1.07483 -1.30934 0
M  V30 10360 O 990.519 -1.25865 -1.28678 0
M  V30 10361 H 986.894 -0.683716 -0.313108 0
M  V30 10362 H 988.865 -2.95503 -0.414758 0
M  V30 10363 C 987.614 -2.71355 -2.17398 0
M  V30 10364 H 986.937 -3.52861 -1.87961 0
M  V30 10365 H 988.377 -3.1441 -2.84469 0
M  V30 10366 C 986.836 -1.66038 -2.93143 0
M  V30 10367 O 987.366 -1.08443 -3.86786 0
M  V30 10368 N 985.572 -1.3711 -2.56221 0
M  V30 10369 H 985.119 -1.84135 -1.80145 0
M  V30 10370 H 985.077 -0.66877 -3.07205 0
M  V30 10371 N 988.849 0.203349 -1.56283 0
M  V30 10372 C 990.074 0.945548 -1.84592 0
M  V30 10373 C 990.499 1.7641 -0.652772 0
M  V30 10374 O 989.857 1.76867 0.398468 0
M  V30 10375 C 989.905 1.82416 -3.11057 0
M  V30 10376 O 989.009 2.92191 -2.9103 0
M  V30 10377 H 988.35 0.266739 -0.608068 0
M  V30 10378 H 990.88 0.211158 -2.03507 0
M  V30 10379 H 990.89 2.23044 -3.41636 0
M  V30 10380 H 989.565 1.22267 -3.97522 0
M  V30 10381 H 988.142 2.55378 -2.71728 0
M  V30 10382 N 990.327 1.50405 0.470755 0
M  V30 10383 C 991.738 1.54266 1.05162 0
M  V30 10384 C 992.089 0.346359 1.93119 0
M  V30 10385 O 991.214 -0.540699 2.09536 0
M  V30 10386 C 991.809 2.7956 1.91394 0
M  V30 10387 C 990.368 2.86101 2.44588 0
M  V30 10388 C 989.515 2.48557 1.22941 0
M  V30 10389 H 992.466 1.56665 0.253359 0
M  V30 10390 H 992.487 2.61434 2.76464 0
M  V30 10391 H 991.999 3.66611 1.27351 0
M  V30 10392 H 990.1 2.03403 3.12183 0
M  V30 10393 H 990.213 3.88999 2.79672 0
M  V30 10394 H 988.577 2.01003 1.56429 0
M  V30 10395 H 989.36 3.37916 0.605598 0
M  V30 10396 N 991.805 -0.723954 1.39988 0
M  V30 10397 C 993.221 -1.03095 1.21834 0
M  V30 10398 C 993.421 -2.01309 0.0876647 0
M  V30 10399 O 992.477 -2.46277 -0.55714 0
M  V30 10400 C 993.79 -1.58267 2.5568 0
M  V30 10401 C 995.338 -1.70293 2.6262 0
M  V30 10402 C 995.813 -2.28872 3.96713 0
M  V30 10403 N 997.304 -2.36269 3.98411 0
M  V30 10404 C 998.039 -2.82557 4.98948 0
M  V30 10405 N 997.535 -3.28661 6.0988 0
M  V30 10406 N 999.328 -2.81866 4.86321 0
M  V30 10407 H 991.479 -0.0727891 2.12275 0
M  V30 10408 H 993.742 -0.0949029 0.943238 0
M  V30 10409 H 993.448 -0.935642 3.39026 0
M  V30 10410 H 993.322 -2.56914 2.76179 0
M  V30 10411 H 995.709 -2.34115 1.7965 0
M  V30 10412 H 995.79 -0.70268 2.45959 0
M  V30 10413 H 995.434 -1.65675 4.80119 0
M  V30 10414 H 995.364 -3.29595 4.107 0
M  V30 10415 H 997.855 -2.03697 3.18302 0
M  V30 10416 H 998.168 -3.62524 6.82493 0
M  V30 10417 H 996.513 -3.26641 6.13458 0
M  V30 10418 H 999.704 -2.45179 3.98754 0
M  V30 10419 H 999.877 -3.17626 5.64817 0
M  V30 10420 N 993.283 -1.25346 -0.955304 0
M  V30 10421 C 994.215 -1.0146 -2.0552 0
M  V30 10422 C 995.228 0.0202256 -1.62787 0
M  V30 10423 O 996.417 -0.218251 -1.77161 0
M  V30 10424 C 993.517 -0.511727 -3.35014 0
M  V30 10425 C 992.69 -1.61256 -4.0659 0
M  V30 10426 C 991.749 -1.11017 -5.14356 0
M  V30 10427 O 990.775 -1.80443 -5.39842 0
M  V30 10428 N 991.977 0.0489001 -5.80479 0
M  V30 10429 H 994.742 -1.96166 -2.26581 0
M  V30 10430 H 992.303 -1.16543 -1.12381 0
M  V30 10431 H 994.295 -0.160123 -4.04383 0
M  V30 10432 H 992.865 0.341377 -3.1073 0
M  V30 10433 H 992.085 -2.13577 -3.31328 0
M  V30 10434 H 993.373 -2.35213 -4.51168 0
M  V30 10435 H 992.771 0.629021 -5.62192 0
M  V30 10436 H 991.328 0.341542 -6.50905 0
M  V30 10437 N 994.761 1.15782 -1.06922 0
M  V30 10438 C 995.989 1.90355 -0.81072 0
M  V30 10439 C 996.404 1.77779 0.635614 0
M  V30 10440 O 995.761 1.12675 1.43564 0
M  V30 10441 C 995.812 3.4085 -1.2043 0
M  V30 10442 O 995.533 3.53057 -2.59388 0
M  V30 10443 C 997.034 4.32457 -0.974473 0
M  V30 10444 H 994.254 0.60343 -0.293451 0
M  V30 10445 H 996.798 1.46723 -1.42452 0
M  V30 10446 H 994.953 3.82162 -0.634909 0
M  V30 10447 H 995.367 4.46426 -2.75326 0
M  V30 10448 H 996.841 5.36488 -1.29942 0
M  V30 10449 H 997.318 4.39109 0.0894481 0
M  V30 10450 H 997.924 3.96882 -1.52856 0
M  V30 10451 N 996.239 0.8527 1.3254 0
M  V30 10452 C 997.65 0.510012 1.79599 0
M  V30 10453 C 998.001 -0.972002 1.70431 0
M  V30 10454 O 997.126 -1.7581 1.26173 0
M  V30 10455 C 997.721 0.918986 3.26098 0
M  V30 10456 C 996.28 0.628227 3.7112 0
M  V30 10457 C 995.427 1.11979 2.53685 0
M  V30 10458 H 998.378 1.04009 1.19866 0
M  V30 10459 H 998.399 0.234577 3.79776 0
M  V30 10460 H 997.911 1.99765 3.32739 0
M  V30 10461 H 996.012 -0.4398 3.69995 0
M  V30 10462 H 996.125 1.19315 4.64005 0
M  V30 10463 H 994.489 0.540133 2.48907 0
M  V30 10464 H 995.272 2.20552 2.63081 0
M  V30 10465 N 997.718 -1.45297 0.610449 0
M  V30 10466 C 998.967 -2.0143 0.104323 0
M  V30 10467 C 999.28 -1.48431 -1.27388 0
M  V30 10468 O 1000.49 -1.96558 -1.87289 0
M  V30 10469 C 998.942 -3.59644 0.135812 0
M  V30 10470 C 998.55 -4.2164 1.51405 0
M  V30 10471 C 1000.29 -4.2333 -0.314922 0
M  V30 10472 C 998.201 -5.72015 1.50176 0
M  V30 10473 H 997.131 -0.753176 0.035233 0
M  V30 10474 H 999.782 -1.66738 0.7662 0
M  V30 10475 H 998.164 -3.91538 -0.592773 0
M  V30 10476 H 999.338 -4.01315 2.26457 0
M  V30 10477 H 997.653 -3.70159 1.90712 0
M  V30 10478 H 1000.25 -5.33597 -0.343335 0
M  V30 10479 H 1000.59 -3.94206 -1.33817 0
M  V30 10480 H 1001.13 -3.96163 0.360489 0
M  V30 10481 H 997.865 -6.05842 2.50271 0
M  V30 10482 H 997.385 -5.94523 0.793869 0
M  V30 10483 H 999.064 -6.35266 1.22665 0
M  V30 10484 N 999.196 -0.349774 -1.5367 0
M  V30 10485 C 1000.44 0.244827 -2.01015 0
M  V30 10486 C 1000.77 1.50057 -1.23746 0
M  V30 10487 O 1000.03 1.9315 -0.314872 0
M  V30 10488 C 1000.32 0.598311 -3.52356 0
M  V30 10489 C 999.991 -0.56127 -4.47393 0
M  V30 10490 C 998.653 -0.879481 -4.73095 0
M  V30 10491 C 1001 -1.3389 -5.03709 0
M  V30 10492 C 998.333 -1.97758 -5.52366 0
M  V30 10493 C 1000.68 -2.4273 -5.84179 0
M  V30 10494 C 999.349 -2.75103 -6.08173 0
M  V30 10495 H 998.619 0.0895884 -0.735564 0
M  V30 10496 H 1001.27 -0.478975 -1.85413 0
M  V30 10497 H 999.571 1.40291 -3.65822 0
M  V30 10498 H 1001.27 1.07036 -3.86451 0
M  V30 10499 H 997.858 -0.303201 -4.27526 0
M  V30 10500 H 1002.04 -1.10632 -4.83812 0
M  V30 10501 H 997.298 -2.23257 -5.6918 0
M  V30 10502 H 1001.47 -3.03412 -6.26828 0
M  V30 10503 H 999.099 -3.60317 -6.69385 0
M  V30 10504 N 1000.67 1.57404 -0.0785433 0
M  V30 10505 C 1001.95 1.85163 0.630389 0
M  V30 10506 C 1002.33 0.972295 1.87376 0
M  V30 10507 O 1001.68 0.0403375 2.28464 0
M  V30 10508 C 1001.89 3.35491 0.961604 0
M  V30 10509 C 1003.24 4.0316 1.33219 0
M  V30 10510 O 1004.26 3.40276 1.05313 0
M  V30 10511 O 1003.12 5.14086 1.85412 0
M  V30 10512 H 1000.21 0.765169 0.31376 0
M  V30 10513 H 1002.76 1.69343 -0.109986 0
M  V30 10514 H 1001.53 3.91221 0.0788113 0
M  V30 10515 H 1001.15 3.56598 1.75852 0
M  V30 10516 N 1002.15 -0.195058 1.56388 0
M  V30 10517 C 1003.56 -0.75973 1.70543 0
M  V30 10518 C 1003.91 -1.83849 0.685118 0
M  V30 10519 O 1003.04 -2.15819 -0.158457 0
M  V30 10520 C 1003.63 -1.38485 3.09204 0
M  V30 10521 C 1002.19 -1.89661 3.25124 0
M  V30 10522 C 1001.34 -0.766563 2.66494 0
M  V30 10523 H 1004.29 0.0300148 1.58672 0
M  V30 10524 H 1004.31 -2.25424 3.06536 0
M  V30 10525 H 1003.82 -0.599479 3.83442 0
M  V30 10526 H 1001.92 -2.70917 2.55802 0
M  V30 10527 H 1002.04 -2.05837 4.32629 0
M  V30 10528 H 1000.4 -1.18086 2.25672 0
M  V30 10529 H 1001.18 0.00657102 3.43299 0
M  V30 10530 N 1003.63 -1.50653 -0.462772 0
M  V30 10531 C 1004.86 -1.65826 -1.23731 0
M  V30 10532 C 1005.27 -0.345002 -1.85621 0
M  V30 10533 O 1004.63 0.673935 -1.69601 0
M  V30 10534 C 1004.68 -2.7555 -2.33997 0
M  V30 10535 O 1004.4 -4.01785 -1.74643 0
M  V30 10536 C 1005.9 -3.0177 -3.2473 0
M  V30 10537 H 1003.12 -0.557177 -0.373892 0
M  V30 10538 H 1005.67 -1.96925 -0.551434 0
M  V30 10539 H 1003.82 -2.47122 -2.98345 0
M  V30 10540 H 1004.24 -4.62529 -2.4732 0
M  V30 10541 H 1005.71 -3.82188 -3.98292 0
M  V30 10542 H 1006.19 -2.13167 -3.84001 0
M  V30 10543 H 1006.79 -3.31761 -2.66111 0
M  V30 10544 N 1005.11 0.71652 -1.4037 0
M  V30 10545 C 1006.35 1.47857 -1.38803 0
M  V30 10546 C 1006.69 1.94197 0.0100536 0
M  V30 10547 O 1005.96 1.68093 0.978521 0
M  V30 10548 C 1006.25 2.7053 -2.37667 0
M  V30 10549 C 1006.1 2.3009 -3.86496 0
M  V30 10550 C 1007.42 3.72684 -2.34082 0
M  V30 10551 H 1004.54 0.53632 -0.505499 0
M  V30 10552 H 1007.18 0.817824 -1.71498 0
M  V30 10553 H 1005.33 3.26906 -2.09916 0
M  V30 10554 H 1007 1.79202 -4.2507 0
M  V30 10555 H 1005.24 1.62102 -4.02375 0
M  V30 10556 H 1005.91 3.18018 -4.51186 0
M  V30 10557 H 1008.39 3.25935 -2.58661 0
M  V30 10558 H 1007.27 4.56157 -3.05306 0
M  V30 10559 H 1007.53 4.20916 -1.35213 0
M  V30 10560 N 1006.59 1.25851 0.948643 0
M  V30 10561 C 1007.54 1.03437 2.03187 0
M  V30 10562 C 1008.52 -0.0307632 1.60871 0
M  V30 10563 O 1009.71 0.185296 1.76027 0
M  V30 10564 C 1006.84 0.661426 3.36868 0
M  V30 10565 C 1005.93 1.76363 3.8569 0
M  V30 10566 N 1006.32 2.9998 4.07241 0
M  V30 10567 C 1004.62 1.64552 4.14534 0
M  V30 10568 C 1005.32 3.71564 4.47566 0
M  V30 10569 N 1004.29 2.99214 4.53841 0
M  V30 10570 H 1008.1 1.97277 2.17851 0
M  V30 10571 H 1005.61 1.16258 1.13392 0
M  V30 10572 H 1007.61 0.482021 4.14104 0
M  V30 10573 H 1006.27 -0.269582 3.23579 0
M  V30 10574 H 1007.28 3.35963 3.94143 0
M  V30 10575 H 1003.95 0.783891 4.10075 0
M  V30 10576 H 1005.34 4.77702 4.72494 0
M  V30 10577 N 1008.06 -1.15214 1.07534 0
M  V30 10578 C 1009.31 -1.86548 0.810651 0
M  V30 10579 C 1009.67 -1.80863 -0.656236 0
M  V30 10580 O 1008.96 -1.22216 -1.47559 0
M  V30 10581 C 1009.15 -3.34623 1.25547 0
M  V30 10582 C 1008.98 -3.54725 2.76406 0
M  V30 10583 C 1007.75 -3.70089 3.44038 0
M  V30 10584 C 1009.95 -3.52392 3.74599 0
M  V30 10585 N 1007.93 -3.78262 4.8352 0
M  V30 10586 C 1009.3 -3.66701 4.9993 0
M  V30 10587 C 1011.36 -3.35677 3.6773 0
M  V30 10588 C 1010.06 -3.66023 6.19209 0
M  V30 10589 C 1012.09 -3.36298 4.86475 0
M  V30 10590 C 1011.45 -3.51139 6.1064 0
M  V30 10591 H 1007.55 -0.699691 0.349223 0
M  V30 10592 H 1010.13 -1.3815 1.37196 0
M  V30 10593 H 1008.3 -3.81633 0.721837 0
M  V30 10594 H 1010.03 -3.93677 0.938126 0
M  V30 10595 H 1006.79 -3.70943 2.94446 0
M  V30 10596 H 1007.21 -3.86087 5.56117 0
M  V30 10597 H 1011.86 -3.2312 2.72678 0
M  V30 10598 H 1009.57 -3.77358 7.14581 0
M  V30 10599 H 1013.16 -3.2459 4.82838 0
M  V30 10600 H 1012.04 -3.51555 7.00984 0
M  V30 10601 N 1009.54 -0.859717 -1.32086 0
M  V30 10602 C 1010.47 -0.323502 -2.31248 0
M  V30 10603 C 1011.45 0.580085 -1.59903 0
M  V30 10604 O 1012.64 0.499265 -1.87673 0
M  V30 10605 C 1009.77 0.484661 -3.43902 0
M  V30 10606 C 1008.72 -0.324933 -4.26765 0
M  V30 10607 C 1008.05 0.608281 -5.31229 0
M  V30 10608 C 1009.35 -1.55344 -4.98664 0
M  V30 10609 H 1011.04 -1.15209 -2.76346 0
M  V30 10610 H 1008.59 -0.555442 -1.32856 0
M  V30 10611 H 1010.54 0.870238 -4.12316 0
M  V30 10612 H 1009.27 1.34666 -2.97544 0
M  V30 10613 H 1007.92 -0.692328 -3.60003 0
M  V30 10614 H 1007.57 1.46727 -4.81124 0
M  V30 10615 H 1007.27 0.0705571 -5.87558 0
M  V30 10616 H 1008.8 0.990925 -6.02506 0
M  V30 10617 H 1010.21 -1.23987 -5.59732 0
M  V30 10618 H 1008.61 -2.02947 -5.64741 0
M  V30 10619 H 1009.68 -2.31192 -4.26237 0
M  V30 10620 N 1011.02 1.44971 -0.618145 0
M  V30 10621 C 1012.27 2.02159 -0.117482 0
M  V30 10622 C 1012.6 1.48517 1.2559 0
M  V30 10623 O 1011.85 0.654192 1.84442 0
M  V30 10624 C 1012.15 3.57378 -0.0394861 0
M  V30 10625 C 1011.82 4.30218 -1.34993 0
M  V30 10626 C 1010.48 4.49835 -1.70886 0
M  V30 10627 C 1012.83 4.71768 -2.21551 0
M  V30 10628 C 1010.16 5.08258 -2.9307 0
M  V30 10629 C 1012.51 5.31543 -3.42993 0
M  V30 10630 C 1011.17 5.49381 -3.79126 0
M  V30 10631 H 1010.44 0.739752 -0.0429897 0
M  V30 10632 H 1013.09 1.73903 -0.801871 0
M  V30 10633 H 1011.4 3.84973 0.728217 0
M  V30 10634 H 1013.09 3.99343 0.364213 0
M  V30 10635 H 1009.68 4.15271 -1.06057 0
M  V30 10636 H 1013.87 4.56336 -1.95117 0
M  V30 10637 H 1009.12 5.20257 -3.21158 0
M  V30 10638 H 1013.3 5.62691 -4.10308 0
M  V30 10639 H 1010.92 5.94419 -4.73888 0
M  V30 10640 N 1012.5 0.357919 1.53482 0
M  V30 10641 C 1013.73 -0.23514 2.05559 0
M  V30 10642 C 1014.14 -1.43068 1.23195 0
M  V30 10643 O 1013.5 -1.80481 0.270741 0
M  V30 10644 C 1013.55 -0.636147 3.55859 0
M  V30 10645 O 1013.27 0.511864 4.35099 0
M  V30 10646 C 1014.77 -1.28841 4.24164 0
M  V30 10647 H 1011.99 -0.0428446 0.669631 0
M  V30 10648 H 1014.54 0.51407 1.97933 0
M  V30 10649 H 1012.69 -1.33528 3.63661 0
M  V30 10650 H 1013.1 0.189328 5.24158 0
M  V30 10651 H 1014.58 -1.51962 5.30671 0
M  V30 10652 H 1015.06 -2.24638 3.77405 0
M  V30 10653 H 1015.66 -0.630914 4.20594 0
M  V30 10654 N 1013.98 -1.5736 0.0868897 0
M  V30 10655 C 1015.2 -1.98388 -0.587349 0
M  V30 10656 C 1015.62 -0.965757 -1.6223 0
M  V30 10657 O 1014.98 0.0456981 -1.82443 0
M  V30 10658 C 1015.03 -3.39479 -1.24242 0
M  V30 10659 O 1014.75 -4.37393 -0.248878 0
M  V30 10660 C 1016.25 -3.95465 -2.00305 0
M  V30 10661 H 1013.47 -0.652111 -0.15809 0
M  V30 10662 H 1016.01 -2.03843 0.163754 0
M  V30 10663 H 1014.17 -3.35063 -1.94451 0
M  V30 10664 H 1014.58 -5.19525 -0.720678 0
M  V30 10665 H 1016.06 -4.96363 -2.41511 0
M  V30 10666 H 1016.53 -3.32832 -2.86565 0
M  V30 10667 H 1017.14 -4.03328 -1.34931 0
M  V30 10668 N 1015.45 0.186762 -1.56489 0
M  V30 10669 C 1016.69 0.912523 -1.829 0
M  V30 10670 C 1017.06 1.80094 -0.665598 0
M  V30 10671 O 1018.26 2.56312 -0.809787 0
M  V30 10672 C 1016.53 1.70022 -3.14368 0
M  V30 10673 S 1018.09 2.47686 -3.62211 0
M  V30 10674 H 1014.91 0.305916 -0.641823 0
M  V30 10675 H 1017.51 0.175289 -1.94713 0
M  V30 10676 H 1016.21 1.03832 -3.97048 0
M  V30 10677 H 1015.74 2.47912 -3.05456 0
M  V30 10678 H 1017.76 3.72058 -3.28309 0
M  V30 10679 N 1016.93 1.50896 0.454776 0
M  V30 10680 C 1018.18 1.62378 1.20324 0
M  V30 10681 C 1018.5 0.333883 1.9212 0
M  V30 10682 O 1017.77 -0.649477 1.8482 0
M  V30 10683 H 1016.35 0.598395 0.447139 0
M  V30 10684 H 1019.01 1.87749 0.523102 0
M  V30 10685 H 1018.11 2.44296 1.94232 0
M  V30 10686 N 1018.41 -0.709066 1.40748 0
M  V30 10687 C 1019.37 -1.80485 1.41272 0
M  V30 10688 C 1020.37 -1.57872 0.305463 0
M  V30 10689 O 1021.56 -1.64793 0.564691 0
M  V30 10690 C 1018.7 -3.1867 1.21087 0
M  V30 10691 H 1019.89 -1.81417 2.38805 0
M  V30 10692 H 1017.44 -0.915356 1.26692 0
M  V30 10693 H 1018.18 -3.23385 0.243406 0
M  V30 10694 H 1017.96 -3.36484 2.01299 0
M  V30 10695 H 1019.45 -3.98685 1.24257 0
M  V30 10696 N 1019.89 -1.26353 -0.941956 0
M  V30 10697 C 1021.11 -1.14731 -1.72776 0
M  V30 10698 C 1021.54 0.293766 -1.85792 0
M  V30 10699 O 1020.9 1.21284 -1.34759 0
M  V30 10700 C 1020.95 -1.82041 -3.11277 0
M  V30 10701 O 1020.05 -1.10867 -3.97218 0
M  V30 10702 H 1019.39 -0.399823 -0.53013 0
M  V30 10703 H 1021.92 -1.67157 -1.17981 0
M  V30 10704 H 1021.93 -1.88834 -3.61671 0
M  V30 10705 H 1020.61 -2.86879 -3.0112 0
M  V30 10706 H 1019.18 -1.12044 -3.55669 0
M  V30 10707 N 1021.37 1.14642 -1.08144 0
M  V30 10708 C 1022.62 1.8525 -0.807885 0
M  V30 10709 C 1022.94 1.83194 0.668213 0
M  V30 10710 O 1022.21 1.27848 1.48431 0
M  V30 10711 H 1020.79 0.685909 -0.295868 0
M  V30 10712 H 1023.45 1.38935 -1.36686 0
M  V30 10713 H 1022.54 2.90155 -1.14964 0
M  V30 10714 N 1022.85 0.866709 1.31628 0
M  V30 10715 C 1024.26 0.529032 1.79048 0
M  V30 10716 C 1024.61 -0.953871 1.71452 0
M  V30 10717 O 1023.73 -1.74462 1.28031 0
M  V30 10718 C 1024.33 0.953522 3.25105 0
M  V30 10719 C 1022.89 0.667554 3.70433 0
M  V30 10720 C 1022.03 1.14664 2.52483 0
M  V30 10721 H 1024.98 1.05275 1.18756 0
M  V30 10722 H 1025.01 0.274844 3.79506 0
M  V30 10723 H 1024.52 2.03283 3.30602 0
M  V30 10724 H 1022.62 -0.400532 3.70441 0
M  V30 10725 H 1022.73 1.2423 4.62714 0
M  V30 10726 H 1021.1 0.566502 2.4832 0
M  V30 10727 H 1021.88 2.2333 2.60727 0
M  V30 10728 N 1024.32 -1.44642 0.625825 0
M  V30 10729 C 1025.27 -2.27762 -0.104042 0
M  V30 10730 C 1026.26 -1.38364 -0.821232 0
M  V30 10731 O 1027.45 -1.62214 -0.708213 0
M  V30 10732 C 1024.58 -3.25585 -1.08853 0
M  V30 10733 C 1023.66 -4.22472 -0.371241 0
M  V30 10734 N 1024.06 -5.02262 0.597226 0
M  V30 10735 C 1022.35 -4.4172 -0.616392 0
M  V30 10736 C 1023.05 -5.72678 1.02053 0
M  V30 10737 N 1022.03 -5.42404 0.360423 0
M  V30 10738 H 1025.83 -2.86858 0.639517 0
M  V30 10739 H 1023.35 -1.56015 0.450911 0
M  V30 10740 H 1025.34 -3.83885 -1.62597 0
M  V30 10741 H 1024 -2.68051 -1.83245 0
M  V30 10742 H 1025.01 -5.08643 0.974803 0
M  V30 10743 H 1021.69 -3.9529 -1.34359 0
M  V30 10744 H 1023.08 -6.46772 1.82033 0
M  V30 10745 N 1025.8 -0.366053 -1.5329 0
M  V30 10746 C 1027.05 0.223051 -2.00865 0
M  V30 10747 C 1027.37 1.49244 -1.25504 0
M  V30 10748 O 1026.64 1.92404 -0.368444 0
M  V30 10749 H 1025.22 0.085413 -0.742101 0
M  V30 10750 H 1027.88 -0.492396 -1.88578 0
M  V30 10751 H 1026.98 0.449701 -3.08843 0
M  V30 10752 N 1027.28 1.57312 -0.0952337 0
M  V30 10753 C 1028.69 1.81589 0.433875 0
M  V30 10754 C 1029.04 1.01086 1.68155 0
M  V30 10755 O 1028.17 0.240272 2.15062 0
M  V30 10756 C 1028.76 3.29366 0.793931 0
M  V30 10757 C 1027.32 3.54407 1.26778 0
M  V30 10758 C 1026.47 2.76035 0.264518 0
M  V30 10759 H 1029.42 1.55426 -0.320675 0
M  V30 10760 H 1029.44 3.42697 1.65345 0
M  V30 10761 H 1028.95 3.87932 -0.114334 0
M  V30 10762 H 1027.05 3.01173 2.19376 0
M  V30 10763 H 1027.17 4.63055 1.22952 0
M  V30 10764 H 1025.53 2.43509 0.746691 0
M  V30 10765 H 1026.31 3.37349 -0.636429 0
M  V30 10766 N 1028.76 -0.17846 1.56586 0
M  V30 10767 C 1029.99 -0.911996 1.85715 0
M  V30 10768 C 1030.4 -1.76138 0.679766 0
M  V30 10769 O 1029.76 -1.79088 -0.351266 0
M  V30 10770 C 1029.81 -1.79459 3.1381 0
M  V30 10771 O 1029.53 -0.979476 4.2701 0
M  V30 10772 C 1031.03 -2.6384 3.56235 0
M  V30 10773 H 1028.25 -0.265299 0.616326 0
M  V30 10774 H 1030.79 -0.180704 2.037 0
M  V30 10775 H 1028.95 -2.4793 2.97673 0
M  V30 10776 H 1029.36 -1.58244 5.00059 0
M  V30 10777 H 1030.84 -3.21396 4.48786 0
M  V30 10778 H 1031.31 -3.38363 2.80013 0
M  V30 10779 H 1031.92 -2.00712 3.7496 0
M  V30 10780 N 1030.24 -1.51135 -0.446768 0
M  V30 10781 C 1031.17 -1.67949 -1.55967 0
M  V30 10782 C 1032.18 -0.560337 -1.52853 0
M  V30 10783 O 1033.37 -0.83435 -1.578 0
M  V30 10784 C 1030.47 -1.6703 -2.9488 0
M  V30 10785 C 1029.64 -2.95377 -3.22601 0
M  V30 10786 C 1028.7 -2.86772 -4.4119 0
M  V30 10787 O 1027.73 -3.60722 -4.40304 0
M  V30 10788 N 1028.93 -2.01979 -5.44228 0
M  V30 10789 H 1031.69 -2.63951 -1.41951 0
M  V30 10790 H 1029.26 -1.48903 -0.635569 0
M  V30 10791 H 1031.25 -1.58854 -3.7222 0
M  V30 10792 H 1029.82 -0.786623 -3.02541 0
M  V30 10793 H 1029.04 -3.17494 -2.33647 0
M  V30 10794 H 1030.33 -3.80356 -3.37945 0
M  V30 10795 H 1029.72 -1.41257 -5.4778 0
M  V30 10796 H 1028.28 -1.99689 -6.20457 0
M  V30 10797 N 1031.71 0.701592 -1.41122 0
M  V30 10798 C 1032.68 1.79733 -1.42227 0
M  V30 10799 C 1033.68 1.57708 -0.313831 0
M  V30 10800 O 1034.87 1.64492 -0.573423 0
M  V30 10801 C 1032 3.18024 -1.22775 0
M  V30 10802 H 1033.19 1.80148 -2.39764 0
M  V30 10803 H 1030.74 0.908624 -1.27176 0
M  V30 10804 H 1031.48 3.23252 -0.260552 0
M  V30 10805 H 1031.26 3.35411 -2.0308 0
M  V30 10806 H 1032.75 3.98021 -1.2637 0
M  V30 10807 N 1033.19 1.2685 0.935242 0
M  V30 10808 C 1034.12 1.04717 2.0388 0
M  V30 10809 C 1035.14 0.00567507 1.62799 0
M  V30 10810 O 1036.33 0.246408 1.76791 0
M  V30 10811 C 1033.43 0.56496 3.34158 0
M  V30 10812 C 1032.6 1.67704 4.03973 0
M  V30 10813 C 1031.66 1.19186 5.12524 0
M  V30 10814 O 1030.68 1.89008 5.36903 0
M  V30 10815 N 1031.89 0.0434554 5.80484 0
M  V30 10816 H 1034.65 1.99746 2.23431 0
M  V30 10817 H 1032.21 1.18316 1.10512 0
M  V30 10818 H 1034.2 0.224436 4.04077 0
M  V30 10819 H 1032.77 -0.291899 3.11234 0
M  V30 10820 H 1031.99 2.18821 3.27889 0
M  V30 10821 H 1033.28 2.42361 4.47368 0
M  V30 10822 H 1032.68 -0.539502 5.63122 0
M  V30 10823 H 1031.24 -0.237946 6.51366 0
M  V30 10824 N 1034.67 -1.14067 1.0875 0
M  V30 10825 C 1035.91 -1.8684 0.828873 0
M  V30 10826 C 1036.27 -1.81235 -0.633879 0
M  V30 10827 O 1037.48 -2.49178 -1.00815 0
M  V30 10828 C 1035.75 -3.31299 1.34073 0
M  V30 10829 S 1037.31 -4.21645 1.21494 0
M  V30 10830 H 1034.12 -0.644622 0.299972 0
M  V30 10831 H 1036.73 -1.37526 1.38949 0
M  V30 10832 H 1035.43 -3.32929 2.39972 0
M  V30 10833 H 1034.96 -3.85672 0.775944 0
M  V30 10834 H 1036.98 -4.95937 0.161446 0
M  V30 10835 N 1036.15 -0.873678 -1.31166 0
M  V30 10836 C 1037.1 -0.321349 -2.3037 0
M  V30 10837 C 1038.09 0.565568 -1.5968 0
M  V30 10838 O 1039.3 0.451257 -1.74252 0
M  V30 10839 H 1035.67 -0.0852425 -0.747153 0
M  V30 10840 H 1037.64 -1.17191 -2.74425 0
M  V30 10841 C 1036.39 0.459016 -3.44657 0
M  V30 10842 H 1035.71 -0.214185 -3.99226 0
M  V30 10843 H 1037.15 0.810758 -4.16176 0
M  V30 10844 C 1035.61 1.65173 -2.93632 0
M  V30 10845 O 1036.14 2.75105 -2.92711 0
M  V30 10846 N 1034.35 1.4851 -2.49786 0
M  V30 10847 H 1033.9 0.590785 -2.50734 0
M  V30 10848 H 1033.85 2.28452 -2.16002 0
M  V30 10849 N 1037.63 1.44308 -0.633487 0
M  V30 10850 C 1038.57 2.32455 0.0821956 0
M  V30 10851 C 1039.57 1.47482 0.833388 0
M  V30 10852 O 1040.77 1.63812 0.746021 0
M  V30 10853 H 1037.15 0.750631 0.045352 0
M  V30 10854 H 1039.12 2.90566 -0.679282 0
M  V30 10855 C 1037.87 3.31512 1.04858 0
M  V30 10856 H 1037.19 3.96908 0.479979 0
M  V30 10857 H 1038.63 3.95865 1.51879 0
M  V30 10858 C 1037.09 2.60615 2.13498 0
M  V30 10859 O 1037.62 2.40682 3.21613 0
M  V30 10860 N 1035.83 2.20315 1.89499 0
M  V30 10861 H 1035.37 2.36726 1.01581 0
M  V30 10862 H 1035.33 1.73205 2.62388 0
M  V30 10863 N 1039.1 0.374177 1.53094 0
M  V30 10864 C 1040.07 -0.455999 2.24618 0
M  V30 10865 C 1041.07 -1.00269 1.25709 0
M  V30 10866 O 1042.26 -0.887077 1.49922 0
M  V30 10867 C 1039.39 -1.63822 2.98957 0
M  V30 10868 H 1040.58 0.169986 2.99418 0
M  V30 10869 H 1038.14 0.126015 1.55791 0
M  V30 10870 H 1038.87 -2.30205 2.28421 0
M  V30 10871 H 1038.66 -1.25308 3.71538 0
M  V30 10872 H 1040.15 -2.22633 3.53305 0
M  V30 10873 N 1040.58 -1.57259 0.103575 0
M  V30 10874 C 1041.81 -1.98711 -0.565454 0
M  V30 10875 C 1042.22 -0.981759 -1.61735 0
M  V30 10876 O 1041.56 0.0357019 -1.83665 0
M  V30 10877 C 1041.63 -3.36552 -1.26384 0
M  V30 10878 C 1041.29 -4.55566 -0.361714 0
M  V30 10879 C 1042.29 -5.18408 0.393539 0
M  V30 10880 C 1039.97 -5.01534 -0.277292 0
M  V30 10881 C 1041.97 -6.25594 1.2211 0
M  V30 10882 C 1039.65 -6.08584 0.553919 0
M  V30 10883 C 1040.65 -6.7048 1.30176 0
M  V30 10884 O 1040.34 -7.75464 2.1192 0
M  V30 10885 H 1040.07 -0.657853 -0.155582 0
M  V30 10886 H 1042.62 -2.04591 0.182089 0
M  V30 10887 H 1040.85 -3.2738 -2.05813 0
M  V30 10888 H 1042.54 -3.62395 -1.82824 0
M  V30 10889 H 1043.31 -4.8382 0.338098 0
M  V30 10890 H 1039.19 -4.53114 -0.849047 0
M  V30 10891 H 1042.73 -6.73836 1.80531 0
M  V30 10892 H 1038.63 -6.42604 0.610809 0
M  V30 10893 H 1039.4 -7.92491 2.04694 0
M  V30 10894 N 1042.06 0.170153 -1.56679 0
M  V30 10895 C 1042.99 1.23525 -1.93066 0
M  V30 10896 C 1044.01 1.40414 -0.823879 0
M  V30 10897 O 1045.19 1.40396 -1.10232 0
M  V30 10898 C 1042.29 2.60376 -2.16928 0
M  V30 10899 C 1041.47 2.6477 -3.4816 0
M  V30 10900 C 1040.53 3.82993 -3.60837 0
M  V30 10901 O 1039.55 3.68937 -4.33444 0
M  V30 10902 N 1040.75 4.99498 -2.95773 0
M  V30 10903 H 1043.52 0.926172 -2.8503 0
M  V30 10904 H 1041.08 0.359909 -1.57849 0
M  V30 10905 H 1043.07 3.37934 -2.22672 0
M  V30 10906 H 1041.64 2.83669 -1.31342 0
M  V30 10907 H 1040.86 1.73298 -3.54064 0
M  V30 10908 H 1042.15 2.64717 -4.34514 0
M  V30 10909 H 1041.55 5.13819 -2.36657 0
M  V30 10910 H 1040.11 5.74914 -3.07111 0
M  V30 10911 N 1043.54 1.5137 0.438746 0
M  V30 10912 C 1044.49 1.73154 1.55308 0
M  V30 10913 C 1045.48 0.597825 1.58501 0
M  V30 10914 O 1046.69 0.77917 1.62262 0
M  V30 10915 H 1043.06 0.547083 0.51595 0
M  V30 10916 H 1045.03 2.66566 1.34108 0
M  V30 10917 C 1043.78 1.87242 2.92977 0
M  V30 10918 H 1043.1 2.73884 2.91252 0
M  V30 10919 H 1044.54 2.06497 3.70317 0
M  V30 10920 C 1043 0.631887 3.30921 0
M  V30 10921 O 1043.53 -0.214099 4.01129 0
M  V30 10922 N 1041.74 0.47639 2.86669 0
M  V30 10923 H 1041.29 1.16589 2.29706 0
M  V30 10924 H 1041.24 -0.352403 3.12419 0
M  V30 10925 N 1045.02 -0.694098 1.41492 0
M  V30 10926 C 1046.24 -1.48789 1.44488 0
M  V30 10927 C 1046.67 -1.88028 0.0521588 0
M  V30 10928 O 1046.02 -1.54727 -0.944952 0
M  V30 10929 C 1046.07 -2.72586 2.3607 0
M  V30 10930 O 1045.18 -3.70128 1.81876 0
M  V30 10931 H 1044.52 -0.447758 0.490315 0
M  V30 10932 H 1047.05 -0.853036 1.85969 0
M  V30 10933 H 1047.06 -3.20877 2.51995 0
M  V30 10934 H 1045.73 -2.43363 3.37264 0
M  V30 10935 H 1044.31 -3.29069 1.75408 0
M  V30 10936 N 1046.49 -1.27344 -0.928501 0
M  V30 10937 C 1047.44 -1.09835 -2.05034 0
M  V30 10938 C 1048.44 -0.0216643 -1.69386 0
M  V30 10939 O 1049.64 -0.179323 -1.79105 0
M  V30 10940 H 1046.02 -0.338416 -0.671549 0
M  V30 10941 H 1047.99 -2.04879 -2.1695 0
M  V30 10942 C 1046.74 -0.761462 -3.3926 0
M  V30 10943 H 1046.06 -1.58186 -3.67175 0
M  V30 10944 H 1047.5 -0.678812 -4.18531 0
M  V30 10945 C 1045.96 0.534118 -3.32639 0
M  V30 10946 O 1046.49 1.56877 -3.69801 0
M  V30 10947 N 1044.7 0.529437 -2.85736 0
M  V30 10948 H 1044.24 -0.312954 -2.55692 0
M  V30 10949 H 1044.2 1.39637 -2.81689 0
M  V30 10950 N 1047.97 1.13488 -1.09353 0
M  V30 10951 C 1048.9 2.20988 -0.75409 0
M  V30 10952 C 1049.88 1.67977 0.267901 0
M  V30 10953 O 1051.07 1.93722 0.136128 0
M  V30 10954 C 1048.2 3.46869 -0.173042 0
M  V30 10955 C 1047.15 4.12965 -1.12446 0
M  V30 10956 C 1046.48 5.33163 -0.405157 0
M  V30 10957 C 1047.78 4.60388 -2.46658 0
M  V30 10958 H 1049.47 2.49639 -1.6529 0
M  V30 10959 H 1047.02 1.19987 -0.796182 0
M  V30 10960 H 1048.97 4.21331 0.0764988 0
M  V30 10961 H 1047.7 3.17611 0.760956 0
M  V30 10962 H 1046.35 3.40469 -1.35927 0
M  V30 10963 H 1046 5.00169 0.532955 0
M  V30 10964 H 1045.7 5.78332 -1.03952 0
M  V30 10965 H 1047.23 6.1038 -0.163899 0
M  V30 10966 H 1048.64 5.26276 -2.27389 0
M  V30 10967 H 1047.04 5.16294 -3.05876 0
M  V30 10968 H 1048.11 3.74949 -3.07476 0
M  V30 10969 N 1049.45 0.880621 1.30701 0
M  V30 10970 C 1050.68 0.510909 2.01009 0
M  V30 10971 C 1051.1 -0.892041 1.65603 0
M  V30 10972 O 1050.46 -1.59045 0.870309 0
M  V30 10973 C 1050.51 0.687759 3.53981 0
M  V30 10974 O 1049.61 -0.268275 4.11526 0
M  V30 10975 H 1048.95 0.201864 0.632572 0
M  V30 10976 H 1051.48 1.18697 1.6665 0
M  V30 10977 H 1051.49 0.585095 4.03783 0
M  V30 10978 H 1050.17 1.71068 3.79089 0
M  V30 10979 H 1048.74 -0.119673 3.72708 0
M  V30 10980 N 1050.93 -1.4397 0.641131 0
M  V30 10981 C 1052.18 -2.02246 0.14985 0
M  V30 10982 C 1052.51 -1.50387 -1.22871 0
M  V30 10983 O 1051.78 -0.692003 -1.81773 0
M  V30 10984 C 1052.07 -3.59798 0.147449 0
M  V30 10985 C 1051.92 -4.21916 1.55907 0
M  V30 10986 C 1053.24 -4.36985 -0.522667 0
M  V30 10987 H 1050.36 -0.734875 0.0559274 0
M  V30 10988 H 1053 -1.71418 0.819513 0
M  V30 10989 H 1051.15 -3.86193 -0.422789 0
M  V30 10990 H 1052.82 -4.06594 2.17896 0
M  V30 10991 H 1051.06 -3.79028 2.10998 0
M  V30 10992 H 1051.74 -5.30964 1.50934 0
M  V30 10993 H 1054.21 -4.16083 -0.0376226 0
M  V30 10994 H 1053.09 -5.46676 -0.493572 0
M  V30 10995 H 1053.35 -4.12335 -1.59475 0
M  V30 10996 N 1052.41 -0.382291 -1.52893 0
M  V30 10997 C 1053.32 0.463745 -2.29971 0
M  V30 10998 C 1054.33 1.07777 -1.36602 0
M  V30 10999 O 1055.51 1.0851 -1.69669 0
M  V30 11000 C 1052.57 1.57938 -3.08637 0
M  V30 11001 C 1051.64 0.991182 -4.17701 0
M  V30 11002 C 1050.87 2.05365 -4.92606 0
M  V30 11003 O 1051.09 3.26757 -4.67532 0
M  V30 11004 O 1050.03 1.67487 -5.78128 0
M  V30 11005 H 1053.85 -0.163962 -3.03257 0
M  V30 11006 H 1051.44 -0.146199 -1.48683 0
M  V30 11007 H 1053.32 2.22765 -3.57706 0
M  V30 11008 H 1051.99 2.19218 -2.3817 0
M  V30 11009 H 1050.9 0.306364 -3.72843 0
M  V30 11010 H 1052.23 0.422699 -4.90382 0
M  V30 11011 N 1053.89 1.57202 -0.111913 0
M  V30 11012 C 1055.13 1.95239 0.548607 0
M  V30 11013 C 1055.46 0.994897 1.6678 0
M  V30 11014 O 1054.74 0.0308603 1.94476 0
M  V30 11015 C 1055.02 3.43271 1.08798 0
M  V30 11016 C 1054.88 4.49792 -0.0273064 0
M  V30 11017 C 1056.19 3.92989 1.98109 0
M  V30 11018 H 1053.31 0.709919 0.197951 0
M  V30 11019 H 1055.96 1.89087 -0.186036 0
M  V30 11020 H 1054.11 3.48644 1.71404 0
M  V30 11021 H 1055.78 4.56521 -0.662302 0
M  V30 11022 H 1054.02 4.28254 -0.691426 0
M  V30 11023 H 1054.69 5.50612 0.391201 0
M  V30 11024 H 1057.17 3.89875 1.45385 0
M  V30 11025 H 1056.04 4.97101 2.32769 0
M  V30 11026 H 1056.3 3.33267 2.90492 0
M  V30 11027 N 1055.36 -0.161842 1.56767 0
M  V30 11028 C 1056.61 -0.875192 1.82167 0
M  V30 11029 C 1056.93 -1.82367 0.690444 0
M  V30 11030 O 1056.2 -1.93756 -0.289023 0
M  V30 11031 H 1054.78 -0.326178 0.672024 0
M  V30 11032 H 1057.44 -0.159392 1.94247 0
M  V30 11033 H 1056.54 -1.44639 2.76561 0
M  V30 11034 N 1056.84 -1.516 -0.430713 0
M  V30 11035 C 1058.07 -1.687 -1.20644 0
M  V30 11036 C 1058.49 -0.386555 -1.84085 0
M  V30 11037 O 1057.85 0.653952 -1.69095 0
M  V30 11038 C 1057.9 -2.80887 -2.2613 0
M  V30 11039 O 1057 -2.44952 -3.31772 0
M  V30 11040 H 1056.34 -0.562289 -0.353167 0
M  V30 11041 H 1058.87 -1.98198 -0.507807 0
M  V30 11042 H 1058.88 -3.05167 -2.70809 0
M  V30 11043 H 1057.56 -3.75249 -1.79334 0
M  V30 11044 H 1056.13 -2.31267 -2.92523 0
M  V30 11045 N 1058.32 0.686584 -1.41858 0
M  V30 11046 C 1059.23 1.83002 -1.46791 0
M  V30 11047 C 1060.25 1.70284 -0.357675 0
M  V30 11048 O 1061.42 1.92042 -0.606781 0
M  V30 11049 C 1058.49 3.19056 -1.35661 0
M  V30 11050 C 1057.55 3.43817 -2.57077 0
M  V30 11051 C 1056.78 4.7338 -2.46469 0
M  V30 11052 O 1057 5.50483 -1.49413 0
M  V30 11053 O 1055.94 4.99124 -3.36391 0
M  V30 11054 H 1059.76 1.81797 -2.43277 0
M  V30 11055 H 1057.35 0.840812 -1.23494 0
M  V30 11056 H 1059.23 4.00267 -1.31773 0
M  V30 11057 H 1057.91 3.20925 -0.422951 0
M  V30 11058 H 1056.81 2.625 -2.66541 0
M  V30 11059 H 1058.15 3.4677 -3.49302 0
M  V30 11060 N 1059.8 1.27835 0.921735 0
M  V30 11061 C 1061.05 1.14296 1.66676 0
M  V30 11062 C 1061.37 -0.310493 1.92512 0
M  V30 11063 O 1060.64 -1.21637 1.53562 0
M  V30 11064 H 1059.22 0.419994 0.617749 0
M  V30 11065 H 1061.88 1.60449 1.10644 0
M  V30 11066 H 1060.97 1.67654 2.63246 0
M  V30 11067 N 1061.28 -1.12907 1.09954 0
M  V30 11068 C 1062.69 -1.65847 0.857417 0
M  V30 11069 C 1063.04 -1.86372 -0.613176 0
M  V30 11070 O 1062.16 -1.58654 -1.47166 0
M  V30 11071 C 1062.76 -3.01269 1.54991 0
M  V30 11072 C 1061.32 -3.51179 1.35462 0
M  V30 11073 C 1060.46 -2.26307 1.60251 0
M  V30 11074 H 1063.41 -0.96755 1.25794 0
M  V30 11075 H 1063.44 -3.675 0.986091 0
M  V30 11076 H 1062.95 -2.86299 2.6202 0
M  V30 11077 H 1061.05 -3.71343 0.305742 0
M  V30 11078 H 1061.16 -4.30955 2.09318 0
M  V30 11079 H 1059.53 -2.33167 1.02494 0
M  V30 11080 H 1060.31 -2.13896 2.68521 0
M  V30 11081 N 1062.75 -0.88754 -1.30232 0
M  V30 11082 C 1063.68 -0.372481 -2.3051 0
M  V30 11083 C 1064.66 0.546037 -1.61098 0
M  V30 11084 O 1065.85 0.459345 -1.88689 0
M  V30 11085 C 1062.98 0.411605 -3.44852 0
M  V30 11086 C 1061.93 -0.415383 -4.2598 0
M  V30 11087 C 1061.26 0.495463 -5.324 0
M  V30 11088 C 1062.56 -1.65886 -4.95257 0
M  V30 11089 H 1064.25 -1.21045 -2.7384 0
M  V30 11090 H 1061.8 -0.583498 -1.31648 0
M  V30 11091 H 1063.75 0.782584 -4.1407 0
M  V30 11092 H 1062.48 1.28325 -3.00334 0
M  V30 11093 H 1061.14 -0.768534 -3.58454 0
M  V30 11094 H 1060.78 1.36489 -4.84128 0
M  V30 11095 H 1060.48 -0.0540885 -5.87575 0
M  V30 11096 H 1062.01 0.862901 -6.04472 0
M  V30 11097 H 1063.42 -1.35832 -5.56976 0
M  V30 11098 H 1061.82 -2.14881 -5.60309 0
M  V30 11099 H 1062.89 -2.40181 -4.21237 0
M  V30 11100 N 1064.23 1.43628 -0.648757 0
M  V30 11101 C 1065.18 2.30755 0.0455536 0
M  V30 11102 C 1066.15 1.44495 0.819168 0
M  V30 11103 O 1067.33 1.73372 0.79667 0
M  V30 11104 C 1064.47 3.30017 1.00908 0
M  V30 11105 C 1063.59 4.31376 0.232039 0
M  V30 11106 C 1062.72 5.17723 1.18897 0
M  V30 11107 C 1061.76 6.10778 0.402096 0
M  V30 11108 N 1060.9 6.89763 1.31038 0
M  V30 11109 H 1065.74 2.89581 -0.70332 0
M  V30 11110 H 1063.28 1.42662 -0.3586 0
M  V30 11111 H 1065.23 3.86072 1.58128 0
M  V30 11112 H 1063.86 2.72851 1.72488 0
M  V30 11113 H 1062.92 3.77652 -0.456373 0
M  V30 11114 H 1064.23 4.9735 -0.380023 0
M  V30 11115 H 1063.38 5.78381 1.83194 0
M  V30 11116 H 1062.12 4.51864 1.83494 0
M  V30 11117 H 1061.13 5.49212 -0.254255 0
M  V30 11118 H 1062.35 6.78678 -0.239411 0
M  V30 11119 H 1060.3 6.26557 1.94324 0
M  V30 11120 H 1060.21 7.52243 0.752774 0
M  V30 11121 H 1061.48 7.54931 1.94164 0
M  V30 11122 N 1065.71 0.390394 1.52688 0
M  V30 11123 C 1066.96 -0.191067 2.01195 0
M  V30 11124 C 1067.28 -1.47229 1.27862 0
M  V30 11125 O 1066.55 -1.91793 0.399007 0
M  V30 11126 H 1065.13 -0.073596 0.743366 0
M  V30 11127 H 1067.79 0.522334 1.8777 0
M  V30 11128 H 1066.89 -0.40051 3.0952 0
M  V30 11129 N 1067.19 -1.57141 0.120249 0
M  V30 11130 C 1068.44 -1.94413 -0.53727 0
M  V30 11131 C 1068.75 -1.00594 -1.67751 0
M  V30 11132 O 1069.96 -1.27336 -2.39787 0
M  V30 11133 C 1068.41 -3.45521 -1.00714 0
M  V30 11134 C 1068.02 -4.47878 0.104706 0
M  V30 11135 C 1069.76 -3.9171 -1.63596 0
M  V30 11136 C 1067.67 -5.90165 -0.381932 0
M  V30 11137 H 1066.6 -0.725745 -0.204475 0
M  V30 11138 H 1069.25 -1.82404 0.200302 0
M  V30 11139 H 1067.63 -3.52769 -1.79917 0
M  V30 11140 H 1068.81 -4.523 0.881002 0
M  V30 11141 H 1067.12 -4.11448 0.640264 0
M  V30 11142 H 1069.72 -4.95433 -2.01122 0
M  V30 11143 H 1070.06 -3.31756 -2.51483 0
M  V30 11144 H 1070.6 -3.87268 -0.909319 0
M  V30 11145 H 1067.34 -6.53877 0.460921 0
M  V30 11146 H 1066.86 -5.89161 -1.12468 0
M  V30 11147 H 1068.53 -6.41488 -0.842748 0
M  V30 11148 N 1068.67 0.153526 -1.5685 0
M  V30 11149 C 1069.6 1.2147 -1.94365 0
M  V30 11150 C 1070.61 1.39532 -0.838726 0
M  V30 11151 O 1071.8 1.39219 -1.11715 0
M  V30 11152 C 1068.9 2.5806 -2.19677 0
M  V30 11153 C 1068.07 2.61062 -3.50949 0
M  V30 11154 C 1067.13 3.79144 -3.64878 0
M  V30 11155 O 1066.16 3.64319 -4.37333 0
M  V30 11156 N 1067.36 4.96333 -3.01054 0
M  V30 11157 H 1070.13 0.895889 -2.85996 0
M  V30 11158 H 1067.69 0.343147 -1.58222 0
M  V30 11159 H 1069.68 3.35553 -2.26243 0
M  V30 11160 H 1068.25 2.8226 -1.34343 0
M  V30 11161 H 1067.47 1.69533 -3.55882 0
M  V30 11162 H 1068.76 2.60094 -4.37297 0
M  V30 11163 H 1068.15 5.1128 -2.42093 0
M  V30 11164 H 1066.71 5.71625 -3.13191 0
M  V30 11165 N 1070.14 1.51827 0.422667 0
M  V30 11166 C 1071.39 1.6445 1.16786 0
M  V30 11167 C 1071.71 0.373792 1.91995 0
M  V30 11168 O 1072.91 0.379621 2.68833 0
M  V30 11169 C 1071.37 2.90488 2.12473 0
M  V30 11170 C 1070.98 4.24617 1.42844 0
M  V30 11171 C 1072.72 3.12472 2.87335 0
M  V30 11172 C 1070.63 5.41791 2.371 0
M  V30 11173 H 1069.56 0.612561 0.439641 0
M  V30 11174 H 1072.21 1.78305 0.433534 0
M  V30 11175 H 1070.59 2.703 2.89402 0
M  V30 11176 H 1071.76 4.55239 0.71372 0
M  V30 11177 H 1070.08 4.08628 0.800769 0
M  V30 11178 H 1072.68 3.9719 3.57973 0
M  V30 11179 H 1073.02 2.26148 3.49518 0
M  V30 11180 H 1073.55 3.33069 2.17509 0
M  V30 11181 H 1070.29 6.3042 1.79584 0
M  V30 11182 H 1069.81 5.15526 3.06583 0
M  V30 11183 H 1071.49 5.74329 2.97918 0
M  V30 11184 N 1071.62 -0.679052 1.4222 0
M  V30 11185 C 1072.87 -1.43978 1.43673 0
M  V30 11186 C 1073.22 -1.92333 0.0506711 0
M  V30 11187 O 1072.52 -1.67715 -0.926406 0
M  V30 11188 C 1072.71 -2.65528 2.39227 0
M  V30 11189 C 1072.54 -2.29065 3.86987 0
M  V30 11190 C 1071.31 -2.1863 4.55553 0
M  V30 11191 C 1073.51 -1.90983 4.77525 0
M  V30 11192 N 1071.49 -1.75227 5.88361 0
M  V30 11193 C 1072.86 -1.58465 5.99407 0
M  V30 11194 C 1074.92 -1.77938 4.65019 0
M  V30 11195 C 1073.62 -1.14212 7.10175 0
M  V30 11196 C 1075.64 -1.35089 5.75765 0
M  V30 11197 C 1075.01 -1.03493 6.96756 0
M  V30 11198 H 1071.11 -0.523503 0.58092 0
M  V30 11199 H 1073.69 -0.784043 1.78216 0
M  V30 11200 H 1071.86 -3.28797 2.06753 0
M  V30 11201 H 1073.59 -3.32096 2.31288 0
M  V30 11202 H 1070.35 -2.37562 4.09709 0
M  V30 11203 H 1070.77 -1.5596 6.58791 0
M  V30 11204 H 1075.41 -2.01013 3.71959 0
M  V30 11205 H 1073.13 -0.89882 8.03086 0
M  V30 11206 H 1076.72 -1.25522 5.68098 0
M  V30 11207 H 1075.6 -0.708396 7.80994 0
M  V30 11208 N 1073.1 -1.28322 -0.914942 0
M  V30 11209 C 1074.05 -1.12146 -2.01722 0
M  V30 11210 C 1075.02 -0.0189279 -1.66089 0
M  V30 11211 O 1076.2 -0.183638 -1.89914 0
M  V30 11212 C 1073.34 -0.78808 -3.35981 0
M  V30 11213 C 1072.46 -1.96954 -3.84491 0
M  V30 11214 C 1071.59 -1.57688 -5.07255 0
M  V30 11215 C 1070.63 -2.72506 -5.48094 0
M  V30 11216 N 1069.77 -2.33741 -6.62049 0
M  V30 11217 H 1074.61 -2.06461 -2.1489 0
M  V30 11218 H 1072.14 -1.0276 -1.05256 0
M  V30 11219 H 1074.1 -0.575546 -4.13211 0
M  V30 11220 H 1072.73 0.118132 -3.22584 0
M  V30 11221 H 1071.78 -2.29423 -3.03429 0
M  V30 11222 H 1073.1 -2.8304 -4.10719 0
M  V30 11223 H 1072.25 -1.32634 -5.92025 0
M  V30 11224 H 1070.99 -0.687291 -4.82833 0
M  V30 11225 H 1069.99 -2.9826 -4.61867 0
M  V30 11226 H 1071.22 -3.62106 -5.74505 0
M  V30 11227 H 1069.16 -1.4725 -6.3926 0
M  V30 11228 H 1069.08 -3.13364 -6.87997 0
M  V30 11229 H 1070.35 -2.11968 -7.50127 0
M  V30 11230 N 1074.58 1.12322 -1.10551 0
M  V30 11231 C 1075.82 1.8413 -0.849932 0
M  V30 11232 C 1076.16 1.83938 0.622946 0
M  V30 11233 O 1075.43 1.28579 1.45937 0
M  V30 11234 C 1075.72 3.31751 -1.40048 0
M  V30 11235 C 1075.57 3.40391 -2.9403 0
M  V30 11236 C 1076.89 4.27543 -1.04379 0
M  V30 11237 H 1074.01 0.668533 -0.310213 0
M  V30 11238 H 1076.65 1.31766 -1.36886 0
M  V30 11239 H 1074.8 3.76475 -0.959102 0
M  V30 11240 H 1076.47 3.04294 -3.46703 0
M  V30 11241 H 1074.71 2.809 -3.30571 0
M  V30 11242 H 1075.38 4.44252 -3.27635 0
M  V30 11243 H 1077.86 3.90951 -1.42466 0
M  V30 11244 H 1076.74 5.2924 -1.4559 0
M  V30 11245 H 1077 4.42075 0.0466316 0
M  V30 11246 N 1076.06 0.894434 1.2976 0
M  V30 11247 C 1077.47 0.566892 1.77885 0
M  V30 11248 C 1077.82 -0.917289 1.73437 0
M  V30 11249 O 1076.94 -1.71707 1.31703 0
M  V30 11250 C 1077.54 1.02227 3.2301 0
M  V30 11251 C 1076.1 0.745978 3.68934 0
M  V30 11252 C 1075.24 1.19993 2.49994 0
M  V30 11253 H 1078.2 1.0777 1.16496 0
M  V30 11254 H 1078.22 0.355281 3.78838 0
M  V30 11255 H 1077.73 2.1025 3.26215 0
M  V30 11256 H 1075.83 -0.321866 3.71207 0
M  V30 11257 H 1075.94 1.34017 4.59974 0
M  V30 11258 H 1074.31 0.619047 2.47063 0
M  V30 11259 H 1075.09 2.28811 2.55931 0
M  V30 11260 N 1077.53 -1.43282 0.656365 0
M  V30 11261 C 1078.5 -2.29188 -0.0239173 0
M  V30 11262 C 1079.5 -1.42373 -0.747436 0
M  V30 11263 O 1080.69 -1.63969 -0.588213 0
M  V30 11264 C 1077.82 -3.24501 -1.0446 0
M  V30 11265 H 1079.01 -2.9083 0.731978 0
M  V30 11266 H 1076.57 -1.50614 0.417752 0
M  V30 11267 H 1077.3 -2.6776 -1.82962 0
M  V30 11268 H 1077.09 -3.88509 -0.52942 0
M  V30 11269 H 1078.58 -3.88971 -1.51958 0
M  V30 11270 N 1079.01 -0.398486 -1.52479 0
M  V30 11271 C 1080.24 0.180557 -2.06111 0
M  V30 11272 C 1080.66 1.39751 -1.26945 0
M  V30 11273 O 1080.01 1.79699 -0.318497 0
M  V30 11274 C 1080.06 0.541573 -3.5742 0
M  V30 11275 O 1079.79 -0.627043 -4.33589 0
M  V30 11276 C 1081.29 1.17549 -4.27431 0
M  V30 11277 H 1078.51 0.0250754 -0.670531 0
M  V30 11278 H 1081.05 -0.566368 -1.96501 0
M  V30 11279 H 1079.21 1.23839 -3.67073 0
M  V30 11280 H 1079.62 -0.328233 -5.23472 0
M  V30 11281 H 1081.09 1.37839 -5.34513 0
M  V30 11282 H 1081.57 2.14553 -3.83228 0
M  V30 11283 H 1082.18 0.51918 -4.22119 0
M  V30 11284 N 1080.49 1.57075 -0.12858 0
M  V30 11285 C 1081.77 1.87075 0.571162 0
M  V30 11286 C 1082.15 1.03141 1.84188 0
M  V30 11287 O 1081.5 0.113001 2.2822 0
M  V30 11288 C 1081.71 3.3838 0.854383 0
M  V30 11289 C 1083.05 4.07194 1.20326 0
M  V30 11290 O 1084.08 3.43454 0.944338 0
M  V30 11291 O 1082.94 5.19725 1.68963 0
M  V30 11292 H 1080.03 0.774764 0.289258 0
M  V30 11293 H 1082.58 1.68908 -0.163806 0
M  V30 11294 H 1081.35 3.91273 -0.0456925 0
M  V30 11295 H 1080.97 3.62012 1.64418 0
M  V30 11296 N 1081.97 -0.145205 1.5693 0
M  V30 11297 C 1083.2 -0.872398 1.87608 0
M  V30 11298 C 1083.61 -1.74657 0.716975 0
M  V30 11299 O 1082.97 -1.79792 -0.3132 0
M  V30 11300 C 1083.02 -1.72762 3.17546 0
M  V30 11301 O 1082.74 -0.888681 4.28992 0
M  V30 11302 C 1084.24 -2.56224 3.61751 0
M  V30 11303 H 1081.46 -0.252166 0.621815 0
M  V30 11304 H 1084.01 -0.137456 2.04038 0
M  V30 11305 H 1082.16 -2.41561 3.02865 0
M  V30 11306 H 1082.58 -1.47601 5.03303 0
M  V30 11307 H 1084.05 -3.11804 4.55502 0
M  V30 11308 H 1084.53 -3.32347 2.87127 0
M  V30 11309 H 1085.13 -1.92714 3.79133 0
M  V30 11310 N 1083.45 -1.52049 -0.414609 0
M  V30 11311 C 1084.68 -1.69433 -1.18221 0
M  V30 11312 C 1085.09 -0.40104 -1.84901 0
M  V30 11313 O 1084.43 0.632342 -1.72474 0
M  V30 11314 C 1084.49 -2.76986 -2.2917 0
M  V30 11315 C 1084.15 -4.18903 -1.82671 0
M  V30 11316 C 1085.15 -5.02929 -1.31751 0
M  V30 11317 C 1082.84 -4.65113 -1.89672 0
M  V30 11318 C 1084.83 -6.31234 -0.884461 0
M  V30 11319 C 1082.52 -5.93408 -1.45978 0
M  V30 11320 C 1083.52 -6.76297 -0.9545 0
M  V30 11321 O 1083.2 -8.02191 -0.523852 0
M  V30 11322 H 1082.94 -0.571228 -0.36149 0
M  V30 11323 H 1085.49 -1.99355 -0.494643 0
M  V30 11324 H 1083.72 -2.42428 -3.01273 0
M  V30 11325 H 1085.41 -2.83023 -2.90951 0
M  V30 11326 H 1086.17 -4.68422 -1.2572 0
M  V30 11327 H 1082.05 -4.00702 -2.27945 0
M  V30 11328 H 1085.6 -6.95881 -0.489383 0
M  V30 11329 H 1081.49 -6.27424 -1.51687 0
M  V30 11330 H 1082.26 -8.15934 -0.647656 0
M  V30 11331 N 1084.93 0.6715 -1.42579 0
M  V30 11332 C 1086.15 1.46471 -1.46836 0
M  V30 11333 C 1086.58 1.87921 -0.0820658 0
M  V30 11334 O 1085.93 1.5621 0.920217 0
M  V30 11335 C 1085.98 2.68796 -2.40377 0
M  V30 11336 O 1085.09 3.67188 -1.87741 0
M  V30 11337 H 1084.43 0.439901 -0.497376 0
M  V30 11338 H 1086.96 0.823342 -1.87303 0
M  V30 11339 H 1086.97 3.16828 -2.57068 0
M  V30 11340 H 1085.64 2.37967 -3.41093 0
M  V30 11341 H 1084.22 3.26237 -1.80621 0
M  V30 11342 N 1086.4 1.28806 0.908124 0
M  V30 11343 C 1087.65 1.15663 1.65242 0
M  V30 11344 C 1087.97 -0.292883 1.93395 0
M  V30 11345 O 1089.17 -0.545509 2.65963 0
M  V30 11346 C 1087.63 2.02233 2.97707 0
M  V30 11347 C 1087.24 3.51958 2.77181 0
M  V30 11348 C 1088.98 1.97792 3.75604 0
M  V30 11349 C 1086.89 4.3066 4.05322 0
M  V30 11350 H 1085.82 0.42928 0.619867 0
M  V30 11351 H 1088.47 1.5338 1.00731 0
M  V30 11352 H 1086.85 1.57377 3.63385 0
M  V30 11353 H 1088.02 4.0481 2.20149 0
M  V30 11354 H 1086.34 3.57983 2.12691 0
M  V30 11355 H 1088.94 2.53858 4.70596 0
M  V30 11356 H 1089.28 0.955956 4.05175 0
M  V30 11357 H 1089.81 2.40648 3.16755 0
M  V30 11358 H 1086.55 5.3346 3.8092 0
M  V30 11359 H 1086.07 3.8258 4.61944 0
M  V30 11360 H 1087.75 4.40878 4.73535 0
M  V30 11361 N 1087.88 -1.11734 1.11145 0
M  V30 11362 C 1089.11 -1.87755 0.881062 0
M  V30 11363 C 1089.53 -1.79461 -0.563496 0
M  V30 11364 O 1088.89 -1.15481 -1.39763 0
M  V30 11365 C 1088.94 -3.34641 1.34342 0
M  V30 11366 O 1088.04 -4.09195 0.513157 0
M  V30 11367 H 1087.38 -0.583111 0.317613 0
M  V30 11368 H 1089.91 -1.41256 1.48013 0
M  V30 11369 H 1089.92 -3.85486 1.33658 0
M  V30 11370 H 1088.6 -3.39994 2.39534 0
M  V30 11371 H 1087.17 -3.68269 0.585833 0
M  V30 11372 N 1089.36 -0.901303 -1.29284 0
M  V30 11373 C 1090.61 -0.527 -1.95108 0
M  V30 11374 C 1090.93 0.930065 -1.71391 0
M  V30 11375 O 1090.2 1.65601 -1.04658 0
M  V30 11376 H 1088.78 -0.191903 -0.721929 0
M  V30 11377 H 1091.44 -1.14795 -1.57506 0
M  V30 11378 H 1090.54 -0.710945 -3.03895 0
M  V30 11379 N 1090.84 1.42931 -0.663954 0
M  V30 11380 C 1092.07 2.05729 -0.189532 0
M  V30 11381 C 1092.48 1.49914 1.15423 0
M  V30 11382 O 1091.82 0.629324 1.72584 0
M  V30 11383 C 1091.88 3.59482 -0.0354748 0
M  V30 11384 C 1091.54 4.37935 -1.30622 0
M  V30 11385 C 1092.54 4.69297 -2.23733 0
M  V30 11386 C 1090.23 4.77761 -1.5508 0
M  V30 11387 C 1092.22 5.39407 -3.39586 0
M  V30 11388 C 1089.91 5.47613 -2.71224 0
M  V30 11389 C 1090.91 5.7836 -3.63302 0
M  V30 11390 O 1090.59 6.46783 -4.77417 0
M  V30 11391 H 1090.33 0.669678 -0.0922342 0
M  V30 11392 H 1092.88 1.84243 -0.907943 0
M  V30 11393 H 1091.11 3.79584 0.738412 0
M  V30 11394 H 1092.8 4.03947 0.397679 0
M  V30 11395 H 1093.56 4.39038 -2.06084 0
M  V30 11396 H 1089.44 4.53229 -0.842863 0
M  V30 11397 H 1092.99 5.63323 -4.11476 0
M  V30 11398 H 1088.88 5.77289 -2.88804 0
M  V30 11399 H 1089.65 6.6527 -4.76821 0
M  V30 11400 N 1092.32 0.406567 1.52266 0
M  V30 11401 C 1093.56 -0.169717 2.01386 0
M  V30 11402 C 1093.88 -1.45864 1.29417 0
M  V30 11403 O 1093.15 -1.9136 0.419327 0
M  V30 11404 H 1091.73 -0.0657075 0.744105 0
M  V30 11405 H 1094.4 0.542221 1.87206 0
M  V30 11406 H 1093.49 -0.367659 3.09927 0
M  V30 11407 N 1093.79 -1.57004 0.136909 0
M  V30 11408 C 1094.76 -2.15066 -0.792419 0
M  V30 11409 C 1095.76 -1.08991 -1.18226 0
M  V30 11410 O 1096.95 -1.34681 -1.10484 0
M  V30 11411 C 1094.08 -2.70554 -2.07397 0
M  V30 11412 H 1095.27 -2.98519 -0.28752 0
M  V30 11413 H 1092.83 -1.55895 -0.112469 0
M  V30 11414 H 1093.56 -1.90739 -2.62277 0
M  V30 11415 H 1093.35 -3.48149 -1.80374 0
M  V30 11416 H 1094.84 -3.15322 -2.73792 0
M  V30 11417 N 1095.27 0.136881 -1.57004 0
M  V30 11418 C 1096.24 1.15267 -1.98106 0
M  V30 11419 C 1097.24 1.35305 -0.868856 0
M  V30 11420 O 1098.43 1.32126 -1.13527 0
M  V30 11421 C 1095.56 2.51092 -2.30577 0
M  V30 11422 H 1096.75 0.799821 -2.89038 0
M  V30 11423 H 1094.3 0.380576 -1.51596 0
M  V30 11424 H 1095.04 2.9133 -1.42469 0
M  V30 11425 H 1094.82 2.37906 -3.11678 0
M  V30 11426 H 1096.31 3.24232 -2.63179 0
M  V30 11427 N 1096.75 1.52266 0.40654 0
M  V30 11428 C 1098 1.66123 1.15097 0
M  V30 11429 C 1098.32 0.394836 1.90961 0
M  V30 11430 O 1097.59 -0.590349 1.86793 0
M  V30 11431 H 1096.17 0.612317 0.427875 0
M  V30 11432 H 1098.83 1.89318 0.463106 0
M  V30 11433 H 1097.93 2.50351 1.86361 0
M  V30 11434 N 1098.23 -0.663929 1.42933 0
M  V30 11435 C 1099.48 -1.42111 1.43697 0
M  V30 11436 C 1099.8 -1.94913 0.0583858 0
M  V30 11437 O 1099.07 -1.73757 -0.904719 0
M  V30 11438 H 1097.65 -0.527391 0.529026 0
M  V30 11439 H 1100.31 -0.783766 1.78446 0
M  V30 11440 H 1099.41 -2.26877 2.1432 0
M  V30 11441 N 1099.71 -1.29285 -0.901281 0
M  V30 11442 C 1100.65 -1.1428 -2.00521 0
M  V30 11443 C 1101.62 -0.0365428 -1.6606 0
M  V30 11444 O 1102.81 -0.203771 -1.89709 0
M  V30 11445 C 1099.95 -0.823671 -3.35126 0
M  V30 11446 C 1099.06 -2.01021 -3.8238 0
M  V30 11447 C 1098.2 -1.6306 -5.05554 0
M  V30 11448 C 1097.24 -2.78304 -5.45173 0
M  V30 11449 N 1096.37 -2.4075 -6.59533 0
M  V30 11450 H 1101.21 -2.08729 -2.12688 0
M  V30 11451 H 1098.75 -1.0387 -1.04161 0
M  V30 11452 H 1100.71 -0.61934 -4.12577 0
M  V30 11453 H 1099.34 0.0839113 -3.22691 0
M  V30 11454 H 1098.39 -2.32629 -3.00978 0
M  V30 11455 H 1099.7 -2.8738 -4.07694 0
M  V30 11456 H 1098.86 -1.38906 -5.90584 0
M  V30 11457 H 1097.59 -0.738464 -4.82077 0
M  V30 11458 H 1096.6 -3.03142 -4.58678 0
M  V30 11459 H 1097.82 -3.68179 -5.70632 0
M  V30 11460 H 1095.77 -1.54022 -6.37662 0
M  V30 11461 H 1095.69 -3.20643 -6.84634 0
M  V30 11462 H 1096.96 -2.19912 -7.47836 0
M  V30 11463 N 1101.18 1.11143 -1.11736 0
M  V30 11464 C 1102.43 1.82586 -0.866412 0
M  V30 11465 C 1102.75 1.85227 0.609593 0
M  V30 11466 O 1102.02 1.32505 1.44288 0
M  V30 11467 H 1100.6 0.676149 -0.31754 0
M  V30 11468 H 1103.27 1.34516 -1.41037 0
M  V30 11469 H 1102.36 2.8635 -1.24136 0
M  V30 11470 N 1102.66 0.908147 1.28804 0
M  V30 11471 C 1103.91 0.53734 1.94826 0
M  V30 11472 C 1104.23 -0.920962 1.71882 0
M  V30 11473 O 1103.5 -1.65043 1.05534 0
M  V30 11474 H 1102.08 0.195729 0.720902 0
M  V30 11475 H 1104.74 1.15628 1.56895 0
M  V30 11476 H 1103.84 0.727052 3.03513 0
M  V30 11477 N 1104.14 -1.42577 0.671525 0
M  V30 11478 C 1105.09 -2.30798 -0.00883676 0
M  V30 11479 C 1106.06 -1.4578 -0.796076 0
M  V30 11480 O 1107.24 -1.74617 -0.768987 0
M  V30 11481 C 1104.38 -3.31581 -0.956452 0
M  V30 11482 C 1103.5 -4.31691 -0.163381 0
M  V30 11483 C 1102.63 -5.19549 -1.10645 0
M  V30 11484 C 1101.67 -6.1134 -0.304876 0
M  V30 11485 N 1100.81 -6.91761 -1.20048 0
M  V30 11486 H 1105.65 -2.88426 0.749301 0
M  V30 11487 H 1103.18 -1.42074 0.381251 0
M  V30 11488 H 1105.14 -3.88539 -1.51966 0
M  V30 11489 H 1103.77 -2.75561 -1.68126 0
M  V30 11490 H 1102.82 -3.76879 0.516396 0
M  V30 11491 H 1104.14 -4.96683 0.459099 0
M  V30 11492 H 1103.29 -5.81223 -1.73969 0
M  V30 11493 H 1102.03 -4.54726 -1.76282 0
M  V30 11494 H 1101.03 -5.48738 0.341597 0
M  V30 11495 H 1102.26 -6.78211 0.347352 0
M  V30 11496 H 1100.2 -6.2957 -1.84331 0
M  V30 11497 H 1100.12 -7.53345 -0.633003 0
M  V30 11498 H 1101.39 -7.57924 -1.82129 0
M  V30 11499 N 1105.62 -0.414636 -1.52048 0
M  V30 11500 C 1106.57 0.422766 -2.28726 0
M  V30 11501 C 1107.56 1.04099 -1.3364 0
M  V30 11502 O 1108.77 0.978559 -1.51077 0
M  V30 11503 H 1105.14 0.155123 -0.735827 0
M  V30 11504 H 1107.11 -0.245091 -2.97392 0
M  V30 11505 C 1105.86 1.52418 -3.12513 0
M  V30 11506 H 1105.18 1.05781 -3.85552 0
M  V30 11507 H 1106.62 2.08382 -3.6926 0
M  V30 11508 C 1105.08 2.49465 -2.26426 0
M  V30 11509 O 1105.61 3.53479 -1.90829 0
M  V30 11510 N 1103.82 2.19806 -1.90088 0
M  V30 11511 H 1103.37 1.35253 -2.19236 0
M  V30 11512 H 1103.32 2.84984 -1.32783 0
M  V30 11513 N 1107.1 1.56929 -0.145233 0
M  V30 11514 C 1108.32 2.00431 0.513314 0
M  V30 11515 C 1108.74 1.0253 1.58534 0
M  V30 11516 O 1108.1 0.0220459 1.82487 0
M  V30 11517 C 1108.15 3.43856 1.11557 0
M  V30 11518 O 1107.87 4.38015 0.0863707 0
M  V30 11519 C 1109.37 4.02627 1.8549 0
M  V30 11520 H 1106.59 0.657529 0.133778 0
M  V30 11521 H 1109.13 2.03095 -0.239296 0
M  V30 11522 H 1107.29 3.4205 1.81881 0
M  V30 11523 H 1107.7 5.21842 0.527363 0
M  V30 11524 H 1109.18 5.04985 2.22923 0
M  V30 11525 H 1109.65 3.43239 2.74014 0
M  V30 11526 H 1110.26 4.08058 1.19869 0
M  V30 11527 N 1108.58 -0.128553 1.57075 0
M  V30 11528 C 1109.51 -1.18822 1.94825 0
M  V30 11529 C 1110.49 -1.40609 0.816571 0
M  V30 11530 O 1111.67 -1.5492 1.07388 0
M  V30 11531 C 1108.8 -2.54383 2.23623 0
M  V30 11532 C 1107.84 -2.4908 3.4621 0
M  V30 11533 S 1108.68 -1.93974 4.99133 0
M  V30 11534 C 1109.83 -3.31228 5.31074 0
M  V30 11535 H 1110.07 -0.866246 2.844 0
M  V30 11536 H 1107.6 -0.334927 1.50724 0
M  V30 11537 H 1109.56 -3.32386 2.40893 0
M  V30 11538 H 1108.22 -2.83761 1.34678 0
M  V30 11539 H 1107.41 -3.48915 3.63695 0
M  V30 11540 H 1107.01 -1.79193 3.28277 0
M  V30 11541 H 1109.3 -4.27407 5.25671 0
M  V30 11542 H 1110.25 -3.18578 6.32387 0
M  V30 11543 H 1110.66 -3.29215 4.5856 0
M  V30 11544 N 1110.05 -1.5248 -0.398459 0
M  V30 11545 C 1110.99 -1.71321 -1.50746 0
M  V30 11546 C 1111.96 -0.5609 -1.52619 0
M  V30 11547 O 1113.15 -0.789557 -1.71167 0
M  V30 11548 C 1110.28 -1.76223 -2.89246 0
M  V30 11549 C 1109.32 -2.97878 -3.05239 0
M  V30 11550 S 1110.15 -4.58031 -2.77431 0
M  V30 11551 C 1111.31 -4.65735 -4.18141 0
M  V30 11552 H 1111.54 -2.65117 -1.34538 0
M  V30 11553 H 1109.08 -1.42653 -0.590727 0
M  V30 11554 H 1111.03 -1.79733 -3.69062 0
M  V30 11555 H 1109.7 -0.83536 -3.02788 0
M  V30 11556 H 1108.89 -2.97821 -4.06594 0
M  V30 11557 H 1108.49 -2.92311 -2.33304 0
M  V30 11558 H 1110.78 -4.43768 -5.11934 0
M  V30 11559 H 1111.73 -5.67709 -4.23217 0
M  V30 11560 H 1112.13 -3.94664 -4.03609 0
M  V30 11561 N 1111.53 0.65634 -1.43283 0
M  V30 11562 C 1112.95 0.971645 -1.26614 0
M  V30 11563 C 1113.15 2.00662 -0.183612 0
M  V30 11564 O 1112.2 2.48654 0.439003 0
M  V30 11565 C 1113.52 1.45888 -2.6294 0
M  V30 11566 C 1115.06 1.57569 -2.70446 0
M  V30 11567 C 1115.54 2.09684 -4.07181 0
M  V30 11568 N 1117.03 2.16991 -4.0923 0
M  V30 11569 C 1117.77 2.5843 -5.11861 0
M  V30 11570 N 1117.26 2.99188 -6.24867 0
M  V30 11571 N 1119.05 2.58342 -4.99215 0
M  V30 11572 H 1111.21 -0.028573 -2.12381 0
M  V30 11573 H 1113.47 0.0497918 -0.946691 0
M  V30 11574 H 1113.17 0.772823 -3.43104 0
M  V30 11575 H 1113.05 2.43445 -2.88122 0
M  V30 11576 H 1115.44 2.25277 -1.90616 0
M  V30 11577 H 1115.52 0.584529 -2.49032 0
M  V30 11578 H 1115.16 1.42579 -4.87477 0
M  V30 11579 H 1115.09 3.09625 -4.25958 0
M  V30 11580 H 1117.58 1.88278 -3.27658 0
M  V30 11581 H 1117.89 3.29549 -6.99012 0
M  V30 11582 H 1116.24 2.97 -6.28344 0
M  V30 11583 H 1119.43 2.25875 -4.09998 0
M  V30 11584 H 1119.6 2.90316 -5.79328 0
M  V30 11585 N 1113.01 1.29761 0.894412 0
M  V30 11586 C 1114.23 1.21064 1.68399 0
M  V30 11587 C 1114.66 -0.224608 1.86754 0
M  V30 11588 O 1114.02 -1.16199 1.39167 0
M  V30 11589 C 1114.07 1.93468 3.04306 0
M  V30 11590 O 1113.17 1.25533 3.9283 0
M  V30 11591 H 1112.51 0.419223 0.514925 0
M  V30 11592 H 1115.04 1.71421 1.11696 0
M  V30 11593 H 1115.05 2.02127 3.54413 0
M  V30 11594 H 1113.73 2.97857 2.90265 0
M  V30 11595 H 1112.3 1.25168 3.51266 0
M  V30 11596 N 1114.49 -1.10549 1.12324 0
M  V30 11597 C 1115.44 -2.14997 0.758979 0
M  V30 11598 C 1116.42 -1.59078 -0.241461 0
M  V30 11599 O 1117.61 -1.76937 -0.0471439 0
M  V30 11600 C 1114.74 -3.42633 0.21395 0
M  V30 11601 C 1113.83 -4.05487 1.24261 0
M  V30 11602 N 1114.22 -4.43064 2.43984 0
M  V30 11603 C 1112.52 -4.32534 1.08769 0
M  V30 11604 C 1113.22 -4.92427 3.09662 0
M  V30 11605 N 1112.19 -4.89161 2.37114 0
M  V30 11606 H 1116 -2.4184 1.67005 0
M  V30 11607 H 1113.51 -1.27659 1.00384 0
M  V30 11608 H 1115.51 -4.16849 -0.0651928 0
M  V30 11609 H 1114.17 -3.17249 -0.691591 0
M  V30 11610 H 1115.18 -4.34797 2.81375 0
M  V30 11611 H 1111.86 -4.16813 0.239354 0
M  V30 11612 H 1113.25 -5.31059 4.11614 0
M  V30 11613 N 1115.97 -0.914965 -1.28321 0
M  V30 11614 C 1117.21 -0.547665 -1.94538 0
M  V30 11615 C 1117.53 0.911834 -1.72368 0
M  V30 11616 O 1116.8 1.64481 -1.06408 0
M  V30 11617 H 1115.38 -0.199549 -0.719853 0
M  V30 11618 H 1118.05 -1.16459 -1.5628 0
M  V30 11619 H 1117.14 -0.743138 -3.03124 0
M  V30 11620 N 1117.44 1.42219 -0.679077 0
M  V30 11621 C 1118.69 2.01777 -0.20342 0
M  V30 11622 C 1119.02 1.53592 1.18841 0
M  V30 11623 O 1118.3 0.739954 1.79875 0
M  V30 11624 C 1118.58 3.59281 -0.242791 0
M  V30 11625 C 1118.43 4.17634 -1.67038 0
M  V30 11626 C 1119.75 4.38218 0.406624 0
M  V30 11627 H 1116.87 0.733134 -0.0753916 0
M  V30 11628 H 1119.51 1.69185 -0.864673 0
M  V30 11629 H 1117.66 3.87178 0.320248 0
M  V30 11630 H 1119.34 4.00674 -2.286 0
M  V30 11631 H 1117.58 3.73301 -2.20973 0
M  V30 11632 H 1118.25 5.26776 -1.64958 0
M  V30 11633 H 1120.73 4.16036 -0.0727077 0
M  V30 11634 H 1119.6 5.47793 0.348457 0
M  V30 11635 H 1119.86 4.16418 1.48487 0
M  V30 11636 N 1118.92 0.422693 1.51826 0
M  V30 11637 C 1120.15 -0.15017 2.06856 0
M  V30 11638 C 1120.57 -1.36946 1.28948 0
M  V30 11639 O 1119.93 -1.78393 0.32338 0
M  V30 11640 C 1119.98 -0.465563 3.57582 0
M  V30 11641 O 1119.08 -1.55442 3.81984 0
M  V30 11642 H 1118.42 -0.00827931 0.663948 0
M  V30 11643 H 1120.95 0.599806 1.95611 0
M  V30 11644 H 1120.96 -0.720279 4.01592 0
M  V30 11645 H 1119.64 0.425679 4.13716 0
M  V30 11646 H 1118.21 -1.29081 3.49846 0
M  V30 11647 N 1120.4 -1.5685 0.153553 0
M  V30 11648 C 1121.65 -1.96625 -0.49665 0
M  V30 11649 C 1121.98 -1.03877 -1.64083 0
M  V30 11650 O 1121.25 -0.0824112 -1.94325 0
M  V30 11651 C 1121.54 -3.46035 -0.996585 0
M  V30 11652 C 1121.39 -4.49561 0.146551 0
M  V30 11653 C 1122.71 -3.98104 -1.8762 0
M  V30 11654 H 1119.83 -0.714917 -0.179059 0
M  V30 11655 H 1122.47 -1.88527 0.236104 0
M  V30 11656 H 1120.62 -3.53066 -1.621 0
M  V30 11657 H 1122.29 -4.54604 0.783108 0
M  V30 11658 H 1120.53 -4.26271 0.804727 0
M  V30 11659 H 1121.21 -5.51456 -0.245078 0
M  V30 11660 H 1123.68 -3.93593 -1.34997 0
M  V30 11661 H 1122.56 -5.03098 -2.19508 0
M  V30 11662 H 1122.82 -3.40852 -2.81554 0
M  V30 11663 N 1121.88 0.120221 -1.57141 0
M  V30 11664 C 1122.81 1.14876 -2.03287 0
M  V30 11665 C 1123.79 1.43259 -0.917112 0
M  V30 11666 O 1124.97 1.53721 -1.18674 0
M  V30 11667 C 1122.1 2.47525 -2.43616 0
M  V30 11668 C 1121.06 2.33607 -3.58625 0
M  V30 11669 C 1120.38 3.71207 -3.84849 0
M  V30 11670 C 1121.68 1.79761 -4.90391 0
M  V30 11671 H 1123.38 0.764943 -2.89463 0
M  V30 11672 H 1120.92 0.366516 -1.39258 0
M  V30 11673 H 1122.88 3.19728 -2.74504 0
M  V30 11674 H 1121.6 2.87794 -1.54409 0
M  V30 11675 H 1120.26 1.63853 -3.27945 0
M  V30 11676 H 1119.91 4.0896 -2.9285 0
M  V30 11677 H 1119.61 3.62749 -4.62263 0
M  V30 11678 H 1121.13 4.44917 -4.18188 0
M  V30 11679 H 1122.55 2.4178 -5.19822 0
M  V30 11680 H 1120.94 1.82126 -5.71795 0
M  V30 11681 H 1122.01 0.755087 -4.78985 0
M  V30 11682 N 1123.36 1.52689 0.390367 0
M  V30 11683 C 1124.6 1.67335 1.13329 0
M  V30 11684 C 1124.93 0.415068 1.90531 0
M  V30 11685 O 1124.2 -0.570504 1.87409 0
M  V30 11686 H 1122.78 0.616821 0.421356 0
M  V30 11687 H 1125.44 1.89799 0.443 0
M  V30 11688 H 1124.53 2.52314 1.83696 0
M  V30 11689 N 1124.83 -0.648732 1.43629 0
M  V30 11690 C 1126.08 -1.40446 1.44768 0
M  V30 11691 C 1126.4 -1.95447 0.0773445 0
M  V30 11692 O 1127.6 -2.71479 -0.0337942 0
M  V30 11693 C 1126.06 -2.54194 2.54781 0
M  V30 11694 C 1125.67 -2.05781 3.97942 0
M  V30 11695 C 1127.41 -3.31529 2.65121 0
M  V30 11696 C 1125.32 -3.16767 4.99412 0
M  V30 11697 H 1124.25 -0.527717 0.538545 0
M  V30 11698 H 1126.9 -0.699756 1.69634 0
M  V30 11699 H 1125.28 -3.27156 2.23125 0
M  V30 11700 H 1126.45 -1.398 4.39081 0
M  V30 11701 H 1124.77 -1.41312 3.91688 0
M  V30 11702 H 1127.37 -4.14233 3.38105 0
M  V30 11703 H 1127.71 -3.79855 1.70341 0
M  V30 11704 H 1128.24 -2.65649 2.961 0
M  V30 11705 H 1124.98 -2.73404 5.9576 0
M  V30 11706 H 1124.5 -3.81445 4.62882 0
M  V30 11707 H 1126.18 -3.81827 5.22319 0
M  V30 11708 N 1126.31 -1.30234 -0.887518 0
M  V30 11709 C 1127.56 -1.1891 -1.6391 0
M  V30 11710 C 1127.89 0.256749 -1.92798 0
M  V30 11711 O 1127.14 1.20047 -1.54555 0
M  V30 11712 C 1127.44 -1.96046 -2.98832 0
M  V30 11713 C 1127.11 -3.45683 -2.89507 0
M  V30 11714 C 1125.77 -3.86489 -2.8667 0
M  V30 11715 C 1128.12 -4.40983 -2.7782 0
M  V30 11716 C 1125.45 -5.2089 -2.69982 0
M  V30 11717 C 1127.8 -5.75489 -2.6267 0
M  V30 11718 C 1126.47 -6.15537 -2.58207 0
M  V30 11719 H 1125.74 -0.435123 -0.599791 0
M  V30 11720 H 1128.38 -1.61308 -1.03209 0
M  V30 11721 H 1126.69 -1.46275 -3.6347 0
M  V30 11722 H 1128.38 -1.84678 -3.55942 0
M  V30 11723 H 1124.97 -3.13255 -2.92523 0
M  V30 11724 H 1129.16 -4.10401 -2.79079 0
M  V30 11725 H 1124.41 -5.51014 -2.6494 0
M  V30 11726 H 1128.59 -6.48973 -2.526 0
M  V30 11727 H 1126.22 -7.19627 -2.45034 0
M  V30 11728 N 1127.79 1.09952 -1.12909 0
M  V30 11729 C 1128.74 2.18525 -0.796849 0
M  V30 11730 C 1129.73 1.67985 0.218483 0
M  V30 11731 O 1130.94 1.79839 0.07618 0
M  V30 11732 H 1127.31 0.712714 -0.239882 0
M  V30 11733 H 1129.28 2.43783 -1.72083 0
M  V30 11734 C 1128.03 3.46625 -0.273237 0
M  V30 11735 H 1127.36 3.85879 -1.04582 0
M  V30 11736 H 1128.8 4.23926 -0.0791355 0
M  V30 11737 C 1127.26 3.2172 0.999903 0
M  V30 11738 O 1127.79 3.43851 2.07676 0
M  V30 11739 N 1125.99 2.75356 0.928833 0
M  V30 11740 H 1125.54 2.57547 0.052379 0
M  V30 11741 H 1125.5 2.5907 1.78129 0
M  V30 11742 N 1129.27 0.921757 1.27833 0
M  V30 11743 C 1130.2 0.433466 2.29441 0
M  V30 11744 C 1131.18 -0.503133 1.62489 0
M  V30 11745 O 1132.36 -0.409156 1.89841 0
M  V30 11746 C 1129.49 -0.320029 3.45822 0
M  V30 11747 C 1128.45 0.528178 4.24728 0
M  V30 11748 C 1127.77 -0.354132 5.33526 0
M  V30 11749 C 1129.07 1.78959 4.90684 0
M  V30 11750 H 1130.77 1.28263 2.70535 0
M  V30 11751 H 1128.31 0.618197 1.30055 0
M  V30 11752 H 1130.27 -0.672526 4.15999 0
M  V30 11753 H 1128.99 -1.20317 3.0363 0
M  V30 11754 H 1127.65 0.863302 3.5629 0
M  V30 11755 H 1127.3 -1.23605 4.87576 0
M  V30 11756 H 1127 0.209855 5.87225 0
M  V30 11757 H 1128.52 -0.702333 6.06547 0
M  V30 11758 H 1129.94 1.50552 5.53179 0
M  V30 11759 H 1128.33 2.29661 5.54415 0
M  V30 11760 H 1129.4 2.51265 4.14721 0
M  V30 11761 N 1130.75 -1.41857 0.686609 0
M  V30 11762 C 1131.66 -2.34595 0.0159005 0
M  V30 11763 C 1132.67 -1.55741 -0.775933 0
M  V30 11764 O 1133.85 -1.8826 -0.71555 0
M  V30 11765 C 1130.91 -3.34395 -0.915473 0
M  V30 11766 C 1129.97 -4.29141 -0.116851 0
M  V30 11767 C 1129.21 -5.24174 -1.00386 0
M  V30 11768 O 1129.43 -5.24431 -2.2434 0
M  V30 11769 O 1128.36 -6.00152 -0.458337 0
M  V30 11770 H 1132.19 -2.9351 0.780101 0
M  V30 11771 H 1129.78 -1.42559 0.446896 0
M  V30 11772 H 1131.66 -3.95675 -1.44981 0
M  V30 11773 H 1130.33 -2.77936 -1.65932 0
M  V30 11774 H 1129.24 -3.71238 0.461871 0
M  V30 11775 H 1130.57 -4.88673 0.588138 0
M  V30 11776 N 1132.22 -0.430739 -1.51599 0
M  V30 11777 C 1133.17 0.384024 -2.27583 0
M  V30 11778 C 1134.14 1.02254 -1.30895 0
M  V30 11779 O 1135.33 1.0427 -1.59789 0
M  V30 11780 C 1132.47 1.48291 -3.11615 0
M  V30 11781 C 1131.58 0.863187 -4.23288 0
M  V30 11782 C 1130.71 1.93657 -4.94642 0
M  V30 11783 C 1129.75 1.29493 -5.98246 0
M  V30 11784 N 1128.89 2.30939 -6.63032 0
M  V30 11785 H 1133.73 -0.270314 -2.96771 0
M  V30 11786 H 1131.27 -0.145148 -1.46382 0
M  V30 11787 H 1133.23 2.13124 -3.58656 0
M  V30 11788 H 1131.86 2.10697 -2.44554 0
M  V30 11789 H 1130.91 0.103326 -3.8026 0
M  V30 11790 H 1132.22 0.354676 -4.97537 0
M  V30 11791 H 1131.37 2.66167 -5.45197 0
M  V30 11792 H 1130.11 2.4788 -4.20008 0
M  V30 11793 H 1129.12 0.555262 -5.46989 0
M  V30 11794 H 1130.34 0.760122 -6.74833 0
M  V30 11795 H 1128.29 2.84254 -5.91216 0
M  V30 11796 H 1128.21 1.84961 -7.33025 0
M  V30 11797 H 1129.47 3.02953 -7.1822 0
M  V30 11798 N 1133.7 1.56767 -0.161869 0
M  V30 11799 C 1134.98 1.88245 0.531352 0
M  V30 11800 C 1135.36 1.07025 1.81958 0
M  V30 11801 O 1134.71 0.161385 2.27929 0
M  V30 11802 C 1134.92 3.40117 0.782416 0
M  V30 11803 C 1136.27 4.09655 1.11661 0
M  V30 11804 O 1137.29 3.4538 0.871274 0
M  V30 11805 O 1136.15 5.23192 1.57901 0
M  V30 11806 H 1133.24 0.780725 0.272759 0
M  V30 11807 H 1135.79 1.68522 -0.199597 0
M  V30 11808 H 1134.56 3.91088 -0.128677 0
M  V30 11809 H 1134.18 3.65418 1.56702 0
M  V30 11810 N 1135.18 -0.111886 1.57202 0
M  V30 11811 C 1136.46 -0.849125 1.76208 0
M  V30 11812 C 1136.84 -1.97735 0.73919 0
M  V30 11813 O 1136.19 -2.27283 -0.235523 0
M  V30 11814 C 1136.4 -1.35924 3.21443 0
M  V30 11815 C 1137.74 -1.80874 3.84148 0
M  V30 11816 O 1138.77 -1.45587 3.25089 0
M  V30 11817 O 1137.63 -2.46065 4.87969 0
M  V30 11818 H 1134.72 -0.403761 0.721738 0
M  V30 11819 H 1137.27 -0.0950726 1.69433 0
M  V30 11820 H 1136.04 -0.550113 3.87414 0
M  V30 11821 H 1135.66 -2.17579 3.32784 0
M  V30 11822 N 1136.66 -1.52894 -0.382264 0
M  V30 11823 C 1137.59 -1.7291 -1.48921 0
M  V30 11824 C 1138.57 -0.577056 -1.52016 0
M  V30 11825 O 1139.75 -0.807667 -1.7032 0
M  V30 11826 C 1136.88 -1.79281 -2.87361 0
M  V30 11827 C 1135.93 -3.01099 -3.02063 0
M  V30 11828 S 1136.76 -4.60947 -2.72558 0
M  V30 11829 C 1137.92 -4.70144 -4.13178 0
M  V30 11830 H 1138.15 -2.66529 -1.31718 0
M  V30 11831 H 1135.68 -1.43271 -0.575563 0
M  V30 11832 H 1137.64 -1.83637 -3.67134 0
M  V30 11833 H 1136.3 -0.867428 -3.01885 0
M  V30 11834 H 1135.49 -3.02117 -4.03412 0
M  V30 11835 H 1135.1 -2.94769 -2.3019 0
M  V30 11836 H 1137.39 -4.49173 -5.07198 0
M  V30 11837 H 1138.33 -5.72166 -4.17172 0
M  V30 11838 H 1138.74 -3.98923 -3.99401 0
M  V30 11839 N 1138.14 0.641106 -1.43971 0
M  V30 11840 C 1139.07 1.76489 -1.52885 0
M  V30 11841 C 1140.05 1.65742 -0.38258 0
M  V30 11842 O 1141.23 1.84653 -0.601397 0
M  V30 11843 C 1138.36 3.14977 -1.4631 0
M  V30 11844 C 1137.32 3.40502 -2.59311 0
M  V30 11845 C 1136.64 4.78916 -2.37789 0
M  V30 11846 C 1137.94 3.34048 -4.01509 0
M  V30 11847 H 1139.64 1.69286 -2.46946 0
M  V30 11848 H 1137.18 0.813015 -1.18853 0
M  V30 11849 H 1139.14 3.9336 -1.51149 0
M  V30 11850 H 1137.86 3.2294 -0.487599 0
M  V30 11851 H 1136.52 2.64495 -2.53846 0
M  V30 11852 H 1136.17 4.8357 -1.38454 0
M  V30 11853 H 1135.87 4.96954 -3.13545 0
M  V30 11854 H 1137.39 5.59541 -2.4443 0
M  V30 11855 H 1138.81 4.0235 -4.08396 0
M  V30 11856 H 1137.2 3.63622 -4.77388 0
M  V30 11857 H 1138.27 2.32022 -4.25786 0
M  V30 11858 N 1139.62 1.30703 0.880598 0
M  V30 11859 C 1140.85 1.22536 1.66339 0
M  V30 11860 C 1141.25 -0.213507 1.87991 0
M  V30 11861 O 1140.6 -1.15236 1.43061 0
M  V30 11862 C 1140.66 1.88798 3.05934 0
M  V30 11863 C 1140.32 3.38131 3.07435 0
M  V30 11864 C 1141.32 4.34053 2.86171 0
M  V30 11865 C 1139 3.79651 3.28893 0
M  V30 11866 C 1141 5.69469 2.86328 0
M  V30 11867 C 1138.69 5.15182 3.2868 0
M  V30 11868 C 1139.68 6.09902 3.07423 0
M  V30 11869 O 1139.37 7.42957 3.07034 0
M  V30 11870 H 1139.1 0.425018 0.525677 0
M  V30 11871 H 1141.66 1.72939 1.1082 0
M  V30 11872 H 1139.89 1.3293 3.63134 0
M  V30 11873 H 1141.58 1.74691 3.66385 0
M  V30 11874 H 1142.34 4.03307 2.69385 0
M  V30 11875 H 1138.22 3.06365 3.44473 0
M  V30 11876 H 1141.77 6.43375 2.69655 0
M  V30 11877 H 1137.66 5.45567 3.45002 0
M  V30 11878 H 1138.43 7.52 3.23169 0
M  V30 11879 N 1141.09 -1.09351 1.1349 0
M  V30 11880 C 1142.34 -1.80915 0.89177 0
M  V30 11881 C 1142.66 -1.86688 -0.5837 0
M  V30 11882 O 1143.86 -2.54568 -0.943788 0
M  V30 11883 C 1142.32 -3.25009 1.54587 0
M  V30 11884 C 1141.93 -3.27501 3.05691 0
M  V30 11885 C 1143.67 -4.01323 1.38346 0
M  V30 11886 C 1141.58 -4.66123 3.63983 0
M  V30 11887 H 1140.51 -0.677961 0.329978 0
M  V30 11888 H 1143.16 -1.22893 1.3627 0
M  V30 11889 H 1141.54 -3.83098 1.0026 0
M  V30 11890 H 1142.71 -2.79174 3.66604 0
M  V30 11891 H 1141.03 -2.64677 3.21457 0
M  V30 11892 H 1143.63 -5.03739 1.79307 0
M  V30 11893 H 1143.97 -4.15003 0.328404 0
M  V30 11894 H 1144.5 -3.49679 1.89656 0
M  V30 11895 H 1141.24 -4.57646 4.69298 0
M  V30 11896 H 1140.76 -5.14772 3.07848 0
M  V30 11897 H 1142.44 -5.35097 3.63703 0
M  V30 11898 N 1142.57 -0.928524 -1.27343 0
M  V30 11899 C 1143.5 -0.445627 -2.29208 0
M  V30 11900 C 1144.48 0.494508 -1.62753 0
M  V30 11901 O 1145.67 0.399082 -1.90055 0
M  V30 11902 C 1142.8 0.301684 -3.45987 0
M  V30 11903 C 1141.75 -0.550695 -4.24442 0
M  V30 11904 C 1141.08 0.325833 -5.33706 0
M  V30 11905 C 1142.38 -1.81559 -4.89728 0
M  V30 11906 H 1144.07 -1.29696 -2.69851 0
M  V30 11907 H 1141.62 -0.625085 -1.29725 0
M  V30 11908 H 1143.57 0.650455 -4.1635 0
M  V30 11909 H 1142.29 1.18705 -3.04264 0
M  V30 11910 H 1140.95 -0.882185 -3.55827 0
M  V30 11911 H 1140.6 1.21018 -4.88225 0
M  V30 11912 H 1140.3 -0.240994 -5.87106 0
M  V30 11913 H 1141.83 0.670156 -6.06911 0
M  V30 11914 H 1143.24 -1.53483 -5.52373 0
M  V30 11915 H 1141.64 -2.32598 -5.53189 0
M  V30 11916 H 1142.71 -2.53461 -4.13383 0
M  V30 11917 N 1144.05 1.41491 -0.694123 0
M  V30 11918 C 1145.3 2.0155 -0.224809 0
M  V30 11919 C 1145.63 1.54844 1.17205 0
M  V30 11920 O 1144.9 0.75899 1.7908 0
M  V30 11921 C 1145.19 3.59003 -0.280884 0
M  V30 11922 C 1145.04 4.15839 -1.71458 0
M  V30 11923 C 1146.36 4.38624 0.360122 0
M  V30 11924 H 1143.48 0.732293 -0.0831632 0
M  V30 11925 H 1146.12 1.68258 -0.882569 0
M  V30 11926 H 1144.27 3.87496 0.279164 0
M  V30 11927 H 1145.94 3.98227 -2.32837 0
M  V30 11928 H 1144.18 3.70936 -2.2492 0
M  V30 11929 H 1144.86 5.24997 -1.70536 0
M  V30 11930 H 1147.33 4.15936 -0.11683 0
M  V30 11931 H 1146.21 5.48132 0.290337 0
M  V30 11932 H 1146.47 4.1797 1.44062 0
M  V30 11933 N 1145.53 0.438773 1.51369 0
M  V30 11934 C 1146.78 -0.126962 2.01701 0
M  V30 11935 C 1147.1 -1.43086 1.32481 0
M  V30 11936 O 1146.37 -1.90427 0.459823 0
M  V30 11937 H 1144.95 -0.0499092 0.745331 0
M  V30 11938 H 1147.61 0.581808 1.86013 0
M  V30 11939 H 1146.7 -0.301836 3.10637 0
M  V30 11940 N 1147.01 -1.56678 0.170181 0
M  V30 11941 C 1147.94 -2.15083 -0.791961 0
M  V30 11942 C 1148.95 -1.10612 -1.19452 0
M  V30 11943 O 1150.14 -1.37803 -1.13457 0
M  V30 11944 C 1147.24 -2.67769 -2.07733 0
M  V30 11945 C 1146.41 -3.96885 -1.83851 0
M  V30 11946 C 1145.47 -4.34646 -2.96596 0
M  V30 11947 O 1144.5 -5.02543 -2.67281 0
M  V30 11948 N 1145.7 -3.96112 -4.24353 0
M  V30 11949 H 1148.46 -2.98268 -0.292658 0
M  V30 11950 H 1146.03 -1.61895 -0.0126383 0
M  V30 11951 H 1148.02 -2.90029 -2.8225 0
M  V30 11952 H 1146.59 -1.89179 -2.48858 0
M  V30 11953 H 1145.81 -3.83013 -0.932452 0
M  V30 11954 H 1147.1 -4.81213 -1.65261 0
M  V30 11955 H 1146.49 -3.41448 -4.51032 0
M  V30 11956 H 1145.05 -4.23375 -4.95577 0
M  V30 11957 N 1148.48 0.103547 -1.57259 0
M  V30 11958 C 1149.42 1.15225 -1.98131 0
M  V30 11959 C 1150.43 1.36793 -0.882692 0
M  V30 11960 O 1151.62 1.35595 -1.16088 0
M  V30 11961 C 1148.72 2.50941 -2.27776 0
M  V30 11962 C 1147.89 2.49765 -3.59077 0
M  V30 11963 C 1146.95 3.67344 -3.76756 0
M  V30 11964 O 1145.98 3.50221 -4.48702 0
M  V30 11965 N 1147.18 4.86504 -3.16692 0
M  V30 11966 H 1149.94 0.804448 -2.88702 0
M  V30 11967 H 1147.5 0.292636 -1.59233 0
M  V30 11968 H 1149.5 3.28186 -2.36804 0
M  V30 11969 H 1148.07 2.77843 -1.43255 0
M  V30 11970 H 1147.29 1.58125 -3.61096 0
M  V30 11971 H 1148.57 2.4605 -4.4535 0
M  V30 11972 H 1147.97 5.03319 -2.58236 0
M  V30 11973 H 1146.53 5.61371 -3.31218 0
M  V30 11974 N 1149.96 1.53094 0.37415 0
M  V30 11975 C 1151.21 1.68527 1.11548 0
M  V30 11976 C 1151.53 0.435253 1.9008 0
M  V30 11977 O 1150.8 -0.550594 1.88003 0
M  V30 11978 H 1149.38 0.621255 0.41479 0
M  V30 11979 H 1152.04 1.90258 0.422844 0
M  V30 11980 H 1151.14 2.54248 1.81009 0
M  V30 11981 N 1151.44 -0.633461 1.44309 0
M  V30 11982 C 1152.35 -1.77428 1.53481 0
M  V30 11983 C 1153.37 -1.68839 0.420628 0
M  V30 11984 O 1154.54 -1.89658 0.677638 0
M  V30 11985 C 1151.61 -3.13801 1.47409 0
M  V30 11986 C 1150.67 -3.34039 2.6966 0
M  V30 11987 C 1149.9 -4.63907 2.63868 0
M  V30 11988 O 1150.12 -5.44559 1.69741 0
M  V30 11989 O 1149.06 -4.86295 3.54684 0
M  V30 11990 H 1152.88 -1.72642 2.49857 0
M  V30 11991 H 1150.47 -0.794399 1.26529 0
M  V30 11992 H 1152.35 -3.95101 1.46537 0
M  V30 11993 H 1151.03 -3.19134 0.541769 0
M  V30 11994 H 1149.93 -2.52427 2.761 0
M  V30 11995 H 1151.27 -3.33566 3.61931 0
M  V30 11996 N 1152.92 -1.31168 -0.873655 0
M  V30 11997 C 1154.2 -1.11285 -1.60857 0
M  V30 11998 C 1154.58 0.333788 -2.08444 0
M  V30 11999 O 1153.92 1.32726 -1.86 0
M  V30 12000 C 1154.13 -2.12379 -2.7694 0
M  V30 12001 C 1155.48 -2.44704 -3.46994 0
M  V30 12002 O 1156.51 -2.10778 -2.87143 0
M  V30 12003 O 1155.36 -3.02786 -4.54954 0
M  V30 12004 H 1152.46 -0.428177 -0.707526 0
M  V30 12005 H 1155 -1.42634 -0.91944 0
M  V30 12006 H 1153.78 -3.09703 -2.39164 0
M  V30 12007 H 1153.4 -1.81914 -3.53544 0
M  V30 12008 N 1154.4 1.08748 -1.14068 0
M  V30 12009 C 1155.36 2.1375 -0.827266 0
M  V30 12010 C 1156.36 1.59936 0.166496 0
M  V30 12011 O 1157.55 1.74092 -0.0614305 0
M  V30 12012 C 1154.68 3.40106 -0.232557 0
M  V30 12013 H 1155.87 2.42985 -1.7578 0
M  V30 12014 H 1153.43 1.24402 -0.946244 0
M  V30 12015 H 1154.16 3.16503 0.706859 0
M  V30 12016 H 1153.95 3.8046 -0.948293 0
M  V30 12017 H 1155.44 4.17589 -0.0303662 0
M  V30 12018 N 1155.87 0.935264 1.26849 0
M  V30 12019 C 1157.11 0.587087 1.95787 0
M  V30 12020 C 1157.48 -0.856974 1.71814 0
M  V30 12021 O 1158.68 -1.3138 2.34505 0
M  V30 12022 C 1156.95 0.91303 3.45541 0
M  V30 12023 S 1158.51 0.674506 4.33585 0
M  V30 12024 H 1155.33 0.216442 0.677255 0
M  V30 12025 H 1157.93 1.20532 1.53923 0
M  V30 12026 H 1156.63 1.96154 3.60488 0
M  V30 12027 H 1156.16 0.28429 3.92371 0
M  V30 12028 H 1158.18 -0.464121 4.94025 0
M  V30 12029 N 1157.35 -1.41121 0.701616 0
M  V30 12030 C 1158.76 -1.84122 0.309208 0
M  V30 12031 C 1159.11 -1.58695 -1.15371 0
M  V30 12032 O 1158.24 -1.06053 -1.88631 0
M  V30 12033 C 1158.83 -3.34233 0.554429 0
M  V30 12034 C 1157.39 -3.7578 0.215876 0
M  V30 12035 C 1156.54 -2.6447 0.833729 0
M  V30 12036 H 1159.49 -1.30587 0.901822 0
M  V30 12037 H 1159.51 -3.8005 -0.18491 0
M  V30 12038 H 1159.02 -3.52707 1.61923 0
M  V30 12039 H 1157.13 -3.62905 -0.844421 0
M  V30 12040 H 1157.24 -4.74319 0.675118 0
M  V30 12041 H 1155.6 -2.5334 0.262851 0
M  V30 12042 H 1156.39 -2.85761 1.90252 0
M  V30 12043 N 1158.83 -0.446794 -1.51134 0
M  V30 12044 C 1160.06 0.117242 -2.07068 0
M  V30 12045 C 1160.48 1.34877 -1.3111 0
M  V30 12046 O 1159.84 1.77856 -0.35172 0
M  V30 12047 C 1159.89 0.408616 -3.58277 0
M  V30 12048 O 1158.99 1.49345 -3.84408 0
M  V30 12049 H 1158.33 -0.00228458 -0.663996 0
M  V30 12050 H 1160.86 -0.63085 -1.94632 0
M  V30 12051 H 1160.87 0.656298 -4.02687 0
M  V30 12052 H 1159.55 -0.491444 -4.12986 0
M  V30 12053 H 1158.12 1.23499 -3.51856 0
M  V30 12054 N 1160.31 1.56586 -0.178487 0
M  V30 12055 C 1161.54 2.01475 0.470684 0
M  V30 12056 C 1161.95 1.0587 1.56323 0
M  V30 12057 O 1161.31 0.060749 1.82399 0
M  V30 12058 C 1161.36 3.46145 1.04238 0
M  V30 12059 O 1161.08 4.381 -0.0065582 0
M  V30 12060 C 1162.58 4.06471 1.76908 0
M  V30 12061 H 1159.8 0.660219 0.119801 0
M  V30 12062 H 1162.35 2.02542 -0.282322 0
M  V30 12063 H 1160.5 3.45831 1.74585 0
M  V30 12064 H 1160.91 5.22843 0.416554 0
M  V30 12065 H 1162.39 5.096 2.12161 0
M  V30 12066 H 1162.87 3.48974 2.66672 0
M  V30 12067 H 1163.47 4.10509 1.11186 0
M  V30 12068 N 1161.79 -0.095206 1.57312 0
M  V30 12069 C 1162.73 -1.13438 2.03063 0
M  V30 12070 C 1163.73 -1.41478 0.931679 0
M  V30 12071 O 1164.93 -1.41161 1.11686 0
M  V30 12072 H 1161.31 -0.383042 0.647134 0
M  V30 12073 H 1163.28 -0.722186 2.89529 0
M  V30 12074 C 1162.03 -2.44641 2.47075 0
M  V30 12075 H 1161.35 -2.23908 3.31218 0
M  V30 12076 H 1162.79 -3.15855 2.82863 0
M  V30 12077 C 1161.25 -3.08931 1.34399 0
M  V30 12078 O 1161.78 -3.96021 0.673071 0
M  V30 12079 N 1159.99 -2.6918 1.09501 0
M  V30 12080 H 1159.53 -1.98451 1.6424 0
M  V30 12081 H 1159.49 -3.12522 0.34311 0
M  V30 12082 N 1163.26 -1.53291 -0.366026 0
M  V30 12083 C 1164.2 -1.75981 -1.46845 0
M  V30 12084 C 1165.21 -0.640574 -1.49668 0
M  V30 12085 O 1166.4 -0.916823 -1.53155 0
M  V30 12086 C 1163.5 -1.82426 -2.85611 0
M  V30 12087 C 1162.67 -3.12062 -3.0649 0
M  V30 12088 C 1161.73 -3.09755 -4.25368 0
M  V30 12089 O 1160.76 -3.83555 -4.20564 0
M  V30 12090 N 1161.96 -2.30544 -5.32757 0
M  V30 12091 H 1164.72 -2.71104 -1.2776 0
M  V30 12092 H 1162.28 -1.52063 -0.555745 0
M  V30 12093 H 1164.28 -1.78361 -3.63276 0
M  V30 12094 H 1162.85 -0.945888 -2.97946 0
M  V30 12095 H 1162.07 -3.29433 -2.16489 0
M  V30 12096 H 1163.35 -3.97735 -3.17308 0
M  V30 12097 H 1162.75 -1.70095 -5.39522 0
M  V30 12098 H 1161.31 -2.32298 -6.09 0
M  V30 12099 N 1164.74 0.6258 -1.44643 0
M  V30 12100 C 1165.67 1.74858 -1.54748 0
M  V30 12101 C 1166.65 1.65327 -0.400138 0
M  V30 12102 O 1167.84 1.84005 -0.620948 0
M  V30 12103 C 1164.97 3.13408 -1.49643 0
M  V30 12104 C 1163.92 3.37733 -2.62908 0
M  V30 12105 C 1163.25 4.76367 -2.42855 0
M  V30 12106 C 1164.55 3.29771 -4.05029 0
M  V30 12107 H 1166.24 1.66658 -2.48728 0
M  V30 12108 H 1163.79 0.800363 -1.19709 0
M  V30 12109 H 1165.74 3.91735 -1.55312 0
M  V30 12110 H 1164.47 3.22404 -0.521824 0
M  V30 12111 H 1163.12 2.61788 -2.56637 0
M  V30 12112 H 1162.77 4.82074 -1.43575 0
M  V30 12113 H 1162.47 4.936 -3.18799 0
M  V30 12114 H 1164 5.56917 -2.50351 0
M  V30 12115 H 1165.41 3.97996 -4.12641 0
M  V30 12116 H 1163.81 3.58538 -4.81218 0
M  V30 12117 H 1164.88 2.27493 -4.28223 0
M  V30 12118 N 1166.22 1.31629 0.866686 0
M  V30 12119 C 1167.47 1.20861 1.61479 0
M  V30 12120 C 1167.78 -0.231208 1.94229 0
M  V30 12121 O 1168.99 -0.460618 2.67564 0
M  V30 12122 C 1167.44 2.11602 2.91123 0
M  V30 12123 C 1167.05 3.60598 2.65844 0
M  V30 12124 C 1168.8 2.09642 3.69121 0
M  V30 12125 C 1166.7 4.43337 3.91415 0
M  V30 12126 H 1165.63 0.448783 0.605896 0
M  V30 12127 H 1168.28 1.56507 0.958001 0
M  V30 12128 H 1166.67 1.68858 3.58194 0
M  V30 12129 H 1167.84 4.11609 2.07159 0
M  V30 12130 H 1166.16 3.64568 2.01194 0
M  V30 12131 H 1168.75 2.68701 4.62281 0
M  V30 12132 H 1169.1 1.08438 4.01929 0
M  V30 12133 H 1169.63 2.50603 3.08938 0
M  V30 12134 H 1166.37 5.45309 3.63756 0
M  V30 12135 H 1165.89 3.97083 4.49539 0
M  V30 12136 H 1167.57 4.5572 4.5927 0
M  V30 12137 N 1167.7 -1.08142 1.14644 0
M  V30 12138 C 1168.63 -2.15022 0.793614 0
M  V30 12139 C 1169.64 -1.61679 -0.190729 0
M  V30 12140 O 1170.83 -1.78472 0.0313696 0
M  V30 12141 C 1167.93 -3.38532 0.157785 0
M  V30 12142 C 1167.11 -4.21252 1.17753 0
M  V30 12143 C 1166.17 -5.23158 0.564968 0
M  V30 12144 O 1165.19 -5.5578 1.22869 0
M  V30 12145 N 1166.39 -5.7677 -0.657022 0
M  V30 12146 H 1169.16 -2.45893 1.71338 0
M  V30 12147 H 1166.72 -1.23976 1.04122 0
M  V30 12148 H 1168.71 -4.03834 -0.264586 0
M  V30 12149 H 1167.28 -3.05441 -0.665168 0
M  V30 12150 H 1166.5 -3.51888 1.77675 0
M  V30 12151 H 1167.79 -4.73335 1.86632 0
M  V30 12152 H 1167.19 -5.52503 -1.21478 0
M  V30 12153 H 1165.74 -6.4374 -1.02186 0
M  V30 12154 N 1169.18 -0.941978 -1.26351 0
M  V30 12155 C 1170.12 -0.450906 -2.26353 0
M  V30 12156 C 1171.09 0.489857 -1.58712 0
M  V30 12157 O 1172.28 0.40589 -1.86433 0
M  V30 12158 C 1169.42 0.277054 -3.43986 0
M  V30 12159 C 1168.53 -0.699474 -4.263 0
M  V30 12160 C 1167.67 0.0497661 -5.31177 0
M  V30 12161 C 1166.71 -0.918531 -6.05169 0
M  V30 12162 N 1165.84 -0.200993 -7.01812 0
M  V30 12163 H 1170.68 -1.30861 -2.6773 0
M  V30 12164 H 1168.22 -0.656514 -1.31637 0
M  V30 12165 H 1170.18 0.715567 -4.11018 0
M  V30 12166 H 1168.81 1.09889 -3.0352 0
M  V30 12167 H 1167.86 -1.2565 -3.59049 0
M  V30 12168 H 1169.17 -1.4389 -4.77595 0
M  V30 12169 H 1168.33 0.547521 -6.04224 0
M  V30 12170 H 1167.07 0.822068 -4.80722 0
M  V30 12171 H 1166.07 -1.4274 -5.30947 0
M  V30 12172 H 1167.3 -1.69085 -6.57713 0
M  V30 12173 H 1165.24 0.552803 -6.53667 0
M  V30 12174 H 1165.16 -0.879735 -7.50864 0
M  V30 12175 H 1166.43 0.275642 -7.79012 0
M  V30 12176 N 1170.66 1.40747 -0.709091 0
M  V30 12177 C 1171.9 2.013 -0.246174 0
M  V30 12178 C 1172.23 1.56078 1.15556 0
M  V30 12179 O 1171.51 0.777941 1.78265 0
M  V30 12180 C 1171.79 3.58685 -0.318945 0
M  V30 12181 C 1171.65 4.13997 -1.75859 0
M  V30 12182 C 1172.96 4.38981 0.31358 0
M  V30 12183 H 1170.08 0.73137 -0.0909255 0
M  V30 12184 H 1172.73 1.67312 -0.900365 0
M  V30 12185 H 1170.88 3.8777 0.23805 0
M  V30 12186 H 1172.55 3.95735 -2.37047 0
M  V30 12187 H 1170.79 3.6853 -2.28841 0
M  V30 12188 H 1171.46 5.23158 -1.76095 0
M  V30 12189 H 1173.94 4.15789 -0.160939 0
M  V30 12190 H 1172.81 5.48409 0.232184 0
M  V30 12191 H 1173.07 4.19474 1.39621 0
M  V30 12192 N 1172.13 0.454803 1.50895 0
M  V30 12193 C 1173.37 -0.104722 2.04132 0
M  V30 12194 C 1173.74 -1.38434 1.33042 0
M  V30 12195 O 1174.94 -2.02521 1.76745 0
M  V30 12196 C 1173.21 -0.300775 3.56132 0
M  V30 12197 S 1174.77 -0.821197 4.31047 0
M  V30 12198 H 1171.59 -0.0236407 0.710607 0
M  V30 12199 H 1174.19 0.618213 1.85468 0
M  V30 12200 H 1172.89 0.636592 4.05433 0
M  V30 12201 H 1172.42 -1.05029 3.79121 0
M  V30 12202 H 1174.44 -2.09669 4.49726 0
M  V30 12203 N 1173.61 -1.56489 0.186789 0
M  V30 12204 C 1174.86 -1.96517 -0.45433 0
M  V30 12205 C 1175.17 -1.07618 -1.63333 0
M  V30 12206 O 1176.38 -1.37392 -2.3417 0
M  V30 12207 C 1174.84 -3.49482 -0.859685 0
M  V30 12208 C 1174.44 -4.47031 0.294572 0
M  V30 12209 C 1176.19 -3.98296 -1.46835 0
M  V30 12210 C 1174.09 -5.91254 -0.131279 0
M  V30 12211 H 1173.02 -0.733765 -0.17351 0
M  V30 12212 H 1175.68 -1.8139 0.277485 0
M  V30 12213 H 1174.06 -3.60082 -1.64793 0
M  V30 12214 H 1175.23 -4.48156 1.07205 0
M  V30 12215 H 1173.55 -4.08362 0.814197 0
M  V30 12216 H 1176.14 -5.03518 -1.79928 0
M  V30 12217 H 1176.49 -3.42123 -2.37186 0
M  V30 12218 H 1177.02 -3.90776 -0.744247 0
M  V30 12219 H 1173.76 -6.51334 0.737839 0
M  V30 12220 H 1173.28 -5.93401 -0.873786 0
M  V30 12221 H 1174.96 -6.44485 -0.569913 0
M  V30 12222 N 1175.09 0.086862 -1.5736 0
M  V30 12223 C 1176.34 0.787281 -1.86135 0
M  V30 12224 C 1176.66 1.78866 -0.776667 0
M  V30 12225 O 1175.93 1.94915 0.19625 0
M  V30 12226 H 1174.51 0.293744 -0.686821 0
M  V30 12227 H 1177.17 0.0665326 -1.94786 0
M  V30 12228 H 1176.27 1.3128 -2.83147 0
M  V30 12229 N 1176.57 1.53483 0.357892 0
M  V30 12230 C 1177.48 1.83434 1.4625 0
M  V30 12231 C 1178.49 0.723313 1.58254 0
M  V30 12232 O 1179.67 1.01416 1.74002 0
M  V30 12233 C 1176.73 2.0249 2.81423 0
M  V30 12234 C 1175.8 3.26378 2.78883 0
M  V30 12235 C 1175.03 3.44516 4.07608 0
M  V30 12236 O 1175.25 2.66787 5.04163 0
M  V30 12237 O 1174.19 4.37898 4.12952 0
M  V30 12238 H 1178.01 2.77294 1.23861 0
M  V30 12239 H 1175.6 1.38958 0.548722 0
M  V30 12240 H 1177.48 2.16552 3.61501 0
M  V30 12241 H 1176.15 1.11819 3.03773 0
M  V30 12242 H 1175.06 3.17733 1.97475 0
M  V30 12243 H 1176.39 4.16996 2.61486 0
M  V30 12244 N 1178.05 -0.61812 1.44973 0
M  V30 12245 C 1178.99 -1.75059 1.53157 0
M  V30 12246 C 1179.99 -1.64554 0.402282 0
M  V30 12247 O 1181.19 -1.70475 0.577767 0
M  V30 12248 H 1177.57 -0.57817 0.480856 0
M  V30 12249 H 1179.54 -1.65281 2.48445 0
M  V30 12250 C 1178.29 -3.13423 1.50538 0
M  V30 12251 H 1177.61 -3.2216 2.36755 0
M  V30 12252 H 1179.05 -3.92521 1.60323 0
M  V30 12253 C 1177.51 -3.36127 0.228127 0
M  V30 12254 O 1178.04 -3.95618 -0.696364 0
M  V30 12255 N 1176.25 -2.90322 0.127142 0
M  V30 12256 H 1175.79 -2.42091 0.880317 0
M  V30 12257 H 1175.75 -3.05887 -0.726659 0
M  V30 12258 N 1179.52 -1.32087 -0.859693 0
M  V30 12259 C 1180.47 -1.20549 -1.98924 0
M  V30 12260 C 1181.47 -0.111422 -1.69033 0
M  V30 12261 O 1182.67 -0.27401 -1.77902 0
M  V30 12262 H 1179.05 -0.373538 -0.652667 0
M  V30 12263 H 1181.02 -2.16091 -2.05785 0
M  V30 12264 C 1179.77 -0.940226 -3.34746 0
M  V30 12265 H 1179.09 -1.77427 -3.58273 0
M  V30 12266 H 1180.53 -0.899712 -4.14344 0
M  V30 12267 C 1178.99 0.357042 -3.35003 0
M  V30 12268 O 1179.52 1.37054 -3.77596 0
M  V30 12269 N 1177.72 0.37723 -2.88141 0
M  V30 12270 H 1177.27 -0.448051 -2.53674 0
M  V30 12271 H 1177.23 1.24509 -2.88695 0
M  V30 12272 N 1181 1.07532 -1.15215 0
M  V30 12273 C 1182.25 1.8036 -0.927263 0
M  V30 12274 C 1182.58 1.86414 0.544371 0
M  V30 12275 O 1181.86 1.34653 1.40353 0
M  V30 12276 C 1182.14 3.25512 -1.53992 0
M  V30 12277 C 1181.99 3.27614 -3.08203 0
M  V30 12278 C 1183.31 4.22731 -1.22418 0
M  V30 12279 H 1180.43 0.654775 -0.338289 0
M  V30 12280 H 1183.07 1.25842 -1.42351 0
M  V30 12281 H 1181.22 3.72068 -1.11791 0
M  V30 12282 H 1182.89 2.89315 -3.59297 0
M  V30 12283 H 1181.14 2.66627 -3.42188 0
M  V30 12284 H 1181.81 4.29956 -3.46182 0
M  V30 12285 H 1184.28 3.84557 -1.58919 0
M  V30 12286 H 1183.16 5.22589 -1.67906 0
M  V30 12287 H 1183.42 4.41875 -0.14091 0
M  V30 12288 N 1182.48 0.948665 1.2585 0
M  V30 12289 C 1183.73 0.595938 1.92695 0
M  V30 12290 C 1184.04 -0.870229 1.75175 0
M  V30 12291 O 1185.25 -1.33266 2.36543 0
M  V30 12292 C 1183.7 1.01511 3.45288 0
M  V30 12293 C 1183.31 2.50341 3.71528 0
M  V30 12294 C 1185.06 0.734635 4.18095 0
M  V30 12295 C 1182.96 2.8609 5.17597 0
M  V30 12296 H 1181.89 0.219171 0.721443 0
M  V30 12297 H 1184.54 1.15231 1.42807 0
M  V30 12298 H 1182.93 0.387201 3.94102 0
M  V30 12299 H 1184.1 3.18101 3.3339 0
M  V30 12300 H 1182.42 2.75797 3.11969 0
M  V30 12301 H 1185.01 0.977962 5.25681 0
M  V30 12302 H 1185.36 -0.328807 4.14999 0
M  V30 12303 H 1185.89 1.32262 3.75169 0
M  V30 12304 H 1182.63 3.91427 5.25799 0
M  V30 12305 H 1182.15 2.22999 5.56805 0
M  V30 12306 H 1183.83 2.74959 5.85668 0
M  V30 12307 N 1183.96 -1.40369 0.716545 0
M  V30 12308 C 1184.87 -2.34508 0.065658 0
M  V30 12309 C 1185.88 -1.57352 -0.742723 0
M  V30 12310 O 1187.06 -1.89735 -0.675456 0
M  V30 12311 C 1184.13 -3.36262 -0.844337 0
M  V30 12312 C 1183.19 -4.29292 -0.0257971 0
M  V30 12313 C 1182.42 -5.26185 -0.892452 0
M  V30 12314 O 1182.64 -5.29071 -2.13166 0
M  V30 12315 O 1181.58 -6.0099 -0.330933 0
M  V30 12316 H 1185.4 -2.91789 0.842184 0
M  V30 12317 H 1182.99 -1.41579 0.477034 0
M  V30 12318 H 1184.87 -3.98661 -1.36555 0
M  V30 12319 H 1183.54 -2.81393 -1.59999 0
M  V30 12320 H 1182.45 -3.70175 0.540512 0
M  V30 12321 H 1183.78 -4.87316 0.69166 0
M  V30 12322 N 1185.44 -0.462799 -1.50652 0
M  V30 12323 C 1186.35 0.341191 -2.32106 0
M  V30 12324 C 1187.36 1.00384 -1.42123 0
M  V30 12325 O 1188.54 0.993635 -1.75182 0
M  V30 12326 C 1185.6 1.41356 -3.16575 0
M  V30 12327 C 1184.66 0.768375 -4.22368 0
M  V30 12328 C 1183.9 1.78964 -5.028 0
M  V30 12329 O 1184.12 3.01515 -4.84195 0
M  V30 12330 O 1183.05 1.36606 -5.86193 0
M  V30 12331 H 1186.88 -0.324482 -3.01962 0
M  V30 12332 H 1184.47 -0.224807 -1.47699 0
M  V30 12333 H 1186.35 2.0349 -3.69012 0
M  V30 12334 H 1185.02 2.06285 -2.49456 0
M  V30 12335 H 1183.93 0.108297 -3.73943 0
M  V30 12336 H 1185.26 0.162164 -4.91933 0
M  V30 12337 N 1186.91 1.56388 -0.195085 0
M  V30 12338 C 1187.82 2.22698 0.737743 0
M  V30 12339 C 1188.84 1.22605 1.23466 0
M  V30 12340 O 1190.02 1.55342 1.28183 0
M  V30 12341 C 1187.08 2.87333 1.94011 0
M  V30 12342 C 1186.14 4.02696 1.48776 0
M  V30 12343 C 1185.38 4.64239 2.63282 0
M  V30 12344 O 1185.6 4.24706 3.80763 0
M  V30 12345 O 1184.53 5.53705 2.35996 0
M  V30 12346 H 1188.36 3.03021 0.203013 0
M  V30 12347 H 1185.94 1.49361 0.0342044 0
M  V30 12348 H 1187.83 3.28226 2.64284 0
M  V30 12349 H 1186.5 2.0999 2.46345 0
M  V30 12350 H 1185.41 3.66426 0.753839 0
M  V30 12351 H 1186.74 4.81703 1.01109 0
M  V30 12352 N 1188.39 -0.0785156 1.57404 0
M  V30 12353 C 1189.64 -0.777722 1.86103 0
M  V30 12354 C 1189.95 -1.79079 0.786771 0
M  V30 12355 O 1191.16 -2.53908 0.961393 0
M  V30 12356 C 1189.62 -1.43407 3.30095 0
M  V30 12357 C 1189.22 -0.459912 4.45633 0
M  V30 12358 C 1190.97 -2.11603 3.68 0
M  V30 12359 C 1188.88 -1.12179 5.80663 0
M  V30 12360 H 1187.81 -0.294205 0.694233 0
M  V30 12361 H 1190.46 -0.0309003 1.83474 0
M  V30 12362 H 1188.84 -2.22892 3.27315 0
M  V30 12363 H 1190.01 0.304642 4.59792 0
M  V30 12364 H 1188.33 0.117242 4.16235 0
M  V30 12365 H 1190.92 -2.61887 4.66175 0
M  V30 12366 H 1191.27 -2.91244 2.9746 0
M  V30 12367 H 1191.8 -1.38958 3.72741 0
M  V30 12368 H 1188.54 -0.365842 6.54478 0
M  V30 12369 H 1188.06 -1.85737 5.70317 0
M  V30 12370 H 1189.74 -1.64355 6.25777 0
M  V30 12371 N 1189.87 -1.5367 -0.349747 0
M  V30 12372 C 1191.29 -1.43796 -0.692457 0
M  V30 12373 C 1191.49 -0.58972 -1.92677 0
M  V30 12374 O 1190.54 -0.078294 -2.52379 0
M  V30 12375 C 1191.86 -2.872 -0.890881 0
M  V30 12376 C 1193.4 -2.96935 -0.989892 0
M  V30 12377 C 1193.88 -4.41433 -1.22068 0
M  V30 12378 N 1195.37 -4.44932 -1.28802 0
M  V30 12379 C 1196.1 -5.53864 -1.48398 0
M  V30 12380 N 1195.6 -6.72814 -1.65208 0
M  V30 12381 N 1197.39 -5.41467 -1.50896 0
M  V30 12382 H 1189.54 -2.07317 0.461895 0
M  V30 12383 H 1191.81 -0.936895 0.144681 0
M  V30 12384 H 1191.51 -3.51656 -0.0555095 0
M  V30 12385 H 1191.39 -3.31784 -1.79442 0
M  V30 12386 H 1193.77 -2.32622 -1.81579 0
M  V30 12387 H 1193.86 -2.55721 -0.0633906 0
M  V30 12388 H 1193.5 -5.06325 -0.399729 0
M  V30 12389 H 1193.43 -4.80233 -2.16064 0
M  V30 12390 H 1195.92 -3.59214 -1.17361 0
M  V30 12391 H 1196.23 -7.51598 -1.79779 0
M  V30 12392 H 1194.58 -6.7577 -1.62356 0
M  V30 12393 H 1197.77 -4.47498 -1.37342 0
M  V30 12394 H 1197.94 -6.26423 -1.65826 0
M  V30 12395 N 1191.35 0.610423 -1.45298 0
M  V30 12396 C 1192.59 1.37154 -1.49388 0
M  V30 12397 C 1192.93 1.93737 -0.134025 0
M  V30 12398 O 1192.2 1.74888 0.851138 0
M  V30 12399 C 1192.49 2.52155 -2.5708 0
M  V30 12400 C 1192.34 2.00786 -4.02498 0
M  V30 12401 C 1193.66 3.54294 -2.61082 0
M  V30 12402 H 1190.78 0.497346 -0.54389 0
M  V30 12403 H 1193.42 0.688358 -1.77092 0
M  V30 12404 H 1191.57 3.10434 -2.33587 0
M  V30 12405 H 1193.24 1.47178 -4.37191 0
M  V30 12406 H 1191.48 1.31809 -4.1329 0
M  V30 12407 H 1192.15 2.83674 -4.73533 0
M  V30 12408 H 1194.63 3.05851 -2.82125 0
M  V30 12409 H 1193.51 4.32254 -3.38301 0
M  V30 12410 H 1193.77 4.09726 -1.66063 0
M  V30 12411 N 1192.83 1.32541 0.852676 0
M  V30 12412 C 1193.77 1.21602 1.98282 0
M  V30 12413 C 1194.77 0.120384 1.68972 0
M  V30 12414 O 1195.97 0.283441 1.77754 0
M  V30 12415 H 1192.35 0.376994 0.650676 0
M  V30 12416 H 1194.32 2.17179 2.04636 0
M  V30 12417 C 1193.07 0.957965 3.34243 0
M  V30 12418 H 1192.39 1.79324 3.57327 0
M  V30 12419 H 1193.83 0.921673 4.13861 0
M  V30 12420 C 1192.29 -0.339271 3.35187 0
M  V30 12421 O 1192.82 -1.3505 3.78318 0
M  V30 12422 N 1191.03 -0.361944 2.88337 0
M  V30 12423 H 1190.57 0.461497 2.53432 0
M  V30 12424 H 1190.53 -1.22976 2.89352 0
M  V30 12425 N 1194.3 -1.0692 1.15784 0
M  V30 12426 C 1195.72 -1.31707 0.901408 0
M  V30 12427 C 1195.92 -1.96429 -0.449203 0
M  V30 12428 O 1194.98 -2.22692 -1.19015 0
M  V30 12429 C 1196.29 -2.20391 2.04568 0
M  V30 12430 C 1197.84 -2.33827 2.08072 0
M  V30 12431 C 1198.31 -3.25862 3.21835 0
M  V30 12432 N 1199.8 -3.33444 3.21511 0
M  V30 12433 C 1200.54 -4.04731 4.06177 0
M  V30 12434 N 1200.03 -4.78596 5.00917 0
M  V30 12435 N 1201.83 -4.00717 3.94185 0
M  V30 12436 H 1193.98 -0.632989 2.02749 0
M  V30 12437 H 1196.24 -0.341587 0.88432 0
M  V30 12438 H 1195.95 -1.80102 3.02087 0
M  V30 12439 H 1195.82 -3.20943 1.9818 0
M  V30 12440 H 1198.21 -2.73367 1.11151 0
M  V30 12441 H 1198.29 -1.32964 2.18527 0
M  V30 12442 H 1197.93 -2.8704 4.19012 0
M  V30 12443 H 1197.86 -4.26689 3.08617 0
M  V30 12444 H 1200.35 -2.80798 2.52905 0
M  V30 12445 H 1200.67 -5.30499 5.61952 0
M  V30 12446 H 1199.01 -4.77598 5.04902 0
M  V30 12447 H 1202.2 -3.42126 3.1948 0
M  V30 12448 H 1202.38 -4.56008 4.60392 0
M  V30 12449 N 1195.78 -0.955326 -1.25345 0
M  V30 12450 C 1197.01 -0.627233 -1.97688 0
M  V30 12451 C 1197.43 0.793973 -1.70522 0
M  V30 12452 O 1196.79 1.537 -0.961556 0
M  V30 12453 C 1196.84 -0.892969 -3.49369 0
M  V30 12454 O 1195.94 0.0278871 -4.12391 0
M  V30 12455 H 1195.28 -0.238402 -0.619726 0
M  V30 12456 H 1197.81 -1.28211 -1.59446 0
M  V30 12457 H 1197.82 -0.819517 -3.99685 0
M  V30 12458 H 1196.5 -1.92879 -3.6847 0
M  V30 12459 H 1195.08 -0.0978295 -3.72772 0
M  V30 12460 N 1197.26 1.39987 -0.723979 0
M  V30 12461 C 1198.51 2.01028 -0.267511 0
M  V30 12462 C 1198.84 1.57295 1.13894 0
M  V30 12463 O 1198.12 0.796805 1.7743 0
M  V30 12464 C 1198.4 3.58326 -0.356971 0
M  V30 12465 C 1198.25 4.12109 -1.8024 0
M  V30 12466 C 1199.57 4.39289 0.267003 0
M  V30 12467 H 1196.69 0.730364 -0.0986775 0
M  V30 12468 H 1199.33 1.66348 -0.91806 0
M  V30 12469 H 1197.48 3.88001 0.196908 0
M  V30 12470 H 1199.15 3.93199 -2.41231 0
M  V30 12471 H 1197.4 3.66082 -2.32737 0
M  V30 12472 H 1198.07 5.21261 -1.81634 0
M  V30 12473 H 1200.54 4.15595 -0.20503 0
M  V30 12474 H 1199.42 5.48624 0.174004 0
M  V30 12475 H 1199.68 4.20931 1.35164 0
M  V30 12476 N 1198.74 0.470782 1.50404 0
M  V30 12477 C 1199.69 -0.342183 2.25418 0
M  V30 12478 C 1200.67 -0.961726 1.28995 0
M  V30 12479 O 1201.87 -0.874327 1.53898 0
M  V30 12480 C 1198.99 -1.42378 3.12383 0
M  V30 12481 C 1198.08 -0.811982 4.16254 0
M  V30 12482 N 1198.47 0.0675245 5.05755 0
M  V30 12483 C 1196.77 -1.07596 4.32827 0
M  V30 12484 C 1197.47 0.414693 5.8022 0
M  V30 12485 N 1196.45 -0.210047 5.43194 0
M  V30 12486 H 1200.25 0.335344 2.91981 0
M  V30 12487 H 1197.76 0.284911 1.59881 0
M  V30 12488 H 1199.76 -2.01936 3.64729 0
M  V30 12489 H 1198.42 -2.1033 2.47369 0
M  V30 12490 H 1199.43 0.436333 5.16059 0
M  V30 12491 H 1196.11 -1.75048 3.79031 0
M  V30 12492 H 1197.5 1.13243 6.62288 0
M  V30 12493 N 1200.22 -1.56282 0.203376 0
M  V30 12494 C 1201.13 -2.23086 -0.725922 0
M  V30 12495 C 1202.14 -1.23258 -1.22814 0
M  V30 12496 O 1203.32 -1.5602 -1.27357 0
M  V30 12497 C 1200.38 -2.88358 -1.92485 0
M  V30 12498 C 1199.45 -4.03479 -1.46639 0
M  V30 12499 C 1198.68 -4.65629 -2.60816 0
M  V30 12500 O 1198.9 -4.2672 -3.78506 0
M  V30 12501 O 1197.84 -5.54949 -2.33056 0
M  V30 12502 H 1201.66 -3.03124 -0.18694 0
M  V30 12503 H 1199.25 -1.49377 -0.0262829 0
M  V30 12504 H 1201.13 -3.29623 -2.62539 0
M  V30 12505 H 1199.8 -2.11294 -2.45228 0
M  V30 12506 H 1198.71 -3.66821 -0.734396 0
M  V30 12507 H 1200.04 -4.82232 -0.985535 0
M  V30 12508 N 1201.7 0.070167 -1.57444 0
M  V30 12509 C 1202.94 0.764899 -1.8847 0
M  V30 12510 C 1203.3 1.75104 -0.797264 0
M  V30 12511 O 1202.59 1.9057 0.198411 0
M  V30 12512 C 1202.78 1.5111 -3.23883 0
M  V30 12513 C 1202.61 0.598732 -4.45696 0
M  V30 12514 C 1201.38 0.235066 -5.04753 0
M  V30 12515 C 1203.58 -0.105234 -5.14192 0
M  V30 12516 N 1201.56 -0.682856 -6.1009 0
M  V30 12517 C 1202.93 -0.880286 -6.13719 0
M  V30 12518 C 1204.99 -0.176534 -4.97587 0
M  V30 12519 C 1203.69 -1.72002 -6.98432 0
M  V30 12520 C 1205.72 -1.00324 -5.82828 0
M  V30 12521 C 1205.08 -1.76634 -6.81894 0
M  V30 12522 H 1201.18 0.255278 -0.73916 0
M  V30 12523 H 1203.76 0.0263555 -1.94682 0
M  V30 12524 H 1201.93 2.22036 -3.18676 0
M  V30 12525 H 1203.67 2.15498 -3.42553 0
M  V30 12526 H 1200.42 0.588283 -4.69932 0
M  V30 12527 H 1200.84 -1.13511 -6.67416 0
M  V30 12528 H 1205.49 0.399107 -4.20912 0
M  V30 12529 H 1203.2 -2.30662 -7.74481 0
M  V30 12530 H 1206.79 -1.06141 -5.72036 0
M  V30 12531 H 1205.67 -2.39573 -7.46709 0
M  V30 12532 N 1203.17 1.53854 0.341593 0
M  V30 12533 C 1204.14 1.8128 1.40251 0
M  V30 12534 C 1205.14 0.683915 1.45531 0
M  V30 12535 O 1206.33 0.952202 1.45872 0
M  V30 12536 C 1203.46 1.95658 2.79161 0
M  V30 12537 H 1204.65 2.76053 1.17195 0
M  V30 12538 H 1202.2 1.45296 0.57609 0
M  V30 12539 H 1202.94 1.03034 3.07497 0
M  V30 12540 H 1202.72 2.77788 2.76724 0
M  V30 12541 H 1204.21 2.18387 3.55945 0
M  V30 12542 N 1204.65 -0.602709 1.4562 0
M  V30 12543 C 1205.9 -1.35889 1.49595 0
M  V30 12544 C 1206.22 -1.9449 0.141002 0
M  V30 12545 O 1205.49 -1.77438 -0.830209 0
M  V30 12546 H 1204.07 -0.504478 0.550918 0
M  V30 12547 H 1206.73 -0.707376 1.8161 0
M  V30 12548 H 1205.83 -2.17583 2.2375 0
M  V30 12549 N 1206.13 -1.32992 -0.845635 0
M  V30 12550 C 1207.38 -1.2382 -1.59728 0
M  V30 12551 C 1207.7 0.197724 -1.93995 0
M  V30 12552 O 1206.97 1.12477 -1.60392 0
M  V30 12553 H 1205.55 -0.455296 -0.592212 0
M  V30 12554 H 1208.21 -1.66627 -1.01101 0
M  V30 12555 H 1207.31 -1.82717 -2.53023 0
M  V30 12556 N 1207.61 1.06304 -1.1635 0
M  V30 12557 C 1208.86 1.78747 -0.943074 0
M  V30 12558 C 1209.18 1.87646 0.530483 0
M  V30 12559 O 1208.45 1.38506 1.38538 0
M  V30 12560 H 1207.03 0.662072 -0.345932 0
M  V30 12561 H 1209.69 1.28413 -1.46615 0
M  V30 12562 H 1208.78 2.80828 -1.3617 0
M  V30 12563 N 1209.09 0.96196 1.24836 0
M  V30 12564 C 1210.33 0.619489 1.92371 0
M  V30 12565 C 1210.65 -0.847233 1.75633 0
M  V30 12566 O 1209.92 -1.60419 1.12439 0
M  V30 12567 H 1208.5 0.226129 0.711951 0
M  V30 12568 H 1211.17 1.22179 1.5185 0
M  V30 12569 H 1210.26 0.855128 3.00157 0
M  V30 12570 N 1210.56 -1.39601 0.731392 0
M  V30 12571 C 1211.81 -2.0019 0.277208 0
M  V30 12572 C 1212.13 -1.5832 -1.13841 0
M  V30 12573 O 1211.4 -0.829793 -1.77458 0
M  V30 12574 H 1209.98 -0.740344 0.0995006 0
M  V30 12575 H 1212.64 -1.70704 0.940547 0
M  V30 12576 H 1211.74 -3.10427 0.322749 0
M  V30 12577 N 1212.04 -0.478751 -1.50152 0
M  V30 12578 C 1213.29 0.0734397 -2.01967 0
M  V30 12579 C 1213.61 1.39523 -1.36229 0
M  V30 12580 O 1212.88 1.89141 -0.510149 0
M  V30 12581 H 1211.46 0.0301305 -0.746392 0
M  V30 12582 H 1214.12 -0.630921 -1.84406 0
M  V30 12583 H 1213.22 0.21937 -3.11328 0
M  V30 12584 N 1213.52 1.56172 -0.211661 0
M  V30 12585 C 1214.77 1.97648 0.421871 0
M  V30 12586 C 1215.09 1.10026 1.60995 0
M  V30 12587 O 1214.36 0.175109 1.95116 0
M  V30 12588 H 1212.94 0.729914 0.158852 0
M  V30 12589 H 1215.6 1.92542 -0.302254 0
M  V30 12590 H 1214.7 3.02834 0.754868 0
M  V30 12591 N 1215 -0.0618163 1.57479 0
M  V30 12592 C 1216.25 -0.757569 1.87364 0
M  V30 12593 C 1216.57 -1.77607 0.805025 0
M  V30 12594 O 1215.84 -1.95202 -0.165216 0
M  V30 12595 H 1214.42 -0.28278 0.691408 0
M  V30 12596 H 1217.08 -0.0355354 1.94868 0
M  V30 12597 H 1216.18 -1.26758 2.85199 0
M  V30 12598 N 1216.48 -1.54033 -0.333429 0
M  V30 12599 C 1217.44 -1.82021 -1.39288 0
M  V30 12600 C 1218.44 -0.691623 -1.45166 0
M  V30 12601 O 1219.63 -0.959925 -1.45365 0
M  V30 12602 C 1216.76 -1.97136 -2.78119 0
M  V30 12603 H 1217.95 -2.76671 -1.1573 0
M  V30 12604 H 1215.51 -1.45599 -0.568376 0
M  V30 12605 H 1216.24 -1.04663 -3.06946 0
M  V30 12606 H 1216.03 -2.79251 -2.75247 0
M  V30 12607 H 1217.52 -2.20271 -3.54782 0
M  V30 12608 N 1217.95 0.594978 -1.45938 0
M  V30 12609 C 1219.18 1.37994 -1.5416 0
M  V30 12610 C 1219.6 1.87954 -0.17848 0
M  V30 12611 O 1218.95 1.62932 0.822161 0
M  V30 12612 C 1219.01 2.57586 -2.53637 0
M  V30 12613 O 1218.73 2.09698 -3.84653 0
M  V30 12614 C 1220.23 3.50292 -2.71681 0
M  V30 12615 H 1217.45 0.421983 -0.5217 0
M  V30 12616 H 1219.99 0.724459 -1.91238 0
M  V30 12617 H 1218.15 3.19149 -2.19597 0
M  V30 12618 H 1218.56 2.87492 -4.3869 0
M  V30 12619 H 1220.03 4.30717 -3.45234 0
M  V30 12620 H 1220.51 4.01444 -1.78156 0
M  V30 12621 H 1221.12 2.94573 -3.06768 0
M  V30 12622 N 1219.43 1.33438 0.838571 0
M  V30 12623 C 1220.66 1.27766 1.62356 0
M  V30 12624 C 1221.07 -0.15359 1.88576 0
M  V30 12625 O 1220.41 -1.10626 1.46654 0
M  V30 12626 C 1220.48 1.98435 2.99773 0
M  V30 12627 C 1220.14 3.47741 2.96522 0
M  V30 12628 C 1221.14 4.42938 2.72217 0
M  V30 12629 C 1218.82 3.89922 3.16648 0
M  V30 12630 C 1220.82 5.7829 2.68066 0
M  V30 12631 C 1218.5 5.25378 3.12123 0
M  V30 12632 C 1219.5 6.19374 2.87863 0
M  V30 12633 O 1219.19 7.52349 2.83242 0
M  V30 12634 H 1218.92 0.441527 0.511889 0
M  V30 12635 H 1221.47 1.76377 1.05262 0
M  V30 12636 H 1219.7 1.44415 3.58721 0
M  V30 12637 H 1221.39 1.86258 3.60642 0
M  V30 12638 H 1222.16 4.11673 2.56418 0
M  V30 12639 H 1218.04 3.17169 3.34552 0
M  V30 12640 H 1221.58 6.51629 2.4905 0
M  V30 12641 H 1217.48 5.56267 3.27471 0
M  V30 12642 H 1218.25 7.61901 2.99082 0
M  V30 12643 N 1220.91 -1.05686 1.16912 0
M  V30 12644 C 1222.16 -1.78862 0.955839 0
M  V30 12645 C 1222.49 -1.87257 -0.514645 0
M  V30 12646 O 1221.76 -1.36869 -1.38193 0
M  V30 12647 C 1222.05 -3.23021 1.59152 0
M  V30 12648 C 1221.9 -3.22669 3.13376 0
M  V30 12649 C 1223.22 -4.2073 1.29128 0
M  V30 12650 H 1220.34 -0.64931 0.348663 0
M  V30 12651 H 1222.98 -1.23561 1.44335 0
M  V30 12652 H 1221.13 -3.70243 1.17697 0
M  V30 12653 H 1222.8 -2.83562 3.63855 0
M  V30 12654 H 1221.05 -2.61149 3.46386 0
M  V30 12655 H 1221.72 -4.24394 3.52979 0
M  V30 12656 H 1224.19 -3.8198 1.65017 0
M  V30 12657 H 1223.07 -5.19851 1.76198 0
M  V30 12658 H 1223.33 -4.41595 0.21119 0
M  V30 12659 N 1222.39 -0.968567 -1.24324 0
M  V30 12660 C 1223.64 -0.630928 -1.9242 0
M  V30 12661 C 1223.96 0.834001 -1.75712 0
M  V30 12662 O 1223.22 1.61558 -1.10442 0
M  V30 12663 C 1223.52 -0.952762 -3.44467 0
M  V30 12664 C 1223.18 -2.40597 -3.81345 0
M  V30 12665 C 1221.85 -2.80316 -3.91122 0
M  V30 12666 C 1224.2 -3.34906 -3.99359 0
M  V30 12667 C 1221.53 -4.13383 -4.16331 0
M  V30 12668 C 1223.88 -4.67602 -4.26065 0
M  V30 12669 C 1222.54 -5.07097 -4.34061 0
M  V30 12670 H 1221.81 -0.230873 -0.704116 0
M  V30 12671 H 1224.46 -1.22022 -1.47591 0
M  V30 12672 H 1222.76 -0.281244 -3.90789 0
M  V30 12673 H 1224.46 -0.6699 -3.95365 0
M  V30 12674 H 1221.05 -2.088 -3.743 0
M  V30 12675 H 1225.23 -3.05404 -3.91206 0
M  V30 12676 H 1220.49 -4.43606 -4.20742 0
M  V30 12677 H 1224.66 -5.40646 -4.38948 0
M  V30 12678 H 1222.29 -6.10229 -4.53349 0
M  V30 12679 N 1223.87 1.39211 -0.738786 0
M  V30 12680 C 1224.81 2.30578 -0.10129 0
M  V30 12681 C 1225.78 1.49412 0.725616 0
M  V30 12682 O 1226.97 1.78087 0.684799 0
M  V30 12683 C 1224.11 3.35767 0.797161 0
M  V30 12684 C 1223.22 4.31979 -0.0427701 0
M  V30 12685 C 1222.36 5.24236 0.857306 0
M  V30 12686 C 1221.4 6.12099 0.0128501 0
M  V30 12687 N 1220.53 6.96701 0.869067 0
M  V30 12688 H 1225.37 2.84522 -0.88606 0
M  V30 12689 H 1222.91 1.40093 -0.448602 0
M  V30 12690 H 1224.87 3.95347 1.33255 0
M  V30 12691 H 1223.5 2.83268 1.54787 0
M  V30 12692 H 1222.55 3.73986 -0.695622 0
M  V30 12693 H 1223.86 4.93927 -0.69555 0
M  V30 12694 H 1223.02 5.88861 1.4604 0
M  V30 12695 H 1221.75 4.62619 1.54386 0
M  V30 12696 H 1220.76 5.46483 -0.603018 0
M  V30 12697 H 1221.98 6.75781 -0.67054 0
M  V30 12698 H 1219.93 6.37647 1.54084 0
M  V30 12699 H 1219.85 7.55507 0.272852 0
M  V30 12700 H 1221.12 7.65751 1.4576 0
M  V30 12701 N 1225.34 0.486708 1.49896 0
M  V30 12702 C 1226.28 -0.345627 2.25567 0
M  V30 12703 C 1227.26 -0.982794 1.29537 0
M  V30 12704 O 1228.44 -1.01569 1.58796 0
M  V30 12705 C 1225.57 -1.48555 3.04383 0
M  V30 12706 C 1224.61 -0.964196 4.15458 0
M  V30 12707 S 1225.45 0.133631 5.35333 0
M  V30 12708 C 1226.6 -1.00979 6.17701 0
M  V30 12709 H 1226.83 0.296677 2.95816 0
M  V30 12710 H 1224.37 0.271798 1.51989 0
M  V30 12711 H 1226.33 -2.13878 3.50381 0
M  V30 12712 H 1224.99 -2.09942 2.33631 0
M  V30 12713 H 1224.18 -1.81804 4.70067 0
M  V30 12714 H 1223.78 -0.388419 3.71978 0
M  V30 12715 H 1226.07 -1.91812 6.4978 0
M  V30 12716 H 1227.02 -0.502633 7.06314 0
M  V30 12717 H 1227.42 -1.27067 5.50013 0
M  V30 12718 N 1226.82 -1.56058 0.219941 0
M  V30 12719 C 1227.77 -2.20218 -0.690846 0
M  V30 12720 C 1228.74 -1.15725 -1.19151 0
M  V30 12721 O 1229.93 -1.44073 -1.2509 0
M  V30 12722 C 1227.07 -2.88477 -1.89408 0
M  V30 12723 C 1226.18 -4.07559 -1.43246 0
M  V30 12724 C 1225.31 -4.63605 -2.59314 0
M  V30 12725 C 1224.35 -5.74993 -2.0988 0
M  V30 12726 N 1223.49 -6.25337 -3.19214 0
M  V30 12727 H 1228.33 -2.97685 -0.136992 0
M  V30 12728 H 1225.87 -1.46994 -0.055865 0
M  V30 12729 H 1227.82 -3.26235 -2.60051 0
M  V30 12730 H 1226.45 -2.1353 -2.42084 0
M  V30 12731 H 1225.51 -3.75297 -0.621013 0
M  V30 12732 H 1226.82 -4.8805 -1.02997 0
M  V30 12733 H 1225.97 -5.03798 -3.38041 0
M  V30 12734 H 1224.71 -3.82274 -3.0285 0
M  V30 12735 H 1223.72 -5.34304 -1.29613 0
M  V30 12736 H 1224.94 -6.58158 -1.67345 0
M  V30 12737 H 1222.89 -5.4692 -3.62236 0
M  V30 12738 H 1222.8 -7.00947 -2.83213 0
M  V30 12739 H 1224.07 -6.70187 -3.98083 0
M  V30 12740 N 1228.3 0.053464 -1.57509 0
M  V30 12741 C 1229.58 0.783141 -1.79238 0
M  V30 12742 C 1229.96 1.94855 -0.812069 0
M  V30 12743 O 1229.31 2.28 0.151006 0
M  V30 12744 C 1229.52 1.239 -3.26266 0
M  V30 12745 C 1230.86 1.66492 -3.90596 0
M  V30 12746 O 1231.89 1.33421 -3.30269 0
M  V30 12747 O 1230.75 2.27785 -4.96766 0
M  V30 12748 H 1227.84 0.376696 -0.736226 0
M  V30 12749 H 1230.39 0.0321229 -1.6967 0
M  V30 12750 H 1229.16 0.405948 -3.89189 0
M  V30 12751 H 1228.78 2.05078 -3.4063 0
M  V30 12752 N 1229.78 1.54207 0.325255 0
M  V30 12753 C 1231.03 1.71991 1.0613 0
M  V30 12754 C 1231.35 0.495505 1.88599 0
M  V30 12755 O 1230.62 -0.490504 1.8966 0
M  V30 12756 H 1229.2 0.634137 0.394816 0
M  V30 12757 H 1231.86 1.91507 0.362101 0
M  V30 12758 H 1230.96 2.59878 1.72829 0
M  V30 12759 N 1231.26 -0.58723 1.46251 0
M  V30 12760 C 1232.5 -1.3476 1.51551 0
M  V30 12761 C 1232.84 -1.93499 0.16483 0
M  V30 12762 O 1232.11 -1.7622 -0.823207 0
M  V30 12763 C 1232.39 -2.48033 2.61059 0
M  V30 12764 C 1232.25 -1.94358 4.05642 0
M  V30 12765 C 1233.57 -3.50096 2.66685 0
M  V30 12766 H 1230.69 -0.48863 0.551733 0
M  V30 12767 H 1233.33 -0.660097 1.78165 0
M  V30 12768 H 1231.48 -3.06679 2.38496 0
M  V30 12769 H 1233.15 -1.40204 4.39478 0
M  V30 12770 H 1231.39 -1.25217 4.15335 0
M  V30 12771 H 1232.06 -2.76105 4.77986 0
M  V30 12772 H 1234.54 -3.01324 2.86955 0
M  V30 12773 H 1233.42 -4.26817 3.45135 0
M  V30 12774 H 1233.68 -4.07032 1.7256 0
M  V30 12775 N 1232.74 -1.33881 -0.831482 0
M  V30 12776 C 1234.15 -1.23112 -1.40358 0
M  V30 12777 C 1234.5 0.146944 -1.95649 0
M  V30 12778 O 1233.62 1.04689 -1.89391 0
M  V30 12779 C 1234.22 -2.22899 -2.5515 0
M  V30 12780 C 1232.78 -2.15946 -3.08292 0
M  V30 12781 C 1231.92 -2.09975 -1.81124 0
M  V30 12782 H 1234.87 -1.45372 -0.63661 0
M  V30 12783 H 1234.9 -1.841 -3.32997 0
M  V30 12784 H 1234.41 -3.23186 -2.14878 0
M  V30 12785 H 1232.51 -1.18987 -3.53091 0
M  V30 12786 H 1232.62 -3.06822 -3.67964 0
M  V30 12787 H 1230.99 -1.55564 -2.01673 0
M  V30 12788 H 1231.77 -3.12082 -1.43037 0
M  V30 12789 N 1234.21 1.05064 -1.1747 0
M  V30 12790 C 1235.46 1.78352 -0.965311 0
M  V30 12791 C 1235.79 1.87527 0.504707 0
M  V30 12792 O 1235.07 1.376 1.37465 0
M  V30 12793 C 1235.35 3.22173 -1.60862 0
M  V30 12794 C 1235.2 3.21003 -3.15083 0
M  V30 12795 C 1236.52 4.2004 -1.31358 0
M  V30 12796 H 1233.64 0.647452 -0.352101 0
M  V30 12797 H 1236.28 1.22794 -1.44988 0
M  V30 12798 H 1234.43 3.69613 -1.19658 0
M  V30 12799 H 1236.11 2.81629 -3.65353 0
M  V30 12800 H 1234.35 2.59309 -3.47766 0
M  V30 12801 H 1235.02 4.22516 -3.55224 0
M  V30 12802 H 1237.5 3.81099 -1.6704 0
M  V30 12803 H 1236.37 5.1891 -1.78953 0
M  V30 12804 H 1236.63 4.41477 -0.234606 0
M  V30 12805 N 1235.69 0.975146 1.23809 0
M  V30 12806 C 1237.1 0.678873 1.7392 0
M  V30 12807 C 1237.45 -0.805133 1.78919 0
M  V30 12808 O 1236.58 -1.62984 1.42356 0
M  V30 12809 C 1237.17 1.22562 3.15854 0
M  V30 12810 C 1235.73 0.979096 3.63443 0
M  V30 12811 C 1234.88 1.35649 2.41857 0
M  V30 12812 H 1237.83 1.14961 1.09406 0
M  V30 12813 H 1237.85 0.595489 3.75811 0
M  V30 12814 H 1237.36 2.30571 3.12184 0
M  V30 12815 H 1235.46 -0.0851407 3.72503 0
M  V30 12816 H 1235.58 1.62998 4.5052 0
M  V30 12817 H 1233.94 0.774916 2.42626 0
M  V30 12818 H 1234.72 2.44624 2.40861 0
M  V30 12819 N 1237.17 -1.38817 0.746158 0
M  V30 12820 C 1238.1 -2.33144 0.128836 0
M  V30 12821 C 1239.08 -1.54487 -0.711873 0
M  V30 12822 O 1240.27 -1.82836 -0.654577 0
M  V30 12823 C 1237.4 -3.38639 -0.770772 0
M  V30 12824 C 1236.35 -4.27987 -0.0333669 0
M  V30 12825 C 1235.68 -5.24274 -1.05073 0
M  V30 12826 C 1236.98 -5.09915 1.13066 0
M  V30 12827 H 1238.67 -2.85019 0.916778 0
M  V30 12828 H 1236.22 -1.37039 0.442306 0
M  V30 12829 H 1238.17 -4.03587 -1.21225 0
M  V30 12830 H 1236.89 -2.8523 -1.59095 0
M  V30 12831 H 1235.55 -3.64534 0.388612 0
M  V30 12832 H 1235.2 -4.67156 -1.86478 0
M  V30 12833 H 1234.9 -5.84906 -0.562037 0
M  V30 12834 H 1236.42 -5.92099 -1.49169 0
M  V30 12835 H 1237.84 -5.68145 0.767084 0
M  V30 12836 H 1236.23 -5.79744 1.54972 0
M  V30 12837 H 1237.3 -4.4409 1.94709 0
M  V30 12838 N 1238.65 -0.49465 -1.49636 0
M  V30 12839 C 1239.9 0.0539277 -2.01628 0
M  V30 12840 C 1240.21 1.38634 -1.37986 0
M  V30 12841 O 1241.42 2.02123 -1.81269 0
M  V30 12842 C 1239.87 0.146582 -3.59601 0
M  V30 12843 C 1239.48 -1.1788 -4.32213 0
M  V30 12844 C 1241.22 0.645862 -4.19558 0
M  V30 12845 C 1239.13 -1.04866 -5.82028 0
M  V30 12846 H 1238.06 0.0239278 -0.75362 0
M  V30 12847 H 1240.71 -0.633112 -1.72232 0
M  V30 12848 H 1239.09 0.897931 -3.85685 0
M  V30 12849 H 1240.27 -1.94295 -4.17835 0
M  V30 12850 H 1238.58 -1.61102 -3.83973 0
M  V30 12851 H 1241.18 0.76064 -5.29262 0
M  V30 12852 H 1241.52 1.64313 -3.82501 0
M  V30 12853 H 1242.06 -0.04877 -3.9777 0
M  V30 12854 H 1238.79 -2.02 -6.23599 0
M  V30 12855 H 1238.31 -0.325293 -5.98917 0
M  V30 12856 H 1239.99 -0.724799 -6.42927 0
M  V30 12857 N 1240.13 1.55939 -0.228214 0
M  V30 12858 C 1241.37 1.97652 0.402067 0
M  V30 12859 C 1241.69 1.11911 1.60422 0
M  V30 12860 O 1242.89 1.43552 2.30445 0
M  V30 12861 C 1241.35 3.51638 0.766724 0
M  V30 12862 C 1240.96 4.46092 -0.412991 0
M  V30 12863 C 1242.7 4.02049 1.36224 0
M  V30 12864 C 1240.61 5.91394 -0.0255281 0
M  V30 12865 H 1239.54 0.738107 0.153994 0
M  V30 12866 H 1242.19 1.8059 -0.32548 0
M  V30 12867 H 1240.57 3.64325 1.55188 0
M  V30 12868 H 1241.75 4.45156 -1.19049 0
M  V30 12869 H 1240.06 4.0606 -0.92218 0
M  V30 12870 H 1242.66 5.08111 1.66514 0
M  V30 12871 H 1243 3.48292 2.28032 0
M  V30 12872 H 1243.53 3.92612 0.640378 0
M  V30 12873 H 1240.27 6.49149 -0.910269 0
M  V30 12874 H 1239.79 5.95509 0.716149 0
M  V30 12875 H 1241.47 6.4577 0.398839 0
M  V30 12876 N 1241.6 -0.0451101 1.57535 0
M  V30 12877 C 1242.57 -1.03521 2.0449 0
M  V30 12878 C 1243.57 -1.30009 0.946265 0
M  V30 12879 O 1244.76 -1.25282 1.21038 0
M  V30 12880 C 1241.89 -2.37221 2.44824 0
M  V30 12881 H 1243.08 -0.629943 2.93209 0
M  V30 12882 H 1240.64 -0.291544 1.53557 0
M  V30 12883 H 1241.37 -2.82528 1.59212 0
M  V30 12884 H 1241.16 -2.19329 3.25018 0
M  V30 12885 H 1242.65 -3.08337 2.81635 0
M  V30 12886 N 1243.08 -1.54377 -0.317073 0
M  V30 12887 C 1244.05 -1.83488 -1.37349 0
M  V30 12888 C 1245.05 -0.706981 -1.44424 0
M  V30 12889 O 1246.24 -0.975289 -1.44339 0
M  V30 12890 C 1243.37 -2.00074 -2.76013 0
M  V30 12891 H 1244.56 -2.77883 -1.12789 0
M  V30 12892 H 1242.11 -1.46194 -0.552902 0
M  V30 12893 H 1242.85 -1.07913 -3.05819 0
M  V30 12894 H 1242.63 -2.82155 -2.7227 0
M  V30 12895 H 1244.12 -2.24022 -3.52426 0
M  V30 12896 N 1244.56 0.579466 -1.4656 0
M  V30 12897 C 1245.81 1.33492 -1.51738 0
M  V30 12898 C 1246.13 1.94241 -0.171926 0
M  V30 12899 O 1245.4 1.78737 0.801875 0
M  V30 12900 H 1243.98 0.49565 -0.558874 0
M  V30 12901 H 1246.64 0.678394 -1.82712 0
M  V30 12902 H 1245.74 2.13995 -2.27183 0
M  V30 12903 N 1246.04 1.3432 0.824371 0
M  V30 12904 C 1247.29 1.26345 1.57738 0
M  V30 12905 C 1247.61 -0.166836 1.94285 0
M  V30 12906 O 1246.88 -1.09911 1.62162 0
M  V30 12907 H 1245.46 0.46466 0.584893 0
M  V30 12908 H 1248.12 1.68214 0.984373 0
M  V30 12909 H 1247.22 1.8672 2.50084 0
M  V30 12910 N 1247.52 -1.0444 1.18026 0
M  V30 12911 C 1248.76 -1.77224 0.971391 0
M  V30 12912 C 1249.09 -1.88466 -0.500564 0
M  V30 12913 O 1248.36 -1.40692 -1.36317 0
M  V30 12914 H 1246.94 -0.656485 0.356422 0
M  V30 12915 H 1249.6 -1.26064 1.4864 0
M  V30 12916 H 1248.69 -2.78626 1.4062 0
M  V30 12917 N 1248.99 -0.981699 -1.2329 0
M  V30 12918 C 1250.24 -0.650015 -1.91361 0
M  V30 12919 C 1250.56 0.819184 -1.76959 0
M  V30 12920 O 1249.83 1.5861 -1.14977 0
M  V30 12921 H 1248.41 -0.237427 -0.708264 0
M  V30 12922 H 1251.08 -1.24579 -1.49887 0
M  V30 12923 H 1250.17 -0.902772 -2.98758 0
M  V30 12924 N 1250.47 1.3842 -0.753509 0
M  V30 12925 C 1251.89 1.53668 -0.431095 0
M  V30 12926 C 1252.09 1.71626 1.05578 0
M  V30 12927 O 1251.14 1.72723 1.84182 0
M  V30 12928 C 1252.46 2.74381 -1.23027 0
M  V30 12929 C 1254.01 2.8823 -1.22034 0
M  V30 12930 C 1254.48 4.11904 -2.00248 0
M  V30 12931 N 1255.97 4.18981 -1.97508 0
M  V30 12932 C 1256.71 5.13667 -2.5482 0
M  V30 12933 N 1256.2 6.14027 -3.20846 0
M  V30 12934 N 1258 5.06017 -2.44751 0
M  V30 12935 H 1250.15 1.25012 -1.71714 0
M  V30 12936 H 1252.41 0.607296 -0.727939 0
M  V30 12937 H 1252.12 2.67515 -2.28317 0
M  V30 12938 H 1251.99 3.67565 -0.847098 0
M  V30 12939 H 1254.38 2.94578 -0.175502 0
M  V30 12940 H 1254.46 1.96057 -1.64303 0
M  V30 12941 H 1254.1 4.06318 -3.04742 0
M  V30 12942 H 1254.03 5.03157 -1.55373 0
M  V30 12943 H 1256.52 3.47104 -1.49423 0
M  V30 12944 H 1256.84 6.82771 -3.61999 0
M  V30 12945 H 1255.18 6.1436 -3.24941 0
M  V30 12946 H 1258.37 4.26552 -1.92797 0
M  V30 12947 H 1258.54 5.7963 -2.89713 0
M  V30 12948 N 1251.95 0.502579 1.49372 0
M  V30 12949 C 1252.91 -0.263993 2.27675 0
M  V30 12950 C 1253.91 -0.892538 1.33755 0
M  V30 12951 O 1255.1 -0.756826 1.56901 0
M  V30 12952 C 1252.24 -1.37895 3.11765 0
M  V30 12953 H 1253.43 0.423132 2.969 0
M  V30 12954 H 1250.98 0.257595 1.54163 0
M  V30 12955 H 1251.72 -2.10018 2.47109 0
M  V30 12956 H 1251.5 -0.933694 3.80821 0
M  V30 12957 H 1252.99 -1.91889 3.70902 0
M  V30 12958 N 1253.43 -1.55816 0.23648 0
M  V30 12959 C 1254.66 -2.02789 -0.39501 0
M  V30 12960 C 1255.07 -1.1153 -1.52832 0
M  V30 12961 O 1254.41 -0.120084 -1.83307 0
M  V30 12962 C 1254.47 -3.46052 -0.974066 0
M  V30 12963 C 1254.14 -4.56993 0.0256825 0
M  V30 12964 C 1255.13 -5.13208 0.831477 0
M  V30 12965 C 1252.82 -5.0208 0.148759 0
M  V30 12966 C 1254.81 -6.12994 1.74691 0
M  V30 12967 C 1252.5 -6.017 1.0677 0
M  V30 12968 C 1253.5 -6.57035 1.86531 0
M  V30 12969 O 1253.18 -7.54714 2.76878 0
M  V30 12970 H 1252.92 -0.668672 -0.0992687 0
M  V30 12971 H 1255.47 -2.02312 0.354826 0
M  V30 12972 H 1253.7 -3.43645 -1.77327 0
M  V30 12973 H 1255.39 -3.76586 -1.51453 0
M  V30 12974 H 1256.16 -4.79214 0.746922 0
M  V30 12975 H 1252.03 -4.58679 -0.461976 0
M  V30 12976 H 1255.58 -6.56111 2.36989 0
M  V30 12977 H 1251.48 -6.35115 1.15322 0
M  V30 12978 H 1252.24 -7.72292 2.71122 0
M  V30 12979 N 1254.91 0.036755 -1.57557 0
M  V30 12980 C 1256.15 0.727665 -1.88546 0
M  V30 12981 C 1256.48 1.76304 -0.833179 0
M  V30 12982 O 1255.75 1.9544 0.13414 0
M  V30 12983 H 1254.33 0.271744 -0.695819 0
M  V30 12984 H 1256.99 0.00452915 -1.94899 0
M  V30 12985 H 1256.08 1.22205 -2.8718 0
M  V30 12986 N 1256.39 1.54543 0.308881 0
M  V30 12987 C 1257.35 1.84214 1.36374 0
M  V30 12988 C 1258.35 0.71463 1.44047 0
M  V30 12989 O 1259.54 0.98293 1.4382 0
M  V30 12990 C 1256.67 2.01535 2.74948 0
M  V30 12991 H 1257.86 2.78477 1.11314 0
M  V30 12992 H 1255.42 1.46485 0.545141 0
M  V30 12993 H 1256.15 1.09533 3.05242 0
M  V30 12994 H 1255.94 2.83595 2.7077 0
M  V30 12995 H 1257.43 2.25888 3.51233 0
M  V30 12996 N 1257.86 -0.571685 1.46866 0
M  V30 12997 C 1258.81 -1.67992 1.58263 0
M  V30 12998 C 1259.78 -1.60535 0.426345 0
M  V30 12999 O 1260.97 -1.79584 0.644534 0
M  V30 13000 C 1258.11 -3.06327 1.58927 0
M  V30 13001 C 1257.22 -3.24328 2.85369 0
M  V30 13002 C 1256.35 -4.52976 2.77464 0
M  V30 13003 C 1255.39 -4.64359 3.98795 0
M  V30 13004 N 1254.53 -5.84345 3.89211 0
M  V30 13005 H 1259.37 -1.57589 2.52922 0
M  V30 13006 H 1256.91 -0.767883 1.25467 0
M  V30 13007 H 1258.86 -3.86411 1.57296 0
M  V30 13008 H 1257.49 -3.15601 0.677912 0
M  V30 13009 H 1256.55 -2.37774 2.96931 0
M  V30 13010 H 1257.86 -3.28605 3.7526 0
M  V30 13011 H 1257.01 -5.41303 2.74001 0
M  V30 13012 H 1255.75 -4.51155 1.85231 0
M  V30 13013 H 1254.76 -3.74448 4.02578 0
M  V30 13014 H 1255.98 -4.6795 4.92137 0
M  V30 13015 H 1253.93 -5.835 2.99772 0
M  V30 13016 H 1253.84 -5.89938 4.72768 0
M  V30 13017 H 1255.11 -6.75072 3.89741 0
M  V30 13018 N 1259.34 -1.34755 -0.817236 0
M  V30 13019 C 1260.57 -1.30522 -1.60536 0
M  V30 13020 C 1260.98 0.119541 -1.88421 0
M  V30 13021 O 1260.34 1.06833 -1.47962 0
M  V30 13022 C 1260.39 -2.09939 -2.94292 0
M  V30 13023 O 1260.11 -3.46858 -2.67621 0
M  V30 13024 C 1261.61 -2.13168 -3.88683 0
M  V30 13025 H 1258.83 -0.448789 -0.498828 0
M  V30 13026 H 1261.38 -1.77453 -1.01639 0
M  V30 13027 H 1259.53 -1.66634 -3.49731 0
M  V30 13028 H 1259.95 -3.87979 -3.52949 0
M  V30 13029 H 1261.42 -2.73147 -4.79682 0
M  V30 13030 H 1261.9 -1.12758 -4.24479 0
M  V30 13031 H 1262.5 -2.56587 -3.39181 0
M  V30 13032 N 1260.82 1.03812 -1.18578 0
M  V30 13033 C 1262.1 1.74062 -0.892288 0
M  V30 13034 C 1262.48 2.02267 0.604256 0
M  V30 13035 O 1261.82 1.66988 1.55972 0
M  V30 13036 C 1262.03 3.024 -1.74228 0
M  V30 13037 C 1263.38 3.76088 -1.97087 0
M  V30 13038 O 1264.41 3.12305 -1.71302 0
M  V30 13039 O 1263.27 4.90732 -2.40509 0
M  V30 13040 H 1260.36 0.757567 -0.331695 0
M  V30 13041 H 1262.91 1.09855 -1.29345 0
M  V30 13042 H 1261.68 2.77713 -2.75665 0
M  V30 13043 H 1261.3 3.74346 -1.3398 0
M  V30 13044 N 1262.3 0.988223 1.22768 0
M  V30 13045 C 1263.53 0.679743 1.95415 0
M  V30 13046 C 1263.94 -0.754731 1.73059 0
M  V30 13047 O 1263.3 -1.50876 1.02678 0
M  V30 13048 C 1263.35 0.970344 3.48234 0
M  V30 13049 O 1263.07 2.34845 3.69837 0
M  V30 13050 C 1264.57 0.67891 4.3807 0
M  V30 13051 H 1261.79 0.251847 0.621944 0
M  V30 13052 H 1264.33 1.32173 1.56047 0
M  V30 13053 H 1262.49 0.374241 3.85588 0
M  V30 13054 H 1262.9 2.44412 4.64072 0
M  V30 13055 H 1264.38 0.932549 5.44066 0
M  V30 13056 H 1264.85 -0.387073 4.37491 0
M  V30 13057 H 1265.46 1.25585 4.06335 0
M  V30 13058 N 1263.78 -1.38018 0.760839 0
M  V30 13059 C 1265.02 -1.99952 0.320241 0
M  V30 13060 C 1265.35 -1.60397 -1.10014 0
M  V30 13061 O 1264.61 -0.836407 -1.76926 0
M  V30 13062 C 1264.9 -3.55168 0.398778 0
M  V30 13063 C 1264.57 -4.14457 1.77585 0
M  V30 13064 C 1263.23 -4.30363 2.15269 0
M  V30 13065 C 1265.58 -4.47089 2.67883 0
M  V30 13066 C 1262.91 -4.762 3.4271 0
M  V30 13067 C 1265.26 -4.94345 3.94722 0
M  V30 13068 C 1263.93 -5.08458 4.32466 0
M  V30 13069 H 1263.2 -0.731675 0.117185 0
M  V30 13070 H 1265.85 -1.64955 0.972736 0
M  V30 13071 H 1264.15 -3.90346 -0.337273 0
M  V30 13072 H 1265.85 -4.00981 0.0393393 0
M  V30 13073 H 1262.44 -4.02496 1.47292 0
M  V30 13074 H 1266.62 -4.34395 2.40031 0
M  V30 13075 H 1261.88 -4.85312 3.71863 0
M  V30 13076 H 1266.05 -5.18563 4.64828 0
M  V30 13077 H 1263.68 -5.43735 5.31278 0
M  V30 13078 N 1265.25 -0.510493 -1.49103 0
M  V30 13079 C 1266.2 0.282297 -2.26246 0
M  V30 13080 C 1267.19 0.927187 -1.31499 0
M  V30 13081 O 1268.38 0.833216 -1.56162 0
M  V30 13082 C 1265.51 1.34046 -3.16049 0
M  V30 13083 C 1264.59 0.701334 -4.18261 0
M  V30 13084 N 1264.99 -0.201593 -5.05398 0
M  V30 13085 C 1263.28 0.960822 -4.35527 0
M  V30 13086 C 1263.98 -0.568383 -5.78916 0
M  V30 13087 N 1262.96 0.0659546 -5.4356 0
M  V30 13088 H 1266.76 -0.41264 -2.90989 0
M  V30 13089 H 1264.28 -0.327201 -1.5907 0
M  V30 13090 H 1266.27 1.92195 -3.69955 0
M  V30 13091 H 1264.93 2.03697 -2.52859 0
M  V30 13092 H 1265.94 -0.573004 -5.1472 0
M  V30 13093 H 1262.62 1.64938 -3.83539 0
M  V30 13094 H 1264.01 -1.30763 -6.59053 0
M  V30 13095 N 1266.73 1.55688 -0.24474 0
M  V30 13096 C 1268.14 1.84897 0.25882 0
M  V30 13097 C 1268.49 1.16653 1.57755 0
M  V30 13098 O 1267.62 0.444162 2.11793 0
M  V30 13099 C 1268.21 3.35434 0.476385 0
M  V30 13100 C 1266.77 3.64877 0.924213 0
M  V30 13101 C 1265.92 2.773 0.00021322 0
M  V30 13102 H 1268.87 1.51662 -0.467358 0
M  V30 13103 H 1268.89 3.56896 1.31929 0
M  V30 13104 H 1268.4 3.85076 -0.483567 0
M  V30 13105 H 1266.5 3.20711 1.89671 0
M  V30 13106 H 1266.62 4.72665 0.78257 0
M  V30 13107 H 1264.98 2.49517 0.511194 0
M  V30 13108 H 1265.76 3.29747 -0.955072 0
M  V30 13109 N 1268.21 -0.0283989 1.57574 0
M  V30 13110 C 1269.12 -1.04575 2.10003 0
M  V30 13111 C 1270.14 -1.39588 1.03881 0
M  V30 13112 O 1271.31 -1.48894 1.35619 0
M  V30 13113 C 1268.38 -2.32755 2.56955 0
M  V30 13114 C 1267.44 -2.04317 3.77562 0
M  V30 13115 C 1266.67 -3.26385 4.22266 0
M  V30 13116 O 1266.89 -4.37082 3.66491 0
M  V30 13117 O 1265.83 -3.12046 5.14695 0
M  V30 13118 H 1269.65 -0.630183 2.9709 0
M  V30 13119 H 1267.24 -0.245423 1.4737 0
M  V30 13120 H 1269.12 -3.08111 2.87482 0
M  V30 13121 H 1267.8 -2.73605 1.72979 0
M  V30 13122 H 1266.7 -1.26527 3.52054 0
M  V30 13123 H 1268.04 -1.68321 4.62524 0
M  V30 13124 N 1269.69 -1.54705 -0.300681 0
M  V30 13125 C 1271.1 -1.45926 -0.646359 0
M  V30 13126 C 1271.3 -0.65072 -1.90704 0
M  V30 13127 O 1270.36 -0.158547 -2.52002 0
M  V30 13128 C 1271.67 -2.89889 -0.799059 0
M  V30 13129 C 1273.22 -2.99934 -0.894923 0
M  V30 13130 C 1273.7 -4.45093 -1.07962 0
M  V30 13131 N 1275.19 -4.48804 -1.14581 0
M  V30 13132 C 1275.92 -5.58305 -1.30702 0
M  V30 13133 N 1275.42 -6.77729 -1.43719 0
M  V30 13134 N 1277.21 -5.45994 -1.33593 0
M  V30 13135 H 1269.36 -2.05742 0.527617 0
M  V30 13136 H 1271.62 -0.931817 0.174415 0
M  V30 13137 H 1271.33 -3.51655 0.0563954 0
M  V30 13138 H 1271.2 -3.37325 -1.68796 0
M  V30 13139 H 1273.59 -2.38281 -1.74086 0
M  V30 13140 H 1273.67 -2.55794 0.0179973 0
M  V30 13141 H 1273.32 -5.0734 -0.238444 0
M  V30 13142 H 1273.25 -4.86864 -2.00677 0
M  V30 13143 H 1275.74 -3.62766 -1.05874 0
M  V30 13144 H 1276.05 -7.56937 -1.55776 0
M  V30 13145 H 1274.4 -6.80594 -1.40774 0
M  V30 13146 H 1277.59 -4.51641 -1.23035 0
M  V30 13147 H 1277.76 -6.31381 -1.45813 0
M  V30 13148 N 1271.17 0.563888 -1.47167 0
M  V30 13149 C 1272.1 1.68137 -1.62025 0
M  V30 13150 C 1273.08 1.63481 -0.469899 0
M  V30 13151 O 1274.26 1.81206 -0.698432 0
M  V30 13152 C 1271.39 3.06779 -1.62801 0
M  V30 13153 C 1270.35 3.26278 -2.76996 0
M  V30 13154 C 1269.67 4.65638 -2.62841 0
M  V30 13155 C 1270.97 3.12295 -4.18651 0
M  V30 13156 H 1272.67 1.55958 -2.55573 0
M  V30 13157 H 1270.21 0.74887 -1.22996 0
M  V30 13158 H 1272.17 3.84795 -1.71787 0
M  V30 13159 H 1270.89 3.19901 -0.658097 0
M  V30 13160 H 1269.55 2.50668 -2.67509 0
M  V30 13161 H 1269.2 4.75551 -1.63892 0
M  V30 13162 H 1268.9 4.79635 -3.39447 0
M  V30 13163 H 1270.42 5.45798 -2.73746 0
M  V30 13164 H 1271.83 3.80136 -4.2915 0
M  V30 13165 H 1270.23 3.37805 -4.95992 0
M  V30 13166 H 1271.3 2.09126 -4.37486 0
M  V30 13167 N 1272.64 1.35187 0.810078 0
M  V30 13168 C 1273.55 1.29926 1.95337 0
M  V30 13169 C 1274.57 0.204748 1.72791 0
M  V30 13170 O 1275.75 0.433507 1.96679 0
M  V30 13171 C 1272.81 1.06736 3.29861 0
M  V30 13172 C 1271.87 2.25466 3.65326 0
M  V30 13173 C 1271.11 2.03373 4.93432 0
M  V30 13174 O 1271.33 0.998419 5.61594 0
M  V30 13175 O 1270.26 2.90648 5.27075 0
M  V30 13176 H 1274.09 2.26137 2.02721 0
M  V30 13177 H 1271.67 1.15523 0.947354 0
M  V30 13178 H 1273.56 0.956367 4.10404 0
M  V30 13179 H 1272.23 0.135735 3.23415 0
M  V30 13180 H 1271.14 2.42129 2.85175 0
M  V30 13181 H 1272.47 3.17063 3.76473 0
M  V30 13182 N 1274.12 -1.03182 1.19127 0
M  V30 13183 C 1275.07 -2.13507 0.922899 0
M  V30 13184 C 1276.06 -1.68973 -0.120171 0
M  V30 13185 O 1277.27 -1.79977 0.0288007 0
M  V30 13186 H 1273.65 -0.697516 0.281027 0
M  V30 13187 H 1275.62 -2.33335 1.86003 0
M  V30 13188 C 1274.37 -3.44442 0.474864 0
M  V30 13189 H 1273.69 -3.79125 1.26902 0
M  V30 13190 H 1275.13 -4.22744 0.326162 0
M  V30 13191 C 1273.59 -3.27002 -0.81063 0
M  V30 13192 O 1274.12 -3.55374 -1.87276 0
M  V30 13193 N 1272.32 -2.80303 -0.766713 0
M  V30 13194 H 1271.87 -2.57414 0.0978672 0
M  V30 13195 H 1271.83 -2.69015 -1.62721 0
M  V30 13196 N 1275.6 -0.99472 -1.22242 0
M  V30 13197 C 1276.55 -0.53946 -2.26258 0
M  V30 13198 C 1277.54 0.410796 -1.64344 0
M  V30 13199 O 1278.75 0.283116 -1.7776 0
M  V30 13200 H 1275.12 -0.156069 -0.735627 0
M  V30 13201 H 1277.09 -1.42814 -2.62005 0
M  V30 13202 C 1275.84 0.12842 -3.47463 0
M  V30 13203 H 1275.17 -0.593727 -3.95367 0
M  V30 13204 H 1276.61 0.410393 -4.22009 0
M  V30 13205 C 1275.07 1.36433 -3.08038 0
M  V30 13206 O 1275.6 2.45953 -3.176 0
M  V30 13207 N 1273.8 1.24026 -2.62804 0
M  V30 13208 H 1273.35 0.349111 -2.55223 0
M  V30 13209 H 1273.31 2.06824 -2.36794 0
M  V30 13210 N 1277.08 1.37613 -0.768148 0
M  V30 13211 C 1278.3 2.04579 -0.340892 0
M  V30 13212 C 1278.73 1.57556 1.02751 0
M  V30 13213 O 1278.09 0.734151 1.65771 0
M  V30 13214 C 1278.13 3.58495 -0.389099 0
M  V30 13215 O 1277.24 4.07838 0.611741 0
M  V30 13216 H 1276.58 0.647246 -0.148216 0
M  V30 13217 H 1279.11 1.75999 -1.04333 0
M  V30 13218 H 1279.12 4.07263 -0.245116 0
M  V30 13219 H 1277.79 3.92076 -1.38742 0
M  V30 13220 H 1276.37 3.70399 0.431173 0
M  V30 13221 N 1278.56 0.518393 1.4883 0
M  V30 13222 C 1279.78 -0.0183131 2.07392 0
M  V30 13223 C 1280.21 -1.28468 1.37396 0
M  V30 13224 O 1279.56 -1.75975 0.436177 0
M  V30 13225 C 1279.61 -0.237211 3.59819 0
M  V30 13226 O 1278.72 -1.30835 3.91096 0
M  V30 13227 H 1278.06 0.0339621 0.663131 0
M  V30 13228 H 1280.59 0.722993 1.914 0
M  V30 13229 H 1280.6 -0.463424 4.0536 0
M  V30 13230 H 1279.27 0.687925 4.10171 0
M  V30 13231 H 1277.85 -1.06571 3.57347 0
M  V30 13232 N 1280.03 -1.55556 0.252993 0
M  V30 13233 C 1281.28 -1.99385 -0.370599 0
M  V30 13234 C 1281.61 -1.14101 -1.57145 0
M  V30 13235 O 1280.89 -0.205828 -1.93408 0
M  V30 13236 C 1281.17 -3.51672 -0.774503 0
M  V30 13237 C 1281.02 -4.47719 0.432159 0
M  V30 13238 C 1282.34 -4.0923 -1.61923 0
M  V30 13239 H 1279.46 -0.724858 -0.133231 0
M  V30 13240 H 1282.1 -1.86644 0.355522 0
M  V30 13241 H 1280.25 -3.62661 -1.39318 0
M  V30 13242 H 1281.93 -4.48704 1.07063 0
M  V30 13243 H 1280.17 -4.2029 1.07419 0
M  V30 13244 H 1280.84 -5.51898 0.106123 0
M  V30 13245 H 1283.32 -4.01381 -1.09693 0
M  V30 13246 H 1282.19 -5.16039 -1.87068 0
M  V30 13247 H 1282.45 -3.58067 -2.59307 0
M  V30 13248 N 1281.51 0.0200419 -1.57587 0
M  V30 13249 C 1282.44 1.01715 -2.10181 0
M  V30 13250 C 1283.42 1.37136 -1.00636 0
M  V30 13251 O 1284.61 1.45862 -1.2821 0
M  V30 13252 C 1281.74 2.31531 -2.58865 0
M  V30 13253 C 1280.69 2.10327 -3.72755 0
M  V30 13254 C 1280.02 3.45981 -4.07678 0
M  V30 13255 C 1281.32 1.4821 -5.0083 0
M  V30 13256 H 1283.01 0.579307 -2.93742 0
M  V30 13257 H 1280.56 0.277211 -1.41307 0
M  V30 13258 H 1282.51 3.01623 -2.94281 0
M  V30 13259 H 1281.24 2.77392 -1.72399 0
M  V30 13260 H 1279.89 1.42665 -3.37701 0
M  V30 13261 H 1279.54 3.89508 -3.18265 0
M  V30 13262 H 1279.24 3.32616 -4.84397 0
M  V30 13263 H 1280.77 4.17421 -4.45637 0
M  V30 13264 H 1282.18 2.08232 -5.34146 0
M  V30 13265 H 1280.58 1.45393 -5.82221 0
M  V30 13266 H 1281.65 0.448942 -4.82817 0
M  V30 13267 N 1282.99 1.54862 0.292472 0
M  V30 13268 C 1284.24 1.74203 1.02458 0
M  V30 13269 C 1284.56 0.535398 1.87506 0
M  V30 13270 O 1283.83 -0.450164 1.90658 0
M  V30 13271 H 1282.41 0.642369 0.381276 0
M  V30 13272 H 1285.07 1.92232 0.321398 0
M  V30 13273 H 1284.17 2.63486 1.67277 0
M  V30 13274 N 1284.47 -0.556076 1.47464 0
M  V30 13275 C 1285.4 -1.67275 1.62915 0
M  V30 13276 C 1286.38 -1.63229 0.478562 0
M  V30 13277 O 1287.56 -1.80833 0.708032 0
M  V30 13278 C 1284.69 -3.05911 1.64426 0
M  V30 13279 C 1283.65 -3.24804 2.78722 0
M  V30 13280 C 1282.97 -4.64238 2.65307 0
M  V30 13281 C 1284.27 -3.10071 4.20302 0
M  V30 13282 H 1285.97 -1.54601 2.56396 0
M  V30 13283 H 1283.51 -0.742337 1.23391 0
M  V30 13284 H 1285.47 -3.83878 1.73826 0
M  V30 13285 H 1284.19 -3.19547 0.675053 0
M  V30 13286 H 1282.85 -2.49246 2.68835 0
M  V30 13287 H 1282.5 -4.74675 1.66412 0
M  V30 13288 H 1282.2 -4.77828 3.41986 0
M  V30 13289 H 1283.72 -5.44339 2.76637 0
M  V30 13290 H 1285.14 -3.77855 4.3116 0
M  V30 13291 H 1283.53 -3.3517 4.97776 0
M  V30 13292 H 1284.6 -2.06803 4.38589 0
M  V30 13293 N 1285.95 -1.35615 -0.802897 0
M  V30 13294 C 1286.9 -1.28877 -1.93632 0
M  V30 13295 C 1287.89 -0.183014 -1.68408 0
M  V30 13296 O 1289.1 -0.349218 -1.7658 0
M  V30 13297 H 1285.47 -0.400883 -0.636236 0
M  V30 13298 H 1287.44 -2.24624 -1.96435 0
M  V30 13299 C 1286.19 -1.08136 -3.30457 0
M  V30 13300 H 1285.51 -1.92463 -3.50426 0
M  V30 13301 H 1286.95 -1.07464 -4.10155 0
M  V30 13302 C 1285.41 0.214635 -3.36216 0
M  V30 13303 O 1285.94 1.20916 -3.8307 0
M  V30 13304 N 1284.15 0.25468 -2.89482 0
M  V30 13305 H 1283.7 -0.555239 -2.51545 0
M  V30 13306 H 1283.65 1.12152 -2.93716 0
M  V30 13307 N 1287.43 1.02549 -1.19673 0
M  V30 13308 C 1288.67 1.75656 -0.999463 0
M  V30 13309 C 1288.99 1.89238 0.470517 0
M  V30 13310 O 1288.26 1.42843 1.34062 0
M  V30 13311 H 1286.84 0.650732 -0.366821 0
M  V30 13312 H 1289.51 1.23684 -1.50627 0
M  V30 13313 H 1288.6 2.76353 -1.45035 0
M  V30 13314 N 1288.9 1.00119 1.21713 0
M  V30 13315 C 1289.85 0.551452 2.25969 0
M  V30 13316 C 1290.85 -0.402075 1.64559 0
M  V30 13317 O 1292.05 -0.273685 1.77907 0
M  V30 13318 H 1288.43 0.159968 0.734789 0
M  V30 13319 H 1290.4 1.44201 2.61244 0
M  V30 13320 C 1289.15 -0.109992 3.47526 0
M  V30 13321 H 1288.47 0.614686 3.95046 0
M  V30 13322 H 1289.91 -0.388007 4.22221 0
M  V30 13323 C 1288.37 -1.34798 3.08757 0
M  V30 13324 O 1288.9 -2.44266 3.189 0
M  V30 13325 N 1287.1 -1.2263 2.63458 0
M  V30 13326 H 1286.65 -0.335571 2.55405 0
M  V30 13327 H 1286.61 -2.05565 2.37887 0
M  V30 13328 N 1290.38 -1.37203 0.775435 0
M  V30 13329 C 1291.61 -2.04396 0.351737 0
M  V30 13330 C 1292.03 -1.58099 -1.01913 0
M  V30 13331 O 1291.39 -0.742932 -1.65379 0
M  V30 13332 C 1291.44 -3.58283 0.408105 0
M  V30 13333 O 1290.54 -4.08156 -0.590104 0
M  V30 13334 H 1289.88 -0.646451 0.151647 0
M  V30 13335 H 1292.41 -1.75443 1.05265 0
M  V30 13336 H 1292.42 -4.07127 0.266711 0
M  V30 13337 H 1291.1 -3.91335 1.40819 0
M  V30 13338 H 1289.67 -3.70622 -0.411524 0
M  V30 13339 N 1291.86 -0.526279 -1.48553 0
M  V30 13340 C 1293.11 0.00914839 -2.02098 0
M  V30 13341 C 1293.43 1.35119 -1.40598 0
M  V30 13342 O 1292.7 1.87422 -0.570065 0
M  V30 13343 H 1291.28 0.00636935 -0.746973 0
M  V30 13344 H 1293.94 -0.689269 -1.82305 0
M  V30 13345 H 1293.04 0.120212 -3.11868 0
M  V30 13346 N 1293.34 1.5542 -0.261239 0
M  V30 13347 C 1294.3 2.20683 0.619011 0
M  V30 13348 C 1295.3 1.18042 1.09192 0
M  V30 13349 O 1296.49 1.43035 0.99432 0
M  V30 13350 C 1293.62 2.86179 1.85242 0
M  V30 13351 H 1294.82 2.99859 0.0493924 0
M  V30 13352 H 1292.37 1.56296 -0.0117687 0
M  V30 13353 H 1293.1 2.10978 2.4629 0
M  V30 13354 H 1292.89 3.61381 1.52138 0
M  V30 13355 H 1294.38 3.36081 2.47869 0
M  V30 13356 N 1294.82 -0.0116844 1.57596 0
M  V30 13357 C 1295.78 -0.991601 2.0664 0
M  V30 13358 C 1296.78 -1.27973 0.973629 0
M  V30 13359 O 1297.97 -1.22686 1.23668 0
M  V30 13360 C 1295.1 -2.31975 2.49801 0
M  V30 13361 H 1296.29 -0.567607 2.9448 0
M  V30 13362 H 1293.85 -0.258906 1.54141 0
M  V30 13363 H 1294.58 -2.79087 1.65169 0
M  V30 13364 H 1294.37 -2.12386 3.29598 0
M  V30 13365 H 1295.86 -3.02294 2.88112 0
M  V30 13366 N 1296.29 -1.55015 -0.284256 0
M  V30 13367 C 1297.54 -1.74744 -1.01532 0
M  V30 13368 C 1297.86 -0.545334 -1.87219 0
M  V30 13369 O 1297.13 0.440046 -1.90894 0
M  V30 13370 H 1295.71 -0.644382 -0.377864 0
M  V30 13371 H 1298.37 -1.92399 -0.311199 0
M  V30 13372 H 1297.47 -2.64369 -1.65878 0
M  V30 13373 N 1297.77 0.548248 -1.47757 0
M  V30 13374 C 1299.02 1.30243 -1.54535 0
M  V30 13375 C 1299.34 1.93832 -0.213089 0
M  V30 13376 O 1298.61 1.80397 0.763782 0
M  V30 13377 H 1297.19 0.483684 -0.569262 0
M  V30 13378 H 1299.85 0.639485 -1.8411 0
M  V30 13379 H 1298.95 2.09128 -2.31672 0
M  V30 13380 N 1299.25 1.36039 0.795694 0
M  V30 13381 C 1300.5 1.29663 1.55023 0
M  V30 13382 C 1300.82 -0.125588 1.94595 0
M  V30 13383 O 1300.09 -1.06447 1.64456 0
M  V30 13384 H 1298.67 0.476962 0.574906 0
M  V30 13385 H 1301.33 1.70265 0.948471 0
M  V30 13386 H 1300.43 1.91982 2.46068 0
M  V30 13387 N 1300.73 -1.01913 1.20215 0
M  V30 13388 C 1301.98 -1.75124 1.00876 0
M  V30 13389 C 1302.3 -1.89485 -0.460475 0
M  V30 13390 O 1301.57 -1.43552 -1.33302 0
M  V30 13391 H 1300.15 -0.648777 0.370266 0
M  V30 13392 H 1302.81 -1.22883 1.5128 0
M  V30 13393 H 1301.91 -2.7558 1.46499 0
M  V30 13394 N 1302.21 -1.00763 -1.2118 0
M  V30 13395 C 1303.45 -0.690459 -1.8994 0
M  V30 13396 C 1303.78 0.781464 -1.78656 0
M  V30 13397 O 1303.05 1.56135 -1.18316 0
M  V30 13398 H 1301.63 -0.252397 -0.703068 0
M  V30 13399 H 1304.29 -1.2773 -1.47211 0
M  V30 13400 H 1303.38 -0.96594 -2.96776 0
M  V30 13401 N 1303.68 1.3679 -0.7827 0
M  V30 13402 C 1304.93 2.0016 -0.361585 0
M  V30 13403 C 1305.29 1.61011 1.05324 0
M  V30 13404 O 1304.58 0.851491 1.7164 0
M  V30 13405 C 1304.77 3.54489 -0.455232 0
M  V30 13406 C 1304.6 4.08627 -1.87761 0
M  V30 13407 C 1303.37 4.3908 -2.50073 0
M  V30 13408 C 1305.57 4.28858 -2.83876 0
M  V30 13409 N 1303.55 4.79 -3.8397 0
M  V30 13410 C 1304.92 4.71507 -4.02593 0
M  V30 13411 C 1306.98 4.11013 -2.81021 0
M  V30 13412 C 1305.68 4.98181 -5.18852 0
M  V30 13413 C 1307.71 4.3883 -3.96463 0
M  V30 13414 C 1307.07 4.81729 -5.13922 0
M  V30 13415 H 1303.17 0.761099 -0.179588 0
M  V30 13416 H 1305.75 1.65913 -1.01887 0
M  V30 13417 H 1303.92 3.88019 0.171926 0
M  V30 13418 H 1305.65 4.04699 -0.0110089 0
M  V30 13419 H 1302.41 4.28547 -2.01605 0
M  V30 13420 H 1302.83 5.03253 -4.52841 0
M  V30 13421 H 1307.48 3.77009 -1.91375 0
M  V30 13422 H 1305.19 5.3107 -6.0909 0
M  V30 13423 H 1308.78 4.266 -3.95606 0
M  V30 13424 H 1307.66 5.02838 -6.01767 0
M  V30 13425 N 1305.16 0.53415 1.48272 0
M  V30 13426 C 1306.11 -0.239672 2.31362 0
M  V30 13427 C 1307.1 -0.931501 1.4149 0
M  V30 13428 O 1308.31 -0.855411 1.58375 0
M  V30 13429 H 1304.69 -0.09616 0.745827 0
M  V30 13430 H 1306.66 0.480638 2.94504 0
M  V30 13431 C 1305.41 -1.27102 3.23636 0
M  V30 13432 H 1304.73 -0.748082 3.92739 0
M  V30 13433 H 1306.17 -1.78379 3.84652 0
M  V30 13434 C 1304.63 -2.30683 2.45534 0
M  V30 13435 O 1305.16 -3.37197 2.18314 0
M  V30 13436 N 1303.36 -2.04006 2.06954 0
M  V30 13437 H 1302.91 -1.17403 2.29291 0
M  V30 13438 H 1302.87 -2.73531 1.5501 0
M  V30 13439 N 1306.64 -1.55279 0.269478 0
M  V30 13440 C 1307.92 -1.91458 -0.400412 0
M  V30 13441 C 1308.3 -1.19306 -1.74153 0
M  V30 13442 O 1307.65 -0.318017 -2.26276 0
M  V30 13443 C 1307.86 -3.44698 -0.546258 0
M  V30 13444 C 1309.2 -4.16374 -0.831758 0
M  V30 13445 O 1310.23 -3.50561 -0.631279 0
M  V30 13446 O 1309.09 -5.32826 -1.21484 0
M  V30 13447 H 1306.18 -0.79766 -0.218328 0
M  V30 13448 H 1308.73 -1.66747 0.315214 0
M  V30 13449 H 1307.5 -3.89273 0.397784 0
M  V30 13450 H 1307.12 -3.75345 -1.31157 0
M  V30 13451 N 1308.12 0.00332656 -1.576 0
M  V30 13452 C 1309.07 1.01406 -2.09331 0
M  V30 13453 C 1310.06 1.35806 -1.01258 0
M  V30 13454 O 1311.27 1.34409 -1.19726 0
M  V30 13455 H 1307.64 0.344661 -0.668366 0
M  V30 13456 H 1309.61 0.552154 -2.93247 0
M  V30 13457 C 1308.36 2.29819 -2.60918 0
M  V30 13458 H 1307.68 2.04216 -3.43709 0
M  V30 13459 H 1309.12 2.98826 -3.00797 0
M  V30 13460 C 1307.58 3.0057 -1.52182 0
M  V30 13461 O 1308.11 3.91423 -0.902817 0
M  V30 13462 N 1306.32 2.62338 -1.25009 0
M  V30 13463 H 1305.87 1.88538 -1.75531 0
M  V30 13464 H 1305.82 3.0999 -0.524736 0
M  V30 13465 N 1309.6 1.55164 0.276031 0
M  V30 13466 C 1310.82 1.79649 1.02635 0
M  V30 13467 C 1311.24 0.568289 1.80044 0
M  V30 13468 O 1310.6 -0.462569 1.7654 0
M  V30 13469 C 1310.65 3.01974 1.98731 0
M  V30 13470 O 1310.37 4.2005 1.24459 0
M  V30 13471 C 1311.87 3.39039 2.856 0
M  V30 13472 H 1309.09 0.598529 0.303321 0
M  V30 13473 H 1311.63 2.02171 0.307733 0
M  V30 13474 H 1309.79 2.81586 2.6606 0
M  V30 13475 H 1310.2 4.89185 1.89205 0
M  V30 13476 H 1311.68 4.27809 3.48831 0
M  V30 13477 H 1312.15 2.58306 3.55211 0
M  V30 13478 H 1312.76 3.61674 2.23767 0
M  V30 13479 N 1311.07 -0.540404 1.48045 0
M  V30 13480 C 1312.3 -1.32656 1.59427 0
M  V30 13481 C 1312.72 -1.86419 0.250924 0
M  V30 13482 O 1312.08 -1.63861 -0.775838 0
M  V30 13483 C 1312.13 -2.46062 2.63602 0
M  V30 13484 O 1311.23 -3.48794 2.20038 0
M  V30 13485 H 1310.58 -0.393334 0.534962 0
M  V30 13486 H 1313.11 -0.651363 1.93955 0
M  V30 13487 H 1313.12 -2.92396 2.84549 0
M  V30 13488 H 1311.79 -2.06291 3.61133 0
M  V30 13489 H 1310.37 -3.0865 2.0926 0
M  V30 13490 N 1312.55 -1.36459 -0.788468 0
M  V30 13491 C 1313.48 -1.33545 -1.91541 0
M  V30 13492 C 1314.46 -0.206762 -1.68839 0
M  V30 13493 O 1315.65 -0.404553 -1.89939 0
M  V30 13494 C 1312.78 -1.12492 -3.28577 0
M  V30 13495 C 1311.73 -2.22196 -3.65805 0
M  V30 13496 C 1311.06 -1.86285 -5.01201 0
M  V30 13497 C 1312.36 -3.64286 -3.7429 0
M  V30 13498 H 1314.05 -2.27844 -1.94236 0
M  V30 13499 H 1311.6 -1.09677 -0.933105 0
M  V30 13500 H 1313.55 -1.09089 -4.07035 0
M  V30 13501 H 1312.28 -0.146446 -3.26272 0
M  V30 13502 H 1310.93 -2.24727 -2.89644 0
M  V30 13503 H 1310.58 -0.87009 -4.95417 0
M  V30 13504 H 1310.28 -2.59734 -5.27079 0
M  V30 13505 H 1311.81 -1.84439 -5.82078 0
M  V30 13506 H 1313.22 -3.63977 -4.42937 0
M  V30 13507 H 1311.62 -4.36648 -4.11653 0
M  V30 13508 H 1312.69 -3.99123 -2.75371 0
M  V30 13509 N 1314.03 1.01274 -1.20754 0
M  V30 13510 C 1314.96 2.11763 -0.983805 0
M  V30 13511 C 1315.94 1.69869 0.0885635 0
M  V30 13512 O 1317.13 1.94075 -0.0697239 0
M  V30 13513 C 1314.26 3.43087 -0.539287 0
M  V30 13514 C 1313.21 3.9874 -1.55534 0
M  V30 13515 C 1312.54 5.25877 -0.967322 0
M  V30 13516 C 1313.84 4.31688 -2.94012 0
M  V30 13517 H 1315.53 2.30737 -1.90789 0
M  V30 13518 H 1313.08 1.10884 -0.918734 0
M  V30 13519 H 1315.03 4.19773 -0.369979 0
M  V30 13520 H 1313.75 3.23883 0.420435 0
M  V30 13521 H 1312.41 3.24166 -1.71207 0
M  V30 13522 H 1312.06 5.03 0.000448307 0
M  V30 13523 H 1311.76 5.64077 -1.64594 0
M  V30 13524 H 1313.28 6.05215 -0.809167 0
M  V30 13525 H 1314.7 4.99246 -2.81827 0
M  V30 13526 H 1313.1 4.81011 -3.58815 0
M  V30 13527 H 1314.17 3.4029 -3.45442 0
M  V30 13528 N 1315.51 1.01404 1.20644 0
M  V30 13529 C 1316.76 0.712655 1.90507 0
M  V30 13530 C 1317.11 -0.749299 1.7721 0
M  V30 13531 O 1316.4 -1.53709 1.14386 0
M  V30 13532 C 1316.6 1.07995 3.40693 0
M  V30 13533 C 1316.43 2.57606 3.68604 0
M  V30 13534 C 1315.2 3.2435 3.8746 0
M  V30 13535 C 1317.39 3.55788 3.71375 0
M  V30 13536 N 1315.38 4.63218 4.02868 0
M  V30 13537 C 1316.75 4.80207 3.92175 0
M  V30 13538 C 1318.8 3.49797 3.54325 0
M  V30 13539 C 1317.51 5.9936 3.97694 0
M  V30 13540 C 1319.53 4.68349 3.61114 0
M  V30 13541 C 1318.89 5.91575 3.82385 0
M  V30 13542 H 1314.99 0.312406 0.716887 0
M  V30 13543 H 1317.58 1.29835 1.4509 0
M  V30 13544 H 1315.75 0.522623 3.84868 0
M  V30 13545 H 1317.48 0.732364 3.98018 0
M  V30 13546 H 1314.23 2.7478 3.85737 0
M  V30 13547 H 1314.66 5.3531 4.14454 0
M  V30 13548 H 1319.3 2.55525 3.36848 0
M  V30 13549 H 1317.02 6.94015 4.13968 0
M  V30 13550 H 1320.6 4.65325 3.49233 0
M  V30 13551 H 1319.48 6.81776 3.87494 0
M  V30 13552 N 1316.99 -1.36373 0.789944 0
M  V30 13553 C 1317.95 -2.28372 0.194639 0
M  V30 13554 C 1318.95 -1.48849 -0.608332 0
M  V30 13555 O 1320.14 -1.68829 -0.42925 0
M  V30 13556 C 1317.27 -3.3298 -0.730553 0
M  V30 13557 H 1318.47 -2.82529 1.00585 0
M  V30 13558 H 1316.02 -1.45946 0.559406 0
M  V30 13559 H 1316.75 -2.8398 -1.56608 0
M  V30 13560 H 1316.54 -3.91787 -0.156706 0
M  V30 13561 H 1318.03 -4.01684 -1.14192 0
M  V30 13562 N 1318.47 -0.542005 -1.47987 0
M  V30 13563 C 1319.71 -0.0122873 -2.02096 0
M  V30 13564 C 1320.03 1.3362 -1.42024 0
M  V30 13565 O 1319.3 1.86807 -0.589911 0
M  V30 13566 H 1317.88 -0.00155365 -0.746998 0
M  V30 13567 H 1320.55 -0.708566 -1.81564 0
M  V30 13568 H 1319.64 0.0871275 -3.11978 0
M  V30 13569 N 1319.94 1.55134 -0.277709 0
M  V30 13570 C 1320.89 2.2263 0.608637 0
M  V30 13571 C 1321.86 1.20067 1.14774 0
M  V30 13572 O 1323.05 1.48617 1.19657 0
M  V30 13573 C 1320.19 2.95308 1.78571 0
M  V30 13574 C 1319.3 4.12595 1.28021 0
M  V30 13575 C 1318.43 4.7291 2.41929 0
M  V30 13576 C 1317.47 5.82386 1.88395 0
M  V30 13577 N 1316.61 6.36754 2.95786 0
M  V30 13578 H 1321.45 2.97988 0.0264138 0
M  V30 13579 H 1318.99 1.471 0.00127068 0
M  V30 13580 H 1320.94 3.35662 2.47764 0
M  V30 13581 H 1319.57 2.22368 2.33992 0
M  V30 13582 H 1318.63 3.77343 0.481297 0
M  V30 13583 H 1319.94 4.91537 0.848128 0
M  V30 13584 H 1319.09 5.15997 3.1911 0
M  V30 13585 H 1317.83 3.93251 2.88453 0
M  V30 13586 H 1316.84 5.38746 1.09694 0
M  V30 13587 H 1318.06 6.63916 1.42803 0
M  V30 13588 H 1316.01 5.59987 3.41687 0
M  V30 13589 H 1315.92 7.10975 2.57002 0
M  V30 13590 H 1317.19 6.845 3.72935 0
M  V30 13591 N 1321.42 0.00503138 1.57599 0
M  V30 13592 C 1322.65 -0.693231 1.95471 0
M  V30 13593 C 1323.07 -1.66233 0.880246 0
M  V30 13594 O 1322.43 -1.80582 -0.161164 0
M  V30 13595 C 1322.48 -1.39696 3.32442 0
M  V30 13596 O 1321.58 -2.51154 3.27101 0
M  V30 13597 H 1320.92 -0.184015 0.637992 0
M  V30 13598 H 1323.45 0.0597194 2.04513 0
M  V30 13599 H 1323.46 -1.75924 3.68123 0
M  V30 13600 H 1322.14 -0.686438 4.10196 0
M  V30 13601 H 1320.71 -2.17216 3.03103 0
M  V30 13602 N 1322.9 -1.55308 -0.267798 0
M  V30 13603 C 1323.83 -1.91555 -1.33525 0
M  V30 13604 C 1324.81 -0.778001 -1.51265 0
M  V30 13605 O 1326 -1.03657 -1.64222 0
M  V30 13606 C 1323.13 -2.19201 -2.69385 0
M  V30 13607 C 1322.08 -3.3501 -2.66369 0
M  V30 13608 C 1321.41 -3.48148 -4.05829 0
M  V30 13609 C 1322.71 -4.71265 -2.25182 0
M  V30 13610 H 1324.4 -2.80965 -1.03437 0
M  V30 13611 H 1321.95 -1.35183 -0.496141 0
M  V30 13612 H 1323.9 -2.43146 -3.44177 0
M  V30 13613 H 1322.62 -1.26596 -3.01067 0
M  V30 13614 H 1321.28 -3.11041 -1.94034 0
M  V30 13615 H 1320.93 -2.53 -4.34741 0
M  V30 13616 H 1320.63 -4.26014 -4.04704 0
M  V30 13617 H 1322.15 -3.74391 -4.82352 0
M  V30 13618 H 1323.57 -4.94719 -2.89699 0
M  V30 13619 H 1321.96 -5.52084 -2.3521 0
M  V30 13620 H 1323.03 -4.69735 -1.20319 0
M  V30 13621 N 1324.38 0.532545 -1.4833 0
M  V30 13622 C 1325.31 1.65325 -1.58746 0
M  V30 13623 C 1326.32 1.5581 -0.471925 0
M  V30 13624 O 1327.51 1.62317 -0.742656 0
M  V30 13625 C 1324.61 3.03957 -1.49877 0
M  V30 13626 C 1323.78 3.38979 -2.76427 0
M  V30 13627 C 1322.84 4.56881 -2.61048 0
M  V30 13628 O 1321.87 4.6023 -3.34928 0
M  V30 13629 N 1323.07 5.54898 -1.70496 0
M  V30 13630 H 1325.84 1.56827 -2.55393 0
M  V30 13631 H 1323.4 0.71976 -1.45021 0
M  V30 13632 H 1325.39 3.80702 -1.37288 0
M  V30 13633 H 1323.96 3.06548 -0.612158 0
M  V30 13634 H 1323.18 2.51438 -3.03599 0
M  V30 13635 H 1324.47 3.59163 -3.60388 0
M  V30 13636 H 1323.87 5.54968 -1.0967 0
M  V30 13637 H 1322.42 6.3087 -1.63847 0
M  V30 13638 N 1325.86 1.36875 0.78122 0
M  V30 13639 C 1326.77 1.3404 1.92537 0
M  V30 13640 C 1327.78 0.241354 1.72318 0
M  V30 13641 O 1328.96 0.475128 1.95715 0
M  V30 13642 C 1326.02 1.13708 3.27523 0
M  V30 13643 C 1325.08 2.33165 3.60462 0
M  V30 13644 C 1324.32 2.13793 4.89007 0
M  V30 13645 O 1324.54 1.11732 5.5935 0
M  V30 13646 O 1323.47 3.01762 5.20791 0
M  V30 13647 H 1327.3 2.30386 1.97879 0
M  V30 13648 H 1324.88 1.17506 0.922637 0
M  V30 13649 H 1326.77 1.0432 4.08283 0
M  V30 13650 H 1325.44 0.204306 3.23055 0
M  V30 13651 H 1324.35 2.48123 2.79974 0
M  V30 13652 H 1325.68 3.24977 3.69663 0
M  V30 13653 N 1327.33 -1.00632 1.21289 0
M  V30 13654 C 1328.58 -1.74044 1.02728 0
M  V30 13655 C 1328.9 -1.89963 -0.440351 0
M  V30 13656 O 1328.17 -1.44958 -1.31772 0
M  V30 13657 H 1326.75 -0.644813 0.377127 0
M  V30 13658 H 1329.41 -1.21272 1.52575 0
M  V30 13659 H 1328.51 -2.74011 1.49413 0
M  V30 13660 N 1328.81 -1.02043 -1.20104 0
M  V30 13661 C 1329.77 -0.598682 -2.21243 0
M  V30 13662 C 1330.77 0.333205 -1.5731 0
M  V30 13663 O 1331.96 0.12137 -1.73777 0
M  V30 13664 C 1329.1 0.125183 -3.4067 0
M  V30 13665 H 1330.29 -1.49345 -2.60069 0
M  V30 13666 H 1327.84 -0.810649 -1.33634 0
M  V30 13667 H 1328.58 1.03469 -3.07351 0
M  V30 13668 H 1328.36 -0.544316 -3.88304 0
M  V30 13669 H 1329.85 0.407469 -4.15607 0
M  V30 13670 N 1330.29 1.35952 -0.797165 0
M  V30 13671 C 1331.52 2.0328 -0.385316 0
M  V30 13672 C 1331.93 1.60095 1.00076 0
M  V30 13673 O 1331.29 0.794014 1.64322 0
M  V30 13674 C 1331.34 3.5871 -0.448284 0
M  V30 13675 O 1331.06 4.00323 -1.7797 0
M  V30 13676 C 1332.56 4.43291 -0.0280465 0
M  V30 13677 H 1329.78 0.652192 -0.157756 0
M  V30 13678 H 1332.33 1.73769 -1.07817 0
M  V30 13679 H 1330.48 3.86903 0.196224 0
M  V30 13680 H 1330.9 4.94941 -1.73592 0
M  V30 13681 H 1332.37 5.51862 -0.123234 0
M  V30 13682 H 1332.85 4.27059 1.02552 0
M  V30 13683 H 1333.45 4.20375 -0.645343 0
M  V30 13684 N 1331.77 0.549846 1.47697 0
M  V30 13685 C 1333.02 0.0230048 2.02087 0
M  V30 13686 C 1333.34 -1.32865 1.4273 0
M  V30 13687 O 1332.61 -1.86492 0.59981 0
M  V30 13688 H 1331.19 0.00551514 0.74698 0
M  V30 13689 H 1333.85 0.718185 1.81185 0
M  V30 13690 H 1332.95 -0.0705813 3.1202 0
M  V30 13691 N 1333.25 -1.54984 0.285932 0
M  V30 13692 C 1334.49 -1.99436 -0.32709 0
M  V30 13693 C 1334.82 -1.17582 -1.55562 0
M  V30 13694 O 1334.09 -0.268002 -1.94058 0
M  V30 13695 H 1332.67 -0.736662 -0.123846 0
M  V30 13696 H 1335.33 -1.90881 0.393774 0
M  V30 13697 H 1334.42 -3.0609 -0.609523 0
M  V30 13698 N 1334.72 -0.0133892 -1.57594 0
M  V30 13699 C 1335.67 0.982482 -2.05746 0
M  V30 13700 C 1336.66 1.29508 -0.954801 0
M  V30 13701 O 1337.85 1.28382 -1.21848 0
M  V30 13702 C 1334.98 2.27012 -2.57527 0
M  V30 13703 C 1334.07 1.98658 -3.74694 0
M  V30 13704 N 1334.46 1.40512 -4.85891 0
M  V30 13705 C 1332.75 2.28732 -3.82881 0
M  V30 13706 C 1333.46 1.28933 -5.67231 0
M  V30 13707 N 1332.43 1.77951 -5.13648 0
M  V30 13708 H 1336.23 0.527626 -2.89125 0
M  V30 13709 H 1333.75 0.192001 -1.61261 0
M  V30 13710 H 1335.74 2.99212 -2.90306 0
M  V30 13711 H 1334.4 2.73139 -1.75572 0
M  V30 13712 H 1335.42 1.08217 -5.06468 0
M  V30 13713 H 1332.09 2.77641 -3.11804 0
M  V30 13714 H 1333.48 0.841051 -6.66615 0
M  V30 13715 N 1336.2 1.55448 0.259558 0
M  V30 13716 C 1337.43 1.81063 1.01148 0
M  V30 13717 C 1337.85 0.58875 1.78649 0
M  V30 13718 O 1337.21 -0.461971 1.75315 0
M  V30 13719 C 1337.26 3.04279 1.93512 0
M  V30 13720 O 1336.36 2.80307 3.02493 0
M  V30 13721 H 1335.7 0.598056 0.288487 0
M  V30 13722 H 1338.23 2.02614 0.284387 0
M  V30 13723 H 1338.24 3.33373 2.35215 0
M  V30 13724 H 1336.92 3.92856 1.36518 0
M  V30 13725 H 1335.5 2.62345 2.65008 0
M  V30 13726 N 1337.68 -0.524672 1.4861 0
M  V30 13727 C 1338.92 -1.29064 1.58499 0
M  V30 13728 C 1339.28 -1.90294 0.255378 0
M  V30 13729 O 1340.49 -2.6782 0.229289 0
M  V30 13730 C 1338.76 -2.34693 2.69544 0
M  V30 13731 S 1340.32 -3.20944 2.99233 0
M  V30 13732 H 1337.13 -0.438948 0.559326 0
M  V30 13733 H 1339.74 -0.597119 1.86158 0
M  V30 13734 H 1338.44 -1.88199 3.64704 0
M  V30 13735 H 1337.97 -3.08745 2.43804 0
M  V30 13736 H 1339.99 -4.34883 2.38937 0
M  V30 13737 N 1339.16 -1.37287 -0.77395 0
M  V30 13738 C 1340.57 -1.28954 -1.3501 0
M  V30 13739 C 1340.92 0.0638301 -1.96096 0
M  V30 13740 O 1340.05 0.965624 -1.93661 0
M  V30 13741 C 1340.64 -2.3352 -2.45467 0
M  V30 13742 C 1339.2 -2.28828 -2.98856 0
M  V30 13743 C 1338.35 -2.17468 -1.72055 0
M  V30 13744 H 1341.3 -1.47941 -0.57438 0
M  V30 13745 H 1341.32 -1.98058 -3.24889 0
M  V30 13746 H 1340.83 -3.32009 -2.00977 0
M  V30 13747 H 1338.93 -1.33855 -3.47726 0
M  V30 13748 H 1339.04 -3.22152 -3.54619 0
M  V30 13749 H 1337.41 -1.63977 -1.94894 0
M  V30 13750 H 1338.19 -3.17868 -1.29672 0
M  V30 13751 N 1340.64 0.999871 -1.21821 0
M  V30 13752 C 1341.57 2.09044 -0.939852 0
M  V30 13753 C 1342.58 1.62609 0.0788987 0
M  V30 13754 O 1343.77 1.77832 -0.154241 0
M  V30 13755 C 1340.87 3.36641 -0.390618 0
M  V30 13756 C 1340.04 4.12139 -1.46493 0
M  V30 13757 C 1339.1 5.18023 -0.924019 0
M  V30 13758 O 1338.13 5.45996 -1.60864 0
M  V30 13759 N 1339.33 5.79926 0.258136 0
M  V30 13760 H 1342.1 2.33506 -1.8787 0
M  V30 13761 H 1339.66 1.16509 -1.12415 0
M  V30 13762 H 1341.65 4.04697 -0.0142349 0
M  V30 13763 H 1340.22 3.09298 0.453176 0
M  V30 13764 H 1339.44 3.38813 -2.01494 0
M  V30 13765 H 1340.73 4.59354 -2.18795 0
M  V30 13766 H 1340.12 5.59559 0.831288 0
M  V30 13767 H 1338.68 6.4925 0.575977 0
M  V30 13768 N 1342.11 1.02678 1.19562 0
M  V30 13769 C 1343.08 0.610407 2.20922 0
M  V30 13770 C 1344.08 -0.324858 1.57484 0
M  V30 13771 O 1345.27 -0.112153 1.73839 0
M  V30 13772 C 1342.4 -0.107115 3.40732 0
M  V30 13773 H 1343.59 1.50722 2.59274 0
M  V30 13774 H 1341.15 0.817725 1.33203 0
M  V30 13775 H 1341.88 -1.01837 3.07896 0
M  V30 13776 H 1341.67 0.564901 3.88009 0
M  V30 13777 H 1343.16 -0.385423 4.15818 0
M  V30 13778 N 1343.59 -1.35528 0.804364 0
M  V30 13779 C 1344.53 -2.27647 0.158767 0
M  V30 13780 C 1345.5 -1.47976 -0.673942 0
M  V30 13781 O 1346.69 -1.77241 -0.641703 0
M  V30 13782 C 1343.81 -3.29597 -0.779973 0
M  V30 13783 C 1342.86 -4.26491 -0.0271676 0
M  V30 13784 S 1343.69 -5.19296 1.30736 0
M  V30 13785 C 1344.85 -6.24788 0.373003 0
M  V30 13786 H 1345.08 -2.82055 0.939805 0
M  V30 13787 H 1342.62 -1.42294 0.599313 0
M  V30 13788 H 1344.57 -3.88831 -1.31609 0
M  V30 13789 H 1343.23 -2.74072 -1.53438 0
M  V30 13790 H 1342.43 -4.98537 -0.740059 0
M  V30 13791 H 1342.03 -3.71415 0.438923 0
M  V30 13792 H 1344.32 -6.76053 -0.442566 0
M  V30 13793 H 1345.26 -7.00082 1.06258 0
M  V30 13794 H 1345.67 -5.64492 -0.0303131 0
M  V30 13795 N 1345.07 -0.557671 -1.47404 0
M  V30 13796 C 1346.02 0.189765 -2.30019 0
M  V30 13797 C 1346.99 0.907923 -1.3909 0
M  V30 13798 O 1348.17 0.903528 -1.68051 0
M  V30 13799 C 1345.31 1.21348 -3.23061 0
M  V30 13800 C 1344.43 0.501343 -4.29081 0
M  V30 13801 C 1343.56 1.51039 -5.09275 0
M  V30 13802 C 1342.6 0.783254 -6.07068 0
M  V30 13803 N 1341.74 1.73916 -6.80219 0
M  V30 13804 H 1346.58 -0.520856 -2.93413 0
M  V30 13805 H 1344.11 -0.268686 -1.44625 0
M  V30 13806 H 1346.07 1.81961 -3.75428 0
M  V30 13807 H 1344.7 1.89213 -2.61531 0
M  V30 13808 H 1343.75 -0.219317 -3.79767 0
M  V30 13809 H 1345.07 -0.0682656 -4.98753 0
M  V30 13810 H 1344.22 2.19004 -5.65793 0
M  V30 13811 H 1342.96 2.11392 -4.39505 0
M  V30 13812 H 1341.96 0.0896883 -5.49727 0
M  V30 13813 H 1343.19 0.185464 -6.78847 0
M  V30 13814 H 1341.14 2.33125 -6.13179 0
M  V30 13815 H 1341.05 1.22171 -7.46063 0
M  V30 13816 H 1342.32 2.40993 -7.41311 0
M  V30 13817 N 1346.55 1.54831 -0.294147 0
M  V30 13818 C 1347.5 2.23263 0.58499 0
M  V30 13819 C 1348.47 1.21278 1.13494 0
M  V30 13820 O 1349.65 1.49878 1.18073 0
M  V30 13821 C 1346.79 2.97185 1.75429 0
M  V30 13822 C 1345.9 4.1393 1.23638 0
M  V30 13823 C 1345.04 4.7545 2.36899 0
M  V30 13824 C 1344.08 5.84352 1.82207 0
M  V30 13825 N 1343.22 6.39855 2.89015 0
M  V30 13826 H 1348.06 2.98 -0.00519329 0
M  V30 13827 H 1345.59 1.47093 -0.0143313 0
M  V30 13828 H 1347.55 3.38271 2.4419 0
M  V30 13829 H 1346.18 2.24837 2.3162 0
M  V30 13830 H 1345.23 3.77832 0.441247 0
M  V30 13831 H 1346.54 4.92409 0.795946 0
M  V30 13832 H 1345.7 5.19353 3.1362 0
M  V30 13833 H 1344.44 3.96288 2.84266 0
M  V30 13834 H 1343.44 5.39879 1.03974 0
M  V30 13835 H 1344.67 6.65393 1.35753 0
M  V30 13836 H 1342.61 5.6358 3.35729 0
M  V30 13837 H 1342.53 7.13661 2.49447 0
M  V30 13838 H 1343.8 6.88417 3.65654 0
M  V30 13839 N 1348.03 0.0217466 1.57585 0
M  V30 13840 C 1349.27 -0.653715 1.92609 0
M  V30 13841 C 1349.63 -1.70158 0.897998 0
M  V30 13842 O 1348.92 -1.91403 -0.0869654 0
M  V30 13843 C 1349.12 -1.3197 3.32143 0
M  V30 13844 C 1348.94 -0.33786 4.48429 0
M  V30 13845 C 1347.71 0.0596192 5.05265 0
M  V30 13846 C 1349.91 0.404844 5.12704 0
M  V30 13847 N 1347.89 1.03739 6.05071 0
M  V30 13848 C 1349.27 1.2366 6.07543 0
M  V30 13849 C 1351.32 0.466341 4.95711 0
M  V30 13850 C 1350.02 2.1243 6.87216 0
M  V30 13851 C 1352.05 1.34134 5.75988 0
M  V30 13852 C 1351.41 2.1609 6.70436 0
M  V30 13853 H 1347.51 -0.211748 0.752786 0
M  V30 13854 H 1350.09 0.0871946 1.94505 0
M  V30 13855 H 1348.27 -2.03078 3.3108 0
M  V30 13856 H 1350 -1.95159 3.54535 0
M  V30 13857 H 1346.75 -0.313299 4.72563 0
M  V30 13858 H 1347.18 1.5223 6.59663 0
M  V30 13859 H 1351.82 -0.153024 4.22523 0
M  V30 13860 H 1349.54 2.75424 7.59715 0
M  V30 13861 H 1353.12 1.39312 5.64875 0
M  V30 13862 H 1352 2.82701 7.31471 0
M  V30 13863 N 1349.51 -1.55583 -0.251311 0
M  V30 13864 C 1350.75 -1.76859 -0.978031 0
M  V30 13865 C 1351.07 -0.584924 -1.86021 0
M  V30 13866 O 1350.34 0.399456 -1.91784 0
M  V30 13867 H 1348.92 -0.652252 -0.364111 0
M  V30 13868 H 1351.59 -1.93016 -0.270319 0
M  V30 13869 H 1350.68 -2.67828 -1.60233 0
M  V30 13870 N 1350.98 0.516783 -1.48886 0
M  V30 13871 C 1352.23 1.27118 -1.58785 0
M  V30 13872 C 1352.58 1.90579 -0.264114 0
M  V30 13873 O 1351.88 1.76972 0.734271 0
M  V30 13874 C 1352.07 2.37296 -2.67256 0
M  V30 13875 C 1351.9 1.84637 -4.10048 0
M  V30 13876 C 1350.67 1.66646 -4.77029 0
M  V30 13877 C 1352.87 1.36728 -4.95792 0
M  V30 13878 N 1350.85 1.08751 -6.04191 0
M  V30 13879 C 1352.22 0.908663 -6.13305 0
M  V30 13880 C 1354.28 1.25154 -4.81914 0
M  V30 13881 C 1352.98 0.345766 -7.18468 0
M  V30 13882 C 1355.01 0.702625 -5.87211 0
M  V30 13883 C 1354.37 0.254151 -7.03941 0
M  V30 13884 H 1350.47 0.455698 -0.635503 0
M  V30 13885 H 1353.05 0.581119 -1.85825 0
M  V30 13886 H 1351.22 3.03782 -2.42014 0
M  V30 13887 H 1352.95 3.04334 -2.66764 0
M  V30 13888 H 1349.71 1.90556 -4.33573 0
M  V30 13889 H 1350.13 0.817766 -6.72043 0
M  V30 13890 H 1354.77 1.58429 -3.91995 0
M  V30 13891 H 1352.49 0.000713578 -8.081 0
M  V30 13892 H 1356.08 0.616065 -5.78529 0
M  V30 13893 H 1354.96 -0.163978 -7.84029 0
M  V30 13894 N 1352.46 1.37696 0.766659 0
M  V30 13895 C 1353.37 1.36075 1.91104 0
M  V30 13896 C 1354.39 0.259617 1.72052 0
M  V30 13897 O 1355.56 0.49586 1.952 0
M  V30 13898 C 1352.63 1.17176 3.26298 0
M  V30 13899 C 1351.69 2.36975 3.57968 0
M  V30 13900 C 1350.92 2.18968 4.86712 0
M  V30 13901 O 1351.15 1.17658 5.58133 0
M  V30 13902 O 1350.08 3.07269 5.17561 0
M  V30 13903 H 1353.91 2.32472 1.95424 0
M  V30 13904 H 1351.49 1.18478 0.910122 0
M  V30 13905 H 1353.37 1.08645 4.07154 0
M  V30 13906 H 1352.05 0.238559 3.2282 0
M  V30 13907 H 1350.95 2.51079 2.77327 0
M  V30 13908 H 1352.29 3.2888 3.66195 0
M  V30 13909 N 1353.94 -0.993397 1.22349 0
M  V30 13910 C 1355.17 -1.76838 1.07406 0
M  V30 13911 C 1355.58 -1.8503 -0.37542 0
M  V30 13912 O 1354.94 -1.32008 -1.26016 0
M  V30 13913 C 1354.99 -3.20177 1.67837 0
M  V30 13914 O 1354.71 -3.12429 3.07115 0
M  V30 13915 C 1356.21 -4.14125 1.58161 0
M  V30 13916 H 1353.43 -0.555379 0.376557 0
M  V30 13917 H 1355.98 -1.24893 1.61932 0
M  V30 13918 H 1354.13 -3.69191 1.17375 0
M  V30 13919 H 1354.55 -4.02568 3.36213 0
M  V30 13920 H 1356.02 -5.12455 2.05169 0
M  V30 13921 H 1356.5 -4.35892 0.538073 0
M  V30 13922 H 1357.1 -3.71008 2.07926 0
M  V30 13923 N 1355.42 -1.03311 -1.19015 0
M  V30 13924 C 1356.83 -0.750946 -1.4083 0
M  V30 13925 C 1357.03 0.662704 -1.90291 0
M  V30 13926 O 1356.09 1.42806 -2.08237 0
M  V30 13927 C 1357.4 -1.79064 -2.41571 0
M  V30 13928 C 1358.95 -1.81068 -2.55311 0
M  V30 13929 C 1359.43 -2.84008 -3.59309 0
M  V30 13930 N 1360.92 -2.82852 -3.6681 0
M  V30 13931 C 1361.65 -3.59156 -4.46984 0
M  V30 13932 N 1361.15 -4.45188 -5.30829 0
M  V30 13933 N 1362.94 -3.47679 -4.41674 0
M  V30 13934 H 1355.09 -1.94548 -0.852329 0
M  V30 13935 H 1357.35 -0.841344 -0.436858 0
M  V30 13936 H 1357.06 -2.80425 -2.12261 0
M  V30 13937 H 1356.93 -1.61646 -3.40809 0
M  V30 13938 H 1359.32 -0.803825 -2.83941 0
M  V30 13939 H 1359.4 -2.02562 -1.56212 0
M  V30 13940 H 1359.05 -3.84867 -3.3142 0
M  V30 13941 H 1358.98 -2.59771 -4.58069 0
M  V30 13942 H 1361.47 -2.20457 -3.06932 0
M  V30 13943 H 1361.78 -5.00139 -5.89135 0
M  V30 13944 H 1360.13 -4.49259 -5.30275 0
M  V30 13945 H 1363.32 -2.79876 -3.75216 0
M  V30 13946 H 1363.49 -4.07396 -5.03917 0
M  V30 13947 N 1356.9 1.35099 -0.81154 0
M  V30 13948 C 1358.14 1.98233 -0.393453 0
M  V30 13949 C 1358.46 1.64688 1.04417 0
M  V30 13950 O 1357.73 0.931845 1.72318 0
M  V30 13951 H 1356.31 0.733283 -0.142496 0
M  V30 13952 H 1358.98 1.6493 -1.03847 0
M  V30 13953 H 1358.07 3.08017 -0.503188 0
M  V30 13954 N 1358.37 0.56548 1.47106 0
M  V30 13955 C 1359.62 0.0444375 2.02051 0
M  V30 13956 C 1359.94 -1.31344 1.44131 0
M  V30 13957 O 1359.21 -1.85845 0.619556 0
M  V30 13958 H 1357.79 0.0134375 0.746879 0
M  V30 13959 H 1360.45 0.737362 1.80413 0
M  V30 13960 H 1359.55 -0.0374834 3.12077 0
M  V30 13961 N 1359.85 -1.54672 0.302354 0
M  V30 13962 C 1361.1 -2.00167 -0.306524 0
M  V30 13963 C 1361.43 -1.19073 -1.53791 0
M  V30 13964 O 1360.68 -0.255328 -1.94027 0
M  V30 13965 C 1360.98 -3.5035 -0.70638 0
M  V30 13966 C 1360.65 -4.48907 0.423429 0
M  V30 13967 C 1359.31 -4.75575 0.733586 0
M  V30 13968 C 1361.66 -5.07588 1.18338 0
M  V30 13969 C 1358.99 -5.58186 1.80679 0
M  V30 13970 C 1361.34 -5.91367 2.24651 0
M  V30 13971 C 1360.01 -6.16345 2.56272 0
M  V30 13972 H 1359.28 -0.732462 -0.112165 0
M  V30 13973 H 1361.92 -1.86798 0.421732 0
M  V30 13974 H 1360.23 -3.61335 -1.51474 0
M  V30 13975 H 1361.92 -3.82977 -1.18869 0
M  V30 13976 H 1358.51 -4.28256 0.171591 0
M  V30 13977 H 1362.7 -4.86985 0.957018 0
M  V30 13978 H 1357.95 -5.75776 2.05649 0
M  V30 13979 H 1362.13 -6.35862 2.83994 0
M  V30 13980 H 1359.76 -6.80148 3.39563 0
M  V30 13981 N 1361.33 -0.0301034 -1.57571 0
M  V30 13982 C 1362.58 0.647042 -1.91462 0
M  V30 13983 C 1362.9 1.72612 -0.907206 0
M  V30 13984 O 1362.17 1.95833 0.0511268 0
M  V30 13985 H 1360.75 0.241988 -0.706718 0
M  V30 13986 H 1363.41 -0.0781385 -1.94743 0
M  V30 13987 H 1362.51 1.09915 -2.92105 0
M  V30 13988 N 1362.81 1.55714 0.243056 0
M  V30 13989 C 1364.06 1.77375 0.968638 0
M  V30 13990 C 1364.38 0.594781 1.85708 0
M  V30 13991 O 1363.65 -0.38928 1.91993 0
M  V30 13992 H 1362.23 0.654174 0.360646 0
M  V30 13993 H 1364.89 1.93157 0.260079 0
M  V30 13994 H 1363.99 2.68674 1.5881 0
M  V30 13995 N 1364.29 -0.50888 1.49158 0
M  V30 13996 C 1365.53 -1.261 1.57934 0
M  V30 13997 C 1365.86 -1.93199 0.264405 0
M  V30 13998 O 1365.13 -1.82359 -0.715684 0
M  V30 13999 H 1363.71 -0.468421 0.581886 0
M  V30 14000 H 1366.37 -0.590447 1.85741 0
M  V30 14001 H 1365.46 -2.02913 2.37135 0
M  V30 14002 N 1365.76 -1.381 -0.759346 0
M  V30 14003 C 1367.01 -1.33727 -1.5153 0
M  V30 14004 C 1367.33 0.0739504 -1.9486 0
M  V30 14005 O 1366.6 1.02049 -1.67221 0
M  V30 14006 H 1365.18 -0.492037 -0.562058 0
M  V30 14007 H 1367.85 -1.72719 -0.902995 0
M  V30 14008 H 1366.94 -1.98439 -2.40891 0
M  V30 14009 N 1367.24 0.986894 -1.22875 0
M  V30 14010 C 1368.49 1.72388 -1.05484 0
M  V30 14011 C 1368.81 1.90639 0.410074 0
M  V30 14012 O 1368.08 1.47036 1.2945 0
M  V30 14013 H 1366.66 0.638732 -0.387337 0
M  V30 14014 H 1369.32 1.18829 -1.54485 0
M  V30 14015 H 1368.42 2.71599 -1.53754 0
M  V30 14016 N 1368.72 1.0394 1.18466 0
M  V30 14017 C 1369.97 0.740576 1.88042 0
M  V30 14018 C 1370.29 -0.733822 1.80666 0
M  V30 14019 O 1369.56 -1.52943 1.22414 0
M  V30 14020 H 1368.14 0.270949 0.696129 0
M  V30 14021 H 1370.8 1.31588 1.43772 0
M  V30 14022 H 1369.9 1.04429 2.94111 0
M  V30 14023 N 1370.2 -1.34667 0.818693 0
M  V30 14024 C 1371.44 -2.00234 0.41056 0
M  V30 14025 C 1371.8 -1.63507 -1.00644 0
M  V30 14026 O 1373 -2.21886 -1.51723 0
M  V30 14027 C 1371.27 -3.52294 0.601968 0
M  V30 14028 S 1372.83 -4.37867 0.286055 0
M  V30 14029 H 1369.65 -0.693826 0.155325 0
M  V30 14030 H 1372.25 -1.64037 1.06359 0
M  V30 14031 H 1370.96 -3.76511 1.63302 0
M  V30 14032 H 1370.49 -3.93345 -0.0659441 0
M  V30 14033 H 1372.5 -4.87936 -0.901832 0
M  V30 14034 N 1371.68 -0.573274 -1.46804 0
M  V30 14035 C 1372.9 -0.0586717 -2.07317 0
M  V30 14036 C 1373.33 1.2328 -1.42069 0
M  V30 14037 O 1372.68 1.74235 -0.501188 0
M  V30 14038 C 1372.73 0.103503 -3.60451 0
M  V30 14039 O 1371.84 1.16229 -3.95682 0
M  V30 14040 H 1371.18 -0.0585504 -0.661414 0
M  V30 14041 H 1373.71 -0.793532 -1.88585 0
M  V30 14042 H 1373.72 0.312658 -4.068 0
M  V30 14043 H 1372.39 -0.839684 -4.07335 0
M  V30 14044 H 1370.97 0.932347 -3.61056 0
M  V30 14045 N 1373.15 1.5451 -0.310553 0
M  V30 14046 C 1374.38 2.05204 0.301013 0
M  V30 14047 C 1374.8 1.1859 1.46007 0
M  V30 14048 O 1374.16 0.192081 1.8028 0
M  V30 14049 C 1374.21 3.53221 0.725767 0
M  V30 14050 O 1373.31 3.69596 1.82955 0
M  V30 14051 H 1372.66 0.661566 0.0568026 0
M  V30 14052 H 1375.19 1.99473 -0.455178 0
M  V30 14053 H 1375.2 3.9525 1.01198 0
M  V30 14054 H 1373.87 4.15721 -0.122046 0
M  V30 14055 H 1372.45 3.39472 1.54315 0
M  V30 14056 N 1374.63 0.0384594 1.57553 0
M  V30 14057 C 1375.88 -0.636879 1.91803 0
M  V30 14058 C 1376.2 -1.72128 0.916347 0
M  V30 14059 O 1375.47 -1.95858 -0.0407405 0
M  V30 14060 H 1374.05 -0.238237 0.707992 0
M  V30 14061 H 1376.71 0.0884651 1.94699 0
M  V30 14062 H 1375.81 -1.08364 2.92683 0
M  V30 14063 N 1376.11 -1.55841 -0.234795 0
M  V30 14064 C 1377.36 -1.77886 -0.959217 0
M  V30 14065 C 1377.68 -0.604621 -1.8539 0
M  V30 14066 O 1376.95 0.379092 -1.92197 0
M  V30 14067 H 1375.53 -0.656077 -0.357172 0
M  V30 14068 H 1378.19 -1.93292 -0.249831 0
M  V30 14069 H 1377.29 -2.69512 -1.57383 0
M  V30 14070 N 1377.59 0.500963 -1.49426 0
M  V30 14071 C 1378.84 1.25261 -1.58601 0
M  V30 14072 C 1379.16 1.93056 -0.274647 0
M  V30 14073 O 1378.43 1.82736 0.706003 0
M  V30 14074 H 1377.01 0.465328 -0.584362 0
M  V30 14075 H 1379.67 0.580588 -1.86052 0
M  V30 14076 H 1378.77 2.01652 -2.38208 0
M  V30 14077 N 1379.07 1.38501 0.752011 0
M  V30 14078 C 1380.32 1.34529 1.50819 0
M  V30 14079 C 1380.64 -0.0636155 1.94896 0
M  V30 14080 O 1379.91 -1.01161 1.6776 0
M  V30 14081 H 1378.49 0.49501 0.559441 0
M  V30 14082 H 1381.15 1.73196 0.893822 0
M  V30 14083 H 1380.24 1.99713 2.39835 0
M  V30 14084 N 1380.55 -0.980364 1.23396 0
M  V30 14085 C 1381.79 -1.71826 1.06397 0
M  V30 14086 C 1382.11 -1.90854 -0.399958 0
M  V30 14087 O 1381.38 -1.47721 -1.28668 0
M  V30 14088 H 1379.96 -0.636669 0.390719 0
M  V30 14089 H 1382.63 -1.18008 1.55113 0
M  V30 14090 H 1381.72 -2.7078 1.55192 0
M  V30 14091 N 1382.02 -1.04567 -1.17913 0
M  V30 14092 C 1383.27 -0.750538 -1.87647 0
M  V30 14093 C 1383.59 0.72423 -1.81052 0
M  V30 14094 O 1382.86 1.52292 -1.23223 0
M  V30 14095 H 1381.44 -0.274636 -0.694683 0
M  V30 14096 H 1384.1 -1.32349 -1.43072 0
M  V30 14097 H 1383.2 -1.05987 -2.93553 0
M  V30 14098 N 1383.5 1.34231 -0.825823 0
M  V30 14099 C 1384.73 2.02124 -0.427727 0
M  V30 14100 C 1385.14 1.62331 0.971869 0
M  V30 14101 O 1384.48 0.825946 1.64085 0
M  V30 14102 C 1384.54 3.56626 -0.453698 0
M  V30 14103 C 1384.21 4.19752 -1.80713 0
M  V30 14104 C 1385.21 4.40062 -2.76842 0
M  V30 14105 C 1382.89 4.5646 -2.09641 0
M  V30 14106 C 1384.88 4.9621 -4.00069 0
M  V30 14107 C 1382.57 5.12318 -3.33127 0
M  V30 14108 C 1383.57 5.32137 -4.28158 0
M  V30 14109 O 1383.26 5.86811 -5.49462 0
M  V30 14110 H 1382.99 0.654389 -0.169563 0
M  V30 14111 H 1385.54 1.72421 -1.11624 0
M  V30 14112 H 1383.77 3.856 0.291527 0
M  V30 14113 H 1385.46 4.0583 -0.075249 0
M  V30 14114 H 1386.23 4.12064 -2.5579 0
M  V30 14115 H 1382.11 4.40337 -1.36473 0
M  V30 14116 H 1385.65 5.11594 -4.74254 0
M  V30 14117 H 1381.55 5.39746 -3.54041 0
M  V30 14118 H 1382.32 6.05242 -5.51022 0
M  V30 14119 N 1384.98 0.581051 1.46498 0
M  V30 14120 C 1386.23 0.0637189 2.01599 0
M  V30 14121 C 1386.54 -1.30353 1.45834 0
M  V30 14122 O 1387.75 -1.91211 1.92745 0
M  V30 14123 C 1386.2 0.0633254 3.59844 0
M  V30 14124 C 1385.81 1.42879 4.24605 0
M  V30 14125 C 1387.56 -0.400149 4.2261 0
M  V30 14126 C 1385.46 1.38621 5.74924 0
M  V30 14127 H 1384.39 0.0200512 0.753733 0
M  V30 14128 H 1387.04 0.732451 1.68248 0
M  V30 14129 H 1385.43 -0.671538 3.90264 0
M  V30 14130 H 1386.6 2.18325 4.05796 0
M  V30 14131 H 1384.91 1.83215 3.73927 0
M  V30 14132 H 1387.51 -0.450771 5.32797 0
M  V30 14133 H 1387.85 -1.41733 3.9143 0
M  V30 14134 H 1388.39 0.280598 3.96809 0
M  V30 14135 H 1385.13 2.38014 6.10761 0
M  V30 14136 H 1384.65 0.673926 5.96002 0
M  V30 14137 H 1386.33 1.09841 6.37608 0
M  V30 14138 N 1386.46 -1.54343 0.318742 0
M  V30 14139 C 1387.71 -2.00084 -0.284713 0
M  V30 14140 C 1388.03 -1.20855 -1.53033 0
M  V30 14141 O 1387.3 -0.309104 -1.93446 0
M  V30 14142 H 1385.88 -0.739123 -0.108193 0
M  V30 14143 H 1388.54 -1.90002 0.434174 0
M  V30 14144 H 1387.63 -3.07314 -0.544459 0
M  V30 14145 N 1387.94 -0.0468143 -1.5753 0
M  V30 14146 C 1389.18 0.626699 -1.92138 0
M  V30 14147 C 1389.5 1.7164 -0.925463 0
M  V30 14148 O 1388.77 1.95876 0.0303531 0
M  V30 14149 H 1387.35 0.234479 -0.709245 0
M  V30 14150 H 1390.02 -0.0987892 -1.94649 0
M  V30 14151 H 1389.11 1.06811 -2.93254 0
M  V30 14152 N 1389.41 1.55964 0.226527 0
M  V30 14153 C 1390.36 1.92857 1.30034 0
M  V30 14154 C 1391.36 0.810008 1.48779 0
M  V30 14155 O 1392.56 0.994801 1.50012 0
M  V30 14156 H 1388.94 0.612807 0.435857 0
M  V30 14157 H 1390.91 2.82469 0.96196 0
M  V30 14158 C 1389.66 2.25735 2.6446 0
M  V30 14159 H 1388.98 3.11317 2.50842 0
M  V30 14160 H 1390.42 2.55437 3.3842 0
M  V30 14161 C 1388.88 1.08074 3.19095 0
M  V30 14162 O 1389.41 0.339279 4.00265 0
M  V30 14163 N 1387.62 0.86589 2.774 0
M  V30 14164 H 1387.16 1.47055 2.11501 0
M  V30 14165 H 1387.12 0.0803566 3.14297 0
M  V30 14166 N 1390.89 -0.493031 1.4969 0
M  V30 14167 C 1391.86 -1.57598 1.6642 0
M  V30 14168 C 1392.86 -1.51615 0.535668 0
M  V30 14169 O 1394.05 -1.54626 0.802283 0
M  V30 14170 C 1391.18 -2.97249 1.66901 0
M  V30 14171 H 1392.37 -1.4409 2.63017 0
M  V30 14172 H 1389.92 -0.717846 1.3884 0
M  V30 14173 H 1390.66 -3.16225 0.719164 0
M  V30 14174 H 1390.44 -3.02999 2.48865 0
M  V30 14175 H 1391.93 -3.75914 1.81874 0
M  V30 14176 N 1392.37 -1.38898 -0.744656 0
M  V30 14177 C 1393.33 -1.36633 -1.84022 0
M  V30 14178 C 1394.33 -0.265187 -1.58598 0
M  V30 14179 O 1395.52 -0.522569 -1.66177 0
M  V30 14180 C 1392.66 -1.12938 -3.21649 0
M  V30 14181 H 1393.85 -2.34111 -1.87435 0
M  V30 14182 H 1391.4 -1.24322 -0.947302 0
M  V30 14183 H 1392.14 -0.161027 -3.239 0
M  V30 14184 H 1391.92 -1.9267 -3.41498 0
M  V30 14185 H 1393.41 -1.14071 -4.01718 0
M  V30 14186 N 1393.85 0.973806 -1.23914 0
M  V30 14187 C 1395.07 1.7564 -1.10296 0
M  V30 14188 C 1395.5 1.84984 0.340954 0
M  V30 14189 O 1394.86 1.31629 1.24674 0
M  V30 14190 C 1394.9 3.15809 -1.7406 0
M  V30 14191 O 1394.01 3.99911 -1.00722 0
M  V30 14192 H 1393.35 0.540133 -0.386202 0
M  V30 14193 H 1395.88 1.22197 -1.64101 0
M  V30 14194 H 1395.89 3.66359 -1.79568 0
M  V30 14195 H 1394.56 3.08324 -2.79122 0
M  V30 14196 H 1393.14 3.58405 -1.02956 0
M  V30 14197 N 1395.33 1.05191 1.17357 0
M  V30 14198 C 1396.27 0.646796 2.23426 0
M  V30 14199 C 1397.27 -0.331918 1.66116 0
M  V30 14200 O 1398.47 -0.197982 1.78908 0
M  V30 14201 H 1394.85 0.190988 0.727343 0
M  V30 14202 H 1396.82 1.55152 2.54893 0
M  V30 14203 C 1395.57 0.037505 3.4768 0
M  V30 14204 H 1394.89 0.781686 3.92084 0
M  V30 14205 H 1396.33 -0.20858 4.23487 0
M  V30 14206 C 1394.79 -1.21581 3.14197 0
M  V30 14207 O 1395.32 -2.3052 3.28973 0
M  V30 14208 N 1393.53 -1.11346 2.68422 0
M  V30 14209 H 1393.07 -0.226943 2.56598 0
M  V30 14210 H 1393.03 -1.95291 2.46392 0
M  V30 14211 N 1396.8 -1.33791 0.83293 0
M  V30 14212 C 1397.75 -2.31249 0.250357 0
M  V30 14213 C 1398.75 -1.57865 -0.614403 0
M  V30 14214 O 1399.95 -1.72782 -0.504627 0
M  V30 14215 H 1396.33 -0.749421 0.0622268 0
M  V30 14216 H 1398.3 -2.77899 1.08697 0
M  V30 14217 C 1397.05 -3.43082 -0.564783 0
M  V30 14218 H 1396.37 -3.99696 0.0913189 0
M  V30 14219 H 1397.81 -4.13486 -0.938351 0
M  V30 14220 C 1396.27 -2.88414 -1.74124 0
M  V30 14221 O 1396.8 -2.84113 -2.83976 0
M  V30 14222 N 1395.01 -2.45101 -1.56121 0
M  V30 14223 H 1394.55 -2.48799 -0.667607 0
M  V30 14224 H 1394.51 -2.08875 -2.34986 0
M  V30 14225 N 1398.28 -0.588812 -1.46187 0
M  V30 14226 C 1399.56 -0.00958331 -1.95598 0
M  V30 14227 C 1399.94 1.45294 -1.53144 0
M  V30 14228 O 1399.29 2.14592 -0.785015 0
M  V30 14229 C 1399.5 -0.188018 -3.48493 0
M  V30 14230 C 1400.85 -0.0590152 -4.24559 0
M  V30 14231 O 1401.87 -0.117167 -3.56007 0
M  V30 14232 O 1400.73 0.0715924 -5.46453 0
M  V30 14233 H 1397.82 0.0463708 -0.825699 0
M  V30 14234 H 1400.37 -0.657558 -1.56443 0
M  V30 14235 H 1399.14 -1.20449 -3.723 0
M  V30 14236 H 1398.76 0.496103 -3.94493 0
M  V30 14237 N 1399.76 1.54172 -0.326923 0
M  V30 14238 C 1401.17 1.86009 0.160446 0
M  V30 14239 C 1401.52 1.24851 1.51349 0
M  V30 14240 O 1400.65 0.555804 2.09141 0
M  V30 14241 C 1401.24 3.37488 0.297909 0
M  V30 14242 C 1399.8 3.69263 0.7295 0
M  V30 14243 C 1398.95 2.76911 -0.146778 0
M  V30 14244 H 1401.9 1.48972 -0.547093 0
M  V30 14245 H 1401.92 3.63388 1.12825 0
M  V30 14246 H 1401.43 3.81971 -0.687007 0
M  V30 14247 H 1399.53 3.30314 1.72404 0
M  V30 14248 H 1399.65 4.76149 0.53092 0
M  V30 14249 H 1398.01 2.51876 0.378212 0
M  V30 14250 H 1398.79 3.24221 -1.12852 0
M  V30 14251 N 1401.24 0.0551678 1.57503 0
M  V30 14252 C 1402.15 -0.932959 2.15251 0
M  V30 14253 C 1403.16 -1.33885 1.11134 0
M  V30 14254 O 1404.34 -1.41495 1.43321 0
M  V30 14255 C 1401.41 -2.18807 2.68932 0
M  V30 14256 C 1400.47 -1.84016 3.87862 0
M  V30 14257 C 1399.7 -3.03543 4.38973 0
M  V30 14258 O 1399.92 -4.17041 3.89144 0
M  V30 14259 O 1398.86 -2.84325 5.30512 0
M  V30 14260 H 1402.68 -0.471816 3.00013 0
M  V30 14261 H 1400.27 -0.16696 1.48464 0
M  V30 14262 H 1402.15 -2.92439 3.0341 0
M  V30 14263 H 1400.82 -2.64051 1.87239 0
M  V30 14264 H 1399.73 -1.07687 3.58266 0
M  V30 14265 H 1401.06 -1.43567 4.70796 0
M  V30 14266 N 1402.72 -1.56081 -0.218252 0
M  V30 14267 C 1403.65 -1.87704 -1.29779 0
M  V30 14268 C 1404.63 -0.734747 -1.45053 0
M  V30 14269 O 1405.81 -0.98344 -1.60813 0
M  V30 14270 C 1402.94 -2.08695 -2.66766 0
M  V30 14271 C 1401.98 -3.31385 -2.68489 0
M  V30 14272 S 1402.82 -4.87212 -2.22227 0
M  V30 14273 C 1403.97 -5.11243 -3.61083 0
M  V30 14274 H 1404.21 -2.78975 -1.02762 0
M  V30 14275 H 1401.74 -1.48559 -0.420653 0
M  V30 14276 H 1403.7 -2.21472 -3.4563 0
M  V30 14277 H 1402.36 -1.18215 -2.91005 0
M  V30 14278 H 1401.55 -3.43127 -3.69161 0
M  V30 14279 H 1401.15 -3.17482 -1.9769 0
M  V30 14280 H 1403.45 -5.00344 -4.56796 0
M  V30 14281 H 1404.39 -6.13115 -3.54254 0
M  V30 14282 H 1404.8 -4.38964 -3.54924 0
M  V30 14283 N 1404.2 0.485086 -1.49949 0
M  V30 14284 C 1405.47 1.24639 -1.50747 0
M  V30 14285 C 1405.85 2.09683 -0.244162 0
M  V30 14286 O 1405.2 2.1503 0.772949 0
M  V30 14287 C 1405.41 2.08946 -2.7954 0
M  V30 14288 C 1406.76 2.67604 -3.29656 0
M  V30 14289 O 1407.78 2.192 -2.80766 0
M  V30 14290 O 1406.64 3.55761 -4.14845 0
M  V30 14291 H 1403.74 0.564849 -0.604049 0
M  V30 14292 H 1406.28 0.498052 -1.62227 0
M  V30 14293 H 1405.05 1.46185 -3.62968 0
M  V30 14294 H 1404.68 2.90941 -2.70997 0
M  V30 14295 N 1405.67 1.39291 0.737279 0
M  V30 14296 C 1406.92 1.36121 1.49384 0
M  V30 14297 C 1407.24 -0.0429406 1.94953 0
M  V30 14298 O 1406.51 -0.993756 1.68823 0
M  V30 14299 H 1405.09 0.500916 0.554159 0
M  V30 14300 H 1407.75 1.74134 0.875402 0
M  V30 14301 H 1406.85 2.02246 2.37704 0
M  V30 14302 N 1407.15 -0.967221 1.24429 0
M  V30 14303 C 1408.06 -2.09582 1.05417 0
M  V30 14304 C 1409.08 -1.73999 -0.00516127 0
M  V30 14305 O 1410.25 -2.00472 0.193115 0
M  V30 14306 C 1407.32 -3.40327 0.661697 0
M  V30 14307 C 1406.38 -3.89854 1.79756 0
M  V30 14308 C 1405.61 -5.1436 1.42372 0
M  V30 14309 O 1405.84 -5.69536 0.313754 0
M  V30 14310 O 1404.77 -5.58283 2.24952 0
M  V30 14311 H 1408.6 -2.28517 2.00034 0
M  V30 14312 H 1406.18 -1.07978 1.03253 0
M  V30 14313 H 1408.06 -4.18943 0.454369 0
M  V30 14314 H 1406.74 -3.22691 -0.255348 0
M  V30 14315 H 1405.64 -3.12297 2.05964 0
M  V30 14316 H 1406.98 -4.11967 2.69339 0
M  V30 14317 N 1408.63 -1.05812 -1.16797 0
M  V30 14318 C 1409.91 -0.685551 -1.83193 0
M  V30 14319 C 1410.29 0.833539 -1.93947 0
M  V30 14320 O 1409.63 1.74193 -1.47882 0
M  V30 14321 C 1409.84 -1.38183 -3.20479 0
M  V30 14322 C 1411.19 -1.52389 -3.96311 0
M  V30 14323 O 1412.22 -1.34134 -3.2998 0
M  V30 14324 O 1411.08 -1.82297 -5.15199 0
M  V30 14325 H 1408.17 -0.242095 -0.790771 0
M  V30 14326 H 1410.72 -1.15809 -1.24041 0
M  V30 14327 H 1409.49 -2.41791 -3.07657 0
M  V30 14328 H 1409.11 -0.899043 -3.87302 0
M  V30 14329 N 1410.11 1.33347 -0.840014 0
M  V30 14330 C 1411.36 1.97354 -0.435412 0
M  V30 14331 C 1411.68 1.66866 1.009 0
M  V30 14332 O 1410.95 0.968186 1.70303 0
M  V30 14333 H 1409.53 0.730096 -0.158017 0
M  V30 14334 H 1412.19 1.6269 -1.07322 0
M  V30 14335 H 1411.28 3.0688 -0.56841 0
M  V30 14336 N 1411.59 0.596556 1.45873 0
M  V30 14337 C 1412.83 0.0875879 2.02611 0
M  V30 14338 C 1413.16 -1.27438 1.46538 0
M  V30 14339 O 1412.44 -1.83815 0.635779 0
M  V30 14340 C 1412.72 0.0367394 3.60081 0
M  V30 14341 C 1412.58 1.42859 4.26511 0
M  V30 14342 C 1413.89 -0.656795 4.35171 0
M  V30 14343 H 1411.01 0.0333031 0.736247 0
M  V30 14344 H 1413.66 0.766413 1.73857 0
M  V30 14345 H 1411.81 -0.541345 3.8471 0
M  V30 14346 H 1413.48 2.0529 4.13102 0
M  V30 14347 H 1411.72 1.99243 3.85337 0
M  V30 14348 H 1412.39 1.34535 5.35354 0
M  V30 14349 H 1414.87 -0.165553 4.15771 0
M  V30 14350 H 1413.74 -0.661445 5.449 0
M  V30 14351 H 1414 -1.72079 4.07236 0
M  V30 14352 N 1413.06 -1.53996 0.335095 0
M  V30 14353 C 1414.29 -2.05657 -0.268328 0
M  V30 14354 C 1414.71 -1.20897 -1.44102 0
M  V30 14355 O 1414.07 -0.220737 -1.79951 0
M  V30 14356 C 1414.12 -3.54331 -0.669481 0
M  V30 14357 O 1413.22 -3.7246 -1.77052 0
M  V30 14358 H 1412.56 -0.662386 -0.0462705 0
M  V30 14359 H 1415.09 -1.98723 0.486854 0
M  V30 14360 H 1415.1 -3.9681 -0.948971 0
M  V30 14361 H 1413.78 -4.15474 0.188168 0
M  V30 14362 H 1412.36 -3.41884 -1.48895 0
M  V30 14363 N 1414.54 -0.0635198 -1.57472 0
M  V30 14364 C 1415.79 0.607484 -1.93173 0
M  V30 14365 C 1416.12 1.70117 -0.942897 0
M  V30 14366 O 1415.37 1.95653 0.042832 0
M  V30 14367 C 1415.67 1.23117 -3.35525 0
M  V30 14368 C 1415.34 0.264457 -4.50124 0
M  V30 14369 C 1414 -0.00151762 -4.812 0
M  V30 14370 C 1416.35 -0.39737 -5.19683 0
M  V30 14371 C 1413.68 -0.936547 -5.79177 0
M  V30 14372 C 1416.03 -1.32067 -6.18661 0
M  V30 14373 C 1414.69 -1.59519 -6.48159 0
M  V30 14374 H 1413.96 0.222294 -0.706871 0
M  V30 14375 H 1416.61 -0.132633 -1.9104 0
M  V30 14376 H 1414.92 2.04684 -3.34084 0
M  V30 14377 H 1416.61 1.7575 -3.60434 0
M  V30 14378 H 1413.2 0.481945 -4.25882 0
M  V30 14379 H 1417.39 -0.20499 -4.95876 0
M  V30 14380 H 1412.64 -1.15658 -6.00361 0
M  V30 14381 H 1416.82 -1.83949 -6.71666 0
M  V30 14382 H 1414.44 -2.32134 -7.23891 0
M  V30 14383 N 1416.02 1.56195 0.209972 0
M  V30 14384 C 1417.27 1.78941 0.930744 0
M  V30 14385 C 1417.58 0.634139 1.85035 0
M  V30 14386 O 1418.79 0.745524 2.61064 0
M  V30 14387 C 1417.24 3.16935 1.70529 0
M  V30 14388 C 1416.85 4.40221 0.83125 0
M  V30 14389 C 1418.6 3.49 2.41659 0
M  V30 14390 C 1416.5 5.69238 1.60381 0
M  V30 14391 H 1415.43 0.667176 0.351273 0
M  V30 14392 H 1418.08 1.82572 0.184341 0
M  V30 14393 H 1416.47 3.07513 2.49503 0
M  V30 14394 H 1417.64 4.60728 0.081227 0
M  V30 14395 H 1415.95 4.15756 0.231517 0
M  V30 14396 H 1418.55 4.42623 2.99982 0
M  V30 14397 H 1418.89 2.72042 3.15117 0
M  V30 14398 H 1419.43 3.59804 1.69665 0
M  V30 14399 H 1416.17 6.49121 0.912292 0
M  V30 14400 H 1415.69 5.52772 2.32815 0
M  V30 14401 H 1417.37 6.09827 2.16149 0
M  V30 14402 N 1417.5 -0.477127 1.50204 0
M  V30 14403 C 1418.72 -1.25775 1.6491 0
M  V30 14404 C 1419.15 -1.85187 0.329765 0
M  V30 14405 O 1418.51 -1.67004 -0.705641 0
M  V30 14406 C 1418.55 -2.3466 2.73801 0
M  V30 14407 O 1417.66 -3.39147 2.34634 0
M  V30 14408 H 1417 -0.370291 0.551163 0
M  V30 14409 H 1419.53 -0.568514 1.96543 0
M  V30 14410 H 1419.54 -2.80065 2.96695 0
M  V30 14411 H 1418.21 -1.90788 3.69557 0
M  V30 14412 H 1416.79 -2.99496 2.22163 0
M  V30 14413 N 1418.98 -1.3968 -0.729882 0
M  V30 14414 C 1420.39 -1.33184 -1.30839 0
M  V30 14415 C 1420.74 0.00141129 -1.962 0
M  V30 14416 O 1419.86 0.903523 -1.96635 0
M  V30 14417 C 1420.46 -2.41211 -2.37913 0
M  V30 14418 C 1419.02 -2.3822 -2.91424 0
M  V30 14419 C 1418.16 -2.22832 -1.65049 0
M  V30 14420 H 1421.12 -1.49694 -0.527023 0
M  V30 14421 H 1421.14 -2.08294 -3.18424 0
M  V30 14422 H 1420.65 -3.38234 -1.90313 0
M  V30 14423 H 1418.75 -1.4485 -3.43292 0
M  V30 14424 H 1418.86 -3.33271 -3.44191 0
M  V30 14425 H 1417.23 -1.70095 -1.89578 0
M  V30 14426 H 1418.01 -3.21832 -1.19494 0
M  V30 14427 N 1420.45 0.960609 -1.2494 0
M  V30 14428 C 1421.38 2.074 -1.07274 0
M  V30 14429 C 1422.37 1.70092 0.0164365 0
M  V30 14430 O 1423.55 1.93604 -0.151975 0
M  V30 14431 C 1420.68 3.40491 -0.684317 0
M  V30 14432 C 1419.63 3.91784 -1.72306 0
M  V30 14433 C 1418.96 5.21301 -1.18949 0
M  V30 14434 C 1420.26 4.18829 -3.12056 0
M  V30 14435 H 1421.95 2.22438 -2.00404 0
M  V30 14436 H 1419.5 1.06888 -0.964937 0
M  V30 14437 H 1421.45 4.17826 -0.547686 0
M  V30 14438 H 1420.18 3.25374 0.282687 0
M  V30 14439 H 1418.84 3.16613 -1.84802 0
M  V30 14440 H 1418.48 5.02549 -0.212892 0
M  V30 14441 H 1418.18 5.56588 -1.8837 0
M  V30 14442 H 1419.71 6.01238 -1.06513 0
M  V30 14443 H 1421.12 4.86844 -3.02748 0
M  V30 14444 H 1419.52 4.6536 -3.78894 0
M  V30 14445 H 1420.59 3.25333 -3.59564 0
M  V30 14446 N 1421.93 1.0643 1.16234 0
M  V30 14447 C 1423.18 0.780296 1.86429 0
M  V30 14448 C 1423.5 -0.695335 1.82181 0
M  V30 14449 O 1422.77 -1.50312 1.2563 0
M  V30 14450 H 1421.35 0.285654 0.690225 0
M  V30 14451 H 1424.01 1.34609 1.40949 0
M  V30 14452 H 1423.11 1.10644 2.91829 0
M  V30 14453 N 1423.41 -1.329 0.847073 0
M  V30 14454 C 1424.66 -1.96774 0.443022 0
M  V30 14455 C 1424.97 -1.67813 -1.0049 0
M  V30 14456 O 1426.18 -2.25366 -1.51402 0
M  V30 14457 C 1424.63 -3.52184 0.741268 0
M  V30 14458 C 1424.24 -3.90013 2.20441 0
M  V30 14459 C 1425.99 -4.22568 0.404569 0
M  V30 14460 C 1423.89 -5.38434 2.44627 0
M  V30 14461 H 1422.82 -0.736406 0.161932 0
M  V30 14462 H 1425.47 -1.51402 1.0368 0
M  V30 14463 H 1423.86 -3.95925 0.0770158 0
M  V30 14464 H 1425.03 -3.57304 2.90982 0
M  V30 14465 H 1423.35 -3.32633 2.50489 0
M  V30 14466 H 1425.94 -5.3173 0.562795 0
M  V30 14467 H 1426.29 -4.11144 -0.653172 0
M  V30 14468 H 1426.82 -3.84384 1.0244 0
M  V30 14469 H 1423.56 -5.5487 3.48997 0
M  V30 14470 H 1423.08 -5.72575 1.78656 0
M  V30 14471 H 1424.76 -6.05423 2.28194 0
M  V30 14472 N 1424.89 -0.604284 -1.45555 0
M  V30 14473 C 1425.82 0.103859 -2.33269 0
M  V30 14474 C 1426.8 0.862104 -1.46635 0
M  V30 14475 O 1427.98 0.833308 -1.75413 0
M  V30 14476 C 1425.11 1.104 -3.29286 0
M  V30 14477 C 1424.07 0.459189 -4.2553 0
M  V30 14478 C 1423.39 1.56734 -5.11213 0
M  V30 14479 C 1424.69 -0.617509 -5.18637 0
M  V30 14480 H 1426.39 -0.628538 -2.92728 0
M  V30 14481 H 1423.93 -0.303711 -1.40761 0
M  V30 14482 H 1425.89 1.60794 -3.89517 0
M  V30 14483 H 1424.61 1.86695 -2.67979 0
M  V30 14484 H 1423.27 -0.0238508 -3.66592 0
M  V30 14485 H 1422.92 2.32049 -4.46276 0
M  V30 14486 H 1422.62 1.14142 -5.76407 0
M  V30 14487 H 1424.14 2.07361 -5.74312 0
M  V30 14488 H 1425.56 -0.197784 -5.72959 0
M  V30 14489 H 1423.95 -0.96499 -5.9229 0
M  V30 14490 H 1425.02 -1.49541 -4.61265 0
M  V30 14491 N 1426.37 1.53816 -0.343257 0
M  V30 14492 C 1427.6 2.05028 0.254375 0
M  V30 14493 C 1428 1.21793 1.44786 0
M  V30 14494 O 1427.35 0.246075 1.82044 0
M  V30 14495 C 1427.41 3.5194 0.733364 0
M  V30 14496 C 1427.07 4.5573 -0.340434 0
M  V30 14497 C 1428.07 5.06261 -1.18304 0
M  V30 14498 C 1425.76 4.99862 -0.494277 0
M  V30 14499 C 1427.75 5.99504 -2.16503 0
M  V30 14500 C 1425.44 5.92916 -1.47967 0
M  V30 14501 C 1426.43 6.42625 -2.3135 0
M  V30 14502 O 1426.12 7.33848 -3.28211 0
M  V30 14503 H 1425.85 0.673922 0.0529695 0
M  V30 14504 H 1428.41 1.99387 -0.493352 0
M  V30 14505 H 1426.64 3.55044 1.53233 0
M  V30 14506 H 1428.33 3.86124 1.25151 0
M  V30 14507 H 1429.09 4.7293 -1.07527 0
M  V30 14508 H 1424.97 4.60772 0.144904 0
M  V30 14509 H 1428.52 6.38227 -2.81624 0
M  V30 14510 H 1424.41 6.25662 -1.588 0
M  V30 14511 H 1425.18 7.51781 -3.23679 0
M  V30 14512 N 1427.84 0.0718701 1.57436 0
M  V30 14513 C 1429.07 -0.606253 1.97819 0
M  V30 14514 C 1429.49 -1.63144 0.950233 0
M  V30 14515 O 1428.84 -1.82391 -0.0631051 0
M  V30 14516 C 1428.9 -1.27476 3.38278 0
M  V30 14517 O 1428.62 -0.290603 4.37135 0
M  V30 14518 C 1430.12 -2.0407 3.93536 0
M  V30 14519 H 1427.34 -0.164305 0.650573 0
M  V30 14520 H 1429.88 0.144295 2.0399 0
M  V30 14521 H 1428.04 -1.97639 3.33193 0
M  V30 14522 H 1428.45 -0.77022 5.18814 0
M  V30 14523 H 1429.92 -2.46237 4.94036 0
M  V30 14524 H 1430.4 -2.89728 3.30083 0
M  V30 14525 H 1431.01 -1.38773 4.02022 0
M  V30 14526 N 1429.32 -1.56304 -0.201686 0
M  V30 14527 C 1430.73 -1.7022 -0.766953 0
M  V30 14528 C 1431.08 -0.677318 -1.84138 0
M  V30 14529 O 1430.21 0.167604 -2.1575 0
M  V30 14530 C 1430.8 -3.08615 -1.39795 0
M  V30 14531 C 1429.36 -3.24317 -1.91037 0
M  V30 14532 C 1428.51 -2.66167 -0.777853 0
M  V30 14533 H 1431.46 -1.58683 0.0232884 0
M  V30 14534 H 1431.48 -3.05578 -2.26721 0
M  V30 14535 H 1430.99 -3.83185 -0.615728 0
M  V30 14536 H 1429.1 -2.54652 -2.71999 0
M  V30 14537 H 1429.21 -4.31753 -2.07669 0
M  V30 14538 H 1427.57 -2.25169 -1.19042 0
M  V30 14539 H 1428.36 -3.43299 -0.00798179 0
M  V30 14540 N 1430.8 0.469154 -1.50455 0
M  V30 14541 C 1431.76 1.5493 -1.68906 0
M  V30 14542 C 1432.76 1.50744 -0.559721 0
M  V30 14543 O 1433.95 1.5333 -0.826781 0
M  V30 14544 C 1431.09 2.94556 -1.71609 0
M  V30 14545 H 1432.28 1.39887 -2.65276 0
M  V30 14546 H 1429.83 0.695667 -1.39965 0
M  V30 14547 H 1430.57 3.15041 -0.769382 0
M  V30 14548 H 1430.35 2.99002 -2.53654 0
M  V30 14549 H 1431.84 3.72973 -1.87831 0
M  V30 14550 N 1432.28 1.40065 0.722464 0
M  V30 14551 C 1433.21 1.42532 1.84951 0
M  V30 14552 C 1434.19 0.287082 1.6766 0
M  V30 14553 O 1435.37 0.494715 1.87793 0
M  V30 14554 C 1432.5 1.28041 3.22836 0
M  V30 14555 C 1431.46 2.39396 3.54787 0
M  V30 14556 C 1430.78 2.09986 4.91742 0
M  V30 14557 C 1432.08 3.81729 3.56483 0
M  V30 14558 H 1433.78 2.36851 1.83144 0
M  V30 14559 H 1431.32 1.14005 0.879714 0
M  V30 14560 H 1433.28 1.28385 4.01367 0
M  V30 14561 H 1432 0.301947 3.25201 0
M  V30 14562 H 1430.66 2.3829 2.78592 0
M  V30 14563 H 1430.31 1.10547 4.90702 0
M  V30 14564 H 1430.01 2.84586 5.14086 0
M  V30 14565 H 1431.53 2.12 5.72615 0
M  V30 14566 H 1432.95 3.84696 4.25067 0
M  V30 14567 H 1431.34 4.55791 3.90351 0
M  V30 14568 H 1432.41 4.11807 2.56014 0
M  V30 14569 N 1433.76 -0.95397 1.25448 0
M  V30 14570 C 1434.7 -2.05075 1.0589 0
M  V30 14571 C 1435.67 -1.66069 -0.0321545 0
M  V30 14572 O 1436.86 -1.90389 0.125152 0
M  V30 14573 C 1434 -3.38246 0.684391 0
M  V30 14574 C 1433.11 -3.90366 1.85037 0
M  V30 14575 C 1432.25 -5.11864 1.42016 0
M  V30 14576 C 1431.29 -5.56214 2.55523 0
M  V30 14577 N 1430.42 -6.68924 2.13272 0
M  V30 14578 H 1435.26 -2.21137 1.99755 0
M  V30 14579 H 1432.8 -1.08366 0.994742 0
M  V30 14580 H 1434.76 -4.14785 0.448209 0
M  V30 14581 H 1433.39 -3.22068 -0.217273 0
M  V30 14582 H 1432.44 -3.1034 2.19984 0
M  V30 14583 H 1433.75 -4.19228 2.70276 0
M  V30 14584 H 1432.91 -5.95823 1.14366 0
M  V30 14585 H 1431.65 -4.84718 0.538492 0
M  V30 14586 H 1430.65 -4.7082 2.83916 0
M  V30 14587 H 1431.88 -5.85368 3.44268 0
M  V30 14588 H 1429.82 -6.43486 1.27523 0
M  V30 14589 H 1429.74 -6.97307 2.92059 0
M  V30 14590 H 1431.01 -7.5629 1.88801 0
M  V30 14591 N 1435.24 -1.07045 -1.15668 0
M  V30 14592 C 1436.48 -0.792908 -1.86657 0
M  V30 14593 C 1436.81 0.679213 -1.81935 0
M  V30 14594 O 1436.09 1.49822 -1.2403 0
M  V30 14595 C 1436.37 -1.2978 -3.35901 0
M  V30 14596 C 1436.23 -2.83424 -3.49272 0
M  V30 14597 C 1437.54 -0.911821 -4.30551 0
M  V30 14598 H 1434.66 -0.289509 -0.677756 0
M  V30 14599 H 1437.31 -1.32769 -1.35913 0
M  V30 14600 H 1435.46 -0.84288 -3.79246 0
M  V30 14601 H 1437.13 -3.37182 -3.14811 0
M  V30 14602 H 1435.37 -3.21777 -2.90933 0
M  V30 14603 H 1436.04 -3.13819 -4.54116 0
M  V30 14604 H 1438.52 -1.30376 -3.95147 0
M  V30 14605 H 1437.39 -1.29247 -5.33467 0
M  V30 14606 H 1437.65 0.18255 -4.41723 0
M  V30 14607 N 1436.71 1.32449 -0.85411 0
M  V30 14608 C 1437.65 2.26901 -0.243148 0
M  V30 14609 C 1438.62 1.50375 0.618558 0
M  V30 14610 O 1439.81 1.79501 0.575479 0
M  V30 14611 C 1436.94 3.32265 0.657108 0
M  V30 14612 C 1435.98 4.26298 -0.131141 0
M  V30 14613 S 1436.81 5.14086 -1.49919 0
M  V30 14614 C 1437.97 6.22973 -0.604632 0
M  V30 14615 H 1438.2 2.78373 -1.04384 0
M  V30 14616 H 1435.74 1.39972 -0.651712 0
M  V30 14617 H 1437.69 3.93447 1.17087 0
M  V30 14618 H 1436.36 2.79578 1.4316 0
M  V30 14619 H 1435.55 5.0094 0.55452 0
M  V30 14620 H 1435.15 3.69531 -0.576469 0
M  V30 14621 H 1437.44 6.7723 0.191348 0
M  V30 14622 H 1438.39 6.95656 -1.32168 0
M  V30 14623 H 1438.79 5.64215 -0.179215 0
M  V30 14624 N 1438.19 0.611994 1.45232 0
M  V30 14625 C 1439.1 -0.105981 2.3436 0
M  V30 14626 C 1440.12 -0.855785 1.515 0
M  V30 14627 O 1441.29 -0.812376 1.84289 0
M  V30 14628 C 1438.36 -1.08794 3.29188 0
M  V30 14629 C 1437.42 -0.339611 4.27955 0
M  V30 14630 C 1436.65 -1.27479 5.18252 0
M  V30 14631 O 1436.88 -2.51279 5.12069 0
M  V30 14632 O 1435.81 -0.769469 5.96961 0
M  V30 14633 H 1439.64 0.626584 2.97166 0
M  V30 14634 H 1437.22 0.37224 1.44688 0
M  V30 14635 H 1439.1 -1.65338 3.8761 0
M  V30 14636 H 1437.78 -1.80145 2.68941 0
M  V30 14637 H 1436.68 0.268408 3.73136 0
M  V30 14638 H 1438.02 0.333501 4.91069 0
M  V30 14639 N 1439.67 -1.53632 0.351409 0
M  V30 14640 C 1440.92 -2.00643 -0.242208 0
M  V30 14641 C 1441.24 -1.24074 -1.50435 0
M  V30 14642 O 1440.51 -0.350067 -1.92747 0
M  V30 14643 H 1439.09 -0.741252 -0.0924904 0
M  V30 14644 H 1441.75 -1.89039 0.474379 0
M  V30 14645 H 1440.85 -3.084 -0.479151 0
M  V30 14646 N 1441.15 -0.0802183 -1.57396 0
M  V30 14647 C 1442.1 0.894334 -2.09728 0
M  V30 14648 C 1443.08 1.25342 -1.00887 0
M  V30 14649 O 1444.27 1.23099 -1.27184 0
M  V30 14650 C 1441.4 2.15885 -2.66924 0
M  V30 14651 C 1440.49 1.82587 -3.82783 0
M  V30 14652 N 1440.88 1.19777 -4.91413 0
M  V30 14653 C 1439.18 2.12287 -3.92237 0
M  V30 14654 C 1439.88 1.04758 -5.72189 0
M  V30 14655 N 1438.85 1.56005 -5.20733 0
M  V30 14656 H 1442.66 0.404523 -2.91103 0
M  V30 14657 H 1440.17 0.123432 -1.6193 0
M  V30 14658 H 1442.17 2.8663 -3.02736 0
M  V30 14659 H 1440.83 2.65446 -1.86998 0
M  V30 14660 H 1441.84 0.866384 -5.10602 0
M  V30 14661 H 1438.52 2.64166 -3.23299 0
M  V30 14662 H 1439.91 0.55756 -6.69583 0
M  V30 14663 N 1442.63 1.56409 0.193394 0
M  V30 14664 C 1443.87 1.80367 0.911717 0
M  V30 14665 C 1444.19 0.653561 1.83721 0
M  V30 14666 O 1443.46 -0.328001 1.93135 0
M  V30 14667 H 1442.04 0.665316 0.339652 0
M  V30 14668 H 1444.71 1.93887 0.198496 0
M  V30 14669 H 1443.8 2.7359 1.50182 0
M  V30 14670 N 1444.1 -0.461169 1.50702 0
M  V30 14671 C 1445.01 -1.58355 1.73092 0
M  V30 14672 C 1446.03 -1.62795 0.61431 0
M  V30 14673 O 1447.21 -1.8048 0.893806 0
M  V30 14674 C 1444.27 -2.94509 1.82936 0
M  V30 14675 C 1443.33 -3.00378 3.06711 0
M  V30 14676 C 1442.56 -4.30037 3.16076 0
M  V30 14677 O 1442.79 -5.21097 2.31978 0
M  V30 14678 O 1441.72 -4.41702 4.08881 0
M  V30 14679 H 1445.55 -1.42384 2.68255 0
M  V30 14680 H 1443.13 -0.641709 1.34916 0
M  V30 14681 H 1445.01 -3.75357 1.91534 0
M  V30 14682 H 1443.69 -3.10658 0.909581 0
M  V30 14683 H 1442.6 -2.18571 3.03608 0
M  V30 14684 H 1443.93 -2.89167 3.983 0
M  V30 14685 N 1445.58 -1.40446 -0.715026 0
M  V30 14686 C 1446.83 -1.3896 -1.47709 0
M  V30 14687 C 1447.16 0.00798698 -1.94198 0
M  V30 14688 O 1446.44 0.976732 -1.68197 0
M  V30 14689 C 1446.72 -2.37955 -2.70277 0
M  V30 14690 C 1446.57 -3.8674 -2.29678 0
M  V30 14691 C 1447.89 -2.34478 -3.72435 0
M  V30 14692 H 1445.01 -0.50607 -0.535782 0
M  V30 14693 H 1447.65 -1.71585 -0.815999 0
M  V30 14694 H 1445.8 -2.10264 -3.26682 0
M  V30 14695 H 1447.47 -4.2526 -1.7875 0
M  V30 14696 H 1445.72 -4.02547 -1.61674 0
M  V30 14697 H 1446.39 -4.51524 -3.17538 0
M  V30 14698 H 1448.86 -2.59007 -3.2566 0
M  V30 14699 H 1447.74 -3.05791 -4.55832 0
M  V30 14700 H 1448 -1.35661 -4.20771 0
M  V30 14701 N 1447.06 0.947303 -1.25952 0
M  V30 14702 C 1448.01 2.06642 -1.06779 0
M  V30 14703 C 1449 1.694 0.00348362 0
M  V30 14704 O 1450.21 1.79351 -0.152715 0
M  V30 14705 H 1446.58 0.676499 -0.32841 0
M  V30 14706 H 1448.55 2.19968 -2.01635 0
M  V30 14707 C 1447.3 3.40353 -0.711015 0
M  V30 14708 H 1446.63 3.69483 -1.52718 0
M  V30 14709 H 1448.07 4.19493 -0.616606 0
M  V30 14710 C 1446.52 3.3181 0.58344 0
M  V30 14711 O 1447.05 3.67431 1.6235 0
M  V30 14712 N 1445.26 2.84919 0.571797 0
M  V30 14713 H 1444.81 2.56128 -0.274962 0
M  V30 14714 H 1444.77 2.79586 1.43803 0
M  V30 14715 N 1448.54 1.07657 1.15099 0
M  V30 14716 C 1449.79 0.796589 1.85303 0
M  V30 14717 C 1450.1 -0.679887 1.83404 0
M  V30 14718 O 1451.31 -1.07475 2.49322 0
M  V30 14719 C 1449.76 1.37495 3.326 0
M  V30 14720 C 1449.37 2.88267 3.42938 0
M  V30 14721 C 1451.11 1.17313 4.07968 0
M  V30 14722 C 1449.02 3.39278 4.84401 0
M  V30 14723 H 1447.95 0.294316 0.694186 0
M  V30 14724 H 1450.6 1.29702 1.29806 0
M  V30 14725 H 1448.98 0.802248 3.87789 0
M  V30 14726 H 1450.16 3.51608 2.9784 0
M  V30 14727 H 1448.47 3.07275 2.81018 0
M  V30 14728 H 1451.07 1.52899 5.12373 0
M  V30 14729 H 1451.41 0.112387 4.16148 0
M  V30 14730 H 1451.95 1.71236 3.59059 0
M  V30 14731 H 1448.69 4.44892 4.81406 0
M  V30 14732 H 1448.21 2.80692 5.30068 0
M  V30 14733 H 1449.88 3.35416 5.53267 0
M  V30 14734 N 1450.02 -1.31994 0.861122 0
M  V30 14735 C 1450.96 -2.28729 0.308476 0
M  V30 14736 C 1451.93 -1.55338 -0.588148 0
M  V30 14737 O 1453.12 -1.8353 -0.52168 0
M  V30 14738 C 1450.26 -3.4158 -0.491621 0
M  V30 14739 C 1449.37 -4.29839 0.431522 0
M  V30 14740 C 1448.51 -5.29826 -0.381836 0
M  V30 14741 C 1447.55 -6.09728 0.538296 0
M  V30 14742 N 1446.68 -7.01696 -0.238274 0
M  V30 14743 H 1451.52 -2.75389 1.13863 0
M  V30 14744 H 1449.06 -1.35485 0.572911 0
M  V30 14745 H 1451.02 -4.05738 -0.971193 0
M  V30 14746 H 1449.65 -2.96054 -1.28654 0
M  V30 14747 H 1448.7 -3.66204 1.02951 0
M  V30 14748 H 1450.01 -4.85658 1.13742 0
M  V30 14749 H 1449.17 -5.99618 -0.924297 0
M  V30 14750 H 1447.9 -4.7464 -1.12107 0
M  V30 14751 H 1446.91 -5.38834 1.09259 0
M  V30 14752 H 1448.13 -6.67 1.27625 0
M  V30 14753 H 1446.08 -6.4893 -0.960486 0
M  V30 14754 H 1446 -7.54896 0.408466 0
M  V30 14755 H 1447.27 -7.75764 -0.762252 0
M  V30 14756 N 1451.49 -0.619688 -1.44906 0
M  V30 14757 C 1452.44 0.113696 -2.27716 0
M  V30 14758 C 1453.43 0.82709 -1.38015 0
M  V30 14759 O 1454.62 0.715083 -1.61912 0
M  V30 14760 C 1451.75 1.10233 -3.25121 0
M  V30 14761 C 1450.84 0.389147 -4.22311 0
M  V30 14762 N 1451.23 -0.575929 -5.0251 0
M  V30 14763 C 1449.52 0.635112 -4.41455 0
M  V30 14764 C 1450.23 -0.996243 -5.73105 0
M  V30 14765 N 1449.2 -0.337427 -5.42552 0
M  V30 14766 H 1453 -0.627351 -2.87126 0
M  V30 14767 H 1450.52 -0.444293 -1.56204 0
M  V30 14768 H 1452.51 1.64223 -3.83192 0
M  V30 14769 H 1451.17 1.8438 -2.67272 0
M  V30 14770 H 1452.19 -0.953232 -5.09052 0
M  V30 14771 H 1448.86 1.36033 -3.94717 0
M  V30 14772 H 1450.25 -1.7929 -6.47537 0
M  V30 14773 N 1452.97 1.53444 -0.359552 0
M  V30 14774 C 1454.2 2.05286 0.232615 0
M  V30 14775 C 1454.61 1.23322 1.43486 0
M  V30 14776 O 1453.95 0.265369 1.81773 0
M  V30 14777 C 1454.02 3.52698 0.695995 0
M  V30 14778 C 1453.68 4.55344 -0.388751 0
M  V30 14779 C 1454.68 5.04978 -1.23667 0
M  V30 14780 C 1452.36 4.9931 -0.547267 0
M  V30 14781 C 1454.36 5.97174 -2.2285 0
M  V30 14782 C 1452.04 5.91313 -1.54247 0
M  V30 14783 C 1453.04 6.40135 -2.38153 0
M  V30 14784 O 1452.73 7.30325 -3.35976 0
M  V30 14785 H 1452.46 0.674445 0.0458187 0
M  V30 14786 H 1455.01 1.98853 -0.514472 0
M  V30 14787 H 1453.24 3.5665 1.49459 0
M  V30 14788 H 1454.93 3.8743 1.21049 0
M  V30 14789 H 1455.7 4.71763 -1.12537 0
M  V30 14790 H 1451.58 4.609 0.0960246 0
M  V30 14791 H 1455.12 6.35204 -2.88378 0
M  V30 14792 H 1451.02 6.23942 -1.65427 0
M  V30 14793 H 1451.79 7.48305 -3.31635 0
M  V30 14794 N 1454.45 0.0885642 1.57351 0
M  V30 14795 C 1455.38 -0.869946 2.16689 0
M  V30 14796 C 1456.36 -1.29878 1.09844 0
M  V30 14797 O 1457.55 -1.36684 1.37954 0
M  V30 14798 C 1454.68 -2.13148 2.74199 0
M  V30 14799 C 1453.63 -1.84149 3.86359 0
M  V30 14800 C 1452.96 -3.17075 4.30543 0
M  V30 14801 C 1454.26 -1.13357 5.09851 0
M  V30 14802 H 1455.95 -0.375578 2.97035 0
M  V30 14803 H 1453.5 -0.17921 1.42881 0
M  V30 14804 H 1455.45 -2.80634 3.14361 0
M  V30 14805 H 1454.17 -2.64856 1.91098 0
M  V30 14806 H 1452.83 -1.19063 3.46727 0
M  V30 14807 H 1452.48 -3.66658 3.44342 0
M  V30 14808 H 1452.18 -2.98457 5.06159 0
M  V30 14809 H 1453.7 -3.85731 4.73333 0
M  V30 14810 H 1455.12 -1.70941 5.47222 0
M  V30 14811 H 1453.52 -1.0494 5.90853 0
M  V30 14812 H 1454.59 -0.115273 4.84763 0
M  V30 14813 N 1455.93 -1.56509 -0.185096 0
M  V30 14814 C 1456.88 -1.96237 -1.24875 0
M  V30 14815 C 1457.87 -0.849169 -1.46579 0
M  V30 14816 O 1459.08 -1.03422 -1.47322 0
M  V30 14817 H 1455.45 -0.624147 -0.419457 0
M  V30 14818 H 1457.42 -2.8492 -0.88673 0
M  V30 14819 C 1456.17 -2.32667 -2.58382 0
M  V30 14820 H 1455.49 -3.17858 -2.425 0
M  V30 14821 H 1456.93 -2.6432 -3.31528 0
M  V30 14822 C 1455.39 -1.16496 -3.16118 0
M  V30 14823 O 1455.92 -0.445283 -3.99224 0
M  V30 14824 N 1454.13 -0.939133 -2.75007 0
M  V30 14825 H 1453.68 -1.52611 -2.07527 0
M  V30 14826 H 1453.63 -0.163659 -3.13974 0
M  V30 14827 N 1457.41 0.45317 -1.50944 0
M  V30 14828 C 1458.65 1.21354 -1.64476 0
M  V30 14829 C 1459.01 1.88859 -0.345879 0
M  V30 14830 O 1460.21 2.66421 -0.356808 0
M  V30 14831 C 1458.48 2.21565 -2.80435 0
M  V30 14832 S 1460.04 3.06302 -3.14205 0
M  V30 14833 H 1456.86 0.411762 -0.579632 0
M  V30 14834 H 1459.46 0.50762 -1.88795 0
M  V30 14835 H 1458.17 1.70585 -3.73268 0
M  V30 14836 H 1457.7 2.96761 -2.58257 0
M  V30 14837 H 1459.71 4.22988 -2.59414 0
M  V30 14838 N 1458.88 1.40823 0.707568 0
M  V30 14839 C 1460.11 1.43061 1.50161 0
M  V30 14840 C 1460.53 0.0342144 1.88069 0
M  V30 14841 O 1459.89 -0.959674 1.53818 0
M  V30 14842 C 1459.94 2.33459 2.74826 0
M  V30 14843 O 1459.04 1.78336 3.71847 0
M  V30 14844 H 1458.39 0.48602 0.452417 0
M  V30 14845 H 1460.92 1.85147 0.870742 0
M  V30 14846 H 1460.93 2.48922 3.23267 0
M  V30 14847 H 1459.6 3.34927 2.46571 0
M  V30 14848 H 1458.18 1.7226 3.30728 0
M  V30 14849 N 1460.36 -0.94061 1.26453 0
M  V30 14850 C 1461.31 -2.02524 1.04728 0
M  V30 14851 C 1462.3 -1.60887 -0.0205193 0
M  V30 14852 O 1463.49 -1.75906 0.196501 0
M  V30 14853 C 1460.62 -3.3644 0.682862 0
M  V30 14854 C 1459.7 -3.84559 1.78815 0
M  V30 14855 N 1460.09 -4.05323 3.02567 0
M  V30 14856 C 1458.39 -4.13478 1.67188 0
M  V30 14857 C 1459.09 -4.45191 3.74406 0
M  V30 14858 N 1458.07 -4.51927 3.02098 0
M  V30 14859 H 1461.87 -2.1659 1.9866 0
M  V30 14860 H 1459.39 -1.12649 1.16978 0
M  V30 14861 H 1461.38 -4.13789 0.508379 0
M  V30 14862 H 1460.04 -3.23744 -0.248973 0
M  V30 14863 H 1461.05 -3.91996 3.38466 0
M  V30 14864 H 1457.73 -4.09567 0.809986 0
M  V30 14865 H 1459.12 -4.69442 4.80701 0
M  V30 14866 N 1461.84 -1.08266 -1.14527 0
M  V30 14867 C 1463.08 -0.820945 -1.87189 0
M  V30 14868 C 1463.44 0.641556 -1.80964 0
M  V30 14869 O 1464.65 1.01871 -2.48749 0
M  V30 14870 C 1462.92 -1.32668 -3.31865 0
M  V30 14871 S 1464.48 -1.19705 -4.22157 0
M  V30 14872 H 1461.29 -0.297237 -0.645888 0
M  V30 14873 H 1463.9 -1.38364 -1.38114 0
M  V30 14874 H 1462.6 -2.38558 -3.33943 0
M  V30 14875 H 1462.13 -0.759588 -3.85997 0
M  V30 14876 H 1464.15 -0.140421 -4.96001 0
M  V30 14877 N 1463.32 1.31536 -0.86811 0
M  V30 14878 C 1464.23 2.32326 -0.32588 0
M  V30 14879 C 1465.25 1.64632 0.563243 0
M  V30 14880 O 1466.42 1.96067 0.460403 0
M  V30 14881 C 1463.49 3.43562 0.46539 0
M  V30 14882 C 1462.55 4.26919 -0.451472 0
M  V30 14883 C 1461.78 5.32844 0.302129 0
M  V30 14884 O 1462 5.49485 1.53045 0
M  V30 14885 O 1460.94 6.00944 -0.339048 0
M  V30 14886 H 1464.76 2.80622 -1.16126 0
M  V30 14887 H 1462.35 1.35401 -0.631428 0
M  V30 14888 H 1464.23 4.11368 0.914028 0
M  V30 14889 H 1462.91 2.97432 1.27734 0
M  V30 14890 H 1461.81 3.61874 -0.948571 0
M  V30 14891 H 1463.15 4.7661 -1.22897 0
M  V30 14892 N 1464.8 0.627364 1.44575 0
M  V30 14893 C 1466.04 0.130545 2.02379 0
M  V30 14894 C 1466.38 -1.24301 1.49208 0
M  V30 14895 O 1465.65 -1.82425 0.674626 0
M  V30 14896 C 1465.93 0.11311 3.59922 0
M  V30 14897 C 1465.79 1.51874 4.23385 0
M  V30 14898 C 1467.11 -0.564341 4.36467 0
M  V30 14899 H 1464.23 0.0489125 0.735375 0
M  V30 14900 H 1466.87 0.803118 1.72192 0
M  V30 14901 H 1465.02 -0.459621 3.85772 0
M  V30 14902 H 1466.69 2.14007 4.08655 0
M  V30 14903 H 1464.93 2.07371 3.81024 0
M  V30 14904 H 1465.6 1.4586 5.3238 0
M  V30 14905 H 1468.08 -0.0773244 4.16028 0
M  V30 14906 H 1466.96 -0.545715 5.46181 0
M  V30 14907 H 1467.22 -1.63403 4.10794 0
M  V30 14908 N 1466.28 -1.53251 0.367684 0
M  V30 14909 C 1467.55 -1.93617 -0.277842 0
M  V30 14910 C 1467.93 -1.3014 -1.66213 0
M  V30 14911 O 1467.28 -0.461277 -2.23796 0
M  V30 14912 C 1467.49 -3.47475 -0.325937 0
M  V30 14913 C 1468.84 -4.2082 -0.565276 0
M  V30 14914 O 1469.86 -3.53866 -0.407057 0
M  V30 14915 O 1468.72 -5.39474 -0.873522 0
M  V30 14916 H 1465.82 -0.80993 -0.167158 0
M  V30 14917 H 1468.36 -1.64405 0.420621 0
M  V30 14918 H 1467.13 -3.85955 0.644542 0
M  V30 14919 H 1466.76 -3.82926 -1.07021 0
M  V30 14920 N 1467.75 -0.0969077 -1.57302 0
M  V30 14921 C 1468.66 0.875561 -2.17649 0
M  V30 14922 C 1469.68 1.30892 -1.14645 0
M  V30 14923 O 1470.86 1.37646 -1.47022 0
M  V30 14924 C 1467.92 2.116 -2.74639 0
M  V30 14925 C 1466.98 1.73667 -3.92604 0
M  V30 14926 C 1466.21 2.91798 -4.46867 0
M  V30 14927 O 1466.44 4.06577 -4.00064 0
M  V30 14928 O 1465.37 2.70159 -5.37864 0
M  V30 14929 H 1469.2 0.392107 -3.01158 0
M  V30 14930 H 1466.78 0.127539 -1.48855 0
M  V30 14931 H 1468.66 2.84292 -3.11057 0
M  V30 14932 H 1467.34 2.58994 -1.94174 0
M  V30 14933 H 1466.25 0.981505 -3.60995 0
M  V30 14934 H 1467.58 1.31035 -4.74437 0
M  V30 14935 N 1469.23 1.56605 0.176793 0
M  V30 14936 C 1470.47 1.83477 0.900858 0
M  V30 14937 C 1470.84 0.677051 1.79666 0
M  V30 14938 O 1472.04 0.826091 2.55791 0
M  V30 14939 C 1470.31 3.15444 1.68017 0
M  V30 14940 S 1471.87 3.63781 2.45375 0
M  V30 14941 H 1468.68 0.643758 0.301823 0
M  V30 14942 H 1471.29 1.9482 0.162888 0
M  V30 14943 H 1469.99 3.97701 1.01302 0
M  V30 14944 H 1469.52 3.07028 2.45962 0
M  V30 14945 H 1471.54 3.30672 3.6996 0
M  V30 14946 N 1470.71 -0.445159 1.51182 0
M  V30 14947 C 1471.66 -1.53798 1.68316 0
M  V30 14948 C 1472.64 -1.51666 0.537244 0
M  V30 14949 O 1473.84 -1.58251 0.792818 0
M  V30 14950 C 1470.96 -2.92053 1.80444 0
M  V30 14951 C 1470.05 -2.98971 3.00794 0
M  V30 14952 N 1470.44 -2.75648 4.24089 0
M  V30 14953 C 1468.74 -3.30127 2.99887 0
M  V30 14954 C 1469.44 -2.88206 5.05284 0
M  V30 14955 N 1468.42 -3.19538 4.39769 0
M  V30 14956 H 1472.22 -1.34506 2.61315 0
M  V30 14957 H 1469.73 -0.652341 1.48722 0
M  V30 14958 H 1471.73 -3.70663 1.90827 0
M  V30 14959 H 1470.39 -3.12372 0.886204 0
M  V30 14960 H 1471.4 -2.50727 4.53163 0
M  V30 14961 H 1468.08 -3.5627 2.17665 0
M  V30 14962 H 1469.47 -2.74194 6.13406 0
M  V30 14963 N 1472.19 -1.41197 -0.700089 0
M  V30 14964 C 1473.12 -1.37101 -1.82424 0
M  V30 14965 C 1474.1 -0.238956 -1.60835 0
M  V30 14966 O 1475.28 -0.425136 -1.83643 0
M  V30 14967 C 1472.41 -1.13748 -3.19028 0
M  V30 14968 C 1471.46 -2.29612 -3.59417 0
M  V30 14969 S 1472.29 -3.92074 -3.64744 0
M  V30 14970 C 1473.44 -3.71015 -5.04082 0
M  V30 14971 H 1473.68 -2.32234 -1.8562 0
M  V30 14972 H 1471.21 -1.27667 -0.868367 0
M  V30 14973 H 1473.17 -1.0096 -3.97891 0
M  V30 14974 H 1471.83 -0.202435 -3.13447 0
M  V30 14975 H 1471.02 -2.08954 -4.58644 0
M  V30 14976 H 1470.62 -2.38783 -2.87851 0
M  V30 14977 H 1472.92 -3.30441 -5.91452 0
M  V30 14978 H 1473.86 -4.69828 -5.29781 0
M  V30 14979 H 1474.27 -3.04382 -4.75407 0
M  V30 14980 N 1473.67 0.933891 -1.2695 0
M  V30 14981 C 1474.94 1.65874 -1.0366 0
M  V30 14982 C 1475.32 2.0666 0.43066 0
M  V30 14983 O 1474.67 1.79606 1.41259 0
M  V30 14984 C 1474.88 2.86546 -1.99229 0
M  V30 14985 C 1476.23 3.58031 -2.28251 0
M  V30 14986 O 1477.25 2.96663 -1.97154 0
M  V30 14987 O 1476.11 4.68583 -2.81233 0
M  V30 14988 H 1473.21 0.72673 -0.394706 0
M  V30 14989 H 1475.75 0.984975 -1.38189 0
M  V30 14990 H 1474.52 2.53351 -2.9821 0
M  V30 14991 H 1474.15 3.61645 -1.65224 0
M  V30 14992 N 1475.14 1.08871 1.13951 0
M  V30 14993 C 1476.55 0.841552 1.66658 0
M  V30 14994 C 1476.91 -0.630932 1.85779 0
M  V30 14995 O 1476.03 -1.48673 1.57243 0
M  V30 14996 C 1476.63 1.52109 3.02735 0
M  V30 14997 C 1475.18 1.32105 3.52456 0
M  V30 14998 C 1474.33 1.58084 2.27826 0
M  V30 14999 H 1477.28 1.24865 0.97951 0
M  V30 15000 H 1477.3 0.950978 3.68425 0
M  V30 15001 H 1476.82 2.59276 2.88786 0
M  V30 15002 H 1474.92 0.270294 3.71618 0
M  V30 15003 H 1475.03 2.05197 4.32933 0
M  V30 15004 H 1473.39 1.00264 2.34135 0
M  V30 15005 H 1474.18 2.66467 2.16449 0
M  V30 15006 N 1476.62 -1.31073 0.875073 0
M  V30 15007 C 1477.53 -2.3215 0.338196 0
M  V30 15008 C 1478.55 -1.64928 -0.554504 0
M  V30 15009 O 1479.72 -1.96308 -0.449998 0
M  V30 15010 C 1476.79 -3.43804 -0.447163 0
M  V30 15011 C 1475.85 -4.26674 0.474106 0
M  V30 15012 C 1475.08 -5.32997 -0.273867 0
M  V30 15013 O 1475.31 -5.50288 -1.50129 0
M  V30 15014 O 1474.24 -6.00756 0.370913 0
M  V30 15015 H 1478.07 -2.80002 1.17612 0
M  V30 15016 H 1475.65 -1.35064 0.6386 0
M  V30 15017 H 1477.53 -4.11847 -0.892199 0
M  V30 15018 H 1476.21 -2.98105 -1.26155 0
M  V30 15019 H 1475.11 -3.61366 0.967748 0
M  V30 15020 H 1476.45 -4.75952 1.25423 0
M  V30 15021 N 1478.1 -0.635022 -1.4424 0
M  V30 15022 C 1479.33 -0.146549 -2.06882 0
M  V30 15023 C 1479.75 1.17143 -1.4717 0
M  V30 15024 O 1479.11 1.71952 -0.574636 0
M  V30 15025 C 1479.16 -0.0494694 -3.60566 0
M  V30 15026 O 1478.26 0.993423 -4.00256 0
M  V30 15027 H 1477.6 -0.0865505 -0.658335 0
M  V30 15028 H 1480.13 -0.872803 -1.85049 0
M  V30 15029 H 1480.14 0.139839 -4.0776 0
M  V30 15030 H 1478.82 -1.01169 -4.03407 0
M  V30 15031 H 1477.39 0.778372 -3.64686 0
M  V30 15032 N 1479.58 1.53054 -0.375806 0
M  V30 15033 C 1480.53 2.22837 0.482477 0
M  V30 15034 C 1481.51 1.22728 1.04051 0
M  V30 15035 O 1482.7 1.48129 0.968854 0
M  V30 15036 C 1479.83 3.02869 1.61634 0
M  V30 15037 C 1478.92 4.10362 1.07069 0
M  V30 15038 N 1479.31 5.05187 0.248878 0
M  V30 15039 C 1477.61 4.25251 1.34452 0
M  V30 15040 C 1478.31 5.81678 -0.0510458 0
M  V30 15041 N 1477.29 5.40817 0.549318 0
M  V30 15042 H 1481.09 2.93506 -0.1521 0
M  V30 15043 H 1478.6 1.6135 -0.184373 0
M  V30 15044 H 1480.6 3.51387 2.24349 0
M  V30 15045 H 1479.26 2.33732 2.25387 0
M  V30 15046 H 1480.27 5.17777 -0.112766 0
M  V30 15047 H 1476.95 3.67342 1.98408 0
M  V30 15048 H 1478.34 6.68073 -0.716061 0
M  V30 15049 N 1481.06 0.105248 1.57248 0
M  V30 15050 C 1482 -0.850012 2.14577 0
M  V30 15051 C 1482.97 -1.27294 1.06703 0
M  V30 15052 O 1484.16 -1.35289 1.34542 0
M  V30 15053 C 1481.3 -2.09993 2.73856 0
M  V30 15054 C 1480.41 -1.72662 3.95995 0
M  V30 15055 C 1479.55 -2.92517 4.43404 0
M  V30 15056 C 1478.59 -2.5136 5.58108 0
M  V30 15057 N 1477.72 -3.64082 6.00324 0
M  V30 15058 H 1482.56 -0.354282 2.95887 0
M  V30 15059 H 1480.1 -0.163192 1.46192 0
M  V30 15060 H 1482.06 -2.83208 3.06348 0
M  V30 15061 H 1480.69 -2.57048 1.95259 0
M  V30 15062 H 1479.74 -0.893754 3.69752 0
M  V30 15063 H 1481.05 -1.38406 4.79213 0
M  V30 15064 H 1480.21 -3.73973 4.77734 0
M  V30 15065 H 1478.94 -3.2999 3.59107 0
M  V30 15066 H 1477.95 -1.68333 5.23397 0
M  V30 15067 H 1479.17 -2.15019 6.44161 0
M  V30 15068 H 1477.12 -4.01255 5.18971 0
M  V30 15069 H 1477.04 -3.33705 6.78363 0
M  V30 15070 H 1478.31 -4.46019 6.39287 0
M  V30 15071 N 1482.53 -1.56697 -0.168486 0
M  V30 15072 C 1483.78 -1.82424 -0.885965 0
M  V30 15073 C 1484.11 -0.683543 -1.81773 0
M  V30 15074 O 1483.39 0.314319 -1.91943 0
M  V30 15075 C 1483.67 -3.18553 -1.67917 0
M  V30 15076 C 1483.52 -4.43154 -0.770343 0
M  V30 15077 C 1484.84 -3.51654 -2.64627 0
M  V30 15078 H 1481.96 -0.663594 -0.320644 0
M  V30 15079 H 1484.6 -1.89391 -0.15205 0
M  V30 15080 H 1482.75 -3.12745 -2.30484 0
M  V30 15081 H 1484.43 -4.61032 -0.157328 0
M  V30 15082 H 1482.67 -4.33729 -0.0785653 0
M  V30 15083 H 1483.34 -5.34961 -1.36092 0
M  V30 15084 H 1485.82 -3.57934 -2.12185 0
M  V30 15085 H 1484.69 -4.47975 -3.17191 0
M  V30 15086 H 1484.95 -2.76503 -3.44961 0
M  V30 15087 N 1484.01 0.437135 -1.51416 0
M  V30 15088 C 1485.26 1.1835 -1.63328 0
M  V30 15089 C 1485.57 1.92343 -0.355455 0
M  V30 15090 O 1486.78 2.69183 -0.353951 0
M  V30 15091 C 1485.24 2.15235 -2.88447 0
M  V30 15092 C 1484.84 1.46889 -4.23235 0
M  V30 15093 C 1486.59 2.90303 -3.09716 0
M  V30 15094 C 1484.5 2.42259 -5.39504 0
M  V30 15095 H 1483.43 0.445467 -0.608338 0
M  V30 15096 H 1486.08 0.450528 -1.77883 0
M  V30 15097 H 1484.46 2.91968 -2.67527 0
M  V30 15098 H 1485.63 0.757128 -4.54537 0
M  V30 15099 H 1483.95 0.839725 -4.07845 0
M  V30 15100 H 1486.54 3.61747 -3.93756 0
M  V30 15101 H 1486.89 3.5166 -2.22802 0
M  V30 15102 H 1487.42 2.20677 -3.30978 0
M  V30 15103 H 1484.16 1.85591 -6.28678 0
M  V30 15104 H 1483.68 3.11488 -5.12577 0
M  V30 15105 H 1485.36 3.03384 -5.7146 0
M  V30 15106 N 1485.49 1.41566 0.692592 0
M  V30 15107 C 1486.73 1.42554 1.46485 0
M  V30 15108 C 1487.09 0.0341685 1.9197 0
M  V30 15109 O 1488.3 -0.0811732 2.68677 0
M  V30 15110 C 1486.57 2.40673 2.64218 0
M  V30 15111 S 1488.13 2.60215 3.53318 0
M  V30 15112 H 1484.94 0.50496 0.500537 0
M  V30 15113 H 1487.55 1.78027 0.807867 0
M  V30 15114 H 1486.25 3.40561 2.29012 0
M  V30 15115 H 1485.78 2.06562 3.34807 0
M  V30 15116 H 1487.8 1.87179 4.59542 0
M  V30 15117 N 1486.97 -0.927146 1.27443 0
M  V30 15118 C 1488.22 -1.67489 1.13814 0
M  V30 15119 C 1488.54 -1.91917 -0.315914 0
M  V30 15120 O 1487.8 -1.5079 -1.24743 0
M  V30 15121 C 1488.1 -3.0472 1.86764 0
M  V30 15122 C 1487.76 -3 3.36617 0
M  V30 15123 C 1486.43 -2.9842 3.77491 0
M  V30 15124 C 1488.78 -2.91249 4.32231 0
M  V30 15125 C 1486.11 -2.85872 5.12342 0
M  V30 15126 C 1488.46 -2.80242 5.67139 0
M  V30 15127 C 1487.12 -2.77013 6.07306 0
M  V30 15128 H 1486.39 -0.612887 0.416474 0
M  V30 15129 H 1489.04 -1.0812 1.58058 0
M  V30 15130 H 1487.34 -3.67797 1.35029 0
M  V30 15131 H 1489.04 -3.61453 1.73646 0
M  V30 15132 H 1485.63 -3.02017 3.04111 0
M  V30 15133 H 1489.81 -2.91567 4.01625 0
M  V30 15134 H 1485.07 -2.81758 5.42607 0
M  V30 15135 H 1489.24 -2.72437 6.40899 0
M  V30 15136 H 1486.87 -2.67047 7.11751 0
M  V30 15137 N 1488.45 -1.09474 -1.13372 0
M  V30 15138 C 1489.69 -0.840753 -1.86308 0
M  V30 15139 C 1490.05 0.622327 -1.81635 0
M  V30 15140 O 1491.25 0.992265 -2.49815 0
M  V30 15141 C 1489.52 -1.3618 -3.30439 0
M  V30 15142 S 1491.08 -1.24176 -4.20863 0
M  V30 15143 H 1487.9 -0.304071 -0.642699 0
M  V30 15144 H 1490.5 -1.39822 -1.36639 0
M  V30 15145 H 1489.21 -2.42087 -3.31394 0
M  V30 15146 H 1488.74 -0.800485 -3.8517 0
M  V30 15147 H 1490.75 -0.193021 -4.95824 0
M  V30 15148 N 1489.92 1.30607 -0.882012 0
M  V30 15149 C 1491.2 1.91056 -0.419153 0
M  V30 15150 C 1491.58 1.80185 1.09985 0
M  V30 15151 O 1490.93 1.21717 1.93384 0
M  V30 15152 C 1491.14 3.3682 -0.913949 0
M  V30 15153 C 1492.49 4.13901 -0.947169 0
M  V30 15154 O 1493.51 3.45652 -0.860412 0
M  V30 15155 O 1492.37 5.35826 -1.07483 0
M  V30 15156 H 1489.46 0.81709 -0.127645 0
M  V30 15157 H 1492.01 1.39195 -0.970717 0
M  V30 15158 H 1490.78 3.38804 -1.95774 0
M  V30 15159 H 1490.41 3.96132 -0.34138 0
M  V30 15160 N 1491.4 0.642663 1.43901 0
M  V30 15161 C 1492.35 -0.0774542 2.27868 0
M  V30 15162 C 1493.34 -0.805028 1.39313 0
M  V30 15163 O 1494.53 -0.689234 1.63029 0
M  V30 15164 C 1491.66 -1.05046 3.26834 0
M  V30 15165 C 1490.74 -0.321911 4.22877 0
M  V30 15166 N 1491.13 0.655802 5.01531 0
M  V30 15167 C 1489.43 -0.5648 4.42409 0
M  V30 15168 C 1490.13 1.08729 5.71448 0
M  V30 15169 N 1489.11 0.423699 5.41946 0
M  V30 15170 H 1492.91 0.672951 2.86092 0
M  V30 15171 H 1490.43 0.469088 1.55478 0
M  V30 15172 H 1492.42 -1.58106 3.85756 0
M  V30 15173 H 1491.08 -1.80104 2.70171 0
M  V30 15174 H 1492.09 1.0341 5.07471 0
M  V30 15175 H 1488.77 -1.29736 3.96831 0
M  V30 15176 H 1490.16 1.89569 6.44603 0
M  V30 15177 N 1492.88 -1.52852 0.383918 0
M  V30 15178 C 1494.13 -2.01112 -0.199594 0
M  V30 15179 C 1494.45 -1.27237 -1.47769 0
M  V30 15180 O 1493.72 -0.390873 -1.91961 0
M  V30 15181 H 1492.3 -0.743047 -0.0767466 0
M  V30 15182 H 1494.96 -1.8799 0.51437 0
M  V30 15183 H 1494.06 -3.09347 -0.413627 0
M  V30 15184 N 1494.36 -0.113586 -1.5719 0
M  V30 15185 C 1495.59 0.553592 -1.99356 0
M  V30 15186 C 1496 1.60567 -0.993154 0
M  V30 15187 O 1495.36 1.82494 0.0147252 0
M  V30 15188 C 1495.41 1.18462 -3.41539 0
M  V30 15189 O 1495.13 0.174602 -4.37752 0
M  V30 15190 C 1496.63 1.93564 -3.98808 0
M  V30 15191 H 1493.85 0.146998 -0.6547 0
M  V30 15192 H 1496.4 -0.198329 -2.03536 0
M  V30 15193 H 1494.55 1.88736 -3.38316 0
M  V30 15194 H 1494.97 0.632395 -5.20674 0
M  V30 15195 H 1496.44 2.33051 -5.00391 0
M  V30 15196 H 1496.92 2.80874 -3.37648 0
M  V30 15197 H 1497.52 1.28066 -4.0556 0
M  V30 15198 N 1495.84 1.56784 0.160173 0
M  V30 15199 C 1497.08 1.82891 0.876278 0
M  V30 15200 C 1497.42 0.693173 1.81408 0
M  V30 15201 O 1496.69 -0.304136 1.92107 0
M  V30 15202 C 1496.97 3.19439 1.66226 0
M  V30 15203 C 1496.83 4.43557 0.746831 0
M  V30 15204 C 1498.15 3.53053 2.62758 0
M  V30 15205 H 1495.27 0.665285 0.31712 0
M  V30 15206 H 1497.91 1.89469 0.142004 0
M  V30 15207 H 1496.06 3.13962 2.28823 0
M  V30 15208 H 1497.73 4.61109 0.132876 0
M  V30 15209 H 1495.97 4.33764 0.0555625 0
M  V30 15210 H 1496.64 5.35675 1.33253 0
M  V30 15211 H 1499.12 3.59054 2.10284 0
M  V30 15212 H 1498 4.4965 3.14811 0
M  V30 15213 H 1498.26 2.78329 3.4349 0
M  V30 15214 N 1497.32 -0.429099 1.51646 0
M  V30 15215 C 1498.25 -1.52867 1.76505 0
M  V30 15216 C 1499.23 -1.58586 0.615178 0
M  V30 15217 O 1500.41 -1.74182 0.858742 0
M  V30 15218 C 1497.54 -2.90875 1.8976 0
M  V30 15219 C 1496.5 -3.00014 3.05247 0
M  V30 15220 C 1495.82 -4.40082 3.03696 0
M  V30 15221 C 1497.12 -2.73334 4.45068 0
M  V30 15222 H 1498.82 -1.32315 2.68576 0
M  V30 15223 H 1496.36 -0.635091 1.29238 0
M  V30 15224 H 1498.31 -3.67765 2.05734 0
M  V30 15225 H 1497.04 -3.12677 0.943442 0
M  V30 15226 H 1495.7 -2.25565 2.88991 0
M  V30 15227 H 1495.35 -4.58864 2.06042 0
M  V30 15228 H 1495.05 -4.47125 3.81252 0
M  V30 15229 H 1496.57 -5.18935 3.21774 0
M  V30 15230 H 1497.98 -3.39954 4.61632 0
M  V30 15231 H 1496.38 -2.91777 5.24391 0
M  V30 15232 H 1497.45 -1.68889 4.54538 0
M  V30 15233 N 1498.79 -1.41931 -0.685074 0
M  V30 15234 C 1499.76 -1.44315 -1.78061 0
M  V30 15235 C 1500.76 -0.332215 -1.57331 0
M  V30 15236 O 1501.95 -0.59258 -1.63811 0
M  V30 15237 C 1499.08 -1.26479 -3.16569 0
M  V30 15238 H 1500.27 -2.4185 -1.77337 0
M  V30 15239 H 1497.82 -1.28228 -0.893721 0
M  V30 15240 H 1498.56 -0.298259 -3.22926 0
M  V30 15241 H 1498.34 -2.06981 -3.33018 0
M  V30 15242 H 1499.83 -1.31006 -3.96519 0
M  V30 15243 N 1500.27 0.920374 -1.27933 0
M  V30 15244 C 1501.18 2.05525 -1.13123 0
M  V30 15245 C 1502.2 1.73899 -0.059421 0
M  V30 15246 O 1503.37 1.99617 -0.267386 0
M  V30 15247 C 1500.44 3.37637 -0.787551 0
M  V30 15248 C 1499.5 3.82914 -1.94101 0
M  V30 15249 C 1498.73 5.08721 -1.61364 0
M  V30 15250 O 1498.96 5.6798 -0.524918 0
M  V30 15251 O 1497.89 5.4955 -2.45517 0
M  V30 15252 H 1501.72 2.20935 -2.08378 0
M  V30 15253 H 1499.3 1.04071 -1.07189 0
M  V30 15254 H 1501.18 4.16968 -0.609544 0
M  V30 15255 H 1499.86 3.23417 0.135407 0
M  V30 15256 H 1498.76 3.04438 -2.17413 0
M  V30 15257 H 1500.1 4.01687 -2.84444 0
M  V30 15258 N 1501.75 1.10074 1.1279 0
M  V30 15259 C 1503.03 0.753069 1.80522 0
M  V30 15260 C 1503.41 -0.760982 1.96907 0
M  V30 15261 O 1502.75 -1.68584 1.54245 0
M  V30 15262 C 1502.96 1.49982 3.15129 0
M  V30 15263 C 1504.31 1.66993 3.90382 0
M  V30 15264 O 1505.34 1.46289 3.24774 0
M  V30 15265 O 1504.2 2.01293 5.08078 0
M  V30 15266 H 1501.29 0.271277 0.781241 0
M  V30 15267 H 1503.84 1.20333 1.19658 0
M  V30 15268 H 1502.61 2.53043 2.98471 0
M  V30 15269 H 1502.23 1.04217 3.83699 0
M  V30 15270 N 1503.23 -1.30138 0.888926 0
M  V30 15271 C 1504.48 -1.95602 0.508359 0
M  V30 15272 C 1504.8 -1.70495 -0.946377 0
M  V30 15273 O 1504.07 -1.03073 -1.66592 0
M  V30 15274 H 1502.65 -0.723728 0.185006 0
M  V30 15275 H 1505.31 -1.58594 1.13286 0
M  V30 15276 H 1504.4 -3.04559 0.681915 0
M  V30 15277 N 1504.71 -0.650285 -1.43559 0
M  V30 15278 C 1505.95 -0.162725 -2.02146 0
M  V30 15279 C 1506.28 1.21911 -1.51166 0
M  V30 15280 O 1505.56 1.81329 -0.703563 0
M  V30 15281 C 1505.84 -0.170356 -3.59697 0
M  V30 15282 C 1505.7 -1.5859 -4.20915 0
M  V30 15283 C 1507.01 0.494831 -4.37309 0
M  V30 15284 H 1504.13 -0.0606055 -0.734504 0
M  V30 15285 H 1506.78 -0.830411 -1.70892 0
M  V30 15286 H 1504.93 0.39819 -3.86454 0
M  V30 15287 H 1506.6 -2.20481 -4.05199 0
M  V30 15288 H 1504.84 -2.13407 -3.77677 0
M  V30 15289 H 1505.51 -1.54312 -5.29992 0
M  V30 15290 H 1507.99 0.0111281 -4.16099 0
M  V30 15291 H 1506.86 0.458753 -5.4698 0
M  V30 15292 H 1507.12 1.56846 -4.13342 0
M  V30 15293 N 1506.18 1.52647 -0.392018 0
M  V30 15294 C 1507.41 2.06511 0.191815 0
M  V30 15295 C 1507.83 1.26162 1.39516 0
M  V30 15296 O 1507.19 0.287373 1.79008 0
M  V30 15297 C 1507.24 3.56571 0.537512 0
M  V30 15298 O 1506.34 3.78774 1.63106 0
M  V30 15299 H 1505.68 0.663647 0.0216546 0
M  V30 15300 H 1508.21 1.96779 -0.560274 0
M  V30 15301 H 1508.22 4.00059 0.801044 0
M  V30 15302 H 1506.9 4.14489 -0.342239 0
M  V30 15303 H 1505.48 3.47175 1.36103 0
M  V30 15304 N 1507.66 0.121921 1.57128 0
M  V30 15305 C 1508.9 -0.538423 1.97181 0
M  V30 15306 C 1509.27 -1.63661 1.00394 0
M  V30 15307 O 1510.47 -2.35606 1.29396 0
M  V30 15308 C 1508.74 -1.05469 3.41484 0
M  V30 15309 S 1510.3 -1.72315 4.0355 0
M  V30 15310 H 1507.12 -0.174913 0.689149 0
M  V30 15311 H 1509.72 0.207694 1.94394 0
M  V30 15312 H 1508.42 -0.244297 4.09672 0
M  V30 15313 H 1507.95 -1.83602 3.47928 0
M  V30 15314 H 1509.97 -3.0091 3.94547 0
M  V30 15315 N 1509.14 -1.56867 -0.151857 0
M  V30 15316 C 1510.39 -1.82273 -0.863689 0
M  V30 15317 C 1510.7 -0.702377 -1.82554 0
M  V30 15318 O 1511.91 -0.841903 -2.58117 0
M  V30 15319 C 1510.36 -3.23046 -1.58649 0
M  V30 15320 C 1509.97 -4.43003 -0.667292 0
M  V30 15321 C 1511.72 -3.57729 -2.28539 0
M  V30 15322 C 1509.62 -5.74798 -1.39144 0
M  V30 15323 H 1508.55 -0.679753 -0.326269 0
M  V30 15324 H 1511.2 -1.8313 -0.116454 0
M  V30 15325 H 1509.59 -3.16561 -2.37918 0
M  V30 15326 H 1510.76 -4.60712 0.0898254 0
M  V30 15327 H 1509.08 -4.16329 -0.0770521 0
M  V30 15328 H 1511.67 -4.53451 -2.83348 0
M  V30 15329 H 1512.02 -2.8355 -3.04803 0
M  V30 15330 H 1512.55 -3.65853 -1.56194 0
M  V30 15331 H 1509.29 -6.52059 -0.670747 0
M  V30 15332 H 1508.81 -5.61032 -2.12139 0
M  V30 15333 H 1510.49 -6.17429 -1.93367 0
M  V30 15334 N 1510.62 0.421051 -1.51871 0
M  V30 15335 C 1511.86 1.17082 -1.65589 0
M  V30 15336 C 1512.2 1.90469 -0.378861 0
M  V30 15337 O 1511.47 1.84277 0.622259 0
M  V30 15338 C 1511.76 2.17483 -2.87007 0
M  V30 15339 C 1511.61 1.48071 -4.24729 0
M  V30 15340 C 1512.93 3.18288 -3.03942 0
M  V30 15341 H 1510.05 0.424284 -0.602621 0
M  V30 15342 H 1512.69 0.457998 -1.84397 0
M  V30 15343 H 1510.84 2.78273 -2.71102 0
M  V30 15344 H 1512.51 0.904926 -4.52337 0
M  V30 15345 H 1510.75 0.782814 -4.26678 0
M  V30 15346 H 1511.42 2.21272 -5.0571 0
M  V30 15347 H 1513.9 2.67565 -3.18666 0
M  V30 15348 H 1512.78 3.85815 -3.90433 0
M  V30 15349 H 1513.04 3.85333 -2.16728 0
M  V30 15350 N 1512.1 1.42293 0.677538 0
M  V30 15351 C 1513.32 1.46214 1.47092 0
M  V30 15352 C 1513.75 0.0740989 1.87954 0
M  V30 15353 O 1513.1 -0.926831 1.55819 0
M  V30 15354 C 1513.15 2.39236 2.69812 0
M  V30 15355 O 1512.26 1.86183 3.6798 0
M  V30 15356 H 1511.6 0.495507 0.442006 0
M  V30 15357 H 1514.13 1.86952 0.831274 0
M  V30 15358 H 1514.14 2.55723 3.17915 0
M  V30 15359 H 1512.81 3.40081 2.39411 0
M  V30 15360 H 1511.39 1.79237 3.26999 0
M  V30 15361 N 1513.57 -0.913576 1.28419 0
M  V30 15362 C 1514.99 -1.47782 1.14094 0
M  V30 15363 C 1515.34 -1.94347 -0.269004 0
M  V30 15364 O 1514.46 -1.82474 -1.16328 0
M  V30 15365 C 1515.06 -2.6859 2.06507 0
M  V30 15366 C 1513.62 -3.21193 1.96245 0
M  V30 15367 C 1512.76 -1.939 1.98238 0
M  V30 15368 H 1515.71 -0.726271 1.41106 0
M  V30 15369 H 1515.73 -3.43858 1.62916 0
M  V30 15370 H 1515.25 -2.34668 3.09116 0
M  V30 15371 H 1513.35 -3.5984 0.966737 0
M  V30 15372 H 1513.46 -3.8643 2.83211 0
M  V30 15373 H 1511.82 -2.11006 1.42648 0
M  V30 15374 H 1512.61 -1.62273 3.02527 0
M  V30 15375 N 1515.05 -1.1067 -1.12204 0
M  V30 15376 C 1516.28 -0.872867 -1.87586 0
M  V30 15377 C 1516.7 0.57682 -1.79773 0
M  V30 15378 O 1516.05 1.39782 -1.17334 0
M  V30 15379 C 1516.1 -1.31572 -3.36706 0
M  V30 15380 O 1515.82 -2.70856 -3.44338 0
M  V30 15381 C 1517.33 -1.11613 -4.29019 0
M  V30 15382 H 1514.55 -0.313132 -0.593455 0
M  V30 15383 H 1517.09 -1.47199 -1.4196 0
M  V30 15384 H 1515.24 -0.760212 -3.79868 0
M  V30 15385 H 1515.66 -2.89854 -4.37132 0
M  V30 15386 H 1517.13 -1.4751 -5.31925 0
M  V30 15387 H 1517.61 -0.0549698 -4.39166 0
M  V30 15388 H 1518.22 -1.65822 -3.91642 0
M  V30 15389 N 1516.53 1.29665 -0.895815 0
M  V30 15390 C 1517.94 1.77825 -0.568784 0
M  V30 15391 C 1518.29 1.73534 0.915443 0
M  V30 15392 O 1517.42 1.31885 1.71567 0
M  V30 15393 C 1518.01 3.22901 -1.0257 0
M  V30 15394 C 1516.57 3.68854 -0.749903 0
M  V30 15395 C 1515.72 2.49866 -1.20259 0
M  V30 15396 H 1518.67 1.16381 -1.07894 0
M  V30 15397 H 1518.69 3.788 -0.359312 0
M  V30 15398 H 1518.2 3.25991 -2.10597 0
M  V30 15399 H 1516.3 3.71241 0.317916 0
M  V30 15400 H 1516.42 4.59831 -1.34506 0
M  V30 15401 H 1514.78 2.46997 -0.621676 0
M  V30 15402 H 1515.56 2.55687 -2.29083 0
M  V30 15403 N 1518.01 0.657889 1.43212 0
M  V30 15404 C 1518.92 -0.0313677 2.34579 0
M  V30 15405 C 1519.93 -0.807153 1.54146 0
M  V30 15406 O 1521.11 -0.753335 1.8678 0
M  V30 15407 C 1518.18 -0.982659 3.32483 0
M  V30 15408 C 1517.24 -0.203288 4.28818 0
M  V30 15409 C 1516.47 -1.10927 5.22045 0
M  V30 15410 O 1516.69 -2.34861 5.19804 0
M  V30 15411 O 1515.63 -0.57916 5.99107 0
M  V30 15412 H 1519.45 0.720808 2.95022 0
M  V30 15413 H 1517.04 0.418083 1.43431 0
M  V30 15414 H 1518.92 -1.52923 3.92673 0
M  V30 15415 H 1517.59 -1.71498 2.74536 0
M  V30 15416 H 1516.5 0.386982 3.72093 0
M  V30 15417 H 1517.83 0.489562 4.89759 0
M  V30 15418 N 1519.49 -1.52437 0.400108 0
M  V30 15419 C 1520.9 -1.86563 -0.0715162 0
M  V30 15420 C 1521.25 -1.3193 -1.4522 0
M  V30 15421 O 1520.37 -0.654955 -2.06251 0
M  V30 15422 C 1520.97 -3.38525 -0.13655 0
M  V30 15423 C 1519.53 -3.72323 -0.55249 0
M  V30 15424 C 1518.67 -2.75896 0.278729 0
M  V30 15425 H 1521.63 -1.46192 0.617547 0
M  V30 15426 H 1521.65 -3.68357 -0.953588 0
M  V30 15427 H 1521.16 -3.78258 0.868468 0
M  V30 15428 H 1519.26 -3.38164 -1.56448 0
M  V30 15429 H 1519.37 -4.7814 -0.303139 0
M  V30 15430 H 1517.74 -2.53394 -0.257608 0
M  V30 15431 H 1518.52 -3.18467 1.28193 0
M  V30 15432 N 1520.96 -0.130252 -1.57061 0
M  V30 15433 C 1521.91 0.827158 -2.12467 0
M  V30 15434 C 1522.9 1.22069 -1.04824 0
M  V30 15435 O 1524.09 1.1899 -1.31036 0
M  V30 15436 C 1521.22 2.07284 -2.73657 0
M  V30 15437 C 1520.31 1.70317 -3.88398 0
M  V30 15438 N 1520.7 1.04082 -4.94975 0
M  V30 15439 C 1518.99 1.99701 -3.98793 0
M  V30 15440 C 1519.7 0.865016 -5.75232 0
M  V30 15441 N 1518.67 1.39359 -5.25433 0
M  V30 15442 H 1522.47 0.311706 -2.92242 0
M  V30 15443 H 1519.99 0.0718523 -1.62241 0
M  V30 15444 H 1521.98 2.76854 -3.11701 0
M  V30 15445 H 1520.64 2.59363 -1.95349 0
M  V30 15446 H 1521.66 0.703501 -5.131 0
M  V30 15447 H 1518.33 2.53747 -3.3154 0
M  V30 15448 H 1519.72 0.344255 -6.71018 0
M  V30 15449 N 1522.44 1.56945 0.143535 0
M  V30 15450 C 1523.37 2.0156 1.17881 0
M  V30 15451 C 1524.35 0.895744 1.44604 0
M  V30 15452 O 1525.54 1.16379 1.55466 0
M  V30 15453 C 1522.67 2.39915 2.51114 0
M  V30 15454 C 1521.62 3.55117 2.38905 0
M  V30 15455 C 1520.95 3.79296 3.7688 0
M  V30 15456 C 1522.25 4.87668 1.87021 0
M  V30 15457 H 1523.94 2.88296 0.80783 0
M  V30 15458 H 1521.49 1.38698 0.387149 0
M  V30 15459 H 1523.44 2.69727 3.23767 0
M  V30 15460 H 1522.17 1.5012 2.90055 0
M  V30 15461 H 1520.83 3.25476 1.68703 0
M  V30 15462 H 1520.47 2.86747 4.13262 0
M  V30 15463 H 1520.17 4.56827 3.69571 0
M  V30 15464 H 1521.7 4.11537 4.51076 0
M  V30 15465 H 1523.11 5.16176 2.4947 0
M  V30 15466 H 1521.51 5.69029 1.90594 0
M  V30 15467 H 1522.58 4.77811 0.82611 0
M  V30 15468 N 1523.92 -0.412991 1.52093 0
M  V30 15469 C 1525.33 -0.991955 1.58168 0
M  V30 15470 C 1525.68 -1.91655 0.419834 0
M  V30 15471 O 1524.81 -2.11448 -0.460308 0
M  V30 15472 C 1525.4 -1.80581 2.86663 0
M  V30 15473 C 1523.96 -2.33487 2.9523 0
M  V30 15474 C 1523.11 -1.13362 2.5307 0
M  V30 15475 H 1526.06 -0.193364 1.57518 0
M  V30 15476 H 1526.08 -2.66282 2.71798 0
M  V30 15477 H 1525.59 -1.13262 3.71205 0
M  V30 15478 H 1523.69 -3.0419 2.15173 0
M  V30 15479 H 1523.81 -2.64617 3.99393 0
M  V30 15480 H 1522.17 -1.48641 2.06828 0
M  V30 15481 H 1522.95 -0.476148 3.39982 0
M  V30 15482 N 1525.4 -1.4265 -0.669982 0
M  V30 15483 C 1526.33 -1.49298 -1.79534 0
M  V30 15484 C 1527.31 -0.34911 -1.66479 0
M  V30 15485 O 1528.5 -0.564072 -1.85828 0
M  V30 15486 C 1525.63 -1.39935 -3.17861 0
M  V30 15487 C 1524.58 -2.52398 -3.45657 0
M  V30 15488 C 1523.91 -2.28092 -4.8361 0
M  V30 15489 C 1525.21 -3.94697 -3.4207 0
M  V30 15490 H 1526.9 -2.43486 -1.74227 0
M  V30 15491 H 1524.45 -1.17191 -0.836796 0
M  V30 15492 H 1526.4 -1.43193 -3.96325 0
M  V30 15493 H 1525.12 -0.422436 -3.23857 0
M  V30 15494 H 1523.78 -2.48465 -2.69556 0
M  V30 15495 H 1523.43 -1.28683 -4.86261 0
M  V30 15496 H 1523.13 -3.03469 -5.0317 0
M  V30 15497 H 1524.65 -2.33107 -5.64352 0
M  V30 15498 H 1526.07 -4.00207 -4.10496 0
M  V30 15499 H 1524.46 -4.69965 -3.73166 0
M  V30 15500 H 1525.53 -4.21025 -2.40554 0
M  V30 15501 N 1526.88 0.906753 -1.28902 0
M  V30 15502 C 1528.1 1.69547 -1.19452 0
M  V30 15503 C 1528.53 1.86531 0.242418 0
M  V30 15504 O 1527.89 1.38052 1.17521 0
M  V30 15505 C 1527.93 3.06139 -1.90556 0
M  V30 15506 O 1527.04 3.9401 -1.21779 0
M  V30 15507 H 1526.38 0.518902 -0.41429 0
M  V30 15508 H 1528.91 1.13327 -1.70347 0
M  V30 15509 H 1528.92 3.56326 -1.98736 0
M  V30 15510 H 1527.59 2.93094 -2.95074 0
M  V30 15511 H 1526.17 3.52444 -1.2181 0
M  V30 15512 N 1528.36 1.11264 1.11616 0
M  V30 15513 C 1529.29 0.79149 2.19676 0
M  V30 15514 C 1530.27 -0.239351 1.68408 0
M  V30 15515 O 1531.45 -0.103228 1.93925 0
M  V30 15516 C 1528.58 0.231891 3.46525 0
M  V30 15517 C 1527.54 1.19439 4.10997 0
M  V30 15518 C 1526.86 0.495593 5.32398 0
M  V30 15519 C 1528.16 2.54437 4.56135 0
M  V30 15520 H 1529.86 1.69503 2.46797 0
M  V30 15521 H 1527.4 0.816433 1.18619 0
M  V30 15522 H 1529.35 -0.00497468 4.214 0
M  V30 15523 H 1528.08 -0.706938 3.18857 0
M  V30 15524 H 1526.74 1.41686 3.38113 0
M  V30 15525 H 1526.39 -0.447984 5.01001 0
M  V30 15526 H 1526.09 1.13753 5.76484 0
M  V30 15527 H 1527.61 0.267476 6.10014 0
M  V30 15528 H 1529.02 2.36289 5.22341 0
M  V30 15529 H 1527.42 3.14595 5.11028 0
M  V30 15530 H 1528.49 3.13795 3.69676 0
M  V30 15531 N 1529.83 -1.29188 0.902679 0
M  V30 15532 C 1531.08 -1.94718 0.526082 0
M  V30 15533 C 1531.4 -1.71924 -0.932816 0
M  V30 15534 O 1532.6 -2.31585 -1.41707 0
M  V30 15535 C 1531.06 -3.48723 0.889974 0
M  V30 15536 C 1530.67 -3.80312 2.36784 0
M  V30 15537 C 1532.41 -4.20472 0.58343 0
M  V30 15538 C 1530.32 -5.27574 2.67244 0
M  V30 15539 H 1529.25 -0.728875 0.193019 0
M  V30 15540 H 1531.9 -1.46869 1.10008 0
M  V30 15541 H 1530.28 -3.95242 0.244872 0
M  V30 15542 H 1531.45 -3.44641 3.05875 0
M  V30 15543 H 1529.77 -3.21709 2.64371 0
M  V30 15544 H 1532.37 -5.28864 0.787813 0
M  V30 15545 H 1532.71 -4.13544 -0.478204 0
M  V30 15546 H 1533.24 -3.79693 1.1865 0
M  V30 15547 H 1529.98 -5.39569 3.72217 0
M  V30 15548 H 1529.5 -5.64482 2.0278 0
M  V30 15549 H 1531.18 -5.95199 2.53666 0
M  V30 15550 N 1531.31 -0.665475 -1.42861 0
M  V30 15551 C 1532.24 0.00482845 -2.335 0
M  V30 15552 C 1533.22 0.799135 -1.50159 0
M  V30 15553 O 1534.41 0.75816 -1.78789 0
M  V30 15554 C 1531.54 0.963347 -3.33672 0
M  V30 15555 C 1530.49 0.278294 -4.27094 0
M  V30 15556 C 1529.82 1.34911 -5.174 0
M  V30 15557 C 1531.12 -0.836925 -5.15551 0
M  V30 15558 H 1532.81 -0.752129 -2.89799 0
M  V30 15559 H 1530.36 -0.363139 -1.39346 0
M  V30 15560 H 1532.31 1.44128 -3.95986 0
M  V30 15561 H 1531.03 1.75161 -2.75656 0
M  V30 15562 H 1529.69 -0.179314 -3.66161 0
M  V30 15563 H 1529.34 2.12912 -4.55716 0
M  V30 15564 H 1529.04 0.895919 -5.8073 0
M  V30 15565 H 1530.57 1.82816 -5.8259 0
M  V30 15566 H 1531.98 -0.440617 -5.71604 0
M  V30 15567 H 1530.38 -1.21533 -5.87665 0
M  V30 15568 H 1531.45 -1.6897 -4.54507 0
M  V30 15569 N 1532.79 1.52222 -0.408187 0
M  V30 15570 C 1534.01 2.06703 0.169901 0
M  V30 15571 C 1534.44 1.27635 1.3817 0
M  V30 15572 O 1533.8 0.306343 1.78693 0
M  V30 15573 C 1533.85 3.57121 0.499663 0
M  V30 15574 O 1532.95 3.80483 1.5908 0
M  V30 15575 H 1532.29 0.663839 0.0146145 0
M  V30 15576 H 1534.82 1.96174 -0.581113 0
M  V30 15577 H 1534.83 4.00886 0.758567 0
M  V30 15578 H 1533.51 4.14103 -0.386182 0
M  V30 15579 H 1532.08 3.48599 1.32413 0
M  V30 15580 N 1534.27 0.138579 1.5699 0
M  V30 15581 C 1535.51 -0.51539 1.96142 0
M  V30 15582 C 1535.85 -1.65067 1.02306 0
M  V30 15583 O 1535.12 -1.94395 0.0638645 0
M  V30 15584 C 1535.4 -1.02956 3.45068 0
M  V30 15585 C 1535.26 0.103646 4.49681 0
M  V30 15586 C 1536.58 -1.91411 3.96295 0
M  V30 15587 H 1533.7 -0.185873 0.713176 0
M  V30 15588 H 1536.34 0.218103 1.88744 0
M  V30 15589 H 1534.49 -1.65462 3.51503 0
M  V30 15590 H 1536.16 0.739693 4.55331 0
M  V30 15591 H 1534.4 0.764014 4.27019 0
M  V30 15592 H 1535.07 -0.297688 5.51197 0
M  V30 15593 H 1537.55 -1.38746 3.92286 0
M  V30 15594 H 1536.43 -2.24298 5.0098 0
M  V30 15595 H 1536.69 -2.84793 3.38149 0
M  V30 15596 N 1535.75 -1.57019 -0.13521 0
M  V30 15597 C 1536.99 -1.84262 -0.847071 0
M  V30 15598 C 1537.32 -0.721946 -1.80282 0
M  V30 15599 O 1536.6 0.273535 -1.92567 0
M  V30 15600 C 1536.88 -3.22043 -1.61123 0
M  V30 15601 C 1536.74 -4.44689 -0.67617 0
M  V30 15602 C 1538.05 -3.57188 -2.57108 0
M  V30 15603 H 1535.17 -0.670246 -0.306496 0
M  V30 15604 H 1537.82 -1.89671 -0.111843 0
M  V30 15605 H 1535.97 -3.17563 -2.23799 0
M  V30 15606 H 1537.64 -4.61262 -0.0595009 0
M  V30 15607 H 1535.88 -4.33798 0.0134526 0
M  V30 15608 H 1536.55 -5.37727 -1.24714 0
M  V30 15609 H 1539.03 -3.62354 -2.04545 0
M  V30 15610 H 1537.9 -4.54602 -3.07617 0
M  V30 15611 H 1538.16 -2.83758 -3.39019 0
M  V30 15612 N 1537.22 0.404919 -1.52309 0
M  V30 15613 C 1538.45 1.17309 -1.70429 0
M  V30 15614 C 1538.87 1.84169 -0.415617 0
M  V30 15615 O 1538.22 1.7205 0.608693 0
M  V30 15616 C 1538.28 2.23306 -2.84282 0
M  V30 15617 O 1538 1.59176 -4.0816 0
M  V30 15618 C 1539.5 3.12972 -3.13948 0
M  V30 15619 H 1536.72 0.352348 -0.571045 0
M  V30 15620 H 1539.26 0.475851 -1.98887 0
M  V30 15621 H 1537.42 2.88693 -2.58332 0
M  V30 15622 H 1537.83 2.29481 -4.71634 0
M  V30 15623 H 1539.3 3.83411 -3.97115 0
M  V30 15624 H 1539.78 3.75582 -2.27672 0
M  V30 15625 H 1540.39 2.53251 -3.41678 0
M  V30 15626 N 1538.7 1.43003 0.662408 0
M  V30 15627 C 1539.93 1.47766 1.45533 0
M  V30 15628 C 1540.35 0.0940298 1.87865 0
M  V30 15629 O 1539.71 -0.910252 1.56793 0
M  V30 15630 C 1539.76 2.42084 2.6726 0
M  V30 15631 O 1538.86 1.90076 3.65985 0
M  V30 15632 H 1538.2 0.500167 0.436725 0
M  V30 15633 H 1540.73 1.87823 0.811399 0
M  V30 15634 H 1540.74 2.5908 3.15185 0
M  V30 15635 H 1539.42 3.42601 2.3579 0
M  V30 15636 H 1538 1.82695 3.2508 0
M  V30 15637 N 1540.18 -0.899904 1.29381 0
M  V30 15638 C 1541.14 -1.98554 1.14494 0
M  V30 15639 C 1542.14 -1.60599 0.0804732 0
M  V30 15640 O 1543.33 -1.71096 0.327395 0
M  V30 15641 C 1540.47 -3.32529 0.750818 0
M  V30 15642 H 1541.66 -2.13189 2.10928 0
M  V30 15643 H 1539.21 -1.08438 1.12565 0
M  V30 15644 H 1539.95 -3.23595 -0.213668 0
M  V30 15645 H 1539.73 -3.61443 1.51992 0
M  V30 15646 H 1541.22 -4.12195 0.669709 0
M  V30 15647 N 1541.66 -1.11854 -1.11024 0
M  V30 15648 C 1542.59 -0.803129 -2.19253 0
M  V30 15649 C 1543.57 0.230417 -1.68532 0
M  V30 15650 O 1544.75 0.0929421 -1.93977 0
M  V30 15651 C 1541.88 -0.250265 -3.46397 0
M  V30 15652 C 1540.84 -1.21617 -4.10357 0
M  V30 15653 C 1540.16 -0.523821 -5.32128 0
M  V30 15654 C 1541.46 -2.56852 -4.54779 0
M  V30 15655 H 1543.16 -1.7081 -2.45895 0
M  V30 15656 H 1540.7 -0.822712 -1.18184 0
M  V30 15657 H 1542.66 -0.0173732 -4.21396 0
M  V30 15658 H 1541.38 0.690018 -3.19228 0
M  V30 15659 H 1540.04 -1.43477 -3.37357 0
M  V30 15660 H 1539.69 0.421408 -5.01232 0
M  V30 15661 H 1539.39 -1.16809 -5.75873 0
M  V30 15662 H 1540.91 -0.299823 -6.09863 0
M  V30 15663 H 1542.33 -2.39056 -5.21081 0
M  V30 15664 H 1540.72 -3.17301 -5.09353 0
M  V30 15665 H 1541.79 -3.15751 -3.68007 0
M  V30 15666 N 1543.14 1.28707 -0.909517 0
M  V30 15667 C 1544.38 1.95443 -0.541281 0
M  V30 15668 C 1544.72 1.71457 0.911934 0
M  V30 15669 O 1543.99 1.03312 1.64794 0
M  V30 15670 C 1544.27 3.50019 -0.846097 0
M  V30 15671 C 1544.13 3.83423 -2.35173 0
M  V30 15672 C 1545.45 4.3879 -0.339328 0
M  V30 15673 H 1542.56 0.709869 -0.198128 0
M  V30 15674 H 1545.21 1.52151 -1.13799 0
M  V30 15675 H 1543.36 3.87025 -0.338262 0
M  V30 15676 H 1545.03 3.5631 -2.92986 0
M  V30 15677 H 1543.27 3.30618 -2.80846 0
M  V30 15678 H 1543.94 4.91348 -2.51557 0
M  V30 15679 H 1546.42 4.08832 -0.774312 0
M  V30 15680 H 1545.29 5.45809 -0.581722 0
M  V30 15681 H 1545.56 4.35514 0.760244 0
M  V30 15682 N 1544.61 0.673042 1.42506 0
M  V30 15683 C 1545.58 0.00283156 2.292 0
M  V30 15684 C 1546.58 -0.73077 1.43235 0
M  V30 15685 O 1547.77 -0.569037 1.64644 0
M  V30 15686 C 1544.9 -1.00666 3.25698 0
M  V30 15687 H 1546.09 0.765869 2.89956 0
M  V30 15688 H 1543.65 0.435301 1.50116 0
M  V30 15689 H 1544.38 -1.79825 2.69877 0
M  V30 15690 H 1544.17 -0.484043 3.89101 0
M  V30 15691 H 1545.66 -1.47409 3.90718 0
M  V30 15692 N 1546.09 -1.52004 0.416254 0
M  V30 15693 C 1547.06 -2.2579 -0.393882 0
M  V30 15694 C 1548.06 -1.28427 -0.967637 0
M  V30 15695 O 1549.25 -1.52311 -0.845396 0
M  V30 15696 C 1546.38 -3.03361 -1.55515 0
M  V30 15697 H 1547.57 -2.98835 0.252492 0
M  V30 15698 H 1545.12 -1.55384 0.168929 0
M  V30 15699 H 1545.86 -2.34682 -2.23818 0
M  V30 15700 H 1545.64 -3.74852 -1.15015 0
M  V30 15701 H 1547.13 -3.5931 -2.12805 0
M  V30 15702 N 1547.57 -0.146903 -1.56914 0
M  V30 15703 C 1548.5 0.788924 -2.19769 0
M  V30 15704 C 1549.48 1.25712 -1.14589 0
M  V30 15705 O 1550.67 1.3147 -1.42931 0
M  V30 15706 C 1547.8 2.02824 -2.81921 0
M  V30 15707 C 1546.75 1.69683 -3.92927 0
M  V30 15708 C 1546.08 3.00877 -4.42015 0
M  V30 15709 C 1547.38 0.943559 -5.13706 0
M  V30 15710 H 1549.07 0.265076 -2.98224 0
M  V30 15711 H 1546.62 0.126057 -1.43447 0
M  V30 15712 H 1548.57 2.68773 -3.2456 0
M  V30 15713 H 1547.29 2.57581 -2.00797 0
M  V30 15714 H 1545.95 1.06112 -3.50907 0
M  V30 15715 H 1545.6 3.53625 -3.57713 0
M  V30 15716 H 1545.3 2.79466 -5.16888 0
M  V30 15717 H 1546.82 3.67897 -4.87323 0
M  V30 15718 H 1548.24 1.50513 -5.5319 0
M  V30 15719 H 1546.64 0.829387 -5.94341 0
M  V30 15720 H 1547.71 -0.0647228 -4.84857 0
M  V30 15721 N 1549.05 1.57088 0.126881 0
M  V30 15722 C 1550.29 1.84709 0.837287 0
M  V30 15723 C 1550.63 0.731496 1.79897 0
M  V30 15724 O 1549.9 -0.263319 1.92709 0
M  V30 15725 C 1550.19 3.22893 1.59412 0
M  V30 15726 C 1550.04 4.45041 0.652578 0
M  V30 15727 C 1551.36 3.58547 2.5521 0
M  V30 15728 H 1548.48 0.671862 0.302937 0
M  V30 15729 H 1551.12 1.89727 0.101783 0
M  V30 15730 H 1549.27 3.18746 2.22112 0
M  V30 15731 H 1550.94 4.61287 0.0350382 0
M  V30 15732 H 1549.18 4.33785 -0.0364578 0
M  V30 15733 H 1549.85 5.38381 1.21861 0
M  V30 15734 H 1552.33 3.63434 2.0262 0
M  V30 15735 H 1551.21 4.56227 3.05202 0
M  V30 15736 H 1551.47 2.85552 3.37509 0
M  V30 15737 N 1550.53 -0.396836 1.52522 0
M  V30 15738 C 1551.46 -1.49088 1.79708 0
M  V30 15739 C 1552.44 -1.57246 0.648678 0
M  V30 15740 O 1553.62 -1.72321 0.895495 0
M  V30 15741 C 1550.75 -2.86785 1.95887 0
M  V30 15742 C 1549.71 -2.93472 3.11542 0
M  V30 15743 C 1549.03 -4.33542 3.12963 0
M  V30 15744 C 1550.33 -2.63832 4.50766 0
M  V30 15745 H 1552.03 -1.26588 2.71322 0
M  V30 15746 H 1549.57 -0.607535 1.30557 0
M  V30 15747 H 1551.53 -3.63319 2.13489 0
M  V30 15748 H 1550.25 -3.10605 1.00955 0
M  V30 15749 H 1548.91 -2.19384 2.93711 0
M  V30 15750 H 1548.56 -4.5439 2.15729 0
M  V30 15751 H 1548.26 -4.38938 3.9065 0
M  V30 15752 H 1549.78 -5.11993 3.32709 0
M  V30 15753 H 1551.19 -3.30086 4.68739 0
M  V30 15754 H 1549.59 -2.80589 5.30462 0
M  V30 15755 H 1550.66 -1.59209 4.58018 0
M  V30 15756 N 1552.01 -1.43353 -0.654814 0
M  V30 15757 C 1552.97 -1.4806 -1.7496 0
M  V30 15758 C 1553.97 -0.365513 -1.56591 0
M  V30 15759 O 1555.16 -0.627194 -1.62517 0
M  V30 15760 C 1552.29 -1.33165 -3.13815 0
M  V30 15761 H 1553.48 -2.45557 -1.72167 0
M  V30 15762 H 1551.04 -1.30094 -0.86632 0
M  V30 15763 H 1551.77 -0.366689 -3.2222 0
M  V30 15764 H 1551.56 -2.13998 -3.28553 0
M  V30 15765 H 1553.05 -1.39388 -3.93651 0
M  V30 15766 N 1553.48 0.89303 -1.29857 0
M  V30 15767 C 1554.73 1.64413 -1.18214 0
M  V30 15768 C 1555.06 1.92687 0.26492 0
M  V30 15769 O 1554.31 1.54044 1.20702 0
M  V30 15770 C 1554.61 2.99661 -1.94777 0
M  V30 15771 C 1554.28 2.90969 -3.44453 0
M  V30 15772 C 1552.94 2.88306 -3.8527 0
M  V30 15773 C 1555.29 2.79686 -4.39801 0
M  V30 15774 C 1552.62 2.72188 -5.19741 0
M  V30 15775 C 1554.97 2.65107 -5.7437 0
M  V30 15776 C 1553.64 2.60814 -6.14437 0
M  V30 15777 H 1552.91 0.60163 -0.432577 0
M  V30 15778 H 1555.55 1.03891 -1.60869 0
M  V30 15779 H 1553.86 3.64087 -1.44733 0
M  V30 15780 H 1555.56 3.56722 -1.83168 0
M  V30 15781 H 1552.15 2.93848 -3.12012 0
M  V30 15782 H 1556.33 2.80816 -4.09214 0
M  V30 15783 H 1551.59 2.67273 -5.49886 0
M  V30 15784 H 1555.76 2.55349 -6.47897 0
M  V30 15785 H 1553.39 2.48082 -7.18582 0
M  V30 15786 N 1554.96 1.12442 1.10429 0
M  V30 15787 C 1556.19 0.902914 1.86714 0
M  V30 15788 C 1556.61 -0.542514 1.80107 0
M  V30 15789 O 1555.97 -1.38406 1.17105 0
M  V30 15790 C 1556.02 1.38238 3.33051 0
M  V30 15791 O 1555.12 0.560877 4.08568 0
M  V30 15792 H 1554.46 0.324397 0.579364 0
M  V30 15793 H 1556.99 1.49652 1.39519 0
M  V30 15794 H 1557 1.38148 3.839 0
M  V30 15795 H 1555.68 2.43486 3.37176 0
M  V30 15796 H 1554.25 0.628771 3.67561 0
M  V30 15797 N 1556.44 -1.28223 0.91633 0
M  V30 15798 C 1557.69 -1.9448 0.549734 0
M  V30 15799 C 1558.01 -1.72465 -0.909999 0
M  V30 15800 O 1557.28 -1.06583 -1.64368 0
M  V30 15801 H 1555.86 -0.719641 0.200315 0
M  V30 15802 H 1558.52 -1.56156 1.16625 0
M  V30 15803 H 1557.62 -3.03044 0.746363 0
M  V30 15804 N 1557.92 -0.68059 -1.42147 0
M  V30 15805 C 1559.17 -0.202445 -2.00681 0
M  V30 15806 C 1559.48 1.19997 -1.54467 0
M  V30 15807 O 1560.69 1.77479 -2.05459 0
M  V30 15808 C 1559.14 -0.311064 -3.58553 0
M  V30 15809 C 1558.75 -1.7179 -4.13754 0
M  V30 15810 C 1560.49 0.108072 -4.24362 0
M  V30 15811 C 1558.4 -1.77897 -5.64009 0
M  V30 15812 H 1557.33 -0.0719266 -0.750561 0
M  V30 15813 H 1559.98 -0.846614 -1.62803 0
M  V30 15814 H 1558.36 0.401098 -3.93963 0
M  V30 15815 H 1559.54 -2.45761 -3.89793 0
M  V30 15816 H 1557.85 -2.08539 -3.60417 0
M  V30 15817 H 1560.45 0.0826684 -5.34636 0
M  V30 15818 H 1560.79 1.14431 -4.00264 0
M  V30 15819 H 1561.33 -0.553285 -3.93933 0
M  V30 15820 H 1558.06 -2.79523 -5.92914 0
M  V30 15821 H 1557.58 -1.0829 -5.89944 0
M  V30 15822 H 1559.26 -1.53504 -6.28527 0
M  V30 15823 N 1559.4 1.51781 -0.424309 0
M  V30 15824 C 1560.33 2.23945 0.438604 0
M  V30 15825 C 1561.31 1.25363 1.03552 0
M  V30 15826 O 1562.49 1.5446 1.08048 0
M  V30 15827 C 1559.62 2.9798 1.61014 0
M  V30 15828 C 1558.66 4.11116 1.13516 0
M  V30 15829 S 1559.5 5.35428 0.0878448 0
M  V30 15830 C 1560.65 6.12997 1.26435 0
M  V30 15831 H 1560.89 2.9679 -0.174103 0
M  V30 15832 H 1558.42 1.52983 -0.208718 0
M  V30 15833 H 1560.38 3.41237 2.28183 0
M  V30 15834 H 1559.04 2.2475 2.19423 0
M  V30 15835 H 1558.23 4.62147 2.01086 0
M  V30 15836 H 1557.83 3.70053 0.5419 0
M  V30 15837 H 1560.12 6.41293 2.18517 0
M  V30 15838 H 1561.07 7.03631 0.794265 0
M  V30 15839 H 1561.48 5.44288 1.49702 0
M  V30 15840 N 1560.87 0.155222 1.56834 0
M  V30 15841 C 1562.12 -0.493831 1.95561 0
M  V30 15842 C 1562.44 -1.65468 1.04305 0
M  V30 15843 O 1563.64 -2.36891 1.32646 0
M  V30 15844 C 1562.1 -0.929923 3.47679 0
M  V30 15845 C 1561.71 0.204447 4.47533 0
M  V30 15846 C 1563.45 -1.5483 3.95257 0
M  V30 15847 C 1561.36 -0.250375 5.9087 0
M  V30 15848 H 1560.29 -0.188258 0.73012 0
M  V30 15849 H 1562.94 0.240883 1.81912 0
M  V30 15850 H 1561.32 -1.72014 3.56689 0
M  V30 15851 H 1562.49 0.981535 4.50225 0
M  V30 15852 H 1560.81 0.731756 4.0992 0
M  V30 15853 H 1563.41 -1.90036 4.9979 0
M  V30 15854 H 1563.75 -2.44031 3.37275 0
M  V30 15855 H 1564.28 -0.822828 3.89197 0
M  V30 15856 H 1561.02 0.606461 6.52689 0
M  V30 15857 H 1560.54 -0.993164 5.9152 0
M  V30 15858 H 1562.22 -0.699645 6.43206 0
M  V30 15859 N 1562.35 -1.57153 -0.118549 0
M  V30 15860 C 1563.6 -1.8515 -0.82748 0
M  V30 15861 C 1563.93 -0.741026 -1.79506 0
M  V30 15862 O 1563.21 0.253095 -1.92846 0
M  V30 15863 C 1563.49 -3.23734 -1.57698 0
M  V30 15864 C 1563.34 -4.45381 -0.628967 0
M  V30 15865 C 1564.66 -3.59895 -2.53305 0
M  V30 15866 H 1561.78 -0.673459 -0.29937 0
M  V30 15867 H 1564.42 -1.89778 -0.0917198 0
M  V30 15868 H 1562.57 -3.19919 -2.20418 0
M  V30 15869 H 1564.24 -4.61299 -0.0105746 0
M  V30 15870 H 1562.49 -4.33759 0.059462 0
M  V30 15871 H 1563.16 -5.3902 -1.19004 0
M  V30 15872 H 1565.63 -3.64503 -2.0069 0
M  V30 15873 H 1564.51 -4.57839 -3.02778 0
M  V30 15874 H 1564.77 -2.87338 -3.3599 0
M  V30 15875 N 1563.83 0.388742 -1.5273 0
M  V30 15876 C 1565.06 1.15328 -1.71415 0
M  V30 15877 C 1565.47 1.84193 -0.432366 0
M  V30 15878 O 1564.81 1.73522 0.602977 0
M  V30 15879 C 1564.87 2.24436 -2.80836 0
M  V30 15880 C 1564.54 1.75535 -4.21944 0
M  V30 15881 C 1565.53 1.23196 -5.05093 0
M  V30 15882 C 1563.22 1.8175 -4.68265 0
M  V30 15883 C 1565.21 0.777194 -6.32644 0
M  V30 15884 C 1562.9 1.35885 -5.95801 0
M  V30 15885 C 1563.9 0.839573 -6.7782 0
M  V30 15886 O 1563.59 0.387619 -8.02965 0
M  V30 15887 H 1563.32 0.351742 -0.577281 0
M  V30 15888 H 1565.87 0.460735 -2.00166 0
M  V30 15889 H 1564.1 2.97115 -2.47506 0
M  V30 15890 H 1565.79 2.86106 -2.87921 0
M  V30 15891 H 1566.56 1.17751 -4.70489 0
M  V30 15892 H 1562.44 2.21111 -4.04513 0
M  V30 15893 H 1565.98 0.371199 -6.96612 0
M  V30 15894 H 1561.88 1.41016 -6.29909 0
M  V30 15895 H 1562.64 0.509073 -8.16915 0
M  V30 15896 N 1565.31 1.43698 0.647203 0
M  V30 15897 C 1566.72 1.27231 0.963563 0
M  V30 15898 C 1566.92 0.196385 2.00541 0
M  V30 15899 O 1565.98 -0.423162 2.48929 0
M  V30 15900 C 1567.29 2.63863 1.44211 0
M  V30 15901 C 1568.84 2.71444 1.55844 0
M  V30 15902 C 1569.32 4.08508 2.07087 0
M  V30 15903 N 1570.81 4.10603 2.14381 0
M  V30 15904 C 1571.54 5.13496 2.55166 0
M  V30 15905 N 1571.04 6.26759 2.95203 0
M  V30 15906 N 1572.83 5.0085 2.55158 0
M  V30 15907 H 1564.98 2.12358 -0.0420956 0
M  V30 15908 H 1567.24 0.946989 0.0437628 0
M  V30 15909 H 1566.95 3.43589 0.75096 0
M  V30 15910 H 1566.82 2.89666 2.41605 0
M  V30 15911 H 1569.21 1.92046 2.24058 0
M  V30 15912 H 1569.29 2.49399 0.56866 0
M  V30 15913 H 1568.94 4.88375 1.39472 0
M  V30 15914 H 1568.87 4.2792 3.06907 0
M  V30 15915 H 1571.36 3.2885 1.86188 0
M  V30 15916 H 1571.67 7.01096 3.25091 0
M  V30 15917 H 1570.02 6.30222 2.92993 0
M  V30 15918 H 1573.21 4.11428 2.2326 0
M  V30 15919 H 1573.38 5.81165 2.86621 0
M  V30 15920 N 1566.79 -0.886131 1.30328 0
M  V30 15921 C 1568.2 -1.16922 1.08634 0
M  V30 15922 C 1568.4 -2.00913 -0.15365 0
M  V30 15923 O 1567.46 -2.37849 -0.847592 0
M  V30 15924 C 1568.77 -1.87701 2.34923 0
M  V30 15925 C 1570.32 -2.0047 2.40376 0
M  V30 15926 C 1570.79 -2.74662 3.66504 0
M  V30 15927 N 1572.29 -2.82208 3.67305 0
M  V30 15928 C 1573.02 -3.40185 4.61586 0
M  V30 15929 N 1572.52 -3.99221 5.66211 0
M  V30 15930 N 1574.31 -3.37989 4.49132 0
M  V30 15931 H 1566.46 -0.326064 2.09882 0
M  V30 15932 H 1568.72 -0.206996 0.925125 0
M  V30 15933 H 1568.43 -1.33427 3.25408 0
M  V30 15934 H 1568.3 -2.88092 2.43481 0
M  V30 15935 H 1570.69 -2.53914 1.50371 0
M  V30 15936 H 1570.77 -0.991709 2.35794 0
M  V30 15937 H 1570.42 -2.2189 4.56867 0
M  V30 15938 H 1570.35 -3.76335 3.68347 0
M  V30 15939 H 1572.84 -2.40292 2.91665 0
M  V30 15940 H 1573.15 -4.41522 6.34254 0
M  V30 15941 H 1571.49 -3.97643 5.70004 0
M  V30 15942 H 1574.69 -2.91096 3.6658 0
M  V30 15943 H 1574.86 -3.82877 5.2279 0
M  V30 15944 N 1568.26 -1.13026 -1.09832 0
M  V30 15945 C 1569.21 -0.803817 -2.1635 0
M  V30 15946 C 1570.18 0.232226 -1.64469 0
M  V30 15947 O 1571.37 0.105403 -1.90509 0
M  V30 15948 C 1568.51 -0.271414 -3.44031 0
M  V30 15949 C 1567.62 -1.36602 -4.09834 0
M  V30 15950 C 1566.75 -0.792393 -5.25257 0
M  V30 15951 C 1565.79 -1.86569 -5.82974 0
M  V30 15952 N 1564.93 -1.31032 -6.89764 0
M  V30 15953 H 1569.77 -1.71624 -2.43617 0
M  V30 15954 H 1567.31 -0.856772 -1.19574 0
M  V30 15955 H 1569.27 0.0553638 -4.17163 0
M  V30 15956 H 1567.9 0.604154 -3.17096 0
M  V30 15957 H 1566.95 -1.80946 -3.34608 0
M  V30 15958 H 1568.26 -2.17737 -4.48767 0
M  V30 15959 H 1567.41 -0.416652 -6.05268 0
M  V30 15960 H 1566.15 0.0500894 -4.87674 0
M  V30 15961 H 1565.16 -2.25054 -5.01628 0
M  V30 15962 H 1566.38 -2.7115 -6.22619 0
M  V30 15963 H 1564.33 -0.489768 -6.54169 0
M  V30 15964 H 1564.25 -2.0582 -7.27444 0
M  V30 15965 H 1565.51 -0.962011 -7.73541 0
M  V30 15966 N 1569.74 1.27735 -0.923117 0
M  V30 15967 C 1570.69 2.24644 -0.389748 0
M  V30 15968 C 1571.68 1.52822 0.50341 0
M  V30 15969 O 1572.87 1.73672 0.341602 0
M  V30 15970 C 1570 3.41402 0.360535 0
M  V30 15971 C 1569.08 4.20533 -0.548877 0
M  V30 15972 N 1569.47 4.77552 -1.66667 0
M  V30 15973 C 1567.77 4.44617 -0.35102 0
M  V30 15974 C 1568.47 5.37179 -2.23191 0
M  V30 15975 N 1567.45 5.21857 -1.52204 0
M  V30 15976 H 1571.25 2.66308 -1.24328 0
M  V30 15977 H 1568.77 1.42614 -0.776856 0
M  V30 15978 H 1570.76 4.09922 0.759555 0
M  V30 15979 H 1569.42 3.0127 1.21105 0
M  V30 15980 H 1570.43 4.75638 -2.04912 0
M  V30 15981 H 1567.11 4.14967 0.459214 0
M  V30 15982 H 1568.5 5.92274 -3.17272 0
M  V30 15983 N 1571.22 0.688118 1.41784 0
M  V30 15984 C 1572.15 -0.02099 2.2919 0
M  V30 15985 C 1573.17 -0.752005 1.44391 0
M  V30 15986 O 1574.35 -0.603947 1.67972 0
M  V30 15987 C 1571.45 -1.0537 3.22103 0
M  V30 15988 C 1570.63 -0.393817 4.35624 0
M  V30 15989 C 1569.69 -1.32812 5.09163 0
M  V30 15990 O 1568.71 -0.823341 5.63214 0
M  V30 15991 N 1569.91 -2.66083 5.15927 0
M  V30 15992 H 1572.68 0.729389 2.90689 0
M  V30 15993 H 1570.24 0.533564 1.52855 0
M  V30 15994 H 1572.23 -1.6803 3.68169 0
M  V30 15995 H 1570.8 -1.70568 2.61964 0
M  V30 15996 H 1570.02 0.41253 3.92035 0
M  V30 15997 H 1571.31 0.065338 5.08758 0
M  V30 15998 H 1570.71 -3.09619 4.73448 0
M  V30 15999 H 1569.27 -3.23956 5.65593 0
M  V30 16000 N 1572.7 -1.51554 0.432352 0
M  V30 16001 C 1573.61 -2.31371 -0.387885 0
M  V30 16002 C 1574.62 -1.40072 -1.03227 0
M  V30 16003 O 1575.8 -1.73145 -1.02873 0
M  V30 16004 C 1572.87 -3.13662 -1.47705 0
M  V30 16005 C 1571.93 -4.20734 -0.853315 0
M  V30 16006 C 1571.16 -4.99092 -1.89058 0
M  V30 16007 O 1571.38 -4.78022 -3.11209 0
M  V30 16008 O 1570.32 -5.83322 -1.48389 0
M  V30 16009 H 1574.14 -3.02554 0.263578 0
M  V30 16010 H 1571.73 -1.48122 0.195004 0
M  V30 16011 H 1573.61 -3.64837 -2.10884 0
M  V30 16012 H 1572.28 -2.45249 -2.11269 0
M  V30 16013 H 1571.19 -3.73649 -0.183616 0
M  V30 16014 H 1572.52 -4.91506 -0.261244 0
M  V30 16015 N 1574.18 -0.163538 -1.56749 0
M  V30 16016 C 1575.11 0.765571 -2.20593 0
M  V30 16017 C 1576.09 1.24489 -1.15916 0
M  V30 16018 O 1577.27 1.29946 -1.44318 0
M  V30 16019 C 1574.4 1.99823 -2.84057 0
M  V30 16020 C 1573.36 1.65506 -3.94705 0
M  V30 16021 C 1572.68 2.96172 -4.45181 0
M  V30 16022 C 1573.98 0.88902 -5.14678 0
M  V30 16023 H 1575.68 0.233431 -2.98489 0
M  V30 16024 H 1573.22 0.110836 -1.43573 0
M  V30 16025 H 1575.18 2.65316 -3.27392 0
M  V30 16026 H 1573.9 2.55437 -2.03517 0
M  V30 16027 H 1572.56 1.02384 -3.52013 0
M  V30 16028 H 1572.21 3.49811 -3.61443 0
M  V30 16029 H 1571.91 2.73968 -5.19823 0
M  V30 16030 H 1573.43 3.62708 -4.91198 0
M  V30 16031 H 1574.84 1.44637 -5.54755 0
M  V30 16032 H 1573.24 0.766302 -5.95187 0
M  V30 16033 H 1574.31 -0.116145 -4.84761 0
M  V30 16034 N 1575.65 1.57214 0.110213 0
M  V30 16035 C 1576.59 1.97641 1.16064 0
M  V30 16036 C 1577.6 0.876886 1.37166 0
M  V30 16037 O 1578.79 1.15512 1.36086 0
M  V30 16038 C 1575.89 2.2671 2.51904 0
M  V30 16039 C 1575.06 3.58015 2.51285 0
M  V30 16040 C 1574.12 3.75195 3.68938 0
M  V30 16041 O 1573.15 4.47214 3.5212 0
M  V30 16042 N 1574.35 3.14627 4.87842 0
M  V30 16043 H 1577.11 2.88358 0.816679 0
M  V30 16044 H 1574.67 1.59108 0.299383 0
M  V30 16045 H 1576.67 2.35411 3.29187 0
M  V30 16046 H 1575.24 1.42076 2.78448 0
M  V30 16047 H 1574.46 3.60422 1.59655 0
M  V30 16048 H 1575.74 4.44303 2.47936 0
M  V30 16049 H 1575.14 2.56101 5.0441 0
M  V30 16050 H 1573.7 3.28836 5.6277 0
M  V30 16051 N 1577.13 -0.380637 1.52934 0
M  V30 16052 C 1578.1 -1.44819 1.77652 0
M  V30 16053 C 1579.1 -1.47224 0.646657 0
M  V30 16054 O 1580.29 -1.48248 0.91477 0
M  V30 16055 C 1577.42 -2.8405 1.8849 0
M  V30 16056 H 1578.61 -1.24183 2.72981 0
M  V30 16057 H 1576.16 -0.61288 1.43783 0
M  V30 16058 H 1576.9 -3.1002 0.951751 0
M  V30 16059 H 1576.68 -2.83704 2.70655 0
M  V30 16060 H 1578.17 -3.61388 2.09257 0
M  V30 16061 N 1578.61 -1.44039 -0.639573 0
M  V30 16062 C 1579.54 -1.44715 -1.76445 0
M  V30 16063 C 1580.52 -0.306957 -1.59676 0
M  V30 16064 O 1581.71 -0.502643 -1.81675 0
M  V30 16065 C 1578.83 -1.27177 -3.13917 0
M  V30 16066 C 1577.88 -2.44649 -3.49355 0
M  V30 16067 S 1578.71 -4.07191 -3.47787 0
M  V30 16068 C 1579.87 -3.92061 -4.87893 0
M  V30 16069 H 1580.1 -2.39897 -1.75603 0
M  V30 16070 H 1577.63 -1.31235 -0.813438 0
M  V30 16071 H 1579.59 -1.17745 -3.93251 0
M  V30 16072 H 1578.25 -0.335196 -3.12306 0
M  V30 16073 H 1577.45 -2.28219 -4.49369 0
M  V30 16074 H 1577.05 -2.50777 -2.77465 0
M  V30 16075 H 1579.34 -3.55229 -5.76904 0
M  V30 16076 H 1580.28 -4.91875 -5.09377 0
M  V30 16077 H 1580.69 -3.24271 -4.6207 0
M  V30 16078 N 1580.09 0.879207 -1.30796 0
M  V30 16079 C 1581.02 1.99134 -1.13482 0
M  V30 16080 C 1582.03 1.6262 -0.0764492 0
M  V30 16081 O 1583.22 1.75553 -0.323038 0
M  V30 16082 C 1580.32 3.31386 -0.709706 0
M  V30 16083 C 1579.5 3.963 -1.85108 0
M  V30 16084 C 1578.55 5.06858 -1.41356 0
M  V30 16085 O 1577.58 5.28178 -2.12172 0
M  V30 16086 N 1578.78 5.79746 -0.295789 0
M  V30 16087 H 1581.55 2.14536 -2.09271 0
M  V30 16088 H 1579.11 1.05264 -1.23009 0
M  V30 16089 H 1581.1 4.02719 -0.399903 0
M  V30 16090 H 1579.67 3.12209 0.156309 0
M  V30 16091 H 1578.89 3.18065 -2.3287 0
M  V30 16092 H 1580.18 4.36408 -2.61582 0
M  V30 16093 H 1579.58 5.64935 0.294166 0
M  V30 16094 H 1578.13 6.51784 -0.0454707 0
M  V30 16095 N 1581.57 1.13606 1.09231 0
M  V30 16096 C 1582.5 0.758936 2.1521 0
M  V30 16097 C 1583.48 -0.255788 1.60575 0
M  V30 16098 O 1584.66 -0.14682 1.87927 0
M  V30 16099 C 1581.79 0.125401 3.38468 0
M  V30 16100 C 1580.84 1.10894 4.11831 0
M  V30 16101 S 1581.67 2.64233 4.65769 0
M  V30 16102 C 1582.82 2.02246 5.92324 0
M  V30 16103 H 1583.06 1.65661 2.46868 0
M  V30 16104 H 1580.59 0.956419 1.2121 0
M  V30 16105 H 1582.55 -0.233725 4.09834 0
M  V30 16106 H 1581.21 -0.749575 3.05025 0
M  V30 16107 H 1580.4 0.613519 5.00252 0
M  V30 16108 H 1580 1.41163 3.46336 0
M  V30 16109 H 1582.3 1.37275 6.63447 0
M  V30 16110 H 1583.24 2.88756 6.46549 0
M  V30 16111 H 1583.65 1.47321 5.44937 0
M  V30 16112 N 1583.05 -1.27244 0.929878 0
M  V30 16113 C 1583.96 -2.30506 0.436355 0
M  V30 16114 C 1584.97 -1.67131 -0.484054 0
M  V30 16115 O 1586.15 -1.9804 -0.366332 0
M  V30 16116 C 1583.21 -3.45391 -0.300942 0
M  V30 16117 C 1582.27 -4.24279 0.654647 0
M  V30 16118 C 1581.51 -5.33679 -0.047558 0
M  V30 16119 O 1581.73 -5.56161 -1.26654 0
M  V30 16120 O 1580.66 -5.98642 0.62538 0
M  V30 16121 H 1584.49 -2.74762 1.29382 0
M  V30 16122 H 1582.07 -1.32234 0.695311 0
M  V30 16123 H 1583.96 -4.1526 -0.716718 0
M  V30 16124 H 1582.63 -3.03187 -1.13398 0
M  V30 16125 H 1581.54 -3.56936 1.12015 0
M  V30 16126 H 1582.87 -4.70204 1.45497 0
M  V30 16127 N 1584.52 -0.695628 -1.41417 0
M  V30 16128 C 1585.45 -0.0447013 -2.33457 0
M  V30 16129 C 1586.43 0.767104 -1.51821 0
M  V30 16130 O 1587.62 0.720066 -1.80357 0
M  V30 16131 C 1584.75 0.892353 -3.3564 0
M  V30 16132 C 1583.7 0.187638 -4.27588 0
M  V30 16133 C 1583.03 1.23906 -5.20146 0
M  V30 16134 C 1584.33 -0.946093 -5.1366 0
M  V30 16135 H 1586.02 -0.81343 -2.88138 0
M  V30 16136 H 1583.57 -0.392614 -1.38544 0
M  V30 16137 H 1585.52 1.35696 -3.98954 0
M  V30 16138 H 1584.25 1.69275 -2.79309 0
M  V30 16139 H 1582.91 -0.256942 -3.65698 0
M  V30 16140 H 1582.55 2.03198 -4.6013 0
M  V30 16141 H 1582.25 0.772536 -5.82499 0
M  V30 16142 H 1583.78 1.70417 -5.86336 0
M  V30 16143 H 1585.19 -0.561764 -5.70541 0
M  V30 16144 H 1583.59 -1.33971 -5.84954 0
M  V30 16145 H 1584.66 -1.78573 -4.50821 0
M  V30 16146 N 1586 1.51322 -0.440383 0
M  V30 16147 C 1586.93 2.25587 0.40537 0
M  V30 16148 C 1587.95 1.29721 0.983686 0
M  V30 16149 O 1589.14 1.55453 0.877308 0
M  V30 16150 C 1586.24 2.99848 1.57938 0
M  V30 16151 C 1585.41 4.22834 1.11939 0
M  V30 16152 C 1584.47 4.79649 2.16387 0
M  V30 16153 O 1583.49 5.41405 1.75697 0
M  V30 16154 N 1584.7 4.63948 3.48902 0
M  V30 16155 H 1587.46 2.98807 -0.231143 0
M  V30 16156 H 1585.02 1.59642 -0.26944 0
M  V30 16157 H 1587.01 3.34743 2.2744 0
M  V30 16158 H 1585.58 2.29619 2.12117 0
M  V30 16159 H 1584.8 3.93398 0.251323 0
M  V30 16160 H 1586.09 5.02637 0.7895 0
M  V30 16161 H 1585.49 4.14764 3.84691 0
M  V30 16162 H 1584.05 5.03196 4.14291 0
M  V30 16163 N 1587.48 0.171848 1.5666 0
M  V30 16164 C 1588.7 -0.482396 2.01712 0
M  V30 16165 C 1589.13 -1.5598 1.05128 0
M  V30 16166 O 1588.49 -1.81274 0.0309178 0
M  V30 16167 C 1588.54 -1.03716 3.45363 0
M  V30 16168 O 1587.64 -2.15114 3.51852 0
M  V30 16169 H 1586.98 -0.115439 0.653888 0
M  V30 16170 H 1589.51 0.275895 2.02731 0
M  V30 16171 H 1589.52 -1.35964 3.84679 0
M  V30 16172 H 1588.2 -0.24832 4.15158 0
M  V30 16173 H 1586.77 -1.83907 3.24396 0
M  V30 16174 N 1588.96 -1.5727 -0.101874 0
M  V30 16175 C 1590.37 -1.74753 -0.657147 0
M  V30 16176 C 1590.72 -0.793052 -1.79458 0
M  V30 16177 O 1589.84 0.0300559 -2.16379 0
M  V30 16178 C 1590.44 -3.1688 -1.19885 0
M  V30 16179 C 1589 -3.3581 -1.70025 0
M  V30 16180 C 1588.15 -2.70575 -0.607007 0
M  V30 16181 H 1591.1 -1.58214 0.124158 0
M  V30 16182 H 1591.12 -3.19378 -2.06829 0
M  V30 16183 H 1590.63 -3.86325 -0.37079 0
M  V30 16184 H 1588.73 -2.71434 -2.55253 0
M  V30 16185 H 1588.84 -4.44086 -1.79791 0
M  V30 16186 H 1587.21 -2.32284 -1.04481 0
M  V30 16187 H 1587.99 -3.42655 0.21036 0
M  V30 16188 N 1590.44 0.372521 -1.53134 0
M  V30 16189 C 1591.35 1.47994 -1.8203 0
M  V30 16190 C 1592.36 1.58937 -0.708179 0
M  V30 16191 O 1593.54 1.74962 -0.997511 0
M  V30 16192 C 1590.6 2.83342 -1.99796 0
M  V30 16193 C 1589.66 2.81984 -3.23702 0
M  V30 16194 C 1588.9 4.10877 -3.40611 0
M  V30 16195 O 1589.12 5.06686 -2.61964 0
M  V30 16196 O 1588.05 4.17111 -4.33938 0
M  V30 16197 H 1591.88 1.26501 -2.761 0
M  V30 16198 H 1589.46 0.561957 -1.38428 0
M  V30 16199 H 1591.35 3.63551 -2.13092 0
M  V30 16200 H 1590.02 3.04826 -1.08916 0
M  V30 16201 H 1588.93 2.00498 -3.15834 0
M  V30 16202 H 1590.26 2.65453 -4.14482 0
M  V30 16203 N 1591.91 1.44376 0.631925 0
M  V30 16204 C 1593.14 1.5038 1.41667 0
M  V30 16205 C 1593.55 0.12709 1.88773 0
M  V30 16206 O 1592.89 -0.877119 1.61407 0
M  V30 16207 C 1592.96 2.40602 2.67116 0
M  V30 16208 C 1592.62 3.87784 2.41812 0
M  V30 16209 C 1593.62 4.78337 2.0369 0
M  V30 16210 C 1591.3 4.32478 2.55476 0
M  V30 16211 C 1593.3 6.11586 1.7956 0
M  V30 16212 C 1590.98 5.65774 2.30961 0
M  V30 16213 C 1591.98 6.55146 1.93061 0
M  V30 16214 O 1591.67 7.85974 1.68818 0
M  V30 16215 H 1591.4 0.5124 0.440933 0
M  V30 16216 H 1593.96 1.9001 0.780096 0
M  V30 16217 H 1592.19 1.95898 3.33408 0
M  V30 16218 H 1593.87 2.37564 3.29117 0
M  V30 16219 H 1594.64 4.45079 1.92691 0
M  V30 16220 H 1590.52 3.63174 2.83946 0
M  V30 16221 H 1594.06 6.81304 1.49903 0
M  V30 16222 H 1589.96 5.98594 2.4157 0
M  V30 16223 H 1590.73 7.97764 1.8307 0
M  V30 16224 N 1593.39 -0.872258 1.31261 0
M  V30 16225 C 1594.34 -1.97926 1.18718 0
M  V30 16226 C 1595.31 -1.65937 0.0735242 0
M  V30 16227 O 1596.49 -1.89208 0.245979 0
M  V30 16228 C 1593.63 -3.33208 0.898117 0
M  V30 16229 C 1592.75 -3.77808 2.09488 0
M  V30 16230 C 1591.88 -5.01796 1.74281 0
M  V30 16231 C 1590.92 -5.38838 2.90379 0
M  V30 16232 N 1590.06 -6.54007 2.55382 0
M  V30 16233 H 1594.9 -2.07986 2.13415 0
M  V30 16234 H 1592.43 -1.01821 1.06165 0
M  V30 16235 H 1594.39 -4.11095 0.711089 0
M  V30 16236 H 1593.02 -3.22798 -0.0120097 0
M  V30 16237 H 1592.07 -2.95722 2.39276 0
M  V30 16238 H 1593.39 -4.01191 2.96391 0
M  V30 16239 H 1592.54 -5.87344 1.52027 0
M  V30 16240 H 1591.28 -4.80312 0.845665 0
M  V30 16241 H 1590.28 -4.51811 3.13284 0
M  V30 16242 H 1591.51 -5.62289 3.80799 0
M  V30 16243 H 1589.46 -6.34073 1.68188 0
M  V30 16244 H 1589.37 -6.77322 3.35814 0
M  V30 16245 H 1590.64 -7.42752 2.36516 0
M  V30 16246 N 1594.87 -1.14184 -1.08627 0
M  V30 16247 C 1595.8 -0.849455 -2.17501 0
M  V30 16248 C 1596.78 0.194617 -1.68983 0
M  V30 16249 O 1597.97 0.0517757 -1.94131 0
M  V30 16250 C 1595.1 -0.323685 -3.45788 0
M  V30 16251 C 1594.05 -1.30294 -4.07685 0
M  V30 16252 C 1593.38 -0.636575 -5.30897 0
M  V30 16253 C 1594.68 -2.66441 -4.49229 0
M  V30 16254 H 1596.37 -1.75987 -2.42217 0
M  V30 16255 H 1593.92 -0.847595 -1.16412 0
M  V30 16256 H 1595.87 -0.106754 -4.21265 0
M  V30 16257 H 1594.59 0.62215 -3.20619 0
M  V30 16258 H 1593.25 -1.50601 -3.34238 0
M  V30 16259 H 1592.9 0.314995 -5.02013 0
M  V30 16260 H 1592.6 -1.28998 -5.73266 0
M  V30 16261 H 1594.12 -0.429117 -6.0909 0
M  V30 16262 H 1595.54 -2.50055 -5.15893 0
M  V30 16263 H 1593.93 -3.28033 -5.02508 0
M  V30 16264 H 1595 -3.23486 -3.61226 0
M  V30 16265 N 1596.35 1.26749 -0.936613 0
M  V30 16266 C 1597.57 1.98597 -0.597817 0
M  V30 16267 C 1598 1.69324 0.8192 0
M  V30 16268 O 1597.36 0.938634 1.55111 0
M  V30 16269 C 1597.4 3.50656 -0.841007 0
M  V30 16270 O 1596.51 4.12304 0.0891038 0
M  V30 16271 H 1595.85 0.623197 -0.229176 0
M  V30 16272 H 1598.38 1.61332 -1.2583 0
M  V30 16273 H 1598.39 4.00857 -0.760093 0
M  V30 16274 H 1597.06 3.71293 -1.87388 0
M  V30 16275 H 1595.64 3.72876 -0.0424804 0
M  V30 16276 N 1597.83 0.703118 1.41046 0
M  V30 16277 C 1598.77 0.0425767 2.30761 0
M  V30 16278 C 1599.74 -0.763406 1.47517 0
M  V30 16279 O 1600.93 -0.7299 1.76287 0
M  V30 16280 C 1598.07 -0.882353 3.33629 0
M  V30 16281 C 1597.18 -0.0671799 4.31948 0
M  V30 16282 C 1596.32 -0.990443 5.21885 0
M  V30 16283 C 1595.36 -0.168622 6.11868 0
M  V30 16284 N 1594.49 -1.04609 6.94263 0
M  V30 16285 H 1599.33 0.813363 2.86685 0
M  V30 16286 H 1596.87 0.412804 1.41189 0
M  V30 16287 H 1598.83 -1.43273 3.91827 0
M  V30 16288 H 1597.46 -1.61946 2.79237 0
M  V30 16289 H 1596.51 0.600219 3.75635 0
M  V30 16290 H 1597.82 0.569624 4.95537 0
M  V30 16291 H 1596.98 -1.60979 5.84954 0
M  V30 16292 H 1595.71 -1.66109 4.5854 0
M  V30 16293 H 1594.72 0.463746 5.47841 0
M  V30 16294 H 1595.94 0.49834 6.77269 0
M  V30 16295 H 1593.89 -1.70262 6.33519 0
M  V30 16296 H 1593.81 -0.465036 7.54568 0
M  V30 16297 H 1595.08 -1.65201 7.61793 0
M  V30 16298 N 1599.3 -1.51086 0.448402 0
M  V30 16299 C 1600.23 -2.30896 -0.347773 0
M  V30 16300 C 1601.22 -1.36792 -1.01104 0
M  V30 16301 O 1602.4 -1.65713 -1.01257 0
M  V30 16302 C 1599.53 -3.15901 -1.44304 0
M  V30 16303 C 1598.48 -4.18373 -0.90265 0
M  V30 16304 C 1597.81 -4.9197 -2.0945 0
M  V30 16305 C 1599.11 -5.22252 0.0705335 0
M  V30 16306 H 1600.8 -2.97704 0.318273 0
M  V30 16307 H 1598.35 -1.43169 0.154509 0
M  V30 16308 H 1600.3 -3.70519 -2.00733 0
M  V30 16309 H 1599.03 -2.46935 -2.13753 0
M  V30 16310 H 1597.69 -3.64823 -0.3605 0
M  V30 16311 H 1597.33 -4.19497 -2.77545 0
M  V30 16312 H 1597.03 -5.6127 -1.73926 0
M  V30 16313 H 1598.56 -5.49415 -2.66412 0
M  V30 16314 H 1599.97 -5.71876 -0.403814 0
M  V30 16315 H 1598.37 -5.99142 0.338905 0
M  V30 16316 H 1599.44 -4.74398 1.00373 0
M  V30 16317 N 1600.78 -0.180154 -1.56567 0
M  V30 16318 C 1602.2 0.175902 -1.58628 0
M  V30 16319 C 1602.4 1.62179 -1.19583 0
M  V30 16320 O 1601.45 2.35471 -0.911566 0
M  V30 16321 C 1602.77 -0.11292 -3.00488 0
M  V30 16322 C 1604.32 -0.051834 -3.12957 0
M  V30 16323 C 1604.79 -0.313764 -4.56924 0
M  V30 16324 N 1606.28 -0.261852 -4.62459 0
M  V30 16325 C 1607.02 -0.438573 -5.7172 0
M  V30 16326 N 1606.51 -0.674832 -6.89506 0
M  V30 16327 N 1608.31 -0.373864 -5.60855 0
M  V30 16328 H 1600.46 -1.12385 -1.80232 0
M  V30 16329 H 1602.72 -0.447459 -0.835754 0
M  V30 16330 H 1602.43 -1.11488 -3.33562 0
M  V30 16331 H 1602.3 0.591409 -3.72535 0
M  V30 16332 H 1604.69 0.940711 -2.79705 0
M  V30 16333 H 1604.77 -0.78901 -2.43327 0
M  V30 16334 H 1604.41 -1.30356 -4.90887 0
M  V30 16335 H 1604.34 0.444127 -5.24724 0
M  V30 16336 H 1606.83 -0.0852513 -3.77804 0
M  V30 16337 H 1607.15 -0.798891 -7.6866 0
M  V30 16338 H 1605.49 -0.711551 -6.91348 0
M  V30 16339 H 1608.68 -0.189815 -4.67715 0
M  V30 16340 H 1608.85 -0.515012 -6.4595 0
M  V30 16341 N 1602.26 1.57322 0.0935319 0
M  V30 16342 C 1603.49 1.90375 0.810245 0
M  V30 16343 C 1603.9 0.774011 1.72205 0
M  V30 16344 O 1603.26 -0.253918 1.80725 0
M  V30 16345 C 1603.31 3.23054 1.62228 0
M  V30 16346 O 1603.03 4.31682 0.747157 0
M  V30 16347 C 1604.53 3.6998 2.44192 0
M  V30 16348 H 1601.75 0.629769 0.231586 0
M  V30 16349 H 1604.3 2.04379 0.0702984 0
M  V30 16350 H 1602.45 3.10643 2.31472 0
M  V30 16351 H 1602.87 5.07884 1.30974 0
M  V30 16352 H 1604.34 4.65507 2.96659 0
M  V30 16353 H 1604.82 2.97899 3.22727 0
M  V30 16354 H 1605.42 3.85264 1.80144 0
M  V30 16355 N 1603.74 -0.364395 1.53329 0
M  V30 16356 C 1604.96 -1.13196 1.73786 0
M  V30 16357 C 1605.39 -1.82231 0.466224 0
M  V30 16358 O 1604.75 -1.71778 -0.579817 0
M  V30 16359 C 1604.79 -2.13704 2.90453 0
M  V30 16360 O 1603.9 -3.20808 2.59144 0
M  V30 16361 H 1603.24 -0.328387 0.577112 0
M  V30 16362 H 1605.77 -0.421157 2.00218 0
M  V30 16363 H 1605.78 -2.57285 3.16652 0
M  V30 16364 H 1604.45 -1.6285 3.82691 0
M  V30 16365 H 1603.03 -2.82192 2.43767 0
M  V30 16366 N 1605.22 -1.44709 -0.62426 0
M  V30 16367 C 1606.44 -1.51348 -1.41072 0
M  V30 16368 C 1606.86 -0.140576 -1.88276 0
M  V30 16369 O 1606.22 0.854821 -1.61242 0
M  V30 16370 C 1606.27 -2.48396 -2.62643 0
M  V30 16371 O 1605.99 -3.8035 -2.17406 0
M  V30 16372 C 1607.49 -2.64568 -3.55694 0
M  V30 16373 H 1604.71 -0.513092 -0.432409 0
M  V30 16374 H 1607.25 -1.89739 -0.762841 0
M  V30 16375 H 1605.41 -2.13122 -3.23508 0
M  V30 16376 H 1605.82 -4.32809 -2.96272 0
M  V30 16377 H 1607.3 -3.36486 -4.37585 0
M  V30 16378 H 1607.77 -1.70031 -4.04952 0
M  V30 16379 H 1608.38 -3.00771 -3.00694 0
M  V30 16380 N 1606.69 0.865285 -1.31722 0
M  V30 16381 C 1607.94 1.6135 -1.21033 0
M  V30 16382 C 1608.26 1.94253 0.229141 0
M  V30 16383 O 1609.46 2.67613 0.457771 0
M  V30 16384 C 1607.92 2.90898 -2.11912 0
M  V30 16385 C 1607.53 2.6546 -3.60881 0
M  V30 16386 C 1609.27 3.68898 -2.10035 0
M  V30 16387 C 1607.18 3.90943 -4.43754 0
M  V30 16388 H 1606.11 0.605418 -0.449428 0
M  V30 16389 H 1608.76 0.956335 -1.56609 0
M  V30 16390 H 1607.14 3.58014 -1.69239 0
M  V30 16391 H 1608.31 2.06721 -4.11829 0
M  V30 16392 H 1606.63 2.00806 -3.64782 0
M  V30 16393 H 1609.23 4.61995 -2.69193 0
M  V30 16394 H 1609.57 4.01813 -1.08865 0
M  V30 16395 H 1610.1 3.08671 -2.50932 0
M  V30 16396 H 1606.84 3.63176 -5.45696 0
M  V30 16397 H 1606.36 4.49116 -3.97561 0
M  V30 16398 H 1608.04 4.58784 -4.56208 0
M  V30 16399 N 1608.17 1.14759 1.0802 0
M  V30 16400 C 1609.11 0.781719 2.14393 0
M  V30 16401 C 1610.08 -0.238743 1.60838 0
M  V30 16402 O 1611.27 -0.126879 1.88073 0
M  V30 16403 C 1608.39 0.161293 3.38316 0
M  V30 16404 C 1607.44 1.15256 4.10632 0
M  V30 16405 S 1608.27 2.69159 4.6294 0
M  V30 16406 C 1609.43 2.08517 5.90145 0
M  V30 16407 H 1609.66 1.6827 2.45097 0
M  V30 16408 H 1607.2 0.969222 1.20189 0
M  V30 16409 H 1609.15 -0.190243 4.10059 0
M  V30 16410 H 1607.81 -0.717181 3.05803 0
M  V30 16411 H 1607.01 0.666543 4.99573 0
M  V30 16412 H 1606.61 1.44829 3.4482 0
M  V30 16413 H 1608.9 1.44304 6.61954 0
M  V30 16414 H 1609.84 2.95598 6.4345 0
M  V30 16415 H 1610.25 1.53092 5.43344 0
M  V30 16416 N 1609.65 -1.26251 0.943322 0
M  V30 16417 C 1610.88 -1.97739 0.608852 0
M  V30 16418 C 1611.29 -1.70225 -0.81663 0
M  V30 16419 O 1610.65 -0.97172 -1.54479 0
M  V30 16420 C 1610.7 -3.51505 0.844172 0
M  V30 16421 O 1610.42 -3.78063 2.21359 0
M  V30 16422 C 1611.92 -4.40233 0.52054 0
M  V30 16423 H 1609.14 -0.630619 0.229262 0
M  V30 16424 H 1611.69 -1.6071 1.26461 0
M  V30 16425 H 1609.84 -3.86687 0.23499 0
M  V30 16426 H 1610.26 -4.72582 2.27523 0
M  V30 16427 H 1611.73 -5.47074 0.735802 0
M  V30 16428 H 1612.21 -4.35811 -0.544541 0
M  V30 16429 H 1612.81 -4.10599 1.10854 0
M  V30 16430 N 1611.13 -0.710588 -1.40671 0
M  V30 16431 C 1612.41 -0.175319 -1.94813 0
M  V30 16432 C 1612.79 1.31792 -1.64906 0
M  V30 16433 O 1612.13 2.07167 -0.964058 0
M  V30 16434 C 1612.34 -0.482691 -3.45646 0
M  V30 16435 C 1613.69 -0.418619 -4.22531 0
M  V30 16436 O 1614.72 -0.418463 -3.53733 0
M  V30 16437 O 1613.58 -0.391787 -5.45094 0
M  V30 16438 H 1610.67 -0.0237744 -0.826658 0
M  V30 16439 H 1613.22 -0.787778 -1.50307 0
M  V30 16440 H 1611.99 -1.51569 -3.60753 0
M  V30 16441 H 1611.61 0.159984 -3.97278 0
M  V30 16442 N 1612.61 1.50847 -0.456408 0
M  V30 16443 C 1613.84 2.0635 0.10159 0
M  V30 16444 C 1614.25 1.32198 1.35353 0
M  V30 16445 O 1613.59 0.380433 1.79718 0
M  V30 16446 C 1613.65 3.56411 0.470283 0
M  V30 16447 C 1613.31 4.51949 -0.677546 0
M  V30 16448 C 1614.31 4.96091 -1.55531 0
M  V30 16449 C 1612 4.94819 -0.863701 0
M  V30 16450 C 1613.99 5.81793 -2.60377 0
M  V30 16451 C 1611.68 5.80306 -1.9154 0
M  V30 16452 C 1612.68 6.23693 -2.78381 0
M  V30 16453 O 1612.36 7.0748 -3.81742 0
M  V30 16454 H 1612.1 0.675994 0.00283373 0
M  V30 16455 H 1614.65 1.95178 -0.639893 0
M  V30 16456 H 1612.88 3.65433 1.26475 0
M  V30 16457 H 1614.57 3.94344 0.961649 0
M  V30 16458 H 1615.33 4.63651 -1.42311 0
M  V30 16459 H 1611.21 4.60578 -0.197285 0
M  V30 16460 H 1614.76 6.15578 -3.2819 0
M  V30 16461 H 1610.65 6.12159 -2.04773 0
M  V30 16462 H 1611.42 7.257 -3.78553 0
M  V30 16463 N 1614.09 0.188454 1.56469 0
M  V30 16464 C 1615.03 -0.751822 2.20115 0
M  V30 16465 C 1616.03 -1.22476 1.1703 0
M  V30 16466 O 1617.23 -1.18843 1.3519 0
M  V30 16467 H 1613.61 -0.260778 0.705336 0
M  V30 16468 H 1615.58 -0.191249 2.97786 0
M  V30 16469 C 1614.33 -1.96365 2.86943 0
M  V30 16470 H 1613.65 -1.60879 3.66003 0
M  V30 16471 H 1615.09 -2.60007 3.34921 0
M  V30 16472 C 1613.55 -2.7982 1.87623 0
M  V30 16473 O 1614.08 -3.7753 1.37237 0
M  V30 16474 N 1612.29 -2.45179 1.55999 0
M  V30 16475 H 1611.83 -1.6578 1.97167 0
M  V30 16476 H 1611.79 -3.01302 0.898012 0
M  V30 16477 N 1615.56 -1.5737 -0.0851874 0
M  V30 16478 C 1616.97 -1.7544 -0.638575 0
M  V30 16479 C 1617.33 -0.812041 -1.78607 0
M  V30 16480 O 1616.45 0.00710428 -2.16399 0
M  V30 16481 C 1617.05 -3.18134 -1.16517 0
M  V30 16482 C 1615.6 -3.37594 -1.66454 0
M  V30 16483 C 1614.75 -2.71203 -0.578274 0
M  V30 16484 H 1617.7 -1.58073 0.140931 0
M  V30 16485 H 1617.72 -3.21553 -2.0343 0
M  V30 16486 H 1617.24 -3.86696 -0.329794 0
M  V30 16487 H 1615.34 -2.74126 -2.5236 0
M  V30 16488 H 1615.45 -4.45968 -1.75071 0
M  V30 16489 H 1613.81 -2.33379 -1.02011 0
M  V30 16490 H 1614.6 -3.42413 0.246691 0
M  V30 16491 N 1617.04 0.356258 -1.53521 0
M  V30 16492 C 1617.99 1.45718 -1.81298 0
M  V30 16493 C 1618.98 1.55036 -0.682652 0
M  V30 16494 O 1620.19 1.57812 -0.865766 0
M  V30 16495 H 1616.56 0.485614 -0.57418 0
M  V30 16496 H 1618.54 1.19498 -2.73428 0
M  V30 16497 C 1617.28 2.82424 -2.0281 0
M  V30 16498 H 1616.61 2.76016 -2.89232 0
M  V30 16499 H 1618.05 3.5861 -2.26218 0
M  V30 16500 C 1616.51 3.2702 -0.809893 0
M  V30 16501 O 1617.04 4.017 -0.00310668 0
M  V30 16502 N 1615.24 2.83673 -0.630696 0
M  V30 16503 H 1614.79 2.23066 -1.28839 0
M  V30 16504 H 1614.75 3.13867 0.182961 0
M  V30 16505 N 1618.52 1.45038 0.616577 0
M  V30 16506 C 1619.75 1.51874 1.40064 0
M  V30 16507 C 1620.16 0.147105 1.88627 0
M  V30 16508 O 1619.5 -0.85995 1.62329 0
M  V30 16509 C 1619.56 2.43421 2.64549 0
M  V30 16510 C 1619.23 3.90326 2.37685 0
M  V30 16511 C 1620.22 4.80471 1.98605 0
M  V30 16512 C 1617.91 4.35163 2.50875 0
M  V30 16513 C 1619.9 6.13456 1.73064 0
M  V30 16514 C 1617.59 5.68192 2.24947 0
M  V30 16515 C 1618.59 6.57157 1.86102 0
M  V30 16516 O 1618.28 7.87721 1.60472 0
M  V30 16517 H 1618.01 0.517048 0.435474 0
M  V30 16518 H 1620.56 1.90826 0.759899 0
M  V30 16519 H 1618.79 1.99423 3.31312 0
M  V30 16520 H 1620.48 2.41042 3.26579 0
M  V30 16521 H 1621.25 4.47098 1.87959 0
M  V30 16522 H 1617.13 3.66165 2.80078 0
M  V30 16523 H 1620.67 6.82855 1.42669 0
M  V30 16524 H 1616.57 6.01122 2.35207 0
M  V30 16525 H 1617.33 7.99661 1.74598 0
M  V30 16526 N 1620 -0.858287 1.32179 0
M  V30 16527 C 1621.24 -1.6261 1.23844 0
M  V30 16528 C 1621.6 -1.9098 -0.197628 0
M  V30 16529 O 1622.8 -2.65737 -0.40465 0
M  V30 16530 C 1621.07 -2.91319 2.07047 0
M  V30 16531 S 1622.63 -3.82125 2.15699 0
M  V30 16532 H 1619.45 -0.557789 0.4409 0
M  V30 16533 H 1622.05 -1.0167 1.66983 0
M  V30 16534 H 1620.76 -2.68417 3.10452 0
M  V30 16535 H 1620.29 -3.57277 1.64671 0
M  V30 16536 H 1622.3 -4.78764 1.30384 0
M  V30 16537 N 1621.48 -1.1533 -1.07409 0
M  V30 16538 C 1622.72 -0.927807 -1.79994 0
M  V30 16539 C 1623.05 0.545092 -1.86706 0
M  V30 16540 O 1622.31 1.4202 -1.34643 0
M  V30 16541 C 1622.6 -1.48646 -3.25022 0
M  V30 16542 C 1622.27 -2.97974 -3.38411 0
M  V30 16543 C 1620.93 -3.3874 -3.41773 0
M  V30 16544 C 1623.28 -3.93946 -3.41257 0
M  V30 16545 C 1620.61 -4.7412 -3.45582 0
M  V30 16546 C 1622.96 -5.29197 -3.46603 0
M  V30 16547 C 1621.63 -5.6946 -3.48241 0
M  V30 16548 H 1620.9 -0.339509 -0.658646 0
M  V30 16549 H 1623.55 -1.43863 -1.26395 0
M  V30 16550 H 1621.85 -0.89681 -3.81398 0
M  V30 16551 H 1623.55 -1.28781 -3.79759 0
M  V30 16552 H 1620.14 -2.65463 -3.36493 0
M  V30 16553 H 1624.32 -3.63525 -3.37881 0
M  V30 16554 H 1619.58 -5.04661 -3.45149 0
M  V30 16555 H 1623.75 -6.03359 -3.47751 0
M  V30 16556 H 1621.38 -6.74345 -3.50946 0
M  V30 16557 N 1622.95 1.25748 -0.950004 0
M  V30 16558 C 1623.92 2.24307 -0.47106 0
M  V30 16559 C 1624.92 1.55145 0.422704 0
M  V30 16560 O 1626.11 1.72797 0.220642 0
M  V30 16561 C 1623.24 3.39395 0.319979 0
M  V30 16562 H 1624.43 2.68192 -1.34214 0
M  V30 16563 H 1621.98 1.38056 -0.732827 0
M  V30 16564 H 1622.72 3.00925 1.20892 0
M  V30 16565 H 1622.5 3.90783 -0.321157 0
M  V30 16566 H 1623.99 4.12594 0.644697 0
M  V30 16567 N 1624.43 0.718038 1.40292 0
M  V30 16568 C 1625.68 0.258092 2.00445 0
M  V30 16569 C 1626 -1.15347 1.57226 0
M  V30 16570 O 1625.27 -1.78241 0.812822 0
M  V30 16571 H 1623.85 0.0924316 0.741259 0
M  V30 16572 H 1626.51 0.924216 1.71593 0
M  V30 16573 H 1625.61 0.293113 3.10721 0
M  V30 16574 N 1625.91 -1.50602 0.464402 0
M  V30 16575 C 1626.86 -2.28382 -0.333234 0
M  V30 16576 C 1627.83 -1.3314 -0.993125 0
M  V30 16577 O 1629.01 -1.62072 -1.00685 0
M  V30 16578 C 1626.15 -3.14841 -1.41313 0
M  V30 16579 C 1625.27 -4.25106 -0.768684 0
M  V30 16580 C 1624.4 -4.98833 -1.82591 0
M  V30 16581 C 1623.44 -6.00982 -1.16135 0
M  V30 16582 N 1622.58 -6.68012 -2.16112 0
M  V30 16583 H 1627.42 -2.96096 0.336354 0
M  V30 16584 H 1624.95 -1.46022 0.17772 0
M  V30 16585 H 1626.91 -3.63314 -2.05082 0
M  V30 16586 H 1625.54 -2.49186 -2.05197 0
M  V30 16587 H 1624.59 -3.80395 -0.0185964 0
M  V30 16588 H 1625.91 -4.98204 -0.243759 0
M  V30 16589 H 1625.06 -5.50991 -2.53957 0
M  V30 16590 H 1623.8 -4.25426 -2.38462 0
M  V30 16591 H 1622.8 -5.4809 -0.43328 0
M  V30 16592 H 1624.03 -6.76358 -0.609612 0
M  V30 16593 H 1621.97 -5.97401 -2.71013 0
M  V30 16594 H 1621.89 -7.36963 -1.68586 0
M  V30 16595 H 1623.16 -7.2479 -2.86879 0
M  V30 16596 N 1627.39 -0.19675 -1.56367 0
M  V30 16597 C 1628.62 0.447139 -2.02011 0
M  V30 16598 C 1629.03 1.55077 -1.07687 0
M  V30 16599 O 1628.39 1.82316 -0.0820316 0
M  V30 16600 C 1628.44 1.00192 -3.47338 0
M  V30 16601 O 1628.16 -0.0576859 -4.38062 0
M  V30 16602 C 1629.66 1.72152 -4.08508 0
M  V30 16603 H 1626.88 0.112088 -0.661572 0
M  V30 16604 H 1629.43 -0.30594 -2.02199 0
M  V30 16605 H 1627.58 1.70537 -3.47844 0
M  V30 16606 H 1627.99 0.355508 -5.23294 0
M  V30 16607 H 1629.47 2.06199 -5.12041 0
M  V30 16608 H 1629.95 2.62581 -3.52062 0
M  V30 16609 H 1630.55 1.06388 -4.11779 0
M  V30 16610 N 1628.87 1.57413 0.0768405 0
M  V30 16611 C 1630.09 1.91607 0.793833 0
M  V30 16612 C 1630.52 0.792708 1.70581 0
M  V30 16613 O 1629.87 -0.25475 1.79501 0
M  V30 16614 C 1629.92 3.24736 1.56776 0
M  V30 16615 O 1629.03 3.13613 2.67807 0
M  V30 16616 H 1628.37 0.627572 0.216908 0
M  V30 16617 H 1630.9 2.04547 0.0465957 0
M  V30 16618 H 1630.91 3.58488 1.94809 0
M  V30 16619 H 1629.58 4.06077 0.898588 0
M  V30 16620 H 1628.16 2.91411 2.32668 0
M  V30 16621 N 1630.34 -0.348112 1.53707 0
M  V30 16622 C 1631.57 -1.11346 1.74976 0
M  V30 16623 C 1631.99 -1.81726 0.485525 0
M  V30 16624 O 1631.35 -1.72384 -0.561565 0
M  V30 16625 C 1631.4 -2.10611 2.92703 0
M  V30 16626 O 1630.5 -3.18042 2.62532 0
M  V30 16627 H 1629.85 -0.322247 0.580563 0
M  V30 16628 H 1632.38 -0.399898 2.00654 0
M  V30 16629 H 1632.39 -2.53912 3.19363 0
M  V30 16630 H 1631.06 -1.58782 3.84397 0
M  V30 16631 H 1629.64 -2.79591 2.46746 0
M  V30 16632 N 1631.82 -1.45363 -0.608876 0
M  V30 16633 C 1633.07 -1.48586 -1.364 0
M  V30 16634 C 1633.38 -0.131213 -1.95159 0
M  V30 16635 O 1634.59 -0.0410845 -2.71469 0
M  V30 16636 C 1633.05 -2.61694 -2.47071 0
M  V30 16637 C 1632.65 -4.03466 -1.94729 0
M  V30 16638 C 1634.4 -2.74162 -3.24091 0
M  V30 16639 C 1632.31 -5.07958 -3.02874 0
M  V30 16640 H 1631.24 -0.552893 -0.512665 0
M  V30 16641 H 1633.89 -1.71499 -0.65271 0
M  V30 16642 H 1632.27 -2.32062 -3.20879 0
M  V30 16643 H 1633.44 -4.4277 -1.27638 0
M  V30 16644 H 1631.76 -3.95436 -1.30457 0
M  V30 16645 H 1634.35 -3.494 -4.04752 0
M  V30 16646 H 1634.7 -1.80751 -3.75013 0
M  V30 16647 H 1635.23 -3.03313 -2.57383 0
M  V30 16648 H 1631.97 -6.03073 -2.56871 0
M  V30 16649 H 1631.49 -4.73225 -3.68535 0
M  V30 16650 H 1633.17 -5.3265 -3.67277 0
M  V30 16651 N 1633.3 0.851265 -1.32632 0
M  V30 16652 C 1634.53 1.64328 -1.26535 0
M  V30 16653 C 1634.95 1.87392 0.163086 0
M  V30 16654 O 1634.31 1.42913 1.1156 0
M  V30 16655 C 1634.36 2.97781 -2.03369 0
M  V30 16656 O 1633.46 3.8849 -1.38381 0
M  V30 16657 H 1632.8 0.500864 -0.435926 0
M  V30 16658 H 1635.33 1.06 -1.75001 0
M  V30 16659 H 1635.34 3.47576 -2.1367 0
M  V30 16660 H 1634.02 2.80316 -3.07239 0
M  V30 16661 H 1632.59 3.4696 -1.36649 0
M  V30 16662 N 1634.78 1.15898 1.06796 0
M  V30 16663 C 1636.06 0.847701 1.76276 0
M  V30 16664 C 1636.44 -0.655537 2.00664 0
M  V30 16665 O 1635.78 -1.60171 1.62964 0
M  V30 16666 C 1635.99 1.66475 3.06736 0
M  V30 16667 C 1637.34 1.87452 3.80982 0
M  V30 16668 O 1638.37 1.63298 3.16563 0
M  V30 16669 O 1637.22 2.27942 4.96694 0
M  V30 16670 H 1634.32 0.312308 0.765763 0
M  V30 16671 H 1636.86 1.26507 1.13111 0
M  V30 16672 H 1635.64 2.68508 2.84638 0
M  V30 16673 H 1635.26 1.24409 3.77635 0
M  V30 16674 N 1636.26 -1.25243 0.956659 0
M  V30 16675 C 1637.19 -2.28159 0.496574 0
M  V30 16676 C 1638.17 -1.63814 -0.458132 0
M  V30 16677 O 1639.35 -1.90897 -0.356648 0
M  V30 16678 C 1636.48 -3.46573 -0.22454 0
M  V30 16679 C 1635.44 -4.2311 0.645104 0
M  V30 16680 C 1634.76 -5.343 -0.206867 0
M  V30 16681 C 1636.06 -4.85562 1.92422 0
M  V30 16682 H 1637.76 -2.66895 1.35675 0
M  V30 16683 H 1635.3 -1.28301 0.653827 0
M  V30 16684 H 1637.26 -4.17695 -0.55755 0
M  V30 16685 H 1635.98 -3.06833 -1.11898 0
M  V30 16686 H 1634.64 -3.53774 0.961228 0
M  V30 16687 H 1634.29 -4.908 -1.10112 0
M  V30 16688 H 1633.99 -5.86423 0.371714 0
M  V30 16689 H 1635.51 -6.08253 -0.534798 0
M  V30 16690 H 1636.92 -5.48817 1.65749 0
M  V30 16691 H 1635.32 -5.47871 2.44862 0
M  V30 16692 H 1636.39 -4.07634 2.62607 0
M  V30 16693 N 1637.73 -0.725468 -1.3991 0
M  V30 16694 C 1638.68 -0.0792833 -2.30664 0
M  V30 16695 C 1639.65 0.73984 -1.48713 0
M  V30 16696 O 1640.84 0.701762 -1.77426 0
M  V30 16697 C 1637.98 0.829164 -3.34991 0
M  V30 16698 C 1637.09 -0.00154779 -4.32 0
M  V30 16699 C 1636.22 0.907291 -5.23394 0
M  V30 16700 C 1635.26 0.0712573 -6.12059 0
M  V30 16701 N 1634.4 0.935508 -6.9584 0
M  V30 16702 H 1639.24 -0.858869 -2.85355 0
M  V30 16703 H 1636.78 -0.435214 -1.40514 0
M  V30 16704 H 1638.74 1.37021 -3.94057 0
M  V30 16705 H 1637.37 1.57483 -2.81778 0
M  V30 16706 H 1636.42 -0.659903 -3.74632 0
M  V30 16707 H 1637.73 -0.648387 -4.94568 0
M  V30 16708 H 1636.88 1.51652 -5.87441 0
M  V30 16709 H 1635.62 1.58793 -4.61125 0
M  V30 16710 H 1634.63 -0.550844 -5.47034 0
M  V30 16711 H 1635.85 -0.606025 -6.76391 0
M  V30 16712 H 1633.8 1.60162 -6.36148 0
M  V30 16713 H 1633.72 0.344932 -7.55213 0
M  V30 16714 H 1634.98 1.53061 -7.64325 0
M  V30 16715 N 1639.21 1.50354 -0.472382 0
M  V30 16716 C 1640.12 2.32318 0.326405 0
M  V30 16717 C 1641.14 1.4276 0.994771 0
M  V30 16718 O 1642.31 1.75811 0.98246 0
M  V30 16719 C 1639.38 3.17468 1.39337 0
M  V30 16720 C 1638.44 4.22848 0.741465 0
M  V30 16721 C 1637.67 5.03929 1.75759 0
M  V30 16722 O 1637.9 4.86105 2.98425 0
M  V30 16723 O 1636.83 5.87051 1.32871 0
M  V30 16724 H 1640.66 3.01749 -0.343702 0
M  V30 16725 H 1638.24 1.47553 -0.234207 0
M  V30 16726 H 1640.12 3.703 2.01136 0
M  V30 16727 H 1638.8 2.50764 2.04692 0
M  V30 16728 H 1637.71 3.74005 0.0844848 0
M  V30 16729 H 1639.04 4.92026 0.130838 0
M  V30 16730 N 1640.69 0.205039 1.56261 0
M  V30 16731 C 1641.94 -0.431735 1.98151 0
M  V30 16732 C 1642.27 -1.60579 1.09215 0
M  V30 16733 O 1641.55 -1.93949 0.146257 0
M  V30 16734 C 1641.83 -0.882278 3.49124 0
M  V30 16735 C 1641.68 0.294278 4.48836 0
M  V30 16736 C 1643 -1.7443 4.04057 0
M  V30 16737 H 1640.12 -0.155457 0.720418 0
M  V30 16738 H 1642.76 0.29796 1.87649 0
M  V30 16739 H 1640.91 -1.50404 3.58205 0
M  V30 16740 H 1642.58 0.932148 4.51784 0
M  V30 16741 H 1640.83 0.94444 4.23394 0
M  V30 16742 H 1641.5 -0.063639 5.51963 0
M  V30 16743 H 1643.97 -1.21983 3.97818 0
M  V30 16744 H 1642.85 -2.02848 5.10043 0
M  V30 16745 H 1643.11 -2.70195 3.49924 0
M  V30 16746 N 1642.17 -1.57451 -0.0684915 0
M  V30 16747 C 1643.58 -1.76107 -0.619932 0
M  V30 16748 C 1643.93 -0.830939 -1.77735 0
M  V30 16749 O 1643.06 -0.0158481 -2.16394 0
M  V30 16750 C 1643.65 -3.19352 -1.13136 0
M  V30 16751 C 1642.21 -3.39341 -1.62864 0
M  V30 16752 C 1641.36 -2.71801 -0.549477 0
M  V30 16753 H 1644.31 -1.57915 0.157689 0
M  V30 16754 H 1644.33 -3.23693 -2.00008 0
M  V30 16755 H 1643.84 -3.87024 -0.288762 0
M  V30 16756 H 1641.94 -2.76787 -2.49438 0
M  V30 16757 H 1642.06 -4.47799 -1.70331 0
M  V30 16758 H 1640.42 -2.34448 -0.995302 0
M  V30 16759 H 1641.2 -3.42132 0.282995 0
M  V30 16760 N 1643.65 0.339955 -1.5389 0
M  V30 16761 C 1645.06 0.683287 -1.44234 0
M  V30 16762 C 1645.26 1.92298 -0.601976 0
M  V30 16763 O 1644.32 2.52324 -0.0943623 0
M  V30 16764 C 1645.63 0.872576 -2.87761 0
M  V30 16765 C 1647.18 0.970965 -2.97559 0
M  V30 16766 C 1647.66 1.19254 -4.42202 0
M  V30 16767 N 1649.15 1.25966 -4.45743 0
M  V30 16768 C 1649.88 1.44869 -5.54798 0
M  V30 16769 N 1649.38 1.6092 -6.73852 0
M  V30 16770 N 1651.17 1.47445 -5.42417 0
M  V30 16771 H 1643.32 -0.475086 -2.07019 0
M  V30 16772 H 1645.58 -0.150644 -0.935954 0
M  V30 16773 H 1645.29 0.033117 -3.51684 0
M  V30 16774 H 1645.16 1.77326 -3.32919 0
M  V30 16775 H 1647.55 1.80094 -2.33774 0
M  V30 16776 H 1647.63 0.0471065 -2.55757 0
M  V30 16777 H 1647.28 0.367482 -5.06569 0
M  V30 16778 H 1647.21 2.13002 -4.81599 0
M  V30 16779 H 1649.7 1.15072 -3.59954 0
M  V30 16780 H 1650.01 1.74989 -7.52727 0
M  V30 16781 H 1648.36 1.58049 -6.7679 0
M  V30 16782 H 1651.55 1.34489 -4.48364 0
M  V30 16783 H 1651.72 1.61834 -6.27466 0
M  V30 16784 N 1645.13 1.45684 0.601159 0
M  V30 16785 C 1646.07 1.54846 1.71147 0
M  V30 16786 C 1647.04 0.393914 1.61361 0
M  V30 16787 O 1648.23 0.608222 1.80846 0
M  V30 16788 C 1645.37 1.52723 3.09467 0
M  V30 16789 C 1644.48 2.78776 3.30012 0
M  V30 16790 C 1643.62 2.68281 4.58474 0
M  V30 16791 C 1642.65 3.89358 4.72299 0
M  V30 16792 N 1641.79 3.77359 5.92068 0
M  V30 16793 H 1646.63 2.49696 1.62653 0
M  V30 16794 H 1644.17 1.23894 0.793006 0
M  V30 16795 H 1646.13 1.49479 3.89502 0
M  V30 16796 H 1644.76 0.614189 3.16903 0
M  V30 16797 H 1643.81 2.9208 2.43708 0
M  V30 16798 H 1645.12 3.68563 3.36099 0
M  V30 16799 H 1644.27 2.63039 5.46713 0
M  V30 16800 H 1643.01 1.76103 4.54795 0
M  V30 16801 H 1642.02 3.94952 3.82482 0
M  V30 16802 H 1643.24 4.82609 4.77771 0
M  V30 16803 H 1641.19 2.87955 5.89422 0
M  V30 16804 H 1641.11 4.60786 5.99343 0
M  V30 16805 H 1642.37 3.76061 6.82787 0
M  V30 16806 N 1646.6 -0.84422 1.33082 0
M  V30 16807 C 1647.55 -1.97504 1.22862 0
M  V30 16808 C 1648.55 -1.68892 0.131141 0
M  V30 16809 O 1649.75 -1.7757 0.294753 0
M  V30 16810 H 1646.13 -0.648263 0.381129 0
M  V30 16811 H 1648.1 -2.03249 2.18478 0
M  V30 16812 C 1646.85 -3.33626 0.979228 0
M  V30 16813 H 1646.17 -3.56178 1.81596 0
M  V30 16814 H 1647.61 -4.13266 0.948007 0
M  V30 16815 C 1646.07 -3.35397 -0.317922 0
M  V30 16816 O 1646.6 -3.7917 -1.32638 0
M  V30 16817 N 1644.8 -2.88562 -0.343577 0
M  V30 16818 H 1644.35 -2.53133 0.477625 0
M  V30 16819 H 1644.31 -2.90129 -1.21131 0
M  V30 16820 N 1648.08 -1.16463 -1.0618 0
M  V30 16821 C 1649.33 -0.941322 -1.78387 0
M  V30 16822 C 1649.64 0.531995 -1.88226 0
M  V30 16823 O 1650.85 0.873227 -2.57074 0
M  V30 16824 C 1649.31 -1.63491 -3.20623 0
M  V30 16825 C 1648.91 -3.14607 -3.18946 0
M  V30 16826 C 1650.66 -1.49361 -3.97356 0
M  V30 16827 C 1648.56 -3.76698 -4.55908 0
M  V30 16828 H 1647.49 -0.348549 -0.668603 0
M  V30 16829 H 1650.15 -1.39607 -1.19088 0
M  V30 16830 H 1648.53 -1.10787 -3.80187 0
M  V30 16831 H 1649.7 -3.74164 -2.68957 0
M  V30 16832 H 1648.02 -3.28634 -2.55712 0
M  V30 16833 H 1650.61 -1.93131 -4.98603 0
M  V30 16834 H 1650.96 -0.442724 -4.13939 0
M  V30 16835 H 1651.49 -1.99227 -3.44316 0
M  V30 16836 H 1648.23 -4.8174 -4.4453 0
M  V30 16837 H 1647.75 -3.21927 -5.06086 0
M  V30 16838 H 1649.43 -3.78321 -5.24864 0
M  V30 16839 N 1649.56 1.24734 -0.963288 0
M  V30 16840 C 1650.79 1.96745 -0.640234 0
M  V30 16841 C 1651.2 1.71503 0.789445 0
M  V30 16842 O 1650.56 0.996174 1.52914 0
M  V30 16843 C 1650.61 3.50118 -0.899987 0
M  V30 16844 O 1650.33 3.74494 -2.27346 0
M  V30 16845 C 1651.83 4.39349 -0.590511 0
M  V30 16846 H 1649.05 0.626892 -0.239266 0
M  V30 16847 H 1651.6 1.58678 -1.29002 0
M  V30 16848 H 1649.75 3.86264 -0.296478 0
M  V30 16849 H 1650.17 4.68902 -2.35013 0
M  V30 16850 H 1651.64 5.45834 -0.822744 0
M  V30 16851 H 1652.12 4.36622 0.475138 0
M  V30 16852 H 1652.72 4.08783 -1.17373 0
M  V30 16853 N 1651.04 0.732878 1.39523 0
M  V30 16854 C 1651.97 0.106583 2.33257 0
M  V30 16855 C 1652.95 -0.726582 1.53801 0
M  V30 16856 O 1654.13 -0.671994 1.82203 0
M  V30 16857 C 1651.26 -0.803051 3.37888 0
M  V30 16858 C 1650.22 -0.0742048 4.27936 0
M  V30 16859 C 1649.54 -1.10071 5.23248 0
M  V30 16860 C 1650.84 1.08195 5.10971 0
M  V30 16861 H 1652.54 0.889539 2.8588 0
M  V30 16862 H 1650.08 0.429209 1.37455 0
M  V30 16863 H 1652.04 -1.25071 4.02412 0
M  V30 16864 H 1650.76 -1.6181 2.83699 0
M  V30 16865 H 1649.42 0.35381 3.64889 0
M  V30 16866 H 1649.07 -1.90927 4.65356 0
M  V30 16867 H 1648.77 -0.617825 5.84343 0
M  V30 16868 H 1650.29 -1.54812 5.90649 0
M  V30 16869 H 1651.71 0.712835 5.68851 0
M  V30 16870 H 1650.1 1.49433 5.81197 0
M  V30 16871 H 1651.17 1.90463 4.45928 0
M  V30 16872 N 1652.52 -1.50101 0.480349 0
M  V30 16873 C 1653.76 -2.01567 -0.073165 0
M  V30 16874 C 1654.08 -1.36657 -1.39944 0
M  V30 16875 O 1655.28 -1.79332 -2.03844 0
M  V30 16876 C 1653.74 -3.59445 -0.180889 0
M  V30 16877 C 1653.35 -4.33318 1.1375 0
M  V30 16878 C 1655.09 -4.18923 -0.685868 0
M  V30 16879 C 1653 -5.83003 0.99307 0
M  V30 16880 H 1651.93 -0.753358 -0.0311179 0
M  V30 16881 H 1654.58 -1.72829 0.616648 0
M  V30 16882 H 1652.96 -3.84811 -0.934693 0
M  V30 16883 H 1654.14 -4.1967 1.90299 0
M  V30 16884 H 1652.45 -3.85492 1.57431 0
M  V30 16885 H 1655.05 -5.28512 -0.811109 0
M  V30 16886 H 1655.39 -3.80916 -1.67955 0
M  V30 16887 H 1655.92 -3.97799 0.0108117 0
M  V30 16888 H 1652.66 -6.25499 1.9604 0
M  V30 16889 H 1652.18 -5.992 0.268128 0
M  V30 16890 H 1653.86 -6.4359 0.663417 0
M  V30 16891 N 1653.99 -0.213323 -1.5615 0
M  V30 16892 C 1655.41 0.142215 -1.58965 0
M  V30 16893 C 1655.61 1.59606 -1.22996 0
M  V30 16894 O 1654.67 2.33485 -0.961308 0
M  V30 16895 C 1655.98 -0.176632 -3.00181 0
M  V30 16896 C 1657.53 -0.118205 -3.12777 0
M  V30 16897 C 1658 -0.410614 -4.56156 0
M  V30 16898 N 1659.49 -0.359887 -4.618 0
M  V30 16899 C 1660.23 -0.559744 -5.70661 0
M  V30 16900 N 1659.72 -0.820934 -6.87919 0
M  V30 16901 N 1661.52 -0.492746 -5.59936 0
M  V30 16902 H 1653.67 -1.16182 -1.77807 0
M  V30 16903 H 1655.93 -0.465086 -0.826075 0
M  V30 16904 H 1655.64 -1.18538 -3.31122 0
M  V30 16905 H 1655.51 0.512256 -3.73705 0
M  V30 16906 H 1657.9 0.88117 -2.81637 0
M  V30 16907 H 1657.98 -0.840446 -2.41599 0
M  V30 16908 H 1657.62 -1.40739 -4.88011 0
M  V30 16909 H 1657.55 0.332725 -5.25548 0
M  V30 16910 H 1660.04 -0.16537 -3.77538 0
M  V30 16911 H 1660.36 -0.961755 -7.66792 0
M  V30 16912 H 1658.7 -0.858036 -6.89683 0
M  V30 16913 H 1661.89 -0.288981 -4.67207 0
M  V30 16914 H 1662.07 -0.651912 -6.44712 0
M  V30 16915 N 1655.47 1.57485 0.0601405 0
M  V30 16916 C 1656.72 1.87445 0.755575 0
M  V30 16917 C 1657.04 0.806915 1.77522 0
M  V30 16918 O 1656.31 -0.163139 1.9522 0
M  V30 16919 H 1654.89 0.691708 0.282044 0
M  V30 16920 H 1657.55 1.94871 0.0334616 0
M  V30 16921 H 1656.65 2.85334 1.26455 0
M  V30 16922 N 1656.95 -0.331789 1.54068 0
M  V30 16923 C 1657.88 -1.41332 1.8587 0
M  V30 16924 C 1658.86 -1.54353 0.714787 0
M  V30 16925 O 1660.05 -1.68368 0.967777 0
M  V30 16926 C 1657.18 -2.78218 2.07875 0
M  V30 16927 C 1656.13 -2.79994 3.23709 0
M  V30 16928 C 1655.46 -4.19878 3.31069 0
M  V30 16929 C 1656.76 -2.44476 4.6155 0
M  V30 16930 H 1658.45 -1.14966 2.76447 0
M  V30 16931 H 1656 -0.551615 1.33016 0
M  V30 16932 H 1657.95 -3.53937 2.28706 0
M  V30 16933 H 1656.67 -3.06044 1.14038 0
M  V30 16934 H 1655.33 -2.0673 3.02751 0
M  V30 16935 H 1654.98 -4.44831 2.34807 0
M  V30 16936 H 1654.68 -4.21974 4.08915 0
M  V30 16937 H 1656.2 -4.97421 3.54125 0
M  V30 16938 H 1657.62 -3.09908 4.82317 0
M  V30 16939 H 1656.02 -2.57837 5.41886 0
M  V30 16940 H 1657.09 -1.3964 4.64358 0
M  V30 16941 N 1658.43 -1.46001 -0.593424 0
M  V30 16942 C 1659.68 -1.50457 -1.34933 0
M  V30 16943 C 1660 -0.153383 -1.94396 0
M  V30 16944 O 1659.27 0.818894 -1.77963 0
M  V30 16945 H 1657.85 -0.554119 -0.50096 0
M  V30 16946 H 1660.51 -1.82057 -0.695798 0
M  V30 16947 H 1659.61 -2.25131 -2.16154 0
M  V30 16948 N 1659.91 0.83715 -1.33527 0
M  V30 16949 C 1660.86 1.93561 -1.20491 0
M  V30 16950 C 1661.84 1.60541 -0.107395 0
M  V30 16951 O 1663.03 1.73788 -0.335663 0
M  V30 16952 C 1660.16 3.2995 -0.948055 0
M  V30 16953 C 1659.25 3.69134 -2.08809 0
M  V30 16954 N 1659.64 3.79998 -3.33819 0
M  V30 16955 C 1657.94 3.98885 -1.99516 0
M  V30 16956 C 1658.64 4.14031 -4.08599 0
M  V30 16957 N 1657.61 4.26492 -3.37055 0
M  V30 16958 H 1661.42 2.00119 -2.15243 0
M  V30 16959 H 1658.93 1.02997 -1.2556 0
M  V30 16960 H 1660.93 4.0844 -0.835589 0
M  V30 16961 H 1659.59 3.24699 -0.00907808 0
M  V30 16962 H 1660.6 3.6386 -3.68546 0
M  V30 16963 H 1657.27 4.01836 -1.13289 0
M  V30 16964 H 1658.66 4.29759 -5.16485 0
M  V30 16965 N 1661.38 1.17024 1.05561 0
M  V30 16966 C 1662.63 0.954436 1.78143 0
M  V30 16967 C 1662.95 -0.518525 1.8798 0
M  V30 16968 O 1662.22 -1.37654 1.39385 0
M  V30 16969 H 1660.8 0.350141 0.659856 0
M  V30 16970 H 1663.47 1.4743 1.27477 0
M  V30 16971 H 1662.56 1.37955 2.79955 0
M  V30 16972 N 1662.86 -1.24221 0.969889 0
M  V30 16973 C 1663.83 -2.23529 0.506686 0
M  V30 16974 C 1664.83 -1.55797 -0.397968 0
M  V30 16975 O 1666.02 -1.73126 -0.193124 0
M  V30 16976 C 1663.15 -3.39861 -0.265943 0
M  V30 16977 H 1664.34 -2.66022 1.38463 0
M  V30 16978 H 1661.89 -1.36872 0.754698 0
M  V30 16979 H 1662.63 -3.0281 -1.16089 0
M  V30 16980 H 1662.41 -3.90222 0.383286 0
M  V30 16981 H 1663.9 -4.13567 -0.578975 0
M  V30 16982 N 1664.34 -0.740267 -1.39132 0
M  V30 16983 C 1665.59 -0.290523 -2.00405 0
M  V30 16984 C 1665.92 1.12383 -1.58746 0
M  V30 16985 O 1665.17 1.78148 -0.81005 0
M  V30 16986 C 1665.47 -0.346009 -3.55721 0
M  V30 16987 C 1665.14 -1.71412 -4.17048 0
M  V30 16988 C 1663.8 -2.08857 -4.33512 0
M  V30 16989 C 1666.15 -2.61216 -4.51016 0
M  V30 16990 C 1663.48 -3.35603 -4.81235 0
M  V30 16991 C 1665.83 -3.8734 -5.0015 0
M  V30 16992 C 1664.49 -4.2487 -5.14822 0
M  V30 16993 H 1663.76 -0.10631 -0.733334 0
M  V30 16994 H 1666.41 -0.948141 -1.66381 0
M  V30 16995 H 1664.72 0.395183 -3.89802 0
M  V30 16996 H 1666.41 0.020191 -4.00995 0
M  V30 16997 H 1663 -1.41301 -4.04638 0
M  V30 16998 H 1667.19 -2.33556 -4.3791 0
M  V30 16999 H 1662.44 -3.64617 -4.90779 0
M  V30 17000 H 1666.62 -4.57079 -5.25406 0
M  V30 17001 H 1664.24 -5.23147 -5.51562 0
M  V30 17002 N 1665.82 1.49844 -0.488302 0
M  V30 17003 C 1667.07 2.02009 0.0605782 0
M  V30 17004 C 1667.39 1.37114 1.38653 0
M  V30 17005 O 1666.66 0.522182 1.88812 0
M  V30 17006 H 1665.24 0.746569 0.0253773 0
M  V30 17007 H 1667.9 1.84 -0.64265 0
M  V30 17008 H 1667 3.11461 0.199542 0
M  V30 17009 N 1667.3 0.221601 1.56034 0
M  V30 17010 C 1668.21 -0.699837 2.23918 0
M  V30 17011 C 1669.22 -1.21367 1.24683 0
M  V30 17012 O 1670.4 -1.25527 1.57495 0
M  V30 17013 C 1667.46 -1.89107 2.90585 0
M  V30 17014 C 1666.52 -1.4192 4.05163 0
M  V30 17015 C 1665.76 -2.55365 4.68641 0
M  V30 17016 O 1665.98 -3.735 4.31108 0
M  V30 17017 O 1664.91 -2.26564 5.57631 0
M  V30 17018 H 1668.74 -0.151552 3.03322 0
M  V30 17019 H 1666.33 -0.0088482 1.49397 0
M  V30 17020 H 1668.21 -2.58674 3.32664 0
M  V30 17021 H 1666.88 -2.42745 2.14141 0
M  V30 17022 H 1665.79 -0.691536 3.67653 0
M  V30 17023 H 1667.12 -0.929189 4.8335 0
M  V30 17024 N 1668.77 -1.57515 -0.0517878 0
M  V30 17025 C 1670.02 -1.88493 -0.748206 0
M  V30 17026 C 1670.35 -0.816494 -1.76202 0
M  V30 17027 O 1669.63 0.171075 -1.93746 0
M  V30 17028 C 1669.91 -3.30131 -1.43825 0
M  V30 17029 C 1669.76 -4.47648 -0.4395 0
M  V30 17030 C 1671.08 -3.70315 -2.37813 0
M  V30 17031 H 1668.2 -0.68555 -0.270537 0
M  V30 17032 H 1670.84 -1.89997 -0.0111457 0
M  V30 17033 H 1668.99 -3.2898 -2.06651 0
M  V30 17034 H 1670.67 -4.60929 0.185088 0
M  V30 17035 H 1668.91 -4.33117 0.243381 0
M  V30 17036 H 1669.58 -5.43582 -0.96035 0
M  V30 17037 H 1672.06 -3.72687 -1.8505 0
M  V30 17038 H 1670.93 -4.70269 -2.83087 0
M  V30 17039 H 1671.19 -3.0133 -3.23501 0
M  V30 17040 N 1670.25 0.323614 -1.54242 0
M  V30 17041 C 1671.48 1.07954 -1.76152 0
M  V30 17042 C 1671.89 1.82194 -0.510099 0
M  V30 17043 O 1671.23 1.75923 0.528838 0
M  V30 17044 C 1671.3 2.12323 -2.90102 0
M  V30 17045 C 1670.96 1.57481 -4.29009 0
M  V30 17046 C 1671.96 1.01662 -5.09864 0
M  V30 17047 C 1669.64 1.61726 -4.75552 0
M  V30 17048 C 1671.64 0.508168 -6.35371 0
M  V30 17049 C 1669.32 1.10493 -6.01028 0
M  V30 17050 C 1670.32 0.551331 -6.80771 0
M  V30 17051 O 1670.01 0.0467053 -8.03886 0
M  V30 17052 H 1669.74 0.326941 -0.59168 0
M  V30 17053 H 1672.3 0.375423 -2.0194 0
M  V30 17054 H 1670.53 2.8635 -2.59885 0
M  V30 17055 H 1672.21 2.73636 -2.99796 0
M  V30 17056 H 1672.98 0.976899 -4.7506 0
M  V30 17057 H 1668.86 2.03755 -4.13527 0
M  V30 17058 H 1672.4 0.0754082 -6.97559 0
M  V30 17059 H 1668.3 1.14172 -6.35323 0
M  V30 17060 H 1669.07 0.162133 -8.18339 0
M  V30 17061 N 1671.73 1.46313 0.585673 0
M  V30 17062 C 1672.64 1.59232 1.72286 0
M  V30 17063 C 1673.66 0.475912 1.67365 0
M  V30 17064 O 1674.83 0.739627 1.87327 0
M  V30 17065 C 1671.9 1.57647 3.08785 0
M  V30 17066 C 1670.96 2.80497 3.24992 0
M  V30 17067 C 1670.19 2.78978 4.5498 0
M  V30 17068 O 1670.42 1.87553 5.38684 0
M  V30 17069 O 1669.35 3.7048 4.74371 0
M  V30 17070 H 1673.18 2.55398 1.64334 0
M  V30 17071 H 1670.76 1.29073 0.752369 0
M  V30 17072 H 1672.64 1.59448 3.90069 0
M  V30 17073 H 1671.32 0.6464 3.1718 0
M  V30 17074 H 1670.22 2.8425 2.43213 0
M  V30 17075 H 1671.56 3.72703 3.21487 0
M  V30 17076 N 1673.21 -0.830057 1.33969 0
M  V30 17077 C 1674.46 -1.58272 1.25675 0
M  V30 17078 C 1674.78 -1.94213 -0.175071 0
M  V30 17079 O 1674.05 -1.61694 -1.10597 0
M  V30 17080 H 1672.63 -0.586858 0.462176 0
M  V30 17081 H 1675.29 -0.991495 1.67796 0
M  V30 17082 H 1674.39 -2.50874 1.85658 0
M  V30 17083 N 1674.69 -1.17582 -1.04939 0
M  V30 17084 C 1675.62 -0.852608 -2.12752 0
M  V30 17085 C 1676.63 0.14607 -1.62143 0
M  V30 17086 O 1677.82 -0.0805751 -1.78318 0
M  V30 17087 C 1674.92 -0.251083 -3.37969 0
M  V30 17088 C 1674.09 -1.29325 -4.17844 0
M  V30 17089 C 1673.15 -0.709025 -5.21401 0
M  V30 17090 O 1672.18 -1.38149 -5.52181 0
M  V30 17091 N 1673.38 0.497716 -5.78362 0
M  V30 17092 H 1676.15 -1.78054 -2.41074 0
M  V30 17093 H 1673.71 -1.07502 -1.21058 0
M  V30 17094 H 1675.7 0.15312 -4.0441 0
M  V30 17095 H 1674.27 0.580684 -3.07159 0
M  V30 17096 H 1673.49 -1.87311 -3.46855 0
M  V30 17097 H 1674.78 -1.99614 -4.68008 0
M  V30 17098 H 1674.18 1.06196 -5.55643 0
M  V30 17099 H 1672.73 0.843951 -6.46313 0
M  V30 17100 N 1676.17 1.23705 -0.976463 0
M  V30 17101 C 1677.41 1.92299 -0.64412 0
M  V30 17102 C 1677.74 1.7605 0.819767 0
M  V30 17103 O 1677.02 1.11902 1.59086 0
M  V30 17104 C 1677.3 3.45042 -1.03044 0
M  V30 17105 C 1677.16 3.70418 -2.55167 0
M  V30 17106 C 1678.47 4.36374 -0.571444 0
M  V30 17107 H 1675.59 0.698369 -0.235478 0
M  V30 17108 H 1678.24 1.45904 -1.21704 0
M  V30 17109 H 1676.39 3.84687 -0.54294 0
M  V30 17110 H 1678.06 3.40278 -3.11462 0
M  V30 17111 H 1676.3 3.15266 -2.97976 0
M  V30 17112 H 1676.97 4.77323 -2.77248 0
M  V30 17113 H 1679.45 4.04153 -0.989936 0
M  V30 17114 H 1678.32 5.41958 -0.870226 0
M  V30 17115 H 1678.58 4.38932 0.528318 0
M  V30 17116 N 1677.64 0.747635 1.38738 0
M  V30 17117 C 1678.87 0.310484 2.05063 0
M  V30 17118 C 1679.29 -1.05078 1.56013 0
M  V30 17119 O 1678.65 -1.66842 0.709461 0
M  V30 17120 C 1678.7 0.335837 3.59033 0
M  V30 17121 O 1677.8 -0.672218 4.06884 0
M  V30 17122 H 1677.14 0.138591 0.649375 0
M  V30 17123 H 1679.67 1.01709 1.77529 0
M  V30 17124 H 1679.68 0.184631 4.07582 0
M  V30 17125 H 1678.36 1.32906 3.94092 0
M  V30 17126 H 1676.94 -0.486112 3.69718 0
M  V30 17127 N 1679.12 -1.49583 0.496242 0
M  V30 17128 C 1680.37 -2.02038 -0.0498643 0
M  V30 17129 C 1680.69 -1.37848 -1.37924 0
M  V30 17130 O 1679.96 -0.532188 -1.88533 0
M  V30 17131 H 1678.54 -0.746693 -0.0214177 0
M  V30 17132 H 1681.2 -1.83657 0.652399 0
M  V30 17133 H 1680.3 -3.11563 -0.183021 0
M  V30 17134 N 1680.6 -0.229873 -1.55915 0
M  V30 17135 C 1681.53 0.717016 -2.16643 0
M  V30 17136 C 1682.51 1.18509 -1.1133 0
M  V30 17137 O 1683.69 1.26632 -1.3963 0
M  V30 17138 C 1680.82 1.97243 -2.75342 0
M  V30 17139 C 1679.87 1.64364 -3.93556 0
M  V30 17140 S 1680.7 0.76114 -5.30063 0
M  V30 17141 C 1681.86 2.02593 -5.92205 0
M  V30 17142 H 1682.09 0.200879 -2.96621 0
M  V30 17143 H 1679.62 -0.0144837 -1.54393 0
M  V30 17144 H 1681.58 2.69323 -3.09799 0
M  V30 17145 H 1680.24 2.45969 -1.95341 0
M  V30 17146 H 1679.43 2.57662 -4.33159 0
M  V30 17147 H 1679.04 1.00341 -3.60288 0
M  V30 17148 H 1681.33 2.97504 -6.08685 0
M  V30 17149 H 1682.27 1.67367 -6.88036 0
M  V30 17150 H 1682.68 2.17026 -5.21114 0
M  V30 17151 N 1682.08 1.5754 0.0434337 0
M  V30 17152 C 1683.49 1.77071 0.591836 0
M  V30 17153 C 1683.84 0.85911 1.76391 0
M  V30 17154 O 1682.96 0.0502725 2.16342 0
M  V30 17155 C 1683.56 3.21111 1.08041 0
M  V30 17156 C 1682.12 3.41889 1.57445 0
M  V30 17157 C 1681.27 2.72641 0.506166 0
M  V30 17158 H 1684.22 1.57644 -0.182792 0
M  V30 17159 H 1684.24 3.26834 1.94833 0
M  V30 17160 H 1683.75 3.87435 0.227153 0
M  V30 17161 H 1681.85 2.80721 2.45003 0
M  V30 17162 H 1681.96 4.50452 1.63185 0
M  V30 17163 H 1680.33 2.36002 0.957878 0
M  V30 17164 H 1681.11 3.41638 -0.337389 0
M  V30 17165 N 1683.56 -0.31543 1.54411 0
M  V30 17166 C 1684.5 -1.4086 1.85098 0
M  V30 17167 C 1685.5 -1.53172 0.723518 0
M  V30 17168 O 1686.7 -1.55461 0.907303 0
M  V30 17169 H 1683.08 -0.47022 0.586853 0
M  V30 17170 H 1685.05 -1.12207 2.765 0
M  V30 17171 C 1683.8 -2.76948 2.10227 0
M  V30 17172 H 1683.12 -2.68251 2.96448 0
M  V30 17173 H 1684.56 -3.52486 2.35647 0
M  V30 17174 C 1683.02 -3.24758 0.896312 0
M  V30 17175 O 1683.55 -4.0155 0.109609 0
M  V30 17176 N 1681.76 -2.81901 0.705685 0
M  V30 17177 H 1681.3 -2.19571 1.34708 0
M  V30 17178 H 1681.26 -3.14242 -0.0996804 0
M  V30 17179 N 1685.03 -1.46622 -0.577906 0
M  V30 17180 C 1686.31 -1.42657 -1.33822 0
M  V30 17181 C 1686.69 -0.11256 -2.108 0
M  V30 17182 O 1686.04 0.905903 -2.09775 0
M  V30 17183 C 1686.25 -2.65927 -2.26018 0
M  V30 17184 C 1687.6 -3.12277 -2.87695 0
M  V30 17185 O 1688.62 -2.66509 -2.36329 0
M  V30 17186 O 1687.48 -3.91786 -3.81007 0
M  V30 17187 H 1684.57 -0.567544 -0.601517 0
M  V30 17188 H 1687.12 -1.58795 -0.598524 0
M  V30 17189 H 1685.89 -3.53116 -1.68597 0
M  V30 17190 H 1685.52 -2.52272 -3.07318 0
M  V30 17191 N 1686.51 0.822941 -1.34408 0
M  V30 17192 C 1687.92 1.39571 -1.24003 0
M  V30 17193 C 1688.27 1.95739 0.134483 0
M  V30 17194 O 1687.4 1.90054 1.03481 0
M  V30 17195 C 1687.99 2.53726 -2.24519 0
M  V30 17196 C 1686.55 3.06911 -2.17905 0
M  V30 17197 C 1685.7 1.79783 -2.11124 0
M  V30 17198 H 1688.65 0.62734 -1.45774 0
M  V30 17199 H 1688.67 3.31818 -1.86217 0
M  V30 17200 H 1688.18 2.12816 -3.24547 0
M  V30 17201 H 1686.29 3.52326 -1.21233 0
M  V30 17202 H 1686.4 3.66003 -3.09158 0
M  V30 17203 H 1684.76 2.00679 -1.56845 0
M  V30 17204 H 1685.55 1.41047 -3.12987 0
M  V30 17205 N 1687.99 1.18137 1.04314 0
M  V30 17206 C 1689.22 1.00062 1.81666 0
M  V30 17207 C 1689.64 -0.446281 1.82729 0
M  V30 17208 O 1689 -1.32004 1.24277 0
M  V30 17209 C 1689.05 1.55698 3.25255 0
M  V30 17210 O 1688.15 0.776662 4.05021 0
M  V30 17211 H 1687.49 0.354651 0.561354 0
M  V30 17212 H 1690.02 1.56837 1.3139 0
M  V30 17213 H 1690.03 1.58303 3.76037 0
M  V30 17214 H 1688.71 2.61016 3.23795 0
M  V30 17215 H 1687.28 0.822723 3.63711 0
M  V30 17216 N 1689.47 -1.23186 0.98301 0
M  V30 17217 C 1690.88 -1.73484 0.689933 0
M  V30 17218 C 1691.23 -1.79428 -0.793724 0
M  V30 17219 O 1690.36 -1.43391 -1.62074 0
M  V30 17220 C 1690.95 -3.15068 1.24571 0
M  V30 17221 C 1689.51 -3.62812 1.00222 0
M  V30 17222 C 1688.66 -2.40988 1.37186 0
M  V30 17223 H 1691.61 -1.08672 1.15655 0
M  V30 17224 H 1691.63 -3.75425 0.619406 0
M  V30 17225 H 1691.14 -3.10709 2.32554 0
M  V30 17226 H 1689.24 -3.72549 -0.0614202 0
M  V30 17227 H 1689.35 -4.49473 1.65863 0
M  V30 17228 H 1687.72 -2.42127 0.79035 0
M  V30 17229 H 1688.5 -2.39299 2.46152 0
M  V30 17230 N 1690.95 -0.754982 -1.38339 0
M  V30 17231 C 1691.88 -0.143678 -2.33058 0
M  V30 17232 C 1692.86 0.702022 -1.54938 0
M  V30 17233 O 1694.04 0.642922 -1.83249 0
M  V30 17234 C 1691.17 0.749194 -3.39123 0
M  V30 17235 C 1690.13 0.00611459 -4.28 0
M  V30 17236 C 1689.45 1.01733 -5.24933 0
M  V30 17237 C 1690.75 -1.1631 -5.09185 0
M  V30 17238 H 1692.45 -0.934907 -2.84429 0
M  V30 17239 H 1689.99 -0.451023 -1.36754 0
M  V30 17240 H 1691.95 1.18653 -4.04351 0
M  V30 17241 H 1690.67 1.57276 -2.86237 0
M  V30 17242 H 1689.33 -0.411816 -3.6428 0
M  V30 17243 H 1688.98 1.83499 -4.68334 0
M  V30 17244 H 1688.68 0.524783 -5.85252 0
M  V30 17245 H 1690.2 1.45395 -5.93037 0
M  V30 17246 H 1691.61 -0.803244 -5.67645 0
M  V30 17247 H 1690.01 -1.5866 -5.78746 0
M  V30 17248 H 1691.08 -1.97533 -4.42842 0
M  V30 17249 N 1692.42 1.49318 -0.504168 0
M  V30 17250 C 1693.36 2.27103 0.309327 0
M  V30 17251 C 1694.37 1.33776 0.927781 0
M  V30 17252 O 1695.56 1.59034 0.810585 0
M  V30 17253 C 1692.66 3.06277 1.45078 0
M  V30 17254 C 1691.83 4.27201 0.939045 0
M  V30 17255 C 1690.89 4.88395 1.95849 0
M  V30 17256 O 1689.92 5.4837 1.52576 0
M  V30 17257 N 1691.12 4.78328 3.28911 0
M  V30 17258 H 1693.88 2.97558 -0.35767 0
M  V30 17259 H 1691.44 1.58356 -0.336907 0
M  V30 17260 H 1693.44 3.44088 2.13038 0
M  V30 17261 H 1692.01 2.38409 2.02188 0
M  V30 17262 H 1691.23 3.9411 0.0842433 0
M  V30 17263 H 1692.51 5.05534 0.575603 0
M  V30 17264 H 1691.91 4.30707 3.66753 0
M  V30 17265 H 1690.47 5.20315 3.92576 0
M  V30 17266 N 1693.9 0.238138 1.5579 0
M  V30 17267 C 1695.15 -0.389608 1.99022 0
M  V30 17268 C 1695.48 -1.58226 1.12597 0
M  V30 17269 O 1694.76 -1.93595 0.187363 0
M  V30 17270 C 1695.04 -0.808025 3.50917 0
M  V30 17271 C 1694.89 0.389417 4.48111 0
M  V30 17272 C 1696.21 -1.6582 4.07666 0
M  V30 17273 H 1693.33 -0.140141 0.723553 0
M  V30 17274 H 1695.97 0.337696 1.86975 0
M  V30 17275 H 1694.12 -1.42772 3.61315 0
M  V30 17276 H 1695.79 1.02777 4.49705 0
M  V30 17277 H 1694.04 1.03404 4.21296 0
M  V30 17278 H 1694.71 0.0534549 5.51974 0
M  V30 17279 H 1697.18 -1.13518 4.00316 0
M  V30 17280 H 1696.06 -1.91984 5.14231 0
M  V30 17281 H 1696.32 -2.62712 3.55577 0
M  V30 17282 N 1695.38 -1.57561 -0.0350783 0
M  V30 17283 C 1696.34 -2.05145 -1.02217 0
M  V30 17284 C 1697.34 -0.954524 -1.29404 0
M  V30 17285 O 1698.53 -1.21833 -1.24509 0
M  V30 17286 C 1695.67 -2.4633 -2.35658 0
M  V30 17287 H 1696.86 -2.93605 -0.61126 0
M  V30 17288 H 1694.41 -1.53739 -0.28176 0
M  V30 17289 H 1695.15 -1.61008 -2.81508 0
M  V30 17290 H 1694.93 -3.26408 -2.17256 0
M  V30 17291 H 1696.42 -2.83592 -3.06537 0
M  V30 17292 N 1696.86 0.307236 -1.54576 0
M  V30 17293 C 1698.1 1.04476 -1.73818 0
M  V30 17294 C 1698.44 1.87134 -0.519102 0
M  V30 17295 O 1697.71 1.88386 0.483852 0
M  V30 17296 C 1698 1.95594 -3.02349 0
M  V30 17297 C 1697.85 1.16158 -4.34543 0
M  V30 17298 C 1699.17 2.94865 -3.26715 0
M  V30 17299 H 1696.29 0.378415 -0.632433 0
M  V30 17300 H 1698.93 0.319955 -1.87287 0
M  V30 17301 H 1697.08 2.57396 -2.90997 0
M  V30 17302 H 1698.75 0.5669 -4.57803 0
M  V30 17303 H 1696.99 0.464158 -4.3131 0
M  V30 17304 H 1697.66 1.8315 -5.2073 0
M  V30 17305 H 1700.14 2.4319 -3.37636 0
M  V30 17306 H 1699.02 3.55791 -4.17976 0
M  V30 17307 H 1699.28 3.68195 -2.44714 0
M  V30 17308 N 1698.34 1.46926 0.570122 0
M  V30 17309 C 1699.28 1.58442 1.67824 0
M  V30 17310 C 1700.25 0.428053 1.6049 0
M  V30 17311 O 1701.44 0.646445 1.79515 0
M  V30 17312 C 1698.58 1.59253 3.06158 0
M  V30 17313 C 1697.69 2.85714 3.24024 0
M  V30 17314 C 1696.83 2.77945 4.52681 0
M  V30 17315 C 1695.87 3.99289 4.63934 0
M  V30 17316 N 1695 3.89833 5.83931 0
M  V30 17317 H 1699.84 2.5309 1.5732 0
M  V30 17318 H 1697.38 1.25549 0.766548 0
M  V30 17319 H 1699.34 1.57707 3.86244 0
M  V30 17320 H 1697.97 0.68127 3.15529 0
M  V30 17321 H 1697.02 2.97184 2.37458 0
M  V30 17322 H 1698.33 3.7561 3.28206 0
M  V30 17323 H 1697.49 2.74576 5.41011 0
M  V30 17324 H 1696.22 1.85711 4.50958 0
M  V30 17325 H 1695.23 4.02976 3.74019 0
M  V30 17326 H 1696.45 4.92635 4.67427 0
M  V30 17327 H 1694.4 3.00393 5.83181 0
M  V30 17328 H 1694.32 4.73395 5.89434 0
M  V30 17329 H 1695.59 3.90459 6.74657 0
M  V30 17330 N 1699.82 -0.815801 1.34842 0
M  V30 17331 C 1701.04 -1.60397 1.30693 0
M  V30 17332 C 1701.46 -1.88434 -0.117536 0
M  V30 17333 O 1700.82 -1.48076 -1.06676 0
M  V30 17334 C 1700.87 -2.94069 2.10252 0
M  V30 17335 O 1700.59 -2.67251 3.47143 0
M  V30 17336 C 1702.09 -3.88456 2.13581 0
M  V30 17337 H 1699.31 -0.49835 0.449319 0
M  V30 17338 H 1701.85 -1.01451 1.77561 0
M  V30 17339 H 1700.01 -3.49554 1.67006 0
M  V30 17340 H 1700.42 -3.52536 3.88354 0
M  V30 17341 H 1701.9 -4.79391 2.73658 0
M  V30 17342 H 1702.37 -4.24359 1.13209 0
M  V30 17343 H 1702.98 -3.38907 2.56947 0
M  V30 17344 N 1701.29 -1.18689 -1.03686 0
M  V30 17345 C 1702.22 -0.94094 -2.13702 0
M  V30 17346 C 1703.2 0.12277 -1.69656 0
M  V30 17347 O 1704.39 -0.0306085 -1.94176 0
M  V30 17348 C 1701.52 -0.470054 -3.44104 0
M  V30 17349 C 1700.47 -1.47468 -4.01792 0
M  V30 17350 C 1699.8 -0.861174 -5.2772 0
M  V30 17351 C 1701.1 -2.85254 -4.37524 0
M  V30 17352 H 1702.79 -1.86102 -2.34534 0
M  V30 17353 H 1700.34 -0.896207 -1.12713 0
M  V30 17354 H 1702.29 -0.28533 -4.20433 0
M  V30 17355 H 1701.02 0.485604 -3.2297 0
M  V30 17356 H 1699.68 -1.64641 -3.2755 0
M  V30 17357 H 1699.32 0.10179 -5.02897 0
M  V30 17358 H 1699.02 -1.53196 -5.67278 0
M  V30 17359 H 1700.55 -0.687066 -6.06722 0
M  V30 17360 H 1701.96 -2.71711 -5.04823 0
M  V30 17361 H 1700.36 -3.49051 -4.88143 0
M  V30 17362 H 1701.43 -3.38516 -3.47181 0
M  V30 17363 N 1702.77 1.22662 -0.989529 0
M  V30 17364 C 1704.18 1.73116 -0.699124 0
M  V30 17365 C 1704.53 1.79847 0.784197 0
M  V30 17366 O 1703.66 1.44248 1.61311 0
M  V30 17367 C 1704.25 3.14403 -1.2624 0
M  V30 17368 C 1702.81 3.62275 -1.02144 0
M  V30 17369 C 1701.96 2.40257 -1.38463 0
M  V30 17370 H 1704.91 1.08057 -1.1623 0
M  V30 17371 H 1704.93 3.75091 -0.639307 0
M  V30 17372 H 1704.44 3.09472 -2.34198 0
M  V30 17373 H 1702.54 3.72577 0.0416622 0
M  V30 17374 H 1702.66 4.48587 -1.68245 0
M  V30 17375 H 1701.02 2.41705 -0.803179 0
M  V30 17376 H 1701.8 2.3799 -2.47418 0
M  V30 17377 N 1704.25 0.762308 1.37937 0
M  V30 17378 C 1705.16 0.142724 2.34165 0
M  V30 17379 C 1706.18 -0.690588 1.59709 0
M  V30 17380 O 1707.35 -0.61271 1.91854 0
M  V30 17381 C 1704.42 -0.733325 3.38856 0
M  V30 17382 C 1703.48 0.115359 4.29145 0
M  V30 17383 C 1702.71 -0.718972 5.28835 0
M  V30 17384 O 1702.93 -1.95656 5.35794 0
M  V30 17385 O 1701.87 -0.133162 6.01753 0
M  V30 17386 H 1705.69 0.937662 2.88863 0
M  V30 17387 H 1703.28 0.523325 1.39935 0
M  V30 17388 H 1705.16 -1.23374 4.02935 0
M  V30 17389 H 1703.84 -1.50661 2.86501 0
M  V30 17390 H 1702.74 0.661926 3.68197 0
M  V30 17391 H 1704.08 0.851505 4.84779 0
M  V30 17392 N 1705.73 -1.49049 0.51208 0
M  V30 17393 C 1706.97 -2.0278 -0.0285311 0
M  V30 17394 C 1707.31 -1.39003 -1.35617 0
M  V30 17395 O 1706.58 -0.52952 -1.87153 0
M  V30 17396 C 1706.86 -3.59701 -0.169433 0
M  V30 17397 C 1706.72 -4.33989 1.18211 0
M  V30 17398 C 1708.04 -4.30698 -0.904812 0
M  V30 17399 H 1705.16 -0.736946 -0.00889467 0
M  V30 17400 H 1707.8 -1.77959 0.66564 0
M  V30 17401 H 1705.95 -3.8098 -0.760667 0
M  V30 17402 H 1707.62 -4.24176 1.81307 0
M  V30 17403 H 1705.86 -3.9611 1.76859 0
M  V30 17404 H 1706.53 -5.42177 1.03671 0
M  V30 17405 H 1709.01 -4.14141 -0.40327 0
M  V30 17406 H 1707.89 -5.40221 -0.972264 0
M  V30 17407 H 1708.15 -3.96718 -1.95108 0
M  V30 17408 N 1707.21 -0.246397 -1.55662 0
M  V30 17409 C 1708.45 0.38003 -2.00836 0
M  V30 17410 C 1708.81 1.55166 -1.13082 0
M  V30 17411 O 1710.01 2.24578 -1.4771 0
M  V30 17412 C 1708.28 0.779997 -3.48785 0
M  V30 17413 S 1709.84 1.39702 -4.15967 0
M  V30 17414 H 1706.66 0.119597 -0.700869 0
M  V30 17415 H 1709.26 -0.361512 -1.92128 0
M  V30 17416 H 1707.96 -0.0820223 -4.10318 0
M  V30 17417 H 1707.5 1.55373 -3.61418 0
M  V30 17418 H 1709.51 2.68606 -4.17211 0
M  V30 17419 N 1708.68 1.57577 0.026722 0
M  V30 17420 C 1709.91 1.94035 0.732473 0
M  V30 17421 C 1710.33 0.846575 1.67972 0
M  V30 17422 O 1709.69 -0.197514 1.80221 0
M  V30 17423 C 1709.74 3.2956 1.46365 0
M  V30 17424 O 1708.84 3.21975 2.57694 0
M  V30 17425 H 1708.18 0.634155 0.196832 0
M  V30 17426 H 1710.71 2.04592 -0.018503 0
M  V30 17427 H 1710.72 3.64504 1.83305 0
M  V30 17428 H 1709.4 4.0873 0.768943 0
M  V30 17429 H 1707.98 2.98665 2.23279 0
M  V30 17430 N 1710.16 -0.299034 1.54737 0
M  V30 17431 C 1711.07 -1.39141 1.88884 0
M  V30 17432 C 1712.09 -1.55377 0.783203 0
M  V30 17433 O 1713.26 -1.70003 1.07985 0
M  V30 17434 C 1710.33 -2.73487 2.13087 0
M  V30 17435 C 1709.39 -2.66219 3.36788 0
M  V30 17436 C 1708.62 -3.94158 3.59827 0
M  V30 17437 O 1708.85 -4.9361 2.85841 0
M  V30 17438 O 1707.78 -3.95933 4.53344 0
M  V30 17439 H 1711.61 -1.13184 2.81821 0
M  V30 17440 H 1709.19 -0.495271 1.40952 0
M  V30 17441 H 1711.07 -3.5297 2.30195 0
M  V30 17442 H 1709.75 -2.99283 1.23335 0
M  V30 17443 H 1708.65 -1.85201 3.25041 0
M  V30 17444 H 1709.99 -2.45376 4.26675 0
M  V30 17445 N 1711.64 -1.47227 -0.562322 0
M  V30 17446 C 1712.57 -1.55383 -1.6849 0
M  V30 17447 C 1713.58 -0.440437 -1.56729 0
M  V30 17448 O 1714.77 -0.709803 -1.63781 0
M  V30 17449 C 1711.87 -1.43723 -3.06915 0
M  V30 17450 C 1711.05 -2.69541 -3.4448 0
M  V30 17451 C 1710.11 -2.5179 -4.62048 0
M  V30 17452 O 1709.13 -3.25587 -4.66885 0
M  V30 17453 N 1710.33 -1.59282 -5.5822 0
M  V30 17454 H 1713.1 -2.52181 -1.61941 0
M  V30 17455 H 1710.66 -1.43541 -0.748832 0
M  V30 17456 H 1712.65 -1.2959 -3.83391 0
M  V30 17457 H 1711.22 -0.550272 -3.07719 0
M  V30 17458 H 1710.44 -2.98472 -2.57504 0
M  V30 17459 H 1711.73 -3.53079 -3.66351 0
M  V30 17460 H 1711.13 -0.984666 -5.57064 0
M  V30 17461 H 1709.68 -1.51103 -6.34043 0
M  V30 17462 N 1713.12 0.808639 -1.35273 0
M  V30 17463 C 1714.39 1.55238 -1.18998 0
M  V30 17464 C 1714.77 2.09824 0.231723 0
M  V30 17465 O 1714.12 1.92252 1.23497 0
M  V30 17466 C 1714.33 2.66252 -2.25634 0
M  V30 17467 C 1715.68 3.34646 -2.61338 0
M  V30 17468 O 1716.7 2.76521 -2.24532 0
M  V30 17469 O 1715.56 4.39644 -3.24615 0
M  V30 17470 H 1712.66 0.6858 -0.462176 0
M  V30 17471 H 1715.2 0.848777 -1.46949 0
M  V30 17472 H 1713.98 2.23774 -3.21 0
M  V30 17473 H 1713.6 3.4425 -1.98941 0
M  V30 17474 N 1714.6 1.19237 1.03055 0
M  V30 17475 C 1715.51 0.943876 2.14775 0
M  V30 17476 C 1716.52 -0.0955384 1.73738 0
M  V30 17477 O 1717.7 0.0887187 2.01204 0
M  V30 17478 C 1714.76 0.48402 3.43305 0
M  V30 17479 C 1713.82 1.59262 3.98665 0
M  V30 17480 C 1713.06 1.15461 5.21061 0
M  V30 17481 O 1713.28 0.0174841 5.70397 0
M  V30 17482 O 1712.21 1.95648 5.69215 0
M  V30 17483 H 1716.04 1.87894 2.38599 0
M  V30 17484 H 1713.63 0.975046 1.13195 0
M  V30 17485 H 1715.51 0.236135 4.20738 0
M  V30 17486 H 1714.18 -0.422626 3.20929 0
M  V30 17487 H 1713.09 1.89464 3.22574 0
M  V30 17488 H 1714.42 2.47576 4.25402 0
M  V30 17489 N 1716.07 -1.22136 0.99602 0
M  V30 17490 C 1717 -2.26463 0.568909 0
M  V30 17491 C 1717.99 -1.65189 -0.405783 0
M  V30 17492 O 1719.17 -1.91935 -0.295735 0
M  V30 17493 C 1716.3 -3.47112 -0.114166 0
M  V30 17494 C 1715.25 -4.20844 0.779387 0
M  V30 17495 C 1714.58 -5.34687 -0.0367787 0
M  V30 17496 C 1715.88 -4.79195 2.07773 0
M  V30 17497 H 1717.57 -2.62443 1.44097 0
M  V30 17498 H 1715.12 -1.26156 0.694314 0
M  V30 17499 H 1717.07 -4.19258 -0.424381 0
M  V30 17500 H 1715.8 -3.10238 -1.02079 0
M  V30 17501 H 1714.46 -3.50537 1.07329 0
M  V30 17502 H 1714.1 -4.94054 -0.94442 0
M  V30 17503 H 1713.8 -5.84944 0.558092 0
M  V30 17504 H 1715.33 -6.09647 -0.341016 0
M  V30 17505 H 1716.74 -5.43266 1.83126 0
M  V30 17506 H 1715.14 -5.39803 2.62169 0
M  V30 17507 H 1716.21 -3.99073 2.75442 0
M  V30 17508 N 1717.55 -0.769612 -1.37531 0
M  V30 17509 C 1718.83 -0.257788 -1.93894 0
M  V30 17510 C 1719.21 1.24679 -1.70348 0
M  V30 17511 O 1718.56 2.02892 -1.05106 0
M  V30 17512 C 1718.77 -0.628857 -3.43288 0
M  V30 17513 C 1720.12 -0.597452 -4.20376 0
M  V30 17514 O 1721.14 -0.568117 -3.5164 0
M  V30 17515 O 1720 -0.622627 -5.42942 0
M  V30 17516 H 1717.09 -0.0588144 -0.824906 0
M  V30 17517 H 1719.64 -0.85082 -1.4683 0
M  V30 17518 H 1718.41 -1.66733 -3.54 0
M  V30 17519 H 1718.03 -0.00865929 -3.97599 0
M  V30 17520 N 1719.03 1.48775 -0.519977 0
M  V30 17521 C 1720.28 2.02492 0.0177505 0
M  V30 17522 C 1720.61 1.39801 1.35226 0
M  V30 17523 O 1719.86 0.529591 1.88398 0
M  V30 17524 C 1720.16 3.56844 0.199204 0
M  V30 17525 C 1719.83 4.38271 -1.05968 0
M  V30 17526 C 1718.49 4.6024 -1.40472 0
M  V30 17527 C 1720.84 4.85507 -1.89559 0
M  V30 17528 C 1718.17 5.26691 -2.58483 0
M  V30 17529 C 1720.52 5.53257 -3.0674 0
M  V30 17530 C 1719.18 5.73468 -3.41601 0
M  V30 17531 H 1718.45 0.740972 0.00649536 0
M  V30 17532 H 1721.1 1.78869 -0.683977 0
M  V30 17533 H 1719.41 3.79252 0.983617 0
M  V30 17534 H 1721.1 3.9602 0.63002 0
M  V30 17535 H 1717.69 4.21425 -0.780955 0
M  V30 17536 H 1721.88 4.68345 -1.64215 0
M  V30 17537 H 1717.13 5.40538 -2.85707 0
M  V30 17538 H 1721.31 5.88829 -3.71824 0
M  V30 17539 H 1718.93 6.24732 -4.33144 0
M  V30 17540 N 1720.51 0.254649 1.55529 0
M  V30 17541 C 1721.44 -0.635656 2.24681 0
M  V30 17542 C 1722.42 -1.17519 1.22977 0
M  V30 17543 O 1723.6 -1.21311 1.51649 0
M  V30 17544 C 1720.73 -1.82922 2.95224 0
M  V30 17545 C 1719.69 -1.42212 4.03683 0
M  V30 17546 C 1719.01 -2.69713 4.61691 0
M  V30 17547 C 1720.31 -0.587436 5.18986 0
M  V30 17548 H 1722.01 -0.0590063 2.99342 0
M  V30 17549 H 1719.55 -0.02694 1.43975 0
M  V30 17550 H 1721.51 -2.45777 3.42304 0
M  V30 17551 H 1720.23 -2.43137 2.18064 0
M  V30 17552 H 1718.89 -0.81687 3.57383 0
M  V30 17553 H 1718.54 -3.28143 3.81223 0
M  V30 17554 H 1718.24 -2.43194 5.34911 0
M  V30 17555 H 1719.76 -3.33453 5.11509 0
M  V30 17556 H 1721.18 -1.12048 5.62244 0
M  V30 17557 H 1719.57 -0.417988 5.98643 0
M  V30 17558 H 1720.64 0.398577 4.83259 0
M  V30 17559 N 1721.99 -1.57589 -0.0183649 0
M  V30 17560 C 1722.92 -2.02659 -1.04903 0
M  V30 17561 C 1723.9 -0.912926 -1.34553 0
M  V30 17562 O 1725.08 -1.17961 -1.47029 0
M  V30 17563 C 1722.21 -2.40869 -2.38117 0
M  V30 17564 C 1721.25 -3.62785 -2.24253 0
M  V30 17565 S 1722.09 -5.11479 -1.58585 0
M  V30 17566 C 1723.24 -5.52942 -2.93268 0
M  V30 17567 H 1723.48 -2.89763 -0.665188 0
M  V30 17568 H 1721.01 -1.52697 -0.228676 0
M  V30 17569 H 1722.97 -2.63553 -3.14722 0
M  V30 17570 H 1721.63 -1.54197 -2.73646 0
M  V30 17571 H 1720.82 -3.87211 -3.2262 0
M  V30 17572 H 1720.42 -3.40007 -1.55792 0
M  V30 17573 H 1722.72 -5.5428 -3.8959 0
M  V30 17574 H 1723.66 -6.53123 -2.73563 0
M  V30 17575 H 1724.07 -4.80466 -2.96333 0
M  V30 17576 N 1723.46 0.290824 -1.54893 0
M  V30 17577 C 1724.37 1.38137 -1.89619 0
M  V30 17578 C 1725.39 1.54959 -0.791432 0
M  V30 17579 O 1726.57 1.69428 -1.08885 0
M  V30 17580 C 1723.63 2.72353 -2.14534 0
M  V30 17581 C 1722.69 2.64429 -3.38195 0
M  V30 17582 C 1721.93 3.92244 -3.61912 0
M  V30 17583 O 1722.15 4.92088 -2.88454 0
M  V30 17584 O 1721.08 3.93523 -4.55438 0
M  V30 17585 H 1724.91 1.11688 -2.82417 0
M  V30 17586 H 1722.49 0.487789 -1.41213 0
M  V30 17587 H 1724.38 3.51745 -2.32064 0
M  V30 17588 H 1723.05 2.98624 -1.24921 0
M  V30 17589 H 1721.96 1.83474 -3.26018 0
M  V30 17590 H 1723.29 2.43109 -4.2797 0
M  V30 17591 N 1724.94 1.47523 0.554506 0
M  V30 17592 C 1725.91 1.59761 1.64345 0
M  V30 17593 C 1726.91 0.472516 1.53701 0
M  V30 17594 O 1728.1 0.737659 1.57811 0
M  V30 17595 C 1725.23 1.54467 3.03896 0
M  V30 17596 H 1726.42 2.56834 1.54842 0
M  V30 17597 H 1723.97 1.35753 0.774643 0
M  V30 17598 H 1724.71 0.587789 3.18929 0
M  V30 17599 H 1724.49 2.36123 3.13031 0
M  V30 17600 H 1725.98 1.66174 3.83113 0
M  V30 17601 N 1726.42 -0.801453 1.357 0
M  V30 17602 C 1727.35 -1.92807 1.31711 0
M  V30 17603 C 1728.33 -1.69028 0.190642 0
M  V30 17604 O 1729.52 -1.90317 0.38641 0
M  V30 17605 C 1726.65 -3.29635 1.09352 0
M  V30 17606 C 1725.6 -3.67908 2.18695 0
M  V30 17607 C 1724.93 -5.02955 1.81494 0
M  V30 17608 C 1726.23 -3.77749 3.60698 0
M  V30 17609 H 1727.92 -1.96401 2.2598 0
M  V30 17610 H 1725.47 -0.943528 1.08782 0
M  V30 17611 H 1727.42 -4.08058 1.052 0
M  V30 17612 H 1726.14 -3.26396 0.115306 0
M  V30 17613 H 1724.8 -2.91775 2.21952 0
M  V30 17614 H 1724.45 -4.96225 0.822776 0
M  V30 17615 H 1724.15 -5.29533 2.54692 0
M  V30 17616 H 1725.67 -5.83811 1.78876 0
M  V30 17617 H 1727.09 -4.4639 3.59734 0
M  V30 17618 H 1725.49 -4.15801 4.327 0
M  V30 17619 H 1726.56 -2.79167 3.96477 0
M  V30 17620 N 1727.9 -1.19782 -1.02421 0
M  V30 17621 C 1729.15 -0.997598 -1.75302 0
M  V30 17622 C 1729.46 0.471843 -1.89824 0
M  V30 17623 O 1730.67 0.790999 -2.59722 0
M  V30 17624 C 1729.12 -1.73608 -3.15259 0
M  V30 17625 C 1728.73 -3.24594 -3.08776 0
M  V30 17626 C 1730.47 -1.61927 -3.92403 0
M  V30 17627 C 1728.38 -3.91012 -4.43693 0
M  V30 17628 H 1727.31 -0.369643 -0.657176 0
M  V30 17629 H 1729.96 -1.43325 -1.14587 0
M  V30 17630 H 1728.34 -1.22826 -3.7647 0
M  V30 17631 H 1729.52 -3.82531 -2.56918 0
M  V30 17632 H 1727.83 -3.36603 -2.45127 0
M  V30 17633 H 1730.43 -2.08896 -4.92206 0
M  V30 17634 H 1730.77 -0.574192 -4.12321 0
M  V30 17635 H 1731.31 -2.10081 -3.37803 0
M  V30 17636 H 1728.05 -4.95639 -4.28979 0
M  V30 17637 H 1727.57 -3.37864 -4.95588 0
M  V30 17638 H 1729.24 -3.94828 -5.12562 0
M  V30 17639 N 1729.38 1.21606 -1.00248 0
M  V30 17640 C 1730.63 1.89922 -0.679152 0
M  V30 17641 C 1730.94 1.78793 0.793246 0
M  V30 17642 O 1732.15 2.42113 1.22856 0
M  V30 17643 C 1730.6 3.40548 -1.16427 0
M  V30 17644 C 1730.21 3.60293 -2.66257 0
M  V30 17645 C 1731.95 4.14506 -0.915714 0
M  V30 17646 C 1729.86 5.04669 -3.08323 0
M  V30 17647 H 1728.79 0.711232 -0.250329 0
M  V30 17648 H 1731.44 1.37663 -1.21331 0
M  V30 17649 H 1729.82 3.92046 -0.558177 0
M  V30 17650 H 1731 3.19245 -3.32294 0
M  V30 17651 H 1729.31 2.99683 -2.891 0
M  V30 17652 H 1731.91 5.20932 -1.20558 0
M  V30 17653 H 1732.25 4.16037 0.148068 0
M  V30 17654 H 1732.79 3.69064 -1.48448 0
M  V30 17655 H 1729.52 5.08284 -4.13917 0
M  V30 17656 H 1729.04 5.46583 -2.46996 0
M  V30 17657 H 1730.72 5.7316 -3.00162 0
M  V30 17658 N 1730.86 0.776895 1.37121 0
M  V30 17659 C 1732.08 0.353911 2.04358 0
M  V30 17660 C 1732.51 -1.01745 1.58207 0
M  V30 17661 O 1731.86 -1.653 0.744691 0
M  V30 17662 C 1731.91 0.411918 3.5824 0
M  V30 17663 O 1731.02 -0.58576 4.08219 0
M  V30 17664 H 1730.36 0.152335 0.64629 0
M  V30 17665 H 1732.89 1.05452 1.75331 0
M  V30 17666 H 1732.9 0.271043 4.07099 0
M  V30 17667 H 1731.57 1.41236 3.91185 0
M  V30 17668 H 1730.15 -0.40758 3.70666 0
M  V30 17669 N 1732.33 -1.48497 0.527859 0
M  V30 17670 C 1733.28 -2.2959 -0.23607 0
M  V30 17671 C 1734.25 -1.37232 -0.935762 0
M  V30 17672 O 1735.44 -1.66196 -0.937202 0
M  V30 17673 C 1732.58 -3.20551 -1.27832 0
M  V30 17674 C 1731.69 -4.27984 -0.58769 0
M  V30 17675 C 1730.82 -5.06128 -1.61269 0
M  V30 17676 C 1729.86 -6.05367 -0.905404 0
M  V30 17677 N 1729 -6.76577 -1.87585 0
M  V30 17678 H 1733.84 -2.94403 0.461635 0
M  V30 17679 H 1731.38 -1.45137 0.239493 0
M  V30 17680 H 1733.33 -3.71686 -1.89488 0
M  V30 17681 H 1731.96 -2.57665 -1.94444 0
M  V30 17682 H 1731.02 -3.80132 0.142759 0
M  V30 17683 H 1732.33 -4.9879 -0.0322348 0
M  V30 17684 H 1731.48 -5.61266 -2.30359 0
M  V30 17685 H 1730.22 -4.35157 -2.20204 0
M  V30 17686 H 1729.23 -5.49435 -0.200426 0
M  V30 17687 H 1730.45 -6.78335 -0.322197 0
M  V30 17688 H 1728.4 -6.08358 -2.45432 0
M  V30 17689 H 1728.31 -7.4345 -1.37178 0
M  V30 17690 H 1729.58 -7.36305 -2.5588 0
M  V30 17691 N 1733.81 -0.262893 -1.55392 0
M  V30 17692 C 1735.06 0.357366 -1.99322 0
M  V30 17693 C 1735.39 1.56772 -1.15121 0
M  V30 17694 O 1734.64 1.94614 -0.205867 0
M  V30 17695 C 1734.94 0.795313 -3.48439 0
M  V30 17696 C 1734.61 -0.309047 -4.4984 0
M  V30 17697 C 1733.27 -0.612317 -4.77288 0
M  V30 17698 C 1735.62 -1.05382 -5.10435 0
M  V30 17699 C 1732.95 -1.66415 -5.62604 0
M  V30 17700 C 1735.3 -2.09528 -5.96892 0
M  V30 17701 C 1733.96 -2.40503 -6.22667 0
M  V30 17702 H 1733.23 0.13077 -0.72937 0
M  V30 17703 H 1735.88 -0.374057 -1.87811 0
M  V30 17704 H 1734.19 1.60621 -3.57363 0
M  V30 17705 H 1735.88 1.28577 -3.79828 0
M  V30 17706 H 1732.47 -0.0625469 -4.28554 0
M  V30 17707 H 1736.66 -0.832773 -4.89263 0
M  V30 17708 H 1731.91 -1.90929 -5.80824 0
M  V30 17709 H 1736.09 -2.67719 -6.42884 0
M  V30 17710 H 1733.71 -3.22143 -6.88569 0
M  V30 17711 N 1735.29 1.57597 0.0100073 0
M  V30 17712 C 1736.24 2.089 1.02292 0
M  V30 17713 C 1737.23 1.00681 1.36234 0
M  V30 17714 O 1738.44 1.19155 1.34915 0
M  V30 17715 H 1734.81 0.666899 0.347491 0
M  V30 17716 H 1736.78 2.9301 0.56458 0
M  V30 17717 C 1735.53 2.59942 2.30923 0
M  V30 17718 H 1734.86 3.4284 2.05672 0
M  V30 17719 H 1736.3 2.99528 3.00098 0
M  V30 17720 C 1734.75 1.50907 3.01212 0
M  V30 17721 O 1735.28 0.886216 3.91802 0
M  V30 17722 N 1733.49 1.23895 2.62866 0
M  V30 17723 H 1733.04 1.7473 1.89281 0
M  V30 17724 H 1733 0.511591 3.1021 0
M  V30 17725 N 1736.77 -0.282606 1.55045 0
M  V30 17726 C 1737.72 -1.35115 1.83652 0
M  V30 17727 C 1738.7 -1.45126 0.694788 0
M  V30 17728 O 1739.89 -1.48968 0.955898 0
M  V30 17729 C 1737.02 -2.71309 2.10348 0
M  V30 17730 C 1736.11 -2.65447 3.30755 0
M  V30 17731 N 1736.5 -2.29202 4.50888 0
M  V30 17732 C 1734.8 -2.96523 3.33152 0
M  V30 17733 C 1735.5 -2.33094 5.32956 0
M  V30 17734 N 1734.47 -2.71185 4.71126 0
M  V30 17735 H 1738.28 -1.06085 2.74086 0
M  V30 17736 H 1735.79 -0.491228 1.54792 0
M  V30 17737 H 1737.79 -3.48378 2.28995 0
M  V30 17738 H 1736.45 -3.01235 1.21192 0
M  V30 17739 H 1737.46 -2.01343 4.7716 0
M  V30 17740 H 1734.14 -3.31224 2.54159 0
M  V30 17741 H 1735.53 -2.07714 6.38987 0
M  V30 17742 N 1738.25 -1.47815 -0.546675 0
M  V30 17743 C 1739.18 -1.57161 -1.66832 0
M  V30 17744 C 1740.19 -0.457035 -1.56253 0
M  V30 17745 O 1741.38 -0.727134 -1.63018 0
M  V30 17746 C 1738.48 -1.4697 -3.05374 0
M  V30 17747 C 1737.65 -2.7318 -3.41602 0
M  V30 17748 C 1736.71 -2.56676 -4.59351 0
M  V30 17749 O 1735.74 -3.30521 -4.63405 0
M  V30 17750 N 1736.94 -1.65194 -5.56499 0
M  V30 17751 H 1739.7 -2.53885 -1.59257 0
M  V30 17752 H 1737.27 -1.44328 -0.733565 0
M  V30 17753 H 1739.26 -1.33649 -3.81995 0
M  V30 17754 H 1737.83 -0.582878 -3.07118 0
M  V30 17755 H 1737.05 -3.01186 -2.54323 0
M  V30 17756 H 1738.34 -3.56945 -3.62585 0
M  V30 17757 H 1737.73 -1.04369 -5.55989 0
M  V30 17758 H 1736.29 -1.57819 -6.32405 0
M  V30 17759 N 1739.72 0.794246 -1.36123 0
M  V30 17760 C 1740.67 1.92808 -1.30108 0
M  V30 17761 C 1741.67 1.68289 -0.193734 0
M  V30 17762 O 1742.87 1.76354 -0.360454 0
M  V30 17763 H 1739.25 0.633671 -0.404926 0
M  V30 17764 H 1741.22 1.95 -2.2587 0
M  V30 17765 C 1739.97 3.29762 -1.10238 0
M  V30 17766 H 1739.29 3.49193 -1.9469 0
M  V30 17767 H 1740.73 4.09463 -1.10073 0
M  V30 17768 C 1739.19 3.36345 0.193222 0
M  V30 17769 O 1739.72 3.83832 1.18474 0
M  V30 17770 N 1737.92 2.89638 0.236243 0
M  V30 17771 H 1737.47 2.51186 -0.571245 0
M  V30 17772 H 1737.43 2.94424 1.1028 0
M  V30 17773 N 1741.2 1.20323 1.01785 0
M  V30 17774 C 1742.45 1.00688 1.74771 0
M  V30 17775 C 1742.76 -0.461769 1.90071 0
M  V30 17776 O 1743.97 -0.777214 2.60138 0
M  V30 17777 C 1742.43 1.75278 3.14334 0
M  V30 17778 C 1742.03 3.26227 3.0705 0
M  V30 17779 C 1743.78 1.64006 3.91538 0
M  V30 17780 C 1741.68 3.9336 4.41613 0
M  V30 17781 H 1740.61 0.373123 0.655206 0
M  V30 17782 H 1743.27 1.43931 1.13825 0
M  V30 17783 H 1741.65 1.24821 3.75813 0
M  V30 17784 H 1742.82 3.83888 2.54885 0
M  V30 17785 H 1741.14 3.37898 2.43339 0
M  V30 17786 H 1743.73 2.11503 4.91091 0
M  V30 17787 H 1744.08 0.59605 4.12011 0
M  V30 17788 H 1744.61 2.11869 3.36684 0
M  V30 17789 H 1741.35 4.97907 4.26344 0
M  V30 17790 H 1740.87 3.40488 4.93789 0
M  V30 17791 H 1742.55 3.97541 5.10461 0
M  V30 17792 N 1742.68 -1.21073 1.00892 0
M  V30 17793 C 1743.93 -1.90524 0.694879 0
M  V30 17794 C 1744.26 -1.78161 -0.772802 0
M  V30 17795 O 1743.53 -1.1608 -1.56063 0
M  V30 17796 C 1743.82 -3.42188 1.12156 0
M  V30 17797 C 1743.67 -3.63523 2.64898 0
M  V30 17798 C 1744.99 -4.34706 0.68694 0
M  V30 17799 H 1742.11 -0.69188 0.253912 0
M  V30 17800 H 1744.75 -1.42626 1.2553 0
M  V30 17801 H 1742.9 -3.83113 0.644742 0
M  V30 17802 H 1744.57 -3.31901 3.20374 0
M  V30 17803 H 1742.81 -3.07255 3.0623 0
M  V30 17804 H 1743.49 -4.69805 2.89806 0
M  V30 17805 H 1745.96 -4.01386 1.09674 0
M  V30 17806 H 1744.84 -5.3946 1.01361 0
M  V30 17807 H 1745.1 -4.40178 -0.411757 0
M  V30 17808 N 1744.16 -0.784156 -1.36707 0
M  V30 17809 C 1745.57 -0.465219 -1.52669 0
M  V30 17810 C 1745.77 1.01729 -1.73935 0
M  V30 17811 O 1744.83 1.80289 -1.76783 0
M  V30 17812 C 1746.14 -1.29109 -2.71572 0
M  V30 17813 C 1747.69 -1.28424 -2.8544 0
M  V30 17814 C 1748.17 -2.09373 -4.07341 0
M  V30 17815 N 1749.66 -2.06792 -4.14477 0
M  V30 17816 C 1750.39 -2.66199 -5.07864 0
M  V30 17817 N 1749.89 -3.34445 -6.06728 0
M  V30 17818 N 1751.68 -2.55962 -5.0044 0
M  V30 17819 H 1743.83 -1.74456 -1.21156 0
M  V30 17820 H 1746.1 -0.741286 -0.59093 0
M  V30 17821 H 1745.8 -2.34219 -2.62363 0
M  V30 17822 H 1745.68 -0.928764 -3.65587 0
M  V30 17823 H 1748.06 -0.241077 -2.94114 0
M  V30 17824 H 1748.14 -1.68629 -1.92348 0
M  V30 17825 H 1747.79 -3.13718 -3.99429 0
M  V30 17826 H 1747.72 -1.66542 -4.99571 0
M  V30 17827 H 1750.21 -1.57118 -3.43689 0
M  V30 17828 H 1750.52 -3.77118 -6.74538 0
M  V30 17829 H 1748.87 -3.38546 -6.06969 0
M  V30 17830 H 1752.06 -2.02251 -4.22152 0
M  V30 17831 H 1752.23 -3.02553 -5.73032 0
M  V30 17832 N 1745.64 1.48215 -0.535727 0
M  V30 17833 C 1746.88 2.04399 -0.0058065 0
M  V30 17834 C 1747.24 1.40332 1.31037 0
M  V30 17835 O 1748.44 1.87437 1.92668 0
M  V30 17836 C 1746.71 3.57237 0.107773 0
M  V30 17837 S 1748.27 4.34857 0.586926 0
M  V30 17838 H 1745.09 0.710846 -0.0148167 0
M  V30 17839 H 1747.69 1.81854 -0.717592 0
M  V30 17840 H 1746.4 4.01398 -0.85488 0
M  V30 17841 H 1745.93 3.84245 0.843764 0
M  V30 17842 H 1747.94 4.60405 1.85045 0
M  V30 17843 N 1747.11 0.27113 1.5525 0
M  V30 17844 C 1748.36 -0.347408 1.98686 0
M  V30 17845 C 1748.68 -1.57275 1.16292 0
M  V30 17846 O 1749.88 -2.26399 1.49853 0
M  V30 17847 C 1748.34 -0.669461 3.53619 0
M  V30 17848 C 1747.95 0.535853 4.44784 0
M  V30 17849 C 1749.69 -1.25084 4.05653 0
M  V30 17850 C 1747.6 0.188607 5.91099 0
M  V30 17851 H 1746.53 -0.133581 0.742073 0
M  V30 17852 H 1749.18 0.375157 1.79624 0
M  V30 17853 H 1747.56 -1.45082 3.68466 0
M  V30 17854 H 1748.73 1.3128 4.41704 0
M  V30 17855 H 1747.05 1.03381 4.03363 0
M  V30 17856 H 1749.65 -1.52439 5.1251 0
M  V30 17857 H 1749.99 -2.18341 3.54448 0
M  V30 17858 H 1750.52 -0.531864 3.94228 0
M  V30 17859 H 1747.26 1.08894 6.46392 0
M  V30 17860 H 1746.78 -0.551653 5.97258 0
M  V30 17861 H 1748.46 -0.220603 6.46624 0
M  V30 17862 N 1748.59 -1.576 -0.00164943 0
M  V30 17863 C 1749.84 -1.9012 -0.685486 0
M  V30 17864 C 1750.16 -0.872245 -1.74404 0
M  V30 17865 O 1749.43 0.090572 -1.95691 0
M  V30 17866 H 1748.01 -0.701699 -0.256177 0
M  V30 17867 H 1750.67 -1.94861 0.0388866 0
M  V30 17868 H 1749.77 -2.89831 -1.15778 0
M  V30 17869 N 1750.07 0.274379 -1.55193 0
M  V30 17870 C 1751.32 1.00766 -1.75995 0
M  V30 17871 C 1751.65 1.8599 -0.558679 0
M  V30 17872 O 1750.92 1.8937 0.443784 0
M  V30 17873 C 1751.21 1.89137 -3.0643 0
M  V30 17874 C 1751.06 1.06914 -4.36909 0
M  V30 17875 C 1752.38 2.87869 -3.32896 0
M  V30 17876 H 1749.5 0.364915 -0.640317 0
M  V30 17877 H 1752.14 0.280156 -1.87923 0
M  V30 17878 H 1750.29 2.51166 -2.96391 0
M  V30 17879 H 1751.96 0.469666 -4.58903 0
M  V30 17880 H 1750.21 0.372566 -4.32197 0
M  V30 17881 H 1750.88 1.72063 -5.24498 0
M  V30 17882 H 1753.35 2.35974 -3.42718 0
M  V30 17883 H 1752.23 3.46845 -4.25429 0
M  V30 17884 H 1752.49 3.62921 -2.52469 0
M  V30 17885 N 1751.55 1.48103 0.538828 0
M  V30 17886 C 1752.77 1.59568 1.32487 0
M  V30 17887 C 1753.2 0.252908 1.86392 0
M  V30 17888 O 1752.56 -0.774094 1.63944 0
M  V30 17889 C 1752.6 2.63863 2.45782 0
M  V30 17890 O 1751.71 2.20409 3.48559 0
M  V30 17891 H 1751.05 0.53538 0.392765 0
M  V30 17892 H 1753.58 1.94024 0.649299 0
M  V30 17893 H 1753.59 2.8486 2.92093 0
M  V30 17894 H 1752.26 3.61352 2.05906 0
M  V30 17895 H 1750.84 2.09588 3.08427 0
M  V30 17896 N 1753.03 -0.787016 1.36542 0
M  V30 17897 C 1753.96 -1.91399 1.33749 0
M  V30 17898 C 1754.94 -1.68817 0.208559 0
M  V30 17899 O 1756.12 -1.89896 0.406574 0
M  V30 17900 C 1753.25 -3.28457 1.12842 0
M  V30 17901 C 1752.21 -3.65568 2.22585 0
M  V30 17902 C 1751.53 -5.01002 1.86818 0
M  V30 17903 C 1752.83 -3.73902 3.64684 0
M  V30 17904 H 1754.53 -1.93993 2.2805 0
M  V30 17905 H 1752.07 -0.931937 1.09777 0
M  V30 17906 H 1754.03 -4.06919 1.09522 0
M  V30 17907 H 1752.75 -3.26256 0.149918 0
M  V30 17908 H 1751.41 -2.89405 2.25035 0
M  V30 17909 H 1751.06 -4.95325 0.875361 0
M  V30 17910 H 1750.76 -5.26802 2.60294 0
M  V30 17911 H 1752.28 -5.81881 1.85058 0
M  V30 17912 H 1753.69 -4.4255 3.64448 0
M  V30 17913 H 1752.09 -4.11188 4.37086 0
M  V30 17914 H 1753.16 -2.74946 3.99416 0
M  V30 17915 N 1754.5 -1.20861 -1.01145 0
M  V30 17916 C 1755.44 -0.919862 -2.09931 0
M  V30 17917 C 1756.45 0.0944116 -1.62526 0
M  V30 17918 O 1757.64 -0.137265 -1.77971 0
M  V30 17919 C 1754.74 -0.358478 -3.36999 0
M  V30 17920 C 1753.91 -1.42553 -4.13518 0
M  V30 17921 C 1752.97 -0.874546 -5.18882 0
M  V30 17922 O 1752 -1.55646 -5.47506 0
M  V30 17923 N 1753.2 0.313462 -5.79653 0
M  V30 17924 H 1755.96 -1.85633 -2.35288 0
M  V30 17925 H 1753.52 -1.11299 -1.17577 0
M  V30 17926 H 1755.52 0.0243829 -4.04693 0
M  V30 17927 H 1754.09 0.482669 -3.08851 0
M  V30 17928 H 1753.31 -1.98251 -3.4072 0
M  V30 17929 H 1754.59 -2.14402 -4.61421 0
M  V30 17930 H 1753.99 0.884644 -5.5874 0
M  V30 17931 H 1752.55 0.637904 -6.48671 0
M  V30 17932 N 1755.98 1.20536 -1.01532 0
M  V30 17933 C 1757.21 1.94393 -0.722908 0
M  V30 17934 C 1757.63 1.74191 0.709857 0
M  V30 17935 O 1756.99 1.03538 1.48827 0
M  V30 17936 C 1757.04 3.44597 -1.06231 0
M  V30 17937 O 1756.14 4.12036 -0.173286 0
M  V30 17938 H 1755.48 0.607361 -0.268345 0
M  V30 17939 H 1758.01 1.53003 -1.35835 0
M  V30 17940 H 1758.02 3.95212 -1.01348 0
M  V30 17941 H 1756.7 3.58624 -2.10621 0
M  V30 17942 H 1755.28 3.71851 -0.27953 0
M  V30 17943 N 1757.46 0.791395 1.36289 0
M  V30 17944 C 1758.39 0.205419 2.32595 0
M  V30 17945 C 1759.37 -0.660696 1.56744 0
M  V30 17946 O 1760.56 -0.594111 1.84889 0
M  V30 17947 C 1757.69 -0.659018 3.4099 0
M  V30 17948 C 1756.64 0.107364 4.27865 0
M  V30 17949 C 1755.97 -0.877795 5.27446 0
M  V30 17950 C 1757.27 1.29769 5.05922 0
M  V30 17951 H 1758.96 1.00999 2.8185 0
M  V30 17952 H 1756.51 0.487122 1.35511 0
M  V30 17953 H 1758.46 -1.07891 4.07354 0
M  V30 17954 H 1757.18 -1.49632 2.90307 0
M  V30 17955 H 1755.84 0.508253 3.6306 0
M  V30 17956 H 1755.49 -1.71018 4.73035 0
M  V30 17957 H 1755.19 -0.369429 5.86438 0
M  V30 17958 H 1756.71 -1.29621 5.96683 0
M  V30 17959 H 1758.13 0.953463 5.65316 0
M  V30 17960 H 1756.53 1.73949 5.74336 0
M  V30 17961 H 1757.6 2.09205 4.37449 0
M  V30 17962 N 1758.94 -1.47929 0.54358 0
M  V30 17963 C 1760.35 -1.86395 0.10663 0
M  V30 17964 C 1760.7 -1.45171 -1.31984 0
M  V30 17965 O 1759.83 -0.848558 -1.99069 0
M  V30 17966 C 1760.42 -3.38285 0.186733 0
M  V30 17967 C 1758.98 -3.75894 -0.195098 0
M  V30 17968 C 1758.13 -2.71983 0.540427 0
M  V30 17969 H 1761.08 -1.3964 0.754076 0
M  V30 17970 H 1761.1 -3.75769 -0.598151 0
M  V30 17971 H 1760.61 -3.68258 1.22505 0
M  V30 17972 H 1758.71 -3.51536 -1.23504 0
M  V30 17973 H 1758.83 -4.78853 0.153975 0
M  V30 17974 H 1757.19 -2.54696 -0.0149151 0
M  V30 17975 H 1757.97 -3.04799 1.57963 0
M  V30 17976 N 1760.42 -0.27936 -1.55104 0
M  V30 17977 C 1761.83 0.074665 -1.59425 0
M  V30 17978 C 1762.03 1.54246 -1.29655 0
M  V30 17979 O 1761.09 2.29197 -1.05947 0
M  V30 17980 C 1762.4 -0.30379 -2.99162 0
M  V30 17981 C 1763.95 -0.250758 -3.11994 0
M  V30 17982 C 1764.43 -0.603715 -4.54004 0
M  V30 17983 N 1765.92 -0.555428 -4.59858 0
M  V30 17984 C 1766.65 -0.801278 -5.67774 0
M  V30 17985 N 1766.15 -1.11197 -6.83818 0
M  V30 17986 N 1767.94 -0.72979 -5.57342 0
M  V30 17987 H 1760.09 -1.23619 -1.7272 0
M  V30 17988 H 1762.35 -0.499704 -0.805606 0
M  V30 17989 H 1762.06 -1.32475 -3.25796 0
M  V30 17990 H 1761.93 0.353294 -3.75542 0
M  V30 17991 H 1764.32 0.760925 -2.85121 0
M  V30 17992 H 1764.4 -0.94216 -2.37817 0
M  V30 17993 H 1764.05 -1.6131 -4.81603 0
M  V30 17994 H 1763.98 0.109523 -5.26486 0
M  V30 17995 H 1766.47 -0.325348 -3.76497 0
M  V30 17996 H 1766.78 -1.28611 -7.62023 0
M  V30 17997 H 1765.13 -1.14978 -6.85423 0
M  V30 17998 H 1768.32 -0.48688 -4.65561 0
M  V30 17999 H 1768.49 -0.92477 -6.41367 0
M  V30 18000 N 1761.9 1.57599 -0.0067085 0
M  V30 18001 C 1763.14 1.90858 0.67673 0
M  V30 18002 C 1763.47 0.880956 1.73405 0
M  V30 18003 O 1762.73 -0.113339 1.95372 0
M  V30 18004 C 1763.02 3.30868 1.35133 0
M  V30 18005 C 1762.69 4.48878 0.426559 0
M  V30 18006 C 1761.35 4.80893 0.17196 0
M  V30 18007 C 1763.7 5.20778 -0.209761 0
M  V30 18008 C 1761.03 5.82177 -0.727139 0
M  V30 18009 C 1763.38 6.2302 -1.09678 0
M  V30 18010 C 1762.05 6.53488 -1.36049 0
M  V30 18011 H 1761.32 0.698397 0.247633 0
M  V30 18012 H 1763.97 1.91394 -0.0636748 0
M  V30 18013 H 1762.27 3.26487 2.16594 0
M  V30 18014 H 1763.97 3.53864 1.8863 0
M  V30 18015 H 1760.56 4.23867 0.635166 0
M  V30 18016 H 1764.74 4.96293 -0.0260888 0
M  V30 18017 H 1760 6.0414 -0.939389 0
M  V30 18018 H 1764.17 6.77861 -1.59616 0
M  V30 18019 H 1761.8 7.31789 -2.05886 0
M  V30 18020 N 1763.37 -0.266145 1.55336 0
M  V30 18021 C 1764.62 -0.994648 1.7547 0
M  V30 18022 C 1764.94 -1.87201 0.56702 0
M  V30 18023 O 1766.14 -2.63582 0.650924 0
M  V30 18024 C 1764.6 -1.81844 3.10581 0
M  V30 18025 C 1764.21 -0.989413 4.36938 0
M  V30 18026 C 1765.95 -2.54084 3.40061 0
M  V30 18027 C 1763.86 -1.80799 5.63086 0
M  V30 18028 H 1762.79 -0.375097 0.654078 0
M  V30 18029 H 1765.44 -0.25004 1.81788 0
M  V30 18030 H 1763.82 -2.60427 2.98318 0
M  V30 18031 H 1764.99 -0.247271 4.60136 0
M  V30 18032 H 1763.31 -0.38125 4.14651 0
M  V30 18033 H 1765.91 -3.15744 4.3152 0
M  V30 18034 H 1766.25 -3.2472 2.60505 0
M  V30 18035 H 1766.78 -1.82526 3.53453 0
M  V30 18036 H 1763.52 -1.14571 6.4541 0
M  V30 18037 H 1763.04 -2.52592 5.4402 0
M  V30 18038 H 1764.72 -2.37994 6.01638 0
M  V30 18039 N 1764.85 -1.48386 -0.530967 0
M  V30 18040 C 1765.78 -1.6573 -1.64486 0
M  V30 18041 C 1766.76 -0.506198 -1.62393 0
M  V30 18042 O 1767.95 -0.738623 -1.79605 0
M  V30 18043 C 1765.08 -1.69594 -3.03076 0
M  V30 18044 C 1764.03 -2.84195 -3.20027 0
M  V30 18045 C 1763.36 -2.73148 -4.59668 0
M  V30 18046 C 1764.66 -4.25504 -3.02892 0
M  V30 18047 H 1766.35 -2.58983 -1.50227 0
M  V30 18048 H 1763.9 -1.24633 -0.721286 0
M  V30 18049 H 1765.85 -1.80316 -3.80873 0
M  V30 18050 H 1764.57 -0.729193 -3.18356 0
M  V30 18051 H 1763.23 -2.73027 -2.44647 0
M  V30 18052 H 1762.88 -1.74444 -4.71782 0
M  V30 18053 H 1762.58 -3.50047 -4.71954 0
M  V30 18054 H 1764.11 -2.85836 -5.39565 0
M  V30 18055 H 1765.52 -4.37511 -3.70482 0
M  V30 18056 H 1763.92 -5.03393 -3.26673 0
M  V30 18057 H 1764.99 -4.42036 -1.99329 0
M  V30 18058 N 1766.33 0.779763 -1.36958 0
M  V30 18059 C 1767.26 1.90687 -1.34762 0
M  V30 18060 C 1768.24 1.68704 -0.217508 0
M  V30 18061 O 1769.43 1.89678 -0.416639 0
M  V30 18062 C 1766.56 3.27854 -1.14582 0
M  V30 18063 C 1765.51 3.64383 -2.2452 0
M  V30 18064 C 1764.84 5.00004 -1.89473 0
M  V30 18065 C 1766.14 3.71963 -3.66662 0
M  V30 18066 H 1767.83 1.92781 -2.29076 0
M  V30 18067 H 1765.38 0.926102 -1.10269 0
M  V30 18068 H 1767.33 4.06332 -1.11678 0
M  V30 18069 H 1766.05 3.26172 -0.167218 0
M  V30 18070 H 1764.71 2.88207 -2.26566 0
M  V30 18071 H 1764.36 4.94853 -0.901617 0
M  V30 18072 H 1764.06 5.25414 -2.63085 0
M  V30 18073 H 1765.58 5.80892 -1.88141 0
M  V30 18074 H 1767 4.40611 -3.6679 0
M  V30 18075 H 1765.39 4.08864 -4.39261 0
M  V30 18076 H 1766.46 2.72824 -4.00868 0
M  V30 18077 N 1767.81 1.21396 1.00503 0
M  V30 18078 C 1768.72 0.989221 2.12724 0
M  V30 18079 C 1769.73 -0.0586646 1.73901 0
M  V30 18080 O 1770.91 0.131377 2.00971 0
M  V30 18081 C 1767.97 0.556731 3.42201 0
M  V30 18082 C 1767.04 1.67683 3.95197 0
M  V30 18083 C 1766.27 1.26488 5.18494 0
M  V30 18084 O 1766.49 0.13847 5.70232 0
M  V30 18085 O 1765.43 2.07678 5.64937 0
M  V30 18086 H 1769.25 1.92913 2.3456 0
M  V30 18087 H 1766.84 0.998837 1.11102 0
M  V30 18088 H 1768.72 0.325327 4.20142 0
M  V30 18089 H 1767.39 -0.354457 3.21753 0
M  V30 18090 H 1766.3 1.96263 3.18483 0
M  V30 18091 H 1767.63 2.56544 4.20055 0
M  V30 18092 N 1769.29 -1.19996 1.0217 0
M  V30 18093 C 1770.22 -2.25206 0.616818 0
M  V30 18094 C 1771.2 -1.66013 -0.370653 0
M  V30 18095 O 1772.38 -1.92519 -0.254956 0
M  V30 18096 C 1769.51 -3.47276 -0.0405129 0
M  V30 18097 C 1768.47 -4.19096 0.868479 0
M  V30 18098 C 1767.79 -5.34645 0.0766447 0
M  V30 18099 C 1769.09 -4.7468 2.1789 0
M  V30 18100 H 1770.79 -2.59328 1.49632 0
M  V30 18101 H 1768.33 -1.24655 0.720917 0
M  V30 18102 H 1770.28 -4.20063 -0.335355 0
M  V30 18103 H 1769.01 -3.12333 -0.954759 0
M  V30 18104 H 1767.67 -3.48181 1.1474 0
M  V30 18105 H 1767.32 -4.95946 -0.839411 0
M  V30 18106 H 1767.02 -5.83628 0.682041 0
M  V30 18107 H 1768.54 -6.10233 -0.211624 0
M  V30 18108 H 1769.95 -5.39259 1.94608 0
M  V30 18109 H 1768.35 -5.34121 2.7356 0
M  V30 18110 H 1769.42 -3.93141 2.83845 0
M  V30 18111 N 1770.76 -0.798611 -1.35867 0
M  V30 18112 C 1771.7 -0.149116 -2.27712 0
M  V30 18113 C 1772.67 0.680209 -1.47689 0
M  V30 18114 O 1773.86 0.649211 -1.76968 0
M  V30 18115 C 1770.99 0.793938 -3.29263 0
M  V30 18116 C 1770.03 0.0452467 -4.26476 0
M  V30 18117 S 1770.86 -1.28533 -5.19846 0
M  V30 18118 C 1772.02 -0.346515 -6.2494 0
M  V30 18119 H 1772.25 -0.92784 -2.82451 0
M  V30 18120 H 1769.79 -0.593276 -1.42547 0
M  V30 18121 H 1771.74 1.33256 -3.88269 0
M  V30 18122 H 1770.41 1.54598 -2.73419 0
M  V30 18123 H 1769.6 0.761186 -4.98219 0
M  V30 18124 H 1769.2 -0.423174 -3.71598 0
M  V30 18125 H 1771.49 0.47122 -6.75859 0
M  V30 18126 H 1772.44 -1.0329 -7.00526 0
M  V30 18127 H 1772.84 0.0542422 -5.64474 0
M  V30 18128 N 1772.24 1.47639 -0.551417 0
M  V30 18129 C 1773.2 2.28419 0.188996 0
M  V30 18130 C 1774.2 1.36617 0.84808 0
M  V30 18131 O 1775.39 1.59304 0.704831 0
M  V30 18132 C 1772.53 3.16131 1.27571 0
M  V30 18133 H 1773.72 2.95348 -0.520518 0
M  V30 18134 H 1771.27 1.53232 -0.308141 0
M  V30 18135 H 1772.01 2.5388 2.0178 0
M  V30 18136 H 1771.79 3.83685 0.807984 0
M  V30 18137 H 1773.28 3.77011 1.79591 0
M  V30 18138 N 1773.72 0.287581 1.54954 0
M  V30 18139 C 1774.97 -0.324967 1.9947 0
M  V30 18140 C 1775.29 -1.55437 1.17747 0
M  V30 18141 O 1774.56 -1.9403 0.270067 0
M  V30 18142 H 1773.14 -0.123062 0.736794 0
M  V30 18143 H 1775.8 0.395805 1.90839 0
M  V30 18144 H 1774.9 -0.606265 3.06155 0
M  V30 18145 N 1775.2 -1.57593 0.0150662 0
M  V30 18146 C 1776.45 -1.90836 -0.665282 0
M  V30 18147 C 1776.77 -0.890693 -1.73469 0
M  V30 18148 O 1776.04 0.0698113 -1.95776 0
M  V30 18149 H 1774.62 -0.704377 -0.24872 0
M  V30 18150 H 1777.28 -1.94809 0.0595521 0
M  V30 18151 H 1776.38 -2.91043 -1.12697 0
M  V30 18152 N 1776.68 0.257904 -1.55475 0
M  V30 18153 C 1777.95 1.00965 -1.67528 0
M  V30 18154 C 1778.33 2.03763 -0.551694 0
M  V30 18155 O 1777.68 2.24099 0.446314 0
M  V30 18156 C 1777.89 1.65289 -3.07377 0
M  V30 18157 C 1779.24 2.15888 -3.65619 0
M  V30 18158 O 1780.26 1.7525 -3.10106 0
M  V30 18159 O 1779.12 2.90471 -4.62913 0
M  V30 18160 H 1776.22 0.469266 -0.680969 0
M  V30 18161 H 1778.76 0.252562 -1.6781 0
M  V30 18162 H 1777.53 0.908769 -3.80601 0
M  V30 18163 H 1777.16 2.47646 -3.11058 0
M  V30 18164 N 1778.15 1.48666 0.52309 0
M  V30 18165 C 1779.08 1.666 1.63605 0
M  V30 18166 C 1780.07 0.514803 1.62123 0
M  V30 18167 O 1781.25 0.748138 1.79211 0
M  V30 18168 C 1778.38 1.71199 3.02172 0
M  V30 18169 C 1777.33 2.85888 3.18515 0
M  V30 18170 C 1776.66 2.75582 4.58213 0
M  V30 18171 C 1777.96 4.27104 3.00631 0
M  V30 18172 H 1779.65 2.59776 1.48851 0
M  V30 18173 H 1777.2 1.25014 0.714667 0
M  V30 18174 H 1779.15 1.82333 3.79911 0
M  V30 18175 H 1777.88 0.746066 3.17964 0
M  V30 18176 H 1776.54 2.7432 2.43195 0
M  V30 18177 H 1776.18 1.76944 4.7085 0
M  V30 18178 H 1775.88 3.52545 4.70091 0
M  V30 18179 H 1777.41 2.88693 5.38041 0
M  V30 18180 H 1778.82 4.3947 3.68157 0
M  V30 18181 H 1777.22 5.05119 3.23999 0
M  V30 18182 H 1778.29 4.43087 1.96982 0
M  V30 18183 N 1779.63 -0.772489 1.37369 0
M  V30 18184 C 1780.58 -1.88575 1.33073 0
M  V30 18185 C 1781.55 -1.64935 0.19641 0
M  V30 18186 O 1782.73 -1.86862 0.385651 0
M  V30 18187 C 1779.87 -3.25628 1.14281 0
M  V30 18188 C 1778.99 -3.61227 2.36936 0
M  V30 18189 C 1778.12 -4.87486 2.11023 0
M  V30 18190 C 1777.16 -5.15814 3.29548 0
M  V30 18191 N 1776.3 -6.33261 3.03191 0
M  V30 18192 H 1781.14 -1.91583 2.28255 0
M  V30 18193 H 1778.68 -0.936654 1.13425 0
M  V30 18194 H 1780.63 -4.04688 1.01407 0
M  V30 18195 H 1779.26 -3.21998 0.227467 0
M  V30 18196 H 1778.32 -2.77158 2.60552 0
M  V30 18197 H 1779.63 -3.781 3.25333 0
M  V30 18198 H 1778.78 -5.74449 1.95176 0
M  V30 18199 H 1777.52 -4.72716 1.19962 0
M  V30 18200 H 1776.53 -4.27328 3.45935 0
M  V30 18201 H 1777.75 -5.32493 4.21459 0
M  V30 18202 H 1775.7 -6.19851 2.14759 0
M  V30 18203 H 1775.61 -6.50546 3.85131 0
M  V30 18204 H 1776.88 -7.23162 2.9096 0
M  V30 18205 N 1781.11 -1.21927 -0.998575 0
M  V30 18206 C 1782.34 -1.06735 -1.77827 0
M  V30 18207 C 1782.76 0.378154 -1.8426 0
M  V30 18208 O 1782.12 1.27301 -1.2909 0
M  V30 18209 C 1782.17 -1.67662 -3.19252 0
M  V30 18210 O 1781.27 -0.926448 -4.01859 0
M  V30 18211 H 1780.61 -0.375241 -0.547805 0
M  V30 18212 H 1783.14 -1.61605 -1.25478 0
M  V30 18213 H 1783.15 -1.72151 -3.69903 0
M  V30 18214 H 1781.83 -2.72854 -3.13885 0
M  V30 18215 H 1780.4 -0.957145 -3.60407 0
M  V30 18216 N 1782.59 1.19452 -1.02805 0
M  V30 18217 C 1783.84 1.89114 -0.724029 0
M  V30 18218 C 1784.16 1.79571 0.747307 0
M  V30 18219 O 1783.42 1.18191 1.55979 0
M  V30 18220 C 1783.72 3.3941 -1.11964 0
M  V30 18221 C 1783.38 3.69156 -2.58911 0
M  V30 18222 C 1782.05 3.76984 -2.99059 0
M  V30 18223 C 1784.4 3.82549 -3.53986 0
M  V30 18224 C 1781.73 3.95673 -4.33197 0
M  V30 18225 C 1784.08 4.02751 -4.87826 0
M  V30 18226 C 1782.74 4.08812 -5.27664 0
M  V30 18227 H 1782.01 0.692017 -0.264941 0
M  V30 18228 H 1784.66 1.41463 -1.29075 0
M  V30 18229 H 1782.96 3.88952 -0.471514 0
M  V30 18230 H 1784.66 3.91627 -0.861939 0
M  V30 18231 H 1781.25 3.6367 -2.26808 0
M  V30 18232 H 1785.43 3.75845 -3.24121 0
M  V30 18233 H 1780.69 3.98605 -4.63599 0
M  V30 18234 H 1784.86 4.12056 -5.61412 0
M  V30 18235 H 1782.49 4.23046 -6.31614 0
M  V30 18236 N 1784.07 0.805805 1.35442 0
M  V30 18237 C 1785 0.230077 2.32364 0
M  V30 18238 C 1785.98 -0.644034 1.57436 0
M  V30 18239 O 1787.16 -0.574467 1.85509 0
M  V30 18240 C 1784.29 -0.622814 3.4167 0
M  V30 18241 C 1783.25 0.152739 4.27727 0
M  V30 18242 C 1782.57 -0.821803 5.28347 0
M  V30 18243 C 1783.87 1.35128 5.04517 0
M  V30 18244 H 1785.57 1.03983 2.80763 0
M  V30 18245 H 1783.11 0.501467 1.34986 0
M  V30 18246 H 1785.07 -1.03564 4.08476 0
M  V30 18247 H 1783.79 -1.46544 2.91877 0
M  V30 18248 H 1782.45 0.546732 3.625 0
M  V30 18249 H 1782.1 -1.65991 4.74822 0
M  V30 18250 H 1781.8 -0.307209 5.86796 0
M  V30 18251 H 1783.32 -1.23285 5.98024 0
M  V30 18252 H 1784.73 1.01337 5.64273 0
M  V30 18253 H 1783.13 1.80031 5.72459 0
M  V30 18254 H 1784.2 2.13833 4.35205 0
M  V30 18255 N 1785.54 -1.47344 0.559239 0
M  V30 18256 C 1786.96 -1.58088 0.219155 0
M  V30 18257 C 1787.16 -1.55758 -1.27834 0
M  V30 18258 O 1786.22 -1.46207 -2.05864 0
M  V30 18259 C 1787.53 -2.88507 0.847606 0
M  V30 18260 C 1789.08 -3.02094 0.819022 0
M  V30 18261 C 1789.55 -4.35216 1.42658 0
M  V30 18262 N 1791.04 -4.41857 1.38986 0
M  V30 18263 C 1791.78 -5.43429 1.82956 0
M  V30 18264 N 1791.27 -6.51801 2.34792 0
M  V30 18265 N 1793.07 -5.34486 1.74015 0
M  V30 18266 H 1785.22 -1.47102 1.53215 0
M  V30 18267 H 1787.48 -0.700228 0.63905 0
M  V30 18268 H 1787.19 -2.95954 1.90011 0
M  V30 18269 H 1787.06 -3.75648 0.341841 0
M  V30 18270 H 1789.45 -2.94243 -0.224794 0
M  V30 18271 H 1789.53 -2.1649 1.36257 0
M  V30 18272 H 1789.17 -4.43824 2.46947 0
M  V30 18273 H 1789.1 -5.19556 0.858462 0
M  V30 18274 H 1791.59 -3.64133 1.01071 0
M  V30 18275 H 1791.91 -7.25482 2.66262 0
M  V30 18276 H 1790.25 -6.52685 2.38804 0
M  V30 18277 H 1793.44 -4.48721 1.33294 0
M  V30 18278 H 1793.62 -6.13506 2.086 0
M  V30 18279 N 1787.02 -0.295795 -1.54799 0
M  V30 18280 C 1787.93 0.592206 -2.27002 0
M  V30 18281 C 1788.95 1.1528 -1.30332 0
M  V30 18282 O 1790.12 1.1787 -1.63305 0
M  V30 18283 C 1787.19 1.75027 -2.99277 0
M  V30 18284 C 1786.25 1.22427 -4.11473 0
M  V30 18285 C 1785.48 2.32714 -4.80291 0
M  V30 18286 O 1785.71 3.52506 -4.48437 0
M  V30 18287 O 1784.64 1.997 -5.67806 0
M  V30 18288 H 1788.47 0.00666048 -3.03699 0
M  V30 18289 H 1786.05 -0.0624413 -1.49269 0
M  V30 18290 H 1787.93 2.42508 -3.44627 0
M  V30 18291 H 1786.61 2.32252 -2.25479 0
M  V30 18292 H 1785.52 0.515337 -3.70534 0
M  V30 18293 H 1786.85 0.697518 -4.87233 0
M  V30 18294 N 1788.5 1.57583 -0.0234236 0
M  V30 18295 C 1789.73 1.95861 0.666797 0
M  V30 18296 C 1790.14 0.899616 1.65989 0
M  V30 18297 O 1789.5 -0.119162 1.82111 0
M  V30 18298 C 1789.55 3.34198 1.37818 0
M  V30 18299 O 1789.27 4.36035 0.424887 0
M  V30 18300 C 1790.77 3.87074 2.16075 0
M  V30 18301 H 1787.99 0.645213 0.184233 0
M  V30 18302 H 1790.54 2.04338 -0.0814987 0
M  V30 18303 H 1788.69 3.26958 2.07792 0
M  V30 18304 H 1789.11 5.162 0.929394 0
M  V30 18305 H 1790.58 4.8623 2.61312 0
M  V30 18306 H 1791.06 3.21017 2.99741 0
M  V30 18307 H 1791.66 3.97565 1.5107 0
M  V30 18308 N 1789.98 -0.249655 1.5561 0
M  V30 18309 C 1791.4 -0.598032 1.47972 0
M  V30 18310 C 1791.6 -1.88461 0.713067 0
M  V30 18311 O 1790.65 -2.51344 0.241314 0
M  V30 18312 C 1791.96 -0.703318 2.92359 0
M  V30 18313 C 1793.51 -0.795828 3.02714 0
M  V30 18314 C 1793.99 -0.932698 4.48402 0
M  V30 18315 N 1795.48 -0.997638 4.52329 0
M  V30 18316 C 1796.21 -1.12276 5.623 0
M  V30 18317 N 1795.71 -1.21359 6.82088 0
M  V30 18318 N 1797.5 -1.1557 5.50091 0
M  V30 18319 H 1789.65 0.594976 2.03897 0
M  V30 18320 H 1791.92 0.204956 0.925579 0
M  V30 18321 H 1791.62 0.171981 3.51279 0
M  V30 18322 H 1791.5 -1.57614 3.42692 0
M  V30 18323 H 1793.88 -1.66158 2.43876 0
M  V30 18324 H 1793.96 0.102087 2.55596 0
M  V30 18325 H 1793.61 -0.0715123 5.0785 0
M  V30 18326 H 1793.54 -1.84561 4.93198 0
M  V30 18327 H 1796.03 -0.938895 3.66051 0
M  V30 18328 H 1796.34 -1.30805 7.61649 0
M  V30 18329 H 1794.69 -1.18322 6.84854 0
M  V30 18330 H 1797.88 -1.0812 4.55442 0
M  V30 18331 H 1798.05 -1.24976 6.35834 0
M  V30 18332 N 1791.46 -1.48941 -0.515198 0
M  V30 18333 C 1792.87 -1.51076 -1.09695 0
M  V30 18334 C 1793.22 -0.288875 -1.94062 0
M  V30 18335 O 1792.34 0.602665 -2.07839 0
M  V30 18336 C 1792.94 -2.73755 -1.99609 0
M  V30 18337 C 1791.5 -2.78714 -2.52974 0
M  V30 18338 C 1790.65 -2.44798 -1.30266 0
M  V30 18339 H 1793.6 -1.55843 -0.299757 0
M  V30 18340 H 1793.62 -2.53112 -2.84103 0
M  V30 18341 H 1793.13 -3.62668 -1.38178 0
M  V30 18342 H 1791.23 -1.94045 -3.18084 0
M  V30 18343 H 1791.34 -3.80525 -2.91097 0
M  V30 18344 H 1789.71 -1.9627 -1.62327 0
M  V30 18345 H 1790.49 -3.35969 -0.705648 0
M  V30 18346 N 1792.94 0.765193 -1.37777 0
M  V30 18347 C 1794.35 1.06666 -1.1872 0
M  V30 18348 C 1794.55 2.01481 -0.0278636 0
M  V30 18349 O 1793.61 2.44514 0.630006 0
M  V30 18350 C 1794.92 1.65787 -2.50868 0
M  V30 18351 C 1796.47 1.78014 -2.57449 0
M  V30 18352 C 1796.94 2.40548 -3.89744 0
M  V30 18353 N 1798.43 2.47992 -3.91221 0
M  V30 18354 C 1799.17 2.97245 -4.9034 0
M  V30 18355 N 1798.67 3.46621 -5.99855 0
M  V30 18356 N 1800.46 2.96179 -4.77739 0
M  V30 18357 H 1792.61 0.135775 -2.11966 0
M  V30 18358 H 1794.87 0.122863 -0.940005 0
M  V30 18359 H 1794.58 1.03588 -3.36099 0
M  V30 18360 H 1794.45 2.65 -2.6843 0
M  V30 18361 H 1796.84 2.39345 -1.72621 0
M  V30 18362 H 1796.92 0.775388 -2.43765 0
M  V30 18363 H 1796.56 1.79855 -4.74989 0
M  V30 18364 H 1796.49 3.41643 -4.00734 0
M  V30 18365 H 1798.99 2.13056 -3.12114 0
M  V30 18366 H 1799.3 3.82625 -6.7143 0
M  V30 18367 H 1797.64 3.44709 -6.0349 0
M  V30 18368 H 1800.83 2.56909 -3.913 0
M  V30 18369 H 1801.01 3.34253 -5.55139 0
M  V30 18370 N 1794.41 1.22455 0.992094 0
M  V30 18371 C 1795.82 1.04629 1.54627 0
M  V30 18372 C 1796.18 -0.390011 1.92285 0
M  V30 18373 O 1795.3 -1.27511 1.74842 0
M  V30 18374 C 1795.9 1.89306 2.80978 0
M  V30 18375 C 1794.45 1.75775 3.32836 0
M  V30 18376 C 1793.6 1.85724 2.05917 0
M  V30 18377 H 1796.55 1.36288 0.813089 0
M  V30 18378 H 1796.57 1.41095 3.53373 0
M  V30 18379 H 1796.09 2.93836 2.53539 0
M  V30 18380 H 1794.19 0.739821 3.65181 0
M  V30 18381 H 1794.3 2.58491 4.03385 0
M  V30 18382 H 1792.66 1.29173 2.19514 0
M  V30 18383 H 1793.45 2.91787 1.80874 0
M  V30 18384 N 1795.89 -1.18905 1.03437 0
M  V30 18385 C 1797.12 -1.93219 0.753743 0
M  V30 18386 C 1797.54 -1.75299 -0.682055 0
M  V30 18387 O 1796.9 -1.05892 -1.47161 0
M  V30 18388 C 1796.95 -3.42864 1.117 0
M  V30 18389 O 1796.05 -4.11708 0.238816 0
M  V30 18390 H 1795.39 -0.603015 0.277973 0
M  V30 18391 H 1797.92 -1.50823 1.38252 0
M  V30 18392 H 1797.93 -3.9355 1.07623 0
M  V30 18393 H 1796.61 -3.55228 2.163 0
M  V30 18394 H 1795.18 -3.71359 0.338652 0
M  V30 18395 N 1797.37 -0.812977 -1.35013 0
M  V30 18396 C 1798.3 -0.185443 -2.28449 0
M  V30 18397 C 1799.31 0.618951 -1.50575 0
M  V30 18398 O 1800.5 0.450262 -1.72728 0
M  V30 18399 C 1797.6 0.759419 -3.30282 0
M  V30 18400 C 1796.78 1.09356e-05 -4.374 0
M  V30 18401 C 1795.84 0.864309 -5.19053 0
M  V30 18402 O 1794.86 0.312916 -5.68339 0
M  V30 18403 N 1796.06 2.18551 -5.37788 0
M  V30 18404 H 1798.83 -0.988144 -2.82941 0
M  V30 18405 H 1796.39 -0.669018 -1.47431 0
M  V30 18406 H 1798.38 1.342 -3.81802 0
M  V30 18407 H 1796.95 1.4629 -2.76257 0
M  V30 18408 H 1796.17 -0.763818 -3.86729 0
M  V30 18409 H 1797.46 -0.523125 -5.06104 0
M  V30 18410 H 1796.86 2.65735 -4.99401 0
M  V30 18411 H 1795.41 2.71718 -5.92463 0
M  V30 18412 N 1798.85 1.47045 -0.567045 0
M  V30 18413 C 1800.26 1.86202 -0.13627 0
M  V30 18414 C 1800.61 1.47252 1.29658 0
M  V30 18415 O 1799.73 0.880121 1.97694 0
M  V30 18416 C 1800.33 3.37945 -0.240528 0
M  V30 18417 C 1798.89 3.76157 0.135272 0
M  V30 18418 C 1798.04 2.71089 -0.583628 0
M  V30 18419 H 1800.99 1.38423 -0.776196 0
M  V30 18420 H 1801.01 3.76673 0.538293 0
M  V30 18421 H 1800.52 3.66263 -1.28348 0
M  V30 18422 H 1798.62 3.53456 1.17896 0
M  V30 18423 H 1798.73 4.78547 -0.230137 0
M  V30 18424 H 1797.1 2.54687 -0.0256067 0
M  V30 18425 H 1797.88 3.02247 -1.62792 0
M  V30 18426 N 1800.33 0.304 1.5464 0
M  V30 18427 C 1801.55 -0.309709 2.05075 0
M  V30 18428 C 1801.98 -1.46509 1.1797 0
M  V30 18429 O 1801.33 -1.80359 0.184437 0
M  V30 18430 C 1801.38 -0.740734 3.5291 0
M  V30 18431 O 1800.49 -1.8452 3.68817 0
M  V30 18432 H 1799.83 -0.0596065 0.661319 0
M  V30 18433 H 1802.36 0.446718 1.99664 0
M  V30 18434 H 1802.37 -1.02873 3.94818 0
M  V30 18435 H 1801.04 0.104422 4.15769 0
M  V30 18436 H 1799.62 -1.55753 3.38815 0
M  V30 18437 N 1801.8 -1.57568 0.0317802 0
M  V30 18438 C 1803.03 -1.9662 -0.659953 0
M  V30 18439 C 1803.45 -0.908334 -1.64715 0
M  V30 18440 O 1802.81 0.130491 -1.8083 0
M  V30 18441 C 1802.86 -3.34765 -1.34033 0
M  V30 18442 O 1801.96 -3.31317 -2.45566 0
M  V30 18443 H 1801.3 -0.641024 -0.17316 0
M  V30 18444 H 1803.83 -2.04382 0.0944231 0
M  V30 18445 H 1803.84 -3.71056 -1.69651 0
M  V30 18446 H 1802.52 -4.11302 -0.616716 0
M  V30 18447 H 1801.1 -3.06746 -2.1204 0
M  V30 18448 N 1803.28 0.241399 -1.5574 0
M  V30 18449 C 1804.21 1.30255 -1.93793 0
M  V30 18450 C 1805.19 1.49923 -0.803563 0
M  V30 18451 O 1806.38 1.62439 -1.06429 0
M  V30 18452 C 1803.51 2.65625 -2.23742 0
M  V30 18453 C 1802.46 2.60645 -3.39483 0
M  V30 18454 C 1801.79 3.99861 -3.54986 0
M  V30 18455 C 1803.09 2.17151 -4.75019 0
M  V30 18456 H 1804.78 0.986532 -2.8268 0
M  V30 18457 H 1802.33 0.473125 -1.36006 0
M  V30 18458 H 1804.28 3.40001 -2.48953 0
M  V30 18459 H 1803.01 2.98874 -1.31688 0
M  V30 18460 H 1801.66 1.88727 -3.14289 0
M  V30 18461 H 1801.31 4.30385 -2.60342 0
M  V30 18462 H 1801.01 3.97415 -4.32822 0
M  V30 18463 H 1802.54 4.75928 -3.82524 0
M  V30 18464 H 1803.95 2.8126 -4.99565 0
M  V30 18465 H 1802.35 2.25805 -5.55996 0
M  V30 18466 H 1803.42 1.12329 -4.7171 0
M  V30 18467 N 1804.76 1.49212 0.507292 0
M  V30 18468 C 1805.72 1.64908 1.59179 0
M  V30 18469 C 1806.72 0.521176 1.5212 0
M  V30 18470 O 1807.91 0.787492 1.55384 0
M  V30 18471 C 1805.05 1.64057 2.98828 0
M  V30 18472 H 1806.24 2.6163 1.46593 0
M  V30 18473 H 1803.79 1.38149 0.731062 0
M  V30 18474 H 1804.53 0.688956 3.16897 0
M  V30 18475 H 1804.31 2.45963 3.0536 0
M  V30 18476 H 1805.8 1.78279 3.77633 0
M  V30 18477 N 1806.24 -0.757876 1.38181 0
M  V30 18478 C 1807.17 -1.87937 1.29441 0
M  V30 18479 C 1808.15 -1.61685 0.172246 0
M  V30 18480 O 1809.33 -1.85244 0.348836 0
M  V30 18481 C 1806.46 -3.23459 1.00459 0
M  V30 18482 C 1805.51 -3.68604 2.14554 0
M  V30 18483 S 1806.34 -3.80645 3.76656 0
M  V30 18484 C 1807.5 -5.18993 3.49853 0
M  V30 18485 H 1807.73 -1.95064 2.2436 0
M  V30 18486 H 1805.26 -0.920415 1.23967 0
M  V30 18487 H 1807.22 -4.01725 0.844209 0
M  V30 18488 H 1805.88 -3.14016 0.0726505 0
M  V30 18489 H 1805.07 -4.66892 1.8981 0
M  V30 18490 H 1804.68 -2.97479 2.26677 0
M  V30 18491 H 1806.97 -6.0461 3.05701 0
M  V30 18492 H 1807.91 -5.48755 4.47519 0
M  V30 18493 H 1808.32 -4.87587 2.84463 0
M  V30 18494 N 1807.72 -1.22979 -0.985586 0
M  V30 18495 C 1808.65 -1.03073 -2.09519 0
M  V30 18496 C 1809.63 0.0507025 -1.70024 0
M  V30 18497 O 1810.81 -0.112938 -1.93871 0
M  V30 18498 C 1807.94 -0.615578 -3.41801 0
M  V30 18499 C 1806.9 -1.64377 -3.95176 0
M  V30 18500 C 1806.22 -1.08422 -5.23592 0
M  V30 18501 C 1807.52 -3.03555 -4.25032 0
M  V30 18502 H 1809.22 -1.95882 -2.2643 0
M  V30 18503 H 1806.76 -0.943206 -1.0881 0
M  V30 18504 H 1808.72 -0.463394 -4.18844 0
M  V30 18505 H 1807.44 0.348185 -3.24739 0
M  V30 18506 H 1806.1 -1.78386 -3.20272 0
M  V30 18507 H 1805.75 -0.111597 -5.02876 0
M  V30 18508 H 1805.45 -1.77118 -5.6027 0
M  V30 18509 H 1806.97 -0.94378 -6.03262 0
M  V30 18510 H 1808.38 -2.92878 -4.92844 0
M  V30 18511 H 1806.78 -3.69441 -4.72899 0
M  V30 18512 H 1807.85 -3.52937 -3.32511 0
M  V30 18513 N 1809.19 1.18355 -1.04066 0
M  V30 18514 C 1810.47 1.8419 -0.65828 0
M  V30 18515 C 1810.85 1.92688 0.862238 0
M  V30 18516 O 1810.2 1.4528 1.76369 0
M  V30 18517 C 1810.41 3.22495 -1.3341 0
M  V30 18518 C 1811.76 3.9853 -1.46489 0
M  V30 18519 O 1812.78 3.31934 -1.29221 0
M  V30 18520 O 1811.64 5.17848 -1.74629 0
M  V30 18521 H 1808.73 0.794278 -0.230329 0
M  V30 18522 H 1811.28 1.25747 -1.13955 0
M  V30 18523 H 1810.05 3.11213 -2.37197 0
M  V30 18524 H 1809.68 3.88594 -0.841449 0
M  V30 18525 N 1810.67 0.820125 1.3458 0
M  V30 18526 C 1811.6 0.254709 2.32107 0
M  V30 18527 C 1812.58 -0.6273 1.58111 0
M  V30 18528 O 1813.77 -0.554759 1.86108 0
M  V30 18529 C 1810.9 -0.586541 3.42311 0
M  V30 18530 C 1809.85 0.198096 4.27541 0
M  V30 18531 C 1809.18 -0.765718 5.29189 0
M  V30 18532 C 1810.48 1.40472 5.03056 0
M  V30 18533 H 1812.17 1.06955 2.79644 0
M  V30 18534 H 1809.72 0.515756 1.34447 0
M  V30 18535 H 1811.67 -0.992259 4.09551 0
M  V30 18536 H 1810.4 -1.4344 2.93415 0
M  V30 18537 H 1809.05 0.585149 3.619 0
M  V30 18538 H 1808.7 -1.60946 4.76556 0
M  V30 18539 H 1808.4 -0.244954 5.87089 0
M  V30 18540 H 1809.93 -1.16935 5.99298 0
M  V30 18541 H 1811.34 1.07316 5.63166 0
M  V30 18542 H 1809.74 1.86092 5.70517 0
M  V30 18543 H 1810.81 2.18437 4.32913 0
M  V30 18544 N 1812.15 -1.46743 0.574835 0
M  V30 18545 C 1813.08 -2.33012 -0.150836 0
M  V30 18546 C 1814.06 -1.44868 -0.891472 0
M  V30 18547 O 1815.25 -1.73698 -0.868481 0
M  V30 18548 C 1812.38 -3.26995 -1.17012 0
M  V30 18549 C 1811.33 -4.24518 -0.544829 0
M  V30 18550 C 1810.66 -5.07951 -1.67002 0
M  V30 18551 C 1811.96 -5.19776 0.512891 0
M  V30 18552 H 1813.65 -2.93935 0.569433 0
M  V30 18553 H 1811.2 -1.41344 0.275289 0
M  V30 18554 H 1813.15 -3.86198 -1.68609 0
M  V30 18555 H 1811.87 -2.64163 -1.92056 0
M  V30 18556 H 1810.53 -3.66566 -0.0500133 0
M  V30 18557 H 1810.18 -4.4151 -2.40993 0
M  V30 18558 H 1809.88 -5.73991 -1.25732 0
M  V30 18559 H 1811.4 -5.70017 -2.1889 0
M  V30 18560 H 1812.82 -5.73241 0.0823064 0
M  V30 18561 H 1811.22 -5.94114 0.845462 0
M  V30 18562 H 1812.29 -4.64184 1.40217 0
M  V30 18563 N 1813.63 -0.312197 -1.54477 0
M  V30 18564 C 1814.58 0.574207 -2.20651 0
M  V30 18565 C 1815.56 1.09037 -1.18321 0
M  V30 18566 O 1816.75 1.02928 -1.43996 0
M  V30 18567 C 1813.88 1.74019 -2.95926 0
M  V30 18568 C 1812.97 1.23946 -4.05584 0
M  V30 18569 N 1813.36 0.457561 -5.03726 0
M  V30 18570 C 1811.66 1.51921 -4.19328 0
M  V30 18571 C 1812.36 0.189523 -5.81391 0
M  V30 18572 N 1811.34 0.772477 -5.38083 0
M  V30 18573 H 1815.14 -0.0306045 -2.93884 0
M  V30 18574 H 1812.65 -0.117497 -1.61974 0
M  V30 18575 H 1814.65 2.38687 -3.4181 0
M  V30 18576 H 1813.31 2.34859 -2.24212 0
M  V30 18577 H 1814.32 0.101432 -5.17801 0
M  V30 18578 H 1811 2.13428 -3.58824 0
M  V30 18579 H 1812.39 -0.439199 -6.70463 0
M  V30 18580 N 1815.11 1.57549 -0.040136 0
M  V30 18581 C 1816.35 1.92535 0.637037 0
M  V30 18582 C 1816.69 0.917836 1.71141 0
M  V30 18583 O 1815.96 -0.057824 1.94414 0
M  V30 18584 C 1816.24 3.37955 1.24333 0
M  V30 18585 C 1816.1 4.49449 0.177761 0
M  V30 18586 C 1817.42 3.8355 2.15818 0
M  V30 18587 H 1814.53 0.700157 0.230107 0
M  V30 18588 H 1817.18 1.89739 -0.0996468 0
M  V30 18589 H 1815.33 3.40468 1.87119 0
M  V30 18590 H 1817 4.59065 -0.453507 0
M  V30 18591 H 1815.24 4.30961 -0.495486 0
M  V30 18592 H 1815.91 5.48256 0.641792 0
M  V30 18593 H 1818.39 3.82842 1.63006 0
M  V30 18594 H 1817.26 4.85974 2.55188 0
M  V30 18595 H 1817.53 3.19678 3.05382 0
M  V30 18596 N 1816.58 -0.233136 1.55866 0
M  V30 18597 C 1817.55 -1.27227 1.90646 0
M  V30 18598 C 1818.55 -1.4039 0.784038 0
M  V30 18599 O 1819.74 -1.38854 1.05191 0
M  V30 18600 C 1816.87 -2.64791 2.14706 0
M  V30 18601 H 1818.06 -0.975986 2.83575 0
M  V30 18602 H 1815.62 -0.473045 1.4897 0
M  V30 18603 H 1816.35 -2.99537 1.24291 0
M  V30 18604 H 1816.14 -2.56615 2.96464 0
M  V30 18605 H 1817.63 -3.39797 2.4275 0
M  V30 18606 N 1818.06 -1.49479 -0.499372 0
M  V30 18607 C 1819.48 -1.36278 -0.830692 0
M  V30 18608 C 1819.68 -0.397116 -1.97548 0
M  V30 18609 O 1818.74 0.170614 -2.51923 0
M  V30 18610 C 1820.05 -2.77031 -1.16937 0
M  V30 18611 C 1821.6 -2.85744 -1.27748 0
M  V30 18612 C 1822.07 -4.27267 -1.64944 0
M  V30 18613 N 1823.56 -4.30086 -1.7199 0
M  V30 18614 C 1824.3 -5.36559 -2.02218 0
M  V30 18615 N 1823.79 -6.53275 -2.30659 0
M  V30 18616 N 1825.59 -5.23976 -2.03483 0
M  V30 18617 H 1817.74 -2.10858 0.255497 0
M  V30 18618 H 1820 -0.946588 0.0517184 0
M  V30 18619 H 1819.71 -3.494 -0.401529 0
M  V30 18620 H 1819.58 -3.12501 -2.11242 0
M  V30 18621 H 1821.97 -2.13611 -2.03604 0
M  V30 18622 H 1822.05 -2.53854 -0.314901 0
M  V30 18623 H 1821.69 -4.99927 -0.896384 0
M  V30 18624 H 1821.62 -4.56622 -2.62305 0
M  V30 18625 H 1824.11 -3.45911 -1.52164 0
M  V30 18626 H 1824.43 -7.30241 -2.52918 0
M  V30 18627 H 1822.77 -6.56498 -2.28112 0
M  V30 18628 H 1825.96 -4.31799 -1.80741 0
M  V30 18629 H 1826.14 -6.07049 -2.26707 0
M  V30 18630 N 1819.54 0.750537 -1.38581 0
M  V30 18631 C 1820.82 1.50051 -1.25475 0
M  V30 18632 C 1821.2 2.10618 0.142521 0
M  V30 18633 O 1820.55 1.97317 1.15231 0
M  V30 18634 C 1820.76 2.56443 -2.36724 0
M  V30 18635 C 1822.1 3.23261 -2.75296 0
M  V30 18636 O 1823.13 2.66749 -2.36058 0
M  V30 18637 O 1821.99 4.25481 -3.4297 0
M  V30 18638 H 1819.08 0.665581 -0.490847 0
M  V30 18639 H 1821.63 0.785688 -1.50416 0
M  V30 18640 H 1820.4 2.09958 -3.30202 0
M  V30 18641 H 1820.02 3.35503 -2.13363 0
M  V30 18642 N 1821.02 1.235 0.979051 0
M  V30 18643 C 1822.27 1.06197 1.71479 0
M  V30 18644 C 1822.58 -0.401066 1.91444 0
M  V30 18645 O 1823.79 -0.69406 2.62479 0
M  V30 18646 C 1822.24 1.85189 3.08598 0
M  V30 18647 C 1821.85 3.35831 2.96516 0
M  V30 18648 C 1823.6 1.76379 3.86122 0
M  V30 18649 C 1821.5 4.0721 4.28875 0
M  V30 18650 H 1820.43 0.393779 0.643004 0
M  V30 18651 H 1823.08 1.47479 1.09188 0
M  V30 18652 H 1821.47 1.36714 3.71652 0
M  V30 18653 H 1822.64 3.91803 2.42543 0
M  V30 18654 H 1820.95 3.45469 2.32466 0
M  V30 18655 H 1823.55 2.2702 4.84114 0
M  V30 18656 H 1823.89 0.726826 4.09906 0
M  V30 18657 H 1824.43 2.22473 3.29773 0
M  V30 18658 H 1821.17 5.11218 4.10288 0
M  V30 18659 H 1820.69 3.56025 4.82707 0
M  V30 18660 H 1822.37 4.13579 4.97555 0
M  V30 18661 N 1822.5 -1.17802 1.04693 0
M  V30 18662 C 1823.46 -2.19854 0.647816 0
M  V30 18663 C 1824.46 -1.58013 -0.298081 0
M  V30 18664 O 1825.65 -1.74004 -0.0826309 0
M  V30 18665 C 1822.78 -3.40864 -0.0492661 0
M  V30 18666 H 1823.98 -2.56678 1.55101 0
M  V30 18667 H 1821.53 -1.31796 0.840215 0
M  V30 18668 H 1822.26 -3.0958 -0.965967 0
M  V30 18669 H 1822.05 -3.86995 0.630677 0
M  V30 18670 H 1823.54 -4.16412 -0.31479 0
M  V30 18671 N 1823.98 -0.827251 -1.34143 0
M  V30 18672 C 1825.22 -0.423301 -1.99969 0
M  V30 18673 C 1825.58 0.996013 -1.64145 0
M  V30 18674 O 1826.78 1.50307 -2.22848 0
M  V30 18675 C 1825.05 -0.624388 -3.51904 0
M  V30 18676 S 1826.61 -0.31393 -4.37676 0
M  V30 18677 H 1823.43 -0.15974 -0.692823 0
M  V30 18678 H 1826.03 -1.07401 -1.63356 0
M  V30 18679 H 1824.73 -1.65696 -3.75464 0
M  V30 18680 H 1824.27 0.040897 -3.93379 0
M  V30 18681 H 1826.28 0.870745 -4.885 0
M  V30 18682 N 1825.45 1.46436 -0.582609 0
M  V30 18683 C 1826.7 2.01986 -0.0680147 0
M  V30 18684 C 1827.02 1.45654 1.29653 0
M  V30 18685 O 1826.29 0.641203 1.85109 0
M  V30 18686 H 1824.87 0.746671 -0.022153 0
M  V30 18687 H 1827.53 1.79541 -0.758367 0
M  V30 18688 H 1826.63 3.121 0.00106001 0
M  V30 18689 N 1826.93 0.320385 1.54309 0
M  V30 18690 C 1828.17 -0.283775 2.02421 0
M  V30 18691 C 1828.54 -1.49594 1.20357 0
M  V30 18692 O 1829.74 -2.17275 1.58256 0
M  V30 18693 C 1828.01 -0.612699 3.52109 0
M  V30 18694 S 1829.57 -1.19697 4.22159 0
M  V30 18695 H 1826.38 -0.0860212 0.705777 0
M  V30 18696 H 1828.99 0.452768 1.90185 0
M  V30 18697 H 1827.69 0.277697 4.09459 0
M  V30 18698 H 1827.22 -1.37952 3.68419 0
M  V30 18699 H 1829.24 -2.48394 4.29552 0
M  V30 18700 N 1828.41 -1.57525 0.0484906 0
M  V30 18701 C 1829.34 -2.08313 -0.955941 0
M  V30 18702 C 1830.35 -1.01042 -1.2765 0
M  V30 18703 O 1831.54 -1.28615 -1.23776 0
M  V30 18704 C 1828.64 -2.509 -2.27821 0
M  V30 18705 C 1827.82 -3.81476 -2.13997 0
M  V30 18706 C 1826.88 -4.10404 -3.29325 0
M  V30 18707 O 1825.9 -4.80366 -3.05348 0
M  V30 18708 N 1827.1 -3.62104 -4.53719 0
M  V30 18709 H 1829.87 -2.95111 -0.522472 0
M  V30 18710 H 1827.43 -1.61312 -0.137816 0
M  V30 18711 H 1829.42 -2.6733 -3.03837 0
M  V30 18712 H 1827.99 -1.69365 -2.62744 0
M  V30 18713 H 1827.21 -3.74654 -1.22589 0
M  V30 18714 H 1828.5 -4.6699 -2.01985 0
M  V30 18715 H 1827.9 -3.05541 -4.7609 0
M  V30 18716 H 1826.45 -3.83778 -5.26838 0
M  V30 18717 N 1829.89 0.224867 -1.55988 0
M  V30 18718 C 1831.12 0.965325 -1.82661 0
M  V30 18719 C 1831.53 1.78581 -0.624935 0
M  V30 18720 O 1830.87 1.7893 0.415886 0
M  V30 18721 C 1830.93 1.93444 -3.03018 0
M  V30 18722 C 1830.59 1.29879 -4.38156 0
M  V30 18723 C 1831.59 0.69031 -5.15297 0
M  V30 18724 C 1829.28 1.31155 -4.84875 0
M  V30 18725 C 1831.27 0.103067 -6.37317 0
M  V30 18726 C 1828.96 0.720461 -6.06838 0
M  V30 18727 C 1829.96 0.11727 -6.82899 0
M  V30 18728 O 1829.64 -0.464631 -8.02556 0
M  V30 18729 H 1829.38 0.288651 -0.611275 0
M  V30 18730 H 1831.93 0.246237 -2.03919 0
M  V30 18731 H 1830.16 2.69243 -2.7757 0
M  V30 18732 H 1831.85 2.54017 -3.16592 0
M  V30 18733 H 1832.61 0.672801 -4.80311 0
M  V30 18734 H 1828.49 1.77044 -4.25648 0
M  V30 18735 H 1832.04 -0.368366 -6.96627 0
M  V30 18736 H 1827.93 0.735372 -6.41298 0
M  V30 18737 H 1828.7 -0.358628 -8.17714 0
M  V30 18738 N 1831.37 1.49742 0.491438 0
M  V30 18739 C 1832.3 1.70033 1.60034 0
M  V30 18740 C 1833.28 0.549076 1.60994 0
M  V30 18741 O 1834.46 0.785983 1.77584 0
M  V30 18742 C 1831.59 1.7757 2.98473 0
M  V30 18743 C 1830.55 2.9258 3.12379 0
M  V30 18744 C 1829.87 2.85239 4.52264 0
M  V30 18745 C 1831.17 4.33385 2.91504 0
M  V30 18746 H 1832.87 2.62875 1.43307 0
M  V30 18747 H 1830.41 1.26502 0.687989 0
M  V30 18748 H 1832.36 1.90351 3.75958 0
M  V30 18749 H 1831.09 0.813343 3.1631 0
M  V30 18750 H 1829.75 2.79417 2.37322 0
M  V30 18751 H 1829.4 1.86892 4.66991 0
M  V30 18752 H 1829.1 3.62437 4.62508 0
M  V30 18753 H 1830.62 3.00041 5.31797 0
M  V30 18754 H 1832.03 4.4718 3.58752 0
M  V30 18755 H 1830.43 5.11878 3.13211 0
M  V30 18756 H 1831.5 4.47166 1.87539 0
M  V30 18757 N 1832.84 -0.743177 1.38977 0
M  V30 18758 C 1833.75 -1.88767 1.39299 0
M  V30 18759 C 1834.77 -1.71587 0.288782 0
M  V30 18760 O 1835.95 -1.94331 0.52892 0
M  V30 18761 C 1833.01 -3.24263 1.22697 0
M  V30 18762 C 1832.07 -3.53895 2.43017 0
M  V30 18763 C 1831.31 -4.82925 2.27198 0
M  V30 18764 O 1831.53 -5.56056 1.27114 0
M  V30 18765 O 1830.46 -5.12271 3.16009 0
M  V30 18766 H 1834.29 -1.9145 2.35755 0
M  V30 18767 H 1831.87 -0.889881 1.20006 0
M  V30 18768 H 1833.76 -4.05251 1.1554 0
M  V30 18769 H 1832.43 -3.22368 0.293317 0
M  V30 18770 H 1831.34 -2.73026 2.5575 0
M  V30 18771 H 1832.67 -3.6056 3.35048 0
M  V30 18772 N 1834.32 -1.24018 -0.972487 0
M  V30 18773 C 1835.23 -1.04527 -2.10027 0
M  V30 18774 C 1836.25 0.0125372 -1.73995 0
M  V30 18775 O 1837.42 -0.184615 -2.00552 0
M  V30 18776 C 1834.49 -0.647264 -3.40604 0
M  V30 18777 C 1833.55 -1.78102 -3.90613 0
M  V30 18778 C 1832.78 -1.4019 -5.14959 0
M  V30 18779 O 1833.01 -0.289608 -5.69664 0
M  V30 18780 O 1831.94 -2.22583 -5.59232 0
M  V30 18781 H 1835.77 -1.99064 -2.29363 0
M  V30 18782 H 1833.35 -1.02794 -1.08414 0
M  V30 18783 H 1835.23 -0.436606 -4.19132 0
M  V30 18784 H 1833.91 0.269025 -3.2258 0
M  V30 18785 H 1832.82 -2.04638 -3.13168 0
M  V30 18786 H 1834.15 -2.67591 -4.13105 0
M  V30 18787 N 1835.8 1.17245 -1.05316 0
M  V30 18788 C 1836.75 2.23357 -0.649174 0
M  V30 18789 C 1837.74 1.66152 0.33015 0
M  V30 18790 O 1838.95 1.78929 0.196078 0
M  V30 18791 H 1835.32 0.727139 -0.191762 0
M  V30 18792 H 1837.29 2.54728 -1.55423 0
M  V30 18793 C 1836.04 3.47676 -0.0412049 0
M  V30 18794 H 1835.37 3.92 -0.785858 0
M  V30 18795 H 1836.81 4.23509 0.204073 0
M  V30 18796 C 1835.27 3.14326 1.21247 0
M  V30 18797 O 1835.8 3.29218 2.3017 0
M  V30 18798 N 1834 2.68541 1.1106 0
M  V30 18799 H 1833.55 2.56622 0.224212 0
M  V30 18800 H 1833.51 2.466 1.95028 0
M  V30 18801 N 1837.28 0.834353 1.33702 0
M  V30 18802 C 1838.23 0.236483 2.2677 0
M  V30 18803 C 1839.21 -0.605904 1.49056 0
M  V30 18804 O 1840.4 -0.458611 1.70955 0
M  V30 18805 C 1837.53 -0.591264 3.3817 0
M  V30 18806 C 1836.62 0.262381 4.23288 0
M  V30 18807 N 1837.01 1.33892 4.87757 0
M  V30 18808 C 1835.31 0.0486456 4.45973 0
M  V30 18809 C 1836.01 1.86242 5.5108 0
M  V30 18810 N 1834.99 1.16457 5.30979 0
M  V30 18811 H 1838.79 1.05979 2.74127 0
M  V30 18812 H 1836.3 0.678337 1.47555 0
M  V30 18813 H 1838.3 -1.03584 4.03827 0
M  V30 18814 H 1836.96 -1.4126 2.92362 0
M  V30 18815 H 1837.97 1.72179 4.88441 0
M  V30 18816 H 1834.65 -0.739613 4.10897 0
M  V30 18817 H 1836.04 2.76369 6.12429 0
M  V30 18818 N 1838.76 -1.46125 0.590367 0
M  V30 18819 C 1840 -2.02346 0.0788814 0
M  V30 18820 C 1840.33 -1.46093 -1.28402 0
M  V30 18821 O 1839.59 -0.618875 -1.85657 0
M  V30 18822 C 1839.89 -3.57388 -0.0287217 0
M  V30 18823 C 1839.55 -4.32716 1.26758 0
M  V30 18824 C 1838.21 -4.53014 1.62271 0
M  V30 18825 C 1840.57 -4.7591 2.12507 0
M  V30 18826 C 1837.89 -5.13759 2.83318 0
M  V30 18827 C 1840.25 -5.37992 3.32787 0
M  V30 18828 C 1838.91 -5.56516 3.68573 0
M  V30 18829 H 1838.18 -0.740438 0.0288647 0
M  V30 18830 H 1840.83 -1.75402 0.768538 0
M  V30 18831 H 1839.13 -3.83513 -0.801551 0
M  V30 18832 H 1840.83 -3.98575 -0.440356 0
M  V30 18833 H 1837.42 -4.17219 0.981133 0
M  V30 18834 H 1841.6 -4.59977 1.86373 0
M  V30 18835 H 1836.86 -5.26291 3.11172 0
M  V30 18836 H 1841.03 -5.70418 3.99495 0
M  V30 18837 H 1838.66 -6.03355 4.62458 0
M  V30 18838 N 1840.23 -0.328564 -1.54137 0
M  V30 18839 C 1841.48 0.273427 -1.99838 0
M  V30 18840 C 1841.8 1.52851 -1.22049 0
M  V30 18841 O 1843 2.20681 -1.58152 0
M  V30 18842 C 1841.46 0.537757 -3.5586 0
M  V30 18843 C 1841.07 -0.700562 -4.42489 0
M  V30 18844 C 1842.81 1.09943 -4.10016 0
M  V30 18845 C 1840.72 -0.40786 -5.89992 0
M  V30 18846 H 1839.65 0.105947 -0.746519 0
M  V30 18847 H 1842.3 -0.441565 -1.78108 0
M  V30 18848 H 1840.68 1.31307 -3.73597 0
M  V30 18849 H 1841.85 -1.47583 -4.36527 0
M  V30 18850 H 1840.17 -1.1828 -3.99248 0
M  V30 18851 H 1842.77 1.33312 -5.17815 0
M  V30 18852 H 1843.11 2.05035 -3.62307 0
M  V30 18853 H 1843.64 0.385182 -3.95931 0
M  V30 18854 H 1840.38 -1.32809 -6.41905 0
M  V30 18855 H 1839.9 0.329604 -5.98894 0
M  V30 18856 H 1841.58 -0.0195391 -6.46997 0
M  V30 18857 N 1841.71 1.57497 -0.0568439 0
M  V30 18858 C 1842.66 2.08377 0.925369 0
M  V30 18859 C 1843.65 0.990152 1.26826 0
M  V30 18860 O 1844.84 1.25342 1.24973 0
M  V30 18861 C 1841.97 2.6369 2.19824 0
M  V30 18862 C 1841.05 3.8003 1.88249 0
M  V30 18863 N 1841.44 4.89581 1.27059 0
M  V30 18864 C 1839.74 3.89043 2.18087 0
M  V30 18865 C 1840.44 5.70571 1.13241 0
M  V30 18866 N 1839.42 5.1836 1.63718 0
M  V30 18867 H 1843.22 2.9047 0.447693 0
M  V30 18868 H 1840.74 1.61729 0.147457 0
M  V30 18869 H 1842.73 2.98447 2.91093 0
M  V30 18870 H 1841.39 1.83037 2.68193 0
M  V30 18871 H 1842.4 5.09259 0.942087 0
M  V30 18872 H 1839.08 3.19342 2.68937 0
M  V30 18873 H 1840.47 6.68681 0.656898 0
M  V30 18874 N 1843.19 -0.216591 1.56105 0
M  V30 18875 C 1844.61 -0.56651 1.49207 0
M  V30 18876 C 1844.81 -1.86906 0.752882 0
M  V30 18877 O 1843.86 -2.50776 0.294573 0
M  V30 18878 C 1845.18 -0.641146 2.93785 0
M  V30 18879 C 1846.72 -0.731439 3.04334 0
M  V30 18880 C 1847.2 -0.837376 4.5028 0
M  V30 18881 N 1848.69 -0.901468 4.54343 0
M  V30 18882 C 1849.42 -1.00323 5.64555 0
M  V30 18883 N 1848.92 -1.06864 6.84509 0
M  V30 18884 N 1850.71 -1.03876 5.52419 0
M  V30 18885 H 1842.86 0.638091 2.02589 0
M  V30 18886 H 1845.13 0.224543 0.921024 0
M  V30 18887 H 1844.83 0.246454 3.50835 0
M  V30 18888 H 1844.71 -1.5031 3.45958 0
M  V30 18889 H 1847.09 -1.60948 2.47346 0
M  V30 18890 H 1847.18 0.15628 2.55322 0
M  V30 18891 H 1846.82 0.0362262 5.07887 0
M  V30 18892 H 1846.75 -1.74058 4.97002 0
M  V30 18893 H 1849.24 -0.861039 3.6796 0
M  V30 18894 H 1849.55 -1.1462 7.64253 0
M  V30 18895 H 1847.9 -1.03768 6.8721 0
M  V30 18896 H 1851.09 -0.984348 4.57633 0
M  V30 18897 H 1851.26 -1.11461 6.38342 0
M  V30 18898 N 1844.67 -1.5 -0.48349 0
M  V30 18899 C 1845.95 -1.50879 -1.24478 0
M  V30 18900 C 1846.33 -0.246393 -2.09657 0
M  V30 18901 O 1845.67 0.77066 -2.15112 0
M  V30 18902 C 1845.88 -2.79762 -2.08648 0
M  V30 18903 C 1847.23 -3.29941 -2.67253 0
M  V30 18904 O 1848.26 -2.80999 -2.18901 0
M  V30 18905 O 1847.11 -4.15224 -3.55319 0
M  V30 18906 H 1844.21 -0.604649 -0.564206 0
M  V30 18907 H 1846.75 -1.6228 -0.496325 0
M  V30 18908 H 1845.53 -3.63123 -1.45799 0
M  V30 18909 H 1845.15 -2.71306 -2.90652 0
M  V30 18910 N 1846.15 0.735796 -1.39369 0
M  V30 18911 C 1847.4 1.49079 -1.35861 0
M  V30 18912 C 1847.71 1.95553 0.0429472 0
M  V30 18913 O 1848.91 2.70758 0.200614 0
M  V30 18914 C 1847.37 2.69375 -2.38674 0
M  V30 18915 C 1846.98 2.29854 -3.8454 0
M  V30 18916 C 1848.72 3.47199 -2.44239 0
M  V30 18917 C 1846.63 3.46868 -4.78996 0
M  V30 18918 H 1845.56 0.559825 -0.505086 0
M  V30 18919 H 1848.21 0.80271 -1.65012 0
M  V30 18920 H 1846.59 3.40253 -2.02592 0
M  V30 18921 H 1847.77 1.66527 -4.29657 0
M  V30 18922 H 1846.08 1.65123 -3.82261 0
M  V30 18923 H 1848.68 4.34234 -3.12002 0
M  V30 18924 H 1849.02 3.89608 -1.46668 0
M  V30 18925 H 1849.55 2.83349 -2.7921 0
M  V30 18926 H 1846.29 3.0951 -5.77827 0
M  V30 18927 H 1845.81 4.09178 -4.38558 0
M  V30 18928 H 1847.49 4.13213 -4.9786 0
M  V30 18929 N 1847.63 1.24532 0.965897 0
M  V30 18930 C 1848.59 1.04026 2.04233 0
M  V30 18931 C 1849.59 -0.00305855 1.608 0
M  V30 18932 O 1850.78 0.238077 1.72565 0
M  V30 18933 C 1847.91 0.577072 3.3598 0
M  V30 18934 H 1849.1 1.99569 2.23858 0
M  V30 18935 H 1846.66 1.0678 1.14139 0
M  V30 18936 H 1847.39 -0.381471 3.22049 0
M  V30 18937 H 1847.18 1.33012 3.6885 0
M  V30 18938 H 1848.67 0.45469 4.15117 0
M  V30 18939 N 1849.1 -1.16685 1.05936 0
M  V30 18940 C 1850.07 -2.19155 0.671098 0
M  V30 18941 C 1851.07 -1.5832 -0.281305 0
M  V30 18942 O 1852.26 -1.74082 -0.0641708 0
M  V30 18943 C 1849.39 -3.40897 -0.0131101 0
M  V30 18944 H 1850.58 -2.55019 1.57815 0
M  V30 18945 H 1848.13 -1.30897 0.854147 0
M  V30 18946 H 1848.87 -3.10587 -0.933077 0
M  V30 18947 H 1848.65 -3.86304 0.671687 0
M  V30 18948 H 1850.14 -4.16722 -0.270606 0
M  V30 18949 N 1850.58 -0.841432 -1.33258 0
M  V30 18950 C 1852 -0.529552 -1.50559 0
M  V30 18951 C 1852.2 0.942598 -1.78094 0
M  V30 18952 O 1851.25 1.72628 -1.84271 0
M  V30 18953 C 1852.57 -1.40511 -2.65852 0
M  V30 18954 C 1854.11 -1.40415 -2.79737 0
M  V30 18955 C 1854.59 -2.26462 -3.98094 0
M  V30 18956 N 1856.08 -2.24185 -4.05334 0
M  V30 18957 C 1856.82 -2.875 -4.96116 0
M  V30 18958 N 1856.31 -3.59877 -5.91997 0
M  V30 18959 N 1858.1 -2.76957 -4.89133 0
M  V30 18960 H 1850.26 -1.79438 -1.13648 0
M  V30 18961 H 1852.52 -0.765683 -0.558958 0
M  V30 18962 H 1852.22 -2.45136 -2.52193 0
M  V30 18963 H 1852.1 -1.08299 -3.61319 0
M  V30 18964 H 1854.49 -0.365604 -2.92826 0
M  V30 18965 H 1854.57 -1.76636 -1.85023 0
M  V30 18966 H 1854.21 -3.30377 -3.85764 0
M  V30 18967 H 1854.14 -1.87581 -4.92058 0
M  V30 18968 H 1856.63 -1.71553 -3.36716 0
M  V30 18969 H 1856.94 -4.05388 -6.57936 0
M  V30 18970 H 1855.29 -3.63985 -5.92064 0
M  V30 18971 H 1858.48 -2.19974 -4.13194 0
M  V30 18972 H 1858.65 -3.26585 -5.59684 0
M  V30 18973 N 1852.06 1.4581 -0.598108 0
M  V30 18974 C 1853.01 2.32185 0.138857 0
M  V30 18975 C 1854 1.45406 0.869105 0
M  V30 18976 O 1855.21 1.61945 0.785746 0
M  V30 18977 H 1851.58 0.749302 0.0636431 0
M  V30 18978 H 1853.55 2.92136 -0.608224 0
M  V30 18979 C 1852.3 3.28856 1.12911 0
M  V30 18980 H 1851.63 3.9562 0.576625 0
M  V30 18981 H 1853.07 3.92043 1.61487 0
M  V30 18982 C 1851.52 2.55331 2.1979 0
M  V30 18983 O 1852.05 2.32768 3.27386 0
M  V30 18984 N 1850.26 2.15628 1.94815 0
M  V30 18985 H 1849.81 2.34178 1.07323 0
M  V30 18986 H 1849.77 1.66755 2.66533 0
M  V30 18987 N 1853.54 0.336733 1.53961 0
M  V30 18988 C 1854.78 -0.26229 2.0271 0
M  V30 18989 C 1855.14 -1.48309 1.21936 0
M  V30 18990 O 1856.34 -2.15584 1.60552 0
M  V30 18991 C 1854.61 -0.575319 3.52739 0
M  V30 18992 S 1856.17 -1.15212 4.23405 0
M  V30 18993 H 1852.99 -0.0785306 0.70665 0
M  V30 18994 H 1855.59 0.472914 1.89694 0
M  V30 18995 H 1854.3 0.32111 4.09142 0
M  V30 18996 H 1853.83 -1.34037 3.69862 0
M  V30 18997 H 1855.84 -2.43824 4.32162 0
M  V30 18998 N 1855.02 -1.57465 0.0651956 0
M  V30 18999 C 1855.95 -2.15374 -0.902018 0
M  V30 19000 C 1856.93 -1.07904 -1.31494 0
M  V30 19001 O 1858.11 -1.35909 -1.38717 0
M  V30 19002 C 1855.24 -2.71005 -2.17195 0
M  V30 19003 C 1854.2 -3.83583 -1.89864 0
M  V30 19004 C 1853.52 -4.25789 -3.23432 0
M  V30 19005 C 1854.82 -5.08112 -1.20913 0
M  V30 19006 H 1856.52 -2.96445 -0.419631 0
M  V30 19007 H 1854.06 -1.42599 -0.200401 0
M  V30 19008 H 1856.01 -3.1016 -2.8527 0
M  V30 19009 H 1854.74 -1.87146 -2.67664 0
M  V30 19010 H 1853.4 -3.44921 -1.24197 0
M  V30 19011 H 1853.05 -3.38861 -3.71729 0
M  V30 19012 H 1852.75 -5.01673 -3.05938 0
M  V30 19013 H 1854.27 -4.67555 -3.92715 0
M  V30 19014 H 1855.68 -5.44624 -1.79046 0
M  V30 19015 H 1854.08 -5.8923 -1.137 0
M  V30 19016 H 1855.15 -4.84538 -0.187224 0
M  V30 19017 N 1856.49 0.20831 -1.56217 0
M  V30 19018 C 1857.42 1.26115 -1.96513 0
M  V30 19019 C 1858.4 1.48185 -0.835183 0
M  V30 19020 O 1859.59 1.60145 -1.09851 0
M  V30 19021 C 1856.72 2.6082 -2.29326 0
M  V30 19022 C 1855.67 2.53385 -3.44935 0
M  V30 19023 C 1855 3.92241 -3.63388 0
M  V30 19024 C 1856.3 2.07026 -4.79518 0
M  V30 19025 H 1857.99 0.92635 -2.84709 0
M  V30 19026 H 1855.54 0.444169 -1.36979 0
M  V30 19027 H 1857.49 3.34644 -2.56109 0
M  V30 19028 H 1856.22 2.96014 -1.37997 0
M  V30 19029 H 1854.88 1.82018 -3.18222 0
M  V30 19030 H 1854.52 4.24766 -2.69413 0
M  V30 19031 H 1854.22 3.88145 -4.41154 0
M  V30 19032 H 1855.75 4.67707 -3.92533 0
M  V30 19033 H 1857.16 2.70601 -5.05419 0
M  V30 19034 H 1855.56 2.13961 -5.60661 0
M  V30 19035 H 1856.63 1.02298 -4.73986 0
M  V30 19036 N 1857.97 1.50255 0.475528 0
M  V30 19037 C 1859.2 1.64771 1.25132 0
M  V30 19038 C 1859.61 0.329253 1.85907 0
M  V30 19039 O 1858.97 -0.688289 1.69023 0
M  V30 19040 C 1859.02 2.73556 2.36325 0
M  V30 19041 O 1858.74 4.0029 1.78043 0
M  V30 19042 C 1860.24 2.99006 3.27277 0
M  V30 19043 H 1857.46 0.553987 0.378602 0
M  V30 19044 H 1860.01 1.9645 0.56811 0
M  V30 19045 H 1858.16 2.44584 3.00429 0
M  V30 19046 H 1858.58 4.60416 2.51232 0
M  V30 19047 H 1860.05 3.78797 4.01518 0
M  V30 19048 H 1860.53 2.09904 3.85794 0
M  V30 19049 H 1861.13 3.29493 2.68914 0
M  V30 19050 N 1859.45 -0.728395 1.39758 0
M  V30 19051 C 1860.69 -1.50065 1.38779 0
M  V30 19052 C 1861.05 -1.91994 -0.0146977 0
M  V30 19053 O 1862.25 -2.68384 -0.149524 0
M  V30 19054 C 1860.53 -2.70258 2.33871 0
M  V30 19055 S 1862.08 -3.59826 2.51139 0
M  V30 19056 H 1858.9 -0.513225 0.492058 0
M  V30 19057 H 1861.5 -0.852912 1.75914 0
M  V30 19058 H 1860.21 -2.37605 3.34622 0
M  V30 19059 H 1859.74 -3.39955 1.97975 0
M  V30 19060 H 1861.75 -4.64157 1.75423 0
M  V30 19061 N 1860.93 -1.25042 -0.959279 0
M  V30 19062 C 1862.34 -1.08692 -1.51799 0
M  V30 19063 C 1862.69 0.338893 -1.93251 0
M  V30 19064 O 1861.81 1.22831 -1.78162 0
M  V30 19065 C 1862.41 -1.9669 -2.7586 0
M  V30 19066 C 1860.97 -1.84538 -3.28059 0
M  V30 19067 C 1860.12 -1.91119 -2.0092 0
M  V30 19068 H 1863.07 -1.38396 -0.776669 0
M  V30 19069 H 1863.09 -1.50414 -3.49508 0
M  V30 19070 H 1862.6 -3.00455 -2.45659 0
M  V30 19071 H 1860.7 -0.836383 -3.63091 0
M  V30 19072 H 1860.81 -2.69095 -3.96389 0
M  V30 19073 H 1859.18 -1.34948 -2.16012 0
M  V30 19074 H 1859.96 -2.9648 -1.73074 0
M  V30 19075 N 1862.41 1.16121 -1.06553 0
M  V30 19076 C 1863.65 1.86346 -0.782279 0
M  V30 19077 C 1863.98 1.82255 0.693395 0
M  V30 19078 O 1863.25 1.2579 1.50179 0
M  V30 19079 H 1861.83 0.689921 -0.286388 0
M  V30 19080 H 1864.49 1.40805 -1.34758 0
M  V30 19081 H 1863.58 2.91712 -1.10954 0
M  V30 19082 N 1863.88 0.848487 1.3281 0
M  V30 19083 C 1865.3 0.504307 1.7976 0
M  V30 19084 C 1865.65 -0.977408 1.70121 0
M  V30 19085 O 1864.77 -1.7621 1.25614 0
M  V30 19086 C 1865.37 0.908628 3.26388 0
M  V30 19087 C 1863.93 0.616441 3.71318 0
M  V30 19088 C 1863.07 1.11173 2.54039 0
M  V30 19089 H 1866.02 1.03628 1.20195 0
M  V30 19090 H 1866.04 0.222518 3.79849 0
M  V30 19091 H 1865.56 1.98708 3.33372 0
M  V30 19092 H 1863.66 -0.451545 3.69854 0
M  V30 19093 H 1863.77 1.17841 4.64382 0
M  V30 19094 H 1862.13 0.532227 2.49077 0
M  V30 19095 H 1862.92 2.19716 2.6378 0
M  V30 19096 N 1865.36 -1.4549 0.605832 0
M  V30 19097 C 1866.61 -2.01852 0.10014 0
M  V30 19098 C 1866.93 -1.47699 -1.27319 0
M  V30 19099 O 1866.2 -0.670571 -1.84066 0
M  V30 19100 H 1864.78 -0.746225 0.0340291 0
M  V30 19101 H 1867.44 -1.78311 0.786834 0
M  V30 19102 H 1866.54 -3.12062 0.0485925 0
M  V30 19103 N 1866.84 -0.344893 -1.5378 0
M  V30 19104 C 1868.26 0.00698009 -1.59598 0
M  V30 19105 C 1868.46 1.48608 -1.36081 0
M  V30 19106 O 1867.51 2.24498 -1.15573 0
M  V30 19107 C 1868.83 -0.430402 -2.97604 0
M  V30 19108 C 1870.37 -0.38286 -3.1065 0
M  V30 19109 C 1870.85 -0.795731 -4.51035 0
M  V30 19110 N 1872.34 -0.74997 -4.57088 0
M  V30 19111 C 1873.07 -1.04137 -5.63864 0
M  V30 19112 N 1872.57 -1.401 -6.78487 0
M  V30 19113 N 1874.36 -0.965521 -5.53746 0
M  V30 19114 H 1866.51 -1.30834 -1.67321 0
M  V30 19115 H 1868.78 -0.533422 -0.783686 0
M  V30 19116 H 1868.48 -1.46174 -3.19884 0
M  V30 19117 H 1868.36 0.193696 -3.76702 0
M  V30 19118 H 1870.74 0.639311 -2.88092 0
M  V30 19119 H 1870.83 -1.04218 -2.33607 0
M  V30 19120 H 1870.47 -1.81592 -4.74328 0
M  V30 19121 H 1870.4 -0.113876 -5.26477 0
M  V30 19122 H 1872.89 -0.48474 -3.74778 0
M  V30 19123 H 1873.2 -1.60815 -7.55882 0
M  V30 19124 H 1871.55 -1.43946 -6.7993 0
M  V30 19125 H 1874.74 -0.683902 -4.63077 0
M  V30 19126 H 1874.91 -1.19596 -6.36868 0
M  V30 19127 N 1868.32 1.57428 -0.0735454 0
M  V30 19128 C 1869.56 1.93843 0.596054 0
M  V30 19129 C 1869.9 0.953931 1.69156 0
M  V30 19130 O 1869.17 -0.0165729 1.94493 0
M  V30 19131 C 1869.46 3.40516 1.17137 0
M  V30 19132 C 1869.31 4.49725 0.0823861 0
M  V30 19133 C 1870.63 3.88042 2.07634 0
M  V30 19134 H 1867.75 0.70488 0.215204 0
M  V30 19135 H 1870.39 1.89484 -0.139871 0
M  V30 19136 H 1868.54 3.44361 1.79855 0
M  V30 19137 H 1870.21 4.58 -0.55078 0
M  V30 19138 H 1868.45 4.29813 -0.586788 0
M  V30 19139 H 1869.12 5.49494 0.525354 0
M  V30 19140 H 1871.6 3.86214 1.54849 0
M  V30 19141 H 1870.48 4.91277 2.44822 0
M  V30 19142 H 1870.74 3.26084 2.98532 0
M  V30 19143 N 1869.8 -0.200022 1.56326 0
M  V30 19144 C 1870.76 -1.23155 1.93302 0
M  V30 19145 C 1871.76 -1.38696 0.81364 0
M  V30 19146 O 1872.95 -1.36592 1.08112 0
M  V30 19147 C 1870.08 -2.60177 2.20274 0
M  V30 19148 H 1871.27 -0.915616 2.85581 0
M  V30 19149 H 1868.83 -0.44134 1.4994 0
M  V30 19150 H 1869.56 -2.96833 1.30617 0
M  V30 19151 H 1869.35 -2.50269 3.01841 0
M  V30 19152 H 1870.84 -3.34572 2.49903 0
M  V30 19153 N 1871.27 -1.50505 -0.467553 0
M  V30 19154 C 1872.22 -1.69626 -1.56511 0
M  V30 19155 C 1873.19 -0.537594 -1.5716 0
M  V30 19156 O 1874.38 -0.768574 -1.74636 0
M  V30 19157 C 1871.52 -1.79965 -2.9446 0
M  V30 19158 C 1870.63 -3.07356 -3.03572 0
M  V30 19159 C 1869.76 -3.08469 -4.32458 0
M  V30 19160 C 1868.8 -4.303 -4.35326 0
M  V30 19161 N 1867.94 -4.29132 -5.55689 0
M  V30 19162 H 1872.78 -2.63326 -1.39511 0
M  V30 19163 H 1870.32 -1.30531 -0.678239 0
M  V30 19164 H 1872.28 -1.8394 -3.74462 0
M  V30 19165 H 1870.91 -0.897013 -3.10086 0
M  V30 19166 H 1869.96 -3.12836 -2.16421 0
M  V30 19167 H 1871.27 -3.97327 -3.01551 0
M  V30 19168 H 1870.42 -3.11193 -5.20811 0
M  V30 19169 H 1869.16 -2.16335 -4.37093 0
M  V30 19170 H 1868.17 -4.27784 -3.4537 0
M  V30 19171 H 1869.39 -5.23665 -4.3238 0
M  V30 19172 H 1867.34 -3.39853 -5.61102 0
M  V30 19173 H 1867.26 -5.12875 -5.55423 0
M  V30 19174 H 1868.52 -4.36007 -6.46156 0
M  V30 19175 N 1872.75 0.720973 -1.40142 0
M  V30 19176 C 1874 1.4763 -1.37435 0
M  V30 19177 C 1874.31 1.95587 0.0222038 0
M  V30 19178 O 1875.52 2.70955 0.171885 0
M  V30 19179 C 1873.98 2.66828 -2.41517 0
M  V30 19180 C 1873.58 2.25763 -3.86956 0
M  V30 19181 C 1875.33 3.44589 -2.47908 0
M  V30 19182 C 1873.24 3.41768 -4.82648 0
M  V30 19183 H 1872.17 0.554436 -0.510996 0
M  V30 19184 H 1874.82 0.785164 -1.65854 0
M  V30 19185 H 1873.2 3.38086 -2.0619 0
M  V30 19186 H 1874.37 1.61961 -4.31399 0
M  V30 19187 H 1872.69 1.61059 -3.83991 0
M  V30 19188 H 1875.28 4.309 -3.1659 0
M  V30 19189 H 1875.63 3.8803 -1.50792 0
M  V30 19190 H 1876.16 2.80371 -2.822 0
M  V30 19191 H 1872.9 3.03364 -5.81077 0
M  V30 19192 H 1872.42 4.04504 -4.42873 0
M  V30 19193 H 1874.1 4.07909 -5.02214 0
M  V30 19194 N 1874.23 1.25549 0.952634 0
M  V30 19195 C 1875.48 1.10198 1.69413 0
M  V30 19196 C 1875.8 -0.357345 1.91698 0
M  V30 19197 O 1875.07 -1.25345 1.5055 0
M  V30 19198 H 1873.65 0.404804 0.627808 0
M  V30 19199 H 1876.31 1.57703 1.14524 0
M  V30 19200 H 1875.41 1.61185 2.67256 0
M  V30 19201 N 1875.71 -1.15554 1.07168 0
M  V30 19202 C 1876.99 -1.8238 0.706884 0
M  V30 19203 C 1877.37 -1.94906 -0.810848 0
M  V30 19204 O 1876.71 -1.49905 -1.72455 0
M  V30 19205 C 1876.92 -3.18844 1.41913 0
M  V30 19206 C 1878.27 -3.94506 1.57004 0
M  V30 19207 O 1879.3 -3.28392 1.37976 0
M  V30 19208 O 1878.15 -5.13036 1.88297 0
M  V30 19209 H 1875.25 -0.787892 0.251307 0
M  V30 19210 H 1877.79 -1.22681 1.17249 0
M  V30 19211 H 1876.57 -3.04814 2.45365 0
M  V30 19212 H 1876.19 -3.86227 0.944182 0
M  V30 19213 N 1877.19 -0.855519 -1.32358 0
M  V30 19214 C 1878.43 -0.459322 -1.97222 0
M  V30 19215 C 1878.76 0.985247 -1.677 0
M  V30 19216 O 1878.02 1.70642 -0.958117 0
M  V30 19217 C 1878.32 -0.64624 -3.51509 0
M  V30 19218 C 1877.98 -2.06141 -4.0102 0
M  V30 19219 C 1876.64 -2.44846 -4.14251 0
M  V30 19220 C 1879 -2.985 -4.27255 0
M  V30 19221 C 1876.32 -3.75181 -4.51061 0
M  V30 19222 C 1878.68 -4.28335 -4.65524 0
M  V30 19223 C 1877.34 -4.66973 -4.76961 0
M  V30 19224 H 1876.61 -0.168078 -0.721686 0
M  V30 19225 H 1879.26 -1.08574 -1.57747 0
M  V30 19226 H 1877.56 0.0634018 -3.91749 0
M  V30 19227 H 1879.26 -0.319727 -3.99723 0
M  V30 19228 H 1875.85 -1.75086 -3.91207 0
M  V30 19229 H 1880.03 -2.69829 -4.1654 0
M  V30 19230 H 1875.29 -4.04899 -4.58112 0
M  V30 19231 H 1879.46 -4.99963 -4.84778 0
M  V30 19232 H 1877.09 -5.6801 -5.05241 0
M  V30 19233 N 1878.67 1.45167 -0.61354 0
M  V30 19234 C 1879.91 2.01796 -0.110844 0
M  V30 19235 C 1880.23 1.48372 1.26534 0
M  V30 19236 O 1879.5 0.680323 1.83707 0
M  V30 19237 H 1878.08 0.746034 -0.0379861 0
M  V30 19238 H 1880.75 1.77892 -0.796279 0
M  V30 19239 H 1879.84 3.12032 -0.0651413 0
M  V30 19240 N 1880.14 0.353044 1.53595 0
M  V30 19241 C 1881.08 -0.542593 2.21656 0
M  V30 19242 C 1882.05 -1.09287 1.20396 0
M  V30 19243 O 1883.24 -1.15136 1.49251 0
M  V30 19244 C 1880.37 -1.74739 2.90145 0
M  V30 19245 C 1879.41 -1.32571 4.05373 0
M  V30 19246 S 1880.24 -0.337517 5.34435 0
M  V30 19247 C 1881.4 -1.54893 6.06431 0
M  V30 19248 H 1881.63 0.0354663 2.97279 0
M  V30 19249 H 1879.17 0.137127 1.5379 0
M  V30 19250 H 1881.12 -2.43853 3.30221 0
M  V30 19251 H 1879.79 -2.29668 2.1427 0
M  V30 19252 H 1878.98 -2.22426 4.52264 0
M  V30 19253 H 1878.58 -0.713934 3.67123 0
M  V30 19254 H 1880.87 -2.48194 6.30401 0
M  V30 19255 H 1881.82 -1.12163 6.9916 0
M  V30 19256 H 1882.22 -1.74929 5.36712 0
M  V30 19257 N 1881.62 -1.57387 0.0818932 0
M  V30 19258 C 1882.58 -2.12162 -0.86718 0
M  V30 19259 C 1883.58 -1.04788 -1.21967 0
M  V30 19260 O 1884.77 -1.30733 -1.15128 0
M  V30 19261 C 1881.91 -2.63132 -2.16736 0
M  V30 19262 H 1883.1 -2.9733 -0.391788 0
M  V30 19263 H 1880.65 -1.55406 -0.166944 0
M  V30 19264 H 1881.39 -1.81446 -2.6879 0
M  V30 19265 H 1881.17 -3.41625 -1.92445 0
M  V30 19266 H 1882.66 -3.05549 -2.84657 0
M  V30 19267 N 1883.1 0.191729 -1.56429 0
M  V30 19268 C 1884.52 0.542701 -1.5009 0
M  V30 19269 C 1884.72 1.85685 -0.782522 0
M  V30 19270 O 1883.77 2.50275 -0.334432 0
M  V30 19271 C 1885.08 0.594326 -2.94768 0
M  V30 19272 C 1886.63 0.682929 -3.05459 0
M  V30 19273 C 1887.11 0.765634 -4.51555 0
M  V30 19274 N 1888.6 0.829072 -4.5572 0
M  V30 19275 C 1889.33 0.91329 -5.6608 0
M  V30 19276 N 1888.83 0.959603 -6.86122 0
M  V30 19277 N 1890.62 0.950739 -5.54001 0
M  V30 19278 H 1882.77 -0.670241 -2.01548 0
M  V30 19279 H 1885.04 -0.239168 -0.917335 0
M  V30 19280 H 1884.74 -0.302238 -3.50399 0
M  V30 19281 H 1884.62 1.44787 -3.48305 0
M  V30 19282 H 1887 1.56992 -2.49875 0
M  V30 19283 H 1887.08 -0.19688 -2.55041 0
M  V30 19284 H 1886.73 -0.117022 -5.07765 0
M  V30 19285 H 1886.66 1.66129 -4.99709 0
M  V30 19286 H 1889.15 0.802391 -3.69283 0
M  V30 19287 H 1889.46 1.02447 -7.65979 0
M  V30 19288 H 1887.81 0.928223 -6.88774 0
M  V30 19289 H 1891 0.911418 -4.59141 0
M  V30 19290 H 1891.17 1.01291 -6.40034 0
M  V30 19291 N 1884.58 1.50751 0.459565 0
M  V30 19292 C 1885.85 1.5284 1.22062 0
M  V30 19293 C 1886.23 0.279716 2.09239 0
M  V30 19294 O 1885.58 -0.73634 2.16311 0
M  V30 19295 C 1885.79 2.83046 2.04171 0
M  V30 19296 C 1887.14 3.34151 2.6197 0
M  V30 19297 O 1888.16 2.84446 2.14403 0
M  V30 19298 O 1887.02 4.20824 3.48668 0
M  V30 19299 H 1884.12 0.613549 0.554515 0
M  V30 19300 H 1886.66 1.63049 0.470445 0
M  V30 19301 H 1885.44 3.65397 1.40004 0
M  V30 19302 H 1885.06 2.75896 2.86299 0
M  V30 19303 N 1886.06 -0.713531 1.40522 0
M  V30 19304 C 1887.3 -1.46899 1.38216 0
M  V30 19305 C 1887.62 -1.95596 -0.011831 0
M  V30 19306 O 1888.82 -2.71043 -0.157513 0
M  V30 19307 C 1887.28 -2.65544 2.42929 0
M  V30 19308 C 1886.89 -2.23707 3.88148 0
M  V30 19309 C 1888.63 -3.4327 2.49732 0
M  V30 19310 C 1886.54 -3.39203 4.84453 0
M  V30 19311 H 1885.47 -0.551718 0.513929 0
M  V30 19312 H 1888.12 -0.776357 1.66268 0
M  V30 19313 H 1886.5 -3.36987 2.0798 0
M  V30 19314 H 1887.68 -1.5967 4.32252 0
M  V30 19315 H 1885.99 -1.59021 3.84839 0
M  V30 19316 H 1888.59 -4.29215 3.18871 0
M  V30 19317 H 1888.93 -3.87225 1.52848 0
M  V30 19318 H 1889.46 -2.78871 2.83683 0
M  V30 19319 H 1886.2 -3.00278 5.82678 0
M  V30 19320 H 1885.72 -4.02149 4.45012 0
M  V30 19321 H 1887.4 -4.0524 5.04371 0
M  V30 19322 N 1887.53 -1.26053 -0.945962 0
M  V30 19323 C 1888.76 -1.13913 -1.72358 0
M  V30 19324 C 1889.17 0.308885 -1.86662 0
M  V30 19325 O 1888.51 1.22366 -1.37012 0
M  V30 19326 C 1888.58 -1.72987 -3.15144 0
M  V30 19327 C 1888.24 -3.2205 -3.24242 0
M  V30 19328 C 1889.24 -4.1893 -3.07886 0
M  V30 19329 C 1886.92 -3.62424 -3.47785 0
M  V30 19330 C 1888.92 -5.54162 -3.14933 0
M  V30 19331 C 1886.6 -4.97791 -3.54468 0
M  V30 19332 C 1887.6 -5.9347 -3.38058 0
M  V30 19333 O 1887.29 -7.26372 -3.4444 0
M  V30 19334 H 1887.02 -0.39772 -0.546622 0
M  V30 19335 H 1889.58 -1.67076 -1.19476 0
M  V30 19336 H 1887.81 -1.14281 -3.69428 0
M  V30 19337 H 1889.49 -1.55822 -3.74799 0
M  V30 19338 H 1890.26 -3.89078 -2.89558 0
M  V30 19339 H 1886.14 -2.8844 -3.59615 0
M  V30 19340 H 1889.68 -6.28821 -3.02042 0
M  V30 19341 H 1885.58 -5.27306 -3.72315 0
M  V30 19342 H 1886.35 -7.34582 -3.61014 0
M  V30 19343 N 1889.01 1.14984 -1.07779 0
M  V30 19344 C 1890.43 1.3786 -0.804164 0
M  V30 19345 C 1890.63 1.92682 0.589572 0
M  V30 19346 O 1889.68 2.13537 1.34752 0
M  V30 19347 C 1891 2.34559 -1.88156 0
M  V30 19348 C 1892.54 2.48212 -1.90683 0
M  V30 19349 C 1893.02 3.48205 -2.97519 0
M  V30 19350 N 1894.51 3.55743 -2.96649 0
M  V30 19351 C 1895.25 4.32946 -3.75959 0
M  V30 19352 N 1894.74 5.13446 -4.65129 0
M  V30 19353 N 1896.53 4.28079 -3.64287 0
M  V30 19354 H 1888.69 0.777434 -1.97661 0
M  V30 19355 H 1890.95 0.404419 -0.857409 0
M  V30 19356 H 1890.65 2.014 -2.88324 0
M  V30 19357 H 1890.53 3.34389 -1.74539 0
M  V30 19358 H 1892.92 2.80665 -0.911642 0
M  V30 19359 H 1893 1.48365 -2.08378 0
M  V30 19360 H 1892.64 3.16485 -3.9724 0
M  V30 19361 H 1892.57 4.47817 -2.77069 0
M  V30 19362 H 1895.06 2.98291 -2.32014 0
M  V30 19363 H 1895.37 5.69612 -5.22267 0
M  V30 19364 H 1893.72 5.12737 -4.69176 0
M  V30 19365 H 1896.91 3.64257 -2.93997 0
M  V30 19366 H 1897.08 4.87996 -4.26337 0
M  V30 19367 N 1890.49 0.862526 1.31902 0
M  V30 19368 C 1891.45 0.317836 2.26986 0
M  V30 19369 C 1892.45 -0.526959 1.5192 0
M  V30 19370 O 1893.64 -0.337336 1.70903 0
M  V30 19371 C 1890.77 -0.549441 3.36443 0
M  V30 19372 H 1891.97 1.15714 2.76677 0
M  V30 19373 H 1889.52 0.637501 1.42708 0
M  V30 19374 H 1890.26 -1.41024 2.92032 0
M  V30 19375 H 1890.04 0.0553642 3.92061 0
M  V30 19376 H 1891.53 -0.923059 4.07271 0
M  V30 19377 N 1891.97 -1.4484 0.62123 0
M  V30 19378 C 1893.19 -2.07012 0.126801 0
M  V30 19379 C 1893.62 -1.46046 -1.18542 0
M  V30 19380 O 1892.98 -0.558202 -1.72493 0
M  V30 19381 C 1893.02 -3.60597 0.0150611 0
M  V30 19382 O 1892.13 -3.9929 -1.03157 0
M  V30 19383 H 1891.47 -0.659131 0.0802646 0
M  V30 19384 H 1894 -1.85874 0.855105 0
M  V30 19385 H 1894.01 -4.07608 -0.178742 0
M  V30 19386 H 1892.68 -4.04354 0.973153 0
M  V30 19387 H 1891.26 -3.63927 -0.813135 0
M  V30 19388 N 1893.45 -0.361184 -1.53405 0
M  V30 19389 C 1894.68 0.23043 -2.05311 0
M  V30 19390 C 1895.08 1.43355 -1.23475 0
M  V30 19391 O 1894.43 1.81745 -0.267304 0
M  V30 19392 C 1894.49 0.692241 -3.52772 0
M  V30 19393 C 1894.15 -0.393597 -4.55302 0
M  V30 19394 C 1895.15 -1.24204 -5.04846 0
M  V30 19395 C 1892.84 -0.55258 -4.99251 0
M  V30 19396 C 1894.83 -2.23485 -5.96936 0
M  V30 19397 C 1892.52 -1.54876 -5.91149 0
M  V30 19398 C 1893.51 -2.38834 -6.39881 0
M  V30 19399 O 1893.2 -3.36753 -7.29967 0
M  V30 19400 H 1892.93 0.0451009 -0.674494 0
M  V30 19401 H 1895.49 -0.516588 -1.98798 0
M  V30 19402 H 1893.72 1.49079 -3.56809 0
M  V30 19403 H 1895.41 1.20637 -3.87559 0
M  V30 19404 H 1896.17 -1.13039 -4.71643 0
M  V30 19405 H 1892.05 0.0911198 -4.6091 0
M  V30 19406 H 1895.6 -2.89053 -6.34897 0
M  V30 19407 H 1891.49 -1.66091 -6.23766 0
M  V30 19408 H 1892.26 -3.32431 -7.47952 0
M  V30 19409 N 1894.92 1.57341 -0.0902386 0
M  V30 19410 C 1896.15 1.98225 0.58228 0
M  V30 19411 C 1896.56 0.968012 1.62561 0
M  V30 19412 O 1895.91 -0.0512719 1.83628 0
M  V30 19413 C 1895.97 3.35468 1.29233 0
M  V30 19414 C 1895.63 4.55243 0.400324 0
M  V30 19415 C 1896.63 5.18723 -0.349573 0
M  V30 19416 C 1894.31 5.01281 0.319802 0
M  V30 19417 C 1896.31 6.26607 -1.16802 0
M  V30 19418 C 1893.99 6.09032 -0.502303 0
M  V30 19419 C 1894.99 6.71559 -1.24487 0
M  V30 19420 O 1894.68 7.77233 -2.05338 0
M  V30 19421 H 1894.41 0.65651 0.161154 0
M  V30 19422 H 1896.97 2.04738 -0.164737 0
M  V30 19423 H 1895.2 3.25623 2.08582 0
M  V30 19424 H 1896.89 3.60832 1.8589 0
M  V30 19425 H 1897.65 4.84089 -0.297067 0
M  V30 19426 H 1893.53 4.52378 0.887432 0
M  V30 19427 H 1897.07 6.75342 -1.74811 0
M  V30 19428 H 1892.97 6.43098 -0.556307 0
M  V30 19429 H 1893.74 7.94198 -1.97968 0
M  V30 19430 N 1896.4 -0.183431 1.56529 0
M  V30 19431 C 1897.82 -0.534734 1.50375 0
M  V30 19432 C 1898.02 -1.85267 0.792359 0
M  V30 19433 O 1897.07 -2.50095 0.3477 0
M  V30 19434 C 1898.39 -0.578686 2.95079 0
M  V30 19435 C 1899.94 -0.66672 3.05817 0
M  V30 19436 C 1900.41 -0.741676 4.51955 0
M  V30 19437 N 1901.9 -0.804892 4.56153 0
M  V30 19438 C 1902.64 -0.883257 5.66556 0
M  V30 19439 N 1902.13 -0.923203 6.86621 0
M  V30 19440 N 1903.93 -0.921346 5.54498 0
M  V30 19441 H 1896.08 0.68092 2.0119 0
M  V30 19442 H 1898.34 0.244029 0.916053 0
M  V30 19443 H 1898.05 0.320816 3.50234 0
M  V30 19444 H 1897.92 -1.42937 3.49068 0
M  V30 19445 H 1900.31 -1.55665 2.50704 0
M  V30 19446 H 1900.39 0.210402 2.54933 0
M  V30 19447 H 1900.03 0.143948 5.07696 0
M  V30 19448 H 1899.96 -1.63477 5.00583 0
M  V30 19449 H 1902.45 -0.782796 3.69704 0
M  V30 19450 H 1902.77 -0.983835 7.66512 0
M  V30 19451 H 1901.11 -0.891683 6.89256 0
M  V30 19452 H 1904.3 -0.887056 4.59618 0
M  V30 19453 H 1904.47 -0.978957 6.40563 0
M  V30 19454 N 1897.88 -1.50992 -0.451564 0
M  V30 19455 C 1898.83 -1.71277 -1.54703 0
M  V30 19456 C 1899.8 -0.554233 -1.56581 0
M  V30 19457 O 1900.98 -0.787053 -1.73811 0
M  V30 19458 C 1898.12 -1.83078 -2.92535 0
M  V30 19459 C 1897.24 -3.10559 -3.00295 0
M  V30 19460 C 1896.37 -3.13039 -4.29162 0
M  V30 19461 C 1895.41 -4.34893 -4.30737 0
M  V30 19462 N 1894.55 -4.35002 -5.51106 0
M  V30 19463 H 1899.39 -2.64791 -1.3671 0
M  V30 19464 H 1896.92 -1.31243 -0.664356 0
M  V30 19465 H 1898.88 -1.87901 -3.7249 0
M  V30 19466 H 1897.51 -0.929851 -3.09117 0
M  V30 19467 H 1896.56 -3.15113 -2.13091 0
M  V30 19468 H 1897.88 -4.00503 -2.9732 0
M  V30 19469 H 1897.03 -3.167 -5.17481 0
M  V30 19470 H 1895.77 -2.20959 -4.34774 0
M  V30 19471 H 1894.77 -4.31423 -3.40814 0
M  V30 19472 H 1896 -5.28221 -4.26801 0
M  V30 19473 H 1893.94 -3.45785 -5.57466 0
M  V30 19474 H 1893.86 -5.18738 -5.49952 0
M  V30 19475 H 1895.13 -4.42836 -6.41496 0
M  V30 19476 N 1899.36 0.706069 -1.40899 0
M  V30 19477 C 1900.61 1.46315 -1.39415 0
M  V30 19478 C 1900.93 1.95 -0.000496593 0
M  V30 19479 O 1900.2 1.70995 0.955904 0
M  V30 19480 H 1898.78 0.542863 -0.513136 0
M  V30 19481 H 1901.44 0.836396 -1.76041 0
M  V30 19482 H 1900.54 2.33139 -2.07491 0
M  V30 19483 N 1900.84 1.26553 0.939264 0
M  V30 19484 C 1902.08 1.11989 1.68235 0
M  V30 19485 C 1902.41 -0.336993 1.92066 0
M  V30 19486 O 1901.68 -1.23742 1.51871 0
M  V30 19487 H 1900.26 0.41144 0.623479 0
M  V30 19488 H 1902.92 1.58909 1.12845 0
M  V30 19489 H 1902.01 1.64011 2.65531 0
M  V30 19490 N 1902.31 -1.14411 1.08387 0
M  V30 19491 C 1903.55 -1.87102 0.822937 0
M  V30 19492 C 1903.92 -1.81032 -0.63963 0
M  V30 19493 O 1905.12 -2.48857 -1.01606 0
M  V30 19494 C 1903.39 -3.31723 1.33021 0
M  V30 19495 S 1904.95 -4.22029 1.20154 0
M  V30 19496 H 1901.77 -0.645571 0.297924 0
M  V30 19497 H 1904.37 -1.37967 1.38511 0
M  V30 19498 H 1903.07 -3.33689 2.38913 0
M  V30 19499 H 1902.6 -3.85916 0.763695 0
M  V30 19500 H 1904.62 -4.95986 0.1457 0
M  V30 19501 N 1903.79 -0.869509 -1.31443 0
M  V30 19502 C 1904.76 -0.329869 -2.26814 0
M  V30 19503 C 1905.76 0.518895 -1.52198 0
M  V30 19504 O 1906.95 0.328267 -1.71079 0
M  V30 19505 C 1904.08 0.53159 -3.3673 0
M  V30 19506 H 1905.27 -1.1718 -2.7606 0
M  V30 19507 H 1902.82 -0.645061 -1.42368 0
M  V30 19508 H 1903.56 1.39473 -2.92776 0
M  V30 19509 H 1903.34 -0.0761553 -3.92026 0
M  V30 19510 H 1904.83 0.901447 -4.07754 0
M  V30 19511 N 1905.27 1.44508 -0.628902 0
M  V30 19512 C 1906.2 2.27848 0.126632 0
M  V30 19513 C 1907.18 1.38406 0.85338 0
M  V30 19514 O 1908.37 1.67845 0.857923 0
M  V30 19515 C 1905.49 3.17283 1.18529 0
M  V30 19516 C 1904.54 4.22817 0.559317 0
M  V30 19517 S 1905.37 5.31554 -0.648926 0
M  V30 19518 C 1906.53 6.24557 0.409797 0
M  V30 19519 H 1906.76 2.9158 -0.580384 0
M  V30 19520 H 1904.29 1.48662 -0.417009 0
M  V30 19521 H 1906.25 3.69362 1.79115 0
M  V30 19522 H 1904.91 2.52776 1.86449 0
M  V30 19523 H 1904.11 4.854 1.35656 0
M  V30 19524 H 1903.71 3.73989 0.0281246 0
M  V30 19525 H 1906 6.65241 1.28298 0
M  V30 19526 H 1906.94 7.0787 -0.180404 0
M  V30 19527 H 1907.35 5.59699 0.734695 0
M  V30 19528 N 1906.75 0.369315 1.53212 0
M  V30 19529 C 1907.68 -0.467242 2.28777 0
M  V30 19530 C 1908.66 -1.08073 1.31355 0
M  V30 19531 O 1909.85 -1.09728 1.60229 0
M  V30 19532 C 1906.98 -1.60519 3.07979 0
M  V30 19533 C 1905.93 -1.11876 4.1312 0
M  V30 19534 C 1905.26 -2.34723 4.80426 0
M  V30 19535 C 1906.56 -0.200846 5.21914 0
M  V30 19536 H 1908.25 0.163201 2.98955 0
M  V30 19537 H 1905.8 0.0799312 1.43778 0
M  V30 19538 H 1907.75 -2.19708 3.59592 0
M  V30 19539 H 1906.47 -2.26292 2.35499 0
M  V30 19540 H 1905.13 -0.549521 3.62458 0
M  V30 19541 H 1904.78 -2.98961 4.04514 0
M  V30 19542 H 1904.48 -2.02846 5.51477 0
M  V30 19543 H 1906 -2.94592 5.34835 0
M  V30 19544 H 1907.42 -0.700331 5.69006 0
M  V30 19545 H 1905.81 0.0272222 6.00094 0
M  V30 19546 H 1906.88 0.755948 4.78971 0
M  V30 19547 N 1908.23 -1.57291 0.0985816 0
M  V30 19548 C 1909.64 -1.81681 -0.430009 0
M  V30 19549 C 1909.99 -1.01443 -1.6794 0
M  V30 19550 O 1909.11 -0.244848 -2.1501 0
M  V30 19551 C 1909.71 -3.29535 -0.786919 0
M  V30 19552 C 1908.27 -3.54676 -1.26024 0
M  V30 19553 C 1907.42 -2.76091 -0.258642 0
M  V30 19554 H 1910.37 -1.55358 0.323982 0
M  V30 19555 H 1910.39 -3.43048 -1.64616 0
M  V30 19556 H 1909.9 -3.87906 0.122591 0
M  V30 19557 H 1908 -3.01639 -2.18734 0
M  V30 19558 H 1908.11 -4.63315 -1.21967 0
M  V30 19559 H 1906.48 -2.43667 -0.741507 0
M  V30 19560 H 1907.26 -3.37213 0.643607 0
M  V30 19561 N 1909.71 0.175127 -1.56624 0
M  V30 19562 C 1910.95 0.89369 -1.82047 0
M  V30 19563 C 1911.28 1.82061 -0.675831 0
M  V30 19564 O 1910.56 1.91808 0.322453 0
M  V30 19565 C 1910.84 1.69266 -3.17838 0
M  V30 19566 C 1910.7 0.789122 -4.42824 0
M  V30 19567 C 1912.01 2.66115 -3.50529 0
M  V30 19568 H 1909.13 0.323454 -0.662228 0
M  V30 19569 H 1911.78 0.160077 -1.89324 0
M  V30 19570 H 1909.93 2.31808 -3.11765 0
M  V30 19571 H 1911.6 0.17687 -4.60961 0
M  V30 19572 H 1909.84 0.0969508 -4.33692 0
M  V30 19573 H 1910.51 1.38358 -5.34379 0
M  V30 19574 H 1912.99 2.137 -3.57031 0
M  V30 19575 H 1911.86 3.19087 -4.46626 0
M  V30 19576 H 1912.12 3.4613 -2.75038 0
M  V30 19577 N 1911.18 1.5123 0.44355 0
M  V30 19578 C 1912.13 1.72095 1.53792 0
M  V30 19579 C 1913.1 0.562529 1.56284 0
M  V30 19580 O 1914.29 0.796259 1.73391 0
M  V30 19581 C 1911.43 1.84627 2.9156 0
M  V30 19582 C 1910.54 3.12147 2.98644 0
M  V30 19583 C 1909.67 3.1531 4.27496 0
M  V30 19584 C 1908.71 4.37171 4.28425 0
M  V30 19585 N 1907.85 4.37919 5.48791 0
M  V30 19586 H 1912.69 2.65512 1.35304 0
M  V30 19587 H 1910.23 1.31593 0.657387 0
M  V30 19588 H 1912.18 1.89874 3.71488 0
M  V30 19589 H 1910.81 0.946232 3.0862 0
M  V30 19590 H 1909.87 3.16239 2.11417 0
M  V30 19591 H 1911.18 4.02074 2.95192 0
M  V30 19592 H 1910.33 3.19439 5.15794 0
M  V30 19593 H 1909.07 2.23261 4.33596 0
M  V30 19594 H 1908.08 4.33225 3.38521 0
M  V30 19595 H 1909.3 5.30477 4.23994 0
M  V30 19596 H 1907.25 3.48737 5.55624 0
M  V30 19597 H 1907.16 5.21647 5.47193 0
M  V30 19598 H 1908.43 4.46232 6.39138 0
M  V30 19599 N 1912.66 -0.698586 1.41271 0
M  V30 19600 C 1913.91 -1.45944 1.41675 0
M  V30 19601 C 1914.26 -1.92385 0.0241608 0
M  V30 19602 O 1913.56 -1.66422 -0.949431 0
M  V30 19603 C 1913.75 -2.688 2.35545 0
M  V30 19604 C 1913.58 -2.34377 3.83794 0
M  V30 19605 C 1912.35 -2.24888 4.52497 0
M  V30 19606 C 1914.55 -1.97545 4.74848 0
M  V30 19607 N 1912.53 -1.83318 5.8589 0
M  V30 19608 C 1913.9 -1.66711 5.97166 0
M  V30 19609 C 1915.95 -1.84329 4.62523 0
M  V30 19610 C 1914.66 -1.23988 7.08533 0
M  V30 19611 C 1916.68 -1.43011 5.73848 0
M  V30 19612 C 1916.05 -1.13085 6.95263 0
M  V30 19613 H 1912.14 -0.531459 0.573651 0
M  V30 19614 H 1914.73 -0.808529 1.77118 0
M  V30 19615 H 1912.9 -3.31615 2.02202 0
M  V30 19616 H 1914.63 -3.35252 2.2669 0
M  V30 19617 H 1911.39 -2.43185 4.06396 0
M  V30 19618 H 1911.81 -1.65024 6.56579 0
M  V30 19619 H 1916.45 -2.0612 3.69153 0
M  V30 19620 H 1914.17 -1.00941 8.01771 0
M  V30 19621 H 1917.76 -1.33339 5.66314 0
M  V30 19622 H 1916.64 -0.815958 7.79943 0
M  V30 19623 N 1914.14 -1.27049 -0.93254 0
M  V30 19624 C 1915.07 -1.03677 -2.03289 0
M  V30 19625 C 1916.05 0.0412728 -1.62548 0
M  V30 19626 O 1917.23 -0.102897 -1.88219 0
M  V30 19627 C 1914.36 -0.571733 -3.3384 0
M  V30 19628 C 1913.41 -1.64362 -3.93557 0
M  V30 19629 S 1914.24 -3.23486 -4.26752 0
M  V30 19630 C 1915.4 -2.78772 -5.6039 0
M  V30 19631 H 1915.63 -1.96842 -2.22802 0
M  V30 19632 H 1913.16 -1.10826 -1.07503 0
M  V30 19633 H 1915.12 -0.310101 -4.09327 0
M  V30 19634 H 1913.78 0.339773 -3.12257 0
M  V30 19635 H 1912.97 -1.26944 -4.87751 0
M  V30 19636 H 1912.58 -1.85708 -3.24636 0
M  V30 19637 H 1914.87 -2.23774 -6.39478 0
M  V30 19638 H 1915.81 -3.71692 -6.02703 0
M  V30 19639 H 1916.22 -2.18065 -5.2068 0
M  V30 19640 N 1915.62 1.13835 -1.08993 0
M  V30 19641 C 1917.03 1.66568 -0.843325 0
M  V30 19642 C 1917.38 1.85846 0.628955 0
M  V30 19643 O 1916.5 1.57401 1.48506 0
M  V30 19644 C 1917.1 3.02573 -1.52431 0
M  V30 19645 C 1915.66 3.52315 -1.3248 0
M  V30 19646 C 1914.81 2.27658 -1.58326 0
M  V30 19647 H 1917.76 0.978181 -1.24969 0
M  V30 19648 H 1917.78 3.68323 -0.954898 0
M  V30 19649 H 1917.29 2.8851 -2.59584 0
M  V30 19650 H 1915.39 3.71589 -0.274248 0
M  V30 19651 H 1915.5 4.32715 -2.05657 0
M  V30 19652 H 1913.87 2.34028 -1.00514 0
M  V30 19653 H 1914.65 2.16165 -2.66698 0
M  V30 19654 N 1917.1 0.876467 1.3098 0
M  V30 19655 C 1918.51 0.542323 1.7865 0
M  V30 19656 C 1918.86 -0.941103 1.72156 0
M  V30 19657 O 1917.98 -1.73506 1.29324 0
M  V30 19658 C 1918.58 0.977656 3.24388 0
M  V30 19659 C 1917.14 0.695064 3.69927 0
M  V30 19660 C 1916.28 1.16537 2.51624 0
M  V30 19661 H 1919.23 1.06154 1.1797 0
M  V30 19662 H 1919.26 0.30304 3.79291 0
M  V30 19663 H 1918.77 2.05735 3.29082 0
M  V30 19664 H 1916.87 -0.372992 3.70728 0
M  V30 19665 H 1916.98 1.27665 4.61778 0
M  V30 19666 H 1915.35 0.584941 2.47892 0
M  V30 19667 H 1916.13 2.25262 2.5906 0
M  V30 19668 N 1918.57 -1.44173 0.636557 0
M  V30 19669 C 1919.48 -2.34507 -0.0661877 0
M  V30 19670 C 1920.5 -1.52931 -0.829947 0
M  V30 19671 O 1921.68 -1.85641 -0.780979 0
M  V30 19672 C 1918.74 -3.30987 -1.03191 0
M  V30 19673 C 1917.8 -4.28469 -0.266924 0
M  V30 19674 C 1917.03 -5.20341 -1.18664 0
M  V30 19675 O 1917.26 -5.1626 -2.42552 0
M  V30 19676 O 1916.19 -5.98181 -0.668035 0
M  V30 19677 H 1920.02 -2.9606 0.676932 0
M  V30 19678 H 1917.6 -1.44036 0.396744 0
M  V30 19679 H 1919.48 -3.9036 -1.58736 0
M  V30 19680 H 1918.16 -2.7196 -1.75555 0
M  V30 19681 H 1917.07 -3.72627 0.331702 0
M  V30 19682 H 1918.4 -4.90432 0.416803 0
M  V30 19683 N 1920.05 -0.377435 -1.53014 0
M  V30 19684 C 1921.01 0.451217 -2.24715 0
M  V30 19685 C 1922.01 1.00001 -1.25923 0
M  V30 19686 O 1923.2 0.883884 -1.5011 0
M  V30 19687 C 1920.34 1.63185 -2.99305 0
M  V30 19688 H 1921.53 -0.176358 -2.99381 0
M  V30 19689 H 1919.08 -0.12933 -1.55764 0
M  V30 19690 H 1919.82 2.29718 -2.2891 0
M  V30 19691 H 1919.6 1.24517 -3.71804 0
M  V30 19692 H 1921.09 2.2188 -3.53778 0
M  V30 19693 N 1921.53 1.57237 -0.106922 0
M  V30 19694 C 1922.78 1.94775 0.553982 0
M  V30 19695 C 1923.11 0.989452 1.67452 0
M  V30 19696 O 1922.36 0.0111396 1.95697 0
M  V30 19697 C 1922.66 3.38792 1.13817 0
M  V30 19698 C 1922.33 4.50682 0.140226 0
M  V30 19699 C 1920.99 4.81013 -0.134218 0
M  V30 19700 C 1923.34 5.1839 -0.540532 0
M  V30 19701 C 1920.67 5.76374 -1.09591 0
M  V30 19702 C 1923.02 6.14783 -1.49077 0
M  V30 19703 C 1921.68 6.43513 -1.77333 0
M  V30 19704 H 1920.95 0.712732 0.202716 0
M  V30 19705 H 1923.6 1.90602 -0.185265 0
M  V30 19706 H 1921.91 3.39601 1.95393 0
M  V30 19707 H 1923.6 3.65144 1.65744 0
M  V30 19708 H 1920.19 4.27049 0.364316 0
M  V30 19709 H 1924.38 4.95123 -0.34166 0
M  V30 19710 H 1919.63 5.96943 -1.3217 0
M  V30 19711 H 1923.81 6.66338 -2.02402 0
M  V30 19712 H 1921.43 7.17214 -2.52008 0
M  V30 19713 N 1923.01 -0.166818 1.56715 0
M  V30 19714 C 1923.94 -1.23537 1.91869 0
M  V30 19715 C 1924.92 -1.42558 0.78204 0
M  V30 19716 O 1926.1 -1.57492 1.03578 0
M  V30 19717 C 1923.23 -2.5976 2.17353 0
M  V30 19718 C 1922.28 -2.57449 3.40033 0
M  V30 19719 S 1923.11 -2.06088 4.94255 0
M  V30 19720 C 1924.27 -3.4408 5.22838 0
M  V30 19721 H 1924.5 -0.935341 2.82203 0
M  V30 19722 H 1922.03 -0.371582 1.49862 0
M  V30 19723 H 1923.99 -3.38162 2.32716 0
M  V30 19724 H 1922.65 -2.86961 1.27719 0
M  V30 19725 H 1921.84 -3.5768 3.55079 0
M  V30 19726 H 1921.45 -1.87145 3.2381 0
M  V30 19727 H 1923.74 -4.40099 5.15092 0
M  V30 19728 H 1924.68 -3.33905 6.2443 0
M  V30 19729 H 1925.09 -3.403 4.50396 0
M  V30 19730 N 1924.49 -1.51463 -0.435524 0
M  V30 19731 C 1925.4 -1.75755 -1.55394 0
M  V30 19732 C 1926.41 -0.641853 -1.61729 0
M  V30 19733 O 1927.59 -0.924311 -1.78937 0
M  V30 19734 C 1924.65 -1.87908 -2.91361 0
M  V30 19735 C 1923.71 -3.11766 -2.95128 0
M  V30 19736 C 1922.95 -3.2333 -4.2461 0
M  V30 19737 O 1923.17 -2.40789 -5.17085 0
M  V30 19738 O 1922.1 -4.16319 -4.34698 0
M  V30 19739 H 1925.93 -2.70633 -1.3781 0
M  V30 19740 H 1923.52 -1.35986 -0.618717 0
M  V30 19741 H 1925.4 -1.97877 -3.72052 0
M  V30 19742 H 1924.07 -0.962179 -3.09069 0
M  V30 19743 H 1922.98 -3.07274 -2.13386 0
M  V30 19744 H 1924.31 -4.03151 -2.82365 0
M  V30 19745 N 1925.96 0.691085 -1.4164 0
M  V30 19746 C 1927.21 1.44828 -1.40959 0
M  V30 19747 C 1927.53 1.94988 -0.0211789 0
M  V30 19748 O 1926.8 1.71999 0.937714 0
M  V30 19749 H 1925.38 0.53739 -0.518865 0
M  V30 19750 H 1928.05 0.817677 -1.76918 0
M  V30 19751 H 1927.14 2.30926 -2.09952 0
M  V30 19752 N 1927.44 1.27542 0.925789 0
M  V30 19753 C 1928.69 1.13375 1.6682 0
M  V30 19754 C 1929 -0.319507 1.92973 0
M  V30 19755 O 1930.21 -0.582109 2.65186 0
M  V30 19756 C 1928.67 1.98111 3.00466 0
M  V30 19757 C 1928.27 3.48105 2.82005 0
M  V30 19758 C 1930.02 1.92597 3.78294 0
M  V30 19759 C 1927.93 4.25034 4.11218 0
M  V30 19760 H 1926.86 0.420697 0.625724 0
M  V30 19761 H 1929.51 1.51978 1.02835 0
M  V30 19762 H 1927.89 1.52354 3.65519 0
M  V30 19763 H 1929.06 4.01737 2.25707 0
M  V30 19764 H 1927.38 3.55018 2.17604 0
M  V30 19765 H 1929.97 2.47348 4.74049 0
M  V30 19766 H 1930.32 0.900028 4.06454 0
M  V30 19767 H 1930.85 2.3626 3.20041 0
M  V30 19768 H 1927.59 5.2816 3.88236 0
M  V30 19769 H 1927.11 3.76178 4.67173 0
M  V30 19770 H 1928.79 4.3431 4.79566 0
M  V30 19771 N 1928.92 -1.13255 1.09595 0
M  V30 19772 C 1930.17 -1.84571 0.833056 0
M  V30 19773 C 1930.5 -1.83622 -0.641341 0
M  V30 19774 O 1929.75 -1.27084 -1.48823 0
M  V30 19775 C 1930.05 -3.32304 1.31562 0
M  V30 19776 C 1929.72 -3.53433 2.79993 0
M  V30 19777 C 1928.38 -3.58907 3.2053 0
M  V30 19778 C 1930.73 -3.61259 3.75687 0
M  V30 19779 C 1928.06 -3.69744 4.55529 0
M  V30 19780 C 1930.41 -3.73624 5.10478 0
M  V30 19781 C 1929.07 -3.77352 5.50601 0
M  V30 19782 H 1928.34 -0.675393 0.304837 0
M  V30 19783 H 1930.99 -1.33697 1.37103 0
M  V30 19784 H 1929.3 -3.85542 0.697482 0
M  V30 19785 H 1930.99 -3.85935 1.0888 0
M  V30 19786 H 1927.58 -3.49828 2.47625 0
M  V30 19787 H 1931.77 -3.56308 3.45483 0
M  V30 19788 H 1927.02 -3.70897 4.8605 0
M  V30 19789 H 1931.2 -3.78623 5.84481 0
M  V30 19790 H 1928.82 -3.85501 6.55204 0
M  V30 19791 N 1930.4 -0.883401 -1.30514 0
M  V30 19792 C 1931.63 -0.515948 -2.00364 0
M  V30 19793 C 1932.04 0.895148 -1.6623 0
M  V30 19794 O 1931.4 1.58844 -0.898601 0
M  V30 19795 C 1931.45 -0.679282 -3.55061 0
M  V30 19796 O 1931.17 -2.03482 -3.87978 0
M  V30 19797 C 1932.67 -0.314612 -4.42182 0
M  V30 19798 H 1929.89 -0.199595 -0.640627 0
M  V30 19799 H 1932.44 -1.18827 -1.66435 0
M  V30 19800 H 1930.59 -0.0543511 -3.87362 0
M  V30 19801 H 1931 -2.0523 -4.82681 0
M  V30 19802 H 1932.48 -0.4798 -5.49911 0
M  V30 19803 H 1932.96 0.747247 -4.32797 0
M  V30 19804 H 1933.56 -0.9158 -4.15323 0
M  V30 19805 N 1931.88 1.43833 -0.644194 0
M  V30 19806 C 1933.1 2.06784 -0.159719 0
M  V30 19807 C 1933.53 1.47913 1.16204 0
M  V30 19808 O 1932.88 0.585574 1.71583 0
M  V30 19809 C 1932.93 3.60527 -0.0724271 0
M  V30 19810 O 1932.04 4.0088 0.967917 0
M  V30 19811 H 1931.38 0.657771 -0.0907406 0
M  V30 19812 H 1933.91 1.8449 -0.884568 0
M  V30 19813 H 1933.92 4.07841 0.113872 0
M  V30 19814 H 1932.59 4.02755 -1.03736 0
M  V30 19815 H 1931.17 3.65174 0.755135 0
M  V30 19816 N 1933.35 0.385544 1.52811 0
M  V30 19817 C 1934.3 -0.451417 2.26342 0
M  V30 19818 C 1935.27 -1.06094 1.27801 0
M  V30 19819 O 1936.46 -1.08968 1.56623 0
M  V30 19820 C 1933.6 -1.57477 3.07075 0
M  V30 19821 C 1932.71 -0.988468 4.20539 0
M  V30 19822 C 1931.84 -2.08256 4.88675 0
M  V30 19823 C 1930.88 -1.47196 5.94138 0
M  V30 19824 N 1930.02 -2.5052 6.55884 0
M  V30 19825 H 1934.86 0.182092 2.97443 0
M  V30 19826 H 1932.4 0.101628 1.46749 0
M  V30 19827 H 1934.36 -2.23677 3.52171 0
M  V30 19828 H 1932.99 -2.17864 2.38191 0
M  V30 19829 H 1932.04 -0.216168 3.79785 0
M  V30 19830 H 1933.35 -0.502223 4.96265 0
M  V30 19831 H 1932.5 -2.82235 5.37055 0
M  V30 19832 H 1931.24 -2.60239 4.12464 0
M  V30 19833 H 1930.25 -0.717401 5.45099 0
M  V30 19834 H 1931.47 -0.960124 6.72279 0
M  V30 19835 H 1929.42 -3.0168 5.82516 0
M  V30 19836 H 1929.34 -2.0664 7.27211 0
M  V30 19837 H 1930.6 -3.24141 7.0891 0
M  V30 19838 N 1934.83 -1.57178 0.115259 0
M  V30 19839 C 1936.06 -1.99415 -0.55147 0
M  V30 19840 C 1936.48 -0.994862 -1.60462 0
M  V30 19841 O 1935.83 0.0127831 -1.82496 0
M  V30 19842 C 1935.88 -3.41665 -1.18099 0
M  V30 19843 O 1935.6 -4.3777 -0.169944 0
M  V30 19844 C 1937.11 -3.99014 -1.9314 0
M  V30 19845 H 1934.33 -0.654856 -0.146302 0
M  V30 19846 H 1936.87 -2.03515 0.200495 0
M  V30 19847 H 1935.02 -3.38516 -1.88376 0
M  V30 19848 H 1935.44 -5.20741 -0.626853 0
M  V30 19849 H 1936.91 -5.00639 -2.32519 0
M  V30 19850 H 1937.39 -3.37947 -2.80515 0
M  V30 19851 H 1938 -4.05697 -1.27634 0
M  V30 19852 N 1936.31 0.158505 -1.56801 0
M  V30 19853 C 1937.59 0.901061 -1.73609 0
M  V30 19854 C 1937.97 1.99842 -0.680163 0
M  V30 19855 O 1937.32 2.26484 0.302892 0
M  V30 19856 C 1937.53 1.45407 -3.17266 0
M  V30 19857 C 1938.87 1.92199 -3.78609 0
M  V30 19858 O 1939.9 1.55173 -3.20624 0
M  V30 19859 O 1938.76 2.60443 -4.80449 0
M  V30 19860 H 1935.85 0.425009 -0.709434 0
M  V30 19861 H 1938.4 0.14533 -1.69077 0
M  V30 19862 H 1937.17 0.664882 -3.8561 0
M  V30 19863 H 1936.79 2.27363 -3.26178 0
M  V30 19864 N 1937.79 1.51692 0.427485 0
M  V30 19865 C 1939.02 1.68669 1.19827 0
M  V30 19866 C 1939.43 0.388231 1.84765 0
M  V30 19867 O 1938.79 -0.634167 1.71127 0
M  V30 19868 C 1938.84 2.80936 2.27502 0
M  V30 19869 O 1938.56 4.05752 1.65218 0
M  V30 19870 C 1940.06 3.09267 3.17599 0
M  V30 19871 H 1937.28 0.565751 0.360786 0
M  V30 19872 H 1939.83 1.98158 0.505323 0
M  V30 19873 H 1937.98 2.54018 2.92496 0
M  V30 19874 H 1938.4 4.68175 2.36457 0
M  V30 19875 H 1939.87 3.91379 3.89264 0
M  V30 19876 H 1940.35 2.22071 3.78921 0
M  V30 19877 H 1940.95 3.37881 2.58295 0
M  V30 19878 N 1939.27 -0.683564 1.42004 0
M  V30 19879 C 1940.51 -1.44433 1.43215 0
M  V30 19880 C 1940.87 -1.92348 0.0445644 0
M  V30 19881 O 1940.16 -1.6742 -0.931726 0
M  V30 19882 C 1940.36 -2.66286 2.38383 0
M  V30 19883 C 1940.18 -2.30293 3.86258 0
M  V30 19884 C 1938.95 -2.20076 4.54857 0
M  V30 19885 C 1941.15 -1.92498 4.76916 0
M  V30 19886 N 1939.13 -1.77094 5.87802 0
M  V30 19887 C 1940.51 -1.60367 5.98901 0
M  V30 19888 C 1942.56 -1.79413 4.64452 0
M  V30 19889 C 1941.26 -1.16466 7.09809 0
M  V30 19890 C 1943.29 -1.36916 5.75333 0
M  V30 19891 C 1942.65 -1.05704 6.96424 0
M  V30 19892 H 1938.75 -0.525345 0.579255 0
M  V30 19893 H 1941.33 -0.789697 1.77966 0
M  V30 19894 H 1939.51 -3.29452 2.05708 0
M  V30 19895 H 1941.24 -3.32829 2.30233 0
M  V30 19896 H 1937.99 -2.38861 4.08953 0
M  V30 19897 H 1938.42 -1.58051 6.58292 0
M  V30 19898 H 1943.06 -2.02193 3.71319 0
M  V30 19899 H 1940.78 -0.924313 8.02796 0
M  V30 19900 H 1944.36 -1.27325 5.67697 0
M  V30 19901 H 1943.24 -0.733189 7.80765 0
M  V30 19902 N 1940.75 -1.28031 -0.919012 0
M  V30 19903 C 1941.97 -1.17828 -1.70679 0
M  V30 19904 C 1942.4 0.260207 -1.86292 0
M  V30 19905 O 1941.75 1.18833 -1.36925 0
M  V30 19906 C 1941.8 -1.87626 -3.07943 0
M  V30 19907 O 1940.91 -1.18014 -3.95154 0
M  V30 19908 H 1940.25 -0.40932 -0.522832 0
M  V30 19909 H 1942.78 -1.69258 -1.14947 0
M  V30 19910 H 1942.79 -1.95327 -3.58206 0
M  V30 19911 H 1941.46 -2.92263 -2.95897 0
M  V30 19912 H 1940.04 -1.18441 -3.5359 0
M  V30 19913 N 1942.22 1.12672 -1.10194 0
M  V30 19914 C 1943.47 1.84127 -0.842833 0
M  V30 19915 C 1943.8 1.8396 0.631594 0
M  V30 19916 O 1943.05 1.27871 1.48147 0
M  V30 19917 C 1943.35 3.31602 -1.33322 0
M  V30 19918 C 1943.02 3.51943 -2.81864 0
M  V30 19919 C 1941.68 3.57202 -3.22428 0
M  V30 19920 C 1944.03 3.59262 -3.77598 0
M  V30 19921 C 1941.36 3.67323 -4.57483 0
M  V30 19922 C 1943.71 3.70911 -5.12452 0
M  V30 19923 C 1942.38 3.74427 -5.52595 0
M  V30 19924 H 1941.65 0.673767 -0.308414 0
M  V30 19925 H 1944.29 1.32968 -1.3781 0
M  V30 19926 H 1942.6 3.85166 -0.717918 0
M  V30 19927 H 1944.3 3.85353 -1.10925 0
M  V30 19928 H 1940.89 3.4851 -2.49477 0
M  V30 19929 H 1945.07 3.54471 -3.47367 0
M  V30 19930 H 1940.33 3.68315 -4.88011 0
M  V30 19931 H 1944.5 3.75518 -5.8648 0
M  V30 19932 H 1942.13 3.82021 -6.5724 0
M  V30 19933 N 1943.7 0.89031 1.30043 0
M  V30 19934 C 1944.95 0.51044 1.95548 0
M  V30 19935 C 1945.27 -0.944562 1.70596 0
M  V30 19936 O 1944.54 -1.66482 1.0325 0
M  V30 19937 H 1943.12 0.185776 0.723531 0
M  V30 19938 H 1945.78 1.13455 1.58474 0
M  V30 19939 H 1944.88 0.685155 3.04487 0
M  V30 19940 N 1945.18 -1.43489 0.651812 0
M  V30 19941 C 1946.43 -2.02129 0.164876 0
M  V30 19942 C 1946.76 -1.51296 -1.2175 0
M  V30 19943 O 1946.03 -0.705492 -1.81254 0
M  V30 19944 C 1946.32 -3.59678 0.174184 0
M  V30 19945 C 1946.17 -4.20746 1.59038 0
M  V30 19946 C 1947.49 -4.37362 -0.490177 0
M  V30 19947 H 1944.61 -0.734439 0.0613871 0
M  V30 19948 H 1947.25 -1.70804 0.832229 0
M  V30 19949 H 1945.4 -3.86496 -0.394077 0
M  V30 19950 H 1947.07 -4.04964 2.20912 0
M  V30 19951 H 1945.31 -3.7745 2.13809 0
M  V30 19952 H 1945.99 -5.29828 1.54876 0
M  V30 19953 H 1948.46 -4.16099 -0.00670015 0
M  V30 19954 H 1947.34 -5.47028 -0.452932 0
M  V30 19955 H 1947.6 -4.13509 -1.56406 0
M  V30 19956 N 1946.66 -0.393643 -1.52605 0
M  V30 19957 C 1947.59 0.430786 -2.29492 0
M  V30 19958 C 1948.57 1.0597 -1.33058 0
M  V30 19959 O 1949.75 1.07165 -1.61955 0
M  V30 19960 C 1946.88 1.55599 -3.10494 0
M  V30 19961 C 1945.84 1.05289 -4.14847 0
M  V30 19962 C 1945.16 2.2705 -4.841 0
M  V30 19963 C 1946.46 0.117789 -5.22167 0
M  V30 19964 H 1948.16 -0.210741 -2.98657 0
M  V30 19965 H 1945.7 -0.102795 -1.43633 0
M  V30 19966 H 1947.66 2.1396 -3.63042 0
M  V30 19967 H 1946.38 2.22517 -2.39069 0
M  V30 19968 H 1945.04 0.491788 -3.63286 0
M  V30 19969 H 1944.69 2.92487 -4.09219 0
M  V30 19970 H 1944.39 1.94047 -5.54635 0
M  V30 19971 H 1945.91 2.86045 -5.39454 0
M  V30 19972 H 1947.33 0.609718 -5.70049 0
M  V30 19973 H 1945.72 -0.122689 -5.99975 0
M  V30 19974 H 1946.79 -0.832053 -4.77708 0
M  V30 19975 N 1948.14 1.57115 -0.123593 0
M  V30 19976 C 1949.07 2.18573 0.821462 0
M  V30 19977 C 1950.05 1.1271 1.27399 0
M  V30 19978 O 1951.23 1.40964 1.33577 0
M  V30 19979 C 1948.36 2.78879 2.06987 0
M  V30 19980 C 1947.32 3.90365 1.75497 0
M  V30 19981 C 1946.64 4.37499 3.07406 0
M  V30 19982 C 1947.94 5.12249 1.01972 0
M  V30 19983 H 1949.64 2.97798 0.309319 0
M  V30 19984 H 1947.18 1.43244 0.147338 0
M  V30 19985 H 1949.13 3.20534 2.73562 0
M  V30 19986 H 1947.86 1.96951 2.60534 0
M  V30 19987 H 1946.52 3.49293 1.1131 0
M  V30 19988 H 1946.17 3.52424 3.58896 0
M  V30 19989 H 1945.87 5.12682 2.87108 0
M  V30 19990 H 1947.39 4.81808 3.75091 0
M  V30 19991 H 1948.8 5.50894 1.58709 0
M  V30 19992 H 1947.2 5.93044 0.917526 0
M  V30 19993 H 1948.27 4.84899 0.00726173 0
M  V30 19994 N 1949.61 -0.150187 1.56883 0
M  V30 19995 C 1950.86 -0.859806 1.84334 0
M  V30 19996 C 1951.21 -1.78934 0.707134 0
M  V30 19997 O 1950.51 -1.89314 -0.29512 0
M  V30 19998 C 1950.7 -1.67394 3.15775 0
M  V30 19999 C 1950.53 -0.824738 4.42073 0
M  V30 20000 C 1949.3 -0.491592 5.02903 0
M  V30 20001 C 1951.5 -0.156535 5.14062 0
M  V30 20002 N 1949.48 0.371543 6.12775 0
M  V30 20003 C 1950.85 0.566871 6.17403 0
M  V30 20004 C 1952.91 -0.0768789 4.97841 0
M  V30 20005 C 1951.61 1.36241 7.0628 0
M  V30 20006 C 1953.64 0.705387 5.87178 0
M  V30 20007 C 1953 1.41709 6.89999 0
M  V30 20008 H 1949.1 -0.292557 0.725213 0
M  V30 20009 H 1951.68 -0.12538 1.94296 0
M  V30 20010 H 1949.85 -2.37963 3.06966 0
M  V30 20011 H 1951.58 -2.32649 3.31145 0
M  V30 20012 H 1948.34 -0.826634 4.6633 0
M  V30 20013 H 1948.76 0.794041 6.72327 0
M  V30 20014 H 1953.4 -0.61276 4.18336 0
M  V30 20015 H 1951.12 1.90956 7.85214 0
M  V30 20016 H 1954.71 0.76897 5.76696 0
M  V30 20017 H 1953.59 2.01268 7.57932 0
M  V30 20018 N 1951.09 -1.51916 -0.419434 0
M  V30 20019 C 1952 -1.77393 -1.53522 0
M  V30 20020 C 1953.02 -0.65897 -1.61039 0
M  V30 20021 O 1954.19 -0.943237 -1.77947 0
M  V30 20022 C 1951.26 -1.90988 -2.89352 0
M  V30 20023 C 1950.32 -3.14878 -2.91805 0
M  V30 20024 C 1949.55 -3.27815 -4.21157 0
M  V30 20025 O 1949.78 -2.4626 -5.14502 0
M  V30 20026 O 1948.71 -4.20906 -4.30258 0
M  V30 20027 H 1952.54 -2.72079 -1.34932 0
M  V30 20028 H 1950.12 -1.36635 -0.604259 0
M  V30 20029 H 1952 -2.01812 -3.69932 0
M  V30 20030 H 1950.68 -0.994906 -3.08031 0
M  V30 20031 H 1949.59 -3.0952 -2.10115 0
M  V30 20032 H 1950.92 -4.06123 -2.78073 0
M  V30 20033 N 1952.57 0.676023 -1.42365 0
M  V30 20034 C 1953.82 1.43183 -1.42062 0
M  V30 20035 C 1954.13 1.95559 -0.0400321 0
M  V30 20036 O 1955.34 2.71365 0.0855959 0
M  V30 20037 C 1953.79 2.5901 -2.49884 0
M  V30 20038 C 1953.4 2.13338 -3.93943 0
M  V30 20039 C 1955.15 3.36528 -2.58746 0
M  V30 20040 C 1953.05 3.2624 -4.93276 0
M  V30 20041 H 1951.98 0.537899 -0.528376 0
M  V30 20042 H 1954.63 0.732001 -1.68268 0
M  V30 20043 H 1953.02 3.31355 -2.16841 0
M  V30 20044 H 1954.19 1.48154 -4.36334 0
M  V30 20045 H 1952.51 1.48761 -3.8892 0
M  V30 20046 H 1955.1 4.2061 -3.30138 0
M  V30 20047 H 1955.45 3.83036 -1.63061 0
M  V30 20048 H 1955.98 2.71252 -2.90977 0
M  V30 20049 H 1952.72 2.84724 -5.90434 0
M  V30 20050 H 1952.24 3.90209 -4.55518 0
M  V30 20051 H 1953.92 3.91725 -5.14938 0
M  V30 20052 N 1954.05 1.28517 0.912209 0
M  V30 20053 C 1955.3 1.15761 1.6615 0
M  V30 20054 C 1955.62 -0.293495 1.92273 0
M  V30 20055 O 1954.88 -1.22975 1.52235 0
M  V30 20056 C 1955.18 1.90307 3.02519 0
M  V30 20057 C 1954.84 3.40095 2.96051 0
M  V30 20058 C 1953.51 3.80948 2.93994 0
M  V30 20059 C 1955.86 4.35601 2.86185 0
M  V30 20060 C 1953.19 5.15643 2.79873 0
M  V30 20061 C 1955.54 5.70371 2.73604 0
M  V30 20062 C 1954.2 6.10497 2.69906 0
M  V30 20063 H 1953.47 0.423598 0.607985 0
M  V30 20064 H 1956.12 1.59309 1.06268 0
M  V30 20065 H 1954.42 1.39312 3.66196 0
M  V30 20066 H 1956.12 1.77852 3.59402 0
M  V30 20067 H 1952.71 3.07615 2.98447 0
M  V30 20068 H 1956.89 4.05 2.8686 0
M  V30 20069 H 1952.15 5.45858 2.75407 0
M  V30 20070 H 1956.32 6.44035 2.64939 0
M  V30 20071 H 1953.95 7.1482 2.58722 0
M  V30 20072 N 1955.53 -1.12086 1.1079 0
M  V30 20073 C 1956.75 -1.88034 0.875097 0
M  V30 20074 C 1957.18 -1.79281 -0.569191 0
M  V30 20075 O 1956.53 -1.15037 -1.40129 0
M  V30 20076 C 1956.58 -3.35066 1.33278 0
M  V30 20077 O 1955.69 -4.09356 0.500163 0
M  V30 20078 H 1955.03 -0.584116 0.31576 0
M  V30 20079 H 1957.56 -1.41725 1.47564 0
M  V30 20080 H 1957.57 -3.85908 1.32434 0
M  V30 20081 H 1956.24 -3.40753 2.38453 0
M  V30 20082 H 1954.82 -3.68454 0.574137 0
M  V30 20083 N 1957 -0.897194 -1.29569 0
M  V30 20084 C 1957.93 -0.389601 -2.30227 0
M  V30 20085 C 1958.92 0.53405 -1.61499 0
M  V30 20086 O 1960.1 0.44531 -1.89025 0
M  V30 20087 C 1957.23 0.385966 -3.45149 0
M  V30 20088 C 1956.18 -0.447028 -4.25659 0
M  V30 20089 C 1955.51 0.455883 -5.32753 0
M  V30 20090 C 1956.81 -1.69562 -4.9401 0
M  V30 20091 H 1958.5 -1.23077 -2.72933 0
M  V30 20092 H 1956.05 -0.593265 -1.31211 0
M  V30 20093 H 1958 0.751791 -4.1464 0
M  V30 20094 H 1956.73 1.26089 -3.01279 0
M  V30 20095 H 1955.39 -0.795152 -3.57873 0
M  V30 20096 H 1955.03 1.32887 -4.85129 0
M  V30 20097 H 1954.73 -0.0977528 -5.87519 0
M  V30 20098 H 1956.26 0.817956 -6.05097 0
M  V30 20099 H 1957.67 -1.39968 -5.55951 0
M  V30 20100 H 1956.07 -2.19039 -5.58697 0
M  V30 20101 H 1957.14 -2.43305 -4.19441 0
M  V30 20102 N 1958.48 1.43142 -0.659413 0
M  V30 20103 C 1959.73 2.01341 -0.174987 0
M  V30 20104 C 1960.05 1.52322 1.21749 0
M  V30 20105 O 1959.32 0.738424 1.8145 0
M  V30 20106 H 1957.9 0.744447 -0.0617013 0
M  V30 20107 H 1960.56 1.75268 -0.852471 0
M  V30 20108 H 1959.66 3.11667 -0.164379 0
M  V30 20109 N 1959.96 0.40173 1.52394 0
M  V30 20110 C 1961.19 -0.175915 2.0585 0
M  V30 20111 C 1961.6 -1.40031 1.27232 0
M  V30 20112 O 1960.94 -1.80972 0.315396 0
M  V30 20113 C 1961 -0.598467 3.54484 0
M  V30 20114 C 1960.67 0.514174 4.54098 0
M  V30 20115 C 1961.66 1.37546 5.01375 0
M  V30 20116 C 1959.35 0.684753 4.97611 0
M  V30 20117 C 1961.34 2.39233 5.90801 0
M  V30 20118 C 1959.03 1.70495 5.86834 0
M  V30 20119 C 1960.03 2.55715 6.33324 0
M  V30 20120 O 1959.72 3.55989 7.20782 0
M  V30 20121 H 1959.45 -0.0272021 0.675452 0
M  V30 20122 H 1962 0.569114 1.97358 0
M  V30 20123 H 1960.23 -1.39566 3.60636 0
M  V30 20124 H 1961.92 -1.10319 3.90621 0
M  V30 20125 H 1962.69 1.25504 4.6848 0
M  V30 20126 H 1958.57 0.0311144 4.60989 0
M  V30 20127 H 1962.11 3.05785 6.2701 0
M  V30 20128 H 1958.01 1.82571 6.19143 0
M  V30 20129 H 1958.78 3.52145 7.38875 0
M  V30 20130 N 1961.44 -1.57047 0.131923 0
M  V30 20131 C 1962.37 -2.11735 -0.851089 0
M  V30 20132 C 1963.35 -1.03702 -1.25239 0
M  V30 20133 O 1964.53 -1.31438 -1.35116 0
M  V30 20134 C 1961.66 -2.62468 -2.14075 0
M  V30 20135 C 1960.71 -3.82508 -1.88653 0
M  V30 20136 S 1961.54 -5.24266 -1.09112 0
M  V30 20137 C 1962.7 -5.78377 -2.3923 0
M  V30 20138 H 1962.93 -2.94784 -0.385975 0
M  V30 20139 H 1960.46 -1.54182 -0.0820933 0
M  V30 20140 H 1962.42 -2.92351 -2.88169 0
M  V30 20141 H 1961.08 -1.79578 -2.57703 0
M  V30 20142 H 1960.27 -4.16198 -2.84245 0
M  V30 20143 H 1959.88 -3.53308 -1.22675 0
M  V30 20144 H 1962.17 -5.8889 -3.34985 0
M  V30 20145 H 1963.11 -6.76223 -2.10066 0
M  V30 20146 H 1963.52 -5.06523 -2.49189 0
M  V30 20147 N 1962.92 0.141865 -1.5696 0
M  V30 20148 C 1964.33 0.701408 -1.73024 0
M  V30 20149 C 1964.68 1.81418 -0.747124 0
M  V30 20150 O 1963.8 2.16233 0.0851134 0
M  V30 20151 C 1964.4 1.2791 -3.13727 0
M  V30 20152 C 1962.96 1.78516 -3.31374 0
M  V30 20153 C 1962.1 0.67567 -2.68942 0
M  V30 20154 H 1965.06 -0.083853 -1.58478 0
M  V30 20155 H 1965.08 2.1489 -3.14011 0
M  V30 20156 H 1964.59 0.468988 -3.85256 0
M  V30 20157 H 1962.69 2.62078 -2.6485 0
M  V30 20158 H 1962.8 1.91034 -4.39366 0
M  V30 20159 H 1961.17 1.10358 -2.2955 0
M  V30 20160 H 1961.95 -0.123088 -3.43079 0
M  V30 20161 N 1964.39 1.52136 0.411372 0
M  V30 20162 C 1965.62 1.69684 1.1786 0
M  V30 20163 C 1966.03 0.404974 1.84815 0
M  V30 20164 O 1965.38 -0.62867 1.72608 0
M  V30 20165 C 1965.44 2.77473 2.2858 0
M  V30 20166 C 1965.1 4.19291 1.81779 0
M  V30 20167 C 1966.1 5.03208 1.3068 0
M  V30 20168 C 1963.78 4.65515 1.88681 0
M  V30 20169 C 1965.78 6.31421 0.871024 0
M  V30 20170 C 1963.46 5.93718 1.44715 0
M  V30 20171 C 1964.46 6.76499 0.940104 0
M  V30 20172 O 1964.15 8.02301 0.506777 0
M  V30 20173 H 1963.88 0.571996 0.360273 0
M  V30 20174 H 1966.44 1.9946 0.490399 0
M  V30 20175 H 1964.67 2.43068 3.00757 0
M  V30 20176 H 1966.36 2.83642 2.90348 0
M  V30 20177 H 1967.12 4.68689 1.24722 0
M  V30 20178 H 1963 4.01186 2.27091 0
M  V30 20179 H 1966.54 6.95984 0.474571 0
M  V30 20180 H 1962.44 6.27746 1.50351 0
M  V30 20181 H 1963.21 8.1607 0.630289 0
M  V30 20182 N 1965.87 -0.668464 1.42721 0
M  V30 20183 C 1967.28 -1.24925 1.38747 0
M  V30 20184 C 1967.64 -1.96021 0.0838911 0
M  V30 20185 O 1966.76 -2.00378 -0.817178 0
M  V30 20186 C 1967.36 -2.27201 2.51327 0
M  V30 20187 C 1965.91 -2.80792 2.50665 0
M  V30 20188 C 1965.06 -1.55205 2.29797 0
M  V30 20189 H 1968.01 -0.461443 1.51843 0
M  V30 20190 H 1968.03 -3.09067 2.21941 0
M  V30 20191 H 1967.55 -1.75428 3.46189 0
M  V30 20192 H 1965.65 -3.36669 1.59639 0
M  V30 20193 H 1965.76 -3.29376 3.4792 0
M  V30 20194 H 1964.12 -1.82004 1.78176 0
M  V30 20195 H 1964.91 -1.05389 3.26723 0
M  V30 20196 N 1967.35 -1.28999 -0.905381 0
M  V30 20197 C 1968.58 -1.19632 -1.69419 0
M  V30 20198 C 1969 0.240433 -1.86557 0
M  V30 20199 O 1968.36 1.17374 -1.38177 0
M  V30 20200 C 1968.41 -1.90881 -3.05936 0
M  V30 20201 O 1967.51 -1.22198 -3.9388 0
M  V30 20202 H 1966.85 -0.414842 -0.518461 0
M  V30 20203 H 1969.38 -1.70468 -1.13145 0
M  V30 20204 H 1969.39 -1.99115 -3.56114 0
M  V30 20205 H 1968.07 -2.95385 -2.9278 0
M  V30 20206 H 1966.64 -1.22185 -3.52314 0
M  V30 20207 N 1968.83 1.11497 -1.11383 0
M  V30 20208 C 1969.78 2.1752 -0.771611 0
M  V30 20209 C 1970.75 1.64106 0.256616 0
M  V30 20210 O 1971.93 1.90331 0.133672 0
M  V30 20211 C 1969.07 3.44396 -0.220313 0
M  V30 20212 C 1968.18 4.11817 -1.30503 0
M  V30 20213 C 1967.32 5.26375 -0.714331 0
M  V30 20214 C 1966.36 5.85679 -1.77894 0
M  V30 20215 N 1965.5 6.91634 -1.20778 0
M  V30 20216 H 1970.34 2.46138 -1.67989 0
M  V30 20217 H 1967.87 1.20832 -0.838927 0
M  V30 20218 H 1969.83 4.17035 0.117286 0
M  V30 20219 H 1968.46 3.16164 0.651161 0
M  V30 20220 H 1967.51 3.37258 -1.75959 0
M  V30 20221 H 1968.82 4.5195 -2.11051 0
M  V30 20222 H 1967.98 6.05819 -0.326754 0
M  V30 20223 H 1966.72 4.87546 0.12248 0
M  V30 20224 H 1965.72 5.04914 -2.17583 0
M  V30 20225 H 1966.95 6.26576 -2.61877 0
M  V30 20226 H 1964.89 6.54824 -0.392602 0
M  V30 20227 H 1964.81 7.30419 -1.94998 0
M  V30 20228 H 1966.08 7.74884 -0.847072 0
M  V30 20229 N 1970.31 0.904053 1.29092 0
M  V30 20230 C 1971.53 0.547082 2.00054 0
M  V30 20231 C 1971.96 -0.862026 1.67185 0
M  V30 20232 O 1971.32 -1.57449 0.898855 0
M  V30 20233 C 1971.36 0.751495 3.52682 0
M  V30 20234 O 1970.47 -0.194004 4.11943 0
M  V30 20235 H 1969.81 0.213241 0.628828 0
M  V30 20236 H 1972.34 1.21683 1.64482 0
M  V30 20237 H 1972.35 0.657831 4.02662 0
M  V30 20238 H 1971.02 1.77878 3.75942 0
M  V30 20239 H 1969.6 -0.0524281 3.72863 0
M  V30 20240 N 1971.79 -1.4279 0.666995 0
M  V30 20241 C 1972.73 -2.32583 -0.0279199 0
M  V30 20242 C 1973.73 -1.49387 -0.79874 0
M  V30 20243 O 1974.93 -1.65509 -0.707585 0
M  V30 20244 H 1971.31 -0.751485 -0.0278204 0
M  V30 20245 H 1973.28 -2.88901 0.746913 0
M  V30 20246 C 1972.03 -3.33869 -0.970921 0
M  V30 20247 H 1971.35 -3.9792 -0.387213 0
M  V30 20248 H 1972.79 -3.99301 -1.42599 0
M  V30 20249 C 1971.25 -2.65527 -2.07358 0
M  V30 20250 O 1971.78 -2.48123 -3.15908 0
M  V30 20251 N 1969.99 -2.24677 -1.84305 0
M  V30 20252 H 1969.53 -2.39032 -0.960283 0
M  V30 20253 H 1969.49 -1.79282 -2.58274 0
M  V30 20254 N 1973.26 -0.409806 -1.52179 0
M  V30 20255 C 1974.2 0.450738 -2.24724 0
M  V30 20256 C 1975.21 1.00962 -1.27713 0
M  V30 20257 O 1976.4 0.908449 -1.53654 0
M  V30 20258 C 1973.5 1.63947 -2.96605 0
M  V30 20259 C 1972.67 1.20435 -4.20493 0
M  V30 20260 C 1971.73 2.26007 -4.75192 0
M  V30 20261 O 1970.76 1.86569 -5.37755 0
M  V30 20262 N 1971.96 3.58179 -4.56824 0
M  V30 20263 H 1974.72 -0.170894 -2.99212 0
M  V30 20264 H 1972.28 -0.237221 -1.60153 0
M  V30 20265 H 1974.28 2.34138 -3.30093 0
M  V30 20266 H 1972.85 2.16701 -2.25299 0
M  V30 20267 H 1972.07 0.330532 -3.92812 0
M  V30 20268 H 1973.35 0.890608 -5.00945 0
M  V30 20269 H 1972.75 3.92969 -4.0693 0
M  V30 20270 H 1971.31 4.24345 -4.94747 0
M  V30 20271 N 1974.74 1.56975 -0.14025 0
M  V30 20272 C 1975.65 2.19981 0.815207 0
M  V30 20273 C 1976.67 1.18211 1.2768 0
M  V30 20274 O 1977.84 1.50762 1.33539 0
M  V30 20275 C 1974.91 2.80369 2.03946 0
M  V30 20276 C 1973.97 3.97244 1.62774 0
M  V30 20277 C 1973.2 4.54744 2.79363 0
M  V30 20278 O 1973.43 4.11124 3.9539 0
M  V30 20279 O 1972.36 5.45109 2.55224 0
M  V30 20280 H 1976.19 3.02125 0.308908 0
M  V30 20281 H 1973.77 1.4915 0.0864409 0
M  V30 20282 H 1975.65 3.18778 2.75606 0
M  V30 20283 H 1974.33 2.01243 2.53541 0
M  V30 20284 H 1973.23 3.63564 0.88158 0
M  V30 20285 H 1974.57 4.7787 1.17901 0
M  V30 20286 N 1976.22 -0.133539 1.57033 0
M  V30 20287 C 1977.47 -0.845109 1.84352 0
M  V30 20288 C 1977.8 -1.80205 0.723864 0
M  V30 20289 O 1977.07 -1.92596 -0.271485 0
M  V30 20290 C 1977.36 -1.6078 3.22214 0
M  V30 20291 C 1977.21 -0.671438 4.4476 0
M  V30 20292 C 1978.53 -2.56728 3.57462 0
M  V30 20293 H 1975.65 -0.305783 0.670571 0
M  V30 20294 H 1978.29 -0.109825 1.89682 0
M  V30 20295 H 1976.44 -2.23461 3.17801 0
M  V30 20296 H 1978.11 -0.0545922 4.61268 0
M  V30 20297 H 1976.35 0.018069 4.33796 0
M  V30 20298 H 1977.03 -1.24142 5.37859 0
M  V30 20299 H 1979.5 -2.04159 3.62572 0
M  V30 20300 H 1978.38 -3.07133 4.54929 0
M  V30 20301 H 1978.64 -3.38717 2.84119 0
M  V30 20302 N 1977.7 -1.52352 -0.403298 0
M  V30 20303 C 1978.63 -1.79074 -1.49849 0
M  V30 20304 C 1979.61 -0.642006 -1.57519 0
M  V30 20305 O 1980.79 -0.888182 -1.72699 0
M  V30 20306 C 1977.92 -1.9467 -2.87612 0
M  V30 20307 C 1976.88 -3.10295 -2.9479 0
M  V30 20308 C 1976.2 -3.11122 -4.34864 0
M  V30 20309 C 1977.5 -4.49643 -2.65741 0
M  V30 20310 H 1979.2 -2.70783 -1.27737 0
M  V30 20311 H 1976.74 -1.30298 -0.613064 0
M  V30 20312 H 1978.7 -2.11947 -3.64221 0
M  V30 20313 H 1977.42 -0.996377 -3.1103 0
M  V30 20314 H 1976.08 -2.92778 -2.20627 0
M  V30 20315 H 1975.73 -2.13801 -4.553 0
M  V30 20316 H 1975.43 -3.88786 -4.4059 0
M  V30 20317 H 1976.95 -3.30536 -5.13399 0
M  V30 20318 H 1978.37 -4.67335 -3.3207 0
M  V30 20319 H 1976.76 -5.29268 -2.82835 0
M  V30 20320 H 1977.83 -4.57339 -1.61149 0
M  V30 20321 N 1979.18 0.660885 -1.43074 0
M  V30 20322 C 1980.09 1.80324 -1.50068 0
M  V30 20323 C 1981.1 1.69611 -0.388331 0
M  V30 20324 O 1982.28 1.90916 -0.641321 0
M  V30 20325 C 1979.34 3.16557 -1.41394 0
M  V30 20326 C 1978.4 3.39124 -2.63236 0
M  V30 20327 C 1977.64 4.68858 -2.54967 0
M  V30 20328 O 1977.86 5.47699 -1.59318 0
M  V30 20329 O 1976.79 4.92975 -3.45339 0
M  V30 20330 H 1980.62 1.77379 -2.46516 0
M  V30 20331 H 1978.2 0.8184 -1.2499 0
M  V30 20332 H 1980.09 3.97825 -1.38971 0
M  V30 20333 H 1978.76 3.2011 -0.480768 0
M  V30 20334 H 1977.67 2.5765 -2.71233 0
M  V30 20335 H 1979 3.40413 -3.555 0
M  V30 20336 N 1980.65 1.29477 0.898527 0
M  V30 20337 C 1981.9 1.17516 1.64913 0
M  V30 20338 C 1982.23 -0.273086 1.92573 0
M  V30 20339 O 1981.48 -1.21353 1.53531 0
M  V30 20340 C 1981.78 1.93505 3.00484 0
M  V30 20341 C 1981.45 3.43216 2.92427 0
M  V30 20342 C 1980.11 3.84044 2.89937 0
M  V30 20343 C 1982.46 4.38611 2.81548 0
M  V30 20344 C 1979.79 5.18582 2.74389 0
M  V30 20345 C 1982.14 5.73241 2.67539 0
M  V30 20346 C 1980.81 6.13326 2.63416 0
M  V30 20347 H 1980.08 0.430023 0.603458 0
M  V30 20348 H 1982.72 1.60427 1.04572 0
M  V30 20349 H 1981.03 1.43189 3.64698 0
M  V30 20350 H 1982.73 1.81654 3.57495 0
M  V30 20351 H 1979.32 3.10763 2.95168 0
M  V30 20352 H 1983.5 4.0802 2.82548 0
M  V30 20353 H 1978.76 5.48748 2.69602 0
M  V30 20354 H 1982.93 6.46808 2.58093 0
M  V30 20355 H 1980.56 7.17523 2.51126 0
M  V30 20356 N 1982.13 -1.10905 1.11972 0
M  V30 20357 C 1983.38 -1.83033 0.873311 0
M  V30 20358 C 1983.71 -1.84716 -0.599472 0
M  V30 20359 O 1982.99 -1.30427 -1.44288 0
M  V30 20360 C 1983.27 -3.29941 1.44261 0
M  V30 20361 C 1983.12 -3.36619 2.98341 0
M  V30 20362 C 1984.44 -4.26179 1.09815 0
M  V30 20363 H 1981.56 -0.664529 0.318701 0
M  V30 20364 H 1984.2 -1.30012 1.38553 0
M  V30 20365 H 1982.35 -3.75223 1.00697 0
M  V30 20366 H 1984.02 -2.99854 3.5055 0
M  V30 20367 H 1982.27 -2.76668 3.34122 0
M  V30 20368 H 1982.94 -4.40043 3.33266 0
M  V30 20369 H 1985.41 -3.89105 1.47433 0
M  V30 20370 H 1984.29 -5.27343 1.52318 0
M  V30 20371 H 1984.55 -4.42099 0.00966838 0
M  V30 20372 N 1983.61 -0.910886 -1.2861 0
M  V30 20373 C 1984.84 -0.558332 -1.99224 0
M  V30 20374 C 1985.25 0.859686 -1.68092 0
M  V30 20375 O 1984.61 1.56902 -0.932092 0
M  V30 20376 C 1984.66 -0.754443 -3.5354 0
M  V30 20377 O 1984.38 -2.11666 -3.83574 0
M  V30 20378 C 1985.88 -0.408335 -4.41415 0
M  V30 20379 H 1983.1 -0.213139 -0.636249 0
M  V30 20380 H 1985.65 -1.2233 -1.63877 0
M  V30 20381 H 1983.8 -0.136504 -3.87159 0
M  V30 20382 H 1984.22 -2.15422 -4.78219 0
M  V30 20383 H 1985.69 -0.596337 -5.48769 0
M  V30 20384 H 1986.17 0.655276 -4.34284 0
M  V30 20385 H 1986.77 -1.00369 -4.13287 0
M  V30 20386 N 1985.09 1.42434 -0.674558 0
M  V30 20387 C 1986.31 2.06399 -0.203545 0
M  V30 20388 C 1986.74 1.50345 1.1304 0
M  V30 20389 O 1986.1 0.621837 1.70302 0
M  V30 20390 C 1986.14 3.60293 -0.148884 0
M  V30 20391 O 1985.25 4.02843 0.882667 0
M  V30 20392 H 1984.59 0.655698 -0.104672 0
M  V30 20393 H 1987.12 1.82572 -0.923502 0
M  V30 20394 H 1987.13 4.07991 0.0273375 0
M  V30 20395 H 1985.8 4.00464 -1.12256 0
M  V30 20396 H 1984.38 3.66694 0.677506 0
M  V30 20397 N 1986.57 0.417871 1.51959 0
M  V30 20398 C 1987.81 -0.154746 2.01507 0
M  V30 20399 C 1988.14 -1.44898 1.30497 0
M  V30 20400 O 1987.41 -1.91043 0.433536 0
M  V30 20401 H 1985.99 -0.0601759 0.744572 0
M  V30 20402 H 1988.65 0.556118 1.86798 0
M  V30 20403 H 1987.74 -0.344616 3.10192 0
M  V30 20404 N 1988.04 -1.56898 0.148573 0
M  V30 20405 C 1989.29 -1.95788 -0.501154 0
M  V30 20406 C 1989.61 -1.03451 -1.65297 0
M  V30 20407 O 1988.88 -0.0963607 -1.95663 0
M  V30 20408 H 1987.46 -0.722922 -0.188129 0
M  V30 20409 H 1990.13 -1.93603 0.224439 0
M  V30 20410 H 1989.22 -2.99547 -0.876258 0
M  V30 20411 N 1989.52 0.125209 -1.57102 0
M  V30 20412 C 1990.94 0.478555 -1.52256 0
M  V30 20413 C 1991.14 1.82199 -0.860573 0
M  V30 20414 O 1990.19 2.48632 -0.440282 0
M  V30 20415 C 1991.51 0.46877 -2.97024 0
M  V30 20416 C 1993.06 0.552759 -3.0808 0
M  V30 20417 C 1993.53 0.573425 -4.54396 0
M  V30 20418 N 1995.02 0.635039 -4.58826 0
M  V30 20419 C 1995.76 0.672375 -5.69444 0
M  V30 20420 N 1995.25 0.667732 -6.89575 0
M  V30 20421 N 1997.05 0.714913 -5.57535 0
M  V30 20422 H 1989.2 -0.755121 -1.98524 0
M  V30 20423 H 1991.46 -0.27786 -0.906365 0
M  V30 20424 H 1991.17 -0.450582 -3.48802 0
M  V30 20425 H 1991.04 1.29884 -3.54133 0
M  V30 20426 H 1993.43 1.46253 -2.56308 0
M  V30 20427 H 1993.51 -0.304874 -2.53977 0
M  V30 20428 H 1993.15 -0.332277 -5.06812 0
M  V30 20429 H 1993.08 1.44786 -5.06305 0
M  V30 20430 H 1995.57 0.645043 -3.72354 0
M  V30 20431 H 1995.89 0.698672 -7.69635 0
M  V30 20432 H 1994.23 0.635256 -6.92091 0
M  V30 20433 H 1997.42 0.715861 -4.62594 0
M  V30 20434 H 1997.59 0.740542 -6.43755 0
M  V30 20435 N 1991 1.52564 0.395213 0
M  V30 20436 C 1991.93 1.71641 1.50382 0
M  V30 20437 C 1992.91 0.564147 1.525 0
M  V30 20438 O 1994.1 0.793198 1.70999 0
M  V30 20439 C 1991.22 1.76838 2.8887 0
M  V30 20440 C 1990.27 2.98527 3.04605 0
M  V30 20441 S 1991.1 4.5862 2.76456 0
M  V30 20442 C 1992.26 4.66624 4.17149 0
M  V30 20443 H 1992.49 2.65402 1.33973 0
M  V30 20444 H 1990.02 1.42778 0.587689 0
M  V30 20445 H 1991.98 1.80518 3.68678 0
M  V30 20446 H 1990.64 0.841802 3.02609 0
M  V30 20447 H 1989.84 2.98686 4.05959 0
M  V30 20448 H 1989.44 2.92806 2.32681 0
M  V30 20449 H 1991.73 4.44856 5.10988 0
M  V30 20450 H 1992.67 5.68608 4.22008 0
M  V30 20451 H 1993.08 3.95522 4.02768 0
M  V30 20452 N 1992.48 -0.653289 1.43422 0
M  V30 20453 C 1993.76 -1.41051 1.35513 0
M  V30 20454 C 1994.14 -2.111 0.00290798 0
M  V30 20455 O 1993.48 -2.04786 -1.01365 0
M  V30 20456 C 1993.69 -2.39526 2.53827 0
M  V30 20457 C 1995.04 -3.03528 2.96911 0
M  V30 20458 O 1996.07 -2.49854 2.53873 0
M  V30 20459 O 1994.92 -4.00843 3.71466 0
M  V30 20460 H 1992.02 -0.630186 0.535532 0
M  V30 20461 H 1994.56 -0.680203 1.55471 0
M  V30 20462 H 1993.34 -1.86712 3.43881 0
M  V30 20463 H 1992.96 -3.20007 2.35968 0
M  V30 20464 N 1993.96 -1.29952 -0.891648 0
M  V30 20465 C 1995.37 -1.16586 -1.45824 0
M  V30 20466 C 1995.72 0.235978 -1.94776 0
M  V30 20467 O 1994.84 1.13214 -1.84422 0
M  V30 20468 C 1995.44 -2.11036 -2.65046 0
M  V30 20469 C 1994 -2.01668 -3.17816 0
M  V30 20470 C 1993.14 -2.015 -1.90507 0
M  V30 20471 H 1996.1 -1.42319 -0.702216 0
M  V30 20472 H 1996.12 -1.68729 -3.41044 0
M  V30 20473 H 1995.63 -3.13054 -2.29387 0
M  V30 20474 H 1993.73 -1.02767 -3.58147 0
M  V30 20475 H 1993.84 -2.89729 -3.81568 0
M  V30 20476 H 1992.21 -1.46209 -2.08555 0
M  V30 20477 H 1992.99 -3.05237 -1.57115 0
M  V30 20478 N 1995.44 1.1031 -1.12559 0
M  V30 20479 C 1996.85 1.63801 -0.895891 0
M  V30 20480 C 1997.2 1.87753 0.569511 0
M  V30 20481 O 1996.32 1.62046 1.43423 0
M  V30 20482 C 1996.92 2.9757 -1.6198 0
M  V30 20483 C 1995.48 3.47922 -1.43622 0
M  V30 20484 C 1994.62 2.22506 -1.65489 0
M  V30 20485 H 1997.57 0.937927 -1.28018 0
M  V30 20486 H 1997.6 3.65099 -1.07159 0
M  V30 20487 H 1997.11 2.80105 -2.68631 0
M  V30 20488 H 1995.21 3.70529 -0.392328 0
M  V30 20489 H 1995.32 4.25953 -2.1932 0
M  V30 20490 H 1993.69 2.30712 -1.07908 0
M  V30 20491 H 1994.47 2.07571 -2.7344 0
M  V30 20492 N 1996.91 0.917694 1.28125 0
M  V30 20493 C 1997.86 0.407628 2.27172 0
M  V30 20494 C 1998.83 -0.520056 1.57749 0
M  V30 20495 O 2000.02 -0.441394 1.85624 0
M  V30 20496 C 1997.16 -0.342648 3.43395 0
M  V30 20497 C 1996.27 0.617993 4.27557 0
M  V30 20498 C 1995.4 -0.151124 5.30985 0
M  V30 20499 C 1994.44 0.802876 6.06812 0
M  V30 20500 N 1993.58 0.0670251 7.02068 0
M  V30 20501 H 1998.42 1.25728 2.70179 0
M  V30 20502 H 1995.96 0.631273 1.32866 0
M  V30 20503 H 1997.91 -0.793873 4.09577 0
M  V30 20504 H 1996.54 -1.15661 3.01367 0
M  V30 20505 H 1995.6 1.18775 3.61382 0
M  V30 20506 H 1996.91 1.3475 4.80254 0
M  V30 20507 H 1996.06 -0.662729 6.03069 0
M  V30 20508 H 1994.8 -0.913657 4.79065 0
M  V30 20509 H 1993.81 1.32582 5.33575 0
M  V30 20510 H 1995.03 1.56503 6.6082 0
M  V30 20511 H 1992.98 -0.677445 6.52493 0
M  V30 20512 H 1992.89 0.736283 7.52406 0
M  V30 20513 H 1994.16 -0.424255 7.78345 0
M  V30 20514 N 1998.39 -1.42074 0.682102 0
M  V30 20515 C 1999.34 -2.326 -0.00324978 0
M  V30 20516 C 2000.33 -1.50226 -0.782851 0
M  V30 20517 O 2001.54 -1.6625 -0.689991 0
M  V30 20518 H 1997.91 -0.751738 -0.0198484 0
M  V30 20519 H 1999.89 -2.88093 0.777513 0
M  V30 20520 C 1998.63 -3.3488 -0.935455 0
M  V30 20521 H 1997.96 -3.98309 -0.344986 0
M  V30 20522 H 1999.4 -4.00791 -1.38355 0
M  V30 20523 C 1997.86 -2.67711 -2.0453 0
M  V30 20524 O 1998.39 -2.5146 -3.13258 0
M  V30 20525 N 1996.59 -2.2662 -1.81912 0
M  V30 20526 H 1996.14 -2.40037 -0.934876 0
M  V30 20527 H 1996.1 -1.82011 -2.56358 0
M  V30 20528 N 1999.87 -0.425924 -1.51735 0
M  V30 20529 C 2001.11 0.143658 -2.03895 0
M  V30 20530 C 2001.47 1.40947 -1.30376 0
M  V30 20531 O 2002.67 2.05857 -1.72848 0
M  V30 20532 C 2000.95 0.368683 -3.55493 0
M  V30 20533 S 2002.5 0.903307 -4.29402 0
M  V30 20534 H 1999.32 0.0371973 -0.710026 0
M  V30 20535 H 2001.92 -0.582706 -1.86614 0
M  V30 20536 H 2000.63 -0.559105 -4.06574 0
M  V30 20537 H 2000.16 1.12245 -3.77047 0
M  V30 20538 H 2002.17 2.18213 -4.45643 0
M  V30 20539 N 2001.35 1.56817 -0.156891 0
M  V30 20540 C 2002.76 1.83151 0.362283 0
M  V30 20541 C 2003.11 1.07606 1.64059 0
M  V30 20542 O 2002.23 0.324479 2.13953 0
M  V30 20543 C 2002.83 3.32228 0.664072 0
M  V30 20544 C 2001.39 3.59109 1.12773 0
M  V30 20545 C 2000.54 2.76861 0.155995 0
M  V30 20546 H 2003.49 1.54048 -0.381419 0
M  V30 20547 H 2003.51 3.48921 1.5177 0
M  V30 20548 H 2003.02 3.87184 -0.266475 0
M  V30 20549 H 2001.12 3.0955 2.07388 0
M  V30 20550 H 2001.23 4.67523 1.04687 0
M  V30 20551 H 1999.6 2.46251 0.650561 0
M  V30 20552 H 2000.38 3.34592 -0.768318 0
M  V30 20553 N 2002.83 -0.116876 1.57166 0
M  V30 20554 C 2004.07 -0.822659 1.84599 0
M  V30 20555 C 2004.39 -1.80315 0.742392 0
M  V30 20556 O 2003.66 -1.94505 -0.233411 0
M  V30 20557 H 2002.24 -0.306797 0.681091 0
M  V30 20558 H 2004.91 -0.103693 1.94624 0
M  V30 20559 H 2004 -1.36659 2.8059 0
M  V30 20560 N 2004.3 -1.52772 -0.387116 0
M  V30 20561 C 2005.71 -1.59829 -0.964966 0
M  V30 20562 C 2006.07 -0.452304 -1.90915 0
M  V30 20563 O 2005.19 0.424353 -2.12199 0
M  V30 20564 C 2005.79 -2.89687 -1.7569 0
M  V30 20565 C 2004.34 -2.99151 -2.28442 0
M  V30 20566 C 2003.49 -2.54957 -1.0905 0
M  V30 20567 H 2006.44 -1.57823 -0.1666 0
M  V30 20568 H 2006.46 -2.76279 -2.6163 0
M  V30 20569 H 2005.98 -3.73074 -1.06945 0
M  V30 20570 H 2004.08 -2.20305 -3.00494 0
M  V30 20571 H 2004.19 -4.03827 -2.578 0
M  V30 20572 H 2002.55 -2.09321 -1.45109 0
M  V30 20573 H 2003.34 -3.40741 -0.418373 0
M  V30 20574 N 2005.78 0.645673 -1.43767 0
M  V30 20575 C 2007.03 1.40756 -1.45999 0
M  V30 20576 C 2007.36 1.94006 -0.0867413 0
M  V30 20577 O 2006.64 1.72761 0.893532 0
M  V30 20578 C 2006.92 2.58349 -2.50854 0
M  V30 20579 C 2006.77 2.10542 -3.97482 0
M  V30 20580 C 2008.09 3.60555 -2.52364 0
M  V30 20581 H 2005.21 0.510461 -0.5316 0
M  V30 20582 H 2007.85 0.731338 -1.75361 0
M  V30 20583 H 2006 3.16038 -2.25947 0
M  V30 20584 H 2007.67 1.57795 -4.33472 0
M  V30 20585 H 2005.92 1.41848 -4.09953 0
M  V30 20586 H 2006.59 2.95137 -4.66474 0
M  V30 20587 H 2009.06 3.12639 -2.74583 0
M  V30 20588 H 2007.94 4.40375 -3.2766 0
M  V30 20589 H 2008.2 4.13654 -1.56022 0
M  V30 20590 N 2007.26 1.30423 0.884744 0
M  V30 20591 C 2008.49 1.22007 1.66727 0
M  V30 20592 C 2008.9 -0.219474 1.87923 0
M  V30 20593 O 2008.24 -1.1569 1.42694 0
M  V30 20594 C 2008.3 1.87825 3.06532 0
M  V30 20595 C 2007.97 3.37154 3.08507 0
M  V30 20596 C 2008.96 4.33143 2.87547 0
M  V30 20597 C 2006.65 3.78604 3.30097 0
M  V30 20598 C 2008.64 5.68557 2.88135 0
M  V30 20599 C 2006.33 5.14136 3.30314 0
M  V30 20600 C 2007.33 6.08923 3.09357 0
M  V30 20601 O 2007.02 7.41979 3.09391 0
M  V30 20602 H 2006.75 0.423347 0.527023 0
M  V30 20603 H 2009.3 1.72587 1.11369 0
M  V30 20604 H 2007.53 1.31776 3.63555 0
M  V30 20605 H 2009.22 1.73527 3.66938 0
M  V30 20606 H 2009.99 4.0245 2.70664 0
M  V30 20607 H 2005.87 3.05269 3.45444 0
M  V30 20608 H 2009.41 6.42516 2.71696 0
M  V30 20609 H 2005.31 5.44469 3.46733 0
M  V30 20610 H 2006.07 7.5097 3.25555 0
M  V30 20611 N 2008.74 -1.09711 1.13142 0
M  V30 20612 C 2010.15 -1.33866 0.869023 0
M  V30 20613 C 2010.35 -1.95275 -0.49697 0
M  V30 20614 O 2009.41 -2.19723 -1.2441 0
M  V30 20615 C 2010.72 -2.25314 1.99133 0
M  V30 20616 C 2012.27 -2.38831 2.02308 0
M  V30 20617 C 2012.75 -3.33613 3.13793 0
M  V30 20618 N 2014.24 -3.41185 3.13284 0
M  V30 20619 C 2014.97 -4.14516 3.96187 0
M  V30 20620 N 2014.47 -4.90669 4.89097 0
M  V30 20621 N 2016.26 -4.1021 3.84297 0
M  V30 20622 H 2008.41 -0.682242 2.01145 0
M  V30 20623 H 2010.67 -0.36305 0.875728 0
M  V30 20624 H 2010.38 -1.87415 2.97605 0
M  V30 20625 H 2010.25 -3.25681 1.90294 0
M  V30 20626 H 2012.64 -2.75996 1.04451 0
M  V30 20627 H 2012.72 -1.38254 2.1522 0
M  V30 20628 H 2012.37 -2.97172 4.11887 0
M  V30 20629 H 2012.3 -4.34088 2.9812 0
M  V30 20630 H 2014.79 -2.86882 2.45982 0
M  V30 20631 H 2015.1 -5.44045 5.48849 0
M  V30 20632 H 2013.45 -4.89768 4.93105 0
M  V30 20633 H 2016.64 -3.49815 3.11042 0
M  V30 20634 H 2016.81 -4.671 4.49135 0
M  V30 20635 N 2010.22 -0.924476 -1.27637 0
M  V30 20636 C 2011.47 -0.559056 -1.93797 0
M  V30 20637 C 2011.78 0.903501 -1.73483 0
M  V30 20638 O 2012.98 1.37756 -2.33956 0
M  V30 20639 C 2011.44 -0.949035 -3.47162 0
M  V30 20640 C 2011.05 -2.43205 -3.76238 0
M  V30 20641 C 2012.79 -0.654714 -4.19421 0
M  V30 20642 C 2010.7 -2.7616 -5.22962 0
M  V30 20643 H 2009.63 -0.205363 -0.725494 0
M  V30 20644 H 2012.28 -1.12485 -1.4498 0
M  V30 20645 H 2010.66 -0.311922 -3.9477 0
M  V30 20646 H 2011.84 -3.1168 -3.39399 0
M  V30 20647 H 2010.15 -2.69794 -3.17176 0
M  V30 20648 H 2012.75 -0.877465 -5.27451 0
M  V30 20649 H 2013.09 0.407944 -4.14296 0
M  V30 20650 H 2013.62 -1.25078 -3.77625 0
M  V30 20651 H 2010.36 -3.81322 -5.33173 0
M  V30 20652 H 2009.88 -2.12332 -5.60959 0
M  V30 20653 H 2011.56 -2.63732 -5.90808 0
M  V30 20654 N 2011.69 1.41711 -0.689627 0
M  V30 20655 C 2012.63 2.2818 0.0298794 0
M  V30 20656 C 2013.61 1.41901 0.793909 0
M  V30 20657 O 2014.79 1.71333 0.785962 0
M  V30 20658 C 2011.92 3.22025 1.04965 0
M  V30 20659 C 2010.96 4.24808 0.379483 0
M  V30 20660 S 2011.8 5.28323 -0.873793 0
M  V30 20661 C 2012.95 6.25733 0.144532 0
M  V30 20662 H 2013.18 2.88856 -0.703531 0
M  V30 20663 H 2010.72 1.4676 -0.479687 0
M  V30 20664 H 2012.68 3.76626 1.63288 0
M  V30 20665 H 2011.34 2.60457 1.7556 0
M  V30 20666 H 2010.53 4.90717 1.14947 0
M  V30 20667 H 2010.13 3.73772 -0.130522 0
M  V30 20668 H 2012.42 6.70084 0.999673 0
M  V30 20669 H 2013.37 7.06468 -0.480474 0
M  V30 20670 H 2013.77 5.62311 0.496647 0
M  V30 20671 N 2013.17 0.433965 1.51507 0
M  V30 20672 C 2014.4 -0.132403 2.06476 0
M  V30 20673 C 2014.82 -1.3675 1.30172 0
M  V30 20674 O 2014.17 -1.78907 0.360351 0
M  V30 20675 C 2014.22 -0.458007 3.58587 0
M  V30 20676 O 2013.94 0.728069 4.32008 0
M  V30 20677 C 2015.45 -1.07541 4.30058 0
M  V30 20678 H 2012.67 -0.00941889 0.670934 0
M  V30 20679 H 2015.21 0.612075 1.95125 0
M  V30 20680 H 2013.36 -1.15238 3.69863 0
M  V30 20681 H 2013.78 0.450318 5.22563 0
M  V30 20682 H 2015.25 -1.25326 5.37585 0
M  V30 20683 H 2015.73 -2.0555 3.88131 0
M  V30 20684 H 2016.34 -0.420519 4.23216 0
M  V30 20685 N 2014.65 -1.56732 0.165206 0
M  V30 20686 C 2015.58 -2.1483 -0.798785 0
M  V30 20687 C 2016.6 -1.10232 -1.19803 0
M  V30 20688 O 2017.78 -1.37442 -1.13894 0
M  V30 20689 C 2014.88 -2.67108 -2.08583 0
M  V30 20690 C 2014.06 -3.96299 -1.8511 0
M  V30 20691 C 2013.12 -4.33702 -2.97975 0
M  V30 20692 O 2012.14 -5.01692 -2.68875 0
M  V30 20693 N 2013.34 -3.94762 -4.25609 0
M  V30 20694 H 2016.11 -2.98173 -0.302127 0
M  V30 20695 H 2013.67 -1.6189 -0.0177783 0
M  V30 20696 H 2015.66 -2.89132 -2.8317 0
M  V30 20697 H 2014.23 -1.88388 -2.49457 0
M  V30 20698 H 2013.45 -3.82715 -0.944608 0
M  V30 20699 H 2014.74 -4.80686 -1.66788 0
M  V30 20700 H 2014.14 -3.40014 -4.52114 0
M  V30 20701 H 2012.7 -4.218 -4.96919 0
M  V30 20702 N 2016.13 0.10854 -1.57226 0
M  V30 20703 C 2017.37 0.820237 -1.8722 0
M  V30 20704 C 2017.73 1.76553 -0.754524 0
M  V30 20705 O 2018.93 2.51958 -0.936519 0
M  V30 20706 C 2017.2 1.54144 -3.22451 0
M  V30 20707 S 2018.76 2.29327 -3.74105 0
M  V30 20708 H 2015.58 0.273549 -0.656271 0
M  V30 20709 H 2018.18 0.0780325 -1.95344 0
M  V30 20710 H 2016.89 0.839156 -4.01729 0
M  V30 20711 H 2016.42 2.32381 -3.17431 0
M  V30 20712 H 2018.43 3.55234 -3.46444 0
M  V30 20713 N 2017.61 1.52975 0.379009 0
M  V30 20714 C 2018.85 1.69704 1.12125 0
M  V30 20715 C 2019.21 0.43662 1.8738 0
M  V30 20716 O 2018.5 -0.570009 1.82925 0
M  V30 20717 C 2018.69 2.8776 2.11964 0
M  V30 20718 C 2018.52 4.25162 1.46517 0
M  V30 20719 C 2017.29 4.90226 1.22499 0
M  V30 20720 C 2019.49 5.06186 0.909962 0
M  V30 20721 N 2017.47 6.11585 0.532616 0
M  V30 20722 C 2018.84 6.19033 0.346205 0
M  V30 20723 C 2020.9 4.91311 0.807342 0
M  V30 20724 C 2019.6 7.18631 -0.310148 0
M  V30 20725 C 2021.63 5.9117 0.164793 0
M  V30 20726 C 2020.99 7.0333 -0.388149 0
M  V30 20727 H 2017.09 0.674372 0.395913 0
M  V30 20728 H 2019.67 1.90346 0.409429 0
M  V30 20729 H 2017.84 2.68681 2.80473 0
M  V30 20730 H 2019.58 2.93378 2.78768 0
M  V30 20731 H 2016.33 4.49129 1.50268 0
M  V30 20732 H 2016.76 6.76698 0.20218 0
M  V30 20733 H 2021.4 4.04797 1.22062 0
M  V30 20734 H 2019.12 8.04747 -0.735414 0
M  V30 20735 H 2022.7 5.81736 0.0865022 0
M  V30 20736 H 2021.58 7.79275 -0.877493 0
M  V30 20737 N 2019.08 -0.63804 1.44107 0
M  V30 20738 C 2020.02 -1.76333 1.46421 0
M  V30 20739 C 2021.03 -1.58805 0.358429 0
M  V30 20740 O 2022.22 -1.67246 0.623768 0
M  V30 20741 C 2019.32 -3.13967 1.27586 0
M  V30 20742 C 2018.49 -3.58016 2.51283 0
M  V30 20743 C 2017.55 -4.74503 2.27449 0
M  V30 20744 O 2016.58 -4.83167 3.00895 0
M  V30 20745 N 2017.78 -5.6574 1.3007 0
M  V30 20746 H 2020.54 -1.74822 2.43429 0
M  V30 20747 H 2018.1 -0.822384 1.39458 0
M  V30 20748 H 2020.1 -3.89605 1.09499 0
M  V30 20749 H 2018.67 -3.10162 0.389684 0
M  V30 20750 H 2017.89 -2.7266 2.84693 0
M  V30 20751 H 2019.17 -3.84197 3.33572 0
M  V30 20752 H 2018.57 -5.61427 0.693968 0
M  V30 20753 H 2017.13 -6.41037 1.17964 0
M  V30 20754 N 2020.56 -1.3089 -0.877815 0
M  V30 20755 C 2021.51 -1.14482 -1.97175 0
M  V30 20756 C 2022.5 -0.0579765 -1.60796 0
M  V30 20757 O 2023.69 -0.282064 -1.74738 0
M  V30 20758 C 2020.82 -0.846146 -3.32709 0
M  V30 20759 C 2019.9 -1.97359 -3.7538 0
M  V30 20760 N 2020.29 -3.21976 -3.90083 0
M  V30 20761 C 2018.59 -1.87156 -4.04832 0
M  V30 20762 C 2019.29 -3.95674 -4.264 0
M  V30 20763 N 2018.27 -3.2378 -4.36655 0
M  V30 20764 H 2022.07 -2.08988 -2.06643 0
M  V30 20765 H 2019.59 -1.22333 -1.0681 0
M  V30 20766 H 2021.58 -0.709596 -4.10817 0
M  V30 20767 H 2020.24 0.090773 -3.24573 0
M  V30 20768 H 2021.25 -3.57183 -3.75021 0
M  V30 20769 H 2017.93 -1.00879 -4.05129 0
M  V30 20770 H 2019.32 -5.03025 -4.45438 0
M  V30 20771 N 2022.04 1.0911 -1.13723 0
M  V30 20772 C 2022.97 2.15687 -0.775355 0
M  V30 20773 C 2023.99 1.61511 0.204429 0
M  V30 20774 O 2025.17 1.78493 -0.0162374 0
M  V30 20775 C 2022.27 3.38654 -0.129079 0
M  V30 20776 C 2021.45 4.22235 -1.14178 0
M  V30 20777 C 2020.51 5.23618 -0.520594 0
M  V30 20778 O 2019.53 5.56802 -1.18152 0
M  V30 20779 N 2020.73 5.76192 0.705897 0
M  V30 20780 H 2023.5 2.47337 -1.69247 0
M  V30 20781 H 2021.06 1.24855 -1.03067 0
M  V30 20782 H 2023.05 4.03595 0.298814 0
M  V30 20783 H 2021.62 3.04866 0.69104 0
M  V30 20784 H 2020.84 3.53382 -1.74685 0
M  V30 20785 H 2022.13 4.749 -1.82612 0
M  V30 20786 H 2021.53 5.51453 1.26158 0
M  V30 20787 H 2020.09 6.42851 1.0764 0
M  V30 20788 N 2023.52 0.931232 1.27145 0
M  V30 20789 C 2024.93 0.617607 1.76189 0
M  V30 20790 C 2025.28 -0.867239 1.75993 0
M  V30 20791 O 2024.41 -1.67865 1.36567 0
M  V30 20792 C 2025 1.11436 3.19949 0
M  V30 20793 C 2023.56 0.851337 3.66646 0
M  V30 20794 C 2022.71 1.27104 2.46454 0
M  V30 20795 H 2025.66 1.11062 1.13362 0
M  V30 20796 H 2025.68 0.463637 3.77665 0
M  V30 20797 H 2025.19 2.19507 3.2006 0
M  V30 20798 H 2023.29 -0.215418 3.71977 0
M  V30 20799 H 2023.4 1.47136 4.55947 0
M  V30 20800 H 2021.77 0.689554 2.45188 0
M  V30 20801 H 2022.55 2.36047 2.49273 0
M  V30 20802 N 2025 -1.41343 0.697132 0
M  V30 20803 C 2025.91 -2.34576 0.0333341 0
M  V30 20804 C 2026.92 -1.56313 -0.764337 0
M  V30 20805 O 2028.1 -1.88787 -0.70154 0
M  V30 20806 C 2025.16 -3.35066 -0.890597 0
M  V30 20807 C 2024.23 -4.29216 -0.0849556 0
M  V30 20808 C 2023.46 -5.24905 -0.964881 0
M  V30 20809 O 2023.68 -5.26083 -2.20437 0
M  V30 20810 O 2022.62 -6.00476 -0.413724 0
M  V30 20811 H 2026.44 -2.92922 0.801892 0
M  V30 20812 H 2024.03 -1.42223 0.457478 0
M  V30 20813 H 2025.91 -3.96741 -1.42036 0
M  V30 20814 H 2024.58 -2.79161 -1.63862 0
M  V30 20815 H 2023.49 -3.70884 0.489447 0
M  V30 20816 H 2024.82 -4.88223 0.624437 0
M  V30 20817 N 2026.48 -0.441993 -1.51275 0
M  V30 20818 C 2027.75 0.183076 -1.94741 0
M  V30 20819 C 2028.13 1.59668 -1.38092 0
M  V30 20820 O 2027.48 2.21279 -0.569882 0
M  V30 20821 C 2027.69 0.156071 -3.48651 0
M  V30 20822 C 2029.04 0.359351 -4.23077 0
M  V30 20823 O 2030.06 0.233977 -3.55431 0
M  V30 20824 O 2028.92 0.609358 -5.43092 0
M  V30 20825 H 2026.02 0.127455 -0.817119 0
M  V30 20826 H 2028.56 -0.500307 -1.62157 0
M  V30 20827 H 2027.33 -0.832021 -3.82352 0
M  V30 20828 H 2026.96 0.882165 -3.8769 0
M  V30 20829 N 2027.95 1.56642 -0.173515 0
M  V30 20830 C 2029.37 1.58552 0.182625 0
M  V30 20831 C 2029.57 1.18895 1.62685 0
M  V30 20832 O 2028.63 0.901576 2.35856 0
M  V30 20833 C 2029.94 3.00533 -0.100181 0
M  V30 20834 C 2031.49 3.12976 -0.038567 0
M  V30 20835 C 2031.96 4.57053 -0.294392 0
M  V30 20836 N 2033.45 4.62566 -0.242245 0
M  V30 20837 C 2034.19 5.71901 -0.414333 0
M  V30 20838 N 2033.68 6.89785 -0.645597 0
M  V30 20839 N 2035.48 5.61009 -0.350085 0
M  V30 20840 H 2027.63 1.80706 -1.1162 0
M  V30 20841 H 2029.89 0.837643 -0.443912 0
M  V30 20842 H 2029.6 3.34031 -1.10073 0
M  V30 20843 H 2029.47 3.72281 0.607196 0
M  V30 20844 H 2031.86 2.79303 0.952559 0
M  V30 20845 H 2031.94 2.4366 -0.778688 0
M  V30 20846 H 2031.58 4.91435 -1.28274 0
M  V30 20847 H 2031.51 5.24531 0.466366 0
M  V30 20848 H 2034 3.77837 -0.0692351 0
M  V30 20849 H 2034.32 7.68991 -0.766299 0
M  V30 20850 H 2032.66 6.91643 -0.682238 0
M  V30 20851 H 2035.85 4.67791 -0.169986 0
M  V30 20852 H 2036.03 6.46163 -0.487625 0
M  V30 20853 N 2029.43 -0.1002 1.57281 0
M  V30 20854 C 2030.84 -0.655287 1.74822 0
M  V30 20855 C 2031.19 -1.79373 0.794961 0
M  V30 20856 O 2030.32 -2.16382 -0.0277532 0
M  V30 20857 C 2030.91 -1.19548 3.17008 0
M  V30 20858 C 2029.47 -1.69668 3.35991 0
M  V30 20859 C 2028.62 -0.604127 2.70639 0
M  V30 20860 H 2031.57 0.125841 1.582 0
M  V30 20861 H 2031.59 -2.06489 3.19598 0
M  V30 20862 H 2031.1 -0.366679 3.86364 0
M  V30 20863 H 2029.2 -2.54964 2.71706 0
M  V30 20864 H 2029.32 -1.79318 4.44277 0
M  V30 20865 H 2027.68 -1.04234 2.32395 0
M  V30 20866 H 2028.46 0.214006 3.42632 0
M  V30 20867 N 2030.91 -1.53174 -0.370891 0
M  V30 20868 C 2031.86 -1.79899 -1.47442 0
M  V30 20869 C 2032.85 -0.667827 -1.55681 0
M  V30 20870 O 2034.06 -0.850668 -1.58631 0
M  V30 20871 H 2030.43 -0.56952 -0.491071 0
M  V30 20872 H 2032.4 -2.72275 -1.22102 0
M  V30 20873 C 2031.15 -2.00106 -2.84347 0
M  V30 20874 H 2030.48 -2.86585 -2.78764 0
M  V30 20875 H 2031.92 -2.22786 -3.60752 0
M  V30 20876 C 2030.37 -0.778651 -3.27778 0
M  V30 20877 O 2030.9 0.0352246 -4.01685 0
M  V30 20878 N 2029.11 -0.603599 -2.84262 0
M  V30 20879 H 2028.66 -1.26705 -2.24285 0
M  V30 20880 H 2028.62 0.212903 -3.13678 0
M  V30 20881 N 2032.39 0.630389 -1.44443 0
M  V30 20882 C 2033.63 1.38993 -1.47265 0
M  V30 20883 C 2033.96 1.94213 -0.105537 0
M  V30 20884 O 2033.22 1.7415 0.89277 0
M  V30 20885 C 2033.52 2.57255 -2.48102 0
M  V30 20886 C 2033.18 2.20319 -3.93408 0
M  V30 20887 C 2031.84 2.09959 -4.32979 0
M  V30 20888 C 2034.2 1.91148 -4.84883 0
M  V30 20889 C 2031.52 1.68616 -5.61948 0
M  V30 20890 C 2033.88 1.51298 -6.14241 0
M  V30 20891 C 2032.54 1.39479 -6.52765 0
M  V30 20892 H 2031.81 0.508613 -0.538882 0
M  V30 20893 H 2034.46 0.714772 -1.77661 0
M  V30 20894 H 2032.76 3.30007 -2.11193 0
M  V30 20895 H 2034.46 3.15483 -2.47531 0
M  V30 20896 H 2031.05 2.29301 -3.62103 0
M  V30 20897 H 2035.23 1.98061 -4.55066 0
M  V30 20898 H 2030.49 1.5807 -5.90613 0
M  V30 20899 H 2034.66 1.27764 -6.8458 0
M  V30 20900 H 2032.29 1.07216 -7.52601 0
M  V30 20901 N 2033.87 1.31354 0.870861 0
M  V30 20902 C 2034.83 1.18889 1.95954 0
M  V30 20903 C 2035.83 0.116227 1.60379 0
M  V30 20904 O 2037.02 0.365426 1.70324 0
M  V30 20905 C 2034.15 0.824704 3.30774 0
M  V30 20906 H 2035.34 2.15624 2.08438 0
M  V30 20907 H 2032.9 1.14952 1.05904 0
M  V30 20908 H 2033.63 -0.141533 3.23991 0
M  V30 20909 H 2033.42 1.60006 3.57967 0
M  V30 20910 H 2034.91 0.761361 4.10601 0
M  V30 20911 N 2035.34 -1.08505 1.143 0
M  V30 20912 C 2036.59 -1.80248 0.90519 0
M  V30 20913 C 2036.91 -1.87116 -0.56981 0
M  V30 20914 O 2038.11 -2.55262 -0.924844 0
M  V30 20915 C 2036.57 -3.23851 1.56998 0
M  V30 20916 C 2036.18 -3.2522 3.08117 0
M  V30 20917 C 2037.92 -4.00284 1.41325 0
M  V30 20918 C 2035.83 -4.63405 3.67437 0
M  V30 20919 H 2034.76 -0.67549 0.335007 0
M  V30 20920 H 2037.41 -1.21877 1.3718 0
M  V30 20921 H 2035.79 -3.82342 1.03104 0
M  V30 20922 H 2036.96 -2.76441 3.68669 0
M  V30 20923 H 2035.28 -2.62281 3.23415 0
M  V30 20924 H 2037.88 -5.02393 1.83046 0
M  V30 20925 H 2038.22 -4.14747 0.359236 0
M  V30 20926 H 2038.75 -3.4826 1.9225 0
M  V30 20927 H 2035.49 -4.54145 4.72686 0
M  V30 20928 H 2035.01 -5.1247 3.11665 0
M  V30 20929 H 2036.69 -5.3238 3.6767 0
M  V30 20930 N 2036.82 -0.937962 -1.26649 0
M  V30 20931 C 2038.07 -0.57958 -1.93194 0
M  V30 20932 C 2038.38 0.88505 -1.74431 0
M  V30 20933 O 2039.59 1.35267 -2.35404 0
M  V30 20934 C 2038.05 -0.985803 -3.46136 0
M  V30 20935 C 2037.65 -2.47182 -3.73637 0
M  V30 20936 C 2039.4 -0.699162 -4.18703 0
M  V30 20937 C 2037.3 -2.81691 -5.20004 0
M  V30 20938 H 2036.23 -0.213046 -0.723275 0
M  V30 20939 H 2038.89 -1.14017 -1.43779 0
M  V30 20940 H 2037.27 -0.353775 -3.94417 0
M  V30 20941 H 2038.44 -3.15263 -3.36075 0
M  V30 20942 H 2036.76 -2.73143 -3.14296 0
M  V30 20943 H 2039.35 -0.933359 -5.26491 0
M  V30 20944 H 2039.7 0.363979 -4.14706 0
M  V30 20945 H 2040.23 -1.29076 -3.76277 0
M  V30 20946 H 2036.97 -3.86955 -5.29099 0
M  V30 20947 H 2036.49 -2.1827 -5.58675 0
M  V30 20948 H 2038.17 -2.69984 -5.87978 0
M  V30 20949 N 2038.3 1.40971 -0.704618 0
M  V30 20950 C 2039.23 2.33424 -0.0595656 0
M  V30 20951 C 2040.21 1.52306 0.757422 0
M  V30 20952 O 2041.4 1.80812 0.708567 0
M  V30 20953 C 2038.53 3.36202 0.870964 0
M  V30 20954 C 2037.48 4.27699 0.160408 0
M  V30 20955 C 2036.81 5.20924 1.20591 0
M  V30 20956 C 2038.11 5.13047 -0.97878 0
M  V30 20957 H 2039.8 2.87615 -0.83176 0
M  V30 20958 H 2037.35 1.38292 -0.401428 0
M  V30 20959 H 2039.3 3.9981 1.33153 0
M  V30 20960 H 2038.02 2.80381 1.67493 0
M  V30 20961 H 2036.68 3.65527 -0.280222 0
M  V30 20962 H 2036.33 4.61414 2.00264 0
M  V30 20963 H 2036.03 5.8298 0.73543 0
M  V30 20964 H 2037.55 5.8741 1.6668 0
M  V30 20965 H 2038.97 5.70172 -0.598081 0
M  V30 20966 H 2037.36 5.8409 -1.37693 0
M  V30 20967 H 2038.43 4.49675 -1.8144 0
M  V30 20968 N 2039.78 0.45001 1.51039 0
M  V30 20969 C 2040.69 -0.360857 2.31808 0
M  V30 20970 C 2041.7 -1.01585 1.41267 0
M  V30 20971 O 2042.88 -1.00845 1.74334 0
M  V30 20972 C 2039.95 -1.44034 3.15365 0
M  V30 20973 C 2039.01 -0.804156 4.21701 0
M  V30 20974 C 2038.24 -1.83221 5.01264 0
M  V30 20975 O 2038.46 -3.05609 4.81622 0
M  V30 20976 O 2037.4 -1.41571 5.85014 0
M  V30 20977 H 2041.22 0.298869 3.02226 0
M  V30 20978 H 2038.81 0.212277 1.47884 0
M  V30 20979 H 2040.69 -2.06611 3.67273 0
M  V30 20980 H 2039.36 -2.08392 2.47698 0
M  V30 20981 H 2038.27 -0.139997 3.73838 0
M  V30 20982 H 2039.6 -0.203865 4.91778 0
M  V30 20983 N 2041.26 -1.56548 0.18182 0
M  V30 20984 C 2042.67 -1.58646 -0.174214 0
M  V30 20985 C 2042.87 -1.19756 -1.62052 0
M  V30 20986 O 2041.93 -0.914071 -2.35374 0
M  V30 20987 C 2043.24 -3.00476 0.116117 0
M  V30 20988 C 2044.79 -3.12951 0.0551643 0
M  V30 20989 C 2045.26 -4.5689 0.318626 0
M  V30 20990 N 2046.76 -4.62431 0.266773 0
M  V30 20991 C 2047.49 -5.71673 0.444657 0
M  V30 20992 N 2046.99 -6.89433 0.682169 0
M  V30 20993 N 2048.78 -5.60815 0.379832 0
M  V30 20994 H 2040.93 -1.80112 1.12576 0
M  V30 20995 H 2043.19 -0.835277 0.448348 0
M  V30 20996 H 2042.9 -3.33443 1.11843 0
M  V30 20997 H 2042.77 -3.72598 -0.587444 0
M  V30 20998 H 2045.16 -2.79805 -0.937734 0
M  V30 20999 H 2045.24 -2.43243 0.791599 0
M  V30 21000 H 2044.89 -4.90748 1.30878 0
M  V30 21001 H 2044.82 -5.24771 -0.438543 0
M  V30 21002 H 2047.31 -3.77795 0.0892717 0
M  V30 21003 H 2047.62 -7.68574 0.80707 0
M  V30 21004 H 2045.96 -6.91272 0.718908 0
M  V30 21005 H 2049.16 -4.67695 0.194792 0
M  V30 21006 H 2049.33 -6.45895 0.521886 0
M  V30 21007 N 2042.73 0.0918577 -1.57332 0
M  V30 21008 C 2043.98 0.793472 -1.85437 0
M  V30 21009 C 2044.3 1.7974 -0.77156 0
M  V30 21010 O 2045.5 2.54714 -0.939832 0
M  V30 21011 C 2043.96 1.462 -3.28867 0
M  V30 21012 C 2043.57 0.497677 -4.45227 0
M  V30 21013 C 2045.31 2.14715 -3.66193 0
M  V30 21014 C 2043.22 1.17098 -5.79691 0
M  V30 21015 H 2042.15 0.30008 -0.691714 0
M  V30 21016 H 2044.8 0.0464542 -1.83441 0
M  V30 21017 H 2043.18 2.25659 -3.25414 0
M  V30 21018 H 2044.35 -0.26565 -4.60034 0
M  V30 21019 H 2042.67 -0.081949 -4.16319 0
M  V30 21020 H 2045.27 2.6583 -4.63938 0
M  V30 21021 H 2045.61 2.93756 -2.9498 0
M  V30 21022 H 2046.14 1.42113 -3.71549 0
M  V30 21023 H 2042.88 0.421316 -6.54145 0
M  V30 21024 H 2042.4 1.90565 -5.68722 0
M  V30 21025 H 2044.08 1.69654 -6.24361 0
M  V30 21026 N 2044.21 1.53368 0.362763 0
M  V30 21027 C 2045.12 1.82969 1.46832 0
M  V30 21028 C 2046.14 0.718285 1.58482 0
M  V30 21029 O 2047.31 1.00863 1.74323 0
M  V30 21030 C 2044.38 2.01596 2.82064 0
M  V30 21031 C 2043.44 3.25491 2.79918 0
M  V30 21032 C 2042.67 3.4322 4.087 0
M  V30 21033 O 2042.9 2.65185 5.05008 0
M  V30 21034 O 2041.83 4.36585 4.1434 0
M  V30 21035 H 2045.66 2.769 1.24741 0
M  V30 21036 H 2043.24 1.38783 0.553131 0
M  V30 21037 H 2045.12 2.15403 3.62187 0
M  V30 21038 H 2043.8 1.10854 3.04127 0
M  V30 21039 H 2042.71 3.17105 1.98483 0
M  V30 21040 H 2044.04 4.16164 2.62809 0
M  V30 21041 N 2045.69 -0.62272 1.44776 0
M  V30 21042 C 2046.92 -1.40706 1.51279 0
M  V30 21043 C 2047.33 -1.88688 0.139108 0
M  V30 21044 O 2046.67 -1.61963 -0.866823 0
M  V30 21045 C 2046.73 -2.65579 2.42298 0
M  V30 21046 C 2046.4 -2.39338 3.89315 0
M  V30 21047 C 2047.39 -2.0064 4.79624 0
M  V30 21048 C 2045.08 -2.52717 4.34096 0
M  V30 21049 C 2047.07 -1.75662 6.12716 0
M  V30 21050 C 2044.76 -2.27354 5.67233 0
M  V30 21051 C 2045.76 -1.88886 6.56362 0
M  V30 21052 O 2045.45 -1.6381 7.87033 0
M  V30 21053 H 2045.18 -0.437662 0.515197 0
M  V30 21054 H 2047.73 -0.767982 1.90503 0
M  V30 21055 H 2045.96 -3.32154 1.98017 0
M  V30 21056 H 2047.65 -3.27598 2.39655 0
M  V30 21057 H 2048.42 -1.89853 4.46297 0
M  V30 21058 H 2044.3 -2.81628 3.64975 0
M  V30 21059 H 2047.84 -1.45562 6.82244 0
M  V30 21060 H 2043.74 -2.37753 6.0012 0
M  V30 21061 H 2044.51 -1.77986 7.98914 0
M  V30 21062 N 2047.17 -1.31814 -0.863883 0
M  V30 21063 C 2048.41 -1.23154 -1.63133 0
M  V30 21064 C 2048.77 0.205722 -1.90895 0
M  V30 21065 O 2049.97 0.415911 -2.65563 0
M  V30 21066 C 2048.24 -2.0581 -2.92194 0
M  V30 21067 S 2049.8 -2.14077 -3.83036 0
M  V30 21068 H 2046.62 -0.438531 -0.559653 0
M  V30 21069 H 2049.22 -1.66551 -1.02377 0
M  V30 21070 H 2047.93 -3.09311 -2.69731 0
M  V30 21071 H 2047.46 -1.63155 -3.57972 0
M  V30 21072 H 2049.47 -1.28353 -4.79312 0
M  V30 21073 N 2048.65 1.07897 -1.14873 0
M  V30 21074 C 2049.87 1.84117 -0.943847 0
M  V30 21075 C 2050.29 1.81844 0.507767 0
M  V30 21076 O 2049.65 1.22585 1.352 0
M  V30 21077 C 2049.7 3.31438 -1.4433 0
M  V30 21078 O 2049.42 3.33746 -2.83805 0
M  V30 21079 C 2050.92 4.24445 -1.2791 0
M  V30 21080 H 2048.14 0.581068 -0.335561 0
M  V30 21081 H 2050.68 1.36237 -1.52512 0
M  V30 21082 H 2048.84 3.76689 -0.904683 0
M  V30 21083 H 2049.25 4.25748 -3.06332 0
M  V30 21084 H 2050.73 5.25906 -1.67711 0
M  V30 21085 H 2051.2 4.38636 -0.222593 0
M  V30 21086 H 2051.81 3.85025 -1.80653 0
M  V30 21087 N 2050.12 0.944665 1.2615 0
M  V30 21088 C 2051.06 0.414303 2.25424 0
M  V30 21089 C 2052.07 -0.464345 1.56037 0
M  V30 21090 O 2053.26 -0.274229 1.76381 0
M  V30 21091 C 2050.36 -0.423331 3.36246 0
M  V30 21092 C 2049.53 0.439977 4.35182 0
M  V30 21093 C 2048.59 -0.337801 5.25115 0
M  V30 21094 O 2047.62 0.260373 5.68604 0
M  V30 21095 N 2048.82 -1.63346 5.57044 0
M  V30 21096 H 2051.58 1.26775 2.71566 0
M  V30 21097 H 2049.14 0.813928 1.39953 0
M  V30 21098 H 2051.14 -0.951131 3.93364 0
M  V30 21099 H 2049.71 -1.17759 2.89571 0
M  V30 21100 H 2048.93 1.14896 3.77084 0
M  V30 21101 H 2050.21 1.02957 4.98274 0
M  V30 21102 H 2049.61 -2.14152 5.23599 0
M  V30 21103 H 2048.17 -2.10743 6.16791 0
M  V30 21104 N 2051.6 -1.40596 0.712085 0
M  V30 21105 C 2052.88 -1.94794 0.177392 0
M  V30 21106 C 2053.26 -1.65047 -1.31616 0
M  V30 21107 O 2052.61 -0.966262 -2.07064 0
M  V30 21108 C 2052.82 -3.45594 0.486369 0
M  V30 21109 C 2054.17 -4.22487 0.423115 0
M  V30 21110 O 2055.19 -3.53689 0.422227 0
M  V30 21111 O 2054.05 -5.45052 0.397587 0
M  V30 21112 H 2051.14 -0.826632 0.0246541 0
M  V30 21113 H 2053.69 -1.50223 0.789377 0
M  V30 21114 H 2052.46 -3.60591 1.51953 0
M  V30 21115 H 2052.08 -3.97295 -0.155756 0
M  V30 21116 N 2053.08 -0.458013 -1.50798 0
M  V30 21117 C 2054.49 0.00023852 -1.867 0
M  V30 21118 C 2054.84 1.40078 -1.37378 0
M  V30 21119 O 2053.97 2.036 -0.733219 0
M  V30 21120 C 2054.56 0.00720883 -3.38799 0
M  V30 21121 C 2053.12 0.409942 -3.74161 0
M  V30 21122 C 2052.27 -0.383856 -2.7463 0
M  V30 21123 H 2055.22 -0.672909 -1.43728 0
M  V30 21124 H 2055.24 0.812262 -3.71729 0
M  V30 21125 H 2054.75 -1.01225 -3.74667 0
M  V30 21126 H 2052.85 1.43423 -3.4389 0
M  V30 21127 H 2052.97 0.120374 -4.78949 0
M  V30 21128 H 2051.33 0.16068 -2.54193 0
M  V30 21129 H 2052.11 -1.40258 -3.13341 0
M  V30 21130 N 2054.56 1.56449 -0.190119 0
M  V30 21131 C 2055.84 1.89172 0.497312 0
M  V30 21132 C 2056.22 1.1029 1.79998 0
M  V30 21133 O 2055.56 0.202471 2.27601 0
M  V30 21134 C 2055.77 3.41472 0.720941 0
M  V30 21135 C 2057.12 4.11602 1.04254 0
M  V30 21136 O 2058.15 3.46895 0.808835 0
M  V30 21137 O 2057.01 5.25955 1.48438 0
M  V30 21138 H 2054.1 0.785518 0.258632 0
M  V30 21139 H 2056.65 1.68135 -0.229961 0
M  V30 21140 H 2055.42 3.90793 -0.199197 0
M  V30 21141 H 2055.04 3.68185 1.50085 0
M  V30 21142 N 2056.04 -0.0835127 1.57379 0
M  V30 21143 C 2057.28 -0.786031 1.86948 0
M  V30 21144 C 2057.62 -1.77811 0.780828 0
M  V30 21145 O 2056.89 -1.93362 -0.210075 0
M  V30 21146 C 2057.17 -1.50447 3.27166 0
M  V30 21147 C 2057.03 -0.529601 4.46671 0
M  V30 21148 C 2058.35 -2.45226 3.65448 0
M  V30 21149 H 2055.47 -0.284294 0.67996 0
M  V30 21150 H 2058.11 -0.0494231 1.89936 0
M  V30 21151 H 2056.26 -2.13237 3.24749 0
M  V30 21152 H 2057.93 0.0921842 4.61208 0
M  V30 21153 H 2056.17 0.156069 4.33519 0
M  V30 21154 H 2056.84 -1.06967 5.41537 0
M  V30 21155 H 2059.32 -1.92521 3.68883 0
M  V30 21156 H 2058.2 -2.92505 4.6447 0
M  V30 21157 H 2058.46 -3.29506 2.94751 0
M  V30 21158 N 2057.52 -1.53558 -0.354624 0
M  V30 21159 C 2058.76 -1.69489 -1.09346 0
M  V30 21160 C 2059.08 -0.458936 -1.9014 0
M  V30 21161 O 2060.28 -0.498981 -2.66875 0
M  V30 21162 C 2058.74 -2.99663 -1.99324 0
M  V30 21163 C 2058.35 -4.30558 -1.2379 0
M  V30 21164 C 2060.09 -3.2496 -2.73132 0
M  V30 21165 C 2058 -5.51814 -2.12733 0
M  V30 21166 H 2056.93 -0.631535 -0.411922 0
M  V30 21167 H 2059.58 -1.80059 -0.353687 0
M  V30 21168 H 2057.96 -2.82922 -2.77076 0
M  V30 21169 H 2059.14 -4.57966 -0.51025 0
M  V30 21170 H 2057.45 -4.11789 -0.617973 0
M  V30 21171 H 2060.05 -4.12739 -3.39927 0
M  V30 21172 H 2060.39 -2.41491 -3.39099 0
M  V30 21173 H 2060.92 -3.42426 -2.02458 0
M  V30 21174 H 2057.66 -6.37793 -1.51327 0
M  V30 21175 H 2057.18 -5.28669 -2.83317 0
M  V30 21176 H 2058.86 -5.87028 -2.72041 0
M  V30 21177 N 2058.99 0.615033 -1.45104 0
M  V30 21178 C 2059.94 1.74733 -1.53529 0
M  V30 21179 C 2060.94 1.64468 -0.405784 0
M  V30 21180 O 2062.14 1.70352 -0.581394 0
M  V30 21181 H 2058.52 0.577146 -0.482086 0
M  V30 21182 H 2060.49 1.64752 -2.48796 0
M  V30 21183 C 2059.24 3.13102 -1.51204 0
M  V30 21184 H 2058.56 3.21656 -2.3744 0
M  V30 21185 H 2060 3.92179 -1.61158 0
M  V30 21186 C 2058.46 3.36077 -0.235281 0
M  V30 21187 O 2058.99 3.95765 0.687942 0
M  V30 21188 N 2057.19 2.90294 -0.133321 0
M  V30 21189 H 2056.74 2.41903 -0.885467 0
M  V30 21190 H 2056.7 3.06041 0.720147 0
M  V30 21191 N 2060.47 1.3227 0.85688 0
M  V30 21192 C 2061.7 1.25698 1.6434 0
M  V30 21193 C 2062.11 -0.175425 1.87983 0
M  V30 21194 O 2061.47 -1.11179 1.44726 0
M  V30 21195 C 2061.52 2.0111 3.00395 0
M  V30 21196 O 2061.24 3.38761 2.778 0
M  V30 21197 C 2062.74 2.01535 3.9484 0
M  V30 21198 H 2059.96 0.433782 0.511932 0
M  V30 21199 H 2062.51 1.74358 1.06863 0
M  V30 21200 H 2060.66 1.56178 3.54524 0
M  V30 21201 H 2061.08 3.7733 3.64311 0
M  V30 21202 H 2062.55 2.58787 4.87579 0
M  V30 21203 H 2063.03 1.00106 4.27639 0
M  V30 21204 H 2063.63 2.46404 3.46648 0
M  V30 21205 N 2061.95 -1.07287 1.15444 0
M  V30 21206 C 2062.91 -2.12679 0.854419 0
M  V30 21207 C 2063.91 -1.60135 -0.146116 0
M  V30 21208 O 2065.1 -1.73999 0.0835953 0
M  V30 21209 C 2062.23 -3.39782 0.275849 0
M  V30 21210 H 2063.43 -2.40726 1.7886 0
M  V30 21211 H 2060.98 -1.23187 0.96201 0
M  V30 21212 H 2061.72 -3.17377 -0.666496 0
M  V30 21213 H 2061.5 -3.79222 0.996665 0
M  V30 21214 H 2062.99 -4.17516 0.0835417 0
M  V30 21215 N 2063.43 -0.951342 -1.25647 0
M  V30 21216 C 2064.36 -0.486897 -2.28367 0
M  V30 21217 C 2065.34 0.465072 -1.63619 0
M  V30 21218 O 2066.52 0.364737 -1.90744 0
M  V30 21219 C 2063.65 0.239229 -3.46475 0
M  V30 21220 C 2062.61 -0.627163 -4.2338 0
M  V30 21221 C 2061.93 0.229514 -5.34207 0
M  V30 21222 C 2063.23 -1.90362 -4.86374 0
M  V30 21223 H 2064.93 -1.34542 -2.67467 0
M  V30 21224 H 2062.47 -0.648383 -1.28577 0
M  V30 21225 H 2064.43 0.575251 -4.17455 0
M  V30 21226 H 2063.15 1.13197 -3.06356 0
M  V30 21227 H 2061.81 -0.946222 -3.54178 0
M  V30 21228 H 2061.46 1.12192 -4.90328 0
M  V30 21229 H 2061.16 -0.346852 -5.86575 0
M  V30 21230 H 2062.68 0.560578 -6.08021 0
M  V30 21231 H 2064.1 -1.63422 -5.49515 0
M  V30 21232 H 2062.49 -2.42538 -5.48904 0
M  V30 21233 H 2063.56 -2.60876 -4.08744 0
M  V30 21234 N 2064.91 1.40216 -0.719531 0
M  V30 21235 C 2066.32 1.83713 -0.33263 0
M  V30 21236 C 2066.67 1.60151 1.1334 0
M  V30 21237 O 2065.79 1.08447 1.87265 0
M  V30 21238 C 2066.39 3.335 -0.596947 0
M  V30 21239 C 2064.95 3.75475 -0.263712 0
M  V30 21240 C 2064.09 2.63387 -0.867341 0
M  V30 21241 H 2067.04 1.29428 -0.918378 0
M  V30 21242 H 2067.07 3.80255 0.136497 0
M  V30 21243 H 2066.58 3.50617 -1.66402 0
M  V30 21244 H 2064.68 3.63951 0.798139 0
M  V30 21245 H 2064.79 4.73421 -0.735465 0
M  V30 21246 H 2063.16 2.52985 -0.295091 0
M  V30 21247 H 2063.94 2.83315 -1.93876 0
M  V30 21248 N 2066.38 0.466004 1.50553 0
M  V30 21249 C 2067.63 -0.0923956 2.01488 0
M  V30 21250 C 2067.95 -1.41242 1.35315 0
M  V30 21251 O 2069.15 -2.05546 1.77379 0
M  V30 21252 C 2067.61 -0.21518 3.59256 0
M  V30 21253 C 2067.22 1.09611 4.34384 0
M  V30 21254 C 2068.96 -0.725811 4.18249 0
M  V30 21255 C 2066.87 0.937394 5.83924 0
M  V30 21256 H 2065.8 -0.0383052 0.753026 0
M  V30 21257 H 2068.45 0.600129 1.73409 0
M  V30 21258 H 2066.83 -0.97137 3.83902 0
M  V30 21259 H 2068 1.86285 4.21467 0
M  V30 21260 H 2066.32 1.53746 3.86977 0
M  V30 21261 H 2068.92 -0.861504 5.27714 0
M  V30 21262 H 2069.26 -1.71583 3.79296 0
M  V30 21263 H 2069.79 -0.0271476 3.97791 0
M  V30 21264 H 2066.53 1.90063 6.27341 0
M  V30 21265 H 2066.05 0.210939 5.99429 0
M  V30 21266 H 2067.73 0.601974 6.44194 0
M  V30 21267 N 2067.86 -1.56346 0.198413 0
M  V30 21268 C 2068.77 -2.22855 -0.733001 0
M  V30 21269 C 2069.79 -1.22868 -1.23205 0
M  V30 21270 O 2070.96 -1.55615 -1.27852 0
M  V30 21271 C 2068.03 -2.87746 -1.93399 0
M  V30 21272 C 2067.09 -4.03012 -1.47919 0
M  V30 21273 C 2066.32 -4.64799 -2.62293 0
M  V30 21274 O 2066.55 -4.25516 -3.79859 0
M  V30 21275 O 2065.48 -5.54206 -2.34817 0
M  V30 21276 H 2069.31 -3.03063 -0.196563 0
M  V30 21277 H 2066.89 -1.49368 -0.0310254 0
M  V30 21278 H 2068.77 -3.28788 -2.63584 0
M  V30 21279 H 2067.45 -2.10514 -2.45897 0
M  V30 21280 H 2066.35 -3.66586 -0.746038 0
M  V30 21281 H 2067.69 -4.81917 -1.00084 0
M  V30 21282 N 2069.34 0.0751653 -1.57421 0
M  V30 21283 C 2070.57 0.786829 -1.9103 0
M  V30 21284 C 2070.98 1.71812 -0.792303 0
M  V30 21285 O 2070.32 1.8208 0.243447 0
M  V30 21286 C 2070.38 1.63681 -3.20076 0
M  V30 21287 C 2070.05 0.875252 -4.4854 0
M  V30 21288 C 2071.04 0.196017 -5.1953 0
M  V30 21289 C 2068.73 0.843425 -4.95168 0
M  V30 21290 C 2070.72 -0.504853 -6.35398 0
M  V30 21291 C 2068.41 0.13878 -6.10942 0
M  V30 21292 C 2069.41 -0.534162 -6.80908 0
M  V30 21293 O 2069.1 -1.22746 -7.94474 0
M  V30 21294 H 2068.83 0.229074 -0.636004 0
M  V30 21295 H 2071.38 0.0507529 -2.05337 0
M  V30 21296 H 2069.61 2.41561 -3.01969 0
M  V30 21297 H 2071.3 2.22685 -3.39362 0
M  V30 21298 H 2072.07 0.211935 -4.84537 0
M  V30 21299 H 2067.95 1.35667 -4.40585 0
M  V30 21300 H 2071.49 -1.03067 -6.89944 0
M  V30 21301 H 2067.39 0.120778 -6.45387 0
M  V30 21302 H 2068.16 -1.13639 -8.10573 0
M  V30 21303 N 2070.82 1.53744 0.346476 0
M  V30 21304 C 2072.07 1.70512 1.0849 0
M  V30 21305 C 2072.39 0.469467 1.89264 0
M  V30 21306 O 2071.66 -0.516594 1.88966 0
M  V30 21307 H 2070.24 0.628636 0.403517 0
M  V30 21308 H 2072.9 1.9099 0.388459 0
M  V30 21309 H 2072 2.57472 1.76394 0
M  V30 21310 N 2072.3 -0.607329 1.45428 0
M  V30 21311 C 2073.71 -1.18928 1.4392 0
M  V30 21312 C 2074.06 -1.95488 0.166955 0
M  V30 21313 O 2073.18 -2.03663 -0.731456 0
M  V30 21314 C 2073.78 -2.16337 2.60737 0
M  V30 21315 C 2072.34 -2.69908 2.62349 0
M  V30 21316 C 2071.48 -1.45319 2.36173 0
M  V30 21317 H 2074.44 -0.396625 1.53664 0
M  V30 21318 H 2074.46 -2.99376 2.3485 0
M  V30 21319 H 2073.97 -1.60587 3.53318 0
M  V30 21320 H 2072.07 -3.29596 1.73774 0
M  V30 21321 H 2072.18 -3.14323 3.61577 0
M  V30 21322 H 2070.55 -1.74283 1.85735 0
M  V30 21323 H 2071.33 -0.914363 3.30899 0
M  V30 21324 N 2073.77 -1.32722 -0.849853 0
M  V30 21325 C 2074.7 -1.24675 -1.97429 0
M  V30 21326 C 2075.69 -0.129581 -1.69606 0
M  V30 21327 O 2076.87 -0.317548 -1.91586 0
M  V30 21328 C 2074 -0.973971 -3.33363 0
M  V30 21329 C 2072.95 -2.05289 -3.75553 0
M  V30 21330 C 2072.28 -1.63244 -5.09171 0
M  V30 21331 C 2073.58 -3.46845 -3.90507 0
M  V30 21332 H 2075.27 -2.18753 -2.0442 0
M  V30 21333 H 2072.82 -1.0531 -0.982132 0
M  V30 21334 H 2074.77 -0.904206 -4.11585 0
M  V30 21335 H 2073.5 0.00243816 -3.266 0
M  V30 21336 H 2072.16 -2.11289 -2.99587 0
M  V30 21337 H 2071.8 -0.643348 -4.98869 0
M  V30 21338 H 2071.5 -2.35437 -5.38371 0
M  V30 21339 H 2073.03 -1.57713 -5.8988 0
M  V30 21340 H 2074.44 -3.43408 -4.59069 0
M  V30 21341 H 2072.84 -4.17429 -4.3113 0
M  V30 21342 H 2073.91 -3.86155 -2.93278 0
M  V30 21343 N 2075.25 1.06673 -1.16011 0
M  V30 21344 C 2076.5 1.79666 -0.940641 0
M  V30 21345 C 2076.83 1.86814 0.530502 0
M  V30 21346 O 2076.11 1.35692 1.39348 0
M  V30 21347 C 2076.39 3.24359 -1.56407 0
M  V30 21348 C 2076.24 3.25315 -3.10629 0
M  V30 21349 C 2077.56 4.2181 -1.25556 0
M  V30 21350 H 2074.68 0.652242 -0.343145 0
M  V30 21351 H 2077.32 1.2478 -1.43282 0
M  V30 21352 H 2075.47 3.71227 -1.14553 0
M  V30 21353 H 2077.14 2.86637 -3.61438 0
M  V30 21354 H 2075.39 2.64077 -3.4416 0
M  V30 21355 H 2076.06 4.27371 -3.49368 0
M  V30 21356 H 2078.53 3.83365 -1.61772 0
M  V30 21357 H 2077.41 5.21326 -1.71785 0
M  V30 21358 H 2077.67 4.41758 -0.173744 0
M  V30 21359 N 2076.73 0.957992 1.25141 0
M  V30 21360 C 2077.64 0.487592 2.29477 0
M  V30 21361 C 2078.66 -0.446704 1.68168 0
M  V30 21362 O 2079.83 -0.322127 1.98807 0
M  V30 21363 C 2076.9 -0.22393 3.45976 0
M  V30 21364 C 2075.96 0.748994 4.22716 0
M  V30 21365 C 2075.19 0.0713329 5.33652 0
M  V30 21366 O 2075.41 -1.14234 5.58844 0
M  V30 21367 O 2074.35 0.758575 5.97101 0
M  V30 21368 H 2078.17 1.35471 2.71811 0
M  V30 21369 H 2075.76 0.724594 1.30652 0
M  V30 21370 H 2077.64 -0.624039 4.16754 0
M  V30 21371 H 2076.32 -1.06616 3.05638 0
M  V30 21372 H 2075.22 1.19938 3.54353 0
M  V30 21373 H 2076.56 1.55935 4.66846 0
M  V30 21374 N 2078.21 -1.39832 0.726957 0
M  V30 21375 C 2079.12 -2.34453 0.0830837 0
M  V30 21376 C 2080.13 -1.579 -0.731009 0
M  V30 21377 O 2081.31 -1.90232 -0.661338 0
M  V30 21378 C 2078.38 -3.3688 -0.819324 0
M  V30 21379 C 2077.44 -4.293 0.00610659 0
M  V30 21380 C 2076.67 -5.26834 -0.853324 0
M  V30 21381 O 2076.89 -5.30641 -2.09228 0
M  V30 21382 O 2075.83 -6.01219 -0.286261 0
M  V30 21383 H 2079.65 -2.91155 0.863845 0
M  V30 21384 H 2077.24 -1.41221 0.487543 0
M  V30 21385 H 2079.12 -3.99665 -1.33589 0
M  V30 21386 H 2077.79 -2.82574 -1.57904 0
M  V30 21387 H 2076.7 -3.69763 0.568007 0
M  V30 21388 H 2078.03 -4.86789 0.727856 0
M  V30 21389 N 2079.69 -0.473982 -1.50304 0
M  V30 21390 C 2080.6 0.323933 -2.32353 0
M  V30 21391 C 2081.61 0.993251 -1.42865 0
M  V30 21392 O 2082.79 0.980589 -1.75916 0
M  V30 21393 C 2079.85 1.38999 -3.17616 0
M  V30 21394 C 2078.91 0.736965 -4.22927 0
M  V30 21395 C 2078.15 1.75223 -5.04116 0
M  V30 21396 O 2078.37 2.97908 -4.86423 0
M  V30 21397 O 2077.3 1.32246 -5.87192 0
M  V30 21398 H 2081.13 -0.346913 -3.01712 0
M  V30 21399 H 2078.72 -0.235777 -1.47528 0
M  V30 21400 H 2080.6 2.00742 -3.70514 0
M  V30 21401 H 2079.27 2.04425 -2.50982 0
M  V30 21402 H 2078.18 0.0805047 -3.74013 0
M  V30 21403 H 2079.51 0.125602 -4.9204 0
M  V30 21404 N 2081.16 1.56239 -0.206702 0
M  V30 21405 C 2082.07 2.2324 0.721172 0
M  V30 21406 C 2083.09 1.2352 1.22552 0
M  V30 21407 O 2084.27 1.56291 1.27025 0
M  V30 21408 C 2081.33 2.88767 1.91871 0
M  V30 21409 C 2080.39 4.03791 1.45779 0
M  V30 21410 C 2079.63 4.66183 2.59825 0
M  V30 21411 O 2079.85 4.27524 3.77597 0
M  V30 21412 O 2078.78 5.55444 2.31874 0
M  V30 21413 H 2082.61 3.03163 0.180488 0
M  V30 21414 H 2080.19 1.49382 0.0231036 0
M  V30 21415 H 2082.08 3.30181 2.61837 0
M  V30 21416 H 2080.75 2.11815 2.44777 0
M  V30 21417 H 2079.66 3.66976 0.726587 0
M  V30 21418 H 2080.99 4.82441 0.975269 0
M  V30 21419 N 2082.64 -0.0668159 1.57458 0
M  V30 21420 C 2083.59 -1.07888 2.04031 0
M  V30 21421 C 2084.56 -1.38168 0.921889 0
M  V30 21422 O 2085.74 -1.49151 1.1899 0
M  V30 21423 C 2082.88 -2.38598 2.49329 0
M  V30 21424 C 2082 -2.14805 3.7481 0
M  V30 21425 C 2081.13 -3.39114 4.0887 0
M  V30 21426 C 2080.17 -3.10708 5.27377 0
M  V30 21427 N 2079.31 -4.27361 5.57052 0
M  V30 21428 H 2084.15 -0.674755 2.9026 0
M  V30 21429 H 2081.69 -0.321602 1.43541 0
M  V30 21430 H 2083.64 -3.14919 2.73646 0
M  V30 21431 H 2082.27 -2.76804 1.6607 0
M  V30 21432 H 2081.33 -1.29154 3.57804 0
M  V30 21433 H 2082.64 -1.89826 4.61267 0
M  V30 21434 H 2081.79 -4.23827 4.34114 0
M  V30 21435 H 2080.53 -3.67174 3.2099 0
M  V30 21436 H 2079.54 -2.24392 5.01925 0
M  V30 21437 H 2080.76 -2.83966 6.16879 0
M  V30 21438 H 2078.71 -4.55443 4.72131 0
M  V30 21439 H 2078.62 -4.05673 6.37938 0
M  V30 21440 H 2079.89 -5.13057 5.8685 0
M  V30 21441 N 2084.12 -1.53926 -0.338317 0
M  V30 21442 C 2085.37 -1.71678 -1.07957 0
M  V30 21443 C 2085.7 -0.481294 -1.88141 0
M  V30 21444 O 2084.98 0.521709 -1.87372 0
M  V30 21445 C 2085.26 -2.98347 -2.01646 0
M  V30 21446 C 2085.11 -4.32114 -1.24889 0
M  V30 21447 C 2086.43 -3.20708 -3.01388 0
M  V30 21448 H 2083.55 -0.62468 -0.39108 0
M  V30 21449 H 2086.19 -1.86604 -0.357623 0
M  V30 21450 H 2084.34 -2.85752 -2.63207 0
M  V30 21451 H 2086.01 -4.56568 -0.659021 0
M  V30 21452 H 2084.26 -4.30287 -0.550962 0
M  V30 21453 H 2084.93 -5.16935 -1.93604 0
M  V30 21454 H 2087.4 -3.32667 -2.49943 0
M  V30 21455 H 2086.28 -4.10723 -3.6414 0
M  V30 21456 H 2086.54 -2.37246 -3.7305 0
M  V30 21457 N 2085.6 0.599608 -1.45748 0
M  V30 21458 C 2087.01 1.18163 -1.44549 0
M  V30 21459 C 2087.36 1.95397 -0.17732 0
M  V30 21460 O 2086.49 2.04048 0.720645 0
M  V30 21461 C 2087.08 2.14951 -2.6188 0
M  V30 21462 C 2085.64 2.68513 -2.63776 0
M  V30 21463 C 2084.79 1.44065 -2.3694 0
M  V30 21464 H 2087.74 0.388471 -1.53872 0
M  V30 21465 H 2087.76 2.98126 -2.36434 0
M  V30 21466 H 2087.27 1.58711 -3.54164 0
M  V30 21467 H 2085.37 3.28669 -1.7552 0
M  V30 21468 H 2085.49 3.12401 -3.63239 0
M  V30 21469 H 2083.85 1.73296 -1.86657 0
M  V30 21470 H 2084.63 0.896802 -3.31379 0
M  V30 21471 N 2087.08 1.33171 0.842803 0
M  V30 21472 C 2088.32 1.24589 1.60017 0
M  V30 21473 C 2088.66 -0.188935 1.93279 0
M  V30 21474 O 2087.93 -1.12923 1.58362 0
M  V30 21475 C 2088.21 2.11731 2.91277 0
M  V30 21476 C 2088.07 3.63652 2.64721 0
M  V30 21477 C 2089.39 1.98749 3.92666 0
M  V30 21478 H 2086.51 0.453935 0.580613 0
M  V30 21479 H 2089.15 1.63234 0.972356 0
M  V30 21480 H 2087.3 1.78904 3.44856 0
M  V30 21481 H 2088.97 4.06751 2.17604 0
M  V30 21482 H 2087.21 3.85728 1.98486 0
M  V30 21483 H 2087.88 4.19966 3.58236 0
M  V30 21484 H 2090.36 2.2753 3.48381 0
M  V30 21485 H 2089.24 2.61979 4.82347 0
M  V30 21486 H 2089.5 0.958565 4.31583 0
M  V30 21487 N 2088.56 -1.06056 1.16576 0
M  V30 21488 C 2089.97 -1.31034 0.911171 0
M  V30 21489 C 2090.17 -1.96758 -0.434593 0
M  V30 21490 O 2089.23 -2.2357 -1.17357 0
M  V30 21491 C 2090.54 -2.18865 2.06201 0
M  V30 21492 C 2092.09 -2.32274 2.09804 0
M  V30 21493 C 2092.56 -3.23461 3.24248 0
M  V30 21494 N 2094.05 -3.31045 3.2398 0
M  V30 21495 C 2094.79 -4.01702 4.09174 0
M  V30 21496 N 2094.29 -4.7486 5.0446 0
M  V30 21497 N 2096.08 -3.97777 3.97153 0
M  V30 21498 H 2088.23 -0.617904 2.03213 0
M  V30 21499 H 2090.49 -0.335006 0.886834 0
M  V30 21500 H 2090.2 -1.77852 3.03417 0
M  V30 21501 H 2090.07 -3.19462 2.00559 0
M  V30 21502 H 2092.46 -2.72534 1.13179 0
M  V30 21503 H 2092.54 -1.31337 2.19509 0
M  V30 21504 H 2092.18 -2.83918 4.21133 0
M  V30 21505 H 2092.11 -4.24384 3.11779 0
M  V30 21506 H 2094.61 -2.78911 2.54984 0
M  V30 21507 H 2094.92 -5.26308 5.65879 0
M  V30 21508 H 2093.26 -4.73832 5.08437 0
M  V30 21509 H 2096.45 -3.39743 3.22013 0
M  V30 21510 H 2096.63 -4.52574 4.63768 0
M  V30 21511 N 2090.03 -0.964615 -1.24631 0
M  V30 21512 C 2091.44 -0.664103 -1.74489 0
M  V30 21513 C 2091.8 0.820273 -1.7823 0
M  V30 21514 O 2090.92 1.64185 -1.40969 0
M  V30 21515 C 2091.52 -1.1988 -3.16882 0
M  V30 21516 C 2090.07 -0.948248 -3.6426 0
M  V30 21517 C 2089.22 -1.33594 -2.42998 0
M  V30 21518 H 2092.17 -1.14029 -1.10377 0
M  V30 21519 H 2092.19 -0.563605 -3.76303 0
M  V30 21520 H 2091.71 -2.27916 -3.14128 0
M  V30 21521 H 2089.81 0.116719 -3.72417 0
M  V30 21522 H 2089.92 -1.59173 -4.51886 0
M  V30 21523 H 2088.28 -0.754319 -2.43274 0
M  V30 21524 H 2089.07 -2.42573 -2.42927 0
M  V30 21525 N 2091.51 1.39445 -0.734362 0
M  V30 21526 C 2092.46 2.30609 -0.093969 0
M  V30 21527 C 2093.43 1.49181 0.730356 0
M  V30 21528 O 2094.61 1.77869 0.69045 0
M  V30 21529 C 2091.75 3.35512 0.807817 0
M  V30 21530 C 2090.87 4.3199 -0.0290549 0
M  V30 21531 C 2090 5.23961 0.873946 0
M  V30 21532 C 2089.04 6.12091 0.0322837 0
M  V30 21533 N 2088.18 6.96421 0.891182 0
M  V30 21534 H 2093.02 2.84802 -0.877022 0
M  V30 21535 H 2090.55 1.40234 -0.444152 0
M  V30 21536 H 2092.51 3.94922 1.34509 0
M  V30 21537 H 2091.14 2.82775 1.55685 0
M  V30 21538 H 2090.19 3.74205 -0.683744 0
M  V30 21539 H 2091.51 4.94145 -0.679865 0
M  V30 21540 H 2090.66 5.88394 1.47909 0
M  V30 21541 H 2089.4 4.62127 1.55854 0
M  V30 21542 H 2088.4 5.46672 -0.585665 0
M  V30 21543 H 2089.63 6.75991 -0.649081 0
M  V30 21544 H 2087.58 6.37155 1.56108 0
M  V30 21545 H 2087.49 7.55417 0.296837 0
M  V30 21546 H 2088.76 7.65284 1.48191 0
M  V30 21547 N 2092.99 0.481946 1.5005 0
M  V30 21548 C 2094.27 -0.131379 1.95158 0
M  V30 21549 C 2094.65 -1.55951 1.42276 0
M  V30 21550 O 2093.99 -2.19691 0.62835 0
M  V30 21551 C 2094.2 -0.0635771 3.48942 0
M  V30 21552 C 2095.55 -0.247054 4.23881 0
M  V30 21553 O 2096.58 -0.139659 3.55926 0
M  V30 21554 O 2095.44 -0.465153 5.44517 0
M  V30 21555 H 2092.53 -0.105746 0.820211 0
M  V30 21556 H 2095.08 0.543125 1.60774 0
M  V30 21557 H 2093.85 0.933103 3.80012 0
M  V30 21558 H 2093.47 -0.779065 3.89893 0
M  V30 21559 N 2094.47 -1.56127 0.214985 0
M  V30 21560 C 2095.88 -1.8437 -0.294058 0
M  V30 21561 C 2096.23 -1.13621 -1.59952 0
M  V30 21562 O 2095.35 -0.403663 -2.12602 0
M  V30 21563 C 2095.95 -3.34464 -0.540311 0
M  V30 21564 C 2094.51 -3.63047 -0.993677 0
M  V30 21565 C 2093.66 -2.77249 -0.0531319 0
M  V30 21566 H 2096.61 -1.52527 0.43833 0
M  V30 21567 H 2096.63 -3.54314 -1.38716 0
M  V30 21568 H 2096.14 -3.85928 0.409992 0
M  V30 21569 H 2094.24 -3.17033 -1.95757 0
M  V30 21570 H 2094.35 -4.71086 -0.872629 0
M  V30 21571 H 2092.72 -2.48496 -0.558718 0
M  V30 21572 H 2093.5 -3.3151 0.891971 0
M  V30 21573 N 2095.95 0.0584645 -1.57492 0
M  V30 21574 C 2096.86 1.08563 -2.07969 0
M  V30 21575 C 2097.87 1.41545 -1.01198 0
M  V30 21576 O 2099.05 1.51455 -1.32753 0
M  V30 21577 C 2096.11 2.37616 -2.52467 0
M  V30 21578 C 2095.17 2.11485 -3.73594 0
M  V30 21579 C 2094.41 3.34384 -4.1596 0
M  V30 21580 O 2094.63 4.43997 -3.58083 0
M  V30 21581 O 2093.56 3.21812 -5.08646 0
M  V30 21582 H 2097.39 0.686764 -2.95833 0
M  V30 21583 H 2094.97 0.273502 -1.46875 0
M  V30 21584 H 2096.86 3.13541 -2.81549 0
M  V30 21585 H 2095.53 2.76857 -1.67726 0
M  V30 21586 H 2094.44 1.33222 -3.49575 0
M  V30 21587 H 2095.77 1.77117 -4.59228 0
M  V30 21588 N 2097.42 1.54103 0.330149 0
M  V30 21589 C 2098.67 1.71653 1.06675 0
M  V30 21590 C 2098.99 0.489514 1.88756 0
M  V30 21591 O 2098.26 -0.496523 1.89503 0
M  V30 21592 H 2096.84 0.63288 0.396827 0
M  V30 21593 H 2099.5 1.91391 0.36818 0
M  V30 21594 H 2098.6 2.59328 1.73653 0
M  V30 21595 N 2098.9 -0.59187 1.46064 0
M  V30 21596 C 2100.15 -1.3524 1.51122 0
M  V30 21597 C 2100.48 -1.93551 0.158686 0
M  V30 21598 O 2099.76 -1.75958 -0.828798 0
M  V30 21599 C 2100.04 -2.48861 2.6027 0
M  V30 21600 C 2099.89 -1.95645 4.05023 0
M  V30 21601 C 2101.21 -3.50941 2.65572 0
M  V30 21602 H 2098.33 -0.49038 0.550179 0
M  V30 21603 H 2100.97 -0.66575 1.77954 0
M  V30 21604 H 2099.12 -3.07434 2.37521 0
M  V30 21605 H 2100.79 -1.41599 4.3903 0
M  V30 21606 H 2099.04 -1.26535 4.14935 0
M  V30 21607 H 2099.71 -2.77621 4.77107 0
M  V30 21608 H 2102.18 -3.02233 2.85997 0
M  V30 21609 H 2101.06 -4.27911 3.43779 0
M  V30 21610 H 2101.32 -4.07578 1.71267 0
M  V30 21611 N 2100.38 -1.33616 -0.835729 0
M  V30 21612 C 2101.79 -1.22666 -1.40748 0
M  V30 21613 C 2102.14 0.153155 -1.95601 0
M  V30 21614 O 2101.27 1.0529 -1.89058 0
M  V30 21615 C 2101.86 -2.22087 -2.55857 0
M  V30 21616 C 2100.42 -2.14967 -3.08976 0
M  V30 21617 C 2099.57 -2.09399 -1.81789 0
M  V30 21618 H 2102.52 -1.45169 -0.641222 0
M  V30 21619 H 2102.54 -1.83042 -3.3358 0
M  V30 21620 H 2102.05 -3.22502 -2.15903 0
M  V30 21621 H 2100.15 -1.17865 -3.53466 0
M  V30 21622 H 2100.27 -3.05652 -3.68936 0
M  V30 21623 H 2098.63 -1.54922 -2.02166 0
M  V30 21624 H 2099.41 -3.11626 -1.44027 0
M  V30 21625 N 2101.86 1.05436 -1.17136 0
M  V30 21626 C 2103.27 1.59854 -0.964558 0
M  V30 21627 C 2103.62 1.89999 0.489367 0
M  V30 21628 O 2102.75 1.67983 1.36421 0
M  V30 21629 C 2103.34 2.90432 -1.74455 0
M  V30 21630 C 2101.9 3.41518 -1.58249 0
M  V30 21631 C 2101.05 2.15286 -1.74777 0
M  V30 21632 H 2104 0.882787 -1.31881 0
M  V30 21633 H 2104.02 3.60225 -1.22548 0
M  V30 21634 H 2103.53 2.6846 -2.80269 0
M  V30 21635 H 2101.63 3.68531 -0.549129 0
M  V30 21636 H 2101.74 4.16267 -2.37188 0
M  V30 21637 H 2100.11 2.25927 -1.17596 0
M  V30 21638 H 2100.89 1.95787 -2.81997 0
M  V30 21639 N 2103.34 0.971211 1.24118 0
M  V30 21640 C 2104.27 0.523167 2.27564 0
M  V30 21641 C 2105.25 -0.438983 1.64338 0
M  V30 21642 O 2106.43 -0.334345 1.913 0
M  V30 21643 C 2103.56 -0.184078 3.46812 0
M  V30 21644 C 2102.52 0.694439 4.22329 0
M  V30 21645 C 2101.84 -0.144498 5.34505 0
M  V30 21646 C 2103.14 1.98076 4.83284 0
M  V30 21647 H 2104.84 1.3878 2.65293 0
M  V30 21648 H 2102.38 0.668756 1.27529 0
M  V30 21649 H 2104.34 -0.508765 4.18318 0
M  V30 21650 H 2103.06 -1.08309 3.08118 0
M  V30 21651 H 2101.72 1.00245 3.52628 0
M  V30 21652 H 2101.37 -1.04377 4.92051 0
M  V30 21653 H 2101.07 0.440127 5.85949 0
M  V30 21654 H 2102.59 -0.463776 6.08836 0
M  V30 21655 H 2104 1.72143 5.46845 0
M  V30 21656 H 2102.4 2.5124 5.44976 0
M  V30 21657 H 2103.47 2.67346 4.04542 0
M  V30 21658 N 2104.81 -1.39054 0.741747 0
M  V30 21659 C 2105.74 -2.33184 0.121433 0
M  V30 21660 C 2106.73 -1.54261 -0.716774 0
M  V30 21661 O 2107.91 -1.82627 -0.660379 0
M  V30 21662 C 2105.04 -3.38393 -0.78152 0
M  V30 21663 C 2103.99 -4.27974 -0.046955 0
M  V30 21664 C 2103.32 -5.23938 -1.06737 0
M  V30 21665 C 2104.62 -5.10272 1.11446 0
M  V30 21666 H 2106.31 -2.85308 0.907724 0
M  V30 21667 H 2103.86 -1.37179 0.437953 0
M  V30 21668 H 2105.81 -4.032 -1.22506 0
M  V30 21669 H 2104.54 -2.84724 -1.6 0
M  V30 21670 H 2103.2 -3.64656 0.377036 0
M  V30 21671 H 2102.84 -4.66562 -1.8796 0
M  V30 21672 H 2102.54 -5.84725 -0.580605 0
M  V30 21673 H 2104.07 -5.91622 -1.51048 0
M  V30 21674 H 2105.48 -5.68386 0.749042 0
M  V30 21675 H 2103.88 -5.80234 1.53131 0
M  V30 21676 H 2104.95 -4.44706 1.93299 0
M  V30 21677 N 2106.29 -0.489897 -1.49792 0
M  V30 21678 C 2107.54 0.0586308 -2.02715 0
M  V30 21679 C 2107.87 1.37665 -1.36974 0
M  V30 21680 O 2107.15 1.87919 -0.501679 0
M  V30 21681 C 2107.43 0.222812 -3.5941 0
M  V30 21682 C 2107.28 -1.11755 -4.35696 0
M  V30 21683 C 2108.6 0.96865 -4.29308 0
M  V30 21684 H 2105.72 0.0198337 -0.736733 0
M  V30 21685 H 2108.36 -0.639149 -1.78927 0
M  V30 21686 H 2106.51 0.81714 -3.79809 0
M  V30 21687 H 2108.18 -1.74991 -4.26821 0
M  V30 21688 H 2106.43 -1.70959 -3.98692 0
M  V30 21689 H 2107.1 -0.956105 -5.43657 0
M  V30 21690 H 2109.57 0.464706 -4.13497 0
M  V30 21691 H 2108.45 1.05235 -5.38718 0
M  V30 21692 H 2108.71 2.00975 -3.93778 0
M  V30 21693 N 2107.77 1.56011 -0.223262 0
M  V30 21694 C 2109 2.03189 0.415817 0
M  V30 21695 C 2109.42 1.102 1.52439 0
M  V30 21696 O 2108.78 0.0904999 1.81074 0
M  V30 21697 C 2108.83 3.48586 0.923053 0
M  V30 21698 O 2107.93 3.58734 2.03429 0
M  V30 21699 H 2107.27 0.65733 0.0938783 0
M  V30 21700 H 2109.8 2.01715 -0.342399 0
M  V30 21701 H 2109.81 3.88941 1.23243 0
M  V30 21702 H 2108.49 4.1575 0.11169 0
M  V30 21703 H 2107.06 3.30267 1.73142 0
M  V30 21704 N 2109.25 -0.0501116 1.5752 0
M  V30 21705 C 2110.18 -1.08434 2.01928 0
M  V30 21706 C 2111.19 -1.33718 0.928613 0
M  V30 21707 O 2112.38 -1.31576 1.20623 0
M  V30 21708 C 2109.48 -2.43065 2.36162 0
M  V30 21709 C 2108.66 -2.37433 3.67347 0
M  V30 21710 C 2107.71 -3.54345 3.89007 0
M  V30 21711 O 2106.74 -3.3479 4.60331 0
M  V30 21712 N 2107.94 -4.75475 3.33022 0
M  V30 21713 H 2110.71 -0.705995 2.91266 0
M  V30 21714 H 2108.27 -0.238421 1.60135 0
M  V30 21715 H 2110.26 -3.19959 2.47807 0
M  V30 21716 H 2108.83 -2.72821 1.52603 0
M  V30 21717 H 2108.05 -1.45778 3.66254 0
M  V30 21718 H 2109.34 -2.30792 4.53445 0
M  V30 21719 H 2108.74 -4.94264 2.75171 0
M  V30 21720 H 2107.29 -5.49806 3.50081 0
M  V30 21721 N 2110.73 -1.54276 -0.321972 0
M  V30 21722 C 2111.66 -1.80114 -1.41745 0
M  V30 21723 C 2112.67 -0.683177 -1.47772 0
M  V30 21724 O 2113.86 -0.960312 -1.50467 0
M  V30 21725 C 2110.96 -1.90532 -2.80269 0
M  V30 21726 C 2110.13 -3.20712 -2.97427 0
M  V30 21727 C 2109.19 -3.21811 -4.16322 0
M  V30 21728 O 2108.22 -3.95443 -4.09406 0
M  V30 21729 N 2109.42 -2.45708 -5.25935 0
M  V30 21730 H 2112.19 -2.74652 -1.19943 0
M  V30 21731 H 2109.75 -1.53592 -0.511965 0
M  V30 21732 H 2111.74 -1.88693 -3.58018 0
M  V30 21733 H 2110.31 -1.03083 -2.95115 0
M  V30 21734 H 2109.53 -3.35498 -2.06965 0
M  V30 21735 H 2110.82 -4.0666 -3.05786 0
M  V30 21736 H 2110.21 -1.85477 -5.34429 0
M  V30 21737 H 2108.77 -2.49645 -6.02097 0
M  V30 21738 N 2112.2 0.584116 -1.46376 0
M  V30 21739 C 2113.17 1.6753 -1.56417 0
M  V30 21740 C 2114.17 1.54622 -0.441454 0
M  V30 21741 O 2115.36 1.59265 -0.705714 0
M  V30 21742 C 2112.49 3.06947 -1.48313 0
M  V30 21743 H 2113.68 1.59986 -2.53662 0
M  V30 21744 H 2111.24 0.801837 -1.34165 0
M  V30 21745 H 2111.97 3.20048 -0.523413 0
M  V30 21746 H 2111.76 3.17724 -2.29768 0
M  V30 21747 H 2113.25 3.86384 -1.58422 0
M  V30 21748 N 2113.68 1.34058 0.828631 0
M  V30 21749 C 2114.63 1.25161 1.93916 0
M  V30 21750 C 2115.6 0.128041 1.65606 0
M  V30 21751 O 2116.79 0.308053 1.88297 0
M  V30 21752 C 2113.93 1.00718 3.30075 0
M  V30 21753 C 2113.04 2.21797 3.70716 0
M  V30 21754 C 2112.17 1.90684 4.95795 0
M  V30 21755 C 2111.21 3.07938 5.29 0
M  V30 21756 N 2110.35 2.76746 6.45257 0
M  V30 21757 H 2115.19 2.20137 2.00857 0
M  V30 21758 H 2112.73 1.09455 0.982754 0
M  V30 21759 H 2114.68 0.845864 4.08535 0
M  V30 21760 H 2113.31 0.0941257 3.22663 0
M  V30 21761 H 2112.37 2.48869 2.87695 0
M  V30 21762 H 2113.68 3.09421 3.91229 0
M  V30 21763 H 2112.83 1.71255 5.82028 0
M  V30 21764 H 2111.57 1.00312 4.77272 0
M  V30 21765 H 2110.58 3.27969 4.41267 0
M  V30 21766 H 2111.8 3.9908 5.49465 0
M  V30 21767 H 2109.75 1.88944 6.28201 0
M  V30 21768 H 2109.66 3.57901 6.65915 0
M  V30 21769 H 2110.93 2.60808 7.34574 0
M  V30 21770 N 2115.16 -1.04814 1.17694 0
M  V30 21771 C 2116.58 -1.3006 0.925018 0
M  V30 21772 C 2116.78 -1.97207 -0.4137 0
M  V30 21773 O 2115.83 -2.24802 -1.14979 0
M  V30 21774 C 2117.15 -2.16666 2.0851 0
M  V30 21775 C 2118.69 -2.30036 2.12256 0
M  V30 21776 C 2119.17 -3.20004 3.27661 0
M  V30 21777 N 2120.66 -3.2759 3.27473 0
M  V30 21778 C 2121.4 -3.97339 4.13412 0
M  V30 21779 N 2120.89 -4.69483 5.09468 0
M  V30 21780 N 2122.68 -3.93542 4.01349 0
M  V30 21781 H 2114.84 -0.596316 2.03857 0
M  V30 21782 H 2117.1 -0.325581 0.890338 0
M  V30 21783 H 2116.8 -1.74624 3.05286 0
M  V30 21784 H 2116.68 -3.17317 2.03936 0
M  V30 21785 H 2119.07 -2.71318 1.16063 0
M  V30 21786 H 2119.15 -1.29001 2.2089 0
M  V30 21787 H 2118.79 -2.79435 4.24121 0
M  V30 21788 H 2118.72 -4.21053 3.16263 0
M  V30 21789 H 2121.21 -2.76191 2.57928 0
M  V30 21790 H 2121.52 -5.20277 5.7143 0
M  V30 21791 H 2119.87 -4.68413 5.13434 0
M  V30 21792 H 2123.06 -3.36308 3.25599 0
M  V30 21793 H 2123.23 -4.4763 4.68542 0
M  V30 21794 N 2116.64 -0.977779 -1.23601 0
M  V30 21795 C 2117.55 -0.524039 -2.28672 0
M  V30 21796 C 2118.57 0.419894 -1.68858 0
M  V30 21797 O 2119.74 0.290458 -1.99295 0
M  V30 21798 C 2116.81 0.16886 -3.46289 0
M  V30 21799 C 2115.87 -0.81615 -4.21471 0
M  V30 21800 C 2115.1 -0.156223 -5.33471 0
M  V30 21801 O 2115.32 1.05329 -5.60591 0
M  V30 21802 O 2114.26 -0.853473 -5.95818 0
M  V30 21803 H 2118.08 -1.39778 -2.69622 0
M  V30 21804 H 2115.67 -0.745288 -1.29483 0
M  V30 21805 H 2117.55 0.557659 -4.17694 0
M  V30 21806 H 2116.23 1.0174 -3.07296 0
M  V30 21807 H 2115.13 -1.2556 -3.524 0
M  V30 21808 H 2116.47 -1.63342 -4.64306 0
M  V30 21809 N 2118.12 1.38658 -0.749111 0
M  V30 21810 C 2119.03 2.34291 -0.120373 0
M  V30 21811 C 2120.04 1.59043 0.705796 0
M  V30 21812 O 2121.22 1.9126 0.63099 0
M  V30 21813 C 2118.28 3.38141 0.765626 0
M  V30 21814 C 2117.35 4.29236 -0.0744037 0
M  V30 21815 C 2116.58 5.28125 0.769401 0
M  V30 21816 O 2116.8 5.33902 2.0076 0
M  V30 21817 O 2115.74 6.01598 0.190576 0
M  V30 21818 H 2119.56 2.89744 -0.910056 0
M  V30 21819 H 2117.15 1.40428 -0.509948 0
M  V30 21820 H 2119.03 4.0174 1.27214 0
M  V30 21821 H 2117.7 2.8505 1.53388 0
M  V30 21822 H 2116.61 3.68812 -0.626761 0
M  V30 21823 H 2117.94 4.85569 -0.805208 0
M  V30 21824 N 2119.6 0.497834 1.49531 0
M  V30 21825 C 2120.51 -0.286926 2.32839 0
M  V30 21826 C 2121.52 -0.970397 1.44427 0
M  V30 21827 O 2122.7 -0.952478 1.77454 0
M  V30 21828 C 2119.76 -1.33928 3.19788 0
M  V30 21829 C 2118.82 -0.669588 4.24046 0
M  V30 21830 C 2118.06 -1.67181 5.0684 0
M  V30 21831 O 2118.28 -2.90132 4.91101 0
M  V30 21832 O 2117.21 -1.22887 5.89222 0
M  V30 21833 H 2121.04 0.394869 3.01122 0
M  V30 21834 H 2118.62 0.259218 1.47134 0
M  V30 21835 H 2120.51 -1.94822 3.73661 0
M  V30 21836 H 2119.18 -2.00407 2.54202 0
M  V30 21837 H 2118.09 -0.0209922 3.74094 0
M  V30 21838 H 2119.42 -0.0473067 4.92177 0
M  V30 21839 N 2121.07 -1.5589 0.231532 0
M  V30 21840 C 2122.49 -1.5912 -0.123654 0
M  V30 21841 C 2122.69 -1.24851 -1.5816 0
M  V30 21842 O 2121.75 -0.988491 -2.32347 0
M  V30 21843 C 2123.06 -2.99954 0.211653 0
M  V30 21844 C 2124.61 -3.12617 0.1547 0
M  V30 21845 C 2125.08 -4.55645 0.463821 0
M  V30 21846 N 2126.57 -4.61348 0.413757 0
M  V30 21847 C 2127.31 -5.69969 0.626305 0
M  V30 21848 N 2126.8 -6.86914 0.901162 0
M  V30 21849 N 2128.6 -5.59323 0.558059 0
M  V30 21850 H 2120.75 -1.76439 1.1825 0
M  V30 21851 H 2123.01 -0.820591 0.474695 0
M  V30 21852 H 2122.72 -3.29716 1.22394 0
M  V30 21853 H 2122.59 -3.74278 -0.468608 0
M  V30 21854 H 2124.98 -2.82646 -0.848241 0
M  V30 21855 H 2125.06 -2.40602 0.868584 0
M  V30 21856 H 2124.7 -4.86336 1.46425 0
M  V30 21857 H 2124.63 -5.259 -0.271369 0
M  V30 21858 H 2127.12 -3.77319 0.209419 0
M  V30 21859 H 2127.44 -7.65617 1.05118 0
M  V30 21860 H 2125.78 -6.88635 0.938467 0
M  V30 21861 H 2128.97 -4.66838 0.343487 0
M  V30 21862 H 2129.15 -6.43908 0.727109 0
M  V30 21863 N 2122.55 0.0417572 -1.57545 0
M  V30 21864 C 2123.78 0.750955 -1.93327 0
M  V30 21865 C 2124.2 1.68773 -0.830508 0
M  V30 21866 O 2123.56 1.80024 0.214702 0
M  V30 21867 C 2123.61 1.49503 -3.28148 0
M  V30 21868 O 2122.71 2.60754 -3.19501 0
M  V30 21869 H 2122.05 0.202874 -0.632248 0
M  V30 21870 H 2124.58 0.00102047 -2.046 0
M  V30 21871 H 2124.59 1.86775 -3.62738 0
M  V30 21872 H 2123.27 0.80791 -4.07977 0
M  V30 21873 H 2121.84 2.26119 -2.96521 0
M  V30 21874 N 2124.03 1.54445 0.313786 0
M  V30 21875 C 2125.44 1.64251 0.887611 0
M  V30 21876 C 2125.79 0.542877 1.8854 0
M  V30 21877 O 2124.92 -0.322627 2.13981 0
M  V30 21878 C 2125.51 2.97739 1.61668 0
M  V30 21879 C 2124.07 3.09709 2.13909 0
M  V30 21880 C 2123.22 2.5987 0.967618 0
M  V30 21881 H 2126.17 1.58438 0.091111 0
M  V30 21882 H 2126.19 2.88447 2.4815 0
M  V30 21883 H 2125.7 3.77752 0.890231 0
M  V30 21884 H 2123.8 2.34391 2.89641 0
M  V30 21885 H 2123.92 4.15667 2.38239 0
M  V30 21886 H 2122.28 2.16006 1.34957 0
M  V30 21887 H 2123.06 3.42349 0.255325 0
M  V30 21888 N 2125.51 -0.576345 1.46683 0
M  V30 21889 C 2126.47 -1.66698 1.57303 0
M  V30 21890 C 2127.47 -1.54385 0.449647 0
M  V30 21891 O 2128.66 -1.58888 0.71415 0
M  V30 21892 C 2125.79 -3.06156 1.49938 0
M  V30 21893 H 2126.99 -1.58638 2.54507 0
M  V30 21894 H 2124.54 -0.79471 1.34588 0
M  V30 21895 H 2125.27 -3.19766 0.540379 0
M  V30 21896 H 2125.06 -3.16502 2.3145 0
M  V30 21897 H 2126.55 -3.85538 1.60469 0
M  V30 21898 N 2126.99 -1.34495 -0.82151 0
M  V30 21899 C 2127.95 -1.2608 -1.91407 0
M  V30 21900 C 2128.95 -0.175671 -1.59838 0
M  V30 21901 O 2130.14 -0.428389 -1.6885 0
M  V30 21902 C 2127.27 -0.9469 -3.27485 0
M  V30 21903 H 2128.46 -2.23212 -2.00291 0
M  V30 21904 H 2126.02 -1.18804 -1.01565 0
M  V30 21905 H 2126.75 0.0211878 -3.24293 0
M  V30 21906 H 2126.54 -1.73181 -3.51782 0
M  V30 21907 H 2128.03 -0.913228 -4.07492 0
M  V30 21908 N 2128.46 1.04188 -1.18248 0
M  V30 21909 C 2129.88 1.58822 -0.981458 0
M  V30 21910 C 2130.23 1.90507 0.469187 0
M  V30 21911 O 2129.35 1.6942 1.34632 0
M  V30 21912 C 2129.95 2.88565 -1.77526 0
M  V30 21913 C 2128.51 3.3982 -1.61862 0
M  V30 21914 C 2127.65 2.13421 -1.77051 0
M  V30 21915 H 2130.6 0.868749 -1.3281 0
M  V30 21916 H 2130.62 3.58905 -1.26362 0
M  V30 21917 H 2130.14 2.65472 -2.83101 0
M  V30 21918 H 2128.24 3.67928 -0.588186 0
M  V30 21919 H 2128.35 4.13728 -2.4159 0
M  V30 21920 H 2126.71 2.24667 -1.19986 0
M  V30 21921 H 2127.5 1.92785 -2.84058 0
M  V30 21922 N 2129.94 0.98432 1.23081 0
M  V30 21923 C 2131.35 0.691779 1.73411 0
M  V30 21924 C 2131.7 -0.791814 1.79513 0
M  V30 21925 O 2130.83 -1.61921 1.43563 0
M  V30 21926 C 2131.42 1.24906 3.14935 0
M  V30 21927 C 2129.98 1.00608 3.62705 0
M  V30 21928 C 2129.13 1.37443 2.40842 0
M  V30 21929 H 2132.08 1.1577 1.08549 0
M  V30 21930 H 2132.1 0.623401 3.75358 0
M  V30 21931 H 2131.61 2.32884 3.10462 0
M  V30 21932 H 2129.72 -0.0574556 3.72556 0
M  V30 21933 H 2129.83 1.66341 4.49296 0
M  V30 21934 H 2128.19 0.792926 2.42043 0
M  V30 21935 H 2128.98 2.46407 2.39037 0
M  V30 21936 N 2131.42 -1.38259 0.756453 0
M  V30 21937 C 2132.83 -1.82766 0.381221 0
M  V30 21938 C 2133.18 -1.631 -1.09054 0
M  V30 21939 O 2132.31 -1.13374 -1.84324 0
M  V30 21940 C 2132.9 -3.318 0.685159 0
M  V30 21941 C 2131.46 -3.74644 0.36317 0
M  V30 21942 C 2130.61 -2.60994 0.936868 0
M  V30 21943 H 2133.56 -1.26947 0.952371 0
M  V30 21944 H 2133.58 -3.80483 -0.0356313 0
M  V30 21945 H 2133.09 -3.46082 1.75639 0
M  V30 21946 H 2131.19 -3.65939 -0.701363 0
M  V30 21947 H 2131.31 -4.71305 0.860726 0
M  V30 21948 H 2129.67 -2.52113 0.362062 0
M  V30 21949 H 2130.45 -2.78075 2.01319 0
M  V30 21950 N 2132.9 -0.505757 -1.49264 0
M  V30 21951 C 2133.83 0.259368 -2.32055 0
M  V30 21952 C 2134.81 0.95808 -1.40552 0
M  V30 21953 O 2135.99 0.948562 -1.69458 0
M  V30 21954 C 2133.12 1.32138 -3.2118 0
M  V30 21955 C 2132.08 0.742267 -4.21514 0
M  V30 21956 C 2131.4 1.90515 -4.99608 0
M  V30 21957 C 2132.7 -0.269866 -5.21602 0
M  V30 21958 H 2134.4 -0.431697 -2.96271 0
M  V30 21959 H 2131.94 -0.209055 -1.42474 0
M  V30 21960 H 2133.9 1.86441 -3.77912 0
M  V30 21961 H 2132.62 2.0417 -2.54916 0
M  V30 21962 H 2131.28 0.220956 -3.65934 0
M  V30 21963 H 2130.93 2.61327 -4.29788 0
M  V30 21964 H 2130.63 1.52371 -5.67501 0
M  V30 21965 H 2132.15 2.45242 -5.59186 0
M  V30 21966 H 2133.57 0.18519 -5.73001 0
M  V30 21967 H 2131.96 -0.567397 -5.97412 0
M  V30 21968 H 2133.03 -1.18411 -4.7022 0
M  V30 21969 N 2134.38 1.55765 -0.239796 0
M  V30 21970 C 2135.79 1.84814 0.264689 0
M  V30 21971 C 2136.14 1.16151 1.58124 0
M  V30 21972 O 2135.26 0.437435 2.11933 0
M  V30 21973 C 2135.86 3.35281 0.487032 0
M  V30 21974 C 2134.42 3.64582 0.935793 0
M  V30 21975 C 2133.56 2.77299 0.00901728 0
M  V30 21976 H 2136.52 1.5181 -0.46254 0
M  V30 21977 H 2136.54 3.56476 1.33061 0
M  V30 21978 H 2136.05 3.85227 -0.471338 0
M  V30 21979 H 2134.15 3.20108 1.90688 0
M  V30 21980 H 2134.26 4.72415 0.797573 0
M  V30 21981 H 2132.63 2.49354 0.519113 0
M  V30 21982 H 2133.41 3.30049 -0.944598 0
M  V30 21983 N 2135.85 -0.0334016 1.57565 0
M  V30 21984 C 2137.08 -0.736973 1.9333 0
M  V30 21985 C 2137.5 -1.69124 0.83919 0
M  V30 21986 O 2136.85 -1.81563 -0.184737 0
M  V30 21987 C 2136.91 -1.49777 3.29012 0
M  V30 21988 O 2136.63 -0.581806 4.3422 0
M  V30 21989 C 2138.13 -2.29889 3.79033 0
M  V30 21990 H 2135.35 -0.207374 0.638151 0
M  V30 21991 H 2137.89 0.0077802 2.04499 0
M  V30 21992 H 2136.05 -2.19444 3.19254 0
M  V30 21993 H 2136.46 -1.11488 5.12514 0
M  V30 21994 H 2137.93 -2.78671 4.76494 0
M  V30 21995 H 2138.41 -3.11119 3.10003 0
M  V30 21996 H 2139.02 -1.65304 3.9186 0
M  V30 21997 N 2137.33 -1.54609 -0.305591 0
M  V30 21998 C 2138.56 -1.77658 -1.06044 0
M  V30 21999 C 2138.98 -0.533827 -1.81096 0
M  V30 22000 O 2138.33 0.496175 -1.75626 0
M  V30 22001 C 2138.38 -2.98126 -2.04458 0
M  V30 22002 O 2138.1 -4.17598 -1.32452 0
M  V30 22003 C 2139.61 -3.33527 -2.92018 0
M  V30 22004 H 2136.83 -0.592632 -0.314688 0
M  V30 22005 H 2139.37 -2.01547 -0.346258 0
M  V30 22006 H 2137.52 -2.76458 -2.71385 0
M  V30 22007 H 2137.94 -4.85485 -1.98506 0
M  V30 22008 H 2139.41 -4.21074 -3.56932 0
M  V30 22009 H 2139.89 -2.5148 -3.60076 0
M  V30 22010 H 2140.5 -3.57338 -2.30628 0
M  V30 22011 N 2138.81 0.568558 -1.46987 0
M  V30 22012 C 2140.04 1.35675 -1.56867 0
M  V30 22013 C 2140.46 1.86864 -0.215303 0
M  V30 22014 O 2139.82 1.62351 0.806967 0
M  V30 22015 C 2139.87 2.51048 -2.58858 0
M  V30 22016 O 2138.97 3.52929 -2.13342 0
M  V30 22017 H 2138.31 0.403471 -0.527358 0
M  V30 22018 H 2140.84 0.688258 -1.92676 0
M  V30 22019 H 2140.85 2.97773 -2.78918 0
M  V30 22020 H 2139.53 2.13145 -3.5713 0
M  V30 22021 H 2138.1 3.12587 -2.03332 0
M  V30 22022 N 2140.29 1.34929 0.814366 0
M  V30 22023 C 2141.51 1.31019 1.60776 0
M  V30 22024 C 2141.94 -0.111347 1.8777 0
M  V30 22025 O 2141.3 -1.07577 1.45935 0
M  V30 22026 C 2141.34 2.11503 2.92059 0
M  V30 22027 O 2140.45 1.49042 3.84526 0
M  V30 22028 H 2139.79 0.449572 0.488652 0
M  V30 22029 H 2142.32 1.77857 1.01133 0
M  V30 22030 H 2142.33 2.23174 3.41552 0
M  V30 22031 H 2141 3.14853 2.71736 0
M  V30 22032 H 2139.58 1.46165 3.4306 0
M  V30 22033 N 2141.77 -1.0356 1.18799 0
M  V30 22034 C 2143.01 -1.76497 0.984535 0
M  V30 22035 C 2143.34 -1.88833 -0.486544 0
M  V30 22036 O 2142.61 -1.41702 -1.35268 0
M  V30 22037 H 2141.19 -0.653818 0.36129 0
M  V30 22038 H 2143.85 -1.24956 1.49573 0
M  V30 22039 H 2142.94 -2.77573 1.42687 0
M  V30 22040 N 2143.25 -0.990834 -1.22557 0
M  V30 22041 C 2144.19 -0.539382 -2.24409 0
M  V30 22042 C 2145.16 0.427199 -1.60512 0
M  V30 22043 O 2146.35 0.332419 -1.87882 0
M  V30 22044 C 2143.49 0.141857 -3.44808 0
M  V30 22045 C 2142.6 -0.86622 -4.23226 0
M  V30 22046 C 2141.74 -0.158712 -5.30963 0
M  V30 22047 C 2140.77 -1.1553 -6.01098 0
M  V30 22048 N 2139.91 -0.476237 -7.00483 0
M  V30 22049 H 2144.75 -1.41266 -2.62389 0
M  V30 22050 H 2142.29 -0.707664 -1.28959 0
M  V30 22051 H 2144.25 0.553728 -4.13509 0
M  V30 22052 H 2142.88 0.978941 -3.07598 0
M  V30 22053 H 2141.93 -1.39642 -3.53842 0
M  V30 22054 H 2143.24 -1.62521 -4.71581 0
M  V30 22055 H 2142.39 0.309995 -6.05908 0
M  V30 22056 H 2141.13 0.632794 -4.83577 0
M  V30 22057 H 2140.14 -1.63465 -5.24937 0
M  V30 22058 H 2141.36 -1.94764 -6.50572 0
M  V30 22059 H 2139.31 0.295871 -6.55332 0
M  V30 22060 H 2139.23 -1.1737 -7.46833 0
M  V30 22061 H 2140.49 -0.0302638 -7.79494 0
M  V30 22062 N 2144.72 1.37856 -0.763775 0
M  V30 22063 C 2145.69 2.28702 -0.151022 0
M  V30 22064 C 2146.69 1.47661 0.636627 0
M  V30 22065 O 2147.88 1.67979 0.46139 0
M  V30 22066 C 2145.01 3.31525 0.793965 0
M  V30 22067 H 2146.2 2.84397 -0.951747 0
M  V30 22068 H 2143.75 1.46987 -0.531452 0
M  V30 22069 H 2144.49 2.80939 1.61999 0
M  V30 22070 H 2144.27 3.91416 0.231444 0
M  V30 22071 H 2145.76 3.99432 1.21837 0
M  V30 22072 N 2146.2 0.513665 1.48994 0
M  V30 22073 C 2147.16 -0.247066 2.27864 0
M  V30 22074 C 2148.16 -0.882574 1.34415 0
M  V30 22075 O 2149.35 -0.745145 1.57459 0
M  V30 22076 C 2146.49 -1.35575 3.12782 0
M  V30 22077 H 2147.68 0.445185 2.96577 0
M  V30 22078 H 2145.23 0.269045 1.53967 0
M  V30 22079 H 2145.97 -2.08176 2.48663 0
M  V30 22080 H 2145.75 -0.905368 3.81504 0
M  V30 22081 H 2147.24 -1.89127 3.72318 0
M  V30 22082 N 2147.68 -1.55636 0.248053 0
M  V30 22083 C 2148.63 -2.21428 -0.651012 0
M  V30 22084 C 2149.6 -1.17855 -1.17045 0
M  V30 22085 O 2150.78 -1.46306 -1.22471 0
M  V30 22086 C 2147.92 -2.91846 -1.84174 0
M  V30 22087 C 2147.03 -4.10077 -1.35872 0
M  V30 22088 C 2146.17 -4.68207 -2.50909 0
M  V30 22089 C 2145.21 -5.78685 -1.99475 0
M  V30 22090 N 2144.35 -6.30993 -3.07883 0
M  V30 22091 H 2149.19 -2.97884 -0.0832758 0
M  V30 22092 H 2146.72 -1.47071 -0.0293424 0
M  V30 22093 H 2148.68 -3.30873 -2.54124 0
M  V30 22094 H 2147.31 -2.17862 -2.38193 0
M  V30 22095 H 2146.36 -3.76356 -0.553219 0
M  V30 22096 H 2147.67 -4.89829 -0.941776 0
M  V30 22097 H 2146.83 -5.09814 -3.28899 0
M  V30 22098 H 2145.57 -3.87674 -2.95905 0
M  V30 22099 H 2144.57 -5.36555 -1.19955 0
M  V30 22100 H 2145.8 -6.6107 -1.55447 0
M  V30 22101 H 2143.74 -5.53365 -3.52312 0
M  V30 22102 H 2143.66 -7.05941 -2.70523 0
M  V30 22103 H 2144.93 -6.77258 -3.8593 0
M  V30 22104 N 2149.16 0.0250451 -1.5758 0
M  V30 22105 C 2150.1 1.02441 -2.0682 0
M  V30 22106 C 2151.07 1.35675 -0.958198 0
M  V30 22107 O 2152.26 1.45944 -1.22903 0
M  V30 22108 C 2149.4 2.31904 -2.55567 0
M  V30 22109 C 2148.51 2.04792 -3.80374 0
M  V30 22110 C 2147.65 3.28155 -4.17718 0
M  V30 22111 C 2146.69 2.96616 -5.3543 0
M  V30 22112 N 2145.82 4.12442 -5.68187 0
M  V30 22113 H 2150.66 0.59756 -2.91947 0
M  V30 22114 H 2148.2 0.283432 -1.44344 0
M  V30 22115 H 2150.16 3.07553 -2.81899 0
M  V30 22116 H 2148.79 2.72304 -1.73351 0
M  V30 22117 H 2147.84 1.19622 -3.61102 0
M  V30 22118 H 2149.15 1.7753 -4.66138 0
M  V30 22119 H 2148.31 4.12169 -4.45199 0
M  V30 22120 H 2147.05 3.58534 -3.30612 0
M  V30 22121 H 2146.05 2.11005 -5.07698 0
M  V30 22122 H 2147.28 2.67511 -6.24191 0
M  V30 22123 H 2145.22 4.42765 -4.84041 0
M  V30 22124 H 2145.14 3.88617 -6.4847 0
M  V30 22125 H 2146.41 4.97317 -6.00246 0
M  V30 22126 N 2150.64 1.54769 0.297388 0
M  V30 22127 C 2152.05 1.65183 0.87014 0
M  V30 22128 C 2152.4 0.562844 1.87953 0
M  V30 22129 O 2151.52 -0.299913 2.14312 0
M  V30 22130 C 2152.12 2.99437 1.58501 0
M  V30 22131 C 2150.68 3.1196 2.10612 0
M  V30 22132 C 2149.82 2.60882 0.94 0
M  V30 22133 H 2152.77 1.58526 0.0743014 0
M  V30 22134 H 2152.8 2.91063 2.45077 0
M  V30 22135 H 2152.31 3.78675 0.850115 0
M  V30 22136 H 2150.41 2.3745 2.87138 0
M  V30 22137 H 2150.52 4.1817 2.33817 0
M  V30 22138 H 2148.89 2.17426 1.32658 0
M  V30 22139 H 2149.67 3.42601 0.219 0
M  V30 22140 N 2152.11 -0.560755 1.47286 0
M  V30 22141 C 2153.34 -1.34358 1.57339 0
M  V30 22142 C 2153.76 -1.87487 0.222299 0
M  V30 22143 O 2153.11 -1.64806 -0.78391 0
M  V30 22144 C 2153.16 -2.51596 2.5958 0
M  V30 22145 O 2152.89 -2.00664 3.89443 0
M  V30 22146 C 2154.39 -3.43856 2.79783 0
M  V30 22147 H 2151.61 -0.409692 0.531407 0
M  V30 22148 H 2154.15 -0.679628 1.92876 0
M  V30 22149 H 2152.31 -3.13936 2.26986 0
M  V30 22150 H 2152.72 -2.77175 4.4528 0
M  V30 22151 H 2154.19 -4.22542 3.55193 0
M  V30 22152 H 2154.67 -3.97177 1.87477 0
M  V30 22153 H 2155.28 -2.87333 3.1356 0
M  V30 22154 N 2153.59 -1.35359 -0.807199 0
M  V30 22155 C 2154.55 -1.28103 -1.90059 0
M  V30 22156 C 2155.55 -0.192614 -1.59642 0
M  V30 22157 O 2156.74 -0.446274 -1.68387 0
M  V30 22158 C 2153.88 -0.981581 -3.26463 0
M  V30 22159 H 2155.07 -2.25323 -1.97912 0
M  V30 22160 H 2152.62 -1.19874 -1.00299 0
M  V30 22161 H 2153.36 -0.013209 -3.24297 0
M  V30 22162 H 2153.14 -1.76903 -3.49925 0
M  V30 22163 H 2154.63 -0.956397 -4.06501 0
M  V30 22164 N 2155.07 1.02928 -1.19346 0
M  V30 22165 C 2156.03 2.09361 -0.932765 0
M  V30 22166 C 2157.03 1.60567 0.086582 0
M  V30 22167 O 2158.22 1.73569 -0.148116 0
M  V30 22168 C 2155.35 3.38524 -0.401767 0
M  V30 22169 H 2156.55 2.33922 -1.87671 0
M  V30 22170 H 2154.1 1.19532 -1.00707 0
M  V30 22171 H 2154.84 3.19632 0.548245 0
M  V30 22172 H 2154.62 3.75261 -1.13672 0
M  V30 22173 H 2156.11 4.16919 -0.238443 0
M  V30 22174 N 2156.55 0.997319 1.2203 0
M  V30 22175 C 2157.46 0.560352 2.2781 0
M  V30 22176 C 2158.47 -0.392977 1.69504 0
M  V30 22177 O 2159.65 -0.258715 1.99731 0
M  V30 22178 C 2156.71 -0.113747 3.46513 0
M  V30 22179 C 2155.78 0.883099 4.20119 0
M  V30 22180 C 2155.01 0.241074 5.33155 0
M  V30 22181 O 2155.23 -0.963972 5.62195 0
M  V30 22182 O 2154.17 0.948154 5.94385 0
M  V30 22183 H 2157.99 1.44049 2.67364 0
M  V30 22184 H 2155.58 0.765793 1.28281 0
M  V30 22185 H 2157.46 -0.491137 4.18528 0
M  V30 22186 H 2156.13 -0.968387 3.08875 0
M  V30 22187 H 2155.04 1.3115 3.50358 0
M  V30 22188 H 2156.37 1.70708 4.61649 0
M  V30 22189 N 2158.03 -1.37449 0.771075 0
M  V30 22190 C 2159.28 -1.98953 0.331779 0
M  V30 22191 C 2159.59 -1.61903 -1.09758 0
M  V30 22192 O 2160.79 -2.16505 -1.63823 0
M  V30 22193 C 2159.25 -3.55792 0.542247 0
M  V30 22194 C 2158.86 -4.01781 1.98183 0
M  V30 22195 C 2160.6 -4.24173 0.16654 0
M  V30 22196 C 2158.51 -5.51327 2.13993 0
M  V30 22197 H 2157.44 -0.74434 0.120306 0
M  V30 22198 H 2160.09 -1.56988 0.950108 0
M  V30 22199 H 2158.47 -3.95733 -0.145529 0
M  V30 22200 H 2159.65 -3.73086 2.7045 0
M  V30 22201 H 2157.96 -3.46179 2.31406 0
M  V30 22202 H 2160.56 -5.34052 0.263191 0
M  V30 22203 H 2160.9 -4.06825 -0.883113 0
M  V30 22204 H 2161.43 -3.89532 0.806838 0
M  V30 22205 H 2158.17 -5.736 3.17275 0
M  V30 22206 H 2157.69 -5.81707 1.46208 0
M  V30 22207 H 2159.37 -6.17286 1.93822 0
M  V30 22208 N 2159.5 -0.52156 -1.4872 0
M  V30 22209 C 2160.73 0.013899 -2.07395 0
M  V30 22210 C 2161.15 1.28175 -1.37669 0
M  V30 22211 O 2160.51 1.75882 -0.439921 0
M  V30 22212 C 2160.56 0.229553 -3.59869 0
M  V30 22213 O 2159.66 1.30002 -3.91374 0
M  V30 22214 H 2159.01 -0.0353734 -0.663057 0
M  V30 22215 H 2161.54 -0.727065 -1.91246 0
M  V30 22216 H 2161.55 0.454795 -4.05457 0
M  V30 22217 H 2160.22 -0.696653 -4.10024 0
M  V30 22218 H 2158.8 1.0581 -3.57573 0
M  V30 22219 N 2160.98 1.55502 -0.256304 0
M  V30 22220 C 2162.23 1.99463 0.366354 0
M  V30 22221 C 2162.56 1.14436 1.56902 0
M  V30 22222 O 2161.84 0.209944 1.93364 0
M  V30 22223 C 2162.12 3.51836 0.767016 0
M  V30 22224 C 2161.97 4.47626 -0.441687 0
M  V30 22225 C 2163.29 4.09574 1.61051 0
M  V30 22226 H 2160.41 0.72514 0.131688 0
M  V30 22227 H 2163.05 1.86568 -0.359494 0
M  V30 22228 H 2161.2 3.62956 1.38546 0
M  V30 22229 H 2162.87 4.48475 -1.08018 0
M  V30 22230 H 2161.12 4.2006 -1.08313 0
M  V30 22231 H 2161.79 5.51874 -0.117869 0
M  V30 22232 H 2164.26 4.01614 1.08838 0
M  V30 22233 H 2163.14 5.16436 1.85969 0
M  V30 22234 H 2163.4 3.58619 2.58544 0
M  V30 22235 N 2162.46 -0.0166879 1.57591 0
M  V30 22236 C 2163.88 -0.372531 1.55191 0
M  V30 22237 C 2164.08 -1.75838 0.984042 0
M  V30 22238 O 2163.13 -2.45008 0.610513 0
M  V30 22239 C 2164.45 -0.263043 2.99547 0
M  V30 22240 C 2165.99 -0.339216 3.11156 0
M  V30 22241 C 2166.47 -0.259039 4.57267 0
M  V30 22242 N 2167.96 -0.317455 4.62111 0
M  V30 22243 C 2168.69 -0.278499 5.72723 0
M  V30 22244 N 2168.19 -0.191112 6.92536 0
M  V30 22245 N 2169.98 -0.32914 5.61136 0
M  V30 22246 H 2162.13 0.890086 1.9285 0
M  V30 22247 H 2164.4 0.339637 0.885071 0
M  V30 22248 H 2164.1 0.689794 3.44869 0
M  V30 22249 H 2163.98 -1.0518 3.62239 0
M  V30 22250 H 2166.36 -1.28249 2.65775 0
M  V30 22251 H 2166.45 0.479109 2.51273 0
M  V30 22252 H 2166.09 0.68062 5.03319 0
M  V30 22253 H 2166.02 -1.09563 5.15076 0
M  V30 22254 H 2168.51 -0.387004 3.75913 0
M  V30 22255 H 2168.82 -0.166827 7.7262 0
M  V30 22256 H 2167.17 -0.15698 6.94823 0
M  V30 22257 H 2170.36 -0.395489 4.66426 0
M  V30 22258 H 2170.53 -0.295314 6.47327 0
M  V30 22259 N 2163.94 -1.54924 -0.289176 0
M  V30 22260 C 2165.18 -1.75025 -1.0244 0
M  V30 22261 C 2165.52 -0.540906 -1.86515 0
M  V30 22262 O 2164.79 0.461833 -1.88937 0
M  V30 22263 C 2165.08 -3.04611 -1.92052 0
M  V30 22264 C 2164.93 -4.35869 -1.11079 0
M  V30 22265 C 2166.25 -3.30134 -2.91032 0
M  V30 22266 H 2163.37 -0.636806 -0.371008 0
M  V30 22267 H 2166.01 -1.87647 -0.298076 0
M  V30 22268 H 2164.16 -2.93981 -2.53983 0
M  V30 22269 H 2165.83 -4.58434 -0.513434 0
M  V30 22270 H 2164.07 -4.31822 -0.41379 0
M  V30 22271 H 2164.74 -5.22832 -1.7706 0
M  V30 22272 H 2167.22 -3.40451 -2.39233 0
M  V30 22273 H 2166.1 -4.221 -3.50889 0
M  V30 22274 H 2166.36 -2.48995 -3.65314 0
M  V30 22275 N 2165.42 0.552936 -1.47582 0
M  V30 22276 C 2166.83 1.13504 -1.48235 0
M  V30 22277 C 2167.18 1.94734 -0.239394 0
M  V30 22278 O 2166.3 2.06238 0.655364 0
M  V30 22279 C 2166.9 2.06511 -2.68586 0
M  V30 22280 C 2165.46 2.59985 -2.72185 0
M  V30 22281 C 2164.6 1.36454 -2.41404 0
M  V30 22282 H 2167.56 0.339321 -1.5503 0
M  V30 22283 H 2167.58 2.90453 -2.45799 0
M  V30 22284 H 2167.09 1.47363 -3.59034 0
M  V30 22285 H 2165.19 3.22919 -1.85887 0
M  V30 22286 H 2165.3 3.00687 -3.72994 0
M  V30 22287 H 2163.67 1.6727 -1.92076 0
M  V30 22288 H 2164.45 0.790922 -3.34065 0
M  V30 22289 N 2166.89 1.35785 0.800009 0
M  V30 22290 C 2168.31 1.15967 1.09653 0
M  V30 22291 C 2168.51 -0.0234211 2.01486 0
M  V30 22292 O 2167.57 -0.692029 2.42832 0
M  V30 22293 C 2168.88 2.46568 1.72118 0
M  V30 22294 C 2170.43 2.52835 1.84509 0
M  V30 22295 C 2170.9 3.83496 2.50389 0
M  V30 22296 N 2172.39 3.84783 2.57868 0
M  V30 22297 C 2173.13 4.82616 3.09628 0
M  V30 22298 N 2172.62 5.90839 3.61775 0
M  V30 22299 N 2174.42 4.70046 3.08242 0
M  V30 22300 H 2166.57 2.11551 0.189675 0
M  V30 22301 H 2168.83 0.936573 0.146746 0
M  V30 22302 H 2168.54 3.33354 1.12108 0
M  V30 22303 H 2168.41 2.61599 2.71746 0
M  V30 22304 H 2170.8 1.66474 2.4366 0
M  V30 22305 H 2170.88 2.41713 0.837173 0
M  V30 22306 H 2170.52 4.70258 1.91885 0
M  V30 22307 H 2170.45 3.9191 3.5173 0
M  V30 22308 H 2172.94 3.06591 2.2093 0
M  V30 22309 H 2173.26 6.61475 3.99589 0
M  V30 22310 H 2171.6 5.94522 3.59956 0
M  V30 22311 H 2174.79 3.84635 2.66784 0
M  V30 22312 H 2174.97 5.46452 3.48273 0
M  V30 22313 N 2168.37 -1.02294 1.19891 0
M  V30 22314 C 2169.62 -1.75443 1.0032 0
M  V30 22315 C 2169.94 -1.89338 -0.466488 0
M  V30 22316 O 2169.21 -1.43128 -1.33758 0
M  V30 22317 H 2167.79 -0.649949 0.368205 0
M  V30 22318 H 2170.45 -1.23363 1.50889 0
M  V30 22319 H 2169.55 -2.76044 1.45623 0
M  V30 22320 N 2169.85 -1.00378 -1.21499 0
M  V30 22321 C 2171.26 -0.719279 -1.72288 0
M  V30 22322 C 2171.61 0.763155 -1.8075 0
M  V30 22323 O 2170.74 1.59617 -1.46121 0
M  V30 22324 C 2171.33 -1.299 -3.12908 0
M  V30 22325 C 2169.89 -1.06365 -3.61059 0
M  V30 22326 C 2169.04 -1.41257 -2.38625 0
M  V30 22327 H 2171.99 -1.17483 -1.06694 0
M  V30 22328 H 2172.01 -0.683038 -3.74319 0
M  V30 22329 H 2171.52 -2.37794 -3.06718 0
M  V30 22330 H 2169.62 -0.00182202 -3.726 0
M  V30 22331 H 2169.74 -1.73468 -4.46593 0
M  V30 22332 H 2168.1 -0.831332 -2.40751 0
M  V30 22333 H 2168.88 -2.50179 -2.35086 0
M  V30 22334 N 2171.33 1.37038 -0.778354 0
M  V30 22335 C 2172.29 2.28529 -0.175271 0
M  V30 22336 C 2173.29 1.48328 0.62093 0
M  V30 22337 O 2174.48 1.68459 0.443548 0
M  V30 22338 C 2171.61 3.32349 0.758757 0
M  V30 22339 H 2172.81 2.83372 -0.981858 0
M  V30 22340 H 2170.36 1.46415 -0.547012 0
M  V30 22341 H 2171.09 2.82642 1.5901 0
M  V30 22342 H 2170.88 3.9164 0.189916 0
M  V30 22343 H 2172.37 4.00701 1.17594 0
M  V30 22344 N 2172.81 0.529439 1.48441 0
M  V30 22345 C 2174.05 -0.00486384 2.02799 0
M  V30 22346 C 2174.39 -1.33985 1.40576 0
M  V30 22347 O 2173.66 -1.86523 0.551326 0
M  V30 22348 C 2173.94 -0.127443 3.59874 0
M  V30 22349 C 2173.8 1.23268 4.3258 0
M  V30 22350 C 2175.12 -0.854486 4.31725 0
M  V30 22351 H 2172.24 -0.00029358 0.737 0
M  V30 22352 H 2174.88 0.686364 1.7717 0
M  V30 22353 H 2173.03 -0.716153 3.81842 0
M  V30 22354 H 2174.7 1.86245 4.22031 0
M  V30 22355 H 2172.94 1.8147 3.94019 0
M  V30 22356 H 2173.61 1.09991 5.40931 0
M  V30 22357 H 2176.09 -0.354911 4.14584 0
M  V30 22358 H 2174.97 -0.909151 5.41318 0
M  V30 22359 H 2175.23 -1.90464 3.98968 0
M  V30 22360 N 2174.29 -1.55364 0.264547 0
M  V30 22361 C 2175.2 -2.25763 -0.637821 0
M  V30 22362 C 2176.21 -1.27983 -1.17883 0
M  V30 22363 O 2177.39 -1.60897 -1.21136 0
M  V30 22364 C 2174.45 -2.95689 -1.81021 0
M  V30 22365 C 2173.51 -4.08923 -1.30693 0
M  V30 22366 C 2172.75 -4.75505 -2.42344 0
M  V30 22367 O 2172.97 -4.41244 -3.61469 0
M  V30 22368 O 2171.9 -5.63667 -2.111 0
M  V30 22369 H 2175.73 -3.03624 -0.0678471 0
M  V30 22370 H 2173.31 -1.49365 0.0323545 0
M  V30 22371 H 2175.2 -3.39671 -2.49402 0
M  V30 22372 H 2173.87 -2.20754 -2.36747 0
M  V30 22373 H 2172.78 -3.6942 -0.589885 0
M  V30 22374 H 2174.11 -4.85728 -0.795542 0
M  V30 22375 N 2175.76 0.00833021 -1.57598 0
M  V30 22376 C 2177.01 0.693539 -1.89827 0
M  V30 22377 C 2177.33 1.74773 -0.864844 0
M  V30 22378 O 2176.6 1.9565 0.0988666 0
M  V30 22379 H 2175.18 0.25915 -0.700607 0
M  V30 22380 H 2177.84 -0.0306259 -1.94876 0
M  V30 22381 H 2176.94 1.17005 -2.89337 0
M  V30 22382 N 2177.24 1.55075 0.280956 0
M  V30 22383 C 2178.49 1.7496 1.0116 0
M  V30 22384 C 2178.81 0.549318 1.87103 0
M  V30 22385 O 2178.08 -0.435983 1.90987 0
M  V30 22386 H 2176.66 0.645185 0.376492 0
M  V30 22387 H 2179.32 1.92465 0.307104 0
M  V30 22388 H 2178.42 2.64721 1.65315 0
M  V30 22389 N 2178.72 -0.545102 1.47873 0
M  V30 22390 C 2179.67 -1.64692 1.57672 0
M  V30 22391 C 2180.65 -1.54914 0.434787 0
M  V30 22392 O 2181.85 -1.63191 0.685394 0
M  V30 22393 C 2178.97 -3.03449 1.60542 0
M  V30 22394 C 2178.06 -3.18386 2.80162 0
M  V30 22395 N 2178.45 -3.03347 4.0474 0
M  V30 22396 C 2176.75 -3.49412 2.77178 0
M  V30 22397 C 2177.45 -3.21298 4.84915 0
M  V30 22398 N 2176.43 -3.48186 4.17454 0
M  V30 22399 H 2180.23 -1.51652 2.51752 0
M  V30 22400 H 2177.74 -0.750179 1.44035 0
M  V30 22401 H 2179.74 -3.82576 1.65654 0
M  V30 22402 H 2178.4 -3.17592 0.675673 0
M  V30 22403 H 2179.41 -2.80422 4.35412 0
M  V30 22404 H 2176.09 -3.70007 1.93394 0
M  V30 22405 H 2177.48 -3.14536 5.93731 0
M  V30 22406 N 2180.2 -1.36208 -0.792797 0
M  V30 22407 C 2181.44 -1.30442 -1.55282 0
M  V30 22408 C 2181.78 0.117071 -1.93847 0
M  V30 22409 O 2181.05 1.06968 -1.62444 0
M  V30 22410 C 2181.33 -2.22396 -2.83218 0
M  V30 22411 C 2181.19 -3.73227 -2.51042 0
M  V30 22412 C 2182.51 -2.13185 -3.85019 0
M  V30 22413 H 2179.63 -0.475171 -0.563366 0
M  V30 22414 H 2182.27 -1.6673 -0.911103 0
M  V30 22415 H 2180.42 -1.9158 -3.37979 0
M  V30 22416 H 2182.09 -4.14547 -2.02358 0
M  V30 22417 H 2180.33 -3.92829 -1.84033 0
M  V30 22418 H 2181 -4.32972 -3.42402 0
M  V30 22419 H 2183.48 -2.40303 -3.39696 0
M  V30 22420 H 2182.36 -2.797 -4.72291 0
M  V30 22421 H 2182.62 -1.11808 -4.27728 0
M  V30 22422 N 2181.68 1.01656 -1.20431 0
M  V30 22423 C 2182.62 2.12315 -0.950014 0
M  V30 22424 C 2183.62 1.69113 0.0986435 0
M  V30 22425 O 2184.82 1.79926 -0.0517176 0
M  V30 22426 H 2181.2 0.69388 -0.289886 0
M  V30 22427 H 2183.17 2.30948 -1.8896 0
M  V30 22428 C 2181.92 3.43809 -0.518689 0
M  V30 22429 H 2181.24 3.77478 -1.3172 0
M  V30 22430 H 2182.68 4.22294 -0.37997 0
M  V30 22431 C 2181.14 3.28008 0.768922 0
M  V30 22432 O 2181.67 3.5773 1.82735 0
M  V30 22433 N 2179.88 2.81257 0.730955 0
M  V30 22434 H 2179.42 2.57269 -0.13064 0
M  V30 22435 H 2179.38 2.71065 1.59282 0
M  V30 22436 N 2183.15 1.01021 1.20965 0
M  V30 22437 C 2184.09 0.519783 2.22201 0
M  V30 22438 C 2185.06 -0.429328 1.5683 0
M  V30 22439 O 2186.25 -0.350829 1.85206 0
M  V30 22440 C 2183.38 -0.244355 3.37817 0
M  V30 22441 C 2182.42 0.653341 4.21466 0
M  V30 22442 S 2183.25 2.11879 4.918 0
M  V30 22443 C 2184.41 1.36463 6.10843 0
M  V30 22444 H 2184.64 1.37759 2.63457 0
M  V30 22445 H 2182.18 0.818571 1.30915 0
M  V30 22446 H 2184.13 -0.679146 4.04843 0
M  V30 22447 H 2182.8 -1.07765 2.95035 0
M  V30 22448 H 2181.99 0.0644713 5.03959 0
M  V30 22449 H 2181.59 1.02563 3.59662 0
M  V30 22450 H 2183.88 0.641256 6.74458 0
M  V30 22451 H 2184.83 2.16546 6.74176 0
M  V30 22452 H 2185.23 0.870317 5.57751 0
M  V30 22453 N 2184.63 -1.36623 0.78561 0
M  V30 22454 C 2185.59 -2.28433 0.187388 0
M  V30 22455 C 2186.59 -1.48655 -0.613055 0
M  V30 22456 O 2187.78 -1.68691 -0.434608 0
M  V30 22457 C 2184.92 -3.32746 -0.741121 0
M  V30 22458 H 2186.11 -2.82847 0.996872 0
M  V30 22459 H 2183.66 -1.46123 0.554769 0
M  V30 22460 H 2184.4 -2.83481 -1.57509 0
M  V30 22461 H 2184.18 -3.91735 -0.169144 0
M  V30 22462 H 2185.67 -4.01319 -1.15467 0
M  V30 22463 N 2186.11 -0.537304 -1.48158 0
M  V30 22464 C 2187.36 -0.00588246 -2.02499 0
M  V30 22465 C 2187.68 1.33585 -1.41369 0
M  V30 22466 O 2186.94 1.87767 -0.551542 0
M  V30 22467 C 2187.24 0.157545 -3.57053 0
M  V30 22468 C 2186.9 -1.11076 -4.37005 0
M  V30 22469 C 2185.57 -1.45834 -4.58569 0
M  V30 22470 C 2187.92 -1.95212 -4.83261 0
M  V30 22471 C 2185.25 -2.64612 -5.23639 0
M  V30 22472 C 2187.6 -3.13176 -5.4964 0
M  V30 22473 C 2186.26 -3.4827 -5.69442 0
M  V30 22474 H 2185.53 -0.00215255 -0.740997 0
M  V30 22475 H 2188.18 -0.704805 -1.78058 0
M  V30 22476 H 2186.48 0.93929 -3.80374 0
M  V30 22477 H 2188.18 0.583759 -3.96728 0
M  V30 22478 H 2184.77 -0.830084 -4.20485 0
M  V30 22479 H 2188.96 -1.6967 -4.66397 0
M  V30 22480 H 2184.21 -2.91996 -5.37167 0
M  V30 22481 H 2188.39 -3.78671 -5.8445 0
M  V30 22482 H 2186.01 -4.40406 -6.19634 0
M  V30 22483 N 2187.59 1.55221 -0.272782 0
M  V30 22484 C 2188.81 2.04409 0.350963 0
M  V30 22485 C 2189.24 1.14994 1.48856 0
M  V30 22486 O 2188.6 0.148061 1.80694 0
M  V30 22487 C 2188.64 3.51346 0.811686 0
M  V30 22488 O 2187.75 3.65025 1.91914 0
M  V30 22489 H 2187.09 0.659984 0.0729184 0
M  V30 22490 H 2189.62 2.00523 -0.4064 0
M  V30 22491 H 2189.63 3.92665 1.10806 0
M  V30 22492 H 2188.3 4.15895 -0.0206338 0
M  V30 22493 H 2186.88 3.35608 1.62547 0
M  V30 22494 N 2189.07 2.77022e-05 1.576 0
M  V30 22495 C 2190 -1.01955 2.05275 0
M  V30 22496 C 2191.01 -1.30696 0.970685 0
M  V30 22497 O 2192.2 -1.27672 1.24748 0
M  V30 22498 C 2189.3 -2.35429 2.43775 0
M  V30 22499 C 2188.47 -2.25626 3.74715 0
M  V30 22500 C 2187.53 -3.41789 4.00083 0
M  V30 22501 O 2186.56 -3.19975 4.70749 0
M  V30 22502 N 2187.76 -4.64639 3.47981 0
M  V30 22503 H 2190.53 -0.612973 2.93364 0
M  V30 22504 H 2188.09 -0.187355 1.60812 0
M  V30 22505 H 2190.08 -3.11913 2.57861 0
M  V30 22506 H 2188.65 -2.67828 1.61205 0
M  V30 22507 H 2187.87 -1.34052 3.70707 0
M  V30 22508 H 2189.16 -2.16249 4.60558 0
M  V30 22509 H 2188.55 -4.8526 2.90756 0
M  V30 22510 H 2187.11 -5.3839 3.67396 0
M  V30 22511 N 2190.54 -1.55222 -0.272728 0
M  V30 22512 C 2191.77 -1.80199 -1.02679 0
M  V30 22513 C 2192.19 -0.573583 -1.79141 0
M  V30 22514 O 2191.55 0.476818 -1.74918 0
M  V30 22515 C 2191.6 -3.02627 -1.96084 0
M  V30 22516 O 2190.7 -2.77732 -3.04858 0
M  V30 22517 H 2190.05 -0.595589 -0.293547 0
M  V30 22518 H 2192.58 -2.02366 -0.301554 0
M  V30 22519 H 2192.59 -3.31367 -2.38033 0
M  V30 22520 H 2191.26 -3.91684 -1.39844 0
M  V30 22521 H 2189.84 -2.60089 -2.67223 0
M  V30 22522 N 2192.02 0.537252 -1.4816 0
M  V30 22523 C 2192.97 1.66349 -1.62575 0
M  V30 22524 C 2193.96 1.62086 -0.492394 0
M  V30 22525 O 2195.17 1.67031 -0.670876 0
M  V30 22526 H 2191.55 0.55078 -0.512001 0
M  V30 22527 H 2193.52 1.51332 -2.57179 0
M  V30 22528 C 2192.27 3.04646 -1.67589 0
M  V30 22529 H 2191.59 3.08617 -2.54156 0
M  V30 22530 H 2193.03 3.83085 -1.8172 0
M  V30 22531 C 2191.49 3.34358 -0.413097 0
M  V30 22532 O 2192.02 3.98856 0.477189 0
M  V30 22533 N 2190.22 2.89179 -0.287012 0
M  V30 22534 H 2189.77 2.3687 -1.01245 0
M  V30 22535 H 2189.73 3.09428 0.556909 0
M  V30 22536 N 2193.5 1.36626 0.785562 0
M  V30 22537 C 2194.91 1.27805 1.36098 0
M  V30 22538 C 2195.26 -0.080453 1.96035 0
M  V30 22539 O 2194.39 -0.982008 1.92836 0
M  V30 22540 C 2194.98 2.3143 2.47438 0
M  V30 22541 C 2193.54 2.26286 3.00785 0
M  V30 22542 C 2192.69 2.16002 1.73892 0
M  V30 22543 H 2195.64 1.47449 0.586902 0
M  V30 22544 H 2195.66 1.95297 3.26557 0
M  V30 22545 H 2195.17 3.30293 2.03785 0
M  V30 22546 H 2193.27 1.30903 3.48848 0
M  V30 22547 H 2193.39 3.19134 3.57338 0
M  V30 22548 H 2191.75 1.62319 1.96277 0
M  V30 22549 H 2192.53 3.16757 1.32362 0
M  V30 22550 N 2194.98 -1.01016 1.20969 0
M  V30 22551 C 2196.39 -1.56164 1.02322 0
M  V30 22552 C 2196.74 -1.91684 -0.418512 0
M  V30 22553 O 2195.87 -1.7293 -1.30093 0
M  V30 22554 C 2196.46 -2.83757 1.85114 0
M  V30 22555 C 2195.02 -3.35409 1.70815 0
M  V30 22556 C 2194.17 -2.08651 1.82647 0
M  V30 22557 H 2197.12 -0.833232 1.35066 0
M  V30 22558 H 2197.14 -3.55429 1.35833 0
M  V30 22559 H 2196.65 -2.57873 2.9004 0
M  V30 22560 H 2194.75 -3.66239 0.685528 0
M  V30 22561 H 2194.86 -4.07177 2.52475 0
M  V30 22562 H 2193.23 -2.21407 1.259 0
M  V30 22563 H 2194.01 -1.85185 2.8907 0
M  V30 22564 N 2196.46 -1.01661 -1.20428 0
M  V30 22565 C 2197.68 -0.724976 -1.94316 0
M  V30 22566 C 2198.11 0.708003 -1.74267 0
M  V30 22567 O 2197.46 1.48717 -1.03696 0
M  V30 22568 C 2197.51 -1.06597 -3.44484 0
M  V30 22569 O 2196.62 -0.177671 -4.12017 0
M  V30 22570 H 2195.96 -0.268991 -0.607075 0
M  V30 22571 H 2198.49 -1.35998 -1.52858 0
M  V30 22572 H 2198.5 -1.01769 -3.95104 0
M  V30 22573 H 2197.17 -2.11003 -3.584 0
M  V30 22574 H 2195.75 -0.283486 -3.71821 0
M  V30 22575 N 2197.93 1.36205 -0.792844 0
M  V30 22576 C 2198.84 2.33789 -0.19485 0
M  V30 22577 C 2199.86 1.61207 0.65484 0
M  V30 22578 O 2201.04 1.93171 0.569822 0
M  V30 22579 C 2198.1 3.40405 0.657661 0
M  V30 22580 C 2197.16 4.28782 -0.210924 0
M  V30 22581 C 2196.4 5.30305 0.600993 0
M  V30 22582 O 2196.62 5.40019 1.83673 0
M  V30 22583 O 2195.55 6.019 -0.000914076 0
M  V30 22584 H 2199.38 2.86702 -1.00178 0
M  V30 22585 H 2196.96 1.38734 -0.554366 0
M  V30 22586 H 2198.85 4.05583 1.14368 0
M  V30 22587 H 2197.52 2.89786 1.44242 0
M  V30 22588 H 2196.43 3.66632 -0.743779 0
M  V30 22589 H 2197.76 4.82761 -0.95928 0
M  V30 22590 N 2199.41 0.545154 1.47871 0
M  V30 22591 C 2200.34 -0.197752 2.32661 0
M  V30 22592 C 2201.32 -0.920479 1.43043 0
M  V30 22593 O 2202.51 -0.9033 1.71913 0
M  V30 22594 C 2199.64 -1.23576 3.24571 0
M  V30 22595 C 2198.59 -0.630249 4.23334 0
M  V30 22596 C 2197.92 -1.77202 5.04483 0
M  V30 22597 C 2199.22 0.408065 5.20703 0
M  V30 22598 H 2200.91 0.510097 2.95023 0
M  V30 22599 H 2198.46 0.246756 1.4187 0
M  V30 22600 H 2200.41 -1.76355 3.82723 0
M  V30 22601 H 2199.14 -1.9734 2.6024 0
M  V30 22602 H 2197.79 -0.123857 3.66391 0
M  V30 22603 H 2197.44 -2.4984 4.36565 0
M  V30 22604 H 2197.14 -1.37271 5.71341 0
M  V30 22605 H 2198.67 -2.3033 5.65491 0
M  V30 22606 H 2200.08 -0.0332043 5.7329 0
M  V30 22607 H 2198.48 0.725591 5.95697 0
M  V30 22608 H 2199.55 1.30837 4.66915 0
M  V30 22609 N 2200.89 -1.55074 0.28101 0
M  V30 22610 C 2201.84 -2.19449 -0.618547 0
M  V30 22611 C 2202.82 -1.161 -1.11398 0
M  V30 22612 O 2204.02 -1.41893 -1.05808 0
M  V30 22613 C 2201.15 -2.9236 -1.79946 0
M  V30 22614 C 2200.23 -4.03004 -1.32093 0
M  V30 22615 N 2200.62 -5.02702 -0.558956 0
M  V30 22616 C 2198.92 -4.16182 -1.60338 0
M  V30 22617 C 2199.62 -5.80891 -0.30662 0
M  V30 22618 N 2198.6 -5.36418 -0.880731 0
M  V30 22619 H 2202.4 -2.93886 -0.0286121 0
M  V30 22620 H 2199.91 -1.62178 0.0848389 0
M  V30 22621 H 2201.91 -3.36932 -2.45525 0
M  V30 22622 H 2200.57 -2.19435 -2.39329 0
M  V30 22623 H 2201.58 -5.17491 -0.205736 0
M  V30 22624 H 2198.26 -3.54451 -2.20614 0
M  V30 22625 H 2199.65 -6.71212 0.304028 0
M  V30 22626 N 2202.37 -0.00838561 -1.57598 0
M  V30 22627 C 2203.32 0.980309 -2.08946 0
M  V30 22628 C 2204.29 1.33612 -0.986761 0
M  V30 22629 O 2205.47 1.43304 -1.25971 0
M  V30 22630 C 2202.61 2.2643 -2.60429 0
M  V30 22631 C 2201.72 1.96678 -3.84632 0
M  V30 22632 C 2200.86 3.1922 -4.24584 0
M  V30 22633 C 2199.9 2.85192 -5.41601 0
M  V30 22634 N 2199.04 4.00297 -5.76807 0
M  V30 22635 H 2203.88 0.535499 -2.93149 0
M  V30 22636 H 2201.41 0.252751 -1.44912 0
M  V30 22637 H 2203.37 3.01504 -2.88359 0
M  V30 22638 H 2202 2.68565 -1.79088 0
M  V30 22639 H 2201.05 1.11936 -3.63558 0
M  V30 22640 H 2202.36 1.67603 -4.69799 0
M  V30 22641 H 2201.52 4.02633 -4.53841 0
M  V30 22642 H 2200.26 3.51441 -3.38143 0
M  V30 22643 H 2199.26 2.00189 -5.12059 0
M  V30 22644 H 2200.49 2.54211 -6.29725 0
M  V30 22645 H 2198.43 4.32398 -4.93323 0
M  V30 22646 H 2198.35 3.74774 -6.56567 0
M  V30 22647 H 2199.62 4.84473 -6.1066 0
M  V30 22648 N 2203.85 1.55365 0.264492 0
M  V30 22649 C 2205.09 1.76633 0.996429 0
M  V30 22650 C 2205.43 0.570511 1.85631 0
M  V30 22651 O 2204.7 -0.431717 1.89648 0
M  V30 22652 C 2204.98 3.07628 1.87182 0
M  V30 22653 C 2204.84 4.37581 1.0413 0
M  V30 22654 C 2206.16 3.34722 2.85743 0
M  V30 22655 H 2203.28 0.642628 0.36083 0
M  V30 22656 H 2205.92 1.88098 0.268185 0
M  V30 22657 H 2204.07 2.97985 2.49274 0
M  V30 22658 H 2205.74 4.59193 0.440436 0
M  V30 22659 H 2203.98 4.32426 0.345039 0
M  V30 22660 H 2204.65 5.25583 1.6872 0
M  V30 22661 H 2207.13 3.44214 2.33787 0
M  V30 22662 H 2206.01 4.27629 3.44129 0
M  V30 22663 H 2206.27 2.54775 3.61306 0
M  V30 22664 N 2205.33 -0.529387 1.48443 0
M  V30 22665 C 2206.28 -1.63011 1.5941 0
M  V30 22666 C 2207.26 -1.54444 0.451193 0
M  V30 22667 O 2208.45 -1.62455 0.702664 0
M  V30 22668 C 2205.58 -3.01729 1.63752 0
M  V30 22669 C 2204.67 -3.15397 2.83523 0
M  V30 22670 N 2205.06 -2.99037 4.07934 0
M  V30 22671 C 2203.36 -3.46452 2.80868 0
M  V30 22672 C 2204.06 -3.16137 4.88295 0
M  V30 22673 N 2203.03 -3.43739 4.21123 0
M  V30 22674 H 2206.83 -1.48973 2.53346 0
M  V30 22675 H 2204.35 -0.73486 1.44823 0
M  V30 22676 H 2206.35 -3.80798 1.69702 0
M  V30 22677 H 2205.01 -3.16858 0.70932 0
M  V30 22678 H 2206.02 -2.75788 4.38362 0
M  V30 22679 H 2202.69 -3.67935 1.97307 0
M  V30 22680 H 2204.08 -3.08221 5.97034 0
M  V30 22681 N 2206.8 -1.37041 -0.778305 0
M  V30 22682 C 2208.05 -1.31626 -1.53359 0
M  V30 22683 C 2208.37 0.100797 -1.94739 0
M  V30 22684 O 2207.64 1.04344 -1.65799 0
M  V30 22685 H 2206.22 -0.484244 -0.568785 0
M  V30 22686 H 2208.88 -1.71459 -0.926712 0
M  V30 22687 H 2207.98 -1.951 -2.43603 0
M  V30 22688 N 2208.28 1.00373 -1.21503 0
M  V30 22689 C 2209.51 1.78278 -1.0598 0
M  V30 22690 C 2209.93 1.84098 0.385962 0
M  V30 22691 O 2209.29 1.28549 1.27847 0
M  V30 22692 C 2209.34 3.1996 -1.66307 0
M  V30 22693 O 2208.44 4.02248 -0.909404 0
M  V30 22694 H 2207.78 0.54939 -0.372916 0
M  V30 22695 H 2210.31 1.26162 -1.61072 0
M  V30 22696 H 2210.32 3.70629 -1.70581 0
M  V30 22697 H 2209 3.15038 -2.71521 0
M  V30 22698 H 2207.57 3.60809 -0.941859 0
M  V30 22699 N 2209.76 1.02298 1.19887 0
M  V30 22700 C 2211.18 0.738979 1.41461 0
M  V30 22701 C 2211.38 -0.678813 1.89722 0
M  V30 22702 O 2210.43 -1.44566 2.07019 0
M  V30 22703 C 2211.74 1.7701 2.4308 0
M  V30 22704 C 2213.29 1.78896 2.56837 0
M  V30 22705 C 2213.77 2.80952 3.61704 0
M  V30 22706 N 2215.26 2.79732 3.69194 0
M  V30 22707 C 2215.99 3.55353 4.50013 0
M  V30 22708 N 2215.49 4.40672 5.34584 0
M  V30 22709 N 2217.28 3.43922 4.44606 0
M  V30 22710 H 2209.43 1.93819 0.868793 0
M  V30 22711 H 2211.7 0.83761 0.443975 0
M  V30 22712 H 2211.4 2.78615 2.14631 0
M  V30 22713 H 2211.28 1.5875 3.42167 0
M  V30 22714 H 2213.66 0.779724 2.84613 0
M  V30 22715 H 2213.74 2.01231 1.57924 0
M  V30 22716 H 2213.39 3.82044 3.34671 0
M  V30 22717 H 2213.32 2.55878 4.60254 0
M  V30 22718 H 2215.81 2.17847 3.0879 0
M  V30 22719 H 2216.12 4.95127 5.93354 0
M  V30 22720 H 2214.47 4.44747 5.34065 0
M  V30 22721 H 2217.66 2.76685 3.77575 0
M  V30 22722 H 2217.83 4.03109 5.07353 0
M  V30 22723 N 2211.24 -1.35782 0.800057 0
M  V30 22724 C 2212.19 -2.3179 0.193891 0
M  V30 22725 C 2213.18 -1.5632 -0.652717 0
M  V30 22726 O 2214.39 -1.715 -0.546611 0
M  V30 22727 H 2210.76 -0.750716 0.0439332 0
M  V30 22728 H 2212.73 -2.80467 1.01888 0
M  V30 22729 C 2211.48 -3.41603 -0.648278 0
M  V30 22730 H 2210.8 -3.998 -0.00617638 0
M  V30 22731 H 2212.24 -4.11075 -1.0389 0
M  V30 22732 C 2210.7 -2.84082 -1.81105 0
M  V30 22733 O 2211.23 -2.77104 -2.9082 0
M  V30 22734 N 2209.44 -2.41221 -1.62051 0
M  V30 22735 H 2208.99 -2.47097 -0.72808 0
M  V30 22736 H 2208.94 -2.03083 -2.4001 0
M  V30 22737 N 2212.72 -0.552988 -1.4758 0
M  V30 22738 C 2213.66 0.197067 -2.29957 0
M  V30 22739 C 2214.63 0.912335 -1.38801 0
M  V30 22740 O 2215.82 0.908859 -1.67763 0
M  V30 22741 C 2212.96 1.22373 -3.22674 0
M  V30 22742 C 2212.07 0.514963 -4.2892 0
M  V30 22743 C 2211.21 1.52655 -5.08792 0
M  V30 22744 C 2210.24 0.802524 -6.06816 0
M  V30 22745 N 2209.38 1.76074 -6.79663 0
M  V30 22746 H 2214.22 -0.511538 -2.93577 0
M  V30 22747 H 2211.76 -0.264093 -1.4471 0
M  V30 22748 H 2213.72 1.83152 -3.74848 0
M  V30 22749 H 2212.35 1.90042 -2.60929 0
M  V30 22750 H 2211.4 -0.207259 -3.79835 0
M  V30 22751 H 2212.71 -0.0524302 -4.98772 0
M  V30 22752 H 2211.86 2.20799 -5.65095 0
M  V30 22753 H 2210.6 2.12786 -4.38832 0
M  V30 22754 H 2209.61 0.107141 -5.49696 0
M  V30 22755 H 2210.83 0.207016 -6.78784 0
M  V30 22756 H 2208.78 2.35071 -6.12436 0
M  V30 22757 H 2208.7 1.24539 -7.45672 0
M  V30 22758 H 2209.96 2.43346 -7.40542 0
M  V30 22759 N 2214.19 1.54923 -0.28923 0
M  V30 22760 C 2215.6 1.85563 0.205758 0
M  V30 22761 C 2215.96 1.21123 1.54349 0
M  V30 22762 O 2215.08 0.504638 2.10434 0
M  V30 22763 C 2215.68 3.36661 0.380118 0
M  V30 22764 C 2214.23 3.67374 0.819331 0
M  V30 22765 C 2213.38 2.77187 -0.0792077 0
M  V30 22766 H 2216.33 1.50262 -0.510603 0
M  V30 22767 H 2216.35 3.60529 1.21653 0
M  V30 22768 H 2215.87 3.83533 -0.593657 0
M  V30 22769 H 2213.97 3.26012 1.80408 0
M  V30 22770 H 2214.08 4.74713 0.646874 0
M  V30 22771 H 2212.44 2.50879 0.439521 0
M  V30 22772 H 2213.23 3.26877 -1.04912 0
M  V30 22773 N 2215.67 0.0167433 1.57591 0
M  V30 22774 C 2216.9 -0.675094 1.95576 0
M  V30 22775 C 2217.31 -1.66369 0.892571 0
M  V30 22776 O 2216.67 -1.82058 -0.12688 0
M  V30 22777 C 2216.72 -1.39234 3.33611 0
M  V30 22778 O 2216.44 -0.443367 4.35851 0
M  V30 22779 C 2217.94 -2.17714 3.86155 0
M  V30 22780 H 2215.16 -0.186966 0.644426 0
M  V30 22781 H 2217.71 0.0728359 2.0437 0
M  V30 22782 H 2215.86 -2.09176 3.26074 0
M  V30 22783 H 2216.28 -0.951268 5.15801 0
M  V30 22784 H 2217.75 -2.63371 4.85118 0
M  V30 22785 H 2218.23 -3.01099 3.19744 0
M  V30 22786 H 2218.83 -1.52754 3.96921 0
M  V30 22787 N 2217.15 -1.55503 -0.256249 0
M  V30 22788 C 2218.38 -1.81278 -1.00762 0
M  V30 22789 C 2218.8 -0.592551 -1.78523 0
M  V30 22790 O 2218.16 0.458239 -1.75413 0
M  V30 22791 C 2218.21 -3.0469 -1.92864 0
M  V30 22792 O 2217.31 -2.8095 -3.01896 0
M  V30 22793 H 2216.65 -0.598669 -0.287213 0
M  V30 22794 H 2219.18 -2.02674 -0.280074 0
M  V30 22795 H 2219.19 -3.33873 -2.34505 0
M  V30 22796 H 2217.87 -3.93145 -1.35682 0
M  V30 22797 H 2216.44 -2.62909 -2.64449 0
M  V30 22798 N 2218.63 0.521507 -1.48721 0
M  V30 22799 C 2219.56 1.63428 -1.66774 0
M  V30 22800 C 2220.54 1.62068 -0.516528 0
M  V30 22801 O 2221.72 1.79131 -0.750045 0
M  V30 22802 C 2218.85 3.0199 -1.71521 0
M  V30 22803 C 2217.81 3.18211 -2.86227 0
M  V30 22804 C 2217.13 4.57919 -2.76069 0
M  V30 22805 C 2218.43 3.00177 -4.27424 0
M  V30 22806 H 2220.13 1.48574 -2.59935 0
M  V30 22807 H 2217.67 0.713336 -1.2509 0
M  V30 22808 H 2219.63 3.79717 -1.82738 0
M  V30 22809 H 2218.35 3.17885 -0.749449 0
M  V30 22810 H 2217.01 2.42903 -2.74579 0
M  V30 22811 H 2216.66 4.70662 -1.77445 0
M  V30 22812 H 2216.36 4.69716 -3.53045 0
M  V30 22813 H 2217.88 5.37734 -2.89266 0
M  V30 22814 H 2219.3 3.67689 -4.39861 0
M  V30 22815 H 2217.69 3.23461 -5.05463 0
M  V30 22816 H 2218.76 1.96511 -4.43296 0
M  V30 22817 N 2220.11 1.37452 0.771027 0
M  V30 22818 C 2221.35 1.33903 1.53106 0
M  V30 22819 C 2221.71 -0.0758063 1.92251 0
M  V30 22820 O 2221 -1.0346 1.61266 0
M  V30 22821 C 2221.19 2.21264 2.80672 0
M  V30 22822 C 2221.02 3.71101 2.53997 0
M  V30 22823 C 2219.79 4.40204 2.48089 0
M  V30 22824 C 2221.99 4.63945 2.21945 0
M  V30 22825 N 2219.97 5.75577 2.13505 0
M  V30 22826 C 2221.34 5.877 1.97505 0
M  V30 22827 C 2223.4 4.52323 2.08106 0
M  V30 22828 C 2222.1 7.01136 1.60625 0
M  V30 22829 C 2224.13 5.65645 1.72626 0
M  V30 22830 C 2223.49 6.88451 1.49048 0
M  V30 22831 H 2219.59 0.545269 0.56054 0
M  V30 22832 H 2222.17 1.72679 0.899441 0
M  V30 22833 H 2220.34 1.84704 3.41671 0
M  V30 22834 H 2222.08 2.08969 3.46575 0
M  V30 22835 H 2218.83 3.93215 2.63967 0
M  V30 22836 H 2219.26 6.47121 1.98907 0
M  V30 22837 H 2223.9 3.57948 2.25018 0
M  V30 22838 H 2221.62 7.95445 1.42453 0
M  V30 22839 H 2225.2 5.58624 1.62576 0
M  V30 22840 H 2224.08 7.74652 1.22 0
M  V30 22841 N 2221.58 -0.997276 1.22033 0
M  V30 22842 C 2222.53 -2.10776 0.983671 0
M  V30 22843 C 2223.53 -1.69248 -0.0717267 0
M  V30 22844 O 2224.73 -1.79821 0.0803357 0
M  V30 22845 H 2221.11 -0.689181 0.300889 0
M  V30 22846 H 2223.08 -2.27912 1.9261 0
M  V30 22847 C 2221.83 -3.42941 0.57332 0
M  V30 22848 H 2221.15 -3.75335 1.37708 0
M  V30 22849 H 2222.59 -4.21636 0.447105 0
M  V30 22850 C 2221.05 -3.2919 -0.716642 0
M  V30 22851 O 2221.58 -3.60592 -1.77021 0
M  V30 22852 N 2219.79 -2.82384 -0.686117 0
M  V30 22853 H 2219.33 -2.57028 0.171552 0
M  V30 22854 H 2219.29 -2.73565 -1.5495 0
M  V30 22855 N 2223.06 -1.02932 -1.19343 0
M  V30 22856 C 2224.47 -0.755663 -1.70724 0
M  V30 22857 C 2224.82 0.724644 -1.82328 0
M  V30 22858 O 2223.95 1.56482 -1.49474 0
M  V30 22859 C 2224.54 -1.36508 -3.10082 0
M  V30 22860 C 2223.1 -1.14 -3.58721 0
M  V30 22861 C 2222.25 -1.46287 -2.35575 0
M  V30 22862 H 2225.2 -1.19719 -1.04178 0
M  V30 22863 H 2225.22 -0.762283 -3.72786 0
M  V30 22864 H 2224.73 -2.44246 -3.01605 0
M  V30 22865 H 2222.84 -0.0808556 -3.72512 0
M  V30 22866 H 2222.95 -1.82902 -4.42813 0
M  V30 22867 H 2221.31 -0.882212 -2.38933 0
M  V30 22868 H 2222.1 -2.55109 -2.29727 0
M  V30 22869 N 2224.54 1.35356 -0.807246 0
M  V30 22870 C 2225.77 2.02988 -0.400413 0
M  V30 22871 C 2226.18 1.60834 0.988831 0
M  V30 22872 O 2225.54 0.806204 1.63727 0
M  V30 22873 C 2225.59 3.58367 -0.47493 0
M  V30 22874 O 2225.31 3.98989 -1.8094 0
M  V30 22875 C 2226.81 4.43258 -0.0609891 0
M  V30 22876 H 2224.03 0.651001 -0.162598 0
M  V30 22877 H 2226.58 1.72963 -1.09105 0
M  V30 22878 H 2224.73 3.87038 0.167466 0
M  V30 22879 H 2225.15 4.93637 -1.77265 0
M  V30 22880 H 2226.62 5.51756 -0.164242 0
M  V30 22881 H 2227.1 4.2781 0.993756 0
M  V30 22882 H 2227.7 4.19884 -0.676566 0
M  V30 22883 N 2226.02 0.560807 1.47284 0
M  V30 22884 C 2227.25 0.0430001 2.06555 0
M  V30 22885 C 2227.66 -1.25774 1.41342 0
M  V30 22886 O 2227 -1.76616 0.505213 0
M  V30 22887 C 2227.06 -0.219824 3.58827 0
M  V30 22888 C 2226.73 0.992023 4.46103 0
M  V30 22889 C 2227.72 1.89852 4.83996 0
M  V30 22890 C 2225.41 1.20771 4.87565 0
M  V30 22891 C 2227.4 3.00435 5.62154 0
M  V30 22892 C 2225.09 2.31663 5.65487 0
M  V30 22893 C 2226.09 3.21326 6.02693 0
M  V30 22894 O 2225.77 4.30295 6.79045 0
M  V30 22895 H 2225.51 0.0444586 0.674536 0
M  V30 22896 H 2228.06 0.774852 1.90224 0
M  V30 22897 H 2226.29 -1.00603 3.73384 0
M  V30 22898 H 2227.98 -0.683452 4.00105 0
M  V30 22899 H 2228.75 1.74395 4.52561 0
M  V30 22900 H 2224.62 0.518973 4.58069 0
M  V30 22901 H 2228.17 3.70446 5.91114 0
M  V30 22902 H 2224.07 2.47091 5.96336 0
M  V30 22903 H 2224.83 4.28388 6.97443 0
M  V30 22904 N 2227.5 -1.54768 0.297442 0
M  V30 22905 C 2228.74 -1.99673 -0.31226 0
M  V30 22906 C 2229.07 -1.18735 -1.54684 0
M  V30 22907 O 2228.34 -0.282416 -1.93854 0
M  V30 22908 H 2226.92 -0.737562 -0.118368 0
M  V30 22909 H 2229.58 -1.90583 0.407949 0
M  V30 22910 H 2228.67 -3.06535 -0.586759 0
M  V30 22911 N 2228.97 -0.0251005 -1.5758 0
M  V30 22912 C 2230.2 0.668282 -1.96338 0
M  V30 22913 C 2230.62 1.65098 -0.901343 0
M  V30 22914 O 2229.98 1.80773 0.138155 0
M  V30 22915 C 2230.03 1.35451 -3.34194 0
M  V30 22916 O 2229.13 2.46968 -3.30273 0
M  V30 22917 H 2228.48 0.175876 -0.640284 0
M  V30 22918 H 2231.01 -0.0857583 -2.0442 0
M  V30 22919 H 2231.02 1.71222 -3.70334 0
M  V30 22920 H 2229.69 0.634146 -4.11037 0
M  V30 22921 H 2228.27 2.13339 -3.05845 0
M  V30 22922 N 2230.45 1.55637 0.247999 0
M  V30 22923 C 2231.7 1.78596 0.973395 0
M  V30 22924 C 2232.05 0.593855 1.83006 0
M  V30 22925 O 2231.35 -0.412928 1.87097 0
M  V30 22926 C 2231.54 3.04689 1.86813 0
M  V30 22927 C 2231.37 4.3605 1.09957 0
M  V30 22928 C 2230.14 4.98845 0.805116 0
M  V30 22929 C 2232.34 5.12077 0.477693 0
M  V30 22930 N 2230.32 6.13899 0.012378 0
M  V30 22931 C 2231.69 6.1974 -0.179674 0
M  V30 22932 C 2233.75 4.96386 0.388049 0
M  V30 22933 C 2232.45 7.13417 -0.918076 0
M  V30 22934 C 2234.47 5.9044 -0.336819 0
M  V30 22935 C 2233.84 6.9751 -0.982828 0
M  V30 22936 H 2229.94 0.705499 0.337335 0
M  V30 22937 H 2232.52 1.93132 0.246636 0
M  V30 22938 H 2230.69 2.91484 2.56693 0
M  V30 22939 H 2232.42 3.15948 2.52901 0
M  V30 22940 H 2229.18 4.60248 1.11663 0
M  V30 22941 H 2229.6 6.75977 -0.372052 0
M  V30 22942 H 2234.24 4.13685 0.873164 0
M  V30 22943 H 2231.96 7.95619 -1.4148 0
M  V30 22944 H 2235.55 5.80376 -0.406833 0
M  V30 22945 H 2234.43 7.69035 -1.53478 0
M  V30 22946 N 2231.93 -0.513613 1.48996 0
M  V30 22947 C 2233.18 -1.26851 1.57845 0
M  V30 22948 C 2233.51 -1.92761 0.259535 0
M  V30 22949 O 2232.76 -1.80693 -0.751559 0
M  V30 22950 C 2233.06 -2.36726 2.6776 0
M  V30 22951 C 2232.73 -1.8836 4.09672 0
M  V30 22952 C 2231.39 -1.74888 4.48294 0
M  V30 22953 C 2233.74 -1.52012 4.9854 0
M  V30 22954 C 2231.07 -1.23428 5.7357 0
M  V30 22955 C 2233.42 -1.02009 6.24321 0
M  V30 22956 C 2232.08 -0.871661 6.61784 0
M  V30 22957 H 2231.35 -0.464182 0.577595 0
M  V30 22958 H 2234 -0.571334 1.82779 0
M  V30 22959 H 2232.31 -3.12181 2.36749 0
M  V30 22960 H 2234 -2.94815 2.71818 0
M  V30 22961 H 2230.59 -1.99802 3.7918 0
M  V30 22962 H 2234.78 -1.61273 4.69366 0
M  V30 22963 H 2230.03 -1.10637 6.01306 0
M  V30 22964 H 2234.21 -0.7296 6.92568 0
M  V30 22965 H 2231.83 -0.470718 7.58741 0
M  V30 22966 N 2233.41 -1.37859 -0.763727 0
M  V30 22967 C 2234.64 -1.36721 -1.5529 0
M  V30 22968 C 2235.05 0.0455102 -1.88745 0
M  V30 22969 O 2234.41 1.00945 -1.52041 0
M  V30 22970 C 2234.46 -2.21325 -2.85827 0
M  V30 22971 O 2234.18 -3.57093 -2.53803 0
M  V30 22972 C 2235.68 -2.28256 -3.80019 0
M  V30 22973 H 2232.9 -0.468018 -0.480833 0
M  V30 22974 H 2235.45 -1.81305 -0.945977 0
M  V30 22975 H 2233.6 -1.8023 -3.42923 0
M  V30 22976 H 2234.02 -4.0153 -3.37452 0
M  V30 22977 H 2235.49 -2.9176 -4.68594 0
M  V30 22978 H 2235.97 -1.29328 -4.19727 0
M  V30 22979 H 2236.57 -2.69699 -3.28851 0
M  V30 22980 N 2234.89 0.990791 -1.22561 0
M  V30 22981 C 2235.8 2.11555 -1.01398 0
M  V30 22982 C 2236.81 1.73958 0.0383656 0
M  V30 22983 O 2237.99 2.00804 -0.154822 0
M  V30 22984 C 2235.05 3.41528 -0.596629 0
M  V30 22985 C 2234.12 3.93214 -1.72283 0
M  V30 22986 C 2233.35 5.16983 -1.3253 0
M  V30 22987 O 2233.57 5.70031 -0.205009 0
M  V30 22988 O 2232.51 5.62475 -2.14257 0
M  V30 22989 H 2236.33 2.32293 -1.95637 0
M  V30 22990 H 2233.92 1.09929 -1.01174 0
M  V30 22991 H 2235.8 4.19734 -0.374337 0
M  V30 22992 H 2234.47 3.22145 0.316883 0
M  V30 22993 H 2233.38 3.16171 -1.99967 0
M  V30 22994 H 2234.71 4.17032 -2.61429 0
M  V30 22995 N 2236.37 1.03564 1.18795 0
M  V30 22996 C 2237.31 0.622298 2.22252 0
M  V30 22997 C 2238.28 -0.367332 1.61987 0
M  V30 22998 O 2239.47 -0.262459 1.88986 0
M  V30 22999 C 2236.61 -0.0137855 3.45097 0
M  V30 23000 C 2235.72 1.0227 4.1972 0
M  V30 23001 C 2234.86 0.355666 5.30008 0
M  V30 23002 C 2233.89 1.3776 5.96396 0
M  V30 23003 N 2233.03 0.735888 6.98233 0
M  V30 23004 H 2237.87 1.50907 2.56965 0
M  V30 23005 H 2235.41 0.755039 1.26244 0
M  V30 23006 H 2237.37 -0.399875 4.15279 0
M  V30 23007 H 2236 -0.864103 3.11019 0
M  V30 23008 H 2235.05 1.52679 3.48415 0
M  V30 23009 H 2236.36 1.79911 4.65224 0
M  V30 23010 H 2235.51 -0.0849028 6.06641 0
M  V30 23011 H 2234.25 -0.452882 4.85593 0
M  V30 23012 H 2233.26 1.82836 5.18509 0
M  V30 23013 H 2234.48 2.18776 6.42895 0
M  V30 23014 H 2232.43 -0.0524444 6.55979 0
M  V30 23015 H 2232.35 1.45008 7.41963 0
M  V30 23016 H 2233.61 0.319547 7.78845 0
M  V30 23017 N 2237.84 -1.34926 0.814413 0
M  V30 23018 C 2239.25 -1.80985 0.458396 0
M  V30 23019 C 2239.61 -1.67579 -1.02039 0
M  V30 23020 O 2238.73 -1.21089 -1.7935 0
M  V30 23021 C 2239.33 -3.28595 0.82527 0
M  V30 23022 C 2237.88 -3.72766 0.521743 0
M  V30 23023 C 2237.03 -2.56786 1.04672 0
M  V30 23024 H 2239.98 -1.22794 1.00536 0
M  V30 23025 H 2240 -3.80292 0.125777 0
M  V30 23026 H 2239.52 -3.38321 1.90159 0
M  V30 23027 H 2237.62 -3.68585 -0.545524 0
M  V30 23028 H 2237.73 -4.6723 1.05985 0
M  V30 23029 H 2236.09 -2.50351 0.468666 0
M  V30 23030 H 2236.88 -2.69286 2.12932 0
M  V30 23031 N 2239.32 -0.56861 -1.46985 0
M  V30 23032 C 2240.55 -0.054032 -2.06829 0
M  V30 23033 C 2240.96 1.24475 -1.41956 0
M  V30 23034 O 2240.32 1.74936 -0.519964 0
M  V30 23035 C 2240.37 0.133298 -3.61254 0
M  V30 23036 O 2240.09 -1.11406 -4.23698 0
M  V30 23037 C 2241.59 0.68385 -4.37994 0
M  V30 23038 H 2238.81 -0.0510259 -0.669057 0
M  V30 23039 H 2241.36 -0.785268 -1.88822 0
M  V30 23040 H 2239.51 0.814703 -3.78737 0
M  V30 23041 H 2239.93 -0.918971 -5.16387 0
M  V30 23042 H 2241.4 0.764167 -5.46685 0
M  V30 23043 H 2241.88 1.6977 -4.05061 0
M  V30 23044 H 2242.48 0.0377747 -4.25283 0
M  V30 23045 N 2240.8 1.54608 -0.305646 0
M  V30 23046 C 2241.75 2.23692 0.568382 0
M  V30 23047 C 2242.72 1.22118 1.1259 0
M  V30 23048 O 2243.9 1.50751 1.16956 0
M  V30 23049 C 2241.04 2.9848 1.73215 0
M  V30 23050 C 2240.15 4.14837 1.20558 0
M  V30 23051 C 2239.29 4.77197 2.33359 0
M  V30 23052 C 2238.33 5.8569 1.7786 0
M  V30 23053 N 2237.47 6.41985 2.84252 0
M  V30 23054 H 2242.31 2.97987 -0.0273391 0
M  V30 23055 H 2239.84 1.47078 -0.0252622 0
M  V30 23056 H 2241.8 3.40076 2.41669 0
M  V30 23057 H 2240.43 2.26552 2.29943 0
M  V30 23058 H 2239.48 3.7815 0.413156 0
M  V30 23059 H 2240.79 4.92986 0.759331 0
M  V30 23060 H 2239.95 5.21669 3.09751 0
M  V30 23061 H 2238.69 3.98389 2.81313 0
M  V30 23062 H 2237.69 5.40637 0.999585 0
M  V30 23063 H 2238.92 6.66384 1.30804 0
M  V30 23064 H 2236.86 5.66059 3.31531 0
M  V30 23065 H 2236.78 7.15495 2.44136 0
M  V30 23066 H 2238.05 6.91115 3.60528 0
M  V30 23067 N 2242.28 0.033457 1.57564 0
M  V30 23068 C 2243.22 -0.946944 2.10479 0
M  V30 23069 C 2244.19 -1.32025 1.00789 0
M  V30 23070 O 2245.38 -1.41282 1.28235 0
M  V30 23071 C 2242.52 -2.22259 2.63998 0
M  V30 23072 C 2241.63 -1.90534 3.87712 0
M  V30 23073 C 2240.77 -3.12425 4.29609 0
M  V30 23074 C 2239.81 -2.7654 5.4607 0
M  V30 23075 N 2238.94 -3.9107 5.83103 0
M  V30 23076 H 2243.78 -0.488794 2.93964 0
M  V30 23077 H 2241.32 -0.229664 1.45296 0
M  V30 23078 H 2243.28 -2.96878 2.93119 0
M  V30 23079 H 2241.91 -2.65682 1.83338 0
M  V30 23080 H 2240.96 -1.06138 3.65293 0
M  V30 23081 H 2242.27 -1.60107 4.72406 0
M  V30 23082 H 2241.43 -3.95361 4.60189 0
M  V30 23083 H 2240.17 -3.46017 3.43691 0
M  V30 23084 H 2239.17 -1.92017 5.15179 0
M  V30 23085 H 2240.4 -2.4416 6.3369 0
M  V30 23086 H 2238.34 -4.24495 5.0014 0
M  V30 23087 H 2238.26 -3.64282 6.62446 0
M  V30 23088 H 2239.53 -4.74697 6.1829 0
M  V30 23089 N 2243.76 -1.55766 -0.239741 0
M  V30 23090 C 2244.7 -1.91748 -1.31665 0
M  V30 23091 C 2245.7 -0.797365 -1.49461 0
M  V30 23092 O 2246.9 -0.982047 -1.5085 0
M  V30 23093 H 2243.28 -0.60909 -0.441037 0
M  V30 23094 H 2245.25 -2.81644 -0.985873 0
M  V30 23095 C 2244 -2.23484 -2.66364 0
M  V30 23096 H 2243.32 -3.09179 -2.53473 0
M  V30 23097 H 2244.76 -2.52559 -3.40573 0
M  V30 23098 C 2243.22 -1.05364 -3.2 0
M  V30 23099 O 2243.75 -0.305332 -4.00538 0
M  V30 23100 N 2241.96 -0.842341 -2.78124 0
M  V30 23101 H 2241.5 -1.45257 -2.1274 0
M  V30 23102 H 2241.46 -0.0537073 -3.14354 0
M  V30 23103 N 2245.23 0.505704 -1.49266 0
M  V30 23104 C 2246.18 1.62863 -1.66067 0
M  V30 23105 C 2247.18 1.61005 -0.526664 0
M  V30 23106 O 2248.38 1.6557 -0.706155 0
M  V30 23107 H 2244.76 0.539796 -0.523569 0
M  V30 23108 H 2246.73 1.45843 -2.60331 0
M  V30 23109 C 2245.48 3.01023 -1.74013 0
M  V30 23110 H 2244.8 3.03157 -2.60645 0
M  V30 23111 H 2246.24 3.79144 -1.89805 0
M  V30 23112 C 2244.7 3.33406 -0.483927 0
M  V30 23113 O 2245.23 3.99778 0.392478 0
M  V30 23114 N 2243.43 2.88505 -0.348287 0
M  V30 23115 H 2242.98 2.34669 -1.06247 0
M  V30 23116 H 2242.94 3.1054 0.491149 0
M  V30 23117 N 2246.71 1.38262 0.756405 0
M  V30 23118 C 2248.12 1.30663 1.33357 0
M  V30 23119 C 2248.47 -0.038853 1.96162 0
M  V30 23120 O 2247.6 -0.940884 1.94875 0
M  V30 23121 C 2248.19 2.36627 2.42473 0
M  V30 23122 C 2246.75 2.32615 2.95917 0
M  V30 23123 C 2245.9 2.19642 1.69272 0
M  V30 23124 H 2248.85 1.48661 0.555494 0
M  V30 23125 H 2248.87 2.0218 3.22341 0
M  V30 23126 H 2248.38 3.34541 1.96733 0
M  V30 23127 H 2246.49 1.38273 3.45993 0
M  V30 23128 H 2246.6 3.26642 3.50488 0
M  V30 23129 H 2244.96 1.66446 1.9279 0
M  V30 23130 H 2245.75 3.19493 1.25614 0
M  V30 23131 N 2248.19 -0.984277 1.23084 0
M  V30 23132 C 2249.44 -1.71928 1.05469 0
M  V30 23133 C 2249.75 -1.91272 -0.409178 0
M  V30 23134 O 2250.96 -2.62182 -0.70518 0
M  V30 23135 C 2249.41 -3.09381 1.83879 0
M  V30 23136 C 2249.02 -2.97937 3.34571 0
M  V30 23137 C 2250.77 -3.86867 1.74741 0
M  V30 23138 C 2248.67 -4.30598 4.05388 0
M  V30 23139 H 2247.6 -0.644667 0.39105 0
M  V30 23140 H 2250.25 -1.09812 1.47015 0
M  V30 23141 H 2248.64 -3.72228 1.35137 0
M  V30 23142 H 2249.81 -2.44202 3.90771 0
M  V30 23143 H 2248.13 -2.33928 3.4448 0
M  V30 23144 H 2250.72 -4.85072 2.24966 0
M  V30 23145 H 2251.07 -4.1021 0.709444 0
M  V30 23146 H 2251.6 -3.30714 2.21073 0
M  V30 23147 H 2248.34 -4.12451 5.09475 0
M  V30 23148 H 2247.86 -4.84212 3.53976 0
M  V30 23149 H 2249.54 -4.99304 4.11466 0
M  V30 23150 N 2249.67 -1.04192 -1.18244 0
M  V30 23151 C 2250.63 -0.638491 -2.20127 0
M  V30 23152 C 2251.63 0.304777 -1.57885 0
M  V30 23153 O 2252.82 0.0900063 -1.73967 0
M  V30 23154 C 2249.95 0.0637152 -3.4084 0
M  V30 23155 H 2251.15 -1.54012 -2.57333 0
M  V30 23156 H 2248.7 -0.834621 -1.32151 0
M  V30 23157 H 2249.43 0.979081 -3.09167 0
M  V30 23158 H 2249.22 -0.614266 -3.87259 0
M  V30 23159 H 2250.71 0.332439 -4.16275 0
M  V30 23160 N 2251.15 1.34492 -0.821557 0
M  V30 23161 C 2252.09 2.29544 -0.240437 0
M  V30 23162 C 2253.06 1.53524 0.634004 0
M  V30 23163 O 2254.25 1.819 0.575934 0
M  V30 23164 C 2251.39 3.3997 0.592809 0
M  V30 23165 C 2250.5 4.30931 -0.303726 0
M  V30 23166 C 2249.64 5.28459 0.538956 0
M  V30 23167 C 2248.68 6.11058 -0.357049 0
M  V30 23168 N 2247.81 7.00679 0.44648 0
M  V30 23169 H 2252.65 2.78648 -1.05637 0
M  V30 23170 H 2250.19 1.37126 -0.532437 0
M  V30 23171 H 2252.15 4.02676 1.09122 0
M  V30 23172 H 2250.78 2.92104 1.37387 0
M  V30 23173 H 2249.83 3.69099 -0.92034 0
M  V30 23174 H 2251.14 4.88821 -0.992747 0
M  V30 23175 H 2250.3 5.9661 1.1019 0
M  V30 23176 H 2249.03 4.71103 1.26149 0
M  V30 23177 H 2248.04 5.41841 -0.932142 0
M  V30 23178 H 2249.26 6.70495 -1.07767 0
M  V30 23179 H 2247.21 6.45793 1.15271 0
M  V30 23180 H 2247.13 7.55776 -0.184181 0
M  V30 23181 H 2248.4 7.73159 0.992216 0
M  V30 23182 N 2252.62 0.576397 1.46681 0
M  V30 23183 C 2253.57 -0.160458 2.30242 0
M  V30 23184 C 2254.54 -0.890137 1.40235 0
M  V30 23185 O 2255.73 -0.882054 1.69188 0
M  V30 23186 C 2252.87 -1.17224 3.2458 0
M  V30 23187 C 2251.98 -0.44666 4.29685 0
M  V30 23188 C 2251.11 -1.44542 5.11157 0
M  V30 23189 C 2250.15 -0.705883 6.08016 0
M  V30 23190 N 2249.29 -1.65239 6.82378 0
M  V30 23191 H 2254.13 0.558179 2.92726 0
M  V30 23192 H 2251.67 0.287081 1.44271 0
M  V30 23193 H 2253.63 -1.77165 3.77715 0
M  V30 23194 H 2252.26 -1.85867 2.63919 0
M  V30 23195 H 2251.31 0.267661 3.79457 0
M  V30 23196 H 2252.62 0.131774 4.98626 0
M  V30 23197 H 2251.77 -2.11781 5.68536 0
M  V30 23198 H 2250.51 -2.05778 4.42162 0
M  V30 23199 H 2249.52 -0.0196759 5.49796 0
M  V30 23200 H 2250.74 -0.0990007 6.79028 0
M  V30 23201 H 2248.69 -2.25298 6.16098 0
M  V30 23202 H 2248.61 -1.1266 7.47558 0
M  V30 23203 H 2249.87 -2.31533 7.4432 0
M  V30 23204 N 2254.1 -1.54444 0.313841 0
M  V30 23205 C 2255.01 -2.27678 -0.565674 0
M  V30 23206 C 2256.03 -1.31668 -1.13752 0
M  V30 23207 O 2257.2 -1.6467 -1.15956 0
M  V30 23208 C 2254.27 -3.01299 -1.71522 0
M  V30 23209 C 2253.33 -4.12874 -1.17617 0
M  V30 23210 C 2252.56 -4.82974 -2.27093 0
M  V30 23211 O 2252.79 -4.5252 -3.47248 0
M  V30 23212 O 2251.72 -5.70098 -1.9306 0
M  V30 23213 H 2255.55 -3.03686 0.028783 0
M  V30 23214 H 2253.13 -1.49186 0.0798574 0
M  V30 23215 H 2255.01 -3.47434 -2.3847 0
M  V30 23216 H 2253.69 -2.28174 -2.29604 0
M  V30 23217 H 2252.6 -3.7111 -0.472059 0
M  V30 23218 H 2253.93 -4.88013 -0.640609 0
M  V30 23219 N 2255.58 -0.0418125 -1.57545 0
M  V30 23220 C 2256.99 0.495227 -1.80012 0
M  V30 23221 C 2257.34 1.71488 -0.953229 0
M  V30 23222 O 2256.47 2.15753 -0.167176 0
M  V30 23223 C 2257.06 0.905208 -3.26483 0
M  V30 23224 C 2255.62 1.38728 -3.49902 0
M  V30 23225 C 2254.77 0.358007 -2.74979 0
M  V30 23226 H 2257.72 -0.267763 -1.56425 0
M  V30 23227 H 2257.74 1.76876 -3.36891 0
M  V30 23228 H 2257.25 0.0173328 -3.88096 0
M  V30 23229 H 2255.35 2.29466 -2.93558 0
M  V30 23230 H 2255.47 1.3859 -4.58617 0
M  V30 23231 H 2253.83 0.828869 -2.40836 0
M  V30 23232 H 2254.61 -0.521621 -3.39314 0
M  V30 23233 N 2257.06 1.55891 0.231477 0
M  V30 23234 C 2258.01 1.87995 1.29004 0
M  V30 23235 C 2258.99 0.742127 1.42763 0
M  V30 23236 O 2260.18 1.00436 1.45745 0
M  V30 23237 C 2257.31 2.19154 2.64246 0
M  V30 23238 C 2256.4 3.39303 2.54429 0
M  V30 23239 N 2256.79 4.5818 2.14254 0
M  V30 23240 C 2255.09 3.4272 2.8541 0
M  V30 23241 C 2255.79 5.40331 2.15446 0
M  V30 23242 N 2254.77 4.79787 2.55549 0
M  V30 23243 H 2258.57 2.77426 0.970165 0
M  V30 23244 H 2256.08 1.56324 0.44007 0
M  V30 23245 H 2258.08 2.40325 3.4066 0
M  V30 23246 H 2256.74 1.31031 2.97088 0
M  V30 23247 H 2257.75 4.83522 1.85546 0
M  V30 23248 H 2254.43 2.64912 3.22689 0
M  V30 23249 H 2255.82 6.45471 1.86594 0
M  V30 23250 N 2258.54 -0.497781 1.49532 0
M  V30 23251 C 2259.81 -1.25912 1.49685 0
M  V30 23252 C 2260.19 -2.09883 0.226376 0
M  V30 23253 O 2259.54 -2.14367 -0.791152 0
M  V30 23254 C 2259.75 -2.11308 2.77759 0
M  V30 23255 C 2261.1 -2.70389 3.27376 0
M  V30 23256 O 2262.12 -2.21573 2.78898 0
M  V30 23257 O 2260.98 -3.59265 4.11814 0
M  V30 23258 H 2258.08 -0.56995 0.599238 0
M  V30 23259 H 2260.62 -0.511788 1.61799 0
M  V30 23260 H 2259.39 -1.49257 3.61715 0
M  V30 23261 H 2259.02 -2.93228 2.6852 0
M  V30 23262 N 2260.01 -1.38661 -0.749062 0
M  V30 23263 C 2261.43 -1.19957 -1.05273 0
M  V30 23264 C 2261.63 -0.0513754 -2.01434 0
M  V30 23265 O 2260.69 0.601427 -2.45233 0
M  V30 23266 C 2262 -2.52786 -1.62848 0
M  V30 23267 C 2263.55 -2.59509 -1.74998 0
M  V30 23268 C 2264.02 -3.92525 -2.35984 0
M  V30 23269 N 2265.51 -3.94089 -2.43409 0
M  V30 23270 C 2266.25 -4.93775 -2.91502 0
M  V30 23271 N 2265.74 -6.03859 -3.39597 0
M  V30 23272 N 2267.54 -4.81163 -2.90584 0
M  V30 23273 H 2259.69 -2.1211 -0.111028 0
M  V30 23274 H 2261.95 -0.941374 -0.111884 0
M  V30 23275 H 2261.66 -3.37285 -0.996581 0
M  V30 23276 H 2261.53 -2.71505 -2.61849 0
M  V30 23277 H 2263.92 -1.75403 -2.37314 0
M  V30 23278 H 2264 -2.44653 -0.746887 0
M  V30 23279 H 2263.64 -4.77056 -1.743 0
M  V30 23280 H 2263.57 -4.04694 -3.36943 0
M  V30 23281 H 2266.06 -3.1458 -2.09399 0
M  V30 23282 H 2266.38 -6.75849 -3.74763 0
M  V30 23283 H 2264.72 -6.07472 -3.37642 0
M  V30 23284 H 2267.91 -3.94271 -2.52325 0
M  V30 23285 H 2268.09 -5.59002 -3.27752 0
M  V30 23286 N 2261.49 0.977736 -1.23605 0
M  V30 23287 C 2262.74 1.71599 -1.06762 0
M  V30 23288 C 2263.06 1.90939 0.395895 0
M  V30 23289 O 2262.33 1.47994 1.28353 0
M  V30 23290 H 2260.91 0.635836 -0.392074 0
M  V30 23291 H 2263.57 1.17678 -1.55364 0
M  V30 23292 H 2262.67 2.70449 -1.55768 0
M  V30 23293 N 2262.97 1.04818 1.1769 0
M  V30 23294 C 2263.92 0.6397 2.23631 0
M  V30 23295 C 2264.91 -0.33719 1.6601 0
M  V30 23296 O 2266.12 -0.203662 1.78844 0
M  V30 23297 H 2262.49 0.188678 0.727945 0
M  V30 23298 H 2264.47 1.54342 2.55384 0
M  V30 23299 C 2263.21 0.0264662 3.4769 0
M  V30 23300 H 2262.54 0.769233 3.9233 0
M  V30 23301 H 2263.98 -0.222024 4.23418 0
M  V30 23302 C 2262.44 -1.22578 3.13809 0
M  V30 23303 O 2262.97 -2.31563 3.2824 0
M  V30 23304 N 2261.17 -1.12197 2.68067 0
M  V30 23305 H 2260.72 -0.235088 2.56525 0
M  V30 23306 H 2260.68 -1.96072 2.45771 0
M  V30 23307 N 2264.45 -1.34055 0.828678 0
M  V30 23308 C 2265.38 -2.3194 0.269483 0
M  V30 23309 C 2266.36 -1.58507 -0.617219 0
M  V30 23310 O 2267.55 -1.86457 -0.542898 0
M  V30 23311 C 2264.68 -3.42678 -0.564733 0
M  V30 23312 C 2263.63 -4.27407 0.225316 0
M  V30 23313 C 2262.96 -5.29666 -0.732007 0
M  V30 23314 C 2264.26 -5.02151 1.43672 0
M  V30 23315 H 2265.95 -2.78958 1.08733 0
M  V30 23316 H 2263.5 -1.34116 0.524307 0
M  V30 23317 H 2265.45 -4.10175 -0.966161 0
M  V30 23318 H 2264.17 -2.94323 -1.41569 0
M  V30 23319 H 2262.83 -3.6152 0.608181 0
M  V30 23320 H 2262.48 -4.77571 -1.57908 0
M  V30 23321 H 2262.18 -5.87233 -0.207566 0
M  V30 23322 H 2263.7 -6.00031 -1.13117 0
M  V30 23323 H 2265.12 -5.62471 1.109 0
M  V30 23324 H 2263.51 -5.6932 1.89721 0
M  V30 23325 H 2264.58 -4.31513 2.21189 0
M  V30 23326 N 2265.93 -0.584167 -1.46374 0
M  V30 23327 C 2267.18 -0.0701642 -2.01978 0
M  V30 23328 C 2267.5 1.29497 -1.45792 0
M  V30 23329 O 2266.77 1.85041 -0.643172 0
M  V30 23330 H 2265.35 -0.0229476 -0.746647 0
M  V30 23331 H 2268.01 -0.760277 -1.7946 0
M  V30 23332 H 2267.1 -0.00226126 -3.121 0
M  V30 23333 N 2267.41 1.54275 -0.322027 0
M  V30 23334 C 2268.34 2.27232 0.537371 0
M  V30 23335 C 2269.32 1.2797 1.12061 0
M  V30 23336 O 2270.5 1.56779 1.14603 0
M  V30 23337 C 2267.63 3.02897 1.69913 0
M  V30 23338 C 2266.59 4.09484 1.24526 0
M  V30 23339 C 2265.91 4.72981 2.49385 0
M  V30 23340 C 2267.21 5.21049 0.361243 0
M  V30 23341 H 2268.91 2.99315 -0.0711932 0
M  V30 23342 H 2266.45 1.43956 -0.0356808 0
M  V30 23343 H 2268.4 3.52666 2.30662 0
M  V30 23344 H 2267.13 2.28429 2.33427 0
M  V30 23345 H 2265.79 3.60597 0.660719 0
M  V30 23346 H 2265.44 3.95129 3.11258 0
M  V30 23347 H 2265.14 5.44979 2.19708 0
M  V30 23348 H 2266.66 5.25523 3.10899 0
M  V30 23349 H 2268.07 5.66584 0.874972 0
M  V30 23350 H 2266.47 5.99894 0.157323 0
M  V30 23351 H 2267.54 4.81069 -0.608304 0
M  V30 23352 N 2268.88 0.0501669 1.5752 0
M  V30 23353 C 2269.79 -0.939789 2.14954 0
M  V30 23354 C 2270.81 -1.34237 1.10708 0
M  V30 23355 O 2271.99 -1.4195 1.42871 0
M  V30 23356 C 2269.05 -2.1966 2.68236 0
M  V30 23357 C 2268.11 -1.85246 3.87276 0
M  V30 23358 C 2267.34 -3.04935 4.38007 0
M  V30 23359 O 2267.57 -4.18274 3.87818 0
M  V30 23360 O 2266.5 -2.86008 5.29607 0
M  V30 23361 H 2270.33 -0.481339 2.99861 0
M  V30 23362 H 2267.91 -0.171673 1.4841 0
M  V30 23363 H 2269.79 -2.93401 3.0248 0
M  V30 23364 H 2268.47 -2.64645 1.864 0
M  V30 23365 H 2267.38 -1.08824 3.57922 0
M  V30 23366 H 2268.71 -1.45061 4.70338 0
M  V30 23367 N 2270.36 -1.56011 -0.223207 0
M  V30 23368 C 2271.61 -1.78594 -0.945971 0
M  V30 23369 C 2271.93 -0.618381 -1.84935 0
M  V30 23370 O 2271.2 0.364799 -1.92473 0
M  V30 23371 H 2269.78 -0.658713 -0.352287 0
M  V30 23372 H 2272.44 -1.93472 -0.23546 0
M  V30 23373 H 2271.54 -2.70675 -1.55376 0
M  V30 23374 N 2271.84 0.489844 -1.49794 0
M  V30 23375 C 2273.06 1.27169 -1.63838 0
M  V30 23376 C 2273.49 1.8546 -0.314053 0
M  V30 23377 O 2272.85 1.664 0.719774 0
M  V30 23378 C 2272.9 2.36973 -2.71801 0
M  V30 23379 O 2272 3.41124 -2.3175 0
M  V30 23380 H 2271.34 0.37495 -0.548004 0
M  V30 23381 H 2273.87 0.585157 -1.96054 0
M  V30 23382 H 2273.88 2.8257 -2.9431 0
M  V30 23383 H 2272.56 1.93915 -3.67927 0
M  V30 23384 H 2271.13 3.01369 -2.19616 0
M  V30 23385 N 2273.32 1.39056 0.741698 0
M  V30 23386 C 2274.56 1.37341 1.51383 0
M  V30 23387 C 2274.92 -0.0330176 1.91972 0
M  V30 23388 O 2276.12 -0.175127 2.68229 0
M  V30 23389 C 2274.39 2.31281 2.72477 0
M  V30 23390 S 2275.95 2.47694 3.62206 0
M  V30 23391 H 2272.77 0.487138 0.517897 0
M  V30 23392 H 2275.37 1.75092 0.869659 0
M  V30 23393 H 2274.08 3.3234 2.40787 0
M  V30 23394 H 2273.61 1.94722 3.41829 0
M  V30 23395 H 2275.62 1.70986 4.65809 0
M  V30 23396 N 2274.8 -0.971167 1.24121 0
M  V30 23397 C 2276.02 -1.74872 1.10578 0
M  V30 23398 C 2276.44 -1.85677 -0.341984 0
M  V30 23399 O 2275.8 -1.3426 -1.23615 0
M  V30 23400 C 2275.85 -3.17097 1.73585 0
M  V30 23401 O 2275.57 -3.06839 3.127 0
M  V30 23402 C 2277.07 -4.11205 1.65605 0
M  V30 23403 H 2274.29 -0.548496 0.386513 0
M  V30 23404 H 2276.83 -1.21952 1.64158 0
M  V30 23405 H 2274.99 -3.67014 1.24015 0
M  V30 23406 H 2275.4 -3.96439 3.43419 0
M  V30 23407 H 2276.88 -5.08671 2.14379 0
M  V30 23408 H 2277.35 -4.3485 0.616608 0
M  V30 23409 H 2277.96 -3.67197 2.14584 0
M  V30 23410 N 2276.27 -1.05441 -1.17133 0
M  V30 23411 C 2277.52 -0.76711 -1.87732 0
M  V30 23412 C 2277.85 0.704221 -1.80982 0
M  V30 23413 O 2277.13 1.51517 -1.21954 0
M  V30 23414 C 2277.41 -1.25139 -3.37657 0
M  V30 23415 C 2277.26 -2.78584 -3.53145 0
M  V30 23416 C 2278.58 -0.8524 -4.31766 0
M  V30 23417 H 2275.7 -0.280141 -0.681682 0
M  V30 23418 H 2278.34 -1.30883 -1.3773 0
M  V30 23419 H 2276.49 -0.790536 -3.80372 0
M  V30 23420 H 2278.17 -3.32812 -3.19428 0
M  V30 23421 H 2276.41 -3.17737 -2.9534 0
M  V30 23422 H 2277.08 -3.07531 -4.58398 0
M  V30 23423 H 2279.56 -1.24918 -3.96906 0
M  V30 23424 H 2278.43 -1.21883 -5.35197 0
M  V30 23425 H 2278.69 0.243407 -4.41429 0
M  V30 23426 N 2277.75 1.33613 -0.835776 0
M  V30 23427 C 2279.16 1.80233 -0.487131 0
M  V30 23428 C 2279.51 1.69181 0.993597 0
M  V30 23429 O 2278.64 1.23927 1.77401 0
M  V30 23430 C 2279.23 3.27241 -0.877442 0
M  V30 23431 C 2277.79 3.71889 -0.580981 0
M  V30 23432 C 2276.94 2.55088 -1.08744 0
M  V30 23433 H 2279.89 1.21179 -1.02476 0
M  V30 23434 H 2279.91 3.80044 -0.186262 0
M  V30 23435 H 2279.42 3.35253 -1.95518 0
M  V30 23436 H 2277.53 3.69406 0.486817 0
M  V30 23437 H 2277.64 4.65485 -1.13405 0
M  V30 23438 H 2276 2.49574 -0.508436 0
M  V30 23439 H 2276.79 2.65864 -2.17189 0
M  V30 23440 N 2279.23 0.591922 1.46062 0
M  V30 23441 C 2280.64 0.167855 1.85944 0
M  V30 23442 C 2280.99 -1.2714 1.49432 0
M  V30 23443 O 2280.12 -1.96171 0.913549 0
M  V30 23444 C 2280.71 0.297853 3.37488 0
M  V30 23445 C 2279.27 -0.0714071 3.76332 0
M  V30 23446 C 2278.42 0.629556 2.70059 0
M  V30 23447 H 2281.37 0.799579 1.37085 0
M  V30 23448 H 2281.39 -0.474282 3.77533 0
M  V30 23449 H 2280.9 1.34546 3.64032 0
M  V30 23450 H 2279 -1.11879 3.55406 0
M  V30 23451 H 2279.12 0.311329 4.78087 0
M  V30 23452 H 2277.48 0.0688314 2.54607 0
M  V30 23453 H 2278.26 1.67899 2.99441 0
M  V30 23454 N 2280.71 -1.54102 0.330204 0
M  V30 23455 C 2281.66 -2.26048 -0.548186 0
M  V30 23456 C 2282.65 -1.277 -1.11306 0
M  V30 23457 O 2283.86 -1.45454 -1.06034 0
M  V30 23458 H 2280.23 -0.726158 -0.195443 0
M  V30 23459 H 2282.2 -2.98291 0.0808092 0
M  V30 23460 C 2280.95 -3.03637 -1.6941 0
M  V30 23461 H 2280.27 -3.79136 -1.2687 0
M  V30 23462 H 2281.71 -3.57214 -2.28417 0
M  V30 23463 C 2280.17 -2.12333 -2.61565 0
M  V30 23464 O 2280.7 -1.71056 -3.63459 0
M  V30 23465 N 2278.91 -1.77685 -2.29949 0
M  V30 23466 H 2278.46 -2.11448 -1.4713 0
M  V30 23467 H 2278.41 -1.16874 -2.91869 0
M  V30 23468 N 2282.19 -0.0585199 -1.57491 0
M  V30 23469 C 2283.43 0.614524 -1.93265 0
M  V30 23470 C 2283.77 1.70059 -0.937746 0
M  V30 23471 O 2283.04 1.94468 0.0351311 0
M  V30 23472 C 2283.32 1.2038 -3.39383 0
M  V30 23473 C 2283.18 0.125296 -4.49625 0
M  V30 23474 C 2284.5 2.11327 -3.86043 0
M  V30 23475 H 2281.61 0.22192 -0.702795 0
M  V30 23476 H 2284.26 -0.121783 -1.89609 0
M  V30 23477 H 2282.41 1.83133 -3.42629 0
M  V30 23478 H 2284.08 -0.507051 -4.58505 0
M  V30 23479 H 2282.32 -0.545747 -4.30353 0
M  V30 23480 H 2282.99 0.577765 -5.48968 0
M  V30 23481 H 2285.47 1.58527 -3.84719 0
M  V30 23482 H 2284.34 2.49499 -4.88919 0
M  V30 23483 H 2284.61 3.0163 -3.23221 0
M  V30 23484 N 2283.66 1.56128 0.21493 0
M  V30 23485 C 2284.63 1.92118 1.24994 0
M  V30 23486 C 2285.63 0.800369 1.39466 0
M  V30 23487 O 2286.82 1.06804 1.37617 0
M  V30 23488 C 2283.95 2.17781 2.62267 0
M  V30 23489 H 2285.14 2.84694 0.942825 0
M  V30 23490 H 2282.7 1.49512 0.455627 0
M  V30 23491 H 2283.43 1.27778 2.98066 0
M  V30 23492 H 2283.22 2.99439 2.53138 0
M  V30 23493 H 2284.71 2.46699 3.36941 0
M  V30 23494 N 2285.14 -0.481893 1.50052 0
M  V30 23495 C 2286.37 -1.25829 1.64239 0
M  V30 23496 C 2286.79 -1.86045 0.321369 0
M  V30 23497 O 2286.14 -1.6873 -0.695448 0
M  V30 23498 C 2286.19 -2.37482 2.72552 0
M  V30 23499 O 2285.91 -1.79738 3.99532 0
M  V30 23500 C 2287.42 -3.28541 2.97616 0
M  V30 23501 H 2284.64 -0.380947 0.552377 0
M  V30 23502 H 2287.18 -0.576433 1.96208 0
M  V30 23503 H 2285.33 -3.01463 2.43308 0
M  V30 23504 H 2285.75 -2.53182 4.59347 0
M  V30 23505 H 2287.22 -4.0312 3.77092 0
M  V30 23506 H 2287.7 -3.8668 2.08266 0
M  V30 23507 H 2288.31 -2.70308 3.2835 0
M  V30 23508 N 2286.62 -1.39448 -0.734313 0
M  V30 23509 C 2287.87 -1.36439 -1.49094 0
M  V30 23510 C 2288.19 0.0387912 -1.94961 0
M  V30 23511 O 2287.46 0.990161 -1.69034 0
M  V30 23512 H 2286.04 -0.502094 -0.553092 0
M  V30 23513 H 2288.7 -1.7432 -0.871694 0
M  V30 23514 H 2287.8 -2.02751 -2.37273 0
M  V30 23515 N 2288.1 0.964571 -1.24635 0
M  V30 23516 C 2289.51 1.23379 -1.01242 0
M  V30 23517 C 2289.71 1.99589 0.276865 0
M  V30 23518 O 2288.77 2.32189 0.9922 0
M  V30 23519 C 2290.08 2.01787 -2.22941 0
M  V30 23520 C 2291.63 2.14868 -2.27598 0
M  V30 23521 C 2292.11 2.96672 -3.48927 0
M  V30 23522 N 2293.6 3.04253 -3.49262 0
M  V30 23523 C 2294.33 3.67916 -4.39801 0
M  V30 23524 N 2293.83 4.33272 -5.40599 0
M  V30 23525 N 2295.62 3.64959 -4.27506 0
M  V30 23526 H 2287.77 0.454466 -2.07481 0
M  V30 23527 H 2290.04 0.263474 -0.910651 0
M  V30 23528 H 2289.74 1.53178 -3.1659 0
M  V30 23529 H 2289.62 3.02514 -2.25311 0
M  V30 23530 H 2292 2.62678 -1.34478 0
M  V30 23531 H 2292.08 1.13478 -2.29252 0
M  V30 23532 H 2291.73 2.49555 -4.42363 0
M  V30 23533 H 2291.66 3.98266 -3.44517 0
M  V30 23534 H 2294.15 2.57767 -2.76342 0
M  V30 23535 H 2294.46 4.79676 -6.05913 0
M  V30 23536 H 2292.81 4.31931 -5.44482 0
M  V30 23537 H 2296 3.13079 -3.47993 0
M  V30 23538 H 2296.17 4.1429 -4.98265 0
M  V30 23539 N 2289.58 1.0606 1.16572 0
M  V30 23540 C 2290.51 0.690527 2.23056 0
M  V30 23541 C 2291.49 -0.315871 1.67141 0
M  V30 23542 O 2292.67 -0.191522 1.93253 0
M  V30 23543 C 2289.8 0.073686 3.47222 0
M  V30 23544 C 2288.76 1.0058 4.16014 0
M  V30 23545 C 2288.08 0.252383 5.34104 0
M  V30 23546 C 2289.38 2.33379 4.6726 0
M  V30 23547 H 2291.08 1.58077 2.54268 0
M  V30 23548 H 2288.62 0.761512 1.22217 0
M  V30 23549 H 2290.58 -0.197066 4.20939 0
M  V30 23550 H 2289.3 -0.851555 3.15303 0
M  V30 23551 H 2287.96 1.26126 3.44221 0
M  V30 23552 H 2287.61 -0.675901 4.98438 0
M  V30 23553 H 2287.31 0.873557 5.8107 0
M  V30 23554 H 2288.83 -0.0108784 6.10599 0
M  V30 23555 H 2290.24 2.12233 5.32569 0
M  V30 23556 H 2288.64 2.90973 5.24838 0
M  V30 23557 H 2289.71 2.96617 3.83596 0
M  V30 23558 N 2291.06 -1.33168 0.84285 0
M  V30 23559 C 2292.47 -1.79972 0.496682 0
M  V30 23560 C 2292.82 -1.69705 -0.984611 0
M  V30 23561 O 2291.94 -1.24866 -1.76741 0
M  V30 23562 C 2292.54 -3.26771 0.894784 0
M  V30 23563 C 2291.1 -3.71576 0.600695 0
M  V30 23564 C 2290.24 -2.54508 1.10095 0
M  V30 23565 H 2293.19 -1.20633 1.03118 0
M  V30 23566 H 2293.22 -3.7994 0.206414 0
M  V30 23567 H 2292.73 -3.34211 1.97293 0
M  V30 23568 H 2290.83 -3.69659 -0.467219 0
M  V30 23569 H 2290.94 -4.64877 1.15872 0
M  V30 23570 H 2289.31 -2.49301 0.521664 0
M  V30 23571 H 2290.09 -2.64709 2.18596 0
M  V30 23572 N 2292.53 -0.599659 -1.45746 0
M  V30 23573 C 2293.78 -0.0915827 -2.01892 0
M  V30 23574 C 2294.1 1.27944 -1.47158 0
M  V30 23575 O 2293.37 1.84348 -0.662762 0
M  V30 23576 H 2291.95 -0.0308655 -0.746362 0
M  V30 23577 H 2294.61 -0.779268 -1.78643 0
M  V30 23578 H 2293.71 -0.0353635 -3.1208 0
M  V30 23579 N 2294.01 1.53925 -0.338371 0
M  V30 23580 C 2294.97 2.23494 0.50826 0
M  V30 23581 C 2295.97 1.23337 1.03173 0
M  V30 23582 O 2297.16 1.47812 0.9218 0
M  V30 23583 C 2294.3 2.95055 1.70749 0
M  V30 23584 H 2295.49 2.99733 -0.10011 0
M  V30 23585 H 2293.04 1.56043 -0.0896473 0
M  V30 23586 H 2293.78 2.2299 2.3547 0
M  V30 23587 H 2293.56 3.68514 1.33939 0
M  V30 23588 H 2295.05 3.48017 2.30812 0
M  V30 23589 N 2295.49 0.0668712 1.57458 0
M  V30 23590 C 2296.71 -0.615992 1.98041 0
M  V30 23591 C 2297.14 -1.6265 0.944799 0
M  V30 23592 O 2296.5 -1.81076 -0.0901776 0
M  V30 23593 C 2296.55 -1.26543 3.37667 0
M  V30 23594 O 2295.65 -2.38125 3.36705 0
M  V30 23595 H 2294.99 -0.158838 0.644722 0
M  V30 23596 H 2297.52 0.139927 2.04121 0
M  V30 23597 H 2297.53 -1.61343 3.74743 0
M  V30 23598 H 2296.21 -0.524944 4.12574 0
M  V30 23599 H 2294.78 -2.05155 3.11394 0
M  V30 23600 N 2296.97 -1.56239 -0.206647 0
M  V30 23601 C 2297.9 -1.96647 -1.25906 0
M  V30 23602 C 2298.88 -0.83676 -1.48096 0
M  V30 23603 O 2300.06 -1.10021 -1.60028 0
M  V30 23604 C 2297.19 -2.29603 -2.60576 0
M  V30 23605 C 2296.15 -3.45204 -2.53018 0
M  V30 23606 C 2295.47 -3.63805 -3.91854 0
M  V30 23607 C 2296.77 -4.79738 -2.06516 0
M  V30 23608 H 2298.47 -2.84807 -0.923319 0
M  V30 23609 H 2296.01 -1.37026 -0.442711 0
M  V30 23610 H 2297.97 -2.56464 -3.34371 0
M  V30 23611 H 2296.69 -1.38312 -2.95867 0
M  V30 23612 H 2295.35 -3.18415 -1.81679 0
M  V30 23613 H 2295 -2.69865 -4.24479 0
M  V30 23614 H 2294.7 -4.41567 -3.87675 0
M  V30 23615 H 2296.22 -3.93031 -4.67289 0
M  V30 23616 H 2297.64 -5.05706 -2.70063 0
M  V30 23617 H 2296.03 -5.60888 -2.13364 0
M  V30 23618 H 2297.1 -4.74095 -1.01793 0
M  V30 23619 N 2298.45 0.473929 -1.50305 0
M  V30 23620 C 2299.38 1.58039 -1.71889 0
M  V30 23621 C 2300.36 1.60343 -0.567827 0
M  V30 23622 O 2301.54 1.76654 -0.806654 0
M  V30 23623 C 2298.67 2.9638 -1.81041 0
M  V30 23624 C 2297.63 3.08943 -2.96206 0
M  V30 23625 C 2296.95 4.48904 -2.90498 0
M  V30 23626 C 2298.25 2.86427 -4.36757 0
M  V30 23627 H 2299.95 1.4023 -2.6453 0
M  V30 23628 H 2297.49 0.673178 -1.27296 0
M  V30 23629 H 2299.44 3.73711 -1.94726 0
M  V30 23630 H 2298.17 3.1534 -0.850202 0
M  V30 23631 H 2296.83 2.34045 -2.82168 0
M  V30 23632 H 2296.48 4.64778 -1.92329 0
M  V30 23633 H 2296.18 4.58246 -3.6781 0
M  V30 23634 H 2297.7 5.28259 -3.06227 0
M  V30 23635 H 2299.11 3.53509 -4.51336 0
M  V30 23636 H 2297.51 3.07216 -5.15498 0
M  V30 23637 H 2298.58 1.82308 -4.49324 0
M  V30 23638 N 2299.92 1.39835 0.726907 0
M  V30 23639 C 2300.85 1.41944 1.85403 0
M  V30 23640 C 2301.83 0.281757 1.6775 0
M  V30 23641 O 2303.02 0.48875 1.87949 0
M  V30 23642 C 2300.15 1.27015 3.2324 0
M  V30 23643 C 2299.1 2.38268 3.55545 0
M  V30 23644 C 2298.43 2.08423 4.92406 0
M  V30 23645 C 2299.73 3.80595 3.57693 0
M  V30 23646 H 2301.42 2.36269 1.83895 0
M  V30 23647 H 2298.97 1.13725 0.883329 0
M  V30 23648 H 2300.92 1.2711 4.01772 0
M  V30 23649 H 2299.65 0.291621 3.25295 0
M  V30 23650 H 2298.31 2.37404 2.79347 0
M  V30 23651 H 2297.95 1.08988 4.9105 0
M  V30 23652 H 2297.65 2.82952 5.14987 0
M  V30 23653 H 2299.18 2.10181 5.73285 0
M  V30 23654 H 2300.59 3.83344 4.26286 0
M  V30 23655 H 2298.99 4.5455 3.91796 0
M  V30 23656 H 2300.06 4.10992 2.5732 0
M  V30 23657 N 2301.4 -0.957948 1.25144 0
M  V30 23658 C 2302.31 -2.08792 1.06971 0
M  V30 23659 C 2303.33 -1.73998 0.00776969 0
M  V30 23660 O 2304.5 -2.00323 0.208008 0
M  V30 23661 C 2301.57 -3.39826 0.68697 0
M  V30 23662 C 2300.63 -3.88508 1.82648 0
M  V30 23663 C 2299.86 -5.13287 1.4619 0
M  V30 23664 O 2300.09 -5.69288 0.356071 0
M  V30 23665 O 2299.02 -5.56596 2.29094 0
M  V30 23666 H 2302.85 -2.27024 2.01727 0
M  V30 23667 H 2300.43 -1.07207 1.04053 0
M  V30 23668 H 2302.31 -4.18594 0.485491 0
M  V30 23669 H 2300.99 -3.22872 -0.23136 0
M  V30 23670 H 2299.89 -3.10758 2.08279 0
M  V30 23671 H 2301.23 -4.09954 2.72394 0
M  V30 23672 N 2302.88 -1.06677 -1.16008 0
M  V30 23673 C 2304.29 -0.809595 -1.68233 0
M  V30 23674 C 2304.64 0.666271 -1.84541 0
M  V30 23675 O 2303.77 1.51647 -1.54377 0
M  V30 23676 C 2304.36 -1.46304 -3.05582 0
M  V30 23677 C 2302.92 -1.25355 -3.54913 0
M  V30 23678 C 2302.07 -1.53707 -2.30801 0
M  V30 23679 H 2305.02 -1.22973 -1.00316 0
M  V30 23680 H 2305.04 -0.880496 -3.70172 0
M  V30 23681 H 2304.55 -2.53718 -2.93681 0
M  V30 23682 H 2302.65 -0.199327 -3.72066 0
M  V30 23683 H 2302.77 -1.96897 -4.3677 0
M  V30 23684 H 2301.13 -0.95778 -2.36006 0
M  V30 23685 H 2301.91 -2.62288 -2.21494 0
M  V30 23686 N 2304.36 1.32719 -0.8499 0
M  V30 23687 C 2305.58 2.02146 -0.463891 0
M  V30 23688 C 2306.01 1.63477 0.93042 0
M  V30 23689 O 2305.37 0.83298 1.61031 0
M  V30 23690 C 2305.41 3.55488 -0.605017 0
M  V30 23691 O 2304.52 4.10789 0.364177 0
M  V30 23692 H 2303.86 0.637107 -0.187057 0
M  V30 23693 H 2306.39 1.69373 -1.14778 0
M  V30 23694 H 2306.4 4.05038 -0.490767 0
M  V30 23695 H 2305.07 3.82976 -1.6218 0
M  V30 23696 H 2303.65 3.72327 0.206563 0
M  V30 23697 N 2305.84 0.60738 1.45426 0
M  V30 23698 C 2307.06 0.107042 2.07124 0
M  V30 23699 C 2307.49 -1.19931 1.44908 0
M  V30 23700 O 2306.84 -1.73018 0.541717 0
M  V30 23701 C 2306.89 -0.0193485 3.60595 0
M  V30 23702 O 2306 -1.06963 3.98287 0
M  V30 23703 H 2305.34 0.0739713 0.659867 0
M  V30 23704 H 2307.87 0.83733 1.86681 0
M  V30 23705 H 2307.88 -0.217629 4.07419 0
M  V30 23706 H 2306.55 0.934524 4.05265 0
M  V30 23707 H 2305.13 -0.847825 3.63134 0
M  V30 23708 N 2307.31 -1.53743 0.34653 0
M  V30 23709 C 2308.24 -2.28059 -0.501153 0
M  V30 23710 C 2309.23 -1.29736 -1.10011 0
M  V30 23711 O 2310.41 -1.58583 -1.12094 0
M  V30 23712 C 2307.54 -3.05562 -1.65073 0
M  V30 23713 C 2306.49 -4.11413 -1.17996 0
M  V30 23714 C 2305.82 -4.76889 -2.41829 0
M  V30 23715 C 2307.12 -5.21558 -0.278303 0
M  V30 23716 H 2308.81 -2.99164 0.118803 0
M  V30 23717 H 2306.36 -1.43881 0.0585784 0
M  V30 23718 H 2308.31 -3.56291 -2.25022 0
M  V30 23719 H 2307.04 -2.32113 -2.29763 0
M  V30 23720 H 2305.7 -3.61602 -0.603268 0
M  V30 23721 H 2305.34 -4.00031 -3.04933 0
M  V30 23722 H 2305.04 -5.48405 -2.1101 0
M  V30 23723 H 2306.57 -5.30403 -3.02499 0
M  V30 23724 H 2307.98 -5.67904 -0.784723 0
M  V30 23725 H 2306.38 -6.00068 -0.0618652 0
M  V30 23726 H 2307.45 -4.80041 0.684761 0
M  V30 23727 N 2308.79 -0.0752207 -1.5742 0
M  V30 23728 C 2310.02 0.602042 -1.97947 0
M  V30 23729 C 2310.44 1.62942 -0.953703 0
M  V30 23730 O 2309.79 1.82404 0.059223 0
M  V30 23731 C 2309.84 1.26756 -3.38549 0
M  V30 23732 O 2309.56 0.281299 -4.37196 0
M  V30 23733 C 2311.07 2.03232 -3.93969 0
M  V30 23734 H 2308.29 0.16292 -0.650921 0
M  V30 23735 H 2310.83 -0.148636 -2.03959 0
M  V30 23736 H 2308.98 1.9693 -3.33613 0
M  V30 23737 H 2309.4 0.759176 -5.18977 0
M  V30 23738 H 2310.87 2.45184 -4.94559 0
M  V30 23739 H 2311.35 2.89024 -3.30699 0
M  V30 23740 H 2311.96 1.37917 -4.02317 0
M  V30 23741 N 2310.27 1.56347 0.198358 0
M  V30 23742 C 2311.23 1.93433 1.22949 0
M  V30 23743 C 2312.23 0.815116 1.38609 0
M  V30 23744 O 2313.42 1.08258 1.36477 0
M  V30 23745 C 2310.56 2.20551 2.59942 0
M  V30 23746 H 2311.75 2.85678 0.912576 0
M  V30 23747 H 2309.3 1.49986 0.439744 0
M  V30 23748 H 2310.04 1.30932 2.96694 0
M  V30 23749 H 2309.82 3.02107 2.49948 0
M  V30 23750 H 2311.31 2.50259 3.34306 0
M  V30 23751 N 2311.75 -0.465951 1.50554 0
M  V30 23752 C 2312.7 -1.58403 1.70327 0
M  V30 23753 C 2313.69 -1.59552 0.569167 0
M  V30 23754 O 2314.9 -1.6364 0.749805 0
M  V30 23755 H 2311.27 -0.525724 0.537697 0
M  V30 23756 H 2313.24 -1.3889 2.64106 0
M  V30 23757 C 2311.99 -2.96303 1.81933 0
M  V30 23758 H 2311.31 -2.9614 2.68592 0
M  V30 23759 H 2312.75 -3.73978 1.99791 0
M  V30 23760 C 2311.21 -3.32006 0.572153 0
M  V30 23761 O 2311.74 -4.00678 -0.286346 0
M  V30 23762 N 2309.95 -2.8748 0.424656 0
M  V30 23763 H 2309.5 -2.31769 1.12431 0
M  V30 23764 H 2309.45 -3.11733 -0.408642 0
M  V30 23765 N 2313.23 -1.40218 -0.719481 0
M  V30 23766 C 2314.16 -1.34574 -1.84296 0
M  V30 23767 C 2315.14 -0.216769 -1.61149 0
M  V30 23768 O 2316.32 -0.399788 -1.84212 0
M  V30 23769 C 2313.45 -1.09341 -3.20566 0
M  V30 23770 C 2312.49 -2.24637 -3.62547 0
M  V30 23771 S 2313.33 -3.8701 -3.70113 0
M  V30 23772 C 2314.48 -3.64033 -5.09147 0
M  V30 23773 H 2314.72 -2.29654 -1.88803 0
M  V30 23774 H 2312.25 -1.26458 -0.885879 0
M  V30 23775 H 2314.21 -0.954672 -3.99245 0
M  V30 23776 H 2312.87 -0.159219 -3.13696 0
M  V30 23777 H 2312.06 -2.02614 -4.6148 0
M  V30 23778 H 2311.66 -2.34794 -2.91115 0
M  V30 23779 H 2313.96 -3.22259 -5.95949 0
M  V30 23780 H 2314.9 -4.62482 -5.36205 0
M  V30 23781 H 2315.31 -2.97801 -4.79557 0
M  V30 23782 N 2314.7 0.951297 -1.25651 0
M  V30 23783 C 2315.65 2.0485 -1.06326 0
M  V30 23784 C 2316.62 1.66075 0.0286199 0
M  V30 23785 O 2317.81 1.90362 -0.129204 0
M  V30 23786 C 2314.95 3.38099 -0.691589 0
M  V30 23787 C 2314.06 3.89971 -1.85868 0
M  V30 23788 C 2313.19 5.11561 -1.43105 0
M  V30 23789 C 2312.23 5.55669 -2.56706 0
M  V30 23790 N 2311.37 6.68469 -2.14696 0
M  V30 23791 H 2316.21 2.20712 -2.00226 0
M  V30 23792 H 2313.75 1.08155 -0.997046 0
M  V30 23793 H 2315.71 4.14689 -0.457036 0
M  V30 23794 H 2314.34 3.22113 0.210418 0
M  V30 23795 H 2313.39 3.09871 -2.20644 0
M  V30 23796 H 2314.7 4.18652 -2.71168 0
M  V30 23797 H 2313.85 5.95578 -1.15634 0
M  V30 23798 H 2312.59 4.84602 -0.548808 0
M  V30 23799 H 2311.6 4.70215 -2.84917 0
M  V30 23800 H 2312.82 5.84634 -3.45513 0
M  V30 23801 H 2310.77 6.43213 -1.28892 0
M  V30 23802 H 2310.69 6.96684 -2.93543 0
M  V30 23803 H 2311.95 7.55886 -1.9041 0
M  V30 23804 N 2316.18 1.07291 1.1544 0
M  V30 23805 C 2317.09 0.704096 2.23785 0
M  V30 23806 C 2318.11 -0.284383 1.7166 0
M  V30 23807 O 2319.28 -0.13117 2.00972 0
M  V30 23808 C 2316.35 0.106853 3.46535 0
M  V30 23809 C 2315.41 1.14849 4.13652 0
M  V30 23810 C 2314.64 0.579653 5.30543 0
M  V30 23811 O 2314.87 -0.604485 5.67188 0
M  V30 23812 O 2313.8 1.32424 5.87152 0
M  V30 23813 H 2317.63 1.60761 2.57662 0
M  V30 23814 H 2315.21 0.845825 1.23151 0
M  V30 23815 H 2317.09 -0.223974 4.20804 0
M  V30 23816 H 2315.77 -0.769994 3.14409 0
M  V30 23817 H 2314.68 1.53166 3.41308 0
M  V30 23818 H 2316.01 1.99722 4.49858 0
M  V30 23819 N 2317.66 -1.32267 0.856927 0
M  V30 23820 C 2318.91 -1.97465 0.462104 0
M  V30 23821 C 2319.24 -1.67644 -0.980269 0
M  V30 23822 O 2318.51 -0.965888 -1.68822 0
M  V30 23823 C 2318.8 -3.53143 0.704398 0
M  V30 23824 C 2318.65 -3.92587 2.19536 0
M  V30 23825 C 2319.97 -4.39801 0.162278 0
M  V30 23826 H 2317.09 -0.717275 0.169369 0
M  V30 23827 H 2319.73 -1.56612 1.07577 0
M  V30 23828 H 2317.88 -3.88073 0.182067 0
M  V30 23829 H 2319.55 -3.67824 2.78394 0
M  V30 23830 H 2317.8 -3.41664 2.67298 0
M  V30 23831 H 2318.47 -5.01084 2.31557 0
M  V30 23832 H 2320.94 -4.1162 0.608978 0
M  V30 23833 H 2319.82 -5.47709 0.361361 0
M  V30 23834 H 2320.08 -4.32098 -0.935082 0
M  V30 23835 N 2319.14 -0.615084 -1.45102 0
M  V30 23836 C 2320.55 -0.197416 -1.85653 0
M  V30 23837 C 2320.9 1.24747 -1.51435 0
M  V30 23838 O 2320.03 1.94693 -0.944643 0
M  V30 23839 C 2320.62 -0.351507 -3.36972 0
M  V30 23840 C 2319.18 0.0115268 -3.76398 0
M  V30 23841 C 2318.33 -0.672441 -2.69023 0
M  V30 23842 H 2321.28 -0.821287 -1.35796 0
M  V30 23843 H 2321.3 0.41416 -3.78239 0
M  V30 23844 H 2320.81 -1.4032 -3.61845 0
M  V30 23845 H 2318.91 1.06211 -3.57141 0
M  V30 23846 H 2319.02 -0.387349 -4.77532 0
M  V30 23847 H 2317.39 -0.109328 -2.54465 0
M  V30 23848 H 2318.17 -1.72642 -2.96732 0
M  V30 23849 N 2320.62 1.53557 -0.354678 0
M  V30 23850 C 2321.55 2.28321 0.489051 0
M  V30 23851 C 2322.53 1.30318 1.09322 0
M  V30 23852 O 2323.71 1.59175 1.11252 0
M  V30 23853 C 2320.84 3.06433 1.6345 0
M  V30 23854 C 2319.8 4.12033 1.15813 0
M  V30 23855 C 2319.12 4.78164 2.39297 0
M  V30 23856 C 2320.42 5.21698 0.250639 0
M  V30 23857 H 2322.12 2.99097 -0.134666 0
M  V30 23858 H 2319.66 1.43848 -0.0662079 0
M  V30 23859 H 2321.62 3.57479 2.2313 0
M  V30 23860 H 2320.34 2.33329 2.28529 0
M  V30 23861 H 2319 3.61917 0.584083 0
M  V30 23862 H 2318.65 4.01643 3.02807 0
M  V30 23863 H 2318.35 5.49517 2.08099 0
M  V30 23864 H 2319.87 5.31999 2.99682 0
M  V30 23865 H 2321.29 5.68312 0.754595 0
M  V30 23866 H 2319.68 6.00092 0.0300413 0
M  V30 23867 H 2320.75 4.79671 -0.710209 0
M  V30 23868 N 2322.1 0.083568 1.57378 0
M  V30 23869 C 2323.34 -0.582836 1.93931 0
M  V30 23870 C 2323.67 -1.68902 0.964484 0
M  V30 23871 O 2322.93 -1.95692 -0.017913 0
M  V30 23872 C 2323.22 -1.18834 3.37066 0
M  V30 23873 C 2322.89 -0.207114 4.50424 0
M  V30 23874 C 2321.55 0.0627961 4.81159 0
M  V30 23875 C 2323.9 0.463517 5.19135 0
M  V30 23876 C 2321.23 1.01023 5.77937 0
M  V30 23877 C 2323.58 1.39934 6.16929 0
M  V30 23878 C 2322.25 1.6776 6.46075 0
M  V30 23879 H 2321.52 -0.213275 0.709644 0
M  V30 23880 H 2324.17 0.15695 1.90856 0
M  V30 23881 H 2322.47 -2.00413 3.36663 0
M  V30 23882 H 2324.17 -1.71146 3.62643 0
M  V30 23883 H 2320.76 -0.427672 4.26461 0
M  V30 23884 H 2324.94 0.268121 4.95575 0
M  V30 23885 H 2320.2 1.23294 5.98839 0
M  V30 23886 H 2324.37 1.92488 6.69269 0
M  V30 23887 H 2322 2.41333 7.20876 0
M  V30 23888 N 2323.57 -1.5645 -0.190064 0
M  V30 23889 C 2324.99 -1.50147 -0.541104 0
M  V30 23890 C 2325.19 -0.784498 -1.85601 0
M  V30 23891 O 2324.25 -0.337095 -2.5024 0
M  V30 23892 C 2325.56 -2.94831 -0.591189 0
M  V30 23893 C 2327.11 -3.05531 -0.679678 0
M  V30 23894 C 2327.58 -4.51636 -0.760828 0
M  V30 23895 N 2329.07 -4.55808 -0.824222 0
M  V30 23896 C 2329.81 -5.66177 -0.907266 0
M  V30 23897 N 2329.3 -6.86224 -0.952301 0
M  V30 23898 N 2331.1 -5.54102 -0.944843 0
M  V30 23899 H 2323.25 -2.01476 0.672385 0
M  V30 23900 H 2325.51 -0.91708 0.240144 0
M  V30 23901 H 2325.22 -3.50367 0.305967 0
M  V30 23902 H 2325.09 -3.48459 -1.44416 0
M  V30 23903 H 2327.48 -2.50042 -1.56726 0
M  V30 23904 H 2327.56 -2.5502 0.199594 0
M  V30 23905 H 2327.2 -5.07752 0.122425 0
M  V30 23906 H 2327.13 -4.99885 -1.65597 0
M  V30 23907 H 2329.62 -3.69368 -0.798461 0
M  V30 23908 H 2329.94 -7.66088 -1.01632 0
M  V30 23909 H 2328.28 -6.88872 -0.920893 0
M  V30 23910 H 2331.47 -4.59238 -0.906532 0
M  V30 23911 H 2331.65 -6.40142 -1.0061 0
M  V30 23912 N 2325.05 0.45796 -1.50799 0
M  V30 23913 C 2325.98 1.56207 -1.73556 0
M  V30 23914 C 2326.96 1.59731 -0.584802 0
M  V30 23915 O 2328.15 1.75789 -0.825345 0
M  V30 23916 C 2325.28 2.94444 -1.84175 0
M  V30 23917 C 2324.23 3.05784 -2.99466 0
M  V30 23918 C 2323.56 4.45798 -2.95243 0
M  V30 23919 C 2324.86 2.81778 -4.39771 0
M  V30 23920 H 2326.55 1.37416 -2.66002 0
M  V30 23921 H 2324.1 0.659639 -1.28003 0
M  V30 23922 H 2326.05 3.71625 -1.98678 0
M  V30 23923 H 2324.77 3.1442 -0.8836 0
M  V30 23924 H 2323.43 2.31039 -2.84634 0
M  V30 23925 H 2323.08 4.62712 -1.97248 0
M  V30 23926 H 2322.78 4.54319 -3.72649 0
M  V30 23927 H 2324.31 5.24981 -3.11813 0
M  V30 23928 H 2325.72 3.48702 -4.5506 0
M  V30 23929 H 2324.12 3.01731 -5.18727 0
M  V30 23930 H 2325.19 1.77532 -4.51232 0
M  V30 23931 N 2326.53 1.40598 0.712035 0
M  V30 23932 C 2327.95 1.22706 1.02056 0
M  V30 23933 C 2328.15 0.104764 2.01227 0
M  V30 23934 O 2327.2 -0.536197 2.46741 0
M  V30 23935 C 2328.51 2.57015 1.56089 0
M  V30 23936 C 2330.06 2.64057 1.68056 0
M  V30 23937 C 2330.54 3.98644 2.25494 0
M  V30 23938 N 2332.03 4.00404 2.32875 0
M  V30 23939 C 2332.76 5.0133 2.78308 0
M  V30 23940 N 2332.26 6.1265 3.23468 0
M  V30 23941 N 2334.05 4.88698 2.77725 0
M  V30 23942 H 2326.2 2.12329 0.0547523 0
M  V30 23943 H 2328.47 0.94401 0.0868861 0
M  V30 23944 H 2328.17 3.39809 0.906806 0
M  V30 23945 H 2328.05 2.78352 2.54559 0
M  V30 23946 H 2330.43 1.81633 2.3258 0
M  V30 23947 H 2330.51 2.46548 0.681759 0
M  V30 23948 H 2330.16 4.81509 1.6159 0
M  V30 23949 H 2330.09 4.13485 3.26094 0
M  V30 23950 H 2332.58 3.20021 2.00985 0
M  V30 23951 H 2332.89 6.85548 3.56713 0
M  V30 23952 H 2331.24 6.16211 3.21418 0
M  V30 23953 H 2334.43 4.00823 2.41783 0
M  V30 23954 H 2334.6 5.67495 3.12816 0
M  V30 23955 N 2328.01 -0.94462 1.26153 0
M  V30 23956 C 2328.96 -2.02855 1.04085 0
M  V30 23957 C 2329.94 -1.6088 -0.0256272 0
M  V30 23958 O 2331.13 -1.75967 0.190915 0
M  V30 23959 C 2328.26 -3.36655 0.672177 0
M  V30 23960 C 2327.35 -3.85125 1.77593 0
M  V30 23961 N 2327.74 -4.06282 3.01279 0
M  V30 23962 C 2326.04 -4.14007 1.65874 0
M  V30 23963 C 2326.74 -4.46377 3.72991 0
M  V30 23964 N 2325.71 -4.52884 3.00661 0
M  V30 23965 H 2329.52 -2.1722 1.97972 0
M  V30 23966 H 2327.03 -1.1302 1.1662 0
M  V30 23967 H 2329.03 -4.13948 0.495239 0
M  V30 23968 H 2327.69 -3.23663 -0.25925 0
M  V30 23969 H 2328.7 -3.93069 3.3722 0
M  V30 23970 H 2325.38 -4.09823 0.796979 0
M  V30 23971 H 2326.77 -4.70966 4.79208 0
M  V30 23972 N 2329.49 -1.07901 -1.1487 0
M  V30 23973 C 2330.73 -0.805565 -1.85787 0
M  V30 23974 C 2331.06 0.668529 -1.8265 0
M  V30 23975 O 2330.32 1.50693 -1.24861 0
M  V30 23976 C 2330.61 -1.26614 -3.34221 0
M  V30 23977 C 2330.28 -2.74716 -3.5755 0
M  V30 23978 C 2328.94 -3.15166 -3.63626 0
M  V30 23979 C 2331.29 -3.70283 -3.66797 0
M  V30 23980 C 2328.62 -4.4999 -3.76465 0
M  V30 23981 C 2330.97 -5.04875 -3.81161 0
M  V30 23982 C 2329.64 -5.44939 -3.85484 0
M  V30 23983 H 2328.91 -0.294777 -0.679844 0
M  V30 23984 H 2331.56 -1.35103 -1.35718 0
M  V30 23985 H 2329.86 -0.640171 -3.86535 0
M  V30 23986 H 2331.56 -1.03139 -3.87509 0
M  V30 23987 H 2328.15 -2.42405 -3.53466 0
M  V30 23988 H 2332.33 -3.40155 -3.61398 0
M  V30 23989 H 2327.59 -4.80491 -3.78072 0
M  V30 23990 H 2331.76 -5.78796 -3.87258 0
M  V30 23991 H 2329.39 -6.49409 -3.95185 0
M  V30 23992 N 2330.96 1.31811 -0.863929 0
M  V30 23993 C 2332.37 1.79159 -0.525252 0
M  V30 23994 C 2332.73 1.7125 0.957488 0
M  V30 23995 O 2331.85 1.27662 1.74732 0
M  V30 23996 C 2332.45 3.25306 -0.946657 0
M  V30 23997 C 2331 3.70573 -0.659733 0
M  V30 23998 C 2330.15 2.52724 -1.14131 0
M  V30 23999 H 2333.1 1.18978 -1.05024 0
M  V30 24000 H 2333.12 3.79563 -0.266833 0
M  V30 24001 H 2332.64 3.3103 -2.02585 0
M  V30 24002 H 2330.74 3.70356 0.40835 0
M  V30 24003 H 2330.85 4.62975 -1.23253 0
M  V30 24004 H 2329.21 2.48439 -0.561259 0
M  V30 24005 H 2330 2.61198 -2.2278 0
M  V30 24006 N 2332.44 0.62277 1.44773 0
M  V30 24007 C 2333.68 0.127138 2.04004 0
M  V30 24008 C 2334.05 -1.22475 1.47864 0
M  V30 24009 O 2335.25 -1.81201 1.98544 0
M  V30 24010 C 2333.52 0.104492 3.57247 0
M  V30 24011 S 2335.08 -0.327738 4.37574 0
M  V30 24012 H 2331.89 0.0569901 0.708712 0
M  V30 24013 H 2334.5 0.824284 1.77273 0
M  V30 24014 H 2333.2 1.09166 3.95615 0
M  V30 24015 H 2332.73 -0.614168 3.88576 0
M  V30 24016 H 2334.75 -1.57387 4.70578 0
M  V30 24017 N 2333.92 -1.53367 0.362817 0
M  V30 24018 C 2335.17 -2.00818 -0.22729 0
M  V30 24019 C 2335.49 -1.25188 -1.49509 0
M  V30 24020 O 2334.76 -0.364382 -1.92481 0
M  V30 24021 H 2333.34 -0.741919 -0.0869792 0
M  V30 24022 H 2336 -1.88681 0.488414 0
M  V30 24023 H 2335.1 -3.08748 -0.456219 0
M  V30 24024 N 2335.4 -0.091913 -1.57332 0
M  V30 24025 C 2336.35 0.885709 -2.15077 0
M  V30 24026 C 2337.34 1.29439 -1.09279 0
M  V30 24027 O 2338.55 1.26929 -1.27629 0
M  V30 24028 H 2334.92 0.303644 -0.687971 0
M  V30 24029 H 2336.89 0.373943 -2.96048 0
M  V30 24030 C 2335.64 2.13633 -2.74329 0
M  V30 24031 H 2334.96 1.83074 -3.55421 0
M  V30 24032 H 2336.4 2.80104 -3.18305 0
M  V30 24033 C 2334.86 2.90824 -1.70067 0
M  V30 24034 O 2335.39 3.85252 -1.13769 0
M  V30 24035 N 2333.6 2.54305 -1.40633 0
M  V30 24036 H 2333.15 1.77587 -1.86603 0
M  V30 24037 H 2333.1 3.06253 -0.711096 0
M  V30 24038 N 2336.88 1.56548 0.181765 0
M  V30 24039 C 2338.12 1.81666 0.901399 0
M  V30 24040 C 2338.46 0.668107 1.82346 0
M  V30 24041 O 2337.73 -0.330581 1.9167 0
M  V30 24042 C 2338.01 3.17118 1.70612 0
M  V30 24043 C 2337.87 4.42485 0.807886 0
M  V30 24044 C 2339.19 3.49398 2.67599 0
M  V30 24045 H 2336.3 0.660851 0.326258 0
M  V30 24046 H 2338.95 1.89255 0.168101 0
M  V30 24047 H 2337.1 3.10779 2.33128 0
M  V30 24048 H 2338.77 4.60882 0.196409 0
M  V30 24049 H 2337.01 4.33647 0.115334 0
M  V30 24050 H 2337.68 5.33788 1.40623 0
M  V30 24051 H 2340.16 3.56122 2.15212 0
M  V30 24052 H 2339.03 4.45269 3.20977 0
M  V30 24053 H 2339.3 2.73569 3.47293 0
M  V30 24054 N 2338.35 -0.449957 1.5104 0
M  V30 24055 C 2339.3 -1.56587 1.71998 0
M  V30 24056 C 2340.3 -1.58939 0.586057 0
M  V30 24057 O 2341.5 -1.62835 0.767119 0
M  V30 24058 H 2337.88 -0.519992 0.543243 0
M  V30 24059 H 2339.85 -1.36081 2.65565 0
M  V30 24060 C 2338.6 -2.94357 1.85065 0
M  V30 24061 H 2337.92 -2.93274 2.71717 0
M  V30 24062 H 2339.36 -3.71838 2.03746 0
M  V30 24063 C 2337.82 -3.31381 0.607335 0
M  V30 24064 O 2338.35 -4.00959 -0.243833 0
M  V30 24065 N 2336.56 -2.87014 0.455123 0
M  V30 24066 H 2336.1 -2.30564 1.14883 0
M  V30 24067 H 2336.06 -3.12149 -0.375556 0
M  V30 24068 N 2339.83 -1.40974 -0.704569 0
M  V30 24069 C 2341.06 -1.42977 -1.49135 0
M  V30 24070 C 2341.47 -0.0308739 -1.89175 0
M  V30 24071 O 2340.81 0.95811 -1.56735 0
M  V30 24072 C 2340.88 -2.26699 -2.79012 0
M  V30 24073 C 2340.54 -3.74977 -2.6123 0
M  V30 24074 C 2341.54 -4.67353 -2.27765 0
M  V30 24075 C 2339.22 -4.18918 -2.77151 0
M  V30 24076 C 2341.22 -6.01657 -2.10447 0
M  V30 24077 C 2338.9 -5.53289 -2.5945 0
M  V30 24078 C 2339.9 -6.44474 -2.26147 0
M  V30 24079 O 2339.59 -7.76367 -2.08591 0
M  V30 24080 H 2339.32 -0.489301 -0.466434 0
M  V30 24081 H 2341.87 -1.85794 -0.875767 0
M  V30 24082 H 2340.1 -1.78679 -3.42944 0
M  V30 24083 H 2341.79 -2.2051 -3.40778 0
M  V30 24084 H 2342.56 -4.34698 -2.15088 0
M  V30 24085 H 2338.44 -3.48256 -3.02058 0
M  V30 24086 H 2341.98 -6.72794 -1.84375 0
M  V30 24087 H 2337.88 -5.85527 -2.71715 0
M  V30 24088 H 2338.65 -7.87416 -2.23425 0
M  V30 24089 N 2341.31 0.937917 -1.26653 0
M  V30 24090 C 2342.56 1.68116 -1.12168 0
M  V30 24091 C 2342.88 1.92102 0.334949 0
M  V30 24092 O 2342.15 1.52003 1.2358 0
M  V30 24093 H 2340.73 0.623041 -0.412104 0
M  V30 24094 H 2343.39 1.12675 -1.59029 0
M  V30 24095 H 2342.49 2.65357 -1.64293 0
M  V30 24096 N 2342.79 1.08509 1.14296 0
M  V30 24097 C 2344.02 0.835696 1.88944 0
M  V30 24098 C 2344.43 -0.615896 1.78895 0
M  V30 24099 O 2343.77 -1.43504 1.14683 0
M  V30 24100 C 2343.83 1.17999 3.39583 0
M  V30 24101 C 2343.5 2.63458 3.73415 0
M  V30 24102 C 2344.49 3.61708 3.73447 0
M  V30 24103 C 2342.18 2.99339 4.03363 0
M  V30 24104 C 2344.17 4.93871 4.02952 0
M  V30 24105 C 2341.86 4.31695 4.3253 0
M  V30 24106 C 2342.86 5.28771 4.32309 0
M  V30 24107 O 2342.54 6.58747 4.60769 0
M  V30 24108 H 2342.28 0.300976 0.605301 0
M  V30 24109 H 2344.83 1.44808 1.4567 0
M  V30 24110 H 2343.06 0.510617 3.83314 0
M  V30 24111 H 2344.75 0.911252 3.95539 0
M  V30 24112 H 2345.52 3.35331 3.50397 0
M  V30 24113 H 2341.39 2.24418 4.02688 0
M  V30 24114 H 2344.94 5.69634 4.02694 0
M  V30 24115 H 2340.84 4.5782 4.55051 0
M  V30 24116 H 2341.6 6.64077 4.7848 0
M  V30 24117 N 2344.27 -1.31351 0.870907 0
M  V30 24118 C 2345.2 -2.27426 0.28459 0
M  V30 24119 C 2346.21 -1.53124 -0.5529 0
M  V30 24120 O 2347.4 -1.74522 -0.37474 0
M  V30 24121 C 2344.5 -3.33271 -0.615106 0
M  V30 24122 C 2343.67 -4.36986 0.190156 0
M  V30 24123 C 2342.73 -5.2232 -0.637825 0
M  V30 24124 O 2341.76 -5.69162 -0.0655259 0
M  V30 24125 N 2342.96 -5.46781 -1.94963 0
M  V30 24126 H 2345.73 -2.78378 1.11022 0
M  V30 24127 H 2343.29 -1.44382 0.732483 0
M  V30 24128 H 2345.28 -3.87275 -1.17474 0
M  V30 24129 H 2343.85 -2.82356 -1.34141 0
M  V30 24130 H 2343.07 -3.83043 0.931232 0
M  V30 24131 H 2344.36 -5.03351 0.742667 0
M  V30 24132 H 2343.75 -5.10482 -2.43772 0
M  V30 24133 H 2342.31 -6.03716 -2.45703 0
M  V30 24134 N 2345.74 -0.630439 -1.44441 0
M  V30 24135 C 2346.68 0.113307 -2.2892 0
M  V30 24136 C 2347.69 0.809565 -1.41244 0
M  V30 24137 O 2348.88 0.671127 -1.65403 0
M  V30 24138 C 2345.98 1.18261 -3.17597 0
M  V30 24139 C 2345.15 0.568997 -4.33683 0
M  V30 24140 C 2344.21 1.53217 -5.03399 0
M  V30 24141 O 2343.24 1.04957 -5.5944 0
M  V30 24142 N 2344.44 2.86652 -5.04788 0
M  V30 24143 H 2347.2 -0.611687 -2.93391 0
M  V30 24144 H 2344.76 -0.471551 -1.54881 0
M  V30 24145 H 2346.76 1.82726 -3.611 0
M  V30 24146 H 2345.33 1.80984 -2.5488 0
M  V30 24147 H 2344.55 -0.254256 -3.93379 0
M  V30 24148 H 2345.83 0.139678 -5.08608 0
M  V30 24149 H 2345.23 3.28441 -4.6059 0
M  V30 24150 H 2343.79 3.46479 -5.52083 0
M  V30 24151 N 2347.22 1.53172 -0.370945 0
M  V30 24152 C 2348.15 2.23504 0.507783 0
M  V30 24153 C 2349.17 1.25102 1.0418 0
M  V30 24154 O 2350.36 1.51292 0.947259 0
M  V30 24155 C 2347.46 2.92337 1.71442 0
M  V30 24156 C 2346.63 4.17291 1.31098 0
M  V30 24157 C 2345.69 4.69286 2.38027 0
M  V30 24158 O 2344.71 5.32833 2.00195 0
M  V30 24159 N 2345.92 4.47561 3.69689 0
M  V30 24160 H 2348.68 2.9955 -0.0946908 0
M  V30 24161 H 2346.24 1.60704 -0.196386 0
M  V30 24162 H 2348.23 3.24027 2.42463 0
M  V30 24163 H 2346.8 2.19711 2.22364 0
M  V30 24164 H 2346.02 3.91843 0.430393 0
M  V30 24165 H 2347.31 4.98516 1.01781 0
M  V30 24166 H 2346.71 3.96797 4.03198 0
M  V30 24167 H 2345.27 4.83788 4.36798 0
M  V30 24168 N 2348.7 0.100255 1.57281 0
M  V30 24169 C 2349.95 -0.561123 1.94154 0
M  V30 24170 C 2350.27 -1.684 0.983186 0
M  V30 24171 O 2349.54 -1.95867 0.0361476 0
M  V30 24172 H 2348.12 -0.210271 0.716795 0
M  V30 24173 H 2350.78 0.164799 1.94202 0
M  V30 24174 H 2349.88 -0.967956 2.9671 0
M  V30 24175 N 2350.18 -1.56643 -0.17346 0
M  V30 24176 C 2351.11 -1.99273 -1.21706 0
M  V30 24177 C 2352.09 -0.867985 -1.46287 0
M  V30 24178 O 2353.28 -1.13391 -1.57658 0
M  V30 24179 C 2350.41 -2.35079 -2.55647 0
M  V30 24180 C 2349.36 -3.50494 -2.45639 0
M  V30 24181 C 2348.69 -3.72035 -3.84049 0
M  V30 24182 C 2349.99 -4.84011 -1.96293 0
M  V30 24183 H 2351.68 -2.86702 -0.8627 0
M  V30 24184 H 2349.23 -1.37934 -0.413547 0
M  V30 24185 H 2351.18 -2.63499 -3.28856 0
M  V30 24186 H 2349.9 -1.44557 -2.92867 0
M  V30 24187 H 2348.56 -3.22197 -1.74884 0
M  V30 24188 H 2348.21 -2.78808 -4.18659 0
M  V30 24189 H 2347.91 -4.49691 -3.78222 0
M  V30 24190 H 2349.43 -4.02854 -4.58847 0
M  V30 24191 H 2350.85 -5.11321 -2.59275 0
M  V30 24192 H 2349.24 -5.65288 -2.01419 0
M  V30 24193 H 2350.31 -4.76148 -0.917143 0
M  V30 24194 N 2351.66 0.44194 -1.51277 0
M  V30 24195 C 2353.07 1.02196 -1.56246 0
M  V30 24196 C 2353.42 1.92422 -0.383183 0
M  V30 24197 O 2352.54 2.10531 0.500576 0
M  V30 24198 C 2353.14 1.86019 -2.83165 0
M  V30 24199 C 2351.7 2.39079 -2.9072 0
M  V30 24200 C 2350.85 1.18171 -2.5086 0
M  V30 24201 H 2353.8 0.223389 -1.5712 0
M  V30 24202 H 2353.82 2.7142 -2.66667 0
M  V30 24203 H 2353.33 1.20325 -3.68976 0
M  V30 24204 H 2351.43 3.08241 -2.09328 0
M  V30 24205 H 2351.54 2.72191 -3.9427 0
M  V30 24206 H 2349.91 1.52561 -2.03954 0
M  V30 24207 H 2350.69 0.540942 -3.39011 0
M  V30 24208 N 2353.14 1.41345 0.697083 0
M  V30 24209 C 2354.07 1.45845 1.8235 0
M  V30 24210 C 2355.05 0.317276 1.67115 0
M  V30 24211 O 2356.23 0.528507 1.8687 0
M  V30 24212 C 2353.36 1.33843 3.20474 0
M  V30 24213 C 2352.32 2.45756 3.50411 0
M  V30 24214 C 2351.64 2.18821 4.87874 0
M  V30 24215 C 2352.94 3.88097 3.4954 0
M  V30 24216 H 2354.64 2.40116 1.78842 0
M  V30 24217 H 2352.18 1.15573 0.859007 0
M  V30 24218 H 2354.13 1.35603 3.98986 0
M  V30 24219 H 2352.86 0.360555 3.24604 0
M  V30 24220 H 2351.52 2.43276 2.74249 0
M  V30 24221 H 2351.17 1.1938 4.88628 0
M  V30 24222 H 2350.87 2.93812 5.0887 0
M  V30 24223 H 2352.39 2.22294 5.68698 0
M  V30 24224 H 2353.8 3.923 4.18059 0
M  V30 24225 H 2352.2 4.62758 3.82067 0
M  V30 24226 H 2353.27 4.16357 2.48545 0
M  V30 24227 N 2354.61 -0.931187 1.27148 0
M  V30 24228 C 2355.52 -2.06476 1.11376 0
M  V30 24229 C 2356.54 -1.73943 0.0446756 0
M  V30 24230 O 2357.72 -1.99837 0.250452 0
M  V30 24231 C 2354.78 -3.38292 0.758897 0
M  V30 24232 C 2353.84 -3.84546 1.90848 0
M  V30 24233 C 2353.07 -5.10071 1.57045 0
M  V30 24234 O 2353.3 -5.68404 0.476745 0
M  V30 24235 O 2352.23 -5.51612 2.40849 0
M  V30 24236 H 2356.06 -2.22694 2.06497 0
M  V30 24237 H 2353.64 -1.04976 1.06303 0
M  V30 24238 H 2355.52 -4.1747 0.574171 0
M  V30 24239 H 2354.2 -3.2329 -0.162822 0
M  V30 24240 H 2353.11 -3.0627 2.14824 0
M  V30 24241 H 2354.44 -4.04084 2.81028 0
M  V30 24242 N 2356.09 -1.09114 -1.13719 0
M  V30 24243 C 2357.05 -0.73128 -2.17221 0
M  V30 24244 C 2358.05 0.237538 -1.59036 0
M  V30 24245 O 2359.24 0.0161398 -1.74193 0
M  V30 24246 C 2356.38 -0.0809042 -3.40804 0
M  V30 24247 H 2357.57 -1.64787 -2.5057 0
M  V30 24248 H 2355.12 -0.889919 -1.28492 0
M  V30 24249 H 2355.86 0.847072 -3.13042 0
M  V30 24250 H 2355.64 -0.777963 -3.84305 0
M  V30 24251 H 2357.13 0.155584 -4.1731 0
M  V30 24252 N 2357.57 1.30887 -0.877861 0
M  V30 24253 C 2358.53 2.26599 -0.344305 0
M  V30 24254 C 2359.53 1.52525 0.509193 0
M  V30 24255 O 2360.72 1.71285 0.317368 0
M  V30 24256 C 2357.85 3.37061 0.510139 0
M  V30 24257 H 2359.05 2.75308 -1.18935 0
M  V30 24258 H 2356.6 1.41954 -0.654113 0
M  V30 24259 H 2357.34 2.93658 1.37606 0
M  V30 24260 H 2357.12 3.9197 -0.101116 0
M  V30 24261 H 2358.61 4.0832 0.875465 0
M  V30 24262 N 2359.05 0.638091 1.44105 0
M  V30 24263 C 2360.28 0.152651 2.06336 0
M  V30 24264 C 2360.69 -1.1756 1.47733 0
M  V30 24265 O 2360.05 -1.72256 0.602836 0
M  V30 24266 C 2360.1 0.0392126 3.61479 0
M  V30 24267 O 2359.82 1.31495 4.179 0
M  V30 24268 C 2361.32 -0.474099 4.40758 0
M  V30 24269 H 2358.54 0.0828893 0.665861 0
M  V30 24270 H 2361.08 0.874463 1.8486 0
M  V30 24271 H 2359.24 -0.633075 3.82192 0
M  V30 24272 H 2359.65 1.1643 5.11414 0
M  V30 24273 H 2361.13 -0.502466 5.49708 0
M  V30 24274 H 2361.6 -1.50251 4.127 0
M  V30 24275 H 2362.21 0.165176 4.24979 0
M  V30 24276 N 2360.53 -1.52973 0.379063 0
M  V30 24277 C 2361.49 -2.24763 -0.448826 0
M  V30 24278 C 2362.49 -1.26029 -0.998667 0
M  V30 24279 O 2363.68 -1.50204 -0.882286 0
M  V30 24280 C 2360.81 -2.99478 -1.62866 0
M  V30 24281 H 2362 -2.99362 0.179544 0
M  V30 24282 H 2359.56 -1.5575 0.130988 0
M  V30 24283 H 2360.29 -2.29155 -2.29475 0
M  V30 24284 H 2360.08 -3.71936 -1.24121 0
M  V30 24285 H 2361.57 -3.54014 -2.21504 0
M  V30 24286 N 2362 -0.108595 -1.57225 0
M  V30 24287 C 2363.41 0.418432 -1.81951 0
M  V30 24288 C 2363.77 1.6729 -1.0251 0
M  V30 24289 O 2362.89 2.1485 -0.258534 0
M  V30 24290 C 2363.49 0.765921 -3.30029 0
M  V30 24291 C 2362.04 1.23763 -3.55471 0
M  V30 24292 C 2361.19 0.241057 -2.7625 0
M  V30 24293 H 2364.14 -0.333868 -1.55148 0
M  V30 24294 H 2364.16 1.62428 -3.44089 0
M  V30 24295 H 2363.68 -0.147288 -3.8782 0
M  V30 24296 H 2361.78 2.16809 -3.03026 0
M  V30 24297 H 2361.89 1.19014 -4.64082 0
M  V30 24298 H 2360.25 0.725977 -2.44135 0
M  V30 24299 H 2361.04 -0.665066 -3.36796 0
M  V30 24300 N 2363.48 1.56732 0.16515 0
M  V30 24301 C 2364.73 1.81982 0.879036 0
M  V30 24302 C 2365.05 0.686593 1.82513 0
M  V30 24303 O 2364.32 -0.293112 1.93695 0
M  V30 24304 H 2362.9 0.671334 0.327596 0
M  V30 24305 H 2365.56 1.94213 0.163492 0
M  V30 24306 H 2364.66 2.76255 1.45223 0
M  V30 24307 N 2364.96 -0.433911 1.51509 0
M  V30 24308 C 2365.92 -1.50946 1.72476 0
M  V30 24309 C 2366.92 -1.49397 0.594751 0
M  V30 24310 O 2368.11 -1.51358 0.862342 0
M  V30 24311 C 2365.24 -2.90471 1.78437 0
M  V30 24312 H 2366.44 -1.33658 2.68469 0
M  V30 24313 H 2363.99 -0.662811 1.4155 0
M  V30 24314 H 2364.73 -3.1316 0.8427 0
M  V30 24315 H 2364.51 -2.93 2.60563 0
M  V30 24316 H 2366 -3.68488 1.96485 0
M  V30 24317 N 2366.44 -1.41713 -0.689577 0
M  V30 24318 C 2367.69 -1.41113 -1.44678 0
M  V30 24319 C 2368.01 -0.0232539 -1.94986 0
M  V30 24320 O 2367.28 0.935883 -1.72099 0
M  V30 24321 H 2365.86 -0.519436 -0.536838 0
M  V30 24322 H 2368.52 -1.77005 -0.815794 0
M  V30 24323 H 2367.62 -2.10197 -2.30702 0
M  V30 24324 N 2367.92 0.924431 -1.2764 0
M  V30 24325 C 2368.87 2.01174 -1.07299 0
M  V30 24326 C 2369.85 1.609 2.9453e-05 0
M  V30 24327 O 2371.04 1.75641 -0.218886 0
M  V30 24328 C 2368.17 3.35543 -0.725651 0
M  V30 24329 C 2367.26 3.82251 -1.83698 0
M  V30 24330 N 2367.65 4.01437 -3.07704 0
M  V30 24331 C 2365.95 4.11316 -1.7244 0
M  V30 24332 C 2366.65 4.40387 -3.80045 0
M  V30 24333 N 2365.62 4.48043 -3.07828 0
M  V30 24334 H 2369.43 2.14043 -2.01402 0
M  V30 24335 H 2366.94 1.11151 -1.18403 0
M  V30 24336 H 2368.94 4.13108 -0.561031 0
M  V30 24337 H 2367.6 3.24035 0.207725 0
M  V30 24338 H 2368.61 3.87654 -3.43431 0
M  V30 24339 H 2365.28 4.08503 -0.862077 0
M  V30 24340 H 2366.67 4.63283 -4.8664 0
M  V30 24341 N 2369.39 1.09715 1.13139 0
M  V30 24342 C 2370.62 0.855689 1.88047 0
M  V30 24343 C 2371.03 -0.596887 1.79538 0
M  V30 24344 O 2370.38 -1.4228 1.16198 0
M  V30 24345 C 2370.44 1.21595 3.38312 0
M  V30 24346 C 2370.1 2.67404 3.706 0
M  V30 24347 C 2371.1 3.65649 3.6959 0
M  V30 24348 C 2368.78 3.036 4.00165 0
M  V30 24349 C 2370.78 4.98117 3.97691 0
M  V30 24350 C 2368.46 4.36258 4.27927 0
M  V30 24351 C 2369.46 5.33326 4.26676 0
M  V30 24352 O 2369.15 6.63597 4.53756 0
M  V30 24353 H 2368.88 0.307379 0.602075 0
M  V30 24354 H 2371.44 1.46345 1.44126 0
M  V30 24355 H 2369.67 0.551244 3.82751 0
M  V30 24356 H 2371.36 0.953153 3.9455 0
M  V30 24357 H 2372.12 3.39029 3.46821 0
M  V30 24358 H 2368 2.28677 4.00285 0
M  V30 24359 H 2371.54 5.73873 3.9663 0
M  V30 24360 H 2367.44 4.62621 4.50169 0
M  V30 24361 H 2368.21 6.69115 4.7141 0
M  V30 24362 N 2370.87 -1.30419 0.88479 0
M  V30 24363 C 2371.78 -2.31892 0.355439 0
M  V30 24364 C 2372.8 -1.65336 -0.542232 0
M  V30 24365 O 2373.97 -1.96637 -0.435397 0
M  V30 24366 C 2371.04 -3.44127 -0.421601 0
M  V30 24367 C 2370.1 -4.2631 0.505801 0
M  V30 24368 C 2369.33 -5.33186 -0.234249 0
M  V30 24369 O 2369.56 -5.51389 -1.46035 0
M  V30 24370 O 2368.49 -6.00464 0.415548 0
M  V30 24371 H 2372.32 -2.7912 1.1969 0
M  V30 24372 H 2369.9 -1.34586 0.64862 0
M  V30 24373 H 2371.78 -4.12498 -0.861568 0
M  V30 24374 H 2370.46 -2.99034 -1.23936 0
M  V30 24375 H 2369.37 -3.60637 0.994577 0
M  V30 24376 H 2370.7 -4.75006 1.28957 0
M  V30 24377 N 2372.35 -0.645724 -1.43764 0
M  V30 24378 C 2373.63 -0.0863307 -1.95409 0
M  V30 24379 C 2374.01 1.39172 -1.58727 0
M  V30 24380 O 2373.36 2.11346 -0.868619 0
M  V30 24381 C 2373.57 -0.324626 -3.47487 0
M  V30 24382 C 2374.91 -0.225572 -4.24 0
M  V30 24383 O 2375.94 -0.256778 -3.55273 0
M  V30 24384 O 2374.8 -0.142897 -5.46313 0
M  V30 24385 H 2371.89 0.0139337 -0.826883 0
M  V30 24386 H 2374.44 -0.718442 -1.53742 0
M  V30 24387 H 2373.21 -1.34966 -3.67287 0
M  V30 24388 H 2372.83 0.340918 -3.96136 0
M  V30 24389 N 2373.83 1.5277 -0.38717 0
M  V30 24390 C 2375.06 2.05971 0.195833 0
M  V30 24391 C 2375.47 1.25905 1.40689 0
M  V30 24392 O 2374.83 0.305166 1.79931 0
M  V30 24393 C 2374.88 3.57009 0.568058 0
M  V30 24394 O 2374.6 4.34042 -0.594879 0
M  V30 24395 C 2376.1 4.26547 1.20715 0
M  V30 24396 H 2373.32 0.670327 0.0300461 0
M  V30 24397 H 2375.87 1.96915 -0.551784 0
M  V30 24398 H 2374.02 3.66145 1.26557 0
M  V30 24399 H 2374.43 5.23701 -0.289414 0
M  V30 24400 H 2375.91 5.33477 1.41798 0
M  V30 24401 H 2376.39 3.81627 2.17388 0
M  V30 24402 H 2376.99 4.21723 0.550461 0
M  V30 24403 N 2375.31 0.116931 1.57166 0
M  V30 24404 C 2376.56 -0.541372 1.94299 0
M  V30 24405 C 2376.87 -1.67963 1.00239 0
M  V30 24406 O 2378.07 -2.40055 1.2683 0
M  V30 24407 C 2376.53 -1.01443 3.45308 0
M  V30 24408 C 2376.14 0.0952525 4.47899 0
M  V30 24409 C 2377.88 -1.64423 3.91364 0
M  V30 24410 C 2375.79 -0.394388 5.90084 0
M  V30 24411 H 2374.72 -0.206006 0.725312 0
M  V30 24412 H 2377.37 0.196451 1.82445 0
M  V30 24413 H 2375.75 -1.80661 3.52388 0
M  V30 24414 H 2376.93 0.871453 4.52485 0
M  V30 24415 H 2375.24 0.631577 4.11582 0
M  V30 24416 H 2377.84 -2.02167 4.95008 0
M  V30 24417 H 2378.18 -2.52183 3.31224 0
M  V30 24418 H 2378.71 -0.917491 3.87075 0
M  V30 24419 H 2375.45 0.447119 6.53973 0
M  V30 24420 H 2374.97 -1.13711 5.88923 0
M  V30 24421 H 2376.65 -0.856287 6.41309 0
M  V30 24422 N 2376.78 -1.56818 -0.156836 0
M  V30 24423 C 2377.71 -2.00553 -1.19586 0
M  V30 24424 C 2378.7 -0.883452 -1.45359 0
M  V30 24425 O 2379.88 -1.15057 -1.56447 0
M  V30 24426 C 2377.01 -2.37777 -2.53139 0
M  V30 24427 C 2375.96 -3.53079 -2.41907 0
M  V30 24428 C 2375.29 -3.76088 -3.80082 0
M  V30 24429 C 2376.59 -4.86065 -1.91149 0
M  V30 24430 H 2378.28 -2.87601 -0.832243 0
M  V30 24431 H 2375.83 -1.38365 -0.398894 0
M  V30 24432 H 2377.78 -2.66972 -3.26042 0
M  V30 24433 H 2376.51 -1.47655 -2.91317 0
M  V30 24434 H 2375.17 -3.24034 -1.71457 0
M  V30 24435 H 2374.81 -2.83233 -4.15678 0
M  V30 24436 H 2374.51 -4.53677 -3.73431 0
M  V30 24437 H 2376.04 -4.07698 -4.54549 0
M  V30 24438 H 2377.45 -5.14042 -2.53837 0
M  V30 24439 H 2375.85 -5.67392 -1.95412 0
M  V30 24440 H 2376.92 -4.77094 -0.866589 0
M  V30 24441 N 2378.26 0.425871 -1.51737 0
M  V30 24442 C 2379.21 1.51773 -1.73878 0
M  V30 24443 C 2380.18 1.55617 -0.580729 0
M  V30 24444 O 2381.36 1.7245 -0.816441 0
M  V30 24445 C 2378.5 2.89385 -1.88017 0
M  V30 24446 C 2377.62 2.94981 -3.15611 0
M  V30 24447 C 2376.75 4.23787 -3.20278 0
M  V30 24448 C 2375.79 4.23294 -4.42141 0
M  V30 24449 N 2374.93 5.43643 -4.44293 0
M  V30 24450 H 2379.77 1.32196 -2.67073 0
M  V30 24451 H 2377.31 0.641985 -1.32352 0
M  V30 24452 H 2379.26 3.69247 -1.94197 0
M  V30 24453 H 2377.89 3.07495 -0.982185 0
M  V30 24454 H 2376.95 2.07712 -3.18685 0
M  V30 24455 H 2378.26 2.90479 -4.05491 0
M  V30 24456 H 2377.41 5.12031 -3.25437 0
M  V30 24457 H 2376.15 4.30961 -2.28307 0
M  V30 24458 H 2375.16 3.33442 -4.37146 0
M  V30 24459 H 2376.38 4.17774 -5.35389 0
M  V30 24460 H 2374.33 5.51517 -3.55198 0
M  V30 24461 H 2374.24 5.41068 -5.27997 0
M  V30 24462 H 2375.51 6.33887 -4.5366 0
M  V30 24463 N 2379.74 1.42077 0.682052 0
M  V30 24464 C 2380.97 1.45746 1.47556 0
M  V30 24465 C 2381.39 0.0681312 1.87977 0
M  V30 24466 O 2380.75 -0.931773 1.55524 0
M  V30 24467 C 2380.8 2.38378 2.70571 0
M  V30 24468 O 2379.9 1.85014 3.6857 0
M  V30 24469 H 2379.24 0.494101 0.443577 0
M  V30 24470 H 2381.77 1.86687 0.837206 0
M  V30 24471 H 2381.78 2.54712 3.18725 0
M  V30 24472 H 2380.46 3.39319 2.40489 0
M  V30 24473 H 2379.03 1.78198 3.27567 0
M  V30 24474 N 2381.22 -0.917649 1.28129 0
M  V30 24475 C 2382.17 -2.01958 1.1172 0
M  V30 24476 C 2383.14 -1.66093 0.0154221 0
M  V30 24477 O 2384.32 -1.89953 0.179629 0
M  V30 24478 C 2381.46 -3.36147 0.780987 0
M  V30 24479 C 2380.57 -3.84906 1.96142 0
M  V30 24480 C 2379.71 -5.07587 1.56617 0
M  V30 24481 C 2378.75 -5.48668 2.71348 0
M  V30 24482 N 2377.89 -6.62541 2.32343 0
M  V30 24483 H 2382.73 -2.15326 2.06007 0
M  V30 24484 H 2380.26 -1.05473 1.02537 0
M  V30 24485 H 2382.22 -4.13332 0.566822 0
M  V30 24486 H 2380.85 -3.22558 -0.124941 0
M  V30 24487 H 2379.9 -3.03912 2.28782 0
M  V30 24488 H 2381.21 -4.11315 2.82172 0
M  V30 24489 H 2380.37 -5.92303 1.31384 0
M  V30 24490 H 2379.11 -4.82977 0.677098 0
M  V30 24491 H 2378.11 -4.62496 2.97284 0
M  V30 24492 H 2379.34 -5.75268 3.60892 0
M  V30 24493 H 2377.28 -6.39569 1.459 0
M  V30 24494 H 2377.2 -6.88656 3.11911 0
M  V30 24495 H 2378.47 -7.50572 2.10384 0
M  V30 24496 N 2382.7 -1.10314 -1.12555 0
M  V30 24497 C 2383.65 -0.745668 -2.20324 0
M  V30 24498 C 2384.64 0.257601 -1.6743 0
M  V30 24499 O 2385.85 0.118101 -1.79612 0
M  V30 24500 H 2382.22 -0.223195 -0.718114 0
M  V30 24501 H 2384.19 -1.66351 -2.4773 0
M  V30 24502 C 2382.94 -0.192323 -3.47168 0
M  V30 24503 H 2382.26 -0.955543 -3.88213 0
M  V30 24504 H 2383.7 0.0197529 -4.23995 0
M  V30 24505 C 2382.16 1.07466 -3.193 0
M  V30 24506 O 2382.69 2.15639 -3.38914 0
M  V30 24507 N 2380.9 0.992799 -2.73115 0
M  V30 24508 H 2380.45 0.112429 -2.57355 0
M  V30 24509 H 2380.4 1.84122 -2.54846 0
M  V30 24510 N 2384.18 1.29948 -0.891694 0
M  V30 24511 C 2385.4 2.00567 -0.527967 0
M  V30 24512 C 2385.83 1.66355 0.87794 0
M  V30 24513 O 2385.18 0.88379 1.583 0
M  V30 24514 C 2385.23 3.53383 -0.717807 0
M  V30 24515 O 2384.34 4.1174 0.233304 0
M  V30 24516 H 2383.68 0.630834 -0.207231 0
M  V30 24517 H 2386.21 1.65636 -1.20108 0
M  V30 24518 H 2386.22 4.03271 -0.619378 0
M  V30 24519 H 2384.89 3.77622 -1.74282 0
M  V30 24520 H 2383.47 3.72796 0.0880051 0
M  V30 24521 N 2385.65 0.653339 1.4342 0
M  V30 24522 C 2386.59 -0.0879403 2.2803 0
M  V30 24523 C 2387.56 -0.829765 1.39834 0
M  V30 24524 O 2388.75 -0.829311 1.69277 0
M  V30 24525 C 2385.88 -1.13126 3.19249 0
M  V30 24526 C 2384.92 -0.487471 4.23705 0
M  V30 24527 S 2385.75 0.739054 5.30376 0
M  V30 24528 C 2386.91 -0.30373 6.25163 0
M  V30 24529 H 2387.14 0.629791 2.90553 0
M  V30 24530 H 2384.68 0.442182 1.47933 0
M  V30 24531 H 2386.63 -1.7282 3.72349 0
M  V30 24532 H 2385.3 -1.82131 2.55904 0
M  V30 24533 H 2384.49 -1.27398 4.87633 0
M  V30 24534 H 2384.09 0.0353572 3.73983 0
M  V30 24535 H 2386.38 -1.16988 6.67323 0
M  V30 24536 H 2387.33 0.300526 7.07462 0
M  V30 24537 H 2387.73 -0.639591 5.60865 0
M  V30 24538 N 2387.13 -1.52563 0.395266 0
M  V30 24539 C 2388.08 -2.2817 -0.451818 0
M  V30 24540 C 2389.07 -1.32306 -1.0579 0
M  V30 24541 O 2390.28 -1.4982 -0.997692 0
M  V30 24542 H 2386.65 -0.733794 -0.164468 0
M  V30 24543 H 2388.63 -2.97679 0.207252 0
M  V30 24544 C 2387.37 -3.10549 -1.56379 0
M  V30 24545 H 2386.7 -3.84176 -1.10675 0
M  V30 24546 H 2388.14 -3.6658 -2.13061 0
M  V30 24547 C 2386.6 -2.23235 -2.52324 0
M  V30 24548 O 2387.13 -1.86318 -3.55877 0
M  V30 24549 N 2385.33 -1.87278 -2.22206 0
M  V30 24550 H 2384.88 -2.17498 -1.3803 0
M  V30 24551 H 2384.84 -1.29148 -2.8665 0
M  V30 24552 N 2388.61 -0.125265 -1.57101 0
M  V30 24553 C 2389.54 0.8532 -2.12728 0
M  V30 24554 C 2390.55 1.2257 -1.07147 0
M  V30 24555 O 2391.74 1.17355 -1.34499 0
M  V30 24556 C 2388.84 2.15313 -2.61713 0
M  V30 24557 C 2388.02 1.95136 -3.9146 0
M  V30 24558 C 2387.08 3.08916 -4.25978 0
M  V30 24559 O 2386.1 2.81555 -4.94687 0
M  V30 24560 N 2387.3 4.35518 -3.83803 0
M  V30 24561 H 2390.07 0.377912 -2.97308 0
M  V30 24562 H 2387.63 0.0589726 -1.61793 0
M  V30 24563 H 2389.62 2.90436 -2.81831 0
M  V30 24564 H 2388.19 2.54171 -1.81978 0
M  V30 24565 H 2387.41 1.0417 -3.80187 0
M  V30 24566 H 2388.7 1.78967 -4.76286 0
M  V30 24567 H 2388.1 4.6062 -3.28398 0
M  V30 24568 H 2386.65 5.07492 -4.09017 0
M  V30 24569 N 2390.09 1.56899 0.148518 0
M  V30 24570 C 2391.5 1.72725 0.708736 0
M  V30 24571 C 2391.85 0.739427 1.81733 0
M  V30 24572 O 2390.97 -0.0942789 2.16195 0
M  V30 24573 C 2391.57 3.13182 1.29239 0
M  V30 24574 C 2390.13 3.30615 1.79919 0
M  V30 24575 C 2389.28 2.68654 0.687064 0
M  V30 24576 H 2392.23 1.58512 -0.0771342 0
M  V30 24577 H 2392.25 3.13097 2.16219 0
M  V30 24578 H 2391.76 3.85054 0.485315 0
M  V30 24579 H 2389.86 2.63737 2.63199 0
M  V30 24580 H 2389.97 4.38552 1.92895 0
M  V30 24581 H 2388.34 2.2908 1.11331 0
M  V30 24582 H 2389.12 3.43128 -0.108543 0
M  V30 24583 N 2391.57 -0.417818 1.51961 0
M  V30 24584 C 2392.81 -1.16326 1.65265 0
M  V30 24585 C 2393.13 -1.91248 0.380667 0
M  V30 24586 O 2392.4 -1.8635 -0.604181 0
M  V30 24587 H 2390.98 -0.432403 0.609128 0
M  V30 24588 H 2393.65 -0.477129 1.8897 0
M  V30 24589 H 2392.74 -1.88212 2.48963 0
M  V30 24590 N 2393.04 -1.42436 -0.674508 0
M  V30 24591 C 2394.45 -1.38216 -1.25512 0
M  V30 24592 C 2394.81 -0.0755809 -1.96054 0
M  V30 24593 O 2393.93 0.825665 -2.00029 0
M  V30 24594 C 2394.53 -2.50361 -2.28265 0
M  V30 24595 C 2393.08 -2.49472 -2.81852 0
M  V30 24596 C 2392.23 -2.29137 -1.56178 0
M  V30 24597 H 2395.18 -1.51646 -0.467875 0
M  V30 24598 H 2395.2 -2.20629 -3.10005 0
M  V30 24599 H 2394.72 -3.45442 -1.76894 0
M  V30 24600 H 2392.82 -1.5821 -3.37343 0
M  V30 24601 H 2392.93 -3.46521 -3.30848 0
M  V30 24602 H 2391.29 -1.77403 -1.82758 0
M  V30 24603 H 2392.08 -3.26274 -1.06773 0
M  V30 24604 O 2394.56 0.817089 -1.39305 0
M  V30 24605 H 2395.25 1.46093 -1.27187 0
M  V30 END ATOM
M  V30 BEGIN BOND
M  V30 END BOND
M  V30 END CTAB
M  END
$$$$
