drugbank_target|Q9Y5Y9 Sodium channel protein type 10 subunit alpha (DB00281; DB00296; DB00297; DB00473; DB00527; DB00645; DB00721; DB00807; DB00892; DB00961; DB01002; DB01086; DB01161; DB01173; DB06218)
 OpenBabel12092119263D

  0  0  0     0  0            999 V3000
M  V30 BEGIN CTAB
M  V30 COUNTS 31066 31441 0 0 0
M  V30 BEGIN ATOM
M  V30 1 H -0.908 1.98254 -0.117106 0
M  V30 2 N 0 1.576 0 0
M  V30 3 C 0.933 2.03868 1.02534 0
M  V30 4 C 1.911 0.928543 1.3348 0
M  V30 5 O 3.095 1.19667 1.45644 0
M  V30 6 C 0.222 2.43627 2.35294 0
M  V30 7 C -0.732 3.65373 2.2001 0
M  V30 8 S 0.101 5.13292 1.52614 0
M  V30 9 C 1.257 5.56322 2.86805 0
M  V30 10 H 1.49 2.90518 0.631377 0
M  V30 11 H -0.977 1.52953 0.210867 0
M  V30 12 H 0.981 2.67203 3.11629 0
M  V30 13 H -0.358 1.57376 2.7183 0
M  V30 14 H -1.165 3.90944 3.18086 0
M  V30 15 H -1.563 3.418 1.51819 0
M  V30 16 H 0.729 5.58782 3.83104 0
M  V30 17 H 1.672 6.56266 2.65933 0
M  V30 18 H 2.08 4.83886 2.90714 0
M  V30 19 N 1.4781 -0.272755 1.55222 0
M  V30 20 C 2.3881 -1.35918 1.91216 0
M  V30 21 C 3.4041 -1.54026 0.809436 0
M  V30 22 O 4.5801 -1.68148 1.10852 0
M  V30 23 C 1.6451 -2.69834 2.17693 0
M  V30 24 C 0.7061 -2.6047 3.41253 0
M  V30 25 C -0.0609 -3.88 3.66458 0
M  V30 26 O 0.1621 -4.88693 2.94169 0
M  V30 27 O -0.9039 -3.88189 4.59992 0
M  V30 28 H 2.9221 -1.0839 2.83699 0
M  V30 29 H 0.5071 -0.471301 1.41771 0
M  V30 30 H 2.3891 -3.49017 2.36147 0
M  V30 31 H 1.0641 -2.97148 1.28392 0
M  V30 32 H -0.0289 -1.79663 3.28134 0
M  V30 33 H 1.3041 -2.38106 4.30774 0
M  V30 34 N 2.9562 -1.48159 -0.537278 0
M  V30 35 C 4.2032 -1.55804 -1.29349 0
M  V30 36 C 4.5312 -0.228802 -1.9315 0
M  V30 37 O 3.7862 0.780242 -1.79473 0
M  V30 38 C 4.0852 -2.63956 -2.40961 0
M  V30 39 C 3.7512 -4.0662 -1.94861 0
M  V30 40 C 2.4132 -4.45452 -1.82006 0
M  V30 41 C 4.7652 -4.96055 -1.59933 0
M  V30 42 C 2.0932 -5.71531 -1.32547 0
M  V30 43 C 4.4452 -6.22617 -1.11939 0
M  V30 44 C 3.1092 -6.60312 -0.976951 0
M  V30 45 H 2.3792 -0.570129 -0.473322 0
M  V30 46 H 5.0262 -1.81845 -0.600372 0
M  V30 47 H 3.3312 -2.31747 -3.15912 0
M  V30 48 H 5.0282 -2.67089 -2.99107 0
M  V30 49 H 1.6182 -3.75949 -2.05815 0
M  V30 50 H 5.8022 -4.66738 -1.68728 0
M  V30 51 H 1.0582 -5.99468 -1.202 0
M  V30 52 H 5.2322 -6.91318 -0.839811 0
M  V30 53 H 2.8592 -7.57895 -0.591501 0
M  V30 54 N 4.4343 0.785586 -1.36625 0
M  V30 55 C 5.8453 1.36101 -1.27803 0
M  V30 56 C 6.1963 1.96035 0.0804875 0
M  V30 57 O 5.3213 1.92834 0.982042 0
M  V30 58 C 5.9163 2.47442 -2.31426 0
M  V30 59 C 4.4753 3.00789 -2.26281 0
M  V30 60 C 3.6223 1.73896 -2.15999 0
M  V30 61 H 6.5733 0.586928 -1.47448 0
M  V30 62 H 6.5943 3.2656 -1.95291 0
M  V30 63 H 6.1063 2.03791 -3.30289 0
M  V30 64 H 4.2073 3.48851 -1.30896 0
M  V30 65 H 4.3203 3.57343 -3.19128 0
M  V30 66 H 2.6843 1.9628 -1.62316 0
M  V30 67 H 3.4673 1.32368 -3.16755 0
M  V30 68 N 5.9124 1.20967 1.01018 0
M  V30 69 C 7.1614 1.01796 1.74128 0
M  V30 70 C 7.4744 -0.449691 1.90361 0
M  V30 71 O 8.6804 -0.76068 2.60626 0
M  V30 72 C 7.1364 1.7727 3.13215 0
M  V30 73 C 6.7444 3.28171 3.04972 0
M  V30 74 C 8.4884 1.66489 3.90489 0
M  V30 75 C 6.3954 3.96156 4.39107 0
M  V30 76 H 5.3254 0.377276 0.652824 0
M  V30 77 H 7.9764 1.44651 1.12909 0
M  V30 78 H 6.3584 1.27205 3.75013 0
M  V30 79 H 7.5324 3.85499 2.52443 0
M  V30 80 H 5.8474 3.39437 2.41188 0
M  V30 81 H 8.4444 2.14617 4.89738 0
M  V30 82 H 8.7874 0.6222 4.11624 0
M  V30 83 H 9.3204 2.14003 3.35332 0
M  V30 84 H 6.0594 5.00604 4.23174 0
M  V30 85 H 5.5794 3.43617 4.91617 0
M  V30 86 H 7.2584 4.00774 5.07926 0
M  V30 87 N 7.3905 -1.2043 1.01659 0
M  V30 88 C 8.6385 -1.89423 0.704522 0
M  V30 89 C 8.9595 -1.79231 -0.768197 0
M  V30 90 O 8.2295 -1.1947 -1.55254 0
M  V30 91 H 6.8095 -0.701178 0.257602 0
M  V30 92 H 9.4715 -1.4626 1.28818 0
M  V30 93 H 8.5675 -2.96052 0.987916 0
M  V30 94 N 8.8686 -0.792821 -1.36206 0
M  V30 95 C 10.0936 -0.377701 -2.03932 0
M  V30 96 C 10.5186 0.998947 -1.59382 0
M  V30 97 O 9.8766 1.64421 -0.763903 0
M  V30 98 C 9.9246 -0.453635 -3.57735 0
M  V30 99 O 9.0286 0.538151 -4.08874 0
M  V30 100 H 8.3696 -0.159855 -0.644471 0
M  V30 101 H 10.8996 -1.07488 -1.7409 0
M  V30 102 H 10.9096 -0.318464 -4.06755 0
M  V30 103 H 9.5846 -1.45784 -3.89512 0
M  V30 104 H 8.1616 0.364359 -3.71116 0
M  V30 105 N 10.3467 1.47872 -0.545128 0
M  V30 106 C 11.2767 2.32661 0.197793 0
M  V30 107 C 12.2577 1.43041 0.920504 0
M  V30 108 O 13.4427 1.71912 0.90333 0
M  V30 109 C 10.5727 3.24569 1.23582 0
M  V30 110 C 9.5267 4.23333 0.630323 0
M  V30 111 C 8.8527 5.0448 1.77211 0
M  V30 112 C 10.1527 5.20704 -0.407974 0
M  V30 113 H 11.8467 2.95024 -0.510045 0
M  V30 114 H 9.3927 1.4187 -0.246731 0
M  V30 115 H 11.3457 3.8272 1.76362 0
M  V30 116 H 10.0697 2.60236 1.97344 0
M  V30 117 H 8.7287 3.6639 0.123922 0
M  V30 118 H 8.3767 4.36561 2.49847 0
M  V30 119 H 8.0767 5.71339 1.37281 0
M  V30 120 H 9.6007 5.65487 2.3034 0
M  V30 121 H 11.0147 5.7329 0.033305 0
M  V30 122 H 9.4117 5.95699 -0.725486 0
M  V30 123 H 10.4817 4.66917 -1.30828 0
M  V30 124 N 11.8248 0.280983 1.55075 0
M  V30 125 C 12.7348 -0.61388 2.26426 0
M  V30 126 C 13.7508 -1.16521 1.29224 0
M  V30 127 O 14.9268 -1.19426 1.62171 0
M  V30 128 C 11.9918 -1.7788 2.9759 0
M  V30 129 C 11.0528 -1.26355 4.10284 0
M  V30 130 C 10.2858 -2.37295 4.78045 0
M  V30 131 O 10.5088 -3.56777 4.45047 0
M  V30 132 O 9.4428 -2.05119 5.65871 0
M  V30 133 H 13.2688 -0.0356932 3.03679 0
M  V30 134 H 10.8538 0.0481686 1.49322 0
M  V30 135 H 12.7358 -2.45791 3.42293 0
M  V30 136 H 11.4108 -2.34397 2.23249 0
M  V30 137 H 10.3178 -0.550735 3.70024 0
M  V30 138 H 11.6508 -0.744065 4.86543 0
M  V30 139 N 13.3029 -1.57598 0.00835791 0
M  V30 140 C 14.5309 -1.95214 -0.68549 0
M  V30 141 C 14.9459 -0.883706 -1.66841 0
M  V30 142 O 14.3029 0.136565 -1.81988 0
M  V30 143 C 14.3539 -3.32865 -1.41007 0
M  V30 144 O 14.0749 -4.35609 -0.466552 0
M  V30 145 C 15.5759 -3.84991 -2.19765 0
M  V30 146 H 12.7959 -0.643422 -0.190392 0
M  V30 147 H 15.3399 -2.04406 0.0619607 0
M  V30 148 H 13.4949 -3.24956 -2.10908 0
M  V30 149 H 13.9089 -5.15288 -0.978699 0
M  V30 150 H 15.3829 -4.8371 -2.65948 0
M  V30 151 H 15.8599 -3.18137 -3.02796 0
M  V30 152 H 16.4659 -3.96103 -1.54864 0
M  V30 153 N 14.781 0.264519 -1.55364 0
M  V30 154 C 15.729 1.34702 -1.89626 0
M  V30 155 C 16.723 1.50712 -0.773459 0
M  V30 156 O 17.929 1.52395 -0.957897 0
M  V30 157 H 14.304 0.450682 -0.601988 0
M  V30 158 H 16.275 1.0306 -2.80038 0
M  V30 159 C 15.024 2.6989 -2.19214 0
M  V30 160 H 14.347 2.58365 -3.05103 0
M  V30 161 H 15.787 3.44553 -2.47102 0
M  V30 162 C 14.246 3.21637 -1.00254 0
M  V30 163 O 14.776 4.00973 -0.241501 0
M  V30 164 N 12.982 2.7943 -0.797938 0
M  V30 165 H 12.529 2.15026 -1.4185 0
M  V30 166 H 12.487 3.144 -0.00363422 0
M  V30 167 N 16.2591 1.48442 0.529413 0
M  V30 168 C 17.2071 1.63452 1.65487 0
M  V30 169 C 18.2011 0.500955 1.61823 0
M  V30 170 O 19.4071 0.679695 1.66674 0
M  V30 171 H 15.7821 0.514905 0.548066 0
M  V30 172 H 17.7531 2.57975 1.49971 0
M  V30 173 C 16.5021 1.69196 3.03756 0
M  V30 174 H 15.8251 2.55784 3.07269 0
M  V30 175 H 17.2651 1.83743 3.82119 0
M  V30 176 C 15.7241 0.430765 3.34135 0
M  V30 177 O 16.2541 -0.4561 3.99102 0
M  V30 178 N 14.4601 0.302293 2.89023 0
M  V30 179 H 14.0071 1.02496 2.36331 0
M  V30 180 H 13.9651 -0.540546 3.09718 0
M  V30 181 N 17.7372 -0.778329 1.37039 0
M  V30 182 C 18.9842 -1.53665 1.31884 0
M  V30 183 C 19.3122 -1.9425 -0.0986303 0
M  V30 184 O 18.5672 -1.63832 -1.07041 0
M  V30 185 C 18.8662 -2.81845 2.19768 0
M  V30 186 C 18.5322 -2.60345 3.68146 0
M  V30 187 C 17.1942 -2.5419 4.08584 0
M  V30 188 C 19.5462 -2.40923 4.62175 0
M  V30 189 C 16.8742 -2.26594 5.41177 0
M  V30 190 C 19.2262 -2.14852 5.94997 0
M  V30 191 C 17.8902 -2.07137 6.34547 0
M  V30 192 H 17.1602 -0.562299 0.482598 0
M  V30 193 H 19.8072 -0.897069 1.69189 0
M  V30 194 H 18.1122 -3.50328 1.75436 0
M  V30 195 H 19.8092 -3.39692 2.13097 0
M  V30 196 H 16.3992 -2.65996 3.36072 0
M  V30 197 H 20.5832 -2.44673 4.31797 0
M  V30 198 H 15.8392 -2.19111 5.70789 0
M  V30 199 H 20.0132 -1.98822 6.67415 0
M  V30 200 H 17.6402 -1.85518 7.37216 0
M  V30 201 N 19.2153 -1.21501 -1.00376 0
M  V30 202 C 20.6313 -0.972629 -1.26539 0
M  V30 203 C 20.8313 0.340257 -1.98606 0
M  V30 204 O 19.8873 1.06561 -2.28913 0
M  V30 205 C 21.2003 -2.16404 -2.08781 0
M  V30 206 C 22.7483 -2.20643 -2.22004 0
M  V30 207 C 23.2233 -3.39306 -3.07629 0
M  V30 208 N 24.7143 -3.39401 -3.15217 0
M  V30 209 C 25.4493 -4.27867 -3.81729 0
M  V30 210 N 24.9453 -5.26533 -4.5026 0
M  V30 211 N 26.7383 -4.15672 -3.78382 0
M  V30 212 H 18.8893 -2.05929 -0.520281 0
M  V30 213 H 21.1523 -0.901803 -0.292328 0
M  V30 214 H 20.8583 -3.11554 -1.63178 0
M  V30 215 H 20.7323 -2.15567 -3.09533 0
M  V30 216 H 23.1193 -1.26048 -2.66825 0
M  V30 217 H 23.2003 -2.25523 -1.20718 0
M  V30 218 H 22.8443 -4.34195 -2.63509 0
M  V30 219 H 22.7743 -3.31665 -4.09031 0
M  V30 220 H 25.2653 -2.67997 -2.66432 0
M  V30 221 H 25.5783 -5.90337 -4.98721 0
M  V30 222 H 23.9233 -5.30457 -4.49044 0
M  V30 223 H 27.1143 -3.3785 -3.23998 0
M  V30 224 H 27.2873 -4.84825 -4.2994 0
M  V30 225 N 20.6934 1.19889 -1.02296 0
M  V30 226 C 22.1094 1.41462 -0.738954 0
M  V30 227 C 22.3094 1.89721 0.678846 0
M  V30 228 O 21.3654 2.07016 1.4457 0
M  V30 229 C 22.6784 2.43083 -1.77005 0
M  V30 230 C 24.2264 2.5684 -1.78892 0
M  V30 231 C 24.7014 3.61709 -2.80945 0
M  V30 232 N 26.1924 3.69199 -2.79725 0
M  V30 233 C 26.9274 4.50019 -3.55345 0
M  V30 234 N 26.4234 5.34592 -4.40662 0
M  V30 235 N 28.2164 4.44612 -3.43914 0
M  V30 236 H 20.3674 0.868827 -1.93817 0
M  V30 237 H 22.6304 0.44399 -0.837602 0
M  V30 238 H 22.3364 2.14636 -2.78612 0
M  V30 239 H 22.2104 3.4217 -1.58744 0
M  V30 240 H 24.5974 2.84614 -0.779674 0
M  V30 241 H 24.6784 1.57927 -2.01228 0
M  V30 242 H 24.3224 3.34678 -3.82038 0
M  V30 243 H 24.2524 4.60259 -2.5587 0
M  V30 244 H 26.7434 3.08794 -2.17842 0
M  V30 245 H 27.0564 5.93363 -4.95116 0
M  V30 246 H 25.4014 5.34073 -4.44737 0
M  V30 247 H 28.5924 3.7758 -2.76679 0
M  V30 248 H 28.7654 5.0736 -4.031 0
M  V30 249 N 22.1715 0.800033 1.35784 0
M  V30 250 C 23.4185 0.377342 1.98953 0
M  V30 251 C 23.7465 -1.05378 1.6348 0
M  V30 252 O 23.0015 -1.74459 0.886707 0
M  V30 253 C 23.3005 0.500276 3.53881 0
M  V30 254 C 22.9665 1.89375 4.09204 0
M  V30 255 C 21.6285 2.27499 4.24025 0
M  V30 256 C 23.9805 2.8057 4.39238 0
M  V30 257 C 21.3085 3.562 4.66195 0
M  V30 258 C 23.6605 4.0871 4.82844 0
M  V30 259 C 22.3245 4.46843 4.95871 0
M  V30 260 H 21.5945 0.138079 0.728021 0
M  V30 261 H 24.2415 1.01955 1.62103 0
M  V30 262 H 22.5465 -0.225405 3.91151 0
M  V30 263 H 24.2435 0.154097 4.00704 0
M  V30 264 H 20.8335 1.58753 3.98115 0
M  V30 265 H 25.0175 2.52367 4.27346 0
M  V30 266 H 20.2735 3.85602 4.74469 0
M  V30 267 H 24.4475 4.79481 5.05046 0
M  V30 268 H 22.0745 5.46623 5.28306 0
M  V30 269 N 23.6496 -1.47581 0.552962 0
M  V30 270 C 24.8776 -2.06875 0.0320556 0
M  V30 271 C 25.2926 -1.40625 -1.25976 0
M  V30 272 O 24.6496 -0.501349 -1.75479 0
M  V30 273 C 24.7006 -3.61092 -0.17167 0
M  V30 274 O 24.4216 -4.24858 1.06899 0
M  V30 275 C 25.9226 -4.37242 -0.730344 0
M  V30 276 H 23.1426 -0.669561 0.043915 0
M  V30 277 H 25.6866 -1.89646 0.765163 0
M  V30 278 H 23.8416 -3.7785 -0.854894 0
M  V30 279 H 24.2556 -5.17334 0.864059 0
M  V30 280 H 25.7296 -5.45842 -0.822203 0
M  V30 281 H 26.2066 -4.03235 -1.74064 0
M  V30 282 H 26.8126 -4.25219 -0.0829543 0
M  V30 283 N 25.1277 -0.289203 -1.54924 0
M  V30 284 C 26.5387 0.205791 -1.85562 0
M  V30 285 C 26.8897 1.54351 -1.2112 0
M  V30 286 O 26.0147 2.10435 -0.504601 0
M  V30 287 C 26.6097 0.380177 -3.3666 0
M  V30 288 C 25.1687 0.819395 -3.67373 0
M  V30 289 C 24.3157 -0.079159 -2.77187 0
M  V30 290 H 27.2667 -0.510577 -1.50262 0
M  V30 291 H 27.2877 1.21659 -3.60526 0
M  V30 292 H 26.7997 -0.593589 -3.83534 0
M  V30 293 H 24.9007 1.80413 -3.26009 0
M  V30 294 H 25.0137 0.646957 -4.74712 0
M  V30 295 H 23.3777 0.439565 -2.50878 0
M  V30 296 H 24.1607 -1.04906 -3.26878 0
M  V30 297 N 26.6058 1.57591 -0.0167156 0
M  V30 298 C 27.5158 2.1291 0.98521 0
M  V30 299 C 28.5318 1.07834 1.36557 0
M  V30 300 O 29.7078 1.39826 1.44951 0
M  V30 301 C 26.7728 2.63512 2.25305 0
M  V30 302 C 25.8338 3.83256 1.93426 0
M  V30 303 C 25.0668 4.31435 3.14165 0
M  V30 304 O 25.2898 3.78851 4.26413 0
M  V30 305 O 24.2238 5.23416 2.97186 0
M  V30 306 H 28.0498 2.98772 0.544888 0
M  V30 307 H 25.6348 1.48012 0.203141 0
M  V30 308 H 27.5168 2.96183 2.99756 0
M  V30 309 H 26.1918 1.8074 2.68542 0
M  V30 310 H 25.0988 3.55531 1.16398 0
M  V30 311 H 26.4318 4.67153 1.55013 0
M  V30 312 N 28.0839 -0.256276 1.55502 0
M  V30 313 C 29.3089 -1.00766 1.81276 0
M  V30 314 C 29.7339 -1.78524 0.59252 0
M  V30 315 O 29.0919 -1.75413 -0.45827 0
M  V30 316 C 29.1399 -1.92869 3.04687 0
M  V30 317 O 28.2439 -3.019 2.80945 0
M  V30 318 H 27.5849 -0.287224 0.598664 0
M  V30 319 H 30.1149 -0.280109 2.02674 0
M  V30 320 H 30.1249 -2.34511 3.33869 0
M  V30 321 H 28.7999 -1.35689 3.93143 0
M  V30 322 H 27.3769 -2.64454 2.62904 0
M  V30 323 N 29.562 -1.4872 -0.521534 0
M  V30 324 C 30.492 -1.66771 -1.63431 0
M  V30 325 C 31.473 -0.516499 -1.62069 0
M  V30 326 O 32.658 -0.750013 -1.79132 0
M  V30 327 C 29.788 -1.71515 -3.01993 0
M  V30 328 C 28.742 -2.86222 -3.18216 0
M  V30 329 C 28.068 -2.76061 -4.57924 0
M  V30 330 C 29.368 -4.27419 -3.00184 0
M  V30 331 H 31.062 -2.59932 -1.48579 0
M  V30 332 H 28.608 -1.25089 -0.713358 0
M  V30 333 H 30.561 -1.82731 -3.7972 0
M  V30 334 H 29.285 -0.749393 -3.17886 0
M  V30 335 H 27.944 -2.74575 -2.42908 0
M  V30 336 H 27.592 -1.77437 -4.70665 0
M  V30 337 H 27.292 -3.53037 -4.69722 0
M  V30 338 H 28.816 -2.89256 -5.37739 0
M  V30 339 H 30.23 -4.39855 -3.67697 0
M  V30 340 H 28.627 -5.05458 -3.2347 0
M  V30 341 H 29.697 -4.43293 -1.96518 0
M  V30 342 N 31.0401 0.771051 -1.3745 0
M  V30 343 C 32.2861 1.5319 -1.32894 0
M  V30 344 C 32.6191 1.94008 0.0862511 0
M  V30 345 O 31.8941 1.64124 1.04373 0
M  V30 346 C 32.1771 2.79648 -2.26868 0
M  V30 347 C 32.0301 2.45079 -3.77169 0
M  V30 348 C 33.3491 3.81583 -2.19277 0
M  V30 349 H 30.4681 0.555744 -0.484064 0
M  V30 350 H 33.1101 0.884492 -1.68157 0
M  V30 351 H 31.2601 3.34891 -1.96926 0
M  V30 352 H 32.9321 1.95745 -4.1771 0
M  V30 353 H 31.1751 1.77767 -3.95704 0
M  V30 354 H 31.8461 3.35478 -4.38359 0
M  V30 355 H 34.3221 3.35835 -2.45671 0
M  V30 356 H 33.1981 4.67787 -2.87171 0
M  V30 357 H 33.4591 4.25897 -1.18592 0
M  V30 358 N 32.5182 1.22032 0.997298 0
M  V30 359 C 33.4282 1.00271 2.12092 0
M  V30 360 C 34.4442 -0.047621 1.73935 0
M  V30 361 O 35.6202 0.144136 2.00884 0
M  V30 362 C 32.6852 0.578449 3.4184 0
M  V30 363 C 31.7462 1.70189 3.94125 0
M  V30 364 C 30.9792 1.29778 5.17681 0
M  V30 365 O 31.2022 0.174676 5.70132 0
M  V30 366 O 30.1362 2.11261 5.63607 0
M  V30 367 H 33.9622 1.94398 2.3333 0
M  V30 368 H 31.5472 1.00587 1.10465 0
M  V30 369 H 33.4292 0.351998 4.19927 0
M  V30 370 H 32.1042 -0.334019 3.21972 0
M  V30 371 H 31.0112 1.98282 3.1723 0
M  V30 372 H 32.3442 2.59206 4.18417 0
M  V30 373 N 33.9963 -1.19345 1.0293 0
M  V30 374 C 35.2453 -1.88363 0.721256 0
M  V30 375 C 35.5583 -1.80514 -0.753254 0
M  V30 376 O 36.7643 -2.44788 -1.17436 0
M  V30 377 C 35.2203 -3.37872 1.23978 0
M  V30 378 C 34.8283 -3.54278 2.74211 0
M  V30 379 C 36.5723 -4.12365 1.00775 0
M  V30 380 C 34.4793 -4.97682 3.19479 0
M  V30 381 H 33.4093 -0.705484 0.266098 0
M  V30 382 H 36.0603 -1.34928 1.24365 0
M  V30 383 H 34.4423 -3.90707 0.6453 0
M  V30 384 H 35.6163 -3.11769 3.39318 0
M  V30 385 H 33.9313 -2.93174 2.95699 0
M  V30 386 H 36.5283 -5.18119 1.32123 0
M  V30 387 H 36.8713 -4.16263 -0.0554308 0
M  V30 388 H 37.4043 -3.65668 1.56625 0
M  V30 389 H 34.1433 -4.98945 4.25128 0
M  V30 390 H 33.6633 -5.4095 2.591 0
M  V30 391 H 35.3423 -5.66337 3.12845 0
M  V30 392 N 35.4744 -0.807222 -1.35358 0
M  V30 393 C 36.3844 -0.219594 -2.3357 0
M  V30 394 C 37.4004 0.637734 -1.61892 0
M  V30 395 O 38.5764 0.549336 -1.93763 0
M  V30 396 C 35.6414 0.62158 -3.41083 0
M  V30 397 C 34.7024 -0.256315 -4.28534 0
M  V30 398 C 33.9354 0.544807 -5.30912 0
M  V30 399 O 34.1584 1.77944 -5.41934 0
M  V30 400 O 33.0924 -0.0646478 -6.01865 0
M  V30 401 H 36.9184 -1.03208 -2.85625 0
M  V30 402 H 34.5034 -0.569025 -1.38139 0
M  V30 403 H 36.3854 1.10067 -4.06772 0
M  V30 404 H 35.0604 1.41165 -2.91297 0
M  V30 405 H 33.9674 -0.782559 -3.65823 0
M  V30 406 H 35.3004 -1.01034 -4.81719 0
M  V30 407 N 36.9525 1.47285 -0.560781 0
M  V30 408 C 37.8995 2.30058 0.18491 0
M  V30 409 C 38.8695 1.39281 0.904986 0
M  V30 410 O 40.0545 1.68241 0.899979 0
M  V30 411 C 37.1945 3.23317 1.20666 0
M  V30 412 C 36.3075 4.29186 0.492285 0
M  V30 413 C 35.4425 5.09592 1.49964 0
M  V30 414 C 34.4815 6.07232 0.770439 0
M  V30 415 N 33.6185 6.80584 1.72479 0
M  V30 416 H 38.4585 2.93302 -0.527048 0
M  V30 417 H 35.9955 1.44568 -0.271738 0
M  V30 418 H 37.9535 3.75811 1.81168 0
M  V30 419 H 36.5835 2.61929 1.88661 0
M  V30 420 H 35.6355 3.7972 -0.227333 0
M  V30 421 H 36.9475 4.98738 -0.0787929 0
M  V30 422 H 36.1015 5.66254 2.17809 0
M  V30 423 H 34.8405 4.3995 2.10464 0
M  V30 424 H 33.8455 5.49745 0.0780846 0
M  V30 425 H 35.0705 6.78884 0.171134 0
M  V30 426 H 33.0165 6.1367 2.3183 0
M  V30 427 H 32.9335 7.46319 1.20596 0
M  V30 428 H 34.2015 7.41818 2.39428 0
M  V30 429 N 38.4306 0.297415 1.54768 0
M  V30 430 C 39.3626 -0.613881 2.20826 0
M  V30 431 C 40.3756 -1.10032 1.19987 0
M  V30 432 O 41.5646 -1.01839 1.46598 0
M  V30 433 C 38.6646 -1.852 2.83821 0
M  V30 434 C 37.8376 -1.50865 4.10559 0
M  V30 435 C 36.8966 -2.60154 4.57391 0
M  V30 436 O 35.9226 -2.25398 5.2267 0
M  V30 437 N 37.1246 -3.90629 4.29406 0
M  V30 438 H 39.8896 -0.048389 2.99661 0
M  V30 439 H 37.4506 0.11946 1.61459 0
M  V30 440 H 39.4426 -2.57652 3.12086 0
M  V30 441 H 38.0126 -2.32597 2.08847 0
M  V30 442 H 37.2326 -0.616925 3.89343 0
M  V30 443 H 38.5206 -1.25458 4.9309 0
M  V30 444 H 37.9186 -4.21677 3.77101 0
M  V30 445 H 36.4756 -4.59391 4.62388 0
M  V30 446 N 39.9087 -1.5758 0.0250728 0
M  V30 447 C 41.1577 -1.90811 -0.653767 0
M  V30 448 C 41.4707 -0.90273 -1.73523 0
M  V30 449 O 42.6767 -1.12614 -2.47043 0
M  V30 450 C 41.1327 -3.38804 -1.21409 0
M  V30 451 C 40.7407 -4.47692 -0.166126 0
M  V30 452 C 42.4847 -3.81108 -1.86967 0
M  V30 453 C 40.3917 -5.86779 -0.737856 0
M  V30 454 H 39.3217 -0.712063 -0.247956 0
M  V30 455 H 41.9727 -1.83281 0.0897137 0
M  V30 456 H 40.3547 -3.41252 -2.00905 0
M  V30 457 H 41.5287 -4.56797 0.606079 0
M  V30 458 H 39.8437 -4.14565 0.390466 0
M  V30 459 H 42.4407 -4.82375 -2.30692 0
M  V30 460 H 42.7837 -3.15953 -2.71071 0
M  V30 461 H 43.3167 -3.81065 -1.14167 0
M  V30 462 H 40.0557 -6.55468 0.0649577 0
M  V30 463 H 39.5757 -5.81288 -1.47864 0
M  V30 464 H 41.2547 -6.35223 -1.22884 0
M  V30 465 N 41.3868 0.248026 -1.55636 0
M  V30 466 C 42.3498 1.29044 -1.89421 0
M  V30 467 C 43.3498 1.41134 -0.770581 0
M  V30 468 O 44.5398 1.39854 -1.03858 0
M  V30 469 C 41.6718 2.66831 -2.12165 0
M  V30 470 H 42.8648 1.00305 -2.82629 0
M  V30 471 H 40.4178 0.487265 -1.48511 0
M  V30 472 H 41.1528 3.00711 -1.21422 0
M  V30 473 H 40.9378 2.59438 -2.93997 0
M  V30 474 H 42.4278 3.42103 -2.3949 0
M  V30 475 N 42.8649 1.48995 0.513639 0
M  V30 476 C 43.8279 1.64229 1.59879 0
M  V30 477 C 44.8279 0.514696 1.5234 0
M  V30 478 O 46.0179 0.78087 1.55718 0
M  V30 479 C 43.1499 1.62783 2.99524 0
M  V30 480 H 44.3429 2.61004 1.47705 0
M  V30 481 H 41.8959 1.37837 0.736936 0
M  V30 482 H 42.6309 0.675461 3.17188 0
M  V30 483 H 42.4159 2.4466 3.06404 0
M  V30 484 H 43.9059 1.76669 3.78388 0
M  V30 485 N 44.343 -0.763751 1.37857 0
M  V30 486 C 45.29 -1.87726 1.34267 0
M  V30 487 C 46.26 -1.64807 0.206879 0
M  V30 488 O 47.445 -1.86613 0.397508 0
M  V30 489 C 44.585 -3.24896 1.16346 0
M  V30 490 C 43.698 -3.59716 2.39225 0
M  V30 491 C 42.833 -4.86137 2.14114 0
M  V30 492 C 41.872 -5.13711 3.32817 0
M  V30 493 N 41.009 -6.31323 3.07206 0
M  V30 494 H 45.849 -1.90129 2.29466 0
M  V30 495 H 43.386 -0.929433 1.14017 0
M  V30 496 H 45.344 -4.04036 1.03975 0
M  V30 497 H 43.974 -3.21847 0.247909 0
M  V30 498 H 43.026 -2.75498 2.62307 0
M  V30 499 H 44.338 -3.76027 3.27728 0
M  V30 500 H 43.492 -5.73198 1.9882 0
M  V30 501 H 42.231 -4.71945 1.22961 0
M  V30 502 H 41.236 -4.25123 3.48641 0
M  V30 503 H 42.461 -5.29807 4.24832 0
M  V30 504 H 40.407 -6.18474 2.1869 0
M  V30 505 H 40.324 -6.48087 3.89254 0
M  V30 506 H 41.592 -7.213 2.95546 0
M  V30 507 N 45.8211 -1.22559 -0.990812 0
M  V30 508 C 46.7531 -0.955325 -2.08342 0
M  V30 509 C 47.7661 0.0668408 -1.62663 0
M  V30 510 O 48.9551 -0.167421 -1.77713 0
M  V30 511 C 46.0551 -0.415566 -3.36342 0
M  V30 512 C 45.2281 -1.49544 -4.11042 0
M  V30 513 C 44.2871 -0.962399 -5.17324 0
M  V30 514 O 43.3131 -1.64907 -5.44788 0
M  V30 515 N 44.5151 0.215134 -5.80101 0
M  V30 516 H 47.2801 -1.89596 -2.32106 0
M  V30 517 H 44.8411 -1.13276 -1.15673 0
M  V30 518 H 46.8331 -0.0442386 -4.04676 0
M  V30 519 H 45.4031 0.430232 -3.09625 0
M  V30 520 H 44.6231 -2.04 -3.37309 0
M  V30 521 H 45.9111 -2.22195 -4.57719 0
M  V30 522 H 45.3091 0.789779 -5.6016 0
M  V30 523 H 43.8661 0.527826 -6.49659 0
M  V30 524 N 47.2992 1.18797 -1.03562 0
M  V30 525 C 48.5472 1.88278 -0.734569 0
M  V30 526 C 48.8682 1.8043 0.739586 0
M  V30 527 O 48.1382 1.21925 1.53333 0
M  V30 528 H 46.7182 0.696991 -0.268725 0
M  V30 529 H 49.3802 1.44192 -1.31129 0
M  V30 530 H 48.4762 2.94443 -1.03489 0
M  V30 531 N 48.7773 0.814389 1.34928 0
M  V30 532 C 50.0053 0.411136 2.02774 0
M  V30 533 C 50.4203 -0.980316 1.61354 0
M  V30 534 O 49.7773 -1.63299 0.814847 0
M  V30 535 C 49.8283 0.493865 3.58111 0
M  V30 536 O 49.5493 1.83047 3.98027 0
M  V30 537 C 51.0503 0.0844174 4.4322 0
M  V30 538 H 48.2703 0.166037 0.650133 0
M  V30 539 H 50.8143 1.10018 1.72384 0
M  V30 540 H 48.9693 -0.147006 3.87121 0
M  V30 541 H 49.3833 1.79872 4.92693 0
M  V30 542 H 50.8573 0.193404 5.51661 0
M  V30 543 H 51.3343 -0.97113 4.28329 0
M  V30 544 H 51.9403 0.69875 4.19521 0
M  V30 545 N 50.2554 -1.46986 0.568584 0
M  V30 546 C 51.2024 -2.30153 -0.172707 0
M  V30 547 C 52.1724 -1.39759 -0.897586 0
M  V30 548 O 53.3574 -1.68716 -0.891044 0
M  V30 549 C 50.4974 -3.23952 -1.1895 0
M  V30 550 C 49.6104 -4.29441 -0.469517 0
M  V30 551 C 48.7454 -5.1038 -1.47259 0
M  V30 552 C 47.7844 -6.07632 -0.738225 0
M  V30 553 N 46.9214 -6.8149 -1.68868 0
M  V30 554 H 51.7614 -2.93019 0.542596 0
M  V30 555 H 49.2984 -1.44422 0.279401 0
M  V30 556 H 51.2564 -3.76767 -1.79173 0
M  V30 557 H 49.8864 -2.62926 -1.87269 0
M  V30 558 H 48.9384 -3.79594 0.247467 0
M  V30 559 H 50.2504 -4.98689 0.105241 0
M  V30 560 H 49.4044 -5.67402 -2.14803 0
M  V30 561 H 48.1434 -4.4106 -2.08128 0
M  V30 562 H 47.1484 -5.49778 -0.0489293 0
M  V30 563 H 48.3734 -6.78966 -0.135129 0
M  V30 564 H 46.3194 -6.14891 -2.28573 0
M  V30 565 H 46.2364 -7.46948 -1.16636 0
M  V30 566 H 47.5044 -7.43078 -2.3549 0
M  V30 567 N 51.7335 -0.305618 -1.54608 0
M  V30 568 C 52.6805 0.568421 -2.23691 0
M  V30 569 C 53.6505 1.12592 -1.22116 0
M  V30 570 O 54.8355 1.16959 -1.50749 0
M  V30 571 C 51.9755 1.7322 -2.98477 0
M  V30 572 C 51.0885 1.20566 -4.14835 0
M  V30 573 C 50.2235 2.33368 -4.77193 0
M  V30 574 C 49.2625 1.7787 -5.85686 0
M  V30 575 N 48.3995 2.84263 -6.4198 0
M  V30 576 H 53.2395 -0.0272867 -2.97988 0
M  V30 577 H 50.7765 -0.0252363 -1.47078 0
M  V30 578 H 52.7345 2.41675 -3.40072 0
M  V30 579 H 51.3645 2.29947 -2.26548 0
M  V30 580 H 50.4165 0.413223 -3.78149 0
M  V30 581 H 51.7285 0.759417 -4.92985 0
M  V30 582 H 50.8825 3.09761 -5.21664 0
M  V30 583 H 49.6215 2.8132 -3.98385 0
M  V30 584 H 48.6265 0.99968 -5.40635 0
M  V30 585 H 49.8515 1.30816 -6.66381 0
M  V30 586 H 47.7975 3.31541 -5.66053 0
M  V30 587 H 47.7145 2.44149 -7.15491 0
M  V30 588 H 48.9825 3.6054 -6.91109 0
M  V30 589 N 53.2116 1.57565 -0.0334293 0
M  V30 590 C 54.1746 2.09393 0.932048 0
M  V30 591 C 55.1746 1.00986 1.25134 0
M  V30 592 O 56.3646 1.27129 1.19096 0
M  V30 593 C 53.4966 2.56338 2.2473 0
M  V30 594 H 54.6896 2.95984 0.483085 0
M  V30 595 H 52.2426 1.54819 0.21468 0
M  V30 596 H 52.9776 1.7309 2.74245 0
M  V30 597 H 52.7626 3.35542 2.02865 0
M  V30 598 H 54.2526 2.96646 2.93923 0
M  V30 599 N 54.6897 -0.239769 1.55765 0
M  V30 600 C 56.1057 -0.588624 1.48349 0
M  V30 601 C 56.3057 -1.88005 0.72502 0
M  V30 602 O 55.3617 -2.51186 0.257269 0
M  V30 603 C 56.6747 -0.68474 2.928 0
M  V30 604 C 58.2227 -0.77659 3.03213 0
M  V30 605 C 58.6977 -0.904207 4.48986 0
M  V30 606 N 60.1887 -0.968896 4.52953 0
M  V30 607 C 60.9237 -1.08703 5.63002 0
M  V30 608 N 60.4197 -1.17026 6.82845 0
M  V30 609 N 62.2127 -1.12074 5.50814 0
M  V30 610 H 54.3637 0.607911 2.03515 0
M  V30 611 H 56.6267 0.21083 0.924259 0
M  V30 612 H 56.3327 0.194284 3.51163 0
M  V30 613 H 56.2067 -1.55435 3.43686 0
M  V30 614 H 58.5937 -1.64606 2.44926 0
M  V30 615 H 58.6747 0.118315 2.55526 0
M  V30 616 H 58.3187 -0.0392633 5.07885 0
M  V30 617 H 58.2487 -1.81426 4.9436 0
M  V30 618 H 60.7397 -0.915633 3.6664 0
M  V30 619 H 61.0527 -1.25966 7.62465 0
M  V30 620 H 59.3977 -1.13971 6.85591 0
M  V30 621 H 62.5887 -1.05226 4.5612 0
M  V30 622 H 62.7617 -1.20936 6.36615 0
M  V30 623 N 56.1678 -1.49265 -0.50573 0
M  V30 624 C 57.0778 -1.68312 -1.63427 0
M  V30 625 C 58.0938 -0.565682 -1.64548 0
M  V30 626 O 59.2698 -0.839801 -1.83055 0
M  V30 627 C 56.3348 -1.74107 -2.99813 0
M  V30 628 C 55.3958 -2.97653 -3.09356 0
M  V30 629 C 54.6288 -3.03163 -4.39236 0
M  V30 630 O 54.8518 -2.16396 -5.27758 0
M  V30 631 O 53.7858 -3.9558 -4.53652 0
M  V30 632 H 57.6118 -2.63907 -1.50289 0
M  V30 633 H 55.1968 -1.32951 -0.681502 0
M  V30 634 H 57.0788 -1.803 -3.80881 0
M  V30 635 H 55.7538 -0.816901 -3.13223 0
M  V30 636 H 54.6608 -2.96981 -2.27493 0
M  V30 637 H 55.9938 -3.89535 -3.00871 0
M  V30 638 N 57.6459 0.756429 -1.3826 0
M  V30 639 C 58.5929 1.87011 -1.35261 0
M  V30 640 C 59.5629 1.64695 -0.215616 0
M  V30 641 O 60.7479 1.864 -0.407399 0
M  V30 642 C 57.8879 3.24275 -1.18068 0
M  V30 643 C 57.0009 3.58442 -2.41129 0
M  V30 644 C 56.1359 4.84994 -2.16689 0
M  V30 645 C 55.1749 5.11939 -3.35537 0
M  V30 646 N 54.3119 6.29685 -3.10549 0
M  V30 647 H 59.1519 1.8891 -2.30472 0
M  V30 648 H 56.6889 0.923373 -1.14509 0
M  V30 649 H 58.6469 4.03479 -1.06116 0
M  V30 650 H 57.2769 3.21711 -0.264973 0
M  V30 651 H 56.3289 2.74103 -2.63764 0
M  V30 652 H 57.6409 3.74283 -3.29717 0
M  V30 653 H 56.7949 5.72135 -2.01857 0
M  V30 654 H 55.5339 4.71286 -1.25462 0
M  V30 655 H 54.5389 4.23268 -3.50891 0
M  V30 656 H 55.7639 5.27546 -4.27635 0
M  V30 657 H 53.7099 6.17306 -2.21967 0
M  V30 658 H 53.6269 6.46014 -3.92686 0
M  V30 659 H 54.8949 7.19722 -2.99367 0
M  V30 660 N 59.124 1.23083 0.984299 0
M  V30 661 C 60.074 0.975749 2.06066 0
M  V30 662 C 61.058 -0.0768251 1.60716 0
M  V30 663 O 62.25 0.134805 1.76486 0
M  V30 664 C 59.379 0.564673 3.38624 0
M  V30 665 C 58.465 1.65244 3.90583 0
M  V30 666 N 58.856 2.88193 4.15666 0
M  V30 667 C 57.154 1.52612 4.19077 0
M  V30 668 C 57.855 3.58593 4.58024 0
M  V30 669 N 56.831 2.86093 4.62225 0
M  V30 670 H 60.633 1.90957 2.23411 0
M  V30 671 H 58.147 1.12963 1.16675 0
M  V30 672 H 60.144 0.36322 4.15315 0
M  V30 673 H 58.804 -0.362147 3.22674 0
M  V30 674 H 59.815 3.24537 4.03604 0
M  V30 675 H 56.492 0.666121 4.12152 0
M  V30 676 H 57.882 4.63974 4.85982 0
M  V30 677 N 60.6021 -1.18246 1.0419 0
M  V30 678 C 62.0181 -1.40269 0.761366 0
M  V30 679 C 62.2181 -1.90777 -0.648578 0
M  V30 680 O 61.2741 -2.0929 -1.41258 0
M  V30 681 C 62.5871 -2.40237 1.8085 0
M  V30 682 C 64.1351 -2.53961 1.82955 0
M  V30 683 C 64.6101 -3.57194 2.86664 0
M  V30 684 N 66.1011 -3.64702 2.85563 0
M  V30 685 C 66.8361 -4.44309 3.6246 0
M  V30 686 N 66.3321 -5.27514 4.49111 0
M  V30 687 N 68.1251 -4.39084 3.50944 0
M  V30 688 H 60.2761 -0.837882 1.95175 0
M  V30 689 H 62.5391 -0.430608 0.84456 0
M  V30 690 H 62.2451 -2.10176 2.81991 0
M  V30 691 H 62.1191 -3.39601 1.64168 0
M  V30 692 H 64.5061 -2.83338 0.824855 0
M  V30 693 H 64.5871 -1.54706 2.03715 0
M  V30 694 H 64.2311 -3.28558 3.87314 0
M  V30 695 H 64.1611 -4.5613 2.6316 0
M  V30 696 H 66.6521 -3.05289 2.22727 0
M  V30 697 H 66.9651 -5.85411 5.04493 0
M  V30 698 H 65.3101 -5.2693 4.53178 0
M  V30 699 H 68.5011 -3.7313 2.82651 0
M  V30 700 H 68.6741 -5.00883 4.11121 0
M  V30 701 N 62.0802 -0.821533 -1.34494 0
M  V30 702 C 62.9902 -0.244355 -2.33324 0
M  V30 703 C 64.0062 0.620527 -1.62559 0
M  V30 704 O 65.1822 0.528754 -1.94335 0
M  V30 705 C 62.2472 0.585368 -3.41723 0
M  V30 706 C 61.3082 -0.301752 -4.28238 0
M  V30 707 C 60.5412 0.488466 -5.3146 0
M  V30 708 O 60.7642 1.72186 -5.4379 0
M  V30 709 O 59.6982 -0.12848 -6.01763 0
M  V30 710 H 63.5242 -1.06231 -2.84515 0
M  V30 711 H 61.1092 -0.583645 -1.37528 0
M  V30 712 H 62.9912 1.05747 -4.07916 0
M  V30 713 H 61.6662 1.38068 -2.92778 0
M  V30 714 H 60.5732 -0.821315 -3.64973 0
M  V30 715 H 61.9062 -1.06138 -4.8062 0
M  V30 716 N 63.5583 1.46682 -0.576371 0
M  V30 717 C 64.4903 2.28341 0.198231 0
M  V30 718 C 65.5033 1.38141 0.861453 0
M  V30 719 O 66.6923 1.62797 0.732082 0
M  V30 720 C 63.7923 3.12986 1.29972 0
M  V30 721 C 62.9653 4.31271 0.729639 0
M  V30 722 C 62.0243 4.97363 1.71803 0
M  V30 723 O 61.0503 5.55156 1.25658 0
M  V30 724 N 62.2523 4.93796 3.05198 0
M  V30 725 H 65.0173 2.9546 -0.502324 0
M  V30 726 H 62.5783 1.56525 -0.413715 0
M  V30 727 H 64.5703 3.54066 1.96008 0
M  V30 728 H 63.1403 2.47984 1.90323 0
M  V30 729 H 62.3603 3.94052 -0.108012 0
M  V30 730 H 63.6483 5.07739 0.328438 0
M  V30 731 H 63.0463 4.48077 3.45317 0
M  V30 732 H 61.6033 5.38837 3.6674 0
M  V30 733 N 65.0364 0.313813 1.54444 0
M  V30 734 C 65.9834 -0.55655 2.23989 0
M  V30 735 C 66.9534 -1.11943 1.22711 0
M  V30 736 O 68.1384 -1.16158 1.51367 0
M  V30 737 C 65.2784 -1.71635 2.99392 0
M  V30 738 C 64.3914 -1.18364 4.15468 0
M  V30 739 C 63.5264 -2.30834 4.78424 0
M  V30 740 C 62.5654 -1.74762 5.86622 0
M  V30 741 N 61.7024 -2.80855 6.43479 0
M  V30 742 H 66.5424 0.0430893 2.97969 0
M  V30 743 H 64.0794 0.0330359 1.47063 0
M  V30 744 H 66.0374 -2.39868 3.41349 0
M  V30 745 H 64.6674 -2.28742 2.27765 0
M  V30 746 H 63.7194 -0.393163 3.78363 0
M  V30 747 H 65.0314 -0.733262 4.93381 0
M  V30 748 H 64.1854 -3.0699 5.23299 0
M  V30 749 H 62.9244 -2.79204 3.99871 0
M  V30 750 H 61.9294 -0.970995 5.41158 0
M  V30 751 H 63.1544 -1.2728 6.67066 0
M  V30 752 H 61.1004 -3.28535 5.67804 0
M  V30 753 H 61.0174 -2.40351 7.16776 0
M  V30 754 H 62.2854 -3.5687 6.93011 0
M  V30 755 N 66.5145 -1.57545 0.0417849 0
M  V30 756 C 67.7915 -1.83642 -0.673433 0
M  V30 757 C 68.1715 -0.928298 -1.89594 0
M  V30 758 O 67.5195 0.0129955 -2.28496 0
M  V30 759 C 67.7295 -3.33155 -1.03964 0
M  V30 760 C 69.0775 -3.99941 -1.42592 0
M  V30 761 O 70.1015 -3.37725 -1.13226 0
M  V30 762 O 68.9605 -5.09619 -1.9736 0
M  V30 763 H 66.0545 -0.757638 -0.331533 0
M  V30 764 H 68.6005 -1.69554 0.070433 0
M  V30 765 H 67.3725 -3.9093 -0.170098 0
M  V30 766 H 66.9955 -3.52396 -1.84126 0
M  V30 767 N 67.9926 0.231505 -1.5589 0
M  V30 768 C 68.9246 1.31006 -1.8807 0
M  V30 769 C 69.9376 1.43539 -0.768145 0
M  V30 770 O 71.1266 1.44614 -1.04638 0
M  V30 771 C 68.2266 2.68688 -2.06543 0
M  V30 772 C 67.3996 2.78228 -3.37502 0
M  V30 773 C 66.4586 3.96857 -3.4553 0
M  V30 774 O 65.4846 3.85662 -4.18633 0
M  V30 775 N 66.6866 5.1072 -2.75944 0
M  V30 776 H 69.4516 1.03731 -2.81176 0
M  V30 777 H 67.0126 0.421573 -1.56315 0
M  V30 778 H 69.0046 3.46412 -2.09239 0
M  V30 779 H 67.5746 2.88605 -1.20109 0
M  V30 780 H 66.7946 1.87059 -3.46991 0
M  V30 781 H 68.0826 2.81564 -4.23791 0
M  V30 782 H 67.4806 5.2271 -2.16311 0
M  V30 783 H 66.0376 5.86523 -2.84314 0
M  V30 784 N 69.4707 1.49531 0.497807 0
M  V30 785 C 70.3807 1.69176 1.62532 0
M  V30 786 C 71.3967 0.5744 1.64246 0
M  V30 787 O 72.5727 0.849497 1.82608 0
M  V30 788 C 69.6377 1.75695 2.98885 0
M  V30 789 C 68.6987 2.9929 3.07773 0
M  V30 790 C 67.9317 3.05488 4.37622 0
M  V30 791 O 68.1547 2.19192 5.26603 0
M  V30 792 O 67.0887 3.9798 4.51548 0
M  V30 793 H 70.9147 2.647 1.48887 0
M  V30 794 H 68.4997 1.3331 0.674441 0
M  V30 795 H 70.3817 1.82317 3.79919 0
M  V30 796 H 69.0567 0.8335 3.12785 0
M  V30 797 H 67.9637 2.98183 2.25915 0
M  V30 798 H 69.2967 3.91125 2.98801 0
M  V30 799 N 70.9488 -0.749086 1.3866 0
M  V30 800 C 71.8588 -1.89358 1.38494 0
M  V30 801 C 72.8748 -1.71708 0.281476 0
M  V30 802 O 74.0508 -1.94554 0.520643 0
M  V30 803 C 71.1158 -3.24782 1.21316 0
M  V30 804 C 70.1768 -3.54926 2.41508 0
M  V30 805 C 69.4098 -4.83888 2.2514 0
M  V30 806 O 69.6328 -5.56592 1.24746 0
M  V30 807 O 68.5668 -5.13612 3.13826 0
M  V30 808 H 72.3928 -1.92452 2.34938 0
M  V30 809 H 69.9778 -0.894981 1.19626 0
M  V30 810 H 71.8598 -4.05739 1.13814 0
M  V30 811 H 70.5348 -3.2249 0.279592 0
M  V30 812 H 69.4418 -2.74112 2.54585 0
M  V30 813 H 70.7748 -3.61983 3.3351 0
M  V30 814 N 72.4269 -1.23603 -0.977757 0
M  V30 815 C 73.3739 -1.01954 -2.07061 0
M  V30 816 C 74.3439 0.0638697 -1.65977 0
M  V30 817 O 75.5289 -0.0887624 -1.90593 0
M  V30 818 C 72.6689 -0.619658 -3.39491 0
M  V30 819 C 71.7819 -1.77547 -3.93829 0
M  V30 820 C 70.9169 -1.32212 -5.14484 0
M  V30 821 C 69.9559 -2.44852 -5.60994 0
M  V30 822 N 69.0929 -2.00456 -6.72876 0
M  V30 823 H 73.9329 -1.95495 -2.24913 0
M  V30 824 H 71.4699 -0.973861 -1.10247 0
M  V30 825 H 73.4279 -0.368898 -4.15566 0
M  V30 826 H 72.0579 0.278752 -3.21594 0
M  V30 827 H 71.1099 -2.14016 -3.14486 0
M  V30 828 H 72.4219 -2.62219 -4.24314 0
M  V30 829 H 71.5759 -1.02965 -5.97899 0
M  V30 830 H 70.3149 -0.445808 -4.85658 0
M  V30 831 H 69.3199 -2.74871 -4.76157 0
M  V30 832 H 70.5449 -3.33024 -5.91837 0
M  V30 833 H 68.4909 -1.15208 -6.45804 0
M  V30 834 H 68.4079 -2.78687 -7.02759 0
M  V30 835 H 69.6759 -1.7432 -7.59758 0
M  V30 836 N 73.905 1.17692 -1.04816 0
M  V30 837 C 75.316 1.69501 -0.782698 0
M  V30 838 C 75.667 1.83456 0.695577 0
M  V30 839 O 74.792 1.51942 1.54086 0
M  V30 840 C 75.387 3.07874 -1.41419 0
M  V30 841 C 73.946 3.56864 -1.19686 0
M  V30 842 C 73.093 2.3322 -1.50012 0
M  V30 843 H 76.044 1.02262 -1.2136 0
M  V30 844 H 76.065 3.71528 -0.821428 0
M  V30 845 H 75.577 2.97685 -2.49009 0
M  V30 846 H 73.678 3.72337 -0.140043 0
M  V30 847 H 73.791 4.39851 -1.89916 0
M  V30 848 H 72.155 2.37501 -0.920071 0
M  V30 849 H 72.938 2.25644 -2.58727 0
M  V30 850 N 75.3831 0.828654 1.34056 0
M  V30 851 C 76.7991 0.515135 1.51058 0
M  V30 852 C 76.9991 -0.959581 1.77184 0
M  V30 853 O 76.0551 -1.74382 1.82612 0
M  V30 854 C 77.3681 1.37963 2.67183 0
M  V30 855 C 78.9161 1.37735 2.81066 0
M  V30 856 C 79.3911 2.22645 4.00241 0
M  V30 857 N 80.8821 2.203 4.07458 0
M  V30 858 C 81.6171 2.82744 4.98842 0
M  V30 859 N 81.1131 3.54201 5.9541 0
M  V30 860 N 82.9061 2.72268 4.91759 0
M  V30 861 H 75.0571 1.78343 1.15358 0
M  V30 862 H 77.3201 0.760304 0.566252 0
M  V30 863 H 77.0261 2.42714 2.54525 0
M  V30 864 H 76.9001 1.0484 3.62338 0
M  V30 865 H 79.2871 0.337593 2.93163 0
M  V30 866 H 79.3681 1.74859 1.86703 0
M  V30 867 H 79.0121 3.26674 3.88905 0
M  V30 868 H 78.9421 1.82869 4.93829 0
M  V30 869 H 81.4331 1.68327 3.38341 0
M  V30 870 H 81.7461 3.9908 6.61782 0
M  V30 871 H 80.0911 3.58308 5.95517 0
M  V30 872 H 83.2821 2.16014 4.15278 0
M  V30 873 H 83.4551 3.21219 5.62781 0
M  V30 874 N 76.8612 -1.46375 0.584142 0
M  V30 875 C 78.2722 -1.86031 0.157959 0
M  V30 876 C 78.6232 -1.48753 -1.27933 0
M  V30 877 O 77.7482 -0.903098 -1.96655 0
M  V30 878 C 78.3432 -3.37642 0.279892 0
M  V30 879 C 76.9022 -3.76289 -0.09143 0
M  V30 880 C 76.0492 -2.7039 0.615178 0
M  V30 881 H 79.0002 -1.37509 0.792274 0
M  V30 882 H 79.0212 -3.77275 -0.494364 0
M  V30 883 H 78.5332 -3.64742 1.32607 0
M  V30 884 H 76.6342 -3.54806 -1.13769 0
M  V30 885 H 76.7472 -4.78246 0.285886 0
M  V30 886 H 75.1112 -2.5464 0.0552833 0
M  V30 887 H 75.8942 -3.0033 1.66303 0
M  V30 888 N 78.3393 -0.321999 -1.54275 0
M  V30 889 C 79.2713 0.578671 -2.21775 0
M  V30 890 C 80.2843 1.08109 -1.21722 0
M  V30 891 O 81.4733 0.994938 -1.482 0
M  V30 892 C 78.5733 1.80661 -2.86731 0
M  V30 893 C 77.7463 1.44314 -4.12907 0
M  V30 894 C 76.8053 2.52845 -4.61472 0
M  V30 895 O 75.8313 2.17054 -5.2619 0
M  V30 896 N 77.0333 3.83748 -4.35566 0
M  V30 897 H 79.7983 0.000709447 -2.997 0
M  V30 898 H 77.3593 -0.145132 -1.61248 0
M  V30 899 H 79.3513 2.52655 -3.16145 0
M  V30 900 H 77.9213 2.29245 -2.12521 0
M  V30 901 H 77.1413 0.554906 -3.90275 0
M  V30 902 H 78.4293 1.17598 -4.95023 0
M  V30 903 H 77.8273 4.15625 -3.83761 0
M  V30 904 H 76.3843 4.51977 -4.69638 0
M  V30 905 N 79.8174 1.5752 -0.0501392 0
M  V30 906 C 80.7474 2.14502 0.922566 0
M  V30 907 C 81.7284 1.06642 1.3252 0
M  V30 908 O 82.9134 1.34577 1.4001 0
M  V30 909 C 80.0434 2.68916 2.19776 0
M  V30 910 C 78.9974 3.8175 1.93523 0
M  V30 911 C 78.3234 4.22677 3.27487 0
M  V30 912 C 79.6234 5.06932 1.25765 0
M  V30 913 H 81.3174 2.9603 0.447952 0
M  V30 914 H 78.8634 1.42401 0.214024 0
M  V30 915 H 80.8164 3.07419 2.88222 0
M  V30 916 H 79.5404 1.84578 2.69441 0
M  V30 917 H 78.1994 3.43718 1.27489 0
M  V30 918 H 77.8474 3.35291 3.74952 0
M  V30 919 H 77.5474 4.98725 3.1072 0
M  V30 920 H 79.0714 4.63779 3.97166 0
M  V30 921 H 80.4854 5.42888 1.84244 0
M  V30 922 H 78.8824 5.88116 1.19328 0
M  V30 923 H 79.9524 4.84337 0.233536 0
M  V30 924 N 81.2955 -0.223234 1.56011 0
M  V30 925 C 82.5725 -0.972108 1.69733 0
M  V30 926 C 82.9525 -2.02485 0.59691 0
M  V30 927 O 82.3005 -2.25037 -0.396324 0
M  V30 928 C 82.5105 -1.58407 3.10979 0
M  V30 929 C 83.8585 -2.07696 3.70334 0
M  V30 930 O 84.8825 -1.68304 3.1393 0
M  V30 931 O 83.7415 -2.80096 4.69264 0
M  V30 932 H 80.8355 -0.453993 0.691245 0
M  V30 933 H 83.3815 -0.215149 1.68331 0
M  V30 934 H 82.1535 -0.823831 3.82529 0
M  V30 935 H 81.7765 -2.40661 3.16493 0
M  V30 936 N 82.7736 -1.49793 -0.48987 0
M  V30 937 C 83.7036 -1.70201 -1.59856 0
M  V30 938 C 84.6846 -0.55076 -1.60937 0
M  V30 939 O 85.8696 -0.787841 -1.77501 0
M  V30 940 C 82.9996 -1.77882 -2.98287 0
M  V30 941 C 81.9536 -2.92907 -3.12073 0
M  V30 942 C 81.2796 -2.85712 -4.51965 0
M  V30 943 C 82.5796 -4.3369 -2.91051 0
M  V30 944 H 84.2736 -2.63025 -1.43032 0
M  V30 945 H 81.8196 -1.26574 -0.686664 0
M  V30 946 H 83.7726 -1.90744 -3.75759 0
M  V30 947 H 82.4966 -0.816653 -3.16225 0
M  V30 948 H 81.1556 -2.79665 -2.37029 0
M  V30 949 H 80.8036 -1.8738 -4.66795 0
M  V30 950 H 80.5036 -3.62921 -4.62128 0
M  V30 951 H 82.0276 -3.00598 -5.31482 0
M  V30 952 H 83.4416 -4.47555 -3.58284 0
M  V30 953 H 81.8386 -5.12205 -3.12675 0
M  V30 954 H 82.9086 -4.47362 -1.87071 0
M  V30 955 N 84.2517 0.741722 -1.39055 0
M  V30 956 C 85.1987 1.85566 -1.37237 0
M  V30 957 C 86.1687 1.64457 -0.233072 0
M  V30 958 O 87.3537 1.85957 -0.427147 0
M  V30 959 C 84.4937 3.23004 -1.215 0
M  V30 960 C 83.6067 3.55864 -2.44918 0
M  V30 961 C 82.7417 4.82669 -2.21821 0
M  V30 962 C 81.7807 5.08351 -3.40948 0
M  V30 963 N 80.9177 6.26356 -3.17211 0
M  V30 964 H 85.7577 1.86455 -2.32462 0
M  V30 965 H 83.2947 0.911176 -1.15482 0
M  V30 966 H 85.2527 4.02331 -1.10389 0
M  V30 967 H 83.8827 3.21411 -0.29908 0
M  V30 968 H 82.9347 2.7129 -2.66657 0
M  V30 969 H 84.2467 3.70765 -3.33668 0
M  V30 970 H 83.4007 5.69962 -2.07914 0
M  V30 971 H 82.1397 4.69929 -1.30454 0
M  V30 972 H 81.1447 4.19522 -3.55361 0
M  V30 973 H 82.3697 5.22981 -4.33207 0
M  V30 974 H 80.3157 6.14917 -2.28502 0
M  V30 975 H 80.2327 6.41813 -3.99515 0
M  V30 976 H 81.5007 7.16506 -3.06984 0
M  V30 977 N 85.7298 1.2412 0.971189 0
M  V30 978 C 86.6928 1.03156 2.04674 0
M  V30 979 C 87.6928 -0.00990322 1.60797 0
M  V30 980 O 88.8828 0.230729 1.72665 0
M  V30 981 C 86.0148 0.562765 3.36223 0
M  V30 982 H 87.2078 1.98614 2.24705 0
M  V30 983 H 84.7608 1.06293 1.14593 0
M  V30 984 H 85.4958 -0.395176 3.21883 0
M  V30 985 H 85.2808 1.31441 3.69413 0
M  V30 986 H 86.7708 0.437015 4.15307 0
M  V30 987 N 87.2079 -1.17134 1.05439 0
M  V30 988 C 88.4479 -1.89137 0.77502 0
M  V30 989 C 88.8119 -1.79345 -0.685526 0
M  V30 990 O 90.0129 -2.46188 -1.0791 0
M  V30 991 C 88.2839 -3.35003 1.2453 0
M  V30 992 S 89.8429 -4.24952 1.09367 0
M  V30 993 H 86.6609 -0.652949 0.281387 0
M  V30 994 H 89.2629 -1.4145 1.34953 0
M  V30 995 H 87.9669 -3.39666 2.30338 0
M  V30 996 H 87.4979 -3.87736 0.665166 0
M  V30 997 H 89.5129 -4.96196 0.0193397 0
M  V30 998 N 88.686 -0.835752 -1.33615 0
M  V30 999 C 89.634 -0.255238 -2.31195 0
M  V30 1000 C 90.628 0.61107 -1.57995 0
M  V30 1001 O 91.834 0.500979 -1.72888 0
M  V30 1002 H 88.209 -0.0638085 -0.749288 0
M  V30 1003 H 90.18 -1.09283 -2.77669 0
M  V30 1004 C 88.929 0.55754 -3.43201 0
M  V30 1005 H 88.252 -0.0997553 -3.99676 0
M  V30 1006 H 89.692 0.929622 -4.13683 0
M  V30 1007 C 88.151 1.73515 -2.88781 0
M  V30 1008 O 88.681 2.83376 -2.84712 0
M  V30 1009 N 86.887 1.55603 -2.4543 0
M  V30 1010 H 86.434 0.662354 -2.48939 0
M  V30 1011 H 86.392 2.34545 -2.09371 0
M  V30 1012 N 90.1641 1.46063 -0.591896 0
M  V30 1013 C 91.0961 2.28539 0.174001 0
M  V30 1014 C 92.1091 1.39047 0.846753 0
M  V30 1015 O 93.2981 1.63564 0.714774 0
M  V30 1016 C 90.3981 3.14347 1.26645 0
M  V30 1017 C 89.5711 4.32021 0.683856 0
M  V30 1018 C 88.6301 4.99157 1.66518 0
M  V30 1019 O 87.6561 5.56458 1.19763 0
M  V30 1020 N 88.8581 4.97005 2.99943 0
M  V30 1021 H 91.6231 2.94911 -0.533633 0
M  V30 1022 H 89.1841 1.56077 -0.430294 0
M  V30 1023 H 91.1761 3.56125 1.92242 0
M  V30 1024 H 89.7461 2.49988 1.87682 0
M  V30 1025 H 88.9661 3.93915 -0.1498 0
M  V30 1026 H 90.2541 5.08059 0.274567 0
M  V30 1027 H 89.6521 4.51714 3.40545 0
M  V30 1028 H 88.2091 5.42696 3.61004 0
M  V30 1029 N 91.6422 0.330177 1.54103 0
M  V30 1030 C 92.5722 -0.525353 2.27513 0
M  V30 1031 C 93.5532 -1.11383 1.2856 0
M  V30 1032 O 94.7382 -1.13773 1.57383 0
M  V30 1033 C 91.8682 -1.6831 3.03791 0
M  V30 1034 C 90.8222 -1.2236 4.10137 0
M  V30 1035 C 90.1482 -2.46882 4.74293 0
M  V30 1036 C 91.4482 -0.333697 5.21233 0
M  V30 1037 H 93.1422 0.087013 2.99274 0
M  V30 1038 H 90.6882 0.0432893 1.43935 0
M  V30 1039 H 92.6412 -2.28795 3.5388 0
M  V30 1040 H 91.3652 -2.32216 2.29659 0
M  V30 1041 H 90.0242 -0.64165 3.60941 0
M  V30 1042 H 89.6722 -3.09165 3.96769 0
M  V30 1043 H 89.3722 -2.16825 5.46133 0
M  V30 1044 H 90.8962 -3.08117 5.27159 0
M  V30 1045 H 92.3102 -0.845013 5.67038 0
M  V30 1046 H 90.7072 -0.125612 5.99969 0
M  V30 1047 H 91.7772 0.633724 4.80741 0
M  V30 1048 N 93.1203 -1.57491 0.0584922 0
M  V30 1049 C 94.5313 -1.80526 -0.476138 0
M  V30 1050 C 94.8823 -0.971334 -1.70469 0
M  V30 1051 O 94.0073 -0.190012 -2.15564 0
M  V30 1052 C 94.6023 -3.27424 -0.870587 0
M  V30 1053 C 93.1613 -3.51351 -1.35015 0
M  V30 1054 C 92.3083 -2.75343 -0.32887 0
M  V30 1055 H 95.2593 -1.56133 0.284312 0
M  V30 1056 H 95.2803 -3.38745 -1.73299 0
M  V30 1057 H 94.7923 -3.88093 0.0237627 0
M  V30 1058 H 92.8933 -2.95971 -2.26345 0
M  V30 1059 H 93.0063 -4.60059 -1.33726 0
M  V30 1060 H 91.3703 -2.417 -0.803321 0
M  V30 1061 H 92.1533 -3.38743 0.557521 0
M  V30 1062 N 94.5984 0.214957 -1.56127 0
M  V30 1063 C 95.5454 1.26642 -1.92952 0
M  V30 1064 C 96.5154 1.46244 -0.78753 0
M  V30 1065 O 97.7004 1.59704 -1.04399 0
M  V30 1066 C 94.8404 2.6104 -2.25726 0
M  V30 1067 C 93.9534 2.49183 -3.52891 0
M  V30 1068 C 93.0884 3.76149 -3.7508 0
M  V30 1069 C 92.1274 3.59041 -4.95738 0
M  V30 1070 N 91.2644 4.77972 -5.14283 0
M  V30 1071 H 96.1044 0.945384 -2.82607 0
M  V30 1072 H 93.6414 0.455489 -1.3987 0
M  V30 1073 H 95.5994 3.39313 -2.42739 0
M  V30 1074 H 94.2294 2.91227 -1.39236 0
M  V30 1075 H 93.2814 1.6231 -3.44034 0
M  V30 1076 H 94.5934 2.32466 -4.41318 0
M  V30 1077 H 93.7474 4.62865 -3.92226 0
M  V30 1078 H 92.4864 3.95799 -2.84947 0
M  V30 1079 H 91.4914 2.7071 -4.78535 0
M  V30 1080 H 92.7164 3.40856 -5.87362 0
M  V30 1081 H 90.6624 4.97923 -4.27093 0
M  V30 1082 H 90.5794 4.64006 -5.96853 0
M  V30 1083 H 91.8474 5.66096 -5.35869 0
M  V30 1084 N 96.0765 1.50051 0.48192 0
M  V30 1085 C 97.3235 1.60498 1.23477 0
M  V30 1086 C 97.6515 0.300331 1.92167 0
M  V30 1087 O 96.9065 -0.713094 1.82246 0
M  V30 1088 C 97.2055 2.72717 2.30998 0
M  V30 1089 C 96.8715 4.13572 1.79636 0
M  V30 1090 C 95.5335 4.519 1.65348 0
M  V30 1091 C 97.8855 5.01649 1.41412 0
M  V30 1092 C 95.2135 5.76057 1.11244 0
M  V30 1093 C 97.5655 6.26343 0.887538 0
M  V30 1094 C 96.2295 6.63483 0.731207 0
M  V30 1095 H 95.4995 0.587303 0.451836 0
M  V30 1096 H 98.1465 1.83948 0.532468 0
M  V30 1097 H 96.4515 2.43312 3.07094 0
M  V30 1098 H 98.1485 2.78006 2.88988 0
M  V30 1099 H 94.7385 3.83329 1.91721 0
M  V30 1100 H 98.9225 4.72679 1.51289 0
M  V30 1101 H 94.1785 6.03516 0.978686 0
M  V30 1102 H 98.3525 6.93958 0.582654 0
M  V30 1103 H 95.9795 7.59568 0.309806 0
M  V30 1104 N 97.5546 -0.734337 1.39446 0
M  V30 1105 C 98.7846 -1.52137 1.39778 0
M  V30 1106 C 99.1926 -1.89198 -0.00929312 0
M  V30 1107 O 98.5356 -1.54666 -0.991168 0
M  V30 1108 C 98.5976 -2.83762 2.20724 0
M  V30 1109 C 98.2616 -2.69131 3.69347 0
M  V30 1110 C 99.2586 -2.37635 4.62413 0
M  V30 1111 C 96.9436 -2.85982 4.1294 0
M  V30 1112 C 98.9376 -2.23172 5.97054 0
M  V30 1113 C 96.6246 -2.71137 5.47657 0
M  V30 1114 C 97.6226 -2.39777 6.39528 0
M  V30 1115 O 97.3106 -2.25026 7.71763 0
M  V30 1116 H 97.0426 -0.476717 0.479288 0
M  V30 1117 H 99.5966 -0.915012 1.83893 0
M  V30 1118 H 97.8266 -3.4666 1.71359 0
M  V30 1119 H 99.5156 -3.45383 2.13226 0
M  V30 1120 H 100.282 -2.24267 4.30034 0
M  V30 1121 H 96.1606 -3.09383 3.41765 0
M  V30 1122 H 99.7046 -1.98617 6.68728 0
M  V30 1123 H 95.6016 -2.84083 5.79626 0
M  V30 1124 H 96.3696 -2.40091 7.82495 0
M  V30 1125 N 99.0327 -1.24633 -0.964593 0
M  V30 1126 C 100.281 -1.08573 -1.70459 0
M  V30 1127 C 100.602 0.375655 -1.91347 0
M  V30 1128 O 99.8717 1.26779 -1.49345 0
M  V30 1129 H 98.4517 -0.398784 -0.631649 0
M  V30 1130 H 101.114 -1.56601 -1.16026 0
M  V30 1131 H 100.21 -1.58623 -2.68785 0
M  V30 1132 N 100.511 1.16574 -1.06058 0
M  V30 1133 C 101.421 2.2452 -0.680282 0
M  V30 1134 C 102.437 1.71348 0.302604 0
M  V30 1135 O 103.613 2.00822 0.152513 0
M  V30 1136 C 100.678 3.46629 -0.0700315 0
M  V30 1137 C 99.7388 4.14849 -1.10448 0
M  V30 1138 C 98.9718 5.31129 -0.523256 0
M  V30 1139 O 99.1948 5.66514 0.664709 0
M  V30 1140 O 98.1288 5.88526 -1.26179 0
M  V30 1141 H 101.955 2.59355 -1.58015 0
M  V30 1142 H 99.5398 1.24043 -0.832694 0
M  V30 1143 H 101.422 4.20543 0.268667 0
M  V30 1144 H 100.097 3.13573 0.803353 0
M  V30 1145 H 99.0038 3.42916 -1.49532 0
M  V30 1146 H 100.337 4.51954 -1.94931 0
M  V30 1147 N 101.989 0.842826 1.3317 0
M  V30 1148 C 102.919 0.294028 2.31641 0
M  V30 1149 C 103.9 -0.600401 1.59151 0
M  V30 1150 O 105.085 -0.523124 1.87022 0
M  V30 1151 C 102.215 -0.528416 3.43257 0
M  V30 1152 C 101.169 0.27056 4.27144 0
M  V30 1153 C 100.495 -0.675881 5.30411 0
M  V30 1154 C 101.795 1.48981 5.00602 0
M  V30 1155 H 103.489 1.11681 2.77791 0
M  V30 1156 H 101.035 0.538478 1.33553 0
M  V30 1157 H 102.988 -0.922674 4.11175 0
M  V30 1158 H 101.712 -1.38445 2.95805 0
M  V30 1159 H 100.371 0.646427 3.60856 0
M  V30 1160 H 100.019 -1.52842 4.79216 0
M  V30 1161 H 99.7189 -0.145374 5.8742 0
M  V30 1162 H 101.243 -1.06757 6.01195 0
M  V30 1163 H 102.657 1.16849 5.61266 0
M  V30 1164 H 101.054 1.95739 5.6728 0
M  V30 1165 H 102.124 2.25746 4.29147 0
M  V30 1166 N 103.467 -1.45747 0.599634 0
M  V30 1167 C 104.878 -1.85853 0.177681 0
M  V30 1168 C 105.229 -1.50102 -1.26348 0
M  V30 1169 O 104.354 -0.923905 -1.95686 0
M  V30 1170 C 104.949 -3.37326 0.315688 0
M  V30 1171 C 103.508 -3.76365 -0.0515144 0
M  V30 1172 C 102.655 -2.69722 0.643822 0
M  V30 1173 H 105.606 -1.36661 0.806814 0
M  V30 1174 H 105.627 -3.77778 -0.454321 0
M  V30 1175 H 105.139 -3.63315 1.36468 0
M  V30 1176 H 103.24 -3.55993 -1.09999 0
M  V30 1177 H 103.353 -4.77916 0.336594 0
M  V30 1178 H 101.717 -2.54567 0.0822881 0
M  V30 1179 H 102.5 -2.98549 1.6948 0
M  V30 1180 N 104.945 -0.338344 -1.53925 0
M  V30 1181 C 105.908 0.508299 -2.23493 0
M  V30 1182 C 106.908 1.03175 -1.23335 0
M  V30 1183 O 108.098 0.921826 -1.47811 0
M  V30 1184 C 105.23 1.70754 -2.95052 0
M  V30 1185 H 106.423 -0.100058 -2.99733 0
M  V30 1186 H 103.976 -0.0896198 -1.56043 0
M  V30 1187 H 104.711 2.35474 -2.22986 0
M  V30 1188 H 104.496 1.33946 -3.68512 0
M  V30 1189 H 105.986 2.30818 -3.48013 0
M  V30 1190 N 106.423 1.57458 -0.0668435 0
M  V30 1191 C 107.333 2.15937 0.916975 0
M  V30 1192 C 108.349 1.12123 1.33058 0
M  V30 1193 O 109.525 1.44366 1.40429 0
M  V30 1194 C 106.59 2.70547 2.16807 0
M  V30 1195 C 105.651 3.89215 1.81135 0
M  V30 1196 C 104.884 4.41211 3.0028 0
M  V30 1197 O 105.107 3.92225 4.14144 0
M  V30 1198 O 104.041 5.32605 2.80384 0
M  V30 1199 H 107.867 3.00354 0.449561 0
M  V30 1200 H 105.452 1.48584 0.155949 0
M  V30 1201 H 107.334 3.0557 2.90181 0
M  V30 1202 H 106.009 1.89192 2.62656 0
M  V30 1203 H 104.916 3.59054 1.05028 0
M  V30 1204 H 106.249 4.71848 1.40073 0
M  V30 1205 N 107.901 -0.206675 1.56239 0
M  V30 1206 C 108.831 -1.25909 1.96645 0
M  V30 1207 C 109.812 -1.48097 0.836734 0
M  V30 1208 O 110.997 -1.6003 1.10019 0
M  V30 1209 C 108.127 -2.6058 2.29599 0
M  V30 1210 C 107.081 -2.53024 3.452 0
M  V30 1211 C 106.407 -3.91861 3.63798 0
M  V30 1212 C 107.707 -2.06524 4.79734 0
M  V30 1213 H 109.401 -0.923369 2.84806 0
M  V30 1214 H 106.947 -0.442735 1.37025 0
M  V30 1215 H 108.9 -3.34375 2.56459 0
M  V30 1216 H 107.624 -2.95869 1.38307 0
M  V30 1217 H 106.283 -1.81684 3.18412 0
M  V30 1218 H 105.931 -4.24483 2.69857 0
M  V30 1219 H 105.631 -3.87683 4.4156 0
M  V30 1220 H 107.155 -4.67296 3.93022 0
M  V30 1221 H 108.569 -2.70072 5.05702 0
M  V30 1222 H 106.966 -2.13374 5.60885 0
M  V30 1223 H 108.036 -1.01802 4.74093 0
M  V30 1224 N 109.379 -1.50304 -0.473955 0
M  V30 1225 C 110.628 -1.60392 -1.22301 0
M  V30 1226 C 110.941 -0.308411 -1.93153 0
M  V30 1227 O 112.147 -0.288156 -2.69966 0
M  V30 1228 C 110.603 -2.83109 -2.2221 0
M  V30 1229 C 110.211 -4.19524 -1.57173 0
M  V30 1230 C 111.955 -3.0254 -2.97775 0
M  V30 1231 C 109.862 -5.33431 -2.55353 0
M  V30 1232 H 108.792 -0.597286 -0.460179 0
M  V30 1233 H 111.443 -1.76731 -0.493803 0
M  V30 1234 H 109.825 -2.60322 -2.9841 0
M  V30 1235 H 110.999 -4.52554 -0.867824 0
M  V30 1236 H 109.314 -4.05674 -0.939002 0
M  V30 1237 H 111.911 -3.84811 -3.71248 0
M  V30 1238 H 112.254 -2.14154 -3.56992 0
M  V30 1239 H 112.787 -3.25494 -2.28688 0
M  V30 1240 H 109.526 -6.23962 -2.00878 0
M  V30 1241 H 109.046 -5.04823 -3.23904 0
M  V30 1242 H 110.725 -5.63887 -3.17239 0
M  V30 1243 N 110.857 0.726932 -1.39834 0
M  V30 1244 C 112.105 1.4837 -1.37225 0
M  V30 1245 C 112.426 1.94979 0.0284857 0
M  V30 1246 O 111.696 1.69555 0.981213 0
M  V30 1247 H 110.276 0.55043 -0.505011 0
M  V30 1248 H 112.938 0.862468 -1.74778 0
M  V30 1249 H 112.034 2.36198 -2.04003 0
M  V30 1250 N 112.336 1.25143 0.95797 0
M  V30 1251 C 113.246 1.06968 2.08794 0
M  V30 1252 C 114.262 0.00773911 1.73998 0
M  V30 1253 O 115.438 0.207972 2.00323 0
M  V30 1254 C 112.503 0.68691 3.39827 0
M  V30 1255 C 111.564 1.82641 3.88511 0
M  V30 1256 C 110.797 1.46181 5.1329 0
M  V30 1257 O 111.02 0.355971 5.69288 0
M  V30 1258 O 109.954 2.29085 5.566 0
M  V30 1259 H 113.78 2.01723 2.27027 0
M  V30 1260 H 111.365 1.04051 1.07209 0
M  V30 1261 H 113.247 0.485417 4.18595 0
M  V30 1262 H 111.922 -0.231417 3.22872 0
M  V30 1263 H 110.829 2.08274 3.10762 0
M  V30 1264 H 112.162 2.72386 4.09959 0
M  V30 1265 N 113.814 -1.1601 1.06675 0
M  V30 1266 C 115.225 -1.68235 0.809565 0
M  V30 1267 C 115.576 -1.8454 -0.666303 0
M  V30 1268 O 114.701 -1.54374 -1.5165 0
M  V30 1269 C 115.296 -3.05585 1.46299 0
M  V30 1270 C 113.855 -3.54915 1.25349 0
M  V30 1271 C 113.002 -2.30804 1.53703 0
M  V30 1272 H 115.953 -1.00318 1.22971 0
M  V30 1273 H 115.974 -3.70174 0.880431 0
M  V30 1274 H 115.486 -2.93686 2.53713 0
M  V30 1275 H 113.587 -3.72067 0.199261 0
M  V30 1276 H 113.7 -4.36774 1.9689 0
M  V30 1277 H 112.064 -2.36007 0.957739 0
M  V30 1278 H 112.847 -2.21499 2.62284 0
M  V30 1279 N 115.292 -0.849877 -1.32721 0
M  V30 1280 C 116.222 -0.306308 -2.31482 0
M  V30 1281 C 117.203 0.591952 -1.59468 0
M  V30 1282 O 118.388 0.513199 -1.87296 0
M  V30 1283 C 115.518 0.510204 -3.43532 0
M  V30 1284 C 114.472 -0.293209 -4.26994 0
M  V30 1285 C 113.798 0.647743 -5.30762 0
M  V30 1286 C 115.098 -1.51634 -4.99804 0
M  V30 1287 H 116.792 -1.13153 -2.77195 0
M  V30 1288 H 114.338 -0.545553 -1.33266 0
M  V30 1289 H 116.291 0.900856 -4.11658 0
M  V30 1290 H 115.015 1.36874 -2.96535 0
M  V30 1291 H 113.674 -0.665555 -3.60508 0
M  V30 1292 H 113.322 1.50299 -4.8002 0
M  V30 1293 H 113.022 0.11422 -5.87489 0
M  V30 1294 H 114.546 1.03567 -6.01753 0
M  V30 1295 H 115.96 -1.19824 -5.60638 0
M  V30 1296 H 114.357 -1.98745 -5.66234 0
M  V30 1297 H 115.427 -2.28018 -4.27943 0
M  V30 1298 N 116.77 1.45427 -0.607355 0
M  V30 1299 C 117.68 2.34325 0.113463 0
M  V30 1300 C 118.696 1.51226 0.860617 0
M  V30 1301 O 119.872 1.84029 0.818255 0
M  V30 1302 C 116.937 3.28839 1.09844 0
M  V30 1303 C 115.998 4.27844 0.353271 0
M  V30 1304 C 115.231 5.17842 1.29133 0
M  V30 1305 O 115.454 5.11264 2.52913 0
M  V30 1306 O 114.388 5.96713 0.788523 0
M  V30 1307 H 118.214 2.97364 -0.617094 0
M  V30 1308 H 115.799 1.44807 -0.367619 0
M  V30 1309 H 117.681 3.8708 1.66575 0
M  V30 1310 H 116.356 2.68365 1.81003 0
M  V30 1311 H 115.263 3.7322 -0.256494 0
M  V30 1312 H 116.596 4.91173 -0.317822 0
M  V30 1313 N 118.248 0.346503 1.53744 0
M  V30 1314 C 119.525 -0.304532 1.93215 0
M  V30 1315 C 119.905 -1.67993 1.27834 0
M  V30 1316 O 119.253 -2.24411 0.430352 0
M  V30 1317 C 119.463 -0.373852 3.46992 0
M  V30 1318 C 120.811 -0.62329 4.2 0
M  V30 1319 O 121.835 -0.455847 3.53271 0
M  V30 1320 O 120.694 -0.947879 5.38217 0
M  V30 1321 H 117.788 -0.178318 0.807547 0
M  V30 1322 H 120.334 0.397895 1.64969 0
M  V30 1323 H 119.106 0.591224 3.86808 0
M  V30 1324 H 118.729 -1.12294 3.81413 0
M  V30 1325 N 119.726 -1.57421 0.075193 0
M  V30 1326 C 120.656 -2.15942 -0.888324 0
M  V30 1327 C 121.637 -1.08737 -1.30806 0
M  V30 1328 O 122.822 -1.36787 -1.37851 0
M  V30 1329 C 119.952 -2.72379 -2.1547 0
M  V30 1330 C 118.906 -3.8478 -1.87425 0
M  V30 1331 C 118.232 -4.27834 -3.20721 0
M  V30 1332 C 119.532 -5.08869 -1.17684 0
M  V30 1333 H 121.226 -2.96705 -0.400799 0
M  V30 1334 H 118.772 -1.42723 -0.191342 0
M  V30 1335 H 120.725 -3.11965 -2.83295 0
M  V30 1336 H 119.449 -1.88841 -2.6647 0
M  V30 1337 H 118.108 -3.45703 -1.22004 0
M  V30 1338 H 117.756 -3.41214 -3.6957 0
M  V30 1339 H 117.456 -5.03605 -3.02746 0
M  V30 1340 H 118.98 -4.70039 -3.89738 0
M  V30 1341 H 120.394 -5.4575 -1.75584 0
M  V30 1342 H 118.791 -5.8994 -1.09956 0
M  V30 1343 H 119.861 -4.84648 -0.156453 0
M  V30 1344 N 121.204 0.198386 -1.56346 0
M  V30 1345 C 122.481 0.944982 -1.71258 0
M  V30 1346 C 122.861 2.0151 -0.629048 0
M  V30 1347 O 122.209 2.25639 0.360473 0
M  V30 1348 C 122.419 1.5344 -3.1346 0
M  V30 1349 C 123.767 2.01778 -3.73591 0
M  V30 1350 O 124.791 1.63288 -3.16568 0
M  V30 1351 O 123.65 2.72594 -4.73661 0
M  V30 1352 H 120.744 0.442939 -0.69838 0
M  V30 1353 H 123.29 0.188342 -1.68652 0
M  V30 1354 H 122.062 0.762869 -3.83792 0
M  V30 1355 H 121.685 2.35596 -3.20282 0
M  V30 1356 N 122.682 1.50554 0.465978 0
M  V30 1357 C 124.093 1.54599 1.04671 0
M  V30 1358 C 124.444 0.352488 1.93008 0
M  V30 1359 O 123.569 -0.534044 2.09707 0
M  V30 1360 C 124.164 2.80166 1.90505 0
M  V30 1361 C 122.723 2.86876 2.43678 0
M  V30 1362 C 121.87 2.48947 1.22151 0
M  V30 1363 H 124.821 1.56744 0.248384 0
M  V30 1364 H 124.842 2.62311 2.75633 0
M  V30 1365 H 124.354 3.67013 1.26186 0
M  V30 1366 H 122.455 2.04393 3.11536 0
M  V30 1367 H 122.568 3.89885 2.78436 0
M  V30 1368 H 120.932 2.01498 1.5579 0
M  V30 1369 H 121.715 3.38107 0.594866 0
M  V30 1370 N 124.16 -0.719506 1.40217 0
M  V30 1371 C 125.407 -1.47933 1.38283 0
M  V30 1372 C 125.735 -1.94493 -0.0161536 0
M  V30 1373 O 124.99 -1.68224 -0.999956 0
M  V30 1374 C 125.289 -2.72271 2.31524 0
M  V30 1375 C 124.955 -2.44496 3.78857 0
M  V30 1376 C 123.617 -2.36631 4.18998 0
M  V30 1377 C 125.969 -2.21104 4.71977 0
M  V30 1378 C 123.297 -2.03437 5.503 0
M  V30 1379 C 125.649 -1.89423 6.03574 0
M  V30 1380 C 124.313 -1.80038 6.42762 0
M  V30 1381 H 123.583 -0.541325 0.506012 0
M  V30 1382 H 126.23 -0.824502 1.72842 0
M  V30 1383 H 124.535 -3.42572 1.90137 0
M  V30 1384 H 126.232 -3.30348 2.27313 0
M  V30 1385 H 122.822 -2.51503 3.47051 0
M  V30 1386 H 127.006 -2.26139 4.41786 0
M  V30 1387 H 122.262 -1.94705 5.79569 0
M  V30 1388 H 126.436 -1.70336 6.75247 0
M  V30 1389 H 124.063 -1.54083 7.44421 0
M  V30 1390 N 125.638 -1.25649 -0.95132 0
M  V30 1391 C 126.868 -1.13179 -1.72841 0
M  V30 1392 C 127.276 0.316827 -1.86528 0
M  V30 1393 O 126.619 1.22948 -1.3649 0
M  V30 1394 C 126.681 -1.71644 -3.15878 0
M  V30 1395 C 126.345 -3.20667 -3.25609 0
M  V30 1396 C 127.342 -4.17616 -3.09666 0
M  V30 1397 C 125.027 -3.6094 -3.49324 0
M  V30 1398 C 127.021 -5.52817 -3.17289 0
M  V30 1399 C 124.708 -4.96278 -3.56584 0
M  V30 1400 C 125.706 -5.92025 -3.40581 0
M  V30 1401 O 125.394 -7.24899 -3.47528 0
M  V30 1402 H 125.126 -0.395389 -0.54831 0
M  V30 1403 H 127.68 -1.66566 -1.20187 0
M  V30 1404 H 125.91 -1.12707 -3.69911 0
M  V30 1405 H 127.599 -1.54225 -3.75459 0
M  V30 1406 H 128.365 -3.87842 -2.91211 0
M  V30 1407 H 124.244 -2.86907 -3.6084 0
M  V30 1408 H 127.788 -6.2753 -3.04716 0
M  V30 1409 H 123.685 -5.25716 -3.74556 0
M  V30 1410 H 124.453 -7.33039 -3.64138 0
M  V30 1411 N 127.117 1.15442 -1.07289 0
M  V30 1412 C 128.342 1.90638 -0.816828 0
M  V30 1413 C 128.767 1.77445 0.624083 0
M  V30 1414 O 128.125 1.10671 1.43602 0
M  V30 1415 C 128.173 3.39008 -1.22906 0
M  V30 1416 O 127.277 4.10701 -0.373975 0
M  V30 1417 H 126.618 0.593555 -0.297638 0
M  V30 1418 H 129.148 1.46198 -1.43134 0
M  V30 1419 H 129.158 3.89801 -1.20497 0
M  V30 1420 H 127.833 3.47929 -2.27856 0
M  V30 1421 H 126.41 3.70046 -0.460499 0
M  V30 1422 N 128.595 0.856903 1.32268 0
M  V30 1423 C 129.823 0.475439 2.01363 0
M  V30 1424 C 130.238 -0.928486 1.64392 0
M  V30 1425 O 129.595 -1.60624 0.866387 0
M  V30 1426 C 129.646 0.607545 3.56358 0
M  V30 1427 O 129.367 1.95617 3.92002 0
M  V30 1428 C 130.868 0.225382 4.42727 0
M  V30 1429 H 128.088 0.186636 0.644521 0
M  V30 1430 H 130.632 1.15446 1.68797 0
M  V30 1431 H 128.787 -0.0237719 3.87393 0
M  V30 1432 H 129.201 1.95455 4.86721 0
M  V30 1433 H 130.675 0.368813 5.50767 0
M  V30 1434 H 131.152 -0.834369 4.31202 0
M  V30 1435 H 131.758 0.831864 4.17085 0
M  V30 1436 N 130.073 -1.45103 0.615059 0
M  V30 1437 C 131.023 -2.27679 -0.120966 0
M  V30 1438 C 132.007 -1.3775 -0.831491 0
M  V30 1439 O 133.199 -1.61683 -0.720249 0
M  V30 1440 C 130.328 -3.24767 -1.1127 0
M  V30 1441 C 129.414 -4.22184 -0.402627 0
M  V30 1442 N 129.805 -5.02692 0.559884 0
M  V30 1443 C 128.103 -4.4125 -0.649202 0
M  V30 1444 C 128.804 -5.73421 0.977942 0
M  V30 1445 N 127.78 -5.42657 0.320104 0
M  V30 1446 H 131.582 -2.87325 0.618181 0
M  V30 1447 H 129.096 -1.56345 0.439304 0
M  V30 1448 H 131.093 -3.82666 -1.65446 0
M  V30 1449 H 129.753 -2.66682 -1.85232 0
M  V30 1450 H 130.764 -5.09354 0.936976 0
M  V30 1451 H 127.441 -3.9428 -1.37293 0
M  V30 1452 H 128.831 -6.48107 1.77222 0
M  V30 1453 N 131.551 -0.354651 -1.53558 0
M  V30 1454 C 132.967 -0.00315426 -1.596 0
M  V30 1455 C 133.167 1.47741 -1.37021 0
M  V30 1456 O 132.223 2.23759 -1.16996 0
M  V30 1457 C 133.536 -0.44929 -2.97325 0
M  V30 1458 C 135.084 -0.402578 -3.104 0
M  V30 1459 C 135.559 -0.824355 -4.5052 0
M  V30 1460 N 137.05 -0.778979 -4.56603 0
M  V30 1461 C 137.785 -1.07715 -5.63192 0
M  V30 1462 N 137.281 -1.44405 -6.77583 0
M  V30 1463 N 139.074 -1.00066 -5.53121 0
M  V30 1464 H 131.225 -1.31893 -1.66487 0
M  V30 1465 H 133.488 -0.538388 -0.780284 0
M  V30 1466 H 133.194 -1.48202 -3.1895 0
M  V30 1467 H 133.068 0.169772 -3.76818 0
M  V30 1468 H 135.455 0.621004 -2.88492 0
M  V30 1469 H 135.536 -1.05699 -2.32941 0
M  V30 1470 H 135.18 -1.846 -4.73165 0
M  V30 1471 H 135.11 -0.147304 -5.26394 0
M  V30 1472 H 137.601 -0.508528 -3.74463 0
M  V30 1473 H 137.914 -1.65612 -7.54846 0
M  V30 1474 H 136.259 -1.4826 -6.79002 0
M  V30 1475 H 139.45 -0.713293 -4.62633 0
M  V30 1476 H 139.623 -1.23638 -6.36096 0
M  V30 1477 N 133.029 1.57378 -0.0835403 0
M  V30 1478 C 134.257 1.98263 0.59157 0
M  V30 1479 C 134.672 0.962302 1.62435 0
M  V30 1480 O 134.029 -0.049581 1.82433 0
M  V30 1481 C 134.08 3.39214 1.24965 0
M  V30 1482 O 133.801 4.37339 0.258186 0
M  V30 1483 C 135.302 3.95038 2.01147 0
M  V30 1484 H 132.522 0.651773 0.159477 0
M  V30 1485 H 135.066 2.03878 -0.159415 0
M  V30 1486 H 133.221 3.34649 1.95164 0
M  V30 1487 H 133.635 5.19371 0.731734 0
M  V30 1488 H 135.109 4.95848 2.42567 0
M  V30 1489 H 135.586 3.32222 2.87272 0
M  V30 1490 H 136.192 4.0304 1.35789 0
M  V30 1491 N 134.507 -0.190092 1.56449 0
M  V30 1492 C 135.754 -0.909705 1.80916 0
M  V30 1493 C 136.082 -1.83047 0.657583 0
M  V30 1494 O 135.337 -1.92428 -0.356356 0
M  V30 1495 C 135.636 -1.75382 3.1141 0
M  V30 1496 C 135.302 -0.983606 4.40041 0
M  V30 1497 C 133.964 -0.770967 4.74984 0
M  V30 1498 C 136.316 -0.442024 5.19322 0
M  V30 1499 C 133.644 -0.0053448 5.867 0
M  V30 1500 C 135.996 0.310412 6.31838 0
M  V30 1501 C 134.66 0.534023 6.6536 0
M  V30 1502 H 133.93 -0.332885 0.662019 0
M  V30 1503 H 136.577 -0.175762 1.90692 0
M  V30 1504 H 134.882 -2.55659 2.96893 0
M  V30 1505 H 136.579 -2.31331 3.27547 0
M  V30 1506 H 133.169 -1.15936 4.12622 0
M  V30 1507 H 137.353 -0.593693 4.92736 0
M  V30 1508 H 132.609 0.177825 6.11141 0
M  V30 1509 H 136.783 0.737419 6.92485 0
M  V30 1510 H 134.41 1.12918 7.51767 0
M  V30 1511 N 135.985 -1.50799 -0.457987 0
M  V30 1512 C 136.918 -1.65273 -1.57353 0
M  V30 1513 C 137.896 -0.500578 -1.54703 0
M  V30 1514 O 139.08 -0.721781 -1.74134 0
M  V30 1515 C 136.207 -1.64737 -2.95938 0
M  V30 1516 C 135.253 -2.8567 -3.16693 0
M  V30 1517 S 136.086 -4.46791 -2.95191 0
M  V30 1518 C 137.242 -4.48968 -4.36095 0
M  V30 1519 H 137.475 -2.59633 -1.44838 0
M  V30 1520 H 135.008 -1.40225 -0.64625 0
M  V30 1521 H 136.966 -1.65112 -3.7583 0
M  V30 1522 H 135.627 -0.715899 -3.05833 0
M  V30 1523 H 134.82 -2.81637 -4.17967 0
M  V30 1524 H 134.422 -2.8293 -2.44594 0
M  V30 1525 H 136.714 -4.23337 -5.28954 0
M  V30 1526 H 137.657 -5.50664 -4.45168 0
M  V30 1527 H 138.065 -3.78522 -4.18786 0
M  V30 1528 N 137.463 0.71206 -1.40597 0
M  V30 1529 C 138.709 1.47416 -1.39271 0
M  V30 1530 C 139.042 1.942 0.00388791 0
M  V30 1531 O 138.317 1.68403 0.973179 0
M  V30 1532 C 138.6 2.69774 -2.38525 0
M  V30 1533 C 138.453 2.28861 -3.87224 0
M  V30 1534 C 139.772 3.71939 -2.35264 0
M  V30 1535 H 136.891 0.534713 -0.5072 0
M  V30 1536 H 139.533 0.812375 -1.71757 0
M  V30 1537 H 137.683 3.26238 -2.10953 0
M  V30 1538 H 139.355 1.77852 -4.25636 0
M  V30 1539 H 137.598 1.60824 -4.02887 0
M  V30 1540 H 138.269 3.16584 -4.52193 0
M  V30 1541 H 140.745 3.25113 -2.59694 0
M  V30 1542 H 139.621 4.55186 -3.06753 0
M  V30 1543 H 139.882 4.20484 -1.36549 0
M  V30 1544 N 138.941 1.26152 0.944643 0
M  V30 1545 C 139.871 1.09902 2.06019 0
M  V30 1546 C 140.852 0.00519538 1.70099 0
M  V30 1547 O 142.037 0.176583 1.93396 0
M  V30 1548 C 139.167 0.727562 3.39594 0
M  V30 1549 C 138.121 1.77274 3.89561 0
M  V30 1550 C 137.447 1.25569 5.19747 0
M  V30 1551 C 138.747 3.17357 4.14827 0
M  V30 1552 H 140.441 2.03217 2.19871 0
M  V30 1553 H 137.987 0.978452 1.05652 0
M  V30 1554 H 139.94 0.600777 4.17095 0
M  V30 1555 H 138.664 -0.241287 3.25707 0
M  V30 1556 H 137.323 1.88814 3.14237 0
M  V30 1557 H 136.971 0.276783 5.02238 0
M  V30 1558 H 136.671 1.95433 5.54148 0
M  V30 1559 H 138.195 1.1415 5.99835 0
M  V30 1560 H 139.609 3.08914 4.82954 0
M  V30 1561 H 138.006 3.84781 4.60504 0
M  V30 1562 H 139.076 3.63673 3.20734 0
M  V30 1563 N 140.419 -1.14872 1.07899 0
M  V30 1564 C 141.367 -2.21857 0.698727 0
M  V30 1565 C 142.361 -1.66845 -0.293086 0
M  V30 1566 O 143.567 -1.79321 -0.156204 0
M  V30 1567 H 139.942 -0.722691 0.207899 0
M  V30 1568 H 141.913 -2.51205 1.61054 0
M  V30 1569 C 140.662 -3.47498 0.11858 0
M  V30 1570 H 139.985 -3.90154 0.872914 0
M  V30 1571 H 141.425 -4.23858 -0.109759 0
M  V30 1572 C 139.884 -3.16947 -1.1422 0
M  V30 1573 O 140.414 -3.3426 -2.22785 0
M  V30 1574 N 138.62 -2.70946 -1.05055 0
M  V30 1575 H 138.167 -2.57058 -0.167038 0
M  V30 1576 H 138.125 -2.50879 -1.89491 0
M  V30 1577 N 141.898 -0.863906 -1.31812 0
M  V30 1578 C 142.845 -0.313303 -2.28664 0
M  V30 1579 C 143.815 0.584868 -1.55462 0
M  V30 1580 O 145 0.517805 -1.83639 0
M  V30 1581 C 142.14 0.48441 -3.41683 0
M  V30 1582 C 141.253 -0.440594 -4.29747 0
M  V30 1583 C 140.388 0.370652 -5.29905 0
M  V30 1584 C 139.427 -0.551164 -6.09613 0
M  V30 1585 N 138.564 0.223462 -7.01744 0
M  V30 1586 H 143.404 -1.14444 -2.75148 0
M  V30 1587 H 140.941 -0.575769 -1.35364 0
M  V30 1588 H 142.899 0.962627 -4.05943 0
M  V30 1589 H 141.529 1.28029 -2.96325 0
M  V30 1590 H 140.581 -1.03724 -3.65986 0
M  V30 1591 H 141.893 -1.14767 -4.85417 0
M  V30 1592 H 141.047 0.911638 -5.99812 0
M  V30 1593 H 139.786 1.11105 -4.74876 0
M  V30 1594 H 138.791 -1.10396 -5.38603 0
M  V30 1595 H 140.016 -1.29032 -6.66729 0
M  V30 1596 H 137.962 0.946787 -6.49132 0
M  V30 1597 H 137.879 -0.424399 -7.54808 0
M  V30 1598 H 139.147 0.745876 -7.75923 0
M  V30 1599 N 143.376 1.44774 -0.622745 0
M  V30 1600 C 144.624 2.01721 -0.123655 0
M  V30 1601 C 144.945 1.49172 1.25589 0
M  V30 1602 O 144.215 0.691974 1.83272 0
M  V30 1603 H 142.795 0.745777 -0.0427225 0
M  V30 1604 H 145.457 1.77382 -0.807559 0
M  V30 1605 H 144.553 3.11984 -0.0849534 0
M  V30 1606 N 144.854 0.36279 1.53368 0
M  V30 1607 C 146.27 0.0116182 1.59596 0
M  V30 1608 C 146.47 -1.47012 1.37803 0
M  V30 1609 O 145.526 -2.23136 1.18181 0
M  V30 1610 C 146.839 0.465052 2.97082 0
M  V30 1611 C 148.387 0.419033 3.10182 0
M  V30 1612 C 148.862 0.848235 4.50077 0
M  V30 1613 N 150.353 0.803183 4.56183 0
M  V30 1614 C 151.088 1.107 5.62613 0
M  V30 1615 N 150.584 1.47996 6.76808 0
M  V30 1616 N 152.377 1.02998 5.52583 0
M  V30 1617 H 144.528 1.32775 1.65785 0
M  V30 1618 H 146.791 0.542518 0.777417 0
M  V30 1619 H 146.497 1.49892 3.18159 0
M  V30 1620 H 146.371 -0.149786 3.76902 0
M  V30 1621 H 148.758 -0.605696 2.88817 0
M  V30 1622 H 148.839 1.06933 2.32377 0
M  V30 1623 H 148.483 1.87107 4.7218 0
M  V30 1624 H 148.413 0.175218 5.26308 0
M  V30 1625 H 150.904 0.52838 3.74188 0
M  V30 1626 H 151.217 1.69613 7.53957 0
M  V30 1627 H 149.562 1.51859 6.78206 0
M  V30 1628 H 152.753 0.737817 4.62249 0
M  V30 1629 H 152.926 1.2701 6.35431 0
M  V30 1630 N 146.332 -1.57332 0.0918853 0
M  V30 1631 C 147.56 -1.98574 -0.581048 0
M  V30 1632 C 147.975 -0.970903 -1.61923 0
M  V30 1633 O 147.332 0.0399054 -1.82456 0
M  V30 1634 C 147.383 -3.39872 -1.23164 0
M  V30 1635 O 147.104 -4.37469 -0.234989 0
M  V30 1636 C 148.605 -3.96099 -1.99049 0
M  V30 1637 H 145.825 -0.65261 -0.156018 0
M  V30 1638 H 148.369 -2.0379 0.170225 0
M  V30 1639 H 146.524 -3.35679 -1.93386 0
M  V30 1640 H 146.938 -5.19751 -0.70418 0
M  V30 1641 H 148.412 -4.97127 -2.39934 0
M  V30 1642 H 148.889 -3.3374 -2.85507 0
M  V30 1643 H 149.495 -4.03755 -1.3365 0
M  V30 1644 N 147.81 0.181792 -1.56548 0
M  V30 1645 C 149.059 0.898348 -1.8059 0
M  V30 1646 C 149.372 1.83862 -0.667379 0
M  V30 1647 O 150.578 2.59678 -0.792446 0
M  V30 1648 C 149.034 1.64791 -3.19956 0
M  V30 1649 C 148.642 0.751789 -4.41647 0
M  V30 1650 C 150.386 2.35331 -3.53298 0
M  V30 1651 C 148.293 1.50098 -5.72035 0
M  V30 1652 H 147.223 0.339194 -0.673397 0
M  V30 1653 H 149.874 0.151413 -1.82874 0
M  V30 1654 H 148.256 2.43921 -3.11959 0
M  V30 1655 H 149.43 -0.0018076 -4.608 0
M  V30 1656 H 147.745 0.156562 -4.16106 0
M  V30 1657 H 150.342 2.91958 -4.47956 0
M  V30 1658 H 150.685 3.10164 -2.77676 0
M  V30 1659 H 151.218 1.63154 -3.62803 0
M  V30 1660 H 147.957 0.795175 -6.50659 0
M  V30 1661 H 147.477 2.22817 -5.56878 0
M  V30 1662 H 149.156 2.05125 -6.13622 0
M  V30 1663 N 149.288 1.51039 0.449983 0
M  V30 1664 C 150.513 1.6715 1.22783 0
M  V30 1665 C 150.938 0.363081 1.84563 0
M  V30 1666 O 150.296 -0.675433 1.68249 0
M  V30 1667 C 150.344 2.77985 2.29689 0
M  V30 1668 O 149.448 2.40707 3.34864 0
M  V30 1669 H 148.789 0.557746 0.360299 0
M  V30 1670 H 151.319 1.97535 0.533005 0
M  V30 1671 H 151.329 3.01693 2.74673 0
M  V30 1672 H 150.004 3.72935 1.84098 0
M  V30 1673 H 148.581 2.27523 2.95445 0
M  V30 1674 N 150.766 -0.704594 1.40972 0
M  V30 1675 C 152.182 -1.01406 1.23244 0
M  V30 1676 C 152.382 -2.01169 0.115399 0
M  V30 1677 O 151.438 -2.47021 -0.523147 0
M  V30 1678 C 152.751 -1.54728 2.57836 0
M  V30 1679 C 154.299 -1.66658 2.64942 0
M  V30 1680 C 154.774 -2.23383 3.9983 0
M  V30 1681 N 156.265 -2.30756 4.01629 0
M  V30 1682 C 157 -2.75655 5.02794 0
M  V30 1683 N 156.496 -3.20225 6.14352 0
M  V30 1684 N 158.289 -2.75138 4.90159 0
M  V30 1685 H 150.44 -0.0435285 2.12355 0
M  V30 1686 H 152.703 -0.0818951 0.944456 0
M  V30 1687 H 152.409 -0.888832 3.40283 0
M  V30 1688 H 152.283 -2.53084 2.79693 0
M  V30 1689 H 154.67 -2.31617 1.8286 0
M  V30 1690 H 154.751 -0.668717 2.46904 0
M  V30 1691 H 154.395 -1.59043 4.82357 0
M  V30 1692 H 154.325 -3.23904 4.15203 0
M  V30 1693 H 156.816 -1.99291 3.21079 0
M  V30 1694 H 157.129 -3.53084 6.87424 0
M  V30 1695 H 155.474 -3.18156 6.17901 0
M  V30 1696 H 158.665 -2.39661 4.02095 0
M  V30 1697 H 158.838 -3.09812 5.6914 0
M  V30 1698 N 152.244 -1.26651 -0.937939 0
M  V30 1699 C 153.491 -1.12387 -1.6845 0
M  V30 1700 C 153.819 0.332208 -1.91642 0
M  V30 1701 O 153.074 1.2602 -1.49725 0
M  V30 1702 C 153.373 -1.84168 -3.06295 0
M  V30 1703 C 153.039 -3.34056 -3.02849 0
M  V30 1704 C 151.701 -3.74942 -3.01616 0
M  V30 1705 C 154.053 -4.29741 -2.9491 0
M  V30 1706 C 151.381 -5.09894 -2.90215 0
M  V30 1707 C 153.733 -5.64738 -2.8505 0
M  V30 1708 C 152.397 -6.0493 -2.82162 0
M  V30 1709 H 151.667 -0.411252 -0.616403 0
M  V30 1710 H 154.314 -1.57134 -1.09459 0
M  V30 1711 H 152.619 -1.319 -3.6893 0
M  V30 1712 H 154.316 -1.70569 -3.62915 0
M  V30 1713 H 150.906 -3.01534 -3.0459 0
M  V30 1714 H 155.09 -3.99133 -2.94969 0
M  V30 1715 H 150.346 -5.40194 -2.86358 0
M  V30 1716 H 154.52 -6.38561 -2.77872 0
M  V30 1717 H 152.147 -7.09457 -2.73084 0
M  V30 1718 N 153.722 1.14298 -1.08507 0
M  V30 1719 C 154.947 1.8976 -0.837001 0
M  V30 1720 C 155.372 1.78097 0.605228 0
M  V30 1721 O 154.73 1.12188 1.4242 0
M  V30 1722 C 154.778 3.37685 -1.26495 0
M  V30 1723 O 153.882 4.10281 -0.417514 0
M  V30 1724 H 153.223 0.590365 -0.303917 0
M  V30 1725 H 155.753 1.44672 -1.44676 0
M  V30 1726 H 155.763 3.88501 -1.24625 0
M  V30 1727 H 154.438 3.45492 -2.31534 0
M  V30 1728 H 153.015 3.69536 -0.499722 0
M  V30 1729 N 155.201 0.870884 1.31352 0
M  V30 1730 C 156.164 0.332243 2.26779 0
M  V30 1731 C 157.164 -0.517302 1.52252 0
M  V30 1732 O 158.354 -0.326477 1.71113 0
M  V30 1733 C 155.486 -0.528066 3.36785 0
M  V30 1734 H 156.679 1.17469 2.75937 0
M  V30 1735 H 154.232 0.64655 1.423 0
M  V30 1736 H 154.967 -1.39167 2.92922 0
M  V30 1737 H 154.752 0.0802582 3.92018 0
M  V30 1738 H 156.242 -0.897179 4.07849 0
M  V30 1739 N 156.679 -1.44442 0.630414 0
M  V30 1740 C 157.907 -2.06414 0.141671 0
M  V30 1741 C 158.322 -1.47105 -1.18345 0
M  V30 1742 O 157.679 -0.593662 -1.72574 0
M  V30 1743 C 157.73 -3.61494 0.0199784 0
M  V30 1744 O 157.451 -4.18594 1.29269 0
M  V30 1745 C 158.952 -4.40499 -0.497544 0
M  V30 1746 H 156.172 -0.666292 0.0793452 0
M  V30 1747 H 158.716 -1.85323 0.864614 0
M  V30 1748 H 156.871 -3.8185 -0.653402 0
M  V30 1749 H 157.285 -5.12026 1.13707 0
M  V30 1750 H 158.759 -5.49433 -0.531708 0
M  V30 1751 H 159.236 -4.11895 -1.52445 0
M  V30 1752 H 159.842 -4.25061 0.142562 0
M  V30 1753 N 158.157 -0.370918 -1.53173 0
M  V30 1754 C 159.573 -0.0200818 -1.59587 0
M  V30 1755 C 159.773 1.46279 -1.38581 0
M  V30 1756 O 158.829 2.22506 -1.19363 0
M  V30 1757 C 160.142 -0.4808 -2.96831 0
M  V30 1758 C 161.69 -0.435477 -3.09956 0
M  V30 1759 C 162.165 -0.872092 -4.4962 0
M  V30 1760 N 163.656 -0.827364 -4.55751 0
M  V30 1761 C 164.391 -1.13683 -5.62018 0
M  V30 1762 N 163.887 -1.51584 -6.76014 0
M  V30 1763 N 165.68 -1.05927 -5.52029 0
M  V30 1764 H 157.831 -1.33652 -1.65079 0
M  V30 1765 H 160.094 -0.546634 -0.774529 0
M  V30 1766 H 159.8 -1.51577 -3.1736 0
M  V30 1767 H 159.674 0.129796 -3.76977 0
M  V30 1768 H 162.061 0.590371 -2.89134 0
M  V30 1769 H 162.142 -1.08164 -2.31806 0
M  V30 1770 H 161.786 -1.89608 -4.71181 0
M  V30 1771 H 161.716 -0.203127 -5.26208 0
M  V30 1772 H 164.207 -0.548216 -3.73902 0
M  V30 1773 H 164.52 -1.73609 -7.53047 0
M  V30 1774 H 162.865 -1.55454 -6.77391 0
M  V30 1775 H 166.056 -0.762321 -4.61851 0
M  V30 1776 H 166.229 -1.30378 -6.34749 0
M  V30 1777 N 159.635 1.57281 -0.100228 0
M  V30 1778 C 160.598 2.13158 0.842398 0
M  V30 1779 C 161.598 1.06202 1.20738 0
M  V30 1780 O 162.788 1.32066 1.13597 0
M  V30 1781 C 159.92 2.65639 2.13655 0
M  V30 1782 H 161.113 2.97766 0.357114 0
M  V30 1783 H 158.666 1.5559 0.148823 0
M  V30 1784 H 159.401 1.84566 2.66657 0
M  V30 1785 H 159.186 3.43844 1.88451 0
M  V30 1786 H 160.676 3.08846 2.81077 0
M  V30 1787 N 161.113 -0.173488 1.56642 0
M  V30 1788 C 162.043 -1.2171 1.99271 0
M  V30 1789 C 163.024 -1.46289 0.867959 0
M  V30 1790 O 164.209 -1.5766 1.13388 0
M  V30 1791 C 161.339 -2.55651 2.35074 0
M  V30 1792 C 160.293 -2.45645 3.50489 0
M  V30 1793 C 159.619 -3.84056 3.72028 0
M  V30 1794 C 160.919 -1.96302 4.84007 0
M  V30 1795 H 162.613 -0.86275 2.867 0
M  V30 1796 H 160.159 -0.413571 1.37933 0
M  V30 1797 H 162.112 -3.2886 2.63494 0
M  V30 1798 H 160.836 -2.92869 1.44552 0
M  V30 1799 H 159.495 -1.7489 3.22194 0
M  V30 1800 H 159.143 -4.18664 2.788 0
M  V30 1801 H 158.843 -3.7823 4.49684 0
M  V30 1802 H 160.367 -4.58854 4.02846 0
M  V30 1803 H 161.781 -2.59284 5.11317 0
M  V30 1804 H 160.178 -2.01429 5.65284 0
M  V30 1805 H 161.248 -0.917226 4.76146 0
M  V30 1806 N 162.591 -1.51276 -0.441967 0
M  V30 1807 C 163.837 -1.6492 -1.1905 0
M  V30 1808 C 164.192 -0.358731 -1.89026 0
M  V30 1809 O 163.485 0.645193 -1.8041 0
M  V30 1810 C 163.679 -2.78746 -2.23686 0
M  V30 1811 C 163.508 -4.18737 -1.63979 0
M  V30 1812 C 162.278 -4.84739 -1.42674 0
M  V30 1813 C 164.476 -5.01988 -1.11858 0
M  V30 1814 N 162.458 -6.08858 -0.785159 0
M  V30 1815 C 163.829 -6.17071 -0.601989 0
M  V30 1816 C 165.884 -4.87551 -1.0099 0
M  V30 1817 C 164.587 -7.19299 0.0126012 0
M  V30 1818 C 166.613 -5.89983 -0.409206 0
M  V30 1819 C 165.975 -7.04333 0.0968651 0
M  V30 1820 H 162.074 -0.657416 -0.423471 0
M  V30 1821 H 164.658 -1.8849 -0.48782 0
M  V30 1822 H 162.829 -2.56848 -2.91348 0
M  V30 1823 H 164.561 -2.81595 -2.90666 0
M  V30 1824 H 161.316 -4.42528 -1.68719 0
M  V30 1825 H 161.74 -6.75282 -0.481942 0
M  V30 1826 H 166.382 -3.99401 -1.38703 0
M  V30 1827 H 164.1 -8.071 0.401879 0
M  V30 1828 H 167.686 -5.8088 -0.327079 0
M  V30 1829 H 166.566 -7.82238 0.554373 0
M  V30 1830 N 164.069 0.697108 -1.41344 0
M  V30 1831 C 164.999 1.82353 -1.45841 0
M  V30 1832 C 165.98 1.67115 -0.317247 0
M  V30 1833 O 167.165 1.86871 -0.528474 0
M  V30 1834 C 164.295 3.20476 -1.33838 0
M  V30 1835 C 163.249 3.50415 -2.4575 0
M  V30 1836 C 162.575 4.87878 -2.18813 0
M  V30 1837 C 163.875 3.49546 -3.88091 0
M  V30 1838 H 165.569 1.78846 -2.40113 0
M  V30 1839 H 163.115 0.859028 -1.15571 0
M  V30 1840 H 165.068 3.98988 -1.35596 0
M  V30 1841 H 163.792 3.24604 -0.360498 0
M  V30 1842 H 162.451 2.74253 -2.43271 0
M  V30 1843 H 162.099 4.8863 -1.19371 0
M  V30 1844 H 161.799 5.08875 -2.93803 0
M  V30 1845 H 163.323 5.68702 -2.22284 0
M  V30 1846 H 164.737 4.18066 -3.92293 0
M  V30 1847 H 163.134 3.82075 -4.62751 0
M  V30 1848 H 164.204 2.48552 -4.16353 0
M  V30 1849 N 165.547 1.27147 0.931209 0
M  V30 1850 C 166.794 1.13278 1.67852 0
M  V30 1851 C 167.122 -0.32204 1.91815 0
M  V30 1852 O 166.377 -1.25224 1.50391 0
M  V30 1853 C 166.676 1.8579 3.05314 0
M  V30 1854 C 166.342 3.35657 3.01073 0
M  V30 1855 C 165.004 3.76536 2.99623 0
M  V30 1856 C 167.356 4.31299 2.92627 0
M  V30 1857 C 164.684 5.11426 2.87506 0
M  V30 1858 C 167.036 5.66242 2.82051 0
M  V30 1859 C 165.7 6.06418 2.7895 0
M  V30 1860 H 164.97 0.414515 0.614214 0
M  V30 1861 H 167.617 1.57712 1.08624 0
M  V30 1862 H 165.922 1.33854 3.68226 0
M  V30 1863 H 167.619 1.72491 3.62005 0
M  V30 1864 H 164.209 3.03146 3.02986 0
M  V30 1865 H 168.393 4.00692 2.92848 0
M  V30 1866 H 163.649 5.41705 2.83489 0
M  V30 1867 H 167.823 6.40026 2.74481 0
M  V30 1868 H 165.45 7.10895 2.69318 0
M  V30 1869 N 167.025 -1.13721 1.09112 0
M  V30 1870 C 168.25 -1.89314 0.847053 0
M  V30 1871 C 168.675 -1.78416 -0.595774 0
M  V30 1872 O 168.033 -1.12942 -1.41823 0
M  V30 1873 C 168.081 -3.3701 1.28284 0
M  V30 1874 O 167.185 -4.10054 0.439267 0
M  V30 1875 H 166.526 -0.588745 0.307044 0
M  V30 1876 H 169.056 -1.43902 1.45442 0
M  V30 1877 H 169.066 -3.87834 1.26683 0
M  V30 1878 H 167.741 -3.4426 2.33363 0
M  V30 1879 H 166.318 -3.69266 0.519312 0
M  V30 1880 N 168.503 -0.877838 -1.30888 0
M  V30 1881 C 169.914 -0.544193 -1.78593 0
M  V30 1882 C 170.265 0.939301 -1.72254 0
M  V30 1883 O 169.39 1.7337 -1.29505 0
M  V30 1884 C 169.985 -0.98105 -3.24285 0
M  V30 1885 C 168.544 -0.698935 -3.69854 0
M  V30 1886 C 167.691 -1.168 -2.51502 0
M  V30 1887 H 170.642 -1.06278 -1.17859 0
M  V30 1888 H 170.663 -0.307009 -3.79259 0
M  V30 1889 H 170.175 -2.06079 -3.28866 0
M  V30 1890 H 168.276 0.369112 -3.70767 0
M  V30 1891 H 168.389 -1.28148 -4.61644 0
M  V30 1892 H 166.753 -0.587535 -2.47831 0
M  V30 1893 H 167.536 -2.25533 -2.58824 0
M  V30 1894 N 169.982 1.44106 -0.638065 0
M  V30 1895 C 171.229 2.01978 -0.14533 0
M  V30 1896 C 171.557 1.50234 1.23532 0
M  V30 1897 O 170.812 0.679548 1.83523 0
M  V30 1898 C 171.111 3.5729 -0.0887327 0
M  V30 1899 C 170.777 4.28317 -1.40909 0
M  V30 1900 C 169.439 4.47437 -1.77069 0
M  V30 1901 C 171.791 4.6867 -2.28031 0
M  V30 1902 C 169.119 5.04171 -3.00047 0
M  V30 1903 C 171.471 5.26766 -3.50286 0
M  V30 1904 C 170.135 5.44104 -3.86661 0
M  V30 1905 H 169.405 0.739089 -0.0531801 0
M  V30 1906 H 172.052 1.72781 -0.825761 0
M  V30 1907 H 170.357 3.8594 0.675095 0
M  V30 1908 H 172.054 3.99807 0.309145 0
M  V30 1909 H 168.644 4.1377 -1.1177 0
M  V30 1910 H 172.828 4.53604 -2.01388 0
M  V30 1911 H 168.084 5.15782 -3.28298 0
M  V30 1912 H 172.258 5.56983 -4.18023 0
M  V30 1913 H 169.885 5.87832 -4.82034 0
M  V30 1914 N 171.46 0.379036 1.52974 0
M  V30 1915 C 172.408 -0.476033 2.27677 0
M  V30 1916 C 173.402 -1.0719 1.31174 0
M  V30 1917 O 174.608 -1.01355 1.48752 0
M  V30 1918 H 170.983 -0.172255 0.732006 0
M  V30 1919 H 172.954 0.175615 2.97883 0
M  V30 1920 C 171.703 -1.5967 3.0887 0
M  V30 1921 H 171.026 -1.1475 3.82978 0
M  V30 1922 H 172.466 -2.16943 3.64296 0
M  V30 1923 C 170.925 -2.54682 2.20542 0
M  V30 1924 O 171.455 -3.57836 1.82527 0
M  V30 1925 N 169.661 -2.24183 1.84907 0
M  V30 1926 H 169.208 -1.40333 2.1602 0
M  V30 1927 H 169.166 -2.88006 1.26096 0
M  V30 1928 N 172.938 -1.57226 0.108567 0
M  V30 1929 C 173.868 -2.17778 -0.84232 0
M  V30 1930 C 174.849 -1.11487 -1.2847 0
M  V30 1931 O 176.034 -1.39681 -1.34918 0
M  V30 1932 C 173.164 -2.76888 -2.09644 0
M  V30 1933 C 172.118 -3.88669 -1.79221 0
M  V30 1934 C 171.444 -4.34541 -3.11574 0
M  V30 1935 C 172.744 -5.11251 -1.06864 0
M  V30 1936 H 174.438 -2.97489 -0.337774 0
M  V30 1937 H 171.984 -1.43097 -0.161025 0
M  V30 1938 H 173.937 -3.17904 -2.76614 0
M  V30 1939 H 172.661 -1.94451 -2.62405 0
M  V30 1940 H 171.32 -3.48213 -1.14644 0
M  V30 1941 H 170.968 -3.48977 -3.62249 0
M  V30 1942 H 170.668 -5.09914 -2.91996 0
M  V30 1943 H 172.192 -4.782 -3.7968 0
M  V30 1944 H 173.606 -5.49352 -1.63968 0
M  V30 1945 H 172.003 -5.9214 -0.974178 0
M  V30 1946 H 173.073 -4.8487 -0.0536168 0
M  V30 1947 N 174.416 0.165178 -1.56732 0
M  V30 1948 C 175.665 0.879143 -1.81532 0
M  V30 1949 C 175.978 1.83144 -0.686842 0
M  V30 1950 O 177.184 2.58823 -0.819944 0
M  V30 1951 C 175.64 1.61388 -3.21686 0
M  V30 1952 C 175.248 0.704904 -4.4242 0
M  V30 1953 C 176.992 2.3157 -3.55774 0
M  V30 1954 C 174.899 1.44022 -5.73595 0
M  V30 1955 H 173.829 0.332033 -0.676957 0
M  V30 1956 H 176.48 0.132008 -1.83025 0
M  V30 1957 H 174.862 2.40599 -3.14529 0
M  V30 1958 H 176.036 -0.0506815 -4.60772 0
M  V30 1959 H 174.351 0.112419 -4.16248 0
M  V30 1960 H 176.948 2.8719 -4.51028 0
M  V30 1961 H 177.291 3.07201 -2.8095 0
M  V30 1962 H 177.824 1.59297 -3.64513 0
M  V30 1963 H 174.563 0.72612 -6.51466 0
M  V30 1964 H 174.083 2.16898 -5.5921 0
M  V30 1965 H 175.762 1.98606 -6.15764 0
M  V30 1966 N 175.894 1.51508 0.433938 0
M  V30 1967 C 177.31 1.39759 0.770682 0
M  V30 1968 C 177.51 0.482594 1.95636 0
M  V30 1969 O 176.566 -0.0609691 2.52426 0
M  V30 1970 C 177.879 2.81851 1.04787 0
M  V30 1971 C 179.427 2.91025 1.1521 0
M  V30 1972 C 179.902 4.34032 1.46219 0
M  V30 1973 N 181.393 4.37154 1.53136 0
M  V30 1974 C 182.128 5.4484 1.78709 0
M  V30 1975 N 181.624 6.62682 2.02051 0
M  V30 1976 N 183.417 5.32324 1.80519 0
M  V30 1977 H 175.568 2.09548 -0.346892 0
M  V30 1978 H 177.831 0.943446 -0.0928074 0
M  V30 1979 H 177.537 3.50815 0.249304 0
M  V30 1980 H 177.411 3.21386 1.97461 0
M  V30 1981 H 179.798 2.22257 1.94128 0
M  V30 1982 H 179.879 2.54983 0.204281 0
M  V30 1983 H 179.523 5.03351 0.678274 0
M  V30 1984 H 179.453 4.6759 2.42212 0
M  V30 1985 H 181.944 3.52197 1.36987 0
M  V30 1986 H 182.257 7.40543 2.20943 0
M  V30 1987 H 180.602 6.65791 1.99366 0
M  V30 1988 H 183.793 4.39246 1.61805 0
M  V30 1989 H 183.966 6.16328 2.00111 0
M  V30 1990 N 177.372 -0.689602 1.41712 0
M  V30 1991 C 178.788 -1.00093 1.24312 0
M  V30 1992 C 178.988 -2.01036 0.136729 0
M  V30 1993 O 178.044 -2.47562 -0.496918 0
M  V30 1994 C 179.357 -1.51985 2.59463 0
M  V30 1995 C 180.905 -1.63838 2.66695 0
M  V30 1996 C 181.38 -2.1913 4.02177 0
M  V30 1997 N 182.871 -2.26483 4.04054 0
M  V30 1998 C 183.606 -2.70306 5.0569 0
M  V30 1999 N 183.102 -3.13691 6.17713 0
M  V30 2000 N 184.895 -2.69923 4.9305 0
M  V30 2001 H 177.046 -0.0210029 2.1239 0
M  V30 2002 H 179.309 -0.0718733 0.945272 0
M  V30 2003 H 179.015 -0.85269 3.41207 0
M  V30 2004 H 178.889 -2.50103 2.82362 0
M  V30 2005 H 181.276 -2.29664 1.85306 0
M  V30 2006 H 181.357 -0.642492 2.476 0
M  V30 2007 H 181.001 -1.53918 4.84016 0
M  V30 2008 H 180.931 -3.19482 4.18615 0
M  V30 2009 H 183.422 -1.95874 3.23174 0
M  V30 2010 H 183.735 -3.45773 6.9113 0
M  V30 2011 H 182.08 -3.11585 6.21241 0
M  V30 2012 H 185.271 -2.35382 4.04614 0
M  V30 2013 H 185.444 -3.03758 5.72394 0
M  V30 2014 N 178.85 -1.27639 -0.924453 0
M  V30 2015 C 180.078 -1.16989 -1.70649 0
M  V30 2016 C 180.493 0.272869 -1.86818 0
M  V30 2017 O 179.85 1.18549 -1.38753 0
M  V30 2018 C 179.901 -1.85229 -3.10439 0
M  V30 2019 O 179.622 -3.23868 -2.95028 0
M  V30 2020 C 181.123 -1.80746 -4.04779 0
M  V30 2021 H 178.343 -0.406595 -0.53378 0
M  V30 2022 H 180.887 -1.68569 -1.15778 0
M  V30 2023 H 179.042 -1.37545 -3.6216 0
M  V30 2024 H 179.456 -3.57889 -3.83426 0
M  V30 2025 H 180.93 -2.33101 -5.00368 0
M  V30 2026 H 181.407 -0.777499 -4.32263 0
M  V30 2027 H 182.013 -2.28059 -3.58984 0
M  V30 2028 N 180.328 1.1314 -1.09713 0
M  V30 2029 C 181.291 2.16831 -0.742751 0
M  V30 2030 C 182.291 1.59159 0.229129 0
M  V30 2031 O 183.481 1.74199 0.00693237 0
M  V30 2032 C 180.613 3.40756 -0.0989168 0
M  V30 2033 H 181.806 2.49695 -1.66109 0
M  V30 2034 H 179.359 1.2802 -0.896699 0
M  V30 2035 H 180.094 3.13485 0.830514 0
M  V30 2036 H 179.879 3.83888 -0.798265 0
M  V30 2037 H 181.369 4.17386 0.133524 0
M  V30 2038 N 181.806 0.884767 1.30421 0
M  V30 2039 C 183.055 0.499164 1.95426 0
M  V30 2040 C 183.368 -0.95645 1.70621 0
M  V30 2041 O 184.574 -1.44889 2.29607 0
M  V30 2042 C 183.03 0.84177 3.49917 0
M  V30 2043 C 182.638 2.31514 3.83543 0
M  V30 2044 C 184.382 0.525355 4.21237 0
M  V30 2045 C 182.289 2.59939 5.31212 0
M  V30 2046 H 181.219 0.182944 0.73147 0
M  V30 2047 H 183.87 1.07971 1.48373 0
M  V30 2048 H 182.252 0.190311 3.95542 0
M  V30 2049 H 183.426 3.0109 3.48829 0
M  V30 2050 H 181.741 2.59907 3.25326 0
M  V30 2051 H 184.338 0.714762 5.29901 0
M  V30 2052 H 184.681 -0.535222 4.12845 0
M  V30 2053 H 185.214 1.134 3.81294 0
M  V30 2054 H 181.953 3.64736 5.44654 0
M  V30 2055 H 181.473 1.94972 5.67227 0
M  V30 2056 H 183.152 2.45429 5.98643 0
M  V30 2057 N 183.284 -1.43765 0.645699 0
M  V30 2058 C 184.231 -2.30745 -0.0504648 0
M  V30 2059 C 185.201 -1.4432 -0.822241 0
M  V30 2060 O 186.386 -1.73202 -0.800358 0
M  V30 2061 C 183.526 -3.29802 -1.0161 0
M  V30 2062 C 182.639 -4.31326 -0.241219 0
M  V30 2063 C 181.774 -5.17469 -1.19998 0
M  V30 2064 C 180.813 -6.10691 -0.415094 0
M  V30 2065 N 179.95 -6.89483 -1.32506 0
M  V30 2066 H 184.79 -2.8973 0.697155 0
M  V30 2067 H 182.327 -1.42738 0.355563 0
M  V30 2068 H 184.285 -3.85734 -1.58949 0
M  V30 2069 H 182.915 -2.72483 -1.73069 0
M  V30 2070 H 181.967 -3.77749 0.448334 0
M  V30 2071 H 183.279 -4.9743 0.369437 0
M  V30 2072 H 182.433 -5.7799 -1.84424 0
M  V30 2073 H 181.172 -4.51473 -1.84455 0
M  V30 2074 H 180.177 -5.49265 0.242565 0
M  V30 2075 H 181.402 -6.78727 0.224966 0
M  V30 2076 H 179.348 -6.26142 -1.95657 0
M  V30 2077 H 179.265 -7.52081 -0.768783 0
M  V30 2078 H 180.533 -7.54516 -1.9577 0
M  V30 2079 N 184.763 -0.387143 -1.52771 0
M  V30 2080 C 186.009 0.196025 -2.0185 0
M  V30 2081 C 186.342 1.46641 -1.27319 0
M  V30 2082 O 185.617 1.90889 -0.373032 0
M  V30 2083 C 185.9 0.466136 -3.5707 0
M  V30 2084 C 185.753 -0.819385 -4.42274 0
M  V30 2085 C 187.072 1.25768 -4.21747 0
M  V30 2086 H 184.191 0.0697708 -0.73369 0
M  V30 2087 H 186.833 -0.516286 -1.82851 0
M  V30 2088 H 184.983 1.07293 -3.7339 0
M  V30 2089 H 186.655 -1.4563 -4.37709 0
M  V30 2090 H 184.898 -1.43517 -4.09372 0
M  V30 2091 H 185.569 -0.585065 -5.48891 0
M  V30 2092 H 188.045 0.744167 -4.09391 0
M  V30 2093 H 186.921 1.41541 -5.30337 0
M  V30 2094 H 187.182 2.27228 -3.79236 0
M  V30 2095 N 186.241 1.57166 -0.116904 0
M  V30 2096 C 187.466 1.999 0.55271 0
M  V30 2097 C 187.891 0.996039 1.59564 0
M  V30 2098 O 187.249 -0.032556 1.81271 0
M  V30 2099 C 187.297 3.4152 1.15742 0
M  V30 2100 O 186.401 3.44106 2.27299 0
M  V30 2101 H 185.742 0.649447 0.138258 0
M  V30 2102 H 188.272 2.03573 -0.204759 0
M  V30 2103 H 188.282 3.79684 1.49346 0
M  V30 2104 H 186.957 4.14034 0.393493 0
M  V30 2105 H 185.534 3.17759 1.9515 0
M  V30 2106 N 187.719 -0.156864 1.56817 0
M  V30 2107 C 188.965 -0.872416 1.83076 0
M  V30 2108 C 189.298 -1.81261 0.697001 0
M  V30 2109 O 188.573 -1.92171 -0.30008 0
M  V30 2110 C 188.856 -1.65551 3.19789 0
M  V30 2111 C 188.709 -0.737467 4.43713 0
M  V30 2112 C 190.028 -2.62012 3.53606 0
M  V30 2113 H 187.147 -0.315715 0.665953 0
M  V30 2114 H 189.789 -0.138004 1.89498 0
M  V30 2115 H 187.939 -2.28159 3.14445 0
M  V30 2116 H 189.611 -0.123143 4.61136 0
M  V30 2117 H 187.854 -0.0464067 4.33775 0
M  V30 2118 H 188.525 -1.32122 5.35955 0
M  V30 2119 H 191.001 -2.09525 3.59497 0
M  V30 2120 H 189.877 -3.13861 4.50314 0
M  V30 2121 H 190.138 -3.42902 2.79053 0
M  V30 2122 N 189.197 -1.51736 -0.425897 0
M  V30 2123 C 190.147 -1.70258 -1.51645 0
M  V30 2124 C 191.131 -0.556488 -1.5097 0
M  V30 2125 O 192.323 -0.812879 -1.5723 0
M  V30 2126 C 189.452 -1.84143 -2.89735 0
M  V30 2127 C 188.538 -3.04572 -2.95122 0
M  V30 2128 N 188.929 -4.2756 -2.70233 0
M  V30 2129 C 187.227 -3.04061 -3.26286 0
M  V30 2130 C 187.928 -5.08908 -2.81757 0
M  V30 2131 N 186.904 -4.43797 -3.13919 0
M  V30 2132 H 190.706 -2.63004 -1.31172 0
M  V30 2133 H 188.22 -1.4954 -0.633375 0
M  V30 2134 H 190.217 -1.95525 -3.68206 0
M  V30 2135 H 188.877 -0.925857 -3.1122 0
M  V30 2136 H 189.888 -4.56315 -2.44943 0
M  V30 2137 H 186.565 -2.22179 -3.53473 0
M  V30 2138 H 187.955 -6.16843 -2.66372 0
M  V30 2139 N 190.675 0.682077 -1.42076 0
M  V30 2140 C 191.9 1.47558 -1.45744 0
M  V30 2141 C 192.325 1.87977 -0.0680981 0
M  V30 2142 O 191.683 1.55522 0.9318 0
M  V30 2143 C 191.731 2.70575 -2.38373 0
M  V30 2144 O 190.835 3.68573 -1.85007 0
M  V30 2145 H 190.176 0.443585 -0.494093 0
M  V30 2146 H 192.706 0.837238 -1.86686 0
M  V30 2147 H 192.716 3.18729 -2.54707 0
M  V30 2148 H 191.391 2.40495 -3.39315 0
M  V30 2149 H 189.968 3.2757 -1.78192 0
M  V30 2150 N 192.153 1.28127 0.917671 0
M  V30 2151 C 193.399 1.16232 1.66918 0
M  V30 2152 C 193.754 -0.28701 1.90247 0
M  V30 2153 O 193.047 -1.20586 1.48895 0
M  V30 2154 C 193.241 1.89018 3.03327 0
M  V30 2155 C 193.07 3.4088 2.9331 0
M  V30 2156 C 191.84 4.10214 2.95047 0
M  V30 2157 C 194.038 4.36689 2.71675 0
M  V30 2158 N 192.02 5.48571 2.75577 0
M  V30 2159 C 193.391 5.62382 2.6101 0
M  V30 2160 C 195.446 4.26661 2.56641 0
M  V30 2161 C 194.149 6.79189 2.36843 0
M  V30 2162 C 196.175 5.432 2.33853 0
M  V30 2163 C 195.537 6.67855 2.23939 0
M  V30 2164 H 191.636 0.48024 0.617166 0
M  V30 2165 H 194.22 1.61727 1.08409 0
M  V30 2166 H 192.391 1.45963 3.59929 0
M  V30 2167 H 194.123 1.69541 3.67475 0
M  V30 2168 H 190.878 3.61762 3.05655 0
M  V30 2169 H 191.302 6.21287 2.68945 0
M  V30 2170 H 195.944 3.30998 2.63059 0
M  V30 2171 H 193.662 7.74926 2.29164 0
M  V30 2172 H 197.248 5.37328 2.23091 0
M  V30 2173 H 196.128 7.56511 2.06546 0
M  V30 2174 N 193.631 -1.12557 1.10312 0
M  V30 2175 C 194.878 -1.84038 0.844759 0
M  V30 2176 C 195.206 -1.84026 -0.629668 0
M  V30 2177 O 194.461 -1.28026 -1.48013 0
M  V30 2178 C 194.76 -3.31462 1.33669 0
M  V30 2179 C 194.426 -3.51647 2.82232 0
M  V30 2180 C 193.088 -3.56864 3.22802 0
M  V30 2181 C 195.44 -3.58867 3.77974 0
M  V30 2182 C 192.768 -3.66844 4.57867 0
M  V30 2183 C 195.12 -3.70375 5.1284 0
M  V30 2184 C 193.784 -3.73848 5.52986 0
M  V30 2185 H 193.054 -0.673444 0.309119 0
M  V30 2186 H 195.701 -1.32824 1.37949 0
M  V30 2187 H 194.006 -3.85091 0.721949 0
M  V30 2188 H 195.703 -3.85236 1.11329 0
M  V30 2189 H 192.293 -3.48249 2.49842 0
M  V30 2190 H 196.477 -3.54107 3.47738 0
M  V30 2191 H 191.733 -3.67804 4.88396 0
M  V30 2192 H 195.907 -3.74904 5.86873 0
M  V30 2193 H 193.534 -3.81333 6.57639 0
M  V30 2194 N 195.109 -0.891671 -1.2995 0
M  V30 2195 C 196.334 -0.527932 -2.00568 0
M  V30 2196 C 196.759 0.877969 -1.66353 0
M  V30 2197 O 196.117 1.58301 -0.883762 0
M  V30 2198 C 196.165 -0.717745 -3.53385 0
M  V30 2199 O 195.269 0.233376 -4.11739 0
M  V30 2200 H 194.61 -0.20722 -0.630837 0
M  V30 2201 H 197.14 -1.20105 -1.65638 0
M  V30 2202 H 197.15 -0.619307 -4.03272 0
M  V30 2203 H 195.825 -1.74276 -3.77625 0
M  V30 2204 H 194.402 0.0880706 -3.72796 0
M  V30 2205 N 196.587 1.43421 -0.653314 0
M  V30 2206 C 197.517 2.33487 0.0246656 0
M  V30 2207 C 198.498 1.49475 0.811863 0
M  V30 2208 O 199.683 1.78139 0.773322 0
M  V30 2209 C 196.813 3.32841 0.99166 0
M  V30 2210 C 195.767 4.26842 0.314568 0
M  V30 2211 C 195.093 5.16236 1.39302 0
M  V30 2212 C 196.393 5.16243 -0.793095 0
M  V30 2213 H 198.087 2.90427 -0.727481 0
M  V30 2214 H 195.633 1.39649 -0.351287 0
M  V30 2215 H 197.586 3.94747 1.47487 0
M  V30 2216 H 196.31 2.74158 1.77497 0
M  V30 2217 H 194.969 3.663 -0.148199 0
M  V30 2218 H 194.617 4.53891 2.16776 0
M  V30 2219 H 194.317 5.79948 0.945223 0
M  V30 2220 H 195.841 5.81015 1.87759 0
M  V30 2221 H 197.255 5.71958 -0.392039 0
M  V30 2222 H 195.652 5.88676 -1.16536 0
M  V30 2223 H 196.722 4.55927 -1.65103 0
M  V30 2224 N 198.065 0.39524 1.52563 0
M  V30 2225 C 199.312 -0.185044 2.01653 0
M  V30 2226 C 199.64 -1.46317 1.28146 0
M  V30 2227 O 198.895 -1.9213 0.372074 0
M  V30 2228 C 199.194 -0.493444 3.53977 0
M  V30 2229 C 198.86 0.69384 4.4553 0
M  V30 2230 C 197.522 1.01954 4.70275 0
M  V30 2231 C 199.874 1.48785 4.99512 0
M  V30 2232 C 197.202 2.14069 5.46252 0
M  V30 2233 C 199.554 2.59965 5.76716 0
M  V30 2234 C 198.218 2.93037 5.99738 0
M  V30 2235 H 197.488 -0.0677123 0.7379 0
M  V30 2236 H 200.135 0.533807 1.8391 0
M  V30 2237 H 198.44 -1.29369 3.69825 0
M  V30 2238 H 200.137 -0.955163 3.89458 0
M  V30 2239 H 196.727 0.429987 4.26438 0
M  V30 2240 H 200.911 1.24946 4.80315 0
M  V30 2241 H 196.167 2.40056 5.62302 0
M  V30 2242 H 200.341 3.21887 6.17545 0
M  V30 2243 H 197.968 3.8003 6.58393 0
M  V30 2244 N 199.544 -1.57102 0.125237 0
M  V30 2245 C 200.793 -1.94582 -0.531095 0
M  V30 2246 C 201.106 -1.01126 -1.6743 0
M  V30 2247 O 202.312 -1.28097 -2.39381 0
M  V30 2248 C 200.768 -3.45839 -0.996164 0
M  V30 2249 C 200.376 -4.47842 0.118926 0
M  V30 2250 C 202.12 -3.92227 -1.62352 0
M  V30 2251 C 200.027 -5.90284 -0.363192 0
M  V30 2252 H 198.957 -0.726391 -0.20217 0
M  V30 2253 H 201.608 -1.82339 0.206092 0
M  V30 2254 H 199.99 -3.53338 -1.78796 0
M  V30 2255 H 201.164 -4.52018 0.895358 0
M  V30 2256 H 199.479 -4.11243 0.653324 0
M  V30 2257 H 202.076 -4.96069 -1.99548 0
M  V30 2258 H 202.419 -3.32552 -2.50429 0
M  V30 2259 H 202.952 -3.87554 -0.897019 0
M  V30 2260 H 199.691 -6.53728 0.481679 0
M  V30 2261 H 199.211 -5.89515 -1.10597 0
M  V30 2262 H 200.89 -6.41752 -0.822377 0
M  V30 2263 N 201.022 0.148545 -1.56898 0
M  V30 2264 C 202.25 0.876389 -1.87422 0
M  V30 2265 C 202.665 1.74809 -0.713256 0
M  V30 2266 O 202.022 1.79725 0.317025 0
M  V30 2267 C 202.073 1.73438 -3.17178 0
M  V30 2268 O 201.794 0.897809 -4.28802 0
M  V30 2269 C 203.295 2.56993 -3.61205 0
M  V30 2270 H 200.515 0.253489 -0.621277 0
M  V30 2271 H 203.059 0.141798 -2.04008 0
M  V30 2272 H 201.214 2.42205 -3.0235 0
M  V30 2273 H 201.628 1.48672 -5.02988 0
M  V30 2274 H 203.102 3.12773 -4.54838 0
M  V30 2275 H 203.579 3.32958 -2.86419 0
M  V30 2276 H 204.185 1.9352 -3.78722 0
M  V30 2277 N 202.5 1.5196 0.417844 0
M  V30 2278 C 203.746 1.65836 1.16732 0
M  V30 2279 C 204.079 0.382881 1.90388 0
M  V30 2280 O 203.354 -0.618368 1.84408 0
M  V30 2281 C 203.637 2.87466 2.16876 0
M  V30 2282 C 203.49 4.25041 1.47174 0
M  V30 2283 C 204.809 3.04613 3.17646 0
M  V30 2284 H 201.928 0.603515 0.423011 0
M  V30 2285 H 204.57 1.84494 0.454105 0
M  V30 2286 H 202.72 2.71689 2.777 0
M  V30 2287 H 204.392 4.52527 0.895376 0
M  V30 2288 H 202.635 4.26843 0.773806 0
M  V30 2289 H 203.306 5.06176 2.20204 0
M  V30 2290 H 205.782 3.1923 2.66892 0
M  V30 2291 H 204.658 3.91247 3.8499 0
M  V30 2292 H 204.919 2.17541 3.84874 0
M  V30 2293 N 203.978 -0.674533 1.42435 0
M  V30 2294 C 205.206 -1.46283 1.46317 0
M  V30 2295 C 205.621 -1.88653 0.0745836 0
M  V30 2296 O 204.978 -1.58151 -0.91074 0
M  V30 2297 C 205.029 -2.71178 2.3905 0
M  V30 2298 O 204.75 -2.30586 3.72507 0
M  V30 2299 C 206.251 -3.64738 2.51955 0
M  V30 2300 H 203.471 -0.450104 0.497642 0
M  V30 2301 H 206.015 -0.828792 1.86953 0
M  V30 2302 H 204.17 -3.3077 2.01667 0
M  V30 2303 H 204.584 -3.11241 4.22172 0
M  V30 2304 H 206.058 -4.49096 3.20962 0
M  V30 2305 H 206.535 -4.10656 1.55752 0
M  V30 2306 H 207.141 -3.11038 2.90061 0
M  V30 2307 N 205.456 -1.28612 -0.910864 0
M  V30 2308 C 206.705 -1.15311 -1.65488 0
M  V30 2309 C 207.018 0.296999 -1.93332 0
M  V30 2310 O 208.224 0.551168 -2.65847 0
M  V30 2311 C 206.68 -2.01599 -2.98137 0
M  V30 2312 C 206.288 -3.51367 -2.7793 0
M  V30 2313 C 208.032 -1.96993 -3.76024 0
M  V30 2314 C 205.939 -4.29797 -4.06237 0
M  V30 2315 H 204.869 -0.42796 -0.620779 0
M  V30 2316 H 207.52 -1.53166 -1.01057 0
M  V30 2317 H 205.902 -1.56603 -3.63719 0
M  V30 2318 H 207.076 -4.0434 -2.21011 0
M  V30 2319 H 205.391 -3.57529 -2.13452 0
M  V30 2320 H 207.988 -2.52856 -4.71135 0
M  V30 2321 H 208.331 -0.94733 -4.05378 0
M  V30 2322 H 208.864 -2.39973 -3.17266 0
M  V30 2323 H 205.603 -5.32648 -3.82055 0
M  V30 2324 H 205.123 -3.81596 -4.62757 0
M  V30 2325 H 206.802 -4.39869 -4.74473 0
M  V30 2326 N 206.934 1.1197 -1.10907 0
M  V30 2327 C 207.864 2.19928 -0.784473 0
M  V30 2328 C 208.845 1.6833 0.244726 0
M  V30 2329 O 210.03 1.93892 0.109418 0
M  V30 2330 C 207.16 3.46597 -0.220827 0
M  V30 2331 C 206.114 4.11376 -1.18127 0
M  V30 2332 C 205.44 5.32554 -0.478594 0
M  V30 2333 C 206.74 4.56945 -2.52979 0
M  V30 2334 H 208.434 2.47337 -1.68715 0
M  V30 2335 H 205.98 1.18879 -0.812642 0
M  V30 2336 H 207.933 4.21396 0.0184278 0
M  V30 2337 H 206.657 3.1863 0.717113 0
M  V30 2338 H 205.316 3.38564 -1.40606 0
M  V30 2339 H 204.964 5.00856 0.463976 0
M  V30 2340 H 204.664 5.76844 -1.11912 0
M  V30 2341 H 206.188 6.10096 -0.248 0
M  V30 2342 H 207.602 5.23093 -2.3462 0
M  V30 2343 H 205.999 5.1203 -3.12962 0
M  V30 2344 H 207.069 3.70676 -3.12614 0
M  V30 2345 N 208.412 0.89855 1.29475 0
M  V30 2346 C 209.658 0.524658 1.95896 0
M  V30 2347 C 209.991 -0.926468 1.70676 0
M  V30 2348 O 209.266 -1.65665 1.01908 0
M  V30 2349 C 209.549 0.81633 3.50725 0
M  V30 2350 C 209.402 2.31907 3.85408 0
M  V30 2351 C 210.721 0.302038 4.39062 0
M  V30 2352 H 207.84 0.19209 0.711527 0
M  V30 2353 H 210.482 1.12502 1.53112 0
M  V30 2354 H 208.632 0.305369 3.87298 0
M  V30 2355 H 210.304 2.89949 3.58786 0
M  V30 2356 H 208.547 2.78027 3.32992 0
M  V30 2357 H 209.218 2.47373 4.93468 0
M  V30 2358 H 211.694 0.739551 4.09475 0
M  V30 2359 H 210.57 0.535331 5.46283 0
M  V30 2360 H 210.831 -0.797216 4.34853 0
M  V30 2361 N 209.89 -1.43072 0.660911 0
M  V30 2362 C 210.838 -2.32569 -0.0378199 0
M  V30 2363 C 211.832 -1.49046 -0.805092 0
M  V30 2364 O 213.038 -1.65206 -0.714624 0
M  V30 2365 H 209.413 -0.75136 -0.031019 0
M  V30 2366 H 211.384 -2.89216 0.734609 0
M  V30 2367 C 210.133 -3.33453 -0.985124 0
M  V30 2368 H 209.456 -3.97752 -0.404147 0
M  V30 2369 H 210.896 -3.98691 -1.44297 0
M  V30 2370 C 209.355 -2.64642 -2.08486 0
M  V30 2371 O 209.885 -2.46776 -3.16961 0
M  V30 2372 N 208.091 -2.23891 -1.8526 0
M  V30 2373 H 207.638 -2.38621 -0.970449 0
M  V30 2374 H 207.596 -1.78181 -2.59034 0
M  V30 2375 N 211.368 -0.403325 -1.52352 0
M  V30 2376 C 212.608 0.173946 -2.03659 0
M  V30 2377 C 212.972 1.42869 -1.28267 0
M  V30 2378 O 214.173 2.08403 -1.69769 0
M  V30 2379 C 212.444 0.421478 -3.54906 0
M  V30 2380 S 214.003 0.967027 -4.28012 0
M  V30 2381 H 210.821 0.0477461 -0.709395 0
M  V30 2382 H 213.423 -0.554906 -1.87459 0
M  V30 2383 H 212.127 -0.498616 -4.0736 0
M  V30 2384 H 211.658 1.17837 -3.75337 0
M  V30 2385 H 213.673 2.24812 -4.4235 0
M  V30 2386 N 212.846 1.57033 -0.133567 0
M  V30 2387 C 214.092 1.95976 0.521649 0
M  V30 2388 C 214.425 1.01779 1.65393 0
M  V30 2389 O 213.7 0.0576581 1.94415 0
M  V30 2390 C 213.983 3.44738 1.04057 0
M  V30 2391 C 213.836 4.49711 -0.0892897 0
M  V30 2392 C 215.155 3.95682 1.92675 0
M  V30 2393 H 212.274 0.712579 0.188149 0
M  V30 2394 H 214.916 1.88813 -0.212076 0
M  V30 2395 H 213.066 3.50973 1.66583 0
M  V30 2396 H 214.738 4.55565 -0.725152 0
M  V30 2397 H 212.981 4.27261 -0.750378 0
M  V30 2398 H 213.652 5.51099 0.315284 0
M  V30 2399 H 216.128 3.91841 1.39998 0
M  V30 2400 H 215.004 5.00262 2.25897 0
M  V30 2401 H 215.265 3.37239 2.85872 0
M  V30 2402 N 214.325 -0.140222 1.56975 0
M  V30 2403 C 215.565 -0.857823 1.85528 0
M  V30 2404 C 215.929 -1.78039 0.718768 0
M  V30 2405 O 217.13 -2.53795 0.885521 0
M  V30 2406 C 215.401 -1.60615 3.19277 0
M  V30 2407 S 216.96 -2.36824 3.69405 0
M  V30 2408 H 213.778 -0.286727 0.650622 0
M  V30 2409 H 216.38 -0.117408 1.95147 0
M  V30 2410 H 215.084 -0.919994 3.99955 0
M  V30 2411 H 214.615 -2.38735 3.12681 0
M  V30 2412 H 216.63 -3.62148 3.3921 0
M  V30 2413 N 215.803 -1.52179 -0.40978 0
M  V30 2414 C 216.736 -1.70196 -1.52015 0
M  V30 2415 C 217.714 -0.549542 -1.53032 0
M  V30 2416 O 218.898 -0.776815 -1.71749 0
M  V30 2417 C 216.025 -1.74069 -2.90547 0
M  V30 2418 C 215.071 -2.95601 -3.07445 0
M  V30 2419 S 215.904 -4.55956 -2.80827 0
M  V30 2420 C 217.06 -4.62614 -4.21591 0
M  V30 2421 H 217.293 -2.64109 -1.36504 0
M  V30 2422 H 214.826 -1.4221 -0.601312 0
M  V30 2423 H 216.784 -1.76985 -3.70387 0
M  V30 2424 H 215.445 -0.812835 -3.034 0
M  V30 2425 H 214.638 -2.94791 -4.08796 0
M  V30 2426 H 214.24 -2.90569 -2.35469 0
M  V30 2427 H 216.532 -4.39951 -5.15218 0
M  V30 2428 H 217.475 -5.64548 -4.27424 0
M  V30 2429 H 217.883 -3.91654 -4.06531 0
M  V30 2430 N 217.281 0.66697 -1.42791 0
M  V30 2431 C 218.509 1.45505 -1.47091 0
M  V30 2432 C 218.924 1.8861 -0.0845873 0
M  V30 2433 O 218.281 1.58632 0.90234 0
M  V30 2434 C 218.332 2.69906 -2.40485 0
M  V30 2435 O 218.053 2.28608 -3.73725 0
M  V30 2436 C 219.554 3.63396 -2.53886 0
M  V30 2437 H 216.774 0.447459 -0.500022 0
M  V30 2438 H 219.318 0.818866 -1.8739 0
M  V30 2439 H 217.473 3.29696 -2.03419 0
M  V30 2440 H 217.887 3.08997 -4.23817 0
M  V30 2441 H 219.361 4.47387 -3.2334 0
M  V30 2442 H 219.838 4.09824 -1.57927 0
M  V30 2443 H 220.444 3.09495 -2.91706 0
M  V30 2444 N 218.759 1.29093 0.90403 0
M  V30 2445 C 220.175 1.07011 1.1841 0
M  V30 2446 C 220.375 -0.181358 2.00682 0
M  V30 2447 O 219.431 -0.880331 2.36657 0
M  V30 2448 C 220.744 2.32311 1.90924 0
M  V30 2449 C 222.292 2.37587 2.03768 0
M  V30 2450 C 222.767 3.62679 2.79693 0
M  V30 2451 N 224.258 3.63376 2.87249 0
M  V30 2452 C 224.993 4.56848 3.46522 0
M  V30 2453 N 224.489 5.60648 4.06996 0
M  V30 2454 N 226.282 4.44426 3.44154 0
M  V30 2455 H 218.433 2.09412 0.354993 0
M  V30 2456 H 220.696 0.922181 0.219742 0
M  V30 2457 H 220.402 3.23536 1.37905 0
M  V30 2458 H 220.276 2.39483 2.91424 0
M  V30 2459 H 222.663 1.46853 2.55965 0
M  V30 2460 H 222.744 2.34403 1.02415 0
M  V30 2461 H 222.388 4.53762 2.28173 0
M  V30 2462 H 222.318 3.63119 3.81381 0
M  V30 2463 H 224.809 2.88321 2.44293 0
M  V30 2464 H 225.122 6.28101 4.50232 0
M  V30 2465 H 223.467 5.64463 4.05471 0
M  V30 2466 H 226.658 3.62529 2.96126 0
M  V30 2467 H 226.831 5.17457 3.90054 0
M  V30 2468 N 220.237 -1.11381 1.11499 0
M  V30 2469 C 221.465 -1.86934 0.88675 0
M  V30 2470 C 221.88 -1.80195 -0.563476 0
M  V30 2471 O 221.237 -1.18367 -1.38908 0
M  V30 2472 C 221.288 -3.35722 1.34064 0
M  V30 2473 O 221.009 -3.4232 2.73401 0
M  V30 2474 C 222.51 -4.2818 1.14791 0
M  V30 2475 H 219.73 -0.591117 0.317523 0
M  V30 2476 H 222.274 -1.40865 1.48248 0
M  V30 2477 H 220.429 -3.79294 0.788355 0
M  V30 2478 H 220.843 -4.34971 2.93087 0
M  V30 2479 H 222.317 -5.30817 1.5145 0
M  V30 2480 H 222.794 -4.39113 0.0875279 0
M  V30 2481 H 223.4 -3.90402 1.68721 0
M  V30 2482 N 221.715 -0.905404 -1.28997 0
M  V30 2483 C 222.992 -0.453513 -1.9027 0
M  V30 2484 C 223.372 1.06721 -1.82137 0
M  V30 2485 O 222.72 1.91159 -1.25182 0
M  V30 2486 C 222.93 -0.974494 -3.35119 0
M  V30 2487 C 224.278 -1.0216 -4.12127 0
M  V30 2488 O 225.302 -0.922557 -3.44046 0
M  V30 2489 O 224.161 -1.17121 -5.33802 0
M  V30 2490 H 221.255 -0.142347 -0.814657 0
M  V30 2491 H 223.801 -0.995642 -1.37423 0
M  V30 2492 H 222.573 -2.01848 -3.35221 0
M  V30 2493 H 222.196 -0.412706 -3.95452 0
M  V30 2494 N 223.193 1.4272 -0.668489 0
M  V30 2495 C 224.123 2.335 -0.000100175 0
M  V30 2496 C 225.104 1.50328 0.795964 0
M  V30 2497 O 226.289 1.78949 0.754385 0
M  V30 2498 C 223.419 3.33874 0.956302 0
M  V30 2499 C 222.373 4.27152 0.269278 0
M  V30 2500 C 221.699 5.17684 1.33818 0
M  V30 2501 C 222.999 5.15373 -0.847805 0
M  V30 2502 H 224.693 2.89639 -0.758244 0
M  V30 2503 H 222.239 1.39269 -0.366079 0
M  V30 2504 H 224.192 3.9629 1.43292 0
M  V30 2505 H 222.916 2.76025 1.74579 0
M  V30 2506 H 221.575 3.66123 -0.187042 0
M  V30 2507 H 221.223 4.56165 2.1195 0
M  V30 2508 H 220.923 5.80918 0.883659 0
M  V30 2509 H 222.447 5.82974 1.81586 0
M  V30 2510 H 223.861 5.7151 -0.452681 0
M  V30 2511 H 222.258 5.87407 -1.22773 0
M  V30 2512 H 223.328 4.5415 -1.69929 0
M  V30 2513 N 224.671 0.411399 1.52136 0
M  V30 2514 C 226.082 -0.0576826 1.86611 0
M  V30 2515 C 226.433 -1.44238 1.33003 0
M  V30 2516 O 225.558 -2.05759 0.670228 0
M  V30 2517 C 226.153 -0.111448 3.38617 0
M  V30 2518 C 224.712 -0.52487 3.72723 0
M  V30 2519 C 223.859 0.299176 2.75681 0
M  V30 2520 H 226.81 0.628368 1.4573 0
M  V30 2521 H 226.831 -0.926252 3.69054 0
M  V30 2522 H 226.343 0.896488 3.77604 0
M  V30 2523 H 224.444 -1.53936 3.39315 0
M  V30 2524 H 224.557 -0.267681 4.78352 0
M  V30 2525 H 222.921 -0.238814 2.53578 0
M  V30 2526 H 223.704 1.3055 3.17508 0
M  V30 2527 N 226.149 -1.5696 0.141893 0
M  V30 2528 C 227.059 -2.20066 -0.812905 0
M  V30 2529 C 228.075 -1.18344 -1.27557 0
M  V30 2530 O 229.251 -1.50902 -1.33381 0
M  V30 2531 C 226.316 -2.80583 -2.03652 0
M  V30 2532 C 225.377 -3.97414 -1.62359 0
M  V30 2533 C 224.61 -4.55036 -2.78887 0
M  V30 2534 O 224.833 -4.11538 -3.94959 0
M  V30 2535 O 223.767 -5.45376 -2.54653 0
M  V30 2536 H 227.593 -3.02157 -0.305746 0
M  V30 2537 H 225.178 -1.49159 -0.0848799 0
M  V30 2538 H 227.06 -3.19067 -2.75272 0
M  V30 2539 H 225.735 -2.01508 -2.5333 0
M  V30 2540 H 224.642 -3.63656 -0.877775 0
M  V30 2541 H 225.975 -4.77994 -1.17401 0
M  V30 2542 N 227.627 0.131896 -1.57047 0
M  V30 2543 C 228.574 1.16236 -1.99393 0
M  V30 2544 C 229.544 1.41863 -0.863943 0
M  V30 2545 O 230.729 1.53946 -1.12718 0
M  V30 2546 C 227.869 2.48708 -2.39245 0
M  V30 2547 C 226.982 2.30127 -3.65603 0
M  V30 2548 C 226.117 3.55738 -3.94492 0
M  V30 2549 C 225.156 3.32259 -5.14073 0
M  V30 2550 N 224.293 4.50039 -5.38896 0
M  V30 2551 H 229.133 0.794251 -2.87221 0
M  V30 2552 H 226.67 0.380707 -1.42088 0
M  V30 2553 H 228.628 3.25969 -2.60384 0
M  V30 2554 H 227.258 2.83437 -1.54478 0
M  V30 2555 H 226.31 1.43845 -3.52154 0
M  V30 2556 H 227.622 2.08746 -4.5302 0
M  V30 2557 H 226.776 4.41423 -4.1621 0
M  V30 2558 H 225.515 3.80138 -3.05526 0
M  V30 2559 H 224.52 2.44963 -4.92212 0
M  V30 2560 H 225.745 3.09242 -6.04604 0
M  V30 2561 H 223.691 4.74584 -4.52886 0
M  V30 2562 H 223.608 4.31716 -6.2061 0
M  V30 2563 H 224.876 5.36895 -5.65123 0
M  V30 2564 N 229.106 1.52395 0.401703 0
M  V30 2565 C 230.355 1.66044 1.14509 0
M  V30 2566 C 230.668 0.400216 1.91462 0
M  V30 2567 O 231.874 0.416632 2.68284 0
M  V30 2568 C 230.33 2.93388 2.0845 0
M  V30 2569 C 229.938 4.26545 1.36978 0
M  V30 2570 C 231.682 3.16402 2.83001 0
M  V30 2571 C 229.589 5.45007 2.29611 0
M  V30 2572 H 228.519 0.618562 0.431158 0
M  V30 2573 H 231.17 1.78886 0.40892 0
M  V30 2574 H 229.552 2.74263 2.8565 0
M  V30 2575 H 230.726 4.56179 0.650916 0
M  V30 2576 H 229.041 4.09692 0.74438 0
M  V30 2577 H 231.638 4.02085 3.52465 0
M  V30 2578 H 231.981 2.30943 3.46368 0
M  V30 2579 H 232.514 3.36034 2.12898 0
M  V30 2580 H 229.253 6.32835 1.70879 0
M  V30 2581 H 228.773 5.19702 2.9945 0
M  V30 2582 H 230.452 5.7838 2.89974 0
M  V30 2583 N 230.584 -0.659388 1.43143 0
M  V30 2584 C 231.494 -1.80167 1.50256 0
M  V30 2585 C 232.51 -1.69571 0.390106 0
M  V30 2586 O 233.686 -1.90849 0.643319 0
M  V30 2587 C 230.751 -3.16409 1.41725 0
M  V30 2588 C 229.812 -3.38848 2.63591 0
M  V30 2589 C 229.045 -4.68591 2.55458 0
M  V30 2590 O 229.268 -5.47532 1.59891 0
M  V30 2591 O 228.202 -4.92614 3.45854 0
M  V30 2592 H 232.028 -1.77121 2.46702 0
M  V30 2593 H 229.613 -0.817092 1.25076 0
M  V30 2594 H 231.495 -3.9768 1.39387 0
M  V30 2595 H 230.17 -3.20059 0.484118 0
M  V30 2596 H 229.077 -2.57366 2.71502 0
M  V30 2597 H 230.41 -3.4004 3.55856 0
M  V30 2598 N 232.062 -1.29571 -0.897171 0
M  V30 2599 C 233.292 -1.20408 -1.67886 0
M  V30 2600 C 233.7 0.237429 -1.87704 0
M  V30 2601 O 233.043 1.17048 -1.41582 0
M  V30 2602 C 233.105 -1.84887 -3.08314 0
M  V30 2603 C 232.769 -3.34189 -3.11716 0
M  V30 2604 C 233.766 -4.30374 -2.91675 0
M  V30 2605 C 231.451 -3.75431 -3.33701 0
M  V30 2606 C 233.445 -5.65776 -2.93557 0
M  V30 2607 C 231.132 -5.10955 -3.35214 0
M  V30 2608 C 232.13 -6.05938 -3.15164 0
M  V30 2609 O 231.818 -7.38987 -3.1647 0
M  V30 2610 H 231.55 -0.418289 -0.531046 0
M  V30 2611 H 234.104 -1.71514 -1.13014 0
M  V30 2612 H 232.334 -1.28295 -3.64798 0
M  V30 2613 H 234.023 -1.70011 -3.6858 0
M  V30 2614 H 234.789 -3.99844 -2.74499 0
M  V30 2615 H 230.668 -3.01953 -3.48347 0
M  V30 2616 H 234.212 -6.39889 -2.77826 0
M  V30 2617 H 230.109 -5.4113 -3.51922 0
M  V30 2618 H 230.877 -7.47823 -3.3272 0
M  V30 2619 N 233.54 1.10788 -1.12088 0
M  V30 2620 C 234.786 1.82942 -0.875226 0
M  V30 2621 C 235.119 1.84779 0.597538 0
M  V30 2622 O 234.394 1.30578 1.44152 0
M  V30 2623 C 234.677 3.29789 -1.44606 0
M  V30 2624 C 234.53 3.36307 -2.98693 0
M  V30 2625 C 235.849 4.26064 -1.10261 0
M  V30 2626 H 232.968 0.664195 -0.319397 0
M  V30 2627 H 235.61 1.29867 -1.38689 0
M  V30 2628 H 233.76 3.75118 -1.01089 0
M  V30 2629 H 235.432 2.99487 -3.50864 0
M  V30 2630 H 233.675 2.76318 -3.34411 0
M  V30 2631 H 234.346 4.39694 -3.33726 0
M  V30 2632 H 236.822 3.88951 -1.4784 0
M  V30 2633 H 235.698 5.27183 -1.52869 0
M  V30 2634 H 235.959 4.42098 -0.0142953 0
M  V30 2635 N 235.018 0.912232 1.28515 0
M  V30 2636 C 236.265 0.544599 1.95039 0
M  V30 2637 C 236.593 -0.911435 1.71823 0
M  V30 2638 O 235.848 -1.66317 1.03137 0
M  V30 2639 C 236.147 0.798392 3.48368 0
M  V30 2640 C 235.813 2.23374 3.91682 0
M  V30 2641 C 234.475 2.62617 4.03219 0
M  V30 2642 C 236.827 3.16786 4.13879 0
M  V30 2643 C 234.155 3.94429 4.3433 0
M  V30 2644 C 236.507 4.48161 4.46469 0
M  V30 2645 C 235.171 4.8726 4.56217 0
M  V30 2646 H 234.441 0.199283 0.7137 0
M  V30 2647 H 237.088 1.15327 1.52879 0
M  V30 2648 H 235.393 0.106908 3.91654 0
M  V30 2649 H 237.09 0.493141 3.97956 0
M  V30 2650 H 233.68 1.91922 3.83228 0
M  V30 2651 H 237.864 2.87677 4.0442 0
M  V30 2652 H 233.12 4.24426 4.40082 0
M  V30 2653 H 237.294 5.20559 4.62592 0
M  V30 2654 H 234.921 5.89431 4.80078 0
M  V30 2655 N 236.496 -1.42363 0.676048 0
M  V30 2656 C 237.724 -2.05859 0.207268 0
M  V30 2657 C 238.139 -1.50796 -1.13605 0
M  V30 2658 O 237.496 -0.648265 -1.70598 0
M  V30 2659 C 237.547 -3.61248 0.134975 0
M  V30 2660 O 237.268 -4.1427 1.42521 0
M  V30 2661 C 238.769 -4.41859 -0.357151 0
M  V30 2662 H 235.989 -0.663431 0.100503 0
M  V30 2663 H 238.533 -1.82479 0.923136 0
M  V30 2664 H 236.688 -3.83735 -0.531588 0
M  V30 2665 H 237.102 -5.0815 1.29939 0
M  V30 2666 H 238.576 -5.50847 -0.356641 0
M  V30 2667 H 239.053 -4.16536 -1.39264 0
M  V30 2668 H 239.659 -4.24392 0.27772 0
M  V30 2669 N 237.974 -0.419461 -1.51915 0
M  V30 2670 C 239.22 0.153166 -2.02221 0
M  V30 2671 C 239.553 1.43907 -1.30401 0
M  V30 2672 O 238.828 1.90055 -0.413438 0
M  V30 2673 C 239.111 0.390291 -3.57979 0
M  V30 2674 C 238.964 -0.913014 -4.40436 0
M  V30 2675 C 240.283 1.16794 -4.2432 0
M  V30 2676 H 237.402 0.0541924 -0.735005 0
M  V30 2677 H 240.044 -0.554955 -1.81715 0
M  V30 2678 H 238.194 0.993491 -3.75582 0
M  V30 2679 H 239.866 -1.54882 -4.34522 0
M  V30 2680 H 238.109 -1.52168 -4.06236 0
M  V30 2681 H 238.78 -0.701361 -5.47526 0
M  V30 2682 H 241.256 0.657161 -4.10878 0
M  V30 2683 H 240.132 1.3026 -5.3322 0
M  V30 2684 H 240.393 2.19132 -3.83971 0
M  V30 2685 N 239.452 1.56882 -0.150215 0
M  V30 2686 C 240.701 1.95403 0.500071 0
M  V30 2687 C 241.014 1.03777 1.658 0
M  V30 2688 O 242.22 1.31889 2.37313 0
M  V30 2689 C 240.676 3.4738 0.941018 0
M  V30 2690 C 240.284 4.47596 -0.190158 0
M  V30 2691 C 242.028 3.9476 1.56091 0
M  V30 2692 C 239.935 5.90787 0.269237 0
M  V30 2693 H 238.865 0.729515 0.190588 0
M  V30 2694 H 241.516 1.81988 -0.235074 0
M  V30 2695 H 239.898 3.56138 1.73152 0
M  V30 2696 H 241.072 4.50536 -0.967157 0
M  V30 2697 H 239.387 4.10151 -0.718666 0
M  V30 2698 H 241.984 4.99181 1.9163 0
M  V30 2699 H 242.327 3.36494 2.45107 0
M  V30 2700 H 242.86 3.88932 0.835249 0
M  V30 2701 H 239.599 6.52879 -0.585621 0
M  V30 2702 H 239.119 5.912 1.01204 0
M  V30 2703 H 240.798 6.42979 0.720176 0
M  V30 2704 N 240.93 -0.123565 1.57115 0
M  V30 2705 C 242.16 -0.845233 1.88519 0
M  V30 2706 C 242.568 -1.74168 0.739064 0
M  V30 2707 O 241.911 -1.81244 -0.299355 0
M  V30 2708 C 241.973 -1.73452 3.14888 0
M  V30 2709 C 241.637 -1.01285 4.45635 0
M  V30 2710 C 242.634 -0.355774 5.18681 0
M  V30 2711 C 240.319 -0.99538 4.92339 0
M  V30 2712 C 242.313 0.309114 6.3665 0
M  V30 2713 C 240 -0.32669 6.10226 0
M  V30 2714 C 240.998 0.324406 6.82229 0
M  V30 2715 O 240.686 0.982437 7.97874 0
M  V30 2716 H 240.418 -0.248534 0.628655 0
M  V30 2717 H 242.972 -0.113907 2.05084 0
M  V30 2718 H 241.202 -2.50737 2.94394 0
M  V30 2719 H 242.891 -2.33021 3.32349 0
M  V30 2720 H 243.657 -0.360918 4.83655 0
M  V30 2721 H 239.536 -1.49159 4.36202 0
M  V30 2722 H 243.08 0.8179 6.92789 0
M  V30 2723 H 238.977 -0.319294 6.4471 0
M  V30 2724 H 239.745 0.886454 8.13686 0
M  V30 2725 N 242.408 -1.52605 -0.393616 0
M  V30 2726 C 243.636 -1.71294 -1.16043 0
M  V30 2727 C 244.051 -0.429259 -1.83855 0
M  V30 2728 O 243.408 0.595921 -1.72496 0
M  V30 2729 C 243.459 -2.8593 -2.21193 0
M  V30 2730 O 243.18 -4.09329 -1.56146 0
M  V30 2731 C 244.681 -3.16259 -3.10636 0
M  V30 2732 H 241.901 -0.573641 -0.348104 0
M  V30 2733 H 244.445 -1.99234 -0.461092 0
M  V30 2734 H 242.6 -2.60465 -2.86769 0
M  V30 2735 H 243.014 -4.73323 -2.25978 0
M  V30 2736 H 244.488 -3.99946 -3.80456 0
M  V30 2737 H 244.965 -2.3045 -3.73884 0
M  V30 2738 H 245.571 -3.43547 -2.50711 0
M  V30 2739 N 243.887 0.651787 -1.4349 0
M  V30 2740 C 245.134 1.41167 -1.45183 0
M  V30 2741 C 245.462 1.94349 -0.0766601 0
M  V30 2742 O 244.717 1.72804 0.918555 0
M  V30 2743 C 245.016 2.60914 -2.44251 0
M  V30 2744 C 244.682 2.26142 -3.9009 0
M  V30 2745 C 243.344 2.16371 -4.2981 0
M  V30 2746 C 245.696 1.98334 -4.81989 0
M  V30 2747 C 243.024 1.7695 -5.5938 0
M  V30 2748 C 245.376 1.6041 -6.11924 0
M  V30 2749 C 244.04 1.49166 -6.5062 0
M  V30 2750 H 243.31 0.516566 -0.531263 0
M  V30 2751 H 245.957 0.741099 -1.76579 0
M  V30 2752 H 244.262 3.3311 -2.06265 0
M  V30 2753 H 245.959 3.19127 -2.42815 0
M  V30 2754 H 242.549 2.34658 -3.58655 0
M  V30 2755 H 246.733 2.04803 -4.52072 0
M  V30 2756 H 241.989 1.66831 -5.88198 0
M  V30 2757 H 246.163 1.37925 -6.82605 0
M  V30 2758 H 243.79 1.1839 -7.50925 0
M  V30 2759 N 245.365 1.30045 0.890287 0
M  V30 2760 C 246.275 1.17885 2.02831 0
M  V30 2761 C 247.291 0.0999609 1.73713 0
M  V30 2762 O 248.467 0.313867 1.98939 0
M  V30 2763 C 245.532 0.866079 3.35708 0
M  V30 2764 C 244.593 2.02979 3.78283 0
M  V30 2765 C 243.826 1.73184 5.0482 0
M  V30 2766 O 244.049 0.657237 5.66601 0
M  V30 2767 O 242.983 2.58267 5.43674 0
M  V30 2768 H 246.809 2.13474 2.16015 0
M  V30 2769 H 244.394 1.09587 1.01543 0
M  V30 2770 H 246.276 0.706623 4.15433 0
M  V30 2771 H 244.951 -0.0599443 3.23644 0
M  V30 2772 H 243.858 2.24454 2.99285 0
M  V30 2773 H 245.191 2.93734 3.94944 0
M  V30 2774 N 246.843 -1.10192 1.12674 0
M  V30 2775 C 247.806 -2.14786 0.799979 0
M  V30 2776 C 248.806 -1.59711 -0.18685 0
M  V30 2777 O 249.996 -1.74156 0.0392558 0
M  V30 2778 C 247.128 -3.40374 0.189228 0
M  V30 2779 H 248.321 -2.45203 1.72671 0
M  V30 2780 H 245.874 -1.25597 0.930326 0
M  V30 2781 H 246.609 -3.15577 -0.747107 0
M  V30 2782 H 246.394 -3.81637 0.899766 0
M  V30 2783 H 247.884 -4.17594 -0.0228143 0
M  V30 2784 N 248.321 -0.919034 -1.28029 0
M  V30 2785 C 249.251 -0.428581 -2.29533 0
M  V30 2786 C 250.232 0.50659 -1.62381 0
M  V30 2787 O 251.417 0.413195 -1.89753 0
M  V30 2788 C 248.547 0.327388 -3.45753 0
M  V30 2789 C 247.501 -0.519137 -4.2484 0
M  V30 2790 C 246.827 0.365486 -5.33449 0
M  V30 2791 C 248.127 -1.77914 -4.91064 0
M  V30 2792 H 249.821 -1.27687 -2.70807 0
M  V30 2793 H 247.367 -0.615428 -1.30186 0
M  V30 2794 H 249.32 0.681378 -4.15855 0
M  V30 2795 H 248.044 1.20963 -3.03374 0
M  V30 2796 H 246.703 -0.855717 -3.56473 0
M  V30 2797 H 246.351 1.24642 -4.87312 0
M  V30 2798 H 246.051 -0.197356 -5.87268 0
M  V30 2799 H 247.575 0.715241 -6.06396 0
M  V30 2800 H 248.989 -1.49374 -5.53498 0
M  V30 2801 H 247.386 -2.2848 -5.54903 0
M  V30 2802 H 248.456 -2.50382 -4.15255 0
M  V30 2803 N 249.799 1.42003 -0.683588 0
M  V30 2804 C 251.048 2.00638 -0.206681 0
M  V30 2805 C 251.361 1.5472 1.19671 0
M  V30 2806 O 252.567 2.05833 1.77045 0
M  V30 2807 C 251.023 3.58487 -0.318632 0
M  V30 2808 C 250.631 4.1339 -1.72663 0
M  V30 2809 C 252.375 4.24384 0.0991141 0
M  V30 2810 C 250.282 5.63633 -1.79087 0
M  V30 2811 H 249.212 0.750408 -0.0735107 0
M  V30 2812 H 251.863 1.62624 -0.850048 0
M  V30 2813 H 250.245 3.94047 0.392781 0
M  V30 2814 H 251.419 3.89273 -2.46583 0
M  V30 2815 H 249.734 3.59976 -2.09299 0
M  V30 2816 H 252.331 5.34652 0.0713833 0
M  V30 2817 H 252.674 4.00505 1.13586 0
M  V30 2818 H 253.207 3.93816 -0.561599 0
M  V30 2819 H 249.946 5.92323 -2.80774 0
M  V30 2820 H 249.466 5.89714 -1.09535 0
M  V30 2821 H 251.145 6.28201 -1.5483 0
M  V30 2822 N 251.277 0.427512 1.51691 0
M  V30 2823 C 252.224 -0.388867 2.275 0
M  V30 2824 C 253.194 -1.02532 1.30677 0
M  V30 2825 O 254.379 -1.0461 1.59566 0
M  V30 2826 C 251.519 -1.48954 3.11298 0
M  V30 2827 C 250.632 -0.872194 4.23104 0
M  V30 2828 C 249.767 -1.94709 4.94228 0
M  V30 2829 C 248.806 -1.30766 5.97969 0
M  V30 2830 N 247.943 -2.32349 6.62539 0
M  V30 2831 H 252.783 0.263997 2.96828 0
M  V30 2832 H 250.32 0.142033 1.46413 0
M  V30 2833 H 252.278 -2.13887 3.58201 0
M  V30 2834 H 250.908 -2.11217 2.44105 0
M  V30 2835 H 249.96 -0.111419 3.80237 0
M  V30 2836 H 251.272 -0.365264 4.97461 0
M  V30 2837 H 250.426 -2.67327 5.44629 0
M  V30 2838 H 249.165 -2.48773 4.1948 0
M  V30 2839 H 248.17 -0.566902 5.4687 0
M  V30 2840 H 249.395 -0.774483 6.74669 0
M  V30 2841 H 247.341 -2.85511 5.90609 0
M  V30 2842 H 247.258 -1.8652 7.3263 0
M  V30 2843 H 248.526 -3.04481 7.17574 0
M  V30 2844 N 252.755 -1.56801 0.158532 0
M  V30 2845 C 254.004 -1.95665 -0.489702 0
M  V30 2846 C 254.317 -1.04654 -1.65248 0
M  V30 2847 O 255.523 -1.33146 -2.3661 0
M  V30 2848 C 253.979 -3.47874 -0.922582 0
M  V30 2849 C 253.587 -4.47489 0.213893 0
M  V30 2850 C 255.331 -3.95583 -1.53996 0
M  V30 2851 C 253.238 -5.90921 -0.237903 0
M  V30 2852 H 252.168 -0.730516 -0.186716 0
M  V30 2853 H 254.819 -1.81861 0.244722 0
M  V30 2854 H 253.201 -3.57051 -1.71261 0
M  V30 2855 H 254.375 -4.50017 0.991036 0
M  V30 2856 H 252.69 -4.09764 0.740407 0
M  V30 2857 H 255.287 -5.0019 -1.8898 0
M  V30 2858 H 255.63 -3.37789 -2.43319 0
M  V30 2859 H 256.163 -3.8937 -0.814611 0
M  V30 2860 H 252.902 -6.52559 0.620236 0
M  V30 2861 H 252.422 -5.91729 -0.980676 0
M  V30 2862 H 254.101 -6.43352 -0.686067 0
M  V30 2863 N 254.233 0.115231 -1.57178 0
M  V30 2864 C 255.163 1.1423 -2.03651 0
M  V30 2865 C 256.144 1.42967 -0.921655 0
M  V30 2866 O 257.329 1.53343 -1.19162 0
M  V30 2867 C 254.459 2.4675 -2.44401 0
M  V30 2868 C 253.413 2.32467 -3.59365 0
M  V30 2869 C 252.739 3.69984 -3.86026 0
M  V30 2870 C 254.039 1.78203 -4.90959 0
M  V30 2871 H 255.733 0.755749 -2.89705 0
M  V30 2872 H 253.279 0.362093 -1.39373 0
M  V30 2873 H 255.232 3.18854 -2.75517 0
M  V30 2874 H 253.956 2.87302 -1.55322 0
M  V30 2875 H 252.615 1.62811 -3.28463 0
M  V30 2876 H 252.263 4.08028 -2.94147 0
M  V30 2877 H 251.963 3.61279 -4.63412 0
M  V30 2878 H 253.487 4.43587 -4.19599 0
M  V30 2879 H 254.901 2.40128 -5.20587 0
M  V30 2880 H 253.298 1.8031 -5.72371 0
M  V30 2881 H 254.368 0.739876 -4.79222 0
M  V30 2882 N 255.711 1.52812 0.385517 0
M  V30 2883 C 256.674 1.77188 1.45386 0
M  V30 2884 C 257.674 0.641953 1.4743 0
M  V30 2885 O 258.864 0.910033 1.4854 0
M  V30 2886 C 255.996 1.87582 2.8465 0
M  V30 2887 H 257.189 2.72583 1.25054 0
M  V30 2888 H 254.742 1.43586 0.617467 0
M  V30 2889 H 255.477 0.941849 3.10322 0
M  V30 2890 H 255.262 2.69748 2.84567 0
M  V30 2891 H 256.752 2.08102 3.62054 0
M  V30 2892 N 257.189 -0.644168 1.43834 0
M  V30 2893 C 258.605 -0.960875 1.27434 0
M  V30 2894 C 258.805 -2.00499 0.200618 0
M  V30 2895 O 257.861 -2.49018 -0.417906 0
M  V30 2896 C 259.174 -1.43653 2.64167 0
M  V30 2897 C 260.722 -1.55271 2.71772 0
M  V30 2898 C 261.197 -2.06224 4.08944 0
M  V30 2899 N 262.688 -2.13513 4.11055 0
M  V30 2900 C 263.423 -2.54081 5.14033 0
M  V30 2901 N 262.919 -2.9388 6.27381 0
M  V30 2902 N 264.712 -2.54101 5.01387 0
M  V30 2903 H 256.863 0.0465779 2.12349 0
M  V30 2904 H 259.126 -0.0417638 0.94708 0
M  V30 2905 H 258.832 -0.743706 3.43747 0
M  V30 2906 H 258.706 -2.40993 2.90176 0
M  V30 2907 H 261.093 -2.23653 1.92519 0
M  V30 2908 H 261.174 -0.563395 2.49519 0
M  V30 2909 H 260.818 -1.38441 4.88668 0
M  V30 2910 H 260.748 -3.06003 4.28567 0
M  V30 2911 H 263.239 -1.85493 3.29242 0
M  V30 2912 H 263.552 -3.2361 7.01781 0
M  V30 2913 H 261.897 -2.91663 6.30839 0
M  V30 2914 H 265.088 -2.22391 4.11898 0
M  V30 2915 H 265.261 -2.85394 5.81768 0
M  V30 2916 N 258.668 -1.30515 -0.883378 0
M  V30 2917 C 259.916 -1.19194 -1.63209 0
M  V30 2918 C 260.237 0.253205 -1.93349 0
M  V30 2919 O 259.507 1.17025 -1.57105 0
M  V30 2920 H 258.087 -0.438148 -0.605009 0
M  V30 2921 H 260.749 -1.63663 -1.05832 0
M  V30 2922 H 259.845 -1.75396 -2.58153 0
M  V30 2923 N 260.146 1.09593 -1.13257 0
M  V30 2924 C 261.393 1.81734 -0.893257 0
M  V30 2925 C 261.721 1.8563 0.580656 0
M  V30 2926 O 260.976 1.31906 1.44566 0
M  V30 2927 C 261.275 3.27802 -1.42411 0
M  V30 2928 C 260.941 3.44041 -2.91456 0
M  V30 2929 C 259.603 3.48181 -3.3215 0
M  V30 2930 C 261.955 3.48719 -3.87356 0
M  V30 2931 C 259.283 3.54575 -4.67433 0
M  V30 2932 C 261.635 3.56648 -5.2248 0
M  V30 2933 C 260.299 3.59055 -5.62704 0
M  V30 2934 H 259.569 0.665011 -0.326866 0
M  V30 2935 H 262.216 1.2912 -1.41422 0
M  V30 2936 H 260.521 3.83042 -0.823795 0
M  V30 2937 H 262.218 3.82149 -1.21503 0
M  V30 2938 H 258.808 3.41502 -2.58987 0
M  V30 2939 H 262.992 3.44763 -3.57004 0
M  V30 2940 H 258.248 3.54725 -4.97976 0
M  V30 2941 H 262.422 3.59212 -5.96607 0
M  V30 2942 H 260.049 3.63763 -6.67518 0
M  V30 2943 N 261.624 0.925811 1.2754 0
M  V30 2944 C 262.864 0.572521 1.96218 0
M  V30 2945 C 263.228 -0.869719 1.71172 0
M  V30 2946 O 264.429 -1.33119 2.33523 0
M  V30 2947 C 262.7 0.887325 3.4621 0
M  V30 2948 S 264.259 0.642266 4.34074 0
M  V30 2949 H 261.077 0.211403 0.678845 0
M  V30 2950 H 263.679 1.19384 1.54815 0
M  V30 2951 H 262.383 1.93469 3.61936 0
M  V30 2952 H 261.914 0.255123 3.92572 0
M  V30 2953 H 263.929 -0.500822 4.93666 0
M  V30 2954 N 263.102 -1.41638 0.69111 0
M  V30 2955 C 264.032 -2.3347 0.037248 0
M  V30 2956 C 265.013 -1.51575 -0.771947 0
M  V30 2957 O 266.198 -1.80126 -0.72582 0
M  V30 2958 C 263.328 -3.35354 -0.903064 0
M  V30 2959 C 262.282 -4.27526 -0.201288 0
M  V30 2960 C 261.608 -5.19747 -1.25565 0
M  V30 2961 C 262.908 -5.13959 0.929689 0
M  V30 2962 H 264.602 -2.88397 0.804227 0
M  V30 2963 H 262.148 -1.38669 0.388189 0
M  V30 2964 H 264.101 -3.98519 -1.36969 0
M  V30 2965 H 262.825 -2.78767 -1.70166 0
M  V30 2966 H 261.484 -3.65779 0.245265 0
M  V30 2967 H 261.132 -4.59479 -2.04666 0
M  V30 2968 H 260.832 -5.8225 -0.791128 0
M  V30 2969 H 262.356 -5.85789 -1.72288 0
M  V30 2970 H 263.77 -5.70718 0.543546 0
M  V30 2971 H 262.167 -5.85379 1.32103 0
M  V30 2972 H 263.237 -4.51389 1.77133 0
M  V30 2973 N 264.58 -0.43555 -1.51462 0
M  V30 2974 C 265.528 0.391205 -2.29287 0
M  V30 2975 C 266.522 1.02247 -1.35062 0
M  V30 2976 O 267.728 0.957646 -1.52411 0
M  V30 2977 H 264.103 0.144968 -0.737895 0
M  V30 2978 H 266.074 -0.286051 -2.97026 0
M  V30 2979 C 264.823 1.48096 -3.14583 0
M  V30 2980 H 264.146 1.00457 -3.86973 0
M  V30 2981 H 265.586 2.03273 -3.72097 0
M  V30 2982 C 264.045 2.46321 -2.29843 0
M  V30 2983 O 264.575 3.50815 -1.95682 0
M  V30 2984 N 262.781 2.17166 -1.931 0
M  V30 2985 H 262.328 1.32218 -2.21079 0
M  V30 2986 H 262.286 2.83127 -1.36698 0
M  V30 2987 N 266.058 1.56714 -0.166846 0
M  V30 2988 C 266.968 2.21331 0.777791 0
M  V30 2989 C 267.984 1.20358 1.25658 0
M  V30 2990 O 269.16 1.53005 1.30964 0
M  V30 2991 C 266.225 2.83787 1.99163 0
M  V30 2992 C 265.286 3.99947 1.56016 0
M  V30 2993 C 264.519 4.59415 2.71613 0
M  V30 2994 O 264.742 4.17769 3.88362 0
M  V30 2995 O 263.676 5.49359 2.45945 0
M  V30 2996 H 267.502 3.02605 0.257636 0
M  V30 2997 H 265.087 1.49275 0.0611393 0
M  V30 2998 H 266.969 3.23405 2.70161 0
M  V30 2999 H 265.644 2.05513 2.50092 0
M  V30 3000 H 264.551 3.65007 0.819809 0
M  V30 3001 H 265.884 4.79801 1.09782 0
M  V30 3002 N 267.536 -0.106894 1.57237 0
M  V30 3003 C 268.783 -0.812526 1.85484 0
M  V30 3004 C 269.111 -1.79304 0.753687 0
M  V30 3005 O 268.366 -1.94047 -0.253853 0
M  V30 3006 C 268.665 -1.58628 3.20268 0
M  V30 3007 C 268.331 -0.748967 4.44636 0
M  V30 3008 C 266.993 -0.518104 4.78403 0
M  V30 3009 C 269.345 -0.166122 5.20935 0
M  V30 3010 C 266.673 0.305659 5.85903 0
M  V30 3011 C 269.025 0.644899 6.29304 0
M  V30 3012 C 267.689 0.885965 6.61594 0
M  V30 3013 H 266.959 -0.297324 0.678734 0
M  V30 3014 H 269.606 -0.0744332 1.91355 0
M  V30 3015 H 267.911 -2.39562 3.10028 0
M  V30 3016 H 269.608 -2.13643 3.39349 0
M  V30 3017 H 266.198 -0.939006 4.18187 0
M  V30 3018 H 270.382 -0.33167 4.95191 0
M  V30 3019 H 265.638 0.501528 6.0934 0
M  V30 3020 H 269.812 1.10345 6.87602 0
M  V30 3021 H 267.439 1.52609 7.44725 0
M  V30 3022 N 269.014 -1.53014 -0.377408 0
M  V30 3023 C 270.242 -1.72515 -1.14219 0
M  V30 3024 C 270.657 -0.448735 -1.8339 0
M  V30 3025 O 270.014 0.577592 -1.73119 0
M  V30 3026 C 270.065 -2.8826 -2.18148 0
M  V30 3027 O 269.786 -4.10962 -1.51795 0
M  V30 3028 C 271.287 -3.19536 -3.07264 0
M  V30 3029 H 268.507 -0.577301 -0.342001 0
M  V30 3030 H 271.051 -1.99712 -0.439935 0
M  V30 3031 H 269.206 -2.63492 -2.83991 0
M  V30 3032 H 269.62 -4.75693 -2.20945 0
M  V30 3033 H 271.094 -4.03959 -3.76193 0
M  V30 3034 H 271.571 -2.34403 -3.71419 0
M  V30 3035 H 272.177 -3.46186 -2.47053 0
M  V30 3036 N 270.492 0.636531 -1.44174 0
M  V30 3037 C 271.722 1.42146 -1.49927 0
M  V30 3038 C 272.13 1.88812 -0.121063 0
M  V30 3039 O 271.473 1.61126 0.882267 0
M  V30 3040 C 271.535 2.67883 -2.39748 0
M  V30 3041 C 271.199 2.43048 -3.8701 0
M  V30 3042 C 272.196 2.05216 -4.77684 0
M  V30 3043 C 269.881 2.56856 -4.3166 0
M  V30 3044 C 271.875 1.81512 -6.11009 0
M  V30 3045 C 269.562 2.32766 -5.65034 0
M  V30 3046 C 270.56 1.95152 -6.54526 0
M  V30 3047 O 270.248 1.71326 -7.85431 0
M  V30 3048 H 269.98 0.442567 -0.51099 0
M  V30 3049 H 272.534 0.786158 -1.8976 0
M  V30 3050 H 270.764 3.34032 -1.94832 0
M  V30 3051 H 272.453 3.29874 -2.36513 0
M  V30 3052 H 273.219 1.94111 -4.44462 0
M  V30 3053 H 269.098 2.85104 -3.62266 0
M  V30 3054 H 272.642 1.52077 -6.80822 0
M  V30 3055 H 268.539 2.43479 -5.97819 0
M  V30 3056 H 269.307 1.85616 -7.97176 0
M  V30 3057 N 271.97 1.30982 0.876444 0
M  V30 3058 C 272.9 1.20668 1.99903 0
M  V30 3059 C 273.881 0.095354 1.69833 0
M  V30 3060 O 275.066 0.27885 1.92188 0
M  V30 3061 C 272.196 0.90655 3.3526 0
M  V30 3062 C 271.15 1.97675 3.79617 0
M  V30 3063 C 270.476 1.52943 5.1236 0
M  V30 3064 C 271.776 3.389 3.97422 0
M  V30 3065 H 273.47 2.14586 2.0879 0
M  V30 3066 H 271.016 1.03308 1.00317 0
M  V30 3067 H 272.969 0.821025 4.13324 0
M  V30 3068 H 271.693 -0.0682969 3.26529 0
M  V30 3069 H 270.352 2.05205 3.03787 0
M  V30 3070 H 270 0.54262 5.00065 0
M  V30 3071 H 269.7 2.24532 5.43009 0
M  V30 3072 H 271.224 1.45786 5.92941 0
M  V30 3073 H 272.638 3.34081 4.659 0
M  V30 3074 H 271.035 4.0865 4.3946 0
M  V30 3075 H 272.105 3.80163 3.01006 0
M  V30 3076 N 273.449 -1.08991 1.13837 0
M  V30 3077 C 274.865 -1.33312 0.877506 0
M  V30 3078 C 275.065 -1.95587 -0.48456 0
M  V30 3079 O 274.121 -2.20509 -1.23013 0
M  V30 3080 C 275.434 -2.24045 2.0056 0
M  V30 3081 C 276.982 -2.37542 2.03821 0
M  V30 3082 C 277.457 -3.31614 3.15905 0
M  V30 3083 N 278.948 -3.39189 3.15445 0
M  V30 3084 C 279.683 -4.11992 3.98811 0
M  V30 3085 N 279.179 -4.87553 4.92203 0
M  V30 3086 N 280.972 -4.07762 3.86894 0
M  V30 3087 H 273.123 -0.669456 2.01574 0
M  V30 3088 H 275.386 -0.357482 0.878015 0
M  V30 3089 H 275.092 -1.85521 2.98789 0
M  V30 3090 H 274.966 -3.24466 1.92359 0
M  V30 3091 H 277.353 -2.75327 1.06202 0
M  V30 3092 H 277.434 -1.36884 2.16093 0
M  V30 3093 H 277.078 -2.94551 4.13766 0
M  V30 3094 H 277.008 -4.32186 3.0087 0
M  V30 3095 H 279.499 -2.85314 2.47799 0
M  V30 3096 H 279.812 -5.40549 5.52292 0
M  V30 3097 H 278.157 -4.86627 4.96205 0
M  V30 3098 H 281.348 -3.47833 3.13257 0
M  V30 3099 H 281.521 -4.64238 4.52092 0
M  V30 3100 N 274.927 -0.932562 -1.27047 0
M  V30 3101 C 276.204 -0.49377 -1.89265 0
M  V30 3102 C 276.584 1.02833 -1.8436 0
M  V30 3103 O 275.932 1.88461 -1.29209 0
M  V30 3104 C 276.142 -1.04536 -3.32976 0
M  V30 3105 C 277.49 -1.10879 -4.09867 0
M  V30 3106 O 278.514 -0.995327 -3.42011 0
M  V30 3107 O 277.373 -1.28417 -5.31198 0
M  V30 3108 H 274.467 -0.159596 -0.811454 0
M  V30 3109 H 277.013 -1.02457 -1.3528 0
M  V30 3110 H 275.785 -2.08913 -3.30864 0
M  V30 3111 H 275.408 -0.496494 -3.94488 0
M  V30 3112 N 276.405 1.4127 -0.698611 0
M  V30 3113 C 277.816 1.84187 -0.305289 0
M  V30 3114 C 278.167 1.58449 1.15708 0
M  V30 3115 O 277.292 1.05651 1.88856 0
M  V30 3116 C 277.887 3.3435 -0.547314 0
M  V30 3117 C 276.446 3.75826 -0.207878 0
M  V30 3118 C 275.593 2.64647 -0.828099 0
M  V30 3119 H 278.544 1.30778 -0.89904 0
M  V30 3120 H 278.565 3.8001 0.192998 0
M  V30 3121 H 278.077 3.53051 -1.61172 0
M  V30 3122 H 276.178 3.62725 0.852143 0
M  V30 3123 H 276.291 4.74462 -0.665021 0
M  V30 3124 H 274.655 2.53395 -0.257458 0
M  V30 3125 H 275.438 2.86165 -1.89643 0
M  V30 3126 N 277.883 0.443576 1.51229 0
M  V30 3127 C 279.129 -0.11321 2.03085 0
M  V30 3128 C 279.484 -1.39841 1.32145 0
M  V30 3129 O 278.777 -1.86723 0.429542 0
M  V30 3130 C 278.971 -0.380579 3.55368 0
M  V30 3131 C 278.8 0.877157 4.41062 0
M  V30 3132 C 277.57 1.4125 4.85156 0
M  V30 3133 C 279.768 1.76503 4.83064 0
M  V30 3134 N 277.75 2.62213 5.55083 0
M  V30 3135 C 279.121 2.82067 5.52122 0
M  V30 3136 C 281.176 1.7787 4.65045 0
M  V30 3137 C 279.879 3.88952 6.05069 0
M  V30 3138 C 281.905 2.83694 5.18914 0
M  V30 3139 C 281.267 3.87978 5.87922 0
M  V30 3140 H 277.366 -0.00210178 0.781997 0
M  V30 3141 H 279.95 0.605641 1.85041 0
M  V30 3142 H 278.121 -1.06847 3.73414 0
M  V30 3143 H 279.853 -0.929274 3.93887 0
M  V30 3144 H 276.608 0.965542 4.63653 0
M  V30 3145 H 277.032 3.23568 5.9467 0
M  V30 3146 H 281.674 0.985744 4.11148 0
M  V30 3147 H 279.392 4.69082 6.58018 0
M  V30 3148 H 282.978 2.85702 5.06819 0
M  V30 3149 H 281.858 4.68517 6.28857 0
M  V30 3150 N 279.361 -1.56624 0.175154 0
M  V30 3151 C 280.309 -2.19468 -0.770495 0
M  V30 3152 C 281.303 -1.15985 -1.23466 0
M  V30 3153 O 282.509 -1.34176 -1.19987 0
M  V30 3154 H 278.884 -0.703095 -0.266761 0
M  V30 3155 H 280.855 -2.97613 -0.216542 0
M  V30 3156 C 279.604 -2.85264 -1.98796 0
M  V30 3157 H 278.927 -3.64623 -1.63983 0
M  V30 3158 H 280.367 -3.327 -2.62843 0
M  V30 3159 C 278.826 -1.85239 -2.81404 0
M  V30 3160 O 279.356 -1.34024 -3.78682 0
M  V30 3161 N 277.562 -1.53911 -2.46495 0
M  V30 3162 H 277.109 -1.95751 -1.67449 0
M  V30 3163 H 277.067 -0.872382 -3.02054 0
M  V30 3164 N 280.839 0.0985539 -1.57292 0
M  V30 3165 C 282.085 0.798769 -1.87059 0
M  V30 3166 C 282.44 1.76514 -0.76555 0
M  V30 3167 O 281.733 1.90181 0.232752 0
M  V30 3168 C 281.927 1.56927 -3.21105 0
M  V30 3169 C 281.756 0.679026 -4.44544 0
M  V30 3170 C 280.526 0.326071 -5.04247 0
M  V30 3171 C 282.724 -0.0124715 -5.14298 0
M  V30 3172 N 280.706 -0.572702 -6.11223 0
M  V30 3173 C 282.077 -0.769446 -6.15207 0
M  V30 3174 C 284.132 -0.0867545 -4.97824 0
M  V30 3175 C 282.835 -1.59376 -7.01421 0
M  V30 3176 C 284.861 -0.897955 -5.84543 0
M  V30 3177 C 284.223 -1.64306 -6.84969 0
M  V30 3178 H 280.322 0.268568 -0.734435 0
M  V30 3179 H 282.906 0.0614664 -1.94603 0
M  V30 3180 H 281.077 2.27748 -3.1462 0
M  V30 3181 H 282.809 2.21641 -3.38611 0
M  V30 3182 H 279.564 0.67295 -4.68795 0
M  V30 3183 H 279.988 -1.01454 -6.69355 0
M  V30 3184 H 284.63 0.474963 -4.20124 0
M  V30 3185 H 282.348 -2.16655 -7.78515 0
M  V30 3186 H 285.934 -0.958059 -5.73858 0
M  V30 3187 H 284.814 -2.26065 -7.50909 0
M  V30 3188 N 282.317 1.53212 0.369288 0
M  V30 3189 C 283.247 1.82365 1.45826 0
M  V30 3190 C 284.228 0.676907 1.56051 0
M  V30 3191 O 285.413 0.926401 1.70679 0
M  V30 3192 C 282.543 2.01023 2.83208 0
M  V30 3193 C 281.497 3.1678 2.8781 0
M  V30 3194 C 280.823 3.20724 4.27832 0
M  V30 3195 C 282.123 4.55447 2.55667 0
M  V30 3196 H 283.817 2.73559 1.21678 0
M  V30 3197 H 281.363 1.3163 0.583911 0
M  V30 3198 H 283.316 2.20001 3.59413 0
M  V30 3199 H 282.04 1.06536 3.08736 0
M  V30 3200 H 280.699 2.97616 2.14056 0
M  V30 3201 H 280.347 2.23882 4.50429 0
M  V30 3202 H 280.047 3.98496 4.31827 0
M  V30 3203 H 281.571 3.41881 5.05915 0
M  V30 3204 H 282.985 4.74611 3.21586 0
M  V30 3205 H 281.382 5.35432 2.70984 0
M  V30 3206 H 282.452 4.60812 1.5093 0
M  V30 3207 N 283.795 -0.628877 1.44509 0
M  V30 3208 C 285.072 -1.38733 1.37886 0
M  V30 3209 C 285.452 -2.11065 0.0387008 0
M  V30 3210 O 284.8 -2.06476 -0.97878 0
M  V30 3211 C 285.01 -2.35188 2.57852 0
M  V30 3212 C 286.358 -2.9845 3.02014 0
M  V30 3213 O 287.382 -2.45513 2.58073 0
M  V30 3214 O 286.241 -3.94487 3.78209 0
M  V30 3215 H 283.335 -0.621015 0.54614 0
M  V30 3216 H 285.881 -0.653744 1.56602 0
M  V30 3217 H 284.653 -1.80855 3.46998 0
M  V30 3218 H 284.276 -3.1596 2.4136 0
M  V30 3219 N 285.273 -1.31445 -0.869486 0
M  V30 3220 C 286.52 -1.21158 -1.62256 0
M  V30 3221 C 286.848 0.230155 -1.93133 0
M  V30 3222 O 286.103 1.17906 -1.56194 0
M  V30 3223 C 286.402 -2.00145 -2.96102 0
M  V30 3224 C 286.068 -3.4964 -2.84715 0
M  V30 3225 C 284.73 -3.90403 -2.81317 0
M  V30 3226 C 287.082 -4.44769 -2.71716 0
M  V30 3227 C 284.41 -5.24561 -2.62778 0
M  V30 3228 C 286.762 -5.79054 -2.54714 0
M  V30 3229 C 285.426 -6.19037 -2.49699 0
M  V30 3230 H 284.696 -0.443348 -0.593737 0
M  V30 3231 H 287.343 -1.62715 -1.00976 0
M  V30 3232 H 285.648 -1.5127 -3.6142 0
M  V30 3233 H 287.345 -1.89566 -3.53363 0
M  V30 3234 H 283.935 -3.17256 -2.88178 0
M  V30 3235 H 288.119 -4.14208 -2.73397 0
M  V30 3236 H 283.375 -5.54613 -2.57321 0
M  V30 3237 H 287.549 -6.52393 -2.43632 0
M  V30 3238 H 285.176 -7.22935 -2.35093 0
M  V30 3239 N 286.751 1.08385 -1.14413 0
M  V30 3240 C 287.976 1.85057 -0.936413 0
M  V30 3241 C 288.401 1.81055 0.509971 0
M  V30 3242 O 287.759 1.1958 1.36273 0
M  V30 3243 C 287.807 3.30505 -1.44217 0
M  V30 3244 O 286.911 4.07491 -0.634409 0
M  V30 3245 H 286.252 0.573425 -0.334784 0
M  V30 3246 H 288.782 1.36799 -1.52142 0
M  V30 3247 H 288.792 3.81348 -1.45043 0
M  V30 3248 H 287.467 3.32734 -2.49522 0
M  V30 3249 H 286.044 3.66368 -0.694902 0
M  V30 3250 N 288.23 0.939286 1.26551 0
M  V30 3251 C 289.476 0.586715 1.94128 0
M  V30 3252 C 289.809 -0.8717 1.73537 0
M  V30 3253 O 289.084 -1.62339 1.07127 0
M  V30 3254 C 289.367 0.927497 3.4795 0
M  V30 3255 C 289.22 2.44052 3.77834 0
M  V30 3256 C 290.539 0.441569 4.37879 0
M  V30 3257 H 287.658 0.21463 0.705055 0
M  V30 3258 H 290.3 1.17316 1.49455 0
M  V30 3259 H 288.45 0.428431 3.8613 0
M  V30 3260 H 290.122 3.01216 3.4938 0
M  V30 3261 H 288.365 2.8848 3.23978 0
M  V30 3262 H 289.036 2.62947 4.85348 0
M  V30 3263 H 291.512 0.869448 4.06915 0
M  V30 3264 H 290.388 0.708856 5.44304 0
M  V30 3265 H 290.649 -0.658467 4.37169 0
M  V30 3266 N 289.708 -1.40897 0.706093 0
M  V30 3267 C 290.957 -2.00284 0.238574 0
M  V30 3268 C 291.27 -1.56604 -1.17194 0
M  V30 3269 O 292.476 -2.08624 -1.73748 0
M  V30 3270 C 290.932 -3.57934 0.375623 0
M  V30 3271 C 290.54 -4.10591 1.79217 0
M  V30 3272 C 292.284 -4.24488 -0.0315857 0
M  V30 3273 C 290.191 -5.60712 1.88032 0
M  V30 3274 H 289.121 -0.749144 0.0854398 0
M  V30 3275 H 291.772 -1.61251 0.875813 0
M  V30 3276 H 290.154 -3.94622 -0.330042 0
M  V30 3277 H 291.328 -3.85301 2.52745 0
M  V30 3278 H 289.643 -3.56601 2.15 0
M  V30 3279 H 292.24 -5.34698 0.0136842 0
M  V30 3280 H 292.583 -4.02261 -1.072 0
M  V30 3281 H 293.116 -3.92873 0.624181 0
M  V30 3282 H 289.855 -5.87781 2.90161 0
M  V30 3283 H 289.375 -5.87896 1.18903 0
M  V30 3284 H 291.054 -6.25658 1.64805 0
M  V30 3285 N 291.186 -0.45159 -1.50991 0
M  V30 3286 C 292.414 0.108334 -2.06616 0
M  V30 3287 C 292.829 1.35224 -1.31757 0
M  V30 3288 O 292.186 1.78475 -0.381174 0
M  V30 3289 C 292.237 0.41619 -3.59096 0
M  V30 3290 O 291.958 -0.778361 -4.3113 0
M  V30 3291 C 293.459 1.02523 -4.31282 0
M  V30 3292 H 290.679 0.00159995 -0.670998 0
M  V30 3293 H 293.223 -0.634771 -1.94399 0
M  V30 3294 H 291.378 1.10921 -3.71181 0
M  V30 3295 H 291.792 -0.511181 -5.22003 0
M  V30 3296 H 293.266 1.19053 -5.39009 0
M  V30 3297 H 293.743 2.01013 -3.905 0
M  V30 3298 H 294.349 0.371173 -4.23677 0
M  V30 3299 N 292.664 1.56529 -0.183458 0
M  V30 3300 C 293.594 2.21549 0.737456 0
M  V30 3301 C 294.575 1.17489 1.23005 0
M  V30 3302 O 295.76 1.45959 1.281 0
M  V30 3303 C 292.89 2.86575 1.96194 0
M  V30 3304 C 291.844 3.96778 1.60473 0
M  V30 3305 C 291.17 4.48911 2.90487 0
M  V30 3306 C 292.47 5.15767 0.823497 0
M  V30 3307 H 294.164 2.98761 0.195453 0
M  V30 3308 H 291.71 1.43702 0.0925686 0
M  V30 3309 H 293.663 3.30739 2.61131 0
M  V30 3310 H 292.387 2.06749 2.52828 0
M  V30 3311 H 291.046 3.53286 0.978997 0
M  V30 3312 H 290.694 3.65862 3.45186 0
M  V30 3313 H 290.394 5.23265 2.67335 0
M  V30 3314 H 291.918 4.95771 3.56432 0
M  V30 3315 H 293.332 5.56549 1.37571 0
M  V30 3316 H 291.729 5.96114 0.690551 0
M  V30 3317 H 292.799 4.84574 -0.177782 0
M  V30 3318 N 294.142 -0.090211 1.57342 0
M  V30 3319 C 295.105 -1.09335 2.01441 0
M  V30 3320 C 296.105 -1.32666 0.908641 0
M  V30 3321 O 297.295 -1.28697 1.174 0
M  V30 3322 C 294.427 -2.44136 2.3793 0
M  V30 3323 H 295.62 -0.713662 2.91285 0
M  V30 3324 H 293.173 -0.335404 1.52659 0
M  V30 3325 H 293.908 -2.86972 1.51055 0
M  V30 3326 H 293.693 -2.28548 3.18603 0
M  V30 3327 H 295.183 -3.16277 2.72688 0
M  V30 3328 N 295.62 -1.53406 -0.361157 0
M  V30 3329 C 296.85 -1.73465 -1.1222 0
M  V30 3330 C 297.258 -0.465486 -1.83384 0
M  V30 3331 O 296.601 0.571611 -1.7458 0
M  V30 3332 C 296.663 -2.84834 -2.19339 0
M  V30 3333 C 296.327 -4.25038 -1.67903 0
M  V30 3334 C 297.324 -5.07231 -1.14074 0
M  V30 3335 C 295.009 -4.71464 -1.73282 0
M  V30 3336 C 297.003 -6.33942 -0.663068 0
M  V30 3337 C 294.69 -5.98153 -1.25127 0
M  V30 3338 C 295.688 -6.79223 -0.717296 0
M  V30 3339 O 295.376 -8.03533 -0.242865 0
M  V30 3340 H 295.108 -0.583526 -0.341283 0
M  V30 3341 H 297.662 -2.00964 -0.424591 0
M  V30 3342 H 295.892 -2.5282 -2.92607 0
M  V30 3343 H 297.581 -2.9303 -2.80871 0
M  V30 3344 H 298.347 -4.72534 -1.09254 0
M  V30 3345 H 294.226 -4.08432 -2.13786 0
M  V30 3346 H 297.77 -6.97167 -0.245612 0
M  V30 3347 H 293.667 -6.32347 -1.29642 0
M  V30 3348 H 294.435 -8.177 -0.361786 0
M  V30 3349 N 297.098 0.621204 -1.44841 0
M  V30 3350 C 298.344 1.3826 -1.48365 0
M  V30 3351 C 298.677 1.93831 -0.119624 0
M  V30 3352 O 297.952 1.74251 0.864111 0
M  V30 3353 C 298.235 2.54058 -2.55199 0
M  V30 3354 C 298.088 2.03772 -4.00995 0
M  V30 3355 C 299.407 3.56225 -2.58442 0
M  V30 3356 H 296.526 0.501374 -0.540179 0
M  V30 3357 H 299.168 0.7015 -1.76576 0
M  V30 3358 H 297.318 3.12162 -2.31274 0
M  V30 3359 H 298.99 1.50423 -4.36086 0
M  V30 3360 H 297.233 1.34876 -4.12299 0
M  V30 3361 H 297.904 2.87185 -4.71411 0
M  V30 3362 H 300.38 3.07939 -2.79844 0
M  V30 3363 H 299.256 4.34756 -3.3508 0
M  V30 3364 H 299.517 4.10949 -1.63013 0
M  V30 3365 N 298.576 1.31904 0.862503 0
M  V30 3366 C 299.824 1.21776 1.61292 0
M  V30 3367 C 300.145 -0.222413 1.93727 0
M  V30 3368 O 299.415 -1.1451 1.58947 0
M  V30 3369 H 297.995 0.447717 0.597962 0
M  V30 3370 H 300.657 1.65326 1.03215 0
M  V30 3371 H 299.753 1.7948 2.5533 0
M  V30 3372 N 300.054 -1.07777 1.14986 0
M  V30 3373 C 301.282 -1.84018 0.945773 0
M  V30 3374 C 301.697 -1.81897 -0.505863 0
M  V30 3375 O 301.054 -1.22726 -1.35072 0
M  V30 3376 C 301.105 -3.31287 1.44677 0
M  V30 3377 O 300.826 -3.33449 2.84154 0
M  V30 3378 C 302.327 -4.24311 1.28355 0
M  V30 3379 H 299.547 -0.580716 0.336169 0
M  V30 3380 H 302.091 -1.36077 1.52654 0
M  V30 3381 H 300.246 -3.76594 0.908625 0
M  V30 3382 H 300.66 -4.25427 3.06777 0
M  V30 3383 H 302.134 -5.2573 1.68261 0
M  V30 3384 H 302.611 -4.38612 0.227184 0
M  V30 3385 H 303.217 -3.84836 1.81056 0
M  V30 3386 N 301.532 -0.945985 -1.26051 0
M  V30 3387 C 302.495 -0.463897 -2.24456 0
M  V30 3388 C 303.495 0.427655 -1.55009 0
M  V30 3389 O 304.685 0.226157 -1.72726 0
M  V30 3390 C 301.817 0.330812 -3.39291 0
M  V30 3391 H 303.01 -1.33357 -2.68619 0
M  V30 3392 H 300.563 -0.728416 -1.38289 0
M  V30 3393 H 301.298 1.21852 -3.00537 0
M  V30 3394 H 301.083 -0.308679 -3.90883 0
M  V30 3395 H 302.573 0.657865 -4.12386 0
M  V30 3396 N 303.011 1.40521 -0.713556 0
M  V30 3397 C 304.26 2.00155 -0.249192 0
M  V30 3398 C 304.573 1.57224 1.16362 0
M  V30 3399 O 305.779 2.09542 1.72639 0
M  V30 3400 C 304.235 3.5773 -0.3946 0
M  V30 3401 C 303.843 4.09635 -1.81392 0
M  V30 3402 C 305.587 4.24499 0.00907364 0
M  V30 3403 C 303.494 5.59707 -1.91003 0
M  V30 3404 H 302.424 0.74868 -0.0894114 0
M  V30 3405 H 305.075 1.60784 -0.884352 0
M  V30 3406 H 303.457 3.94792 0.30911 0
M  V30 3407 H 304.631 3.83955 -2.54785 0
M  V30 3408 H 302.946 3.55456 -2.16888 0
M  V30 3409 H 305.543 5.34683 -0.0420404 0
M  V30 3410 H 305.886 4.02824 1.05065 0
M  V30 3411 H 306.419 3.92536 -0.645007 0
M  V30 3412 H 303.158 5.86234 -2.93275 0
M  V30 3413 H 302.678 5.87258 -1.22019 0
M  V30 3414 H 304.357 6.24776 -1.6812 0
M  V30 3415 N 304.489 0.459591 1.5075 0
M  V30 3416 C 305.766 -0.160371 1.94941 0
M  V30 3417 C 306.146 -1.58048 1.39943 0
M  V30 3418 O 305.494 -2.206 0.595629 0
M  V30 3419 C 305.704 -0.115432 3.48809 0
M  V30 3420 C 307.052 -0.310026 4.23467 0
M  V30 3421 O 308.076 -0.192543 3.55679 0
M  V30 3422 O 306.935 -0.546031 5.43765 0
M  V30 3423 H 304.029 -0.117925 0.818549 0
M  V30 3424 H 306.575 0.519169 1.61563 0
M  V30 3425 H 305.347 0.87652 3.81357 0
M  V30 3426 H 304.97 -0.836928 3.88692 0
M  V30 3427 N 305.967 -1.56429 0.191757 0
M  V30 3428 C 306.897 -2.21937 -0.725696 0
M  V30 3429 C 307.878 -1.1814 -1.2238 0
M  V30 3430 O 309.063 -1.46636 -1.27325 0
M  V30 3431 C 306.193 -2.87611 -1.94672 0
M  V30 3432 C 305.147 -3.97623 -1.58366 0
M  V30 3433 C 304.473 -4.50446 -2.88102 0
M  V30 3434 C 305.773 -5.16197 -0.796133 0
M  V30 3435 H 307.467 -2.98861 -0.179606 0
M  V30 3436 H 305.013 -1.43749 -0.0849464 0
M  V30 3437 H 306.966 -3.3212 -2.59373 0
M  V30 3438 H 305.69 -2.08087 -2.51728 0
M  V30 3439 H 304.349 -3.53801 -0.960247 0
M  V30 3440 H 303.997 -3.67688 -3.43241 0
M  V30 3441 H 303.697 -5.24675 -2.64556 0
M  V30 3442 H 305.221 -4.97654 -3.53798 0
M  V30 3443 H 306.635 -5.57271 -1.34618 0
M  V30 3444 H 305.032 -5.96471 -0.658928 0
M  V30 3445 H 306.102 -4.84473 0.203478 0
M  V30 3446 N 307.445 0.0818655 -1.57387 0
M  V30 3447 C 308.861 0.436412 -1.53517 0
M  V30 3448 C 309.061 1.79758 -0.910459 0
M  V30 3449 O 308.117 2.47324 -0.508636 0
M  V30 3450 C 309.43 0.386734 -2.98203 0
M  V30 3451 C 310.978 0.467644 -3.09487 0
M  V30 3452 C 311.453 0.447978 -4.55804 0
M  V30 3453 N 312.944 0.508348 -4.60402 0
M  V30 3454 C 313.679 0.515184 -5.71081 0
M  V30 3455 N 313.175 0.477435 -6.91153 0
M  V30 3456 N 314.968 0.560988 -5.59294 0
M  V30 3457 H 307.119 -0.809546 -1.96367 0
M  V30 3458 H 309.382 -0.302733 -0.898363 0
M  V30 3459 H 309.088 -0.546539 -3.47427 0
M  V30 3460 H 308.962 1.20075 -3.57578 0
M  V30 3461 H 311.349 1.39134 -2.60242 0
M  V30 3462 H 311.43 -0.374753 -2.5304 0
M  V30 3463 H 311.074 -0.471826 -5.05704 0
M  V30 3464 H 311.004 1.30777 -5.10103 0
M  V30 3465 H 313.495 0.54218 -3.7399 0
M  V30 3466 H 313.808 0.486299 -7.71268 0
M  V30 3467 H 312.153 0.444278 -6.93579 0
M  V30 3468 H 315.344 0.5881 -4.64391 0
M  V30 3469 H 315.517 0.562846 -6.45551 0
M  V30 3470 N 308.923 1.53595 0.353017 0
M  V30 3471 C 310.171 1.70049 1.09215 0
M  V30 3472 C 310.492 0.461406 1.89463 0
M  V30 3473 O 309.762 -0.524633 1.88744 0
M  V30 3474 H 308.342 0.626912 0.40619 0
M  V30 3475 H 311.004 1.90822 0.396585 0
M  V30 3476 H 310.1 2.56718 1.77488 0
M  V30 3477 N 310.401 -0.613514 1.45168 0
M  V30 3478 C 311.65 -1.36874 1.4815 0
M  V30 3479 C 311.963 -1.952 0.124982 0
M  V30 3480 O 313.169 -2.71481 0.0324176 0
M  V30 3481 C 311.625 -2.47905 2.60904 0
M  V30 3482 C 311.233 -1.96016 4.02842 0
M  V30 3483 C 312.977 -3.24965 2.73126 0
M  V30 3484 C 310.884 -3.04494 5.06988 0
M  V30 3485 H 309.814 -0.514428 0.551253 0
M  V30 3486 H 312.465 -0.658182 1.7129 0
M  V30 3487 H 310.847 -3.21618 2.31037 0
M  V30 3488 H 312.021 -1.29051 4.4236 0
M  V30 3489 H 310.336 -1.31719 3.95018 0
M  V30 3490 H 312.933 -4.05865 3.48106 0
M  V30 3491 H 313.276 -3.75588 1.79553 0
M  V30 3492 H 313.809 -2.5835 3.0249 0
M  V30 3493 H 310.548 -2.58795 6.0225 0
M  V30 3494 H 310.068 -3.70044 4.72046 0
M  V30 3495 H 311.747 -3.68976 5.31475 0
M  V30 3496 N 311.879 -1.3236 -0.855495 0
M  V30 3497 C 313.104 -1.2601 -1.64731 0
M  V30 3498 C 313.529 0.169068 -1.87339 0
M  V30 3499 O 312.887 1.12016 -1.42556 0
M  V30 3500 C 312.935 -2.02417 -2.98429 0
M  V30 3501 O 312.039 -1.3714 -3.8893 0
M  V30 3502 H 311.38 -0.434325 -0.502253 0
M  V30 3503 H 313.91 -1.74661 -1.06558 0
M  V30 3504 H 313.92 -2.12559 -3.48257 0
M  V30 3505 H 312.595 -3.06343 -2.81295 0
M  V30 3506 H 311.172 -1.3554 -3.47395 0
M  V30 3507 N 313.357 1.07166 -1.15556 0
M  V30 3508 C 314.605 1.79443 -0.929764 0
M  V30 3509 C 314.926 1.87246 0.544414 0
M  V30 3510 O 314.196 1.37473 1.39564 0
M  V30 3511 H 312.776 0.664625 -0.341003 0
M  V30 3512 H 315.438 1.29499 -1.45657 0
M  V30 3513 H 314.534 2.81832 -1.34079 0
M  V30 3514 N 314.835 0.952656 1.25548 0
M  V30 3515 C 315.765 0.489287 2.28316 0
M  V30 3516 C 316.746 -0.463359 1.63667 0
M  V30 3517 O 317.931 -0.36274 1.90782 0
M  V30 3518 C 315.061 -0.235603 3.465 0
M  V30 3519 C 314.015 0.631593 4.23314 0
M  V30 3520 C 313.341 -0.223923 5.34231 0
M  V30 3521 C 314.641 1.90871 4.86174 0
M  V30 3522 H 316.335 1.34822 2.67326 0
M  V30 3523 H 313.881 0.649728 1.28509 0
M  V30 3524 H 315.834 -0.570882 4.17515 0
M  V30 3525 H 314.558 -1.12877 3.06474 0
M  V30 3526 H 313.217 0.949929 3.54079 0
M  V30 3527 H 312.865 -1.11678 4.90446 0
M  V30 3528 H 312.565 0.35299 5.86539 0
M  V30 3529 H 314.089 -0.554214 6.0808 0
M  V30 3530 H 315.503 1.63997 5.49343 0
M  V30 3531 H 313.9 2.43112 5.4865 0
M  V30 3532 H 314.97 2.61304 4.08471 0
M  V30 3533 N 316.313 -1.40141 0.720998 0
M  V30 3534 C 317.729 -1.54632 0.395113 0
M  V30 3535 C 317.929 -1.69115 -1.09555 0
M  V30 3536 O 316.985 -1.68377 -1.88163 0
M  V30 3537 C 318.298 -2.77177 1.1659 0
M  V30 3538 C 319.846 -2.91 1.15274 0
M  V30 3539 C 320.321 -4.16465 1.90579 0
M  V30 3540 N 321.812 -4.23476 1.87675 0
M  V30 3541 C 322.547 -5.19475 2.42762 0
M  V30 3542 N 322.043 -6.21348 3.06428 0
M  V30 3543 N 323.836 -5.11592 2.32874 0
M  V30 3544 H 315.987 -1.28986 1.68749 0
M  V30 3545 H 318.25 -0.62412 0.713567 0
M  V30 3546 H 317.956 -2.72771 2.22011 0
M  V30 3547 H 317.83 -3.69442 0.76108 0
M  V30 3548 H 320.217 -2.94907 0.106702 0
M  V30 3549 H 320.298 -1.99838 1.59682 0
M  V30 3550 H 319.942 -4.1332 2.95176 0
M  V30 3551 H 319.872 -5.06646 1.43587 0
M  V30 3552 H 322.363 -3.50497 1.41281 0
M  V30 3553 H 322.676 -6.91034 3.45965 0
M  V30 3554 H 321.021 -6.21777 3.10514 0
M  V30 3555 H 324.212 -4.30936 1.82789 0
M  V30 3556 H 324.385 -5.86233 2.76106 0
M  V30 3557 N 317.792 -0.46758 -1.50504 0
M  V30 3558 C 319.02 0.0864133 -2.06719 0
M  V30 3559 C 319.435 1.33819 -1.33184 0
M  V30 3560 O 318.792 1.78061 -0.400083 0
M  V30 3561 C 318.843 0.378079 -3.59517 0
M  V30 3562 O 318.564 -0.824044 -4.3028 0
M  V30 3563 C 320.065 0.979426 -4.32345 0
M  V30 3564 H 317.285 -0.00551697 -0.670977 0
M  V30 3565 H 319.829 -0.655354 -1.93715 0
M  V30 3566 H 317.984 1.06977 -3.72337 0
M  V30 3567 H 318.398 -0.566518 -5.21432 0
M  V30 3568 H 319.872 1.1333 -5.40241 0
M  V30 3569 H 320.349 1.9686 -3.9261 0
M  V30 3570 H 320.955 0.326216 -4.24047 0
M  V30 3571 N 319.27 1.56325 -0.20005 0
M  V30 3572 C 320.517 1.97719 0.437411 0
M  V30 3573 C 320.845 1.08709 1.61284 0
M  V30 3574 O 320.1 0.127261 1.95286 0
M  V30 3575 C 320.399 3.4495 0.935103 0
M  V30 3576 C 320.065 4.5072 -0.12749 0
M  V30 3577 C 318.727 4.79368 -0.419451 0
M  V30 3578 C 321.079 5.14268 -0.847231 0
M  V30 3579 C 318.407 5.68854 -1.43604 0
M  V30 3580 C 320.759 6.04852 -1.85301 0
M  V30 3581 C 319.423 6.31855 -2.15211 0
M  V30 3582 H 318.693 0.723507 0.16006 0
M  V30 3583 H 321.34 1.89166 -0.298056 0
M  V30 3584 H 319.645 3.50599 1.74894 0
M  V30 3585 H 321.342 3.74337 1.43781 0
M  V30 3586 H 317.932 4.28458 0.11023 0
M  V30 3587 H 322.116 4.92222 -0.634901 0
M  V30 3588 H 317.372 5.88047 -1.67364 0
M  V30 3589 H 321.546 6.53152 -2.41591 0
M  V30 3590 H 319.173 7.00994 -2.94129 0
M  V30 3591 N 320.748 -0.0735177 1.57428 0
M  V30 3592 C 322.164 -0.428264 1.53747 0
M  V30 3593 C 322.364 -1.79272 0.91998 0
M  V30 3594 O 321.42 -2.47051 0.521745 0
M  V30 3595 C 322.733 -0.370914 2.98404 0
M  V30 3596 C 324.281 -0.451224 3.0973 0
M  V30 3597 C 324.756 -0.4238 4.56035 0
M  V30 3598 N 326.247 -0.483925 4.60665 0
M  V30 3599 C 326.982 -0.484891 5.71346 0
M  V30 3600 N 326.478 -0.440775 6.91396 0
M  V30 3601 N 328.271 -0.531319 5.59583 0
M  V30 3602 H 320.422 0.819949 1.95935 0
M  V30 3603 H 322.685 0.307493 0.896745 0
M  V30 3604 H 322.391 0.564956 3.47133 0
M  V30 3605 H 322.265 -1.18176 3.5821 0
M  V30 3606 H 324.652 -1.37752 2.60976 0
M  V30 3607 H 324.733 0.388167 2.52838 0
M  V30 3608 H 324.377 0.498638 5.05446 0
M  V30 3609 H 324.307 -1.2807 5.10789 0
M  V30 3610 H 326.798 -0.522338 3.74273 0
M  V30 3611 H 327.111 -0.44539 7.71515 0
M  V30 3612 H 325.456 -0.40749 6.93804 0
M  V30 3613 H 328.647 -0.563464 4.64696 0
M  V30 3614 H 328.82 -0.528603 6.4584 0
M  V30 3615 N 322.226 -1.5378 -0.344866 0
M  V30 3616 C 323.472 -1.71216 -1.08687 0
M  V30 3617 C 323.805 -0.473281 -1.88345 0
M  V30 3618 O 323.08 0.52968 -1.87149 0
M  V30 3619 C 323.363 -2.97486 -2.02914 0
M  V30 3620 C 323.216 -4.31579 -1.26727 0
M  V30 3621 C 324.535 -3.19422 -3.0275 0
M  V30 3622 H 321.654 -0.62301 -0.393735 0
M  V30 3623 H 324.296 -1.8645 -0.365563 0
M  V30 3624 H 322.446 -2.84629 -2.64421 0
M  V30 3625 H 324.118 -4.56284 -0.67845 0
M  V30 3626 H 322.361 -4.30049 -0.569273 0
M  V30 3627 H 323.032 -5.16106 -1.95803 0
M  V30 3628 H 325.508 -3.316 -2.51357 0
M  V30 3629 H 324.384 -4.09169 -3.65885 0
M  V30 3630 H 324.645 -2.35656 -3.74057 0
M  V30 3631 N 323.704 0.605807 -1.45491 0
M  V30 3632 C 324.634 1.72709 -1.57143 0
M  V30 3633 C 325.615 1.6476 -0.422884 0
M  V30 3634 O 326.8 1.83132 -0.646247 0
M  V30 3635 C 323.93 3.11316 -1.53948 0
M  V30 3636 C 322.884 3.34077 -2.67537 0
M  V30 3637 C 322.21 4.72975 -2.49397 0
M  V30 3638 C 323.51 3.24158 -4.09535 0
M  V30 3639 H 325.204 1.63214 -2.51001 0
M  V30 3640 H 322.75 0.78379 -1.208 0
M  V30 3641 H 324.703 3.89557 -1.60696 0
M  V30 3642 H 323.427 3.21655 -0.566205 0
M  V30 3643 H 322.086 2.58227 -2.6022 0
M  V30 3644 H 321.734 4.8005 -1.50205 0
M  V30 3645 H 321.434 4.8916 -3.25571 0
M  V30 3646 H 322.958 5.53414 -2.58002 0
M  V30 3647 H 324.372 3.92271 -4.18086 0
M  V30 3648 H 322.769 3.51872 -4.86113 0
M  V30 3649 H 323.839 2.2157 -4.31317 0
M  V30 3650 N 325.182 1.32811 0.848464 0
M  V30 3651 C 326.598 1.11937 1.13764 0
M  V30 3652 C 326.798 -0.0960789 2.01271 0
M  V30 3653 O 325.854 -0.779165 2.40178 0
M  V30 3654 C 327.167 2.402 1.809 0
M  V30 3655 C 328.715 2.46016 1.93508 0
M  V30 3656 C 329.19 3.74215 2.64059 0
M  V30 3657 N 330.681 3.75232 2.71579 0
M  V30 3658 C 331.416 4.71134 3.26833 0
M  V30 3659 N 330.912 5.77406 3.8285 0
M  V30 3660 N 332.705 4.58623 3.24995 0
M  V30 3661 H 324.856 2.1073 0.265855 0
M  V30 3662 H 327.119 0.930671 0.180431 0
M  V30 3663 H 326.825 3.29093 1.24058 0
M  V30 3664 H 326.699 2.51628 2.81004 0
M  V30 3665 H 329.086 1.57577 2.49506 0
M  V30 3666 H 329.167 2.38536 0.923811 0
M  V30 3667 H 328.811 4.63031 2.08722 0
M  V30 3668 H 328.741 3.78968 3.65637 0
M  V30 3669 H 331.232 2.98423 2.31845 0
M  V30 3670 H 331.545 6.46632 4.23187 0
M  V30 3671 H 329.89 5.81152 3.81165 0
M  V30 3672 H 333.081 3.74762 2.80484 0
M  V30 3673 H 333.254 5.33535 3.67756 0
M  V30 3674 N 326.66 -1.06551 1.16123 0
M  V30 3675 C 327.623 -2.12132 0.867906 0
M  V30 3676 C 328.623 -1.60224 -0.135944 0
M  V30 3677 O 329.813 -1.73943 0.0946422 0
M  V30 3678 C 326.945 -3.396 0.297419 0
M  V30 3679 H 328.138 -2.39586 1.80385 0
M  V30 3680 H 325.691 -1.22574 0.969812 0
M  V30 3681 H 326.426 -3.17794 -0.64633 0
M  V30 3682 H 326.211 -3.78581 1.02073 0
M  V30 3683 H 327.701 -4.17455 0.110052 0
M  V30 3684 N 328.138 -0.959301 -1.25041 0
M  V30 3685 C 329.068 -0.501388 -2.28053 0
M  V30 3686 C 330.049 0.454673 -1.63911 0
M  V30 3687 O 331.234 0.352618 -1.90972 0
M  V30 3688 C 328.364 0.217224 -3.4662 0
M  V30 3689 C 327.318 -0.654034 -4.22973 0
M  V30 3690 C 326.644 0.195589 -5.34342 0
M  V30 3691 C 327.944 -1.93447 -4.85155 0
M  V30 3692 H 329.638 -1.36238 -2.66608 0
M  V30 3693 H 327.184 -0.656534 -1.28163 0
M  V30 3694 H 329.137 0.548732 -4.17812 0
M  V30 3695 H 327.861 1.1125 -3.07068 0
M  V30 3696 H 326.52 -0.968693 -3.5357 0
M  V30 3697 H 326.168 1.09076 -4.91031 0
M  V30 3698 H 325.868 -0.384091 -5.86343 0
M  V30 3699 H 327.392 0.521958 -6.08365 0
M  V30 3700 H 328.806 -1.66908 -5.48466 0
M  V30 3701 H 327.203 -2.46018 -5.47353 0
M  V30 3702 H 328.273 -2.63466 -4.07079 0
M  V30 3703 N 329.616 1.39756 -0.72842 0
M  V30 3704 C 330.563 2.30647 -0.0841519 0
M  V30 3705 C 331.533 1.48869 0.7367 0
M  V30 3706 O 332.718 1.77574 0.698015 0
M  V30 3707 C 329.858 3.35165 0.822091 0
M  V30 3708 C 328.971 4.31999 -0.0106663 0
M  V30 3709 C 328.106 5.23585 0.896241 0
M  V30 3710 C 327.145 6.12072 0.0583381 0
M  V30 3711 N 326.282 6.96035 0.920818 0
M  V30 3712 H 331.122 2.85173 -0.864891 0
M  V30 3713 H 328.659 1.40422 -0.438179 0
M  V30 3714 H 330.617 3.94345 1.36189 0
M  V30 3715 H 329.247 2.8211 1.56888 0
M  V30 3716 H 328.299 3.74492 -0.66781 0
M  V30 3717 H 329.611 4.9443 -0.658825 0
M  V30 3718 H 328.765 5.87759 1.50412 0
M  V30 3719 H 327.504 4.61459 1.57819 0
M  V30 3720 H 326.509 5.46916 -0.562389 0
M  V30 3721 H 327.734 6.76261 -0.6203 0
M  V30 3722 H 325.68 6.36485 1.58818 0
M  V30 3723 H 325.597 7.55284 0.32899 0
M  V30 3724 H 326.865 7.64646 1.51447 0
M  V30 3725 N 331.094 0.475555 1.50254 0
M  V30 3726 C 332.322 -0.0754493 2.06762 0
M  V30 3727 C 332.737 -1.33111 1.33891 0
M  V30 3728 O 332.094 -1.77846 0.40952 0
M  V30 3729 C 332.145 -0.359008 3.59713 0
M  V30 3730 O 331.866 0.846851 4.29837 0
M  V30 3731 C 333.367 -0.956484 4.32858 0
M  V30 3732 H 330.587 0.00907525 0.670939 0
M  V30 3733 H 333.131 0.665618 1.93364 0
M  V30 3734 H 331.286 -1.05001 3.72899 0
M  V30 3735 H 331.7 0.594162 5.21124 0
M  V30 3736 H 333.174 -1.10463 5.40834 0
M  V30 3737 H 333.651 -1.94775 3.93649 0
M  V30 3738 H 334.257 -0.303723 4.24214 0
M  V30 3739 N 332.573 -1.56217 0.208337 0
M  V30 3740 C 333.819 -1.98242 -0.427552 0
M  V30 3741 C 334.152 -1.09554 -1.60348 0
M  V30 3742 O 333.427 -0.15035 -1.93918 0
M  V30 3743 C 333.71 -3.4931 -0.874907 0
M  V30 3744 C 333.563 -4.48773 0.303751 0
M  V30 3745 C 334.882 -4.04424 -1.73577 0
M  V30 3746 H 332.001 -0.720744 -0.153936 0
M  V30 3747 H 334.643 -1.87586 0.30192 0
M  V30 3748 H 332.793 -3.58522 -1.49648 0
M  V30 3749 H 334.465 -4.51586 0.941682 0
M  V30 3750 H 332.708 -4.23194 0.953375 0
M  V30 3751 H 333.379 -5.51976 -0.0519883 0
M  V30 3752 H 335.855 -3.98075 -1.21143 0
M  V30 3753 H 334.731 -5.1047 -2.01771 0
M  V30 3754 H 334.992 -3.50494 -2.69456 0
M  V30 3755 N 334.051 0.0651679 -1.57465 0
M  V30 3756 C 335.276 0.779605 -1.9219 0
M  V30 3757 C 335.701 1.69988 -0.805333 0
M  V30 3758 O 335.059 1.79685 0.241435 0
M  V30 3759 C 335.107 1.54364 -3.2589 0
M  V30 3760 O 334.211 2.65474 -3.1559 0
M  V30 3761 H 333.552 0.212249 -0.629163 0
M  V30 3762 H 336.082 0.0314294 -2.04576 0
M  V30 3763 H 336.092 1.92146 -3.59922 0
M  V30 3764 H 334.767 0.868457 -4.06732 0
M  V30 3765 H 333.344 2.30501 -2.93128 0
M  V30 3766 N 335.529 1.53961 0.336706 0
M  V30 3767 C 336.775 1.7179 1.07777 0
M  V30 3768 C 337.108 0.483263 1.88091 0
M  V30 3769 O 336.383 -0.519747 1.87427 0
M  V30 3770 C 336.666 2.98558 2.01334 0
M  V30 3771 C 336.519 4.32245 1.24437 0
M  V30 3772 C 337.838 3.21023 3.01052 0
M  V30 3773 H 334.957 0.625089 0.390426 0
M  V30 3774 H 337.599 1.86641 0.35567 0
M  V30 3775 H 335.749 2.86028 2.62908 0
M  V30 3776 H 337.421 4.56637 0.654243 0
M  V30 3777 H 335.664 4.30344 0.546458 0
M  V30 3778 H 336.335 5.17137 1.93063 0
M  V30 3779 H 338.811 3.32929 2.49595 0
M  V30 3780 H 337.687 4.11104 3.6371 0
M  V30 3781 H 337.948 2.37637 3.72802 0
M  V30 3782 N 337.007 -0.598083 1.45811 0
M  V30 3783 C 338.256 -1.35295 1.49594 0
M  V30 3784 C 338.569 -1.95057 0.145679 0
M  V30 3785 O 339.775 -2.71431 0.0612099 0
M  V30 3786 C 338.231 -2.45124 2.63519 0
M  V30 3787 C 337.839 -1.91732 4.04899 0
M  V30 3788 C 339.583 -3.2205 2.76558 0
M  V30 3789 C 337.49 -2.991 5.1019 0
M  V30 3790 H 336.42 -0.508552 0.556679 0
M  V30 3791 H 339.071 -0.639977 1.71978 0
M  V30 3792 H 337.453 -3.19149 2.34435 0
M  V30 3793 H 338.627 -1.24352 4.43704 0
M  V30 3794 H 336.942 -1.27522 3.96393 0
M  V30 3795 H 339.539 -4.0215 3.52391 0
M  V30 3796 H 339.882 -3.73663 1.83526 0
M  V30 3797 H 340.415 -2.55127 3.05213 0
M  V30 3798 H 337.154 -2.52393 6.04961 0
M  V30 3799 H 336.674 -3.65017 4.75944 0
M  V30 3800 H 338.353 -3.63318 5.35359 0
M  V30 3801 N 338.485 -1.33259 -0.841409 0
M  V30 3802 C 339.896 -1.22066 -1.41269 0
M  V30 3803 C 340.247 0.161479 -1.95534 0
M  V30 3804 O 339.372 1.06094 -1.88608 0
M  V30 3805 C 339.967 -2.20996 -2.568 0
M  V30 3806 C 338.526 -2.13649 -3.09888 0
M  V30 3807 C 337.673 -2.08623 -1.82679 0
M  V30 3808 H 340.624 -1.44895 -0.647395 0
M  V30 3809 H 340.645 -1.81621 -3.34356 0
M  V30 3810 H 340.157 -3.2158 -2.17274 0
M  V30 3811 H 338.258 -1.16359 -3.53965 0
M  V30 3812 H 338.371 -3.04079 -3.70234 0
M  V30 3813 H 336.735 -1.54061 -2.02824 0
M  V30 3814 H 337.518 -3.1101 -1.45353 0
M  V30 3815 N 339.963 1.05934 -1.16686 0
M  V30 3816 C 341.211 1.78447 -0.948744 0
M  V30 3817 C 341.532 1.87813 0.524523 0
M  V30 3818 O 340.802 1.38945 1.38098 0
M  V30 3819 H 339.382 0.660971 -0.348033 0
M  V30 3820 H 342.044 1.27947 -1.47022 0
M  V30 3821 H 341.14 2.80394 -1.37061 0
M  V30 3822 N 341.441 0.965919 1.2453 0
M  V30 3823 C 342.371 0.513476 2.27784 0
M  V30 3824 C 343.352 -0.445974 1.6415 0
M  V30 3825 O 344.537 -0.342485 1.91156 0
M  V30 3826 C 341.667 -0.198839 3.4673 0
M  V30 3827 C 340.621 0.676456 4.2262 0
M  V30 3828 C 339.947 -0.167248 5.34438 0
M  V30 3829 C 341.247 1.96017 4.84123 0
M  V30 3830 H 342.941 1.3765 2.65881 0
M  V30 3831 H 340.487 0.663321 1.27813 0
M  V30 3832 H 342.44 -0.526567 4.18097 0
M  V30 3833 H 341.164 -1.0962 3.07654 0
M  V30 3834 H 339.823 0.98743 3.53052 0
M  V30 3835 H 339.471 -1.0647 4.91603 0
M  V30 3836 H 339.171 0.415181 5.86131 0
M  V30 3837 H 340.695 -0.489688 6.08633 0
M  V30 3838 H 342.109 1.69814 5.47573 0
M  V30 3839 H 340.506 2.48918 5.4604 0
M  V30 3840 H 341.576 2.65622 4.05676 0
M  V30 3841 N 342.919 -1.39368 0.735821 0
M  V30 3842 C 343.866 -2.30599 0.0963825 0
M  V30 3843 C 344.836 -1.49257 -0.728794 0
M  V30 3844 O 346.021 -1.77941 -0.688588 0
M  V30 3845 C 343.161 -3.35596 -0.804305 0
M  V30 3846 C 342.274 -4.31987 0.0335761 0
M  V30 3847 C 341.409 -5.24053 -0.868461 0
M  V30 3848 C 340.448 -6.12095 -0.0258776 0
M  V30 3849 N 339.585 -6.96514 -0.883893 0
M  V30 3850 H 344.425 -2.8471 0.880002 0
M  V30 3851 H 341.962 -1.40188 0.445619 0
M  V30 3852 H 343.92 -3.95062 -1.34096 0
M  V30 3853 H 342.55 -2.82938 -1.55389 0
M  V30 3854 H 341.602 -3.74133 0.68766 0
M  V30 3855 H 342.914 -4.94074 0.685036 0
M  V30 3856 H 342.068 -5.88549 -1.47293 0
M  V30 3857 H 340.807 -4.62289 -1.5537 0
M  V30 3858 H 339.812 -5.4661 0.591386 0
M  V30 3859 H 341.037 -6.75923 0.656156 0
M  V30 3860 H 338.983 -6.37318 -1.55441 0
M  V30 3861 H 338.9 -7.55448 -0.288931 0
M  V30 3862 H 340.168 -7.65439 -1.4739 0
M  V30 3863 N 344.397 -0.483516 -1.5 0
M  V30 3864 C 345.643 0.0672592 -2.02688 0
M  V30 3865 C 345.976 1.38247 -1.36387 0
M  V30 3866 O 345.251 1.88131 -0.493675 0
M  V30 3867 C 345.534 0.238109 -3.59312 0
M  V30 3868 C 345.387 -1.099 -4.36168 0
M  V30 3869 C 346.706 0.986916 -4.28892 0
M  V30 3870 H 343.825 0.0229696 -0.736642 0
M  V30 3871 H 346.467 -0.631527 -1.79197 0
M  V30 3872 H 344.617 0.8333 -3.79458 0
M  V30 3873 H 346.289 -1.73172 -4.27562 0
M  V30 3874 H 344.532 -1.69261 -3.99416 0
M  V30 3875 H 345.203 -0.932954 -5.44059 0
M  V30 3876 H 347.679 0.482302 -4.13295 0
M  V30 3877 H 346.555 1.07527 -5.38265 0
M  V30 3878 H 346.816 2.0265 -3.92919 0
M  V30 3879 N 345.875 1.56104 -0.216619 0
M  V30 3880 C 347.124 1.97348 0.416744 0
M  V30 3881 C 347.437 1.10715 1.6125 0
M  V30 3882 O 348.643 1.41836 2.31506 0
M  V30 3883 C 347.099 3.51059 0.792835 0
M  V30 3884 C 346.707 4.46387 -0.379828 0
M  V30 3885 C 348.451 4.01026 1.39208 0
M  V30 3886 C 346.358 5.91397 0.0184223 0
M  V30 3887 H 345.288 0.736942 0.159475 0
M  V30 3888 H 347.939 1.80827 -0.31205 0
M  V30 3889 H 346.321 3.63162 1.57891 0
M  V30 3890 H 347.495 4.46029 -1.15737 0
M  V30 3891 H 345.81 4.06734 -0.891979 0
M  V30 3892 H 348.407 5.0686 1.70286 0
M  V30 3893 H 348.75 3.46587 2.30614 0
M  V30 3894 H 349.283 3.92125 0.669537 0
M  V30 3895 H 346.022 6.49807 -0.862002 0
M  V30 3896 H 345.542 5.94961 0.760384 0
M  V30 3897 H 347.221 6.45455 0.446818 0
M  V30 3898 N 347.353 -0.0568162 1.57498 0
M  V30 3899 C 348.599 -0.75422 1.88253 0
M  V30 3900 C 348.932 -1.76461 0.810865 0
M  V30 3901 O 348.207 -1.93691 -0.177259 0
M  V30 3902 C 348.49 -1.44878 3.2967 0
M  V30 3903 C 348.343 -0.453789 4.47505 0
M  V30 3904 C 349.662 -2.38994 3.69554 0
M  V30 3905 H 346.781 -0.272724 0.684683 0
M  V30 3906 H 349.423 -0.0172113 1.89992 0
M  V30 3907 H 347.573 -2.077 3.28318 0
M  V30 3908 H 349.245 0.170371 4.60985 0
M  V30 3909 H 347.488 0.229552 4.33192 0
M  V30 3910 H 348.159 -0.977699 5.43273 0
M  V30 3911 H 350.635 -1.86239 3.72095 0
M  V30 3912 H 349.511 -2.84587 4.69363 0
M  V30 3913 H 349.772 -3.24461 3.00296 0
M  V30 3914 N 348.832 -1.54138 -0.328536 0
M  V30 3915 C 350.08 -1.71765 -1.06496 0
M  V30 3916 C 350.401 -0.49149 -1.88704 0
M  V30 3917 O 349.671 0.494539 -1.89555 0
M  V30 3918 H 348.251 -0.633295 -0.396164 0
M  V30 3919 H 350.913 -1.91429 -0.366176 0
M  V30 3920 H 350.009 -2.5951 -1.73381 0
M  V30 3921 N 350.31 0.590341 -1.46126 0
M  V30 3922 C 351.273 1.68194 -1.55703 0
M  V30 3923 C 352.273 1.54808 -0.434868 0
M  V30 3924 O 353.463 1.59564 -0.698928 0
M  V30 3925 C 350.595 3.07575 -1.47005 0
M  V30 3926 H 351.788 1.61064 -2.52979 0
M  V30 3927 H 349.341 0.807541 -1.33823 0
M  V30 3928 H 350.076 3.20268 -0.509785 0
M  V30 3929 H 349.861 3.187 -2.28414 0
M  V30 3930 H 351.351 3.87055 -1.56776 0
M  V30 3931 N 351.788 1.33704 0.83433 0
M  V30 3932 C 352.718 1.26967 1.95963 0
M  V30 3933 C 353.699 0.149337 1.69443 0
M  V30 3934 O 354.884 0.339852 1.91203 0
M  V30 3935 C 352.014 1.01275 3.32206 0
M  V30 3936 C 350.968 2.09652 3.73136 0
M  V30 3937 C 350.294 1.69166 5.07235 0
M  V30 3938 C 351.594 3.51372 3.86439 0
M  V30 3939 H 353.288 2.2112 2.01857 0
M  V30 3940 H 350.834 1.06447 0.969793 0
M  V30 3941 H 352.787 0.952106 4.10503 0
M  V30 3942 H 351.511 0.0356203 3.26581 0
M  V30 3943 H 350.17 2.14766 2.97104 0
M  V30 3944 H 349.818 0.701437 4.98085 0
M  V30 3945 H 349.518 2.41694 5.35591 0
M  V30 3946 H 351.042 1.64576 5.88003 0
M  V30 3947 H 352.456 3.48734 4.55036 0
M  V30 3948 H 350.853 4.22425 4.26236 0
M  V30 3949 H 351.923 3.89546 2.88759 0
M  V30 3950 N 353.266 -1.05314 1.17247 0
M  V30 3951 C 354.515 -1.77685 0.954521 0
M  V30 3952 C 354.828 -1.88616 -0.518025 0
M  V30 3953 O 356.034 -2.57714 -0.854144 0
M  V30 3954 C 354.49 -3.19402 1.65863 0
M  V30 3955 C 354.098 -3.16605 3.16963 0
M  V30 3956 C 355.842 -3.96237 1.52303 0
M  V30 3957 C 353.749 -4.53103 3.80068 0
M  V30 3958 H 352.679 -0.666 0.353496 0
M  V30 3959 H 355.33 -1.1805 1.40486 0
M  V30 3960 H 353.712 -3.79355 1.13602 0
M  V30 3961 H 354.886 -2.66176 3.76148 0
M  V30 3962 H 353.201 -2.53268 3.30521 0
M  V30 3963 H 355.798 -4.97157 1.96822 0
M  V30 3964 H 356.141 -4.136 0.473401 0
M  V30 3965 H 356.674 -3.42829 2.01775 0
M  V30 3966 H 353.413 -4.40946 4.85023 0
M  V30 3967 H 352.933 -5.03686 3.2567 0
M  V30 3968 H 354.612 -5.22045 3.82202 0
M  V30 3969 N 354.744 -0.972509 -1.24016 0
M  V30 3970 C 355.694 -0.477561 -2.22942 0
M  V30 3971 C 356.678 0.44308 -1.54679 0
M  V30 3972 O 357.87 0.273219 -1.74879 0
M  V30 3973 C 354.999 0.226348 -3.42553 0
M  V30 3974 C 354.085 -0.713403 -4.18057 0
M  V30 3975 N 354.476 -1.8527 -4.70647 0
M  V30 3976 C 352.774 -0.525145 -4.42898 0
M  V30 3977 C 353.475 -2.44089 -5.28011 0
M  V30 3978 N 352.451 -1.72556 -5.15486 0
M  V30 3979 H 356.253 -1.34678 -2.61226 0
M  V30 3980 H 353.767 -0.832196 -1.39457 0
M  V30 3981 H 355.764 0.598184 -4.12586 0
M  V30 3982 H 354.424 1.09195 -3.05788 0
M  V30 3983 H 355.435 -2.2341 -4.67235 0
M  V30 3984 H 352.112 0.296096 -4.16449 0
M  V30 3985 H 353.502 -3.40259 -5.79374 0
M  V30 3986 N 356.222 1.38976 -0.743202 0
M  V30 3987 C 357.447 2.05161 -0.303936 0
M  V30 3988 C 357.872 1.55677 1.05576 0
M  V30 3989 O 357.23 0.704131 1.67068 0
M  V30 3990 C 357.278 3.59138 -0.324373 0
M  V30 3991 O 356.382 4.06668 0.685204 0
M  V30 3992 H 355.723 0.649815 -0.136518 0
M  V30 3993 H 358.253 1.77852 -1.01142 0
M  V30 3994 H 358.263 4.07639 -0.171618 0
M  V30 3995 H 356.938 3.94515 -1.31647 0
M  V30 3996 H 355.515 3.69561 0.497913 0
M  V30 3997 N 357.7 0.491464 1.49741 0
M  V30 3998 C 358.946 -0.0565092 2.02721 0
M  V30 3999 C 359.279 -1.37522 1.37118 0
M  V30 4000 O 358.554 -1.87866 0.503645 0
M  V30 4001 C 358.837 -0.219051 3.59433 0
M  V30 4002 C 358.69 1.12211 4.35579 0
M  V30 4003 C 360.009 -0.964157 4.29409 0
M  V30 4004 H 357.128 -0.0190627 0.736753 0
M  V30 4005 H 359.77 0.641021 1.7886 0
M  V30 4006 H 357.92 -0.813165 3.79895 0
M  V30 4007 H 359.592 1.75437 4.26637 0
M  V30 4008 H 357.835 1.71377 3.98513 0
M  V30 4009 H 358.506 0.961794 5.43556 0
M  V30 4010 H 360.982 -0.460378 4.13545 0
M  V30 4011 H 359.858 -1.04671 5.38828 0
M  V30 4012 H 360.119 -2.00563 3.93988 0
M  V30 4013 N 359.178 -1.55987 0.224894 0
M  V30 4014 C 360.125 -2.20436 -0.68385 0
M  V30 4015 C 361.095 -1.16102 -1.18783 0
M  V30 4016 O 362.28 -1.4447 -1.24632 0
M  V30 4017 C 359.42 -2.89076 -1.88491 0
M  V30 4018 C 358.533 -4.08012 -1.41951 0
M  V30 4019 C 357.668 -4.64426 -2.5784 0
M  V30 4020 C 356.707 -5.75656 -2.08053 0
M  V30 4021 N 355.844 -6.26347 -3.17227 0
M  V30 4022 H 360.684 -2.97727 -0.12754 0
M  V30 4023 H 358.221 -1.47011 -0.0511978 0
M  V30 4024 H 360.179 -3.27059 -2.59014 0
M  V30 4025 H 358.809 -2.14298 -2.41405 0
M  V30 4026 H 357.861 -3.75492 -0.609095 0
M  V30 4027 H 359.173 -4.88375 -1.01447 0
M  V30 4028 H 358.327 -5.04869 -3.3644 0
M  V30 4029 H 357.066 -3.83233 -3.01635 0
M  V30 4030 H 356.071 -5.34712 -1.27916 0
M  V30 4031 H 357.296 -6.58686 -1.65255 0
M  V30 4032 H 355.242 -5.48067 -3.60497 0
M  V30 4033 H 355.159 -7.01843 -2.80986 0
M  V30 4034 H 356.427 -6.71447 -3.95953 0
M  V30 4035 N 360.656 0.0484629 -1.57525 0
M  V30 4036 C 361.603 1.05504 -2.05275 0
M  V30 4037 C 362.573 1.37084 -0.937927 0
M  V30 4038 O 363.758 1.47754 -1.2072 0
M  V30 4039 C 360.898 2.35676 -2.52093 0
M  V30 4040 C 360.011 2.10423 -3.77288 0
M  V30 4041 C 359.146 3.34327 -4.12794 0
M  V30 4042 C 358.185 3.04542 -5.30962 0
M  V30 4043 N 357.322 4.20841 -5.61994 0
M  V30 4044 H 362.162 0.640885 -2.91027 0
M  V30 4045 H 359.699 0.304854 -1.43906 0
M  V30 4046 H 361.657 3.11709 -2.77297 0
M  V30 4047 H 360.287 2.7485 -1.69285 0
M  V30 4048 H 359.339 1.24976 -3.59284 0
M  V30 4049 H 360.651 1.84438 -4.63448 0
M  V30 4050 H 359.805 4.1874 -4.39024 0
M  V30 4051 H 358.544 3.63408 -3.25247 0
M  V30 4052 H 357.549 2.18528 -5.04505 0
M  V30 4053 H 358.774 2.76758 -6.20146 0
M  V30 4054 H 356.72 4.4991 -4.77406 0
M  V30 4055 H 356.637 3.98212 -6.42622 0
M  V30 4056 H 357.905 5.06184 -5.92789 0
M  V30 4057 N 362.134 1.5431 0.320358 0
M  V30 4058 C 363.064 1.86912 1.3995 0
M  V30 4059 C 364.045 0.726211 1.53819 0
M  V30 4060 O 365.23 0.980233 1.67646 0
M  V30 4061 C 362.36 2.09932 2.7667 0
M  V30 4062 C 361.314 3.25776 2.77586 0
M  V30 4063 C 360.64 3.34173 4.17412 0
M  V30 4064 C 361.94 4.6335 2.41048 0
M  V30 4065 H 363.634 2.77292 1.12914 0
M  V30 4066 H 361.18 1.33421 0.541738 0
M  V30 4067 H 363.133 2.31324 3.52232 0
M  V30 4068 H 361.857 1.16304 3.0519 0
M  V30 4069 H 360.516 3.04276 2.04479 0
M  V30 4070 H 360.164 2.38098 4.43078 0
M  V30 4071 H 359.864 4.12033 4.18931 0
M  V30 4072 H 361.388 3.57803 4.94782 0
M  V30 4073 H 362.802 4.84602 3.06324 0
M  V30 4074 H 361.199 5.43782 2.53813 0
M  V30 4075 H 362.269 4.65381 1.36193 0
M  V30 4076 N 363.613 -0.582584 1.46437 0
M  V30 4077 C 364.576 -1.67366 1.56592 0
M  V30 4078 C 365.576 -1.54575 0.443072 0
M  V30 4079 O 366.766 -1.59191 0.707381 0
M  V30 4080 C 363.898 -3.06791 1.48634 0
M  V30 4081 H 365.091 -1.5972 2.5383 0
M  V30 4082 H 362.644 -0.800432 1.34249 0
M  V30 4083 H 363.379 -3.19993 0.526763 0
M  V30 4084 H 363.164 -3.17484 2.30101 0
M  V30 4085 H 364.654 -3.86218 1.58826 0
M  V30 4086 N 365.091 -1.34144 -0.827227 0
M  V30 4087 C 366.368 -1.16844 -1.56865 0
M  V30 4088 C 366.748 0.260654 -2.09485 0
M  V30 4089 O 366.096 1.26138 -1.9053 0
M  V30 4090 C 366.306 -2.21939 -2.6934 0
M  V30 4091 C 367.654 -2.56695 -3.3822 0
M  V30 4092 O 368.678 -2.20695 -2.79593 0
M  V30 4093 O 367.537 -3.18518 -4.44082 0
M  V30 4094 H 364.631 -0.452669 -0.692112 0
M  V30 4095 H 367.177 -1.45763 -0.868973 0
M  V30 4096 H 365.949 -3.17882 -2.28182 0
M  V30 4097 H 365.572 -1.94172 -3.46962 0
M  V30 4098 N 366.569 1.04691 -1.17803 0
M  V30 4099 C 367.815 1.78045 -0.970969 0
M  V30 4100 C 368.148 1.87686 0.498751 0
M  V30 4101 O 367.423 1.38035 1.37027 0
M  V30 4102 C 367.706 3.2166 -1.61884 0
M  V30 4103 C 367.559 3.20001 -3.161 0
M  V30 4104 C 368.878 4.1962 -1.3269 0
M  V30 4105 H 365.997 0.64633 -0.354155 0
M  V30 4106 H 368.639 1.22333 -1.45378 0
M  V30 4107 H 366.789 3.69232 -1.20831 0
M  V30 4108 H 368.461 2.80467 -3.66246 0
M  V30 4109 H 366.704 2.58203 -3.48588 0
M  V30 4110 H 367.375 4.21386 -3.56564 0
M  V30 4111 H 369.851 3.80567 -1.68249 0
M  V30 4112 H 368.727 5.18339 -1.80599 0
M  V30 4113 H 368.988 4.414 -0.248622 0
M  V30 4114 N 368.047 0.979072 1.23499 0
M  V30 4115 C 369.275 0.665202 1.95915 0
M  V30 4116 C 369.69 -0.767571 1.72493 0
M  V30 4117 O 369.047 -1.51635 1.01554 0
M  V30 4118 C 369.098 0.944438 3.48945 0
M  V30 4119 O 368.819 2.3209 3.71572 0
M  V30 4120 C 370.32 0.646336 4.38563 0
M  V30 4121 H 367.54 0.247218 0.623798 0
M  V30 4122 H 370.084 1.31009 1.57025 0
M  V30 4123 H 368.239 0.345575 3.85856 0
M  V30 4124 H 368.653 2.40957 4.65876 0
M  V30 4125 H 370.127 0.892091 5.44744 0
M  V30 4126 H 370.604 -0.419575 4.37191 0
M  V30 4127 H 371.21 1.22562 4.07258 0
M  V30 4128 N 369.525 -1.3858 0.750561 0
M  V30 4129 C 370.774 -1.99424 0.302172 0
M  V30 4130 C 371.087 -1.60254 -1.12152 0
M  V30 4131 O 372.293 -2.14046 -1.67023 0
M  V30 4132 C 370.749 -3.56558 0.489307 0
M  V30 4133 C 370.357 -4.04682 1.92189 0
M  V30 4134 C 372.101 -4.24374 0.103478 0
M  V30 4135 C 370.008 -5.54446 2.05775 0
M  V30 4136 H 368.938 -0.746046 0.10923 0
M  V30 4137 H 371.589 -1.58383 0.92667 0
M  V30 4138 H 369.971 -3.95472 -0.204329 0
M  V30 4139 H 371.145 -3.77065 2.64875 0
M  V30 4140 H 369.46 -3.4958 2.26236 0
M  V30 4141 H 372.057 -5.34384 0.183787 0
M  V30 4142 H 372.4 -4.05468 -0.943481 0
M  V30 4143 H 372.933 -3.90688 0.748854 0
M  V30 4144 H 369.672 -5.78252 3.08714 0
M  V30 4145 H 369.192 -5.83816 1.37546 0
M  V30 4146 H 370.871 -6.20099 1.84626 0
M  V30 4147 N 371.003 -0.499398 -1.49478 0
M  V30 4148 C 371.933 0.269244 -2.31943 0
M  V30 4149 C 372.914 0.964054 -1.40143 0
M  V30 4150 O 374.099 0.955767 -1.69052 0
M  V30 4151 C 371.229 1.33504 -3.20615 0
M  V30 4152 C 370.183 0.760202 -4.21195 0
M  V30 4153 C 369.509 1.9264 -4.98792 0
M  V30 4154 C 370.809 -0.247661 -5.21712 0
M  V30 4155 H 372.503 -0.419082 -2.96452 0
M  V30 4156 H 370.049 -0.202988 -1.42562 0
M  V30 4157 H 372.002 1.88048 -3.77115 0
M  V30 4158 H 370.726 2.05253 -2.54045 0
M  V30 4159 H 369.385 0.23653 -3.65836 0
M  V30 4160 H 369.033 2.63154 -4.28671 0
M  V30 4161 H 368.733 1.54785 -5.66847 0
M  V30 4162 H 370.257 2.4762 -5.58137 0
M  V30 4163 H 371.671 0.209579 -5.72917 0
M  V30 4164 H 370.068 -0.541962 -5.97648 0
M  V30 4165 H 371.138 -1.16409 -4.7072 0
M  V30 4166 N 372.481 1.55866 -0.233164 0
M  V30 4167 C 373.709 2.02998 0.399905 0
M  V30 4168 C 374.124 1.11274 1.52524 0
M  V30 4169 O 373.481 0.124528 1.82075 0
M  V30 4170 C 373.532 3.4958 0.920639 0
M  V30 4171 O 373.253 4.37808 -0.159834 0
M  V30 4172 C 374.754 4.12411 1.62578 0
M  V30 4173 H 371.974 0.664006 0.0966281 0
M  V30 4174 H 374.518 2.0143 -0.353013 0
M  V30 4175 H 372.673 3.51727 1.62379 0
M  V30 4176 H 373.087 5.23981 0.23337 0
M  V30 4177 H 374.561 5.16711 1.94201 0
M  V30 4178 H 375.038 3.5809 2.54299 0
M  V30 4179 H 375.644 4.14148 0.967553 0
M  V30 4180 N 373.959 -0.0401083 1.57549 0
M  V30 4181 C 375.208 -0.732108 1.87944 0
M  V30 4182 C 375.521 -1.77107 0.830206 0
M  V30 4183 O 376.727 -2.51488 1.02302 0
M  V30 4184 C 375.183 -1.35315 3.33494 0
M  V30 4185 C 374.791 -0.351105 4.46622 0
M  V30 4186 C 376.535 -2.02566 3.73051 0
M  V30 4187 C 374.442 -0.979859 5.83226 0
M  V30 4188 H 373.372 -0.277188 0.701201 0
M  V30 4189 H 376.023 0.0138501 1.83495 0
M  V30 4190 H 374.405 -2.14844 3.32653 0
M  V30 4191 H 375.579 0.416674 4.58912 0
M  V30 4192 H 373.894 0.218708 4.15825 0
M  V30 4193 H 376.491 -2.50441 4.72423 0
M  V30 4194 H 376.834 -2.83904 3.04474 0
M  V30 4195 H 377.367 -1.29827 3.76018 0
M  V30 4196 H 374.106 -0.206135 6.55176 0
M  V30 4197 H 373.626 -1.71774 5.74677 0
M  V30 4198 H 375.305 -1.49046 6.29599 0
M  V30 4199 N 375.437 -1.54477 -0.31217 0
M  V30 4200 C 376.684 -1.73227 -1.04875 0
M  V30 4201 C 377.012 -0.512042 -1.87639 0
M  V30 4202 O 376.267 0.506131 -1.89042 0
M  V30 4203 C 376.566 -2.967 -1.99258 0
M  V30 4204 C 376.232 -4.30974 -1.32559 0
M  V30 4205 C 374.894 -4.67477 -1.141 0
M  V30 4206 C 377.246 -5.14258 -0.847835 0
M  V30 4207 C 374.574 -5.84852 -0.465326 0
M  V30 4208 C 376.926 -6.32327 -0.185931 0
M  V30 4209 C 375.59 -6.67499 0.0107077 0
M  V30 4210 H 374.86 -0.633881 -0.383765 0
M  V30 4211 H 377.507 -1.88727 -0.324731 0
M  V30 4212 H 375.812 -2.75935 -2.7815 0
M  V30 4213 H 377.509 -3.08401 -2.563 0
M  V30 4214 H 374.099 -4.02262 -1.4793 0
M  V30 4215 H 378.283 -4.86565 -0.978192 0
M  V30 4216 H 373.539 -6.10654 -0.301883 0
M  V30 4217 H 377.713 -6.96135 0.192211 0
M  V30 4218 H 375.34 -7.58306 0.536287 0
M  V30 4219 N 376.915 0.57481 -1.46744 0
M  V30 4220 C 378.155 1.34369 -1.54027 0
M  V30 4221 C 378.519 1.91051 -0.190642 0
M  V30 4222 O 379.72 2.68444 -0.138255 0
M  V30 4223 C 377.991 2.43706 -2.61423 0
M  V30 4224 S 379.55 3.30915 -2.88167 0
M  V30 4225 H 376.368 0.45768 -0.544105 0
M  V30 4226 H 378.97 0.659959 -1.84024 0
M  V30 4227 H 377.674 2.0047 -3.58106 0
M  V30 4228 H 377.205 3.16842 -2.33184 0
M  V30 4229 H 379.22 4.42742 -2.24039 0
M  V30 4230 N 378.394 1.34581 0.820102 0
M  V30 4231 C 379.324 1.29038 1.94606 0
M  V30 4232 C 380.305 0.1673 1.69275 0
M  V30 4233 O 381.49 0.360112 1.90832 0
M  V30 4234 C 378.62 1.04793 3.31113 0
M  V30 4235 C 377.574 2.13597 3.70891 0
M  V30 4236 C 376.9 1.74537 5.05412 0
M  V30 4237 C 378.2 3.55451 3.8269 0
M  V30 4238 H 379.894 2.23248 1.99501 0
M  V30 4239 H 377.44 1.0747 0.958449 0
M  V30 4240 H 379.393 0.995592 4.0947 0
M  V30 4241 H 378.117 0.0702565 3.26524 0
M  V30 4242 H 376.776 2.17905 2.9481 0
M  V30 4243 H 376.424 0.754226 4.97313 0
M  V30 4244 H 376.124 2.47361 5.32997 0
M  V30 4245 H 377.648 1.70803 5.86224 0
M  V30 4246 H 379.062 3.5354 4.51312 0
M  V30 4247 H 377.459 4.26922 4.21732 0
M  V30 4248 H 378.529 3.92587 2.84611 0
M  V30 4249 N 379.872 -1.04064 1.18357 0
M  V30 4250 C 381.097 -1.81454 1.00445 0
M  V30 4251 C 381.522 -1.82823 -0.442423 0
M  V30 4252 O 380.88 -1.24555 -1.31741 0
M  V30 4253 C 380.928 -3.24925 1.56384 0
M  V30 4254 O 380.032 -4.04856 0.785209 0
M  V30 4255 H 379.373 -0.560604 0.355835 0
M  V30 4256 H 381.903 -1.31059 1.57114 0
M  V30 4257 H 381.913 -3.75702 1.59097 0
M  V30 4258 H 380.588 -3.23244 2.61699 0
M  V30 4259 H 379.165 -3.63537 0.830399 0
M  V30 4260 N 381.35 -0.985608 -1.22978 0
M  V30 4261 C 382.596 -0.65836 -1.91816 0
M  V30 4262 C 382.929 0.806692 -1.76653 0
M  V30 4263 O 382.204 1.58252 -1.13078 0
M  V30 4264 C 382.487 -1.056 -3.44268 0
M  V30 4265 C 382.34 -2.57906 -3.68516 0
M  V30 4266 C 383.659 -0.603781 -4.35939 0
M  V30 4267 H 380.778 -0.24065 -0.696604 0
M  V30 4268 H 383.42 -1.22783 -1.44998 0
M  V30 4269 H 381.57 -0.571445 -3.84274 0
M  V30 4270 H 383.242 -3.13976 -3.3796 0
M  V30 4271 H 381.485 -3.00305 -3.13048 0
M  V30 4272 H 382.156 -2.80779 -4.75255 0
M  V30 4273 H 384.632 -1.01987 -4.03408 0
M  V30 4274 H 383.508 -0.910383 -5.41298 0
M  V30 4275 H 383.769 0.495761 -4.39312 0
M  V30 4276 N 382.828 1.3818 -0.7579 0
M  V30 4277 C 384.075 2.00019 -0.315985 0
M  V30 4278 C 384.403 1.60163 1.10355 0
M  V30 4279 O 383.658 0.83264 1.77103 0
M  V30 4280 C 383.957 3.55252 -0.391218 0
M  V30 4281 C 383.623 4.14834 -1.76702 0
M  V30 4282 C 382.285 4.30821 -2.14353 0
M  V30 4283 C 384.637 4.47658 -2.66931 0
M  V30 4284 C 381.965 4.76928 -3.41696 0
M  V30 4285 C 384.317 4.95184 -3.93669 0
M  V30 4286 C 382.981 5.09377 -4.31383 0
M  V30 4287 H 382.251 0.731923 -0.115627 0
M  V30 4288 H 384.898 1.65161 -0.969223 0
M  V30 4289 H 383.203 3.90273 0.34558 0
M  V30 4290 H 384.9 4.00988 -0.030805 0
M  V30 4291 H 381.49 4.02808 -1.46435 0
M  V30 4292 H 385.674 4.34904 -2.39106 0
M  V30 4293 H 380.93 4.86103 -3.70829 0
M  V30 4294 H 385.104 5.19551 -4.63724 0
M  V30 4295 H 382.731 5.44865 -5.30119 0
M  V30 4296 N 384.306 0.507319 1.49211 0
M  V30 4297 C 385.269 -0.256763 2.27757 0
M  V30 4298 C 386.269 -0.888287 1.34038 0
M  V30 4299 O 387.459 -0.751841 1.5714 0
M  V30 4300 C 384.591 -1.36905 3.12202 0
M  V30 4301 H 385.784 0.432557 2.96764 0
M  V30 4302 H 383.337 0.262488 1.5408 0
M  V30 4303 H 384.072 -2.09233 2.47775 0
M  V30 4304 H 383.857 -0.921599 3.81115 0
M  V30 4305 H 385.347 -1.9071 3.7151 0
M  V30 4306 N 385.784 -1.5574 0.241426 0
M  V30 4307 C 386.714 -2.24133 -0.654722 0
M  V30 4308 C 387.695 -1.21974 -1.1856 0
M  V30 4309 O 388.88 -1.50612 -1.22595 0
M  V30 4310 C 386.01 -2.93659 -1.85423 0
M  V30 4311 C 384.964 -4.0246 -1.45636 0
M  V30 4312 C 384.29 -4.59383 -2.73626 0
M  V30 4313 C 385.59 -5.18468 -0.631506 0
M  V30 4314 H 387.284 -2.99281 -0.0844353 0
M  V30 4315 H 384.83 -1.43947 -0.0391707 0
M  V30 4316 H 386.783 -3.40203 -2.48676 0
M  V30 4317 H 385.507 -2.15991 -2.44981 0
M  V30 4318 H 384.166 -3.56676 -0.847202 0
M  V30 4319 H 383.814 -3.78422 -3.3137 0
M  V30 4320 H 383.514 -5.32826 -2.4773 0
M  V30 4321 H 385.038 -5.08658 -3.37786 0
M  V30 4322 H 386.452 -5.61272 -1.1682 0
M  V30 4323 H 384.849 -5.98266 -0.468831 0
M  V30 4324 H 385.919 -4.8358 0.357506 0
M  V30 4325 N 387.262 0.0317525 -1.57568 0
M  V30 4326 C 388.508 0.724175 -1.8943 0
M  V30 4327 C 388.841 1.75149 -0.838836 0
M  V30 4328 O 388.116 1.93948 0.146422 0
M  V30 4329 C 388.399 1.39615 -3.31933 0
M  V30 4330 C 388.252 0.382537 -4.4817 0
M  V30 4331 C 389.571 2.33084 -3.73309 0
M  V30 4332 H 386.69 0.261797 -0.688935 0
M  V30 4333 H 389.332 -0.013017 -1.89996 0
M  V30 4334 H 387.482 2.02451 -3.31581 0
M  V30 4335 H 389.154 -0.243689 -4.60656 0
M  V30 4336 H 387.397 -0.29844 -4.32772 0
M  V30 4337 H 388.068 0.891145 -5.44759 0
M  V30 4338 H 390.544 1.80295 -3.7501 0
M  V30 4339 H 389.42 2.77084 -4.73831 0
M  V30 4340 H 389.681 3.19643 -3.05419 0
M  V30 4341 N 388.74 1.54641 0.303973 0
M  V30 4342 C 389.988 1.73437 1.0375 0
M  V30 4343 C 390.309 0.521449 1.87899 0
M  V30 4344 O 389.579 -0.46432 1.90318 0
M  V30 4345 H 388.159 0.639518 0.386039 0
M  V30 4346 H 390.821 1.91988 0.335675 0
M  V30 4347 H 389.917 2.62235 1.69231 0
M  V30 4348 N 390.218 -0.567019 1.47046 0
M  V30 4349 C 391.148 -1.68482 1.61667 0
M  V30 4350 C 392.129 -1.6358 0.466418 0
M  V30 4351 O 393.314 -1.81354 0.694574 0
M  V30 4352 C 390.444 -3.07124 1.62148 0
M  V30 4353 C 389.398 -3.26867 2.76301 0
M  V30 4354 C 388.724 -4.66196 2.61849 0
M  V30 4355 C 390.024 -3.13186 4.17986 0
M  V30 4356 H 391.718 -1.56502 2.5524 0
M  V30 4357 H 389.264 -0.751486 1.22836 0
M  V30 4358 H 391.217 -3.8516 1.70968 0
M  V30 4359 H 389.941 -3.2004 0.651287 0
M  V30 4360 H 388.6 -2.51237 2.66975 0
M  V30 4361 H 388.248 -4.75898 1.62879 0
M  V30 4362 H 387.948 -4.80356 3.38425 0
M  V30 4363 H 389.472 -5.46379 2.72584 0
M  V30 4364 H 390.886 -3.81049 4.2834 0
M  V30 4365 H 389.283 -3.3886 4.95272 0
M  V30 4366 H 390.353 -2.10057 4.3704 0
M  V30 4367 N 391.696 -1.35014 -0.812953 0
M  V30 4368 C 392.628 -1.23262 -1.93233 0
M  V30 4369 C 393.641 -0.157371 -1.62038 0
M  V30 4370 O 394.83 -0.410096 -1.73725 0
M  V30 4371 C 391.93 -0.87392 -3.27438 0
M  V30 4372 C 391.103 -2.04622 -3.86586 0
M  V30 4373 C 390.162 -1.66432 -4.99186 0
M  V30 4374 O 389.188 -2.38222 -5.16951 0
M  V30 4375 N 390.39 -0.584248 -5.77552 0
M  V30 4376 H 393.155 -2.19699 -2.03844 0
M  V30 4377 H 390.716 -1.281 -0.99005 0
M  V30 4378 H 392.708 -0.600039 -4.00227 0
M  V30 4379 H 391.278 0.00057392 -3.126 0
M  V30 4380 H 390.498 -2.48427 -3.06068 0
M  V30 4381 H 391.786 -2.82999 -4.22835 0
M  V30 4382 H 391.184 0.0123526 -5.65699 0
M  V30 4383 H 389.741 -0.37013 -6.50748 0
M  V30 4384 N 393.175 1.03435 -1.18907 0
M  V30 4385 C 394.105 2.13503 -0.945448 0
M  V30 4386 C 395.086 1.69682 0.119189 0
M  V30 4387 O 396.271 1.94169 -0.034707 0
M  V30 4388 C 393.401 3.44004 -0.477316 0
M  V30 4389 C 392.355 4.0148 -1.48316 0
M  V30 4390 C 391.681 5.27537 -0.872311 0
M  V30 4391 C 392.981 4.36921 -2.86177 0
M  V30 4392 H 394.675 2.34141 -1.86597 0
M  V30 4393 H 392.221 1.12523 -0.898584 0
M  V30 4394 H 394.174 4.20372 -0.294204 0
M  V30 4395 H 392.898 3.23072 0.478786 0
M  V30 4396 H 391.557 3.27201 -1.65332 0
M  V30 4397 H 391.205 5.02917 0.0911752 0
M  V30 4398 H 390.905 5.66954 -1.54393 0
M  V30 4399 H 392.429 6.06576 -0.699871 0
M  V30 4400 H 393.843 5.04248 -2.72776 0
M  V30 4401 H 392.24 4.87405 -3.50081 0
M  V30 4402 H 393.31 3.46466 -3.39248 0
M  V30 4403 N 394.653 0.992116 1.22453 0
M  V30 4404 C 395.9 0.667534 1.91181 0
M  V30 4405 C 396.228 -0.800317 1.77271 0
M  V30 4406 O 395.483 -1.59421 1.13505 0
M  V30 4407 C 395.782 1.01832 3.42586 0
M  V30 4408 C 395.448 2.47831 3.76684 0
M  V30 4409 C 394.11 2.87729 3.85701 0
M  V30 4410 C 396.462 3.42466 3.92895 0
M  V30 4411 C 393.79 4.21252 4.08367 0
M  V30 4412 C 396.142 4.75648 4.17064 0
M  V30 4413 C 394.806 5.15288 4.24305 0
M  V30 4414 H 394.076 0.244268 0.699581 0
M  V30 4415 H 396.723 1.24816 1.45235 0
M  V30 4416 H 395.028 0.355769 3.90181 0
M  V30 4417 H 396.725 0.745228 3.94014 0
M  V30 4418 H 393.315 2.15905 3.70247 0
M  V30 4419 H 397.499 3.12814 3.85307 0
M  V30 4420 H 392.755 4.51554 4.122 0
M  V30 4421 H 396.929 5.48924 4.2855 0
M  V30 4422 H 394.556 6.18769 4.41621 0
M  V30 4423 N 396.131 -1.37776 0.765217 0
M  V30 4424 C 397.078 -2.30342 0.145274 0
M  V30 4425 C 398.048 -1.5077 -0.696971 0
M  V30 4426 O 399.233 -1.79362 -0.650689 0
M  V30 4427 C 396.373 -3.37227 -0.732939 0
M  V30 4428 C 395.486 -4.31819 0.125199 0
M  V30 4429 C 394.621 -5.25777 -0.757107 0
M  V30 4430 C 393.66 -6.12012 0.103963 0
M  V30 4431 N 392.797 -6.98232 -0.735953 0
M  V30 4432 H 397.637 -2.8278 0.940195 0
M  V30 4433 H 395.174 -1.39211 0.475255 0
M  V30 4434 H 397.132 -3.97818 -1.25686 0
M  V30 4435 H 395.762 -2.86171 -1.49353 0
M  V30 4436 H 394.814 -3.7259 0.766865 0
M  V30 4437 H 396.126 -4.92509 0.789683 0
M  V30 4438 H 395.28 -5.91541 -1.34776 0
M  V30 4439 H 394.019 -4.65481 -1.45529 0
M  V30 4440 H 393.024 -5.45233 0.707197 0
M  V30 4441 H 394.249 -6.74379 0.799381 0
M  V30 4442 H 392.195 -6.40472 -1.41887 0
M  V30 4443 H 392.112 -7.55891 -0.128624 0
M  V30 4444 H 393.38 -7.68393 -1.31121 0
M  V30 4445 N 397.609 -0.515225 -1.4894 0
M  V30 4446 C 398.857 0.0241671 -2.02086 0
M  V30 4447 C 399.178 1.3616 -1.3959 0
M  V30 4448 O 398.448 1.87841 -0.556121 0
M  V30 4449 H 397.028 0.0119203 -0.746905 0
M  V30 4450 H 399.69 -0.675702 -1.82812 0
M  V30 4451 H 398.786 0.143385 -3.1177 0
M  V30 4452 N 399.087 1.5561 -0.249682 0
M  V30 4453 C 400.035 2.22894 0.664906 0
M  V30 4454 C 401.029 1.21743 1.17792 0
M  V30 4455 O 402.235 1.39748 1.13449 0
M  V30 4456 H 398.61 0.715022 0.232912 0
M  V30 4457 H 400.581 2.98307 0.0742998 0
M  V30 4458 C 399.33 2.94424 1.84959 0
M  V30 4459 H 398.653 3.72031 1.46399 0
M  V30 4460 H 400.093 3.44862 2.4667 0
M  V30 4461 C 398.552 1.98454 2.72245 0
M  V30 4462 O 399.082 1.51939 3.71857 0
M  V30 4463 N 397.288 1.65496 2.38871 0
M  V30 4464 H 396.835 2.03517 1.57919 0
M  V30 4465 H 396.793 1.0155 2.97548 0
M  V30 4466 N 400.565 -0.0233959 1.57583 0
M  V30 4467 C 401.495 -1.02162 2.09965 0
M  V30 4468 C 402.476 -1.3735 1.00344 0
M  V30 4469 O 403.661 -1.46135 1.27899 0
M  V30 4470 C 400.791 -2.32081 2.58371 0
M  V30 4471 C 399.745 -2.1112 3.72307 0
M  V30 4472 C 399.071 -3.46848 4.06941 0
M  V30 4473 C 400.371 -1.49276 5.00514 0
M  V30 4474 H 402.065 -0.585557 2.93618 0
M  V30 4475 H 399.611 -0.280218 1.41247 0
M  V30 4476 H 401.564 -3.02249 2.93639 0
M  V30 4477 H 400.288 -2.77758 1.71808 0
M  V30 4478 H 398.947 -1.43384 3.37397 0
M  V30 4479 H 398.595 -3.90184 3.17436 0
M  V30 4480 H 398.295 -3.33646 4.83688 0
M  V30 4481 H 399.819 -4.18369 4.44747 0
M  V30 4482 H 401.233 -2.09368 5.33702 0
M  V30 4483 H 399.63 -1.46632 5.8191 0
M  V30 4484 H 400.7 -0.459217 4.82721 0
M  V30 4485 N 402.043 -1.548 -0.295768 0
M  V30 4486 C 402.99 -1.86113 -1.36494 0
M  V30 4487 C 403.96 -0.7105 -1.50137 0
M  V30 4488 O 405.145 -0.959626 -1.64912 0
M  V30 4489 C 402.285 -2.11861 -2.72413 0
M  V30 4490 C 401.398 -3.39471 -2.67177 0
M  V30 4491 C 400.533 -3.55035 -3.95125 0
M  V30 4492 C 399.572 -4.76418 -3.84308 0
M  V30 4493 N 398.709 -4.8876 -5.04042 0
M  V30 4494 H 403.549 -2.77314 -1.09091 0
M  V30 4495 H 401.086 -1.37315 -0.52753 0
M  V30 4496 H 403.044 -2.24786 -3.51464 0
M  V30 4497 H 401.674 -1.2392 -2.98066 0
M  V30 4498 H 400.726 -3.35139 -1.79962 0
M  V30 4499 H 402.038 -4.28646 -2.55076 0
M  V30 4500 H 401.192 -3.67653 -4.82614 0
M  V30 4501 H 399.931 -2.64002 -4.10066 0
M  V30 4502 H 398.936 -4.63827 -2.95202 0
M  V30 4503 H 400.161 -5.68863 -3.70906 0
M  V30 4504 H 398.107 -4.00652 -5.19436 0
M  V30 4505 H 398.024 -5.71945 -4.94384 0
M  V30 4506 H 399.292 -5.0574 -5.93167 0
M  V30 4507 N 403.521 0.559213 -1.47345 0
M  V30 4508 C 404.469 1.68747 -1.60085 0
M  V30 4509 C 405.463 1.628 -0.46825 0
M  V30 4510 O 406.669 1.68009 -0.645977 0
M  V30 4511 H 403.044 0.558329 -0.503759 0
M  V30 4512 H 405.015 1.55138 -2.54902 0
M  V30 4513 C 403.764 3.07103 -1.63042 0
M  V30 4514 H 403.087 3.12361 -2.49541 0
M  V30 4515 H 404.527 3.85743 -1.76006 0
M  V30 4516 C 402.986 3.34935 -0.363357 0
M  V30 4517 O 403.516 3.98102 0.536416 0
M  V30 4518 N 401.722 2.89574 -0.244 0
M  V30 4519 H 401.269 2.38348 -0.977133 0
M  V30 4520 H 401.227 3.08566 0.602836 0
M  V30 4521 N 404.999 1.35443 0.805782 0
M  V30 4522 C 405.946 1.28431 1.91766 0
M  V30 4523 C 406.916 0.156102 1.65365 0
M  V30 4524 O 408.101 0.339936 1.87747 0
M  V30 4525 C 405.241 1.06301 3.2832 0
M  V30 4526 C 404.354 2.2805 3.66902 0
M  V30 4527 C 403.489 1.99064 4.92491 0
M  V30 4528 C 402.528 3.16863 5.23703 0
M  V30 4529 N 401.665 2.87647 6.40471 0
M  V30 4530 H 406.505 2.23511 1.97096 0
M  V30 4531 H 404.042 1.11105 0.964054 0
M  V30 4532 H 406 0.915012 4.07042 0
M  V30 4533 H 404.63 0.148822 3.22457 0
M  V30 4534 H 403.682 2.53711 2.83434 0
M  V30 4535 H 404.994 3.1601 3.85927 0
M  V30 4536 H 404.148 1.81099 5.7904 0
M  V30 4537 H 402.887 1.0839 4.75503 0
M  V30 4538 H 401.892 3.35404 4.35642 0
M  V30 4539 H 403.117 4.08339 5.4262 0
M  V30 4540 H 401.063 1.99568 6.24907 0
M  V30 4541 H 400.98 3.69141 6.59751 0
M  V30 4542 H 402.248 2.73226 7.30047 0
M  V30 4543 N 406.477 -1.02803 1.19454 0
M  V30 4544 C 407.717 -1.77769 1.00883 0
M  V30 4545 C 408.081 -1.86596 -0.45233 0
M  V30 4546 O 409.282 -2.57895 -0.757877 0
M  V30 4547 C 407.553 -3.16486 1.66046 0
M  V30 4548 S 409.112 -4.07632 1.62424 0
M  V30 4549 H 405.93 -0.611949 0.361993 0
M  V30 4550 H 408.532 -1.23175 1.51816 0
M  V30 4551 H 407.236 -3.0768 2.7159 0
M  V30 4552 H 406.767 -3.76156 1.15196 0
M  V30 4553 H 408.782 -4.91937 0.64903 0
M  V30 4554 N 407.956 -0.998596 -1.21925 0
M  V30 4555 C 409.202 -0.678667 -1.91107 0
M  V30 4556 C 409.535 0.78791 -1.77498 0
M  V30 4557 O 408.81 1.57043 -1.1475 0
M  V30 4558 C 409.093 -1.09245 -3.43129 0
M  V30 4559 C 408.946 -2.61801 -3.6576 0
M  V30 4560 C 410.265 -0.649984 -4.35274 0
M  V30 4561 H 407.384 -0.248025 -0.694012 0
M  V30 4562 H 410.026 -1.24314 -1.43688 0
M  V30 4563 H 408.176 -0.612171 -3.83647 0
M  V30 4564 H 409.848 -3.17543 -3.34611 0
M  V30 4565 H 408.091 -3.03609 -3.09845 0
M  V30 4566 H 408.762 -2.85804 -4.7225 0
M  V30 4567 H 411.238 -1.0626 -4.02303 0
M  V30 4568 H 410.114 -0.967743 -5.40302 0
M  V30 4569 H 410.375 0.449139 -4.39813 0
M  V30 4570 N 409.434 1.37368 -0.772513 0
M  V30 4571 C 410.381 2.30262 -0.157488 0
M  V30 4572 C 411.351 1.51137 0.688965 0
M  V30 4573 O 412.536 1.79704 0.641168 0
M  V30 4574 C 409.676 3.37611 0.715045 0
M  V30 4575 C 408.789 4.31746 -0.148098 0
M  V30 4576 C 407.924 5.26171 0.729213 0
M  V30 4577 C 406.963 6.11948 -0.136418 0
M  V30 4578 N 406.1 6.98613 0.698914 0
M  V30 4579 H 410.94 2.82277 -0.955179 0
M  V30 4580 H 408.477 1.38957 -0.482631 0
M  V30 4581 H 410.435 3.98479 1.23575 0
M  V30 4582 H 409.065 2.86959 1.47833 0
M  V30 4583 H 408.117 3.72178 -0.786613 0
M  V30 4584 H 409.429 4.92084 -0.81579 0
M  V30 4585 H 408.583 5.92247 1.31637 0
M  V30 4586 H 407.322 4.66246 1.43059 0
M  V30 4587 H 406.327 5.4485 -0.736102 0
M  V30 4588 H 407.552 6.73945 -0.835134 0
M  V30 4589 H 405.498 6.41215 1.38489 0
M  V30 4590 H 405.415 7.55948 0.0885358 0
M  V30 4591 H 406.683 7.69077 1.27044 0
M  V30 4592 N 410.912 0.523116 1.48665 0
M  V30 4593 C 411.86 -0.256859 2.31177 0
M  V30 4594 C 412.854 -0.94199 1.40794 0
M  V30 4595 O 414.06 -0.867157 1.57735 0
M  V30 4596 H 410.435 -0.1017 0.745091 0
M  V30 4597 H 412.406 0.458739 2.94853 0
M  V30 4598 C 411.155 -1.29503 3.22683 0
M  V30 4599 H 410.478 -0.777248 3.92172 0
M  V30 4600 H 411.918 -1.81233 3.83315 0
M  V30 4601 C 410.377 -2.32501 2.43813 0
M  V30 4602 O 410.907 -3.3881 2.15803 0
M  V30 4603 N 409.113 -2.05538 2.05432 0
M  V30 4604 H 408.66 -1.19104 2.28412 0
M  V30 4605 H 408.618 -2.74676 1.52973 0
M  V30 4606 N 412.39 -1.55475 0.257931 0
M  V30 4607 C 413.667 -1.91155 -0.414629 0
M  V30 4608 C 414.047 -1.18008 -1.75035 0
M  V30 4609 O 413.395 -0.301193 -2.26506 0
M  V30 4610 C 413.605 -3.44283 -0.571859 0
M  V30 4611 C 414.953 -4.15744 -0.862678 0
M  V30 4612 O 415.977 -3.50083 -0.657314 0
M  V30 4613 O 414.836 -5.31909 -1.2544 0
M  V30 4614 H 411.93 -0.796016 -0.22425 0
M  V30 4615 H 414.476 -1.66976 0.302814 0
M  V30 4616 H 413.248 -3.89558 0.368844 0
M  V30 4617 H 412.871 -3.7436 -1.33943 0
M  V30 4618 N 413.868 0.0150385 -1.57593 0
M  V30 4619 C 414.801 1.04475 -2.0288 0
M  V30 4620 C 415.779 1.3436 -0.915764 0
M  V30 4621 O 416.963 1.46779 -1.18271 0
M  V30 4622 C 414.09 2.37608 -2.41371 0
M  V30 4623 C 413.136 2.23487 -3.63257 0
M  V30 4624 S 413.969 1.57505 -5.11813 0
M  V30 4625 C 415.125 2.921 -5.5356 0
M  V30 4626 H 415.358 0.65907 -2.89903 0
M  V30 4627 H 412.891 0.225452 -1.52745 0
M  V30 4628 H 414.849 3.14165 -2.64217 0
M  V30 4629 H 413.51 2.7332 -1.54775 0
M  V30 4630 H 412.703 3.21802 -3.87891 0
M  V30 4631 H 412.305 1.55074 -3.40335 0
M  V30 4632 H 414.597 3.88419 -5.55101 0
M  V30 4633 H 415.54 2.72184 -6.53698 0
M  V30 4634 H 415.948 2.95318 -4.8109 0
M  V30 4635 N 415.346 1.54954 0.287554 0
M  V30 4636 C 416.309 1.86076 1.33823 0
M  V30 4637 C 417.309 0.734414 1.43049 0
M  V30 4638 O 418.499 1.00266 1.42452 0
M  V30 4639 C 415.631 2.05305 2.72144 0
M  V30 4640 H 416.824 2.79984 1.07465 0
M  V30 4641 H 414.377 1.47223 0.524902 0
M  V30 4642 H 415.112 1.1373 3.03704 0
M  V30 4643 H 414.897 2.873 2.66836 0
M  V30 4644 H 416.387 2.30706 3.48087 0
M  V30 4645 N 416.824 -0.551391 1.4764 0
M  V30 4646 C 418.07 -1.31024 1.54792 0
M  V30 4647 C 418.403 -1.9304 0.211967 0
M  V30 4648 O 417.678 -1.78175 -0.77999 0
M  V30 4649 C 417.961 -2.41593 2.67029 0
M  V30 4650 C 417.814 -1.84408 4.10261 0
M  V30 4651 C 419.133 -3.43488 2.75143 0
M  V30 4652 H 416.252 -0.475031 0.563485 0
M  V30 4653 H 418.894 -0.616454 1.79722 0
M  V30 4654 H 417.044 -3.00772 2.45904 0
M  V30 4655 H 418.716 -1.29445 4.42766 0
M  V30 4656 H 416.959 -1.15051 4.18265 0
M  V30 4657 H 417.63 -2.64367 4.84576 0
M  V30 4658 H 420.106 -2.94236 2.94218 0
M  V30 4659 H 418.982 -4.18274 3.55441 0
M  V30 4660 H 419.243 -4.02703 1.82435 0
M  V30 4661 N 418.302 -1.35869 -0.798587 0
M  V30 4662 C 419.25 -1.29491 -1.93222 0
M  V30 4663 C 420.244 -0.18836 -1.6835 0
M  V30 4664 O 421.45 -0.354822 -1.76468 0
M  V30 4665 H 417.825 -0.402901 -0.63496 0
M  V30 4666 H 419.796 -2.25247 -1.9572 0
M  V30 4667 C 418.545 -1.09184 -3.30112 0
M  V30 4668 H 417.868 -1.93574 -3.49813 0
M  V30 4669 H 419.308 -1.08766 -4.09812 0
M  V30 4670 C 417.767 0.203959 -3.36282 0
M  V30 4671 O 418.297 1.19699 -3.83451 0
M  V30 4672 N 416.503 0.245488 -2.89561 0
M  V30 4673 H 416.05 -0.563223 -2.51367 0
M  V30 4674 H 416.008 1.11219 -2.94071 0
M  V30 4675 N 419.78 1.02168 -1.19998 0
M  V30 4676 C 420.69 2.14069 -0.959774 0
M  V30 4677 C 421.706 1.73804 0.082655 0
M  V30 4678 O 422.882 2.01133 -0.103633 0
M  V30 4679 C 419.947 3.42936 -0.509459 0
M  V30 4680 C 419.008 3.97474 -1.62213 0
M  V30 4681 C 418.241 5.2019 -1.19321 0
M  V30 4682 O 418.464 5.70369 -0.0597726 0
M  V30 4683 O 417.398 5.67749 -1.99863 0
M  V30 4684 H 421.224 2.37199 -1.89658 0
M  V30 4685 H 418.809 1.12469 -0.983411 0
M  V30 4686 H 420.691 4.20551 -0.267322 0
M  V30 4687 H 419.366 3.21234 0.398821 0
M  V30 4688 H 418.273 3.21161 -1.9185 0
M  V30 4689 H 419.606 4.23555 -2.50723 0
M  V30 4690 N 421.258 1.00505 1.21394 0
M  V30 4691 C 422.486 0.706609 1.9446 0
M  V30 4692 C 422.901 -0.73081 1.74082 0
M  V30 4693 O 422.258 -1.49446 1.04747 0
M  V30 4694 C 422.309 1.01824 3.46863 0
M  V30 4695 O 422.03 2.39919 3.66566 0
M  V30 4696 C 423.531 0.739216 4.37093 0
M  V30 4697 H 420.751 0.260394 0.618414 0
M  V30 4698 H 423.295 1.34311 1.54211 0
M  V30 4699 H 421.45 0.427343 3.85036 0
M  V30 4700 H 421.864 2.50784 4.6066 0
M  V30 4701 H 423.338 1.00744 5.42729 0
M  V30 4702 H 423.815 -0.326746 4.37983 0
M  V30 4703 H 424.421 1.31173 4.04566 0
M  V30 4704 N 422.737 -1.36956 0.779787 0
M  V30 4705 C 423.965 -2.03755 0.359398 0
M  V30 4706 C 424.38 -1.58807 -1.02106 0
M  V30 4707 O 423.737 -0.773024 -1.6532 0
M  V30 4708 C 423.788 -3.59251 0.402568 0
M  V30 4709 O 423.509 -4.02557 1.72858 0
M  V30 4710 C 425.01 -4.43291 -0.0284068 0
M  V30 4711 H 422.23 -0.654148 0.149437 0
M  V30 4712 H 424.774 -1.75128 1.05595 0
M  V30 4713 H 422.929 -3.86621 -0.245478 0
M  V30 4714 H 423.343 -4.97111 1.67275 0
M  V30 4715 H 424.817 -5.51975 0.0529466 0
M  V30 4716 H 425.294 -4.25719 -1.07982 0
M  V30 4717 H 425.9 -4.21163 0.591758 0
M  V30 4718 N 424.215 -0.530993 -1.48385 0
M  V30 4719 C 425.163 0.244595 -2.3131 0
M  V30 4720 C 426.157 0.93451 -1.41291 0
M  V30 4721 O 427.363 0.85878 -1.58193 0
M  V30 4722 H 423.738 0.0977472 -0.74562 0
M  V30 4723 H 425.709 -0.474369 -2.94605 0
M  V30 4724 C 424.458 1.2779 -3.23365 0
M  V30 4725 H 423.781 0.756439 -3.92579 0
M  V30 4726 H 425.221 1.79198 -3.84271 0
M  V30 4727 C 423.68 2.31205 -2.45042 0
M  V30 4728 O 424.21 3.37661 -2.17596 0
M  V30 4729 N 422.416 2.04446 -2.0652 0
M  V30 4730 H 421.963 1.17891 -2.2904 0
M  V30 4731 H 421.921 2.73861 -1.54427 0
M  V30 4732 N 425.693 1.55336 -0.266172 0
M  V30 4733 C 426.923 2.03506 0.356239 0
M  V30 4734 C 427.331 1.14426 1.50676 0
M  V30 4735 O 426.674 0.155043 1.83045 0
M  V30 4736 C 426.736 3.47848 0.90785 0
M  V30 4737 C 426.4 4.56861 -0.112888 0
M  V30 4738 C 427.397 5.11528 -0.929264 0
M  V30 4739 C 425.082 5.01704 -0.244546 0
M  V30 4740 C 427.076 6.09549 -1.86357 0
M  V30 4741 C 424.763 5.99553 -1.18234 0
M  V30 4742 C 425.761 6.53356 -1.99036 0
M  V30 4743 O 425.449 7.49293 -2.91231 0
M  V30 4744 H 425.181 0.670444 0.08649 0
M  V30 4745 H 427.735 2.01598 -0.39337 0
M  V30 4746 H 425.965 3.46967 1.70737 0
M  V30 4747 H 427.654 3.79407 1.44239 0
M  V30 4748 H 428.42 4.77701 -0.838237 0
M  V30 4749 H 424.299 4.59477 0.374359 0
M  V30 4750 H 427.843 6.51469 -2.49467 0
M  V30 4751 H 423.74 6.32799 -1.27421 0
M  V30 4752 H 424.508 7.66978 -2.8581 0
M  V30 4753 N 427.171 -0.0066808 1.57599 0
M  V30 4754 C 428.396 -0.707738 1.94951 0
M  V30 4755 C 428.821 -1.66882 0.867868 0
M  V30 4756 O 428.179 -1.80457 -0.17458 0
M  V30 4757 C 428.227 -1.42162 3.31394 0
M  V30 4758 O 427.331 -2.53578 3.25226 0
M  V30 4759 H 426.672 -0.188752 0.636607 0
M  V30 4760 H 429.202 0.0445193 2.04552 0
M  V30 4761 H 429.212 -1.78655 3.66806 0
M  V30 4762 H 427.887 -0.716903 4.09675 0
M  V30 4763 H 426.464 -2.19463 3.01481 0
M  V30 4764 N 428.649 -1.55105 -0.279332 0
M  V30 4765 C 429.874 -1.7976 -1.03446 0
M  V30 4766 C 430.299 -0.565952 -1.79384 0
M  V30 4767 O 429.657 0.484259 -1.74713 0
M  V30 4768 C 429.705 -3.0179 -1.97371 0
M  V30 4769 O 428.809 -2.76432 -3.06038 0
M  V30 4770 H 428.15 -0.594334 -0.29608 0
M  V30 4771 H 430.68 -2.02235 -0.310165 0
M  V30 4772 H 430.69 -3.30351 -2.39441 0
M  V30 4773 H 429.365 -3.91085 -1.4151 0
M  V30 4774 H 427.942 -2.58949 -2.68328 0
M  V30 4775 N 430.127 0.543554 -1.4793 0
M  V30 4776 C 431.077 1.64527 -1.57844 0
M  V30 4777 C 432.061 1.54869 -0.436408 0
M  V30 4778 O 433.253 1.63119 -0.687101 0
M  V30 4779 C 430.382 3.03281 -1.6086 0
M  V30 4780 C 429.468 3.18093 -2.80495 0
M  V30 4781 N 429.859 3.02923 -4.05057 0
M  V30 4782 C 428.157 3.49121 -2.77543 0
M  V30 4783 C 428.858 3.20791 -4.85251 0
M  V30 4784 N 427.834 3.47749 -4.17818 0
M  V30 4785 H 431.636 1.51388 -2.5191 0
M  V30 4786 H 429.15 0.748671 -1.44113 0
M  V30 4787 H 431.147 3.82403 -1.66054 0
M  V30 4788 H 429.807 3.17521 -0.678996 0
M  V30 4789 H 430.818 2.79966 -4.35705 0
M  V30 4790 H 427.495 3.69804 -1.93781 0
M  V30 4791 H 428.885 3.13915 -5.9406 0
M  V30 4792 N 431.605 1.3629 0.791371 0
M  V30 4793 C 433.021 1.16661 1.08914 0
M  V30 4794 C 433.221 -0.0106266 2.01497 0
M  V30 4795 O 432.277 -0.676596 2.43266 0
M  V30 4796 C 433.59 2.47656 1.70549 0
M  V30 4797 C 435.138 2.54002 1.82899 0
M  V30 4798 C 435.613 3.85078 2.47949 0
M  V30 4799 N 437.104 3.86413 2.5542 0
M  V30 4800 C 437.839 4.84572 3.06557 0
M  V30 4801 N 437.335 5.93124 3.58016 0
M  V30 4802 N 439.128 4.71994 3.05251 0
M  V30 4803 H 431.279 2.11668 0.176238 0
M  V30 4804 H 433.542 0.937486 0.140796 0
M  V30 4805 H 433.248 3.34059 1.09989 0
M  V30 4806 H 433.122 2.63319 2.70079 0
M  V30 4807 H 435.509 1.68018 2.42598 0
M  V30 4808 H 435.59 2.42239 0.821808 0
M  V30 4809 H 435.234 4.71467 1.88895 0
M  V30 4810 H 435.164 3.94135 3.49235 0
M  V30 4811 H 437.655 3.07988 2.18979 0
M  V30 4812 H 437.968 6.63999 3.95381 0
M  V30 4813 H 436.313 5.96796 3.56173 0
M  V30 4814 H 439.504 3.86321 2.64336 0
M  V30 4815 H 439.677 5.48653 3.44796 0
M  V30 4816 N 433.083 -1.0153 1.20538 0
M  V30 4817 C 434.03 -2.10098 0.955383 0
M  V30 4818 C 435 -1.65702 -0.114878 0
M  V30 4819 O 436.185 -1.90776 0.0301118 0
M  V30 4820 C 433.325 -3.41236 0.514969 0
M  V30 4821 C 432.438 -3.99102 1.65353 0
M  V30 4822 C 431.573 -5.18306 1.16329 0
M  V30 4823 C 430.612 -5.68258 2.27485 0
M  V30 4824 N 429.749 -6.78722 1.7967 0
M  V30 4825 H 434.589 -2.30818 1.88486 0
M  V30 4826 H 432.126 -1.13189 0.939499 0
M  V30 4827 H 434.084 -4.16504 0.240935 0
M  V30 4828 H 432.714 -3.20585 -0.377512 0
M  V30 4829 H 431.766 -3.20918 2.04245 0
M  V30 4830 H 433.078 -4.32177 2.49047 0
M  V30 4831 H 432.232 -6.00782 0.845302 0
M  V30 4832 H 430.971 -4.86799 0.296254 0
M  V30 4833 H 429.976 -4.84385 2.60099 0
M  V30 4834 H 431.201 -6.01798 3.14667 0
M  V30 4835 H 429.147 -6.49042 0.95295 0
M  V30 4836 H 429.064 -7.10996 2.56944 0
M  V30 4837 H 430.332 -7.64759 1.50875 0
M  V30 4838 N 434.561 -1.01147 -1.20859 0
M  V30 4839 C 435.972 -0.730205 -1.71828 0
M  V30 4840 C 436.323 0.751662 -1.8123 0
M  V30 4841 O 435.448 1.58686 -1.47132 0
M  V30 4842 C 436.043 -1.31885 -3.12077 0
M  V30 4843 C 434.602 -1.08656 -3.60376 0
M  V30 4844 C 433.749 -1.42769 -2.37723 0
M  V30 4845 H 436.7 -1.18158 -1.05945 0
M  V30 4846 H 436.721 -0.706793 -3.73878 0
M  V30 4847 H 436.233 -2.39737 -3.05201 0
M  V30 4848 H 434.334 -0.0254814 -3.72591 0
M  V30 4849 H 434.447 -1.76301 -4.45483 0
M  V30 4850 H 432.811 -0.846603 -2.40218 0
M  V30 4851 H 433.594 -2.51666 -2.33493 0
M  V30 4852 N 436.039 1.36541 -0.78704 0
M  V30 4853 C 437.316 1.9355 -0.282424 0
M  V30 4854 C 437.696 1.71919 1.22503 0
M  V30 4855 O 437.044 1.07677 2.01539 0
M  V30 4856 C 437.254 3.4246 -0.672462 0
M  V30 4857 C 438.602 4.19582 -0.650863 0
M  V30 4858 O 439.626 3.50889 -0.612789 0
M  V30 4859 O 438.485 5.42106 -0.691623 0
M  V30 4860 H 435.579 0.824091 -0.0693 0
M  V30 4861 H 438.125 1.45736 -0.869423 0
M  V30 4862 H 436.897 3.51851 -1.71221 0
M  V30 4863 H 436.52 3.97556 -0.0592211 0
M  V30 4864 N 437.518 0.538854 1.48102 0
M  V30 4865 C 438.767 0.0059532 2.01699 0
M  V30 4866 C 439.08 -1.34476 1.42041 0
M  V30 4867 O 440.286 -1.96653 1.87189 0
M  V30 4868 C 438.742 -0.0397627 3.59878 0
M  V30 4869 C 438.35 1.30659 4.28523 0
M  V30 4870 C 440.094 -0.521024 4.2129 0
M  V30 4871 C 438.001 1.22098 5.78659 0
M  V30 4872 H 436.931 -0.00154456 0.753998 0
M  V30 4873 H 439.582 0.683963 1.70277 0
M  V30 4874 H 437.964 -0.783037 3.88181 0
M  V30 4875 H 439.138 2.06613 4.11883 0
M  V30 4876 H 437.453 1.7243 3.79021 0
M  V30 4877 H 440.05 -0.603184 5.31287 0
M  V30 4878 H 440.393 -1.52885 3.8721 0
M  V30 4879 H 440.926 0.166834 3.9745 0
M  V30 4880 H 437.665 2.20424 6.17328 0
M  V30 4881 H 437.185 0.50295 5.97688 0
M  V30 4882 H 438.864 0.915345 6.40492 0
M  V30 4883 N 438.996 -1.55193 0.274407 0
M  V30 4884 C 440.226 -2.03692 -0.345442 0
M  V30 4885 C 440.634 -1.15224 -1.50067 0
M  V30 4886 O 439.977 -0.164749 -1.8296 0
M  V30 4887 C 440.039 -3.48325 -0.88939 0
M  V30 4888 C 439.703 -4.56794 0.137115 0
M  V30 4889 C 440.7 -5.11028 0.956378 0
M  V30 4890 C 438.385 -5.01568 0.27115 0
M  V30 4891 C 440.379 -6.08552 1.89587 0
M  V30 4892 C 438.066 -5.98918 1.21412 0
M  V30 4893 C 439.064 -6.52291 2.02498 0
M  V30 4894 O 438.752 -7.47738 2.952 0
M  V30 4895 H 438.484 -0.670893 -0.0829332 0
M  V30 4896 H 441.038 -2.01387 0.404056 0
M  V30 4897 H 439.268 -3.47867 -1.68895 0
M  V30 4898 H 440.957 -3.80167 -1.42225 0
M  V30 4899 H 441.723 -4.7725 0.863559 0
M  V30 4900 H 437.602 -4.5967 -0.349987 0
M  V30 4901 H 441.146 -6.50137 2.52918 0
M  V30 4902 H 437.043 -6.32114 1.30776 0
M  V30 4903 H 437.811 -7.65451 2.89874 0
M  V30 4904 N 440.474 -0.00167713 -1.576 0
M  V30 4905 C 441.723 0.682021 -1.89819 0
M  V30 4906 C 442.036 1.74844 -0.876871 0
M  V30 4907 O 443.242 2.48688 -1.08934 0
M  V30 4908 C 441.698 1.26425 -3.36964 0
M  V30 4909 C 441.306 0.232568 -4.47396 0
M  V30 4910 C 443.05 1.92604 -3.78291 0
M  V30 4911 C 440.957 0.824882 -5.85619 0
M  V30 4912 H 439.887 0.258499 -0.708304 0
M  V30 4913 H 442.538 -0.0624957 -1.83394 0
M  V30 4914 H 440.92 2.05949 -3.38232 0
M  V30 4915 H 442.094 -0.5382 -4.57646 0
M  V30 4916 H 440.409 -0.32888 -4.15099 0
M  V30 4917 H 443.006 2.37827 -4.78897 0
M  V30 4918 H 443.349 2.75732 -3.11894 0
M  V30 4919 H 443.882 1.19812 -3.79328 0
M  V30 4920 H 440.621 0.0323542 -6.55492 0
M  V30 4921 H 440.141 1.56477 -5.79029 0
M  V30 4922 H 441.82 1.32301 -6.33329 0
M  V30 4923 N 441.952 1.55251 0.271103 0
M  V30 4924 C 442.9 1.89054 1.35504 0
M  V30 4925 C 443.894 0.767064 1.51038 0
M  V30 4926 O 445.1 0.951429 1.528 0
M  V30 4927 H 441.475 0.600072 0.45323 0
M  V30 4928 H 443.446 2.79598 1.04247 0
M  V30 4929 C 442.195 2.18068 2.70817 0
M  V30 4930 H 441.518 3.04005 2.59656 0
M  V30 4931 H 442.958 2.4564 3.45597 0
M  V30 4932 C 441.417 0.988901 3.2206 0
M  V30 4933 O 441.947 0.224501 4.01072 0
M  V30 4934 N 440.153 0.786085 2.79766 0
M  V30 4935 H 439.7 1.40937 2.15626 0
M  V30 4936 H 439.658 -0.00969349 3.14399 0
M  V30 4937 N 443.43 -0.535701 1.48216 0
M  V30 4938 C 444.377 -1.64083 1.62312 0
M  V30 4939 C 445.347 -1.59448 0.465365 0
M  V30 4940 O 446.532 -1.77959 0.688135 0
M  V30 4941 C 443.672 -3.0236 1.66349 0
M  V30 4942 C 442.785 -3.17273 2.93193 0
M  V30 4943 C 441.92 -4.46075 2.88427 0
M  V30 4944 C 440.959 -4.54496 4.1 0
M  V30 4945 N 440.096 -5.7468 4.03345 0
M  V30 4946 H 444.936 -1.51374 2.5669 0
M  V30 4947 H 442.473 -0.737059 1.27302 0
M  V30 4948 H 444.431 -3.82461 1.66672 0
M  V30 4949 H 443.061 -3.13854 0.754672 0
M  V30 4950 H 442.113 -2.30462 3.02641 0
M  V30 4951 H 443.425 -3.19357 3.83162 0
M  V30 4952 H 442.579 -5.3446 2.87119 0
M  V30 4953 H 441.318 -4.46504 1.96177 0
M  V30 4954 H 440.323 -3.64519 4.11589 0
M  V30 4955 H 441.548 -4.5581 5.03402 0
M  V30 4956 H 439.494 -5.76017 3.13912 0
M  V30 4957 H 439.411 -5.78234 4.87013 0
M  V30 4958 H 440.679 -6.65367 4.06087 0
M  V30 4959 N 444.908 -1.36708 -0.784132 0
M  V30 4960 C 446.324 -1.17237 -1.08294 0
M  V30 4961 C 446.524 -5.93947e-05 -2.015 0
M  V30 4962 O 445.58 0.663686 -2.43622 0
M  V30 4963 C 446.893 -2.48557 -1.69233 0
M  V30 4964 C 448.441 -2.54968 -1.8155 0
M  V30 4965 C 448.916 -3.86388 -2.45904 0
M  V30 4966 N 450.407 -3.87762 -2.53367 0
M  V30 4967 C 451.142 -4.86191 -3.03983 0
M  V30 4968 N 450.638 -5.95015 -3.54866 0
M  V30 4969 N 452.431 -4.73606 -3.02743 0
M  V30 4970 H 444.582 -2.11758 -0.16501 0
M  V30 4971 H 446.845 -0.93822 -0.135822 0
M  V30 4972 H 446.551 -3.34638 -1.08215 0
M  V30 4973 H 446.425 -2.64748 -2.68679 0
M  V30 4974 H 448.812 -1.69302 -2.41704 0
M  V30 4975 H 448.893 -2.42672 -0.80895 0
M  V30 4976 H 448.537 -4.72462 -1.86392 0
M  V30 4977 H 448.467 -3.95982 -3.4714 0
M  V30 4978 H 450.958 -3.09145 -2.17343 0
M  V30 4979 H 451.271 -6.66086 -3.91854 0
M  V30 4980 H 449.616 -5.98676 -3.53003 0
M  V30 4981 H 452.807 -3.87717 -2.62284 0
M  V30 4982 H 452.98 -5.50473 -3.41881 0
M  V30 4983 N 446.386 1.0089 -1.21074 0
M  V30 4984 C 447.634 1.74262 -1.02358 0
M  V30 4985 C 447.955 1.89869 0.444393 0
M  V30 4986 O 447.225 1.44677 1.32081 0
M  V30 4987 H 445.805 0.645615 -0.375754 0
M  V30 4988 H 448.467 1.21596 -1.52317 0
M  V30 4989 H 447.563 2.74328 -1.4883 0
M  V30 4990 N 447.864 1.01787 1.20321 0
M  V30 4991 C 449.092 0.727194 1.937 0
M  V30 4992 C 449.507 -0.712305 1.74848 0
M  V30 4993 O 448.864 -1.48327 1.06327 0
M  V30 4994 C 448.915 1.05497 3.45764 0
M  V30 4995 O 448.636 2.43794 3.64 0
M  V30 4996 C 450.137 0.785534 4.36285 0
M  V30 4997 H 447.357 0.266939 0.615617 0
M  V30 4998 H 449.901 1.35939 1.52777 0
M  V30 4999 H 448.056 0.468158 3.84561 0
M  V30 5000 H 448.47 2.55656 4.57974 0
M  V30 5001 H 449.944 1.06495 5.4163 0
M  V30 5002 H 450.421 -0.280273 4.38305 0
M  V30 5003 H 451.027 1.35456 4.03152 0
M  V30 5004 N 449.342 -1.36122 0.79427 0
M  V30 5005 C 450.567 -2.03891 0.379871 0
M  V30 5006 C 450.992 -1.59488 -0.997251 0
M  V30 5007 O 450.35 -0.765652 -1.64339 0
M  V30 5008 C 450.398 -3.57687 0.457442 0
M  V30 5009 O 449.502 -4.08931 -0.5338 0
M  V30 5010 H 448.843 -0.6443 0.160541 0
M  V30 5011 H 451.373 -1.73976 1.07673 0
M  V30 5012 H 451.383 -4.06721 0.322792 0
M  V30 5013 H 450.058 -3.89357 1.46199 0
M  V30 5014 H 448.635 -3.71154 -0.360409 0
M  V30 5015 N 450.82 -0.546701 -1.47814 0
M  V30 5016 C 452.097 0.0464413 -1.95545 0
M  V30 5017 C 452.477 1.4962 -1.48919 0
M  V30 5018 O 451.825 2.16752 -0.723232 0
M  V30 5019 C 452.035 -0.0881298 -3.48889 0
M  V30 5020 C 453.383 0.0626059 -4.24554 0
M  V30 5021 O 454.407 -0.0151555 -3.56197 0
M  V30 5022 O 453.266 0.228071 -5.46024 0
M  V30 5023 H 450.36 0.0700004 -0.824032 0
M  V30 5024 H 452.906 -0.612482 -1.58262 0
M  V30 5025 H 451.678 -1.09737 -3.75597 0
M  V30 5026 H 451.301 0.608886 -3.9291 0
M  V30 5027 N 452.299 1.55045 -0.282633 0
M  V30 5028 C 453.71 1.85473 0.213655 0
M  V30 5029 C 454.061 1.20465 1.54863 0
M  V30 5030 O 453.186 0.495676 2.10647 0
M  V30 5031 C 453.781 3.36496 0.394445 0
M  V30 5032 C 452.34 3.67022 0.834961 0
M  V30 5033 C 451.487 2.77218 -0.0674081 0
M  V30 5034 H 454.438 1.50478 -0.504202 0
M  V30 5035 H 454.459 3.60007 1.23186 0
M  V30 5036 H 453.971 3.83782 -0.577326 0
M  V30 5037 H 452.072 3.25241 1.81794 0
M  V30 5038 H 452.185 4.74433 0.667075 0
M  V30 5039 H 450.549 2.5069 0.450196 0
M  V30 5040 H 451.332 3.2732 -1.0352 0
M  V30 5041 N 453.777 0.010035 1.57597 0
M  V30 5042 C 454.707 -0.976857 2.12084 0
M  V30 5043 C 455.688 -1.35191 1.03235 0
M  V30 5044 O 456.873 -1.43389 1.3097 0
M  V30 5045 C 454.003 -2.26548 2.63236 0
M  V30 5046 C 452.957 -2.03175 3.76701 0
M  V30 5047 C 452.283 -3.38138 4.14206 0
M  V30 5048 C 453.583 -1.38625 5.03568 0
M  V30 5049 H 455.277 -0.523145 2.94794 0
M  V30 5050 H 452.823 -0.250195 1.4181 0
M  V30 5051 H 454.776 -2.95952 2.99984 0
M  V30 5052 H 453.5 -2.74051 1.77661 0
M  V30 5053 H 452.159 -1.36195 3.40362 0
M  V30 5054 H 451.807 -3.83363 3.25641 0
M  V30 5055 H 451.507 -3.23312 4.90656 0
M  V30 5056 H 453.031 -4.08841 4.53521 0
M  V30 5057 H 454.445 -1.98 5.38023 0
M  V30 5058 H 452.842 -1.34256 5.84889 0
M  V30 5059 H 453.912 -0.356722 4.83586 0
M  V30 5060 N 455.255 -1.55392 -0.262866 0
M  V30 5061 C 456.185 -1.91978 -1.32917 0
M  V30 5062 C 457.166 -0.7828 -1.51017 0
M  V30 5063 O 458.351 -1.04178 -1.63892 0
M  V30 5064 C 455.481 -2.20055 -2.68687 0
M  V30 5065 C 454.435 -3.35854 -2.65304 0
M  V30 5066 C 453.761 -3.49435 -4.04721 0
M  V30 5067 C 455.061 -4.71977 -2.23685 0
M  V30 5068 H 456.755 -2.81292 -1.02544 0
M  V30 5069 H 454.301 -1.3534 -0.491846 0
M  V30 5070 H 456.254 -2.44237 -3.43404 0
M  V30 5071 H 454.978 -1.27551 -3.00663 0
M  V30 5072 H 453.637 -3.11655 -1.93045 0
M  V30 5073 H 453.285 -2.54379 -4.33936 0
M  V30 5074 H 452.985 -4.27297 -4.0335 0
M  V30 5075 H 454.509 -3.7592 -4.81161 0
M  V30 5076 H 455.923 -4.95637 -2.88127 0
M  V30 5077 H 454.32 -5.52828 -2.33456 0
M  V30 5078 H 455.39 -4.70115 -1.18827 0
M  V30 5079 N 456.733 0.527833 -1.48498 0
M  V30 5080 C 457.973 1.29401 -1.58224 0
M  V30 5081 C 458.337 1.90348 -0.251327 0
M  V30 5082 O 459.538 2.67868 -0.223588 0
M  V30 5083 C 457.809 2.35266 -2.69044 0
M  V30 5084 S 459.368 3.2158 -2.98549 0
M  V30 5085 H 456.186 0.440138 -0.558391 0
M  V30 5086 H 458.788 0.601079 -1.8603 0
M  V30 5087 H 457.492 1.88975 -3.64303 0
M  V30 5088 H 457.023 3.09263 -2.43146 0
M  V30 5089 H 459.038 4.35391 -2.38011 0
M  V30 5090 N 458.211 1.37122 0.776871 0
M  V30 5091 C 459.459 1.31787 1.53221 0
M  V30 5092 C 459.78 -0.0987589 1.9475 0
M  V30 5093 O 459.05 -1.0417 1.65908 0
M  V30 5094 H 457.63 0.484839 0.568278 0
M  V30 5095 H 460.292 1.71556 0.924917 0
M  V30 5096 H 459.388 1.95355 2.43398 0
M  V30 5097 N 459.689 -1.00246 1.21608 0
M  V30 5098 C 460.637 -2.11193 0.97469 0
M  V30 5099 C 461.631 -1.69216 -0.0789303 0
M  V30 5100 O 462.837 -1.79853 0.0726806 0
M  V30 5101 H 459.212 -0.690455 0.297953 0
M  V30 5102 H 461.183 -2.2873 1.91638 0
M  V30 5103 C 459.932 -3.43182 0.558717 0
M  V30 5104 H 459.255 -3.75918 1.3611 0
M  V30 5105 H 460.695 -4.21823 0.429154 0
M  V30 5106 C 459.154 -3.28882 -0.730648 0
M  V30 5107 O 459.684 -3.59835 -1.78554 0
M  V30 5108 N 457.89 -2.8209 -0.698131 0
M  V30 5109 H 457.437 -2.57099 0.16061 0
M  V30 5110 H 457.395 -2.72903 -1.56113 0
M  V30 5111 N 461.167 -1.02423 -1.1978 0
M  V30 5112 C 462.415 -0.716569 -1.8897 0
M  V30 5113 C 462.736 0.756769 -1.79716 0
M  V30 5114 O 462.006 1.5449 -1.20456 0
M  V30 5115 H 460.586 -0.262062 -0.699523 0
M  V30 5116 H 463.248 -1.29747 -1.45436 0
M  V30 5117 H 462.344 -1.00675 -2.95417 0
M  V30 5118 N 462.645 1.35699 -0.801477 0
M  V30 5119 C 463.87 2.03687 -0.390678 0
M  V30 5120 C 464.295 1.60015 0.988778 0
M  V30 5121 O 463.653 0.774357 1.63931 0
M  V30 5122 C 463.701 3.57439 -0.476404 0
M  V30 5123 O 462.805 4.09208 0.512106 0
M  V30 5124 H 462.146 0.64344 -0.163956 0
M  V30 5125 H 464.676 1.73403 -1.08594 0
M  V30 5126 H 464.686 4.06544 -0.344357 0
M  V30 5127 H 463.361 3.88576 -1.48262 0
M  V30 5128 H 461.938 3.7134 0.340721 0
M  V30 5129 N 464.123 0.554532 1.47522 0
M  V30 5130 C 465.4 -0.0360704 1.95567 0
M  V30 5131 C 465.78 -1.48828 1.49711 0
M  V30 5132 O 465.128 -2.16366 0.734717 0
M  V30 5133 C 465.338 0.106631 3.48837 0
M  V30 5134 C 466.686 -0.0400899 4.24581 0
M  V30 5135 O 467.71 0.0340453 3.56184 0
M  V30 5136 O 466.569 -0.199111 5.46137 0
M  V30 5137 H 463.663 -0.0656294 0.824392 0
M  V30 5138 H 466.209 0.620867 1.57935 0
M  V30 5139 H 464.981 1.11727 3.7501 0
M  V30 5140 H 464.604 -0.58804 3.93227 0
M  V30 5141 N 465.601 -1.54893 0.290851 0
M  V30 5142 C 466.826 -2.04804 -0.32712 0
M  V30 5143 C 467.251 -1.16721 -1.47506 0
M  V30 5144 O 466.609 -0.169107 -1.8051 0
M  V30 5145 C 466.657 -3.52268 -0.770689 0
M  V30 5146 O 465.761 -3.67236 -1.87647 0
M  V30 5147 H 465.102 -0.660789 -0.0652227 0
M  V30 5148 H 467.632 -2.00036 0.429739 0
M  V30 5149 H 467.642 -3.9393 -1.06223 0
M  V30 5150 H 466.317 -4.15843 0.069096 0
M  V30 5151 H 464.894 -3.37479 -1.58626 0
M  V30 5152 N 467.08 -0.0183926 -1.57589 0
M  V30 5153 C 468.328 0.661253 -1.90976 0
M  V30 5154 C 468.649 1.73281 -0.894353 0
M  V30 5155 O 467.919 1.9579 0.0656788 0
M  V30 5156 H 466.499 0.247233 -0.704901 0
M  V30 5157 H 469.161 -0.0636639 -1.94796 0
M  V30 5158 H 468.257 1.12083 -2.9128 0
M  V30 5159 N 468.558 1.5553 0.254621 0
M  V30 5160 C 469.508 1.86057 1.31783 0
M  V30 5161 C 470.492 0.720827 1.4385 0
M  V30 5162 O 471.684 0.982586 1.47222 0
M  V30 5163 C 468.813 2.15203 2.67475 0
M  V30 5164 C 467.899 3.35484 2.59444 0
M  V30 5165 N 468.29 4.54945 2.2104 0
M  V30 5166 C 466.588 3.38441 2.90472 0
M  V30 5167 C 467.289 5.3707 2.23453 0
M  V30 5168 N 466.265 4.75936 2.62652 0
M  V30 5169 H 470.067 2.75953 1.01129 0
M  V30 5170 H 467.581 1.55653 0.463255 0
M  V30 5171 H 469.578 2.35235 3.44195 0
M  V30 5172 H 468.238 1.26601 2.99002 0
M  V30 5173 H 469.249 4.8071 1.92712 0
M  V30 5174 H 465.926 2.60087 3.2659 0
M  V30 5175 H 467.316 6.42626 1.96166 0
M  V30 5176 N 470.036 -0.519951 1.48776 0
M  V30 5177 C 471.276 -1.2856 1.58908 0
M  V30 5178 C 471.64 -1.90212 0.261418 0
M  V30 5179 O 472.841 -2.67746 0.237791 0
M  V30 5180 C 471.112 -2.33836 2.70288 0
M  V30 5181 S 472.671 -3.19992 3.0025 0
M  V30 5182 H 469.489 -0.43717 0.560717 0
M  V30 5183 H 472.091 -0.591205 1.86346 0
M  V30 5184 H 470.795 -1.87041 3.653 0
M  V30 5185 H 470.326 -3.07969 2.44783 0
M  V30 5186 H 472.341 -4.34122 2.40317 0
M  V30 5187 N 471.514 -1.37532 -0.769588 0
M  V30 5188 C 472.925 -1.29382 -1.346 0
M  V30 5189 C 473.276 0.0576039 -1.96115 0
M  V30 5190 O 472.401 0.95947 -1.93967 0
M  V30 5191 C 472.996 -2.34298 -2.44724 0
M  V30 5192 C 471.555 -2.29776 -2.98128 0
M  V30 5193 C 470.702 -2.18013 -1.71364 0
M  V30 5194 H 473.653 -1.48123 -0.56968 0
M  V30 5195 H 473.674 -1.99089 -3.24259 0
M  V30 5196 H 473.186 -3.32645 -1.99922 0
M  V30 5197 H 471.287 -1.34959 -3.47299 0
M  V30 5198 H 471.4 -3.23276 -3.53595 0
M  V30 5199 H 469.764 -1.64595 -1.94372 0
M  V30 5200 H 470.547 -3.18278 -1.28662 0
M  V30 5201 N 472.992 0.995999 -1.22138 0
M  V30 5202 C 474.269 1.70834 -0.952642 0
M  V30 5203 C 474.649 2.04257 0.533119 0
M  V30 5204 O 473.997 1.72343 1.50034 0
M  V30 5205 C 474.207 2.96119 -1.84701 0
M  V30 5206 C 475.555 3.68962 -2.10124 0
M  V30 5207 O 476.579 3.0612 -1.82124 0
M  V30 5208 O 475.438 4.82017 -2.57531 0
M  V30 5209 H 472.532 0.745498 -0.357997 0
M  V30 5210 H 475.078 1.05262 -1.33109 0
M  V30 5211 H 473.85 2.67898 -2.85213 0
M  V30 5212 H 473.473 3.6943 -1.46995 0
M  V30 5213 N 474.47 1.03057 1.19235 0
M  V30 5214 C 475.718 0.726581 1.88587 0
M  V30 5215 C 476.039 -0.747227 1.80115 0
M  V30 5216 O 475.309 -1.53849 1.21274 0
M  V30 5217 H 473.889 0.265768 0.698124 0
M  V30 5218 H 476.551 1.30516 1.44746 0
M  V30 5219 H 475.647 1.0224 2.94879 0
M  V30 5220 N 475.948 -1.35272 0.808662 0
M  V30 5221 C 477.178 -2.02652 0.401953 0
M  V30 5222 C 477.586 -1.6108 -0.992462 0
M  V30 5223 O 476.929 -0.804984 -1.65123 0
M  V30 5224 C 476.991 -3.57174 0.408246 0
M  V30 5225 C 476.655 -4.22019 1.75353 0
M  V30 5226 C 477.652 -4.43552 2.71215 0
M  V30 5227 C 475.337 -4.59093 2.03811 0
M  V30 5228 C 477.331 -5.01264 3.93717 0
M  V30 5229 C 475.018 -5.16519 3.26576 0
M  V30 5230 C 476.016 -5.37546 4.21347 0
M  V30 5231 O 475.704 -5.93761 5.41944 0
M  V30 5232 H 475.436 -0.656495 0.161216 0
M  V30 5233 H 477.99 -1.73829 1.0942 0
M  V30 5234 H 476.22 -3.85197 -0.340608 0
M  V30 5235 H 477.909 -4.05893 0.0235623 0
M  V30 5236 H 478.675 -4.15288 2.50522 0
M  V30 5237 H 474.554 -4.42039 1.30854 0
M  V30 5238 H 478.098 -5.17592 4.67701 0
M  V30 5239 H 473.995 -5.4421 3.47139 0
M  V30 5240 H 474.763 -6.1221 5.43269 0
M  V30 5241 N 477.426 -0.562348 -1.47226 0
M  V30 5242 C 478.675 -0.038041 -2.01664 0
M  V30 5243 C 478.988 1.32199 -1.44162 0
M  V30 5244 O 480.194 1.9365 -1.90294 0
M  V30 5245 C 478.65 -0.0174958 -3.59896 0
M  V30 5246 C 478.258 -1.3746 -4.2639 0
M  V30 5247 C 480.002 0.453934 -4.22066 0
M  V30 5248 C 477.909 -1.31289 -5.76643 0
M  V30 5249 H 476.839 -0.0104511 -0.753928 0
M  V30 5250 H 479.49 -0.710966 -1.69167 0
M  V30 5251 H 477.872 0.721182 -3.89378 0
M  V30 5252 H 479.046 -2.1314 -4.08544 0
M  V30 5253 H 477.361 -1.78438 -3.7623 0
M  V30 5254 H 479.958 0.518584 -5.32179 0
M  V30 5255 H 480.301 1.46706 -3.89594 0
M  V30 5256 H 480.834 -0.230044 -3.97134 0
M  V30 5257 H 477.573 -2.30217 -6.13743 0
M  V30 5258 H 477.093 -0.597973 -5.96812 0
M  V30 5259 H 478.772 -1.01713 -6.38955 0
M  V30 5260 N 478.904 1.54736 -0.299062 0
M  V30 5261 C 480.144 2.0201 0.31168 0
M  V30 5262 C 480.508 1.18281 1.5124 0
M  V30 5263 O 481.709 1.55243 2.19438 0
M  V30 5264 C 479.98 3.5123 0.661227 0
M  V30 5265 S 481.539 4.20467 1.2551 0
M  V30 5266 H 478.357 0.704523 0.0957517 0
M  V30 5267 H 480.959 1.90791 -0.426482 0
M  V30 5268 H 479.663 4.09804 -0.221171 0
M  V30 5269 H 479.194 3.66481 1.43023 0
M  V30 5270 H 481.209 4.26083 2.54298 0
M  V30 5271 N 480.382 0.0267497 1.57577 0
M  V30 5272 C 481.312 -0.954308 2.13108 0
M  V30 5273 C 482.293 -1.34088 1.04663 0
M  V30 5274 O 483.478 -1.41992 1.32484 0
M  V30 5275 C 480.608 -2.23744 2.65624 0
M  V30 5276 C 479.562 -1.99168 3.78835 0
M  V30 5277 C 478.888 -3.33726 4.17769 0
M  V30 5278 C 480.188 -1.33277 5.0501 0
M  V30 5279 H 481.882 -0.491848 2.95332 0
M  V30 5280 H 479.428 -0.23514 1.42067 0
M  V30 5281 H 481.381 -2.92754 3.03106 0
M  V30 5282 H 480.105 -2.72151 1.80558 0
M  V30 5283 H 478.764 -1.32577 3.41788 0
M  V30 5284 H 478.412 -3.79888 3.29688 0
M  V30 5285 H 478.112 -3.18089 4.94058 0
M  V30 5286 H 479.636 -4.04008 4.57832 0
M  V30 5287 H 481.05 -1.92283 5.40093 0
M  V30 5288 H 479.447 -1.28045 5.8628 0
M  V30 5289 H 480.517 -0.305411 4.83937 0
M  V30 5290 N 481.861 -1.55662 -0.24637 0
M  V30 5291 C 482.808 -1.90361 -1.30504 0
M  V30 5292 C 483.778 -0.757905 -1.47801 0
M  V30 5293 O 484.963 -1.01161 -1.61775 0
M  V30 5294 C 482.103 -2.2042 -2.65535 0
M  V30 5295 C 481.216 -3.47799 -2.56242 0
M  V30 5296 C 480.351 -3.67426 -3.8363 0
M  V30 5297 C 479.39 -4.88403 -3.68956 0
M  V30 5298 N 478.527 -5.04548 -4.88237 0
M  V30 5299 H 483.367 -2.80645 -1.00213 0
M  V30 5300 H 480.904 -1.38924 -0.483577 0
M  V30 5301 H 482.862 -2.35853 -3.44135 0
M  V30 5302 H 481.492 -1.3334 -2.93973 0
M  V30 5303 H 480.544 -3.40694 -1.69208 0
M  V30 5304 H 481.856 -4.36544 -2.4131 0
M  V30 5305 H 481.01 -3.82821 -4.70673 0
M  V30 5306 H 479.749 -2.76914 -4.01459 0
M  V30 5307 H 478.754 -4.72984 -2.80296 0
M  V30 5308 H 479.979 -5.80375 -3.52621 0
M  V30 5309 H 477.925 -4.16974 -5.06427 0
M  V30 5310 H 477.842 -5.87384 -4.75937 0
M  V30 5311 H 479.11 -5.24355 -5.76777 0
M  V30 5312 N 483.339 0.512053 -1.4905 0
M  V30 5313 C 484.567 1.29116 -1.61669 0
M  V30 5314 C 484.982 1.86655 -0.283787 0
M  V30 5315 O 484.339 1.67293 0.729331 0
M  V30 5316 C 484.39 2.4293 -2.67707 0
M  V30 5317 O 484.111 1.87758 -3.95826 0
M  V30 5318 C 485.612 3.34476 -2.90931 0
M  V30 5319 H 482.832 0.392009 -0.544583 0
M  V30 5320 H 485.376 0.615881 -1.95006 0
M  V30 5321 H 483.531 3.06308 -2.37179 0
M  V30 5322 H 483.945 2.62393 -4.54148 0
M  V30 5323 H 485.419 4.10642 -3.68886 0
M  V30 5324 H 485.896 3.90801 -2.00427 0
M  V30 5325 H 486.502 2.76874 -3.22832 0
M  V30 5326 N 484.817 1.37938 0.762283 0
M  V30 5327 C 486.042 1.37059 1.55659 0
M  V30 5328 C 486.467 -0.0396123 1.88058 0
M  V30 5329 O 485.825 -1.01929 1.49934 0
M  V30 5330 C 485.873 2.22494 2.83776 0
M  V30 5331 O 484.977 1.63607 3.78559 0
M  V30 5332 H 484.318 0.467892 0.47114 0
M  V30 5333 H 486.848 1.81587 0.942725 0
M  V30 5334 H 486.858 2.36045 3.32786 0
M  V30 5335 H 485.533 3.24993 2.59524 0
M  V30 5336 H 484.11 1.5915 3.37233 0
M  V30 5337 N 486.295 -0.989507 1.22664 0
M  V30 5338 C 487.572 -1.70326 0.961688 0
M  V30 5339 C 487.952 -2.04537 -0.522279 0
M  V30 5340 O 487.3 -1.73136 -1.49118 0
M  V30 5341 C 487.51 -2.95135 1.86269 0
M  V30 5342 C 488.858 -3.67842 2.12078 0
M  V30 5343 O 489.882 -3.0515 1.83745 0
M  V30 5344 O 488.741 -4.80644 2.60083 0
M  V30 5345 H 485.835 -0.743589 0.361946 0
M  V30 5346 H 488.381 -1.04555 1.33665 0
M  V30 5347 H 487.153 -2.66382 2.8663 0
M  V30 5348 H 486.776 -3.68645 1.48952 0
M  V30 5349 N 487.773 -1.03688 -1.18687 0
M  V30 5350 C 488.721 -0.618292 -2.24232 0
M  V30 5351 C 489.715 0.353045 -1.6568 0
M  V30 5352 O 490.921 0.220749 -1.78641 0
M  V30 5353 H 487.296 -0.181711 -0.729716 0
M  V30 5354 H 489.267 -1.51893 -2.56848 0
M  V30 5355 C 488.016 0.00677342 -3.47699 0
M  V30 5356 H 487.339 -0.731692 -3.93047 0
M  V30 5357 H 488.779 0.262492 -4.23187 0
M  V30 5358 C 487.238 1.25572 -3.12623 0
M  V30 5359 O 487.768 2.34691 -3.26011 0
M  V30 5360 N 485.974 1.14755 -2.66982 0
M  V30 5361 H 485.521 0.259601 -2.56289 0
M  V30 5362 H 485.479 1.98412 -2.43885 0
M  V30 5363 N 489.251 1.34841 -0.815825 0
M  V30 5364 C 490.662 1.80937 -0.46029 0
M  V30 5365 C 491.013 1.67685 1.01863 0
M  V30 5366 O 490.138 1.21277 1.79223 0
M  V30 5367 C 490.733 3.28509 -0.828708 0
M  V30 5368 C 489.292 3.72712 -0.525644 0
M  V30 5369 C 488.439 2.56676 -1.04941 0
M  V30 5370 H 491.39 1.22688 -1.00664 0
M  V30 5371 H 491.411 3.80279 -0.129757 0
M  V30 5372 H 490.923 3.38122 -1.90513 0
M  V30 5373 H 489.024 3.68642 0.541666 0
M  V30 5374 H 489.137 4.67119 -1.06474 0
M  V30 5375 H 487.501 2.50302 -0.471286 0
M  V30 5376 H 488.284 2.69063 -2.13214 0
M  V30 5377 N 490.729 0.570148 1.46925 0
M  V30 5378 C 492.006 -0.0153259 1.95594 0
M  V30 5379 C 492.386 -1.47232 1.51281 0
M  V30 5380 O 491.734 -2.15574 0.757624 0
M  V30 5381 C 491.944 0.143624 3.48704 0
M  V30 5382 C 493.292 0.00494484 4.246 0
M  V30 5383 O 494.316 0.0718214 3.56128 0
M  V30 5384 O 493.175 -0.141175 5.46318 0
M  V30 5385 H 490.269 -0.0568819 0.825041 0
M  V30 5386 H 492.815 0.637583 1.57267 0
M  V30 5387 H 491.587 1.15699 3.73804 0
M  V30 5388 H 491.21 -0.5463 3.93829 0
M  V30 5389 N 492.207 -1.54576 0.307264 0
M  V30 5390 C 493.454 -2.00263 -0.300167 0
M  V30 5391 C 493.782 -1.19561 -1.53413 0
M  V30 5392 O 493.037 -0.261487 -1.93945 0
M  V30 5393 C 493.336 -3.50572 -0.695253 0
M  V30 5394 C 493.002 -4.48771 0.437679 0
M  V30 5395 C 491.664 -4.7534 0.748681 0
M  V30 5396 C 494.016 -5.0721 1.19949 0
M  V30 5397 C 491.344 -5.5761 1.8245 0
M  V30 5398 C 493.696 -5.90651 2.26527 0
M  V30 5399 C 492.36 -6.15528 2.58227 0
M  V30 5400 H 491.63 -0.732814 -0.109839 0
M  V30 5401 H 494.277 -1.86664 0.427661 0
M  V30 5402 H 492.582 -3.61814 -1.50326 0
M  V30 5403 H 494.279 -3.83352 -1.17653 0
M  V30 5404 H 490.869 -4.282 0.185187 0
M  V30 5405 H 495.053 -4.86679 0.972474 0
M  V30 5406 H 490.309 -5.75121 2.07476 0
M  V30 5407 H 494.483 -6.34957 2.86011 0
M  V30 5408 H 492.11 -6.79066 3.4172 0
M  V30 5409 N 493.685 -0.035106 -1.57561 0
M  V30 5410 C 494.633 0.962707 -2.11742 0
M  V30 5411 C 495.627 1.33296 -1.0454 0
M  V30 5412 O 496.833 1.31449 -1.22968 0
M  V30 5413 H 493.208 0.32826 -0.676572 0
M  V30 5414 H 495.179 0.48048 -2.94506 0
M  V30 5415 C 493.928 2.23388 -2.66445 0
M  V30 5416 H 493.251 1.95774 -3.48587 0
M  V30 5417 H 494.691 2.91402 -3.07995 0
M  V30 5418 C 493.15 2.96769 -1.59467 0
M  V30 5419 O 493.68 3.89105 -0.998 0
M  V30 5420 N 491.886 2.59212 -1.31369 0
M  V30 5421 H 491.433 1.84202 -1.80076 0
M  V30 5422 H 491.391 3.08618 -0.600173 0
M  V30 5423 N 495.163 1.55791 0.238111 0
M  V30 5424 C 496.393 1.81834 0.980809 0
M  V30 5425 C 496.801 0.609741 1.79106 0
M  V30 5426 O 496.144 -0.431073 1.78571 0
M  V30 5427 C 496.206 3.01363 1.96011 0
M  V30 5428 C 495.87 4.37037 1.33597 0
M  V30 5429 C 496.867 5.14692 0.734063 0
M  V30 5430 C 494.552 4.83743 1.3527 0
M  V30 5431 C 496.546 6.37206 0.157208 0
M  V30 5432 C 494.233 6.06204 0.77199 0
M  V30 5433 C 495.231 6.82775 0.175282 0
M  V30 5434 O 494.919 8.02922 -0.396432 0
M  V30 5435 H 494.651 0.6088 0.293834 0
M  V30 5436 H 497.205 2.03702 0.263552 0
M  V30 5437 H 495.435 2.75273 2.71591 0
M  V30 5438 H 497.124 3.14422 2.56697 0
M  V30 5439 H 497.89 4.79722 0.713582 0
M  V30 5440 H 493.769 4.24129 1.80653 0
M  V30 5441 H 497.313 6.96915 -0.30917 0
M  V30 5442 H 493.21 6.4065 0.789828 0
M  V30 5443 H 493.978 8.17989 -0.289145 0
M  V30 5444 N 496.642 -0.504142 1.49319 0
M  V30 5445 C 497.87 -1.28256 1.62351 0
M  V30 5446 C 498.285 -1.86502 0.293682 0
M  V30 5447 O 497.642 -1.67678 -0.720449 0
M  V30 5448 C 497.693 -2.41507 2.68992 0
M  V30 5449 O 497.414 -1.85656 3.96817 0
M  V30 5450 C 498.915 -3.32929 2.927 0
M  V30 5451 H 496.135 -0.389115 0.546654 0
M  V30 5452 H 498.679 -0.605531 1.95329 0
M  V30 5453 H 496.834 -3.05046 2.38801 0
M  V30 5454 H 497.248 -2.59981 4.55533 0
M  V30 5455 H 498.722 -4.0868 3.71058 0
M  V30 5456 H 499.199 -3.89733 2.02496 0
M  V30 5457 H 499.805 -2.75158 3.24296 0
M  V30 5458 N 498.12 -1.38341 -0.754957 0
M  V30 5459 C 499.345 -1.37882 -1.5493 0
M  V30 5460 C 499.77 0.0296385 -1.88077 0
M  V30 5461 O 499.128 1.01133 -1.50472 0
M  V30 5462 C 499.176 -2.23996 -2.82592 0
M  V30 5463 O 498.28 -1.65612 -3.77686 0
M  V30 5464 H 497.621 -0.470384 -0.468652 0
M  V30 5465 H 500.151 -1.82084 -0.933082 0
M  V30 5466 H 500.161 -2.37806 -3.3153 0
M  V30 5467 H 498.836 -3.26365 -2.57796 0
M  V30 5468 H 497.413 -1.60936 -3.36384 0
M  V30 5469 N 499.598 0.982988 -1.23187 0
M  V30 5470 C 500.845 1.72392 -1.06241 0
M  V30 5471 C 501.173 1.9032 0.40108 0
M  V30 5472 O 500.428 1.45084 1.31336 0
M  V30 5473 C 500.727 3.12736 -1.73006 0
M  V30 5474 C 500.393 3.14695 -3.22921 0
M  V30 5475 C 499.055 3.14937 -3.63824 0
M  V30 5476 C 501.407 3.10211 -4.1883 0
M  V30 5477 C 498.735 3.08408 -4.99101 0
M  V30 5478 C 501.087 3.05224 -5.54095 0
M  V30 5479 C 499.751 3.03787 -5.94365 0
M  V30 5480 H 499.021 0.630829 -0.388762 0
M  V30 5481 H 501.668 1.15053 -1.53085 0
M  V30 5482 H 499.973 3.73446 -1.18514 0
M  V30 5483 H 501.67 3.68828 -1.57374 0
M  V30 5484 H 498.26 3.15262 -2.90358 0
M  V30 5485 H 502.444 3.09166 -3.8824 0
M  V30 5486 H 497.7 3.05646 -5.29519 0
M  V30 5487 H 501.874 3.00712 -6.28128 0
M  V30 5488 H 499.501 2.98483 -6.99151 0
M  V30 5489 N 501.076 1.04316 1.18135 0
M  V30 5490 C 502.353 0.662166 1.84051 0
M  V30 5491 C 502.733 -0.858169 1.9287 0
M  V30 5492 O 502.081 -1.76062 1.45652 0
M  V30 5493 C 502.291 1.3409 3.22212 0
M  V30 5494 C 503.639 1.4733 3.9822 0
M  V30 5495 O 504.663 1.29921 3.31661 0
M  V30 5496 O 503.522 1.75722 5.17479 0
M  V30 5497 H 500.616 0.232005 0.79379 0
M  V30 5498 H 503.162 1.1422 1.25506 0
M  V30 5499 H 501.934 2.37853 3.10711 0
M  V30 5500 H 501.557 0.849649 3.88416 0
M  V30 5501 N 502.554 -1.34406 0.822964 0
M  V30 5502 C 503.779 -2.0304 0.423034 0
M  V30 5503 C 504.204 -1.61568 -0.963196 0
M  V30 5504 O 503.562 -0.800339 -1.62678 0
M  V30 5505 C 503.61 -3.56636 0.53321 0
M  V30 5506 O 502.714 -4.09971 -0.446939 0
M  V30 5507 H 502.055 -0.64075 0.174171 0
M  V30 5508 H 504.585 -1.71653 1.11339 0
M  V30 5509 H 504.595 -4.05945 0.408991 0
M  V30 5510 H 503.27 -3.86168 1.54425 0
M  V30 5511 H 501.847 -3.71835 -0.281601 0
M  V30 5512 N 504.032 -0.577932 -1.46621 0
M  V30 5513 C 505.279 -0.0616879 -2.02406 0
M  V30 5514 C 505.607 1.29638 -1.44997 0
M  V30 5515 O 504.862 1.86176 -0.60308 0
M  V30 5516 C 505.161 0.0590832 -3.57351 0
M  V30 5517 C 504.827 -1.23077 -4.33777 0
M  V30 5518 C 503.489 -1.58416 -4.54376 0
M  V30 5519 C 505.841 -2.08457 -4.77698 0
M  V30 5520 C 503.169 -2.78943 -5.16147 0
M  V30 5521 C 505.521 -3.28204 -5.408 0
M  V30 5522 C 504.185 -3.63832 -5.59627 0
M  V30 5523 H 503.455 -0.0225732 -0.740656 0
M  V30 5524 H 506.102 -0.753609 -1.76048 0
M  V30 5525 H 504.407 0.834104 -3.82818 0
M  V30 5526 H 506.104 0.474202 -3.98186 0
M  V30 5527 H 502.694 -0.945652 -4.18038 0
M  V30 5528 H 506.878 -1.82459 -4.61544 0
M  V30 5529 H 502.134 -3.06689 -5.28916 0
M  V30 5530 H 506.308 -3.94634 -5.73792 0
M  V30 5531 H 503.935 -4.57315 -6.07262 0
M  V30 5532 N 505.51 1.54411 -0.315457 0
M  V30 5533 C 506.473 2.22713 0.54142 0
M  V30 5534 C 507.473 1.2179 1.04995 0
M  V30 5535 O 508.663 1.46426 0.943667 0
M  V30 5536 C 505.795 2.92485 1.75116 0
M  V30 5537 H 506.988 2.99849 -0.0555508 0
M  V30 5538 H 504.541 1.56159 -0.0664453 0
M  V30 5539 H 505.276 2.19466 2.38758 0
M  V30 5540 H 505.061 3.66483 1.39401 0
M  V30 5541 H 506.551 3.44548 2.35959 0
M  V30 5542 N 506.988 0.0434614 1.5754 0
M  V30 5543 C 508.234 -0.627109 1.93491 0
M  V30 5544 C 508.589 -1.68904 0.921362 0
M  V30 5545 O 507.882 -1.91504 -0.0605799 0
M  V30 5546 C 508.076 -1.2738 3.3393 0
M  V30 5547 C 507.905 -0.27603 4.48852 0
M  V30 5548 C 506.675 0.129244 5.05135 0
M  V30 5549 C 508.873 0.475462 5.12098 0
M  V30 5550 N 506.855 1.12068 6.03584 0
M  V30 5551 C 508.226 1.32021 6.05781 0
M  V30 5552 C 510.281 0.534611 4.95022 0
M  V30 5553 C 508.984 2.2188 6.84223 0
M  V30 5554 C 511.01 1.42059 5.74085 0
M  V30 5555 C 510.372 2.25309 6.67394 0
M  V30 5556 H 506.471 -0.201354 0.755633 0
M  V30 5557 H 509.055 0.113991 1.94366 0
M  V30 5558 H 507.226 -1.98496 3.33847 0
M  V30 5559 H 508.958 -1.90255 3.57191 0
M  V30 5560 H 505.713 -0.248145 4.72949 0
M  V30 5561 H 506.137 1.61306 6.57502 0
M  V30 5562 H 510.779 -0.0947817 4.22694 0
M  V30 5563 H 508.497 2.85868 7.55847 0
M  V30 5564 H 512.083 1.47083 5.62901 0
M  V30 5565 H 510.963 2.92754 7.27506 0
M  V30 5566 N 508.466 -1.55915 -0.229846 0
M  V30 5567 C 509.429 -1.90914 -1.26824 0
M  V30 5568 C 510.429 -0.786999 -1.40225 0
M  V30 5569 O 511.619 -1.05484 -1.38632 0
M  V30 5570 C 508.751 -2.15264 -2.64337 0
M  V30 5571 H 509.944 -2.8378 -0.969998 0
M  V30 5572 H 507.497 -1.49069 -0.4699 0
M  V30 5573 H 508.232 -1.24923 -2.99274 0
M  V30 5574 H 508.017 -2.97005 -2.55989 0
M  V30 5575 H 509.507 -2.43467 -3.39284 0
M  V30 5576 N 509.944 0.496216 -1.49584 0
M  V30 5577 C 511.191 1.25003 -1.59312 0
M  V30 5578 C 511.519 1.92445 -0.28198 0
M  V30 5579 O 510.774 1.81557 0.730452 0
M  V30 5580 C 511.073 2.3359 -2.705 0
M  V30 5581 C 510.739 1.83574 -4.11839 0
M  V30 5582 C 509.401 1.69653 -4.50302 0
M  V30 5583 C 511.753 1.46193 -5.00277 0
M  V30 5584 C 509.081 1.16736 -5.74969 0
M  V30 5585 C 511.433 0.947265 -6.25468 0
M  V30 5586 C 510.097 0.794485 -6.62755 0
M  V30 5587 H 509.367 0.45742 -0.582965 0
M  V30 5588 H 512.014 0.549996 -1.83432 0
M  V30 5589 H 510.319 3.09401 -2.40371 0
M  V30 5590 H 512.016 2.91627 -2.75235 0
M  V30 5591 H 508.606 1.9537 -3.81482 0
M  V30 5592 H 512.79 1.55793 -4.71214 0
M  V30 5593 H 508.046 1.03623 -6.02555 0
M  V30 5594 H 512.22 0.648846 -6.93371 0
M  V30 5595 H 509.847 0.382271 -7.59238 0
M  V30 5596 N 511.423 1.38739 0.74761 0
M  V30 5597 C 512.353 1.39173 1.87492 0
M  V30 5598 C 513.334 0.256794 1.6815 0
M  V30 5599 O 514.519 0.460762 1.88655 0
M  V30 5600 C 511.649 1.22197 3.25093 0
M  V30 5601 C 510.603 2.32957 3.59047 0
M  V30 5602 C 509.929 2.01082 4.95449 0
M  V30 5603 C 511.229 3.75237 3.6331 0
M  V30 5604 H 512.923 2.3351 1.87386 0
M  V30 5605 H 510.469 1.12399 0.900134 0
M  V30 5606 H 512.422 1.21124 4.03617 0
M  V30 5607 H 511.146 0.243241 3.25693 0
M  V30 5608 H 509.805 2.33226 2.82845 0
M  V30 5609 H 509.453 1.01678 4.92616 0
M  V30 5610 H 509.153 2.75267 5.19136 0
M  V30 5611 H 510.677 2.01638 5.76346 0
M  V30 5612 H 512.091 3.76966 4.31937 0
M  V30 5613 H 510.488 4.48677 3.98509 0
M  V30 5614 H 511.558 4.07122 2.634 0
M  V30 5615 N 512.901 -0.976442 1.23707 0
M  V30 5616 C 514.126 -1.75875 1.09922 0
M  V30 5617 C 514.551 -1.84911 -0.34489 0
M  V30 5618 O 513.909 -1.31363 -1.24954 0
M  V30 5619 C 513.957 -3.16179 1.73388 0
M  V30 5620 O 513.061 -4.00124 0.99871 0
M  V30 5621 H 512.402 -0.540954 0.385052 0
M  V30 5622 H 514.932 -1.22546 1.6384 0
M  V30 5623 H 514.942 -3.66741 1.78788 0
M  V30 5624 H 513.617 -3.08917 2.78466 0
M  V30 5625 H 512.194 -3.58624 1.02193 0
M  V30 5626 N 514.379 -1.04941 -1.1758 0
M  V30 5627 C 515.309 -0.669172 -2.23706 0
M  V30 5628 C 516.29 0.331835 -1.66832 0
M  V30 5629 O 517.475 0.209988 -1.93061 0
M  V30 5630 C 514.605 -0.0404889 -3.47276 0
M  V30 5631 C 513.559 -0.965983 -4.16957 0
M  V30 5632 C 512.885 -0.201312 -5.34321 0
M  V30 5633 C 514.185 -2.28902 -4.69469 0
M  V30 5634 H 515.879 -1.55639 -2.55767 0
M  V30 5635 H 513.425 -0.749793 -1.22939 0
M  V30 5636 H 515.378 0.237298 -4.20731 0
M  V30 5637 H 514.102 0.881658 -3.14475 0
M  V30 5638 H 512.761 -1.22829 -3.45411 0
M  V30 5639 H 512.409 0.723519 -4.97769 0
M  V30 5640 H 512.109 -0.817968 -5.81879 0
M  V30 5641 H 513.633 0.0692499 -6.10561 0
M  V30 5642 H 515.047 -2.07132 -5.34574 0
M  V30 5643 H 513.444 -2.85942 -5.27596 0
M  V30 5644 H 514.514 -2.92937 -3.86414 0
M  V30 5645 N 515.857 1.33968 -0.830081 0
M  V30 5646 C 517.104 1.98063 -0.421566 0
M  V30 5647 C 517.432 1.65787 1.0171 0
M  V30 5648 O 516.687 0.925348 1.72441 0
M  V30 5649 C 516.986 3.52679 -0.57898 0
M  V30 5650 C 516.652 4.04884 -1.98443 0
M  V30 5651 C 515.314 4.18852 -2.36888 0
M  V30 5652 C 517.666 4.32879 -2.90285 0
M  V30 5653 C 514.994 4.58145 -3.66497 0
M  V30 5654 C 517.346 4.7362 -4.19364 0
M  V30 5655 C 516.01 4.85794 -4.57778 0
M  V30 5656 H 515.28 0.724765 -0.154262 0
M  V30 5657 H 517.927 1.59792 -1.05541 0
M  V30 5658 H 516.232 3.91556 0.138219 0
M  V30 5659 H 517.929 4.00261 -0.243317 0
M  V30 5660 H 514.519 3.9448 -1.67581 0
M  V30 5661 H 518.703 4.21619 -2.61823 0
M  V30 5662 H 513.959 4.65762 -3.96075 0
M  V30 5663 H 518.133 4.9424 -4.90612 0
M  V30 5664 H 515.76 5.15998 -5.58256 0
M  V30 5665 N 517.335 0.585699 1.46312 0
M  V30 5666 C 518.751 0.247607 1.57668 0
M  V30 5667 C 518.951 -1.25007 1.58037 0
M  V30 5668 O 518.007 -2.03196 1.49893 0
M  V30 5669 C 519.32 0.899456 2.86933 0
M  V30 5670 C 520.868 0.873326 3.00569 0
M  V30 5671 C 521.343 1.50477 4.32574 0
M  V30 5672 N 522.834 1.46925 4.3928 0
M  V30 5673 C 523.569 1.92719 5.40044 0
M  V30 5674 N 523.065 2.46499 6.47464 0
M  V30 5675 N 524.858 1.83617 5.31264 0
M  V30 5676 H 517.009 1.55841 1.44317 0
M  V30 5677 H 519.272 0.651564 0.688599 0
M  V30 5678 H 518.978 1.95313 2.92482 0
M  V30 5679 H 518.852 0.409476 3.74971 0
M  V30 5680 H 521.239 -0.171736 2.946 0
M  V30 5681 H 521.32 1.40136 2.13999 0
M  V30 5682 H 520.964 2.54905 4.39302 0
M  V30 5683 H 520.894 0.951944 5.17924 0
M  V30 5684 H 523.385 1.07616 3.62253 0
M  V30 5685 H 523.698 2.79291 7.20567 0
M  V30 5686 H 522.043 2.50526 6.48276 0
M  V30 5687 H 525.234 1.41358 4.46246 0
M  V30 5688 H 525.407 2.19622 6.09648 0
M  V30 5689 N 518.813 -1.54241 0.323641 0
M  V30 5690 C 519.743 -2.27289 -0.534993 0
M  V30 5691 C 520.724 -1.28087 -1.11927 0
M  V30 5692 O 521.909 -1.56899 -1.14439 0
M  V30 5693 C 519.039 -3.03075 -1.69596 0
M  V30 5694 C 517.993 -4.09614 -1.24098 0
M  V30 5695 C 517.319 -4.73242 -2.4889 0
M  V30 5696 C 518.619 -5.21087 -0.355789 0
M  V30 5697 H 520.313 -2.99308 0.0743257 0
M  V30 5698 H 517.859 -1.43952 0.0371874 0
M  V30 5699 H 519.812 -3.52907 -2.30293 0
M  V30 5700 H 518.536 -2.28673 -2.33187 0
M  V30 5701 H 517.195 -3.60666 -0.656945 0
M  V30 5702 H 516.843 -3.95455 -3.10845 0
M  V30 5703 H 516.543 -5.45209 -2.19138 0
M  V30 5704 H 518.067 -5.25848 -3.10348 0
M  V30 5705 H 519.481 -5.66675 -0.869042 0
M  V30 5706 H 517.878 -5.9991 -0.151045 0
M  V30 5707 H 518.948 -4.81005 0.613339 0
M  V30 5708 N 520.291 -0.0518155 -1.57515 0
M  V30 5709 C 521.224 0.957758 -2.07129 0
M  V30 5710 C 522.202 1.30355 -0.971927 0
M  V30 5711 O 523.386 1.41631 -1.2439 0
M  V30 5712 C 520.513 2.27157 -2.51232 0
M  V30 5713 C 519.559 2.07879 -3.72409 0
M  V30 5714 S 520.392 1.35656 -5.18033 0
M  V30 5715 C 521.548 2.68359 -5.65451 0
M  V30 5716 H 521.781 0.53552 -2.92437 0
M  V30 5717 H 519.314 0.160465 -1.53564 0
M  V30 5718 H 521.272 3.02676 -2.77304 0
M  V30 5719 H 519.933 2.66509 -1.66228 0
M  V30 5720 H 519.126 3.05061 -4.01191 0
M  V30 5721 H 518.728 1.40499 -3.46606 0
M  V30 5722 H 521.02 3.64526 -5.71076 0
M  V30 5723 H 521.963 2.44213 -6.64654 0
M  V30 5724 H 522.371 2.74647 -4.93183 0
M  V30 5725 N 521.769 1.56035 0.221574 0
M  V30 5726 C 522.997 1.8313 0.962864 0
M  V30 5727 C 523.412 0.630934 1.77946 0
M  V30 5728 O 522.769 -0.400519 1.78051 0
M  V30 5729 C 522.82 3.08742 1.88045 0
M  V30 5730 O 522.541 4.24147 1.09686 0
M  V30 5731 C 524.042 3.48824 2.73563 0
M  V30 5732 H 521.262 0.608775 0.282194 0
M  V30 5733 H 523.806 2.03124 0.23681 0
M  V30 5734 H 521.961 2.90723 2.56045 0
M  V30 5735 H 522.375 4.95505 1.71974 0
M  V30 5736 H 523.849 4.39752 3.3365 0
M  V30 5737 H 524.326 2.70575 3.45956 0
M  V30 5738 H 524.932 3.69282 2.10976 0
M  V30 5739 N 523.247 -0.488276 1.49845 0
M  V30 5740 C 524.179 -1.60539 1.63584 0
M  V30 5741 C 525.192 -1.5434 0.517972 0
M  V30 5742 O 526.381 -1.60041 0.790516 0
M  V30 5743 C 523.481 -2.99374 1.58835 0
M  V30 5744 C 522.654 -3.30624 2.86368 0
M  V30 5745 C 521.713 -4.4893 2.74496 0
M  V30 5746 O 520.739 -4.50085 3.48443 0
M  V30 5747 N 521.941 -5.49591 1.86894 0
M  V30 5748 H 524.706 -1.49176 2.59936 0
M  V30 5749 H 522.267 -0.67639 1.47094 0
M  V30 5750 H 524.259 -3.76459 1.48529 0
M  V30 5751 H 522.829 -3.04595 0.702892 0
M  V30 5752 H 522.049 -2.42314 3.1093 0
M  V30 5753 H 523.337 -3.48305 3.70892 0
M  V30 5754 H 522.735 -5.51467 1.26097 0
M  V30 5755 H 521.292 -6.25728 1.82503 0
M  V30 5756 N 524.725 -1.39134 -0.740242 0
M  V30 5757 C 526.002 -1.26584 -1.49117 0
M  V30 5758 C 526.382 0.126902 -2.10718 0
M  V30 5759 O 525.73 1.13765 -1.98166 0
M  V30 5760 C 525.94 -2.38619 -2.54681 0
M  V30 5761 C 527.288 -2.77685 -3.21211 0
M  V30 5762 O 528.312 -2.38029 -2.64991 0
M  V30 5763 O 527.171 -3.46115 -4.22926 0
M  V30 5764 H 524.265 -0.495769 -0.661923 0
M  V30 5765 H 526.811 -1.50995 -0.774514 0
M  V30 5766 H 525.583 -3.3175 -2.07504 0
M  V30 5767 H 525.206 -2.15845 -3.33911 0
M  V30 5768 N 526.204 0.969867 -1.24223 0
M  V30 5769 C 527.429 1.75289 -1.10853 0
M  V30 5770 C 527.854 1.85091 0.335079 0
M  V30 5771 O 527.212 1.32024 1.24255 0
M  V30 5772 C 527.26 3.15255 -1.75062 0
M  V30 5773 O 526.364 3.99589 -1.01992 0
M  V30 5774 H 525.705 0.538904 -0.387915 0
M  V30 5775 H 528.235 1.21675 -1.64488 0
M  V30 5776 H 528.245 3.65787 -1.80731 0
M  V30 5777 H 526.92 3.07436 -2.801 0
M  V30 5778 H 525.497 3.58077 -1.04094 0
M  V30 5779 N 527.682 1.05563 1.17022 0
M  V30 5780 C 528.928 0.778872 1.87897 0
M  V30 5781 C 529.283 -0.686839 1.79723 0
M  V30 5782 O 528.576 -1.49612 1.19694 0
M  V30 5783 C 528.77 1.19849 3.36706 0
M  V30 5784 C 528.599 2.70345 3.59366 0
M  V30 5785 C 527.369 3.37707 3.75875 0
M  V30 5786 C 529.567 3.68564 3.58699 0
M  V30 5787 N 527.549 4.7703 3.86414 0
M  V30 5788 C 528.92 4.93634 3.75134 0
M  V30 5789 C 530.975 3.6198 3.4187 0
M  V30 5790 C 529.678 6.12907 3.76481 0
M  V30 5791 C 531.704 4.80697 3.44507 0
M  V30 5792 C 531.066 6.04592 3.61453 0
M  V30 5793 H 527.165 0.337297 0.705517 0
M  V30 5794 H 529.749 1.34832 1.40458 0
M  V30 5795 H 527.92 0.656958 3.82804 0
M  V30 5796 H 529.652 0.871172 3.95212 0
M  V30 5797 H 526.407 2.88108 3.75887 0
M  V30 5798 H 526.831 5.49483 3.95471 0
M  V30 5799 H 531.473 2.67154 3.27702 0
M  V30 5800 H 529.191 7.08073 3.89432 0
M  V30 5801 H 532.777 4.77259 3.32738 0
M  V30 5802 H 531.657 6.94916 3.63403 0
M  V30 5803 N 529.16 -1.33526 0.837174 0
M  V30 5804 C 530.07 -2.33023 0.271568 0
M  V30 5805 C 531.086 -1.63272 -0.601514 0
M  V30 5806 O 532.262 -1.94939 -0.506038 0
M  V30 5807 C 529.327 -3.42382 -0.545448 0
M  V30 5808 C 528.388 -4.27857 0.351709 0
M  V30 5809 C 527.621 -5.31994 -0.426409 0
M  V30 5810 O 527.844 -5.45763 -1.65828 0
M  V30 5811 O 526.778 -6.01572 0.1987 0
M  V30 5812 H 530.604 -2.83256 1.09545 0
M  V30 5813 H 528.189 -1.36837 0.599655 0
M  V30 5814 H 530.071 -4.09122 -1.00979 0
M  V30 5815 H 528.746 -2.94369 -1.34641 0
M  V30 5816 H 527.653 -3.6399 0.863853 0
M  V30 5817 H 528.986 -4.79349 1.1174 0
M  V30 5818 N 530.638 -0.59345 -1.46 0
M  V30 5819 C 532.054 -0.255965 -1.57534 0
M  V30 5820 C 532.254 1.24167 -1.58697 0
M  V30 5821 O 531.31 2.02398 -1.50968 0
M  V30 5822 C 532.623 -0.91466 -2.86451 0
M  V30 5823 C 534.171 -0.889253 -3.00102 0
M  V30 5824 C 534.646 -1.52769 -4.3177 0
M  V30 5825 N 536.137 -1.49253 -4.38495 0
M  V30 5826 C 536.872 -1.9558 -5.39014 0
M  V30 5827 N 536.368 -2.49929 -6.46148 0
M  V30 5828 N 538.161 -1.86432 -5.30282 0
M  V30 5829 H 530.312 -1.56604 -1.43489 0
M  V30 5830 H 532.575 -0.655207 -0.685133 0
M  V30 5831 H 532.281 -1.96861 -2.91442 0
M  V30 5832 H 532.155 -0.429356 -3.74748 0
M  V30 5833 H 534.542 0.156111 -2.94687 0
M  V30 5834 H 534.623 -1.41268 -2.13253 0
M  V30 5835 H 534.267 -2.57231 -4.37944 0
M  V30 5836 H 534.197 -0.979398 -5.17412 0
M  V30 5837 H 536.688 -1.09536 -3.61677 0
M  V30 5838 H 537.001 -2.83109 -7.19075 0
M  V30 5839 H 535.346 -2.53961 -6.46938 0
M  V30 5840 H 538.537 -1.43722 -4.4549 0
M  V30 5841 H 538.71 -2.22852 -6.08474 0
M  V30 5842 N 532.116 1.54067 -0.331816 0
M  V30 5843 C 533.046 2.27569 0.522932 0
M  V30 5844 C 534.027 1.28679 1.11247 0
M  V30 5845 O 535.212 1.57504 1.13605 0
M  V30 5846 C 532.342 3.0397 1.67987 0
M  V30 5847 C 531.296 4.10267 1.21924 0
M  V30 5848 C 530.622 4.74555 2.46377 0
M  V30 5849 C 531.922 5.21268 0.32815 0
M  V30 5850 H 533.616 2.99264 -0.0901977 0
M  V30 5851 H 531.162 1.4393 -0.044821 0
M  V30 5852 H 533.115 3.54123 2.28418 0
M  V30 5853 H 531.839 2.29906 2.31971 0
M  V30 5854 H 530.498 3.61009 0.637809 0
M  V30 5855 H 530.146 3.97098 3.08743 0
M  V30 5856 H 529.846 5.46363 2.16243 0
M  V30 5857 H 531.37 5.27487 3.07555 0
M  V30 5858 H 532.784 5.67128 0.838978 0
M  V30 5859 H 531.181 5.99982 0.119228 0
M  V30 5860 H 532.251 4.80673 -0.638839 0
M  V30 5861 N 533.594 0.0601682 1.57485 0
M  V30 5862 C 534.824 -0.620037 1.97076 0
M  V30 5863 C 535.232 -1.64381 0.936784 0
M  V30 5864 O 534.575 -1.83497 -0.0863377 0
M  V30 5865 C 534.637 -1.35617 3.32939 0
M  V30 5866 C 534.301 -0.487208 4.54396 0
M  V30 5867 C 535.298 0.250428 5.19297 0
M  V30 5868 C 532.983 -0.415494 5.00579 0
M  V30 5869 C 534.977 1.04812 6.28723 0
M  V30 5870 C 532.664 0.385879 6.0988 0
M  V30 5871 C 533.662 1.11637 6.73815 0
M  V30 5872 O 533.35 1.90454 7.81014 0
M  V30 5873 H 533.082 -0.173664 0.653312 0
M  V30 5874 H 535.636 0.1256 2.05016 0
M  V30 5875 H 533.866 -2.14763 3.2158 0
M  V30 5876 H 535.555 -1.92749 3.57215 0
M  V30 5877 H 536.321 0.204546 4.84568 0
M  V30 5878 H 532.2 -0.973679 4.506 0
M  V30 5879 H 535.744 1.6188 6.78558 0
M  V30 5880 H 531.641 0.433366 6.44044 0
M  V30 5881 H 532.409 1.82762 7.97835 0
M  V30 5882 N 535.072 -1.5615 -0.213296 0
M  V30 5883 C 536.004 -1.89586 -1.28802 0
M  V30 5884 C 537.017 -0.784844 -1.42633 0
M  V30 5885 O 538.206 -1.06319 -1.43383 0
M  V30 5886 C 535.306 -2.09665 -2.66259 0
M  V30 5887 C 534.479 -3.40726 -2.7427 0
M  V30 5888 C 533.538 -3.50137 -3.92798 0
M  V30 5889 O 532.564 -4.23105 -3.8075 0
M  V30 5890 N 533.766 -2.81886 -5.07465 0
M  V30 5891 H 536.531 -2.82368 -1.00442 0
M  V30 5892 H 534.092 -1.56796 -0.403302 0
M  V30 5893 H 536.084 -2.13268 -3.43946 0
M  V30 5894 H 534.654 -1.23469 -2.87183 0
M  V30 5895 H 533.874 -3.4915 -1.82997 0
M  V30 5896 H 535.162 -4.27048 -2.76599 0
M  V30 5897 H 534.56 -2.22397 -5.2015 0
M  V30 5898 H 533.117 -2.91139 -5.83165 0
M  V30 5899 N 536.55 0.480323 -1.50102 0
M  V30 5900 C 537.482 1.59669 -1.64433 0
M  V30 5901 C 538.495 1.54063 -0.52615 0
M  V30 5902 O 539.684 1.59619 -0.798992 0
M  V30 5903 C 536.784 2.98527 -1.6042 0
M  V30 5904 C 535.957 3.291 -2.88117 0
M  V30 5905 C 535.016 4.47468 -2.76873 0
M  V30 5906 O 534.042 4.4823 -3.50825 0
M  V30 5907 N 535.244 5.48593 -1.89806 0
M  V30 5908 H 538.009 1.47795 -2.60723 0
M  V30 5909 H 535.57 0.66858 -1.4745 0
M  V30 5910 H 537.562 3.75666 -1.50523 0
M  V30 5911 H 536.132 3.04218 -0.719036 0
M  V30 5912 H 535.352 2.40662 -3.12211 0
M  V30 5913 H 536.64 3.46334 -3.72734 0
M  V30 5914 H 536.038 5.50791 -1.2902 0
M  V30 5915 H 534.595 6.24752 -1.85819 0
M  V30 5916 N 538.028 1.39524 0.732853 0
M  V30 5917 C 539.256 1.40143 1.52209 0
M  V30 5918 C 539.671 -0.00348836 1.888 0
M  V30 5919 O 539.028 -0.975357 1.5425 0
M  V30 5920 C 539.079 2.27632 2.8083 0
M  V30 5921 O 538.8 3.62654 2.45792 0
M  V30 5922 C 540.301 2.36658 3.74844 0
M  V30 5923 H 537.521 0.478604 0.470297 0
M  V30 5924 H 540.065 1.83366 0.905388 0
M  V30 5925 H 538.22 1.87818 3.38826 0
M  V30 5926 H 538.634 4.08941 3.28431 0
M  V30 5927 H 540.108 3.02118 4.61984 0
M  V30 5928 H 540.585 1.38638 4.16745 0
M  V30 5929 H 541.191 2.76951 3.22766 0
M  V30 5930 N 539.506 -0.963266 1.24736 0
M  V30 5931 C 540.436 -2.07628 1.06832 0
M  V30 5932 C 541.417 -1.70088 -0.0200566 0
M  V30 5933 O 542.602 -1.93636 0.147854 0
M  V30 5934 C 539.732 -3.40636 0.677069 0
M  V30 5935 C 538.686 -3.9215 1.71471 0
M  V30 5936 C 538.012 -5.21553 1.1784 0
M  V30 5937 C 539.312 -4.19493 3.11164 0
M  V30 5938 H 541.006 -2.22864 1.9993 0
M  V30 5939 H 538.552 -1.07093 0.96266 0
M  V30 5940 H 540.505 -4.17941 0.538792 0
M  V30 5941 H 539.229 -3.25313 -0.289612 0
M  V30 5942 H 537.888 -3.17005 1.84128 0
M  V30 5943 H 537.536 -5.02593 0.202195 0
M  V30 5944 H 537.236 -5.56988 1.87185 0
M  V30 5945 H 538.76 -6.01463 1.05233 0
M  V30 5946 H 540.174 -4.87487 3.01711 0
M  V30 5947 H 538.571 -4.66165 3.77902 0
M  V30 5948 H 539.641 -3.26097 3.58871 0
M  V30 5949 N 540.985 -1.06182 -1.16461 0
M  V30 5950 C 542.401 -0.785065 -1.38956 0
M  V30 5951 C 542.601 0.616103 -1.9185 0
M  V30 5952 O 541.657 1.37686 -2.11657 0
M  V30 5953 C 542.97 -1.84902 -2.37132 0
M  V30 5954 C 544.518 -1.8724 -2.50819 0
M  V30 5955 C 544.993 -2.92686 -3.52277 0
M  V30 5956 N 546.484 -2.91712 -3.59803 0
M  V30 5957 C 547.219 -3.69949 -4.38093 0
M  V30 5958 N 546.715 -4.58 -5.19815 0
M  V30 5959 N 548.508 -3.58346 -4.33064 0
M  V30 5960 H 540.659 -1.96569 -0.804634 0
M  V30 5961 H 542.922 -0.851747 -0.416211 0
M  V30 5962 H 542.628 -2.85518 -2.0536 0
M  V30 5963 H 542.502 -1.69908 -3.36766 0
M  V30 5964 H 544.889 -0.872827 -2.81897 0
M  V30 5965 H 544.97 -2.06311 -1.51226 0
M  V30 5966 H 544.614 -3.92835 -3.21937 0
M  V30 5967 H 544.544 -2.70864 -4.51598 0
M  V30 5968 H 547.035 -2.27876 -3.01464 0
M  V30 5969 H 547.348 -5.14357 -5.76764 0
M  V30 5970 H 545.693 -4.62056 -5.19162 0
M  V30 5971 H 548.884 -2.88943 -3.68279 0
M  V30 5972 H 549.057 -4.19563 -4.93833 0
M  V30 5973 N 542.463 1.3308 -0.844243 0
M  V30 5974 C 543.691 2.01808 -0.456203 0
M  V30 5975 C 544.106 1.63498 0.944131 0
M  V30 5976 O 543.463 0.85102 1.61443 0
M  V30 5977 C 543.514 3.56922 -0.573513 0
M  V30 5978 O 543.235 3.93851 -1.91868 0
M  V30 5979 C 544.736 4.42922 -0.183125 0
M  V30 5980 H 541.956 0.646273 -0.180477 0
M  V30 5981 H 544.5 1.69891 -1.1383 0
M  V30 5982 H 542.655 3.87352 0.0607367 0
M  V30 5983 H 543.069 4.88564 -1.90802 0
M  V30 5984 H 544.543 5.51093 -0.316241 0
M  V30 5985 H 545.02 4.30386 0.875477 0
M  V30 5986 H 545.626 4.1786 -0.792027 0
M  V30 5987 N 543.941 0.601185 1.45683 0
M  V30 5988 C 545.166 0.0982245 2.07167 0
M  V30 5989 C 545.591 -1.20546 1.44396 0
M  V30 5990 O 544.949 -1.73247 0.534347 0
M  V30 5991 C 544.997 -0.0346976 3.60583 0
M  V30 5992 O 544.101 -1.08657 3.97828 0
M  V30 5993 H 543.442 0.0711618 0.660176 0
M  V30 5994 H 545.972 0.829376 1.87036 0
M  V30 5995 H 545.982 -0.234969 4.07323 0
M  V30 5996 H 544.657 0.917265 4.05659 0
M  V30 5997 H 543.234 -0.863275 3.6277 0
M  V30 5998 N 545.419 -1.53889 0.339982 0
M  V30 5999 C 546.667 -2.00458 -0.257112 0
M  V30 6000 C 546.988 -1.22953 -1.51353 0
M  V30 6001 O 546.258 -0.335734 -1.93002 0
M  V30 6002 H 544.838 -0.740544 -0.0979965 0
M  V30 6003 H 547.5 -1.89386 0.460317 0
M  V30 6004 H 546.596 -3.08035 -0.502057 0
M  V30 6005 N 546.897 -0.0685191 -1.57451 0
M  V30 6006 C 547.844 0.899861 -2.12535 0
M  V30 6007 C 548.814 1.29749 -1.03703 0
M  V30 6008 O 549.999 1.38392 -1.31348 0
M  V30 6009 C 547.139 2.16328 -2.6888 0
M  V30 6010 C 546.252 1.81857 -3.91857 0
M  V30 6011 C 545.387 3.02786 -4.36457 0
M  V30 6012 C 544.426 2.64317 -5.5209 0
M  V30 6013 N 543.563 3.77994 -5.91663 0
M  V30 6014 H 548.403 0.423243 -2.94979 0
M  V30 6015 H 545.94 0.197268 -1.45771 0
M  V30 6016 H 547.898 2.90281 -2.99655 0
M  V30 6017 H 546.528 2.61536 -1.89206 0
M  V30 6018 H 545.58 0.979808 -3.67565 0
M  V30 6019 H 546.892 1.49553 -4.75852 0
M  V30 6020 H 546.046 3.85021 -4.68875 0
M  V30 6021 H 544.785 3.38281 -3.51308 0
M  V30 6022 H 543.79 1.80503 -5.19325 0
M  V30 6023 H 545.015 2.29995 -6.38967 0
M  V30 6024 H 542.961 4.13258 -5.09464 0
M  V30 6025 H 542.878 3.49447 -6.7039 0
M  V30 6026 H 544.146 4.60818 -6.28703 0
M  V30 6027 N 548.375 1.56261 0.205012 0
M  V30 6028 C 549.624 1.79236 0.925058 0
M  V30 6029 C 549.937 0.640011 1.84833 0
M  V30 6030 O 551.143 0.753809 2.60826 0
M  V30 6031 C 549.599 3.17475 1.69522 0
M  V30 6032 C 549.207 4.40482 0.817269 0
M  V30 6033 C 550.951 3.49766 2.4055 0
M  V30 6034 C 548.858 5.69744 1.58573 0
M  V30 6035 H 547.788 0.668287 0.349153 0
M  V30 6036 H 550.439 1.82629 0.178544 0
M  V30 6037 H 548.821 3.08304 2.48526 0
M  V30 6038 H 549.995 4.60752 0.0665988 0
M  V30 6039 H 548.31 4.15827 0.218316 0
M  V30 6040 H 550.907 4.43573 2.98575 0
M  V30 6041 H 551.25 2.73041 3.14252 0
M  V30 6042 H 551.783 3.60341 1.68522 0
M  V30 6043 H 548.522 6.49407 0.891679 0
M  V30 6044 H 548.042 5.53509 2.31059 0
M  V30 6045 H 549.721 6.1051 2.14212 0
M  V30 6046 N 549.853 -0.472356 1.50355 0
M  V30 6047 C 551.083 -1.24603 1.64796 0
M  V30 6048 C 551.491 -1.86297 0.330156 0
M  V30 6049 O 550.834 -1.69934 -0.697728 0
M  V30 6050 C 550.896 -2.39578 2.68035 0
M  V30 6051 C 550.56 -1.98531 4.11624 0
M  V30 6052 C 551.557 -1.50856 4.97532 0
M  V30 6053 C 549.242 -2.0729 4.57532 0
M  V30 6054 C 551.236 -1.12481 6.27397 0
M  V30 6055 C 548.923 -1.68527 5.87403 0
M  V30 6056 C 549.921 -1.212 6.7216 0
M  V30 6057 O 549.609 -0.829728 7.99607 0
M  V30 6058 H 549.341 -0.383035 0.55701 0
M  V30 6059 H 551.895 -0.570392 1.97321 0
M  V30 6060 H 550.125 -3.10309 2.30749 0
M  V30 6061 H 551.814 -3.01544 2.71709 0
M  V30 6062 H 552.58 -1.43511 4.63281 0
M  V30 6063 H 548.459 -2.43076 3.91708 0
M  V30 6064 H 552.003 -0.754698 6.93506 0
M  V30 6065 H 547.9 -1.7553 6.21176 0
M  V30 6066 H 548.668 -0.958689 8.12866 0
M  V30 6067 N 551.331 -1.39911 -0.725443 0
M  V30 6068 C 552.264 -1.33788 -1.84867 0
M  V30 6069 C 553.242 -0.209907 -1.61239 0
M  V30 6070 O 554.426 -0.391943 -1.8438 0
M  V30 6071 C 551.553 -1.07975 -3.21028 0
M  V30 6072 C 550.599 -2.23092 -3.635 0
M  V30 6073 S 551.432 -3.85431 -3.71757 0
M  V30 6074 C 552.588 -3.61862 -5.10692 0
M  V30 6075 H 552.821 -2.28848 -1.89779 0
M  V30 6076 H 550.354 -1.26079 -0.891254 0
M  V30 6077 H 552.312 -0.937669 -3.99647 0
M  V30 6078 H 550.973 -0.145865 -3.13761 0
M  V30 6079 H 550.166 -2.00647 -4.62338 0
M  V30 6080 H 549.768 -2.33553 -2.92112 0
M  V30 6081 H 552.06 -3.19719 -5.97316 0
M  V30 6082 H 553.003 -4.60196 -5.38169 0
M  V30 6083 H 553.411 -2.95757 -4.8082 0
M  V30 6084 N 552.809 0.956637 -1.25245 0
M  V30 6085 C 554.058 1.69537 -1.0927 0
M  V30 6086 C 554.371 1.92136 0.366503 0
M  V30 6087 O 555.577 2.63687 0.64665 0
M  V30 6088 C 554.033 3.05211 -1.9072 0
M  V30 6089 C 553.641 2.90416 -3.41119 0
M  V30 6090 C 555.385 3.82882 -1.83308 0
M  V30 6091 C 553.292 4.21468 -4.14872 0
M  V30 6092 H 552.222 0.635804 -0.405302 0
M  V30 6093 H 554.873 1.06513 -1.49423 0
M  V30 6094 H 553.255 3.69128 -1.43389 0
M  V30 6095 H 554.429 2.35444 -3.9611 0
M  V30 6096 H 552.744 2.26203 -3.49602 0
M  V30 6097 H 555.341 4.79944 -2.35706 0
M  V30 6098 H 555.684 4.0853 -0.800572 0
M  V30 6099 H 556.217 3.25711 -2.28379 0
M  V30 6100 H 552.956 4.01009 -5.18529 0
M  V30 6101 H 552.476 4.76213 -3.64665 0
M  V30 6102 H 554.155 4.90022 -4.22478 0
M  V30 6103 N 554.287 1.06798 1.15896 0
M  V30 6104 C 555.534 0.787767 1.86549 0
M  V30 6105 C 555.862 -0.685959 1.82002 0
M  V30 6106 O 555.117 -1.5188 1.23414 0
M  V30 6107 C 555.416 1.23414 3.35416 0
M  V30 6108 C 555.082 2.71285 3.6016 0
M  V30 6109 C 553.744 3.11676 3.66622 0
M  V30 6110 C 556.096 3.6676 3.7032 0
M  V30 6111 C 553.424 4.4637 3.8075 0
M  V30 6112 C 555.776 5.01209 3.8597 0
M  V30 6113 C 554.44 5.41229 3.90676 0
M  V30 6114 H 553.71 0.288264 0.682631 0
M  V30 6115 H 556.357 1.338 1.37003 0
M  V30 6116 H 554.662 0.60319 3.87129 0
M  V30 6117 H 556.359 0.994298 3.88477 0
M  V30 6118 H 552.949 2.39015 3.55767 0
M  V30 6119 H 557.133 3.36685 3.64633 0
M  V30 6120 H 552.389 4.76855 3.82648 0
M  V30 6121 H 556.563 5.75067 3.92773 0
M  V30 6122 H 554.19 6.45602 4.01375 0
M  V30 6123 N 555.766 -1.3263 0.851289 0
M  V30 6124 C 557.013 -1.97368 0.453023 0
M  V30 6125 C 557.341 -1.67384 -0.990596 0
M  V30 6126 O 556.596 -0.952665 -1.70947 0
M  V30 6127 C 556.895 -3.51713 0.635015 0
M  V30 6128 C 556.561 -4.01676 2.04859 0
M  V30 6129 C 555.223 -4.15031 2.43522 0
M  V30 6130 C 557.575 -4.28206 2.97135 0
M  V30 6131 C 554.903 -4.52257 3.73739 0
M  V30 6132 C 557.255 -4.66889 4.26846 0
M  V30 6133 C 555.919 -4.7845 4.65448 0
M  V30 6134 H 555.189 -0.722219 0.165773 0
M  V30 6135 H 557.836 -1.58092 1.0807 0
M  V30 6136 H 556.141 -3.91726 -0.0759081 0
M  V30 6137 H 557.838 -3.99823 0.306964 0
M  V30 6138 H 554.428 -3.91764 1.73836 0
M  V30 6139 H 558.612 -4.174 2.68498 0
M  V30 6140 H 553.868 -4.59402 4.03435 0
M  V30 6141 H 558.042 -4.86372 4.98413 0
M  V30 6142 H 555.669 -5.07052 5.66395 0
M  V30 6143 N 557.244 -0.608902 -1.45362 0
M  V30 6144 C 558.49 -0.104762 -2.02529 0
M  V30 6145 C 558.823 1.26191 -1.47613 0
M  V30 6146 O 558.098 1.8327 -0.65134 0
M  V30 6147 C 558.381 -0.0672661 -3.60037 0
M  V30 6148 C 558.234 -1.4647 -4.25284 0
M  V30 6149 C 559.553 0.619877 -4.35713 0
M  V30 6150 H 556.672 -0.0395438 -0.735938 0
M  V30 6151 H 559.314 -0.781126 -1.73201 0
M  V30 6152 H 557.464 0.50871 -3.85155 0
M  V30 6153 H 559.136 -2.08785 -4.11347 0
M  V30 6154 H 557.379 -2.02502 -3.83634 0
M  V30 6155 H 558.05 -1.39069 -5.34195 0
M  V30 6156 H 560.526 0.130297 -4.15896 0
M  V30 6157 H 559.402 0.615224 -5.45441 0
M  V30 6158 H 559.663 1.68621 -4.0868 0
M  V30 6159 N 558.722 1.53707 -0.348139 0
M  V30 6160 C 559.652 2.28111 0.498766 0
M  V30 6161 C 560.633 1.29851 1.09876 0
M  V30 6162 O 561.818 1.587 1.11928 0
M  V30 6163 C 558.948 3.05735 1.64753 0
M  V30 6164 C 557.902 4.11537 1.17565 0
M  V30 6165 C 557.228 4.77142 2.4133 0
M  V30 6166 C 558.528 5.21587 0.272844 0
M  V30 6167 H 560.222 2.99152 -0.121934 0
M  V30 6168 H 557.768 1.43875 -0.0600842 0
M  V30 6169 H 559.721 3.56526 2.24649 0
M  V30 6170 H 558.445 2.32354 2.2952 0
M  V30 6171 H 557.104 3.61665 0.599483 0
M  V30 6172 H 556.752 4.0035 3.04514 0
M  V30 6173 H 556.452 5.48626 2.10436 0
M  V30 6174 H 557.976 5.30719 3.01943 0
M  V30 6175 H 559.39 5.67986 0.778779 0
M  V30 6176 H 557.787 6.00074 0.0555849 0
M  V30 6177 H 558.857 4.79969 -0.689785 0
M  V30 6178 N 560.2 0.0768682 1.57412 0
M  V30 6179 C 561.446 -0.591961 1.93968 0
M  V30 6180 C 561.779 -1.68954 0.9575 0
M  V30 6181 O 561.054 -1.94496 -0.0124675 0
M  V30 6182 C 561.337 -1.16418 3.40762 0
M  V30 6183 C 561.19 -0.0728933 4.49741 0
M  V30 6184 C 562.509 -2.06814 3.88479 0
M  V30 6185 H 559.628 -0.213716 0.705333 0
M  V30 6186 H 562.27 0.14387 1.89455 0
M  V30 6187 H 560.42 -1.79128 3.4474 0
M  V30 6188 H 562.092 0.560446 4.57883 0
M  V30 6189 H 560.335 0.595859 4.29688 0
M  V30 6190 H 561.006 -0.513755 5.49604 0
M  V30 6191 H 563.482 -1.54033 3.8654 0
M  V30 6192 H 562.358 -2.43785 4.91793 0
M  V30 6193 H 562.619 -2.97844 3.26713 0
M  V30 6194 N 561.678 -1.56367 -0.196722 0
M  V30 6195 C 562.927 -1.79724 -0.915539 0
M  V30 6196 C 563.24 -0.649804 -1.84491 0
M  V30 6197 O 564.446 -0.767631 -2.60422 0
M  V30 6198 C 562.902 -3.18369 -1.67836 0
M  V30 6199 C 562.51 -4.4091 -0.793897 0
M  V30 6200 C 564.254 -3.51037 -2.38691 0
M  V30 6201 C 562.161 -5.70577 -1.55549 0
M  V30 6202 H 561.091 -0.67013 -0.345604 0
M  V30 6203 H 563.742 -1.82721 -0.168856 0
M  V30 6204 H 562.124 -3.09617 -2.46887 0
M  V30 6205 H 563.298 -4.60781 -0.042163 0
M  V30 6206 H 561.613 -4.15937 -0.19626 0
M  V30 6207 H 564.21 -4.4515 -2.96219 0
M  V30 6208 H 564.553 -2.74704 -3.12799 0
M  V30 6209 H 565.086 -3.61229 -1.66608 0
M  V30 6210 H 561.825 -6.49871 -0.857226 0
M  V30 6211 H 561.345 -5.54726 -2.2812 0
M  V30 6212 H 563.024 -6.11637 -2.10971 0
M  V30 6213 N 563.156 0.464375 -1.50603 0
M  V30 6214 C 564.403 1.21596 -1.61928 0
M  V30 6215 C 564.731 1.91804 -0.322737 0
M  V30 6216 O 563.986 1.83065 0.691776 0
M  V30 6217 C 564.285 2.278 -2.75394 0
M  V30 6218 C 563.951 1.74797 -4.1564 0
M  V30 6219 C 562.613 1.60063 -4.53799 0
M  V30 6220 C 564.965 1.35548 -5.03266 0
M  V30 6221 C 562.293 1.04514 -5.77316 0
M  V30 6222 C 564.645 0.814381 -6.27336 0
M  V30 6223 C 563.309 0.653726 -6.64291 0
M  V30 6224 H 562.579 0.444951 -0.592536 0
M  V30 6225 H 565.226 0.510964 -1.84557 0
M  V30 6226 H 563.531 3.04233 -2.46879 0
M  V30 6227 H 565.228 2.85723 -2.81359 0
M  V30 6228 H 561.818 1.87234 -3.8554 0
M  V30 6229 H 566.002 1.45763 -4.74412 0
M  V30 6230 H 561.258 0.908186 -6.04617 0
M  V30 6231 H 565.432 0.501626 -6.94591 0
M  V30 6232 H 563.059 0.22114 -7.59878 0
M  V30 6233 N 564.634 1.40294 0.718013 0
M  V30 6234 C 565.564 1.43118 1.84498 0
M  V30 6235 C 566.545 0.292403 1.67568 0
M  V30 6236 O 567.73 0.500675 1.87635 0
M  V30 6237 C 564.86 1.29065 3.22427 0
M  V30 6238 C 563.814 2.40521 3.54025 0
M  V30 6239 C 563.14 2.11546 4.91073 0
M  V30 6240 C 564.44 3.82859 3.55269 0
M  V30 6241 H 566.134 2.37432 1.82391 0
M  V30 6242 H 563.68 1.14283 0.87609 0
M  V30 6243 H 565.633 1.29658 4.00957 0
M  V30 6244 H 564.357 0.312271 3.25104 0
M  V30 6245 H 563.016 2.39173 2.77834 0
M  V30 6246 H 562.664 1.12104 4.90348 0
M  V30 6247 H 562.364 2.86216 5.1318 0
M  V30 6248 H 563.888 2.13817 5.71939 0
M  V30 6249 H 565.302 3.86044 4.23843 0
M  V30 6250 H 563.699 4.57029 3.88902 0
M  V30 6251 H 564.769 4.12617 2.54706 0
M  V30 6252 N 566.112 -0.949982 1.2575 0
M  V30 6253 C 567.36 -1.6918 1.10555 0
M  V30 6254 C 567.681 -1.91773 -0.353298 0
M  V30 6255 O 566.951 -1.50814 -1.25027 0
M  V30 6256 H 565.531 -0.626952 0.406129 0
M  V30 6257 H 568.193 -1.1419 1.57945 0
M  V30 6258 H 567.289 -2.66915 1.61749 0
M  V30 6259 N 567.59 -1.07411 -1.15328 0
M  V30 6260 C 568.815 -0.818856 -1.90551 0
M  V30 6261 C 569.24 0.622194 -1.77512 0
M  V30 6262 O 568.598 1.43484 -1.10824 0
M  V30 6263 C 568.646 -1.23267 -3.38877 0
M  V30 6264 O 567.75 -0.378345 -4.10661 0
M  V30 6265 H 567.091 -0.29827 -0.593238 0
M  V30 6266 H 569.621 -1.43289 -1.46046 0
M  V30 6267 H 569.631 -1.20912 -3.89672 0
M  V30 6268 H 568.306 -2.28226 -3.47686 0
M  V30 6269 H 566.883 -0.464437 -3.69996 0
M  V30 6270 N 569.068 1.32177 -0.85831 0
M  V30 6271 C 570.315 1.97125 -0.463484 0
M  V30 6272 C 570.643 1.67907 0.981705 0
M  V30 6273 O 569.898 0.961717 1.70439 0
M  V30 6274 C 570.197 3.51372 -0.653658 0
M  V30 6275 C 569.863 4.00584 -2.06987 0
M  V30 6276 C 568.525 4.13733 -2.4572 0
M  V30 6277 C 570.877 4.26624 -2.99402 0
M  V30 6278 C 568.205 4.50268 -3.76132 0
M  V30 6279 C 570.557 4.64618 -4.29316 0
M  V30 6280 C 569.221 4.75975 -4.67979 0
M  V30 6281 H 568.491 0.72133 -0.169601 0
M  V30 6282 H 571.138 1.57517 -1.08907 0
M  V30 6283 H 569.443 3.91761 0.0551328 0
M  V30 6284 H 571.14 3.99655 -0.328163 0
M  V30 6285 H 567.73 3.90837 -1.75911 0
M  V30 6286 H 571.914 4.1597 -2.70708 0
M  V30 6287 H 567.17 4.57256 -4.05865 0
M  V30 6288 H 571.344 4.83722 -5.00985 0
M  V30 6289 H 568.971 5.04041 -5.69076 0
M  V30 6290 N 570.547 0.616602 1.45037 0
M  V30 6291 C 571.777 0.121791 2.06241 0
M  V30 6292 C 572.185 -1.20289 1.46038 0
M  V30 6293 O 571.528 -1.7456 0.572242 0
M  V30 6294 C 571.59 -0.0827345 3.59405 0
M  V30 6295 C 571.254 1.16153 4.41993 0
M  V30 6296 C 572.251 2.08183 4.76399 0
M  V30 6297 C 569.936 1.39288 4.82601 0
M  V30 6298 C 571.93 3.21668 5.5028 0
M  V30 6299 C 569.617 2.53073 5.56235 0
M  V30 6300 C 570.615 3.44091 5.89992 0
M  V30 6301 O 570.303 4.55894 6.6213 0
M  V30 6302 H 570.035 0.0701667 0.672349 0
M  V30 6303 H 572.589 0.846877 1.87129 0
M  V30 6304 H 570.819 -0.862812 3.76952 0
M  V30 6305 H 572.508 -0.530273 4.02421 0
M  V30 6306 H 573.274 1.91538 4.45576 0
M  V30 6307 H 569.153 0.693396 4.55755 0
M  V30 6308 H 572.697 3.92733 5.76547 0
M  V30 6309 H 568.594 2.69667 5.86472 0
M  V30 6310 H 569.362 4.5469 6.80587 0
M  V30 6311 N 572.025 -1.5352 0.356285 0
M  V30 6312 C 572.955 -2.28372 -0.486661 0
M  V30 6313 C 573.936 -1.30432 -1.09185 0
M  V30 6314 O 575.121 -1.59291 -1.11085 0
M  V30 6315 C 572.251 -3.06604 -1.63129 0
M  V30 6316 C 571.205 -4.12154 -1.15381 0
M  V30 6317 C 570.531 -4.78415 -2.38796 0
M  V30 6318 C 571.831 -5.21724 -0.245179 0
M  V30 6319 H 573.525 -2.99083 0.137797 0
M  V30 6320 H 571.071 -1.43841 0.0677134 0
M  V30 6321 H 573.024 -3.57712 -2.22755 0
M  V30 6322 H 571.748 -2.33568 -2.28284 0
M  V30 6323 H 570.407 -3.61978 -0.580294 0
M  V30 6324 H 570.055 -4.01959 -3.02387 0
M  V30 6325 H 569.755 -5.49734 -2.07524 0
M  V30 6326 H 571.279 -5.32313 -2.99125 0
M  V30 6327 H 572.693 -5.68391 -0.748646 0
M  V30 6328 H 571.09 -6.00095 -0.0237608 0
M  V30 6329 H 572.16 -4.79596 0.715229 0
M  V30 6330 N 573.503 -0.0852151 -1.57369 0
M  V30 6331 C 574.749 0.581666 -1.94279 0
M  V30 6332 C 575.082 1.68444 -0.966446 0
M  V30 6333 O 574.357 1.945 0.00215277 0
M  V30 6334 C 574.64 1.14609 -3.41375 0
M  V30 6335 C 574.493 0.0490414 -4.49773 0
M  V30 6336 C 575.812 2.04751 -3.8957 0
M  V30 6337 H 572.931 0.209972 -0.706456 0
M  V30 6338 H 575.573 -0.153915 -1.89376 0
M  V30 6339 H 573.723 1.77297 -3.45685 0
M  V30 6340 H 575.395 -0.584721 -4.57579 0
M  V30 6341 H 573.638 -0.618638 -4.29366 0
M  V30 6342 H 574.309 0.484601 -5.49869 0
M  V30 6343 H 576.785 1.51981 -3.87351 0
M  V30 6344 H 575.661 2.41173 -4.93079 0
M  V30 6345 H 575.922 2.96107 -3.28288 0
M  V30 6346 N 574.981 1.5647 0.188427 0
M  V30 6347 C 575.929 1.95971 1.25293 0
M  V30 6348 C 576.923 0.846047 1.4676 0
M  V30 6349 O 578.129 1.03109 1.47542 0
M  V30 6350 H 574.504 0.623253 0.420784 0
M  V30 6351 H 576.475 2.84731 0.892792 0
M  V30 6352 C 575.224 2.32116 2.58877 0
M  V30 6353 H 574.547 3.17341 2.43176 0
M  V30 6354 H 575.987 2.63613 3.3209 0
M  V30 6355 C 574.446 1.15823 3.16365 0
M  V30 6356 O 574.976 0.436785 3.99318 0
M  V30 6357 N 573.182 0.933278 2.75206 0
M  V30 6358 H 572.729 1.52169 2.07852 0
M  V30 6359 H 572.687 0.156976 3.14008 0
M  V30 6360 N 576.459 -0.456382 1.50847 0
M  V30 6361 C 577.389 -1.56025 1.73719 0
M  V30 6362 C 578.37 -1.5967 0.586473 0
M  V30 6363 O 579.555 -1.75702 0.827185 0
M  V30 6364 C 576.685 -2.94251 1.84483 0
M  V30 6365 C 575.639 -3.05471 2.99786 0
M  V30 6366 C 574.965 -4.45489 2.95709 0
M  V30 6367 C 576.265 -2.81318 4.40065 0
M  V30 6368 H 577.959 -1.37138 2.66146 0
M  V30 6369 H 575.505 -0.658299 1.28072 0
M  V30 6370 H 577.458 -3.71417 1.99067 0
M  V30 6371 H 576.182 -3.14328 0.886891 0
M  V30 6372 H 574.841 -2.30741 2.84876 0
M  V30 6373 H 574.489 -4.62505 1.97732 0
M  V30 6374 H 574.189 -4.53929 3.73125 0
M  V30 6375 H 575.713 -5.24655 3.12362 0
M  V30 6376 H 577.127 -3.48226 4.55425 0
M  V30 6377 H 575.524 -3.01188 5.19043 0
M  V30 6378 H 576.594 -1.7706 4.51418 0
M  V30 6379 N 577.937 -1.40673 -0.710563 0
M  V30 6380 C 579.186 -1.38525 -1.46607 0
M  V30 6381 C 579.499 0.0077024 -1.95598 0
M  V30 6382 O 580.705 0.151792 -2.71075 0
M  V30 6383 C 579.161 -2.43489 -2.6503 0
M  V30 6384 C 578.769 -3.88619 -2.22888 0
M  V30 6385 C 580.513 -2.50456 -3.42742 0
M  V30 6386 C 578.42 -4.85168 -3.3818 0
M  V30 6387 H 577.35 -0.515092 -0.550632 0
M  V30 6388 H 580.001 -1.66431 -0.772846 0
M  V30 6389 H 578.383 -2.0869 -3.36548 0
M  V30 6390 H 579.557 -4.32588 -1.58758 0
M  V30 6391 H 577.872 -3.85174 -1.58208 0
M  V30 6392 H 580.469 -3.19776 -4.28541 0
M  V30 6393 H 580.812 -1.53665 -3.86902 0
M  V30 6394 H 581.345 -2.84271 -2.78271 0
M  V30 6395 H 578.084 -5.8331 -2.99047 0
M  V30 6396 H 577.604 -4.4586 -4.01209 0
M  V30 6397 H 579.283 -5.05225 -4.04174 0
M  V30 6398 N 579.415 0.9433 -1.26252 0
M  V30 6399 C 580.345 2.05902 -1.10122 0
M  V30 6400 C 581.326 1.70099 -0.00700552 0
M  V30 6401 O 582.511 1.93377 -0.178641 0
M  V30 6402 C 579.641 3.39516 -0.731175 0
M  V30 6403 C 578.595 3.89372 -1.77688 0
M  V30 6404 C 577.921 5.19613 -1.26122 0
M  V30 6405 C 579.221 4.14489 -3.17799 0
M  V30 6406 H 580.915 2.19655 -2.03451 0
M  V30 6407 H 578.461 1.05548 -0.979576 0
M  V30 6408 H 580.414 4.17031 -0.605215 0
M  V30 6409 H 579.138 3.25733 0.23782 0
M  V30 6410 H 577.797 3.14036 -1.89148 0
M  V30 6411 H 577.445 5.02208 -0.282128 0
M  V30 6412 H 577.145 5.53939 -1.96023 0
M  V30 6413 H 578.669 5.99713 -1.14789 0
M  V30 6414 H 580.083 4.82625 -3.09428 0
M  V30 6415 H 578.48 4.60094 -3.85271 0
M  V30 6416 H 579.55 3.20347 -3.64014 0
M  V30 6417 N 580.893 1.08022 1.14757 0
M  V30 6418 C 581.856 0.71048 2.1791 0
M  V30 6419 C 582.856 -0.252731 1.58801 0
M  V30 6420 O 584.046 -0.0327915 1.74169 0
M  V30 6421 C 581.178 0.0483203 3.40866 0
M  V30 6422 H 582.371 1.62384 2.52134 0
M  V30 6423 H 579.924 0.877595 1.29337 0
M  V30 6424 H 580.659 -0.876959 3.12218 0
M  V30 6425 H 580.444 0.741189 3.85031 0
M  V30 6426 H 581.934 -0.195471 4.17142 0
M  V30 6427 N 582.371 -1.3172 0.865308 0
M  V30 6428 C 583.617 -1.97168 0.474633 0
M  V30 6429 C 583.95 -1.68263 -0.969604 0
M  V30 6430 O 583.225 -0.976588 -1.68205 0
M  V30 6431 C 583.508 -3.52689 0.726808 0
M  V30 6432 C 583.361 -3.91185 2.22024 0
M  V30 6433 C 584.68 -4.39689 0.190201 0
M  V30 6434 H 581.799 -0.716185 0.17392 0
M  V30 6435 H 584.441 -1.55925 1.08569 0
M  V30 6436 H 582.591 -3.8795 0.206705 0
M  V30 6437 H 584.263 -3.66049 2.80724 0
M  V30 6438 H 582.506 -3.3996 2.69462 0
M  V30 6439 H 583.177 -4.99604 2.34735 0
M  V30 6440 H 585.653 -4.11225 0.635103 0
M  V30 6441 H 584.529 -5.47469 0.396132 0
M  V30 6442 H 584.79 -4.32683 -0.907625 0
M  V30 6443 N 583.85 -0.624285 -1.44708 0
M  V30 6444 C 585.096 -0.126237 -2.02407 0
M  V30 6445 C 585.428 1.24618 -1.48943 0
M  V30 6446 O 584.704 1.82569 -0.670742 0
M  V30 6447 C 584.986 -0.105449 -3.59946 0
M  V30 6448 C 584.84 -1.50972 -4.23707 0
M  V30 6449 C 586.159 0.573629 -4.36346 0
M  V30 6450 H 583.278 -0.0473472 -0.735478 0
M  V30 6451 H 585.92 -0.799452 -1.72362 0
M  V30 6452 H 584.07 0.46783 -3.85673 0
M  V30 6453 H 585.742 -2.13136 -4.0911 0
M  V30 6454 H 583.985 -2.0656 -3.81465 0
M  V30 6455 H 584.656 -1.44727 -5.32689 0
M  V30 6456 H 587.132 0.0861787 -4.16011 0
M  V30 6457 H 586.008 0.557338 -5.46063 0
M  V30 6458 H 586.269 1.64276 -4.10446 0
M  V30 6459 N 585.328 1.53329 -0.364422 0
M  V30 6460 C 586.556 2.05657 0.226424 0
M  V30 6461 C 586.971 1.23801 1.42544 0
M  V30 6462 O 586.328 0.27839 1.80364 0
M  V30 6463 C 586.379 3.56125 0.621056 0
M  V30 6464 O 586.1 4.34879 -0.530304 0
M  V30 6465 C 587.601 4.24706 1.27041 0
M  V30 6466 H 584.821 0.669806 0.0400056 0
M  V30 6467 H 587.365 1.97714 -0.522456 0
M  V30 6468 H 585.52 3.64223 1.31985 0
M  V30 6469 H 585.934 5.24073 -0.211546 0
M  V30 6470 H 587.408 5.3131 1.49711 0
M  V30 6471 H 587.885 3.78354 2.23036 0
M  V30 6472 H 588.491 4.20858 0.613079 0
M  V30 6473 N 586.806 0.0935595 1.57322 0
M  V30 6474 C 587.739 -0.902505 2.09595 0
M  V30 6475 C 588.717 -1.27732 1.00615 0
M  V30 6476 O 589.901 -1.38283 1.28102 0
M  V30 6477 C 587.028 -2.20416 2.57166 0
M  V30 6478 C 586.074 -1.97932 3.7779 0
M  V30 6479 S 586.907 -1.21873 5.21447 0
M  V30 6480 C 588.063 -2.53273 5.72367 0
M  V30 6481 H 588.296 -0.457797 2.93754 0
M  V30 6482 H 585.829 -0.119694 1.53935 0
M  V30 6483 H 587.787 -2.95217 2.85232 0
M  V30 6484 H 586.448 -2.62008 1.73235 0
M  V30 6485 H 585.641 -2.94316 4.09138 0
M  V30 6486 H 585.243 -1.3126 3.5021 0
M  V30 6487 H 587.535 -3.49256 5.8054 0
M  V30 6488 H 588.478 -2.26505 6.70896 0
M  V30 6489 H 588.886 -2.61475 5.00291 0
M  V30 6490 N 588.284 -1.56567 -0.180126 0
M  V30 6491 C 589.247 -1.94852 -1.20686 0
M  V30 6492 C 590.247 -0.831212 -1.3765 0
M  V30 6493 O 591.437 -1.09841 -1.35206 0
M  V30 6494 C 588.569 -2.23565 -2.57355 0
M  V30 6495 H 589.762 -2.86722 -0.879225 0
M  V30 6496 H 587.315 -1.50489 -0.422237 0
M  V30 6497 H 588.05 -1.34381 -2.95148 0
M  V30 6498 H 587.835 -3.04999 -2.46411 0
M  V30 6499 H 589.325 -2.54137 -3.31367 0
M  V30 6500 N 589.762 0.448376 -1.51087 0
M  V30 6501 C 590.992 1.21965 -1.66757 0
M  V30 6502 C 591.4 1.85748 -0.359753 0
M  V30 6503 O 590.743 1.71022 0.670604 0
M  V30 6504 C 590.805 2.35284 -2.71812 0
M  V30 6505 C 590.469 1.91957 -4.1473 0
M  V30 6506 C 591.466 1.42921 -4.9987 0
M  V30 6507 C 589.151 1.99985 -4.60772 0
M  V30 6508 C 591.145 1.02485 -6.29107 0
M  V30 6509 C 588.832 1.5916 -5.90009 0
M  V30 6510 C 589.83 1.10491 -6.74004 0
M  V30 6511 O 589.518 0.702413 -8.00825 0
M  V30 6512 H 589.25 0.374125 -0.563034 0
M  V30 6513 H 591.804 0.538927 -1.98204 0
M  V30 6514 H 590.034 3.06599 -2.35657 0
M  V30 6515 H 591.723 2.97184 -2.76472 0
M  V30 6516 H 592.489 1.36123 -4.65506 0
M  V30 6517 H 588.368 2.36814 -3.95525 0
M  V30 6518 H 591.912 0.644271 -6.94619 0
M  V30 6519 H 587.809 1.65626 -6.2389 0
M  V30 6520 H 588.577 0.829248 -8.14288 0
M  V30 6521 N 591.24 1.41047 0.703093 0
M  V30 6522 C 592.15 1.44645 1.84703 0
M  V30 6523 C 593.166 0.337778 1.7069 0
M  V30 6524 O 594.342 0.584327 1.92737 0
M  V30 6525 C 591.407 1.31928 3.20618 0
M  V30 6526 C 590.468 2.53047 3.46794 0
M  V30 6527 C 589.701 2.40927 4.76224 0
M  V30 6528 O 589.924 1.42978 5.5219 0
M  V30 6529 O 588.858 3.30543 5.03016 0
M  V30 6530 H 592.684 2.41139 1.84624 0
M  V30 6531 H 590.269 1.22504 0.855167 0
M  V30 6532 H 592.151 1.27092 4.01778 0
M  V30 6533 H 590.826 0.385469 3.21397 0
M  V30 6534 H 589.733 2.6346 2.65593 0
M  V30 6535 H 591.066 3.45231 3.50822 0
M  V30 6536 N 592.718 -0.936591 1.26751 0
M  V30 6537 C 593.628 -2.06949 1.10496 0
M  V30 6538 C 594.644 -1.7396 0.037271 0
M  V30 6539 O 595.82 -1.99941 0.241944 0
M  V30 6540 C 592.885 -3.38612 0.744491 0
M  V30 6541 C 591.946 -3.85355 1.89209 0
M  V30 6542 C 591.179 -5.10735 1.54873 0
M  V30 6543 O 591.402 -5.68602 0.452546 0
M  V30 6544 O 590.336 -5.52632 2.38499 0
M  V30 6545 H 594.162 -2.23571 2.05547 0
M  V30 6546 H 591.747 -1.05428 1.05855 0
M  V30 6547 H 593.629 -4.17711 0.556396 0
M  V30 6548 H 592.304 -3.23218 -0.176582 0
M  V30 6549 H 591.211 -3.07182 2.13518 0
M  V30 6550 H 592.544 -4.05277 2.79305 0
M  V30 6551 N 594.196 -1.08629 -1.14182 0
M  V30 6552 C 595.128 -0.676189 -2.18998 0
M  V30 6553 C 596.141 0.277871 -1.60411 0
M  V30 6554 O 597.33 0.0651771 -1.78381 0
M  V30 6555 C 594.43 0.0254916 -3.3889 0
M  V30 6556 C 593.603 -0.948039 -4.27002 0
M  V30 6557 C 592.662 -0.281268 -5.25448 0
M  V30 6558 O 591.688 -0.926378 -5.61611 0
M  V30 6559 N 592.89 0.967923 -5.72374 0
M  V30 6560 H 595.655 -1.57792 -2.54798 0
M  V30 6561 H 593.216 -0.972665 -1.29425 0
M  V30 6562 H 595.208 0.482554 -4.01813 0
M  V30 6563 H 593.778 0.829348 -3.01398 0
M  V30 6564 H 592.998 -1.58388 -3.6098 0
M  V30 6565 H 594.286 -1.60765 -4.82734 0
M  V30 6566 H 593.684 1.51175 -5.45126 0
M  V30 6567 H 592.241 1.36844 -6.37273 0
M  V30 6568 N 595.674 1.31259 -0.872281 0
M  V30 6569 C 596.622 2.30404 -0.318897 0
M  V30 6570 C 597.616 1.5962 0.567267 0
M  V30 6571 O 598.822 1.74204 0.453111 0
M  V30 6572 H 595.197 0.747243 -0.0844474 0
M  V30 6573 H 597.168 2.74549 -1.16899 0
M  V30 6574 C 595.917 3.44608 0.462683 0
M  V30 6575 H 595.24 3.99248 -0.209936 0
M  V30 6576 H 596.68 4.1609 0.815187 0
M  V30 6577 C 595.139 2.93456 1.65485 0
M  V30 6578 O 595.669 2.92418 2.75417 0
M  V30 6579 N 593.875 2.49628 1.48776 0
M  V30 6580 H 593.422 2.50671 0.593452 0
M  V30 6581 H 593.38 2.15759 2.28682 0
M  V30 6582 N 597.152 0.631951 1.44375 0
M  V30 6583 C 598.084 -0.110911 2.28931 0
M  V30 6584 C 599.097 -0.808086 1.41329 0
M  V30 6585 O 600.286 -0.669396 1.65473 0
M  V30 6586 C 597.386 -1.17928 3.1772 0
M  V30 6587 C 596.559 -0.564458 4.33743 0
M  V30 6588 C 595.618 -1.5269 5.0356 0
M  V30 6589 O 594.644 -1.04372 5.59549 0
M  V30 6590 N 595.846 -2.86123 5.05088 0
M  V30 6591 H 598.611 0.614758 2.93327 0
M  V30 6592 H 596.172 0.473171 1.54831 0
M  V30 6593 H 598.164 -1.82348 3.61291 0
M  V30 6594 H 596.734 -1.80717 2.55069 0
M  V30 6595 H 595.954 0.258373 3.93352 0
M  V30 6596 H 597.242 -0.134355 5.08623 0
M  V30 6597 H 596.64 -3.27959 4.60933 0
M  V30 6598 H 595.197 -3.45901 5.52445 0
M  V30 6599 N 598.631 -1.53133 0.372548 0
M  V30 6600 C 599.594 -2.24569 -0.458389 0
M  V30 6601 C 600.594 -1.25603 -1.00402 0
M  V30 6602 O 601.784 -1.49827 -0.888672 0
M  V30 6603 C 598.916 -2.98783 -1.6414 0
M  V30 6604 H 600.109 -2.99436 0.166799 0
M  V30 6605 H 597.662 -1.55805 0.124357 0
M  V30 6606 H 598.397 -2.28176 -2.30448 0
M  V30 6607 H 598.182 -3.71404 -1.25704 0
M  V30 6608 H 599.672 -3.53068 -2.23008 0
M  V30 6609 N 600.109 -0.101901 -1.5727 0
M  V30 6610 C 601.337 0.568392 -1.98939 0
M  V30 6611 C 601.752 1.61301 -0.981194 0
M  V30 6612 O 601.109 1.82478 0.0282869 0
M  V30 6613 C 601.16 1.20997 -3.40649 0
M  V30 6614 O 600.881 0.207129 -4.3761 0
M  V30 6615 C 602.382 1.96523 -3.97358 0
M  V30 6616 H 599.602 0.15186 -0.65359 0
M  V30 6617 H 602.146 -0.183198 -2.03678 0
M  V30 6618 H 600.301 1.91245 -3.36904 0
M  V30 6619 H 600.715 0.671071 -5.20189 0
M  V30 6620 H 602.189 2.36764 -4.98645 0
M  V30 6621 H 602.666 2.83376 -3.35552 0
M  V30 6622 H 603.272 1.31076 -4.04598 0
M  V30 6623 N 601.587 1.56661 0.17182 0
M  V30 6624 C 602.815 1.861 0.904115 0
M  V30 6625 C 603.23 0.687227 1.75848 0
M  V30 6626 O 602.587 -0.343671 1.79235 0
M  V30 6627 C 602.638 3.14568 1.78127 0
M  V30 6628 O 602.359 4.27422 0.961366 0
M  V30 6629 C 603.86 3.5735 2.62327 0
M  V30 6630 H 601.08 0.617445 0.262684 0
M  V30 6631 H 603.624 2.03775 0.172068 0
M  V30 6632 H 601.779 2.98721 2.46666 0
M  V30 6633 H 602.193 5.00725 1.56123 0
M  V30 6634 H 603.667 4.50144 3.1949 0
M  V30 6635 H 604.144 2.81445 3.37173 0
M  V30 6636 H 604.75 3.75807 1.99121 0
M  V30 6637 N 603.065 -0.440357 1.51323 0
M  V30 6638 C 604.342 -1.20109 1.5438 0
M  V30 6639 C 604.722 -2.08866 0.306303 0
M  V30 6640 O 604.07 -2.1723 -0.708773 0
M  V30 6641 C 604.28 -2.00555 2.8562 0
M  V30 6642 C 605.628 -2.577 3.37455 0
M  V30 6643 O 606.652 -2.10769 2.8715 0
M  V30 6644 O 605.511 -3.43289 4.25224 0
M  V30 6645 H 602.605 -0.546668 0.620551 0
M  V30 6646 H 605.151 -0.449672 1.63634 0
M  V30 6647 H 603.923 -1.35346 3.67147 0
M  V30 6648 H 603.546 -2.82768 2.79514 0
M  V30 6649 N 604.543 -1.41418 -0.695603 0
M  V30 6650 C 605.453 -1.45622 -1.83933 0
M  V30 6651 C 606.469 -0.346825 -1.70508 0
M  V30 6652 O 607.645 -0.59454 -1.92424 0
M  V30 6653 C 604.71 -1.33627 -3.19914 0
M  V30 6654 C 603.771 -2.54882 -3.45447 0
M  V30 6655 C 603.004 -2.43449 -4.7494 0
M  V30 6656 O 603.227 -1.45905 -5.51424 0
M  V30 6657 O 602.161 -3.33206 -5.01256 0
M  V30 6658 H 605.987 -2.42114 -1.83342 0
M  V30 6659 H 603.572 -1.22956 -0.848658 0
M  V30 6660 H 605.454 -1.29221 -4.01098 0
M  V30 6661 H 604.129 -0.402508 -3.21188 0
M  V30 6662 H 603.036 -2.64865 -2.64192 0
M  V30 6663 H 604.369 -3.47087 -3.48987 0
M  V30 6664 N 606.021 0.929856 -1.27246 0
M  V30 6665 C 607.27 1.67182 -1.12842 0
M  V30 6666 C 607.583 1.9287 0.325666 0
M  V30 6667 O 608.789 2.64999 0.590572 0
M  V30 6668 C 607.245 3.01097 -1.97151 0
M  V30 6669 C 606.853 2.83115 -3.47203 0
M  V30 6670 C 608.597 3.78907 -1.91389 0
M  V30 6671 C 606.504 4.12573 -4.23719 0
M  V30 6672 H 605.434 0.627064 -0.418697 0
M  V30 6673 H 608.085 1.0332 -1.51649 0
M  V30 6674 H 606.467 3.66004 -1.51186 0
M  V30 6675 H 607.641 2.26989 -4.01015 0
M  V30 6676 H 605.956 2.18736 -3.54321 0
M  V30 6677 H 608.553 4.74837 -2.45834 0
M  V30 6678 H 608.896 4.0674 -0.887047 0
M  V30 6679 H 609.429 3.20794 -2.35237 0
M  V30 6680 H 606.168 3.8992 -5.26918 0
M  V30 6681 H 605.688 4.68371 -3.74685 0
M  V30 6682 H 607.367 4.8095 -4.32777 0
M  V30 6683 N 607.499 1.09233 1.13605 0
M  V30 6684 C 608.409 0.741939 2.22559 0
M  V30 6685 C 609.425 -0.255236 1.72118 0
M  V30 6686 O 610.601 -0.0970747 2.01166 0
M  V30 6687 C 607.666 0.165595 3.46304 0
M  V30 6688 C 606.727 1.21846 4.11645 0
M  V30 6689 C 605.96 0.669526 5.29484 0
M  V30 6690 O 606.183 -0.508228 5.68131 0
M  V30 6691 O 605.117 1.42361 5.84822 0
M  V30 6692 H 608.943 1.65107 2.54899 0
M  V30 6693 H 606.528 0.866584 1.21699 0
M  V30 6694 H 608.41 -0.152592 4.21124 0
M  V30 6695 H 607.085 -0.716573 3.15669 0
M  V30 6696 H 605.992 1.58931 3.38662 0
M  V30 6697 H 607.325 2.07321 4.46407 0
M  V30 6698 N 608.977 -1.30795 0.87923 0
M  V30 6699 C 609.94 -2.26563 0.346676 0
M  V30 6700 C 610.94 -1.52578 -0.507597 0
M  V30 6701 O 612.13 -1.71318 -0.315575 0
M  V30 6702 C 609.262 -3.37115 -0.506611 0
M  V30 6703 H 610.455 -2.75183 1.19223 0
M  V30 6704 H 608.008 -1.41886 0.655598 0
M  V30 6705 H 608.743 -2.93802 -1.37299 0
M  V30 6706 H 608.528 -3.91959 0.105218 0
M  V30 6707 H 610.018 -4.08412 -0.871192 0
M  V30 6708 N 610.455 -0.639598 -1.44038 0
M  V30 6709 C 611.402 0.0602458 -2.30721 0
M  V30 6710 C 612.372 0.828352 -1.43971 0
M  V30 6711 O 613.557 0.807693 -1.72861 0
M  V30 6712 C 610.697 1.03008 -3.29368 0
M  V30 6713 C 609.81 0.259502 -4.3122 0
M  V30 6714 C 608.945 1.22191 -5.16955 0
M  V30 6715 C 607.984 0.440978 -6.10509 0
M  V30 6716 N 607.121 1.35428 -6.88915 0
M  V30 6717 H 611.961 -0.684867 -2.90023 0
M  V30 6718 H 609.498 -0.349509 -1.42888 0
M  V30 6719 H 611.456 1.60583 -3.85057 0
M  V30 6720 H 610.086 1.74222 -2.71747 0
M  V30 6721 H 609.138 -0.432317 -3.77935 0
M  V30 6722 H 610.45 -0.348347 -4.97582 0
M  V30 6723 H 609.604 1.86873 -5.77203 0
M  V30 6724 H 608.343 1.86367 -4.50687 0
M  V30 6725 H 607.348 -0.219279 -5.49363 0
M  V30 6726 H 608.573 -0.196192 -6.78817 0
M  V30 6727 H 606.519 1.9831 -6.25307 0
M  V30 6728 H 606.436 0.800657 -7.51748 0
M  V30 6729 H 607.704 1.98967 -7.53679 0
M  V30 6730 N 611.933 1.52934 -0.380664 0
M  V30 6731 C 612.843 2.29921 0.466192 0
M  V30 6732 C 613.859 1.36488 1.07922 0
M  V30 6733 O 615.035 1.69553 1.0869 0
M  V30 6734 C 612.1 3.08468 1.58266 0
M  V30 6735 C 611.161 4.17595 0.995627 0
M  V30 6736 C 610.394 4.92387 2.05889 0
M  V30 6737 O 610.617 4.67184 3.27254 0
M  V30 6738 O 609.551 5.77949 1.68102 0
M  V30 6739 H 613.377 3.03274 -0.160735 0
M  V30 6740 H 610.962 1.48698 -0.144617 0
M  V30 6741 H 612.844 3.57469 2.23145 0
M  V30 6742 H 611.519 2.37937 2.19471 0
M  V30 6743 H 610.426 3.72811 0.310332 0
M  V30 6744 H 611.759 4.90336 0.427918 0
M  V30 6745 N 613.412 0.11024 1.57214 0
M  V30 6746 C 614.359 -0.843195 2.14846 0
M  V30 6747 C 615.329 -1.26954 1.07107 0
M  V30 6748 O 616.514 -1.34861 1.34971 0
M  V30 6749 C 613.654 -2.09123 2.74521 0
M  V30 6750 C 612.767 -1.71404 3.96541 0
M  V30 6751 C 611.902 -2.91107 4.44331 0
M  V30 6752 C 610.941 -2.49586 5.58903 0
M  V30 6753 N 610.078 -3.62175 6.01477 0
M  V30 6754 H 614.918 -0.344886 2.95998 0
M  V30 6755 H 612.455 -0.15855 1.46243 0
M  V30 6756 H 614.413 -2.82234 3.07246 0
M  V30 6757 H 613.043 -2.56427 1.96074 0
M  V30 6758 H 612.095 -0.88201 3.70033 0
M  V30 6759 H 613.407 -1.36884 4.7965 0
M  V30 6760 H 612.561 -3.72454 4.78919 0
M  V30 6761 H 611.3 -3.28848 3.60153 0
M  V30 6762 H 610.305 -1.6667 5.23929 0
M  V30 6763 H 611.53 -2.12973 6.4484 0
M  V30 6764 H 609.476 -3.99605 5.20242 0
M  V30 6765 H 609.393 -3.3155 6.79419 0
M  V30 6766 H 610.661 -4.43987 6.407 0
M  V30 6767 N 614.89 -1.56749 -0.16351 0
M  V30 6768 C 615.837 -1.97011 -1.2023 0
M  V30 6769 C 616.807 -0.835186 -1.43575 0
M  V30 6770 O 617.992 -1.09594 -1.56185 0
M  V30 6771 C 615.132 -2.34186 -2.53478 0
M  V30 6772 C 614.245 -3.60893 -2.37446 0
M  V30 6773 C 613.38 -3.87245 -3.63614 0
M  V30 6774 C 612.419 -5.07274 -3.42548 0
M  V30 6775 N 611.556 -5.29719 -4.60806 0
M  V30 6776 H 616.396 -2.85562 -0.851958 0
M  V30 6777 H 613.933 -1.41292 -0.409257 0
M  V30 6778 H 615.891 -2.53764 -3.31149 0
M  V30 6779 H 614.521 -1.48736 -2.86492 0
M  V30 6780 H 613.573 -3.49185 -1.50911 0
M  V30 6781 H 614.885 -4.48722 -2.1783 0
M  V30 6782 H 614.039 -4.07232 -4.49719 0
M  V30 6783 H 612.778 -2.97806 -3.86216 0
M  V30 6784 H 611.783 -4.87177 -2.5483 0
M  V30 6785 H 613.008 -5.98251 -3.2136 0
M  V30 6786 H 610.954 -4.43233 -4.83612 0
M  V30 6787 H 610.871 -6.11786 -4.44132 0
M  V30 6788 H 612.139 -5.54192 -5.48171 0
M  V30 6789 N 616.368 0.432326 -1.51554 0
M  V30 6790 C 617.615 1.18134 -1.64471 0
M  V30 6791 C 617.943 1.91076 -0.363349 0
M  V30 6792 O 617.198 1.84492 0.65279 0
M  V30 6793 C 617.497 2.21907 -2.80164 0
M  V30 6794 C 617.163 1.65941 -4.19255 0
M  V30 6795 C 615.825 1.50401 -4.57092 0
M  V30 6796 C 618.177 1.24843 -5.06027 0
M  V30 6797 C 615.505 0.922443 -5.79403 0
M  V30 6798 C 617.857 0.68113 -6.28922 0
M  V30 6799 C 616.521 0.512673 -6.65528 0
M  V30 6800 H 615.791 0.432283 -0.601841 0
M  V30 6801 H 618.438 0.471701 -1.856 0
M  V30 6802 H 616.743 2.98928 -2.53277 0
M  V30 6803 H 618.44 2.79691 -2.87357 0
M  V30 6804 H 615.03 1.79014 -3.89425 0
M  V30 6805 H 619.214 1.35667 -4.77397 0
M  V30 6806 H 614.47 0.779733 -6.06408 0
M  V30 6807 H 618.644 0.35418 -6.95499 0
M  V30 6808 H 616.271 0.0599084 -7.60176 0
M  V30 6809 N 617.846 1.41785 0.688094 0
M  V30 6810 C 618.778 1.40159 1.81351 0
M  V30 6811 C 619.791 0.30262 1.59963 0
M  V30 6812 O 620.98 0.564841 1.69327 0
M  V30 6813 C 618.08 1.16517 3.1824 0
M  V30 6814 C 617.253 2.38597 3.66593 0
M  V30 6815 C 616.312 2.10699 4.82174 0
M  V30 6816 O 615.338 2.83798 4.93404 0
M  V30 6817 N 616.54 1.10187 5.69947 0
M  V30 6818 H 619.305 2.3716 1.83236 0
M  V30 6819 H 616.866 1.36494 0.870697 0
M  V30 6820 H 618.858 0.957941 3.93199 0
M  V30 6821 H 617.428 0.280873 3.11336 0
M  V30 6822 H 616.648 2.74974 2.82459 0
M  V30 6823 H 617.936 3.19919 3.95638 0
M  V30 6824 H 617.334 0.497016 5.63512 0
M  V30 6825 H 615.891 0.954518 6.44773 0
M  V30 6826 N 619.324 -0.923095 1.27737 0
M  V30 6827 C 620.234 -2.05765 1.12685 0
M  V30 6828 C 621.25 -1.73911 0.0557197 0
M  V30 6829 O 622.426 -1.99674 0.263137 0
M  V30 6830 C 619.491 -3.37804 0.780363 0
M  V30 6831 C 618.552 -3.83326 1.93286 0
M  V30 6832 C 617.785 -5.09064 1.60281 0
M  V30 6833 O 618.008 -5.6809 0.512828 0
M  V30 6834 O 616.942 -5.50071 2.44347 0
M  V30 6835 H 620.768 -2.21378 2.07907 0
M  V30 6836 H 618.353 -1.04299 1.06968 0
M  V30 6837 H 620.235 -4.17097 0.600668 0
M  V30 6838 H 618.91 -3.23387 -0.142291 0
M  V30 6839 H 617.817 -3.049 2.16764 0
M  V30 6840 H 619.15 -4.02292 2.83588 0
M  V30 6841 N 620.802 -1.09834 -1.13024 0
M  V30 6842 C 621.765 -0.745058 -2.16752 0
M  V30 6843 C 622.765 0.227435 -1.59183 0
M  V30 6844 O 623.955 0.0050786 -1.74199 0
M  V30 6845 C 621.087 -0.102543 -3.40746 0
M  V30 6846 H 622.28 -1.66375 -2.49518 0
M  V30 6847 H 619.833 -0.898061 -1.27924 0
M  V30 6848 H 620.568 0.827177 -3.13573 0
M  V30 6849 H 620.353 -0.80235 -3.83803 0
M  V30 6850 H 621.843 0.129082 -4.174 0
M  V30 6851 N 622.28 1.30327 -0.886154 0
M  V30 6852 C 623.21 2.30549 -0.370028 0
M  V30 6853 C 624.191 1.61039 0.547751 0
M  V30 6854 O 625.376 1.8864 0.461353 0
M  V30 6855 C 622.506 3.44808 0.415275 0
M  V30 6856 C 621.46 4.26024 -0.41085 0
M  V30 6857 C 620.786 5.32347 0.501128 0
M  V30 6858 C 622.086 4.95433 -1.65359 0
M  V30 6859 H 623.78 2.73969 -1.20754 0
M  V30 6860 H 621.326 1.3171 -0.582097 0
M  V30 6861 H 623.279 4.13986 0.78699 0
M  V30 6862 H 622.003 3.00197 1.28644 0
M  V30 6863 H 620.662 3.58535 -0.764719 0
M  V30 6864 H 620.31 4.83982 1.37004 0
M  V30 6865 H 620.01 5.87581 -0.0478356 0
M  V30 6866 H 621.534 6.0438 0.869333 0
M  V30 6867 H 622.948 5.5712 -1.35239 0
M  V30 6868 H 621.345 5.60537 -2.14284 0
M  V30 6869 H 622.415 4.21493 -2.39733 0
M  V30 6870 N 623.758 0.647228 1.43697 0
M  V30 6871 C 624.668 -0.0487997 2.34549 0
M  V30 6872 C 625.684 -0.818586 1.53542 0
M  V30 6873 O 626.86 -0.767195 1.86215 0
M  V30 6874 C 623.925 -1.00734 3.31743 0
M  V30 6875 C 622.986 -0.23515 4.28655 0
M  V30 6876 C 622.219 -1.14803 5.21206 0
M  V30 6877 O 622.442 -2.38717 5.18045 0
M  V30 6878 O 621.376 -0.623667 5.9866 0
M  V30 6879 H 625.202 0.698863 2.9555 0
M  V30 6880 H 622.787 0.407412 1.43738 0
M  V30 6881 H 624.669 -1.55837 3.91526 0
M  V30 6882 H 623.344 -1.73534 2.73254 0
M  V30 6883 H 622.251 0.359319 3.7237 0
M  V30 6884 H 623.584 0.453152 4.9011 0
M  V30 6885 N 625.236 -1.5273 0.388769 0
M  V30 6886 C 626.169 -2.22861 -0.490752 0
M  V30 6887 C 627.147 -1.22912 -1.06449 0
M  V30 6888 O 628.331 -1.51896 -1.11624 0
M  V30 6889 C 625.458 -2.94141 -1.67925 0
M  V30 6890 C 624.504 -4.08355 -1.23081 0
M  V30 6891 S 625.337 -5.35077 -0.212786 0
M  V30 6892 C 626.493 -6.09879 -1.40708 0
M  V30 6893 H 626.726 -2.97115 0.104787 0
M  V30 6894 H 624.259 -1.53428 0.172956 0
M  V30 6895 H 626.217 -3.35818 -2.36085 0
M  V30 6896 H 624.878 -2.19568 -2.24608 0
M  V30 6897 H 624.071 -4.57328 -2.11818 0
M  V30 6898 H 623.673 -3.68688 -0.628121 0
M  V30 6899 H 625.965 -6.36018 -2.33424 0
M  V30 6900 H 626.908 -7.01586 -0.958271 0
M  V30 6901 H 627.316 -5.40646 -1.62364 0
M  V30 6902 N 626.714 -0.118576 -1.57153 0
M  V30 6903 C 627.644 0.828436 -2.1831 0
M  V30 6904 C 628.625 1.27758 -1.12303 0
M  V30 6905 O 629.81 1.34026 -1.40537 0
M  V30 6906 C 626.94 2.07876 -2.78217 0
M  V30 6907 C 625.894 1.76742 -3.89803 0
M  V30 6908 C 625.22 3.08801 -4.36516 0
M  V30 6909 C 626.52 1.03606 -5.11921 0
M  V30 6910 H 628.214 0.318824 -2.97698 0
M  V30 6911 H 625.76 0.151911 -1.43196 0
M  V30 6912 H 627.713 2.74584 -3.19659 0
M  V30 6913 H 626.437 2.61161 -1.96118 0
M  V30 6914 H 625.096 1.12424 -3.48936 0
M  V30 6915 H 624.744 3.6002 -3.51276 0
M  V30 6916 H 624.444 2.88743 -5.11763 0
M  V30 6917 H 625.968 3.76627 -4.80608 0
M  V30 6918 H 627.382 1.60467 -5.50385 0
M  V30 6919 H 625.779 0.936454 -5.92748 0
M  V30 6920 H 626.849 0.0227421 -4.84895 0
M  V30 6921 N 628.193 1.56834 0.155195 0
M  V30 6922 C 629.609 1.51315 0.50755 0
M  V30 6923 C 629.809 0.825614 1.83809 0
M  V30 6924 O 628.865 0.39271 2.49427 0
M  V30 6925 C 630.178 2.96074 0.52542 0
M  V30 6926 C 631.726 3.06968 0.611505 0
M  V30 6927 C 632.201 4.53218 0.660115 0
M  V30 6928 N 633.692 4.5753 0.722564 0
M  V30 6929 C 634.427 5.68056 0.781023 0
M  V30 6930 N 633.923 6.88173 0.799327 0
M  V30 6931 N 635.716 5.56068 0.821278 0
M  V30 6932 H 627.867 1.9993 -0.717063 0
M  V30 6933 H 630.13 0.911507 -0.260496 0
M  V30 6934 H 629.836 3.49599 -0.383875 0
M  V30 6935 H 629.71 3.51587 1.36624 0
M  V30 6936 H 632.097 2.53468 1.51122 0
M  V30 6937 H 632.178 2.54513 -0.256306 0
M  V30 6938 H 631.822 5.07354 -0.23541 0
M  V30 6939 H 631.752 5.03447 1.5443 0
M  V30 6940 H 634.243 3.71054 0.716049 0
M  V30 6941 H 634.556 7.6816 0.845553 0
M  V30 6942 H 632.901 6.90751 0.767337 0
M  V30 6943 H 636.092 4.61142 0.804091 0
M  V30 6944 H 636.265 6.42223 0.863372 0
M  V30 6945 N 629.671 -0.424282 1.51781 0
M  V30 6946 C 630.618 -1.51591 1.74037 0
M  V30 6947 C 631.588 -1.55556 0.582358 0
M  V30 6948 O 632.773 -1.72364 0.818245 0
M  V30 6949 C 629.913 -2.89188 1.8832 0
M  V30 6950 C 629.026 -2.9465 3.1592 0
M  V30 6951 C 628.161 -4.23452 3.20721 0
M  V30 6952 C 627.2 -4.22831 4.42584 0
M  V30 6953 N 626.337 -5.43178 4.44862 0
M  V30 6954 H 631.177 -1.31917 2.67212 0
M  V30 6955 H 628.714 -0.640599 1.32419 0
M  V30 6956 H 630.672 -3.69044 1.94583 0
M  V30 6957 H 629.302 -3.07392 0.985402 0
M  V30 6958 H 628.354 -2.07378 3.18902 0
M  V30 6959 H 629.666 -2.90055 4.05795 0
M  V30 6960 H 628.82 -5.1169 3.25973 0
M  V30 6961 H 627.559 -4.30722 2.28757 0
M  V30 6962 H 626.564 -3.32984 4.37495 0
M  V30 6963 H 627.789 -4.17213 5.35826 0
M  V30 6964 H 625.735 -5.51145 3.55775 0
M  V30 6965 H 625.652 -5.40515 5.28563 0
M  V30 6966 H 626.92 -6.33412 4.54324 0
M  V30 6967 N 631.149 -1.42148 -0.680565 0
M  V30 6968 C 632.059 -1.47565 -1.82378 0
M  V30 6969 C 633.075 -0.36489 -1.70131 0
M  V30 6970 O 634.251 -0.614916 -1.91783 0
M  V30 6971 C 631.316 -1.37013 -3.18478 0
M  V30 6972 C 630.377 -2.58532 -3.42724 0
M  V30 6973 C 629.61 -2.48473 -4.72331 0
M  V30 6974 O 629.833 -1.51745 -5.49845 0
M  V30 6975 O 628.767 -3.38503 -4.97694 0
M  V30 6976 H 632.593 -2.44045 -1.80764 0
M  V30 6977 H 630.178 -1.23849 -0.835569 0
M  V30 6978 H 632.06 -1.33468 -3.99705 0
M  V30 6979 H 630.735 -0.436552 -3.20743 0
M  V30 6980 H 629.642 -2.67652 -2.61368 0
M  V30 6981 H 630.975 -3.50769 -3.45286 0
M  V30 6982 N 632.627 0.916307 -1.28225 0
M  V30 6983 C 633.559 2.02303 -1.07732 0
M  V30 6984 C 634.572 1.62773 -0.0298421 0
M  V30 6985 O 635.761 1.76406 -0.272626 0
M  V30 6986 C 632.861 3.33282 -0.614504 0
M  V30 6987 C 632.034 4.01439 -1.73682 0
M  V30 6988 C 631.093 5.10698 -1.26781 0
M  V30 6989 O 630.119 5.34038 -1.96958 0
M  V30 6990 N 631.321 5.80355 -0.129624 0
M  V30 6991 H 634.086 2.20442 -2.03041 0
M  V30 6992 H 631.647 1.08744 -1.19943 0
M  V30 6993 H 633.639 4.03699 -0.284397 0
M  V30 6994 H 632.209 3.11633 0.245664 0
M  V30 6995 H 631.429 3.24604 -2.23665 0
M  V30 6996 H 632.717 4.43721 -2.48976 0
M  V30 6997 H 632.115 5.6386 0.455847 0
M  V30 6998 H 630.672 6.51647 0.141224 0
M  V30 6999 N 634.105 1.10431 1.1244 0
M  V30 7000 C 635.015 0.765502 2.21759 0
M  V30 7001 C 636.031 -0.236966 1.72379 0
M  V30 7002 O 637.207 -0.0757329 2.01258 0
M  V30 7003 C 634.272 0.202316 3.46109 0
M  V30 7004 C 633.333 1.26205 4.1033 0
M  V30 7005 C 632.566 0.725648 5.28744 0
M  V30 7006 O 632.789 -0.447942 5.68638 0
M  V30 7007 O 631.723 1.48555 5.83279 0
M  V30 7008 H 635.549 1.67801 2.53133 0
M  V30 7009 H 633.134 0.879443 1.20773 0
M  V30 7010 H 635.016 -0.107918 4.21262 0
M  V30 7011 H 633.691 -0.683052 3.16411 0
M  V30 7012 H 632.598 1.62514 3.36957 0
M  V30 7013 H 633.931 2.12044 4.44183 0
M  V30 7014 N 635.583 -1.29855 0.893053 0
M  V30 7015 C 636.829 -1.96116 0.516349 0
M  V30 7016 C 637.162 -1.70281 -0.933695 0
M  V30 7017 O 636.437 -1.01205 -1.66096 0
M  V30 7018 C 636.72 -3.51068 0.801455 0
M  V30 7019 C 636.573 -3.86387 2.30272 0
M  V30 7020 C 637.892 -4.39186 0.283423 0
M  V30 7021 H 635.011 -0.712335 0.189072 0
M  V30 7022 H 637.653 -1.53587 1.11852 0
M  V30 7023 H 635.803 -3.87424 0.288949 0
M  V30 7024 H 637.475 -3.60012 2.88425 0
M  V30 7025 H 635.718 -3.34167 2.76613 0
M  V30 7026 H 636.389 -4.94512 2.45279 0
M  V30 7027 H 638.865 -4.09785 0.722187 0
M  V30 7028 H 637.741 -5.46505 0.512169 0
M  V30 7029 H 638.002 -4.34511 -0.815643 0
M  V30 7030 N 637.061 -0.65484 -1.43351 0
M  V30 7031 C 637.991 0.0221809 -2.33489 0
M  V30 7032 C 638.972 0.810272 -1.49561 0
M  V30 7033 O 640.157 0.771426 -1.78221 0
M  V30 7034 C 637.287 0.988117 -3.32947 0
M  V30 7035 C 636.241 0.310026 -4.26876 0
M  V30 7036 C 635.567 1.38752 -5.16384 0
M  V30 7037 C 636.867 -0.798589 -5.16159 0
M  V30 7038 H 638.561 -0.730571 -2.9035 0
M  V30 7039 H 636.107 -0.352773 -1.39612 0
M  V30 7040 H 638.06 1.47067 -3.94904 0
M  V30 7041 H 636.784 1.77205 -2.74346 0
M  V30 7042 H 635.443 -0.152097 -3.66284 0
M  V30 7043 H 635.091 2.16293 -4.54121 0
M  V30 7044 H 634.791 0.939051 -5.80048 0
M  V30 7045 H 636.315 1.87141 -5.81215 0
M  V30 7046 H 637.729 -0.398126 -5.71916 0
M  V30 7047 H 636.126 -1.17163 -5.88552 0
M  V30 7048 H 637.196 -1.65588 -4.55751 0
M  V30 7049 N 638.539 1.52521 -0.396863 0
M  V30 7050 C 639.502 2.2527 0.422604 0
M  V30 7051 C 640.502 1.27184 0.983913 0
M  V30 7052 O 641.692 1.51222 0.864723 0
M  V30 7053 C 638.824 3.01356 1.59365 0
M  V30 7054 H 640.017 2.99133 -0.214416 0
M  V30 7055 H 637.57 1.55587 -0.149128 0
M  V30 7056 H 638.305 2.31813 2.26789 0
M  V30 7057 H 638.09 3.73357 1.19779 0
M  V30 7058 H 639.58 3.56571 2.17363 0
M  V30 7059 N 640.017 0.126909 1.57088 0
M  V30 7060 C 640.98 -0.806097 2.14557 0
M  V30 7061 C 641.98 -1.18918 1.08236 0
M  V30 7062 O 643.17 -1.11339 1.33975 0
M  V30 7063 C 640.302 -2.09116 2.69227 0
M  V30 7064 H 641.495 -0.306522 2.98329 0
M  V30 7065 H 639.048 -0.122393 1.5582 0
M  V30 7066 H 639.783 -2.63486 1.89065 0
M  V30 7067 H 639.568 -1.82588 3.46993 0
M  V30 7068 H 641.058 -2.75794 3.13572 0
M  V30 7069 N 641.495 -1.56914 -0.146875 0
M  V30 7070 C 642.425 -2.01308 -1.1831 0
M  V30 7071 C 643.406 -0.892664 -1.44795 0
M  V30 7072 O 644.591 -1.16048 -1.55713 0
M  V30 7073 C 641.721 -2.3938 -2.51624 0
M  V30 7074 C 640.675 -3.54608 -2.3966 0
M  V30 7075 C 640.001 -3.78493 -3.77686 0
M  V30 7076 C 641.301 -4.87269 -1.88058 0
M  V30 7077 H 642.995 -2.88123 -0.813964 0
M  V30 7078 H 640.541 -1.38615 -0.3901 0
M  V30 7079 H 642.494 -2.69037 -3.24341 0
M  V30 7080 H 641.218 -1.49502 -2.90373 0
M  V30 7081 H 639.877 -3.25116 -1.69396 0
M  V30 7082 H 639.525 -2.85866 -4.13871 0
M  V30 7083 H 639.225 -4.56039 -3.70543 0
M  V30 7084 H 640.749 -4.10576 -4.51951 0
M  V30 7085 H 642.163 -5.15644 -2.50568 0
M  V30 7086 H 640.56 -5.68622 -1.91805 0
M  V30 7087 H 641.63 -4.77634 -0.836277 0
M  V30 7088 N 642.974 0.416227 -1.52004 0
M  V30 7089 C 644.222 1.16153 -1.65387 0
M  V30 7090 C 644.543 1.91208 -0.382669 0
M  V30 7091 O 643.813 1.86413 0.602231 0
M  V30 7092 H 642.393 0.431765 -0.60958 0
M  V30 7093 H 645.055 0.475151 -1.89019 0
M  V30 7094 H 644.151 1.87952 -2.4916 0
M  V30 7095 N 644.452 1.42507 0.673017 0
M  V30 7096 C 645.701 1.42364 1.42883 0
M  V30 7097 C 646.014 0.0441598 1.9555 0
M  V30 7098 O 647.22 -0.0798679 2.71382 0
M  V30 7099 C 645.676 2.5043 2.58482 0
M  V30 7100 C 645.284 3.94392 2.12506 0
M  V30 7101 C 647.028 2.59455 3.35981 0
M  V30 7102 C 644.935 4.93964 3.25198 0
M  V30 7103 H 643.865 0.52951 0.536782 0
M  V30 7104 H 646.516 1.68422 0.728448 0
M  V30 7105 H 644.898 2.1754 3.30896 0
M  V30 7106 H 646.072 4.36645 1.47233 0
M  V30 7107 H 644.387 3.89233 1.4794 0
M  V30 7108 H 646.984 3.31025 4.19912 0
M  V30 7109 H 647.327 1.63869 3.82691 0
M  V30 7110 H 647.86 2.91549 2.70637 0
M  V30 7111 H 644.599 5.91034 2.83477 0
M  V30 7112 H 644.119 4.56341 3.89247 0
M  V30 7113 H 645.798 5.15763 3.90637 0
M  V30 7114 N 645.93 -0.909495 1.28709 0
M  V30 7115 C 647.207 -1.63865 1.06806 0
M  V30 7116 C 647.587 -2.07445 -0.391143 0
M  V30 7117 O 646.935 -1.82269 -1.37805 0
M  V30 7118 C 647.145 -2.82692 2.04661 0
M  V30 7119 C 648.493 -3.5361 2.35042 0
M  V30 7120 O 649.517 -2.92847 2.02779 0
M  V30 7121 O 648.376 -4.63131 2.90124 0
M  V30 7122 H 645.47 -0.719065 0.408502 0
M  V30 7123 H 648.016 -0.958424 1.40044 0
M  V30 7124 H 646.788 -2.47614 3.0299 0
M  V30 7125 H 646.411 -3.58426 1.72095 0
M  V30 7126 N 647.408 -1.11026 -1.11852 0
M  V30 7127 C 648.636 -0.878818 -1.87308 0
M  V30 7128 C 649.051 0.57111 -1.79955 0
M  V30 7129 O 648.408 1.39409 -1.17777 0
M  V30 7130 C 648.459 -1.3264 -3.36287 0
M  V30 7131 O 648.18 -2.71948 -3.43476 0
M  V30 7132 C 649.681 -1.12974 -4.28663 0
M  V30 7133 H 646.901 -0.315015 -0.592458 0
M  V30 7134 H 649.445 -1.47649 -1.41492 0
M  V30 7135 H 647.6 -0.772269 -3.79625 0
M  V30 7136 H 648.014 -2.91241 -4.3621 0
M  V30 7137 H 649.488 -1.49198 -5.31454 0
M  V30 7138 H 649.965 -0.0689127 -4.39146 0
M  V30 7139 H 650.571 -1.67064 -3.91113 0
M  V30 7140 N 648.886 1.2938 -0.899927 0
M  V30 7141 C 650.114 1.99691 -0.541386 0
M  V30 7142 C 650.529 1.67355 0.873936 0
M  V30 7143 O 649.886 0.918728 1.57688 0
M  V30 7144 C 649.937 3.54168 -0.72438 0
M  V30 7145 O 649.658 3.85359 -2.08399 0
M  V30 7146 C 651.159 4.41746 -0.370819 0
M  V30 7147 H 648.379 0.638037 -0.207726 0
M  V30 7148 H 650.923 1.6491 -1.20934 0
M  V30 7149 H 649.078 3.87261 -0.103607 0
M  V30 7150 H 649.492 4.80032 -2.11352 0
M  V30 7151 H 650.966 5.49256 -0.549693 0
M  V30 7152 H 651.443 4.33712 0.692148 0
M  V30 7153 H 652.049 4.14125 -0.968543 0
M  V30 7154 N 650.364 0.662433 1.43002 0
M  V30 7155 C 651.589 0.186003 2.06564 0
M  V30 7156 C 652.014 -1.14314 1.49379 0
M  V30 7157 O 651.372 -1.70824 0.607346 0
M  V30 7158 C 651.42 0.118269 3.60406 0
M  V30 7159 O 650.524 -0.916859 4.02079 0
M  V30 7160 H 649.865 0.0990981 0.656563 0
M  V30 7161 H 652.395 0.907958 1.8335 0
M  V30 7162 H 652.405 -0.0619981 4.07953 0
M  V30 7163 H 651.08 1.08849 4.01403 0
M  V30 7164 H 649.657 -0.708635 3.66105 0
M  V30 7165 N 651.842 -1.52309 0.404946 0
M  V30 7166 C 652.772 -2.29805 -0.41376 0
M  V30 7167 C 653.753 -1.3384 -1.0498 0
M  V30 7168 O 654.938 -1.62745 -1.05961 0
M  V30 7169 C 652.068 -3.11639 -1.53292 0
M  V30 7170 C 651.022 -4.15616 -1.02211 0
M  V30 7171 C 650.348 -4.8577 -2.23455 0
M  V30 7172 C 651.648 -5.2224 -0.0790725 0
M  V30 7173 H 653.342 -2.98493 0.232878 0
M  V30 7174 H 650.888 -1.43552 0.113441 0
M  V30 7175 H 652.841 -3.64618 -2.11262 0
M  V30 7176 H 651.565 -2.40712 -2.20738 0
M  V30 7177 H 650.224 -3.63641 -0.46484 0
M  V30 7178 H 649.872 -4.11376 -2.89445 0
M  V30 7179 H 649.572 -5.56058 -1.89929 0
M  V30 7180 H 651.096 -5.4156 -2.82038 0
M  V30 7181 H 652.51 -5.70485 -0.567438 0
M  V30 7182 H 650.907 -5.99867 0.167167 0
M  V30 7183 H 651.977 -4.77078 0.867447 0
M  V30 7184 N 653.32 -0.135238 -1.57019 0
M  V30 7185 C 654.27 0.820408 -2.12728 0
M  V30 7186 C 655.254 1.21735 -1.05211 0
M  V30 7187 O 656.446 1.18574 -1.31413 0
M  V30 7188 C 653.575 2.06414 -2.74314 0
M  V30 7189 C 652.661 1.69083 -3.88937 0
M  V30 7190 N 653.052 1.0251 -4.95303 0
M  V30 7191 C 651.35 1.98434 -3.99425 0
M  V30 7192 C 652.051 0.846749 -5.75504 0
M  V30 7193 N 651.027 1.3769 -5.25873 0
M  V30 7194 H 654.829 0.302426 -2.9234 0
M  V30 7195 H 652.343 0.0667009 -1.62263 0
M  V30 7196 H 654.34 2.75863 -3.12579 0
M  V30 7197 H 653 2.58741 -1.96171 0
M  V30 7198 H 654.011 0.687207 -5.1332 0
M  V30 7199 H 650.688 2.52693 -3.32344 0
M  V30 7200 H 652.078 0.322949 -6.71123 0
M  V30 7201 N 654.798 1.5699 0.138552 0
M  V30 7202 C 656.023 1.88344 0.86841 0
M  V30 7203 C 656.448 0.725159 1.7356 0
M  V30 7204 O 655.806 -0.324992 1.78363 0
M  V30 7205 C 655.854 3.18334 1.69398 0
M  V30 7206 O 654.958 3.02863 2.79907 0
M  V30 7207 H 654.299 0.618577 0.241367 0
M  V30 7208 H 656.829 2.04207 0.126826 0
M  V30 7209 H 656.839 3.50567 2.08726 0
M  V30 7210 H 655.514 4.02238 1.05725 0
M  V30 7211 H 654.091 2.82056 2.43924 0
M  V30 7212 N 656.276 -0.40816 1.52223 0
M  V30 7213 C 657.226 -1.49648 1.72016 0
M  V30 7214 C 658.21 -1.50311 0.574069 0
M  V30 7215 O 659.402 -1.56271 0.831173 0
M  V30 7216 C 656.531 -2.87566 1.87512 0
M  V30 7217 C 655.617 -2.91547 3.07995 0
M  V30 7218 N 656.008 -2.65225 4.30685 0
M  V30 7219 C 654.306 -3.22715 3.07849 0
M  V30 7220 C 655.007 -2.75799 5.12162 0
M  V30 7221 N 653.983 -3.08719 4.4743 0
M  V30 7222 H 657.785 -1.28093 2.64517 0
M  V30 7223 H 655.299 -0.61588 1.50269 0
M  V30 7224 H 657.296 -3.65899 1.99809 0
M  V30 7225 H 655.956 -3.10118 0.962114 0
M  V30 7226 H 656.967 -2.39601 4.59142 0
M  V30 7227 H 653.644 -3.50856 2.26289 0
M  V30 7228 H 655.034 -2.59155 6.1991 0
M  V30 7229 N 657.755 -1.42862 -0.66545 0
M  V30 7230 C 658.703 -1.47319 -1.8 0
M  V30 7231 C 659.697 -0.347963 -1.65788 0
M  V30 7232 O 660.903 -0.521406 -1.72283 0
M  V30 7233 H 657.278 -0.461588 -0.593667 0
M  V30 7234 H 659.249 -2.42876 -1.7336 0
M  V30 7235 C 657.998 -1.40152 -3.18203 0
M  V30 7236 H 657.321 -2.26035 -3.2977 0
M  V30 7237 H 658.761 -1.47331 -3.9758 0
M  V30 7238 C 657.22 -0.117493 -3.36695 0
M  V30 7239 O 657.75 0.826058 -3.93115 0
M  V30 7240 N 655.956 -0.0316218 -2.90583 0
M  V30 7241 H 655.503 -0.800247 -2.44855 0
M  V30 7242 H 655.461 0.826835 -3.03333 0
M  V30 7243 N 659.233 0.902656 -1.29189 0
M  V30 7244 C 660.481 1.6496 -1.16758 0
M  V30 7245 C 660.802 1.92952 0.28188 0
M  V30 7246 O 660.072 1.55351 1.19344 0
M  V30 7247 H 658.652 0.611447 -0.429118 0
M  V30 7248 H 661.314 1.0825 -1.62074 0
M  V30 7249 H 660.41 2.60728 -1.71544 0
M  V30 7250 N 660.711 1.11618 1.11262 0
M  V30 7251 C 661.936 0.889013 1.8738 0
M  V30 7252 C 662.361 -0.555884 1.79698 0
M  V30 7253 O 661.719 -1.39272 1.16073 0
M  V30 7254 C 661.767 1.35759 3.34069 0
M  V30 7255 O 660.871 0.530499 4.08974 0
M  V30 7256 H 660.212 0.320082 0.581759 0
M  V30 7257 H 662.742 1.48611 1.40627 0
M  V30 7258 H 662.752 1.35291 3.84916 0
M  V30 7259 H 661.427 2.40973 3.38976 0
M  V30 7260 H 660.004 0.601439 3.68018 0
M  V30 7261 N 662.189 -1.289 0.906776 0
M  V30 7262 C 663.6 -1.77336 0.58384 0
M  V30 7263 C 663.951 -1.74304 -0.900697 0
M  V30 7264 O 663.076 -1.33335 -1.70443 0
M  V30 7265 C 663.671 -3.22019 1.05304 0
M  V30 7266 C 662.23 -3.68205 0.781148 0
M  V30 7267 C 661.377 -2.48837 1.22373 0
M  V30 7268 H 664.328 -1.15462 1.08877 0
M  V30 7269 H 664.349 -3.78481 0.391414 0
M  V30 7270 H 663.861 -3.24194 2.13353 0
M  V30 7271 H 661.962 -3.71497 -0.28643 0
M  V30 7272 H 662.075 -4.58675 1.384 0
M  V30 7273 H 660.439 -2.46461 0.642594 0
M  V30 7274 H 661.222 -2.53736 2.31242 0
M  V30 7275 N 663.667 -0.670007 -1.42649 0
M  V30 7276 C 664.597 -0.00258501 -2.335 0
M  V30 7277 C 665.578 0.794364 -1.50412 0
M  V30 7278 O 666.763 0.75248 -1.79029 0
M  V30 7279 C 663.893 0.952748 -3.33976 0
M  V30 7280 C 662.847 0.264733 -4.2718 0
M  V30 7281 C 662.173 1.33267 -5.17826 0
M  V30 7282 C 663.473 -0.853289 -5.15283 0
M  V30 7283 H 665.167 -0.761326 -2.89559 0
M  V30 7284 H 662.713 -0.367561 -1.3923 0
M  V30 7285 H 664.666 1.4287 -3.96442 0
M  V30 7286 H 663.39 1.74285 -2.7621 0
M  V30 7287 H 662.049 -0.190938 -3.66102 0
M  V30 7288 H 661.697 2.11464 -4.5639 0
M  V30 7289 H 661.397 0.877476 -5.81011 0
M  V30 7290 H 662.921 1.80965 -5.83167 0
M  V30 7291 H 664.335 -0.458763 -5.71462 0
M  V30 7292 H 662.732 -1.23398 -5.87276 0
M  V30 7293 H 663.802 -1.70412 -4.53969 0
M  V30 7294 N 665.145 1.52092 -0.413018 0
M  V30 7295 C 666.373 2.06274 0.160881 0
M  V30 7296 C 666.788 1.28273 1.38533 0
M  V30 7297 O 666.145 0.33563 1.79387 0
M  V30 7298 C 666.196 3.57921 0.507443 0
M  V30 7299 O 665.917 4.32971 -0.668388 0
M  V30 7300 C 667.418 4.28533 1.13465 0
M  V30 7301 H 664.638 0.67074 0.0186759 0
M  V30 7302 H 667.182 1.95951 -0.585092 0
M  V30 7303 H 665.337 3.68238 1.20331 0
M  V30 7304 H 665.751 5.23135 -0.378169 0
M  V30 7305 H 667.225 5.35804 1.32732 0
M  V30 7306 H 667.702 3.85258 2.10886 0
M  V30 7307 H 668.308 4.22595 0.478876 0
M  V30 7308 N 666.623 0.143563 1.56945 0
M  V30 7309 C 667.848 -0.518701 2.00809 0
M  V30 7310 C 668.273 -1.5785 1.02298 0
M  V30 7311 O 667.631 -1.813 -0.0017839 0
M  V30 7312 C 667.679 -1.09929 3.43436 0
M  V30 7313 O 666.783 -2.21425 3.47915 0
M  V30 7314 H 666.124 -0.127215 0.6517 0
M  V30 7315 H 668.654 0.239283 2.03196 0
M  V30 7316 H 668.664 -1.4288 3.82164 0
M  V30 7317 H 667.339 -0.323162 4.14643 0
M  V30 7318 H 665.916 -1.89728 3.21026 0
M  V30 7319 N 668.101 -1.57061 -0.130224 0
M  V30 7320 C 669.048 -1.99517 -1.16024 0
M  V30 7321 C 670.018 -0.865452 -1.41771 0
M  V30 7322 O 671.203 -1.12882 -1.53826 0
M  V30 7323 C 668.343 -2.3951 -2.48453 0
M  V30 7324 C 667.456 -3.65848 -2.29737 0
M  V30 7325 C 666.591 -3.9487 -3.55318 0
M  V30 7326 C 665.63 -5.14426 -3.31711 0
M  V30 7327 N 664.767 -5.39375 -4.49466 0
M  V30 7328 H 669.607 -2.87305 -0.791194 0
M  V30 7329 H 667.144 -1.42129 -0.379195 0
M  V30 7330 H 669.102 -2.60731 -3.25692 0
M  V30 7331 H 667.732 -1.54779 -2.83272 0
M  V30 7332 H 666.784 -3.52307 -1.4347 0
M  V30 7333 H 668.096 -4.53241 -2.08263 0
M  V30 7334 H 667.25 -4.16679 -4.4098 0
M  V30 7335 H 665.989 -3.05931 -3.79813 0
M  V30 7336 H 664.994 -4.92473 -2.44439 0
M  V30 7337 H 666.219 -6.04933 -3.08598 0
M  V30 7338 H 664.165 -4.53391 -4.74102 0
M  V30 7339 H 664.082 -6.21069 -4.31055 0
M  V30 7340 H 665.35 -5.65694 -5.36293 0
M  V30 7341 N 669.579 0.400081 -1.52437 0
M  V30 7342 C 670.527 1.50851 -1.7705 0
M  V30 7343 C 671.521 1.56928 -0.637969 0
M  V30 7344 O 672.727 1.60226 -0.820212 0
M  V30 7345 H 669.102 0.50186 -0.560036 0
M  V30 7346 H 671.073 1.27281 -2.69893 0
M  V30 7347 C 669.822 2.88117 -1.94638 0
M  V30 7348 H 669.145 2.84187 -2.81208 0
M  V30 7349 H 670.585 3.64942 -2.15855 0
M  V30 7350 C 669.044 3.29206 -0.715899 0
M  V30 7351 O 669.574 4.01544 0.111944 0
M  V30 7352 N 667.78 2.85363 -0.549191 0
M  V30 7353 H 667.327 2.26664 -1.22397 0
M  V30 7354 H 667.285 3.13214 0.27278 0
M  V30 7355 N 671.057 1.43213 0.657864 0
M  V30 7356 C 672.02 1.47687 1.75275 0
M  V30 7357 C 673.02 0.362179 1.56668 0
M  V30 7358 O 674.21 0.623734 1.62651 0
M  V30 7359 C 671.342 1.32497 3.14098 0
M  V30 7360 H 672.535 2.4519 1.7269 0
M  V30 7361 H 670.088 1.2991 0.869087 0
M  V30 7362 H 670.823 0.359831 3.22298 0
M  V30 7363 H 670.608 2.13299 3.29008 0
M  V30 7364 H 672.098 1.38549 3.93946 0
M  V30 7365 N 672.536 -0.895792 1.29666 0
M  V30 7366 C 673.761 -1.68528 1.20885 0
M  V30 7367 C 674.186 -1.8673 -0.226595 0
M  V30 7368 O 673.544 -1.39044 -1.16347 0
M  V30 7369 C 673.592 -3.04512 1.93144 0
M  V30 7370 O 672.696 -3.92963 1.25115 0
M  V30 7371 H 672.037 -0.515371 0.418675 0
M  V30 7372 H 674.567 -1.11878 1.71302 0
M  V30 7373 H 674.577 -3.54628 2.0175 0
M  V30 7374 H 673.252 -2.90582 2.97548 0
M  V30 7375 H 671.829 -3.51399 1.24794 0
M  V30 7376 N 674.014 -1.12206 -1.10668 0
M  V30 7377 C 674.924 -0.800686 -2.20513 0
M  V30 7378 C 675.94 0.209512 -1.72734 0
M  V30 7379 O 677.116 0.043705 -2.01353 0
M  V30 7380 C 674.181 -0.257353 -3.45744 0
M  V30 7381 C 673.242 -1.32718 -4.0827 0
M  V30 7382 C 672.475 -0.809674 -5.27522 0
M  V30 7383 O 672.698 0.35742 -5.69279 0
M  V30 7384 O 671.632 -1.57816 -5.80842 0
M  V30 7385 H 675.458 -1.71807 -2.50432 0
M  V30 7386 H 673.043 -0.898546 -1.19359 0
M  V30 7387 H 674.925 0.0408849 -4.2138 0
M  V30 7388 H 673.6 0.632627 -3.17458 0
M  V30 7389 H 672.507 -1.67855 -3.34329 0
M  V30 7390 H 673.84 -2.19083 -4.40753 0
M  V30 7391 N 675.492 1.28418 -0.913599 0
M  V30 7392 C 676.908 1.47411 -0.611728 0
M  V30 7393 C 677.108 1.83018 0.843008 0
M  V30 7394 O 676.164 1.93505 1.6221 0
M  V30 7395 C 677.477 2.57703 -1.5495 0
M  V30 7396 C 679.025 2.71572 -1.5562 0
M  V30 7397 C 679.5 3.85008 -2.48058 0
M  V30 7398 N 680.991 3.92361 -2.46184 0
M  V30 7399 C 681.726 4.79516 -3.14407 0
M  V30 7400 N 681.222 5.71262 -3.91958 0
M  V30 7401 N 683.015 4.73125 -3.03495 0
M  V30 7402 H 675.166 1.03585 -1.85429 0
M  V30 7403 H 677.429 0.515907 -0.795326 0
M  V30 7404 H 677.135 2.38298 -2.58663 0
M  V30 7405 H 677.009 3.54801 -1.28048 0
M  V30 7406 H 679.396 2.90366 -0.526441 0
M  V30 7407 H 679.477 1.75006 -1.86565 0
M  V30 7408 H 679.121 3.66969 -3.51136 0
M  V30 7409 H 679.051 4.80971 -2.14416 0
M  V30 7410 H 681.542 3.26749 -1.89851 0
M  V30 7411 H 681.855 6.34593 -4.41034 0
M  V30 7412 H 680.2 5.71103 -3.96063 0
M  V30 7413 H 683.391 4.00442 -2.42413 0
M  V30 7414 H 683.564 5.40834 -3.56935 0
M  V30 7415 N 676.97 0.677563 1.42291 0
M  V30 7416 C 678.386 0.347376 1.55774 0
M  V30 7417 C 678.586 -1.14703 1.65667 0
M  V30 7418 O 677.642 -1.93252 1.62512 0
M  V30 7419 C 678.955 1.08011 2.80631 0
M  V30 7420 C 680.503 1.06271 2.94407 0
M  V30 7421 C 680.978 1.77683 4.22129 0
M  V30 7422 N 682.469 1.74564 4.29047 0
M  V30 7423 C 683.204 2.26673 5.26694 0
M  V30 7424 N 682.7 2.87176 6.30477 0
M  V30 7425 N 684.493 2.17032 5.18511 0
M  V30 7426 H 676.644 1.64703 1.34114 0
M  V30 7427 H 678.907 0.694038 0.645768 0
M  V30 7428 H 678.613 2.13518 2.79469 0
M  V30 7429 H 678.487 0.647115 3.71608 0
M  V30 7430 H 680.874 0.0159658 2.95096 0
M  V30 7431 H 680.955 1.53461 2.04654 0
M  V30 7432 H 680.599 2.82327 4.22201 0
M  V30 7433 H 680.529 1.2794 5.10822 0
M  V30 7434 H 683.02 1.30436 3.54676 0
M  V30 7435 H 683.333 3.24551 7.01346 0
M  V30 7436 H 681.678 2.91247 6.31031 0
M  V30 7437 H 684.869 1.69451 4.36353 0
M  V30 7438 H 685.042 2.57948 5.94446 0
M  V30 7439 N 678.448 -1.51871 0.421078 0
M  V30 7440 C 679.398 -2.24171 -0.416111 0
M  V30 7441 C 680.382 -1.25763 -1.00362 0
M  V30 7442 O 681.574 -1.5094 -0.924452 0
M  V30 7443 C 678.703 -3.07533 -1.52571 0
M  V30 7444 C 677.789 -4.1336 -0.948399 0
M  V30 7445 N 678.18 -5.05704 -0.0987933 0
M  V30 7446 C 676.478 -4.29055 -1.21768 0
M  V30 7447 C 677.179 -5.8127 0.223705 0
M  V30 7448 N 676.155 -5.4221 -0.388524 0
M  V30 7449 H 679.957 -2.92925 0.239166 0
M  V30 7450 H 677.471 -1.60732 0.232191 0
M  V30 7451 H 679.468 -3.57893 -2.13819 0
M  V30 7452 H 678.128 -2.4032 -2.18349 0
M  V30 7453 H 679.139 -5.17214 0.266428 0
M  V30 7454 H 675.816 -3.73071 -1.87416 0
M  V30 7455 H 677.206 -6.65653 0.914076 0
M  V30 7456 N 679.926 -0.151884 -1.56866 0
M  V30 7457 C 681.342 0.204486 -1.58285 0
M  V30 7458 C 681.542 1.6431 -1.16639 0
M  V30 7459 O 680.598 2.37077 -0.868946 0
M  V30 7460 C 681.911 -0.0587019 -3.00643 0
M  V30 7461 C 683.459 0.00462303 -3.13 0
M  V30 7462 C 683.934 -0.231297 -4.57416 0
M  V30 7463 N 685.425 -0.178394 -4.62856 0
M  V30 7464 C 686.16 -0.335379 -5.72418 0
M  V30 7465 N 685.656 -0.550355 -6.90611 0
M  V30 7466 N 687.449 -0.272641 -5.61438 0
M  V30 7467 H 679.6 -1.09116 -1.82229 0
M  V30 7468 H 681.863 -0.432311 -0.843689 0
M  V30 7469 H 681.569 -1.05453 -3.35518 0
M  V30 7470 H 681.443 0.658508 -3.71407 0
M  V30 7471 H 683.83 0.991009 -2.77962 0
M  V30 7472 H 683.911 -0.744992 -2.44711 0
M  V30 7473 H 683.555 -1.2148 -4.93158 0
M  V30 7474 H 683.485 0.5387 -5.23837 0
M  V30 7475 H 685.976 -0.0170923 -3.77896 0
M  V30 7476 H 686.289 -0.660116 -7.69976 0
M  V30 7477 H 684.634 -0.586736 -6.92519 0
M  V30 7478 H 687.825 -0.105421 -4.67981 0
M  V30 7479 H 687.998 -0.398418 -6.46774 0
M  V30 7480 N 681.404 1.57128 0.121893 0
M  V30 7481 C 682.653 1.83888 0.828748 0
M  V30 7482 C 682.966 0.737087 1.81181 0
M  V30 7483 O 684.172 0.891007 2.56463 0
M  V30 7484 C 682.628 3.26014 1.52455 0
M  V30 7485 C 682.236 4.44195 0.58263 0
M  V30 7486 C 683.98 3.62025 2.21671 0
M  V30 7487 C 681.887 5.77349 1.28149 0
M  V30 7488 H 680.817 0.685856 0.313238 0
M  V30 7489 H 683.468 1.83319 0.0814851 0
M  V30 7490 H 681.85 3.21044 2.31834 0
M  V30 7491 H 683.024 4.60457 -0.177729 0
M  V30 7492 H 681.339 4.164 -0.00241228 0
M  V30 7493 H 683.936 4.58776 2.74643 0
M  V30 7494 H 684.279 2.89315 2.99337 0
M  V30 7495 H 684.812 3.68767 1.49184 0
M  V30 7496 H 681.551 6.53221 0.546189 0
M  V30 7497 H 681.071 5.64978 2.01394 0
M  V30 7498 H 682.75 6.21006 1.81549 0
M  V30 7499 N 682.882 -0.391992 1.52647 0
M  V30 7500 C 683.829 -1.47866 1.77213 0
M  V30 7501 C 684.799 -1.54286 0.615223 0
M  V30 7502 O 685.984 -1.7059 0.854622 0
M  V30 7503 C 683.124 -2.85129 1.94411 0
M  V30 7504 C 682.237 -2.87883 3.22098 0
M  V30 7505 C 681.372 -4.16553 3.29631 0
M  V30 7506 C 680.411 -4.13348 4.51453 0
M  V30 7507 N 679.548 -5.33619 4.56284 0
M  V30 7508 H 684.388 -1.26219 2.6995 0
M  V30 7509 H 681.925 -0.612367 1.33748 0
M  V30 7510 H 683.883 -3.64833 2.02367 0
M  V30 7511 H 682.513 -3.05232 1.05038 0
M  V30 7512 H 681.565 -2.00567 3.23229 0
M  V30 7513 H 682.877 -2.81382 4.11856 0
M  V30 7514 H 682.031 -5.0466 3.36753 0
M  V30 7515 H 680.77 -4.25773 2.37842 0
M  V30 7516 H 679.775 -3.23629 4.44459 0
M  V30 7517 H 681 -4.05754 5.44555 0
M  V30 7518 H 678.946 -5.43474 3.67385 0
M  V30 7519 H 678.863 -5.29182 5.3991 0
M  V30 7520 H 680.131 -6.23632 4.67657 0
M  V30 7521 N 684.36 -1.4356 -0.65026 0
M  V30 7522 C 685.771 -1.40324 -1.2315 0
M  V30 7523 C 686.122 -0.108812 -1.95898 0
M  V30 7524 O 685.247 0.79163 -2.01401 0
M  V30 7525 C 685.842 -2.54195 -2.23987 0
M  V30 7526 C 684.401 -2.54215 -2.77582 0
M  V30 7527 C 683.548 -2.31752 -1.5227 0
M  V30 7528 H 686.499 -1.52418 -0.442095 0
M  V30 7529 H 686.52 -2.25854 -3.0622 0
M  V30 7530 H 686.032 -3.48392 -1.71011 0
M  V30 7531 H 684.133 -1.63907 -3.34612 0
M  V30 7532 H 684.246 -3.52081 -3.24925 0
M  V30 7533 H 682.61 -1.80476 -1.79723 0
M  V30 7534 H 683.393 -3.28037 -1.01225 0
M  V30 7535 N 685.838 0.888903 -1.30139 0
M  V30 7536 C 687.254 1.17153 -1.08385 0
M  V30 7537 C 687.454 2.0088 0.157925 0
M  V30 7538 O 686.51 2.37668 0.852652 0
M  V30 7539 C 687.823 1.882 -2.34523 0
M  V30 7540 C 689.371 2.00981 -2.39949 0
M  V30 7541 C 689.846 2.75441 -3.65918 0
M  V30 7542 N 691.337 2.82989 -3.66704 0
M  V30 7543 C 692.072 3.41167 -4.60861 0
M  V30 7544 N 691.568 4.00425 -5.6536 0
M  V30 7545 N 693.361 3.38944 -4.48412 0
M  V30 7546 H 685.512 0.33053 -2.09812 0
M  V30 7547 H 687.775 0.208964 -0.924683 0
M  V30 7548 H 687.481 1.34119 -3.25123 0
M  V30 7549 H 687.355 2.88609 -2.42868 0
M  V30 7550 H 689.742 2.54234 -1.4983 0
M  V30 7551 H 689.823 0.996725 -2.35582 0
M  V30 7552 H 689.467 2.22861 -4.56394 0
M  V30 7553 H 689.397 3.77118 -3.67546 0
M  V30 7554 H 691.888 2.40912 -2.91153 0
M  V30 7555 H 692.201 4.42871 -6.33313 0
M  V30 7556 H 690.546 3.98856 -5.69157 0
M  V30 7557 H 693.737 2.91875 -3.6596 0
M  V30 7558 H 693.91 3.83989 -5.21974 0
M  V30 7559 N 687.317 1.12792 1.10072 0
M  V30 7560 C 688.563 0.886857 1.82381 0
M  V30 7561 C 688.896 -0.58576 1.85155 0
M  V30 7562 O 688.171 -1.43317 1.31493 0
M  V30 7563 C 688.454 1.46703 3.28862 0
M  V30 7564 C 688.307 3.00829 3.34398 0
M  V30 7565 C 689.626 1.12971 4.25353 0
M  V30 7566 H 686.745 0.32362 0.662148 0
M  V30 7567 H 689.387 1.39513 1.28982 0
M  V30 7568 H 687.537 1.03476 3.74466 0
M  V30 7569 H 689.209 3.52764 2.97247 0
M  V30 7570 H 687.452 3.36164 2.74183 0
M  V30 7571 H 688.123 3.36519 4.3756 0
M  V30 7572 H 690.599 1.50313 3.88001 0
M  V30 7573 H 689.475 1.56223 5.26199 0
M  V30 7574 H 689.736 0.0424452 4.4208 0
M  V30 7575 N 688.795 -1.27931 0.920396 0
M  V30 7576 C 690.02 -1.99343 0.572478 0
M  V30 7577 C 690.445 -1.68267 -0.840696 0
M  V30 7578 O 689.803 -0.918805 -1.56294 0
M  V30 7579 C 689.851 -3.51698 0.796284 0
M  V30 7580 O 688.955 -4.12157 -0.141602 0
M  V30 7581 H 688.296 -0.626065 0.221221 0
M  V30 7582 H 690.826 -1.62921 1.23765 0
M  V30 7583 H 690.836 -4.01793 0.708984 0
M  V30 7584 H 689.511 -3.73649 1.82644 0
M  V30 7585 H 688.088 -3.729 -0.005007 0
M  V30 7586 N 690.273 -0.685099 -1.4193 0
M  V30 7587 C 691.183 -0.013404 -2.34596 0
M  V30 7588 C 692.199 0.777589 -1.55658 0
M  V30 7589 O 693.375 0.717553 -1.88184 0
M  V30 7590 C 690.44 0.919031 -3.34297 0
M  V30 7591 C 689.501 0.121417 -4.29128 0
M  V30 7592 C 688.734 1.00944 -5.24067 0
M  V30 7593 O 688.957 2.24898 -5.24192 0
M  V30 7594 O 687.891 0.464724 -6.00103 0
M  V30 7595 H 691.717 -0.776978 -2.93593 0
M  V30 7596 H 689.302 -0.445379 -1.42607 0
M  V30 7597 H 691.184 1.45402 -3.9552 0
M  V30 7598 H 689.859 1.66228 -2.77759 0
M  V30 7599 H 688.766 -0.45792 -3.71287 0
M  V30 7600 H 690.099 -0.582937 -4.88736 0
M  V30 7601 N 691.751 1.51645 -0.429126 0
M  V30 7602 C 692.999 2.01616 0.139802 0
M  V30 7603 C 693.32 1.31568 1.43927 0
M  V30 7604 O 692.59 0.447688 1.90716 0
M  V30 7605 H 691.17 0.744998 0.054654 0
M  V30 7606 H 693.832 1.8638 -0.569952 0
M  V30 7607 H 692.928 3.10439 0.321609 0
M  V30 7608 N 693.229 0.160201 1.56784 0
M  V30 7609 C 694.454 -0.497373 2.01348 0
M  V30 7610 C 694.879 -1.56757 1.03966 0
M  V30 7611 O 694.237 -1.81292 0.0174455 0
M  V30 7612 C 694.285 -1.0628 3.44582 0
M  V30 7613 O 693.389 -2.17723 3.50244 0
M  V30 7614 H 692.73 -0.120295 0.653012 0
M  V30 7615 H 695.26 0.260821 2.02931 0
M  V30 7616 H 695.27 -1.38819 3.83658 0
M  V30 7617 H 693.945 -0.279166 4.14962 0
M  V30 7618 H 692.522 -1.86313 3.2302 0
M  V30 7619 N 694.707 -1.5719 -0.113559 0
M  V30 7620 C 695.935 -1.89328 -0.834422 0
M  V30 7621 C 696.35 -0.752018 -1.73177 0
M  V30 7622 O 695.707 0.276912 -1.80387 0
M  V30 7623 C 695.758 -3.20962 -1.66329 0
M  V30 7624 O 695.479 -4.30695 -0.802069 0
M  V30 7625 C 696.98 -3.6684 -2.48884 0
M  V30 7626 H 694.2 -0.626769 -0.239587 0
M  V30 7627 H 696.744 -2.04273 -0.0963195 0
M  V30 7628 H 694.899 -3.0767 -2.35409 0
M  V30 7629 H 695.313 -5.06175 -1.37431 0
M  V30 7630 H 696.787 -4.61692 -3.02563 0
M  V30 7631 H 697.264 -2.93765 -3.26495 0
M  V30 7632 H 697.87 -3.82938 -1.85036 0
M  V30 7633 N 696.185 0.383891 -1.52853 0
M  V30 7634 C 697.095 1.49343 -1.80925 0
M  V30 7635 C 698.111 1.59458 -0.696348 0
M  V30 7636 O 699.287 1.75698 -0.984481 0
M  V30 7637 C 696.352 2.84819 -1.97684 0
M  V30 7638 C 695.413 2.84382 -3.21598 0
M  V30 7639 C 694.646 4.13397 -3.37548 0
M  V30 7640 O 694.869 5.08619 -2.58192 0
M  V30 7641 O 693.803 4.20325 -4.30826 0
M  V30 7642 H 697.629 1.2855 -2.75152 0
M  V30 7643 H 695.214 0.572229 -1.38007 0
M  V30 7644 H 697.096 3.65125 -2.10385 0
M  V30 7645 H 695.771 3.05627 -1.06647 0
M  V30 7646 H 694.678 2.0284 -3.14336 0
M  V30 7647 H 696.011 2.68526 -4.12498 0
M  V30 7648 N 697.663 1.43903 0.642637 0
M  V30 7649 C 698.94 1.36556 1.40043 0
M  V30 7650 C 699.32 0.0185588 2.11092 0
M  V30 7651 O 698.668 -0.998438 2.05532 0
M  V30 7652 C 698.878 2.55596 2.37638 0
M  V30 7653 C 700.226 2.99153 3.01318 0
M  V30 7654 O 701.25 2.55719 2.47965 0
M  V30 7655 O 700.109 3.74427 3.98078 0
M  V30 7656 H 697.203 0.540189 0.626198 0
M  V30 7657 H 699.749 1.55971 0.668657 0
M  V30 7658 H 698.521 3.45256 1.84158 0
M  V30 7659 H 698.144 2.38334 3.18249 0
M  V30 7660 N 699.141 -0.881989 1.30609 0
M  V30 7661 C 700.089 -2.00942 1.17155 0
M  V30 7662 C 701.083 -1.69198 0.0827154 0
M  V30 7663 O 702.289 -1.78342 0.243775 0
M  V30 7664 H 698.664 -0.658913 0.362406 0
M  V30 7665 H 700.635 -2.09423 2.12567 0
M  V30 7666 C 699.384 -3.36294 0.883273 0
M  V30 7667 H 698.707 -3.61233 1.7132 0
M  V30 7668 H 700.147 -4.15812 0.829255 0
M  V30 7669 C 698.606 -3.34348 -0.413851 0
M  V30 7670 O 699.136 -3.75216 -1.43444 0
M  V30 7671 N 697.342 -2.87459 -0.426082 0
M  V30 7672 H 696.889 -2.54397 0.40493 0
M  V30 7673 H 696.847 -2.8654 -1.29391 0
M  V30 7674 N 700.619 -1.13374 -1.09472 0
M  V30 7675 C 701.566 -0.810682 -2.16094 0
M  V30 7676 C 702.536 0.227003 -1.64541 0
M  V30 7677 O 703.721 0.0993538 -1.90541 0
M  V30 7678 C 700.861 -0.282336 -3.43943 0
M  V30 7679 C 699.974 -1.37902 -4.09398 0
M  V30 7680 C 699.109 -0.809066 -5.25002 0
M  V30 7681 C 698.148 -1.88419 -5.82379 0
M  V30 7682 N 697.285 -1.33221 -6.89345 0
M  V30 7683 H 702.125 -1.72397 -2.43071 0
M  V30 7684 H 699.662 -0.860564 -1.19301 0
M  V30 7685 H 701.62 0.0421189 -4.17179 0
M  V30 7686 H 700.25 0.594083 -3.17286 0
M  V30 7687 H 699.302 -1.82008 -3.34032 0
M  V30 7688 H 700.614 -2.19161 -4.48074 0
M  V30 7689 H 699.768 -0.435867 -6.05132 0
M  V30 7690 H 698.507 0.0346058 -4.87688 0
M  V30 7691 H 697.512 -2.26646 -5.00911 0
M  V30 7692 H 698.737 -2.73125 -6.21755 0
M  V30 7693 H 696.683 -0.510535 -6.5401 0
M  V30 7694 H 696.6 -2.08129 -7.26786 0
M  V30 7695 H 697.868 -0.986565 -7.73232 0
M  V30 7696 N 702.098 1.27442 -0.927168 0
M  V30 7697 C 703.323 1.99036 -0.583042 0
M  V30 7698 C 703.748 1.68711 0.83176 0
M  V30 7699 O 703.106 0.927081 1.55804 0
M  V30 7700 C 703.154 3.51271 -0.814925 0
M  V30 7701 O 702.258 4.12226 0.119742 0
M  V30 7702 H 701.599 0.624883 -0.224538 0
M  V30 7703 H 704.129 1.62263 -1.24628 0
M  V30 7704 H 704.139 4.01411 -0.730282 0
M  V30 7705 H 702.814 3.72676 -1.84623 0
M  V30 7706 H 701.391 3.72897 -0.0147688 0
M  V30 7707 N 703.576 0.692616 1.41565 0
M  V30 7708 C 704.987 0.297478 1.84315 0
M  V30 7709 C 705.338 -1.16379 1.57957 0
M  V30 7710 O 704.463 -1.89303 1.0485 0
M  V30 7711 C 705.058 0.533136 3.34579 0
M  V30 7712 C 703.617 0.191944 3.7591 0
M  V30 7713 C 702.764 0.816873 2.64995 0
M  V30 7714 H 705.715 0.893488 1.31158 0
M  V30 7715 H 705.736 -0.209105 3.79925 0
M  V30 7716 H 705.248 1.59674 3.53731 0
M  V30 7717 H 703.349 -0.867512 3.6236 0
M  V30 7718 H 703.462 0.644902 4.7474 0
M  V30 7719 H 701.826 0.246715 2.53502 0
M  V30 7720 H 702.609 1.88429 2.86966 0
M  V30 7721 N 705.054 -1.51416 0.437162 0
M  V30 7722 C 706.47 -1.59349 0.0894459 0
M  V30 7723 C 706.67 -1.44809 -1.40116 0
M  V30 7724 O 705.726 -1.28924 -2.17106 0
M  V30 7725 C 707.039 -2.9446 0.609398 0
M  V30 7726 C 708.587 -3.07769 0.569824 0
M  V30 7727 C 709.062 -4.45404 1.06675 0
M  V30 7728 N 710.553 -4.51723 1.02473 0
M  V30 7729 C 711.288 -5.56544 1.3801 0
M  V30 7730 N 710.784 -6.68784 1.80831 0
M  V30 7731 N 712.577 -5.46901 1.29828 0
M  V30 7732 H 704.728 -1.59112 1.40703 0
M  V30 7733 H 706.991 -0.750031 0.579791 0
M  V30 7734 H 706.697 -3.1047 1.65231 0
M  V30 7735 H 706.571 -3.77184 0.0342236 0
M  V30 7736 H 708.958 -2.91428 -0.464107 0
M  V30 7737 H 709.039 -2.26885 1.1814 0
M  V30 7738 H 708.683 -4.62492 2.09914 0
M  V30 7739 H 708.613 -5.24827 0.431712 0
M  V30 7740 H 711.104 -3.71165 0.710258 0
M  V30 7741 H 711.417 -7.44787 2.06185 0
M  V30 7742 H 709.762 -6.69992 1.84757 0
M  V30 7743 H 712.953 -4.581 0.962397 0
M  V30 7744 H 713.126 -6.2848 1.57851 0
M  V30 7745 N 706.532 -0.168513 -1.56696 0
M  V30 7746 C 707.757 0.486688 -2.01609 0
M  V30 7747 C 708.182 1.56203 -1.04796 0
M  V30 7748 O 707.54 1.8128 -0.0270596 0
M  V30 7749 C 707.588 1.04451 -3.45141 0
M  V30 7750 O 706.692 2.15862 -3.51393 0
M  V30 7751 H 706.033 0.116831 -0.653641 0
M  V30 7752 H 708.563 -0.271579 -2.0279 0
M  V30 7753 H 708.573 1.36782 -3.84389 0
M  V30 7754 H 707.248 0.257155 -4.15104 0
M  V30 7755 H 705.825 1.84597 -3.24004 0
M  V30 7756 N 708.01 1.57248 0.105221 0
M  V30 7757 C 709.287 1.76566 0.841647 0
M  V30 7758 C 709.667 0.747566 1.9742 0
M  V30 7759 O 709.015 -0.225886 2.27381 0
M  V30 7760 C 709.225 3.22016 1.3456 0
M  V30 7761 C 710.573 3.84911 1.79244 0
M  V30 7762 O 711.597 3.25703 1.44207 0
M  V30 7763 O 710.456 4.89008 2.43995 0
M  V30 7764 H 707.55 0.723443 0.400698 0
M  V30 7765 H 710.096 1.69472 0.0878893 0
M  V30 7766 H 708.868 3.87644 0.533685 0
M  V30 7767 H 708.491 3.33703 2.16167 0
M  V30 7768 N 709.488 -0.375779 1.53054 0
M  V30 7769 C 710.899 -0.95309 1.6054 0
M  V30 7770 C 711.25 -1.90575 0.466446 0
M  V30 7771 O 710.375 -2.12507 -0.408609 0
M  V30 7772 C 710.97 -1.73537 2.90982 0
M  V30 7773 C 709.529 -2.26218 3.00836 0
M  V30 7774 C 708.676 -1.07157 2.55759 0
M  V30 7775 H 711.627 -0.154895 1.57942 0
M  V30 7776 H 711.648 -2.59574 2.78211 0
M  V30 7777 H 711.16 -1.04176 3.73857 0
M  V30 7778 H 709.261 -2.98852 2.22527 0
M  V30 7779 H 709.374 -2.54799 4.05727 0
M  V30 7780 H 707.738 -1.43553 2.10391 0
M  V30 7781 H 708.521 -0.393099 3.41042 0
M  V30 7782 N 710.966 -1.44241 -0.634997 0
M  V30 7783 C 712.196 -1.50078 -1.41987 0
M  V30 7784 C 712.604 -0.123072 -1.88799 0
M  V30 7785 O 711.947 0.880552 -1.6122 0
M  V30 7786 C 712.009 -2.40033 -2.67628 0
M  V30 7787 C 711.673 -3.87268 -2.42637 0
M  V30 7788 C 712.67 -4.77902 -2.04708 0
M  V30 7789 C 710.355 -4.31933 -2.56396 0
M  V30 7790 C 712.349 -6.11202 -1.80862 0
M  V30 7791 C 710.036 -5.65281 -2.32164 0
M  V30 7792 C 711.034 -6.54734 -1.94455 0
M  V30 7793 O 710.722 -7.85613 -1.7049 0
M  V30 7794 H 710.454 -0.51146 -0.442023 0
M  V30 7795 H 713.008 -1.89843 -0.784138 0
M  V30 7796 H 711.238 -1.95188 -3.33824 0
M  V30 7797 H 712.927 -2.36863 -3.29622 0
M  V30 7798 H 713.693 -4.44668 -1.93638 0
M  V30 7799 H 709.572 -3.62569 -2.84719 0
M  V30 7800 H 713.116 -6.80983 -1.51353 0
M  V30 7801 H 709.013 -5.98078 -2.42843 0
M  V30 7802 H 709.781 -7.97373 -1.84767 0
M  V30 7803 N 712.444 0.87505 -1.31075 0
M  V30 7804 C 713.392 2.00317 -1.18219 0
M  V30 7805 C 714.386 1.69152 -0.0916872 0
M  V30 7806 O 715.592 1.7821 -0.253229 0
M  V30 7807 H 711.967 0.656981 -0.365895 0
M  V30 7808 H 713.938 2.08293 -2.13674 0
M  V30 7809 C 712.687 3.35821 -0.901095 0
M  V30 7810 H 712.01 3.6032 -1.73233 0
M  V30 7811 H 713.45 4.15366 -0.851295 0
M  V30 7812 C 711.909 3.34563 0.396114 0
M  V30 7813 O 712.439 3.75971 1.41452 0
M  V30 7814 N 710.645 2.87681 0.410832 0
M  V30 7815 H 710.192 2.54179 -0.418415 0
M  V30 7816 H 710.15 2.87223 1.27869 0
M  V30 7817 N 713.922 1.13953 1.08869 0
M  V30 7818 C 714.854 0.779906 2.15523 0
M  V30 7819 C 715.867 -0.20102 1.61554 0
M  V30 7820 O 717.056 0.0200049 1.78489 0
M  V30 7821 C 714.156 0.136226 3.38626 0
M  V30 7822 C 713.329 1.15069 4.21993 0
M  V30 7823 C 712.388 0.531645 5.23507 0
M  V30 7824 O 711.414 1.19327 5.56552 0
M  V30 7825 N 712.616 -0.693734 5.7634 0
M  V30 7826 H 715.381 1.69769 2.46979 0
M  V30 7827 H 712.942 1.03331 1.24637 0
M  V30 7828 H 714.934 -0.290295 4.03658 0
M  V30 7829 H 713.504 -0.684603 3.05011 0
M  V30 7830 H 712.724 1.75431 3.53012 0
M  V30 7831 H 714.012 1.83614 4.74514 0
M  V30 7832 H 713.41 -1.24994 5.51718 0
M  V30 7833 H 711.967 -1.06283 6.43076 0
M  V30 7834 N 715.4 -1.26948 0.933913 0
M  V30 7835 C 716.816 -1.46419 0.635103 0
M  V30 7836 C 717.016 -1.84336 -0.813785 0
M  V30 7837 O 716.072 -1.96061 -1.59111 0
M  V30 7838 C 717.385 -2.55206 1.5903 0
M  V30 7839 C 718.933 -2.69062 1.5992 0
M  V30 7840 C 719.408 -3.81013 2.54152 0
M  V30 7841 N 720.899 -3.88395 2.52395 0
M  V30 7842 C 721.634 -4.74454 3.21996 0
M  V30 7843 N 721.13 -5.64954 4.00997 0
M  V30 7844 N 722.923 -4.68237 3.10983 0
M  V30 7845 H 715.074 -1.00622 1.87053 0
M  V30 7846 H 717.337 -0.503189 0.803433 0
M  V30 7847 H 717.043 -2.34153 2.62422 0
M  V30 7848 H 716.917 -3.52719 1.33677 0
M  V30 7849 H 719.304 -2.89492 0.572569 0
M  V30 7850 H 719.385 -1.72016 1.89325 0
M  V30 7851 H 719.029 -3.61336 3.5693 0
M  V30 7852 H 718.959 -4.77499 2.22041 0
M  V30 7853 H 721.45 -3.23687 1.95025 0
M  V30 7854 H 721.763 -6.27496 4.51074 0
M  V30 7855 H 720.108 -5.6473 4.05099 0
M  V30 7856 H 723.299 -3.96535 2.48753 0
M  V30 7857 H 723.472 -5.35087 3.65494 0
M  V30 7858 N 716.879 -0.700114 -1.41195 0
M  V30 7859 C 718.295 -0.372114 -1.55201 0
M  V30 7860 C 718.495 1.12053 -1.6747 0
M  V30 7861 O 717.551 1.90642 -1.65566 0
M  V30 7862 C 718.864 -1.12462 -2.78878 0
M  V30 7863 C 720.412 -1.10941 -2.92679 0
M  V30 7864 C 720.887 -1.84376 -4.19249 0
M  V30 7865 N 722.378 -1.81368 -4.26216 0
M  V30 7866 C 723.113 -2.35024 -5.23021 0
M  V30 7867 N 722.609 -2.9717 -6.25829 0
M  V30 7868 N 724.402 -2.25254 -5.14992 0
M  V30 7869 H 716.553 -1.66816 -1.31477 0
M  V30 7870 H 718.816 -0.704223 -0.634644 0
M  V30 7871 H 718.522 -2.17937 -2.76037 0
M  V30 7872 H 718.396 -0.706152 -3.70531 0
M  V30 7873 H 720.783 -0.062911 -2.95033 0
M  V30 7874 H 720.864 -1.56698 -2.02187 0
M  V30 7875 H 720.508 -2.89008 -4.17656 0
M  V30 7876 H 720.438 -1.3605 -5.08722 0
M  V30 7877 H 722.929 -1.36062 -3.52556 0
M  V30 7878 H 723.242 -3.35668 -6.96094 0
M  V30 7879 H 721.587 -3.01249 -6.26318 0
M  V30 7880 H 724.778 -1.76372 -4.33602 0
M  V30 7881 H 724.951 -2.67373 -5.90268 0
M  V30 7882 N 718.357 1.51182 -0.445186 0
M  V30 7883 C 719.29 2.24528 0.4077 0
M  V30 7884 C 720.268 1.26778 1.01814 0
M  V30 7885 O 721.452 1.55934 1.05909 0
M  V30 7886 C 718.579 3.00171 1.56892 0
M  V30 7887 C 717.625 4.12641 1.0784 0
M  V30 7888 S 718.458 5.35498 0.014049 0
M  V30 7889 C 719.614 6.14681 1.17975 0
M  V30 7890 H 719.847 2.96522 -0.214987 0
M  V30 7891 H 717.38 1.52681 -0.229781 0
M  V30 7892 H 719.338 3.44349 2.23459 0
M  V30 7893 H 717.999 2.27752 2.16304 0
M  V30 7894 H 717.192 4.64875 1.94698 0
M  V30 7895 H 716.794 3.70765 0.490852 0
M  V30 7896 H 719.086 6.44244 2.09658 0
M  V30 7897 H 720.029 7.04659 0.697222 0
M  V30 7898 H 720.437 5.46299 1.42187 0
M  V30 7899 N 719.835 0.176821 1.56605 0
M  V30 7900 C 721.06 -0.47599 2.01864 0
M  V30 7901 C 721.485 -1.55645 1.05623 0
M  V30 7902 O 720.843 -1.81263 0.0366729 0
M  V30 7903 C 720.891 -1.02619 3.4569 0
M  V30 7904 O 719.995 -2.13996 3.52533 0
M  V30 7905 H 719.336 -0.113363 0.654251 0
M  V30 7906 H 721.866 0.28233 2.02643 0
M  V30 7907 H 721.876 -1.34742 3.85109 0
M  V30 7908 H 720.551 -0.235138 4.15235 0
M  V30 7909 H 719.128 -1.82876 3.24978 0
M  V30 7910 N 721.313 -1.57302 -0.09688 0
M  V30 7911 C 722.56 -1.85997 -0.800699 0
M  V30 7912 C 722.888 -0.765089 -1.7882 0
M  V30 7913 O 722.143 0.241492 -1.94204 0
M  V30 7914 C 722.442 -3.21272 -1.56586 0
M  V30 7915 C 722.108 -4.45104 -0.72064 0
M  V30 7916 C 720.77 -4.78723 -0.487632 0
M  V30 7917 C 723.122 -5.2103 -0.132948 0
M  V30 7918 C 720.45 -5.85697 0.34296 0
M  V30 7919 C 722.802 -6.28881 0.684957 0
M  V30 7920 C 721.466 -6.61017 0.928073 0
M  V30 7921 H 720.736 -0.680613 -0.292997 0
M  V30 7922 H 723.383 -1.91399 -0.0622474 0
M  V30 7923 H 721.688 -3.11547 -2.37583 0
M  V30 7924 H 723.385 -3.40702 -2.11478 0
M  V30 7925 H 719.975 -4.18777 -0.912359 0
M  V30 7926 H 724.159 -4.95392 -0.300132 0
M  V30 7927 H 719.415 -6.09008 0.540317 0
M  V30 7928 H 723.589 -6.86886 1.14721 0
M  V30 7929 H 721.216 -7.43738 1.57348 0
M  V30 7930 N 722.791 0.367657 -1.53252 0
M  V30 7931 C 723.721 1.45632 -1.8252 0
M  V30 7932 C 724.702 1.55979 -0.678568 0
M  V30 7933 O 725.887 1.70581 -0.928217 0
M  V30 7934 C 723.017 2.82994 -2.01325 0
M  V30 7935 C 721.971 2.87473 -3.17086 0
M  V30 7936 C 721.297 4.2749 -3.21179 0
M  V30 7937 C 722.597 2.55182 -4.55719 0
M  V30 7938 H 724.291 1.21387 -2.73689 0
M  V30 7939 H 721.837 0.58251 -1.31692 0
M  V30 7940 H 723.79 3.59179 -2.20383 0
M  V30 7941 H 722.514 3.08622 -1.06864 0
M  V30 7942 H 721.173 2.13739 -2.97844 0
M  V30 7943 H 720.821 4.5019 -2.24361 0
M  V30 7944 H 720.521 4.31403 -3.98955 0
M  V30 7945 H 722.045 5.0555 -3.42419 0
M  V30 7946 H 723.459 3.21081 -4.74953 0
M  V30 7947 H 721.856 2.70414 -5.3572 0
M  V30 7948 H 722.926 1.5044 -4.60973 0
M  V30 7949 N 724.269 1.44576 0.627338 0
M  V30 7950 C 725.517 1.47267 1.38408 0
M  V30 7951 C 725.838 0.107971 1.94701 0
M  V30 7952 O 725.108 -0.860206 1.76004 0
M  V30 7953 H 723.688 0.542276 0.513756 0
M  V30 7954 H 726.35 1.80383 0.738099 0
M  V30 7955 H 725.446 2.20025 2.21349 0
M  V30 7956 N 725.747 -0.868086 1.31537 0
M  V30 7957 C 726.677 -1.99131 1.21939 0
M  V30 7958 C 727.658 -1.69768 0.106166 0
M  V30 7959 O 728.843 -1.92006 0.291081 0
M  V30 7960 C 725.973 -3.34676 0.927879 0
M  V30 7961 C 724.927 -3.7835 2.00088 0
M  V30 7962 C 724.253 -5.11375 1.56203 0
M  V30 7963 C 725.553 -3.95256 3.41424 0
M  V30 7964 H 727.247 -2.07419 2.15911 0
M  V30 7965 H 724.793 -0.996569 1.03945 0
M  V30 7966 H 726.746 -4.12793 0.847327 0
M  V30 7967 H 725.47 -3.26565 -0.0475042 0
M  V30 7968 H 724.129 -3.02474 2.07135 0
M  V30 7969 H 723.777 -4.99709 0.57445 0
M  V30 7970 H 723.477 -5.41568 2.27985 0
M  V30 7971 H 725.001 -5.92001 1.49558 0
M  V30 7972 H 726.415 -4.63764 3.3704 0
M  V30 7973 H 724.812 -4.36849 4.1144 0
M  V30 7974 H 725.882 -2.98579 3.82072 0
M  V30 7975 N 727.225 -1.14528 -1.08264 0
M  V30 7976 C 728.188 -0.83632 -2.13397 0
M  V30 7977 C 729.188 0.159715 -1.60005 0
M  V30 7978 O 730.378 -0.0688098 -1.74064 0
M  V30 7979 C 727.51 -0.246973 -3.40004 0
M  V30 7980 H 728.703 -1.76808 -2.42237 0
M  V30 7981 H 726.256 -0.951509 -1.24 0
M  V30 7982 H 726.991 0.693436 -3.168 0
M  V30 7983 H 726.776 -0.964412 -3.80055 0
M  V30 7984 H 728.266 -0.0480679 -4.17572 0
M  V30 7985 N 728.703 1.26451 -0.940633 0
M  V30 7986 C 729.928 1.98407 -0.60412 0
M  V30 7987 C 730.353 1.69584 0.81382 0
M  V30 7988 O 729.711 0.943553 1.54812 0
M  V30 7989 C 729.759 3.50387 -0.852136 0
M  V30 7990 O 728.863 4.1233 0.076013 0
M  V30 7991 H 728.204 0.622466 -0.231153 0
M  V30 7992 H 730.734 1.60932 -1.26342 0
M  V30 7993 H 730.744 4.00614 -0.772816 0
M  V30 7994 H 729.419 3.70696 -1.88566 0
M  V30 7995 H 727.996 3.7286 -0.0543187 0
M  V30 7996 N 730.181 0.707592 1.40822 0
M  V30 7997 C 731.429 0.243189 2.00632 0
M  V30 7998 C 731.75 -1.16512 1.56365 0
M  V30 7999 O 731.02 -1.78841 0.799553 0
M  V30 8000 H 729.6 0.0869203 0.741926 0
M  V30 8001 H 732.262 0.911438 1.72275 0
M  V30 8002 H 731.358 0.270014 3.1093 0
M  V30 8003 N 731.66 -1.50943 0.453197 0
M  V30 8004 C 732.607 -2.28128 -0.350197 0
M  V30 8005 C 733.577 -1.32398 -1.00299 0
M  V30 8006 O 734.762 -1.61319 -1.01887 0
M  V30 8007 C 731.902 -3.13782 -1.43649 0
M  V30 8008 C 731.015 -4.24523 -0.800255 0
M  V30 8009 C 730.15 -4.97462 -1.86293 0
M  V30 8010 C 729.189 -6.00102 -1.20598 0
M  V30 8011 N 728.326 -6.66387 -2.21071 0
M  V30 8012 H 733.166 -2.96337 0.31434 0
M  V30 8013 H 730.703 -1.46151 0.166863 0
M  V30 8014 H 732.661 -3.6178 -2.07776 0
M  V30 8015 H 731.291 -2.47655 -2.07044 0
M  V30 8016 H 730.343 -3.80371 -0.0468651 0
M  V30 8017 H 731.655 -4.98009 -0.280777 0
M  V30 8018 H 730.809 -5.49088 -2.58044 0
M  V30 8019 H 729.548 -4.23642 -2.41617 0
M  V30 8020 H 728.553 -5.47753 -0.474 0
M  V30 8021 H 729.778 -6.75887 -0.659859 0
M  V30 8022 H 727.724 -5.9537 -2.75446 0
M  V30 8023 H 727.641 -7.3569 -1.74058 0
M  V30 8024 H 728.909 -7.22638 -2.92257 0
M  V30 8025 N 733.138 -0.185124 -1.56509 0
M  V30 8026 C 734.554 0.170865 -1.58683 0
M  V30 8027 C 734.754 1.61799 -1.20098 0
M  V30 8028 O 733.81 2.35181 -0.919038 0
M  V30 8029 C 735.123 -0.122459 -3.00451 0
M  V30 8030 C 736.671 -0.0617699 -3.12939 0
M  V30 8031 C 737.146 -0.328269 -4.56822 0
M  V30 8032 N 738.637 -0.276533 -4.62374 0
M  V30 8033 C 739.372 -0.456722 -5.71578 0
M  V30 8034 N 738.868 -0.69672 -6.89288 0
M  V30 8035 N 740.661 -0.391669 -5.60734 0
M  V30 8036 H 732.812 -1.12956 -1.79874 0
M  V30 8037 H 735.075 -0.45011 -0.834329 0
M  V30 8038 H 734.781 -1.12546 -3.33206 0
M  V30 8039 H 734.655 0.579578 -3.72721 0
M  V30 8040 H 737.042 0.931826 -2.80002 0
M  V30 8041 H 737.123 -0.796732 -2.43076 0
M  V30 8042 H 736.767 -1.31914 -4.9047 0
M  V30 8043 H 736.697 0.427465 -5.24862 0
M  V30 8044 H 739.188 -0.0972458 -3.77775 0
M  V30 8045 H 739.501 -0.823291 -7.68402 0
M  V30 8046 H 737.846 -0.733497 -6.91119 0
M  V30 8047 H 741.037 -0.204663 -4.67652 0
M  V30 8048 H 741.21 -0.535518 -6.45783 0
M  V30 8049 N 734.616 1.57351 0.0885366 0
M  V30 8050 C 736.032 1.53331 0.442916 0
M  V30 8051 C 736.232 0.902831 1.80142 0
M  V30 8052 O 735.288 0.498147 2.47537 0
M  V30 8053 C 736.601 2.98036 0.399372 0
M  V30 8054 C 738.149 3.09286 0.480759 0
M  V30 8055 C 738.624 4.5561 0.467296 0
M  V30 8056 N 740.115 4.60182 0.52786 0
M  V30 8057 C 740.85 5.70857 0.539388 0
M  V30 8058 N 740.346 6.90944 0.506729 0
M  V30 8059 N 742.139 5.59051 0.584691 0
M  V30 8060 H 734.29 1.96709 -0.801215 0
M  V30 8061 H 736.553 0.899639 -0.298922 0
M  V30 8062 H 736.259 3.47656 -0.531806 0
M  V30 8063 H 736.133 3.57066 1.21589 0
M  V30 8064 H 738.52 2.5965 1.40236 0
M  V30 8065 H 738.601 2.53197 -0.364023 0
M  V30 8066 H 738.245 5.05899 -0.450384 0
M  V30 8067 H 738.175 5.09544 1.32938 0
M  V30 8068 H 740.666 3.73757 0.558028 0
M  V30 8069 H 740.979 7.71055 0.518989 0
M  V30 8070 H 739.324 6.93384 0.473675 0
M  V30 8071 H 742.515 4.64138 0.607781 0
M  V30 8072 H 742.688 6.45307 0.590206 0
M  V30 8073 N 736.094 -0.359525 1.53444 0
M  V30 8074 C 737.057 -1.42357 1.7963 0
M  V30 8075 C 738.057 -1.46319 0.666884 0
M  V30 8076 O 739.247 -1.46974 0.935113 0
M  V30 8077 C 736.379 -2.81425 1.92387 0
M  V30 8078 H 737.572 -1.20409 2.74666 0
M  V30 8079 H 735.125 -0.593007 1.44614 0
M  V30 8080 H 735.86 -3.08679 0.994384 0
M  V30 8081 H 735.645 -2.79947 2.74539 0
M  V30 8082 H 737.135 -3.5847 2.14218 0
M  V30 8083 N 737.572 -1.44907 -0.619662 0
M  V30 8084 C 738.797 -1.52021 -1.41083 0
M  V30 8085 C 739.222 -0.14976 -1.87503 0
M  V30 8086 O 738.58 0.863303 -1.59426 0
M  V30 8087 C 738.628 -2.49911 -2.59955 0
M  V30 8088 O 737.732 -2.00857 -3.60181 0
M  V30 8089 H 737.073 -0.512912 -0.421684 0
M  V30 8090 H 739.603 -1.90149 -0.755282 0
M  V30 8091 H 739.613 -2.68323 -3.07354 0
M  V30 8092 H 738.288 -3.4945 -2.25516 0
M  V30 8093 H 736.865 -1.92265 -3.19513 0
M  V30 8094 N 739.05 0.861098 -1.31996 0
M  V30 8095 C 740 1.95703 -1.1698 0
M  V30 8096 C 740.984 1.60709 -0.0784201 0
M  V30 8097 O 742.176 1.74365 -0.304262 0
M  V30 8098 C 739.305 3.31606 -0.888388 0
M  V30 8099 C 738.391 3.7284 -2.02117 0
M  V30 8100 N 738.782 3.85957 -3.26911 0
M  V30 8101 C 737.08 4.02419 -1.92289 0
M  V30 8102 C 737.781 4.21333 -4.01065 0
M  V30 8103 N 736.757 4.32502 -3.29307 0
M  V30 8104 H 740.559 2.03968 -2.11599 0
M  V30 8105 H 738.073 1.05245 -1.23682 0
M  V30 8106 H 740.07 4.09881 -0.761782 0
M  V30 8107 H 738.73 3.24662 0.0494898 0
M  V30 8108 H 739.741 3.70449 -3.61923 0
M  V30 8109 H 736.418 4.03814 -1.06022 0
M  V30 8110 H 737.808 4.39005 -5.08649 0
M  V30 8111 N 740.528 1.15101 1.07655 0
M  V30 8112 C 741.776 0.922149 1.79836 0
M  V30 8113 C 742.097 -0.552346 1.87014 0
M  V30 8114 O 741.367 -1.40145 1.3688 0
M  V30 8115 H 739.947 0.338182 0.666064 0
M  V30 8116 H 742.609 1.45107 1.30115 0
M  V30 8117 H 741.705 1.32883 2.82398 0
M  V30 8118 N 742.006 -1.2595 0.947325 0
M  V30 8119 C 743.231 -1.98083 0.614633 0
M  V30 8120 C 743.656 -1.70013 -0.804815 0
M  V30 8121 O 743.014 -0.95175 -1.54309 0
M  V30 8122 C 743.062 -3.4993 0.870706 0
M  V30 8123 O 742.166 -4.12364 -0.0541451 0
M  V30 8124 H 741.507 -0.621232 0.234451 0
M  V30 8125 H 744.037 -1.60259 1.27193 0
M  V30 8126 H 744.047 -4.00198 0.794051 0
M  V30 8127 H 742.722 -3.69691 1.90529 0
M  V30 8128 H 741.299 -3.72826 0.0740917 0
M  V30 8129 N 743.484 -0.715051 -1.40445 0
M  V30 8130 C 744.73 -0.254705 -2.01194 0
M  V30 8131 C 745.063 1.14894 -1.56567 0
M  V30 8132 O 744.338 1.77933 -0.785491 0
M  V30 8133 C 744.621 -0.334148 -3.58546 0
M  V30 8134 C 744.474 -1.77613 -4.13248 0
M  V30 8135 C 745.793 0.294968 -4.3911 0
M  V30 8136 H 742.912 -0.094025 -0.730978 0
M  V30 8137 H 745.554 -0.907449 -1.66929 0
M  V30 8138 H 743.704 0.221609 -3.87867 0
M  V30 8139 H 745.376 -2.38723 -3.94727 0
M  V30 8140 H 743.619 -2.30402 -3.67556 0
M  V30 8141 H 744.29 -1.78311 -5.22407 0
M  V30 8142 H 746.766 -0.178563 -4.15717 0
M  V30 8143 H 745.642 0.208934 -5.48502 0
M  V30 8144 H 745.903 1.37841 -4.20062 0
M  V30 8145 N 744.962 1.50701 -0.461195 0
M  V30 8146 C 746.209 2.02267 0.0971971 0
M  V30 8147 C 746.537 1.34387 1.40608 0
M  V30 8148 O 745.792 0.455254 1.90331 0
M  V30 8149 C 746.091 3.55788 0.33908 0
M  V30 8150 C 745.757 4.42092 -0.886885 0
M  V30 8151 C 744.419 4.65398 -1.22304 0
M  V30 8152 C 746.771 4.92571 -1.70361 0
M  V30 8153 C 744.099 5.36429 -2.37616 0
M  V30 8154 C 746.451 5.64868 -2.84793 0
M  V30 8155 C 745.115 5.86431 -3.18834 0
M  V30 8156 H 744.385 0.740146 0.0355669 0
M  V30 8157 H 747.032 1.81415 -0.61326 0
M  V30 8158 H 745.337 3.751 1.13168 0
M  V30 8159 H 747.034 3.93243 0.784937 0
M  V30 8160 H 743.624 4.24165 -0.614981 0
M  V30 8161 H 747.808 4.74428 -1.4571 0
M  V30 8162 H 743.064 5.51333 -2.64276 0
M  V30 8163 H 747.238 6.02966 -3.48432 0
M  V30 8164 H 744.865 6.41248 -4.08296 0
M  V30 8165 N 746.441 0.193421 1.56409 0
M  V30 8166 C 747.391 -0.74089 2.15627 0
M  V30 8167 C 748.375 -1.17747 1.09656 0
M  V30 8168 O 749.567 -1.13615 1.35723 0
M  V30 8169 C 746.696 -1.96091 2.81786 0
M  V30 8170 C 745.782 -1.54531 3.94944 0
M  V30 8171 N 746.173 -0.840569 4.98767 0
M  V30 8172 C 744.471 -1.83473 4.06514 0
M  V30 8173 C 745.172 -0.632571 5.7825 0
M  V30 8174 N 744.148 -1.18078 5.30621 0
M  V30 8175 H 747.95 -0.193718 2.93261 0
M  V30 8176 H 745.464 -0.00643211 1.62399 0
M  V30 8177 H 747.461 -2.64071 3.22602 0
M  V30 8178 H 746.121 -2.51282 2.05639 0
M  V30 8179 H 747.132 -0.496218 5.15517 0
M  V30 8180 H 743.809 -2.40184 3.41493 0
M  V30 8181 H 745.199 -0.0736433 6.7186 0
M  V30 8182 N 747.919 -1.57396 -0.0801906 0
M  V30 8183 C 749.166 -1.86836 -0.780927 0
M  V30 8184 C 749.494 -0.784012 -1.77999 0
M  V30 8185 O 748.749 0.220881 -1.94449 0
M  V30 8186 C 749.048 -3.22915 -1.53169 0
M  V30 8187 C 748.714 -4.45843 -0.67339 0
M  V30 8188 C 747.376 -4.79213 -0.436829 0
M  V30 8189 C 749.728 -5.21142 -0.0776786 0
M  V30 8190 C 747.056 -5.853 0.405062 0
M  V30 8191 C 749.408 -6.28119 0.751619 0
M  V30 8192 C 748.072 -6.59995 0.998131 0
M  V30 8193 H 747.342 -0.683682 -0.285761 0
M  V30 8194 H 749.989 -1.91454 -0.0419435 0
M  V30 8195 H 748.294 -3.14049 -2.34265 0
M  V30 8196 H 749.991 -3.42926 -2.07853 0
M  V30 8197 H 746.581 -4.19721 -0.867891 0
M  V30 8198 H 750.765 -4.95682 -0.247572 0
M  V30 8199 H 746.021 -6.084 0.60488 0
M  V30 8200 H 750.195 -6.8563 1.22 0
M  V30 8201 H 747.822 -7.42027 1.65227 0
M  V30 8202 N 749.397 0.351382 -1.53633 0
M  V30 8203 C 750.813 0.693987 -1.43722 0
M  V30 8204 C 751.013 1.9274 -0.587669 0
M  V30 8205 O 750.069 2.52387 -0.0756082 0
M  V30 8206 C 751.382 0.893937 -2.87105 0
M  V30 8207 C 752.93 0.993051 -2.96829 0
M  V30 8208 C 753.405 1.22537 -4.41303 0
M  V30 8209 N 754.896 1.29275 -4.44795 0
M  V30 8210 C 755.631 1.48988 -5.53706 0
M  V30 8211 N 755.127 1.65924 -6.72637 0
M  V30 8212 N 756.92 1.51472 -5.41306 0
M  V30 8213 H 749.071 -0.459688 -2.07366 0
M  V30 8214 H 751.334 -0.143684 -0.937048 0
M  V30 8215 H 751.04 0.0592517 -3.5165 0
M  V30 8216 H 750.914 1.79795 -3.31592 0
M  V30 8217 H 753.301 1.81827 -2.32429 0
M  V30 8218 H 753.382 0.0661119 -2.55715 0
M  V30 8219 H 753.026 0.405117 -5.06282 0
M  V30 8220 H 752.956 2.16575 -4.80003 0
M  V30 8221 H 755.447 1.17743 -3.59089 0
M  V30 8222 H 755.76 1.80578 -7.51406 0
M  V30 8223 H 754.105 1.63075 -6.75597 0
M  V30 8224 H 757.296 1.37818 -4.47352 0
M  V30 8225 H 757.469 1.66493 -6.26246 0
M  V30 8226 N 750.875 1.45233 0.611969 0
M  V30 8227 C 752.1 1.52767 1.40274 0
M  V30 8228 C 752.525 0.159701 1.87421 0
M  V30 8229 O 751.883 -0.854837 1.59882 0
M  V30 8230 C 751.931 2.51286 2.58626 0
M  V30 8231 O 751.035 2.02764 3.59111 0
M  V30 8232 H 750.376 0.515141 0.418958 0
M  V30 8233 H 752.906 1.90547 0.745188 0
M  V30 8234 H 752.916 2.69949 3.05927 0
M  V30 8235 H 751.591 3.50641 2.23659 0
M  V30 8236 H 750.168 1.93957 3.18489 0
M  V30 8237 N 752.353 -0.854086 1.3245 0
M  V30 8238 C 753.764 -1.42427 1.20712 0
M  V30 8239 C 754.115 -1.95371 -0.18013 0
M  V30 8240 O 753.24 -1.87587 -1.07889 0
M  V30 8241 C 753.835 -2.58897 2.18536 0
M  V30 8242 C 752.394 -3.11913 2.10683 0
M  V30 8243 C 751.541 -1.84661 2.06871 0
M  V30 8244 H 754.492 -0.661192 1.4427 0
M  V30 8245 H 754.513 -3.36074 1.78422 0
M  V30 8246 H 754.025 -2.20333 3.19492 0
M  V30 8247 H 752.126 -3.55059 1.12977 0
M  V30 8248 H 752.239 -3.73119 3.00532 0
M  V30 8249 H 750.603 -2.04285 1.52118 0
M  V30 8250 H 751.386 -1.48314 3.09609 0
M  V30 8251 N 753.831 -1.1567 -1.07043 0
M  V30 8252 C 755.079 -0.931673 -1.79344 0
M  V30 8253 C 755.4 0.542421 -1.87304 0
M  V30 8254 O 754.67 1.39418 -1.37621 0
M  V30 8255 H 753.25 -0.34171 -0.664262 0
M  V30 8256 H 755.912 -1.45795 -1.29344 0
M  V30 8257 H 755.008 -1.34379 -2.81689 0
M  V30 8258 N 755.309 1.25446 -0.953992 0
M  V30 8259 C 756.725 1.4539 -0.658316 0
M  V30 8260 C 756.925 1.85607 0.784356 0
M  V30 8261 O 755.981 1.98568 1.55972 0
M  V30 8262 C 757.294 2.52643 -1.6307 0
M  V30 8263 C 758.842 2.66484 -1.64181 0
M  V30 8264 C 759.317 3.76921 -2.60182 0
M  V30 8265 N 760.808 3.84331 -2.58542 0
M  V30 8266 C 761.543 4.69271 -3.29503 0
M  V30 8267 N 761.039 5.58503 -4.09934 0
M  V30 8268 N 762.832 4.6323 -3.18393 0
M  V30 8269 H 754.983 0.976337 -1.8863 0
M  V30 8270 H 757.246 0.490343 -0.811337 0
M  V30 8271 H 756.952 2.29949 -2.66114 0
M  V30 8272 H 756.826 3.50547 -1.39271 0
M  V30 8273 H 759.213 2.88545 -0.618552 0
M  V30 8274 H 759.294 1.68982 -1.92038 0
M  V30 8275 H 758.938 3.55612 -3.62633 0
M  V30 8276 H 758.868 4.73906 -2.29609 0
M  V30 8277 H 761.359 3.20544 -2.0015 0
M  V30 8278 H 761.672 6.20241 -4.61 0
M  V30 8279 H 760.017 5.58214 -4.14032 0
M  V30 8280 H 763.208 3.92527 -2.5503 0
M  V30 8281 H 763.381 5.29204 -3.73961 0
M  V30 8282 N 756.787 0.722489 1.40064 0
M  V30 8283 C 758.064 0.191829 1.94657 0
M  V30 8284 C 758.444 -1.30389 1.66018 0
M  V30 8285 O 757.792 -2.06342 0.981588 0
M  V30 8286 C 758.002 0.511978 3.45224 0
M  V30 8287 C 759.35 0.454426 4.22161 0
M  V30 8288 O 760.374 0.448438 3.53366 0
M  V30 8289 O 759.233 0.437986 5.44742 0
M  V30 8290 H 756.327 0.0307821 0.826427 0
M  V30 8291 H 758.873 0.800493 1.49634 0
M  V30 8292 H 757.645 1.54622 3.59455 0
M  V30 8293 H 757.268 -0.126296 3.97399 0
M  V30 8294 N 758.265 -1.50454 0.469181 0
M  V30 8295 C 759.514 -2.01507 -0.0881425 0
M  V30 8296 C 759.827 -1.35613 -1.40956 0
M  V30 8297 O 761.033 -1.77812 -2.05171 0
M  V30 8298 C 759.489 -3.59301 -0.207596 0
M  V30 8299 C 759.097 -4.34152 1.10527 0
M  V30 8300 C 760.841 -4.18401 -0.716981 0
M  V30 8301 C 758.748 -5.83725 0.949717 0
M  V30 8302 H 757.678 -0.753106 -0.0367156 0
M  V30 8303 H 760.329 -1.73282 0.603788 0
M  V30 8304 H 758.711 -3.84106 -0.963265 0
M  V30 8305 H 759.885 -4.21073 1.87175 0
M  V30 8306 H 758.2 -3.86652 1.54562 0
M  V30 8307 H 760.797 -5.27895 -0.850363 0
M  V30 8308 H 761.14 -3.79657 -1.70782 0
M  V30 8309 H 761.673 -3.97796 -0.0187511 0
M  V30 8310 H 758.412 -6.26938 1.91387 0
M  V30 8311 H 757.932 -5.99383 0.223591 0
M  V30 8312 H 759.611 -6.44065 0.61557 0
M  V30 8313 N 759.743 -0.201713 -1.56304 0
M  V30 8314 C 760.968 0.443815 -2.02596 0
M  V30 8315 C 761.393 1.53945 -1.08086 0
M  V30 8316 O 760.751 1.81182 -0.0655056 0
M  V30 8317 C 760.799 0.971066 -3.47279 0
M  V30 8318 O 759.903 2.0836 -3.55893 0
M  V30 8319 H 759.244 0.10294 -0.655972 0
M  V30 8320 H 761.774 -0.314533 -2.02168 0
M  V30 8321 H 761.784 1.28598 -3.87204 0
M  V30 8322 H 760.459 0.169048 -4.15556 0
M  V30 8323 H 759.036 1.77683 -3.27846 0
M  V30 8324 N 761.222 1.57436 0.0718424 0
M  V30 8325 C 762.152 2.06724 1.08571 0
M  V30 8326 C 763.133 0.960731 1.40371 0
M  V30 8327 O 764.318 1.23345 1.49999 0
M  V30 8328 C 761.448 2.51112 2.39916 0
M  V30 8329 C 760.402 3.65639 2.22469 0
M  V30 8330 C 759.728 3.96082 3.59198 0
M  V30 8331 C 761.028 4.95687 1.64596 0
M  V30 8332 H 762.722 2.91679 0.675569 0
M  V30 8333 H 760.268 1.40319 0.32352 0
M  V30 8334 H 762.221 2.84206 3.11135 0
M  V30 8335 H 760.945 1.63186 2.8291 0
M  V30 8336 H 759.604 3.32828 1.53691 0
M  V30 8337 H 759.252 3.05287 3.99761 0
M  V30 8338 H 758.952 4.73199 3.48362 0
M  V30 8339 H 760.476 4.31672 4.31847 0
M  V30 8340 H 761.89 5.27011 2.25681 0
M  V30 8341 H 760.287 5.77126 1.64457 0
M  V30 8342 H 761.357 4.8108 0.60744 0
M  V30 8343 N 762.7 -0.34323 1.53817 0
M  V30 8344 C 764.111 -0.918823 1.62525 0
M  V30 8345 C 764.462 -1.89542 0.506765 0
M  V30 8346 O 763.587 -2.13326 -0.363441 0
M  V30 8347 C 764.182 -1.67326 2.94597 0
M  V30 8348 C 762.741 -2.19786 3.05567 0
M  V30 8349 C 761.888 -1.01708 2.57974 0
M  V30 8350 H 764.839 -0.121358 1.58235 0
M  V30 8351 H 764.86 -2.53615 2.83654 0
M  V30 8352 H 764.372 -0.962223 3.75983 0
M  V30 8353 H 762.473 -2.94065 2.28816 0
M  V30 8354 H 762.586 -2.46135 4.1104 0
M  V30 8355 H 760.95 -1.39058 2.13389 0
M  V30 8356 H 761.733 -0.320671 3.41799 0
M  V30 8357 N 764.178 -1.45556 -0.604258 0
M  V30 8358 C 765.088 -1.57025 -1.74299 0
M  V30 8359 C 766.104 -0.45456 -1.67958 0
M  V30 8360 O 767.28 -0.715711 -1.88254 0
M  V30 8361 C 764.345 -1.53702 -3.10768 0
M  V30 8362 C 763.406 -2.76335 -3.28538 0
M  V30 8363 C 762.639 -2.73161 -4.58496 0
M  V30 8364 O 762.862 -1.80678 -5.41028 0
M  V30 8365 O 761.796 -3.64409 -4.79051 0
M  V30 8366 H 765.622 -2.53284 -1.67573 0
M  V30 8367 H 763.207 -1.28104 -0.768745 0
M  V30 8368 H 765.089 -1.54468 -3.92068 0
M  V30 8369 H 763.764 -0.605957 -3.17978 0
M  V30 8370 H 762.671 -2.8113 -2.46813 0
M  V30 8371 H 764.004 -3.68578 -3.26207 0
M  V30 8372 N 765.656 0.84705 -1.32902 0
M  V30 8373 C 766.904 1.5986 -1.2365 0
M  V30 8374 C 767.225 1.93974 0.199789 0
M  V30 8375 O 766.495 1.60273 1.12648 0
M  V30 8376 H 765.075 0.592696 -0.454665 0
M  V30 8377 H 767.737 1.01278 -1.66519 0
M  V30 8378 H 766.833 2.53218 -1.82448 0
M  V30 8379 N 767.134 1.16236 1.06428 0
M  V30 8380 C 768.38 0.944431 1.79467 0
M  V30 8381 C 768.713 -0.526558 1.86925 0
M  V30 8382 O 767.988 -1.39061 1.35986 0
M  V30 8383 C 768.271 1.57092 3.24028 0
M  V30 8384 C 768.124 3.11315 3.24658 0
M  V30 8385 C 769.443 1.26447 4.21544 0
M  V30 8386 H 766.562 0.344521 0.651517 0
M  V30 8387 H 769.204 1.43545 1.24478 0
M  V30 8388 H 767.354 1.15337 3.70985 0
M  V30 8389 H 769.026 3.62042 2.85873 0
M  V30 8390 H 767.269 3.44716 2.6335 0
M  V30 8391 H 767.94 3.50269 4.26633 0
M  V30 8392 H 770.416 1.62581 3.83023 0
M  V30 8393 H 769.292 1.72885 5.20963 0
M  V30 8394 H 769.553 0.183068 4.41721 0
M  V30 8395 N 768.612 -1.24939 0.960631 0
M  V30 8396 C 769.84 -1.96881 0.636045 0
M  V30 8397 C 770.255 -1.71334 -0.793093 0
M  V30 8398 O 769.612 -0.992917 -1.53125 0
M  V30 8399 C 769.663 -3.50309 0.892533 0
M  V30 8400 O 769.384 -3.74977 2.26548 0
M  V30 8401 C 770.885 -4.39474 0.581159 0
M  V30 8402 H 768.105 -0.627399 0.237931 0
M  V30 8403 H 770.649 -1.58952 1.28664 0
M  V30 8404 H 768.804 -3.86326 0.288257 0
M  V30 8405 H 769.218 -4.69401 2.34014 0
M  V30 8406 H 770.692 -5.46008 0.811125 0
M  V30 8407 H 771.169 -4.3652 -0.48443 0
M  V30 8408 H 771.775 -4.09032 1.16502 0
M  V30 8409 N 770.09 -0.729906 -1.39679 0
M  V30 8410 C 771.367 -0.202149 -1.94553 0
M  V30 8411 C 771.747 1.29507 -1.66707 0
M  V30 8412 O 771.095 2.05819 -0.992517 0
M  V30 8413 C 771.305 -0.530279 -3.44948 0
M  V30 8414 C 772.653 -0.476808 -4.21914 0
M  V30 8415 O 773.677 -0.467171 -3.53123 0
M  V30 8416 O 772.536 -0.466869 -5.44502 0
M  V30 8417 H 769.63 -0.0351644 -0.826252 0
M  V30 8418 H 772.176 -0.808417 -1.49207 0
M  V30 8419 H 770.948 -1.56526 -3.5863 0
M  V30 8420 H 770.571 0.10522 -3.97461 0
M  V30 8421 N 771.568 1.50203 -0.477153 0
M  V30 8422 C 772.845 1.95115 0.137609 0
M  V30 8423 C 773.225 1.41778 1.56404 0
M  V30 8424 O 772.573 0.621333 2.1989 0
M  V30 8425 C 772.783 3.4892 0.0747168 0
M  V30 8426 C 774.131 4.238 0.260585 0
M  V30 8427 O 775.155 3.5588 0.151021 0
M  V30 8428 O 774.014 5.44366 0.482534 0
M  V30 8429 H 771.108 0.81987 0.108364 0
M  V30 8430 H 773.654 1.60946 -0.537989 0
M  V30 8431 H 772.426 3.80308 -0.920966 0
M  V30 8432 H 772.049 3.89642 0.791509 0
M  V30 8433 N 773.046 0.209999 1.56195 0
M  V30 8434 C 774.294 -0.423974 1.97603 0
M  V30 8435 C 774.615 -1.61112 1.09854 0
M  V30 8436 O 773.885 -1.95134 0.173032 0
M  V30 8437 H 772.465 -0.159629 0.729745 0
M  V30 8438 H 775.127 0.300205 1.92574 0
M  V30 8439 H 774.223 -0.75809 3.02753 0
M  V30 8440 N 774.524 -1.57472 -0.0634922 0
M  V30 8441 C 775.77 -1.87932 -0.762194 0
M  V30 8442 C 776.103 -0.803377 -1.76804 0
M  V30 8443 O 775.378 0.185468 -1.93614 0
M  V30 8444 C 775.661 -3.29053 -1.46275 0
M  V30 8445 C 775.514 -4.47309 -0.472755 0
M  V30 8446 C 776.833 -3.68537 -2.40558 0
M  V30 8447 H 773.952 -0.683521 -0.275624 0
M  V30 8448 H 776.594 -1.89983 -0.0252651 0
M  V30 8449 H 774.744 -3.27435 -2.0909 0
M  V30 8450 H 776.416 -4.61053 0.150828 0
M  V30 8451 H 774.659 -4.33286 0.211187 0
M  V30 8452 H 775.33 -5.42853 -1.00072 0
M  V30 8453 H 777.806 -3.71302 -1.87814 0
M  V30 8454 H 776.682 -4.68152 -2.86574 0
M  V30 8455 H 776.943 -2.98917 -3.25731 0
M  V30 8456 N 776.003 0.335068 -1.53997 0
M  V30 8457 C 777.25 1.07435 -1.71651 0
M  V30 8458 C 777.578 1.88378 -0.48413 0
M  V30 8459 O 776.833 1.8827 0.534139 0
M  V30 8460 C 777.132 2.0364 -2.9371 0
M  V30 8461 C 776.798 1.38942 -4.28959 0
M  V30 8462 C 775.46 1.21027 -4.65732 0
M  V30 8463 C 777.812 0.924083 -5.12943 0
M  V30 8464 C 775.14 0.552097 -5.84097 0
M  V30 8465 C 777.492 0.27978 -6.31981 0
M  V30 8466 C 776.156 0.0883843 -6.67441 0
M  V30 8467 H 775.426 0.393133 -0.628114 0
M  V30 8468 H 778.073 0.352712 -1.88224 0
M  V30 8469 H 776.378 2.82215 -2.71775 0
M  V30 8470 H 778.075 2.6085 -3.04562 0
M  V30 8471 H 774.665 1.53885 -4.00022 0
M  V30 8472 H 778.849 1.05032 -4.85059 0
M  V30 8473 H 774.105 0.392502 -6.10139 0
M  V30 8474 H 778.279 -0.0888479 -6.96343 0
M  V30 8475 H 775.906 -0.423657 -7.59019 0
M  V30 8476 N 777.481 1.45874 0.596531 0
M  V30 8477 C 778.892 1.44798 1.17857 0
M  V30 8478 C 779.243 0.181443 1.95359 0
M  V30 8479 O 778.368 -0.716336 2.042 0
M  V30 8480 C 778.963 2.62333 2.14398 0
M  V30 8481 C 777.522 2.64342 2.67955 0
M  V30 8482 C 776.669 2.37244 1.43564 0
M  V30 8483 H 779.62 1.53954 0.385222 0
M  V30 8484 H 779.641 2.37063 2.97626 0
M  V30 8485 H 779.153 3.54499 1.57963 0
M  V30 8486 H 777.254 1.76213 3.28298 0
M  V30 8487 H 777.367 3.63897 3.11634 0
M  V30 8488 H 775.731 1.87022 1.72901 0
M  V30 8489 H 776.514 3.31568 0.889805 0
M  V30 8490 N 778.959 -0.83999 1.33349 0
M  V30 8491 C 780.207 -1.59202 1.24496 0
M  V30 8492 C 780.528 -1.94077 -0.189499 0
M  V30 8493 O 779.798 -1.60868 -1.11796 0
M  V30 8494 H 778.378 -0.590276 0.457802 0
M  V30 8495 H 781.04 -1.00394 1.67054 0
M  V30 8496 H 780.136 -2.52247 1.83788 0
M  V30 8497 N 780.437 -1.16799 -1.0581 0
M  V30 8498 C 781.714 -0.862616 -1.75551 0
M  V30 8499 C 782.094 0.6385 -2.01212 0
M  V30 8500 O 781.442 1.58784 -1.64317 0
M  V30 8501 C 781.652 -1.6907 -3.05314 0
M  V30 8502 C 783 -1.90675 -3.79379 0
M  V30 8503 O 784.024 -1.65976 -3.15167 0
M  V30 8504 O 782.883 -2.32145 -4.94743 0
M  V30 8505 H 779.977 -0.318789 -0.763088 0
M  V30 8506 H 782.523 -1.27461 -1.12034 0
M  V30 8507 H 781.295 -2.70912 -2.82352 0
M  V30 8508 H 780.918 -1.27606 -3.76567 0
M  V30 8509 N 781.915 1.24427 -0.967243 0
M  V30 8510 C 782.865 2.23143 -0.468106 0
M  V30 8511 C 783.849 1.5449 0.449633 0
M  V30 8512 O 785.041 1.74761 0.28063 0
M  V30 8513 C 782.17 3.42454 0.240867 0
M  V30 8514 C 781.256 4.18355 -0.695674 0
M  V30 8515 N 781.647 4.71428 -1.83273 0
M  V30 8516 C 779.945 4.43116 -0.506365 0
M  V30 8517 C 780.646 5.29041 -2.41849 0
M  V30 8518 N 779.622 5.16213 -1.70369 0
M  V30 8519 H 783.424 2.61795 -1.3357 0
M  V30 8520 H 780.938 1.39809 -0.826277 0
M  V30 8521 H 782.935 4.12329 0.615668 0
M  V30 8522 H 781.595 3.05323 1.10491 0
M  V30 8523 H 782.606 4.68177 -2.21428 0
M  V30 8524 H 779.283 4.16319 0.313747 0
M  V30 8525 H 780.673 5.80811 -3.37799 0
M  V30 8526 N 783.393 0.737304 1.3929 0
M  V30 8527 C 784.303 0.100464 2.34385 0
M  V30 8528 C 785.319 -0.719282 1.58437 0
M  V30 8529 O 786.495 -0.647216 1.90717 0
M  V30 8530 C 783.56 -0.794325 3.37478 0
M  V30 8531 C 782.621 0.0379345 4.29283 0
M  V30 8532 C 781.854 -0.814241 5.27452 0
M  V30 8533 O 782.077 -2.05288 5.32177 0
M  V30 8534 O 781.011 -0.241679 6.01415 0
M  V30 8535 H 784.837 0.885407 2.90507 0
M  V30 8536 H 782.422 0.497999 1.40856 0
M  V30 8537 H 784.304 -1.30622 4.00644 0
M  V30 8538 H 782.979 -1.55804 2.83737 0
M  V30 8539 H 781.886 0.595405 3.69331 0
M  V30 8540 H 783.219 0.763926 4.86236 0
M  V30 8541 N 784.871 -1.49948 0.485112 0
M  V30 8542 C 786.096 -2.073 -0.0645059 0
M  V30 8543 C 786.521 -1.345 -1.31497 0
M  V30 8544 O 785.879 -0.39687 -1.76903 0
M  V30 8545 C 785.927 -3.59201 -0.317304 0
M  V30 8546 O 785.031 -3.88085 -1.39514 0
M  V30 8547 H 784.372 -0.663723 0.0191822 0
M  V30 8548 H 786.902 -1.92963 0.680179 0
M  V30 8549 H 786.912 -4.04227 -0.553604 0
M  V30 8550 H 785.587 -4.11602 0.596387 0
M  V30 8551 H 784.164 -3.54885 -1.14504 0
M  V30 8552 N 786.349 -0.21828 -1.56081 0
M  V30 8553 C 787.299 0.706492 -2.16778 0
M  V30 8554 C 788.283 1.15987 -1.11516 0
M  V30 8555 O 789.475 1.11441 -1.37513 0
M  V30 8556 C 786.604 1.91583 -2.8487 0
M  V30 8557 C 785.69 1.48228 -3.97353 0
M  V30 8558 N 786.081 0.761113 -5.00041 0
M  V30 8559 C 784.379 1.76982 -4.09382 0
M  V30 8560 C 785.08 0.540496 -5.79184 0
M  V30 8561 N 784.056 1.09622 -5.32432 0
M  V30 8562 H 787.858 0.147038 -2.93532 0
M  V30 8563 H 785.372 -0.0194049 -1.62388 0
M  V30 8564 H 787.369 2.58906 -3.26762 0
M  V30 8565 H 786.029 2.47979 -2.09611 0
M  V30 8566 H 787.04 0.414141 -5.16241 0
M  V30 8567 H 783.717 2.34721 -3.45271 0
M  V30 8568 H 785.107 -0.0332531 -6.71892 0
M  V30 8569 N 787.827 1.57504 0.0551401 0
M  V30 8570 C 789.243 1.54236 0.410292 0
M  V30 8571 C 789.443 0.940839 1.78187 0
M  V30 8572 O 788.499 0.550541 2.46425 0
M  V30 8573 C 789.812 2.98816 0.336064 0
M  V30 8574 C 791.36 3.10236 0.415047 0
M  V30 8575 C 791.835 4.56499 0.37055 0
M  V30 8576 N 793.326 4.61199 0.43013 0
M  V30 8577 C 794.061 5.71873 0.418179 0
M  V30 8578 N 793.557 6.91864 0.360056 0
M  V30 8579 N 795.35 5.60165 0.465977 0
M  V30 8580 H 787.501 1.94965 -0.842759 0
M  V30 8581 H 789.764 0.893096 -0.317937 0
M  V30 8582 H 789.47 3.4645 -0.605429 0
M  V30 8583 H 789.344 3.59564 1.13988 0
M  V30 8584 H 791.731 2.62566 1.34697 0
M  V30 8585 H 791.812 2.52367 -0.417648 0
M  V30 8586 H 791.456 5.0483 -0.557592 0
M  V30 8587 H 791.386 5.12249 1.221 0
M  V30 8588 H 793.877 3.74857 0.478623 0
M  V30 8589 H 794.19 7.71983 0.35532 0
M  V30 8590 H 792.535 6.94233 0.326492 0
M  V30 8591 H 795.726 4.65322 0.509194 0
M  V30 8592 H 795.899 6.46413 0.453194 0
M  V30 8593 N 789.305 -0.326896 1.54172 0
M  V30 8594 C 790.553 -1.06313 1.71878 0
M  V30 8595 C 790.874 -1.88652 0.493498 0
M  V30 8596 O 790.144 -1.89608 -0.492522 0
M  V30 8597 H 788.724 -0.39549 0.633716 0
M  V30 8598 H 791.386 -0.364139 1.91468 0
M  V30 8599 H 790.482 -1.73105 2.59694 0
M  V30 8600 N 790.784 -1.46188 -0.588786 0
M  V30 8601 C 792.009 -1.5498 -1.37826 0
M  V30 8602 C 792.434 -0.189498 -1.87143 0
M  V30 8603 O 791.792 0.829293 -1.61222 0
M  V30 8604 C 791.84 -2.55369 -2.54596 0
M  V30 8605 O 790.944 -2.08452 -3.55839 0
M  V30 8606 H 790.285 -0.521741 -0.41071 0
M  V30 8607 H 792.815 -1.91708 -0.714779 0
M  V30 8608 H 792.825 -2.74782 -3.01594 0
M  V30 8609 H 791.5 -3.54155 -2.18052 0
M  V30 8610 H 790.077 -1.98999 -3.15363 0
M  V30 8611 N 792.262 0.832906 -1.33792 0
M  V30 8612 C 793.192 1.95828 -1.27176 0
M  V30 8613 C 794.173 1.69427 -0.15114 0
M  V30 8614 O 795.358 1.91167 -0.341886 0
M  V30 8615 C 792.488 3.32098 -1.01629 0
M  V30 8616 C 791.442 3.72912 -2.10049 0
M  V30 8617 C 790.768 5.07054 -1.69706 0
M  V30 8618 C 792.068 3.86064 -3.51783 0
M  V30 8619 H 793.762 2.01622 -2.21334 0
M  V30 8620 H 791.308 0.96866 -1.0655 0
M  V30 8621 H 793.261 4.10402 -0.956474 0
M  V30 8622 H 791.985 3.26577 -0.0390956 0
M  V30 8623 H 790.644 2.96876 -2.15082 0
M  V30 8624 H 790.292 4.9801 -0.706737 0
M  V30 8625 H 789.992 5.35333 -2.42264 0
M  V30 8626 H 791.516 5.87827 -1.65202 0
M  V30 8627 H 792.93 4.54665 -3.49218 0
M  V30 8628 H 791.327 4.25787 -4.22878 0
M  V30 8629 H 792.397 2.88344 -3.89854 0
M  V30 8630 N 793.74 1.17359 1.05189 0
M  V30 8631 C 794.67 0.91365 2.14883 0
M  V30 8632 C 795.651 -0.144365 1.69486 0
M  V30 8633 O 796.836 0.00587861 1.94199 0
M  V30 8634 C 793.966 0.426196 3.44675 0
M  V30 8635 C 792.92 1.4234 4.03638 0
M  V30 8636 C 792.246 0.793902 5.28773 0
M  V30 8637 C 793.546 2.7966 4.41121 0
M  V30 8638 H 795.24 1.831 2.36885 0
M  V30 8639 H 792.786 0.881781 1.13845 0
M  V30 8640 H 794.739 0.231767 4.20762 0
M  V30 8641 H 793.463 -0.526693 3.22325 0
M  V30 8642 H 792.122 1.60457 3.2962 0
M  V30 8643 H 791.77 -0.165824 5.02727 0
M  V30 8644 H 791.47 1.45959 5.69183 0
M  V30 8645 H 792.994 0.609747 6.07548 0
M  V30 8646 H 794.408 2.6526 5.08242 0
M  V30 8647 H 792.805 3.42807 4.92548 0
M  V30 8648 H 793.875 3.34068 3.51464 0
M  V30 8649 N 795.218 -1.23913 0.973828 0
M  V30 8650 C 796.148 -2.27453 0.527969 0
M  V30 8651 C 797.129 -1.6443 -0.435513 0
M  V30 8652 O 798.314 -1.9137 -0.330306 0
M  V30 8653 C 795.444 -3.4685 -0.176757 0
M  V30 8654 C 794.398 -4.22181 0.703352 0
M  V30 8655 C 793.724 -5.34534 -0.133215 0
M  V30 8656 C 795.024 -4.82865 1.99096 0
M  V30 8657 H 796.718 -2.65 1.3934 0
M  V30 8658 H 794.264 -1.27388 0.671446 0
M  V30 8659 H 796.217 -4.18424 -0.499934 0
M  V30 8660 H 794.941 -3.08346 -1.07659 0
M  V30 8661 H 793.6 -3.52416 1.00989 0
M  V30 8662 H 793.248 -4.92271 -1.03338 0
M  V30 8663 H 792.948 -5.85855 0.452494 0
M  V30 8664 H 794.472 -6.08933 -0.450924 0
M  V30 8665 H 795.886 -5.46481 1.73297 0
M  V30 8666 H 794.283 -5.44444 2.52389 0
M  V30 8667 H 795.353 -4.03977 2.68199 0
M  V30 8668 N 796.696 -0.74468 -1.38897 0
M  V30 8669 C 797.944 -0.296298 -1.99916 0
M  V30 8670 C 798.265 1.12325 -1.59399 0
M  V30 8671 O 797.535 1.76658 -0.846689 0
M  V30 8672 H 796.115 -0.106561 -0.73936 0
M  V30 8673 H 798.777 -0.956793 -1.69798 0
M  V30 8674 H 797.873 -0.352356 -3.10105 0
M  V30 8675 N 798.174 1.49689 -0.493057 0
M  V30 8676 C 799.422 2.02027 0.0541642 0
M  V30 8677 C 799.743 1.37554 1.38217 0
M  V30 8678 O 799.013 0.528174 1.88646 0
M  V30 8679 H 797.593 0.746646 0.0230069 0
M  V30 8680 H 800.255 1.83795 -0.648489 0
M  V30 8681 H 799.351 3.11523 0.189652 0
M  V30 8682 N 799.652 0.226554 1.55963 0
M  V30 8683 C 800.9 -0.402991 1.98041 0
M  V30 8684 C 801.221 -1.59938 1.11557 0
M  V30 8685 O 800.491 -1.9494 0.193719 0
M  V30 8686 H 799.071 -0.15188 0.731397 0
M  V30 8687 H 801.733 0.320613 1.92245 0
M  V30 8688 H 800.829 -0.725937 3.0354 0
M  V30 8689 N 801.13 -1.57531 -0.0467866 0
M  V30 8690 C 802.093 -2.04379 -1.03738 0
M  V30 8691 C 803.093 -0.944881 -1.3011 0
M  V30 8692 O 804.283 -1.20904 -1.25411 0
M  V30 8693 C 801.415 -2.44572 -2.37482 0
M  V30 8694 H 802.608 -2.93142 -0.633063 0
M  V30 8695 H 800.161 -1.53526 -0.293177 0
M  V30 8696 H 800.896 -1.58911 -2.82697 0
M  V30 8697 H 800.681 -3.24785 -2.19675 0
M  V30 8698 H 802.171 -2.81307 -3.08636 0
M  V30 8699 N 802.608 0.318715 -1.54344 0
M  V30 8700 C 803.856 1.054 -1.72439 0
M  V30 8701 C 804.177 1.88388 -0.503495 0
M  V30 8702 O 803.447 1.89866 0.48246 0
M  V30 8703 H 802.027 0.392124 -0.635805 0
M  V30 8704 H 804.689 0.35398 -1.91659 0
M  V30 8705 H 803.785 1.71726 -2.60608 0
M  V30 8706 N 804.086 1.46499 0.581025 0
M  V30 8707 C 805.018 1.53225 1.70455 0
M  V30 8708 C 806.031 0.420443 1.57277 0
M  V30 8709 O 807.22 0.688888 1.64671 0
M  V30 8710 C 804.32 1.39803 3.08721 0
M  V30 8711 C 803.493 2.65132 3.47884 0
M  V30 8712 C 802.552 2.45886 4.65217 0
M  V30 8713 O 801.578 3.19615 4.70993 0
M  V30 8714 N 802.78 1.5216 5.60203 0
M  V30 8715 H 805.545 2.50098 1.65139 0
M  V30 8716 H 803.106 1.42576 0.76705 0
M  V30 8717 H 805.098 1.24697 3.8501 0
M  V30 8718 H 803.668 0.51104 3.08394 0
M  V30 8719 H 802.888 2.95169 2.61284 0
M  V30 8720 H 804.176 3.48385 3.70817 0
M  V30 8721 H 803.574 0.913646 5.58273 0
M  V30 8722 H 802.131 1.43017 6.35916 0
M  V30 8723 N 805.565 -0.825799 1.34232 0
M  V30 8724 C 806.497 -1.94401 1.21413 0
M  V30 8725 C 807.51 -1.6218 0.141902 0
M  V30 8726 O 808.699 -1.74109 0.3935 0
M  V30 8727 C 805.799 -3.28257 0.842635 0
M  V30 8728 C 804.972 -3.88521 2.00924 0
M  V30 8729 C 804.031 -5.00752 1.61661 0
M  V30 8730 O 803.057 -5.19201 2.33279 0
M  V30 8731 N 804.259 -5.78084 0.52911 0
M  V30 8732 H 807.024 -2.05931 2.17744 0
M  V30 8733 H 804.585 -1.00223 1.27149 0
M  V30 8734 H 806.577 -4.00781 0.561822 0
M  V30 8735 H 805.147 -3.12585 -0.0304029 0
M  V30 8736 H 804.367 -3.08425 2.45495 0
M  V30 8737 H 805.655 -4.25516 2.78951 0
M  V30 8738 H 805.053 -5.65661 -0.0663322 0
M  V30 8739 H 803.61 -6.51072 0.308017 0
M  V30 8740 N 807.043 -1.17915 -1.04565 0
M  V30 8741 C 808.291 -0.969505 -1.77327 0
M  V30 8742 C 808.612 0.502569 -1.88412 0
M  V30 8743 O 807.882 1.36467 -1.40547 0
M  V30 8744 H 806.462 -0.355723 -0.656864 0
M  V30 8745 H 809.124 -1.48506 -1.26223 0
M  V30 8746 H 808.22 -1.40324 -2.78775 0
M  V30 8747 N 808.521 1.23394 -0.980386 0
M  V30 8748 C 809.932 1.73631 -0.686239 0
M  V30 8749 C 810.283 1.79259 0.797541 0
M  V30 8750 O 809.408 1.43046 1.62379 0
M  V30 8751 C 810.003 3.15332 -1.239 0
M  V30 8752 C 808.562 3.63024 -0.994494 0
M  V30 8753 C 807.709 2.41279 -1.36673 0
M  V30 8754 H 810.66 1.08918 -1.15423 0
M  V30 8755 H 810.681 3.75556 -0.611414 0
M  V30 8756 H 810.193 3.11204 -2.31892 0
M  V30 8757 H 808.294 3.72535 0.0693492 0
M  V30 8758 H 808.407 4.49825 -1.64906 0
M  V30 8759 H 806.771 2.42295 -0.785195 0
M  V30 8760 H 807.554 2.39822 -2.45642 0
M  V30 8761 N 809.999 0.752036 1.385 0
M  V30 8762 C 810.929 0.138718 2.33088 0
M  V30 8763 C 811.91 -0.705318 1.54788 0
M  V30 8764 O 813.095 -0.646821 1.83112 0
M  V30 8765 C 810.225 -0.75641 3.38963 0
M  V30 8766 C 809.179 -0.0152239 4.27997 0
M  V30 8767 C 808.505 -1.0285 5.24715 0
M  V30 8768 C 809.805 1.15226 5.09431 0
M  V30 8769 H 811.499 0.928852 2.84627 0
M  V30 8770 H 809.045 0.448111 1.3685 0
M  V30 8771 H 810.998 -1.19513 4.04097 0
M  V30 8772 H 809.722 -1.57885 2.85902 0
M  V30 8773 H 808.381 0.404061 3.64366 0
M  V30 8774 H 808.029 -1.84496 4.67943 0
M  V30 8775 H 807.729 -0.537238 5.85139 0
M  V30 8776 H 809.253 -1.46657 5.92726 0
M  V30 8777 H 810.667 0.791161 5.67815 0
M  V30 8778 H 809.064 1.57428 5.79082 0
M  V30 8779 H 810.134 1.9659 4.43261 0
M  V30 8780 N 811.477 -1.49425 0.500989 0
M  V30 8781 C 812.888 -1.86624 0.0532011 0
M  V30 8782 C 813.239 -1.41331 -1.36088 0
M  V30 8783 O 812.364 -0.791195 -2.01418 0
M  V30 8784 C 812.959 -3.38681 0.0897693 0
M  V30 8785 C 811.518 -3.75181 -0.302677 0
M  V30 8786 C 810.665 -2.73419 0.462307 0
M  V30 8787 H 813.616 -1.41743 0.713773 0
M  V30 8788 H 813.637 -3.73902 -0.705528 0
M  V30 8789 H 813.149 -3.71616 1.11907 0
M  V30 8790 H 811.25 -3.47855 -1.33521 0
M  V30 8791 H 811.363 -4.79097 0.0167653 0
M  V30 8792 H 809.727 -2.54548 -0.0878557 0
M  V30 8793 H 810.51 -3.09198 1.49169 0
M  V30 8794 N 812.955 -0.234822 -1.55841 0
M  V30 8795 C 814.371 0.120295 -1.59146 0
M  V30 8796 C 814.571 1.57896 -1.25184 0
M  V30 8797 O 813.627 2.32138 -0.993393 0
M  V30 8798 C 814.94 -0.217984 -2.99909 0
M  V30 8799 C 816.488 -0.161298 -3.12584 0
M  V30 8800 C 816.963 -0.473438 -4.55546 0
M  V30 8801 N 818.454 -0.423494 -4.6126 0
M  V30 8802 C 819.189 -0.638334 -5.69836 0
M  V30 8803 N 818.685 -0.915659 -6.86722 0
M  V30 8804 N 820.478 -0.569864 -5.59204 0
M  V30 8805 H 812.629 -1.18622 -1.76189 0
M  V30 8806 H 814.892 -0.476426 -0.819587 0
M  V30 8807 H 814.598 -1.2309 -3.29457 0
M  V30 8808 H 814.472 0.460707 -3.74376 0
M  V30 8809 H 816.859 0.842274 -2.82825 0
M  V30 8810 H 816.94 -0.873661 -2.40418 0
M  V30 8811 H 816.584 -1.47451 -4.86025 0
M  V30 8812 H 816.514 0.260268 -5.25956 0
M  V30 8813 H 819.005 -0.217383 -3.77274 0
M  V30 8814 H 819.318 -1.06734 -7.65394 0
M  V30 8815 H 817.663 -0.953 -6.88435 0
M  V30 8816 H 820.854 -0.35334 -4.66765 0
M  V30 8817 H 821.027 -0.740698 -6.43753 0
M  V30 8818 N 814.433 1.57553 0.0384317 0
M  V30 8819 C 815.658 1.93485 0.746872 0
M  V30 8820 C 816.083 0.834069 1.68597 0
M  V30 8821 O 815.441 -0.210902 1.80069 0
M  V30 8822 C 815.489 3.28463 1.4881 0
M  V30 8823 O 814.593 3.20051 2.60079 0
M  V30 8824 H 813.934 0.632675 0.201539 0
M  V30 8825 H 816.464 2.046 -0.00329815 0
M  V30 8826 H 816.474 3.63132 1.86009 0
M  V30 8827 H 815.149 4.08147 0.799297 0
M  V30 8828 H 813.726 2.96998 2.25492 0
M  V30 8829 N 815.911 -0.310526 1.54511 0
M  V30 8830 C 817.322 -0.884142 1.64438 0
M  V30 8831 C 817.673 -1.88425 0.546855 0
M  V30 8832 O 816.798 -2.14049 -0.31811 0
M  V30 8833 C 817.393 -1.6104 2.9808 0
M  V30 8834 C 815.952 -2.13255 3.1016 0
M  V30 8835 C 815.099 -0.96213 2.60074 0
M  V30 8836 H 818.05 -0.0877666 1.58457 0
M  V30 8837 H 818.071 -2.47541 2.8897 0
M  V30 8838 H 817.583 -0.882255 3.77939 0
M  V30 8839 H 815.684 -2.89145 2.35002 0
M  V30 8840 H 815.797 -2.37361 4.16169 0
M  V30 8841 H 814.161 -1.34501 2.16291 0
M  V30 8842 H 814.944 -0.248098 3.42402 0
M  V30 8843 N 817.389 -1.46805 -0.573248 0
M  V30 8844 C 818.319 -1.60951 -1.69165 0
M  V30 8845 C 819.3 -0.45948 -1.63777 0
M  V30 8846 O 820.485 -0.68688 -1.81647 0
M  V30 8847 C 817.615 -1.60844 -3.07809 0
M  V30 8848 C 816.569 -2.74913 -3.28035 0
M  V30 8849 C 815.895 -2.59871 -4.67302 0
M  V30 8850 C 817.195 -4.16654 -3.14955 0
M  V30 8851 H 818.889 -2.54574 -1.57582 0
M  V30 8852 H 816.435 -1.22516 -0.756686 0
M  V30 8853 H 818.388 -1.69334 -3.85881 0
M  V30 8854 H 817.112 -0.637714 -3.20314 0
M  V30 8855 H 815.771 -2.65908 -2.52366 0
M  V30 8856 H 815.419 -1.60861 -4.76585 0
M  V30 8857 H 815.119 -3.36386 -4.81786 0
M  V30 8858 H 816.643 -2.70265 -5.4753 0
M  V30 8859 H 818.057 -4.26721 -3.82861 0
M  V30 8860 H 816.454 -4.93831 -3.40956 0
M  V30 8861 H 817.524 -4.36146 -2.11908 0
M  V30 8862 N 818.867 0.818669 -1.34668 0
M  V30 8863 C 820.278 1.39177 -1.24446 0
M  V30 8864 C 820.629 1.9578 0.128268 0
M  V30 8865 O 819.754 1.90382 1.02877 0
M  V30 8866 C 820.349 2.53012 -2.25323 0
M  V30 8867 C 818.908 3.06218 -2.18878 0
M  V30 8868 C 818.055 1.79112 -2.11694 0
M  V30 8869 H 821.006 0.622709 -1.45973 0
M  V30 8870 H 821.027 3.31226 -1.8727 0
M  V30 8871 H 820.539 2.11784 -3.25221 0
M  V30 8872 H 818.64 3.51939 -1.22351 0
M  V30 8873 H 818.753 3.65019 -3.10319 0
M  V30 8874 H 817.117 2.0018 -1.57481 0
M  V30 8875 H 817.9 1.40053 -3.13433 0
M  V30 8876 N 820.346 1.18468 1.03938 0
M  V30 8877 C 821.278 0.870615 2.12021 0
M  V30 8878 C 822.291 -0.132318 1.62261 0
M  V30 8879 O 823.48 0.0956901 1.78243 0
M  V30 8880 C 820.58 0.279727 3.37744 0
M  V30 8881 C 819.753 1.32863 4.16733 0
M  V30 8882 C 818.812 0.753204 5.20781 0
M  V30 8883 O 817.838 1.42825 5.5099 0
M  V30 8884 N 819.04 -0.448664 5.78764 0
M  V30 8885 H 821.805 1.80091 2.39556 0
M  V30 8886 H 819.366 1.08524 1.20142 0
M  V30 8887 H 821.358 -0.118829 4.04526 0
M  V30 8888 H 819.928 -0.554621 3.07641 0
M  V30 8889 H 819.148 1.90245 3.45254 0
M  V30 8890 H 820.436 2.03574 4.66299 0
M  V30 8891 H 819.834 -1.01481 5.56523 0
M  V30 8892 H 818.391 -0.789125 6.47005 0
M  V30 8893 N 821.824 -1.22873 0.986916 0
M  V30 8894 C 823.235 -1.73264 0.695438 0
M  V30 8895 C 823.586 -1.79679 -0.788023 0
M  V30 8896 O 822.711 -1.43905 -1.61618 0
M  V30 8897 C 823.306 -3.14671 1.2557 0
M  V30 8898 C 821.865 -3.62492 1.01373 0
M  V30 8899 C 821.012 -2.40551 1.37951 0
M  V30 8900 H 823.963 -1.08304 1.15999 0
M  V30 8901 H 823.984 -3.75226 0.631322 0
M  V30 8902 H 823.496 -3.0997 2.33539 0
M  V30 8903 H 821.597 -3.72567 -0.0495917 0
M  V30 8904 H 821.71 -4.48944 1.67289 0
M  V30 8905 H 820.074 -2.41875 0.798033 0
M  V30 8906 H 820.857 -2.38516 2.46911 0
M  V30 8907 N 823.302 -0.75937 -1.38099 0
M  V30 8908 C 824.527 -0.327859 -2.04792 0
M  V30 8909 C 824.952 1.03752 -1.56899 0
M  V30 8910 O 824.31 1.66235 -0.723581 0
M  V30 8911 C 824.358 -0.366264 -3.58735 0
M  V30 8912 O 823.462 0.637697 -4.0744 0
M  V30 8913 H 822.803 -0.144092 -0.648177 0
M  V30 8914 H 825.333 -1.03211 -1.7666 0
M  V30 8915 H 825.343 -0.219179 -4.07411 0
M  V30 8916 H 824.018 -1.36243 -3.92951 0
M  V30 8917 H 822.595 0.454749 -3.70117 0
M  V30 8918 N 824.78 1.49157 -0.508906 0
M  V30 8919 C 825.728 2.30922 0.278906 0
M  V30 8920 C 826.722 1.39889 0.955382 0
M  V30 8921 O 827.928 1.56901 0.882169 0
M  V30 8922 H 824.303 0.744087 0.108805 0
M  V30 8923 H 826.274 2.95277 -0.430583 0
M  V30 8924 C 825.023 3.21432 1.32576 0
M  V30 8925 H 824.346 3.91413 0.814634 0
M  V30 8926 H 825.786 3.81568 1.84882 0
M  V30 8927 C 824.245 2.41583 2.34817 0
M  V30 8928 O 824.775 2.1256 3.40854 0
M  V30 8929 N 822.981 2.03462 2.07489 0
M  V30 8930 H 822.528 2.27265 1.21278 0
M  V30 8931 H 822.486 1.50345 2.76123 0
M  V30 8932 N 826.258 0.243083 1.55714 0
M  V30 8933 C 827.669 -0.260788 1.8487 0
M  V30 8934 C 828.02 -1.57879 1.16485 0
M  V30 8935 O 827.145 -2.1184 0.441908 0
M  V30 8936 C 827.74 -0.479954 3.35383 0
M  V30 8937 C 826.299 -0.928096 3.64778 0
M  V30 8938 C 825.446 -0.00316416 2.773 0
M  V30 8939 H 828.397 0.465743 1.51712 0
M  V30 8940 H 828.418 -1.32308 3.56756 0
M  V30 8941 H 827.93 0.479468 3.85127 0
M  V30 8942 H 826.031 -1.90012 3.20509 0
M  V30 8943 H 826.144 -0.7876 4.72582 0
M  V30 8944 H 824.508 -0.513849 2.49463 0
M  V30 8945 H 825.291 0.951562 3.29849 0
M  V30 8946 N 827.736 -1.57571 -0.0300757 0
M  V30 8947 C 829.013 -1.80381 -0.756447 0
M  V30 8948 C 829.393 -0.840906 -1.93628 0
M  V30 8949 O 828.741 0.117143 -2.282 0
M  V30 8950 C 828.951 -3.2807 -1.19043 0
M  V30 8951 C 830.299 -3.93025 -1.60676 0
M  V30 8952 O 831.323 -3.32213 -1.28503 0
M  V30 8953 O 830.182 -5.00092 -2.20386 0
M  V30 8954 H 827.276 -0.741737 -0.365725 0
M  V30 8955 H 829.822 -1.69699 -0.00693177 0
M  V30 8956 H 828.594 -3.89748 -0.348128 0
M  V30 8957 H 828.217 -3.43637 -1.99999 0
M  V30 8958 N 829.214 0.302327 -1.54673 0
M  V30 8959 C 830.439 1.06103 -1.78205 0
M  V30 8960 C 830.864 1.80204 -0.53926 0
M  V30 8961 O 830.222 1.73975 0.510142 0
M  V30 8962 C 830.27 2.01829 -2.98827 0
M  V30 8963 O 829.374 3.10108 -2.71858 0
M  V30 8964 H 828.715 0.30487 -0.589873 0
M  V30 8965 H 831.245 0.340153 -2.01753 0
M  V30 8966 H 831.255 2.44319 -3.2676 0
M  V30 8967 H 829.93 1.473 -3.88942 0
M  V30 8968 H 828.507 2.72142 -2.54937 0
M  V30 8969 N 830.692 1.47107 0.565454 0
M  V30 8970 C 832.108 1.32443 0.890566 0
M  V30 8971 C 832.308 0.308735 1.99121 0
M  V30 8972 O 831.364 -0.28265 2.50913 0
M  V30 8973 C 832.677 2.71548 1.2916 0
M  V30 8974 C 834.225 2.7977 1.40349 0
M  V30 8975 C 834.7 4.19497 1.83811 0
M  V30 8976 N 836.191 4.21998 1.90975 0
M  V30 8977 C 836.926 5.2702 2.25916 0
M  V30 8978 N 836.422 6.42353 2.59527 0
M  V30 8979 N 838.215 5.14393 2.26619 0
M  V30 8980 H 830.366 2.11786 -0.161328 0
M  V30 8981 H 832.629 0.947952 -0.00950631 0
M  V30 8982 H 832.335 3.47265 0.556753 0
M  V30 8983 H 832.209 3.02782 2.24951 0
M  V30 8984 H 834.596 2.0433 2.12916 0
M  V30 8985 H 834.677 2.522 0.427655 0
M  V30 8986 H 834.321 4.95439 1.11816 0
M  V30 8987 H 834.251 4.44486 2.82382 0
M  V30 8988 H 836.742 3.38791 1.6742 0
M  V30 8989 H 837.055 7.18252 2.85191 0
M  V30 8990 H 835.4 6.45687 2.57126 0
M  V30 8991 H 838.591 4.2332 1.99794 0
M  V30 8992 H 838.764 5.96349 2.5352 0
M  V30 8993 N 832.17 -0.811516 1.35101 0
M  V30 8994 C 833.12 -1.91227 1.24163 0
M  V30 8995 C 834.104 -1.60307 0.138012 0
M  V30 8996 O 835.296 -1.73116 0.368767 0
M  V30 8997 C 832.425 -3.2808 1.01085 0
M  V30 8998 C 831.511 -3.65082 2.15815 0
M  V30 8999 N 831.902 -3.73558 3.4101 0
M  V30 9000 C 830.2 -3.95005 2.07092 0
M  V30 9001 C 830.901 -4.06158 4.16426 0
M  V30 9002 N 829.877 -4.19982 3.45132 0
M  V30 9003 H 833.679 -1.95975 2.19023 0
M  V30 9004 H 831.193 -1.00583 1.27503 0
M  V30 9005 H 833.19 -4.06771 0.913382 0
M  V30 9006 H 831.85 -3.24622 0.0710406 0
M  V30 9007 H 832.861 -3.56761 3.75423 0
M  V30 9008 H 829.538 -3.99601 1.20937 0
M  V30 9009 H 830.928 -4.19824 5.24592 0
M  V30 9010 N 833.648 -1.19017 -1.03309 0
M  V30 9011 C 834.896 -0.988258 -1.76289 0
M  V30 9012 C 835.217 0.482557 -1.88935 0
M  V30 9013 O 834.487 1.34969 -1.41987 0
M  V30 9014 H 833.067 -0.36267 -0.653054 0
M  V30 9015 H 835.729 -1.49836 -1.2464 0
M  V30 9016 H 834.825 -1.43273 -2.77271 0
M  V30 9017 N 835.127 1.22348 -0.993418 0
M  V30 9018 C 836.037 2.27987 -0.553076 0
M  V30 9019 C 837.053 1.69378 0.398386 0
M  V30 9020 O 838.229 1.99648 0.26509 0
M  V30 9021 C 835.294 3.46475 0.124809 0
M  V30 9022 C 834.355 4.20399 -0.869682 0
M  V30 9023 C 833.588 5.33229 -0.224052 0
M  V30 9024 O 833.811 5.61885 0.981915 0
M  V30 9025 O 832.745 5.94685 -0.929174 0
M  V30 9026 H 836.571 2.67822 -1.43195 0
M  V30 9027 H 834.156 1.28525 -0.761694 0
M  V30 9028 H 836.038 4.18369 0.504496 0
M  V30 9029 H 834.713 3.08565 0.978243 0
M  V30 9030 H 833.62 3.50774 -1.30031 0
M  V30 9031 H 834.953 4.62191 -1.69233 0
M  V30 9032 N 836.605 0.766683 1.37694 0
M  V30 9033 C 837.882 0.25366 1.93948 0
M  V30 9034 C 838.262 -1.25041 1.70082 0
M  V30 9035 O 837.61 -2.03115 1.04674 0
M  V30 9036 C 837.82 0.621549 3.43421 0
M  V30 9037 C 839.168 0.588504 4.20502 0
M  V30 9038 O 840.192 0.560632 3.5176 0
M  V30 9039 O 839.051 0.61107 5.43073 0
M  V30 9040 H 836.145 0.0570586 0.825029 0
M  V30 9041 H 838.691 0.847693 1.47011 0
M  V30 9042 H 837.463 1.65979 3.54354 0
M  V30 9043 H 837.086 0.000197027 3.976 0
M  V30 9044 N 838.083 -1.48885 0.516809 0
M  V30 9045 C 838.993 -2.33185 -0.257293 0
M  V30 9046 C 840.009 -1.4565 -0.951952 0
M  V30 9047 O 841.185 -1.78651 -0.929834 0
M  V30 9048 C 838.25 -3.21465 -1.29851 0
M  V30 9049 C 837.311 -4.24863 -0.615608 0
M  V30 9050 C 836.544 -5.08925 -1.60722 0
M  V30 9051 O 836.767 -4.9475 -2.83863 0
M  V30 9052 O 835.701 -5.90737 -1.15384 0
M  V30 9053 H 839.527 -3.00596 0.433131 0
M  V30 9054 H 837.112 -1.46792 0.277908 0
M  V30 9055 H 838.994 -3.76108 -1.90055 0
M  V30 9056 H 837.669 -2.5673 -1.97158 0
M  V30 9057 H 836.576 -3.74091 0.0265829 0
M  V30 9058 H 837.909 -4.92198 0.0152871 0
M  V30 9059 N 839.561 -0.251338 -1.55583 0
M  V30 9060 C 840.511 0.660351 -2.18228 0
M  V30 9061 C 841.495 1.13596 -1.13951 0
M  V30 9062 O 842.687 1.08499 -1.39846 0
M  V30 9063 C 839.816 1.85498 -2.88869 0
M  V30 9064 C 838.902 1.39767 -4.00407 0
M  V30 9065 N 839.293 0.654876 -5.01543 0
M  V30 9066 C 837.591 1.68259 -4.13044 0
M  V30 9067 C 838.292 0.417521 -5.802 0
M  V30 9068 N 837.268 0.983032 -5.34638 0
M  V30 9069 H 841.07 0.0847425 -2.93778 0
M  V30 9070 H 838.584 -0.0538456 -1.62311 0
M  V30 9071 H 840.581 2.51916 -3.3218 0
M  V30 9072 H 839.241 2.43477 -2.14823 0
M  V30 9073 H 840.252 0.304545 -5.17004 0
M  V30 9074 H 836.929 2.27344 -3.50172 0
M  V30 9075 H 838.319 -0.175764 -6.7167 0
M  V30 9076 N 841.039 1.57585 0.0217189 0
M  V30 9077 C 841.971 2.03849 1.04777 0
M  V30 9078 C 842.984 0.952558 1.32023 0
M  V30 9079 O 844.173 1.22974 1.29381 0
M  V30 9080 C 841.273 2.40504 2.3877 0
M  V30 9081 C 840.446 3.71566 2.30775 0
M  V30 9082 C 839.505 3.95329 3.47277 0
M  V30 9083 O 838.531 4.66289 3.26441 0
M  V30 9084 N 839.733 3.41536 4.69397 0
M  V30 9085 H 842.498 2.92491 0.653395 0
M  V30 9086 H 840.059 1.60538 0.209527 0
M  V30 9087 H 842.051 2.53532 3.15442 0
M  V30 9088 H 840.621 1.57494 2.70027 0
M  V30 9089 H 839.841 3.68822 1.39155 0
M  V30 9090 H 841.129 4.5753 2.22584 0
M  V30 9091 H 840.527 2.84033 4.89226 0
M  V30 9092 H 839.084 3.59932 5.43408 0
M  V30 9093 N 842.517 -0.29412 1.54831 0
M  V30 9094 C 843.928 -0.866651 1.65366 0
M  V30 9095 C 844.279 -1.87834 0.56681 0
M  V30 9096 O 843.404 -2.14374 -0.295389 0
M  V30 9097 C 843.999 -1.57869 2.99771 0
M  V30 9098 C 842.558 -2.09954 3.12404 0
M  V30 9099 C 841.705 -0.934492 2.6108 0
M  V30 9100 H 844.656 -0.0709551 1.58541 0
M  V30 9101 H 844.677 -2.44462 2.91579 0
M  V30 9102 H 844.189 -0.84212 3.78853 0
M  V30 9103 H 842.29 -2.86637 2.38055 0
M  V30 9104 H 842.403 -2.32934 4.18663 0
M  V30 9105 H 840.767 -1.32199 2.17705 0
M  V30 9106 H 841.55 -0.211768 3.42646 0
M  V30 9107 N 843.995 -1.47404 -0.557645 0
M  V30 9108 C 845.406 -1.47872 -1.13977 0
M  V30 9109 C 845.757 -0.233176 -1.94809 0
M  V30 9110 O 844.882 0.661945 -2.06027 0
M  V30 9111 C 845.477 -2.67926 -2.07368 0
M  V30 9112 C 844.036 -2.71354 -2.60852 0
M  V30 9113 C 843.183 -2.40967 -1.37223 0
M  V30 9114 H 846.134 -1.54921 -0.344268 0
M  V30 9115 H 846.155 -2.44871 -2.91236 0
M  V30 9116 H 845.667 -3.58562 -1.48509 0
M  V30 9117 H 843.768 -1.84855 -3.23511 0
M  V30 9118 H 843.881 -3.72032 -3.01876 0
M  V30 9119 H 842.245 -1.91541 -1.67882 0
M  V30 9120 H 843.028 -3.33811 -0.801583 0
M  V30 9121 N 845.473 0.80434 -1.35529 0
M  V30 9122 C 846.884 1.37849 -1.25915 0
M  V30 9123 C 847.235 1.95905 0.107495 0
M  V30 9124 O 846.36 1.91462 1.00852 0
M  V30 9125 C 846.955 2.50608 -2.27994 0
M  V30 9126 C 845.514 3.03879 -2.22114 0
M  V30 9127 C 844.661 1.76856 -2.13582 0
M  V30 9128 H 847.612 0.607192 -1.46625 0
M  V30 9129 H 847.633 3.29221 -1.90772 0
M  V30 9130 H 847.145 2.08323 -3.27449 0
M  V30 9131 H 845.246 3.50622 -1.26077 0
M  V30 9132 H 845.359 3.61707 -3.14173 0
M  V30 9133 H 843.723 1.98498 -1.59595 0
M  V30 9134 H 844.506 1.36721 -3.14901 0
M  V30 9135 N 846.951 1.19563 1.02676 0
M  V30 9136 C 848.179 1.02488 1.79732 0
M  V30 9137 C 848.594 -0.426302 1.83924 0
M  V30 9138 O 847.951 -1.29609 1.28483 0
M  V30 9139 C 848.002 1.58944 3.24683 0
M  V30 9140 O 847.723 2.98382 3.2078 0
M  V30 9141 C 849.224 1.46681 4.1833 0
M  V30 9142 H 846.444 0.361098 0.565552 0
M  V30 9143 H 848.988 1.58426 1.29311 0
M  V30 9144 H 847.143 1.0715 3.72287 0
M  V30 9145 H 847.557 3.24983 4.11687 0
M  V30 9146 H 849.031 1.90959 5.17918 0
M  V30 9147 H 849.508 0.417663 4.3721 0
M  V30 9148 H 850.114 1.97616 3.76601 0
M  V30 9149 N 848.429 -1.21819 0.999893 0
M  V30 9150 C 849.654 -1.95298 0.698094 0
M  V30 9151 C 850.079 -1.73273 -0.731982 0
M  V30 9152 O 849.437 -1.01634 -1.50134 0
M  V30 9153 C 849.485 -3.45922 1.01834 0
M  V30 9154 O 848.589 -4.12223 0.120801 0
M  V30 9155 H 847.93 -0.610729 0.260588 0
M  V30 9156 H 850.46 -1.5472 1.33876 0
M  V30 9157 H 850.47 -3.96471 0.963074 0
M  V30 9158 H 849.145 -3.61278 2.06037 0
M  V30 9159 H 847.722 -3.72177 0.232153 0
M  V30 9160 N 849.908 -0.773975 -1.37286 0
M  V30 9161 C 850.818 -0.162571 -2.34036 0
M  V30 9162 C 851.834 0.677022 -1.60289 0
M  V30 9163 O 853.01 0.596423 -1.92366 0
M  V30 9164 C 850.075 0.70457 -3.39465 0
M  V30 9165 C 849.136 -0.151738 -4.29032 0
M  V30 9166 C 848.369 0.674111 -5.29426 0
M  V30 9167 O 848.592 1.91107 -5.37433 0
M  V30 9168 O 847.526 0.0821398 -6.01844 0
M  V30 9169 H 851.352 -0.962119 -2.88057 0
M  V30 9170 H 848.937 -0.53517 -1.39486 0
M  V30 9171 H 850.819 1.19954 -4.03967 0
M  V30 9172 H 849.494 1.48227 -2.87768 0
M  V30 9173 H 848.401 -0.693118 -3.67623 0
M  V30 9174 H 849.734 -0.892575 -4.84039 0
M  V30 9175 N 851.386 1.48609 -0.524698 0
M  V30 9176 C 852.316 2.32366 0.229837 0
M  V30 9177 C 853.297 1.41759 0.940129 0
M  V30 9178 O 854.482 1.7065 0.926936 0
M  V30 9179 C 851.612 3.22835 1.28043 0
M  V30 9180 C 850.566 4.22424 0.688603 0
M  V30 9181 C 849.892 5.0199 1.84146 0
M  V30 9182 C 851.192 5.21217 -0.336176 0
M  V30 9183 H 852.886 2.95698 -0.469339 0
M  V30 9184 H 850.432 1.42197 -0.227156 0
M  V30 9185 H 852.385 3.80253 1.8162 0
M  V30 9186 H 851.109 2.57492 2.00912 0
M  V30 9187 H 849.768 3.66185 0.174402 0
M  V30 9188 H 849.416 4.33076 2.5584 0
M  V30 9189 H 849.116 5.69392 1.45142 0
M  V30 9190 H 850.64 5.62259 2.38111 0
M  V30 9191 H 852.054 5.7319 0.112307 0
M  V30 9192 H 850.451 5.96642 -0.643324 0
M  V30 9193 H 851.521 4.68676 -1.24381 0
M  V30 9194 N 852.864 0.259585 1.55447 0
M  V30 9195 C 853.827 -0.621359 2.20617 0
M  V30 9196 C 854.827 -1.09317 1.17925 0
M  V30 9197 O 856.017 -0.995842 1.42929 0
M  V30 9198 C 853.149 -1.85546 2.85982 0
M  V30 9199 H 854.342 -0.0525833 2.99854 0
M  V30 9200 H 851.895 0.0101055 1.56297 0
M  V30 9201 H 852.63 -2.46515 2.10715 0
M  V30 9202 H 852.415 -1.52523 3.61219 0
M  V30 9203 H 853.905 -2.48227 3.35817 0
M  V30 9204 N 854.342 -1.57594 -0.0133615 0
M  V30 9205 C 855.753 -1.78168 -0.557937 0
M  V30 9206 C 856.104 -0.892616 -1.74719 0
M  V30 9207 O 855.229 -0.0915491 -2.16206 0
M  V30 9208 C 855.824 -3.23115 -1.01894 0
M  V30 9209 C 854.383 -3.44831 -1.50892 0
M  V30 9210 C 853.53 -2.73558 -0.454044 0
M  V30 9211 H 856.481 -1.57266 0.212843 0
M  V30 9212 H 856.502 -3.30493 -1.8856 0
M  V30 9213 H 856.014 -3.87798 -0.153175 0
M  V30 9214 H 854.115 -2.85345 -2.39602 0
M  V30 9215 H 854.228 -4.53485 -1.54559 0
M  V30 9216 H 852.592 -2.37787 -0.912666 0
M  V30 9217 H 853.375 -3.40932 0.402524 0
M  V30 9218 N 855.82 0.285905 -1.54985 0
M  V30 9219 C 857.068 1.01718 -1.74636 0
M  V30 9220 C 857.389 1.87277 -0.543342 0
M  V30 9221 O 856.659 1.90847 0.442078 0
M  V30 9222 H 855.239 0.378549 -0.643979 0
M  V30 9223 H 857.901 0.313247 -1.92366 0
M  V30 9224 H 856.997 1.66159 -2.64192 0
M  V30 9225 N 857.298 1.47698 0.54982 0
M  V30 9226 C 858.261 1.60282 1.63837 0
M  V30 9227 C 859.261 0.477394 1.5355 0
M  V30 9228 O 860.451 0.742665 1.57576 0
M  V30 9229 C 857.583 1.55431 3.03404 0
M  V30 9230 H 858.776 2.57325 1.54026 0
M  V30 9231 H 856.329 1.35999 0.770329 0
M  V30 9232 H 857.064 0.597912 3.1874 0
M  V30 9233 H 856.849 2.37116 3.12279 0
M  V30 9234 H 858.339 1.6739 3.82584 0
M  V30 9235 N 858.776 -0.797141 1.35954 0
M  V30 9236 C 860.022 -1.55698 1.29946 0
M  V30 9237 C 860.355 -1.93808 -0.123259 0
M  V30 9238 O 859.63 -1.62102 -1.07486 0
M  V30 9239 C 859.913 -2.83926 2.2149 0
M  V30 9240 C 859.766 -2.52232 3.72423 0
M  V30 9241 C 861.085 -3.85698 2.11955 0
M  V30 9242 H 858.204 -0.56488 0.47337 0
M  V30 9243 H 860.846 -0.916421 1.66438 0
M  V30 9244 H 858.996 -3.38588 1.905 0
M  V30 9245 H 860.668 -2.0368 4.13899 0
M  V30 9246 H 858.911 -1.85286 3.92239 0
M  V30 9247 H 859.582 -3.43782 4.31877 0
M  V30 9248 H 862.058 -3.40462 2.39218 0
M  V30 9249 H 860.934 -4.73182 2.78191 0
M  V30 9250 H 861.195 -4.28083 1.10442 0
M  V30 9251 N 860.254 -1.20106 -1.0204 0
M  V30 9252 C 861.531 -0.918029 -1.72718 0
M  V30 9253 C 861.911 0.574163 -2.03142 0
M  V30 9254 O 861.259 1.53476 -1.69285 0
M  V30 9255 C 861.469 -1.78698 -2.9978 0
M  V30 9256 C 862.817 -2.02648 -3.7312 0
M  V30 9257 O 863.841 -1.75919 -3.09727 0
M  V30 9258 O 862.7 -2.47767 -4.87107 0
M  V30 9259 H 859.794 -0.342904 -0.752559 0
M  V30 9260 H 862.34 -1.30961 -1.07923 0
M  V30 9261 H 861.112 -2.79757 -2.7359 0
M  V30 9262 H 860.735 -1.39522 -3.72316 0
M  V30 9263 N 861.732 1.21287 -1.00634 0
M  V30 9264 C 862.978 1.90671 -0.690822 0
M  V30 9265 C 863.311 1.77996 0.776592 0
M  V30 9266 O 862.586 1.15748 1.5631 0
M  V30 9267 C 862.869 3.42426 -1.11428 0
M  V30 9268 C 862.722 3.64086 -2.64124 0
M  V30 9269 C 864.041 4.34851 -0.677686 0
M  V30 9270 H 861.16 0.692419 -0.252439 0
M  V30 9271 H 863.802 1.42893 -1.25226 0
M  V30 9272 H 861.952 3.83249 -0.636586 0
M  V30 9273 H 863.624 3.32582 -3.19667 0
M  V30 9274 H 861.867 3.07906 -3.05576 0
M  V30 9275 H 862.538 4.7042 -2.88806 0
M  V30 9276 H 865.014 4.01619 -1.0882 0
M  V30 9277 H 863.89 5.39675 -1.00213 0
M  V30 9278 H 864.151 4.4009 0.421125 0
M  V30 9279 N 863.21 0.781244 1.36873 0
M  V30 9280 C 864.435 0.360398 2.04245 0
M  V30 9281 C 864.86 -1.01242 1.58529 0
M  V30 9282 O 864.218 -1.65063 0.749936 0
M  V30 9283 C 864.266 0.42329 3.58107 0
M  V30 9284 O 863.37 -0.572796 4.08403 0
M  V30 9285 H 862.711 0.154386 0.645803 0
M  V30 9286 H 865.241 1.06008 1.74996 0
M  V30 9287 H 865.251 0.283967 4.07011 0
M  V30 9288 H 863.926 1.42477 3.90734 0
M  V30 9289 H 862.503 -0.395809 3.70793 0
M  V30 9290 N 864.689 -1.48329 0.532571 0
M  V30 9291 C 865.652 -2.2816 -0.218069 0
M  V30 9292 C 866.652 -1.35526 -0.865409 0
M  V30 9293 O 867.842 -1.58394 -0.725061 0
M  V30 9294 C 864.974 -3.1448 -1.31586 0
M  V30 9295 H 866.167 -2.95987 0.482865 0
M  V30 9296 H 863.72 -1.53612 0.288603 0
M  V30 9297 H 864.455 -2.5129 -2.04997 0
M  V30 9298 H 864.24 -3.82625 -0.856779 0
M  V30 9299 H 865.73 -3.74693 -1.84377 0
M  V30 9300 N 866.167 -0.267825 -1.55308 0
M  V30 9301 C 867.414 0.351036 -1.99434 0
M  V30 9302 C 867.742 1.56406 -1.15618 0
M  V30 9303 O 866.997 1.94548 -0.212045 0
M  V30 9304 C 867.296 0.784247 -3.48689 0
M  V30 9305 C 866.962 -0.323328 -4.49739 0
M  V30 9306 C 865.624 -0.627467 -4.77091 0
M  V30 9307 C 867.976 -1.07002 -5.10098 0
M  V30 9308 C 865.304 -1.682 -5.62073 0
M  V30 9309 C 867.656 -2.11422 -5.96224 0
M  V30 9310 C 866.32 -2.42479 -6.21901 0
M  V30 9311 H 865.59 0.128453 -0.729781 0
M  V30 9312 H 868.237 -0.380018 -1.87692 0
M  V30 9313 H 866.542 1.59485 -3.57871 0
M  V30 9314 H 868.239 1.2737 -3.80234 0
M  V30 9315 H 864.829 -0.0761528 -4.28532 0
M  V30 9316 H 869.013 -0.848302 -4.88996 0
M  V30 9317 H 864.269 -1.92772 -5.80215 0
M  V30 9318 H 868.443 -2.69759 -6.4203 0
M  V30 9319 H 866.07 -3.24328 -6.87543 0
M  V30 9320 N 867.645 1.57599 0.00500368 0
M  V30 9321 C 868.922 1.81561 0.727654 0
M  V30 9322 C 869.302 0.871604 1.92266 0
M  V30 9323 O 868.65 -0.0808232 2.28357 0
M  V30 9324 C 868.86 3.29922 1.13809 0
M  V30 9325 C 870.208 3.95531 1.54403 0
M  V30 9326 O 871.232 3.34215 1.23202 0
M  V30 9327 O 870.091 5.03535 2.12402 0
M  V30 9328 H 867.185 0.747462 0.353878 0
M  V30 9329 H 869.731 1.69688 -0.0200667 0
M  V30 9330 H 868.503 3.90253 0.286078 0
M  V30 9331 H 868.126 3.46775 1.94507 0
M  V30 9332 N 869.123 -0.277682 1.55134 0
M  V30 9333 C 870.086 -1.32635 1.86924 0
M  V30 9334 C 871.086 -1.42578 0.743507 0
M  V30 9335 O 872.276 -1.4181 1.01171 0
M  V30 9336 C 869.408 -2.70832 2.07034 0
M  V30 9337 H 870.601 -1.0568 2.80663 0
M  V30 9338 H 868.154 -0.515517 1.47554 0
M  V30 9339 H 868.889 -3.02974 1.15661 0
M  V30 9340 H 868.674 -2.65001 2.88993 0
M  V30 9341 H 870.164 -3.46611 2.32918 0
M  V30 9342 N 870.601 -1.47988 -0.541979 0
M  V30 9343 C 871.849 -1.55086 -1.29587 0
M  V30 9344 C 872.17 -0.221304 -1.9374 0
M  V30 9345 O 871.44 0.756128 -1.80719 0
M  V30 9346 H 870.02 -0.571307 -0.481266 0
M  V30 9347 H 872.682 -1.8438 -0.631675 0
M  V30 9348 H 871.778 -2.32556 -2.08144 0
M  V30 9349 N 872.079 0.78992 -1.36375 0
M  V30 9350 C 873.011 1.91113 -1.26524 0
M  V30 9351 C 874.024 1.61747 -0.184851 0
M  V30 9352 O 875.213 1.73004 -0.439524 0
M  V30 9353 C 872.313 3.25908 -0.92937 0
M  V30 9354 C 871.486 3.83057 -2.11154 0
M  V30 9355 C 870.545 4.96289 -1.74881 0
M  V30 9356 O 869.571 5.12834 -2.46962 0
M  V30 9357 N 870.773 5.76478 -0.682193 0
M  V30 9358 H 873.538 2.00085 -2.23128 0
M  V30 9359 H 871.099 0.968165 -1.29762 0
M  V30 9360 H 873.091 3.99151 -0.667884 0
M  V30 9361 H 871.661 3.12556 -0.0524843 0
M  V30 9362 H 870.881 3.01808 -2.53586 0
M  V30 9363 H 872.169 4.1797 -2.90135 0
M  V30 9364 H 871.567 5.65638 -0.0836661 0
M  V30 9365 H 870.124 6.50026 -0.480529 0
M  V30 9366 N 873.557 1.20646 1.01402 0
M  V30 9367 C 874.504 0.957618 2.09996 0
M  V30 9368 C 875.474 -0.113115 1.65714 0
M  V30 9369 O 876.659 0.032142 1.90773 0
M  V30 9370 C 873.799 0.5186 3.41181 0
M  V30 9371 C 872.912 1.65777 3.98926 0
M  V30 9372 C 872.047 1.16881 5.18182 0
M  V30 9373 C 871.086 2.2809 5.68015 0
M  V30 9374 N 870.223 1.80392 6.7853 0
M  V30 9375 H 875.063 1.88732 2.30617 0
M  V30 9376 H 872.6 0.940703 1.13089 0
M  V30 9377 H 874.558 0.245367 4.16478 0
M  V30 9378 H 873.188 -0.3741 3.20625 0
M  V30 9379 H 872.24 2.04586 3.207 0
M  V30 9380 H 873.552 2.49507 4.31912 0
M  V30 9381 H 872.706 0.851694 6.00692 0
M  V30 9382 H 871.445 0.301434 4.86768 0
M  V30 9383 H 870.45 2.60614 4.84108 0
M  V30 9384 H 871.675 3.15308 6.01463 0
M  V30 9385 H 869.621 0.959856 6.4894 0
M  V30 9386 H 869.538 2.57701 7.10722 0
M  V30 9387 H 870.806 1.51688 7.64598 0
M  V30 9388 N 875.035 -1.20752 1.01276 0
M  V30 9389 C 875.982 -2.234 0.579732 0
M  V30 9390 C 876.952 -1.61256 -0.398206 0
M  V30 9391 O 878.137 -1.8845 -0.29851 0
M  V30 9392 C 875.277 -3.45008 -0.0797006 0
M  V30 9393 C 874.39 -4.21597 0.942343 0
M  V30 9394 C 873.525 -5.30591 0.254364 0
M  V30 9395 C 872.564 -5.98919 1.26343 0
M  V30 9396 N 871.701 -6.99511 0.602384 0
M  V30 9397 H 876.541 -2.59801 1.45971 0
M  V30 9398 H 874.078 -1.27663 0.730787 0
M  V30 9399 H 876.036 -4.1444 -0.479125 0
M  V30 9400 H 874.666 -3.09312 -0.923354 0
M  V30 9401 H 873.718 -3.51268 1.45996 0
M  V30 9402 H 875.03 -4.68576 1.70992 0
M  V30 9403 H 874.184 -6.06368 -0.200763 0
M  V30 9404 H 872.923 -4.84639 -0.545553 0
M  V30 9405 H 871.928 -5.21906 1.72898 0
M  V30 9406 H 873.153 -6.46957 2.06456 0
M  V30 9407 H 871.099 -6.55759 -0.177734 0
M  V30 9408 H 871.016 -7.44597 1.30809 0
M  V30 9409 H 872.284 -7.79313 0.17072 0
M  V30 9410 N 876.513 -0.788492 -1.36457 0
M  V30 9411 C 877.741 -0.372365 -2.03522 0
M  V30 9412 C 878.156 1.01093 -1.59454 0
M  V30 9413 O 877.513 1.64824 -0.783535 0
M  V30 9414 C 877.564 -0.425435 -3.58988 0
M  V30 9415 O 877.285 -1.75418 -4.01448 0
M  V30 9416 C 878.786 0.000180167 -4.433 0
M  V30 9417 H 876.006 -0.1536 -0.653183 0
M  V30 9418 H 878.55 -1.06708 -1.74452 0
M  V30 9419 H 876.705 0.220856 -3.8677 0
M  V30 9420 H 877.119 -1.70437 -4.96036 0
M  V30 9421 H 878.593 -0.0880919 -5.5193 0
M  V30 9422 H 879.07 1.05269 -4.26398 0
M  V30 9423 H 879.676 -0.618563 -4.20778 0
M  V30 9424 N 877.991 1.48044 -0.54043 0
M  V30 9425 C 879.238 2.02497 -0.0101567 0
M  V30 9426 C 879.566 1.41651 1.33286 0
M  V30 9427 O 878.821 0.555504 1.8765 0
M  V30 9428 C 879.12 3.57085 0.150008 0
M  V30 9429 C 878.786 4.36769 -1.11998 0
M  V30 9430 C 877.448 4.58261 -1.46801 0
M  V30 9431 C 879.8 4.82848 -1.96232 0
M  V30 9432 C 877.128 5.23079 -2.65717 0
M  V30 9433 C 879.48 5.48977 -3.14335 0
M  V30 9434 C 878.144 5.68705 -3.49472 0
M  V30 9435 H 877.414 0.740991 -0.00371661 0
M  V30 9436 H 880.061 1.77909 -0.708562 0
M  V30 9437 H 878.366 3.80572 0.931259 0
M  V30 9438 H 880.063 3.96851 0.575384 0
M  V30 9439 H 876.653 4.20309 -0.838957 0
M  V30 9440 H 880.837 4.66038 -1.70654 0
M  V30 9441 H 876.093 5.36549 -2.93129 0
M  V30 9442 H 880.267 5.83649 -3.79904 0
M  V30 9443 H 877.894 6.18703 -4.41713 0
M  V30 9444 N 879.47 0.276058 1.55163 0
M  V30 9445 C 880.4 -0.604633 2.25536 0
M  V30 9446 C 881.381 -1.15813 1.24585 0
M  V30 9447 O 882.566 -1.1921 1.53306 0
M  V30 9448 C 879.696 -1.78836 2.97716 0
M  V30 9449 C 878.65 -1.36635 4.05604 0
M  V30 9450 C 877.976 -2.63325 4.65364 0
M  V30 9451 C 879.276 -0.515858 5.19746 0
M  V30 9452 H 880.97 -0.0177483 2.99395 0
M  V30 9453 H 878.516 -0.00709627 1.43998 0
M  V30 9454 H 880.469 -2.41036 3.45658 0
M  V30 9455 H 879.193 -2.40109 2.21394 0
M  V30 9456 H 877.852 -0.767541 3.58475 0
M  V30 9457 H 877.5 -3.22858 3.85709 0
M  V30 9458 H 877.2 -2.358 5.38212 0
M  V30 9459 H 878.724 -3.26372 5.16056 0
M  V30 9460 H 880.138 -1.04289 5.63735 0
M  V30 9461 H 878.535 -0.335449 5.99162 0
M  V30 9462 H 879.605 0.465137 4.82664 0
M  V30 9463 N 880.948 -1.576 0.00335426 0
M  V30 9464 C 882.173 -1.95398 -0.695311 0
M  V30 9465 C 882.598 -0.878476 -1.66326 0
M  V30 9466 O 881.956 0.163086 -1.80565 0
M  V30 9467 C 882.004 -3.32293 -1.40049 0
M  V30 9468 O 881.108 -3.26834 -2.51502 0
M  V30 9469 H 880.449 -0.637796 -0.184694 0
M  V30 9470 H 882.979 -2.04519 0.057543 0
M  V30 9471 H 882.989 -3.67936 -1.76316 0
M  V30 9472 H 881.664 -4.10123 -0.690803 0
M  V30 9473 H 880.241 -3.02872 -2.17539 0
M  V30 9474 N 882.426 0.269451 -1.5528 0
M  V30 9475 C 883.389 1.31642 -1.87625 0
M  V30 9476 C 884.389 1.42182 -0.751058 0
M  V30 9477 O 885.579 1.41272 -1.01921 0
M  V30 9478 C 882.711 2.6973 -2.08467 0
M  V30 9479 H 883.904 1.0419 -2.81219 0
M  V30 9480 H 881.457 0.507685 -1.47825 0
M  V30 9481 H 882.192 3.02356 -1.17266 0
M  V30 9482 H 881.977 2.63465 -2.90394 0
M  V30 9483 H 883.467 3.4537 -2.34753 0
M  V30 9484 N 883.904 1.48273 0.534124 0
M  V30 9485 C 884.814 1.65162 1.66609 0
M  V30 9486 C 885.83 0.534177 1.65598 0
M  V30 9487 O 887.006 0.804715 1.84625 0
M  V30 9488 C 884.071 1.68354 3.03081 0
M  V30 9489 C 883.132 2.91696 3.1498 0
M  V30 9490 C 882.365 2.94725 4.44941 0
M  V30 9491 O 882.588 2.06285 5.31792 0
M  V30 9492 O 881.522 3.8685 4.61119 0
M  V30 9493 H 885.348 2.60991 1.55298 0
M  V30 9494 H 882.933 1.31626 0.706749 0
M  V30 9495 H 884.815 1.72998 3.84252 0
M  V30 9496 H 883.49 0.756978 3.14725 0
M  V30 9497 H 882.397 2.92586 2.33119 0
M  V30 9498 H 883.73 3.83722 3.0825 0
M  V30 9499 N 885.382 -0.782676 1.36792 0
M  V30 9500 C 886.612 -1.56934 1.3437 0
M  V30 9501 C 887.02 -1.89049 -0.0754828 0
M  V30 9502 O 886.363 -1.51103 -1.04467 0
M  V30 9503 C 886.425 -2.91311 2.10661 0
M  V30 9504 C 886.089 -2.81889 3.59705 0
M  V30 9505 C 887.086 -2.53668 4.53815 0
M  V30 9506 C 884.771 -3.00254 4.02682 0
M  V30 9507 C 886.765 -2.43925 5.8888 0
M  V30 9508 C 884.452 -2.90132 5.37835 0
M  V30 9509 C 885.45 -2.62006 6.30747 0
M  V30 9510 O 885.138 -2.5189 7.63418 0
M  V30 9511 H 884.87 -0.493194 0.462316 0
M  V30 9512 H 887.424 -0.978791 1.80579 0
M  V30 9513 H 885.654 -3.52443 1.59125 0
M  V30 9514 H 887.343 -3.52632 2.01012 0
M  V30 9515 H 888.109 -2.39176 4.21924 0
M  V30 9516 H 883.988 -3.21151 3.30731 0
M  V30 9517 H 887.532 -2.21892 6.6137 0
M  V30 9518 H 883.429 -3.04189 5.69332 0
M  V30 9519 H 884.197 -2.67321 7.73616 0
M  V30 9520 N 886.86 -1.21182 -1.00761 0
M  V30 9521 C 887.79 -0.992773 -2.11344 0
M  V30 9522 C 888.771 0.0813618 -1.69905 0
M  V30 9523 O 889.956 -0.0779503 -1.94043 0
M  V30 9524 C 887.086 -0.553826 -3.42856 0
M  V30 9525 C 886.04 -1.57223 -3.98077 0
M  V30 9526 C 885.366 -0.989605 -5.25463 0
M  V30 9527 C 886.666 -2.95839 -4.30438 0
M  V30 9528 H 888.36 -1.91766 -2.29927 0
M  V30 9529 H 885.906 -0.923426 -1.10494 0
M  V30 9530 H 887.859 -0.387771 -4.19612 0
M  V30 9531 H 886.583 0.406702 -3.24058 0
M  V30 9532 H 885.242 -1.7258 -3.23437 0
M  V30 9533 H 884.89 -0.0208743 -5.02996 0
M  V30 9534 H 884.59 -1.66984 -5.63374 0
M  V30 9535 H 886.114 -0.834815 -6.04866 0
M  V30 9536 H 887.528 -2.8394 -4.98047 0
M  V30 9537 H 885.925 -3.60851 -4.79486 0
M  V30 9538 H 886.995 -3.46882 -3.38823 0
M  V30 9539 N 888.338 1.20213 -1.01915 0
M  V30 9540 C 889.615 1.85348 -0.62495 0
M  V30 9541 C 889.995 1.91101 0.896854 0
M  V30 9542 O 889.343 1.42075 1.78961 0
M  V30 9543 C 889.553 3.24849 -1.27571 0
M  V30 9544 C 890.901 4.01107 -1.39277 0
M  V30 9545 O 891.925 3.34211 -1.23212 0
M  V30 9546 O 890.784 5.20914 -1.6526 0
M  V30 9547 H 887.878 0.798303 -0.215965 0
M  V30 9548 H 890.424 1.27782 -1.11669 0
M  V30 9549 H 889.196 3.1544 -2.31545 0
M  V30 9550 H 888.819 3.90049 -0.77122 0
M  V30 9551 N 889.816 0.795718 1.36037 0
M  V30 9552 C 890.726 0.199784 2.33748 0
M  V30 9553 C 891.742 -0.651436 1.61345 0
M  V30 9554 O 892.918 -0.565743 1.93291 0
M  V30 9555 C 889.983 -0.650475 3.40543 0
M  V30 9556 C 889.044 0.219974 4.28736 0
M  V30 9557 C 888.277 -0.589798 5.30431 0
M  V30 9558 O 888.5 -1.82532 5.40406 0
M  V30 9559 O 887.434 0.0136187 6.01898 0
M  V30 9560 H 891.26 1.00782 2.8649 0
M  V30 9561 H 888.845 0.557293 1.38617 0
M  V30 9562 H 890.727 -1.13512 4.05824 0
M  V30 9563 H 889.402 -1.4363 2.9009 0
M  V30 9564 H 888.309 0.751516 3.66474 0
M  V30 9565 H 889.642 0.969468 4.82558 0
M  V30 9566 N 891.294 -1.47756 0.548274 0
M  V30 9567 C 892.705 -1.8636 0.112547 0
M  V30 9568 C 893.056 -1.45589 -1.31523 0
M  V30 9569 O 892.181 -0.854874 -1.98799 0
M  V30 9570 C 892.776 -3.38224 0.197473 0
M  V30 9571 C 891.335 -3.75954 -0.183163 0
M  V30 9572 C 890.482 -2.7181 0.549059 0
M  V30 9573 H 893.433 -1.394 0.758506 0
M  V30 9574 H 893.454 -3.75957 -0.586217 0
M  V30 9575 H 892.966 -3.67868 1.23673 0
M  V30 9576 H 891.067 -3.51926 -1.22387 0
M  V30 9577 H 891.18 -4.78801 0.169178 0
M  V30 9578 H 889.544 -2.54699 -0.00682862 0
M  V30 9579 H 890.327 -3.04296 1.5893 0
M  V30 9580 N 892.772 -0.284283 -1.55015 0
M  V30 9581 C 894.019 0.329864 -1.99795 0
M  V30 9582 C 894.347 1.55171 -1.1727 0
M  V30 9583 O 893.602 1.94312 -0.232667 0
M  V30 9584 C 893.901 0.747219 -3.49502 0
M  V30 9585 C 893.567 -0.37101 -4.49371 0
M  V30 9586 C 892.229 -0.678034 -4.76399 0
M  V30 9587 C 894.581 -1.12406 -5.08935 0
M  V30 9588 C 891.909 -1.74152 -5.60257 0
M  V30 9589 C 894.261 -2.17734 -5.93948 0
M  V30 9590 C 892.925 -2.49061 -6.19294 0
M  V30 9591 H 892.195 0.120706 -0.731103 0
M  V30 9592 H 894.842 -0.399904 -1.87278 0
M  V30 9593 H 893.147 1.55681 -3.59542 0
M  V30 9594 H 894.844 1.2333 -3.81563 0
M  V30 9595 H 891.434 -0.1216 -4.28427 0
M  V30 9596 H 895.618 -0.900119 -4.88069 0
M  V30 9597 H 890.874 -1.98915 -5.78137 0
M  V30 9598 H 895.048 -2.76553 -6.39133 0
M  V30 9599 H 892.675 -3.31602 -6.84064 0
M  V30 9600 N 894.251 1.57596 -0.0117121 0
M  V30 9601 C 895.667 1.55837 0.344506 0
M  V30 9602 C 895.867 1.01557 1.74036 0
M  V30 9603 O 894.923 0.654563 2.43868 0
M  V30 9604 C 896.236 2.99973 0.209023 0
M  V30 9605 C 897.784 3.11717 0.283092 0
M  V30 9606 C 898.259 4.57659 0.176599 0
M  V30 9607 N 899.75 4.62608 0.234133 0
M  V30 9608 C 900.485 5.73132 0.175252 0
M  V30 9609 N 899.981 6.92768 0.0662888 0
M  V30 9610 N 901.774 5.61638 0.227972 0
M  V30 9611 H 893.925 1.91215 -0.924692 0
M  V30 9612 H 896.188 0.878807 -0.355531 0
M  V30 9613 H 895.894 3.4357 -0.751826 0
M  V30 9614 H 895.768 3.64075 0.98635 0
M  V30 9615 H 898.155 2.68043 1.23439 0
M  V30 9616 H 898.236 2.50369 -0.52431 0
M  V30 9617 H 897.88 5.02011 -0.771205 0
M  V30 9618 H 897.81 5.16967 1.00264 0
M  V30 9619 H 900.301 3.76549 0.319203 0
M  V30 9620 H 900.614 7.72795 0.0275765 0
M  V30 9621 H 898.959 6.94993 0.0317502 0
M  V30 9622 H 902.15 4.67063 0.311377 0
M  V30 9623 H 902.323 6.47754 0.178621 0
M  V30 9624 N 895.729 -0.261212 1.5542 0
M  V30 9625 C 896.692 -1.30645 1.8832 0
M  V30 9626 C 897.692 -1.41782 0.758588 0
M  V30 9627 O 898.882 -1.40729 1.02669 0
M  V30 9628 C 896.014 -2.6862 2.09895 0
M  V30 9629 H 897.207 -1.02698 2.81768 0
M  V30 9630 H 894.76 -0.499838 1.48092 0
M  V30 9631 H 895.495 -3.0173 1.18868 0
M  V30 9632 H 895.28 -2.61921 2.91787 0
M  V30 9633 H 896.77 -3.44121 2.36581 0
M  V30 9634 N 897.207 -1.48554 -0.526253 0
M  V30 9635 C 898.139 -1.59446 -1.6465 0
M  V30 9636 C 899.152 -0.478525 -1.55608 0
M  V30 9637 O 900.341 -0.74953 -1.62001 0
M  V30 9638 C 897.441 -1.51164 -3.03319 0
M  V30 9639 C 896.614 -2.77861 -3.37805 0
M  V30 9640 C 895.673 -2.62982 -4.5577 0
M  V30 9641 O 894.699 -3.36876 -4.58806 0
M  V30 9642 N 895.901 -1.72847 -5.5417 0
M  V30 9643 H 898.666 -2.56055 -1.55743 0
M  V30 9644 H 896.227 -1.45325 -0.713606 0
M  V30 9645 H 898.219 -1.389 -3.80117 0
M  V30 9646 H 896.789 -0.625147 -3.06285 0
M  V30 9647 H 896.009 -3.04663 -2.50149 0
M  V30 9648 H 897.297 -3.61908 -3.57632 0
M  V30 9649 H 896.695 -1.12022 -5.54498 0
M  V30 9650 H 895.252 -1.6652 -6.3017 0
M  V30 9651 N 898.685 0.775411 -1.37205 0
M  V30 9652 C 900.101 1.07546 -1.17924 0
M  V30 9653 C 900.301 2.01496 -0.0128897 0
M  V30 9654 O 899.357 2.44039 0.64816 0
M  V30 9655 C 900.67 1.67647 -2.49629 0
M  V30 9656 C 902.218 1.79923 -2.56119 0
M  V30 9657 C 902.693 2.43438 -3.87946 0
M  V30 9658 N 904.184 2.50893 -3.89368 0
M  V30 9659 C 904.919 3.00881 -4.88117 0
M  V30 9660 N 904.415 3.5107 -5.97262 0
M  V30 9661 N 906.208 2.99722 -4.75524 0
M  V30 9662 H 898.359 0.151524 -2.11859 0
M  V30 9663 H 900.622 0.129845 -0.939066 0
M  V30 9664 H 900.328 1.06082 -3.3532 0
M  V30 9665 H 900.202 2.66988 -2.66453 0
M  V30 9666 H 902.589 2.40621 -1.70838 0
M  V30 9667 H 902.67 0.793482 -2.43182 0
M  V30 9668 H 902.314 1.8338 -4.73639 0
M  V30 9669 H 902.244 3.44611 -3.98184 0
M  V30 9670 H 904.735 2.1537 -3.10522 0
M  V30 9671 H 905.048 3.87604 -6.68568 0
M  V30 9672 H 903.393 3.49184 -6.00912 0
M  V30 9673 H 906.584 2.5981 -3.8938 0
M  V30 9674 H 906.757 3.38369 -5.52639 0
M  V30 9675 N 900.163 1.21714 1.00117 0
M  V30 9676 C 901.126 0.981338 2.07129 0
M  V30 9677 C 902.126 -0.0491116 1.60725 0
M  V30 9678 O 903.316 0.188555 1.73177 0
M  V30 9679 C 900.448 0.480608 3.37495 0
M  V30 9680 H 901.641 1.93075 2.29482 0
M  V30 9681 H 899.194 1.03467 1.17151 0
M  V30 9682 H 899.929 -0.473552 3.20824 0
M  V30 9683 H 899.714 1.22393 3.72508 0
M  V30 9684 H 901.204 0.33561 4.16249 0
M  V30 9685 N 901.641 -1.19671 1.02551 0
M  V30 9686 C 902.574 -2.21522 0.547998 0
M  V30 9687 C 903.552 -1.57363 -0.409349 0
M  V30 9688 O 904.736 -1.85638 -0.327248 0
M  V30 9689 C 901.863 -3.38101 -0.201375 0
M  V30 9690 C 900.909 -4.20601 0.706886 0
M  V30 9691 S 901.742 -4.89066 2.18116 0
M  V30 9692 C 902.898 -6.09058 1.4422 0
M  V30 9693 H 903.131 -2.61684 1.41099 0
M  V30 9694 H 900.664 -1.29864 0.835153 0
M  V30 9695 H 902.622 -4.05674 -0.627607 0
M  V30 9696 H 901.283 -2.96381 -1.04005 0
M  V30 9697 H 900.476 -5.03836 0.128554 0
M  V30 9698 H 900.078 -3.58329 1.07129 0
M  V30 9699 H 902.37 -6.73588 0.726975 0
M  V30 9700 H 903.313 -6.71368 2.25102 0
M  V30 9701 H 903.721 -5.56599 0.941176 0
M  V30 9702 N 903.119 -0.802921 -1.35613 0
M  V30 9703 C 904.344 -0.392846 -2.03645 0
M  V30 9704 C 904.769 0.987075 -1.6012 0
M  V30 9705 O 904.127 1.63849 -0.776101 0
M  V30 9706 C 904.175 -0.480208 -3.57388 0
M  V30 9707 O 903.279 0.507751 -4.09262 0
M  V30 9708 H 902.62 -0.16464 -0.643265 0
M  V30 9709 H 905.15 -1.08779 -1.73287 0
M  V30 9710 H 905.16 -0.348683 -4.06507 0
M  V30 9711 H 903.835 -1.48675 -3.88418 0
M  V30 9712 H 902.412 0.336769 -3.71376 0
M  V30 9713 N 904.597 1.47463 -0.556102 0
M  V30 9714 C 905.843 2.02775 -0.0316806 0
M  V30 9715 C 906.176 1.42967 1.3143 0
M  V30 9716 O 905.451 0.584847 1.85499 0
M  V30 9717 C 905.734 3.60046 0.0625742 0
M  V30 9718 C 905.587 4.30288 -1.31043 0
M  V30 9719 C 906.906 4.33195 0.776553 0
M  V30 9720 H 904.025 0.736886 -0.0129869 0
M  V30 9721 H 906.667 1.75904 -0.718177 0
M  V30 9722 H 904.817 3.83071 0.647231 0
M  V30 9723 H 906.489 4.18607 -1.9382 0
M  V30 9724 H 904.732 3.90685 -1.8854 0
M  V30 9725 H 905.403 5.38861 -1.1972 0
M  V30 9726 H 907.879 4.15156 0.280147 0
M  V30 9727 H 906.755 5.42869 0.81146 0
M  V30 9728 H 907.016 4.02336 1.83244 0
M  V30 9729 N 906.075 0.2925 1.54862 0
M  V30 9730 C 907.321 -0.319736 2.00264 0
M  V30 9731 C 907.654 -1.5419 1.18064 0
M  V30 9732 O 906.929 -1.92821 0.254983 0
M  V30 9733 C 907.212 -0.684753 3.5353 0
M  V30 9734 C 907.065 0.545961 4.46474 0
M  V30 9735 C 908.384 -1.51456 4.13218 0
M  V30 9736 H 905.503 -0.11474 0.728014 0
M  V30 9737 H 908.145 0.402907 1.85679 0
M  V30 9738 H 906.295 -1.30044 3.66089 0
M  V30 9739 H 907.967 1.18448 4.45834 0
M  V30 9740 H 906.21 1.1808 4.1742 0
M  V30 9741 H 906.881 0.246544 5.51449 0
M  V30 9742 H 909.357 -0.994421 4.04043 0
M  V30 9743 H 908.233 -1.73875 5.20633 0
M  V30 9744 H 908.494 -2.5011 3.64551 0
M  V30 9745 N 907.553 -1.57587 0.0200696 0
M  V30 9746 C 908.778 -1.96124 -0.674547 0
M  V30 9747 C 909.203 -0.896068 -1.65385 0
M  V30 9748 O 908.561 0.143925 -1.80728 0
M  V30 9749 C 908.609 -3.3376 -1.36517 0
M  V30 9750 O 907.713 -3.29483 -2.48022 0
M  V30 9751 H 907.054 -0.639719 -0.177919 0
M  V30 9752 H 909.584 -2.04447 0.0792317 0
M  V30 9753 H 909.594 -3.69785 -1.72403 0
M  V30 9754 H 908.269 -4.10832 -0.647265 0
M  V30 9755 H 906.846 -3.05162 -2.14314 0
M  V30 9756 N 909.032 0.252966 -1.55557 0
M  V30 9757 C 910.281 0.979736 -1.76307 0
M  V30 9758 C 910.594 1.86714 -0.582871 0
M  V30 9759 O 911.8 2.6302 -0.673247 0
M  V30 9760 C 910.256 1.79205 -3.12112 0
M  V30 9761 C 909.864 0.952333 -4.37761 0
M  V30 9762 C 911.608 2.51191 -3.42203 0
M  V30 9763 C 909.515 1.76018 -5.64599 0
M  V30 9764 H 908.445 0.369538 -0.657235 0
M  V30 9765 H 911.096 0.234619 -1.81994 0
M  V30 9766 H 909.478 2.57888 -3.00515 0
M  V30 9767 H 910.652 0.208251 -4.60329 0
M  V30 9768 H 908.967 0.346082 -4.14959 0
M  V30 9769 H 911.564 3.12074 -4.34182 0
M  V30 9770 H 911.907 3.22499 -2.63249 0
M  V30 9771 H 912.44 1.79523 -3.54988 0
M  V30 9772 H 909.179 1.09095 -6.46358 0
M  V30 9773 H 908.699 2.4797 -5.46142 0
M  V30 9774 H 910.378 2.32884 -6.03634 0
M  V30 9775 N 910.51 1.48831 0.518367 0
M  V30 9776 C 911.759 1.5669 1.27008 0
M  V30 9777 C 912.072 0.250934 1.93984 0
M  V30 9778 O 913.278 0.207884 2.70703 0
M  V30 9779 C 911.734 2.76387 2.30517 0
M  V30 9780 C 911.342 4.14673 1.69559 0
M  V30 9781 C 913.086 2.93566 3.06625 0
M  V30 9782 C 910.993 5.25616 2.71076 0
M  V30 9783 H 909.923 0.583362 0.477708 0
M  V30 9784 H 912.574 1.75187 0.546052 0
M  V30 9785 H 910.956 2.51348 3.06006 0
M  V30 9786 H 912.13 4.49779 1.00179 0
M  V30 9787 H 910.445 4.02708 1.05902 0
M  V30 9788 H 913.042 3.7362 3.82508 0
M  V30 9789 H 913.385 2.03462 3.63193 0
M  V30 9790 H 913.918 3.18562 2.38251 0
M  V30 9791 H 910.657 6.17723 2.19313 0
M  V30 9792 H 910.177 4.94985 3.38748 0
M  V30 9793 H 911.856 5.5422 3.3384 0
M  V30 9794 N 911.988 -0.768124 1.37614 0
M  V30 9795 C 913.216 -1.55726 1.36224 0
M  V30 9796 C 913.631 -1.8873 -0.0515357 0
M  V30 9797 O 912.988 -1.51718 -1.0143 0
M  V30 9798 C 913.039 -2.86533 2.20412 0
M  V30 9799 O 912.76 -2.54942 3.56281 0
M  V30 9800 C 914.261 -3.80745 2.27041 0
M  V30 9801 H 911.481 -0.482325 0.46648 0
M  V30 9802 H 914.025 -0.95176 1.81002 0
M  V30 9803 H 912.18 -3.43496 1.79134 0
M  V30 9804 H 912.594 -3.38732 4.00451 0
M  V30 9805 H 914.068 -4.69523 2.90263 0
M  V30 9806 H 914.545 -4.20138 1.27987 0
M  V30 9807 H 915.151 -3.2971 2.68647 0
M  V30 9808 N 913.466 -1.22244 -0.994698 0
M  V30 9809 C 914.691 -1.07299 -1.77487 0
M  V30 9810 C 915.116 0.372302 -1.84379 0
M  V30 9811 O 914.474 1.2689 -1.29494 0
M  V30 9812 C 914.522 -1.68675 -3.18718 0
M  V30 9813 O 913.626 -0.939202 -4.01563 0
M  V30 9814 H 912.967 -0.376979 -0.546611 0
M  V30 9815 H 915.497 -1.62003 -1.24965 0
M  V30 9816 H 915.507 -1.73324 -3.69354 0
M  V30 9817 H 914.182 -2.73849 -3.13017 0
M  V30 9818 H 912.759 -0.968583 -3.60101 0
M  V30 9819 N 914.944 1.19125 -1.03184 0
M  V30 9820 C 916.19 1.89163 -0.731111 0
M  V30 9821 C 916.523 1.79604 0.738662 0
M  V30 9822 O 915.798 1.19037 1.53819 0
M  V30 9823 C 916.081 3.39986 -1.18666 0
M  V30 9824 C 915.934 3.58401 -2.71788 0
M  V30 9825 C 917.253 4.33316 -0.769772 0
M  V30 9826 H 914.372 0.686908 -0.267069 0
M  V30 9827 H 917.014 1.40205 -1.28229 0
M  V30 9828 H 915.164 3.81813 -0.717736 0
M  V30 9829 H 916.836 3.25727 -3.26649 0
M  V30 9830 H 915.079 3.01355 -3.12038 0
M  V30 9831 H 915.75 4.64189 -2.98719 0
M  V30 9832 H 918.226 3.9922 -1.17314 0
M  V30 9833 H 917.102 5.37427 -1.11637 0
M  V30 9834 H 917.363 4.40884 0.327681 0
M  V30 9835 N 916.422 0.810101 1.35185 0
M  V30 9836 C 917.352 0.237453 2.32289 0
M  V30 9837 C 918.333 -0.639032 1.5764 0
M  V30 9838 O 919.518 -0.568575 1.8569 0
M  V30 9839 C 916.648 -0.611964 3.41866 0
M  V30 9840 C 915.602 0.166318 4.27677 0
M  V30 9841 C 914.928 -0.805024 5.28605 0
M  V30 9842 C 916.228 1.36729 5.04086 0
M  V30 9843 H 917.922 1.04874 2.80432 0
M  V30 9844 H 915.468 0.505751 1.34826 0
M  V30 9845 H 917.421 -1.02267 4.08802 0
M  V30 9846 H 916.145 -1.45617 2.92341 0
M  V30 9847 H 914.804 0.558238 3.62325 0
M  V30 9848 H 914.452 -1.64483 4.75347 0
M  V30 9849 H 914.152 -0.288577 5.86891 0
M  V30 9850 H 915.676 -1.21386 5.98413 0
M  V30 9851 H 917.09 1.03128 5.63948 0
M  V30 9852 H 915.487 1.81848 5.71884 0
M  V30 9853 H 916.557 2.15214 4.34524 0
M  V30 9854 N 917.9 -1.47166 0.563914 0
M  V30 9855 C 918.81 -2.33885 -0.182977 0
M  V30 9856 C 919.826 -1.48605 -0.905132 0
M  V30 9857 O 921.002 -1.81518 -0.872527 0
M  V30 9858 C 918.067 -3.25433 -1.19558 0
M  V30 9859 C 917.128 -4.26607 -0.480129 0
M  V30 9860 C 916.361 -5.1378 -1.44449 0
M  V30 9861 O 916.584 -5.03531 -2.67979 0
M  V30 9862 O 915.518 -5.94109 -0.965321 0
M  V30 9863 H 919.344 -2.99065 0.528544 0
M  V30 9864 H 916.929 -1.45834 0.324468 0
M  V30 9865 H 918.811 -3.81964 -1.77993 0
M  V30 9866 H 917.486 -2.62873 -1.8889 0
M  V30 9867 H 916.393 -3.73817 0.145583 0
M  V30 9868 H 917.726 -4.919 0.171868 0
M  V30 9869 N 919.378 -0.300708 -1.54705 0
M  V30 9870 C 920.288 0.584996 -2.27189 0
M  V30 9871 C 921.304 1.14866 -1.30697 0
M  V30 9872 O 922.48 1.17351 -1.63679 0
M  V30 9873 C 919.545 1.74076 -2.99831 0
M  V30 9874 C 918.606 1.2112 -4.1186 0
M  V30 9875 C 917.839 2.31188 -4.81028 0
M  V30 9876 O 918.062 3.5108 -4.49554 0
M  V30 9877 O 916.996 1.97897 -5.68437 0
M  V30 9878 H 920.822 -0.00298177 -3.037 0
M  V30 9879 H 918.407 -0.0671802 -1.49249 0
M  V30 9880 H 920.289 2.41413 -3.45395 0
M  V30 9881 H 918.964 2.31535 -2.26215 0
M  V30 9882 H 917.871 0.50357 -3.70695 0
M  V30 9883 H 919.204 0.682046 -4.87452 0
M  V30 9884 N 920.856 1.57574 -0.0284266 0
M  V30 9885 C 921.786 2.1321 0.952039 0
M  V30 9886 C 922.767 1.04806 1.33977 0
M  V30 9887 O 923.952 1.32635 1.41851 0
M  V30 9888 C 921.082 2.65862 2.23461 0
M  V30 9889 C 920.036 3.79047 1.98765 0
M  V30 9890 C 919.362 4.18124 3.33281 0
M  V30 9891 C 920.662 5.05151 1.32739 0
M  V30 9892 H 922.356 2.95385 0.488705 0
M  V30 9893 H 919.902 1.42092 0.233628 0
M  V30 9894 H 921.855 3.03417 2.92431 0
M  V30 9895 H 920.579 1.80848 2.71959 0
M  V30 9896 H 919.238 3.41929 1.32213 0
M  V30 9897 H 918.886 3.30092 3.79537 0
M  V30 9898 H 918.586 4.94396 3.17563 0
M  V30 9899 H 920.11 4.58262 4.0352 0
M  V30 9900 H 921.524 5.40297 1.91708 0
M  V30 9901 H 919.921 5.86416 1.27421 0
M  V30 9902 H 920.991 4.83969 0.300261 0
M  V30 9903 N 922.334 -0.244713 1.55689 0
M  V30 9904 C 923.244 -1.32447 1.93636 0
M  V30 9905 C 924.26 -1.52541 0.837086 0
M  V30 9906 O 925.436 -1.66121 1.13867 0
M  V30 9907 C 922.501 -2.65864 2.22525 0
M  V30 9908 C 921.562 -2.54273 3.45896 0
M  V30 9909 C 920.795 -3.81327 3.73397 0
M  V30 9910 O 921.018 -4.83307 3.02936 0
M  V30 9911 O 919.952 -3.79829 4.66919 0
M  V30 9912 H 923.778 -1.03255 2.85608 0
M  V30 9913 H 921.363 -0.445652 1.42598 0
M  V30 9914 H 923.245 -3.447 2.42404 0
M  V30 9915 H 921.92 -2.94784 1.33731 0
M  V30 9916 H 920.827 -1.73715 3.31321 0
M  V30 9917 H 922.16 -2.30297 4.34999 0
M  V30 9918 N 923.813 -1.49104 -0.510467 0
M  V30 9919 C 924.723 -1.67792 -1.6396 0
M  V30 9920 C 925.739 -0.560454 -1.64727 0
M  V30 9921 O 926.915 -0.833985 -1.83321 0
M  V30 9922 C 923.98 -1.73154 -3.00364 0
M  V30 9923 C 923.041 -2.9667 -3.10299 0
M  V30 9924 C 922.274 -3.01767 -4.40196 0
M  V30 9925 O 922.497 -2.1472 -5.28443 0
M  V30 9926 O 921.431 -3.94137 -4.54906 0
M  V30 9927 H 925.257 -2.63428 -1.51126 0
M  V30 9928 H 922.842 -1.32734 -0.685719 0
M  V30 9929 H 924.724 -1.79089 -3.81451 0
M  V30 9930 H 923.399 -0.806952 -3.1348 0
M  V30 9931 H 922.306 -2.96257 -2.28435 0
M  V30 9932 H 923.639 -3.88578 -3.02106 0
M  V30 9933 N 925.291 0.760815 -1.38019 0
M  V30 9934 C 926.516 1.55513 -1.37224 0
M  V30 9935 C 926.941 1.88062 0.037611 0
M  V30 9936 O 926.299 1.50042 1.0177 0
M  V30 9937 C 926.347 2.83539 -2.22796 0
M  V30 9938 O 925.451 3.78384 -1.64009 0
M  V30 9939 H 924.792 0.470642 -0.468393 0
M  V30 9940 H 927.322 0.940792 -1.81687 0
M  V30 9941 H 927.332 3.32535 -2.36399 0
M  V30 9942 H 926.007 2.59178 -3.25269 0
M  V30 9943 H 924.584 3.37063 -1.59508 0
M  V30 9944 N 926.769 1.22769 0.988202 0
M  V30 9945 C 927.679 1.01844 2.11341 0
M  V30 9946 C 928.695 -0.0346937 1.73965 0
M  V30 9947 O 929.871 0.159061 2.00771 0
M  V30 9948 C 926.936 0.603837 3.41401 0
M  V30 9949 C 925.997 1.73113 3.92849 0
M  V30 9950 C 925.23 1.33621 5.16702 0
M  V30 9951 O 925.453 0.217041 5.69987 0
M  V30 9952 O 924.387 2.15444 5.62021 0
M  V30 9953 H 928.213 1.96127 2.31879 0
M  V30 9954 H 925.798 1.01405 1.09715 0
M  V30 9955 H 927.68 0.383196 4.19654 0
M  V30 9956 H 926.355 -0.310082 3.22211 0
M  V30 9957 H 925.262 2.00634 3.15748 0
M  V30 9958 H 926.595 2.62308 4.1648 0
M  V30 9959 N 928.247 -1.18576 1.03814 0
M  V30 9960 C 929.179 -2.21607 0.585055 0
M  V30 9961 C 930.192 -1.59125 -0.343963 0
M  V30 9962 O 931.381 -1.77959 -0.138882 0
M  V30 9963 C 928.481 -3.38495 -0.165602 0
M  V30 9964 C 927.654 -4.30557 0.770662 0
M  V30 9965 C 926.713 -5.26161 0.0637534 0
M  V30 9966 O 925.739 -5.64961 0.693359 0
M  V30 9967 N 926.941 -5.67882 -1.20377 0
M  V30 9968 H 929.706 -2.61104 1.47121 0
M  V30 9969 H 927.267 -1.33336 0.918316 0
M  V30 9970 H 929.259 -3.99474 -0.648292 0
M  V30 9971 H 927.829 -2.97711 -0.953268 0
M  V30 9972 H 927.049 -3.67221 1.43326 0
M  V30 9973 H 928.337 -4.88969 1.40667 0
M  V30 9974 H 927.735 -5.38409 -1.73586 0
M  V30 9975 H 926.292 -6.31069 -1.63079 0
M  V30 9976 N 929.725 -0.817259 -1.34754 0
M  V30 9977 C 930.672 -0.233108 -2.2962 0
M  V30 9978 C 931.642 0.638902 -1.53321 0
M  V30 9979 O 932.827 0.581739 -1.81715 0
M  V30 9980 C 929.967 0.603659 -3.39779 0
M  V30 9981 C 929.08 -0.289967 -4.31026 0
M  V30 9982 C 928.215 0.555825 -5.28284 0
M  V30 9983 C 927.254 -0.337539 -6.11169 0
M  V30 9984 N 926.391 0.468847 -7.00533 0
M  V30 9985 H 931.231 -1.04747 -2.78984 0
M  V30 9986 H 928.768 -0.528056 -1.37295 0
M  V30 9987 H 930.726 1.10407 -4.02326 0
M  V30 9988 H 929.356 1.38319 -2.91664 0
M  V30 9989 H 928.408 -0.908552 -3.69391 0
M  V30 9990 H 929.72 -0.977136 -4.89135 0
M  V30 9991 H 928.874 1.12094 -5.96255 0
M  V30 9992 H 927.613 1.27652 -4.70698 0
M  V30 9993 H 926.618 -0.914839 -5.42135 0
M  V30 9994 H 927.843 -1.05626 -6.70835 0
M  V30 9995 H 925.789 1.17332 -6.45422 0
M  V30 9996 H 925.706 -0.160052 -7.55831 0
M  V30 9997 H 926.974 1.01689 -7.72839 0
M  V30 9998 N 931.203 1.46865 -0.571711 0
M  V30 9999 C 932.443 2.04324 -0.0556487 0
M  V30 10000 C 932.807 1.43486 1.27576 0
M  V30 10001 O 934.008 1.92079 1.8804 0
M  V30 10002 C 932.279 3.57394 0.0206263 0
M  V30 10003 S 933.838 4.36159 0.480709 0
M  V30 10004 H 930.656 0.710273 -0.0321467 0
M  V30 10005 H 933.258 1.8005 -0.761725 0
M  V30 10006 H 931.962 3.99193 -0.952509 0
M  V30 10007 H 931.493 3.86188 0.749812 0
M  V30 10008 H 933.508 4.6478 1.73763 0
M  V30 10009 N 932.681 0.308908 1.54543 0
M  V30 10010 C 934.092 -0.182144 1.85809 0
M  V30 10011 C 934.443 -1.52796 1.23076 0
M  V30 10012 O 933.568 -2.09775 0.531358 0
M  V30 10013 C 934.163 -0.337275 3.37117 0
M  V30 10014 C 932.722 -0.772545 3.68387 0
M  V30 10015 C 931.869 0.114451 2.77064 0
M  V30 10016 H 934.82 0.529671 1.496 0
M  V30 10017 H 934.841 -1.17058 3.62046 0
M  V30 10018 H 934.353 0.642382 3.82747 0
M  V30 10019 H 932.454 -1.76247 3.2828 0
M  V30 10020 H 932.567 -0.586453 4.75497 0
M  V30 10021 H 930.931 -0.407581 2.51418 0
M  V30 10022 H 931.714 1.09061 3.25516 0
M  V30 10023 N 934.159 -1.57557 0.0367827 0
M  V30 10024 C 935.57 -1.79853 -0.500971 0
M  V30 10025 C 935.921 -0.947749 -1.71791 0
M  V30 10026 O 935.046 -0.160287 -2.15806 0
M  V30 10027 C 935.641 -3.26193 -0.915626 0
M  V30 10028 C 934.2 -3.49457 -1.39845 0
M  V30 10029 C 933.347 -2.74864 -0.366784 0
M  V30 10030 H 936.298 -1.56509 0.262768 0
M  V30 10031 H 936.319 -3.36324 -1.7795 0
M  V30 10032 H 935.831 -3.88089 -0.0297227 0
M  V30 10033 H 933.932 -2.92823 -2.30402 0
M  V30 10034 H 934.045 -4.58172 -1.40054 0
M  V30 10035 H 932.409 -2.4057 -0.836554 0
M  V30 10036 H 933.192 -3.39479 0.510785 0
M  V30 10037 N 935.637 0.236453 -1.55816 0
M  V30 10038 C 936.877 0.970249 -1.79904 0
M  V30 10039 C 937.241 1.8212 -0.607965 0
M  V30 10040 O 938.442 2.58759 -0.727833 0
M  V30 10041 C 936.713 1.79938 -3.088 0
M  V30 10042 S 938.272 2.59084 -3.54148 0
M  V30 10043 H 935.09 0.32618 -0.631765 0
M  V30 10044 H 937.692 0.237147 -1.94056 0
M  V30 10045 H 936.396 1.16412 -3.93544 0
M  V30 10046 H 935.927 2.57504 -2.97414 0
M  V30 10047 H 937.942 3.82315 -3.16306 0
M  V30 10048 N 937.115 1.49373 0.502552 0
M  V30 10049 C 938.045 1.68839 1.61294 0
M  V30 10050 C 939.026 0.537096 1.61398 0
M  V30 10051 O 940.211 0.772764 1.78163 0
M  V30 10052 C 937.341 1.75347 2.99784 0
M  V30 10053 C 936.295 2.90251 3.14545 0
M  V30 10054 C 935.621 2.8187 4.54371 0
M  V30 10055 C 936.921 4.31207 2.94717 0
M  V30 10056 H 938.615 2.61803 1.45257 0
M  V30 10057 H 936.161 1.25987 0.697371 0
M  V30 10058 H 938.114 1.87552 3.77362 0
M  V30 10059 H 936.838 0.789814 3.16906 0
M  V30 10060 H 935.497 2.77646 2.39392 0
M  V30 10061 H 935.145 1.83416 4.68367 0
M  V30 10062 H 934.845 3.5899 4.65188 0
M  V30 10063 H 936.369 2.96081 5.34012 0
M  V30 10064 H 937.783 4.44501 3.62065 0
M  V30 10065 H 936.18 5.09536 3.17007 0
M  V30 10066 H 937.25 4.45759 1.90857 0
M  V30 10067 N 938.594 -0.753485 1.38421 0
M  V30 10068 C 939.822 -1.54272 1.37868 0
M  V30 10069 C 940.237 -1.88774 -0.0315155 0
M  V30 10070 O 939.594 -1.52785 -0.998148 0
M  V30 10071 C 939.645 -2.84179 2.23438 0
M  V30 10072 O 939.366 -2.51149 3.58965 0
M  V30 10073 C 940.867 -3.78316 2.31067 0
M  V30 10074 H 938.087 -0.47735 0.47157 0
M  V30 10075 H 940.631 -0.932509 1.82001 0
M  V30 10076 H 938.786 -3.41577 1.82767 0
M  V30 10077 H 939.2 -3.34466 4.04021 0
M  V30 10078 H 940.674 -4.66418 2.95226 0
M  V30 10079 H 941.151 -4.18757 1.32436 0
M  V30 10080 H 941.757 -3.26842 2.72129 0
M  V30 10081 N 940.072 -1.23292 -0.981677 0
M  V30 10082 C 941.297 -1.09176 -1.76339 0
M  V30 10083 C 941.722 0.352726 -1.84763 0
M  V30 10084 O 941.08 1.25509 -1.30832 0
M  V30 10085 C 941.128 -1.72046 -3.16911 0
M  V30 10086 O 940.232 -0.98174 -4.00544 0
M  V30 10087 H 939.573 -0.382755 -0.542581 0
M  V30 10088 H 942.103 -1.63319 -1.23239 0
M  V30 10089 H 942.113 -1.77232 -3.67495 0
M  V30 10090 H 940.788 -2.77154 -3.10095 0
M  V30 10091 H 939.365 -1.00672 -3.59054 0
M  V30 10092 N 941.55 1.18024 -1.04442 0
M  V30 10093 C 942.48 2.23988 -0.659683 0
M  V30 10094 C 943.461 1.6669 0.338904 0
M  V30 10095 O 944.646 1.92971 0.21817 0
M  V30 10096 C 941.776 3.4729 -0.0257672 0
M  V30 10097 C 940.73 4.17362 -0.948299 0
M  V30 10098 C 940.056 5.34401 -0.17866 0
M  V30 10099 C 941.356 4.70435 -2.26909 0
M  V30 10100 H 943.05 2.56425 -1.54553 0
M  V30 10101 H 940.596 1.23256 -0.744575 0
M  V30 10102 H 942.549 4.20627 0.255131 0
M  V30 10103 H 941.273 3.14098 0.894981 0
M  V30 10104 H 939.932 3.45928 -1.21364 0
M  V30 10105 H 939.58 4.97458 0.744614 0
M  V30 10106 H 939.28 5.8222 -0.793294 0
M  V30 10107 H 940.804 6.10526 0.0951315 0
M  V30 10108 H 942.218 5.35447 -2.04864 0
M  V30 10109 H 940.615 5.28803 -2.83703 0
M  V30 10110 H 941.685 3.87653 -2.91296 0
M  V30 10111 N 943.028 0.824394 1.34319 0
M  V30 10112 C 944.253 0.425194 2.02995 0
M  V30 10113 C 944.678 -0.961476 1.6167 0
M  V30 10114 O 944.036 -1.62593 0.80207 0
M  V30 10115 C 944.084 0.537004 3.56579 0
M  V30 10116 O 943.188 -0.442576 4.10018 0
M  V30 10117 H 942.529 0.174853 0.640564 0
M  V30 10118 H 945.059 1.11522 1.71534 0
M  V30 10119 H 945.069 0.413311 4.05901 0
M  V30 10120 H 943.744 1.54836 3.86004 0
M  V30 10121 H 942.321 -0.277644 3.71865 0
M  V30 10122 N 944.506 -1.46559 0.579492 0
M  V30 10123 C 945.438 -2.28383 -0.19337 0
M  V30 10124 C 946.451 -1.38324 -0.858511 0
M  V30 10125 O 947.64 -1.62952 -0.728615 0
M  V30 10126 C 944.74 -3.13262 -1.29306 0
M  V30 10127 C 943.913 -4.31426 -0.720459 0
M  V30 10128 C 942.972 -4.97728 -1.70744 0
M  V30 10129 O 941.998 -5.55423 -1.24476 0
M  V30 10130 N 943.2 -4.94445 -3.04146 0
M  V30 10131 H 945.965 -2.95353 0.508611 0
M  V30 10132 H 943.526 -1.56436 0.417046 0
M  V30 10133 H 945.518 -3.54483 -1.95254 0
M  V30 10134 H 944.088 -2.48388 -1.89795 0
M  V30 10135 H 943.308 -3.94028 0.116398 0
M  V30 10136 H 944.596 -5.07808 -0.31763 0
M  V30 10137 H 943.994 -4.4881 -3.44363 0
M  V30 10138 H 942.551 -5.39616 -3.65592 0
M  V30 10139 N 945.984 -0.3171 -1.54377 0
M  V30 10140 C 946.931 0.551782 -2.24107 0
M  V30 10141 C 947.901 1.11681 -1.22949 0
M  V30 10142 O 949.086 1.15836 -1.51614 0
M  V30 10143 C 946.226 1.70997 -2.99756 0
M  V30 10144 C 945.339 1.17479 -4.15719 0
M  V30 10145 C 944.474 2.29815 -4.78914 0
M  V30 10146 C 943.513 1.73513 -5.86992 0
M  V30 10147 N 942.65 2.79485 -6.44075 0
M  V30 10148 H 947.49 -0.049431 -2.97959 0
M  V30 10149 H 945.027 -0.0361658 -1.47056 0
M  V30 10150 H 946.985 2.39141 -3.41859 0
M  V30 10151 H 945.615 2.28257 -2.28251 0
M  V30 10152 H 944.667 0.385109 -3.78446 0
M  V30 10153 H 945.979 0.72276 -4.93536 0
M  V30 10154 H 945.133 3.05875 -5.23952 0
M  V30 10155 H 943.872 2.78352 -4.00464 0
M  V30 10156 H 942.877 0.959475 -5.41363 0
M  V30 10157 H 944.102 1.2586 -6.67335 0
M  V30 10158 H 942.048 3.27325 -5.68502 0
M  V30 10159 H 941.965 2.38825 -7.17286 0
M  V30 10160 H 943.233 3.55394 -6.93769 0
M  V30 10161 N 947.462 1.57535 -0.0451378 0
M  V30 10162 C 948.692 1.96476 0.638814 0
M  V30 10163 C 949.1 0.921056 1.65267 0
M  V30 10164 O 948.443 -0.103843 1.83406 0
M  V30 10165 C 948.505 3.31629 1.38788 0
M  V30 10166 C 948.169 4.5391 0.530545 0
M  V30 10167 C 949.166 5.19512 -0.200864 0
M  V30 10168 C 946.851 5.00159 0.463242 0
M  V30 10169 C 948.845 6.29695 -0.988078 0
M  V30 10170 C 946.532 6.10221 -0.327665 0
M  V30 10171 C 947.53 6.74849 -1.05202 0
M  V30 10172 O 947.218 7.82795 -1.82993 0
M  V30 10173 H 946.95 0.651625 0.17989 0
M  V30 10174 H 949.504 2.05126 -0.106031 0
M  V30 10175 H 947.734 3.19516 2.17822 0
M  V30 10176 H 949.423 3.5536 1.96148 0
M  V30 10177 H 950.189 4.84742 -0.158299 0
M  V30 10178 H 946.068 4.49651 1.01663 0
M  V30 10179 H 949.612 6.80072 -1.55397 0
M  V30 10180 H 945.509 6.44428 -0.37189 0
M  V30 10181 H 946.277 7.99542 -1.7514 0
M  V30 10182 N 948.94 -0.228186 1.55939 0
M  V30 10183 C 949.87 -1.28607 1.94891 0
M  V30 10184 C 950.851 -1.49236 0.816245 0
M  V30 10185 O 952.036 -1.61531 1.07803 0
M  V30 10186 C 949.166 -2.63719 2.25986 0
M  V30 10187 C 948.12 -2.57757 3.4168 0
M  V30 10188 C 947.446 -3.96837 3.58364 0
M  V30 10189 C 948.746 -2.13116 4.76843 0
M  V30 10190 H 950.44 -0.962531 2.83506 0
M  V30 10191 H 947.986 -0.461577 1.36402 0
M  V30 10192 H 949.939 -3.37878 2.51826 0
M  V30 10193 H 948.663 -2.97747 1.34217 0
M  V30 10194 H 947.322 -1.86055 3.15878 0
M  V30 10195 H 946.97 -4.28162 2.63982 0
M  V30 10196 H 946.67 -3.93731 4.36176 0
M  V30 10197 H 948.194 -4.72668 3.86545 0
M  V30 10198 H 949.608 -2.77015 5.01932 0
M  V30 10199 H 948.005 -2.21083 5.57891 0
M  V30 10200 H 949.075 -1.08326 4.72645 0
M  V30 10201 N 950.418 -1.49637 -0.494624 0
M  V30 10202 C 951.667 -1.58691 -1.24499 0
M  V30 10203 C 951.98 -0.281763 -1.9356 0
M  V30 10204 O 953.186 -0.250925 -2.70338 0
M  V30 10205 C 951.642 -2.8002 -2.26091 0
M  V30 10206 C 951.25 -4.17318 -1.6294 0
M  V30 10207 C 952.994 -2.98407 -3.01916 0
M  V30 10208 C 950.901 -5.29862 -2.62679 0
M  V30 10209 H 949.831 -0.590888 -0.468367 0
M  V30 10210 H 952.482 -1.76034 -0.518112 0
M  V30 10211 H 950.864 -2.56185 -3.01969 0
M  V30 10212 H 952.038 -4.51315 -0.930108 0
M  V30 10213 H 950.353 -4.04342 -0.994819 0
M  V30 10214 H 952.95 -3.79658 -3.76516 0
M  V30 10215 H 953.293 -2.09214 -3.5991 0
M  V30 10216 H 953.826 -3.22312 -2.33152 0
M  V30 10217 H 950.565 -6.21134 -2.09458 0
M  V30 10218 H 950.085 -5.00311 -3.3083 0
M  V30 10219 H 951.764 -5.59461 -3.2498 0
M  V30 10220 N 951.896 0.746133 -1.38819 0
M  V30 10221 C 953.142 1.50669 -1.3664 0
M  V30 10222 C 953.497 1.92356 0.0411513 0
M  V30 10223 O 952.79 1.63104 1.00537 0
M  V30 10224 C 952.984 2.76639 -2.26286 0
M  V30 10225 C 952.813 2.47268 -3.75618 0
M  V30 10226 C 951.583 2.40116 -4.44603 0
M  V30 10227 C 953.781 2.13548 -4.67869 0
M  V30 10228 N 951.763 2.03098 -5.79331 0
M  V30 10229 C 953.134 1.86883 -5.91164 0
M  V30 10230 C 955.189 1.99922 -4.56 0
M  V30 10231 C 953.892 1.47965 -7.03917 0
M  V30 10232 C 955.918 1.62406 -5.68664 0
M  V30 10233 C 955.28 1.36618 -6.91025 0
M  V30 10234 H 951.379 0.550624 -0.555282 0
M  V30 10235 H 953.963 0.868179 -1.74272 0
M  V30 10236 H 952.134 3.38287 -1.9083 0
M  V30 10237 H 953.866 3.42753 -2.1518 0
M  V30 10238 H 950.621 2.56839 -3.97908 0
M  V30 10239 H 951.045 1.87214 -6.506 0
M  V30 10240 H 955.687 2.18531 -3.61945 0
M  V30 10241 H 953.405 1.28096 -7.97883 0
M  V30 10242 H 956.991 1.52483 -5.61462 0
M  V30 10243 H 955.871 1.08021 -7.76725 0
M  V30 10244 N 953.375 1.23811 0.975125 0
M  V30 10245 C 954.652 0.9815 1.69192 0
M  V30 10246 C 955.032 -0.498373 2.05133 0
M  V30 10247 O 954.38 -1.47087 1.74864 0
M  V30 10248 C 954.59 1.89701 2.92941 0
M  V30 10249 C 955.938 2.16357 3.65342 0
M  V30 10250 O 956.962 1.87293 3.02985 0
M  V30 10251 O 955.821 2.65675 4.77576 0
M  V30 10252 H 952.915 0.370599 0.739314 0
M  V30 10253 H 955.461 1.34876 1.02988 0
M  V30 10254 H 954.233 2.89719 2.63018 0
M  V30 10255 H 953.856 1.53244 3.66881 0
M  V30 10256 N 954.853 -1.17469 1.05066 0
M  V30 10257 C 956.093 -1.89382 0.769012 0
M  V30 10258 C 956.457 -1.79126 -0.691217 0
M  V30 10259 O 957.658 -2.45845 -1.08692 0
M  V30 10260 C 955.929 -3.35397 1.23465 0
M  V30 10261 S 957.488 -4.25297 1.08018 0
M  V30 10262 H 954.306 -0.653839 0.279312 0
M  V30 10263 H 956.908 -1.41877 1.34503 0
M  V30 10264 H 955.612 -3.40395 2.29258 0
M  V30 10265 H 955.143 -3.87945 0.652853 0
M  V30 10266 H 957.158 -4.962 0.00358573 0
M  V30 10267 N 956.331 -0.831506 -1.3388 0
M  V30 10268 C 957.571 -0.429648 -1.99833 0
M  V30 10269 C 957.935 0.990796 -1.6446 0
M  V30 10270 O 959.136 1.49599 -2.23324 0
M  V30 10271 C 957.407 -0.635558 -3.51704 0
M  V30 10272 S 958.966 -0.327824 -4.37574 0
M  V30 10273 H 955.784 -0.161939 -0.692313 0
M  V30 10274 H 958.386 -1.07919 -1.63015 0
M  V30 10275 H 957.09 -1.66887 -3.74936 0
M  V30 10276 H 956.621 0.0284073 -3.9339 0
M  V30 10277 H 958.636 0.855231 -4.88774 0
M  V30 10278 N 957.809 1.4625 -0.587256 0
M  V30 10279 C 959.22 1.85997 -0.161918 0
M  V30 10280 C 959.571 1.49025 1.27616 0
M  V30 10281 O 958.696 0.907282 1.96462 0
M  V30 10282 C 959.291 3.37582 -0.287077 0
M  V30 10283 C 957.85 3.76308 0.0834211 0
M  V30 10284 C 956.997 2.70259 -0.620932 0
M  V30 10285 H 959.948 1.3734 -0.795199 0
M  V30 10286 H 959.969 3.77379 0.486333 0
M  V30 10287 H 959.481 3.64459 -1.33383 0
M  V30 10288 H 957.582 3.55047 1.13013 0
M  V30 10289 H 957.695 4.78184 -0.296064 0
M  V30 10290 H 956.059 2.54628 -0.0607027 0
M  V30 10291 H 956.842 2.99975 -1.66942 0
M  V30 10292 N 959.287 0.325282 1.54207 0
M  V30 10293 C 960.22 -0.582485 2.20641 0
M  V30 10294 C 961.198 -1.11441 1.18405 0
M  V30 10295 O 962.382 -1.17809 1.4715 0
M  V30 10296 C 959.509 -1.79944 2.86946 0
M  V30 10297 C 958.555 -1.39861 4.02916 0
M  V30 10298 S 959.388 -0.433859 5.3374 0
M  V30 10299 C 960.544 -1.65806 6.03539 0
M  V30 10300 H 960.777 -0.0181601 2.97294 0
M  V30 10301 H 958.31 0.109365 1.54012 0
M  V30 10302 H 960.268 -2.4977 3.25769 0
M  V30 10303 H 958.929 -2.33495 2.10092 0
M  V30 10304 H 958.122 -2.30547 4.48179 0
M  V30 10305 H 957.724 -0.780036 3.65775 0
M  V30 10306 H 960.016 -2.59524 6.25822 0
M  V30 10307 H 960.959 -1.24756 6.97023 0
M  V30 10308 H 961.367 -1.84581 5.3347 0
M  V30 10309 N 960.765 -1.57509 0.0534917 0
M  V30 10310 C 962.011 -1.93887 -0.614776 0
M  V30 10311 C 962.366 -0.932098 -1.68314 0
M  V30 10312 O 961.659 0.0483848 -1.91539 0
M  V30 10313 C 961.853 -3.34734 -1.25251 0
M  V30 10314 C 961.682 -4.49019 -0.247444 0
M  V30 10315 C 960.452 -5.05042 0.161406 0
M  V30 10316 C 962.65 -5.11784 0.508059 0
M  V30 10317 N 960.632 -6.02858 1.15909 0
M  V30 10318 C 962.003 -6.04928 1.35876 0
M  V30 10319 C 964.058 -4.94671 0.56612 0
M  V30 10320 C 962.761 -6.82797 2.26232 0
M  V30 10321 C 964.787 -5.73168 1.45712 0
M  V30 10322 C 964.149 -6.65946 2.29554 0
M  V30 10323 H 960.248 -0.756899 -0.196538 0
M  V30 10324 H 962.832 -1.94289 0.126365 0
M  V30 10325 H 961.003 -3.35104 -1.96367 0
M  V30 10326 H 962.735 -3.58395 -1.87977 0
M  V30 10327 H 959.49 -4.73098 -0.218025 0
M  V30 10328 H 959.914 -6.56462 1.6549 0
M  V30 10329 H 964.556 -4.22746 -0.0678652 0
M  V30 10330 H 962.274 -7.54012 2.90675 0
M  V30 10331 H 965.86 -5.61953 1.50664 0
M  V30 10332 H 964.74 -7.25627 2.97381 0
M  V30 10333 N 962.243 0.219913 -1.56058 0
M  V30 10334 C 963.489 0.945463 -1.79412 0
M  V30 10335 C 963.822 1.83922 -0.62341 0
M  V30 10336 O 963.097 1.90806 0.377256 0
M  V30 10337 C 963.38 1.783 -3.1286 0
M  V30 10338 C 963.233 0.915626 -4.40382 0
M  V30 10339 C 964.552 2.76045 -3.42764 0
M  V30 10340 H 961.671 0.342288 -0.652693 0
M  V30 10341 H 964.313 0.214235 -1.88788 0
M  V30 10342 H 962.463 2.40642 -3.04998 0
M  V30 10343 H 964.135 0.30882 -4.60265 0
M  V30 10344 H 962.378 0.221124 -4.33236 0
M  V30 10345 H 963.049 1.53607 -5.30197 0
M  V30 10346 H 965.525 2.23838 -3.50764 0
M  V30 10347 H 964.401 3.31748 -4.37304 0
M  V30 10348 H 964.662 3.53866 -2.65012 0
M  V30 10349 N 963.721 1.49897 0.486681 0
M  V30 10350 C 964.668 1.67619 1.58658 0
M  V30 10351 C 965.638 0.517537 1.57831 0
M  V30 10352 O 966.823 0.746272 1.756 0
M  V30 10353 C 963.963 1.762 2.96728 0
M  V30 10354 C 963.076 3.03465 3.07462 0
M  V30 10355 C 962.211 3.02937 4.36351 0
M  V30 10356 C 961.25 4.24721 4.4077 0
M  V30 10357 N 960.387 4.22021 5.61108 0
M  V30 10358 H 965.227 2.61528 1.42853 0
M  V30 10359 H 962.764 1.29657 0.694807 0
M  V30 10360 H 964.722 1.79156 3.76774 0
M  V30 10361 H 963.352 0.857452 3.11203 0
M  V30 10362 H 962.404 3.10054 2.20387 0
M  V30 10363 H 963.716 3.93454 3.06586 0
M  V30 10364 H 962.87 3.04536 5.24731 0
M  V30 10365 H 961.609 2.10751 4.39813 0
M  V30 10366 H 960.614 4.23352 3.5079 0
M  V30 10367 H 961.839 5.18116 4.39013 0
M  V30 10368 H 959.785 3.3268 5.65385 0
M  V30 10369 H 959.702 5.05761 5.61909 0
M  V30 10370 H 960.97 4.27743 6.51656 0
M  V30 10371 N 965.199 -0.738761 1.39212 0
M  V30 10372 C 966.129 -1.86602 1.40364 0
M  V30 10373 C 967.11 -1.67984 0.267495 0
M  V30 10374 O 968.295 -1.88358 0.472765 0
M  V30 10375 C 965.425 -3.24308 1.24265 0
M  V30 10376 C 964.379 -3.57557 2.35239 0
M  V30 10377 C 963.705 -4.94159 2.04233 0
M  V30 10378 C 965.005 -3.60914 3.77543 0
M  V30 10379 H 966.699 -1.85896 2.34698 0
M  V30 10380 H 964.245 -0.892959 1.1297 0
M  V30 10381 H 966.198 -4.02838 1.23692 0
M  V30 10382 H 964.922 -3.25531 0.263974 0
M  V30 10383 H 963.581 -2.81354 2.35022 0
M  V30 10384 H 963.229 -4.91959 1.04813 0
M  V30 10385 H 962.929 -5.17373 2.78567 0
M  V30 10386 H 964.453 -5.7505 2.05303 0
M  V30 10387 H 965.867 -4.29528 3.79709 0
M  V30 10388 H 964.264 -3.95644 4.51205 0
M  V30 10389 H 965.334 -2.60803 4.08791 0
M  V30 10390 N 966.677 -1.24326 -0.968545 0
M  V30 10391 C 967.624 -1.0349 -2.06297 0
M  V30 10392 C 968.594 0.0515333 -1.6602 0
M  V30 10393 O 969.779 -0.102924 -1.90522 0
M  V30 10394 C 966.919 -0.64487 -3.39021 0
M  V30 10395 C 966.032 -1.80469 -3.92498 0
M  V30 10396 C 965.167 -1.36032 -5.13487 0
M  V30 10397 C 964.206 -2.49014 -5.59159 0
M  V30 10398 N 963.343 -2.05451 -6.71367 0
M  V30 10399 H 968.183 -1.97161 -2.23454 0
M  V30 10400 H 965.72 -0.982028 -1.0952 0
M  V30 10401 H 967.678 -0.399771 -4.1528 0
M  V30 10402 H 966.308 0.254845 -3.21792 0
M  V30 10403 H 965.36 -2.16348 -3.12886 0
M  V30 10404 H 966.672 -2.65365 -4.22354 0
M  V30 10405 H 965.826 -1.07405 -5.97117 0
M  V30 10406 H 964.565 -0.481887 -4.85313 0
M  V30 10407 H 963.57 -2.78402 -4.74102 0
M  V30 10408 H 964.795 -3.37413 -5.89346 0
M  V30 10409 H 962.741 -1.20004 -6.4493 0
M  V30 10410 H 962.658 -2.83901 -7.00668 0
M  V30 10411 H 963.926 -1.79962 -7.58442 0
M  V30 10412 N 968.156 1.1691 -1.05688 0
M  V30 10413 C 969.384 1.91204 -0.790485 0
M  V30 10414 C 969.799 1.77095 0.654434 0
M  V30 10415 O 969.156 1.11146 1.44751 0
M  V30 10416 C 969.207 3.42108 -1.16808 0
M  V30 10417 O 968.928 3.55788 -2.55629 0
M  V30 10418 C 970.429 4.33466 -0.92855 0
M  V30 10419 H 967.649 0.606508 -0.287035 0
M  V30 10420 H 970.193 1.48225 -1.40888 0
M  V30 10421 H 968.348 3.82814 -0.59434 0
M  V30 10422 H 968.762 4.49321 -2.70575 0
M  V30 10423 H 970.236 5.37836 -1.24245 0
M  V30 10424 H 970.713 4.38989 0.136016 0
M  V30 10425 H 971.319 3.98481 -1.48638 0
M  V30 10426 N 969.634 0.838594 1.33437 0
M  V30 10427 C 970.883 0.430484 1.97053 0
M  V30 10428 C 971.196 -1.01556 1.6717 0
M  V30 10429 O 972.402 -1.52834 2.24397 0
M  V30 10430 C 970.858 0.718828 3.52648 0
M  V30 10431 C 970.466 2.17953 3.91408 0
M  V30 10432 C 972.21 0.377654 4.22817 0
M  V30 10433 C 970.117 2.41194 5.39981 0
M  V30 10434 H 969.047 0.157239 0.737422 0
M  V30 10435 H 971.698 1.02714 1.5206 0
M  V30 10436 H 970.08 0.0518042 3.95966 0
M  V30 10437 H 971.254 2.88701 3.59149 0
M  V30 10438 H 969.569 2.48366 3.34221 0
M  V30 10439 H 972.166 0.528926 5.32077 0
M  V30 10440 H 972.509 -0.679338 4.1072 0
M  V30 10441 H 973.042 0.999899 3.85028 0
M  V30 10442 H 969.781 3.45457 5.57081 0
M  V30 10443 H 969.301 1.75007 5.73701 0
M  V30 10444 H 970.98 2.24334 6.06863 0
M  V30 10445 N 971.112 -1.45937 0.595003 0
M  V30 10446 C 972.042 -2.33198 -0.11871 0
M  V30 10447 C 973.023 -1.46083 -0.871423 0
M  V30 10448 O 974.208 -1.74879 -0.844461 0
M  V30 10449 C 971.338 -3.28576 -1.12495 0
M  V30 10450 C 970.292 -4.25229 -0.486275 0
M  V30 10451 C 969.618 -5.10204 -1.59986 0
M  V30 10452 C 970.918 -5.19019 0.584473 0
M  V30 10453 H 972.612 -2.93122 0.609886 0
M  V30 10454 H 970.158 -1.40951 0.294742 0
M  V30 10455 H 972.111 -3.88485 -1.6327 0
M  V30 10456 H 970.835 -2.66784 -1.88398 0
M  V30 10457 H 969.494 -3.666 0.000507962 0
M  V30 10458 H 969.142 -4.44789 -2.34886 0
M  V30 10459 H 968.842 -5.75669 -1.1781 0
M  V30 10460 H 970.366 -5.7298 -2.11014 0
M  V30 10461 H 971.78 -5.73073 0.161297 0
M  V30 10462 H 970.177 -5.92893 0.927256 0
M  V30 10463 H 971.247 -4.62208 1.46601 0
M  V30 10464 N 972.59 -0.333456 -1.54032 0
M  V30 10465 C 973.837 0.266133 -2.00744 0
M  V30 10466 C 974.165 1.51361 -1.22148 0
M  V30 10467 O 973.42 1.93473 -0.294368 0
M  V30 10468 C 973.719 0.63565 -3.51702 0
M  V30 10469 C 973.385 -0.513786 -4.47963 0
M  V30 10470 C 972.047 -0.829253 -4.74001 0
M  V30 10471 C 974.399 -1.2854 -5.05101 0
M  V30 10472 C 971.727 -1.91888 -5.54433 0
M  V30 10473 C 974.079 -2.3652 -5.86721 0
M  V30 10474 C 972.743 -2.68637 -6.11057 0
M  V30 10475 H 972.013 0.097385 -0.734573 0
M  V30 10476 H 974.66 -0.459282 -1.85911 0
M  V30 10477 H 972.965 1.44163 -3.64313 0
M  V30 10478 H 974.662 1.11129 -3.85294 0
M  V30 10479 H 971.252 -0.25784 -4.27824 0
M  V30 10480 H 975.436 -1.05494 -4.84958 0
M  V30 10481 H 970.692 -2.17208 -5.71516 0
M  V30 10482 H 974.866 -2.96747 -6.30011 0
M  V30 10483 H 972.493 -3.53197 -6.73169 0
M  V30 10484 N 974.068 1.57479 -0.061844 0
M  V30 10485 C 975.316 1.92727 0.608336 0
M  V30 10486 C 975.637 0.941799 1.70749 0
M  V30 10487 O 974.907 -0.0116608 1.95897 0
M  V30 10488 H 973.487 0.71145 0.2277 0
M  V30 10489 H 976.149 1.94546 -0.117359 0
M  V30 10490 H 975.245 2.9426 1.04007 0
M  V30 10491 N 975.546 -0.211634 1.56173 0
M  V30 10492 C 976.476 -1.26533 1.96244 0
M  V30 10493 C 977.457 -1.48362 0.832028 0
M  V30 10494 O 978.642 -1.60378 1.0951 0
M  V30 10495 C 975.772 -2.61307 2.2877 0
M  V30 10496 C 974.726 -2.54119 3.44395 0
M  V30 10497 C 974.052 -3.93014 3.62552 0
M  V30 10498 C 975.352 -2.08046 4.79076 0
M  V30 10499 H 977.046 -0.932407 2.84511 0
M  V30 10500 H 974.592 -0.447084 1.36884 0
M  V30 10501 H 976.545 -3.35188 2.55396 0
M  V30 10502 H 975.269 -2.96307 1.37367 0
M  V30 10503 H 973.928 -1.82694 3.17834 0
M  V30 10504 H 973.576 -4.25338 2.68508 0
M  V30 10505 H 973.276 -3.89083 4.40327 0
M  V30 10506 H 974.8 -4.68542 3.91537 0
M  V30 10507 H 976.214 -2.71676 5.04842 0
M  V30 10508 H 974.611 -2.15154 5.60204 0
M  V30 10509 H 975.681 -1.03306 4.73768 0
M  V30 10510 N 977.024 -1.50153 -0.478725 0
M  V30 10511 C 978.27 -1.60998 -1.23318 0
M  V30 10512 C 978.603 -0.305868 -1.91776 0
M  V30 10513 O 977.878 0.692158 -1.81767 0
M  V30 10514 C 978.161 -2.78495 -2.28282 0
M  V30 10515 C 978.014 -4.18767 -1.64178 0
M  V30 10516 C 979.333 -2.91569 -3.2966 0
M  V30 10517 H 976.452 -0.585983 -0.446982 0
M  V30 10518 H 979.094 -1.82514 -0.528063 0
M  V30 10519 H 977.244 -2.60281 -2.8842 0
M  V30 10520 H 978.916 -4.48552 -1.07696 0
M  V30 10521 H 977.159 -4.23379 -0.94514 0
M  V30 10522 H 977.83 -4.96894 -2.40417 0
M  V30 10523 H 980.306 -3.08219 -2.79536 0
M  V30 10524 H 979.182 -3.75419 -4.0044 0
M  V30 10525 H 979.443 -2.01859 -3.93326 0
M  V30 10526 N 978.502 0.731368 -1.39602 0
M  V30 10527 C 979.73 1.52059 -1.40305 0
M  V30 10528 C 980.145 1.888 0.00147921 0
M  V30 10529 O 979.502 1.54354 0.973715 0
M  V30 10530 C 979.553 2.80588 -2.27931 0
M  V30 10531 O 979.274 2.45406 -3.62915 0
M  V30 10532 C 980.775 3.74592 -2.37056 0
M  V30 10533 H 977.995 0.469787 -0.479104 0
M  V30 10534 H 980.539 0.903436 -1.83462 0
M  V30 10535 H 978.694 3.38626 -1.88178 0
M  V30 10536 H 979.108 3.27996 -4.09291 0
M  V30 10537 H 980.582 4.61662 -3.02609 0
M  V30 10538 H 981.059 4.16597 -1.39081 0
M  V30 10539 H 981.665 3.22471 -2.77295 0
M  V30 10540 N 979.98 1.24838 0.961938 0
M  V30 10541 C 981.257 0.99939 1.68141 0
M  V30 10542 C 981.637 -0.476588 2.0565 0
M  V30 10543 O 980.985 -1.45224 1.76415 0
M  V30 10544 C 981.195 1.92797 2.90913 0
M  V30 10545 C 982.543 2.20219 3.63027 0
M  V30 10546 O 983.567 1.90496 3.00981 0
M  V30 10547 O 982.426 2.70725 4.74731 0
M  V30 10548 H 979.52 0.37842 0.735342 0
M  V30 10549 H 982.066 1.35961 1.01551 0
M  V30 10550 H 980.838 2.92492 2.59931 0
M  V30 10551 H 980.461 1.57127 3.65235 0
M  V30 10552 N 981.458 -1.16348 1.06306 0
M  V30 10553 C 982.869 -1.68491 0.80422 0
M  V30 10554 C 983.22 -1.84327 -0.672159 0
M  V30 10555 O 982.345 -1.53892 -1.52139 0
M  V30 10556 C 982.94 -3.06048 1.45328 0
M  V30 10557 C 981.499 -3.55311 1.24221 0
M  V30 10558 C 980.646 -2.31291 1.5297 0
M  V30 10559 H 983.597 -1.00708 1.22652 0
M  V30 10560 H 983.618 -3.70451 0.868674 0
M  V30 10561 H 983.13 -2.9449 2.52779 0
M  V30 10562 H 981.231 -3.72128 0.187447 0
M  V30 10563 H 981.344 -4.37397 1.95502 0
M  V30 10564 H 979.708 -2.3631 0.950241 0
M  V30 10565 H 980.491 -2.22331 2.6158 0
M  V30 10566 N 982.937 -0.845659 -1.3299 0
M  V30 10567 C 984.184 -0.444653 -1.97558 0
M  V30 10568 C 984.512 0.997682 -1.66963 0
M  V30 10569 O 983.767 1.71349 -0.94541 0
M  V30 10570 C 984.066 -0.6201 -3.51979 0
M  V30 10571 C 983.732 -2.03155 -4.02541 0
M  V30 10572 C 982.394 -2.4176 -4.16059 0
M  V30 10573 C 984.746 -2.95317 -4.29462 0
M  V30 10574 C 982.074 -3.71818 -4.53837 0
M  V30 10575 C 984.426 -4.24863 -4.68694 0
M  V30 10576 C 983.09 -4.63416 -4.80419 0
M  V30 10577 H 982.36 -0.16271 -0.722915 0
M  V30 10578 H 985.007 -1.07399 -1.58549 0
M  V30 10579 H 983.312 0.092513 -3.91691 0
M  V30 10580 H 985.009 -0.290012 -3.9995 0
M  V30 10581 H 981.599 -1.72174 -3.92497 0
M  V30 10582 H 985.783 -2.66726 -4.18534 0
M  V30 10583 H 981.039 -4.01484 -4.61108 0
M  V30 10584 H 985.213 -4.96347 -4.8848 0
M  V30 10585 H 982.84 -5.6424 -5.09448 0
M  V30 10586 N 984.415 1.45619 -0.602734 0
M  V30 10587 C 985.378 2.28941 0.108962 0
M  V30 10588 C 986.378 1.39501 0.799762 0
M  V30 10589 O 987.568 1.61673 0.648663 0
M  V30 10590 C 984.7 3.204 1.16432 0
M  V30 10591 H 985.893 2.93346 -0.623534 0
M  V30 10592 H 983.446 1.52061 -0.361565 0
M  V30 10593 H 984.181 2.60785 1.92774 0
M  V30 10594 H 983.966 3.86277 0.673248 0
M  V30 10595 H 985.456 3.83063 1.6629 0
M  V30 10596 N 985.893 0.34162 1.53853 0
M  V30 10597 C 986.803 -0.524555 2.2866 0
M  V30 10598 C 987.819 -1.1136 1.33697 0
M  V30 10599 O 988.995 -1.1297 1.66732 0
M  V30 10600 C 986.06 -1.66065 3.04341 0
M  V30 10601 C 985.121 -1.10158 4.14926 0
M  V30 10602 C 984.354 -2.18353 4.86988 0
M  V30 10603 O 984.577 -3.39038 4.58704 0
M  V30 10604 O 983.511 -1.82756 5.73484 0
M  V30 10605 H 987.337 0.0835014 3.03585 0
M  V30 10606 H 984.922 0.106727 1.49018 0
M  V30 10607 H 986.804 -2.3217 3.51674 0
M  V30 10608 H 985.479 -2.25456 2.32275 0
M  V30 10609 H 984.386 -0.405109 3.719 0
M  V30 10610 H 985.719 -0.552567 4.89088 0
M  V30 10611 N 987.371 -1.57444 0.0701946 0
M  V30 10612 C 988.301 -2.15659 -0.895176 0
M  V30 10613 C 989.282 -1.08321 -1.31151 0
M  V30 10614 O 990.467 -1.36349 -1.38284 0
M  V30 10615 C 987.597 -2.71693 -2.16334 0
M  V30 10616 C 986.551 -3.84183 -1.88645 0
M  V30 10617 C 985.877 -4.26814 -3.22078 0
M  V30 10618 C 987.177 -5.08493 -1.19299 0
M  V30 10619 H 988.871 -2.96576 -0.410217 0
M  V30 10620 H 986.417 -1.42662 -0.195872 0
M  V30 10621 H 988.37 -3.11064 -2.84284 0
M  V30 10622 H 987.094 -1.87994 -2.67069 0
M  V30 10623 H 985.753 -3.45314 -1.23101 0
M  V30 10624 H 985.401 -3.40039 -3.70651 0
M  V30 10625 H 985.101 -5.02642 -3.04344 0
M  V30 10626 H 986.625 -4.68799 -3.91228 0
M  V30 10627 H 988.039 -5.4519 -1.77316 0
M  V30 10628 H 986.436 -5.89588 -1.11828 0
M  V30 10629 H 987.506 -4.84595 -0.171839 0
M  V30 10630 N 988.849 0.203349 -1.56283 0
M  V30 10631 C 990.077 0.941426 -1.84241 0
M  V30 10632 C 990.492 1.77197 -0.651658 0
M  V30 10633 O 989.849 1.78506 0.379713 0
M  V30 10634 C 989.9 1.84429 -3.10915 0
M  V30 10635 O 989.621 1.04729 -4.25398 0
M  V30 10636 C 991.122 2.69474 -3.51993 0
M  V30 10637 H 988.342 0.27507 -0.612027 0
M  V30 10638 H 990.886 0.213088 -2.03387 0
M  V30 10639 H 989.041 2.52635 -2.93691 0
M  V30 10640 H 989.455 1.66179 -4.97478 0
M  V30 10641 H 990.929 3.28495 -4.43616 0
M  V30 10642 H 991.406 3.42775 -2.74594 0
M  V30 10643 H 992.012 2.06652 -3.71719 0
M  V30 10644 N 990.327 1.50405 0.470755 0
M  V30 10645 C 991.576 1.60652 1.21959 0
M  V30 10646 C 991.889 0.312521 1.93087 0
M  V30 10647 O 993.095 0.293901 2.69905 0
M  V30 10648 C 991.551 2.83581 2.21607 0
M  V30 10649 C 991.159 4.19858 1.5628 0
M  V30 10650 C 992.903 3.03173 2.9713 0
M  V30 10651 C 990.81 5.33974 2.54217 0
M  V30 10652 H 989.74 0.598264 0.458907 0
M  V30 10653 H 992.391 1.76836 0.490041 0
M  V30 10654 H 990.773 2.60957 2.97855 0
M  V30 10655 H 991.947 4.52738 0.85819 0
M  V30 10656 H 990.262 4.05873 0.930366 0
M  V30 10657 H 992.859 3.856 3.70428 0
M  V30 10658 H 993.202 2.14914 3.56536 0
M  V30 10659 H 993.735 3.2598 2.27995 0
M  V30 10660 H 990.474 6.24388 1.99549 0
M  V30 10661 H 989.994 5.05511 3.22829 0
M  V30 10662 H 991.673 5.64561 3.16039 0
M  V30 10663 N 991.805 -0.723954 1.39988 0
M  V30 10664 C 993.033 -1.51313 1.4111 0
M  V30 10665 C 993.448 -1.88798 0.00853333 0
M  V30 10666 O 992.805 -1.54868 -0.965516 0
M  V30 10667 C 992.856 -2.79375 2.29416 0
M  V30 10668 O 992.577 -2.43478 3.64211 0
M  V30 10669 C 994.078 -3.7333 2.3904 0
M  V30 10670 H 991.298 -0.46724 0.481589 0
M  V30 10671 H 993.842 -0.893694 1.83938 0
M  V30 10672 H 991.997 -3.37624 1.89971 0
M  V30 10673 H 992.411 -3.25821 4.11024 0
M  V30 10674 H 993.885 -4.60051 3.05053 0
M  V30 10675 H 994.362 -4.15854 1.41289 0
M  V30 10676 H 994.968 -3.20996 2.79001 0
M  V30 10677 N 993.283 -1.25346 -0.955304 0
M  V30 10678 C 994.213 -1.08152 -2.06943 0
M  V30 10679 C 995.194 0.00922598 -1.70097 0
M  V30 10680 O 996.379 -0.160181 -1.93538 0
M  V30 10681 C 993.509 -0.698745 -3.40198 0
M  V30 10682 C 992.463 -1.73965 -3.9105 0
M  V30 10683 C 991.789 -1.21158 -5.20792 0
M  V30 10684 C 993.089 -3.13829 -4.17503 0
M  V30 10685 H 994.783 -2.01345 -2.21586 0
M  V30 10686 H 992.329 -0.969459 -1.06478 0
M  V30 10687 H 994.282 -0.565394 -4.1759 0
M  V30 10688 H 993.006 0.268892 -3.25491 0
M  V30 10689 H 991.665 -1.86143 -3.15827 0
M  V30 10690 H 991.313 -0.234193 -5.02455 0
M  V30 10691 H 991.013 -1.90728 -5.55785 0
M  V30 10692 H 992.537 -1.09061 -6.00781 0
M  V30 10693 H 993.951 -3.04809 -4.85556 0
M  V30 10694 H 992.348 -3.80863 -4.63749 0
M  V30 10695 H 993.418 -3.6094 -3.23806 0
M  V30 10696 N 994.761 1.15782 -1.06922 0
M  V30 10697 C 996.001 1.88135 -0.799043 0
M  V30 10698 C 996.365 1.80203 0.662632 0
M  V30 10699 O 997.566 2.47543 1.04767 0
M  V30 10700 C 995.837 3.3339 -1.28786 0
M  V30 10701 S 997.396 4.23525 -1.1477 0
M  V30 10702 H 994.214 0.649313 -0.289679 0
M  V30 10703 H 996.816 1.3972 -1.36743 0
M  V30 10704 H 995.52 3.36705 -2.34645 0
M  V30 10705 H 995.051 3.86857 -0.714489 0
M  V30 10706 H 997.066 4.96131 -0.0825264 0
M  V30 10707 N 996.239 0.8527 1.3254 0
M  V30 10708 C 997.488 0.45136 1.96585 0
M  V30 10709 C 997.801 -0.997773 1.68237 0
M  V30 10710 O 999.007 -1.50445 2.26006 0
M  V30 10711 C 997.463 0.75619 3.51866 0
M  V30 10712 C 997.071 2.22092 3.89075 0
M  V30 10713 C 998.815 0.422478 4.22392 0
M  V30 10714 C 996.722 2.46908 5.37392 0
M  V30 10715 H 995.652 0.165052 0.735713 0
M  V30 10716 H 998.303 1.04321 1.50962 0
M  V30 10717 H 996.685 0.0937988 3.95889 0
M  V30 10718 H 997.859 2.92494 3.56067 0
M  V30 10719 H 996.174 2.51896 3.31568 0
M  V30 10720 H 998.771 0.58533 5.31487 0
M  V30 10721 H 999.114 -0.635737 4.11417 0
M  V30 10722 H 999.647 1.04068 3.83946 0
M  V30 10723 H 996.386 3.51346 5.53386 0
M  V30 10724 H 995.906 1.81082 5.71812 0
M  V30 10725 H 997.585 2.30758 6.0445 0
M  V30 10726 N 997.718 -1.45297 0.610449 0
M  V30 10727 C 998.964 -2.02518 0.106917 0
M  V30 10728 C 999.297 -1.47747 -1.26034 0
M  V30 10729 O 998.572 -0.65329 -1.832 0
M  V30 10730 C 998.855 -3.6003 0.0710975 0
M  V30 10731 C 998.708 -4.25128 1.46922 0
M  V30 10732 C 1000.03 -4.35778 -0.61524 0
M  V30 10733 H 997.146 -0.735896 0.040327 0
M  V30 10734 H 999.788 -1.73117 0.782968 0
M  V30 10735 H 997.938 -3.85209 -0.504611 0
M  V30 10736 H 999.61 -4.11125 2.09223 0
M  V30 10737 H 997.853 -3.83418 2.02911 0
M  V30 10738 H 998.524 -5.34046 1.39637 0
M  V30 10739 H 1001 -4.1591 -0.125871 0
M  V30 10740 H 999.876 -5.45506 -0.609419 0
M  V30 10741 H 1000.14 -4.08859 -1.68186 0
M  V30 10742 N 999.196 -0.349774 -1.5367 0
M  V30 10743 C 1000.44 0.245189 -2.01312 0
M  V30 10744 C 1000.77 1.49702 -1.23705 0
M  V30 10745 O 1000.05 1.91742 -0.326371 0
M  V30 10746 C 1000.33 0.553071 -3.55827 0
M  V30 10747 C 1000.19 -0.71129 -4.4414 0
M  V30 10748 C 1001.5 1.36015 -4.18555 0
M  V30 10749 H 998.624 0.0876415 -0.73177 0
M  V30 10750 H 1001.27 -0.471543 -1.84056 0
M  V30 10751 H 999.416 1.16367 -3.70663 0
M  V30 10752 H 1001.09 -1.34913 -4.41131 0
M  V30 10753 H 999.331 -1.33491 -4.1275 0
M  V30 10754 H 1000 -0.45104 -5.50154 0
M  V30 10755 H 1002.48 0.843778 -4.07455 0
M  V30 10756 H 1001.35 1.54432 -5.26728 0
M  V30 10757 H 1001.61 2.36408 -3.73582 0
M  V30 10758 N 1000.67 1.57404 -0.0785433 0
M  V30 10759 C 1001.62 2.14316 0.903949 0
M  V30 10760 C 1002.62 1.08176 1.30362 0
M  V30 10761 O 1003.82 1.26546 1.28008 0
M  V30 10762 H 1000.2 0.685367 0.309477 0
M  V30 10763 H 1002.17 2.95719 0.399081 0
M  V30 10764 C 1000.92 2.72504 2.15956 0
M  V30 10765 H 1000.24 3.53853 1.86087 0
M  V30 10766 H 1001.68 3.15914 2.82798 0
M  V30 10767 C 1000.14 1.6759 2.92259 0
M  V30 10768 O 1000.67 1.10492 3.86205 0
M  V30 10769 N 998.875 1.38467 2.5549 0
M  V30 10770 H 998.422 1.85088 1.79166 0
M  V30 10771 H 998.38 0.685053 3.06846 0
M  V30 10772 N 1002.15 -0.195058 1.56388 0
M  V30 10773 C 1003.38 -0.931642 1.84738 0
M  V30 10774 C 1003.79 -1.76849 0.661046 0
M  V30 10775 O 1003.15 -1.78705 -0.370241 0
M  V30 10776 C 1003.2 -1.82777 3.11889 0
M  V30 10777 O 1002.92 -1.02471 4.25948 0
M  V30 10778 C 1004.42 -2.67603 3.53417 0
M  V30 10779 H 1001.64 -0.271821 0.613477 0
M  V30 10780 H 1004.19 -0.202299 2.03497 0
M  V30 10781 H 1002.34 -2.51074 2.95027 0
M  V30 10782 H 1002.76 -1.63539 4.98353 0
M  V30 10783 H 1004.23 -3.26138 4.45352 0
M  V30 10784 H 1004.71 -3.41314 2.76408 0
M  V30 10785 H 1005.31 -2.04678 3.7281 0
M  V30 10786 N 1003.63 -1.50653 -0.462772 0
M  V30 10787 C 1004.88 -1.61296 -1.21105 0
M  V30 10788 C 1005.19 -0.322757 -1.92919 0
M  V30 10789 O 1006.4 -0.308211 -2.69745 0
M  V30 10790 C 1004.85 -2.84752 -2.201 0
M  V30 10791 C 1004.46 -4.20681 -1.54051 0
M  V30 10792 C 1006.21 -3.04744 -2.95518 0
M  V30 10793 C 1004.11 -5.35314 -2.51381 0
M  V30 10794 H 1003.04 -0.60069 -0.455728 0
M  V30 10795 H 1005.69 -1.77093 -0.480656 0
M  V30 10796 H 1004.08 -2.62532 -2.96467 0
M  V30 10797 H 1005.25 -4.53187 -0.834168 0
M  V30 10798 H 1003.56 -4.06361 -0.908828 0
M  V30 10799 H 1006.16 -3.87559 -3.68378 0
M  V30 10800 H 1006.5 -2.16802 -3.55391 0
M  V30 10801 H 1007.04 -3.27185 -2.26263 0
M  V30 10802 H 1003.78 -6.25437 -1.96235 0
M  V30 10803 H 1003.3 -5.07216 -3.20144 0
M  V30 10804 H 1004.98 -5.66229 -3.1304 0
M  V30 10805 N 1005.11 0.71652 -1.4037 0
M  V30 10806 C 1006.36 1.47638 -1.38597 0
M  V30 10807 C 1006.68 1.94496 0.0120141 0
M  V30 10808 O 1005.94 1.68437 0.996373 0
M  V30 10809 C 1006.24 2.71777 -2.32103 0
M  V30 10810 C 1005.9 2.43689 -3.79376 0
M  V30 10811 C 1004.57 2.35739 -4.195 0
M  V30 10812 C 1006.92 2.20099 -4.72447 0
M  V30 10813 C 1004.25 2.02265 -5.50732 0
M  V30 10814 C 1006.6 1.88138 -6.03976 0
M  V30 10815 C 1005.26 1.78669 -6.43143 0
M  V30 10816 H 1004.53 0.540246 -0.507163 0
M  V30 10817 H 1007.18 0.820822 -1.73017 0
M  V30 10818 H 1005.48 3.42166 -1.90865 0
M  V30 10819 H 1007.18 3.29864 -2.28015 0
M  V30 10820 H 1003.77 2.50763 -3.47585 0
M  V30 10821 H 1007.95 2.25198 -4.42266 0
M  V30 10822 H 1003.21 1.93471 -5.79982 0
M  V30 10823 H 1007.38 1.68898 -6.75608 0
M  V30 10824 H 1005.01 1.52498 -7.44747 0
M  V30 10825 N 1006.59 1.25851 0.948643 0
M  V30 10826 C 1007.52 1.0108 2.04593 0
M  V30 10827 C 1008.5 -0.0619691 1.62482 0
M  V30 10828 O 1009.68 0.0789196 1.88335 0
M  V30 10829 C 1006.81 0.529174 3.34541 0
M  V30 10830 C 1005.85 1.59337 3.95618 0
M  V30 10831 S 1006.69 3.18026 4.30836 0
M  V30 10832 C 1007.84 2.71613 5.63895 0
M  V30 10833 H 1008.08 1.93988 2.2529 0
M  V30 10834 H 1005.61 1.09448 1.08906 0
M  V30 10835 H 1007.57 0.25795 4.09689 0
M  V30 10836 H 1006.23 -0.37951 3.11799 0
M  V30 10837 H 1005.42 1.20722 4.89328 0
M  V30 10838 H 1005.02 1.81559 3.26975 0
M  V30 10839 H 1007.32 2.15612 6.42275 0
M  V30 10840 H 1008.26 3.63986 6.07387 0
M  V30 10841 H 1008.67 2.11417 5.23415 0
M  V30 10842 N 1008.06 -1.15214 1.07534 0
M  V30 10843 C 1009.03 -2.18209 0.701237 0
M  V30 10844 C 1010.03 -1.58693 -0.25946 0
M  V30 10845 O 1011.22 -1.74154 -0.0401744 0
M  V30 10846 C 1008.35 -3.40883 0.0338703 0
M  V30 10847 H 1009.54 -2.5282 1.61314 0
M  V30 10848 H 1007.1 -1.29707 0.872105 0
M  V30 10849 H 1007.83 -3.11843 -0.890187 0
M  V30 10850 H 1007.62 -3.85342 0.72486 0
M  V30 10851 H 1009.11 -4.17056 -0.213152 0
M  V30 10852 N 1009.54 -0.859717 -1.32086 0
M  V30 10853 C 1010.48 -0.252764 -2.26796 0
M  V30 10854 C 1011.45 0.612178 -1.50636 0
M  V30 10855 O 1012.64 0.567865 -1.79743 0
M  V30 10856 C 1009.76 0.643017 -3.3254 0
M  V30 10857 C 1008.81 -0.149211 -4.26239 0
M  V30 10858 S 1009.64 -1.52097 -5.13446 0
M  V30 10859 C 1010.8 -0.631035 -6.22711 0
M  V30 10860 H 1011.03 -1.05563 -2.77928 0
M  V30 10861 H 1008.57 -0.657639 -1.39694 0
M  V30 10862 H 1010.52 1.15418 -3.9394 0
M  V30 10863 H 1009.18 1.41974 -2.80183 0
M  V30 10864 H 1008.38 0.53328 -5.01171 0
M  V30 10865 H 1007.98 -0.592128 -3.69283 0
M  V30 10866 H 1010.27 0.162638 -6.77305 0
M  V30 10867 H 1011.21 -1.35116 -6.95089 0
M  V30 10868 H 1011.62 -0.203131 -5.64134 0
M  V30 10869 N 1011.02 1.44971 -0.618145 0
M  V30 10870 C 1011.93 2.34403 0.0960457 0
M  V30 10871 C 1012.95 1.51862 0.849355 0
M  V30 10872 O 1014.12 1.84632 0.804557 0
M  V30 10873 C 1011.19 3.29646 1.07397 0
M  V30 10874 C 1010.25 4.28095 0.321466 0
M  V30 10875 C 1009.48 5.18787 1.25281 0
M  V30 10876 O 1009.7 5.1313 2.49106 0
M  V30 10877 O 1008.64 5.97282 0.744156 0
M  V30 10878 H 1012.46 2.96898 -0.639176 0
M  V30 10879 H 1010.05 1.44529 -0.37837 0
M  V30 10880 H 1011.93 3.88307 1.63694 0
M  V30 10881 H 1010.61 2.69702 1.79004 0
M  V30 10882 H 1009.51 3.73019 -0.284223 0
M  V30 10883 H 1010.85 4.90923 -0.354315 0
M  V30 10884 N 1012.5 0.357919 1.53482 0
M  V30 10885 C 1013.45 -0.50845 2.22258 0
M  V30 10886 C 1014.43 -1.05476 1.21506 0
M  V30 10887 O 1015.62 -0.986075 1.46988 0
M  V30 10888 C 1012.75 -1.65157 3.00962 0
M  V30 10889 C 1011.84 -1.11851 4.09084 0
M  V30 10890 N 1012.23 -0.307818 5.04862 0
M  V30 10891 C 1010.53 -1.39405 4.23653 0
M  V30 10892 C 1011.23 -0.016842 5.81698 0
M  V30 10893 N 1010.21 -0.612396 5.40139 0
M  V30 10894 H 1014.01 0.117836 2.93664 0
M  V30 10895 H 1011.52 0.16553 1.61554 0
M  V30 10896 H 1013.52 -2.28435 3.48745 0
M  V30 10897 H 1012.18 -2.281 2.31086 0
M  V30 10898 H 1013.19 0.0523313 5.17874 0
M  V30 10899 H 1009.87 -2.02682 3.65002 0
M  V30 10900 H 1011.26 0.638046 6.68864 0
M  V30 10901 N 1013.98 -1.5736 0.0868897 0
M  V30 10902 C 1014.93 -2.10105 -0.885435 0
M  V30 10903 C 1015.91 -1.01417 -1.24913 0
M  V30 10904 O 1017.1 -1.27704 -1.22558 0
M  V30 10905 C 1014.23 -2.67837 -2.14752 0
M  V30 10906 C 1013.32 -3.83553 -1.80963 0
M  V30 10907 N 1013.71 -4.91917 -1.17693 0
M  V30 10908 C 1012.01 -3.93134 -2.10622 0
M  V30 10909 C 1012.71 -5.72628 -1.02332 0
M  V30 10910 N 1011.68 -5.2139 -1.53796 0
M  V30 10911 H 1015.49 -2.91272 -0.392179 0
M  V30 10912 H 1013 -1.61981 -0.116566 0
M  V30 10913 H 1015 -3.03948 -2.85344 0
M  V30 10914 H 1013.66 -1.88122 -2.64651 0
M  V30 10915 H 1014.67 -5.10964 -0.844731 0
M  V30 10916 H 1011.34 -3.24416 -2.62793 0
M  V30 10917 H 1012.73 -6.69813 -0.529171 0
M  V30 10918 N 1015.45 0.186762 -1.56489 0
M  V30 10919 C 1016.7 0.904063 -1.80752 0
M  V30 10920 C 1017.02 1.83443 -0.661343 0
M  V30 10921 O 1016.29 1.93272 0.319811 0
M  V30 10922 H 1014.87 0.336828 -0.66675 0
M  V30 10923 H 1017.54 0.190275 -1.93969 0
M  V30 10924 H 1016.63 1.49021 -2.74225 0
M  V30 10925 N 1016.93 1.50896 0.454776 0
M  V30 10926 C 1017.87 1.65608 1.57001 0
M  V30 10927 C 1018.84 0.50387 1.54596 0
M  V30 10928 O 1020.03 0.725485 1.7398 0
M  V30 10929 C 1017.15 1.65366 2.95587 0
M  V30 10930 C 1016.2 2.86344 3.16085 0
M  V30 10931 S 1017.03 4.47418 2.9424 0
M  V30 10932 C 1018.19 4.49895 4.35138 0
M  V30 10933 H 1018.42 2.59941 1.44285 0
M  V30 10934 H 1015.96 1.40362 0.643264 0
M  V30 10935 H 1017.91 1.65911 3.75478 0
M  V30 10936 H 1016.57 0.722407 3.0568 0
M  V30 10937 H 1015.77 2.82526 4.17367 0
M  V30 10938 H 1015.37 2.8345 2.43992 0
M  V30 10939 H 1017.66 4.24462 5.28051 0
M  V30 10940 H 1018.6 5.5161 4.43995 0
M  V30 10941 H 1019.01 3.79412 4.17979 0
M  V30 10942 N 1018.41 -0.709066 1.40748 0
M  V30 10943 C 1019.64 -1.50313 1.42901 0
M  V30 10944 C 1020.06 -1.88072 0.032213 0
M  V30 10945 O 1019.42 -1.53716 -0.96131 0
M  V30 10946 C 1019.47 -2.75074 2.33166 0
M  V30 10947 O 1018.57 -3.72036 1.7794 0
M  V30 10948 H 1017.91 -0.452934 0.485538 0
M  V30 10949 H 1020.44 -0.872712 1.85054 0
M  V30 10950 H 1020.45 -3.23532 2.48578 0
M  V30 10951 H 1019.13 -2.46927 3.34664 0
M  V30 10952 H 1017.7 -3.30911 1.71908 0
M  V30 10953 N 1019.89 -1.26353 -0.941956 0
M  V30 10954 C 1021.3 -1.10774 -1.50287 0
M  V30 10955 C 1021.65 0.312229 -1.937 0
M  V30 10956 O 1020.78 1.20364 -1.79838 0
M  V30 10957 C 1021.37 -2.00473 -2.73123 0
M  V30 10958 C 1019.93 -1.89042 -3.25485 0
M  V30 10959 C 1019.08 -1.93869 -1.98267 0
M  V30 10960 H 1022.03 -1.39454 -0.757523 0
M  V30 10961 H 1022.05 -1.55216 -3.47402 0
M  V30 10962 H 1021.56 -3.03812 -2.41495 0
M  V30 10963 H 1019.66 -0.886341 -3.61904 0
M  V30 10964 H 1019.78 -2.74533 -3.92643 0
M  V30 10965 H 1018.14 -1.37912 -2.14132 0
M  V30 10966 H 1018.92 -2.98837 -1.68972 0
M  V30 10967 N 1021.37 1.14642 -1.08144 0
M  V30 10968 C 1022.6 1.89484 -0.830864 0
M  V30 10969 C 1023.01 1.78443 0.616722 0
M  V30 10970 O 1022.37 1.14191 1.42361 0
M  V30 10971 C 1022.42 3.39554 -1.24039 0
M  V30 10972 O 1022.14 3.50286 -2.63119 0
M  V30 10973 C 1023.64 4.31399 -1.02029 0
M  V30 10974 H 1020.86 0.600283 -0.299835 0
M  V30 10975 H 1023.4 1.45204 -1.44001 0
M  V30 10976 H 1021.56 3.81467 -0.675407 0
M  V30 10977 H 1021.97 4.43481 -2.80045 0
M  V30 10978 H 1023.45 5.35079 -1.35625 0
M  V30 10979 H 1023.92 4.39179 0.0428697 0
M  V30 10980 H 1024.53 3.95238 -1.57057 0
M  V30 10981 N 1022.85 0.866709 1.31628 0
M  V30 10982 C 1024.09 0.476026 1.96825 0
M  V30 10983 C 1024.42 -0.970994 1.68529 0
M  V30 10984 O 1023.68 -1.69823 0.97255 0
M  V30 10985 C 1023.97 0.676018 3.50948 0
M  V30 10986 C 1023.64 2.09533 3.99258 0
M  V30 10987 C 1022.3 2.48349 4.1216 0
M  V30 10988 C 1024.65 3.02112 4.24709 0
M  V30 10989 C 1021.98 3.78991 4.47864 0
M  V30 10990 C 1024.33 4.32266 4.61875 0
M  V30 10991 C 1023 4.71 4.72985 0
M  V30 10992 H 1022.27 0.17419 0.720235 0
M  V30 10993 H 1024.92 1.09907 1.5682 0
M  V30 10994 H 1023.22 -0.0301867 3.91788 0
M  V30 10995 H 1024.92 0.353604 3.99438 0
M  V30 10996 H 1021.51 1.78396 3.89709 0
M  V30 10997 H 1025.69 2.73351 4.14238 0
M  V30 10998 H 1020.95 4.08769 4.54663 0
M  V30 10999 H 1025.12 5.04055 4.80522 0
M  V30 11000 H 1022.75 5.72273 5.00407 0
M  V30 11001 N 1024.32 -1.44642 0.625825 0
M  V30 11002 C 1025.23 -2.34451 -0.0836134 0
M  V30 11003 C 1026.25 -1.5231 -0.841289 0
M  V30 11004 O 1027.43 -1.85056 -0.794754 0
M  V30 11005 C 1024.49 -3.30211 -1.05648 0
M  V30 11006 C 1023.55 -4.28259 -0.298759 0
M  V30 11007 C 1022.78 -5.19444 -1.22528 0
M  V30 11008 O 1023.01 -5.14444 -2.46382 0
M  V30 11009 O 1021.94 -5.97668 -0.71247 0
M  V30 11010 H 1025.77 -2.96555 0.654912 0
M  V30 11011 H 1023.35 -1.44327 0.386029 0
M  V30 11012 H 1025.23 -3.8917 -1.61632 0
M  V30 11013 H 1023.91 -2.70648 -1.77571 0
M  V30 11014 H 1022.82 -3.72863 0.304001 0
M  V30 11015 H 1024.15 -4.90728 0.380345 0
M  V30 11016 N 1025.8 -0.366053 -1.5329 0
M  V30 11017 C 1026.76 0.467904 -2.24373 0
M  V30 11018 C 1027.76 1.00934 -1.25176 0
M  V30 11019 O 1028.95 0.895015 -1.49449 0
M  V30 11020 C 1026.09 1.65405 -2.98084 0
M  V30 11021 H 1027.28 -0.154105 -2.99504 0
M  V30 11022 H 1024.83 -0.117751 -1.55856 0
M  V30 11023 H 1025.57 2.31413 -2.27197 0
M  V30 11024 H 1025.35 1.27277 -3.70868 0
M  V30 11025 H 1026.84 2.24503 -3.52119 0
M  V30 11026 N 1027.28 1.57312 -0.0952337 0
M  V30 11027 C 1028.21 2.09691 0.900274 0
M  V30 11028 C 1029.19 1.0075 1.27625 0
M  V30 11029 O 1030.37 1.28249 1.38147 0
M  V30 11030 C 1027.5 2.574 2.20142 0
M  V30 11031 C 1026.55 3.78 1.9753 0
M  V30 11032 S 1027.38 5.21577 1.21318 0
M  V30 11033 C 1028.54 5.72636 2.52663 0
M  V30 11034 H 1028.77 2.93803 0.45467 0
M  V30 11035 H 1026.3 1.53948 0.118056 0
M  V30 11036 H 1028.26 2.85546 2.94914 0
M  V30 11037 H 1026.92 1.73514 2.61824 0
M  V30 11038 H 1026.11 4.09451 2.93881 0
M  V30 11039 H 1025.72 3.50349 1.30888 0
M  V30 11040 H 1028.01 5.80911 3.48638 0
M  V30 11041 H 1028.95 6.71136 2.25791 0
M  V30 11042 H 1029.36 5.00569 2.60943 0
M  V30 11043 N 1028.76 -0.17846 1.56586 0
M  V30 11044 C 1029.69 -1.22342 1.98884 0
M  V30 11045 C 1030.67 -1.46564 0.86331 0
M  V30 11046 O 1031.85 -1.58019 1.12887 0
M  V30 11047 C 1028.98 -2.56396 2.34261 0
M  V30 11048 C 1027.94 -2.46756 3.49708 0
M  V30 11049 C 1027.26 -3.85235 3.70807 0
M  V30 11050 C 1028.56 -1.97838 4.83381 0
M  V30 11051 H 1030.26 -0.871848 2.86425 0
M  V30 11052 H 1027.8 -0.417948 1.37801 0
M  V30 11053 H 1029.76 -3.29695 2.62448 0
M  V30 11054 H 1028.48 -2.93327 1.43621 0
M  V30 11055 H 1027.14 -1.75912 3.21637 0
M  V30 11056 H 1026.79 -4.19547 2.7747 0
M  V30 11057 H 1026.49 -3.79655 4.48481 0
M  V30 11058 H 1028.01 -4.60131 4.01387 0
M  V30 11059 H 1029.43 -2.60906 5.10491 0
M  V30 11060 H 1027.82 -2.03223 5.64642 0
M  V30 11061 H 1028.89 -0.932339 4.75852 0
M  V30 11062 N 1030.24 -1.51135 -0.446768 0
M  V30 11063 C 1031.17 -1.67949 -1.55967 0
M  V30 11064 C 1032.18 -0.560337 -1.52853 0
M  V30 11065 O 1033.37 -0.83435 -1.578 0
M  V30 11066 C 1030.47 -1.6703 -2.9488 0
M  V30 11067 C 1029.64 -2.95377 -3.22601 0
M  V30 11068 C 1028.7 -2.86772 -4.4119 0
M  V30 11069 O 1027.73 -3.60722 -4.40304 0
M  V30 11070 N 1028.93 -2.01979 -5.44228 0
M  V30 11071 H 1031.69 -2.63951 -1.41951 0
M  V30 11072 H 1029.26 -1.48903 -0.635569 0
M  V30 11073 H 1031.25 -1.58854 -3.7222 0
M  V30 11074 H 1029.82 -0.786623 -3.02541 0
M  V30 11075 H 1029.04 -3.17494 -2.33647 0
M  V30 11076 H 1030.33 -3.80356 -3.37945 0
M  V30 11077 H 1029.72 -1.41257 -5.4778 0
M  V30 11078 H 1028.28 -1.99689 -6.20457 0
M  V30 11079 N 1031.71 0.701592 -1.41122 0
M  V30 11080 C 1032.96 1.45722 -1.39456 0
M  V30 11081 C 1033.28 1.95599 -0.00475228 0
M  V30 11082 O 1034.48 2.71166 0.134529 0
M  V30 11083 C 1032.94 2.63475 -2.45172 0
M  V30 11084 C 1032.55 2.20409 -3.90031 0
M  V30 11085 C 1034.29 3.4114 -2.52633 0
M  V30 11086 C 1032.2 3.35084 -4.87312 0
M  V30 11087 H 1031.13 0.547341 -0.518588 0
M  V30 11088 H 1033.78 0.762233 -1.6692 0
M  V30 11089 H 1032.16 3.35212 -2.10829 0
M  V30 11090 H 1033.33 1.56 -4.3359 0
M  V30 11091 H 1031.65 1.55752 -3.86174 0
M  V30 11092 H 1034.25 4.26496 -3.22498 0
M  V30 11093 H 1034.59 3.85915 -1.56125 0
M  V30 11094 H 1035.12 2.76456 -2.86037 0
M  V30 11095 H 1031.86 2.95327 -5.85203 0
M  V30 11096 H 1031.38 3.98362 -4.48406 0
M  V30 11097 H 1033.06 4.00949 -5.07788 0
M  V30 11098 N 1033.19 1.2685 0.935242 0
M  V30 11099 C 1034.44 1.12522 1.67878 0
M  V30 11100 C 1034.76 -0.330894 1.92172 0
M  V30 11101 O 1034.03 -1.23259 1.52263 0
M  V30 11102 H 1032.61 0.413418 0.622169 0
M  V30 11103 H 1035.27 1.59267 1.12339 0
M  V30 11104 H 1034.37 1.64853 2.65009 0
M  V30 11105 N 1034.67 -1.14067 1.0875 0
M  V30 11106 C 1035.62 -2.21332 0.715195 0
M  V30 11107 C 1036.61 -1.67059 -0.280679 0
M  V30 11108 O 1037.82 -1.79432 -0.142874 0
M  V30 11109 H 1034.19 -0.721126 0.213264 0
M  V30 11110 H 1036.16 -2.50002 1.62916 0
M  V30 11111 C 1034.91 -3.474 0.144401 0
M  V30 11112 H 1034.24 -3.89495 0.901884 0
M  V30 11113 H 1035.68 -4.23928 -0.0782564 0
M  V30 11114 C 1034.14 -3.17787 -1.11862 0
M  V30 11115 O 1034.67 -3.35906 -2.20295 0
M  V30 11116 N 1032.87 -2.71719 -1.03039 0
M  V30 11117 H 1032.42 -2.57175 -0.14793 0
M  V30 11118 H 1032.38 -2.52281 -1.87621 0
M  V30 11119 N 1036.15 -0.873678 -1.31166 0
M  V30 11120 C 1037.4 -0.482577 -1.95842 0
M  V30 11121 C 1037.71 0.970881 -1.69804 0
M  V30 11122 O 1038.92 1.4683 -2.28371 0
M  V30 11123 C 1037.37 -0.812074 -3.50619 0
M  V30 11124 C 1036.98 -2.28254 -3.85492 0
M  V30 11125 C 1038.72 -0.489624 -4.21667 0
M  V30 11126 C 1036.63 -2.55426 -5.33396 0
M  V30 11127 H 1035.56 -0.176736 -0.732994 0
M  V30 11128 H 1038.21 -1.06709 -1.49283 0
M  V30 11129 H 1036.59 -0.156769 -3.9569 0
M  V30 11130 H 1037.77 -2.98122 -3.51369 0
M  V30 11131 H 1036.08 -2.5714 -3.27518 0
M  V30 11132 H 1038.68 -0.669811 -5.30488 0
M  V30 11133 H 1039.02 0.570204 -4.12376 0
M  V30 11134 H 1039.56 -1.10163 -3.82242 0
M  V30 11135 H 1036.3 -3.60106 -5.47726 0
M  V30 11136 H 1035.82 -1.90156 -5.68859 0
M  V30 11137 H 1037.49 -2.40345 -6.00702 0
M  V30 11138 N 1037.63 1.44308 -0.633487 0
M  V30 11139 C 1038.87 2.02322 -0.139123 0
M  V30 11140 C 1039.21 1.49733 1.23667 0
M  V30 11141 O 1038.48 0.682353 1.82138 0
M  V30 11142 C 1038.76 3.59871 -0.128366 0
M  V30 11143 C 1038.62 4.22737 -1.53667 0
M  V30 11144 C 1039.94 4.36702 0.545834 0
M  V30 11145 H 1037.05 0.735161 -0.0520293 0
M  V30 11146 H 1039.7 1.7185 -0.810411 0
M  V30 11147 H 1037.85 3.85963 0.443263 0
M  V30 11148 H 1039.52 4.07744 -2.15737 0
M  V30 11149 H 1037.76 3.80142 -2.08985 0
M  V30 11150 H 1038.43 5.31757 -1.48116 0
M  V30 11151 H 1040.91 4.16057 0.0596879 0
M  V30 11152 H 1039.78 5.46407 0.522557 0
M  V30 11153 H 1040.05 4.11483 1.6166 0
M  V30 11154 N 1039.1 0.374177 1.53094 0
M  V30 11155 C 1040.35 -0.212816 2.01379 0
M  V30 11156 C 1040.68 -1.48069 1.26118 0
M  V30 11157 O 1039.93 -1.92625 0.345561 0
M  V30 11158 C 1040.23 -0.542179 3.53264 0
M  V30 11159 C 1039.9 0.632375 4.46444 0
M  V30 11160 C 1038.56 0.954635 4.71636 0
M  V30 11161 C 1040.91 1.41887 5.01515 0
M  V30 11162 C 1038.24 2.06521 5.4915 0
M  V30 11163 C 1040.59 2.51993 5.80243 0
M  V30 11164 C 1039.26 2.84744 6.03719 0
M  V30 11165 H 1038.53 -0.0778749 0.736897 0
M  V30 11166 H 1041.17 0.508412 1.84628 0
M  V30 11167 H 1039.48 -1.34454 3.68007 0
M  V30 11168 H 1041.18 -1.00874 3.88105 0
M  V30 11169 H 1037.77 0.371179 4.2699 0
M  V30 11170 H 1041.95 1.18315 4.81991 0
M  V30 11171 H 1037.21 2.32284 5.65557 0
M  V30 11172 H 1041.38 3.13346 6.21922 0
M  V30 11173 H 1039.01 3.70921 6.63568 0
M  V30 11174 N 1040.58 -1.57259 0.103575 0
M  V30 11175 C 1041.81 -1.99 -0.566275 0
M  V30 11176 C 1042.23 -0.982909 -1.61197 0
M  V30 11177 O 1041.58 0.026345 -1.82481 0
M  V30 11178 C 1041.63 -3.40778 -1.20635 0
M  V30 11179 O 1041.35 -4.37632 -0.202472 0
M  V30 11180 C 1042.86 -3.97567 -1.961 0
M  V30 11181 H 1040.08 -0.653751 -0.151164 0
M  V30 11182 H 1042.62 -2.03658 0.185365 0
M  V30 11183 H 1040.77 -3.37107 -1.90886 0
M  V30 11184 H 1041.19 -5.2026 -0.665535 0
M  V30 11185 H 1042.66 -4.98897 -2.36233 0
M  V30 11186 H 1043.14 -3.35853 -2.83018 0
M  V30 11187 H 1043.75 -4.04737 -1.30645 0
M  V30 11188 N 1042.06 0.170153 -1.56679 0
M  V30 11189 C 1043.31 0.884902 -1.81252 0
M  V30 11190 C 1043.62 1.83361 -0.681024 0
M  V30 11191 O 1044.83 2.59082 -0.811722 0
M  V30 11192 C 1043.28 1.62408 -3.21172 0
M  V30 11193 C 1042.89 0.718947 -4.42194 0
M  V30 11194 C 1044.64 2.32699 -3.55037 0
M  V30 11195 C 1042.54 1.45843 -5.73135 0
M  V30 11196 H 1041.47 0.33418 -0.675899 0
M  V30 11197 H 1044.12 0.137818 -1.82982 0
M  V30 11198 H 1042.51 2.41596 -3.13763 0
M  V30 11199 H 1043.68 -0.0360521 -4.60786 0
M  V30 11200 H 1042 0.125634 -4.1621 0
M  V30 11201 H 1044.59 2.88621 -4.50114 0
M  V30 11202 H 1044.94 3.08092 -2.79974 0
M  V30 11203 H 1045.47 1.60453 -3.64005 0
M  V30 11204 H 1042.21 0.746799 -6.51232 0
M  V30 11205 H 1041.73 2.18672 -5.58518 0
M  V30 11206 H 1043.41 2.0056 -6.1513 0
M  V30 11207 N 1043.54 1.5137 0.438746 0
M  V30 11208 C 1044.79 1.63969 1.1883 0
M  V30 11209 C 1045.11 0.355245 1.91228 0
M  V30 11210 O 1044.37 -0.660605 1.84213 0
M  V30 11211 C 1044.67 2.79221 2.23093 0
M  V30 11212 C 1044.33 4.18547 1.67717 0
M  V30 11213 C 1043 4.5645 1.52337 0
M  V30 11214 C 1045.35 5.05494 1.26986 0
M  V30 11215 C 1042.68 5.79007 0.946996 0
M  V30 11216 C 1045.03 6.28628 0.707785 0
M  V30 11217 C 1043.69 6.65305 0.540881 0
M  V30 11218 H 1042.96 0.600003 0.43483 0
M  V30 11219 H 1045.61 1.85398 0.479565 0
M  V30 11220 H 1043.91 2.52008 2.99999 0
M  V30 11221 H 1045.61 2.86168 2.80907 0
M  V30 11222 H 1042.2 3.88663 1.80663 0
M  V30 11223 H 1046.38 4.76818 1.37689 0
M  V30 11224 H 1041.64 6.06072 0.805432 0
M  V30 11225 H 1045.81 6.95342 0.38366 0
M  V30 11226 H 1043.44 7.60144 0.0921324 0
M  V30 11227 N 1045.02 -0.694098 1.41492 0
M  V30 11228 C 1046.26 -1.45415 1.40929 0
M  V30 11229 C 1046.59 -1.94491 0.0189301 0
M  V30 11230 O 1045.85 -1.7 -0.96945 0
M  V30 11231 C 1046.15 -2.6805 2.36398 0
M  V30 11232 C 1045.81 -2.37623 3.83205 0
M  V30 11233 C 1044.47 -2.29035 4.23198 0
M  V30 11234 C 1046.83 -2.12555 4.75888 0
M  V30 11235 C 1044.15 -1.93478 5.5388 0
M  V30 11236 C 1046.51 -1.78506 6.06892 0
M  V30 11237 C 1045.17 -1.68415 6.45905 0
M  V30 11238 H 1044.44 -0.53211 0.515694 0
M  V30 11239 H 1047.09 -0.793193 1.74301 0
M  V30 11240 H 1045.39 -3.39086 1.96285 0
M  V30 11241 H 1047.09 -3.26194 2.33234 0
M  V30 11242 H 1043.68 -2.45202 3.51531 0
M  V30 11243 H 1047.86 -2.18133 4.45793 0
M  V30 11244 H 1043.12 -1.84219 5.82986 0
M  V30 11245 H 1047.29 -1.58128 6.7821 0
M  V30 11246 H 1044.92 -1.40631 7.47079 0
M  V30 11247 N 1046.49 -1.27344 -0.928501 0
M  V30 11248 C 1047.72 -1.16447 -1.7102 0
M  V30 11249 C 1048.14 0.278799 -1.8673 0
M  V30 11250 O 1047.49 1.18989 -1.38376 0
M  V30 11251 C 1047.55 -1.84242 -3.11026 0
M  V30 11252 O 1047.27 -3.2293 -2.96054 0
M  V30 11253 C 1048.77 -1.7946 -4.05351 0
M  V30 11254 H 1045.99 -0.404898 -0.535069 0
M  V30 11255 H 1048.53 -1.68201 -1.16313 0
M  V30 11256 H 1046.69 -1.36395 -3.62595 0
M  V30 11257 H 1047.1 -3.5667 -3.8456 0
M  V30 11258 H 1048.57 -2.31511 -5.01105 0
M  V30 11259 H 1049.05 -0.763771 -4.32508 0
M  V30 11260 H 1049.66 -2.26918 -3.59706 0
M  V30 11261 N 1047.97 1.13488 -1.09353 0
M  V30 11262 C 1048.94 2.17066 -0.735863 0
M  V30 11263 C 1049.94 1.59086 0.234181 0
M  V30 11264 O 1051.13 1.74196 0.012463 0
M  V30 11265 C 1048.26 3.40786 -0.0880975 0
M  V30 11266 H 1049.45 2.50221 -1.65316 0
M  V30 11267 H 1047 1.28304 -0.89263 0
M  V30 11268 H 1047.74 3.1322 0.840462 0
M  V30 11269 H 1047.52 3.8414 -0.786073 0
M  V30 11270 H 1049.01 4.17342 0.146775 0
M  V30 11271 N 1049.45 0.880621 1.30701 0
M  V30 11272 C 1050.36 0.348034 2.32004 0
M  V30 11273 C 1051.38 -0.547508 1.65162 0
M  V30 11274 O 1052.55 -0.441673 1.96497 0
M  V30 11275 C 1049.62 -0.432585 3.43991 0
M  V30 11276 C 1048.68 0.492189 4.26469 0
M  V30 11277 C 1047.91 -0.25127 5.33108 0
M  V30 11278 O 1048.14 -1.47795 5.5092 0
M  V30 11279 O 1047.07 0.396376 6.00593 0
M  V30 11280 H 1050.9 1.18798 2.79501 0
M  V30 11281 H 1048.48 0.64432 1.34792 0
M  V30 11282 H 1050.36 -0.874733 4.12221 0
M  V30 11283 H 1049.04 -1.2489 2.98637 0
M  V30 11284 H 1047.94 0.983058 3.60953 0
M  V30 11285 H 1049.28 1.27439 4.75416 0
M  V30 11286 N 1050.93 -1.4397 0.641131 0
M  V30 11287 C 1051.86 -2.27948 -0.10731 0
M  V30 11288 C 1052.84 -1.39124 -0.841615 0
M  V30 11289 O 1054.02 -1.68566 -0.843662 0
M  V30 11290 C 1051.15 -3.18277 -1.15835 0
M  V30 11291 C 1050.2 -4.23276 -0.52345 0
M  V30 11292 S 1051.03 -5.30984 0.693969 0
M  V30 11293 C 1052.19 -6.24882 -0.356831 0
M  V30 11294 H 1052.42 -2.91077 0.605083 0
M  V30 11295 H 1049.95 -1.48303 0.429598 0
M  V30 11296 H 1051.91 -3.70867 -1.75977 0
M  V30 11297 H 1050.57 -2.54348 -1.84299 0
M  V30 11298 H 1049.76 -4.86533 -1.31536 0
M  V30 11299 H 1049.37 -3.74 0.00358355 0
M  V30 11300 H 1051.66 -6.66305 -1.22653 0
M  V30 11301 H 1052.6 -7.07692 0.240412 0
M  V30 11302 H 1053.01 -5.60301 -0.687217 0
M  V30 11303 N 1052.41 -0.382291 -1.52893 0
M  V30 11304 C 1053.65 0.202433 -2.01787 0
M  V30 11305 C 1053.99 1.47044 -1.26853 0
M  V30 11306 O 1053.26 1.91007 -0.366969 0
M  V30 11307 C 1053.54 0.477471 -3.5692 0
M  V30 11308 C 1053.4 -0.805339 -4.42532 0
M  V30 11309 C 1054.72 1.27106 -4.21346 0
M  V30 11310 H 1051.84 0.0720998 -0.733465 0
M  V30 11311 H 1054.48 -0.510478 -1.83014 0
M  V30 11312 H 1052.63 1.08478 -3.73048 0
M  V30 11313 H 1054.3 -1.4424 -4.3817 0
M  V30 11314 H 1052.54 -1.42216 -4.09826 0
M  V30 11315 H 1053.21 -0.567635 -5.49074 0
M  V30 11316 H 1055.69 0.757161 -4.09153 0
M  V30 11317 H 1054.57 1.43225 -5.29885 0
M  V30 11318 H 1054.83 2.28431 -3.78513 0
M  V30 11319 N 1053.89 1.57202 -0.111913 0
M  V30 11320 C 1055.13 1.9495 0.547795 0
M  V30 11321 C 1055.46 0.994763 1.67137 0
M  V30 11322 O 1054.72 0.0173528 1.95692 0
M  V30 11323 C 1055.01 3.39152 1.12741 0
M  V30 11324 C 1054.68 4.50724 0.125916 0
M  V30 11325 C 1053.34 4.80968 -0.149489 0
M  V30 11326 C 1055.69 5.18215 -0.556987 0
M  V30 11327 C 1053.02 5.76023 -1.1142 0
M  V30 11328 C 1055.37 6.14307 -1.51029 0
M  V30 11329 C 1054.04 6.42947 -1.79375 0
M  V30 11330 H 1053.31 0.713372 0.200453 0
M  V30 11331 H 1055.96 1.90542 -0.191316 0
M  V30 11332 H 1054.26 3.4022 1.94313 0
M  V30 11333 H 1055.96 3.65668 1.64584 0
M  V30 11334 H 1052.55 4.27162 0.350756 0
M  V30 11335 H 1056.73 4.95012 -0.357378 0
M  V30 11336 H 1051.99 5.9652 -1.34064 0
M  V30 11337 H 1056.16 6.65692 -2.04516 0
M  V30 11338 H 1053.79 7.1641 -2.54284 0
M  V30 11339 N 1055.36 -0.161842 1.56767 0
M  V30 11340 C 1056.31 -1.2002 1.97139 0
M  V30 11341 C 1057.28 -1.43486 0.836713 0
M  V30 11342 O 1058.47 -1.56069 1.0976 0
M  V30 11343 C 1055.61 -2.53228 2.34456 0
M  V30 11344 C 1054.72 -2.37062 3.61145 0
M  V30 11345 C 1053.85 -3.63202 3.87631 0
M  V30 11346 C 1052.89 -3.42008 5.07638 0
M  V30 11347 N 1052.03 -4.60242 5.30209 0
M  V30 11348 H 1056.87 -0.848918 2.85653 0
M  V30 11349 H 1054.41 -0.407753 1.41336 0
M  V30 11350 H 1056.36 -3.30879 2.54116 0
M  V30 11351 H 1054.99 -2.86333 1.4904 0
M  V30 11352 H 1054.05 -1.50539 3.49345 0
M  V30 11353 H 1055.36 -2.17353 4.48953 0
M  V30 11354 H 1054.51 -4.49285 4.0771 0
M  V30 11355 H 1053.25 -3.85899 2.98216 0
M  V30 11356 H 1052.26 -2.54312 4.87448 0
M  V30 11357 H 1053.48 -3.20724 5.98593 0
M  V30 11358 H 1051.43 -4.8314 4.43747 0
M  V30 11359 H 1051.34 -4.43481 6.12259 0
M  V30 11360 H 1052.61 -5.47581 5.54775 0
M  V30 11361 N 1056.84 -1.516 -0.430713 0
M  V30 11362 C 1058.09 -1.63829 -1.17657 0
M  V30 11363 C 1058.4 -0.363605 -1.92191 0
M  V30 11364 O 1059.61 -0.365358 -2.6903 0
M  V30 11365 C 1058.07 -2.89357 -2.14011 0
M  V30 11366 C 1057.67 -4.23854 -1.45094 0
M  V30 11367 C 1059.42 -3.10944 -2.88988 0
M  V30 11368 C 1057.32 -5.40526 -2.3997 0
M  V30 11369 H 1056.25 -0.610221 -0.442884 0
M  V30 11370 H 1058.91 -1.78073 -0.442984 0
M  V30 11371 H 1057.29 -2.68762 -2.90832 0
M  V30 11372 H 1058.46 -4.54854 -0.737853 0
M  V30 11373 H 1056.78 -4.08197 -0.822429 0
M  V30 11374 H 1059.37 -3.95286 -3.60074 0
M  V30 11375 H 1059.72 -2.24291 -3.50712 0
M  V30 11376 H 1060.25 -3.3191 -2.19272 0
M  V30 11377 H 1056.99 -6.29459 -1.82925 0
M  V30 11378 H 1056.51 -5.13893 -3.09313 0
M  V30 11379 H 1058.19 -5.72741 -3.00959 0
M  V30 11380 N 1058.32 0.686584 -1.41858 0
M  V30 11381 C 1059.57 1.44235 -1.40994 0
M  V30 11382 C 1059.88 1.95583 -0.0254979 0
M  V30 11383 O 1061.09 2.71294 0.10576 0
M  V30 11384 C 1059.54 2.6086 -2.47952 0
M  V30 11385 C 1059.15 2.16259 -3.92347 0
M  V30 11386 C 1060.9 3.38441 -2.56237 0
M  V30 11387 C 1058.8 3.29896 -4.90838 0
M  V30 11388 H 1057.73 0.54181 -0.524364 0
M  V30 11389 H 1060.38 0.744486 -1.67719 0
M  V30 11390 H 1058.77 3.32957 -2.14373 0
M  V30 11391 H 1059.94 1.51392 -4.35221 0
M  V30 11392 H 1058.25 1.51648 -3.87804 0
M  V30 11393 H 1060.85 4.23052 -3.27003 0
M  V30 11394 H 1061.19 3.84238 -1.6021 0
M  V30 11395 H 1061.73 2.73406 -2.88953 0
M  V30 11396 H 1058.47 2.89104 -5.88302 0
M  V30 11397 H 1057.99 3.93584 -4.52606 0
M  V30 11398 H 1059.67 3.95541 -5.12012 0
M  V30 11399 N 1059.8 1.27835 0.921735 0
M  V30 11400 C 1060.76 1.11108 2.00469 0
M  V30 11401 C 1061.76 0.053203 1.60712 0
M  V30 11402 O 1062.95 0.298308 1.71627 0
M  V30 11403 C 1060.08 0.694269 3.33755 0
M  V30 11404 H 1061.28 2.07279 2.16738 0
M  V30 11405 H 1058.83 1.10708 1.10333 0
M  V30 11406 H 1059.56 -0.268561 3.23186 0
M  V30 11407 H 1059.35 1.45836 3.6397 0
M  V30 11408 H 1060.84 0.59965 4.13272 0
M  V30 11409 N 1061.28 -1.12907 1.09954 0
M  V30 11410 C 1062.52 -1.84306 0.838912 0
M  V30 11411 C 1062.85 -1.83825 -0.635508 0
M  V30 11412 O 1062.11 -1.27556 -1.48418 0
M  V30 11413 C 1062.4 -3.31885 1.32616 0
M  V30 11414 C 1062.07 -3.52542 2.81114 0
M  V30 11415 C 1060.73 -3.57888 3.21667 0
M  V30 11416 C 1063.08 -3.60065 3.76833 0
M  V30 11417 C 1060.41 -3.68296 4.567 0
M  V30 11418 C 1062.76 -3.72001 5.11662 0
M  V30 11419 C 1061.43 -3.75602 5.51797 0
M  V30 11420 H 1060.7 -0.674422 0.30698 0
M  V30 11421 H 1063.35 -1.33261 1.37527 0
M  V30 11422 H 1061.65 -3.85318 0.709719 0
M  V30 11423 H 1063.35 -3.85588 1.10105 0
M  V30 11424 H 1059.94 -3.4904 2.48735 0
M  V30 11425 H 1064.12 -3.55209 3.46612 0
M  V30 11426 H 1059.38 -3.69352 4.87226 0
M  V30 11427 H 1063.55 -3.76765 5.8568 0
M  V30 11428 H 1061.18 -3.83419 6.56425 0
M  V30 11429 N 1062.75 -0.88754 -1.30232 0
M  V30 11430 C 1064.03 -0.427249 -1.90877 0
M  V30 11431 C 1064.41 1.0922 -1.80649 0
M  V30 11432 O 1063.76 1.92866 -1.22536 0
M  V30 11433 C 1063.97 -0.928219 -3.3643 0
M  V30 11434 C 1065.32 -0.964706 -4.13496 0
M  V30 11435 O 1066.34 -0.875057 -3.45284 0
M  V30 11436 O 1065.2 -1.09754 -5.35366 0
M  V30 11437 H 1062.29 -0.131107 -0.816541 0
M  V30 11438 H 1064.84 -0.976609 -1.38782 0
M  V30 11439 H 1063.61 -1.97209 -3.37971 0
M  V30 11440 H 1063.23 -0.358169 -3.95983 0
M  V30 11441 N 1064.23 1.43628 -0.648757 0
M  V30 11442 C 1065.64 1.85142 -0.24066 0
M  V30 11443 C 1065.99 1.54304 1.21181 0
M  V30 11444 O 1065.12 0.989792 1.92437 0
M  V30 11445 C 1065.71 3.3606 -0.429999 0
M  V30 11446 C 1064.27 3.76323 -0.0762588 0
M  V30 11447 C 1063.42 2.67382 -0.734999 0
M  V30 11448 H 1066.37 1.33844 -0.852734 0
M  V30 11449 H 1066.39 3.79102 0.325836 0
M  V30 11450 H 1065.9 3.58474 -1.48721 0
M  V30 11451 H 1064.01 3.59521 0.978529 0
M  V30 11452 H 1064.12 4.76498 -0.498612 0
M  V30 11453 H 1062.48 2.54141 -0.168644 0
M  V30 11454 H 1063.27 2.92625 -1.79515 0
M  V30 11455 N 1065.71 0.390394 1.52688 0
M  V30 11456 C 1066.94 -0.191207 2.05713 0
M  V30 11457 C 1067.35 -1.40973 1.26188 0
M  V30 11458 O 1066.69 -1.81202 0.301938 0
M  V30 11459 C 1066.75 -0.624794 3.54029 0
M  V30 11460 C 1066.42 0.480413 4.54468 0
M  V30 11461 C 1067.41 1.33816 5.02384 0
M  V30 11462 C 1065.1 0.647754 4.98106 0
M  V30 11463 C 1067.09 2.34836 5.92563 0
M  V30 11464 C 1064.78 1.66129 5.88085 0
M  V30 11465 C 1065.78 2.51001 6.35206 0
M  V30 11466 O 1065.47 3.50622 7.23408 0
M  V30 11467 H 1065.2 -0.032221 0.675232 0
M  V30 11468 H 1067.75 0.554431 1.97776 0
M  V30 11469 H 1065.98 -1.42243 3.59589 0
M  V30 11470 H 1067.67 -1.13219 3.8979 0
M  V30 11471 H 1068.44 1.22019 4.694 0
M  V30 11472 H 1064.32 -0.00314511 4.61 0
M  V30 11473 H 1067.86 3.01117 6.29265 0
M  V30 11474 H 1063.76 1.77964 6.20483 0
M  V30 11475 H 1064.53 3.46644 7.41472 0
M  V30 11476 N 1067.19 -1.57141 0.120249 0
M  V30 11477 C 1068.42 -1.993 -0.544346 0
M  V30 11478 C 1068.83 -0.998858 -1.60684 0
M  V30 11479 O 1068.17 0.0162197 -1.83693 0
M  V30 11480 C 1068.23 -3.37874 -1.22808 0
M  V30 11481 C 1067.9 -4.55924 -0.313374 0
M  V30 11482 C 1068.89 -5.17962 0.448501 0
M  V30 11483 C 1066.58 -5.018 -0.224082 0
M  V30 11484 C 1068.57 -6.24264 1.28739 0
M  V30 11485 C 1066.26 -6.07963 0.618437 0
M  V30 11486 C 1067.26 -6.69061 1.3728 0
M  V30 11487 O 1066.94 -7.73173 2.20133 0
M  V30 11488 H 1066.68 -0.659466 -0.148596 0
M  V30 11489 H 1069.23 -2.04387 0.203779 0
M  V30 11490 H 1067.46 -3.29545 -2.02329 0
M  V30 11491 H 1069.15 -3.64314 -1.7897 0
M  V30 11492 H 1069.92 -4.83434 0.389395 0
M  V30 11493 H 1065.79 -4.53989 -0.80094 0
M  V30 11494 H 1069.34 -6.71883 1.87667 0
M  V30 11495 H 1065.24 -6.4192 0.678932 0
M  V30 11496 H 1066 -7.90276 2.13088 0
M  V30 11497 N 1068.67 0.153526 -1.5685 0
M  V30 11498 C 1069.9 0.881055 -1.86872 0
M  V30 11499 C 1070.3 1.75547 -0.705692 0
M  V30 11500 O 1069.65 1.8064 0.333888 0
M  V30 11501 C 1069.71 1.79429 -3.11521 0
M  V30 11502 C 1069.37 1.0977 -4.43621 0
M  V30 11503 C 1070.37 0.454693 -5.17908 0
M  V30 11504 C 1068.06 1.08915 -4.9035 0
M  V30 11505 C 1070.05 -0.187562 -6.37124 0
M  V30 11506 C 1067.74 0.443084 -6.09492 0
M  V30 11507 C 1068.73 -0.194154 -6.82724 0
M  V30 11508 O 1068.42 -0.829995 -7.99604 0
M  V30 11509 H 1068.15 0.260486 -0.623797 0
M  V30 11510 H 1070.71 0.153024 -2.04829 0
M  V30 11511 H 1068.94 2.5631 -2.89555 0
M  V30 11512 H 1070.63 2.39321 -3.27842 0
M  V30 11513 H 1071.39 0.453151 -4.82878 0
M  V30 11514 H 1067.27 1.57456 -4.33276 0
M  V30 11515 H 1070.82 -0.685542 -6.94223 0
M  V30 11516 H 1066.71 0.44227 -6.43983 0
M  V30 11517 H 1067.48 -0.731013 -8.15229 0
M  V30 11518 N 1070.14 1.51827 0.422667 0
M  V30 11519 C 1071.39 1.6522 1.17084 0
M  V30 11520 C 1071.72 0.375508 1.90841 0
M  V30 11521 O 1070.97 -0.641029 1.84903 0
M  V30 11522 C 1071.27 2.81572 2.20119 0
M  V30 11523 C 1070.94 4.20303 1.63268 0
M  V30 11524 C 1069.6 4.5804 1.47488 0
M  V30 11525 C 1071.95 5.06812 1.21618 0
M  V30 11526 C 1069.28 5.79979 0.885531 0
M  V30 11527 C 1071.63 6.29343 0.641071 0
M  V30 11528 C 1070.3 6.65841 0.470286 0
M  V30 11529 H 1069.57 0.604581 0.428442 0
M  V30 11530 H 1072.21 1.85896 0.459874 0
M  V30 11531 H 1070.52 2.55175 2.97309 0
M  V30 11532 H 1072.22 2.89132 2.77856 0
M  V30 11533 H 1068.81 3.90557 1.76531 0
M  V30 11534 H 1072.99 4.78251 1.32624 0
M  V30 11535 H 1068.25 6.06892 0.741105 0
M  V30 11536 H 1072.42 6.9571 0.309888 0
M  V30 11537 H 1070.05 7.60199 0.0115038 0
M  V30 11538 N 1071.62 -0.679052 1.4222 0
M  V30 11539 C 1072.55 -1.80455 1.41311 0
M  V30 11540 C 1073.57 -1.59767 0.312799 0
M  V30 11541 O 1074.76 -1.68964 0.575612 0
M  V30 11542 C 1071.86 -3.17492 1.18541 0
M  V30 11543 C 1071.03 -3.65066 2.40926 0
M  V30 11544 C 1070.09 -4.80823 2.13765 0
M  V30 11545 O 1069.11 -4.91587 2.86934 0
M  V30 11546 N 1070.32 -5.69233 1.13813 0
M  V30 11547 H 1073.08 -1.81722 2.38322 0
M  V30 11548 H 1070.64 -0.861988 1.37045 0
M  V30 11549 H 1072.63 -3.92581 0.982958 0
M  V30 11550 H 1071.2 -3.1115 0.300691 0
M  V30 11551 H 1070.42 -2.80702 2.76767 0
M  V30 11552 H 1071.71 -3.93593 3.22431 0
M  V30 11553 H 1071.11 -5.63185 0.532887 0
M  V30 11554 H 1069.67 -6.44152 0.995554 0
M  V30 11555 N 1073.1 -1.28322 -0.914942 0
M  V30 11556 C 1074.05 -1.12146 -2.01722 0
M  V30 11557 C 1075.02 -0.0189279 -1.66089 0
M  V30 11558 O 1076.2 -0.183638 -1.89914 0
M  V30 11559 C 1073.34 -0.78808 -3.35981 0
M  V30 11560 C 1072.46 -1.96954 -3.84491 0
M  V30 11561 C 1071.59 -1.57688 -5.07255 0
M  V30 11562 C 1070.63 -2.72506 -5.48094 0
M  V30 11563 N 1069.77 -2.33741 -6.62049 0
M  V30 11564 H 1074.61 -2.06461 -2.1489 0
M  V30 11565 H 1072.14 -1.0276 -1.05256 0
M  V30 11566 H 1074.1 -0.575546 -4.13211 0
M  V30 11567 H 1072.73 0.118132 -3.22584 0
M  V30 11568 H 1071.78 -2.29423 -3.03429 0
M  V30 11569 H 1073.1 -2.8304 -4.10719 0
M  V30 11570 H 1072.25 -1.32634 -5.92025 0
M  V30 11571 H 1070.99 -0.687291 -4.82833 0
M  V30 11572 H 1069.99 -2.9826 -4.61867 0
M  V30 11573 H 1071.22 -3.62106 -5.74505 0
M  V30 11574 H 1069.16 -1.4725 -6.3926 0
M  V30 11575 H 1069.08 -3.13364 -6.87997 0
M  V30 11576 H 1070.35 -2.11968 -7.50127 0
M  V30 11577 N 1074.58 1.12322 -1.10551 0
M  V30 11578 C 1075.53 2.18087 -0.755424 0
M  V30 11579 C 1076.5 1.6391 0.268805 0
M  V30 11580 O 1077.68 1.90227 0.147813 0
M  V30 11581 C 1074.82 3.4455 -0.194713 0
M  V30 11582 C 1073.93 4.12775 -1.27439 0
M  V30 11583 C 1073.07 5.26891 -0.675194 0
M  V30 11584 C 1072.11 5.86985 -1.73536 0
M  V30 11585 N 1071.24 6.92512 -1.15635 0
M  V30 11586 H 1076.08 2.47379 -1.66155 0
M  V30 11587 H 1073.62 1.21452 -0.829924 0
M  V30 11588 H 1075.58 4.16936 0.148275 0
M  V30 11589 H 1074.21 3.15671 0.674638 0
M  V30 11590 H 1073.26 3.38556 -1.73448 0
M  V30 11591 H 1074.57 4.53506 -2.07687 0
M  V30 11592 H 1073.73 6.06046 -0.281723 0
M  V30 11593 H 1072.47 4.87442 0.158708 0
M  V30 11594 H 1071.47 5.06517 -2.13825 0
M  V30 11595 H 1072.7 6.28505 -2.57213 0
M  V30 11596 H 1070.64 6.55098 -0.343928 0
M  V30 11597 H 1070.56 7.31848 -1.89565 0
M  V30 11598 H 1071.83 7.75492 -0.789463 0
M  V30 11599 N 1076.06 0.894434 1.2976 0
M  V30 11600 C 1077.3 0.527831 1.96432 0
M  V30 11601 C 1077.66 -0.914793 1.69261 0
M  V30 11602 O 1076.95 -1.63911 0.99215 0
M  V30 11603 C 1077.14 0.750307 3.49435 0
M  V30 11604 C 1076.97 2.213 3.91479 0
M  V30 11605 C 1075.74 2.85943 4.16611 0
M  V30 11606 C 1077.94 3.18771 4.03595 0
M  V30 11607 N 1075.92 4.2271 4.45185 0
M  V30 11608 C 1077.29 4.40641 4.3616 0
M  V30 11609 C 1079.35 3.14432 3.86053 0
M  V30 11610 C 1078.05 5.58725 4.53011 0
M  V30 11611 C 1080.08 4.31797 4.0411 0
M  V30 11612 C 1079.44 5.52435 4.37029 0
M  V30 11613 H 1075.54 0.242654 0.7434 0
M  V30 11614 H 1078.12 1.15415 1.56804 0
M  V30 11615 H 1076.29 0.153411 3.88097 0
M  V30 11616 H 1078.03 0.349663 4.03187 0
M  V30 11617 H 1074.78 2.36763 4.10171 0
M  V30 11618 H 1075.21 4.9337 4.63589 0
M  V30 11619 H 1079.85 2.22255 3.5967 0
M  V30 11620 H 1077.57 6.51398 4.78232 0
M  V30 11621 H 1081.15 4.2992 3.91995 0
M  V30 11622 H 1080.03 6.41738 4.50712 0
M  V30 11623 N 1077.53 -1.43282 0.656365 0
M  V30 11624 C 1078.48 -2.32556 -0.0452037 0
M  V30 11625 C 1079.48 -1.48789 -0.80982 0
M  V30 11626 O 1080.68 -1.64979 -0.719865 0
M  V30 11627 H 1077.06 -0.751258 -0.0334043 0
M  V30 11628 H 1079.03 -2.89448 0.725423 0
M  V30 11629 C 1077.78 -3.33138 -0.995706 0
M  V30 11630 H 1077.1 -3.97622 -0.416774 0
M  V30 11631 H 1078.54 -3.98231 -1.45562 0
M  V30 11632 C 1077 -2.63978 -2.09325 0
M  V30 11633 O 1077.53 -2.45769 -3.17743 0
M  V30 11634 N 1075.74 -2.23301 -1.8597 0
M  V30 11635 H 1075.28 -2.38312 -0.97802 0
M  V30 11636 H 1075.24 -1.77358 -2.59599 0
M  V30 11637 N 1079.01 -0.398486 -1.52479 0
M  V30 11638 C 1080.26 0.182046 -2.00877 0
M  V30 11639 C 1080.58 1.47128 -1.2889 0
M  V30 11640 O 1081.78 2.13242 -1.68048 0
M  V30 11641 C 1080.24 0.374978 -3.57941 0
M  V30 11642 C 1079.85 -0.901544 -4.38835 0
M  V30 11643 C 1081.59 0.911378 -4.14601 0
M  V30 11644 C 1079.5 -0.676385 -5.87519 0
M  V30 11645 H 1078.43 0.0718068 -0.750573 0
M  V30 11646 H 1081.08 -0.522297 -1.7591 0
M  V30 11647 H 1079.46 1.14139 -3.79194 0
M  V30 11648 H 1080.63 -1.67329 -4.29346 0
M  V30 11649 H 1078.95 -1.36357 -3.93441 0
M  V30 11650 H 1081.55 1.09569 -5.23353 0
M  V30 11651 H 1081.89 1.88306 -3.71277 0
M  V30 11652 H 1082.42 0.204296 -3.97275 0
M  V30 11653 H 1079.16 -1.61933 -6.35184 0
M  V30 11654 H 1078.68 0.0562542 -5.99774 0
M  V30 11655 H 1080.36 -0.314454 -6.46235 0
M  V30 11656 N 1080.49 1.57075 -0.12858 0
M  V30 11657 C 1081.74 1.9552 0.527087 0
M  V30 11658 C 1082.07 1.01243 1.66072 0
M  V30 11659 O 1081.32 0.0381076 1.95663 0
M  V30 11660 C 1081.62 3.40329 1.09138 0
M  V30 11661 C 1081.29 4.50832 0.0781039 0
M  V30 11662 C 1079.95 4.80782 -0.200493 0
M  V30 11663 C 1082.3 5.17595 -0.61192 0
M  V30 11664 C 1079.63 5.74809 -1.17524 0
M  V30 11665 C 1081.98 6.12671 -1.57536 0
M  V30 11666 C 1080.64 6.41008 -1.86184 0
M  V30 11667 H 1079.91 0.715458 0.192875 0
M  V30 11668 H 1082.56 1.90328 -0.211515 0
M  V30 11669 H 1080.87 3.42262 1.90694 0
M  V30 11670 H 1082.56 3.67393 1.60696 0
M  V30 11671 H 1079.15 4.2751 0.30543 0
M  V30 11672 H 1083.34 4.94605 -0.40986 0
M  V30 11673 H 1078.59 5.95065 -1.40384 0
M  V30 11674 H 1082.77 6.63486 -2.11565 0
M  V30 11675 H 1080.39 7.13673 -2.61868 0
M  V30 11676 N 1081.97 -0.145205 1.5693 0
M  V30 11677 C 1083.25 -0.88631 1.74367 0
M  V30 11678 C 1083.63 -1.99259 0.697081 0
M  V30 11679 O 1082.97 -2.26732 -0.28368 0
M  V30 11680 C 1083.18 -1.42712 3.18488 0
M  V30 11681 C 1084.53 -1.88982 3.80225 0
M  V30 11682 O 1085.56 -1.5245 3.21928 0
M  V30 11683 O 1084.42 -2.56361 4.8264 0
M  V30 11684 H 1081.51 -0.418979 0.713011 0
M  V30 11685 H 1084.06 -0.130991 1.69194 0
M  V30 11686 H 1082.83 -0.632165 3.8616 0
M  V30 11687 H 1082.45 -2.24589 3.28094 0
M  V30 11688 N 1083.45 -1.52049 -0.414609 0
M  V30 11689 C 1084.69 -1.67511 -1.17129 0
M  V30 11690 C 1085.05 -0.39383 -1.87917 0
M  V30 11691 O 1086.25 -0.424496 -2.65427 0
M  V30 11692 C 1084.52 -2.85982 -2.14357 0
M  V30 11693 S 1086.08 -3.21898 -2.98206 0
M  V30 11694 H 1082.9 -0.589923 -0.396877 0
M  V30 11695 H 1085.5 -1.90025 -0.459409 0
M  V30 11696 H 1084.21 -3.77488 -1.6103 0
M  V30 11697 H 1083.74 -2.65725 -2.90092 0
M  V30 11698 H 1085.75 -2.70095 -4.16249 0
M  V30 11699 N 1084.93 0.6715 -1.42579 0
M  V30 11700 C 1086.17 1.42731 -1.42516 0
M  V30 11701 C 1086.49 1.95545 -0.0462407 0
M  V30 11702 O 1087.69 2.71391 0.0769798 0
M  V30 11703 C 1086.15 2.58215 -2.50705 0
M  V30 11704 C 1085.76 2.12086 -3.94618 0
M  V30 11705 C 1087.5 3.35705 -2.59813 0
M  V30 11706 C 1085.41 3.24672 -4.9431 0
M  V30 11707 H 1084.34 0.536218 -0.530081 0
M  V30 11708 H 1086.99 0.726655 -1.68499 0
M  V30 11709 H 1085.37 3.30665 -2.17892 0
M  V30 11710 H 1086.55 1.46768 -4.36802 0
M  V30 11711 H 1084.86 1.47526 -3.89391 0
M  V30 11712 H 1087.46 4.1956 -3.31472 0
M  V30 11713 H 1087.8 3.82517 -1.64276 0
M  V30 11714 H 1088.33 2.70326 -2.91836 0
M  V30 11715 H 1085.07 2.82848 -5.91335 0
M  V30 11716 H 1084.59 3.88761 -4.56755 0
M  V30 11717 H 1086.27 3.90088 -5.16179 0
M  V30 11718 N 1086.4 1.28806 0.908124 0
M  V30 11719 C 1087.65 1.15663 1.65242 0
M  V30 11720 C 1087.97 -0.292883 1.93395 0
M  V30 11721 O 1089.17 -0.545509 2.65963 0
M  V30 11722 C 1087.63 2.02233 2.97707 0
M  V30 11723 C 1087.24 3.51958 2.77181 0
M  V30 11724 C 1088.98 1.97792 3.75604 0
M  V30 11725 C 1086.89 4.3066 4.05322 0
M  V30 11726 H 1085.82 0.42928 0.619867 0
M  V30 11727 H 1088.47 1.5338 1.00731 0
M  V30 11728 H 1086.85 1.57377 3.63385 0
M  V30 11729 H 1088.02 4.0481 2.20149 0
M  V30 11730 H 1086.34 3.57983 2.12691 0
M  V30 11731 H 1088.94 2.53858 4.70596 0
M  V30 11732 H 1089.28 0.955956 4.05175 0
M  V30 11733 H 1089.81 2.40648 3.16755 0
M  V30 11734 H 1086.55 5.3346 3.8092 0
M  V30 11735 H 1086.07 3.8258 4.61944 0
M  V30 11736 H 1087.75 4.40878 4.73535 0
M  V30 11737 N 1087.88 -1.11734 1.11145 0
M  V30 11738 C 1089.13 -1.83677 0.859684 0
M  V30 11739 C 1089.46 -1.84265 -0.613182 0
M  V30 11740 O 1088.74 -1.29351 -1.45254 0
M  V30 11741 C 1089.02 -3.31003 1.41805 0
M  V30 11742 C 1088.87 -3.38827 2.95831 0
M  V30 11743 C 1090.19 -4.26984 1.06645 0
M  V30 11744 H 1087.31 -0.666879 0.313754 0
M  V30 11745 H 1089.95 -1.31038 1.37583 0
M  V30 11746 H 1088.1 -3.75961 0.979054 0
M  V30 11747 H 1089.77 -3.02451 3.48312 0
M  V30 11748 H 1088.02 -2.79143 3.32056 0
M  V30 11749 H 1088.69 -4.42508 3.29986 0
M  V30 11750 H 1091.16 -3.9019 1.44537 0
M  V30 11751 H 1090.04 -5.2846 1.48394 0
M  V30 11752 H 1090.3 -4.42094 -0.0231866 0
M  V30 11753 N 1089.36 -0.901303 -1.29284 0
M  V30 11754 C 1090.59 -0.543511 -1.99634 0
M  V30 11755 C 1091 0.872154 -1.67448 0
M  V30 11756 O 1090.36 1.57591 -0.920406 0
M  V30 11757 C 1090.41 -0.728148 -3.54091 0
M  V30 11758 O 1090.13 -2.08809 -3.85137 0
M  V30 11759 C 1091.63 -0.375519 -4.41707 0
M  V30 11760 H 1088.85 -0.208405 -0.637815 0
M  V30 11761 H 1091.4 -1.21109 -1.64781 0
M  V30 11762 H 1089.55 -0.107728 -3.8725 0
M  V30 11763 H 1089.97 -2.11863 -4.79807 0
M  V30 11764 H 1091.44 -0.555538 -5.49197 0
M  V30 11765 H 1091.92 0.687532 -4.33785 0
M  V30 11766 H 1092.52 -0.972949 -4.14021 0
M  V30 11767 N 1090.84 1.42931 -0.663954 0
M  V30 11768 C 1092.08 2.01982 -0.182007 0
M  V30 11769 C 1092.42 1.52323 1.20463 0
M  V30 11770 O 1091.69 0.720834 1.80649 0
M  V30 11771 C 1091.97 3.59518 -0.204671 0
M  V30 11772 C 1091.83 4.19382 -1.62599 0
M  V30 11773 C 1093.15 4.37762 0.45308 0
M  V30 11774 H 1090.27 0.733892 -0.0676115 0
M  V30 11775 H 1092.91 1.70092 -0.84668 0
M  V30 11776 H 1091.06 3.86816 0.361295 0
M  V30 11777 H 1092.73 4.03076 -2.24337 0
M  V30 11778 H 1090.97 3.75623 -2.17001 0
M  V30 11779 H 1091.64 5.28496 -1.59362 0
M  V30 11780 H 1094.12 4.1609 -0.0285774 0
M  V30 11781 H 1093 5.47392 0.406538 0
M  V30 11782 H 1093.26 4.1482 1.52895 0
M  V30 11783 N 1092.32 0.406567 1.52266 0
M  V30 11784 C 1093.54 -0.172101 2.06685 0
M  V30 11785 C 1093.97 -1.38306 1.27488 0
M  V30 11786 O 1093.32 -1.78726 0.304441 0
M  V30 11787 C 1093.37 -0.503463 3.57068 0
M  V30 11788 O 1092.48 -1.59485 3.80314 0
M  V30 11789 H 1091.82 -0.0153209 0.663823 0
M  V30 11790 H 1094.35 0.579025 1.96236 0
M  V30 11791 H 1094.36 -0.762833 4.00805 0
M  V30 11792 H 1093.03 0.381775 4.14144 0
M  V30 11793 H 1091.61 -1.32784 3.48458 0
M  V30 11794 N 1093.79 -1.57004 0.136909 0
M  V30 11795 C 1094.72 -2.19262 -0.802902 0
M  V30 11796 C 1095.71 -1.13786 -1.26439 0
M  V30 11797 O 1096.89 -1.42091 -1.32377 0
M  V30 11798 C 1094.02 -2.80624 -2.04615 0
M  V30 11799 C 1092.97 -3.91839 -1.72181 0
M  V30 11800 C 1092.3 -4.4009 -3.03686 0
M  V30 11801 C 1093.6 -5.13095 -0.976249 0
M  V30 11802 H 1095.29 -2.98049 -0.28406 0
M  V30 11803 H 1092.84 -1.43364 -0.135189 0
M  V30 11804 H 1094.79 -3.22842 -2.70834 0
M  V30 11805 H 1093.52 -1.99153 -2.58855 0
M  V30 11806 H 1092.18 -3.50224 -1.08344 0
M  V30 11807 H 1091.82 -3.55454 -3.55896 0
M  V30 11808 H 1091.52 -5.15098 -2.82751 0
M  V30 11809 H 1093.05 -4.84971 -3.70993 0
M  V30 11810 H 1094.46 -5.5222 -1.54033 0
M  V30 11811 H 1092.86 -5.93801 -0.867214 0
M  V30 11812 H 1093.93 -4.84888 0.0338488 0
M  V30 11813 N 1095.27 0.136881 -1.57004 0
M  V30 11814 C 1096.2 1.17026 -2.02057 0
M  V30 11815 C 1097.18 1.44223 -0.901866 0
M  V30 11816 O 1098.37 1.54971 -1.17037 0
M  V30 11817 C 1095.5 2.50095 -2.40977 0
M  V30 11818 C 1094.45 2.37398 -3.56127 0
M  V30 11819 C 1093.78 3.75268 -3.80891 0
M  V30 11820 C 1095.08 1.84952 -4.88457 0
M  V30 11821 H 1096.77 0.795601 -2.88636 0
M  V30 11822 H 1094.32 0.381266 -1.38861 0
M  V30 11823 H 1096.27 3.22621 -2.71097 0
M  V30 11824 H 1095 2.89416 -1.51348 0
M  V30 11825 H 1093.65 1.67322 -3.26188 0
M  V30 11826 H 1093.3 4.12043 -2.88496 0
M  V30 11827 H 1093 3.67631 -4.5839 0
M  V30 11828 H 1094.53 4.49327 -4.13446 0
M  V30 11829 H 1095.94 2.4728 -5.17229 0
M  V30 11830 H 1094.34 1.88181 -5.69832 0
M  V30 11831 H 1095.41 0.805848 -4.78157 0
M  V30 11832 N 1096.75 1.52266 0.40654 0
M  V30 11833 C 1097.66 1.78688 1.52012 0
M  V30 11834 C 1098.68 0.6726 1.60475 0
M  V30 11835 O 1099.85 0.95829 1.77141 0
M  V30 11836 C 1096.92 1.93434 2.87722 0
M  V30 11837 C 1095.98 3.17341 2.89125 0
M  V30 11838 C 1095.21 3.31374 4.18362 0
M  V30 11839 O 1095.43 2.50613 5.12396 0
M  V30 11840 O 1094.37 4.24539 4.26674 0
M  V30 11841 H 1098.19 2.73213 1.3262 0
M  V30 11842 H 1095.78 1.37142 0.592653 0
M  V30 11843 H 1097.66 2.04941 3.68208 0
M  V30 11844 H 1096.34 1.02099 3.07177 0
M  V30 11845 H 1095.24 3.1129 2.07483 0
M  V30 11846 H 1096.58 4.08466 2.7462 0
M  V30 11847 N 1098.23 -0.663929 1.42933 0
M  V30 11848 C 1099.16 -1.78899 1.50058 0
M  V30 11849 C 1100.14 -1.66329 0.356164 0
M  V30 11850 O 1101.32 -1.85587 0.571944 0
M  V30 11851 C 1098.45 -3.17265 1.41281 0
M  V30 11852 C 1097.41 -3.44584 2.53861 0
M  V30 11853 C 1096.73 -4.82638 2.3014 0
M  V30 11854 C 1098.03 -3.40394 3.96143 0
M  V30 11855 H 1099.73 -1.73194 2.44222 0
M  V30 11856 H 1097.27 -0.83182 1.17545 0
M  V30 11857 H 1099.23 -3.95715 1.44872 0
M  V30 11858 H 1097.95 -3.23675 0.43616 0
M  V30 11859 H 1096.61 -2.685 2.49606 0
M  V30 11860 H 1096.26 -4.85711 1.30743 0
M  V30 11861 H 1095.96 -5.01879 3.056 0
M  V30 11862 H 1097.48 -5.63359 2.35497 0
M  V30 11863 H 1098.9 -4.08796 4.01943 0
M  V30 11864 H 1097.29 -3.7117 4.71543 0
M  V30 11865 H 1098.36 -2.38767 4.22041 0
M  V30 11866 N 1099.71 -1.29285 -0.901281 0
M  V30 11867 C 1100.95 -1.16934 -1.64836 0
M  V30 11868 C 1101.28 0.279826 -1.92982 0
M  V30 11869 O 1100.55 1.19179 -1.55478 0
M  V30 11870 H 1099.13 -0.429768 -0.61099 0
M  V30 11871 H 1101.79 -1.62189 -1.08077 0
M  V30 11872 H 1100.88 -1.71821 -2.60545 0
M  V30 11873 N 1101.18 1.11143 -1.11736 0
M  V30 11874 C 1102.43 1.83219 -0.869413 0
M  V30 11875 C 1102.76 1.84588 0.603402 0
M  V30 11876 O 1102.04 1.30119 1.44566 0
M  V30 11877 C 1102.32 3.30247 -1.43559 0
M  V30 11878 C 1102.17 3.37253 -2.97624 0
M  V30 11879 C 1103.49 4.26412 -1.08907 0
M  V30 11880 H 1100.61 0.665205 -0.317286 0
M  V30 11881 H 1103.25 1.30307 -1.38275 0
M  V30 11882 H 1101.4 3.75437 -0.998978 0
M  V30 11883 H 1103.08 3.00599 -3.49911 0
M  V30 11884 H 1101.32 2.77378 -3.33532 0
M  V30 11885 H 1101.99 4.40752 -3.32328 0
M  V30 11886 H 1104.47 3.89418 -1.46604 0
M  V30 11887 H 1103.34 5.27666 -1.51195 0
M  V30 11888 H 1103.6 4.421 -0.000259009 0
M  V30 11889 N 1102.66 0.908147 1.28804 0
M  V30 11890 C 1103.63 0.397058 2.25735 0
M  V30 11891 C 1104.63 -0.473483 1.53671 0
M  V30 11892 O 1105.82 -0.277335 1.71978 0
M  V30 11893 C 1102.95 -0.431392 3.38159 0
M  V30 11894 H 1104.14 1.25323 2.72459 0
M  V30 11895 H 1101.69 0.687041 1.4039 0
M  V30 11896 H 1102.43 -1.3072 2.96787 0
M  V30 11897 H 1102.21 0.192502 3.91627 0
M  V30 11898 H 1103.7 -0.78 4.10251 0
M  V30 11899 N 1104.14 -1.42577 0.671525 0
M  V30 11900 C 1105.09 -2.30798 -0.00883676 0
M  V30 11901 C 1106.06 -1.4578 -0.796076 0
M  V30 11902 O 1107.24 -1.74617 -0.768987 0
M  V30 11903 C 1104.38 -3.31581 -0.956452 0
M  V30 11904 C 1103.5 -4.31691 -0.163381 0
M  V30 11905 C 1102.63 -5.19549 -1.10645 0
M  V30 11906 C 1101.67 -6.1134 -0.304876 0
M  V30 11907 N 1100.81 -6.91761 -1.20048 0
M  V30 11908 H 1105.65 -2.88426 0.749301 0
M  V30 11909 H 1103.18 -1.42074 0.381251 0
M  V30 11910 H 1105.14 -3.88539 -1.51966 0
M  V30 11911 H 1103.77 -2.75561 -1.68126 0
M  V30 11912 H 1102.82 -3.76879 0.516396 0
M  V30 11913 H 1104.14 -4.96683 0.459099 0
M  V30 11914 H 1103.29 -5.81223 -1.73969 0
M  V30 11915 H 1102.03 -4.54726 -1.76282 0
M  V30 11916 H 1101.03 -5.48738 0.341597 0
M  V30 11917 H 1102.26 -6.78211 0.347352 0
M  V30 11918 H 1100.2 -6.2957 -1.84331 0
M  V30 11919 H 1100.12 -7.53345 -0.633003 0
M  V30 11920 H 1101.39 -7.57924 -1.82129 0
M  V30 11921 N 1105.62 -0.414636 -1.52048 0
M  V30 11922 C 1106.57 0.408141 -2.27163 0
M  V30 11923 C 1107.54 1.03636 -1.29803 0
M  V30 11924 O 1108.72 1.05959 -1.58674 0
M  V30 11925 C 1105.86 1.51588 -3.10024 0
M  V30 11926 C 1104.97 0.908034 -4.22349 0
M  V30 11927 C 1104.11 1.98893 -4.9256 0
M  V30 11928 C 1103.15 1.35831 -5.96839 0
M  V30 11929 N 1102.28 2.37958 -6.60545 0
M  V30 11930 H 1107.12 -0.238822 -2.97041 0
M  V30 11931 H 1104.66 -0.129614 -1.46528 0
M  V30 11932 H 1106.62 2.16916 -3.56375 0
M  V30 11933 H 1105.25 2.13279 -2.42305 0
M  V30 11934 H 1104.3 0.143652 -3.80129 0
M  V30 11935 H 1105.61 0.407426 -4.97133 0
M  V30 11936 H 1104.77 2.71935 -5.42343 0
M  V30 11937 H 1103.51 2.5232 -4.17356 0
M  V30 11938 H 1102.51 0.613246 -5.46369 0
M  V30 11939 H 1103.74 0.831655 -6.73988 0
M  V30 11940 H 1101.68 2.90508 -5.88167 0
M  V30 11941 H 1101.6 1.92725 -7.31022 0
M  V30 11942 H 1102.87 3.10553 -7.14966 0
M  V30 11943 N 1107.1 1.56929 -0.145233 0
M  V30 11944 C 1108.34 1.95681 0.50532 0
M  V30 11945 C 1108.67 1.03098 1.65516 0
M  V30 11946 O 1107.94 0.0921961 1.95683 0
M  V30 11947 H 1106.52 0.72252 0.189668 0
M  V30 11948 H 1109.18 1.93651 -0.220318 0
M  V30 11949 H 1108.27 2.99359 0.882631 0
M  V30 11950 N 1108.58 -0.128553 1.57075 0
M  V30 11951 C 1109.8 -0.8564 1.88893 0
M  V30 11952 C 1110.23 -1.73095 0.736196 0
M  V30 11953 O 1109.58 -1.78567 -0.313629 0
M  V30 11954 C 1109.63 -1.67368 3.19406 0
M  V30 11955 O 1108.74 -2.77973 3.04639 0
M  V30 11956 H 1108.08 -0.237424 0.620102 0
M  V30 11957 H 1110.61 -0.113821 2.04283 0
M  V30 11958 H 1110.62 -2.0649 3.51889 0
M  V30 11959 H 1109.29 -1.03161 4.02903 0
M  V30 11960 H 1107.87 -2.42123 2.83603 0
M  V30 11961 N 1110.05 -1.5248 -0.398459 0
M  V30 11962 C 1110.98 -1.79549 -1.49279 0
M  V30 11963 C 1111.96 -0.647004 -1.57315 0
M  V30 11964 O 1113.15 -0.893661 -1.72416 0
M  V30 11965 C 1110.28 -1.95582 -2.86993 0
M  V30 11966 C 1109.23 -3.1123 -2.93803 0
M  V30 11967 C 1108.56 -3.12501 -4.33874 0
M  V30 11968 C 1109.86 -4.50485 -2.64312 0
M  V30 11969 H 1111.55 -2.71187 -1.26877 0
M  V30 11970 H 1109.1 -1.30492 -0.608924 0
M  V30 11971 H 1111.05 -2.13102 -3.63546 0
M  V30 11972 H 1109.78 -1.00625 -3.10712 0
M  V30 11973 H 1108.44 -2.93477 -2.19697 0
M  V30 11974 H 1108.08 -2.15245 -4.54619 0
M  V30 11975 H 1107.78 -3.90183 -4.39353 0
M  V30 11976 H 1109.31 -3.32164 -5.12347 0
M  V30 11977 H 1110.72 -4.68387 -3.30585 0
M  V30 11978 H 1109.12 -5.30163 -2.81153 0
M  V30 11979 H 1110.19 -4.57848 -1.59696 0
M  V30 11980 N 1111.53 0.65634 -1.43283 0
M  V30 11981 C 1112.76 1.44906 -1.48382 0
M  V30 11982 C 1113.18 1.87823 -0.101993 0
M  V30 11983 O 1112.54 1.57178 0.903597 0
M  V30 11984 C 1112.59 2.66231 -2.43215 0
M  V30 11985 O 1111.69 3.65176 -1.91625 0
M  V30 11986 H 1111.03 0.434601 -0.502014 0
M  V30 11987 H 1113.56 0.803429 -1.88165 0
M  V30 11988 H 1113.57 3.14083 -2.60414 0
M  V30 11989 H 1112.25 2.34336 -3.43598 0
M  V30 11990 H 1110.82 3.24302 -1.84072 0
M  V30 11991 N 1113.01 1.29761 0.894412 0
M  V30 11992 C 1114.26 1.18214 1.64782 0
M  V30 11993 C 1114.59 -0.264635 1.92388 0
M  V30 11994 O 1113.86 -1.19051 1.53809 0
M  V30 11995 C 1114.15 2.00138 2.99361 0
M  V30 11996 C 1114 3.52984 2.78787 0
M  V30 11997 C 1115.32 1.83187 4.00163 0
M  V30 11998 H 1112.44 0.430802 0.597979 0
M  V30 11999 H 1115.08 1.59292 1.03566 0
M  V30 12000 H 1113.23 1.65233 3.51611 0
M  V30 12001 H 1114.9 3.97898 2.33398 0
M  V30 12002 H 1113.14 3.77642 2.13469 0
M  V30 12003 H 1113.82 4.05585 3.7444 0
M  V30 12004 H 1116.29 2.13684 3.57041 0
M  V30 12005 H 1115.17 2.42849 4.92255 0
M  V30 12006 H 1115.43 0.788469 4.35012 0
M  V30 12007 N 1114.49 -1.10549 1.12324 0
M  V30 12008 C 1115.42 -2.18911 0.812416 0
M  V30 12009 C 1116.4 -1.68628 -0.22327 0
M  V30 12010 O 1117.58 -1.94015 -0.0847184 0
M  V30 12011 C 1114.71 -3.46288 0.264947 0
M  V30 12012 C 1113.67 -4.09838 1.23356 0
M  V30 12013 C 1112.99 -5.31901 0.546374 0
M  V30 12014 C 1114.29 -4.53686 2.58778 0
M  V30 12015 H 1115.99 -2.45169 1.71851 0
M  V30 12016 H 1113.53 -1.17834 0.827715 0
M  V30 12017 H 1115.49 -4.21385 0.0352364 0
M  V30 12018 H 1114.21 -3.19517 -0.676479 0
M  V30 12019 H 1112.87 -3.36746 1.44906 0
M  V30 12020 H 1112.52 -5.01406 -0.400157 0
M  V30 12021 H 1112.22 -5.75372 1.19249 0
M  V30 12022 H 1113.74 -6.09731 0.325673 0
M  V30 12023 H 1115.16 -5.20063 2.41263 0
M  V30 12024 H 1113.55 -5.08003 3.19457 0
M  V30 12025 H 1114.62 -3.66665 3.17309 0
M  V30 12026 N 1115.97 -0.914965 -1.28321 0
M  V30 12027 C 1117.38 -0.613297 -1.47346 0
M  V30 12028 C 1117.58 0.84106 -1.83108 0
M  V30 12029 O 1116.64 1.62004 -1.93678 0
M  V30 12030 C 1117.95 -1.55224 -2.57538 0
M  V30 12031 C 1119.5 -1.55909 -2.71407 0
M  V30 12032 C 1119.97 -2.48468 -3.84744 0
M  V30 12033 N 1121.46 -2.46602 -3.92099 0
M  V30 12034 C 1122.2 -3.14917 -4.79182 0
M  V30 12035 N 1121.7 -3.92566 -5.70845 0
M  V30 12036 N 1123.49 -3.03998 -4.72802 0
M  V30 12037 H 1115.64 -1.85539 -1.03388 0
M  V30 12038 H 1117.9 -0.795875 -0.515061 0
M  V30 12039 H 1117.61 -2.58917 -2.38023 0
M  V30 12040 H 1117.48 -1.28426 -3.54664 0
M  V30 12041 H 1119.87 -0.52953 -2.9031 0
M  V30 12042 H 1119.95 -1.86751 -1.74808 0
M  V30 12043 H 1119.59 -3.51526 -3.66595 0
M  V30 12044 H 1119.52 -2.14928 -4.80743 0
M  V30 12045 H 1122.02 -1.90199 -3.26547 0
M  V30 12046 H 1122.33 -4.41709 -6.34123 0
M  V30 12047 H 1120.67 -3.96671 -5.70681 0
M  V30 12048 H 1123.86 -2.42839 -4.00184 0
M  V30 12049 H 1124.04 -3.57511 -5.40454 0
M  V30 12050 N 1117.44 1.42219 -0.679077 0
M  V30 12051 C 1118.67 2.06333 -0.210097 0
M  V30 12052 C 1119.09 1.50703 1.12562 0
M  V30 12053 O 1118.45 0.627241 1.70104 0
M  V30 12054 C 1118.5 3.60243 -0.160322 0
M  V30 12055 O 1117.6 4.03122 0.869872 0
M  V30 12056 H 1116.94 0.655362 -0.106754 0
M  V30 12057 H 1119.47 1.82278 -0.929294 0
M  V30 12058 H 1119.48 4.07997 0.014384 0
M  V30 12059 H 1118.16 4.00106 -1.13526 0
M  V30 12060 H 1116.74 3.66907 0.66586 0
M  V30 12061 N 1118.92 0.422693 1.51826 0
M  V30 12062 C 1120.17 -0.148641 2.01954 0
M  V30 12063 C 1120.5 -1.43982 1.30765 0
M  V30 12064 O 1119.75 -1.91428 0.406668 0
M  V30 12065 C 1120.05 -0.429516 3.5481 0
M  V30 12066 C 1119.72 0.774088 4.44206 0
M  V30 12067 C 1118.38 1.1042 4.6836 0
M  V30 12068 C 1120.73 1.5777 4.96747 0
M  V30 12069 C 1118.06 2.23887 5.42302 0
M  V30 12070 C 1120.41 2.70325 5.71933 0
M  V30 12071 C 1119.07 3.03807 5.94355 0
M  V30 12072 H 1118.34 -0.0543917 0.739001 0
M  V30 12073 H 1120.99 0.566892 1.82917 0
M  V30 12074 H 1119.3 -1.22678 3.72099 0
M  V30 12075 H 1120.99 -0.884761 3.91118 0
M  V30 12076 H 1117.58 0.506834 4.25593 0
M  V30 12077 H 1121.77 1.33589 4.77983 0
M  V30 12078 H 1117.02 2.50159 5.5788 0
M  V30 12079 H 1121.2 3.32974 6.11638 0
M  V30 12080 H 1118.82 3.91844 6.51431 0
M  V30 12081 N 1120.4 -1.5685 0.153553 0
M  V30 12082 C 1121.82 -1.58306 -0.202801 0
M  V30 12083 C 1122.02 -1.16813 -1.64186 0
M  V30 12084 O 1121.07 -0.871468 -2.36985 0
M  V30 12085 C 1122.38 -3.00636 0.0619012 0
M  V30 12086 C 1123.93 -3.13 -0.00129219 0
M  V30 12087 C 1124.41 -4.57391 0.236164 0
M  V30 12088 N 1125.9 -4.62837 0.18332 0
M  V30 12089 C 1126.63 -5.72382 0.341471 0
M  V30 12090 N 1126.13 -6.90552 0.557704 0
M  V30 12091 N 1127.92 -5.61409 0.278615 0
M  V30 12092 H 1120.07 -1.82113 1.09309 0
M  V30 12093 H 1122.34 -0.843228 0.433209 0
M  V30 12094 H 1122.04 -3.35406 1.0581 0
M  V30 12095 H 1121.92 -3.71477 -0.654555 0
M  V30 12096 H 1124.3 -2.78068 -0.98805 0
M  V30 12097 H 1124.38 -2.44632 0.747596 0
M  V30 12098 H 1124.03 -4.93029 1.22005 0
M  V30 12099 H 1123.96 -5.23894 -0.533125 0
M  V30 12100 H 1126.45 -3.77894 0.0211138 0
M  V30 12101 H 1126.76 -7.69905 0.66831 0
M  V30 12102 H 1125.11 -6.92456 0.594105 0
M  V30 12103 H 1128.3 -4.6797 0.110401 0
M  V30 12104 H 1128.47 -6.46731 0.4053 0
M  V30 12105 N 1121.88 0.120221 -1.57141 0
M  V30 12106 C 1122.81 1.14876 -2.03287 0
M  V30 12107 C 1123.79 1.43259 -0.917112 0
M  V30 12108 O 1124.97 1.53721 -1.18674 0
M  V30 12109 C 1122.1 2.47525 -2.43616 0
M  V30 12110 C 1121.06 2.33607 -3.58625 0
M  V30 12111 C 1120.38 3.71207 -3.84849 0
M  V30 12112 C 1121.68 1.79761 -4.90391 0
M  V30 12113 H 1123.38 0.764943 -2.89463 0
M  V30 12114 H 1120.92 0.366516 -1.39258 0
M  V30 12115 H 1122.88 3.19728 -2.74504 0
M  V30 12116 H 1121.6 2.87794 -1.54409 0
M  V30 12117 H 1120.26 1.63853 -3.27945 0
M  V30 12118 H 1119.91 4.0896 -2.9285 0
M  V30 12119 H 1119.61 3.62749 -4.62263 0
M  V30 12120 H 1121.13 4.44917 -4.18188 0
M  V30 12121 H 1122.55 2.4178 -5.19822 0
M  V30 12122 H 1120.94 1.82126 -5.71795 0
M  V30 12123 H 1122.01 0.755087 -4.78985 0
M  V30 12124 N 1123.36 1.52689 0.390367 0
M  V30 12125 C 1124.29 1.80338 1.48325 0
M  V30 12126 C 1125.27 0.655338 1.56969 0
M  V30 12127 O 1126.45 0.902792 1.7194 0
M  V30 12128 C 1123.58 1.97101 2.85952 0
M  V30 12129 C 1122.54 3.12783 2.92148 0
M  V30 12130 C 1121.86 3.14798 4.32211 0
M  V30 12131 C 1123.16 4.5188 2.61919 0
M  V30 12132 H 1124.86 2.71857 1.25437 0
M  V30 12133 H 1122.4 1.30813 0.601995 0
M  V30 12134 H 1124.36 2.15027 3.62411 0
M  V30 12135 H 1123.08 1.02271 3.10174 0
M  V30 12136 H 1121.74 2.94638 2.18137 0
M  V30 12137 H 1121.39 2.17653 4.53471 0
M  V30 12138 H 1121.09 3.92507 4.37278 0
M  V30 12139 H 1122.61 3.34877 5.10578 0
M  V30 12140 H 1124.02 4.70134 3.28096 0
M  V30 12141 H 1122.42 5.31647 2.78337 0
M  V30 12142 H 1123.49 4.58689 1.57266 0
M  V30 12143 N 1124.83 -0.648732 1.43629 0
M  V30 12144 C 1126.25 -0.964917 1.27128 0
M  V30 12145 C 1126.45 -2.00561 0.194251 0
M  V30 12146 O 1125.51 -2.48884 -0.42581 0
M  V30 12147 C 1126.82 -1.44491 2.6371 0
M  V30 12148 C 1128.37 -1.56133 2.71278 0
M  V30 12149 C 1128.84 -2.07521 4.08288 0
M  V30 12150 N 1130.33 -2.14817 4.10375 0
M  V30 12151 C 1131.07 -2.55712 5.13224 0
M  V30 12152 N 1130.56 -2.9587 6.26444 0
M  V30 12153 N 1132.36 -2.55691 5.00578 0
M  V30 12154 H 1124.51 0.0398357 2.12363 0
M  V30 12155 H 1126.77 -0.0447705 0.946942 0
M  V30 12156 H 1126.48 -0.754616 3.43509 0
M  V30 12157 H 1126.35 -2.41914 2.89409 0
M  V30 12158 H 1128.74 -2.24263 1.91808 0
M  V30 12159 H 1128.82 -0.571314 2.49338 0
M  V30 12160 H 1128.46 -1.39992 4.88226 0
M  V30 12161 H 1128.39 -3.07362 4.27594 0
M  V30 12162 H 1130.88 -1.86538 3.28652 0
M  V30 12163 H 1131.2 -3.25837 7.0075 0
M  V30 12164 H 1129.54 -2.93664 6.2991 0
M  V30 12165 H 1132.73 -2.23697 4.1119 0
M  V30 12166 H 1132.91 -2.87239 5.80859 0
M  V30 12167 N 1126.31 -1.30234 -0.887518 0
M  V30 12168 C 1127.56 -1.19086 -1.64153 0
M  V30 12169 C 1127.89 0.254428 -1.92526 0
M  V30 12170 O 1127.17 1.18233 -1.54438 0
M  V30 12171 C 1127.45 -2.01723 -2.98295 0
M  V30 12172 C 1127.3 -3.54458 -2.76911 0
M  V30 12173 C 1128.62 -1.85307 -3.99186 0
M  V30 12174 H 1125.74 -0.433967 -0.595686 0
M  V30 12175 H 1128.38 -1.59839 -1.0272 0
M  V30 12176 H 1126.53 -1.67096 -3.5073 0
M  V30 12177 H 1128.2 -3.99131 -2.31284 0
M  V30 12178 H 1126.45 -3.78768 -2.11464 0
M  V30 12179 H 1127.12 -4.07565 -3.72283 0
M  V30 12180 H 1129.59 -2.15575 -3.55903 0
M  V30 12181 H 1128.47 -2.45456 -4.90961 0
M  V30 12182 H 1128.73 -0.811528 -4.34588 0
M  V30 12183 N 1127.79 1.09952 -1.12909 0
M  V30 12184 C 1129.04 1.82016 -0.887482 0
M  V30 12185 C 1129.37 1.85445 0.586546 0
M  V30 12186 O 1128.62 1.31446 1.44984 0
M  V30 12187 C 1128.92 3.28252 -1.41369 0
M  V30 12188 C 1128.59 3.44965 -2.90362 0
M  V30 12189 C 1127.25 3.49233 -3.31043 0
M  V30 12190 C 1129.6 3.49947 -3.86247 0
M  V30 12191 C 1126.93 3.56057 -4.66305 0
M  V30 12192 C 1129.28 3.58305 -5.21345 0
M  V30 12193 C 1127.94 3.6084 -5.61561 0
M  V30 12194 H 1127.21 0.666046 -0.324753 0
M  V30 12195 H 1129.86 1.29568 -1.41012 0
M  V30 12196 H 1128.17 3.83301 -0.81163 0
M  V30 12197 H 1129.86 3.82533 -1.20289 0
M  V30 12198 H 1126.45 3.42323 -2.57901 0
M  V30 12199 H 1130.64 3.45895 -3.55908 0
M  V30 12200 H 1125.89 3.56305 -4.96847 0
M  V30 12201 H 1130.07 3.61104 -5.95463 0
M  V30 12202 H 1127.69 3.6588 -6.6636 0
M  V30 12203 N 1129.27 0.921757 1.27833 0
M  V30 12204 C 1130.22 0.414838 2.27041 0
M  V30 12205 C 1131.19 -0.515045 1.57913 0
M  V30 12206 O 1132.37 -0.435499 1.85763 0
M  V30 12207 C 1129.51 -0.331744 3.43502 0
M  V30 12208 C 1128.62 0.631565 4.27358 0
M  V30 12209 C 1127.76 -0.134265 5.3103 0
M  V30 12210 C 1126.8 0.822138 6.06554 0
M  V30 12211 N 1125.93 0.0893149 7.02043 0
M  V30 12212 H 1130.77 1.26585 2.69778 0
M  V30 12213 H 1128.31 0.635488 1.32665 0
M  V30 12214 H 1130.27 -0.780866 4.09827 0
M  V30 12215 H 1128.9 -1.14704 3.01733 0
M  V30 12216 H 1127.95 1.19922 3.61003 0
M  V30 12217 H 1129.26 1.36274 4.79824 0
M  V30 12218 H 1128.42 -0.643579 6.03277 0
M  V30 12219 H 1127.16 -0.898443 4.79353 0
M  V30 12220 H 1126.16 1.34275 5.33151 0
M  V30 12221 H 1127.39 1.586 6.6032 0
M  V30 12222 H 1125.33 -0.656725 6.52704 0
M  V30 12223 H 1125.25 0.760167 7.52169 0
M  V30 12224 H 1126.52 -0.399541 7.78475 0
M  V30 12225 N 1130.75 -1.41857 0.686609 0
M  V30 12226 C 1131.68 -2.33481 0.0298353 0
M  V30 12227 C 1132.66 -1.51329 -0.776756 0
M  V30 12228 O 1133.84 -1.79895 -0.731535 0
M  V30 12229 C 1130.97 -3.35065 -0.913707 0
M  V30 12230 C 1129.93 -4.2746 -0.214861 0
M  V30 12231 C 1129.25 -5.19346 -1.27215 0
M  V30 12232 C 1130.55 -5.14252 0.913367 0
M  V30 12233 H 1132.25 -2.8865 0.795067 0
M  V30 12234 H 1129.79 -1.38792 0.383785 0
M  V30 12235 H 1131.75 -3.98082 -1.38234 0
M  V30 12236 H 1130.47 -2.78226 -1.7105 0
M  V30 12237 H 1129.13 -3.65855 0.233651 0
M  V30 12238 H 1128.78 -4.58827 -2.06124 0
M  V30 12239 H 1128.48 -5.81996 -0.80961 0
M  V30 12240 H 1130 -5.85239 -1.74147 0
M  V30 12241 H 1131.41 -5.70887 0.525424 0
M  V30 12242 H 1129.81 -5.85796 1.30244 0
M  V30 12243 H 1130.88 -4.51949 1.75699 0
M  V30 12244 N 1132.22 -0.430739 -1.51599 0
M  V30 12245 C 1133.19 0.372319 -2.26156 0
M  V30 12246 C 1134.19 0.955338 -1.29344 0
M  V30 12247 O 1135.38 0.830823 -1.53111 0
M  V30 12248 C 1132.51 1.52613 -3.04831 0
M  V30 12249 H 1133.7 -0.280996 -2.98581 0
M  V30 12250 H 1131.26 -0.183749 -1.55216 0
M  V30 12251 H 1131.99 2.21569 -2.36807 0
M  V30 12252 H 1131.78 1.11433 -3.75932 0
M  V30 12253 H 1133.27 2.09366 -3.61325 0
M  V30 12254 N 1133.7 1.56767 -0.161869 0
M  V30 12255 C 1134.65 2.17502 0.772102 0
M  V30 12256 C 1135.62 1.11223 1.23364 0
M  V30 12257 O 1136.8 1.39332 1.30351 0
M  V30 12258 C 1133.94 2.81248 1.99984 0
M  V30 12259 C 1133.06 4.01962 1.58274 0
M  V30 12260 C 1132.19 4.53662 2.76341 0
M  V30 12261 C 1131.23 5.66807 2.31076 0
M  V30 12262 N 1130.37 6.13059 3.42203 0
M  V30 12263 H 1135.21 2.96971 0.247382 0
M  V30 12264 H 1132.75 1.46685 0.110382 0
M  V30 12265 H 1134.7 3.16359 2.7198 0
M  V30 12266 H 1133.33 2.04398 2.49842 0
M  V30 12267 H 1132.39 3.72733 0.759874 0
M  V30 12268 H 1133.7 4.83891 1.2104 0
M  V30 12269 H 1132.85 4.90905 3.56507 0
M  V30 12270 H 1131.59 3.7077 3.16829 0
M  V30 12271 H 1130.6 5.29125 1.49354 0
M  V30 12272 H 1131.82 6.51494 1.91657 0
M  V30 12273 H 1129.77 5.33099 3.82285 0
M  V30 12274 H 1129.68 6.89953 3.09033 0
M  V30 12275 H 1130.95 6.54951 4.22682 0
M  V30 12276 N 1135.18 -0.111886 1.57202 0
M  V30 12277 C 1136.41 -0.836317 1.89791 0
M  V30 12278 C 1136.83 -1.72304 0.754513 0
M  V30 12279 O 1136.19 -1.78889 -0.294672 0
M  V30 12280 C 1136.24 -1.63971 3.21164 0
M  V30 12281 O 1135.34 -2.74726 3.0757 0
M  V30 12282 H 1134.68 -0.230833 0.622585 0
M  V30 12283 H 1137.21 -0.0921478 2.04392 0
M  V30 12284 H 1137.22 -2.02746 3.54059 0
M  V30 12285 H 1135.9 -0.98882 4.03974 0
M  V30 12286 H 1134.47 -2.39101 2.86156 0
M  V30 12287 N 1136.66 -1.52894 -0.382264 0
M  V30 12288 C 1137.9 -1.69465 -1.12486 0
M  V30 12289 C 1138.26 -0.432631 -1.87473 0
M  V30 12290 O 1137.55 0.573901 -1.82803 0
M  V30 12291 C 1137.75 -2.87309 -2.12576 0
M  V30 12292 C 1137.58 -4.24849 -1.47421 0
M  V30 12293 C 1136.35 -4.89965 -1.23542 0
M  V30 12294 C 1138.54 -5.05991 -0.920733 0
M  V30 12295 N 1136.53 -6.1147 -0.545631 0
M  V30 12296 C 1137.9 -6.18958 -0.359379 0
M  V30 12297 C 1139.95 -4.91138 -0.817797 0
M  V30 12298 C 1138.65 -7.18695 0.294853 0
M  V30 12299 C 1140.68 -5.91134 -0.177375 0
M  V30 12300 C 1140.04 -7.03411 0.373179 0
M  V30 12301 H 1136.14 -0.673527 -0.397347 0
M  V30 12302 H 1138.73 -1.90259 -0.413479 0
M  V30 12303 H 1136.9 -2.68083 -2.81044 0
M  V30 12304 H 1138.63 -2.92784 -2.79392 0
M  V30 12305 H 1135.38 -4.48808 -1.51223 0
M  V30 12306 H 1135.81 -6.76653 -0.216582 0
M  V30 12307 H 1140.45 -4.04536 -1.22924 0
M  V30 12308 H 1138.17 -8.04901 0.718285 0
M  V30 12309 H 1141.75 -5.81716 -0.0988833 0
M  V30 12310 H 1140.63 -7.7946 0.860905 0
M  V30 12311 N 1138.14 0.641106 -1.43971 0
M  V30 12312 C 1139.55 1.22254 -1.41106 0
M  V30 12313 C 1139.9 1.95825 -0.121284 0
M  V30 12314 O 1139.02 2.01901 0.77879 0
M  V30 12315 C 1139.62 2.22364 -2.55617 0
M  V30 12316 C 1138.18 2.75957 -2.55978 0
M  V30 12317 C 1137.33 1.50792 -2.32717 0
M  V30 12318 H 1140.28 0.432381 -1.52696 0
M  V30 12319 H 1140.3 3.04775 -2.27799 0
M  V30 12320 H 1139.81 1.68789 -3.49474 0
M  V30 12321 H 1137.91 3.33562 -1.66034 0
M  V30 12322 H 1138.02 3.22676 -3.54142 0
M  V30 12323 H 1136.39 1.7857 -1.81617 0
M  V30 12324 H 1137.17 0.991343 -3.28675 0
M  V30 12325 N 1139.62 1.30703 0.880598 0
M  V30 12326 C 1140.84 1.22714 1.6658 0
M  V30 12327 C 1141.26 -0.209303 1.87636 0
M  V30 12328 O 1140.62 -1.13771 1.42697 0
M  V30 12329 C 1140.67 1.95659 3.03974 0
M  V30 12330 O 1140.39 3.33695 2.83865 0
M  V30 12331 C 1141.89 1.9438 3.98411 0
M  V30 12332 H 1139.11 0.424478 0.519673 0
M  V30 12333 H 1141.65 1.72402 1.0999 0
M  V30 12334 H 1139.81 1.49758 3.57283 0
M  V30 12335 H 1140.22 3.70697 3.71058 0
M  V30 12336 H 1141.7 2.4995 4.92168 0
M  V30 12337 H 1142.17 0.923767 4.29375 0
M  V30 12338 H 1142.78 2.40112 3.51036 0
M  V30 12339 N 1141.09 -1.09351 1.1349 0
M  V30 12340 C 1142.02 -2.18037 0.835588 0
M  V30 12341 C 1143 -1.68856 -0.205373 0
M  V30 12342 O 1144.19 -1.94094 -0.0641357 0
M  V30 12343 C 1141.32 -3.45987 0.301661 0
M  V30 12344 C 1140.27 -4.08507 1.27696 0
M  V30 12345 C 1139.6 -5.31292 0.602758 0
M  V30 12346 C 1140.9 -4.50916 2.63575 0
M  V30 12347 H 1142.59 -2.43332 1.74441 0
M  V30 12348 H 1140.14 -1.1695 0.840166 0
M  V30 12349 H 1142.09 -4.21324 0.079928 0
M  V30 12350 H 1140.82 -3.20217 -0.642552 0
M  V30 12351 H 1139.48 -3.3519 1.4847 0
M  V30 12352 H 1139.12 -5.01802 -0.346953 0
M  V30 12353 H 1138.82 -5.74075 1.25345 0
M  V30 12354 H 1140.35 -6.09351 0.390325 0
M  V30 12355 H 1141.76 -5.17474 2.46765 0
M  V30 12356 H 1140.16 -5.04586 3.24827 0
M  V30 12357 H 1141.23 -3.63279 3.2118 0
M  V30 12358 N 1142.57 -0.928524 -1.27343 0
M  V30 12359 C 1143.52 -0.418768 -2.28799 0
M  V30 12360 C 1144.51 0.497334 -1.61935 0
M  V30 12361 O 1145.72 0.376945 -1.76009 0
M  V30 12362 H 1142.09 -0.116855 -0.742865 0
M  V30 12363 H 1144.07 -1.28725 -2.69207 0
M  V30 12364 C 1142.81 0.312422 -3.46294 0
M  V30 12365 H 1142.14 -0.383317 -3.97958 0
M  V30 12366 H 1143.58 0.633514 -4.19241 0
M  V30 12367 C 1142.04 1.5257 -3.00373 0
M  V30 12368 O 1142.57 2.62443 -3.04116 0
M  V30 12369 N 1140.77 1.37782 -2.5586 0
M  V30 12370 H 1140.32 0.483908 -2.53014 0
M  V30 12371 H 1140.28 2.19085 -2.25498 0
M  V30 12372 N 1144.05 1.41491 -0.694123 0
M  V30 12373 C 1145.28 2.05579 -0.233466 0
M  V30 12374 C 1145.69 1.5223 1.11675 0
M  V30 12375 O 1145.05 0.669937 1.69759 0
M  V30 12376 C 1145.1 3.61047 -0.180967 0
M  V30 12377 O 1144.82 4.12421 -1.47785 0
M  V30 12378 C 1146.32 4.42278 0.300853 0
M  V30 12379 H 1143.54 0.662097 -0.108943 0
M  V30 12380 H 1146.09 1.81288 -0.946299 0
M  V30 12381 H 1144.24 3.84381 0.482678 0
M  V30 12382 H 1144.66 5.06454 -1.364 0
M  V30 12383 H 1146.13 5.51256 0.286464 0
M  V30 12384 H 1146.61 4.18276 1.33948 0
M  V30 12385 H 1147.21 4.24004 -0.331741 0
M  V30 12386 N 1145.53 0.438773 1.51369 0
M  V30 12387 C 1146.46 -0.362467 2.3067 0
M  V30 12388 C 1147.44 -1.01973 1.36145 0
M  V30 12389 O 1148.62 -1.0231 1.65065 0
M  V30 12390 C 1145.75 -1.46313 3.14976 0
M  V30 12391 C 1144.71 -0.929272 4.1779 0
M  V30 12392 C 1144.03 -2.12579 4.90627 0
M  V30 12393 C 1145.33 0.0372782 5.22287 0
M  V30 12394 H 1147.03 0.29931 2.979 0
M  V30 12395 H 1144.57 0.14539 1.43264 0
M  V30 12396 H 1146.53 -2.03088 3.69233 0
M  V30 12397 H 1145.25 -2.15321 2.45569 0
M  V30 12398 H 1143.91 -0.383722 3.64586 0
M  V30 12399 H 1143.56 -2.8021 4.17722 0
M  V30 12400 H 1143.26 -1.77496 5.60151 0
M  V30 12401 H 1144.78 -2.69905 5.47708 0
M  V30 12402 H 1146.2 -0.44022 5.71607 0
M  V30 12403 H 1144.59 0.300748 5.99346 0
M  V30 12404 H 1145.66 0.973503 4.75027 0
M  V30 12405 N 1147.01 -1.56678 0.170181 0
M  V30 12406 C 1148.25 -1.96024 -0.475147 0
M  V30 12407 C 1148.57 -1.0588 -1.64465 0
M  V30 12408 O 1149.77 -1.34901 -2.35614 0
M  V30 12409 C 1148.23 -3.4855 -0.896704 0
M  V30 12410 C 1147.84 -4.47318 0.247142 0
M  V30 12411 C 1149.58 -3.96716 -1.51052 0
M  V30 12412 C 1147.49 -5.91082 -0.193982 0
M  V30 12413 H 1146.42 -0.731883 -0.181282 0
M  V30 12414 H 1149.07 -1.81674 0.25823 0
M  V30 12415 H 1147.45 -3.58314 -1.68603 0
M  V30 12416 H 1148.63 -4.49268 1.02445 0
M  V30 12417 H 1146.94 -4.09203 0.770839 0
M  V30 12418 H 1149.54 -5.01581 -1.85258 0
M  V30 12419 H 1149.88 -3.39588 -2.40802 0
M  V30 12420 H 1150.41 -3.89965 -0.785652 0
M  V30 12421 H 1147.15 -6.5208 0.668714 0
M  V30 12422 H 1146.67 -5.92441 -0.936675 0
M  V30 12423 H 1148.35 -6.43844 -0.638237 0
M  V30 12424 N 1148.48 0.103547 -1.57259 0
M  V30 12425 C 1149.43 1.12621 -2.01458 0
M  V30 12426 C 1150.4 1.40282 -0.889391 0
M  V30 12427 O 1151.59 1.51887 -1.15477 0
M  V30 12428 C 1148.73 2.44352 -2.43692 0
M  V30 12429 C 1147.84 2.23495 -3.69695 0
M  V30 12430 C 1146.97 3.48565 -4.00844 0
M  V30 12431 C 1146.01 3.22932 -5.19982 0
M  V30 12432 N 1145.15 4.40246 -5.46926 0
M  V30 12433 H 1149.99 0.742315 -2.88606 0
M  V30 12434 H 1147.53 0.355016 -1.42752 0
M  V30 12435 H 1149.48 3.2122 -2.66221 0
M  V30 12436 H 1148.11 2.80605 -1.59565 0
M  V30 12437 H 1147.17 1.3747 -3.54692 0
M  V30 12438 H 1148.48 2.0054 -4.56711 0
M  V30 12439 H 1147.63 4.33844 -4.24104 0
M  V30 12440 H 1146.37 3.74565 -3.12333 0
M  V30 12441 H 1145.38 2.36045 -4.96551 0
M  V30 12442 H 1146.6 2.98286 -6.10084 0
M  V30 12443 H 1144.55 4.66338 -4.61373 0
M  V30 12444 H 1144.46 4.20452 -6.28296 0
M  V30 12445 H 1145.73 5.26614 -5.74716 0
M  V30 12446 N 1149.96 1.53094 0.37415 0
M  V30 12447 C 1151.21 1.68082 1.11495 0
M  V30 12448 C 1151.52 0.434685 1.90709 0
M  V30 12449 O 1152.73 0.464956 2.67489 0
M  V30 12450 C 1151.19 2.97101 2.03124 0
M  V30 12451 C 1150.79 4.28947 1.29262 0
M  V30 12452 C 1152.54 3.21456 2.77248 0
M  V30 12453 C 1150.44 5.4906 2.19743 0
M  V30 12454 H 1149.37 0.626238 0.419931 0
M  V30 12455 H 1152.03 1.79594 0.376588 0
M  V30 12456 H 1150.41 2.79371 2.80656 0
M  V30 12457 H 1151.58 4.57279 0.568528 0
M  V30 12458 H 1149.9 4.10968 0.670362 0
M  V30 12459 H 1152.49 4.08377 3.45155 0
M  V30 12460 H 1152.84 2.37153 3.42146 0
M  V30 12461 H 1153.37 3.3982 2.06803 0
M  V30 12462 H 1150.11 6.35815 1.59437 0
M  V30 12463 H 1149.63 5.25019 2.90027 0
M  V30 12464 H 1151.31 5.83517 2.79495 0
M  V30 12465 N 1151.44 -0.633461 1.44309 0
M  V30 12466 C 1152.69 -1.38902 1.4625 0
M  V30 12467 C 1153 -1.95354 0.0980699 0
M  V30 12468 O 1154.21 -2.715 -0.0049983 0
M  V30 12469 C 1152.66 -2.51477 2.57463 0
M  V30 12470 C 1152.27 -2.01549 4.00103 0
M  V30 12471 C 1154.02 -3.28698 2.68622 0
M  V30 12472 C 1151.92 -3.11452 5.02744 0
M  V30 12473 H 1150.85 -0.521976 0.544112 0
M  V30 12474 H 1153.5 -0.681725 1.70367 0
M  V30 12475 H 1151.89 -3.24771 2.26582 0
M  V30 12476 H 1153.06 -1.35135 4.4054 0
M  V30 12477 H 1151.37 -1.3715 3.93165 0
M  V30 12478 H 1153.97 -4.10624 3.42479 0
M  V30 12479 H 1154.31 -3.78027 1.7436 0
M  V30 12480 H 1154.85 -2.62494 2.98901 0
M  V30 12481 H 1151.59 -2.6707 5.98627 0
M  V30 12482 H 1151.11 -3.76514 4.66902 0
M  V30 12483 H 1152.79 -3.76265 5.2634 0
M  V30 12484 N 1152.92 -1.31168 -0.873655 0
M  V30 12485 C 1154.17 -1.20404 -1.62319 0
M  V30 12486 C 1154.49 0.238829 -1.93532 0
M  V30 12487 O 1153.76 1.15854 -1.57971 0
M  V30 12488 H 1152.34 -0.442632 -0.601736 0
M  V30 12489 H 1155 -1.64445 -1.04613 0
M  V30 12490 H 1154.1 -1.77309 -2.56842 0
M  V30 12491 N 1154.4 1.08748 -1.14068 0
M  V30 12492 C 1155.34 2.17667 -0.819981 0
M  V30 12493 C 1156.34 1.68207 0.200654 0
M  V30 12494 O 1157.54 1.79909 0.0571014 0
M  V30 12495 H 1153.92 0.710129 -0.247427 0
M  V30 12496 H 1155.89 2.41944 -1.74659 0
M  V30 12497 C 1154.64 3.46315 -0.309985 0
M  V30 12498 H 1153.96 3.84748 -1.08669 0
M  V30 12499 H 1155.4 4.23818 -0.124094 0
M  V30 12500 C 1153.86 3.22762 0.965724 0
M  V30 12501 O 1154.39 3.46034 2.04018 0
M  V30 12502 N 1152.6 2.76326 0.899576 0
M  V30 12503 H 1152.14 2.57588 0.0250598 0
M  V30 12504 H 1152.1 2.60945 1.75371 0
M  V30 12505 N 1155.87 0.935264 1.26849 0
M  V30 12506 C 1157.1 0.595704 1.98661 0
M  V30 12507 C 1157.52 -0.821001 1.69237 0
M  V30 12508 O 1156.88 -1.55211 0.936982 0
M  V30 12509 C 1156.93 0.837275 3.50745 0
M  V30 12510 O 1156.03 -0.0934914 4.12294 0
M  V30 12511 H 1155.38 0.228512 0.623441 0
M  V30 12512 H 1157.91 1.25658 1.61466 0
M  V30 12513 H 1157.92 0.755827 4.00938 0
M  V30 12514 H 1156.59 1.86993 3.71492 0
M  V30 12515 H 1155.17 0.0385124 3.7288 0
M  V30 12516 N 1157.35 -1.41121 0.701616 0
M  V30 12517 C 1158.6 -2.01428 0.235495 0
M  V30 12518 C 1158.93 -1.55463 -1.16382 0
M  V30 12519 O 1158.21 -0.768477 -1.78675 0
M  V30 12520 C 1158.49 -3.58849 0.299919 0
M  V30 12521 C 1158.34 -4.14924 1.73661 0
M  V30 12522 C 1159.66 -4.38809 -0.336856 0
M  V30 12523 H 1156.78 -0.731842 0.0870456 0
M  V30 12524 H 1159.42 -1.67787 0.891479 0
M  V30 12525 H 1157.57 -3.87638 -0.258611 0
M  V30 12526 H 1159.24 -3.96987 2.34945 0
M  V30 12527 H 1157.49 -3.69738 2.26884 0
M  V30 12528 H 1158.16 -5.24085 1.73318 0
M  V30 12529 H 1160.63 -4.15868 0.138886 0
M  V30 12530 H 1159.51 -5.48278 -0.261264 0
M  V30 12531 H 1159.77 -4.18728 -1.41843 0
M  V30 12532 N 1158.83 -0.446794 -1.51134 0
M  V30 12533 C 1160.08 0.116263 -2.01765 0
M  V30 12534 C 1160.4 1.42382 -1.33238 0
M  V30 12535 O 1159.67 1.9018 -0.469915 0
M  V30 12536 H 1158.25 0.0459558 -0.745585 0
M  V30 12537 H 1160.91 -0.591664 -1.85702 0
M  V30 12538 H 1160.01 0.285358 -3.10793 0
M  V30 12539 N 1160.31 1.56586 -0.178487 0
M  V30 12540 C 1161.27 2.17091 0.73512 0
M  V30 12541 C 1162.27 1.12088 1.15295 0
M  V30 12542 O 1163.46 1.37563 1.06874 0
M  V30 12543 C 1160.59 2.75957 2.00151 0
M  V30 12544 H 1161.79 2.99176 0.208272 0
M  V30 12545 H 1159.34 1.56138 0.0710967 0
M  V30 12546 H 1160.07 1.97626 2.57127 0
M  V30 12547 H 1159.86 3.52809 1.7108 0
M  V30 12548 H 1161.35 3.2247 2.65335 0
M  V30 12549 N 1161.79 -0.095206 1.57312 0
M  V30 12550 C 1162.72 -1.11627 2.05089 0
M  V30 12551 C 1163.7 -1.41782 0.939787 0
M  V30 12552 O 1164.88 -1.51813 1.21105 0
M  V30 12553 C 1162.01 -2.43618 2.47523 0
M  V30 12554 C 1160.97 -2.27872 3.62296 0
M  V30 12555 C 1160.29 -3.65038 3.90706 0
M  V30 12556 C 1161.59 -1.71936 4.93189 0
M  V30 12557 H 1163.29 -0.718795 2.90644 0
M  V30 12558 H 1160.83 -0.344315 1.39823 0
M  V30 12559 H 1162.79 -3.1532 2.79556 0
M  V30 12560 H 1161.51 -2.85301 1.58968 0
M  V30 12561 H 1160.17 -1.58615 3.3051 0
M  V30 12562 H 1159.82 -4.04249 2.99319 0
M  V30 12563 H 1159.52 -3.55349 4.67976 0
M  V30 12564 H 1161.04 -4.38208 4.25213 0
M  V30 12565 H 1162.45 -2.33479 5.23603 0
M  V30 12566 H 1160.85 -1.73006 5.74621 0
M  V30 12567 H 1161.92 -0.678789 4.80125 0
M  V30 12568 N 1163.26 -1.53291 -0.366026 0
M  V30 12569 C 1164.51 -1.69117 -1.10653 0
M  V30 12570 C 1164.83 -0.445327 -1.89847 0
M  V30 12571 O 1164.1 0.540616 -1.88293 0
M  V30 12572 H 1162.68 -0.623446 -0.41149 0
M  V30 12573 H 1165.35 -1.90479 -0.412749 0
M  V30 12574 H 1164.44 -2.55205 -1.79658 0
M  V30 12575 N 1164.74 0.6258 -1.44643 0
M  V30 12576 C 1165.69 1.75869 -1.52226 0
M  V30 12577 C 1166.68 1.64765 -0.39355 0
M  V30 12578 O 1167.89 1.70779 -0.568718 0
M  V30 12579 H 1164.27 0.580712 -0.477784 0
M  V30 12580 H 1166.24 1.66596 -2.47565 0
M  V30 12581 C 1164.99 3.14217 -1.48873 0
M  V30 12582 H 1164.31 3.23411 -2.35043 0
M  V30 12583 H 1165.75 3.93365 -1.58239 0
M  V30 12584 C 1164.21 3.36243 -0.210299 0
M  V30 12585 O 1164.74 3.95243 0.717335 0
M  V30 12586 N 1162.94 2.90385 -0.111744 0
M  V30 12587 H 1162.49 2.42555 -0.867466 0
M  V30 12588 H 1162.45 3.05498 0.742871 0
M  V30 12589 N 1166.22 1.31629 0.866686 0
M  V30 12590 C 1167.15 1.22151 1.99001 0
M  V30 12591 C 1168.13 0.107972 1.69757 0
M  V30 12592 O 1169.32 0.293125 1.91975 0
M  V30 12593 C 1166.45 0.93144 3.34577 0
M  V30 12594 C 1165.4 2.0049 3.78137 0
M  V30 12595 C 1164.73 1.56747 5.11209 0
M  V30 12596 C 1166.03 3.41844 3.94892 0
M  V30 12597 H 1167.72 2.16132 2.0719 0
M  V30 12598 H 1165.27 1.04051 0.995463 0
M  V30 12599 H 1167.22 0.851719 4.12703 0
M  V30 12600 H 1165.94 -0.0440289 3.2657 0
M  V30 12601 H 1164.6 2.07457 3.02253 0
M  V30 12602 H 1164.25 0.579767 4.99648 0
M  V30 12603 H 1163.95 2.28562 5.41326 0
M  V30 12604 H 1165.47 1.50188 5.91841 0
M  V30 12605 H 1166.89 3.37534 4.63405 0
M  V30 12606 H 1165.29 4.11905 4.36411 0
M  V30 12607 H 1166.36 3.82389 2.98172 0
M  V30 12608 N 1167.7 -1.08142 1.14644 0
M  V30 12609 C 1168.93 -1.84318 0.939926 0
M  V30 12610 C 1169.34 -1.81735 -0.511636 0
M  V30 12611 O 1168.7 -1.22297 -1.35461 0
M  V30 12612 C 1168.75 -3.31744 1.43625 0
M  V30 12613 O 1168.47 -3.3435 2.83094 0
M  V30 12614 C 1169.97 -4.24717 1.27007 0
M  V30 12615 H 1167.19 -0.581781 0.334323 0
M  V30 12616 H 1169.74 -1.36561 1.52221 0
M  V30 12617 H 1167.89 -3.7688 0.896664 0
M  V30 12618 H 1168.31 -4.26399 3.05425 0
M  V30 12619 H 1169.78 -5.26262 1.66591 0
M  V30 12620 H 1170.26 -4.38682 0.213257 0
M  V30 12621 H 1170.86 -3.85409 1.79833 0
M  V30 12622 N 1169.18 -0.941978 -1.26351 0
M  V30 12623 C 1170.43 -0.585711 -1.93009 0
M  V30 12624 C 1170.74 0.879507 -1.74711 0
M  V30 12625 O 1171.95 1.34518 -2.35833 0
M  V30 12626 C 1170.4 -0.996787 -3.45821 0
M  V30 12627 C 1170.01 -2.48367 -3.72851 0
M  V30 12628 C 1171.75 -0.712452 -4.18479 0
M  V30 12629 C 1169.66 -2.83341 -5.19107 0
M  V30 12630 H 1168.59 -0.215342 -0.722595 0
M  V30 12631 H 1171.24 -1.14472 -1.43417 0
M  V30 12632 H 1169.62 -0.366295 -3.94302 0
M  V30 12633 H 1170.8 -3.16328 -3.35072 0
M  V30 12634 H 1169.11 -2.74139 -3.13427 0
M  V30 12635 H 1171.71 -0.95007 -5.26192 0
M  V30 12636 H 1172.05 0.350811 -4.14819 0
M  V30 12637 H 1172.59 -1.3027 -3.75865 0
M  V30 12638 H 1169.32 -3.88633 -5.27868 0
M  V30 12639 H 1168.84 -2.20043 -5.5798 0
M  V30 12640 H 1170.52 -2.71849 -5.87118 0
M  V30 12641 N 1170.66 1.40747 -0.709091 0
M  V30 12642 C 1171.9 2.00233 -0.242836 0
M  V30 12643 C 1172.22 1.56853 1.1686 0
M  V30 12644 O 1173.42 2.08993 1.73304 0
M  V30 12645 C 1171.88 3.57854 -0.383241 0
M  V30 12646 C 1171.49 4.10209 -1.80091 0
M  V30 12647 C 1173.23 4.24494 0.0225511 0
M  V30 12648 C 1171.14 5.60311 -1.89225 0
M  V30 12649 H 1170.07 0.74896 -0.087034 0
M  V30 12650 H 1172.72 1.61064 -0.879243 0
M  V30 12651 H 1171.1 3.94692 0.321642 0
M  V30 12652 H 1172.28 3.84762 -2.53564 0
M  V30 12653 H 1170.59 3.56142 -2.15758 0
M  V30 12654 H 1173.19 5.34694 -0.0250644 0
M  V30 12655 H 1173.53 4.02488 1.06344 0
M  V30 12656 H 1174.06 3.92739 -0.632541 0
M  V30 12657 H 1170.8 5.87162 -2.91412 0
M  V30 12658 H 1170.32 5.87642 -1.20154 0
M  V30 12659 H 1172 6.25306 -1.66136 0
M  V30 12660 N 1172.13 0.454803 1.50895 0
M  V30 12661 C 1173.06 -0.337982 2.31041 0
M  V30 12662 C 1174.04 -1.00523 1.37219 0
M  V30 12663 O 1175.23 -1.00553 1.66141 0
M  V30 12664 C 1172.36 -1.42964 3.1651 0
M  V30 12665 C 1171.31 -0.884907 4.18752 0
M  V30 12666 C 1170.64 -2.07363 4.92854 0
M  V30 12667 C 1171.94 0.0926716 5.22218 0
M  V30 12668 H 1173.63 0.33089 2.97566 0
M  V30 12669 H 1171.18 0.160577 1.43102 0
M  V30 12670 H 1173.13 -1.9916 3.71367 0
M  V30 12671 H 1171.86 -2.12705 2.47839 0
M  V30 12672 H 1170.52 -0.345031 3.64973 0
M  V30 12673 H 1170.16 -2.75764 4.2067 0
M  V30 12674 H 1169.86 -1.71545 5.62002 0
M  V30 12675 H 1171.39 -2.6408 5.5054 0
M  V30 12676 H 1172.8 -0.379568 5.72042 0
M  V30 12677 H 1171.2 0.3643 5.98993 0
M  V30 12678 H 1172.27 1.02383 4.73968 0
M  V30 12679 N 1173.61 -1.56489 0.186789 0
M  V30 12680 C 1174.57 -2.17478 -0.723596 0
M  V30 12681 C 1175.57 -1.12698 -1.14699 0
M  V30 12682 O 1176.76 -1.38128 -1.06143 0
M  V30 12683 C 1173.9 -2.77015 -1.98685 0
M  V30 12684 H 1175.09 -2.99282 -0.192403 0
M  V30 12685 H 1172.64 -1.56174 -0.0628153 0
M  V30 12686 H 1173.38 -1.98987 -2.56076 0
M  V30 12687 H 1173.16 -3.53711 -1.69207 0
M  V30 12688 H 1174.65 -3.23872 -2.63622 0
M  V30 12689 N 1175.09 0.086862 -1.5736 0
M  V30 12690 C 1176.34 0.787581 -1.85688 0
M  V30 12691 C 1176.65 1.79494 -0.777263 0
M  V30 12692 O 1177.86 2.54415 -0.947914 0
M  V30 12693 C 1176.31 1.45155 -3.2933 0
M  V30 12694 C 1175.92 0.483539 -4.45383 0
M  V30 12695 C 1177.67 2.13552 -3.66873 0
M  V30 12696 C 1175.57 1.15257 -5.8006 0
M  V30 12697 H 1174.5 0.297882 -0.692663 0
M  V30 12698 H 1177.15 0.0406299 -1.83455 0
M  V30 12699 H 1175.54 2.24625 -3.26128 0
M  V30 12700 H 1176.71 -0.280254 -4.59947 0
M  V30 12701 H 1175.02 -0.0951664 -4.16291 0
M  V30 12702 H 1177.62 2.64355 -4.6478 0
M  V30 12703 H 1177.96 2.92818 -2.95911 0
M  V30 12704 H 1178.5 1.40932 -3.71999 0
M  V30 12705 H 1175.24 0.400546 -6.54275 0
M  V30 12706 H 1174.76 1.88759 -5.69324 0
M  V30 12707 H 1176.44 1.67671 -6.24896 0
M  V30 12708 N 1176.57 1.53483 0.357892 0
M  V30 12709 C 1177.82 1.69256 1.09706 0
M  V30 12710 C 1178.13 0.454888 1.90237 0
M  V30 12711 O 1179.34 0.4933 2.66981 0
M  V30 12712 C 1177.79 2.99238 1.99961 0
M  V30 12713 C 1177.4 4.30293 1.24706 0
M  V30 12714 C 1179.14 3.24378 2.73823 0
M  V30 12715 C 1177.05 5.5136 2.13907 0
M  V30 12716 H 1175.98 0.630657 0.413265 0
M  V30 12717 H 1178.63 1.79983 0.357518 0
M  V30 12718 H 1177.01 2.82332 2.77677 0
M  V30 12719 H 1178.19 4.57857 0.519995 0
M  V30 12720 H 1176.5 4.11656 0.626736 0
M  V30 12721 H 1179.1 4.12015 3.40805 0
M  V30 12722 H 1179.44 2.40769 3.39612 0
M  V30 12723 H 1179.98 3.41994 2.03187 0
M  V30 12724 H 1176.71 6.3747 1.52684 0
M  V30 12725 H 1176.23 5.28065 2.84442 0
M  V30 12726 H 1177.91 5.86448 2.7329 0
M  V30 12727 N 1178.05 -0.61812 1.44973 0
M  V30 12728 C 1179.29 -1.37944 1.48658 0
M  V30 12729 C 1179.62 -1.93805 0.123749 0
M  V30 12730 O 1178.9 -1.74434 -0.860401 0
M  V30 12731 C 1179.18 -2.53515 2.55739 0
M  V30 12732 C 1179.04 -2.02918 4.01428 0
M  V30 12733 C 1180.35 -3.55674 2.59199 0
M  V30 12734 H 1177.47 -0.500223 0.541244 0
M  V30 12735 H 1180.12 -0.69774 1.76725 0
M  V30 12736 H 1178.27 -3.11669 2.31937 0
M  V30 12737 H 1179.94 -1.49494 4.36405 0
M  V30 12738 H 1178.18 -1.33999 4.12586 0
M  V30 12739 H 1178.85 -2.86181 4.72021 0
M  V30 12740 H 1181.33 -3.07343 2.80499 0
M  V30 12741 H 1180.2 -4.34042 3.36004 0
M  V30 12742 H 1180.46 -4.10601 1.63888 0
M  V30 12743 N 1179.52 -1.32087 -0.859693 0
M  V30 12744 C 1180.77 -1.2236 -1.61351 0
M  V30 12745 C 1181.1 0.215796 -1.93299 0
M  V30 12746 O 1180.35 1.16742 -1.57066 0
M  V30 12747 C 1180.65 -2.0234 -2.94607 0
M  V30 12748 C 1180.32 -3.51746 -2.82109 0
M  V30 12749 C 1178.98 -3.92482 -2.78408 0
M  V30 12750 C 1181.33 -4.46776 -2.68403 0
M  V30 12751 C 1178.66 -5.265 -2.58873 0
M  V30 12752 C 1181.01 -5.80931 -2.50404 0
M  V30 12753 C 1179.68 -6.20875 -2.45092 0
M  V30 12754 H 1178.95 -0.447748 -0.590426 0
M  V30 12755 H 1181.59 -1.63461 -0.997637 0
M  V30 12756 H 1179.9 -1.53952 -3.60286 0
M  V30 12757 H 1181.6 -1.92187 -3.51945 0
M  V30 12758 H 1178.19 -3.19389 -2.85812 0
M  V30 12759 H 1182.37 -4.16228 -2.70311 0
M  V30 12760 H 1177.63 -5.5651 -2.53192 0
M  V30 12761 H 1181.8 -6.54185 -2.38777 0
M  V30 12762 H 1179.43 -7.24662 -2.29714 0
M  V30 12763 N 1181 1.07532 -1.15215 0
M  V30 12764 C 1182.25 1.8036 -0.927263 0
M  V30 12765 C 1182.58 1.86414 0.544371 0
M  V30 12766 O 1181.86 1.34653 1.40353 0
M  V30 12767 C 1182.14 3.25512 -1.53992 0
M  V30 12768 C 1181.99 3.27614 -3.08203 0
M  V30 12769 C 1183.31 4.22731 -1.22418 0
M  V30 12770 H 1180.43 0.654775 -0.338289 0
M  V30 12771 H 1183.07 1.25842 -1.42351 0
M  V30 12772 H 1181.22 3.72068 -1.11791 0
M  V30 12773 H 1182.89 2.89315 -3.59297 0
M  V30 12774 H 1181.14 2.66627 -3.42188 0
M  V30 12775 H 1181.81 4.29956 -3.46182 0
M  V30 12776 H 1184.28 3.84557 -1.58919 0
M  V30 12777 H 1183.16 5.22589 -1.67906 0
M  V30 12778 H 1183.42 4.41875 -0.14091 0
M  V30 12779 N 1182.48 0.948665 1.2585 0
M  V30 12780 C 1183.73 0.600236 1.934 0
M  V30 12781 C 1184.06 -0.86185 1.74363 0
M  V30 12782 O 1183.31 -1.63294 1.07858 0
M  V30 12783 C 1183.61 0.89784 3.45939 0
M  V30 12784 C 1183.28 2.345 3.85124 0
M  V30 12785 C 1181.94 2.74058 3.95532 0
M  V30 12786 C 1184.29 3.2851 4.04636 0
M  V30 12787 C 1181.62 4.06707 4.22855 0
M  V30 12788 C 1183.97 4.60764 4.3345 0
M  V30 12789 C 1182.63 5.00127 4.42074 0
M  V30 12790 H 1181.9 0.219642 0.707699 0
M  V30 12791 H 1184.55 1.19658 1.49513 0
M  V30 12792 H 1182.86 0.219037 3.91187 0
M  V30 12793 H 1184.55 0.606916 3.96381 0
M  V30 12794 H 1181.14 2.02819 3.77574 0
M  V30 12795 H 1185.33 2.99141 3.96015 0
M  V30 12796 H 1180.58 4.36856 4.27746 0
M  V30 12797 H 1184.76 5.33594 4.47493 0
M  V30 12798 H 1182.38 6.02939 4.63 0
M  V30 12799 N 1183.96 -1.40369 0.716545 0
M  V30 12800 C 1184.92 -2.29083 0.0733105 0
M  V30 12801 C 1185.92 -1.45415 -0.686378 0
M  V30 12802 O 1187.11 -1.66316 -0.518139 0
M  V30 12803 C 1184.24 -3.28639 -0.906032 0
M  V30 12804 H 1185.44 -2.87464 0.85467 0
M  V30 12805 H 1182.99 -1.48706 0.481256 0
M  V30 12806 H 1183.72 -2.75279 -1.71441 0
M  V30 12807 H 1183.51 -3.90405 -0.364163 0
M  V30 12808 H 1185 -3.95066 -1.35324 0
M  V30 12809 N 1185.44 -0.462799 -1.50652 0
M  V30 12810 C 1186.37 0.325724 -2.31217 0
M  V30 12811 C 1187.35 0.997942 -1.3775 0
M  V30 12812 O 1188.53 0.996707 -1.66671 0
M  V30 12813 C 1185.66 1.41283 -3.17264 0
M  V30 12814 C 1184.62 0.862687 -4.19216 0
M  V30 12815 C 1183.94 2.04746 -4.93946 0
M  V30 12816 C 1185.24 -0.120365 -5.22161 0
M  V30 12817 H 1186.94 -0.346666 -2.97386 0
M  V30 12818 H 1184.48 -0.168163 -1.43015 0
M  V30 12819 H 1186.44 1.97188 -3.72418 0
M  V30 12820 H 1185.16 2.11387 -2.48964 0
M  V30 12821 H 1183.82 0.325671 -3.65151 0
M  V30 12822 H 1183.47 2.73529 -4.22127 0
M  V30 12823 H 1183.17 1.68562 -5.62904 0
M  V30 12824 H 1184.69 2.61157 -5.51932 0
M  V30 12825 H 1186.1 0.349226 -5.72235 0
M  V30 12826 H 1184.5 -0.396061 -5.98792 0
M  V30 12827 H 1185.57 -1.04895 -4.73418 0
M  V30 12828 N 1186.91 1.56388 -0.195085 0
M  V30 12829 C 1188.16 1.97872 0.444344 0
M  V30 12830 C 1188.49 1.0819 1.61271 0
M  V30 12831 O 1187.77 0.133904 1.94039 0
M  V30 12832 C 1188.05 3.48556 0.90449 0
M  V30 12833 C 1187.9 4.49015 -0.265693 0
M  V30 12834 C 1189.22 4.02938 1.76999 0
M  V30 12835 H 1186.34 0.719413 0.160041 0
M  V30 12836 H 1188.98 1.87835 -0.286005 0
M  V30 12837 H 1187.13 3.5724 1.52682 0
M  V30 12838 H 1188.81 4.52368 -0.903363 0
M  V30 12839 H 1187.05 4.23987 -0.917462 0
M  V30 12840 H 1187.72 5.51912 0.0987834 0
M  V30 12841 H 1190.2 3.97033 1.24514 0
M  V30 12842 H 1189.07 5.08741 2.06092 0
M  V30 12843 H 1189.33 3.48197 2.72418 0
M  V30 12844 N 1188.39 -0.0785156 1.57404 0
M  V30 12845 C 1189.64 -0.777399 1.8655 0
M  V30 12846 C 1189.96 -1.78451 0.786142 0
M  V30 12847 O 1189.23 -1.95016 -0.185911 0
M  V30 12848 H 1187.81 -0.290097 0.688369 0
M  V30 12849 H 1190.47 -0.0562017 1.94819 0
M  V30 12850 H 1189.57 -1.29776 2.83839 0
M  V30 12851 N 1189.87 -1.5367 -0.349747 0
M  V30 12852 C 1190.82 -1.81223 -1.42922 0
M  V30 12853 C 1191.79 -0.657536 -1.52531 0
M  V30 12854 O 1192.97 -0.90134 -1.68168 0
M  V30 12855 C 1190.11 -2.022 -2.79659 0
M  V30 12856 C 1189.23 -3.29915 -2.78891 0
M  V30 12857 C 1188.36 -3.40993 -4.07305 0
M  V30 12858 C 1187.4 -4.6268 -4.00741 0
M  V30 12859 N 1186.54 -4.70826 -5.20833 0
M  V30 12860 H 1191.38 -2.73328 -1.18727 0
M  V30 12861 H 1188.91 -1.35386 -0.57525 0
M  V30 12862 H 1190.87 -2.12351 -3.59114 0
M  V30 12863 H 1189.5 -1.13416 -3.0222 0
M  V30 12864 H 1188.55 -3.28637 -1.91577 0
M  V30 12865 H 1189.87 -4.19459 -2.69917 0
M  V30 12866 H 1189.02 -3.50542 -4.95182 0
M  V30 12867 H 1187.76 -2.49493 -4.19052 0
M  V30 12868 H 1186.76 -4.53215 -3.11249 0
M  V30 12869 H 1187.99 -5.55538 -3.90582 0
M  V30 12870 H 1185.93 -3.82233 -5.33136 0
M  V30 12871 H 1185.85 -5.54297 -5.14092 0
M  V30 12872 H 1187.12 -4.84677 -6.10499 0
M  V30 12873 N 1191.35 0.610423 -1.45298 0
M  V30 12874 C 1192.28 1.73507 -1.4976 0
M  V30 12875 C 1193.29 1.58092 -0.38867 0
M  V30 12876 O 1194.48 1.66026 -0.655571 0
M  V30 12877 C 1191.58 3.11475 -1.33554 0
M  V30 12878 C 1190.76 3.53156 -2.5807 0
M  V30 12879 C 1189.81 4.70076 -2.36463 0
M  V30 12880 O 1188.84 4.77337 -3.10061 0
M  V30 12881 N 1190.04 5.63155 -1.40843 0
M  V30 12882 H 1192.81 1.70144 -2.46721 0
M  V30 12883 H 1190.37 0.79562 -1.41002 0
M  V30 12884 H 1192.36 3.87444 -1.16914 0
M  V30 12885 H 1190.93 3.09361 -0.448803 0
M  V30 12886 H 1190.15 2.67178 -2.89844 0
M  V30 12887 H 1191.44 3.77761 -3.40843 0
M  V30 12888 H 1190.84 5.60001 -0.800982 0
M  V30 12889 H 1189.39 6.38669 -1.30175 0
M  V30 12890 N 1192.83 1.32541 0.852676 0
M  V30 12891 C 1193.76 1.24254 1.97694 0
M  V30 12892 C 1194.74 0.125971 1.69633 0
M  V30 12893 O 1195.92 0.31347 1.91653 0
M  V30 12894 C 1193.05 0.966874 3.3357 0
M  V30 12895 C 1192.01 2.0449 3.75989 0
M  V30 12896 C 1191.33 1.6216 5.09518 0
M  V30 12897 C 1192.63 3.46013 3.91244 0
M  V30 12898 H 1194.33 2.18317 2.04886 0
M  V30 12899 H 1191.87 1.05101 0.984371 0
M  V30 12900 H 1193.83 0.895444 4.11776 0
M  V30 12901 H 1192.55 -0.0093893 3.26599 0
M  V30 12902 H 1191.21 2.10651 3.00036 0
M  V30 12903 H 1190.86 0.632729 4.99005 0
M  V30 12904 H 1190.56 2.3429 5.38871 0
M  V30 12905 H 1192.08 1.56457 5.90215 0
M  V30 12906 H 1193.49 3.4243 4.59799 0
M  V30 12907 H 1191.89 4.1651 4.32017 0
M  V30 12908 H 1192.96 3.8553 2.941 0
M  V30 12909 N 1194.3 -1.0692 1.15784 0
M  V30 12910 C 1195.23 -2.16216 0.881649 0
M  V30 12911 C 1196.22 -1.69253 -0.16951 0
M  V30 12912 O 1197.4 -1.94186 -0.0229511 0
M  V30 12913 C 1194.53 -3.4527 0.374982 0
M  V30 12914 C 1193.48 -4.05706 1.36332 0
M  V30 12915 C 1192.81 -5.29894 0.715317 0
M  V30 12916 C 1194.11 -4.45224 2.7308 0
M  V30 12917 H 1195.8 -2.39577 1.79563 0
M  V30 12918 H 1193.35 -1.15141 0.864784 0
M  V30 12919 H 1195.3 -4.2106 0.169279 0
M  V30 12920 H 1194.03 -3.21508 -0.574485 0
M  V30 12921 H 1192.69 -3.31965 1.55546 0
M  V30 12922 H 1192.33 -5.02425 -0.240436 0
M  V30 12923 H 1192.03 -5.71287 1.37494 0
M  V30 12924 H 1193.56 -6.08386 0.519489 0
M  V30 12925 H 1194.97 -5.12124 2.57686 0
M  V30 12926 H 1193.37 -4.97583 3.35457 0
M  V30 12927 H 1194.44 -3.56384 3.28813 0
M  V30 12928 N 1195.78 -0.955326 -1.25345 0
M  V30 12929 C 1197.03 -0.609278 -1.92697 0
M  V30 12930 C 1197.35 0.856535 -1.75181 0
M  V30 12931 O 1196.62 1.61013 -1.11587 0
M  V30 12932 H 1195.2 -0.22235 -0.713141 0
M  V30 12933 H 1197.86 -1.21372 -1.52496 0
M  V30 12934 H 1196.96 -0.839198 -3.00606 0
M  V30 12935 N 1197.26 1.39987 -0.723979 0
M  V30 12936 C 1198.17 2.3447 -0.0780936 0
M  V30 12937 C 1199.19 1.57744 0.734368 0
M  V30 12938 O 1200.36 1.90091 0.665385 0
M  V30 12939 C 1197.43 3.36705 0.826492 0
M  V30 12940 C 1196.49 4.293 0.00303036 0
M  V30 12941 C 1195.72 5.26651 0.864535 0
M  V30 12942 O 1195.95 5.30194 2.10357 0
M  V30 12943 O 1194.88 6.01157 0.299057 0
M  V30 12944 H 1198.71 2.91338 -0.857646 0
M  V30 12945 H 1196.29 1.41324 -0.484536 0
M  V30 12946 H 1198.17 3.9938 1.34439 0
M  V30 12947 H 1196.85 2.82237 1.58505 0
M  V30 12948 H 1195.75 3.69883 -0.560136 0
M  V30 12949 H 1197.09 4.86942 -0.717494 0
M  V30 12950 N 1198.74 0.470782 1.50404 0
M  V30 12951 C 1199.69 -0.337584 2.30137 0
M  V30 12952 C 1200.68 -0.990673 1.37412 0
M  V30 12953 O 1201.89 -0.921813 1.54605 0
M  V30 12954 H 1198.26 -0.127707 0.741077 0
M  V30 12955 H 1200.23 0.355297 2.96277 0
M  V30 12956 C 1198.98 -1.40714 3.17954 0
M  V30 12957 H 1198.31 -0.913982 3.89213 0
M  V30 12958 H 1199.75 -1.94533 3.7674 0
M  V30 12959 C 1198.2 -2.40889 2.35529 0
M  V30 12960 O 1198.73 -3.46153 2.03816 0
M  V30 12961 N 1196.94 -2.126 1.98115 0
M  V30 12962 H 1196.49 -1.27023 2.24105 0
M  V30 12963 H 1196.45 -2.7986 1.43269 0
M  V30 12964 N 1200.22 -1.56282 0.203376 0
M  V30 12965 C 1201.45 -2.01905 -0.437936 0
M  V30 12966 C 1201.86 -1.08263 -1.55164 0
M  V30 12967 O 1201.2 -0.0811746 -1.83521 0
M  V30 12968 C 1201.26 -3.43908 -1.04725 0
M  V30 12969 C 1200.92 -4.56944 -0.0712582 0
M  V30 12970 C 1201.92 -5.14856 0.72243 0
M  V30 12971 C 1199.61 -5.02282 0.0422267 0
M  V30 12972 C 1201.6 -6.16562 1.61649 0
M  V30 12973 C 1199.29 -6.0383 0.939835 0
M  V30 12974 C 1200.29 -6.60844 1.72552 0
M  V30 12975 O 1199.97 -7.60417 2.60808 0
M  V30 12976 H 1199.71 -0.666416 -0.11343 0
M  V30 12977 H 1202.26 -2.03019 0.311833 0
M  V30 12978 H 1200.49 -3.39806 -1.84577 0
M  V30 12979 H 1202.18 -3.73288 -1.59407 0
M  V30 12980 H 1202.94 -4.80691 0.645105 0
M  V30 12981 H 1198.82 -4.57596 -0.559165 0
M  V30 12982 H 1202.37 -6.6099 2.23019 0
M  V30 12983 H 1198.26 -6.37418 1.01824 0
M  V30 12984 H 1199.03 -7.77869 2.54679 0
M  V30 12985 N 1201.7 0.070167 -1.57444 0
M  V30 12986 C 1203.11 0.424991 -1.53838 0
M  V30 12987 C 1203.31 1.79076 -0.923793 0
M  V30 12988 O 1202.37 2.46939 -0.527002 0
M  V30 12989 C 1203.68 0.364562 -2.98482 0
M  V30 12990 C 1205.23 0.444631 -3.09826 0
M  V30 12991 C 1205.7 0.414093 -4.56124 0
M  V30 12992 N 1207.19 0.474119 -4.60767 0
M  V30 12993 C 1207.93 0.472729 -5.71448 0
M  V30 12994 N 1207.43 0.426059 -6.91489 0
M  V30 12995 N 1209.22 0.519408 -5.59695 0
M  V30 12996 H 1201.37 -0.824117 -1.9576 0
M  V30 12997 H 1203.63 -0.309401 -0.896089 0
M  V30 12998 H 1203.34 -0.572343 -3.47012 0
M  V30 12999 H 1203.21 1.17414 -3.5846 0
M  V30 13000 H 1205.6 1.37196 -2.61269 0
M  V30 13001 H 1205.68 -0.393547 -2.52755 0
M  V30 13002 H 1205.32 -0.509394 -5.05339 0
M  V30 13003 H 1205.25 1.26983 -5.11061 0
M  V30 13004 H 1207.75 0.514371 -3.74383 0
M  V30 13005 H 1208.06 0.428969 -7.71609 0
M  V30 13006 H 1206.4 0.392722 -6.9389 0
M  V30 13007 H 1209.59 0.553573 -4.64815 0
M  V30 13008 H 1209.77 0.514856 -6.45951 0
M  V30 13009 N 1203.17 1.53854 0.341593 0
M  V30 13010 C 1204.12 1.8268 1.43982 0
M  V30 13011 C 1205.12 0.697415 1.54378 0
M  V30 13012 O 1206.32 0.880785 1.56978 0
M  V30 13013 H 1202.7 0.578788 0.480113 0
M  V30 13014 H 1204.67 2.74556 1.16884 0
M  V30 13015 C 1203.42 2.05496 2.80476 0
M  V30 13016 H 1202.74 2.91852 2.73244 0
M  V30 13017 H 1204.18 2.2963 3.56435 0
M  V30 13018 C 1202.64 0.841061 3.26233 0
M  V30 13019 O 1203.17 0.0414376 4.01679 0
M  V30 13020 N 1201.37 0.657736 2.83059 0
M  V30 13021 H 1200.92 1.30962 2.21826 0
M  V30 13022 H 1200.88 -0.153003 3.14027 0
M  V30 13023 N 1204.65 -0.602709 1.4562 0
M  V30 13024 C 1205.6 -1.73425 1.55005 0
M  V30 13025 C 1206.59 -1.64118 0.419713 0
M  V30 13026 O 1207.8 -1.69853 0.595815 0
M  V30 13027 H 1204.17 -0.573038 0.486962 0
M  V30 13028 H 1206.15 -1.62637 2.50184 0
M  V30 13029 C 1204.89 -3.11808 1.53853 0
M  V30 13030 H 1204.22 -3.19631 2.40158 0
M  V30 13031 H 1205.66 -3.90798 1.64477 0
M  V30 13032 C 1204.12 -3.35866 0.263765 0
M  V30 13033 O 1204.65 -3.96334 -0.654364 0
M  V30 13034 N 1202.85 -2.90171 0.157927 0
M  V30 13035 H 1202.4 -2.41144 0.905944 0
M  V30 13036 H 1202.36 -3.06641 -0.694175 0
M  V30 13037 N 1206.13 -1.32992 -0.845635 0
M  V30 13038 C 1207.55 -1.12179 -1.13526 0
M  V30 13039 C 1207.75 0.091795 -2.01291 0
M  V30 13040 O 1206.8 0.774051 -2.40343 0
M  V30 13041 C 1208.11 -2.40584 -1.80388 0
M  V30 13042 C 1209.66 -2.46427 -1.92984 0
M  V30 13043 C 1210.14 -3.74776 -2.63261 0
M  V30 13044 N 1211.63 -3.75809 -2.7078 0
M  V30 13045 C 1212.36 -4.71829 -3.2583 0
M  V30 13046 N 1211.86 -5.78219 -3.81621 0
M  V30 13047 N 1213.65 -4.59313 -3.24018 0
M  V30 13048 H 1205.8 -2.10786 -0.261369 0
M  V30 13049 H 1208.07 -0.931053 -0.17845 0
M  V30 13050 H 1207.77 -3.29357 -1.23357 0
M  V30 13051 H 1207.65 -2.52225 -2.80468 0
M  V30 13052 H 1210.03 -1.58108 -2.4917 0
M  V30 13053 H 1210.11 -2.38732 -0.918732 0
M  V30 13054 H 1209.76 -4.63474 -2.07736 0
M  V30 13055 H 1209.69 -3.79746 -3.6483 0
M  V30 13056 H 1212.18 -2.98916 -2.31209 0
M  V30 13057 H 1212.49 -6.47531 -4.2181 0
M  V30 13058 H 1210.84 -5.81962 -3.79927 0
M  V30 13059 H 1214.03 -3.75358 -2.79685 0
M  V30 13060 H 1214.2 -5.34316 -3.6662 0
M  V30 13061 N 1207.61 1.06304 -1.1635 0
M  V30 13062 C 1208.55 2.13776 -0.869965 0
M  V30 13063 C 1209.52 1.65105 0.181541 0
M  V30 13064 O 1210.71 1.90743 0.0467705 0
M  V30 13065 C 1207.85 3.43034 -0.377077 0
M  V30 13066 C 1206.96 4.0544 -1.4914 0
M  V30 13067 C 1206.1 5.22572 -0.953538 0
M  V30 13068 C 1205.14 5.76961 -2.04407 0
M  V30 13069 N 1204.27 6.85409 -1.52181 0
M  V30 13070 H 1209.11 2.38224 -1.79034 0
M  V30 13071 H 1206.65 1.16882 -0.893136 0
M  V30 13072 H 1208.61 4.17136 -0.0729426 0
M  V30 13073 H 1207.24 3.18804 0.506359 0
M  V30 13074 H 1206.29 3.28886 -1.9115 0
M  V30 13075 H 1207.6 4.41859 -2.31434 0
M  V30 13076 H 1206.76 6.037 -0.602579 0
M  V30 13077 H 1205.5 4.87598 -0.099897 0
M  V30 13078 H 1204.5 4.9447 -2.40373 0
M  V30 13079 H 1205.73 6.13987 -2.90167 0
M  V30 13080 H 1203.67 6.52354 -0.690697 0
M  V30 13081 H 1203.59 7.2077 -2.28092 0
M  V30 13082 H 1204.86 7.70217 -1.19942 0
M  V30 13083 N 1209.09 0.96196 1.24836 0
M  V30 13084 C 1210.03 0.479282 2.27609 0
M  V30 13085 C 1211.03 -0.454224 1.63197 0
M  V30 13086 O 1212.23 -0.330146 1.76946 0
M  V30 13087 H 1208.61 0.13651 0.739506 0
M  V30 13088 H 1210.58 1.35817 2.657 0
M  V30 13089 C 1209.33 -0.220499 3.47 0
M  V30 13090 H 1208.65 0.488694 3.96802 0
M  V30 13091 H 1210.09 -0.522137 4.20773 0
M  V30 13092 C 1208.55 -1.44552 3.04313 0
M  V30 13093 O 1209.08 -2.54287 3.10967 0
M  V30 13094 N 1207.29 -1.3095 2.59423 0
M  V30 13095 H 1206.83 -0.416656 2.54208 0
M  V30 13096 H 1206.79 -2.13029 2.31227 0
M  V30 13097 N 1210.56 -1.39601 0.731392 0
M  V30 13098 C 1211.81 -1.99821 0.274661 0
M  V30 13099 C 1212.13 -1.58693 -1.1435 0
M  V30 13100 O 1213.33 -2.11724 -1.69957 0
M  V30 13101 C 1211.79 -3.57199 0.440124 0
M  V30 13102 C 1211.4 -4.07292 1.86594 0
M  V30 13103 C 1213.14 -4.24476 0.0449851 0
M  V30 13104 C 1211.05 -5.57229 1.98115 0
M  V30 13105 H 1209.98 -0.747481 0.0989383 0
M  V30 13106 H 1212.63 -1.59645 0.904755 0
M  V30 13107 H 1211.01 -3.95153 -0.25881 0
M  V30 13108 H 1212.18 -3.80679 2.59654 0
M  V30 13109 H 1210.5 -3.52665 2.21397 0
M  V30 13110 H 1213.1 -5.34587 0.110126 0
M  V30 13111 H 1213.44 -4.04129 -0.999269 0
M  V30 13112 H 1213.97 -3.91683 0.694942 0
M  V30 13113 H 1210.71 -5.82452 3.00716 0
M  V30 13114 H 1210.23 -5.85656 1.29487 0
M  V30 13115 H 1211.91 -6.22584 1.76063 0
M  V30 13116 N 1212.04 -0.478751 -1.50152 0
M  V30 13117 C 1213.27 0.0732929 -2.0727 0
M  V30 13118 C 1213.69 1.32066 -1.33941 0
M  V30 13119 O 1213.05 1.7707 -0.389367 0
M  V30 13120 C 1213.1 0.332528 -3.59064 0
M  V30 13121 O 1212.2 1.41158 -3.8749 0
M  V30 13122 H 1211.54 -0.0163684 -0.663798 0
M  V30 13123 H 1214.07 -0.671993 -1.9325 0
M  V30 13124 H 1214.08 0.570735 -4.03988 0
M  V30 13125 H 1212.76 -0.578934 -4.11851 0
M  V30 13126 H 1211.34 1.16008 -3.54396 0
M  V30 13127 N 1213.52 1.56172 -0.211661 0
M  V30 13128 C 1214.48 2.18602 0.688906 0
M  V30 13129 C 1215.48 1.14508 1.12892 0
M  V30 13130 O 1216.67 1.39799 1.03932 0
M  V30 13131 C 1213.81 2.80141 1.94253 0
M  V30 13132 H 1215 2.9955 0.144765 0
M  V30 13133 H 1212.55 1.56254 0.0379615 0
M  V30 13134 H 1213.29 2.03035 2.52878 0
M  V30 13135 H 1213.07 3.56358 1.63558 0
M  V30 13136 H 1214.56 3.28026 2.58436 0
M  V30 13137 N 1215 -0.0618163 1.57479 0
M  V30 13138 C 1216.41 -0.612461 1.76368 0
M  V30 13139 C 1216.76 -1.77381 0.838466 0
M  V30 13140 O 1215.89 -2.16386 0.0250211 0
M  V30 13141 C 1216.48 -1.11782 3.19829 0
M  V30 13142 C 1215.04 -1.61424 3.40028 0
M  V30 13143 C 1214.19 -0.53795 2.72032 0
M  V30 13144 H 1217.14 0.164382 1.57846 0
M  V30 13145 H 1217.16 -1.98634 3.24538 0
M  V30 13146 H 1216.67 -0.272353 3.87143 0
M  V30 13147 H 1214.77 -2.48263 2.77842 0
M  V30 13148 H 1214.88 -1.68431 4.48517 0
M  V30 13149 H 1213.25 -0.985355 2.34868 0
M  V30 13150 H 1214.03 0.297495 3.42009 0
M  V30 13151 N 1216.48 -1.54033 -0.333429 0
M  V30 13152 C 1217.43 -1.7911 -1.4108 0
M  V30 13153 C 1218.41 -0.646699 -1.47332 0
M  V30 13154 O 1219.6 -0.906403 -1.52031 0
M  V30 13155 C 1216.73 -2.01314 -2.78078 0
M  V30 13156 C 1215.82 -3.21849 -2.76178 0
M  V30 13157 N 1216.21 -4.43109 -2.43903 0
M  V30 13158 C 1214.51 -3.23222 -3.07316 0
M  V30 13159 C 1215.21 -5.25004 -2.5049 0
M  V30 13160 N 1214.18 -4.61955 -2.86528 0
M  V30 13161 H 1217.99 -2.7045 -1.15039 0
M  V30 13162 H 1215.5 -1.53094 -0.541854 0
M  V30 13163 H 1217.5 -2.17417 -3.55718 0
M  V30 13164 H 1216.16 -1.11223 -3.05057 0
M  V30 13165 H 1217.17 -4.70282 -2.16922 0
M  V30 13166 H 1213.84 -2.43132 -3.39401 0
M  V30 13167 H 1215.23 -6.31812 -2.28611 0
M  V30 13168 N 1217.95 0.594978 -1.45938 0
M  V30 13169 C 1218.86 1.73296 -1.58132 0
M  V30 13170 C 1219.88 1.67665 -0.465245 0
M  V30 13171 O 1221.06 1.87794 -0.727684 0
M  V30 13172 C 1218.12 3.09783 -1.55677 0
M  V30 13173 C 1217.18 3.26772 -2.78422 0
M  V30 13174 C 1216.42 4.56748 -2.76075 0
M  V30 13175 O 1216.64 5.39867 -1.84119 0
M  V30 13176 O 1215.57 4.76721 -3.67452 0
M  V30 13177 H 1219.4 1.65957 -2.54346 0
M  V30 13178 H 1216.98 0.760572 -1.28591 0
M  V30 13179 H 1218.87 3.91077 -1.56961 0
M  V30 13180 H 1217.54 3.17585 -0.626191 0
M  V30 13181 H 1216.45 2.45018 -2.82696 0
M  V30 13182 H 1217.78 3.23853 -3.70648 0
M  V30 13183 N 1219.43 1.33438 0.838571 0
M  V30 13184 C 1220.71 1.1551 1.5785 0
M  V30 13185 C 1221.09 -0.278405 2.09256 0
M  V30 13186 O 1220.44 -1.27748 1.89453 0
M  V30 13187 C 1220.65 2.19647 2.71212 0
M  V30 13188 C 1222 2.53818 3.40384 0
M  V30 13189 O 1223.02 2.18317 2.81454 0
M  V30 13190 O 1221.88 3.14741 4.46766 0
M  V30 13191 H 1218.97 0.446785 0.695925 0
M  V30 13192 H 1221.52 1.45021 0.8813 0
M  V30 13193 H 1220.29 3.15936 2.30869 0
M  V30 13194 H 1219.91 1.91224 3.48596 0
M  V30 13195 N 1220.91 -1.05686 1.16912 0
M  V30 13196 C 1222.16 -1.79006 0.965835 0
M  V30 13197 C 1222.51 -1.85774 -0.500593 0
M  V30 13198 O 1221.8 -1.34282 -1.3667 0
M  V30 13199 C 1222 -3.22779 1.53455 0
M  V30 13200 C 1221.83 -3.30023 3.05474 0
M  V30 13201 C 1220.6 -3.396 3.74166 0
M  V30 13202 C 1222.8 -3.19376 4.03117 0
M  V30 13203 N 1220.78 -3.35923 5.13838 0
M  V30 13204 C 1222.15 -3.23013 5.2921 0
M  V30 13205 C 1224.2 -3.03304 3.94856 0
M  V30 13206 C 1222.91 -3.12228 6.48002 0
M  V30 13207 C 1224.93 -2.93859 5.13226 0
M  V30 13208 C 1224.29 -2.98124 6.38202 0
M  V30 13209 H 1220.39 -0.667577 0.407266 0
M  V30 13210 H 1222.98 -1.26025 1.48411 0
M  V30 13211 H 1221.15 -3.74143 1.04268 0
M  V30 13212 H 1222.88 -3.8431 1.26839 0
M  V30 13213 H 1219.64 -3.44654 3.24824 0
M  V30 13214 H 1220.06 -3.37567 5.86837 0
M  V30 13215 H 1224.7 -2.98848 2.99081 0
M  V30 13216 H 1222.42 -3.15439 7.43992 0
M  V30 13217 H 1226.01 -2.82501 5.0861 0
M  V30 13218 H 1224.89 -2.90882 7.28256 0
M  V30 13219 N 1222.39 -0.968567 -1.24324 0
M  V30 13220 C 1223.8 -0.66964 -1.74278 0
M  V30 13221 C 1224.15 0.81461 -1.7849 0
M  V30 13222 O 1223.28 1.63736 -1.4149 0
M  V30 13223 C 1223.87 -1.20885 -3.165 0
M  V30 13224 C 1222.43 -0.959808 -3.63957 0
M  V30 13225 C 1221.58 -1.34365 -2.42573 0
M  V30 13226 H 1224.53 -1.14379 -1.10015 0
M  V30 13227 H 1224.55 -0.57555 -3.76122 0
M  V30 13228 H 1224.06 -2.28912 -3.13402 0
M  V30 13229 H 1222.16 0.104894 -3.72452 0
M  V30 13230 H 1222.27 -1.60606 -4.51378 0
M  V30 13231 H 1220.64 -0.762039 -2.43033 0
M  V30 13232 H 1221.42 -2.43343 -2.42155 0
M  V30 13233 N 1223.87 1.39211 -0.738786 0
M  V30 13234 C 1225.28 1.54116 -0.414773 0
M  V30 13235 C 1225.48 1.70497 1.07392 0
M  V30 13236 O 1224.54 1.7076 1.86003 0
M  V30 13237 C 1225.85 2.7567 -1.2011 0
M  V30 13238 C 1227.4 2.89508 -1.1897 0
M  V30 13239 C 1227.87 4.14005 -1.95868 0
M  V30 13240 N 1229.37 4.21052 -1.93053 0
M  V30 13241 C 1230.1 5.16341 -2.49358 0
M  V30 13242 N 1229.6 6.17396 -3.14316 0
M  V30 13243 N 1231.39 5.08585 -2.3937 0
M  V30 13244 H 1223.54 1.26827 -1.70378 0
M  V30 13245 H 1225.8 0.614983 -0.721457 0
M  V30 13246 H 1225.51 2.69922 -2.25467 0
M  V30 13247 H 1225.38 3.68443 -0.808065 0
M  V30 13248 H 1227.77 2.94747 -0.144248 0
M  V30 13249 H 1227.85 1.97788 -1.62214 0
M  V30 13250 H 1227.5 4.09527 -3.00416 0
M  V30 13251 H 1227.43 5.04776 -1.50028 0
M  V30 13252 H 1229.92 3.48669 -1.45733 0
M  V30 13253 H 1230.23 6.86572 -3.54737 0
M  V30 13254 H 1228.57 6.17772 -3.18407 0
M  V30 13255 H 1231.77 4.28573 -1.88262 0
M  V30 13256 H 1231.94 5.8267 -2.83549 0
M  V30 13257 N 1225.34 0.486708 1.49896 0
M  V30 13258 C 1226.59 -0.0549988 2.03326 0
M  V30 13259 C 1226.95 -1.35999 1.36096 0
M  V30 13260 O 1226.24 -1.85416 0.482845 0
M  V30 13261 C 1226.43 -0.278643 3.56312 0
M  V30 13262 C 1226.26 1.00312 4.38369 0
M  V30 13263 C 1225.03 1.55088 4.80912 0
M  V30 13264 C 1227.23 1.90266 4.77811 0
M  V30 13265 N 1225.21 2.78003 5.47346 0
M  V30 13266 C 1226.58 2.97764 5.43816 0
M  V30 13267 C 1228.64 1.91117 4.5976 0
M  V30 13268 C 1227.34 4.06122 5.93681 0
M  V30 13269 C 1229.37 2.9844 5.10576 0
M  V30 13270 C 1228.73 4.04657 5.76569 0
M  V30 13271 H 1224.83 0.0202961 0.781737 0
M  V30 13272 H 1227.41 0.65839 1.8323 0
M  V30 13273 H 1225.58 -0.961079 3.76321 0
M  V30 13274 H 1227.31 -0.816081 3.96386 0
M  V30 13275 H 1224.07 1.09794 4.60698 0
M  V30 13276 H 1224.49 3.40467 5.85159 0
M  V30 13277 H 1229.14 1.1031 4.08156 0
M  V30 13278 H 1226.85 4.87736 6.44313 0
M  V30 13279 H 1230.44 3.001 4.98429 0
M  V30 13280 H 1229.32 4.86336 6.15181 0
M  V30 13281 N 1226.82 -1.56058 0.219941 0
M  V30 13282 C 1227.77 -2.16853 -0.704185 0
M  V30 13283 C 1228.76 -1.11639 -1.15869 0
M  V30 13284 O 1229.95 -1.37632 -1.11295 0
M  V30 13285 C 1227.08 -2.85073 -1.9128 0
M  V30 13286 C 1226.16 -3.9751 -1.47805 0
M  V30 13287 N 1226.56 -5.00121 -0.755792 0
M  V30 13288 C 1224.85 -4.0957 -1.76546 0
M  V30 13289 C 1225.55 -5.79241 -0.534332 0
M  V30 13290 N 1224.53 -5.32549 -1.09055 0
M  V30 13291 H 1228.33 -2.93547 -0.143914 0
M  V30 13292 H 1225.85 -1.62386 0.021133 0
M  V30 13293 H 1227.84 -3.27037 -2.58558 0
M  V30 13294 H 1226.5 -2.09874 -2.47756 0
M  V30 13295 H 1227.51 -5.16285 -0.408647 0
M  V30 13296 H 1224.19 -3.45521 -2.34353 0
M  V30 13297 H 1225.58 -6.71888 0.0404032 0
M  V30 13298 N 1228.3 0.053464 -1.57509 0
M  V30 13299 C 1229.23 1.09391 -2.00272 0
M  V30 13300 C 1230.21 1.36553 -0.882727 0
M  V30 13301 O 1231.4 1.4962 -1.14657 0
M  V30 13302 C 1228.52 2.43424 -2.35505 0
M  V30 13303 C 1227.57 2.32278 -3.577 0
M  V30 13304 S 1228.4 1.69939 -5.0782 0
M  V30 13305 C 1229.56 3.05512 -5.46272 0
M  V30 13306 H 1229.79 0.729569 -2.88209 0
M  V30 13307 H 1227.32 0.262633 -1.5215 0
M  V30 13308 H 1229.28 3.20515 -2.56477 0
M  V30 13309 H 1227.94 2.77013 -1.48064 0
M  V30 13310 H 1227.14 3.31165 -3.79928 0
M  V30 13311 H 1226.74 1.63327 -3.36453 0
M  V30 13312 H 1229.03 4.0184 -5.45464 0
M  V30 13313 H 1229.97 2.88043 -6.46867 0
M  V30 13314 H 1230.38 3.06962 -4.73745 0
M  V30 13315 N 1229.78 1.54207 0.325255 0
M  V30 13316 C 1230.73 1.79856 1.40128 0
M  V30 13317 C 1231.71 0.654503 1.46987 0
M  V30 13318 O 1232.91 0.914453 1.51548 0
M  V30 13319 C 1230.03 2.02786 2.77007 0
M  V30 13320 C 1229.12 3.23309 2.74467 0
M  V30 13321 N 1229.51 4.44396 2.41549 0
M  V30 13322 C 1227.81 3.24848 3.05598 0
M  V30 13323 C 1228.51 5.26325 2.47703 0
M  V30 13324 N 1227.49 4.63468 2.84074 0
M  V30 13325 H 1231.29 2.71056 1.13603 0
M  V30 13326 H 1228.8 1.53379 0.533728 0
M  V30 13327 H 1230.8 2.19301 3.5456 0
M  V30 13328 H 1229.46 1.12839 3.04463 0
M  V30 13329 H 1230.47 4.71426 2.14425 0
M  V30 13330 H 1227.15 2.44929 3.38107 0
M  V30 13331 H 1228.54 6.33016 2.25257 0
M  V30 13332 N 1231.26 -0.58723 1.46251 0
M  V30 13333 C 1232.53 -1.34727 1.41802 0
M  V30 13334 C 1232.91 -2.10867 0.0991354 0
M  V30 13335 O 1232.26 -2.09194 -0.919242 0
M  V30 13336 C 1232.47 -2.27706 2.64482 0
M  V30 13337 C 1233.82 -2.89678 3.10438 0
M  V30 13338 O 1234.84 -2.38021 2.64999 0
M  V30 13339 O 1233.7 -3.83493 3.89352 0
M  V30 13340 H 1230.8 -0.605119 0.563702 0
M  V30 13341 H 1233.34 -0.608623 1.5841 0
M  V30 13342 H 1232.12 -1.70842 3.52035 0
M  V30 13343 H 1231.74 -3.08918 2.50311 0
M  V30 13344 N 1232.74 -1.33881 -0.831482 0
M  V30 13345 C 1233.98 -1.25755 -1.58719 0
M  V30 13346 C 1234.31 0.174746 -1.93713 0
M  V30 13347 O 1233.57 1.13384 -1.59507 0
M  V30 13348 C 1233.86 -2.08544 -2.90249 0
M  V30 13349 C 1233.53 -3.57651 -2.74585 0
M  V30 13350 C 1232.19 -3.983 -2.7002 0
M  V30 13351 C 1234.54 -4.52369 -2.58866 0
M  V30 13352 C 1231.87 -5.31872 -2.47647 0
M  V30 13353 C 1234.22 -5.86112 -2.38025 0
M  V30 13354 C 1232.89 -6.25934 -2.31867 0
M  V30 13355 H 1232.16 -0.460171 -0.580796 0
M  V30 13356 H 1234.81 -1.6554 -0.96274 0
M  V30 13357 H 1233.11 -1.6156 -3.56939 0
M  V30 13358 H 1234.81 -1.99609 -3.47789 0
M  V30 13359 H 1231.4 -3.2538 -2.78973 0
M  V30 13360 H 1235.58 -4.21868 -2.61421 0
M  V30 13361 H 1230.84 -5.61756 -2.41331 0
M  V30 13362 H 1235.01 -6.59103 -2.24847 0
M  V30 13363 H 1232.64 -7.29372 -2.14291 0
M  V30 13364 N 1234.21 1.05064 -1.1747 0
M  V30 13365 C 1235.46 1.78089 -0.963883 0
M  V30 13366 C 1235.79 1.87766 0.507365 0
M  V30 13367 O 1235.04 1.37477 1.39279 0
M  V30 13368 C 1235.34 3.21961 -1.55164 0
M  V30 13369 C 1235.01 3.32339 -3.04732 0
M  V30 13370 C 1233.67 3.34878 -3.45557 0
M  V30 13371 C 1236.02 3.3325 -4.00741 0
M  V30 13372 C 1233.35 3.35959 -4.80987 0
M  V30 13373 C 1235.7 3.3587 -5.36073 0
M  V30 13374 C 1234.37 3.36697 -5.7636 0
M  V30 13375 H 1233.64 0.651672 -0.35271 0
M  V30 13376 H 1236.28 1.23471 -1.4638 0
M  V30 13377 H 1234.59 3.79514 -0.973471 0
M  V30 13378 H 1236.29 3.77087 -1.36406 0
M  V30 13379 H 1232.88 3.31076 -2.72188 0
M  V30 13380 H 1237.06 3.30488 -3.70258 0
M  V30 13381 H 1232.32 3.34911 -5.11512 0
M  V30 13382 H 1236.49 3.35524 -6.10243 0
M  V30 13383 H 1234.12 3.37288 -6.81279 0
M  V30 13384 N 1235.69 0.975146 1.23809 0
M  V30 13385 C 1236.64 0.482305 2.2284 0
M  V30 13386 C 1237.63 -0.439787 1.54773 0
M  V30 13387 O 1238.82 -0.269496 1.74936 0
M  V30 13388 C 1235.95 -0.219056 3.426 0
M  V30 13389 C 1235.03 0.722299 4.17904 0
M  V30 13390 N 1235.42 1.86271 4.70252 0
M  V30 13391 C 1233.72 0.53457 4.42785 0
M  V30 13392 C 1234.42 2.45212 5.2749 0
M  V30 13393 N 1233.4 1.73652 5.15117 0
M  V30 13394 H 1237.2 1.35234 2.60939 0
M  V30 13395 H 1234.71 0.835162 1.3928 0
M  V30 13396 H 1236.71 -0.589401 4.12713 0
M  V30 13397 H 1235.37 -1.08544 3.0602 0
M  V30 13398 H 1236.38 2.24404 4.66758 0
M  V30 13399 H 1233.06 -0.287232 4.16511 0
M  V30 13400 H 1234.45 3.41491 5.78648 0
M  V30 13401 N 1237.17 -1.38817 0.746158 0
M  V30 13402 C 1238.39 -2.05096 0.308302 0
M  V30 13403 C 1238.82 -1.55902 -1.05244 0
M  V30 13404 O 1238.18 -0.707685 -1.66918 0
M  V30 13405 C 1238.23 -3.59068 0.332016 0
M  V30 13406 O 1237.33 -4.06813 -0.676547 0
M  V30 13407 H 1236.67 -0.649523 0.1379 0
M  V30 13408 H 1239.2 -1.77637 1.0152 0
M  V30 13409 H 1239.21 -4.07601 0.180293 0
M  V30 13410 H 1237.89 -3.94234 1.32487 0
M  V30 13411 H 1236.46 -3.69666 -0.490046 0
M  V30 13412 N 1238.65 -0.49465 -1.49636 0
M  V30 13413 C 1239.89 0.0521172 -2.02433 0
M  V30 13414 C 1240.22 1.37579 -1.37485 0
M  V30 13415 O 1239.48 1.8927 -0.497538 0
M  V30 13416 C 1239.78 0.259743 -3.56455 0
M  V30 13417 C 1239.44 -0.985143 -4.40007 0
M  V30 13418 C 1238.1 -1.3264 -4.62558 0
M  V30 13419 C 1240.46 -1.81291 -4.88654 0
M  V30 13420 C 1237.78 -2.49506 -5.31003 0
M  V30 13421 C 1240.14 -2.97305 -5.58384 0
M  V30 13422 C 1238.8 -3.31818 -5.79183 0
M  V30 13423 H 1238.07 0.0190711 -0.740755 0
M  V30 13424 H 1240.72 -0.653519 -1.80004 0
M  V30 13425 H 1239.02 1.04785 -3.77528 0
M  V30 13426 H 1240.72 0.697146 -3.94893 0
M  V30 13427 H 1237.31 -0.709313 -4.2269 0
M  V30 13428 H 1241.49 -1.56242 -4.71065 0
M  V30 13429 H 1236.75 -2.76491 -5.4531 0
M  V30 13430 H 1240.92 -3.61777 -5.95055 0
M  V30 13431 H 1238.55 -4.22478 -6.31994 0
M  V30 13432 N 1240.13 1.55939 -0.228214 0
M  V30 13433 C 1241.06 2.2357 0.6737 0
M  V30 13434 C 1242.04 1.20964 1.1959 0
M  V30 13435 O 1243.22 1.49568 1.23867 0
M  V30 13436 C 1240.35 2.92076 1.87906 0
M  V30 13437 C 1239.31 4.01211 1.49043 0
M  V30 13438 C 1238.63 4.57047 2.77511 0
M  V30 13439 C 1239.93 5.17914 0.67544 0
M  V30 13440 H 1241.63 2.99199 0.109806 0
M  V30 13441 H 1239.17 1.43908 0.0513732 0
M  V30 13442 H 1241.12 3.38083 2.51551 0
M  V30 13443 H 1239.85 2.13906 2.46803 0
M  V30 13444 H 1238.51 3.55945 0.877411 0
M  V30 13445 H 1238.16 3.75599 3.34566 0
M  V30 13446 H 1237.86 5.30707 2.52239 0
M  V30 13447 H 1239.38 5.05776 3.42087 0
M  V30 13448 H 1240.79 5.60261 1.21575 0
M  V30 13449 H 1239.19 5.97847 0.519536 0
M  V30 13450 H 1240.26 4.83866 -0.316495 0
M  V30 13451 N 1241.6 -0.0451101 1.57535 0
M  V30 13452 C 1242.85 -0.738072 1.87711 0
M  V30 13453 C 1243.17 -1.7737 0.824579 0
M  V30 13454 O 1244.37 -2.51812 1.01503 0
M  V30 13455 C 1242.83 -1.36373 3.33062 0
M  V30 13456 C 1242.44 -0.365283 4.46508 0
M  V30 13457 C 1244.18 -2.0375 3.72406 0
M  V30 13458 C 1242.09 -0.998371 5.82912 0
M  V30 13459 H 1241.02 -0.279413 0.700317 0
M  V30 13460 H 1243.67 0.00802425 1.83498 0
M  V30 13461 H 1242.05 -2.15899 3.31969 0
M  V30 13462 H 1243.22 0.402102 4.59042 0
M  V30 13463 H 1241.54 0.205505 4.15893 0
M  V30 13464 H 1244.14 -2.51939 4.71625 0
M  V30 13465 H 1244.48 -2.84869 3.03571 0
M  V30 13466 H 1245.01 -1.3102 3.75604 0
M  V30 13467 H 1241.75 -0.226935 6.55107 0
M  V30 13468 H 1241.27 -1.73598 5.74129 0
M  V30 13469 H 1242.95 -1.51044 6.29122 0
M  V30 13470 N 1243.08 -1.54377 -0.317073 0
M  V30 13471 C 1244.33 -1.73149 -1.05581 0
M  V30 13472 C 1244.66 -0.507176 -1.8746 0
M  V30 13473 O 1243.94 0.495837 -1.88074 0
M  V30 13474 C 1244.22 -3.01098 -1.97515 0
M  V30 13475 C 1244.07 -4.33794 -1.18922 0
M  V30 13476 C 1245.39 -3.24831 -2.9694 0
M  V30 13477 H 1242.51 -0.630011 -0.382434 0
M  V30 13478 H 1245.15 -1.87079 -0.331873 0
M  V30 13479 H 1243.3 -2.89352 -2.59244 0
M  V30 13480 H 1244.97 -4.57433 -0.596039 0
M  V30 13481 H 1243.22 -4.31005 -0.491612 0
M  V30 13482 H 1243.89 -5.19554 -1.86462 0
M  V30 13483 H 1246.36 -3.3608 -2.45335 0
M  V30 13484 H 1245.24 -4.15702 -3.58445 0
M  V30 13485 H 1245.5 -2.42365 -3.69745 0
M  V30 13486 N 1244.56 0.579466 -1.4656 0
M  V30 13487 C 1245.81 1.33756 -1.52038 0
M  V30 13488 C 1246.14 1.93725 -0.173423 0
M  V30 13489 O 1245.39 1.77167 0.831293 0
M  V30 13490 C 1245.69 2.48417 -2.56951 0
M  V30 13491 C 1245.36 2.0642 -4.00876 0
M  V30 13492 C 1244.02 1.94682 -4.4006 0
M  V30 13493 C 1246.37 1.74066 -4.91274 0
M  V30 13494 C 1243.7 1.48852 -5.67503 0
M  V30 13495 C 1246.05 1.29714 -6.19158 0
M  V30 13496 C 1244.71 1.16555 -6.57245 0
M  V30 13497 H 1243.98 0.489447 -0.556347 0
M  V30 13498 H 1246.63 0.652176 -1.80053 0
M  V30 13499 H 1244.94 3.22416 -2.2261 0
M  V30 13500 H 1246.63 3.06629 -2.58418 0
M  V30 13501 H 1243.22 2.16492 -3.69904 0
M  V30 13502 H 1247.41 1.82019 -4.61717 0
M  V30 13503 H 1242.66 1.3731 -5.95782 0
M  V30 13504 H 1246.84 1.03734 -6.88631 0
M  V30 13505 H 1244.46 0.808193 -7.55892 0
M  V30 13506 N 1246.04 1.3432 0.824371 0
M  V30 13507 C 1247.45 1.1397 1.11727 0
M  V30 13508 C 1247.65 -0.0597597 2.01411 0
M  V30 13509 O 1246.71 -0.735717 2.41544 0
M  V30 13510 C 1248.02 2.43423 1.76538 0
M  V30 13511 C 1249.57 2.49466 1.89039 0
M  V30 13512 C 1250.05 3.78917 2.57266 0
M  V30 13513 N 1251.54 3.8007 2.64767 0
M  V30 13514 C 1252.27 4.76953 3.18282 0
M  V30 13515 N 1251.77 5.84217 3.72373 0
M  V30 13516 N 1253.56 4.6441 3.1667 0
M  V30 13517 H 1245.71 2.11175 0.227802 0
M  V30 13518 H 1247.98 0.933774 0.163615 0
M  V30 13519 H 1247.68 3.31278 1.18102 0
M  V30 13520 H 1247.56 2.56655 2.7642 0
M  V30 13521 H 1249.94 1.62052 2.46623 0
M  V30 13522 H 1250.02 2.40163 0.880635 0
M  V30 13523 H 1249.67 4.6672 2.00336 0
M  V30 13524 H 1249.6 3.85502 3.58742 0
M  V30 13525 H 1252.09 3.02556 2.26425 0
M  V30 13526 H 1252.4 6.54159 4.11455 0
M  V30 13527 H 1250.75 5.87933 3.70621 0
M  V30 13528 H 1253.94 3.7976 2.73678 0
M  V30 13529 H 1254.11 5.40081 3.58073 0
M  V30 13530 N 1247.52 -1.0444 1.18026 0
M  V30 13531 C 1248.77 -1.7697 0.9677 0
M  V30 13532 C 1249.08 -1.88995 -0.503994 0
M  V30 13533 O 1250.28 -2.58342 -0.834968 0
M  V30 13534 C 1248.74 -3.1816 1.68232 0
M  V30 13535 C 1248.35 -3.14241 3.19307 0
M  V30 13536 C 1250.09 -3.95095 1.55244 0
M  V30 13537 C 1248 -4.50266 3.83425 0
M  V30 13538 H 1246.93 -0.663355 0.358436 0
M  V30 13539 H 1249.58 -1.17003 1.4136 0
M  V30 13540 H 1247.96 -3.78501 1.16418 0
M  V30 13541 H 1249.14 -2.63373 3.78115 0
M  V30 13542 H 1247.45 -2.50805 3.32394 0
M  V30 13543 H 1250.05 -4.95681 2.00511 0
M  V30 13544 H 1250.39 -4.13236 0.504125 0
M  V30 13545 H 1250.92 -3.4132 2.04317 0
M  V30 13546 H 1247.66 -4.37329 4.88286 0
M  V30 13547 H 1247.18 -5.01251 3.29404 0
M  V30 13548 H 1248.86 -5.1919 3.86071 0
M  V30 13549 N 1248.99 -0.981699 -1.2329 0
M  V30 13550 C 1249.92 -0.542441 -2.27112 0
M  V30 13551 C 1250.91 0.425034 -1.64704 0
M  V30 13552 O 1252.09 0.318114 -1.91577 0
M  V30 13553 C 1249.22 0.154668 -3.46955 0
M  V30 13554 C 1248.17 -0.73022 -4.21725 0
M  V30 13555 C 1247.5 0.0991766 -5.34608 0
M  V30 13556 C 1248.8 -2.02166 -4.81587 0
M  V30 13557 H 1250.49 -1.41024 -2.64107 0
M  V30 13558 H 1248.04 -0.679544 -1.26957 0
M  V30 13559 H 1249.99 0.473281 -4.18734 0
M  V30 13560 H 1248.72 1.05693 -3.09025 0
M  V30 13561 H 1247.38 -1.03231 -3.51765 0
M  V30 13562 H 1247.02 1.00201 -4.92919 0
M  V30 13563 H 1246.72 -0.489788 -5.85555 0
M  V30 13564 H 1248.25 0.412141 -6.09207 0
M  V30 13565 H 1249.66 -1.76773 -5.45366 0
M  V30 13566 H 1248.06 -2.55851 -5.42826 0
M  V30 13567 H 1249.13 -2.70766 -4.02261 0
M  V30 13568 N 1250.47 1.3842 -0.753509 0
M  V30 13569 C 1251.71 2.01965 -0.314558 0
M  V30 13570 C 1252.08 1.58519 1.08331 0
M  V30 13571 O 1253.28 2.14395 1.62137 0
M  V30 13572 C 1251.55 3.54765 -0.433199 0
M  V30 13573 S 1253.11 4.38733 -0.0768176 0
M  V30 13574 H 1249.93 0.700447 -0.122045 0
M  V30 13575 H 1252.53 1.68925 -0.98411 0
M  V30 13576 H 1251.23 3.83874 -1.45152 0
M  V30 13577 H 1250.76 3.92582 0.253539 0
M  V30 13578 H 1252.78 4.83077 1.13361 0
M  V30 13579 N 1251.95 0.502579 1.49372 0
M  V30 13580 C 1253.2 -0.0412993 2.02058 0
M  V30 13581 C 1253.52 -1.37338 1.38431 0
M  V30 13582 O 1252.79 -1.88305 0.540175 0
M  V30 13583 H 1251.37 -0.0182522 0.746777 0
M  V30 13584 H 1254.03 0.660179 1.83378 0
M  V30 13585 H 1253.13 -0.169812 3.11638 0
M  V30 13586 N 1253.43 -1.55816 0.23648 0
M  V30 13587 C 1254.34 -2.24576 -0.678439 0
M  V30 13588 C 1255.35 -1.25836 -1.20172 0
M  V30 13589 O 1256.53 -1.58686 -1.24019 0
M  V30 13590 C 1253.6 -2.92376 -1.86325 0
M  V30 13591 C 1252.66 -4.06499 -1.38047 0
M  V30 13592 C 1251.89 -4.71057 -2.50881 0
M  V30 13593 O 1252.11 -4.34652 -3.69369 0
M  V30 13594 O 1251.05 -5.59768 -2.21232 0
M  V30 13595 H 1254.87 -3.03452 -0.122601 0
M  V30 13596 H 1252.46 -1.49399 0.00540803 0
M  V30 13597 H 1254.34 -3.35117 -2.55488 0
M  V30 13598 H 1253.01 -2.16448 -2.40691 0
M  V30 13599 H 1251.92 -3.68296 -0.656422 0
M  V30 13600 H 1253.25 -4.84214 -0.883024 0
M  V30 13601 N 1254.91 0.036755 -1.57557 0
M  V30 13602 C 1256.15 0.72475 -1.9005 0
M  V30 13603 C 1256.51 1.73374 -0.834226 0
M  V30 13604 O 1255.8 1.90948 0.157943 0
M  V30 13605 C 1255.99 1.44206 -3.27016 0
M  V30 13606 C 1255.82 0.504059 -4.46866 0
M  V30 13607 C 1254.59 0.127948 -5.05138 0
M  V30 13608 C 1256.79 -0.214278 -5.13853 0
M  V30 13609 N 1254.77 -0.812111 -6.08505 0
M  V30 13610 C 1256.14 -1.01027 -6.11714 0
M  V30 13611 C 1258.2 -0.28204 -4.97101 0
M  V30 13612 C 1256.9 -1.86778 -6.94627 0
M  V30 13613 C 1258.93 -1.12664 -5.80569 0
M  V30 13614 C 1258.29 -1.91058 -6.77994 0
M  V30 13615 H 1254.39 0.239542 -0.744408 0
M  V30 13616 H 1256.97 -0.0149454 -1.94694 0
M  V30 13617 H 1255.14 2.15226 -3.23314 0
M  V30 13618 H 1256.88 2.08183 -3.47047 0
M  V30 13619 H 1253.63 0.488471 -4.71074 0
M  V30 13620 H 1254.06 -1.27642 -6.64858 0
M  V30 13621 H 1258.7 0.309735 -4.21664 0
M  V30 13622 H 1256.42 -2.47038 -7.69414 0
M  V30 13623 H 1260 -1.18251 -5.69656 0
M  V30 13624 H 1258.88 -2.55358 -7.41459 0
M  V30 13625 N 1256.39 1.54543 0.308881 0
M  V30 13626 C 1257.63 1.7266 1.04266 0
M  V30 13627 C 1257.95 0.51518 1.88694 0
M  V30 13628 O 1259.15 0.577988 2.65276 0
M  V30 13629 C 1257.61 3.05448 1.9034 0
M  V30 13630 C 1257.22 4.34043 1.10953 0
M  V30 13631 C 1258.96 3.32925 2.63365 0
M  V30 13632 C 1256.87 5.57886 1.96258 0
M  V30 13633 H 1255.8 0.643485 0.392992 0
M  V30 13634 H 1258.45 1.8103 0.300077 0
M  V30 13635 H 1256.83 2.91023 2.68555 0
M  V30 13636 H 1258.01 4.59279 0.374069 0
M  V30 13637 H 1256.32 4.13442 0.495453 0
M  V30 13638 H 1258.92 4.22649 3.27524 0
M  V30 13639 H 1259.26 2.51451 3.3178 0
M  V30 13640 H 1259.79 3.48285 1.92204 0
M  V30 13641 H 1256.53 6.42005 1.32326 0
M  V30 13642 H 1256.05 5.36847 2.67498 0
M  V30 13643 H 1257.73 5.94846 2.54494 0
M  V30 13644 N 1257.86 -0.571685 1.46866 0
M  V30 13645 C 1258.77 -1.70758 1.60869 0
M  V30 13646 C 1259.79 -1.66903 0.49186 0
M  V30 13647 O 1260.97 -1.86613 0.757468 0
M  V30 13648 C 1258.03 -3.07267 1.60586 0
M  V30 13649 C 1257.09 -3.22301 2.83585 0
M  V30 13650 C 1256.32 -4.52298 2.83306 0
M  V30 13651 O 1256.55 -5.36869 1.92685 0
M  V30 13652 O 1255.48 -4.70814 3.7499 0
M  V30 13653 H 1259.31 -1.6189 2.56954 0
M  V30 13654 H 1256.89 -0.740018 1.29785 0
M  V30 13655 H 1258.77 -3.8853 1.63163 0
M  V30 13656 H 1257.45 -3.16549 0.676637 0
M  V30 13657 H 1256.36 -2.4049 2.86558 0
M  V30 13658 H 1257.69 -3.17916 3.75753 0
M  V30 13659 N 1259.34 -1.34755 -0.817236 0
M  V30 13660 C 1260.29 -1.26816 -1.94988 0
M  V30 13661 C 1261.28 -0.165142 -1.68593 0
M  V30 13662 O 1262.49 -0.330469 -1.7694 0
M  V30 13663 H 1258.86 -0.394113 -0.640452 0
M  V30 13664 H 1260.84 -2.22528 -1.98806 0
M  V30 13665 C 1259.58 -1.04625 -3.31586 0
M  V30 13666 H 1258.91 -1.88735 -3.52447 0
M  V30 13667 H 1260.35 -1.03108 -4.11272 0
M  V30 13668 C 1258.81 0.250283 -3.35969 0
M  V30 13669 O 1259.34 1.24972 -3.81765 0
M  V30 13670 N 1257.54 0.285369 -2.89195 0
M  V30 13671 H 1257.09 -0.528528 -2.5212 0
M  V30 13672 H 1257.05 1.15261 -2.9251 0
M  V30 13673 N 1260.82 1.03812 -1.18578 0
M  V30 13674 C 1261.75 2.11436 -0.858502 0
M  V30 13675 C 1262.73 1.61594 0.180604 0
M  V30 13676 O 1263.91 1.88408 0.058995 0
M  V30 13677 C 1261.04 3.37514 -0.283154 0
M  V30 13678 C 1260.09 4.0621 -1.29985 0
M  V30 13679 S 1260.92 4.52936 -2.85673 0
M  V30 13680 C 1262.08 5.82245 -2.29656 0
M  V30 13681 H 1262.31 2.38871 -1.76997 0
M  V30 13682 H 1259.84 1.16617 -1.01192 0
M  V30 13683 H 1261.8 4.10478 0.0422898 0
M  V30 13684 H 1260.46 3.08189 0.60647 0
M  V30 13685 H 1259.65 4.96845 -0.84621 0
M  V30 13686 H 1259.26 3.39374 -1.57166 0
M  V30 13687 H 1261.55 6.56321 -1.68074 0
M  V30 13688 H 1262.49 6.32375 -3.18602 0
M  V30 13689 H 1262.9 5.37472 -1.72581 0
M  V30 13690 N 1262.3 0.988223 1.22768 0
M  V30 13691 C 1263.54 0.672085 1.91975 0
M  V30 13692 C 1263.9 -0.786719 1.7558 0
M  V30 13693 O 1263.19 -1.561 1.111 0
M  V30 13694 C 1263.39 1.00744 3.42907 0
M  V30 13695 C 1263.21 2.4973 3.73985 0
M  V30 13696 C 1261.98 3.16058 3.94253 0
M  V30 13697 C 1264.18 3.47831 3.78838 0
M  V30 13698 N 1262.16 4.54568 4.12603 0
M  V30 13699 C 1263.54 4.7178 4.02273 0
M  V30 13700 C 1265.59 3.42203 3.61665 0
M  V30 13701 C 1264.29 5.90789 4.10318 0
M  V30 13702 C 1266.32 4.60584 3.70967 0
M  V30 13703 C 1265.68 5.83331 3.94847 0
M  V30 13704 H 1261.78 0.297129 0.723352 0
M  V30 13705 H 1264.36 1.26728 1.47811 0
M  V30 13706 H 1262.54 0.440869 3.8589 0
M  V30 13707 H 1264.27 0.647774 3.99482 0
M  V30 13708 H 1261.02 2.66536 3.91479 0
M  V30 13709 H 1261.45 5.26399 4.25715 0
M  V30 13710 H 1266.09 2.48323 3.42193 0
M  V30 13711 H 1263.81 6.85078 4.28596 0
M  V30 13712 H 1267.39 4.57813 3.59024 0
M  V30 13713 H 1266.27 6.73403 4.01868 0
M  V30 13714 N 1263.78 -1.38018 0.760839 0
M  V30 13715 C 1264.74 -2.28734 0.146154 0
M  V30 13716 C 1265.74 -1.47525 -0.639768 0
M  V30 13717 O 1266.93 -1.6788 -0.464964 0
M  V30 13718 C 1264.06 -3.31356 -0.801019 0
M  V30 13719 H 1265.25 -2.84599 0.945692 0
M  V30 13720 H 1262.81 -1.471 0.528323 0
M  V30 13721 H 1263.54 -2.80594 -1.62597 0
M  V30 13722 H 1263.33 -3.91366 -0.239775 0
M  V30 13723 H 1264.82 -3.99171 -1.22687 0
M  V30 13724 N 1265.25 -0.510493 -1.49103 0
M  V30 13725 C 1266.49 0.0288873 -2.0438 0
M  V30 13726 C 1266.86 1.334 -1.38088 0
M  V30 13727 O 1268.06 1.95821 -1.8414 0
M  V30 13728 C 1266.33 0.168392 -3.57003 0
M  V30 13729 S 1267.89 0.660651 -4.33798 0
M  V30 13730 H 1264.71 -0.00274928 -0.710995 0
M  V30 13731 H 1267.31 -0.686622 -1.83046 0
M  V30 13732 H 1266.01 -0.786627 -4.02791 0
M  V30 13733 H 1265.54 0.908861 -3.82757 0
M  V30 13734 H 1267.56 1.92833 -4.57198 0
M  V30 13735 N 1266.73 1.55688 -0.24474 0
M  V30 13736 C 1267.66 2.17317 0.696311 0
M  V30 13737 C 1268.64 1.12456 1.17441 0
M  V30 13738 O 1269.83 1.40832 1.25294 0
M  V30 13739 C 1266.95 2.77211 1.94606 0
M  V30 13740 C 1266 3.95107 1.60602 0
M  V30 13741 S 1266.83 5.30765 0.710525 0
M  V30 13742 C 1267.99 5.94111 1.96933 0
M  V30 13743 H 1268.22 2.96799 0.172566 0
M  V30 13744 H 1265.75 1.54372 -0.0292155 0
M  V30 13745 H 1267.71 3.12355 2.66354 0
M  V30 13746 H 1266.37 1.9768 2.44093 0
M  V30 13747 H 1265.57 4.35598 2.53517 0
M  V30 13748 H 1265.17 3.61229 0.968986 0
M  V30 13749 H 1267.46 6.11496 2.91682 0
M  V30 13750 H 1268.4 6.89602 1.60794 0
M  V30 13751 H 1268.81 5.23161 2.12043 0
M  V30 13752 N 1268.21 -0.0283989 1.57574 0
M  V30 13753 C 1269.12 -1.04575 2.10003 0
M  V30 13754 C 1270.14 -1.39588 1.03881 0
M  V30 13755 O 1271.31 -1.48894 1.35619 0
M  V30 13756 C 1268.38 -2.32755 2.56955 0
M  V30 13757 C 1267.44 -2.04317 3.77562 0
M  V30 13758 C 1266.67 -3.26385 4.22266 0
M  V30 13759 O 1266.89 -4.37082 3.66491 0
M  V30 13760 O 1265.83 -3.12046 5.14695 0
M  V30 13761 H 1269.65 -0.630183 2.9709 0
M  V30 13762 H 1267.24 -0.245423 1.4737 0
M  V30 13763 H 1269.12 -3.08111 2.87482 0
M  V30 13764 H 1267.8 -2.73605 1.72979 0
M  V30 13765 H 1266.7 -1.26527 3.52054 0
M  V30 13766 H 1268.04 -1.68321 4.62524 0
M  V30 13767 N 1269.69 -1.54705 -0.300681 0
M  V30 13768 C 1270.93 -1.74259 -1.03738 0
M  V30 13769 C 1271.27 -0.52703 -1.86912 0
M  V30 13770 O 1270.54 0.475862 -1.88589 0
M  V30 13771 C 1270.82 -3.03175 -1.94311 0
M  V30 13772 C 1270.68 -4.35031 -1.14315 0
M  V30 13773 C 1272 -3.27962 -2.93478 0
M  V30 13774 H 1269.12 -0.634031 -0.37573 0
M  V30 13775 H 1271.76 -1.87421 -0.312012 0
M  V30 13776 H 1269.91 -2.92086 -2.5616 0
M  V30 13777 H 1271.58 -4.5804 -0.547489 0
M  V30 13778 H 1269.82 -4.31503 -0.44587 0
M  V30 13779 H 1270.49 -5.21502 -1.80941 0
M  V30 13780 H 1272.97 -3.38663 -2.41757 0
M  V30 13781 H 1271.85 -4.19481 -3.54016 0
M  V30 13782 H 1272.11 -2.46273 -3.67154 0
M  V30 13783 N 1271.17 0.563888 -1.47167 0
M  V30 13784 C 1272.41 1.31875 -1.53145 0
M  V30 13785 C 1272.74 1.94047 -0.192518 0
M  V30 13786 O 1272.01 1.79577 0.782872 0
M  V30 13787 H 1270.59 0.489694 -0.5641 0
M  V30 13788 H 1273.25 0.658976 -1.83422 0
M  V30 13789 H 1272.34 2.11574 -2.2944 0
M  V30 13790 N 1272.64 1.35187 0.810078 0
M  V30 13791 C 1273.58 1.23673 1.92971 0
M  V30 13792 C 1274.59 0.160819 1.62004 0
M  V30 13793 O 1275.78 0.413793 1.73638 0
M  V30 13794 C 1272.88 0.880887 3.27252 0
M  V30 13795 C 1272.05 2.05444 3.86149 0
M  V30 13796 C 1271.11 1.67494 4.98831 0
M  V30 13797 O 1270.14 2.39322 5.16443 0
M  V30 13798 N 1271.34 0.596539 5.77427 0
M  V30 13799 H 1274.1 2.20133 2.03376 0
M  V30 13800 H 1271.66 1.2831 0.987322 0
M  V30 13801 H 1273.66 0.608556 4.00098 0
M  V30 13802 H 1272.23 0.00607926 3.12599 0
M  V30 13803 H 1271.45 2.49077 3.05539 0
M  V30 13804 H 1272.73 2.83898 4.22231 0
M  V30 13805 H 1272.13 -0.000312591 5.657 0
M  V30 13806 H 1270.69 0.383979 6.50668 0
M  V30 13807 N 1274.12 -1.03182 1.19127 0
M  V30 13808 C 1275.07 -2.11394 0.926339 0
M  V30 13809 C 1276.04 -1.65528 -0.137703 0
M  V30 13810 O 1277.22 -1.908 0.00381804 0
M  V30 13811 C 1274.36 -3.41913 0.467894 0
M  V30 13812 C 1273.48 -4.01343 1.59837 0
M  V30 13813 C 1272.61 -5.1986 1.09175 0
M  V30 13814 C 1271.65 -5.71339 2.19632 0
M  V30 13815 N 1270.79 -6.81133 1.703 0
M  V30 13816 H 1275.63 -2.33393 1.85288 0
M  V30 13817 H 1273.17 -1.14473 0.923811 0
M  V30 13818 H 1275.12 -4.16796 0.183513 0
M  V30 13819 H 1273.75 -3.20034 -0.421656 0
M  V30 13820 H 1272.81 -3.23702 1.99803 0
M  V30 13821 H 1274.12 -4.35568 2.43068 0
M  V30 13822 H 1273.27 -6.0189 0.762427 0
M  V30 13823 H 1272.01 -4.87161 0.22914 0
M  V30 13824 H 1271.02 -4.87923 2.53399 0
M  V30 13825 H 1272.24 -6.06078 3.06344 0
M  V30 13826 H 1270.19 -6.50293 0.863415 0
M  V30 13827 H 1270.1 -7.1447 2.47122 0
M  V30 13828 H 1271.37 -7.66766 1.40321 0
M  V30 13829 N 1275.6 -0.99472 -1.22242 0
M  V30 13830 C 1276.83 -0.689809 -1.95592 0
M  V30 13831 C 1277.25 0.739321 -1.72961 0
M  V30 13832 O 1276.61 1.50563 -1.00997 0
M  V30 13833 C 1276.66 -1.00367 -3.46351 0
M  V30 13834 O 1275.76 -0.103326 -4.12271 0
M  V30 13835 H 1275.1 -0.257997 -0.611828 0
M  V30 13836 H 1277.63 -1.33219 -1.55286 0
M  V30 13837 H 1277.64 -0.946259 -3.96875 0
M  V30 13838 H 1276.32 -2.04504 -3.62148 0
M  V30 13839 H 1274.89 -0.216374 -3.72272 0
M  V30 13840 N 1277.08 1.37613 -0.768148 0
M  V30 13841 C 1278.33 1.99023 -0.327543 0
M  V30 13842 C 1278.64 1.61669 1.10103 0
M  V30 13843 O 1279.85 2.16155 1.64284 0
M  V30 13844 C 1278.3 3.55906 -0.534674 0
M  V30 13845 C 1277.91 4.02201 -1.97327 0
M  V30 13846 C 1279.65 4.24208 -0.157512 0
M  V30 13847 C 1277.56 5.51781 -2.12819 0
M  V30 13848 H 1276.49 0.744595 -0.118722 0
M  V30 13849 H 1279.14 1.5719 -0.946764 0
M  V30 13850 H 1277.52 3.95701 0.153951 0
M  V30 13851 H 1278.7 3.73661 -2.69655 0
M  V30 13852 H 1277.01 3.46671 -2.30669 0
M  V30 13853 H 1279.61 5.34107 -0.251824 0
M  V30 13854 H 1279.95 4.06636 0.89177 0
M  V30 13855 H 1280.49 3.89703 -0.798546 0
M  V30 13856 H 1277.23 5.74274 -3.16053 0
M  V30 13857 H 1276.75 5.82017 -1.4497 0
M  V30 13858 H 1278.42 6.17697 -1.92508 0
M  V30 13859 N 1278.56 0.518393 1.4883 0
M  V30 13860 C 1279.8 -0.0180482 2.04392 0
M  V30 13861 C 1280.16 -1.32666 1.38794 0
M  V30 13862 O 1281.36 -1.94842 1.85176 0
M  V30 13863 C 1279.63 -0.149457 3.57087 0
M  V30 13864 S 1281.19 -0.637636 4.34142 0
M  V30 13865 H 1278.01 0.00651981 0.71097 0
M  V30 13866 H 1280.61 0.69632 1.82679 0
M  V30 13867 H 1279.32 0.807977 4.02368 0
M  V30 13868 H 1278.85 -0.888549 3.83234 0
M  V30 13869 H 1280.86 -1.90406 4.58214 0
M  V30 13870 N 1280.03 -1.55556 0.252993 0
M  V30 13871 C 1280.96 -2.24613 -0.638047 0
M  V30 13872 C 1281.95 -1.22852 -1.1765 0
M  V30 13873 O 1283.13 -1.51519 -1.21472 0
M  V30 13874 C 1280.26 -2.95029 -1.83236 0
M  V30 13875 C 1279.21 -4.03531 -1.42641 0
M  V30 13876 C 1278.54 -4.61404 -2.70204 0
M  V30 13877 C 1279.84 -5.18923 -0.592958 0
M  V30 13878 H 1281.53 -2.99335 -0.0621918 0
M  V30 13879 H 1279.08 -1.43972 -0.0284722 0
M  V30 13880 H 1281.03 -3.42042 -2.46141 0
M  V30 13881 H 1279.76 -2.17805 -2.43369 0
M  V30 13882 H 1278.42 -3.57296 -0.820672 0
M  V30 13883 H 1278.06 -3.80874 -3.28548 0
M  V30 13884 H 1277.76 -5.34652 -2.43764 0
M  V30 13885 H 1279.29 -5.11154 -3.33997 0
M  V30 13886 H 1280.7 -5.62124 -1.12646 0
M  V30 13887 H 1279.1 -5.98598 -0.424358 0
M  V30 13888 H 1280.17 -4.83301 0.393434 0
M  V30 13889 N 1281.51 0.0200419 -1.57587 0
M  V30 13890 C 1282.76 0.708115 -1.88861 0
M  V30 13891 C 1283.07 1.76036 -0.852693 0
M  V30 13892 O 1284.28 2.50165 -1.05497 0
M  V30 13893 C 1282.74 1.31057 -3.3519 0
M  V30 13894 C 1282.34 0.294202 -4.47033 0
M  V30 13895 C 1284.09 1.97799 -3.756 0
M  V30 13896 C 1282 0.905508 -5.84427 0
M  V30 13897 H 1280.93 0.268236 -0.704674 0
M  V30 13898 H 1283.58 -0.0372162 -1.83462 0
M  V30 13899 H 1281.96 2.1059 -3.35362 0
M  V30 13900 H 1283.13 -0.475081 -4.58344 0
M  V30 13901 H 1281.45 -0.271644 -4.15513 0
M  V30 13902 H 1284.04 2.44404 -4.75574 0
M  V30 13903 H 1284.39 2.80004 -3.08064 0
M  V30 13904 H 1284.92 1.25028 -3.77641 0
M  V30 13905 H 1281.66 0.122685 -6.55385 0
M  V30 13906 H 1281.18 1.64442 -5.76818 0
M  V30 13907 H 1282.86 1.41016 -6.31446 0
M  V30 13908 N 1282.99 1.54862 0.292472 0
M  V30 13909 C 1283.92 1.89406 1.36556 0
M  V30 13910 C 1284.9 0.753838 1.52484 0
M  V30 13911 O 1286.09 1.01031 1.6585 0
M  V30 13912 C 1283.22 2.14888 2.72838 0
M  V30 13913 C 1282.17 3.3073 2.71665 0
M  V30 13914 C 1281.5 3.41648 4.11316 0
M  V30 13915 C 1282.8 4.67622 2.32651 0
M  V30 13916 H 1284.49 2.79284 1.07894 0
M  V30 13917 H 1282.04 1.34377 0.517585 0
M  V30 13918 H 1283.99 2.3764 3.48002 0
M  V30 13919 H 1282.71 1.2179 3.03042 0
M  V30 13920 H 1281.37 3.07915 1.98958 0
M  V30 13921 H 1281.02 2.46051 4.38711 0
M  V30 13922 H 1280.72 4.19522 4.11431 0
M  V30 13923 H 1282.24 3.6667 4.88248 0
M  V30 13924 H 1283.66 4.90048 2.97533 0
M  V30 13925 H 1282.06 5.48272 2.43963 0
M  V30 13926 H 1283.13 4.67762 1.27777 0
M  V30 13927 N 1284.47 -0.556076 1.47464 0
M  V30 13928 C 1285.72 -1.3132 1.54147 0
M  V30 13929 C 1286.04 -1.93425 0.204221 0
M  V30 13930 O 1285.3 -1.78467 -0.803002 0
M  V30 13931 C 1285.6 -2.44298 2.6087 0
M  V30 13932 C 1285.26 -2.00016 4.04109 0
M  V30 13933 C 1283.93 -1.87656 4.43101 0
M  V30 13934 C 1286.28 -1.66228 4.93981 0
M  V30 13935 C 1283.61 -1.39805 5.698 0
M  V30 13936 C 1285.96 -1.19848 6.21144 0
M  V30 13937 C 1284.62 -1.06084 6.59016 0
M  V30 13938 H 1283.89 -0.480534 0.564064 0
M  V30 13939 H 1286.54 -0.623449 1.81067 0
M  V30 13940 H 1284.84 -3.18834 2.27711 0
M  V30 13941 H 1286.54 -3.02479 2.63263 0
M  V30 13942 H 1283.13 -2.1058 3.73302 0
M  V30 13943 H 1287.31 -1.7465 4.64555 0
M  V30 13944 H 1282.57 -1.27814 5.97891 0
M  V30 13945 H 1286.74 -0.927657 6.90194 0
M  V30 13946 H 1284.37 -0.687834 7.57082 0
M  V30 13947 N 1285.95 -1.35615 -0.802897 0
M  V30 13948 C 1286.88 -1.31506 -1.92947 0
M  V30 13949 C 1287.86 -0.188843 -1.69048 0
M  V30 13950 O 1289.04 -0.384384 -1.90358 0
M  V30 13951 C 1286.17 -1.09001 -3.29752 0
M  V30 13952 C 1285.13 -2.18303 -3.68141 0
M  V30 13953 C 1284.45 -1.80959 -5.03148 0
M  V30 13954 C 1285.75 -3.60296 -3.78132 0
M  V30 13955 H 1287.45 -2.25771 -1.96642 0
M  V30 13956 H 1284.99 -1.08682 -0.944685 0
M  V30 13957 H 1286.95 -1.04766 -4.08169 0
M  V30 13958 H 1285.67 -0.111832 -3.26408 0
M  V30 13959 H 1284.33 -2.21642 -2.92011 0
M  V30 13960 H 1283.98 -0.817495 -4.96312 0
M  V30 13961 H 1283.68 -2.54129 -5.29804 0
M  V30 13962 H 1285.2 -1.78255 -5.84001 0
M  V30 13963 H 1286.62 -3.59259 -4.46773 0
M  V30 13964 H 1285.01 -4.32258 -4.16261 0
M  V30 13965 H 1286.08 -3.9618 -2.79588 0
M  V30 13966 N 1287.43 1.02549 -1.19673 0
M  V30 13967 C 1288.65 1.79623 -1.0268 0
M  V30 13968 C 1289.07 1.83969 0.424345 0
M  V30 13969 O 1288.43 1.28621 1.29472 0
M  V30 13970 C 1288.48 3.24514 -1.59289 0
M  V30 13971 O 1288.2 3.20462 -2.98723 0
M  V30 13972 C 1289.7 4.18173 -1.47126 0
M  V30 13973 H 1286.92 0.565167 -0.3617 0
M  V30 13974 H 1289.46 1.29143 -1.58564 0
M  V30 13975 H 1287.62 3.72173 -1.07546 0
M  V30 13976 H 1288.03 4.11341 -3.25421 0
M  V30 13977 H 1289.51 5.17714 -1.9151 0
M  V30 13978 H 1289.98 4.37165 -0.422315 0
M  V30 13979 H 1290.59 3.7639 -1.98017 0
M  V30 13980 N 1288.9 1.00119 1.21713 0
M  V30 13981 C 1290.15 0.682733 1.90962 0
M  V30 13982 C 1290.48 -0.784131 1.77665 0
M  V30 13983 O 1289.76 -1.56799 1.15084 0
M  V30 13984 C 1290.04 1.09975 3.42896 0
M  V30 13985 C 1289.89 2.62578 3.65202 0
M  V30 13986 C 1291.21 0.659247 4.35134 0
M  V30 13987 H 1288.33 0.249501 0.693483 0
M  V30 13988 H 1290.97 1.24619 1.43423 0
M  V30 13989 H 1289.12 0.620334 3.83515 0
M  V30 13990 H 1290.8 3.18254 3.33934 0
M  V30 13991 H 1289.04 3.04268 3.09198 0
M  V30 13992 H 1289.71 2.86809 4.7164 0
M  V30 13993 H 1292.19 1.07116 4.02076 0
M  V30 13994 H 1291.06 0.979241 5.40095 0
M  V30 13995 H 1291.32 -0.439777 4.39907 0
M  V30 13996 N 1290.38 -1.37203 0.775435 0
M  V30 13997 C 1291.31 -2.27933 0.110444 0
M  V30 13998 C 1292.29 -1.46513 -0.705179 0
M  V30 13999 O 1293.48 -1.7584 -0.679154 0
M  V30 14000 C 1290.6 -3.27868 -0.84971 0
M  V30 14001 C 1289.65 -4.26338 -0.117627 0
M  V30 14002 S 1290.48 -5.21952 1.19691 0
M  V30 14003 C 1291.64 -6.25438 0.240393 0
M  V30 14004 H 1291.87 -2.83985 0.879766 0
M  V30 14005 H 1289.4 -1.43533 0.568996 0
M  V30 14006 H 1291.36 -3.85952 -1.39827 0
M  V30 14007 H 1290.02 -2.70756 -1.59217 0
M  V30 14008 H 1289.22 -4.96855 -0.845639 0
M  V30 14009 H 1288.82 -3.72263 0.360041 0
M  V30 14010 H 1291.11 -6.74962 -0.585867 0
M  V30 14011 H 1292.05 -7.02178 0.913846 0
M  V30 14012 H 1292.46 -5.64301 -0.150043 0
M  V30 14013 N 1291.86 -0.526279 -1.48553 0
M  V30 14014 C 1293.11 0.00918008 -2.02798 0
M  V30 14015 C 1293.44 1.34284 -1.4029 0
M  V30 14016 O 1292.71 1.86639 -0.547355 0
M  V30 14017 C 1293 0.135102 -3.59846 0
M  V30 14018 C 1292.85 -1.22347 -4.32841 0
M  V30 14019 C 1294.17 0.863673 -4.31542 0
M  V30 14020 H 1291.29 0.00186216 -0.736998 0
M  V30 14021 H 1293.93 -0.682591 -1.77315 0
M  V30 14022 H 1292.08 0.724279 -3.81689 0
M  V30 14023 H 1293.75 -1.85347 -4.22427 0
M  V30 14024 H 1291.99 -1.80631 -3.94405 0
M  V30 14025 H 1292.67 -1.08839 -5.41164 0
M  V30 14026 H 1295.14 0.363734 -4.14507 0
M  V30 14027 H 1294.02 0.92067 -5.41124 0
M  V30 14028 H 1294.28 1.91313 -3.98562 0
M  V30 14029 N 1293.34 1.5542 -0.261239 0
M  V30 14030 C 1294.27 2.24949 0.626126 0
M  V30 14031 C 1295.25 1.23474 1.16997 0
M  V30 14032 O 1296.43 1.52161 1.20667 0
M  V30 14033 C 1293.56 2.95996 1.81669 0
M  V30 14034 C 1292.52 4.04282 1.40499 0
M  V30 14035 C 1291.84 4.62831 2.67753 0
M  V30 14036 C 1293.14 5.1923 0.56543 0
M  V30 14037 H 1294.84 2.99364 0.0463164 0
M  V30 14038 H 1292.38 1.43985 0.0208366 0
M  V30 14039 H 1294.34 3.43343 2.44323 0
M  V30 14040 H 1293.06 2.19093 2.42211 0
M  V30 14041 H 1291.72 3.57726 0.801712 0
M  V30 14042 H 1291.37 3.82611 3.26524 0
M  V30 14043 H 1291.07 5.35938 2.40925 0
M  V30 14044 H 1292.59 5.12918 3.31281 0
M  V30 14045 H 1294.01 5.62714 1.09663 0
M  V30 14046 H 1292.4 5.98814 0.392607 0
M  V30 14047 H 1293.47 4.83086 -0.419059 0
M  V30 14048 N 1294.82 -0.0116844 1.57596 0
M  V30 14049 C 1296.06 -0.697577 1.89679 0
M  V30 14050 C 1296.38 -1.74956 0.861122 0
M  V30 14051 O 1295.65 -1.95629 -0.103031 0
M  V30 14052 H 1294.23 -0.26064 0.700054 0
M  V30 14053 H 1296.9 0.0264782 1.94882 0
M  V30 14054 H 1295.99 -1.17621 2.89088 0
M  V30 14055 N 1296.29 -1.55015 -0.284256 0
M  V30 14056 C 1297.24 -1.87898 -1.37102 0
M  V30 14057 C 1298.24 -0.754231 -1.51683 0
M  V30 14058 O 1299.44 -0.93844 -1.53601 0
M  V30 14059 H 1295.82 -0.596208 -0.458301 0
M  V30 14060 H 1297.79 -2.78704 -1.06613 0
M  V30 14061 C 1296.54 -2.15764 -2.72656 0
M  V30 14062 H 1295.86 -3.01792 -2.62224 0
M  V30 14063 H 1297.3 -2.42701 -3.47667 0
M  V30 14064 C 1295.76 -0.961561 -3.22886 0
M  V30 14065 O 1296.29 -0.190489 -4.01248 0
M  V30 14066 N 1294.49 -0.762338 -2.80422 0
M  V30 14067 H 1294.04 -1.39104 -2.16813 0
M  V30 14068 H 1294 0.0363482 -3.14379 0
M  V30 14069 N 1297.77 0.548248 -1.47757 0
M  V30 14070 C 1298.7 1.66409 -1.63799 0
M  V30 14071 C 1299.68 1.62973 -0.487211 0
M  V30 14072 O 1300.87 1.80455 -0.717612 0
M  V30 14073 C 1298 3.05035 -1.66046 0
M  V30 14074 C 1296.95 3.23322 -2.80441 0
M  V30 14075 C 1296.28 4.62824 -2.67765 0
M  V30 14076 C 1297.58 3.07837 -4.2194 0
M  V30 14077 H 1299.27 1.53239 -2.57212 0
M  V30 14078 H 1296.82 0.735783 -1.23783 0
M  V30 14079 H 1298.77 3.82951 -1.75859 0
M  V30 14080 H 1297.49 3.19185 -0.69199 0
M  V30 14081 H 1296.15 2.47816 -2.70153 0
M  V30 14082 H 1295.8 4.73786 -1.68927 0
M  V30 14083 H 1295.5 4.76007 -3.44515 0
M  V30 14084 H 1297.03 5.42864 -2.7952 0
M  V30 14085 H 1298.44 3.75563 -4.33157 0
M  V30 14086 H 1296.84 3.32525 -4.99547 0
M  V30 14087 H 1297.91 2.04474 -4.3968 0
M  V30 14088 N 1299.25 1.36039 0.795694 0
M  V30 14089 C 1300.5 1.30112 1.5556 0
M  V30 14090 C 1300.83 -0.121197 1.93821 0
M  V30 14091 O 1300.1 -1.07313 1.62216 0
M  V30 14092 C 1300.39 2.21792 2.8369 0
M  V30 14093 C 1300.24 3.72691 2.51836 0
M  V30 14094 C 1301.56 2.12365 3.85472 0
M  V30 14095 H 1298.68 0.473971 0.564376 0
M  V30 14096 H 1301.32 1.66536 0.91465 0
M  V30 14097 H 1299.47 1.9086 3.38386 0
M  V30 14098 H 1301.14 4.14115 2.0324 0
M  V30 14099 H 1299.38 3.92436 1.84869 0
M  V30 14100 H 1300.06 4.32242 3.43323 0
M  V30 14101 H 1302.53 2.3958 3.40207 0
M  V30 14102 H 1301.41 2.78695 4.72885 0
M  V30 14103 H 1301.67 1.10898 4.27965 0
M  V30 14104 N 1300.73 -1.01913 1.20215 0
M  V30 14105 C 1301.97 -1.7573 1.01226 0
M  V30 14106 C 1302.31 -1.88799 -0.45481 0
M  V30 14107 O 1301.58 -1.41196 -1.33768 0
M  V30 14108 C 1301.87 -3.17795 1.69348 0
M  V30 14109 C 1301.72 -3.12536 3.23483 0
M  V30 14110 C 1303.04 -4.16409 1.42448 0
M  V30 14111 H 1300.16 -0.637889 0.369144 0
M  V30 14112 H 1302.8 -1.18907 1.48193 0
M  V30 14113 H 1300.95 -3.66311 1.29416 0
M  V30 14114 H 1302.62 -2.71843 3.72692 0
M  V30 14115 H 1300.86 -2.49997 3.54519 0
M  V30 14116 H 1301.53 -4.12949 3.66302 0
M  V30 14117 H 1304.01 -3.76537 1.77086 0
M  V30 14118 H 1302.89 -5.13983 1.92648 0
M  V30 14119 H 1303.15 -4.407 0.351574 0
M  V30 14120 N 1302.21 -1.00763 -1.2118 0
M  V30 14121 C 1303.14 -0.590493 -2.2591 0
M  V30 14122 C 1304.12 0.390002 -1.65569 0
M  V30 14123 O 1305.3 0.277406 -1.92208 0
M  V30 14124 C 1302.43 0.0810388 -3.47205 0
M  V30 14125 C 1301.39 -0.81951 -4.20081 0
M  V30 14126 C 1300.71 -0.014244 -5.34698 0
M  V30 14127 C 1302.01 -2.12336 -4.7719 0
M  V30 14128 H 1303.71 -1.46595 -2.61056 0
M  V30 14129 H 1301.25 -0.706321 -1.25487 0
M  V30 14130 H 1303.21 0.384355 -4.19644 0
M  V30 14131 H 1301.93 0.991145 -3.11197 0
M  V30 14132 H 1300.59 -1.10669 -3.49497 0
M  V30 14133 H 1300.24 0.897233 -4.94933 0
M  V30 14134 H 1299.94 -0.613883 -5.84384 0
M  V30 14135 H 1301.46 0.282827 -6.09945 0
M  V30 14136 H 1302.87 -1.88301 -5.41494 0
M  V30 14137 H 1301.27 -2.67308 -5.37277 0
M  V30 14138 H 1302.34 -2.79238 -3.96427 0
M  V30 14139 N 1303.68 1.3679 -0.7827 0
M  V30 14140 C 1304.63 2.32019 -0.164358 0
M  V30 14141 C 1305.63 1.55476 0.672571 0
M  V30 14142 O 1306.83 1.7079 0.568406 0
M  V30 14143 H 1303.21 0.751214 -0.0343697 0
M  V30 14144 H 1305.18 2.81741 -0.983077 0
M  V30 14145 C 1303.93 3.4075 0.691727 0
M  V30 14146 H 1303.25 3.99759 0.0570885 0
M  V30 14147 H 1304.69 4.09719 1.09117 0
M  V30 14148 C 1303.15 2.81753 1.84708 0
M  V30 14149 O 1303.68 2.73378 2.94325 0
M  V30 14150 N 1301.89 2.39138 1.6511 0
M  V30 14151 H 1301.43 2.46149 0.759487 0
M  V30 14152 H 1301.39 2.0001 2.42576 0
M  V30 14153 N 1305.16 0.53415 1.48272 0
M  V30 14154 C 1306.09 -0.215037 2.32508 0
M  V30 14155 C 1307.07 -0.931083 1.42355 0
M  V30 14156 O 1308.26 -0.916051 1.71237 0
M  V30 14157 C 1305.39 -1.25985 3.23643 0
M  V30 14158 C 1304.34 -0.661692 4.22854 0
M  V30 14159 C 1303.67 -1.80946 5.03153 0
M  V30 14160 C 1304.97 0.369358 5.20992 0
M  V30 14161 H 1306.66 0.488158 2.95394 0
M  V30 14162 H 1304.21 0.236206 1.4205 0
M  V30 14163 H 1306.16 -1.79195 3.81402 0
M  V30 14164 H 1304.89 -1.99268 2.58766 0
M  V30 14165 H 1303.54 -0.151082 3.66289 0
M  V30 14166 H 1303.19 -2.53077 4.34696 0
M  V30 14167 H 1302.89 -1.41513 5.70305 0
M  V30 14168 H 1304.42 -2.34526 5.63764 0
M  V30 14169 H 1305.83 -0.0758076 5.7325 0
M  V30 14170 H 1304.23 0.681301 5.9622 0
M  V30 14171 H 1305.3 1.27363 4.67875 0
M  V30 14172 N 1306.64 -1.55279 0.269478 0
M  V30 14173 C 1307.89 -1.99471 -0.348913 0
M  V30 14174 C 1308.22 -1.15784 -1.56283 0
M  V30 14175 O 1307.47 -0.214115 -1.94525 0
M  V30 14176 C 1307.77 -3.48773 -0.780535 0
M  V30 14177 C 1307.44 -4.49705 0.328113 0
M  V30 14178 C 1306.1 -4.77024 0.632544 0
M  V30 14179 C 1308.45 -5.09984 1.07544 0
M  V30 14180 C 1305.78 -5.61893 1.68798 0
M  V30 14181 C 1308.13 -5.95999 2.12057 0
M  V30 14182 C 1306.79 -6.21642 2.4314 0
M  V30 14183 H 1306.06 -0.729918 -0.127676 0
M  V30 14184 H 1308.71 -1.87651 0.382015 0
M  V30 14185 H 1307.02 -3.5804 -1.59105 0
M  V30 14186 H 1308.71 -3.80369 -1.26966 0
M  V30 14187 H 1305.3 -4.28524 0.0807131 0
M  V30 14188 H 1309.49 -4.88906 0.853506 0
M  V30 14189 H 1304.74 -5.80009 1.93389 0
M  V30 14190 H 1308.92 -6.41743 2.70442 0
M  V30 14191 H 1306.54 -6.87198 3.25059 0
M  V30 14192 N 1308.12 0.00332656 -1.576 0
M  V30 14193 C 1309.37 0.688044 -1.89602 0
M  V30 14194 C 1309.68 1.75121 -0.871316 0
M  V30 14195 O 1310.89 2.49032 -1.08144 0
M  V30 14196 C 1309.34 1.27494 -3.36561 0
M  V30 14197 C 1308.95 0.246771 -4.4732 0
M  V30 14198 C 1310.69 1.93804 -3.77677 0
M  V30 14199 C 1308.6 0.843471 -5.85354 0
M  V30 14200 H 1307.53 0.260747 -0.707479 0
M  V30 14201 H 1310.18 -0.0566727 -1.83412 0
M  V30 14202 H 1308.56 2.07022 -3.37577 0
M  V30 14203 H 1309.74 -0.523668 -4.57815 0
M  V30 14204 H 1308.05 -0.3157 -4.15202 0
M  V30 14205 H 1310.65 2.39347 -4.78139 0
M  V30 14206 H 1310.99 2.7672 -3.11017 0
M  V30 14207 H 1311.53 1.21015 -3.78946 0
M  V30 14208 H 1308.27 0.0531655 -6.55478 0
M  V30 14209 H 1307.79 1.58315 -5.7853 0
M  V30 14210 H 1309.46 1.34311 -6.32906 0
M  V30 14211 N 1309.6 1.55164 0.276031 0
M  V30 14212 C 1310.56 1.87065 1.32436 0
M  V30 14213 C 1311.56 0.745024 1.42499 0
M  V30 14214 O 1312.75 1.01321 1.41702 0
M  V30 14215 C 1309.88 2.07322 2.70611 0
M  V30 14216 H 1311.07 2.80775 1.05382 0
M  V30 14217 H 1308.63 1.47609 0.513947 0
M  V30 14218 H 1309.36 1.15983 3.0285 0
M  V30 14219 H 1309.15 2.89275 2.64693 0
M  V30 14220 H 1310.64 2.33287 3.46362 0
M  V30 14221 N 1311.07 -0.540404 1.48045 0
M  V30 14222 C 1312 -1.65538 1.6468 0
M  V30 14223 C 1312.99 -1.62713 0.495847 0
M  V30 14224 O 1314.17 -1.80072 0.727172 0
M  V30 14225 C 1311.3 -3.0415 1.67661 0
M  V30 14226 C 1310.25 -3.2183 2.82152 0
M  V30 14227 C 1309.58 -4.61397 2.70216 0
M  V30 14228 C 1310.88 -3.05596 4.23567 0
M  V30 14229 H 1312.57 -1.51873 2.58021 0
M  V30 14230 H 1310.12 -0.729208 1.24171 0
M  V30 14231 H 1312.07 -3.82013 1.77887 0
M  V30 14232 H 1310.8 -3.18814 0.708907 0
M  V30 14233 H 1309.46 -2.4638 2.71463 0
M  V30 14234 H 1309.1 -4.72883 1.71437 0
M  V30 14235 H 1308.8 -4.74174 3.47035 0
M  V30 14236 H 1310.33 -5.41374 2.82395 0
M  V30 14237 H 1311.74 -3.73261 4.35143 0
M  V30 14238 H 1310.14 -3.29871 5.01303 0
M  V30 14239 H 1311.21 -2.0214 4.40758 0
M  V30 14240 N 1312.55 -1.36459 -0.788468 0
M  V30 14241 C 1313.48 -1.33545 -1.91541 0
M  V30 14242 C 1314.46 -0.206762 -1.68839 0
M  V30 14243 O 1315.65 -0.404553 -1.89939 0
M  V30 14244 C 1312.78 -1.12492 -3.28577 0
M  V30 14245 C 1311.73 -2.22196 -3.65805 0
M  V30 14246 C 1311.06 -1.86285 -5.01201 0
M  V30 14247 C 1312.36 -3.64286 -3.7429 0
M  V30 14248 H 1314.05 -2.27844 -1.94236 0
M  V30 14249 H 1311.6 -1.09677 -0.933105 0
M  V30 14250 H 1313.55 -1.09089 -4.07035 0
M  V30 14251 H 1312.28 -0.146446 -3.26272 0
M  V30 14252 H 1310.93 -2.24727 -2.89644 0
M  V30 14253 H 1310.58 -0.87009 -4.95417 0
M  V30 14254 H 1310.28 -2.59734 -5.27079 0
M  V30 14255 H 1311.81 -1.84439 -5.82078 0
M  V30 14256 H 1313.22 -3.63977 -4.42937 0
M  V30 14257 H 1311.62 -4.36648 -4.11653 0
M  V30 14258 H 1312.69 -3.99123 -2.75371 0
M  V30 14259 N 1314.03 1.01274 -1.20754 0
M  V30 14260 C 1314.96 2.11763 -0.983805 0
M  V30 14261 C 1315.94 1.69869 0.0885635 0
M  V30 14262 O 1317.13 1.94075 -0.0697239 0
M  V30 14263 C 1314.26 3.43087 -0.539287 0
M  V30 14264 C 1313.21 3.9874 -1.55534 0
M  V30 14265 C 1312.54 5.25877 -0.967322 0
M  V30 14266 C 1313.84 4.31688 -2.94012 0
M  V30 14267 H 1315.53 2.30737 -1.90789 0
M  V30 14268 H 1313.08 1.10884 -0.918734 0
M  V30 14269 H 1315.03 4.19773 -0.369979 0
M  V30 14270 H 1313.75 3.23883 0.420435 0
M  V30 14271 H 1312.41 3.24166 -1.71207 0
M  V30 14272 H 1312.06 5.03 0.000448307 0
M  V30 14273 H 1311.76 5.64077 -1.64594 0
M  V30 14274 H 1313.28 6.05215 -0.809167 0
M  V30 14275 H 1314.7 4.99246 -2.81827 0
M  V30 14276 H 1313.1 4.81011 -3.58815 0
M  V30 14277 H 1314.17 3.4029 -3.45442 0
M  V30 14278 N 1315.51 1.01404 1.20644 0
M  V30 14279 C 1316.46 0.575388 2.25371 0
M  V30 14280 C 1317.45 -0.384598 1.64976 0
M  V30 14281 O 1318.66 -0.2548 1.78187 0
M  V30 14282 H 1315.03 0.167752 0.733051 0
M  V30 14283 H 1317 1.46964 2.597 0
M  V30 14284 C 1315.75 -0.0731257 3.47623 0
M  V30 14285 H 1315.08 0.656551 3.94372 0
M  V30 14286 H 1316.52 -0.343203 4.22609 0
M  V30 14287 C 1314.97 -1.31515 3.1017 0
M  V30 14288 O 1315.5 -2.40869 3.21473 0
M  V30 14289 N 1313.71 -1.19829 2.64744 0
M  V30 14290 H 1313.26 -0.308463 2.55746 0
M  V30 14291 H 1313.22 -2.0303 2.40054 0
M  V30 14292 N 1316.99 -1.36373 0.789944 0
M  V30 14293 C 1318.21 -2.04011 0.373396 0
M  V30 14294 C 1318.64 -1.59171 -1.00231 0
M  V30 14295 O 1318 -0.760431 -1.64582 0
M  V30 14296 C 1318.04 -3.5783 0.446083 0
M  V30 14297 O 1317.15 -4.08759 -0.54678 0
M  V30 14298 H 1316.49 -0.644807 0.158495 0
M  V30 14299 H 1319.02 -1.74317 1.0712 0
M  V30 14300 H 1319.03 -4.06822 0.309877 0
M  V30 14301 H 1317.7 -3.89819 1.44962 0
M  V30 14302 H 1316.28 -3.71038 -0.372192 0
M  V30 14303 N 1318.47 -0.542005 -1.47987 0
M  V30 14304 C 1319.71 -0.0123116 -2.02496 0
M  V30 14305 C 1320.04 1.33136 -1.41793 0
M  V30 14306 O 1319.3 1.87591 -0.557501 0
M  V30 14307 C 1319.59 0.146208 -3.57101 0
M  V30 14308 C 1319.26 -1.12463 -4.3665 0
M  V30 14309 C 1317.92 -1.47289 -4.58104 0
M  V30 14310 C 1320.27 -1.96746 -4.82639 0
M  V30 14311 C 1317.6 -2.66273 -5.22796 0
M  V30 14312 C 1319.95 -3.14919 -5.48643 0
M  V30 14313 C 1318.62 -3.50077 -5.68333 0
M  V30 14314 H 1317.89 -0.00450514 -0.740986 0
M  V30 14315 H 1320.54 -0.710455 -1.77834 0
M  V30 14316 H 1318.84 0.927209 -3.80671 0
M  V30 14317 H 1320.54 0.571161 -3.96912 0
M  V30 14318 H 1317.13 -0.843429 -4.20219 0
M  V30 14319 H 1321.31 -1.71149 -4.65856 0
M  V30 14320 H 1316.57 -2.937 -5.36237 0
M  V30 14321 H 1320.74 -3.80525 -5.83244 0
M  V30 14322 H 1318.37 -4.42371 -6.18233 0
M  V30 14323 N 1319.94 1.55134 -0.277709 0
M  V30 14324 C 1321.17 2.04519 0.344472 0
M  V30 14325 C 1321.59 1.15466 1.4849 0
M  V30 14326 O 1320.95 0.153798 1.80646 0
M  V30 14327 C 1321 3.51602 0.800527 0
M  V30 14328 O 1320.1 3.65632 1.90754 0
M  V30 14329 H 1319.44 0.660212 0.0708226 0
M  V30 14330 H 1321.97 2.00393 -0.412764 0
M  V30 14331 H 1321.98 3.93015 1.09559 0
M  V30 14332 H 1320.66 4.15886 -0.033838 0
M  V30 14333 H 1319.24 3.36122 1.61481 0
M  V30 14334 N 1321.42 0.00503138 1.57599 0
M  V30 14335 C 1322.38 -0.969628 2.0768 0
M  V30 14336 C 1323.38 -1.26933 0.987148 0
M  V30 14337 O 1324.57 -1.21368 1.24962 0
M  V30 14338 C 1321.71 -2.29312 2.52247 0
M  V30 14339 H 1322.9 -0.536342 2.95065 0
M  V30 14340 H 1320.45 -0.242543 1.54407 0
M  V30 14341 H 1321.19 -2.7732 1.6812 0
M  V30 14342 H 1320.97 -2.08878 3.31832 0
M  V30 14343 H 1322.46 -2.99221 2.91302 0
M  V30 14344 N 1322.9 -1.55308 -0.267798 0
M  V30 14345 C 1324.18 -1.66881 -1.02029 0
M  V30 14346 C 1324.56 -0.538708 -2.04111 0
M  V30 14347 O 1323.9 0.460575 -2.2381 0
M  V30 14348 C 1324.11 -3.06318 -1.67243 0
M  V30 14349 C 1325.46 -3.64237 -2.18212 0
M  V30 14350 O 1326.49 -3.08984 -1.77221 0
M  V30 14351 O 1325.35 -4.61055 -2.93413 0
M  V30 14352 H 1322.44 -0.677967 -0.473593 0
M  V30 14353 H 1324.99 -1.67646 -0.263242 0
M  V30 14354 H 1323.76 -3.80015 -0.932985 0
M  V30 14355 H 1323.38 -3.09475 -2.49622 0
M  V30 14356 N 1324.38 0.532545 -1.4833 0
M  V30 14357 C 1325.33 1.65832 -1.63103 0
M  V30 14358 C 1326.32 1.61929 -0.497538 0
M  V30 14359 O 1327.53 1.66817 -0.676176 0
M  V30 14360 H 1323.9 0.549152 -0.513748 0
M  V30 14361 H 1325.87 1.50515 -2.57658 0
M  V30 14362 C 1324.62 3.04113 -1.68555 0
M  V30 14363 H 1323.94 3.07809 -2.55135 0
M  V30 14364 H 1325.38 3.82506 -1.82936 0
M  V30 14365 C 1323.84 3.34225 -0.423711 0
M  V30 14366 O 1324.37 3.99005 0.464523 0
M  V30 14367 N 1322.58 2.89087 -0.296192 0
M  V30 14368 H 1322.13 2.36547 -1.01997 0
M  V30 14369 H 1322.08 3.09604 0.547082 0
M  V30 14370 N 1325.86 1.36875 0.78122 0
M  V30 14371 C 1326.79 1.34559 1.9083 0
M  V30 14372 C 1327.77 0.215713 1.68727 0
M  V30 14373 O 1328.95 0.41462 1.89722 0
M  V30 14374 C 1326.08 1.14233 3.27976 0
M  V30 14375 C 1325.04 2.24132 3.64621 0
M  V30 14376 C 1324.36 1.8894 5.00206 0
M  V30 14377 C 1325.66 3.66266 3.72353 0
M  V30 14378 H 1327.36 2.28871 1.93025 0
M  V30 14379 H 1324.9 1.10171 0.927275 0
M  V30 14380 H 1326.85 1.11246 4.06451 0
M  V30 14381 H 1325.58 0.163747 3.26189 0
M  V30 14382 H 1324.24 2.26259 2.88448 0
M  V30 14383 H 1323.89 0.896351 4.94949 0
M  V30 14384 H 1323.59 2.62525 5.25694 0
M  V30 14385 H 1325.11 1.87523 5.81092 0
M  V30 14386 H 1326.52 3.66321 4.41001 0
M  V30 14387 H 1324.92 4.38825 4.09332 0
M  V30 14388 H 1325.99 4.00578 2.7325 0
M  V30 14389 N 1327.33 -1.00632 1.21289 0
M  V30 14390 C 1328.56 -1.77967 1.05524 0
M  V30 14391 C 1328.98 -1.84621 -0.395023 0
M  V30 14392 O 1328.33 -1.30664 -1.27409 0
M  V30 14393 C 1328.38 -3.21939 1.64432 0
M  V30 14394 O 1328.11 -3.15669 3.03784 0
M  V30 14395 C 1329.61 -4.1578 1.5376 0
M  V30 14396 H 1326.83 -0.559341 0.370646 0
M  V30 14397 H 1329.37 -1.26604 1.60598 0
M  V30 14398 H 1327.53 -3.70415 1.13453 0
M  V30 14399 H 1327.94 -4.06112 3.31924 0
M  V30 14400 H 1329.41 -5.14602 1.99722 0
M  V30 14401 H 1329.89 -4.36438 0.491811 0
M  V30 14402 H 1330.5 -3.73192 2.0398 0
M  V30 14403 N 1328.81 -1.02043 -1.20104 0
M  V30 14404 C 1329.77 -0.598682 -2.21243 0
M  V30 14405 C 1330.77 0.333205 -1.5731 0
M  V30 14406 O 1331.96 0.12137 -1.73777 0
M  V30 14407 C 1329.1 0.125183 -3.4067 0
M  V30 14408 H 1330.29 -1.49345 -2.60069 0
M  V30 14409 H 1327.84 -0.810649 -1.33634 0
M  V30 14410 H 1328.58 1.03469 -3.07351 0
M  V30 14411 H 1328.36 -0.544316 -3.88304 0
M  V30 14412 H 1329.85 0.407469 -4.15607 0
M  V30 14413 N 1330.29 1.35952 -0.797165 0
M  V30 14414 C 1331.7 1.81554 -0.435311 0
M  V30 14415 C 1332.05 1.66266 1.04164 0
M  V30 14416 O 1331.18 1.18796 1.80877 0
M  V30 14417 C 1331.77 3.29619 -0.783358 0
M  V30 14418 C 1330.33 3.73401 -0.47423 0
M  V30 14419 C 1329.48 2.58098 -1.01394 0
M  V30 14420 H 1332.43 1.24064 -0.989638 0
M  V30 14421 H 1332.45 3.80421 -0.0773381 0
M  V30 14422 H 1331.96 3.40715 -1.85836 0
M  V30 14423 H 1330.06 3.6786 0.592418 0
M  V30 14424 H 1330.18 4.68542 -1.00026 0
M  V30 14425 H 1328.54 2.50927 -0.436747 0
M  V30 14426 H 1329.32 2.71976 -2.09485 0
M  V30 14427 N 1331.77 0.549846 1.47697 0
M  V30 14428 C 1332.68 -0.205286 2.337 0
M  V30 14429 C 1333.69 -0.919271 1.47734 0
M  V30 14430 O 1334.87 -0.889808 1.80678 0
M  V30 14431 C 1331.94 -1.22658 3.24278 0
M  V30 14432 C 1331 -0.520815 4.26129 0
M  V30 14433 C 1330.23 -1.49345 5.12378 0
M  V30 14434 O 1330.45 -2.72772 5.00951 0
M  V30 14435 O 1329.39 -1.02197 5.93161 0
M  V30 14436 H 1333.21 0.499982 2.99556 0
M  V30 14437 H 1330.8 0.310538 1.46137 0
M  V30 14438 H 1332.68 -1.8163 3.80248 0
M  V30 14439 H 1331.35 -1.9139 2.61059 0
M  V30 14440 H 1330.26 0.109906 3.73939 0
M  V30 14441 H 1331.59 0.124922 4.92041 0
M  V30 14442 N 1333.25 -1.54984 0.285932 0
M  V30 14443 C 1334.52 -1.91872 -0.380083 0
M  V30 14444 C 1334.9 -1.21146 -1.72878 0
M  V30 14445 O 1334.25 -0.341999 -2.25926 0
M  V30 14446 C 1334.46 -3.45258 -0.509667 0
M  V30 14447 C 1335.81 -4.17232 -0.787549 0
M  V30 14448 O 1336.83 -3.51211 -0.594062 0
M  V30 14449 O 1335.69 -5.34085 -1.15826 0
M  V30 14450 H 1332.79 -0.799931 -0.209856 0
M  V30 14451 H 1335.33 -1.66403 0.332882 0
M  V30 14452 H 1334.1 -3.88829 0.439049 0
M  V30 14453 H 1333.73 -3.76715 -1.27168 0
M  V30 14454 N 1334.72 -0.0133892 -1.57594 0
M  V30 14455 C 1336 0.706416 -1.82398 0
M  V30 14456 C 1336.38 1.91236 -0.893983 0
M  V30 14457 O 1335.73 2.28436 0.0541675 0
M  V30 14458 C 1335.94 1.09951 -3.31228 0
M  V30 14459 C 1337.29 1.49776 -3.97306 0
M  V30 14460 O 1338.31 1.19293 -3.3563 0
M  V30 14461 O 1337.17 2.06511 -5.0598 0
M  V30 14462 H 1334.26 0.345131 -0.751541 0
M  V30 14463 H 1336.81 -0.0398687 -1.69653 0
M  V30 14464 H 1335.58 0.240514 -3.9056 0
M  V30 14465 H 1335.21 1.90447 -3.49021 0
M  V30 14466 N 1336.2 1.55448 0.259558 0
M  V30 14467 C 1337.45 1.76337 0.987396 0
M  V30 14468 C 1337.77 0.57505 1.86328 0
M  V30 14469 O 1337.04 -0.409621 1.9157 0
M  V30 14470 H 1335.62 0.650312 0.367565 0
M  V30 14471 H 1338.28 1.9287 0.280551 0
M  V30 14472 H 1337.38 2.66975 1.61651 0
M  V30 14473 N 1337.68 -0.524672 1.4861 0
M  V30 14474 C 1338.59 -1.65554 1.6622 0
M  V30 14475 C 1339.61 -1.65254 0.54471 0
M  V30 14476 O 1340.78 -1.84109 0.816454 0
M  V30 14477 C 1337.85 -3.02003 1.7028 0
M  V30 14478 C 1336.91 -3.13116 2.93695 0
M  V30 14479 C 1336.14 -4.43055 2.97553 0
M  V30 14480 O 1336.36 -5.30468 2.09667 0
M  V30 14481 O 1335.3 -4.58646 3.89779 0
M  V30 14482 H 1339.12 -1.53633 2.61974 0
M  V30 14483 H 1336.71 -0.698354 1.32073 0
M  V30 14484 H 1338.59 -3.83143 1.75441 0
M  V30 14485 H 1337.27 -3.14236 0.777002 0
M  V30 14486 H 1336.17 -2.31251 2.94064 0
M  V30 14487 H 1337.51 -3.058 3.85677 0
M  V30 14488 N 1339.16 -1.37287 -0.77395 0
M  V30 14489 C 1340.4 -1.3257 -1.5347 0
M  V30 14490 C 1340.74 0.090346 -1.9399 0
M  V30 14491 O 1340.01 1.04719 -1.63903 0
M  V30 14492 C 1340.3 -2.26277 -2.80126 0
M  V30 14493 C 1340.15 -3.76651 -2.45874 0
M  V30 14494 C 1341.47 -2.18471 -3.82045 0
M  V30 14495 H 1338.59 -0.48289 -0.556764 0
M  V30 14496 H 1341.23 -1.6797 -0.888039 0
M  V30 14497 H 1339.38 -1.96219 -3.35306 0
M  V30 14498 H 1341.05 -4.17296 -1.96626 0
M  V30 14499 H 1339.29 -3.95327 -1.78602 0
M  V30 14500 H 1339.96 -4.3765 -3.36403 0
M  V30 14501 H 1342.44 -2.44962 -3.36352 0
M  V30 14502 H 1341.32 -2.86183 -4.68392 0
M  V30 14503 H 1341.58 -1.17692 -4.26147 0
M  V30 14504 N 1340.64 0.999871 -1.21821 0
M  V30 14505 C 1341.58 2.10985 -0.979183 0
M  V30 14506 C 1342.58 1.69232 0.0753287 0
M  V30 14507 O 1343.78 1.79837 -0.0765083 0
M  V30 14508 H 1340.16 0.689819 -0.299421 0
M  V30 14509 H 1342.13 2.28322 -1.92124 0
M  V30 14510 C 1340.88 3.43062 -0.56602 0
M  V30 14511 H 1340.2 3.75627 -1.36909 0
M  V30 14512 H 1341.64 4.2173 -0.43813 0
M  V30 14513 C 1340.1 3.29036 0.723647 0
M  V30 14514 O 1340.63 3.60214 1.77788 0
M  V30 14515 N 1338.84 2.82237 0.692126 0
M  V30 14516 H 1338.38 2.57064 -0.166082 0
M  V30 14517 H 1338.34 2.73235 1.55532 0
M  V30 14518 N 1342.11 1.02678 1.19562 0
M  V30 14519 C 1343.06 0.599259 2.24748 0
M  V30 14520 C 1344.06 -0.367079 1.65375 0
M  V30 14521 O 1345.26 -0.235887 1.78448 0
M  V30 14522 H 1341.64 0.175517 0.73123 0
M  V30 14523 H 1343.61 1.4971 2.58127 0
M  V30 14524 C 1342.36 -0.0362515 3.47681 0
M  V30 14525 H 1341.68 0.698343 3.93654 0
M  V30 14526 H 1343.12 -0.298361 4.22949 0
M  V30 14527 C 1341.58 -1.28218 3.11547 0
M  V30 14528 O 1342.11 -2.37446 3.24009 0
M  V30 14529 N 1340.32 -1.17014 2.66 0
M  V30 14530 H 1339.86 -0.28132 2.56059 0
M  V30 14531 H 1339.82 -2.00473 2.42194 0
M  V30 14532 N 1343.59 -1.35528 0.804364 0
M  V30 14533 C 1344.52 -2.32388 0.227604 0
M  V30 14534 C 1345.5 -1.57368 -0.645709 0
M  V30 14535 O 1346.69 -1.85448 -0.576441 0
M  V30 14536 C 1343.82 -3.41603 -0.62645 0
M  V30 14537 C 1342.77 -4.27743 0.148187 0
M  V30 14538 C 1342.1 -5.28259 -0.827425 0
M  V30 14539 C 1343.4 -5.04661 1.34591 0
M  V30 14540 H 1345.09 -2.80874 1.03684 0
M  V30 14541 H 1342.64 -1.3504 0.500031 0
M  V30 14542 H 1344.59 -4.08365 -1.03999 0
M  V30 14543 H 1343.32 -2.91721 -1.46855 0
M  V30 14544 H 1341.97 -3.62558 0.542874 0
M  V30 14545 H 1341.62 -4.74645 -1.66496 0
M  V30 14546 H 1341.32 -5.86763 -0.313453 0
M  V30 14547 H 1342.85 -5.97893 -1.23921 0
M  V30 14548 H 1344.26 -5.6438 1.00736 0
M  V30 14549 H 1342.66 -5.7265 1.79422 0
M  V30 14550 H 1343.73 -4.35432 2.1337 0
M  V30 14551 N 1345.07 -0.557671 -1.47404 0
M  V30 14552 C 1346 0.227253 -2.28071 0
M  V30 14553 C 1347.02 0.878951 -1.37034 0
M  V30 14554 O 1348.21 0.752725 -1.61853 0
M  V30 14555 C 1345.31 1.33942 -3.11308 0
M  V30 14556 C 1344.48 0.784425 -4.30309 0
M  V30 14557 C 1343.54 1.78114 -4.95138 0
M  V30 14558 O 1342.56 1.32708 -5.53514 0
M  V30 14559 N 1343.77 3.11453 -4.89875 0
M  V30 14560 H 1346.53 -0.464709 -2.96075 0
M  V30 14561 H 1344.09 -0.393777 -1.57038 0
M  V30 14562 H 1346.08 2.00495 -3.51545 0
M  V30 14563 H 1344.65 1.93461 -2.45543 0
M  V30 14564 H 1343.87 -0.0578917 -3.94157 0
M  V30 14565 H 1345.16 0.39298 -5.0728 0
M  V30 14566 H 1344.56 3.50987 -4.43649 0
M  V30 14567 H 1343.12 3.73563 -5.34129 0
M  V30 14568 N 1346.55 1.54831 -0.294147 0
M  V30 14569 C 1347.8 2.00298 0.317605 0
M  V30 14570 C 1348.13 1.18228 1.54064 0
M  V30 14571 O 1347.4 0.257034 1.92794 0
M  V30 14572 C 1347.69 3.53602 0.680991 0
M  V30 14573 C 1347.54 4.46416 -0.550711 0
M  V30 14574 C 1348.86 4.13379 1.51016 0
M  V30 14575 H 1345.98 0.728135 0.113965 0
M  V30 14576 H 1348.62 1.85636 -0.404883 0
M  V30 14577 H 1346.77 3.66227 1.29654 0
M  V30 14578 H 1348.44 4.45707 -1.18922 0
M  V30 14579 H 1346.68 4.17294 -1.18524 0
M  V30 14580 H 1347.36 5.51423 -0.252412 0
M  V30 14581 H 1349.83 4.04148 0.99012 0
M  V30 14582 H 1348.71 5.20818 1.73321 0
M  V30 14583 H 1348.97 3.64817 2.49722 0
M  V30 14584 N 1348.03 0.0217466 1.57585 0
M  V30 14585 C 1348.99 -0.947546 2.08696 0
M  V30 14586 C 1349.99 -1.25879 1.00055 0
M  V30 14587 O 1351.18 -1.20035 1.26242 0
M  V30 14588 C 1348.31 -2.26624 2.54665 0
M  V30 14589 H 1349.51 -0.505016 2.95617 0
M  V30 14590 H 1347.06 -0.226152 1.54655 0
M  V30 14591 H 1347.79 -2.75521 1.71052 0
M  V30 14592 H 1347.58 -2.05347 3.34028 0
M  V30 14593 H 1349.07 -2.96114 2.94459 0
M  V30 14594 N 1349.51 -1.55583 -0.251311 0
M  V30 14595 C 1350.44 -1.9296 -1.31486 0
M  V30 14596 C 1351.42 -0.794001 -1.50431 0
M  V30 14597 O 1352.6 -1.05393 -1.63113 0
M  V30 14598 C 1349.73 -2.22046 -2.67045 0
M  V30 14599 C 1348.69 -3.37816 -2.62801 0
M  V30 14600 C 1348.01 -3.52433 -4.02113 0
M  V30 14601 C 1349.31 -4.73626 -2.20171 0
M  V30 14602 H 1351.01 -2.82046 -1.00451 0
M  V30 14603 H 1348.55 -1.35702 -0.481775 0
M  V30 14604 H 1350.5 -2.46783 -3.41579 0
M  V30 14605 H 1349.23 -1.29782 -2.99707 0
M  V30 14606 H 1347.89 -3.13081 -1.90724 0
M  V30 14607 H 1347.54 -2.57597 -4.32034 0
M  V30 14608 H 1347.24 -4.30283 -4.00163 0
M  V30 14609 H 1348.76 -3.79486 -4.78354 0
M  V30 14610 H 1350.17 -4.97764 -2.84436 0
M  V30 14611 H 1348.57 -5.54547 -2.29341 0
M  V30 14612 H 1349.64 -4.70985 -1.1533 0
M  V30 14613 N 1350.98 0.516783 -1.48886 0
M  V30 14614 C 1351.95 1.60226 -1.63891 0
M  V30 14615 C 1352.95 1.52448 -0.511479 0
M  V30 14616 O 1354.14 1.55882 -0.777582 0
M  V30 14617 C 1351.27 2.99867 -1.62151 0
M  V30 14618 H 1352.46 1.48256 -2.60692 0
M  V30 14619 H 1350.01 0.739844 -1.37681 0
M  V30 14620 H 1350.75 3.1733 -0.668764 0
M  V30 14621 H 1350.53 3.0692 -2.44013 0
M  V30 14622 H 1352.02 3.7876 -1.7587 0
M  V30 14623 N 1352.46 1.37696 0.766659 0
M  V30 14624 C 1353.88 1.18607 1.06792 0
M  V30 14625 C 1354.08 0.0257195 2.01484 0
M  V30 14626 O 1353.13 -0.632608 2.44447 0
M  V30 14627 C 1354.45 2.50692 1.66054 0
M  V30 14628 C 1355.99 2.57259 1.78288 0
M  V30 14629 C 1356.47 3.89488 2.40963 0
M  V30 14630 N 1357.96 3.90957 2.48408 0
M  V30 14631 C 1358.7 4.90023 2.97767 0
M  V30 14632 N 1358.19 5.99485 3.4726 0
M  V30 14633 N 1359.98 4.77423 2.96688 0
M  V30 14634 H 1352.14 2.11951 0.138031 0
M  V30 14635 H 1354.4 0.939873 0.123863 0
M  V30 14636 H 1354.1 3.35989 1.03945 0
M  V30 14637 H 1353.98 2.68148 2.65286 0
M  V30 14638 H 1356.37 1.72366 2.39528 0
M  V30 14639 H 1356.45 2.43682 0.777981 0
M  V30 14640 H 1356.09 4.74797 1.8036 0
M  V30 14641 H 1356.02 4.0037 3.42069 0
M  V30 14642 H 1358.51 3.11888 2.13388 0
M  V30 14643 H 1358.82 6.71022 3.8334 0
M  V30 14644 H 1357.17 6.03123 3.45351 0
M  V30 14645 H 1360.36 3.91026 2.57325 0
M  V30 14646 H 1360.53 5.54783 3.34844 0
M  V30 14647 N 1353.94 -0.993397 1.22349 0
M  V30 14648 C 1355.19 -1.72707 1.04189 0
M  V30 14649 C 1355.5 -1.90963 -0.423381 0
M  V30 14650 O 1356.71 -2.61651 -0.724645 0
M  V30 14651 C 1355.16 -3.10739 1.81575 0
M  V30 14652 C 1354.77 -3.00415 3.32347 0
M  V30 14653 C 1356.52 -3.88155 1.71861 0
M  V30 14654 C 1354.42 -4.33598 4.02177 0
M  V30 14655 H 1353.35 -0.647556 0.386248 0
M  V30 14656 H 1356 -1.10902 1.46195 0
M  V30 14657 H 1354.39 -3.73222 1.32367 0
M  V30 14658 H 1355.56 -2.47099 3.88946 0
M  V30 14659 H 1353.87 -2.36482 3.42732 0
M  V30 14660 H 1356.47 -4.8673 2.21354 0
M  V30 14661 H 1356.81 -4.10726 0.678939 0
M  V30 14662 H 1357.35 -3.32347 2.18609 0
M  V30 14663 H 1354.09 -4.16226 5.06395 0
M  V30 14664 H 1353.61 -4.86829 3.50367 0
M  V30 14665 H 1355.29 -5.02348 4.07744 0
M  V30 14666 N 1355.42 -1.03311 -1.19015 0
M  V30 14667 C 1356.35 -0.575655 -2.21853 0
M  V30 14668 C 1357.36 0.350705 -1.58978 0
M  V30 14669 O 1358.55 0.146425 -1.77898 0
M  V30 14670 C 1355.65 0.179949 -3.38422 0
M  V30 14671 C 1354.82 -0.752403 -4.3088 0
M  V30 14672 C 1353.88 -0.0414484 -5.26184 0
M  V30 14673 O 1352.91 -0.669403 -5.6525 0
M  V30 14674 N 1354.11 1.22783 -5.67366 0
M  V30 14675 H 1356.88 -1.46013 -2.61726 0
M  V30 14676 H 1354.44 -0.912655 -1.33724 0
M  V30 14677 H 1356.43 0.66522 -3.99195 0
M  V30 14678 H 1355 0.965879 -2.97304 0
M  V30 14679 H 1354.22 -1.41768 -3.67825 0
M  V30 14680 H 1355.51 -1.38592 -4.89561 0
M  V30 14681 H 1354.91 1.75867 -5.37668 0
M  V30 14682 H 1353.46 1.65752 -6.30372 0
M  V30 14683 N 1356.9 1.35099 -0.81154 0
M  V30 14684 C 1358.14 1.9892 -0.394815 0
M  V30 14685 C 1358.47 1.6422 1.0366 0
M  V30 14686 O 1357.75 0.908031 1.72003 0
M  V30 14687 C 1358.03 3.55331 -0.58413 0
M  V30 14688 C 1357.89 3.99812 -2.06084 0
M  V30 14689 C 1359.2 4.40098 -0.0129096 0
M  V30 14690 H 1356.32 0.72261 -0.144926 0
M  V30 14691 H 1358.97 1.60173 -1.02199 0
M  V30 14692 H 1357.12 3.88468 -0.0502446 0
M  V30 14693 H 1358.79 3.77061 -2.65749 0
M  V30 14694 H 1357.03 3.50539 -2.55548 0
M  V30 14695 H 1357.7 5.08655 -2.14416 0
M  V30 14696 H 1360.18 4.13449 -0.468917 0
M  V30 14697 H 1359.05 5.4862 -0.175252 0
M  V30 14698 H 1359.31 4.28675 1.0812 0
M  V30 14699 N 1358.37 0.56548 1.47106 0
M  V30 14700 C 1359.62 0.0445255 2.02451 0
M  V30 14701 C 1359.95 -1.30863 1.43893 0
M  V30 14702 O 1359.2 -1.8668 0.587274 0
M  V30 14703 C 1359.5 -0.0893776 3.57288 0
M  V30 14704 C 1359.17 1.19395 4.34805 0
M  V30 14705 C 1357.83 1.54558 4.55703 0
M  V30 14706 C 1360.18 2.04399 4.79448 0
M  V30 14707 C 1357.51 2.74557 5.18494 0
M  V30 14708 C 1359.86 3.23608 5.43563 0
M  V30 14709 C 1358.53 3.59074 5.62692 0
M  V30 14710 H 1357.8 0.016293 0.740821 0
M  V30 14711 H 1360.44 0.738657 1.76681 0
M  V30 14712 H 1358.75 -0.86653 3.82097 0
M  V30 14713 H 1360.45 -0.507943 3.9777 0
M  V30 14714 H 1357.04 0.910176 4.18824 0
M  V30 14715 H 1361.22 1.78539 4.63074 0
M  V30 14716 H 1356.48 3.02194 5.31497 0
M  V30 14717 H 1360.65 3.89755 5.77117 0
M  V30 14718 H 1358.28 4.5215 6.11117 0
M  V30 14719 N 1359.85 -1.54672 0.302354 0
M  V30 14720 C 1361.1 -1.99771 -0.305919 0
M  V30 14721 C 1361.42 -1.19225 -1.54306 0
M  V30 14722 O 1360.69 -0.288569 -1.93763 0
M  V30 14723 H 1359.27 -0.737934 -0.116026 0
M  V30 14724 H 1361.93 -1.90452 0.413997 0
M  V30 14725 H 1361.03 -3.06719 -0.577024 0
M  V30 14726 N 1361.33 -0.0301034 -1.57571 0
M  V30 14727 C 1362.28 0.960604 -2.06776 0
M  V30 14728 C 1363.26 1.28488 -0.968483 0
M  V30 14729 O 1364.46 1.27083 -1.23203 0
M  V30 14730 C 1361.59 2.24268 -2.59921 0
M  V30 14731 C 1360.67 1.94673 -3.7678 0
M  V30 14732 N 1361.06 1.3535 -4.87354 0
M  V30 14733 C 1359.36 2.24658 -3.85285 0
M  V30 14734 C 1360.06 1.22909 -5.68567 0
M  V30 14735 N 1359.04 1.72493 -5.15507 0
M  V30 14736 H 1362.84 0.496931 -2.89668 0
M  V30 14737 H 1360.35 0.174886 -1.61456 0
M  V30 14738 H 1362.35 2.96116 -2.93463 0
M  V30 14739 H 1361.01 2.71261 -1.78459 0
M  V30 14740 H 1362.02 1.02839 -5.07587 0
M  V30 14741 H 1358.7 2.74318 -3.14731 0
M  V30 14742 H 1360.09 0.7703 -6.6747 0
M  V30 14743 N 1362.81 1.55714 0.243056 0
M  V30 14744 C 1364.22 1.48224 0.591754 0
M  V30 14745 C 1364.42 0.72105 1.88157 0
M  V30 14746 O 1363.48 0.251966 2.5124 0
M  V30 14747 C 1364.79 2.92655 0.690918 0
M  V30 14748 C 1366.34 3.03048 0.782988 0
M  V30 14749 C 1366.82 4.48794 0.913682 0
M  V30 14750 N 1368.31 4.52748 0.978454 0
M  V30 14751 C 1369.04 5.62771 1.09891 0
M  V30 14752 N 1368.54 6.82596 1.18467 0
M  V30 14753 N 1370.33 5.50576 1.13237 0
M  V30 14754 H 1362.48 2.03642 -0.603614 0
M  V30 14755 H 1364.75 0.924702 -0.208878 0
M  V30 14756 H 1364.45 3.51203 -0.186871 0
M  V30 14757 H 1364.33 3.43357 1.5616 0
M  V30 14758 H 1366.71 2.44578 1.65123 0
M  V30 14759 H 1366.79 2.55551 -0.112921 0
M  V30 14760 H 1366.44 5.07875 0.0499835 0
M  V30 14761 H 1366.37 4.93976 1.82469 0
M  V30 14762 H 1368.86 3.66445 0.92337 0
M  V30 14763 H 1369.17 7.62197 1.27576 0
M  V30 14764 H 1367.52 6.85349 1.15418 0
M  V30 14765 H 1370.71 4.55897 1.06188 0
M  V30 14766 H 1370.88 6.36358 1.2228 0
M  V30 14767 N 1364.29 -0.50888 1.49158 0
M  V30 14768 C 1365.51 -1.28771 1.61943 0
M  V30 14769 C 1365.93 -1.86594 0.287759 0
M  V30 14770 O 1365.29 -1.67448 -0.725769 0
M  V30 14771 C 1365.34 -2.4236 2.68224 0
M  V30 14772 O 1365.06 -1.86915 3.96225 0
M  V30 14773 C 1366.56 -3.33856 2.91642 0
M  V30 14774 H 1363.78 -0.390849 0.545416 0
M  V30 14775 H 1366.32 -0.611729 1.95136 0
M  V30 14776 H 1364.48 -3.05803 2.37831 0
M  V30 14777 H 1364.89 -2.61426 4.54705 0
M  V30 14778 H 1366.37 -4.09856 3.69759 0
M  V30 14779 H 1366.84 -3.90374 2.01258 0
M  V30 14780 H 1367.45 -2.76187 3.23421 0
M  V30 14781 N 1365.76 -1.381 -0.759346 0
M  V30 14782 C 1366.71 -1.34866 -1.87296 0
M  V30 14783 C 1367.68 -0.212139 -1.6474 0
M  V30 14784 O 1368.87 -0.403464 -1.86485 0
M  V30 14785 C 1366.01 -1.17383 -3.24523 0
M  V30 14786 C 1365.12 -2.40372 -3.5895 0
M  V30 14787 C 1364.25 -2.15665 -4.8545 0
M  V30 14788 C 1363.29 -3.34455 -5.12646 0
M  V30 14789 N 1362.43 -3.0922 -6.30339 0
M  V30 14790 H 1367.27 -2.30072 -1.89396 0
M  V30 14791 H 1364.81 -1.14314 -0.925788 0
M  V30 14792 H 1366.77 -1.05264 -4.03702 0
M  V30 14793 H 1365.4 -0.258182 -3.21766 0
M  V30 14794 H 1364.45 -2.63185 -2.74659 0
M  V30 14795 H 1365.76 -3.28926 -3.74978 0
M  V30 14796 H 1364.91 -2.00649 -5.7256 0
M  V30 14797 H 1363.65 -1.24467 -4.7155 0
M  V30 14798 H 1362.66 -3.49997 -4.24007 0
M  V30 14799 H 1363.88 -4.26521 -5.28448 0
M  V30 14800 H 1361.83 -2.20664 -6.17773 0
M  V30 14801 H 1361.75 -3.91321 -6.46841 0
M  V30 14802 H 1363.01 -2.97847 -7.20352 0
M  V30 14803 N 1367.24 0.986894 -1.22875 0
M  V30 14804 C 1368.17 2.08035 -0.961971 0
M  V30 14805 C 1369.19 1.62683 0.0616475 0
M  V30 14806 O 1370.38 1.77659 -0.173094 0
M  V30 14807 C 1367.48 3.36208 -0.426302 0
M  V30 14808 C 1366.65 4.10562 -1.50856 0
M  V30 14809 C 1365.71 5.17014 -0.97891 0
M  V30 14810 O 1364.73 5.44259 -1.66645 0
M  V30 14811 N 1365.94 5.80167 0.196613 0
M  V30 14812 H 1368.7 2.315 -1.90336 0
M  V30 14813 H 1366.26 1.1531 -1.13645 0
M  V30 14814 H 1368.25 4.0466 -0.0571577 0
M  V30 14815 H 1366.82 3.09761 0.420345 0
M  V30 14816 H 1366.04 3.36656 -2.05076 0
M  V30 14817 H 1367.33 4.57007 -2.23655 0
M  V30 14818 H 1366.73 5.60409 0.771892 0
M  V30 14819 H 1365.29 6.49825 0.507083 0
M  V30 14820 N 1368.72 1.0394 1.18466 0
M  V30 14821 C 1369.68 0.633804 2.20262 0
M  V30 14822 C 1370.68 -0.308136 1.5782 0
M  V30 14823 O 1371.87 -0.0937087 1.73948 0
M  V30 14824 C 1369.01 -0.0709693 3.40826 0
M  V30 14825 H 1370.2 1.53463 2.57661 0
M  V30 14826 H 1367.75 0.831806 1.32328 0
M  V30 14827 H 1368.49 -0.985659 3.08958 0
M  V30 14828 H 1368.27 0.606023 3.87388 0
M  V30 14829 H 1369.76 -0.341298 4.16203 0
M  V30 14830 N 1370.2 -1.34667 0.818693 0
M  V30 14831 C 1371.13 -2.32134 0.252239 0
M  V30 14832 C 1372.11 -1.58044 -0.628982 0
M  V30 14833 O 1373.29 -1.86049 -0.55674 0
M  V30 14834 C 1370.42 -3.42249 -0.590183 0
M  V30 14835 C 1369.38 -4.27562 0.193547 0
M  V30 14836 C 1368.7 -5.29107 -0.771349 0
M  V30 14837 C 1370 -5.03205 1.39936 0
M  V30 14838 H 1371.7 -2.79758 1.06657 0
M  V30 14839 H 1369.24 -1.34502 0.514325 0
M  V30 14840 H 1371.2 -4.09445 -0.996616 0
M  V30 14841 H 1369.92 -2.93262 -1.43752 0
M  V30 14842 H 1368.58 -3.61962 0.581297 0
M  V30 14843 H 1368.23 -4.76384 -1.61453 0
M  V30 14844 H 1367.93 -5.87063 -0.251201 0
M  V30 14845 H 1369.45 -5.99174 -1.17573 0
M  V30 14846 H 1370.87 -5.6328 1.06717 0
M  V30 14847 H 1369.26 -5.70715 1.85485 0
M  V30 14848 H 1370.33 -4.33145 2.17976 0
M  V30 14849 N 1371.68 -0.573274 -1.46804 0
M  V30 14850 C 1372.92 -0.057823 -2.04318 0
M  V30 14851 C 1373.28 1.27424 -1.43622 0
M  V30 14852 O 1374.48 1.87835 -1.92279 0
M  V30 14853 C 1372.75 0.016823 -3.57396 0
M  V30 14854 S 1374.31 0.476068 -4.3621 0
M  V30 14855 H 1371.13 -0.0329025 -0.710238 0
M  V30 14856 H 1373.73 -0.76364 -1.79969 0
M  V30 14857 H 1372.44 -0.956757 -3.99092 0
M  V30 14858 H 1371.97 0.745702 -3.86268 0
M  V30 14859 H 1373.98 1.73268 -4.64965 0
M  V30 14860 N 1373.15 1.5451 -0.310553 0
M  V30 14861 C 1374.38 2.05204 0.301013 0
M  V30 14862 C 1374.8 1.1859 1.46007 0
M  V30 14863 O 1374.16 0.192081 1.8028 0
M  V30 14864 C 1374.21 3.53221 0.725767 0
M  V30 14865 O 1373.31 3.69596 1.82955 0
M  V30 14866 H 1372.66 0.661566 0.0568026 0
M  V30 14867 H 1375.19 1.99473 -0.455178 0
M  V30 14868 H 1375.2 3.9525 1.01198 0
M  V30 14869 H 1373.87 4.15721 -0.122046 0
M  V30 14870 H 1372.45 3.39472 1.54315 0
M  V30 14871 N 1374.63 0.0384594 1.57553 0
M  V30 14872 C 1375.88 -0.63814 1.92182 0
M  V30 14873 C 1376.21 -1.71595 0.915714 0
M  V30 14874 O 1375.46 -1.9556 -0.0739533 0
M  V30 14875 C 1375.76 -1.28439 3.33524 0
M  V30 14876 C 1375.43 -0.336034 4.49646 0
M  V30 14877 C 1374.09 -0.0750373 4.81141 0
M  V30 14878 C 1376.44 0.314642 5.20249 0
M  V30 14879 C 1373.77 0.844286 5.80593 0
M  V30 14880 C 1376.12 1.22208 6.20684 0
M  V30 14881 C 1374.79 1.49187 6.50615 0
M  V30 14882 H 1374.06 -0.233512 0.703245 0
M  V30 14883 H 1376.7 0.102223 1.91227 0
M  V30 14884 H 1375.01 -2.09973 3.30785 0
M  V30 14885 H 1376.71 -1.81462 3.57593 0
M  V30 14886 H 1373.3 -0.549638 4.25061 0
M  V30 14887 H 1377.48 0.126074 4.9614 0
M  V30 14888 H 1372.74 1.06092 6.02125 0
M  V30 14889 H 1376.91 1.7324 6.74508 0
M  V30 14890 H 1374.54 2.20588 7.27492 0
M  V30 14891 N 1376.11 -1.55841 -0.234795 0
M  V30 14892 C 1377.36 -1.78238 -0.961116 0
M  V30 14893 C 1377.69 -0.604919 -1.84854 0
M  V30 14894 O 1376.94 0.411289 -1.91329 0
M  V30 14895 C 1377.24 -3.06262 -1.84223 0
M  V30 14896 C 1376.91 -4.37045 -1.10916 0
M  V30 14897 C 1375.57 -4.72582 -0.906606 0
M  V30 14898 C 1377.92 -5.17844 -0.59049 0
M  V30 14899 C 1375.25 -5.86444 -0.173275 0
M  V30 14900 C 1377.6 -6.32468 0.129433 0
M  V30 14901 C 1376.26 -6.66616 0.343357 0
M  V30 14902 H 1375.53 -0.652219 -0.351697 0
M  V30 14903 H 1378.18 -1.9011 -0.230272 0
M  V30 14904 H 1376.49 -2.89454 -2.64052 0
M  V30 14905 H 1378.18 -3.20791 -2.40612 0
M  V30 14906 H 1374.77 -4.09134 -1.27699 0
M  V30 14907 H 1378.96 -4.90835 -0.734487 0
M  V30 14908 H 1374.21 -6.114 0.00282409 0
M  V30 14909 H 1378.39 -6.94312 0.538905 0
M  V30 14910 H 1376.01 -7.54691 0.913538 0
M  V30 14911 N 1377.59 0.500963 -1.49426 0
M  V30 14912 C 1378.81 1.28383 -1.62888 0
M  V30 14913 C 1379.24 1.85688 -0.300262 0
M  V30 14914 O 1378.6 1.6586 0.73212 0
M  V30 14915 C 1378.65 2.38987 -2.70033 0
M  V30 14916 O 1377.75 3.42837 -2.29208 0
M  V30 14917 H 1377.09 0.379012 -0.545202 0
M  V30 14918 H 1379.62 0.59971 -1.95613 0
M  V30 14919 H 1379.63 2.84749 -2.92202 0
M  V30 14920 H 1378.31 1.96643 -3.66475 0
M  V30 14921 H 1376.88 3.02993 -2.1737 0
M  V30 14922 N 1379.07 1.38501 0.752011 0
M  V30 14923 C 1380.48 1.19733 1.05529 0
M  V30 14924 C 1380.68 0.047088 2.01445 0
M  V30 14925 O 1379.74 -0.606645 2.45104 0
M  V30 14926 C 1381.05 2.52439 1.63386 0
M  V30 14927 C 1382.6 2.59136 1.7555 0
M  V30 14928 C 1383.08 3.92022 2.36819 0
M  V30 14929 N 1384.57 3.9357 2.44248 0
M  V30 14930 C 1385.3 4.93154 2.92553 0
M  V30 14931 N 1384.8 6.03135 3.40882 0
M  V30 14932 N 1386.59 4.80543 2.91607 0
M  V30 14933 H 1378.74 2.12085 0.115543 0
M  V30 14934 H 1381 0.941134 0.113888 0
M  V30 14935 H 1380.71 3.37072 1.00376 0
M  V30 14936 H 1380.58 2.70947 2.62427 0
M  V30 14937 H 1382.97 1.74897 2.37687 0
M  V30 14938 H 1383.05 2.44494 0.752092 0
M  V30 14939 H 1382.7 4.76684 1.75314 0
M  V30 14940 H 1382.63 4.03976 3.37803 0
M  V30 14941 H 1385.12 3.14133 2.10068 0
M  V30 14942 H 1385.43 6.7505 3.76201 0
M  V30 14943 H 1383.78 6.06752 3.38935 0
M  V30 14944 H 1386.97 3.93733 2.53163 0
M  V30 14945 H 1387.14 5.58303 3.28941 0
M  V30 14946 N 1380.55 -0.980364 1.23396 0
M  V30 14947 C 1381.77 -1.76223 1.09363 0
M  V30 14948 C 1382.2 -1.84801 -0.350759 0
M  V30 14949 O 1381.55 -1.30966 -1.2537 0
M  V30 14950 C 1381.6 -3.16728 1.72383 0
M  V30 14951 O 1380.71 -4.00439 0.986002 0
M  V30 14952 H 1380.05 -0.542174 0.383332 0
M  V30 14953 H 1382.58 -1.23066 1.6345 0
M  V30 14954 H 1382.59 -3.67307 1.77623 0
M  V30 14955 H 1381.26 -3.098 2.77483 0
M  V30 14956 H 1379.84 -3.58946 1.01054 0
M  V30 14957 N 1382.02 -1.04567 -1.17913 0
M  V30 14958 C 1383.26 -0.760977 -1.89706 0
M  V30 14959 C 1383.63 0.698804 -1.78832 0
M  V30 14960 O 1384.83 1.09733 -2.45382 0
M  V30 14961 C 1383.1 -1.22042 -3.35917 0
M  V30 14962 S 1384.66 -1.06214 -4.25751 0
M  V30 14963 H 1381.48 -0.276538 -0.655017 0
M  V30 14964 H 1384.08 -1.339 -1.42446 0
M  V30 14965 H 1382.78 -2.27813 -3.41364 0
M  V30 14966 H 1382.31 -0.636401 -3.88218 0
M  V30 14967 H 1384.33 0.0174486 -4.96197 0
M  V30 14968 N 1383.5 1.34231 -0.825823 0
M  V30 14969 C 1384.91 1.8059 -0.473724 0
M  V30 14970 C 1385.26 1.68438 1.00614 0
M  V30 14971 O 1384.39 1.22606 1.78317 0
M  V30 14972 C 1384.98 3.27884 -0.853099 0
M  V30 14973 C 1383.54 3.72311 -0.553327 0
M  V30 14974 C 1382.69 2.55889 -1.06845 0
M  V30 14975 H 1385.64 1.21937 -1.01573 0
M  V30 14976 H 1385.66 3.80172 -0.158014 0
M  V30 14977 H 1385.17 3.36696 -1.93021 0
M  V30 14978 H 1383.27 3.69034 0.514256 0
M  V30 14979 H 1383.39 4.66315 -1.09942 0
M  V30 14980 H 1381.75 2.49945 -0.489874 0
M  V30 14981 H 1382.53 2.67471 -2.15207 0
M  V30 14982 N 1384.98 0.581051 1.46498 0
M  V30 14983 C 1386.23 0.0659956 2.02392 0
M  V30 14984 C 1386.55 -1.29329 1.45273 0
M  V30 14985 O 1385.81 -1.86047 0.607041 0
M  V30 14986 C 1386.11 -0.0514774 3.57363 0
M  V30 14987 C 1385.77 1.24 4.33514 0
M  V30 14988 C 1384.44 1.59383 4.54038 0
M  V30 14989 C 1386.79 2.09473 4.77253 0
M  V30 14990 C 1384.12 2.8004 5.15552 0
M  V30 14991 C 1386.47 3.29355 5.401 0
M  V30 14992 C 1385.13 3.65022 5.58852 0
M  V30 14993 H 1384.4 0.0241495 0.740606 0
M  V30 14994 H 1387.05 0.757354 1.75887 0
M  V30 14995 H 1385.35 -0.825955 3.82995 0
M  V30 14996 H 1387.05 -0.465726 3.98286 0
M  V30 14997 H 1383.64 0.954547 4.17835 0
M  V30 14998 H 1387.83 1.83441 4.61154 0
M  V30 14999 H 1383.08 3.07814 5.28262 0
M  V30 15000 H 1387.26 3.95855 5.7295 0
M  V30 15001 H 1384.88 4.58607 6.06287 0
M  V30 15002 N 1386.46 -1.54343 0.318742 0
M  V30 15003 C 1387.87 -1.85922 -0.170309 0
M  V30 15004 C 1388.22 -1.24047 -1.52009 0
M  V30 15005 O 1387.34 -0.544705 -2.09432 0
M  V30 15006 C 1387.94 -3.37325 -0.315802 0
M  V30 15007 C 1386.5 -3.68871 -0.749073 0
M  V30 15008 C 1385.65 -2.76985 0.13209 0
M  V30 15009 H 1388.6 -1.4926 0.539185 0
M  V30 15010 H 1388.62 -3.62784 -1.14751 0
M  V30 15011 H 1388.13 -3.8233 0.66674 0
M  V30 15012 H 1386.23 -3.29396 -1.74153 0
M  V30 15013 H 1386.34 -4.75861 -0.556164 0
M  V30 15014 H 1384.71 -2.51672 -0.391564 0
M  V30 15015 H 1385.49 -3.24815 1.11131 0
M  V30 15016 N 1387.94 -0.0468143 -1.5753 0
M  V30 15017 C 1388.87 0.958157 -2.08211 0
M  V30 15018 C 1389.88 1.27757 -1.00906 0
M  V30 15019 O 1391.07 1.23913 -1.28483 0
M  V30 15020 C 1388.17 2.28088 -2.50657 0
M  V30 15021 C 1387.34 2.14403 -3.81248 0
M  V30 15022 C 1386.4 3.29761 -4.10054 0
M  V30 15023 O 1385.43 3.05859 -4.8004 0
M  V30 15024 N 1386.63 4.54104 -3.61621 0
M  V30 15025 H 1389.39 0.525612 -2.95055 0
M  V30 15026 H 1386.96 0.139532 -1.61298 0
M  V30 15027 H 1388.95 3.04121 -2.67007 0
M  V30 15028 H 1387.52 2.62924 -1.69085 0
M  V30 15029 H 1386.74 1.22988 -3.74523 0
M  V30 15030 H 1388.03 2.02482 -4.66775 0
M  V30 15031 H 1387.42 4.76414 -3.05034 0
M  V30 15032 H 1385.98 5.27246 -3.83217 0
M  V30 15033 N 1389.41 1.55964 0.226527 0
M  V30 15034 C 1390.83 1.68978 0.793936 0
M  V30 15035 C 1391.18 0.647938 1.85192 0
M  V30 15036 O 1390.3 -0.201907 2.15456 0
M  V30 15037 C 1390.9 3.06351 1.44687 0
M  V30 15038 C 1389.46 3.21237 1.96173 0
M  V30 15039 C 1388.6 2.64896 0.8201 0
M  V30 15040 H 1391.55 1.587 0.00195967 0
M  V30 15041 H 1391.57 3.01932 2.31554 0
M  V30 15042 H 1391.09 3.82156 0.676611 0
M  V30 15043 H 1389.19 2.50292 2.76016 0
M  V30 15044 H 1389.3 4.28394 2.14512 0
M  V30 15045 H 1387.66 2.23247 1.22609 0
M  V30 15046 H 1388.45 3.43243 0.0625967 0
M  V30 15047 N 1390.89 -0.493031 1.4969 0
M  V30 15048 C 1391.84 -1.59367 1.66945 0
M  V30 15049 C 1392.81 -1.58049 0.510842 0
M  V30 15050 O 1393.99 -1.75915 0.738822 0
M  V30 15051 C 1391.13 -2.97472 1.74941 0
M  V30 15052 C 1390.25 -3.08745 3.02159 0
M  V30 15053 C 1389.38 -4.37632 3.01085 0
M  V30 15054 C 1388.42 -4.42567 4.22849 0
M  V30 15055 N 1387.56 -5.62892 4.19639 0
M  V30 15056 H 1392.4 -1.4396 2.6092 0
M  V30 15057 H 1389.94 -0.700297 1.29361 0
M  V30 15058 H 1391.89 -3.7753 1.77558 0
M  V30 15059 H 1390.52 -3.11564 0.844252 0
M  V30 15060 H 1389.58 -2.217 3.09117 0
M  V30 15061 H 1390.89 -3.08251 3.92151 0
M  V30 15062 H 1390.04 -5.26018 3.02309 0
M  V30 15063 H 1388.78 -4.40702 2.08885 0
M  V30 15064 H 1387.79 -3.52581 4.21861 0
M  V30 15065 H 1389.01 -4.41205 5.1625 0
M  V30 15066 H 1386.96 -5.6679 3.30281 0
M  V30 15067 H 1386.87 -5.64048 5.03374 0
M  V30 15068 H 1388.14 -6.53464 4.24977 0
M  V30 15069 N 1392.37 -1.38898 -0.744656 0
M  V30 15070 C 1393.33 -1.36633 -1.84022 0
M  V30 15071 C 1394.33 -0.265187 -1.58598 0
M  V30 15072 O 1395.52 -0.522569 -1.66177 0
M  V30 15073 C 1392.66 -1.12938 -3.21649 0
M  V30 15074 H 1393.85 -2.34111 -1.87435 0
M  V30 15075 H 1391.4 -1.24322 -0.947302 0
M  V30 15076 H 1392.14 -0.161027 -3.239 0
M  V30 15077 H 1391.92 -1.9267 -3.41498 0
M  V30 15078 H 1393.41 -1.14071 -4.01718 0
M  V30 15079 N 1393.85 0.973806 -1.23914 0
M  V30 15080 C 1394.76 2.10138 -1.04304 0
M  V30 15081 C 1395.77 1.73994 0.0143888 0
M  V30 15082 O 1396.95 2.00572 -0.182481 0
M  V30 15083 C 1394.02 3.40673 -0.643639 0
M  V30 15084 C 1393.08 3.90802 -1.77686 0
M  V30 15085 C 1392.31 5.15108 -1.39642 0
M  V30 15086 O 1392.53 5.69695 -0.283546 0
M  V30 15087 O 1391.47 5.59468 -2.21988 0
M  V30 15088 H 1395.29 2.29574 -1.9882 0
M  V30 15089 H 1392.88 1.08524 -1.02679 0
M  V30 15090 H 1394.76 4.19178 -0.432145 0
M  V30 15091 H 1393.43 3.22551 0.272458 0
M  V30 15092 H 1392.34 3.13385 -2.04305 0
M  V30 15093 H 1393.67 4.1339 -2.67151 0
M  V30 15094 N 1395.33 1.05191 1.17357 0
M  V30 15095 C 1396.74 0.788105 1.69251 0
M  V30 15096 C 1397.09 -0.689717 1.83677 0
M  V30 15097 O 1396.21 -1.53601 1.52433 0
M  V30 15098 C 1396.81 1.42401 3.07421 0
M  V30 15099 C 1395.37 1.20825 3.5648 0
M  V30 15100 C 1394.51 1.50756 2.3274 0
M  V30 15101 H 1397.47 1.21686 1.01874 0
M  V30 15102 H 1397.49 0.833285 3.71264 0
M  V30 15103 H 1397 2.49958 2.96889 0
M  V30 15104 H 1395.1 0.15193 3.7229 0
M  V30 15105 H 1395.21 1.91319 4.39242 0
M  V30 15106 H 1393.58 0.927649 2.37206 0
M  V30 15107 H 1394.36 2.59446 2.24817 0
M  V30 15108 N 1396.8 -1.33791 0.83293 0
M  V30 15109 C 1397.71 -2.33108 0.264169 0
M  V30 15110 C 1398.73 -1.6308 -0.606694 0
M  V30 15111 O 1399.91 -1.94777 -0.512225 0
M  V30 15112 C 1396.97 -3.42208 -0.556315 0
M  V30 15113 C 1396.03 -4.27966 0.338123 0
M  V30 15114 C 1395.27 -5.31856 -0.443297 0
M  V30 15115 O 1395.49 -5.45234 -1.6756 0
M  V30 15116 O 1394.42 -6.01632 0.179599 0
M  V30 15117 H 1398.25 -2.83602 1.08645 0
M  V30 15118 H 1395.83 -1.37027 0.595307 0
M  V30 15119 H 1397.72 -4.088 -1.02277 0
M  V30 15120 H 1396.39 -2.9394 -1.35575 0
M  V30 15121 H 1395.3 -3.64262 0.852293 0
M  V30 15122 H 1396.63 -4.79701 1.10217 0
M  V30 15123 N 1398.28 -0.588812 -1.46187 0
M  V30 15124 C 1399.21 0.128595 -2.33146 0
M  V30 15125 C 1400.19 0.877608 -1.45712 0
M  V30 15126 O 1401.38 0.851866 -1.74519 0
M  V30 15127 C 1398.51 1.13886 -3.28096 0
M  V30 15128 C 1397.46 0.504296 -4.25019 0
M  V30 15129 C 1396.79 1.62147 -5.09522 0
M  V30 15130 C 1398.09 -0.562466 -5.19263 0
M  V30 15131 H 1399.78 -0.597455 -2.93378 0
M  V30 15132 H 1397.33 -0.288764 -1.41075 0
M  V30 15133 H 1399.28 1.64916 -3.8779 0
M  V30 15134 H 1398.01 1.89527 -2.65983 0
M  V30 15135 H 1396.66 0.0150325 -3.66597 0
M  V30 15136 H 1396.31 2.36769 -4.4379 0
M  V30 15137 H 1396.01 1.20249 -5.75164 0
M  V30 15138 H 1397.54 2.13441 -5.7208 0
M  V30 15139 H 1398.95 -0.137003 -5.73136 0
M  V30 15140 H 1397.35 -0.902115 -5.93281 0
M  V30 15141 H 1398.42 -1.4464 -4.62825 0
M  V30 15142 N 1399.76 1.54172 -0.326923 0
M  V30 15143 C 1401.01 2.00926 0.275047 0
M  V30 15144 C 1401.34 1.21469 1.51522 0
M  V30 15145 O 1400.61 0.297871 1.92206 0
M  V30 15146 C 1400.9 3.54967 0.605833 0
M  V30 15147 C 1400.75 4.45147 -0.645279 0
M  V30 15148 C 1402.07 4.16489 1.42213 0
M  V30 15149 H 1399.19 0.730389 0.098495 0
M  V30 15150 H 1401.83 1.84735 -0.444168 0
M  V30 15151 H 1399.98 3.68895 1.21857 0
M  V30 15152 H 1401.65 4.43085 -1.2835 0
M  V30 15153 H 1399.9 4.14686 -1.27349 0
M  V30 15154 H 1400.57 5.50763 -0.36932 0
M  V30 15155 H 1403.04 4.06158 0.904172 0
M  V30 15156 H 1401.92 5.24377 1.62234 0
M  V30 15157 H 1402.18 3.70032 2.41928 0
M  V30 15158 N 1401.24 0.0551678 1.57503 0
M  V30 15159 C 1402.48 -0.618636 1.93134 0
M  V30 15160 C 1402.82 -1.70258 0.934125 0
M  V30 15161 O 1402.09 -1.9446 -0.0392699 0
M  V30 15162 C 1402.38 -1.21103 3.39126 0
M  V30 15163 C 1402.23 -0.134865 4.49598 0
M  V30 15164 C 1403.55 -2.12148 3.85592 0
M  V30 15165 H 1400.67 -0.223416 0.702321 0
M  V30 15166 H 1403.31 0.117748 1.89635 0
M  V30 15167 H 1401.46 -1.83862 3.42238 0
M  V30 15168 H 1403.13 0.497292 4.58612 0
M  V30 15169 H 1401.37 0.536587 4.30469 0
M  V30 15170 H 1402.04 -0.589447 5.48844 0
M  V30 15171 H 1404.52 -1.59346 3.8438 0
M  V30 15172 H 1403.4 -2.50539 4.88387 0
M  V30 15173 H 1403.66 -3.02318 3.22578 0
M  V30 15174 N 1402.72 -1.56081 -0.218252 0
M  V30 15175 C 1403.66 -1.92684 -1.27049 0
M  V30 15176 C 1404.63 -0.784441 -1.46409 0
M  V30 15177 O 1405.82 -1.04062 -1.59924 0
M  V30 15178 C 1402.96 -2.25174 -2.61516 0
M  V30 15179 C 1402.07 -3.52364 -2.49927 0
M  V30 15180 C 1401.21 -3.74286 -3.7694 0
M  V30 15181 C 1400.25 -4.94979 -3.60087 0
M  V30 15182 N 1399.38 -5.13273 -4.79057 0
M  V30 15183 H 1404.22 -2.82406 -0.951347 0
M  V30 15184 H 1401.76 -1.39774 -0.458441 0
M  V30 15185 H 1403.72 -2.42022 -3.39825 0
M  V30 15186 H 1402.35 -1.38621 -2.9152 0
M  V30 15187 H 1401.4 -3.43691 -1.63036 0
M  V30 15188 H 1402.71 -4.40826 -2.33397 0
M  V30 15189 H 1401.87 -3.91248 -4.63692 0
M  V30 15190 H 1400.6 -2.84111 -3.96399 0
M  V30 15191 H 1399.61 -4.77963 -2.71719 0
M  V30 15192 H 1400.83 -5.86641 -3.42095 0
M  V30 15193 H 1398.78 -4.26041 -4.98824 0
M  V30 15194 H 1398.7 -5.95873 -4.65265 0
M  V30 15195 H 1399.97 -5.34673 -5.67226 0
M  V30 15196 N 1404.2 0.485086 -1.49949 0
M  V30 15197 C 1405.13 1.59312 -1.7071 0
M  V30 15198 C 1406.11 1.6076 -0.555896 0
M  V30 15199 O 1407.29 1.77249 -0.793504 0
M  V30 15200 C 1404.42 2.97718 -1.78834 0
M  V30 15201 C 1403.38 3.11136 -2.93902 0
M  V30 15202 C 1402.7 4.51051 -2.87154 0
M  V30 15203 C 1404 2.89665 -4.34617 0
M  V30 15204 H 1405.7 1.42192 -2.6348 0
M  V30 15205 H 1403.24 0.68262 -1.26792 0
M  V30 15206 H 1405.19 3.75148 -1.91943 0
M  V30 15207 H 1403.92 3.15963 -0.826744 0
M  V30 15208 H 1402.58 2.36135 -2.80421 0
M  V30 15209 H 1402.23 4.66195 -1.88869 0
M  V30 15210 H 1401.93 4.60967 -3.64394 0
M  V30 15211 H 1403.45 5.3052 -3.02293 0
M  V30 15212 H 1404.86 3.56853 -4.48697 0
M  V30 15213 H 1403.26 3.11039 -5.13201 0
M  V30 15214 H 1404.33 1.85642 -4.47956 0
M  V30 15215 N 1405.67 1.39291 0.737279 0
M  V30 15216 C 1407.08 1.32489 1.31543 0
M  V30 15217 C 1407.44 -0.0118162 1.96196 0
M  V30 15218 O 1406.56 -0.913938 1.96153 0
M  V30 15219 C 1407.16 2.39946 2.39189 0
M  V30 15220 C 1405.71 2.36671 2.92684 0
M  V30 15221 C 1404.86 2.21953 1.66229 0
M  V30 15222 H 1407.81 1.49412 0.534954 0
M  V30 15223 H 1407.83 2.06603 3.19524 0
M  V30 15224 H 1407.35 3.3722 1.92104 0
M  V30 15225 H 1405.45 1.43028 3.44055 0
M  V30 15226 H 1405.56 3.31441 3.45953 0
M  V30 15227 H 1403.92 1.69087 1.90478 0
M  V30 15228 H 1404.71 3.21194 1.21199 0
M  V30 15229 N 1407.15 -0.967221 1.24429 0
M  V30 15230 C 1408.08 -2.07966 1.06172 0
M  V30 15231 C 1409.06 -1.70081 -0.0254566 0
M  V30 15232 O 1410.25 -1.93682 0.141705 0
M  V30 15233 C 1407.38 -3.4085 0.666251 0
M  V30 15234 C 1406.33 -3.92692 1.70225 0
M  V30 15235 C 1405.66 -5.21925 1.16183 0
M  V30 15236 C 1406.96 -4.20478 3.09831 0
M  V30 15237 H 1408.65 -2.23497 1.99222 0
M  V30 15238 H 1406.2 -1.07398 0.959255 0
M  V30 15239 H 1408.15 -4.1811 0.52552 0
M  V30 15240 H 1406.87 -3.2522 -0.299939 0
M  V30 15241 H 1405.53 -3.17588 1.83121 0
M  V30 15242 H 1405.18 -5.02655 0.186237 0
M  V30 15243 H 1404.88 -5.57579 1.85416 0
M  V30 15244 H 1406.41 -6.01795 1.03323 0
M  V30 15245 H 1407.82 -4.88442 3.00162 0
M  V30 15246 H 1406.22 -4.67362 3.7642 0
M  V30 15247 H 1407.29 -3.27235 3.57834 0
M  V30 15248 N 1408.63 -1.05812 -1.16797 0
M  V30 15249 C 1409.85 -0.792518 -1.91661 0
M  V30 15250 C 1410.28 0.646598 -1.76637 0
M  V30 15251 O 1409.64 1.44998 -1.08836 0
M  V30 15252 C 1409.69 -1.18585 -3.40544 0
M  V30 15253 O 1408.79 -0.321716 -4.11143 0
M  V30 15254 H 1408.13 -0.290066 -0.597292 0
M  V30 15255 H 1410.66 -1.41263 -1.48007 0
M  V30 15256 H 1410.67 -1.1553 -3.91301 0
M  V30 15257 H 1409.35 -2.23413 -3.50798 0
M  V30 15258 H 1407.92 -0.413403 -3.70601 0
M  V30 15259 N 1410.11 1.33347 -0.840014 0
M  V30 15260 C 1411.33 2.02485 -0.448856 0
M  V30 15261 C 1411.76 1.62781 0.942543 0
M  V30 15262 O 1411.12 0.82099 1.61646 0
M  V30 15263 C 1411.16 3.55928 -0.578582 0
M  V30 15264 O 1410.27 4.10507 0.394695 0
M  V30 15265 H 1409.61 0.63848 -0.182317 0
M  V30 15266 H 1412.14 1.70221 -1.13516 0
M  V30 15267 H 1412.15 4.05391 -0.460653 0
M  V30 15268 H 1410.82 3.8417 -1.5933 0
M  V30 15269 H 1409.4 3.72164 0.234227 0
M  V30 15270 N 1411.59 0.596556 1.45873 0
M  V30 15271 C 1412.81 0.0916466 2.07197 0
M  V30 15272 C 1413.24 -1.21004 1.44012 0
M  V30 15273 O 1412.59 -1.73415 0.528844 0
M  V30 15274 C 1412.64 -0.0461457 3.6057 0
M  V30 15275 O 1411.75 -1.09919 3.97481 0
M  V30 15276 H 1411.09 0.0690655 0.660398 0
M  V30 15277 H 1413.62 0.823434 1.87299 0
M  V30 15278 H 1413.63 -0.2479 4.07246 0
M  V30 15279 H 1412.3 0.904381 4.05948 0
M  V30 15280 H 1410.88 -0.874788 3.62494 0
M  V30 15281 N 1413.06 -1.53996 0.335095 0
M  V30 15282 C 1414.01 -2.24736 -0.52559 0
M  V30 15283 C 1414.98 -1.24244 -1.10239 0
M  V30 15284 O 1416.17 -1.52955 -1.14058 0
M  V30 15285 C 1413.31 -3.01732 -1.67487 0
M  V30 15286 C 1412.42 -4.17062 -1.1262 0
M  V30 15287 C 1411.55 -4.81563 -2.2421 0
M  V30 15288 C 1410.59 -5.88977 -1.6665 0
M  V30 15289 N 1409.73 -6.47293 -2.71949 0
M  V30 15290 H 1414.57 -2.97881 0.0842008 0
M  V30 15291 H 1412.11 -1.47003 0.0533254 0
M  V30 15292 H 1414.06 -3.44626 -2.35135 0
M  V30 15293 H 1412.69 -2.30899 -2.25578 0
M  V30 15294 H 1411.75 -3.78869 -0.340917 0
M  V30 15295 H 1413.06 -4.94346 -0.665113 0
M  V30 15296 H 1412.21 -5.27486 -2.9974 0
M  V30 15297 H 1410.95 -4.03685 -2.73659 0
M  V30 15298 H 1409.96 -5.42446 -0.89623 0
M  V30 15299 H 1411.18 -6.68758 -1.18064 0
M  V30 15300 H 1409.13 -5.72283 -3.20668 0
M  V30 15301 H 1409.04 -7.20024 -2.30438 0
M  V30 15302 H 1410.31 -6.97869 -3.47273 0
M  V30 15303 N 1414.54 -0.0635198 -1.57472 0
M  V30 15304 C 1415.5 0.891881 -2.11135 0
M  V30 15305 C 1416.5 1.23182 -1.03358 0
M  V30 15306 O 1417.69 1.16646 -1.2938 0
M  V30 15307 C 1414.83 2.19792 -2.60584 0
M  V30 15308 H 1416.02 0.426461 -2.96852 0
M  V30 15309 H 1413.57 0.185069 -1.552 0
M  V30 15310 H 1414.31 2.70889 -1.78297 0
M  V30 15311 H 1414.09 1.96419 -3.39355 0
M  V30 15312 H 1415.58 2.88203 -3.02206 0
M  V30 15313 N 1416.02 1.56195 0.209972 0
M  V30 15314 C 1416.93 1.96539 1.28101 0
M  V30 15315 C 1417.95 0.870858 1.50639 0
M  V30 15316 O 1419.12 1.17539 1.63544 0
M  V30 15317 C 1416.19 2.28392 2.60841 0
M  V30 15318 C 1415.25 3.51474 2.46505 0
M  V30 15319 C 1414.48 3.81798 3.72915 0
M  V30 15320 O 1414.7 3.13627 4.76439 0
M  V30 15321 O 1413.64 4.75264 3.69334 0
M  V30 15322 H 1417.46 2.87838 0.968671 0
M  V30 15323 H 1415.05 1.43556 0.413777 0
M  V30 15324 H 1416.93 2.50022 3.39215 0
M  V30 15325 H 1415.61 1.40264 2.91732 0
M  V30 15326 H 1414.51 3.35109 1.66292 0
M  V30 15327 H 1415.85 4.40021 2.2055 0
M  V30 15328 N 1417.5 -0.477127 1.50204 0
M  V30 15329 C 1418.45 -1.59664 1.69145 0
M  V30 15330 C 1419.44 -1.59971 0.557294 0
M  V30 15331 O 1420.65 -1.64192 0.737623 0
M  V30 15332 H 1417.02 -0.529706 0.533775 0
M  V30 15333 H 1418.99 -1.40848 2.63067 0
M  V30 15334 C 1417.74 -2.97647 1.79726 0
M  V30 15335 H 1417.06 -2.98127 2.66383 0
M  V30 15336 H 1418.5 -3.75453 1.97006 0
M  V30 15337 C 1416.96 -3.32422 0.547464 0
M  V30 15338 O 1417.49 -4.00454 -0.316115 0
M  V30 15339 N 1415.7 -2.87788 0.40328 0
M  V30 15340 H 1415.25 -2.32598 1.10706 0
M  V30 15341 H 1415.2 -3.11421 -0.431797 0
M  V30 15342 N 1418.98 -1.3968 -0.729882 0
M  V30 15343 C 1419.93 -1.35296 -1.83518 0
M  V30 15344 C 1420.91 -0.232935 -1.59205 0
M  V30 15345 O 1422.1 -0.470887 -1.70621 0
M  V30 15346 C 1419.23 -1.20383 -3.21501 0
M  V30 15347 C 1418.32 -2.37108 -3.51626 0
M  V30 15348 N 1418.71 -3.62585 -3.52655 0
M  V30 15349 C 1417.01 -2.30177 -3.82014 0
M  V30 15350 C 1417.71 -4.39803 -3.8072 0
M  V30 15351 N 1416.68 -3.69456 -3.98752 0
M  V30 15352 H 1420.49 -2.30271 -1.82627 0
M  V30 15353 H 1418 -1.33249 -0.92836 0
M  V30 15354 H 1420 -1.15325 -4.00632 0
M  V30 15355 H 1418.66 -0.263628 -3.23628 0
M  V30 15356 H 1419.67 -3.9594 -3.33845 0
M  V30 15357 H 1416.34 -1.44446 -3.91716 0
M  V30 15358 H 1417.73 -5.4859 -3.87941 0
M  V30 15359 N 1420.45 0.960609 -1.2494 0
M  V30 15360 C 1421.7 1.69884 -1.08731 0
M  V30 15361 C 1422.02 1.92018 0.372602 0
M  V30 15362 O 1423.22 2.6348 0.655018 0
M  V30 15363 C 1421.68 3.05815 -1.8975 0
M  V30 15364 C 1421.29 2.91498 -3.40196 0
M  V30 15365 C 1423.03 3.83462 -1.82092 0
M  V30 15366 C 1420.94 4.22783 -4.13532 0
M  V30 15367 H 1419.87 0.637087 -0.403281 0
M  V30 15368 H 1422.52 1.06987 -1.49084 0
M  V30 15369 H 1420.9 3.69582 -1.42216 0
M  V30 15370 H 1422.07 2.367 -3.9536 0
M  V30 15371 H 1420.39 2.27312 -3.48882 0
M  V30 15372 H 1422.99 4.8069 -2.34181 0
M  V30 15373 H 1423.33 4.08782 -0.787597 0
M  V30 15374 H 1423.86 3.26435 -2.27344 0
M  V30 15375 H 1420.6 4.02653 -5.17253 0
M  V30 15376 H 1420.12 4.77369 -3.63152 0
M  V30 15377 H 1421.8 4.91361 -4.2092 0
M  V30 15378 N 1421.93 1.0643 1.16234 0
M  V30 15379 C 1422.9 0.680383 2.18869 0
M  V30 15380 C 1423.9 -0.274591 1.58438 0
M  V30 15381 O 1425.09 -0.0567907 1.74107 0
M  V30 15382 C 1422.22 0.00134091 3.409 0
M  V30 15383 H 1423.41 1.58894 2.54347 0
M  V30 15384 H 1420.96 0.859688 1.30534 0
M  V30 15385 H 1421.7 -0.919903 3.1098 0
M  V30 15386 H 1421.48 0.688057 3.86016 0
M  V30 15387 H 1422.97 -0.252938 4.16833 0
M  V30 15388 N 1423.41 -1.329 0.847073 0
M  V30 15389 C 1424.37 -2.27341 0.291324 0
M  V30 15390 C 1425.37 -1.51295 -0.544653 0
M  V30 15391 O 1426.56 -1.70497 -0.357258 0
M  V30 15392 C 1423.7 -3.35779 -0.588668 0
M  V30 15393 H 1424.89 -2.78009 1.12477 0
M  V30 15394 H 1422.44 -1.43442 0.620803 0
M  V30 15395 H 1423.18 -2.90366 -1.44423 0
M  V30 15396 H 1422.96 -3.92099 0.00960515 0
M  V30 15397 H 1424.45 -4.06166 -0.970526 0
M  V30 15398 N 1424.89 -0.604284 -1.45555 0
M  V30 15399 C 1425.84 0.129013 -2.32242 0
M  V30 15400 C 1426.83 0.862933 -1.45773 0
M  V30 15401 O 1428.04 0.778874 -1.62276 0
M  V30 15402 H 1424.41 0.0604661 -0.749565 0
M  V30 15403 H 1426.38 -0.620603 -2.91875 0
M  V30 15404 C 1425.13 1.11516 -3.29332 0
M  V30 15405 H 1424.45 0.559849 -3.95861 0
M  V30 15406 H 1425.89 1.59824 -3.92724 0
M  V30 15407 C 1424.35 2.18706 -2.5626 0
M  V30 15408 O 1424.88 3.26397 -2.34154 0
M  V30 15409 N 1423.09 1.93899 -2.16452 0
M  V30 15410 H 1422.64 1.0633 -2.34631 0
M  V30 15411 H 1422.59 2.65824 -1.67884 0
M  V30 15412 N 1426.37 1.53816 -0.343257 0
M  V30 15413 C 1427.59 2.05326 0.254744 0
M  V30 15414 C 1428.01 1.21824 1.44237 0
M  V30 15415 O 1427.37 0.253507 1.80731 0
M  V30 15416 C 1427.42 3.55235 0.670075 0
M  V30 15417 O 1427.14 4.35568 -0.470322 0
M  V30 15418 C 1428.64 4.22915 1.32882 0
M  V30 15419 H 1425.86 0.669191 0.0492324 0
M  V30 15420 H 1428.4 1.98415 -0.495159 0
M  V30 15421 H 1426.56 3.6237 1.36992 0
M  V30 15422 H 1426.97 5.24315 -0.139303 0
M  V30 15423 H 1428.45 5.29197 1.57019 0
M  V30 15424 H 1428.92 3.75244 2.28229 0
M  V30 15425 H 1429.53 4.19973 0.67102 0
M  V30 15426 N 1427.84 0.0718701 1.57436 0
M  V30 15427 C 1428.81 -0.880671 2.11605 0
M  V30 15428 C 1429.81 -1.22632 1.0401 0
M  V30 15429 O 1431 -1.15958 1.29997 0
M  V30 15430 C 1428.13 -2.18407 2.61746 0
M  V30 15431 H 1429.32 -0.410712 2.97074 0
M  V30 15432 H 1426.88 -0.176836 1.55296 0
M  V30 15433 H 1427.61 -2.6994 1.79731 0
M  V30 15434 H 1427.4 -1.94616 3.40392 0
M  V30 15435 H 1428.89 -2.86596 3.03731 0
M  V30 15436 N 1429.32 -1.56304 -0.201686 0
M  V30 15437 C 1430.74 -1.49741 -0.552247 0
M  V30 15438 C 1430.94 -0.770683 -1.86179 0
M  V30 15439 O 1429.99 -0.318489 -2.50483 0
M  V30 15440 C 1431.31 -2.94384 -0.613083 0
M  V30 15441 C 1432.86 -3.05018 -0.702365 0
M  V30 15442 C 1433.33 -4.51058 -0.794371 0
M  V30 15443 N 1434.82 -4.55183 -0.858072 0
M  V30 15444 C 1435.56 -5.65487 -0.949317 0
M  V30 15445 N 1435.05 -6.85497 -1.00327 0
M  V30 15446 N 1436.85 -5.53385 -0.985995 0
M  V30 15447 H 1429 -2.01971 0.657394 0
M  V30 15448 H 1431.26 -0.918839 0.233322 0
M  V30 15449 H 1430.97 -3.50584 0.279921 0
M  V30 15450 H 1430.84 -3.47376 -1.47002 0
M  V30 15451 H 1433.23 -2.4887 -1.5858 0
M  V30 15452 H 1433.31 -2.55161 0.180636 0
M  V30 15453 H 1432.95 -5.07829 0.0846883 0
M  V30 15454 H 1432.88 -4.98641 -1.69308 0
M  V30 15455 H 1435.37 -3.68765 -0.825888 0
M  V30 15456 H 1435.69 -7.65312 -1.07322 0
M  V30 15457 H 1434.03 -6.88169 -0.972061 0
M  V30 15458 H 1437.22 -4.58552 -0.940635 0
M  V30 15459 H 1437.39 -6.39376 -1.05365 0
M  V30 15460 N 1430.8 0.469154 -1.50455 0
M  V30 15461 C 1432.05 1.21868 -1.61222 0
M  V30 15462 C 1432.37 1.9243 -0.315535 0
M  V30 15463 O 1431.64 1.84192 0.667083 0
M  V30 15464 H 1430.22 0.452828 -0.594101 0
M  V30 15465 H 1432.88 0.540993 -1.87241 0
M  V30 15466 H 1431.98 1.96554 -2.42431 0
M  V30 15467 N 1432.28 1.40065 0.722464 0
M  V30 15468 C 1433.5 1.4146 1.5167 0
M  V30 15469 C 1433.93 0.0142653 1.88095 0
M  V30 15470 O 1433.29 -0.975934 1.52791 0
M  V30 15471 C 1433.33 2.30531 2.77287 0
M  V30 15472 O 1432.44 1.74382 3.73717 0
M  V30 15473 H 1431.78 0.481194 0.457546 0
M  V30 15474 H 1434.31 1.84213 0.890331 0
M  V30 15475 H 1434.32 2.45479 3.25889 0
M  V30 15476 H 1432.99 3.32292 2.50109 0
M  V30 15477 H 1431.57 1.68743 3.32536 0
M  V30 15478 N 1433.76 -0.95397 1.25448 0
M  V30 15479 C 1434.98 -1.73863 1.13077 0
M  V30 15480 C 1435.41 -1.85503 -0.311481 0
M  V30 15481 O 1434.77 -1.33596 -1.22564 0
M  V30 15482 C 1434.81 -3.13 1.79062 0
M  V30 15483 O 1433.92 -3.98258 1.07072 0
M  V30 15484 H 1433.26 -0.533921 0.394746 0
M  V30 15485 H 1435.79 -1.19571 1.66024 0
M  V30 15486 H 1435.8 -3.63456 1.85374 0
M  V30 15487 H 1434.47 -3.03844 2.83992 0
M  V30 15488 H 1433.05 -3.56722 1.08645 0
M  V30 15489 N 1435.24 -1.07045 -1.15668 0
M  V30 15490 C 1436.48 -0.790172 -1.86013 0
M  V30 15491 C 1436.8 0.685663 -1.82548 0
M  V30 15492 O 1436.07 1.49644 -1.26426 0
M  V30 15493 H 1434.65 -0.28931 -0.688701 0
M  V30 15494 H 1437.32 -1.35354 -1.40233 0
M  V30 15495 H 1436.41 -1.1219 -2.91239 0
M  V30 15496 N 1436.71 1.32449 -0.85411 0
M  V30 15497 C 1437.96 1.96881 -0.45632 0
M  V30 15498 C 1438.28 1.67926 0.991248 0
M  V30 15499 O 1437.55 0.986195 1.69266 0
M  V30 15500 H 1436.13 0.728378 -0.165752 0
M  V30 15501 H 1438.79 1.61542 -1.09042 0
M  V30 15502 H 1437.89 3.0626 -0.600927 0
M  V30 15503 N 1438.19 0.611994 1.45232 0
M  V30 15504 C 1439.12 -0.0914869 2.33321 0
M  V30 15505 C 1440.1 -0.854315 1.4709 0
M  V30 15506 O 1441.29 -0.823994 1.75852 0
M  V30 15507 C 1438.42 -1.08652 3.29867 0
M  V30 15508 C 1437.37 -0.436615 4.25767 0
M  V30 15509 C 1436.7 -1.54021 5.12037 0
M  V30 15510 C 1438 0.645005 5.18302 0
M  V30 15511 H 1439.69 0.644053 2.92391 0
M  V30 15512 H 1437.24 0.311171 1.40598 0
M  V30 15513 H 1439.19 -1.58726 3.90364 0
M  V30 15514 H 1437.91 -1.85271 2.68965 0
M  V30 15515 H 1436.57 0.0432918 3.66574 0
M  V30 15516 H 1436.22 -2.29679 4.475 0
M  V30 15517 H 1435.92 -1.11084 5.77005 0
M  V30 15518 H 1437.45 -2.04313 5.75403 0
M  V30 15519 H 1438.86 0.228166 5.72846 0
M  V30 15520 H 1437.26 0.996387 5.9177 0
M  V30 15521 H 1438.33 1.51985 4.60466 0
M  V30 15522 N 1439.67 -1.53632 0.351409 0
M  V30 15523 C 1440.6 -2.2284 -0.536204 0
M  V30 15524 C 1441.61 -1.23765 -1.05764 0
M  V30 15525 O 1442.8 -1.50073 -0.966449 0
M  V30 15526 C 1439.9 -2.9013 -1.75151 0
M  V30 15527 C 1439.08 -4.15588 -1.36401 0
M  V30 15528 C 1438.14 -4.66217 -2.43984 0
M  V30 15529 O 1437.16 -5.3024 -2.06964 0
M  V30 15530 N 1438.36 -4.42817 -3.75358 0
M  V30 15531 H 1441.13 -2.99647 0.0565368 0
M  V30 15532 H 1438.69 -1.60942 0.175905 0
M  V30 15533 H 1440.68 -3.20913 -2.4657 0
M  V30 15534 H 1439.25 -2.16862 -2.25144 0
M  V30 15535 H 1438.47 -3.91264 -0.480258 0
M  V30 15536 H 1439.76 -4.97179 -1.08121 0
M  V30 15537 H 1439.16 -3.9163 -4.08218 0
M  V30 15538 H 1437.71 -4.78186 -4.42924 0
M  V30 15539 N 1441.15 -0.0802183 -1.57396 0
M  V30 15540 C 1442.11 0.869437 -2.12069 0
M  V30 15541 C 1443.11 1.22079 -1.04658 0
M  V30 15542 O 1444.3 1.15267 -1.3061 0
M  V30 15543 C 1441.43 2.17016 -2.62901 0
M  V30 15544 H 1442.63 0.394952 -2.97288 0
M  V30 15545 H 1440.18 0.168597 -1.55388 0
M  V30 15546 H 1440.91 2.68983 -1.8116 0
M  V30 15547 H 1440.7 1.92808 -3.4142 0
M  V30 15548 H 1442.19 2.84982 -3.05246 0
M  V30 15549 N 1442.63 1.56409 0.193394 0
M  V30 15550 C 1444.04 1.70624 0.757915 0
M  V30 15551 C 1444.39 0.687074 1.83776 0
M  V30 15552 O 1443.51 -0.15616 2.15836 0
M  V30 15553 C 1444.11 3.09352 1.38156 0
M  V30 15554 C 1442.67 3.25326 1.89315 0
M  V30 15555 C 1441.81 2.66576 0.763727 0
M  V30 15556 H 1444.76 1.58668 -0.0317034 0
M  V30 15557 H 1444.79 3.06776 2.25098 0
M  V30 15558 H 1444.3 3.83506 0.595398 0
M  V30 15559 H 1442.4 2.5609 2.70644 0
M  V30 15560 H 1442.51 4.32848 2.05376 0
M  V30 15561 H 1440.88 2.25797 1.17846 0
M  V30 15562 H 1441.66 3.43298 -0.0102243 0
M  V30 15563 N 1444.1 -0.461169 1.50702 0
M  V30 15564 C 1445.52 -0.795741 1.38348 0
M  V30 15565 C 1445.72 -1.96473 0.447263 0
M  V30 15566 O 1444.78 -2.52276 -0.106445 0
M  V30 15567 C 1446.09 -1.09849 2.79917 0
M  V30 15568 C 1447.64 -1.20435 2.88902 0
M  V30 15569 C 1448.11 -1.54017 4.31327 0
M  V30 15570 N 1449.6 -1.60989 4.34323 0
M  V30 15571 C 1450.34 -1.88498 5.41531 0
M  V30 15572 N 1449.83 -2.13959 6.58933 0
M  V30 15573 N 1451.63 -1.90082 5.28985 0
M  V30 15574 H 1443.78 0.309076 2.10139 0
M  V30 15575 H 1446.04 0.0757918 0.944965 0
M  V30 15576 H 1445.75 -0.312479 3.50309 0
M  V30 15577 H 1445.62 -2.03221 3.17775 0
M  V30 15578 H 1448.01 -1.98102 2.18723 0
M  V30 15579 H 1448.09 -0.250195 2.54573 0
M  V30 15580 H 1447.73 -0.768865 5.02047 0
M  V30 15581 H 1447.66 -2.50599 4.6315 0
M  V30 15582 H 1450.15 -1.43312 3.49672 0
M  V30 15583 H 1450.47 -2.34251 7.36442 0
M  V30 15584 H 1448.81 -2.11331 6.62091 0
M  V30 15585 H 1452 -1.69693 4.36259 0
M  V30 15586 H 1452.18 -2.11184 6.12622 0
M  V30 15587 N 1445.58 -1.40446 -0.715026 0
M  V30 15588 C 1446.83 -1.3848 -1.47199 0
M  V30 15589 C 1447.15 0.0119198 -1.94996 0
M  V30 15590 O 1446.42 0.966772 -1.70383 0
M  V30 15591 H 1445 -0.509669 -0.54612 0
M  V30 15592 H 1447.66 -1.75505 -0.847588 0
M  V30 15593 H 1446.76 -2.06002 -2.34456 0
M  V30 15594 N 1447.06 0.947303 -1.25952 0
M  V30 15595 C 1448.47 1.50755 -1.10136 0
M  V30 15596 C 1448.82 1.93566 0.320437 0
M  V30 15597 O 1447.95 1.79326 1.21125 0
M  V30 15598 C 1448.54 2.7397 -1.99313 0
M  V30 15599 C 1447.1 3.26283 -1.8766 0
M  V30 15600 C 1446.25 1.99088 -1.93027 0
M  V30 15601 H 1449.2 0.763427 -1.39131 0
M  V30 15602 H 1449.22 3.48057 -1.53742 0
M  V30 15603 H 1448.73 2.42781 -3.02785 0
M  V30 15604 H 1446.83 3.62277 -0.870992 0
M  V30 15605 H 1446.95 3.93803 -2.72866 0
M  V30 15606 H 1445.31 2.14714 -1.37003 0
M  V30 15607 H 1446.09 1.70237 -2.98118 0
M  V30 15608 N 1448.54 1.07657 1.15099 0
M  V30 15609 C 1449.95 0.802696 1.37945 0
M  V30 15610 C 1450.15 -0.591622 1.92619 0
M  V30 15611 O 1449.21 -1.34979 2.13394 0
M  V30 15612 C 1450.52 1.87907 2.34759 0
M  V30 15613 C 1452.07 1.90418 2.48415 0
M  V30 15614 C 1452.55 2.97148 3.48521 0
M  V30 15615 N 1454.04 2.96271 3.56059 0
M  V30 15616 C 1454.77 3.75498 4.33346 0
M  V30 15617 N 1454.27 4.64583 5.1394 0
M  V30 15618 N 1456.06 3.63831 4.28466 0
M  V30 15619 H 1448.21 1.97578 0.779537 0
M  V30 15620 H 1450.48 0.856978 0.405331 0
M  V30 15621 H 1450.18 2.8811 2.01707 0
M  V30 15622 H 1450.06 1.74183 3.34575 0
M  V30 15623 H 1452.44 0.908655 2.80762 0
M  V30 15624 H 1452.52 2.0822 1.48586 0
M  V30 15625 H 1452.17 3.96903 3.16908 0
M  V30 15626 H 1452.1 2.76593 4.48112 0
M  V30 15627 H 1454.59 2.31697 2.98538 0
M  V30 15628 H 1454.9 5.2166 5.70167 0
M  V30 15629 H 1453.25 4.6863 5.13236 0
M  V30 15630 H 1456.44 2.93609 3.6457 0
M  V30 15631 H 1456.61 4.25818 4.8845 0
M  V30 15632 N 1450.02 -1.31994 0.861122 0
M  V30 15633 C 1451.29 -1.91699 0.388705 0
M  V30 15634 C 1451.67 -1.78412 -1.12838 0
M  V30 15635 O 1451.02 -1.18625 -1.95296 0
M  V30 15636 C 1451.23 -3.38232 0.860248 0
M  V30 15637 C 1452.58 -4.15355 0.881201 0
M  V30 15638 O 1453.6 -3.46977 0.805313 0
M  V30 15639 O 1452.46 -5.37468 0.98945 0
M  V30 15640 H 1449.56 -0.819017 0.114629 0
M  V30 15641 H 1452.1 -1.40721 0.94845 0
M  V30 15642 H 1450.87 -3.41876 1.9036 0
M  V30 15643 H 1450.5 -3.96625 0.278316 0
M  V30 15644 N 1451.49 -0.619688 -1.44906 0
M  V30 15645 C 1452.4 0.0935512 -2.34413 0
M  V30 15646 C 1453.42 0.847738 -1.51952 0
M  V30 15647 O 1454.6 0.802591 -1.84717 0
M  V30 15648 C 1451.66 1.07047 -3.2976 0
M  V30 15649 C 1450.72 0.31691 -4.28129 0
M  V30 15650 C 1449.96 1.24729 -5.1892 0
M  V30 15651 O 1450.18 2.4856 -5.13395 0
M  V30 15652 O 1449.11 0.737799 -5.97361 0
M  V30 15653 H 1452.94 -0.642335 -2.96829 0
M  V30 15654 H 1450.52 -0.379908 -1.44489 0
M  V30 15655 H 1452.41 1.63281 -3.88481 0
M  V30 15656 H 1451.08 1.78717 -2.69893 0
M  V30 15657 H 1449.99 -0.288192 -3.72988 0
M  V30 15658 H 1451.32 -0.359539 -4.90885 0
M  V30 15659 N 1452.97 1.53444 -0.359552 0
M  V30 15660 C 1453.92 2.22312 0.506084 0
M  V30 15661 C 1454.91 1.21618 1.05347 0
M  V30 15662 O 1456.1 1.47093 0.984511 0
M  V30 15663 C 1453.23 3.01137 1.64837 0
M  V30 15664 C 1452.31 4.09203 1.11416 0
M  V30 15665 N 1452.7 5.04895 0.302445 0
M  V30 15666 C 1451 4.23801 1.38954 0
M  V30 15667 C 1451.7 5.81699 0.0106517 0
M  V30 15668 N 1450.68 5.40204 0.606648 0
M  V30 15669 H 1454.48 2.93651 -0.120961 0
M  V30 15670 H 1452 1.61536 -0.167249 0
M  V30 15671 H 1453.99 3.48988 2.28063 0
M  V30 15672 H 1452.65 2.31328 2.27854 0
M  V30 15673 H 1453.66 5.17868 -0.0578423 0
M  V30 15674 H 1450.34 3.65217 2.02293 0
M  V30 15675 H 1451.73 6.68795 -0.645163 0
M  V30 15676 N 1454.45 0.0885642 1.57351 0
M  V30 15677 C 1455.68 -0.588641 1.98871 0
M  V30 15678 C 1456.1 -1.61333 0.967125 0
M  V30 15679 O 1455.46 -1.81183 -0.0652149 0
M  V30 15680 C 1455.51 -1.21877 3.39379 0
M  V30 15681 O 1454.61 -2.33462 3.39955 0
M  V30 15682 H 1453.95 -0.149938 0.64685 0
M  V30 15683 H 1456.48 0.168043 2.03909 0
M  V30 15684 H 1456.49 -1.56163 3.76931 0
M  V30 15685 H 1455.17 -0.468037 4.13258 0
M  V30 15686 H 1453.74 -2.00844 3.14191 0
M  V30 15687 N 1455.93 -1.56509 -0.185096 0
M  V30 15688 C 1457.21 -1.72055 -0.930398 0
M  V30 15689 C 1457.59 -0.646145 -2.00968 0
M  V30 15690 O 1456.93 0.34129 -2.25937 0
M  V30 15691 C 1457.14 -3.14752 -1.50771 0
M  V30 15692 C 1458.49 -3.75292 -1.98597 0
M  V30 15693 O 1459.52 -3.17944 -1.60593 0
M  V30 15694 O 1458.37 -4.7596 -2.68561 0
M  V30 15695 H 1455.47 -0.702118 -0.436989 0
M  V30 15696 H 1458.01 -1.68806 -0.174007 0
M  V30 15697 H 1456.79 -3.84426 -0.730236 0
M  V30 15698 H 1456.41 -3.22272 -2.32866 0
M  V30 15699 N 1457.41 0.45317 -1.50944 0
M  V30 15700 C 1458.65 1.20389 -1.62827 0
M  V30 15701 C 1458.98 1.91559 -0.336982 0
M  V30 15702 O 1458.24 1.83574 0.678153 0
M  V30 15703 C 1458.54 2.25747 -2.7708 0
M  V30 15704 C 1458.2 1.71703 -4.16928 0
M  V30 15705 C 1456.86 1.56686 -4.54976 0
M  V30 15706 C 1459.22 1.31804 -5.04259 0
M  V30 15707 C 1456.54 1.0022 -5.78077 0
M  V30 15708 C 1458.9 0.767738 -6.27924 0
M  V30 15709 C 1457.56 0.604341 -6.64759 0
M  V30 15710 H 1456.83 0.440536 -0.595827 0
M  V30 15711 H 1459.48 0.497234 -1.84932 0
M  V30 15712 H 1457.78 3.0239 -2.49134 0
M  V30 15713 H 1459.48 2.83625 -2.83475 0
M  V30 15714 H 1456.07 1.84364 -3.86921 0
M  V30 15715 H 1460.25 1.42233 -4.75482 0
M  V30 15716 H 1455.51 0.863228 -6.05275 0
M  V30 15717 H 1459.68 0.449994 -6.94945 0
M  V30 15718 H 1457.31 0.164663 -7.60022 0
M  V30 15719 N 1458.88 1.40823 0.707568 0
M  V30 15720 C 1460.13 1.38837 1.46312 0
M  V30 15721 C 1460.45 -0.00353939 1.956 0
M  V30 15722 O 1461.65 -0.146022 2.71107 0
M  V30 15723 C 1460.11 2.44052 2.64512 0
M  V30 15724 C 1459.72 3.89093 2.2206 0
M  V30 15725 C 1461.46 2.51185 3.42208 0
M  V30 15726 C 1459.37 4.85887 3.37147 0
M  V30 15727 H 1458.3 0.516263 0.549535 0
M  V30 15728 H 1460.95 1.66595 0.769302 0
M  V30 15729 H 1459.33 2.09406 3.36103 0
M  V30 15730 H 1460.5 4.32925 1.57837 0
M  V30 15731 H 1458.82 3.8551 1.57388 0
M  V30 15732 H 1461.42 3.20687 4.2786 0
M  V30 15733 H 1461.76 1.54488 3.86574 0
M  V30 15734 H 1462.29 2.84862 2.77666 0
M  V30 15735 H 1459.03 5.83946 2.97805 0
M  V30 15736 H 1458.55 4.46713 4.00259 0
M  V30 15737 H 1460.23 5.06084 4.03098 0
M  V30 15738 N 1460.36 -0.94061 1.26453 0
M  V30 15739 C 1461.33 -2.02096 1.0812 0
M  V30 15740 C 1462.33 -1.60773 0.0293393 0
M  V30 15741 O 1463.52 -1.72051 0.272796 0
M  V30 15742 C 1460.65 -3.34749 0.644646 0
M  V30 15743 H 1461.84 -2.19792 2.04038 0
M  V30 15744 H 1459.39 -1.11965 1.09058 0
M  V30 15745 H 1460.13 -3.22752 -0.316509 0
M  V30 15746 H 1459.91 -3.66095 1.40416 0
M  V30 15747 H 1461.4 -4.14117 0.538233 0
M  V30 15748 N 1461.84 -1.08266 -1.14527 0
M  V30 15749 C 1462.79 -0.705807 -2.21633 0
M  V30 15750 C 1463.78 0.287758 -1.66938 0
M  V30 15751 O 1464.99 0.150479 -1.7937 0
M  V30 15752 H 1461.36 -0.210206 -0.722023 0
M  V30 15753 H 1463.33 -1.61855 -2.5069 0
M  V30 15754 C 1462.08 -0.129673 -3.47458 0
M  V30 15755 H 1461.41 -0.885365 -3.89873 0
M  V30 15756 H 1462.85 0.0962264 -4.23891 0
M  V30 15757 C 1461.31 1.13208 -3.1731 0
M  V30 15758 O 1461.84 2.21717 -3.34969 0
M  V30 15759 N 1460.04 1.0419 -2.7128 0
M  V30 15760 H 1459.59 0.15883 -2.5711 0
M  V30 15761 H 1459.55 1.88689 -2.51483 0
M  V30 15762 N 1463.32 1.31536 -0.86811 0
M  V30 15763 C 1464.73 1.78991 -0.530937 0
M  V30 15764 C 1465.08 1.71553 0.952046 0
M  V30 15765 O 1464.21 1.28216 1.74326 0
M  V30 15766 C 1464.8 3.25004 -0.956981 0
M  V30 15767 C 1463.36 3.70362 -0.671495 0
M  V30 15768 C 1462.51 2.52361 -1.14932 0
M  V30 15769 H 1465.46 1.18644 -1.05401 0
M  V30 15770 H 1465.48 3.79477 -0.278883 0
M  V30 15771 H 1464.99 3.30385 -2.03635 0
M  V30 15772 H 1463.09 3.70483 0.39659 0
M  V30 15773 H 1463.21 4.62581 -1.24722 0
M  V30 15774 H 1461.57 2.4826 -0.569144 0
M  V30 15775 H 1462.35 2.60489 -2.23608 0
M  V30 15776 N 1464.8 0.627364 1.44575 0
M  V30 15777 C 1466.03 0.137313 2.06444 0
M  V30 15778 C 1466.44 -1.18655 1.46855 0
M  V30 15779 O 1465.8 -1.72699 0.590018 0
M  V30 15780 C 1465.85 0.0123481 3.61498 0
M  V30 15781 O 1465.57 1.28385 4.18866 0
M  V30 15782 C 1467.07 -0.506841 4.40393 0
M  V30 15783 H 1464.29 0.0779387 0.666458 0
M  V30 15784 H 1466.83 0.860701 1.85505 0
M  V30 15785 H 1464.99 -0.66146 3.81711 0
M  V30 15786 H 1465.4 1.12626 5.12265 0
M  V30 15787 H 1466.88 -0.543304 5.4932 0
M  V30 15788 H 1467.35 -1.53314 4.11572 0
M  V30 15789 H 1467.96 0.133589 4.2509 0
M  V30 15790 N 1466.28 -1.53251 0.367684 0
M  V30 15791 C 1467.52 -2.01585 -0.221679 0
M  V30 15792 C 1467.85 -1.25444 -1.48248 0
M  V30 15793 O 1467.13 -0.348726 -1.91348 0
M  V30 15794 C 1467.41 -3.56449 -0.511507 0
M  V30 15795 C 1467.27 -4.4328 0.763075 0
M  V30 15796 C 1468.58 -4.20113 -1.31121 0
M  V30 15797 H 1465.7 -0.732743 -0.0790954 0
M  V30 15798 H 1468.35 -1.83493 0.492991 0
M  V30 15799 H 1466.5 -3.71996 -1.12033 0
M  V30 15800 H 1468.17 -4.39526 1.40052 0
M  V30 15801 H 1466.41 -4.11164 1.38299 0
M  V30 15802 H 1467.08 -5.4959 0.515215 0
M  V30 15803 H 1469.56 -4.08412 -0.796169 0
M  V30 15804 H 1468.43 -5.28494 -1.48274 0
M  V30 15805 H 1468.69 -3.76316 -2.32032 0
M  V30 15806 N 1467.75 -0.0969077 -1.57302 0
M  V30 15807 C 1469 0.561074 -1.95508 0
M  V30 15808 C 1469.35 1.6568 -0.97816 0
M  V30 15809 O 1468.65 1.91599 -0.00445428 0
M  V30 15810 C 1468.84 1.15972 -3.38061 0
M  V30 15811 C 1468.67 0.123524 -4.4953 0
M  V30 15812 C 1467.44 -0.30062 -5.04405 0
M  V30 15813 C 1469.64 -0.649001 -5.10189 0
M  V30 15814 N 1467.62 -1.3249 -5.99433 0
M  V30 15815 C 1468.99 -1.52506 -6.00951 0
M  V30 15816 C 1471.05 -0.70232 -4.92922 0
M  V30 15817 C 1469.75 -2.44976 -6.76298 0
M  V30 15818 C 1471.78 -1.61463 -5.68932 0
M  V30 15819 C 1471.14 -2.47831 -6.59363 0
M  V30 15820 H 1467.24 0.175591 -0.762031 0
M  V30 15821 H 1469.82 -0.179896 -1.93867 0
M  V30 15822 H 1467.99 1.87051 -3.40392 0
M  V30 15823 H 1469.72 1.78022 -3.63442 0
M  V30 15824 H 1466.48 0.0874763 -4.73519 0
M  V30 15825 H 1466.9 -1.8353 -6.51648 0
M  V30 15826 H 1471.54 -0.0487412 -4.22772 0
M  V30 15827 H 1469.26 -3.11358 -7.45709 0
M  V30 15828 H 1472.85 -1.66104 -5.57585 0
M  V30 15829 H 1471.73 -3.17278 -7.1715 0
M  V30 15830 N 1469.23 1.56605 0.176793 0
M  V30 15831 C 1470.48 1.81952 0.895627 0
M  V30 15832 C 1470.81 0.673893 1.82133 0
M  V30 15833 O 1470.09 -0.324494 1.91774 0
M  V30 15834 C 1470.37 3.17658 1.69604 0
M  V30 15835 C 1470.22 4.4274 0.793834 0
M  V30 15836 C 1471.54 3.50246 2.66488 0
M  V30 15837 H 1468.66 0.661884 0.324159 0
M  V30 15838 H 1471.3 1.89307 0.162092 0
M  V30 15839 H 1469.45 3.11518 2.3214 0
M  V30 15840 H 1471.12 4.60942 0.181775 0
M  V30 15841 H 1469.37 4.33681 0.101566 0
M  V30 15842 H 1470.04 5.34231 1.38927 0
M  V30 15843 H 1472.51 3.56804 2.1408 0
M  V30 15844 H 1471.39 4.46286 3.19562 0
M  V30 15845 H 1471.65 2.7467 3.46423 0
M  V30 15846 N 1470.71 -0.445159 1.51182 0
M  V30 15847 C 1471.93 -1.22249 1.67541 0
M  V30 15848 C 1472.36 -1.84446 0.368972 0
M  V30 15849 O 1471.72 -1.68463 -0.670058 0
M  V30 15850 C 1471.77 -2.288 2.78717 0
M  V30 15851 O 1470.87 -3.34094 2.41775 0
M  V30 15852 H 1470.21 -0.358516 0.558894 0
M  V30 15853 H 1472.74 -0.526696 1.97704 0
M  V30 15854 H 1472.75 -2.73708 3.02569 0
M  V30 15855 H 1471.43 -1.82906 3.73521 0
M  V30 15856 H 1470 -2.94717 2.28466 0
M  V30 15857 N 1472.19 -1.41197 -0.700089 0
M  V30 15858 C 1473.43 -1.40519 -1.46227 0
M  V30 15859 C 1473.77 -0.0126108 -1.94196 0
M  V30 15860 O 1473.04 0.958837 -1.69223 0
M  V30 15861 C 1473.32 -2.40808 -2.67738 0
M  V30 15862 C 1473.18 -3.89154 -2.25563 0
M  V30 15863 C 1474.5 -2.38415 -3.69927 0
M  V30 15864 H 1471.62 -0.511724 -0.530384 0
M  V30 15865 H 1474.26 -1.72441 -0.797754 0
M  V30 15866 H 1472.41 -2.13717 -3.24434 0
M  V30 15867 H 1474.08 -4.27132 -1.74229 0
M  V30 15868 H 1472.32 -4.04239 -1.57395 0
M  V30 15869 H 1472.99 -4.54866 -3.12731 0
M  V30 15870 H 1475.47 -2.62447 -3.22895 0
M  V30 15871 H 1474.35 -3.10609 -4.52563 0
M  V30 15872 H 1474.61 -1.40116 -4.19309 0
M  V30 15873 N 1473.67 0.933891 -1.2695 0
M  V30 15874 C 1475.08 1.49578 -1.11728 0
M  V30 15875 C 1475.43 1.93895 0.299889 0
M  V30 15876 O 1474.55 1.806 1.19216 0
M  V30 15877 C 1475.15 2.71841 -2.02208 0
M  V30 15878 C 1473.71 3.24274 -1.9111 0
M  V30 15879 C 1472.85 1.97029 -1.95128 0
M  V30 15880 H 1475.8 0.748628 -1.39933 0
M  V30 15881 H 1475.83 3.46407 -1.57425 0
M  V30 15882 H 1475.34 2.39556 -3.05343 0
M  V30 15883 H 1473.44 3.61333 -0.909367 0
M  V30 15884 H 1473.55 3.90887 -2.77027 0
M  V30 15885 H 1471.92 2.13249 -1.39273 0
M  V30 15886 H 1472.7 1.67066 -2.99907 0
M  V30 15887 N 1475.14 1.08871 1.13951 0
M  V30 15888 C 1476.39 0.816198 1.84448 0
M  V30 15889 C 1476.71 -0.660396 1.84114 0
M  V30 15890 O 1477.91 -1.04825 2.50448 0
M  V30 15891 C 1476.37 1.41015 3.31123 0
M  V30 15892 C 1475.98 2.91888 3.39861 0
M  V30 15893 C 1477.72 1.21633 4.06701 0
M  V30 15894 C 1475.63 3.44397 4.80775 0
M  V30 15895 H 1474.56 0.301662 0.691025 0
M  V30 15896 H 1477.21 1.31072 1.28423 0
M  V30 15897 H 1475.59 0.843333 3.86916 0
M  V30 15898 H 1476.76 3.54747 2.94094 0
M  V30 15899 H 1475.08 3.10238 2.77743 0
M  V30 15900 H 1477.68 1.58324 5.10723 0
M  V30 15901 H 1478.02 0.156519 4.16006 0
M  V30 15902 H 1478.55 1.75035 3.57222 0
M  V30 15903 H 1475.29 4.49973 4.7666 0
M  V30 15904 H 1474.81 2.86299 5.27061 0
M  V30 15905 H 1476.49 3.41266 5.49679 0
M  V30 15906 N 1476.62 -1.31073 0.875073 0
M  V30 15907 C 1477.58 -2.26672 0.339481 0
M  V30 15908 C 1478.58 -1.52416 -0.512439 0
M  V30 15909 O 1479.77 -1.71217 -0.321012 0
M  V30 15910 C 1476.91 -3.36952 -0.517311 0
M  V30 15911 H 1478.1 -2.7556 1.18349 0
M  V30 15912 H 1475.65 -1.42093 0.65109 0
M  V30 15913 H 1476.39 -2.93364 -1.38231 0
M  V30 15914 H 1476.17 -3.9199 0.092773 0
M  V30 15915 H 1477.66 -4.08133 -0.884154 0
M  V30 15916 N 1478.1 -0.635022 -1.4424 0
M  V30 15917 C 1479.01 0.0686832 -2.34499 0
M  V30 15918 C 1480.03 0.831574 -1.52843 0
M  V30 15919 O 1481.2 0.782954 -1.85558 0
M  V30 15920 C 1478.27 1.03543 -3.30877 0
M  V30 15921 C 1477.33 0.271484 -4.28441 0
M  V30 15922 C 1476.56 1.19218 -5.20214 0
M  V30 15923 O 1476.78 2.43101 -5.16002 0
M  V30 15924 O 1475.72 0.6744 -5.9811 0
M  V30 15925 H 1479.54 -0.673781 -2.96132 0
M  V30 15926 H 1477.13 -0.395211 -1.44078 0
M  V30 15927 H 1479.01 1.59151 -3.90191 0
M  V30 15928 H 1477.69 1.75844 -2.71773 0
M  V30 15929 H 1476.59 -0.327736 -3.72662 0
M  V30 15930 H 1477.93 -0.411584 -4.90476 0
M  V30 15931 N 1479.58 1.53054 -0.375806 0
M  V30 15932 C 1480.83 2.01003 0.210257 0
M  V30 15933 C 1481.15 1.26451 1.48442 0
M  V30 15934 O 1480.42 0.380687 1.92166 0
M  V30 15935 H 1479 0.74263 0.0806861 0
M  V30 15936 H 1481.66 1.8826 -0.504393 0
M  V30 15937 H 1480.76 3.09123 0.430027 0
M  V30 15938 N 1481.06 0.105248 1.57248 0
M  V30 15939 C 1481.97 -0.864007 2.1811 0
M  V30 15940 C 1482.98 -1.30282 1.15337 0
M  V30 15941 O 1484.16 -1.36864 1.4775 0
M  V30 15942 C 1481.22 -2.1014 2.75757 0
M  V30 15943 C 1480.28 -1.71583 3.9352 0
M  V30 15944 C 1479.52 -2.89424 4.48408 0
M  V30 15945 O 1479.74 -4.04449 4.02215 0
M  V30 15946 O 1478.67 -2.67303 5.39289 0
M  V30 15947 H 1482.5 -0.376131 3.01362 0
M  V30 15948 H 1480.09 -0.119643 1.4892 0
M  V30 15949 H 1481.97 -2.82638 3.1256 0
M  V30 15950 H 1480.64 -2.57961 1.95545 0
M  V30 15951 H 1479.55 -0.962347 3.6151 0
M  V30 15952 H 1480.88 -1.28517 4.75126 0
M  V30 15953 N 1482.53 -1.56697 -0.168486 0
M  V30 15954 C 1483.76 -1.86652 -0.904195 0
M  V30 15955 C 1484.18 -0.691906 -1.74912 0
M  V30 15956 O 1483.54 0.358971 -1.77711 0
M  V30 15957 C 1483.59 -3.15043 -1.75442 0
M  V30 15958 O 1482.69 -2.97466 -2.85636 0
M  V30 15959 H 1482.04 -0.613859 -0.253128 0
M  V30 15960 H 1484.57 -2.03927 -0.165773 0
M  V30 15961 H 1484.58 -3.4652 -2.15378 0
M  V30 15962 H 1483.25 -4.00147 -1.13381 0
M  V30 15963 H 1481.83 -2.7735 -2.49262 0
M  V30 15964 N 1484.01 0.437135 -1.51416 0
M  V30 15965 C 1485.29 1.1978 -1.54636 0
M  V30 15966 C 1485.67 2.088 -0.310747 0
M  V30 15967 O 1485.02 2.1738 0.704148 0
M  V30 15968 C 1485.23 1.99947 -2.86046 0
M  V30 15969 C 1486.58 2.56981 -3.38003 0
M  V30 15970 O 1487.6 2.10157 -2.87598 0
M  V30 15971 O 1486.46 3.42383 -4.25953 0
M  V30 15972 H 1483.55 0.545346 -0.621713 0
M  V30 15973 H 1486.1 0.446189 -1.63729 0
M  V30 15974 H 1484.87 1.34564 -3.67435 0
M  V30 15975 H 1484.49 2.82172 -2.80115 0
M  V30 15976 N 1485.49 1.41566 0.692592 0
M  V30 15977 C 1486.42 1.46423 1.81886 0
M  V30 15978 C 1487.4 0.32258 1.67013 0
M  V30 15979 O 1488.59 0.534437 1.86701 0
M  V30 15980 C 1485.72 1.3486 3.20047 0
M  V30 15981 C 1484.67 2.46867 3.49629 0
M  V30 15982 C 1484 2.20369 4.87177 0
M  V30 15983 C 1485.3 3.89205 3.48306 0
M  V30 15984 H 1486.99 2.40683 1.78079 0
M  V30 15985 H 1484.54 1.15845 0.855334 0
M  V30 15986 H 1486.49 1.36869 3.98553 0
M  V30 15987 H 1485.21 0.370859 3.24488 0
M  V30 15988 H 1483.87 2.44146 2.73475 0
M  V30 15989 H 1483.52 1.20931 4.88247 0
M  V30 15990 H 1483.22 2.95426 5.07934 0
M  V30 15991 H 1484.74 2.24099 5.6799 0
M  V30 15992 H 1486.16 3.93626 4.16811 0
M  V30 15993 H 1484.56 4.63969 3.80595 0
M  V30 15994 H 1485.63 4.17144 2.47222 0
M  V30 15995 N 1486.97 -0.927146 1.27443 0
M  V30 15996 C 1488.25 -1.65322 1.04538 0
M  V30 15997 C 1488.63 -2.06886 -0.419694 0
M  V30 15998 O 1487.97 -1.80352 -1.40304 0
M  V30 15999 C 1488.18 -2.85486 2.00746 0
M  V30 16000 C 1489.53 -3.56816 2.30147 0
M  V30 16001 O 1490.56 -2.95613 1.98724 0
M  V30 16002 O 1489.41 -4.67085 2.83714 0
M  V30 16003 H 1486.51 -0.724627 0.398554 0
M  V30 16004 H 1489.05 -0.977633 1.3871 0
M  V30 16005 H 1487.83 -2.51766 2.99549 0
M  V30 16006 H 1487.45 -3.60763 1.67139 0
M  V30 16007 N 1488.45 -1.09474 -1.13372 0
M  V30 16008 C 1489.72 -0.743485 -1.80919 0
M  V30 16009 C 1490.1 0.771414 -1.965 0
M  V30 16010 O 1489.45 1.694 -1.53349 0
M  V30 16011 C 1489.66 -1.48309 -3.1592 0
M  V30 16012 C 1491.01 -1.64921 -3.91263 0
M  V30 16013 O 1492.03 -1.44564 -3.25545 0
M  V30 16014 O 1490.89 -1.98595 -5.09139 0
M  V30 16015 H 1487.99 -0.26713 -0.782669 0
M  V30 16016 H 1490.53 -1.19697 -1.20294 0
M  V30 16017 H 1489.3 -2.51456 -2.99809 0
M  V30 16018 H 1488.93 -1.02181 -3.84246 0
M  V30 16019 N 1489.92 1.30607 -0.882012 0
M  V30 16020 C 1490.85 2.30666 -0.362706 0
M  V30 16021 C 1491.84 1.60865 0.552861 0
M  V30 16022 O 1493.02 1.88493 0.467339 0
M  V30 16023 C 1490.15 3.44675 0.42622 0
M  V30 16024 C 1489.1 4.26152 -0.397322 0
M  V30 16025 C 1488.43 5.32185 0.518027 0
M  V30 16026 C 1489.73 4.95955 -1.63785 0
M  V30 16027 H 1491.42 2.74351 -1.19883 0
M  V30 16028 H 1488.97 1.31895 -0.577912 0
M  V30 16029 H 1490.92 4.13734 0.80013 0
M  V30 16030 H 1489.65 2.99787 1.29597 0
M  V30 16031 H 1488.31 3.58776 -0.753332 0
M  V30 16032 H 1487.95 4.83545 1.3854 0
M  V30 16033 H 1487.65 5.87593 -0.0291802 0
M  V30 16034 H 1489.18 6.04101 0.888518 0
M  V30 16035 H 1490.59 5.57547 -1.3347 0
M  V30 16036 H 1488.99 5.61215 -2.12504 0
M  V30 16037 H 1490.06 4.22252 -2.38394 0
M  V30 16038 N 1491.4 0.642663 1.43901 0
M  V30 16039 C 1492.31 -0.0562462 2.34533 0
M  V30 16040 C 1493.33 -0.823457 1.53281 0
M  V30 16041 O 1494.5 -0.773103 1.85971 0
M  V30 16042 C 1491.57 -1.01787 3.31422 0
M  V30 16043 C 1490.63 -0.248759 4.28579 0
M  V30 16044 C 1489.86 -1.16458 5.20839 0
M  V30 16045 O 1490.09 -2.40361 5.17284 0
M  V30 16046 O 1489.02 -0.642671 5.98459 0
M  V30 16047 H 1492.85 0.689476 2.9577 0
M  V30 16048 H 1490.43 0.402847 1.43866 0
M  V30 16049 H 1492.31 -1.5708 3.91029 0
M  V30 16050 H 1490.99 -1.744 2.72702 0
M  V30 16051 H 1489.9 0.347495 3.72483 0
M  V30 16052 H 1491.23 0.437589 4.90251 0
M  V30 16053 N 1492.88 -1.52852 0.383918 0
M  V30 16054 C 1494.16 -1.939 -0.25729 0
M  V30 16055 C 1494.54 -1.31895 -1.64824 0
M  V30 16056 O 1493.89 -0.484987 -2.23294 0
M  V30 16057 C 1494.1 -3.47801 -0.289064 0
M  V30 16058 C 1495.44 -4.21396 -0.520611 0
M  V30 16059 O 1496.47 -3.54278 -0.369502 0
M  V30 16060 O 1495.33 -5.4037 -0.816254 0
M  V30 16061 H 1492.42 -0.811658 -0.158558 0
M  V30 16062 H 1494.97 -1.63949 0.438034 0
M  V30 16063 H 1493.74 -3.8525 0.685441 0
M  V30 16064 H 1493.36 -3.8404 -1.02953 0
M  V30 16065 N 1494.36 -0.113586 -1.5719 0
M  V30 16066 C 1495.64 0.588987 -1.86522 0
M  V30 16067 C 1496.02 1.85163 -1.01379 0
M  V30 16068 O 1495.36 2.28318 -0.0912188 0
M  V30 16069 C 1495.57 0.886633 -3.3755 0
M  V30 16070 C 1496.92 1.24206 -4.06027 0
M  V30 16071 O 1497.95 0.977068 -3.42537 0
M  V30 16072 O 1496.81 1.73914 -5.18089 0
M  V30 16073 H 1493.9 0.296637 -0.771968 0
M  V30 16074 H 1496.45 -0.147681 -1.69056 0
M  V30 16075 H 1495.22 -0.00835421 -3.91299 0
M  V30 16076 H 1494.84 1.67865 -3.60426 0
M  V30 16077 N 1495.84 1.56784 0.160173 0
M  V30 16078 C 1497.09 1.8226 0.873253 0
M  V30 16079 C 1497.41 0.692384 1.82294 0
M  V30 16080 O 1496.68 -0.286961 1.93787 0
M  V30 16081 H 1495.26 0.672371 0.325463 0
M  V30 16082 H 1497.92 1.94264 0.157325 0
M  V30 16083 H 1497.01 2.76714 1.44345 0
M  V30 16084 N 1497.32 -0.429099 1.51646 0
M  V30 16085 C 1498.56 -1.17551 1.64396 0
M  V30 16086 C 1498.88 -1.91526 0.366444 0
M  V30 16087 O 1498.15 -1.85896 -0.618013 0
M  V30 16088 H 1496.73 -0.436918 0.605898 0
M  V30 16089 H 1499.4 -0.491159 1.8861 0
M  V30 16090 H 1498.49 -1.90057 2.47557 0
M  V30 16091 N 1498.79 -1.41931 -0.685074 0
M  V30 16092 C 1499.7 -1.46985 -1.82846 0
M  V30 16093 C 1500.72 -0.359487 -1.70246 0
M  V30 16094 O 1501.9 -0.608824 -1.91977 0
M  V30 16095 C 1498.96 -1.36001 -3.18912 0
M  V30 16096 C 1498.02 -2.57442 -3.43543 0
M  V30 16097 C 1497.25 -2.46972 -4.73118 0
M  V30 16098 O 1497.48 -1.49999 -5.50324 0
M  V30 16099 O 1496.41 -3.36922 -4.98766 0
M  V30 16100 H 1500.24 -2.4347 -1.81538 0
M  V30 16101 H 1497.82 -1.23583 -0.839497 0
M  V30 16102 H 1499.7 -1.32198 -4.00127 0
M  V30 16103 H 1498.38 -0.426366 -3.2088 0
M  V30 16104 H 1497.29 -2.66821 -2.62217 0
M  V30 16105 H 1498.62 -3.49671 -3.46398 0
M  V30 16106 N 1500.27 0.920374 -1.27933 0
M  V30 16107 C 1501.55 1.64765 -1.05413 0
M  V30 16108 C 1501.93 2.07106 0.408717 0
M  V30 16109 O 1501.28 1.81094 1.39346 0
M  V30 16110 C 1501.49 2.84417 -2.02257 0
M  V30 16111 C 1502.83 3.5559 -2.32036 0
M  V30 16112 O 1503.86 2.94555 -2.00289 0
M  V30 16113 O 1502.72 4.65574 -2.86187 0
M  V30 16114 H 1499.81 0.722503 -0.402391 0
M  V30 16115 H 1502.36 0.970263 -1.39226 0
M  V30 16116 H 1501.13 2.50174 -3.0088 0
M  V30 16117 H 1500.75 3.59872 -1.6905 0
M  V30 16118 N 1501.75 1.10074 1.1279 0
M  V30 16119 C 1502.71 0.74967 2.16593 0
M  V30 16120 C 1503.71 -0.224046 1.59232 0
M  V30 16121 O 1504.9 -0.00137104 1.742 0
M  V30 16122 C 1502.03 0.109795 3.40723 0
M  V30 16123 H 1503.23 1.66906 2.49164 0
M  V30 16124 H 1500.78 0.900781 1.27733 0
M  V30 16125 H 1501.52 -0.820501 3.13749 0
M  V30 16126 H 1501.3 0.810517 3.83631 0
M  V30 16127 H 1502.79 -0.120198 4.17427 0
M  V30 16128 N 1503.23 -1.30138 0.888926 0
M  V30 16129 C 1504.16 -2.27013 0.315904 0
M  V30 16130 C 1505.17 -1.53871 -0.531746 0
M  V30 16131 O 1506.36 -1.75022 -0.350654 0
M  V30 16132 C 1503.46 -3.34087 -0.569119 0
M  V30 16133 C 1502.63 -4.36683 0.250359 0
M  V30 16134 C 1501.69 -5.23149 -0.565783 0
M  V30 16135 O 1500.72 -5.69199 0.0129167 0
M  V30 16136 N 1501.92 -5.49416 -1.8741 0
M  V30 16137 H 1504.69 -2.76821 1.14848 0
M  V30 16138 H 1502.25 -1.43359 0.752311 0
M  V30 16139 H 1504.24 -3.88857 -1.12125 0
M  V30 16140 H 1502.81 -2.84178 -1.30237 0
M  V30 16141 H 1502.03 -3.81723 0.983931 0
M  V30 16142 H 1503.32 -5.02279 0.811964 0
M  V30 16143 H 1502.72 -5.13793 -2.36713 0
M  V30 16144 H 1501.27 -6.07045 -2.37359 0
M  V30 16145 N 1504.71 -0.650285 -1.43559 0
M  V30 16146 C 1505.93 -0.168483 -2.06715 0
M  V30 16147 C 1506.36 1.15576 -1.48404 0
M  V30 16148 O 1505.71 1.71333 -0.592842 0
M  V30 16149 C 1505.76 -0.0877095 -3.60493 0
M  V30 16150 O 1504.87 0.950915 -4.01287 0
M  V30 16151 H 1504.21 -0.0935281 -0.65738 0
M  V30 16152 H 1506.74 -0.892381 -1.84113 0
M  V30 16153 H 1506.75 0.0965825 -4.07886 0
M  V30 16154 H 1505.42 -1.05442 -4.02312 0
M  V30 16155 H 1504 0.739648 -3.65491 0
M  V30 16156 N 1506.18 1.52647 -0.392018 0
M  V30 16157 C 1507.43 2.01613 0.1893 0
M  V30 16158 C 1507.76 1.27837 1.46588 0
M  V30 16159 O 1507.01 0.368018 1.92209 0
M  V30 16160 C 1507.31 3.53872 0.500914 0
M  V30 16161 C 1506.98 4.45675 -0.684434 0
M  V30 16162 C 1505.64 4.70489 -1.00961 0
M  V30 16163 C 1507.99 4.99825 -1.4773 0
M  V30 16164 C 1505.32 5.46703 -2.12915 0
M  V30 16165 C 1507.67 5.77263 -2.58747 0
M  V30 16166 C 1506.34 6.00355 -2.9177 0
M  V30 16167 H 1505.61 0.737755 0.0692697 0
M  V30 16168 H 1508.25 1.84022 -0.529924 0
M  V30 16169 H 1506.56 3.69551 1.3015 0
M  V30 16170 H 1508.26 3.89256 0.963382 0
M  V30 16171 H 1504.85 4.26527 -0.420985 0
M  V30 16172 H 1509.03 4.80577 -1.23932 0
M  V30 16173 H 1504.29 5.62807 -2.38868 0
M  V30 16174 H 1508.46 6.18223 -3.20583 0
M  V30 16175 H 1506.09 6.59194 -3.7864 0
M  V30 16176 N 1507.66 0.121921 1.57128 0
M  V30 16177 C 1508.59 -0.857725 2.12546 0
M  V30 16178 C 1509.61 -1.22797 1.06886 0
M  V30 16179 O 1510.8 -1.17641 1.34249 0
M  V30 16180 C 1507.9 -2.15869 2.61254 0
M  V30 16181 C 1507.07 -1.95969 3.91043 0
M  V30 16182 C 1506.13 -3.09822 4.2532 0
M  V30 16183 O 1505.15 -2.82608 4.94087 0
M  V30 16184 N 1506.36 -4.36333 3.82875 0
M  V30 16185 H 1509.12 -0.384239 2.97227 0
M  V30 16186 H 1506.68 -0.062416 1.6178 0
M  V30 16187 H 1508.67 -2.91035 2.81213 0
M  V30 16188 H 1507.24 -2.54557 1.81437 0
M  V30 16189 H 1506.46 -1.04979 3.79965 0
M  V30 16190 H 1507.75 -1.79981 4.75904 0
M  V30 16191 H 1507.15 -4.61318 3.27417 0
M  V30 16192 H 1505.71 -5.08362 4.07936 0
M  V30 16193 N 1509.14 -1.56867 -0.151857 0
M  V30 16194 C 1510.07 -1.94494 -1.21263 0
M  V30 16195 C 1511.09 -0.84021 -1.39443 0
M  V30 16196 O 1512.27 -1.11863 -1.391 0
M  V30 16197 C 1509.37 -2.19952 -2.57826 0
M  V30 16198 C 1508.55 -3.51227 -2.60689 0
M  V30 16199 C 1507.61 -3.65282 -3.78756 0
M  V30 16200 O 1506.63 -4.3772 -3.63854 0
M  V30 16201 N 1507.83 -3.01582 -4.96012 0
M  V30 16202 H 1510.6 -2.86092 -0.892845 0
M  V30 16203 H 1508.16 -1.58258 -0.341463 0
M  V30 16204 H 1510.15 -2.266 -3.35312 0
M  V30 16205 H 1508.72 -1.34643 -2.82117 0
M  V30 16206 H 1507.94 -3.56062 -1.69155 0
M  V30 16207 H 1509.23 -4.37574 -2.59628 0
M  V30 16208 H 1508.63 -2.42637 -5.11022 0
M  V30 16209 H 1507.19 -3.13799 -5.71291 0
M  V30 16210 N 1510.62 0.421051 -1.51871 0
M  V30 16211 C 1511.53 1.5371 -1.7723 0
M  V30 16212 C 1512.54 1.61109 -0.657256 0
M  V30 16213 O 1513.72 1.78047 -0.941343 0
M  V30 16214 C 1510.79 2.89555 -1.9068 0
M  V30 16215 C 1509.85 2.9214 -3.14567 0
M  V30 16216 C 1509.08 4.21505 -3.27367 0
M  V30 16217 O 1509.3 5.14764 -2.45712 0
M  V30 16218 O 1508.24 4.30706 -4.20448 0
M  V30 16219 H 1512.06 1.35221 -2.71935 0
M  V30 16220 H 1509.65 0.605712 -1.3657 0
M  V30 16221 H 1511.53 3.70147 -2.01418 0
M  V30 16222 H 1510.2 3.08137 -0.991627 0
M  V30 16223 H 1509.11 2.10444 -3.09296 0
M  V30 16224 H 1510.44 2.78505 -4.05827 0
M  V30 16225 N 1512.1 1.42293 0.677538 0
M  V30 16226 C 1513.34 1.42827 1.43973 0
M  V30 16227 C 1513.68 0.0435041 1.94151 0
M  V30 16228 O 1512.95 -0.931794 1.70727 0
M  V30 16229 C 1513.23 2.45037 2.63873 0
M  V30 16230 C 1513.09 3.92694 2.19344 0
M  V30 16231 C 1514.41 2.4427 3.66087 0
M  V30 16232 H 1511.52 0.520097 0.522176 0
M  V30 16233 H 1514.17 1.73688 0.770219 0
M  V30 16234 H 1512.32 2.18851 3.20993 0
M  V30 16235 H 1513.99 4.2985 1.67412 0
M  V30 16236 H 1512.23 4.06692 1.50944 0
M  V30 16237 H 1512.9 4.59784 3.05455 0
M  V30 16238 H 1515.38 2.67551 3.18678 0
M  V30 16239 H 1514.25 3.17769 4.47564 0
M  V30 16240 H 1514.52 1.46769 4.17027 0
M  V30 16241 N 1513.57 -0.913576 1.28419 0
M  V30 16242 C 1514.82 -1.65731 1.14961 0
M  V30 16243 C 1515.14 -1.93269 -0.301079 0
M  V30 16244 O 1516.34 -2.6573 -0.556778 0
M  V30 16245 C 1514.8 -2.98562 2.00969 0
M  V30 16246 C 1514.41 -2.78671 3.5078 0
M  V30 16247 C 1516.15 -3.76439 1.96198 0
M  V30 16248 C 1514.06 -4.07144 4.28938 0
M  V30 16249 H 1512.99 -0.621681 0.426648 0
M  V30 16250 H 1515.64 -1.0138 1.52952 0
M  V30 16251 H 1514.02 -3.64049 1.55835 0
M  V30 16252 H 1515.19 -2.21864 4.03873 0
M  V30 16253 H 1513.51 -2.14206 3.57078 0
M  V30 16254 H 1516.11 -4.71668 2.51861 0
M  V30 16255 H 1516.45 -4.05577 0.938771 0
M  V30 16256 H 1516.98 -3.17772 2.39303 0
M  V30 16257 H 1513.72 -3.83178 5.31841 0
M  V30 16258 H 1513.24 -4.63562 3.80619 0
M  V30 16259 H 1514.92 -4.754 4.38866 0
M  V30 16260 N 1515.05 -1.1067 -1.12204 0
M  V30 16261 C 1516.46 -0.867959 -1.65298 0
M  V30 16262 C 1516.81 0.601297 -1.86759 0
M  V30 16263 O 1515.94 1.46153 -1.59588 0
M  V30 16264 C 1516.53 -1.56906 -3.00276 0
M  V30 16265 C 1515.09 -1.37696 -3.5031 0
M  V30 16266 C 1514.24 -1.61688 -2.25282 0
M  V30 16267 H 1517.19 -1.26408 -0.959521 0
M  V30 16268 H 1517.21 -1.00947 -3.66865 0
M  V30 16269 H 1516.72 -2.63838 -2.84625 0
M  V30 16270 H 1514.83 -0.329381 -3.71141 0
M  V30 16271 H 1514.94 -2.12058 -4.29614 0
M  V30 16272 H 1513.3 -1.03977 -2.3251 0
M  V30 16273 H 1514.09 -2.69877 -2.12182 0
M  V30 16274 N 1516.53 1.29665 -0.895815 0
M  V30 16275 C 1517.48 2.27831 -0.369011 0
M  V30 16276 C 1518.45 1.56843 0.546756 0
M  V30 16277 O 1519.63 1.84848 0.472837 0
M  V30 16278 C 1516.77 3.42764 0.400884 0
M  V30 16279 C 1515.89 4.28544 -0.545335 0
M  V30 16280 C 1515.02 5.30652 0.241228 0
M  V30 16281 C 1514.06 6.08087 -0.699765 0
M  V30 16282 N 1513.2 7.02081 0.0521477 0
M  V30 16283 H 1518.04 2.72274 -1.21124 0
M  V30 16284 H 1515.57 1.33918 -0.608631 0
M  V30 16285 H 1517.53 4.08171 0.863277 0
M  V30 16286 H 1516.16 2.99361 1.2076 0
M  V30 16287 H 1515.21 3.63346 -1.12624 0
M  V30 16288 H 1516.53 4.82472 -1.26579 0
M  V30 16289 H 1515.68 6.01858 0.764994 0
M  V30 16290 H 1514.42 4.77446 0.994838 0
M  V30 16291 H 1513.42 5.35748 -1.23507 0
M  V30 16292 H 1514.65 6.63382 -1.45264 0
M  V30 16293 H 1512.59 6.51249 0.788096 0
M  V30 16294 H 1512.51 7.53547 -0.60847 0
M  V30 16295 H 1513.78 7.77512 0.556304 0
M  V30 16296 N 1518.01 0.657889 1.43212 0
M  V30 16297 C 1519.26 0.172845 2.0136 0
M  V30 16298 C 1519.58 -1.21911 1.52193 0
M  V30 16299 O 1518.85 -1.81529 0.736492 0
M  V30 16300 H 1517.43 0.0609091 0.744513 0
M  V30 16301 H 1520.09 0.850605 1.75359 0
M  V30 16302 H 1519.19 0.161062 3.11684 0
M  V30 16303 N 1519.49 -1.52437 0.400108 0
M  V30 16304 C 1520.42 -2.24433 -0.465038 0
M  V30 16305 C 1521.43 -1.27067 -1.01773 0
M  V30 16306 O 1522.62 -1.53072 -0.918215 0
M  V30 16307 C 1519.72 -2.95555 -1.65832 0
M  V30 16308 C 1518.89 -4.19717 -1.2311 0
M  V30 16309 C 1517.95 -4.73743 -2.29028 0
M  V30 16310 O 1516.98 -5.36556 -1.8999 0
M  V30 16311 N 1518.18 -4.54534 -3.6108 0
M  V30 16312 H 1520.95 -2.99315 0.151839 0
M  V30 16313 H 1518.51 -1.603 0.227019 0
M  V30 16314 H 1520.5 -3.28595 -2.36235 0
M  V30 16315 H 1519.07 -2.23915 -2.18131 0
M  V30 16316 H 1518.29 -3.92593 -0.355537 0
M  V30 16317 H 1519.58 -5.00367 -0.922487 0
M  V30 16318 H 1518.97 -4.04419 -3.95552 0
M  V30 16319 H 1517.53 -4.92035 -4.27486 0
M  V30 16320 N 1520.96 -0.130252 -1.57061 0
M  V30 16321 C 1521.9 0.846442 -2.12998 0
M  V30 16322 C 1522.91 1.22229 -1.07536 0
M  V30 16323 O 1524.1 1.16928 -1.34871 0
M  V30 16324 C 1521.2 2.14481 -2.62395 0
M  V30 16325 C 1520.37 1.93892 -3.92077 0
M  V30 16326 C 1519.43 3.07562 -4.26957 0
M  V30 16327 O 1518.46 2.79983 -4.95578 0
M  V30 16328 N 1519.66 4.34297 -3.85184 0
M  V30 16329 H 1522.42 0.368471 -2.97426 0
M  V30 16330 H 1519.98 0.0538355 -1.6181 0
M  V30 16331 H 1521.98 2.8954 -2.82752 0
M  V30 16332 H 1520.55 2.53592 -1.82784 0
M  V30 16333 H 1519.77 1.02962 -3.80516 0
M  V30 16334 H 1521.05 1.77454 -4.76852 0
M  V30 16335 H 1520.45 4.59575 -3.29859 0
M  V30 16336 H 1519.01 5.06191 -4.10626 0
M  V30 16337 N 1522.44 1.56945 0.143535 0
M  V30 16338 C 1523.35 2.01795 1.1965 0
M  V30 16339 C 1524.37 0.933965 1.4681 0
M  V30 16340 O 1525.55 1.2437 1.58411 0
M  V30 16341 C 1522.61 2.39249 2.5092 0
M  V30 16342 C 1521.67 3.61613 2.31376 0
M  V30 16343 C 1520.9 3.97271 3.56386 0
M  V30 16344 O 1521.13 3.33552 4.62709 0
M  V30 16345 O 1520.06 4.90501 3.48844 0
M  V30 16346 H 1523.89 2.91687 0.845718 0
M  V30 16347 H 1521.47 1.45182 0.352518 0
M  V30 16348 H 1523.35 2.64184 3.28306 0
M  V30 16349 H 1522.03 1.52511 2.85521 0
M  V30 16350 H 1520.94 3.4186 1.51929 0
M  V30 16351 H 1522.27 4.48979 2.01689 0
M  V30 16352 N 1523.92 -0.412991 1.52093 0
M  V30 16353 C 1524.85 -1.52187 1.71382 0
M  V30 16354 C 1525.87 -1.51567 0.594247 0
M  V30 16355 O 1527.06 -1.55902 0.869293 0
M  V30 16356 C 1524.16 -2.91086 1.73557 0
M  V30 16357 C 1523.33 -3.15941 3.0249 0
M  V30 16358 C 1522.39 -4.34692 2.96529 0
M  V30 16359 O 1521.41 -4.3216 3.70441 0
M  V30 16360 N 1522.62 -5.39594 2.14052 0
M  V30 16361 H 1525.38 -1.36036 2.67047 0
M  V30 16362 H 1522.94 -0.602243 1.50282 0
M  V30 16363 H 1524.93 -3.68589 1.67106 0
M  V30 16364 H 1523.5 -3.00714 0.85382 0
M  V30 16365 H 1522.72 -2.26517 3.2262 0
M  V30 16366 H 1524.01 -3.29388 3.87789 0
M  V30 16367 H 1523.41 -5.44498 1.53424 0
M  V30 16368 H 1521.97 -6.15855 2.13461 0
M  V30 16369 N 1525.4 -1.4265 -0.669982 0
M  V30 16370 C 1526.33 -1.49298 -1.79534 0
M  V30 16371 C 1527.31 -0.34911 -1.66479 0
M  V30 16372 O 1528.5 -0.564072 -1.85828 0
M  V30 16373 C 1525.63 -1.39935 -3.17861 0
M  V30 16374 C 1524.58 -2.52398 -3.45657 0
M  V30 16375 C 1523.91 -2.28092 -4.8361 0
M  V30 16376 C 1525.21 -3.94697 -3.4207 0
M  V30 16377 H 1526.9 -2.43486 -1.74227 0
M  V30 16378 H 1524.45 -1.17191 -0.836796 0
M  V30 16379 H 1526.4 -1.43193 -3.96325 0
M  V30 16380 H 1525.12 -0.422436 -3.23857 0
M  V30 16381 H 1523.78 -2.48465 -2.69556 0
M  V30 16382 H 1523.43 -1.28683 -4.86261 0
M  V30 16383 H 1523.13 -3.03469 -5.0317 0
M  V30 16384 H 1524.65 -2.33107 -5.64352 0
M  V30 16385 H 1526.07 -4.00207 -4.10496 0
M  V30 16386 H 1524.46 -4.69965 -3.73166 0
M  V30 16387 H 1525.53 -4.21025 -2.40554 0
M  V30 16388 N 1526.88 0.906753 -1.28902 0
M  V30 16389 C 1527.81 2.01497 -1.09233 0
M  V30 16390 C 1528.82 1.62746 -0.0419378 0
M  V30 16391 O 1530.01 1.76198 -0.285728 0
M  V30 16392 C 1527.11 3.32816 -0.639255 0
M  V30 16393 C 1526.28 4.00137 -1.76661 0
M  V30 16394 C 1525.34 5.09742 -1.30573 0
M  V30 16395 O 1524.37 5.32559 -2.00921 0
M  V30 16396 N 1525.57 5.80243 -0.17275 0
M  V30 16397 H 1528.34 2.18927 -2.04673 0
M  V30 16398 H 1525.9 1.0785 -1.20748 0
M  V30 16399 H 1527.89 4.03477 -0.31439 0
M  V30 16400 H 1526.46 3.11807 0.222498 0
M  V30 16401 H 1525.68 3.22933 -2.26071 0
M  V30 16402 H 1526.97 4.41859 -2.52266 0
M  V30 16403 H 1526.37 5.64184 0.413931 0
M  V30 16404 H 1524.92 6.51734 0.0927926 0
M  V30 16405 N 1528.36 1.11264 1.11616 0
M  V30 16406 C 1529.29 0.727118 2.17361 0
M  V30 16407 C 1530.3 -0.240356 1.61016 0
M  V30 16408 O 1531.49 -0.0235265 1.78484 0
M  V30 16409 C 1528.59 0.05361 3.38858 0
M  V30 16410 C 1527.76 1.04744 4.24673 0
M  V30 16411 C 1526.82 0.403827 5.24648 0
M  V30 16412 O 1525.85 1.0572 5.59296 0
M  V30 16413 N 1527.05 -0.834071 5.74477 0
M  V30 16414 H 1529.81 1.63696 2.51045 0
M  V30 16415 H 1527.38 1.00261 1.2712 0
M  V30 16416 H 1529.37 -0.388643 4.0283 0
M  V30 16417 H 1527.94 -0.758778 3.03251 0
M  V30 16418 H 1527.16 1.6677 3.57185 0
M  V30 16419 H 1528.45 1.71988 4.7885 0
M  V30 16420 H 1527.84 -1.3841 5.48506 0
M  V30 16421 H 1526.4 -1.21933 6.40293 0
M  V30 16422 N 1529.83 -1.29188 0.902679 0
M  V30 16423 C 1531.08 -1.95727 0.530909 0
M  V30 16424 C 1531.41 -1.70971 -0.921014 0
M  V30 16425 O 1530.69 -1.02436 -1.65339 0
M  V30 16426 C 1530.97 -3.50463 0.827523 0
M  V30 16427 C 1530.82 -3.84665 2.33137 0
M  V30 16428 C 1532.14 -4.38964 0.316053 0
M  V30 16429 H 1529.26 -0.71091 0.194361 0
M  V30 16430 H 1531.9 -1.52752 1.1299 0
M  V30 16431 H 1530.05 -3.87199 0.317732 0
M  V30 16432 H 1531.73 -3.57859 2.91093 0
M  V30 16433 H 1529.97 -3.32102 2.79088 0
M  V30 16434 H 1530.64 -4.92676 2.48947 0
M  V30 16435 H 1533.12 -4.09237 0.75262 0
M  V30 16436 H 1531.99 -5.4611 0.552769 0
M  V30 16437 H 1532.25 -4.35105 -0.783329 0
M  V30 16438 N 1531.31 -0.665475 -1.42861 0
M  V30 16439 C 1532.22 0.018927 -2.34592 0
M  V30 16440 C 1533.24 0.798967 -1.54572 0
M  V30 16441 O 1534.41 0.743419 -1.87177 0
M  V30 16442 C 1531.48 0.965013 -3.32999 0
M  V30 16443 C 1530.54 0.180544 -4.2892 0
M  V30 16444 C 1529.77 1.08157 -5.22626 0
M  V30 16445 O 1530 2.32101 -5.21043 0
M  V30 16446 O 1528.93 0.54738 -5.99406 0
M  V30 16447 H 1532.76 -0.736444 -2.94636 0
M  V30 16448 H 1530.34 -0.425684 -1.43207 0
M  V30 16449 H 1532.22 1.50839 -3.93479 0
M  V30 16450 H 1530.9 1.7004 -2.75442 0
M  V30 16451 H 1529.8 -0.40671 -3.71883 0
M  V30 16452 H 1531.14 -0.515529 -4.89493 0
M  V30 16453 N 1532.79 1.52222 -0.408187 0
M  V30 16454 C 1534.21 1.59491 -0.0590201 0
M  V30 16455 C 1534.41 1.42109 1.42854 0
M  V30 16456 O 1533.46 1.24757 2.19527 0
M  V30 16457 C 1534.77 2.9557 -0.553093 0
M  V30 16458 C 1536.32 3.08801 -0.510986 0
M  V30 16459 C 1536.8 4.47358 -0.981554 0
M  V30 16460 N 1538.29 4.53596 -0.938335 0
M  V30 16461 C 1539.02 5.59076 -1.27364 0
M  V30 16462 N 1538.52 6.72113 -1.68035 0
M  V30 16463 N 1540.31 5.49279 -1.19367 0
M  V30 16464 H 1532.46 1.61768 -1.37641 0
M  V30 16465 H 1534.73 0.760959 -0.565372 0
M  V30 16466 H 1534.43 3.13566 -1.59276 0
M  V30 16467 H 1534.31 3.77181 0.0377629 0
M  V30 16468 H 1536.69 2.90489 0.519637 0
M  V30 16469 H 1536.77 2.29098 -1.13788 0
M  V30 16470 H 1536.42 4.66413 -2.0105 0
M  V30 16471 H 1536.35 5.25556 -0.331478 0
M  V30 16472 H 1538.84 3.72453 -0.639297 0
M  V30 16473 H 1539.15 7.48586 -1.91934 0
M  V30 16474 H 1537.5 6.73396 -1.71938 0
M  V30 16475 H 1540.69 4.59853 -0.8748 0
M  V30 16476 H 1540.86 6.31378 -1.45829 0
M  V30 16477 N 1534.27 0.138579 1.5699 0
M  V30 16478 C 1535.51 -0.517479 1.97741 0
M  V30 16479 C 1535.87 -1.62587 1.02125 0
M  V30 16480 O 1537.07 -2.3422 1.31888 0
M  V30 16481 C 1535.34 -1.01841 3.42583 0
M  V30 16482 S 1536.9 -1.68025 4.05355 0
M  V30 16483 H 1533.72 -0.167594 0.690965 0
M  V30 16484 H 1536.32 0.2283 1.94162 0
M  V30 16485 H 1535.03 -0.200832 4.09908 0
M  V30 16486 H 1534.56 -1.79901 3.49856 0
M  V30 16487 H 1536.57 -2.96708 3.97717 0
M  V30 16488 N 1535.75 -1.57019 -0.13521 0
M  V30 16489 C 1536.99 -1.83626 -0.844147 0
M  V30 16490 C 1537.31 -0.721298 -1.81169 0
M  V30 16491 O 1536.58 0.256095 -1.94219 0
M  V30 16492 H 1535.16 -0.677464 -0.314725 0
M  V30 16493 H 1537.83 -1.9449 -0.126399 0
M  V30 16494 H 1536.92 -2.78976 -1.39925 0
M  V30 16495 N 1537.22 0.404919 -1.52309 0
M  V30 16496 C 1538.5 1.16473 -1.57142 0
M  V30 16497 C 1538.88 2.08094 -0.354967 0
M  V30 16498 O 1538.23 2.18825 0.65788 0
M  V30 16499 C 1538.44 1.93834 -2.90223 0
M  V30 16500 C 1539.79 2.49754 -3.43378 0
M  V30 16501 O 1540.81 2.04009 -2.91991 0
M  V30 16502 O 1539.67 3.33271 -4.3312 0
M  V30 16503 H 1536.76 0.532036 -0.633141 0
M  V30 16504 H 1539.31 0.411359 -1.64639 0
M  V30 16505 H 1538.08 1.2674 -3.70206 0
M  V30 16506 H 1537.71 2.76167 -2.86038 0
M  V30 16507 N 1538.7 1.43003 0.662408 0
M  V30 16508 C 1539.65 1.43898 1.76854 0
M  V30 16509 C 1540.64 0.308629 1.57912 0
M  V30 16510 O 1541.83 0.551757 1.6818 0
M  V30 16511 C 1538.96 1.35585 3.15391 0
M  V30 16512 C 1538.04 2.53614 3.39913 0
M  V30 16513 N 1538.43 3.78998 3.34954 0
M  V30 16514 C 1536.73 2.48141 3.70597 0
M  V30 16515 C 1537.43 4.57467 3.59303 0
M  V30 16516 N 1536.41 3.8806 3.80671 0
M  V30 16517 H 1540.21 2.38722 1.71432 0
M  V30 16518 H 1537.73 1.37526 0.863728 0
M  V30 16519 H 1539.72 1.34308 3.94673 0
M  V30 16520 H 1538.38 0.417735 3.22002 0
M  V30 16521 H 1539.39 4.11417 3.14574 0
M  V30 16522 H 1536.07 1.62971 3.84379 0
M  V30 16523 H 1537.46 5.66475 3.61326 0
M  V30 16524 N 1540.18 -0.899904 1.29381 0
M  V30 16525 C 1541.11 -2.02045 1.17047 0
M  V30 16526 C 1542.09 -1.69977 0.0647354 0
M  V30 16527 O 1543.28 -1.92659 0.244173 0
M  V30 16528 C 1540.41 -3.36839 0.845991 0
M  V30 16529 C 1539.36 -3.83117 1.90802 0
M  V30 16530 C 1538.69 -5.15032 1.43686 0
M  V30 16531 C 1539.99 -4.03464 3.31684 0
M  V30 16532 H 1541.68 -2.12623 2.10789 0
M  V30 16533 H 1539.23 -1.02162 1.01484 0
M  V30 16534 H 1541.18 -4.14737 0.746413 0
M  V30 16535 H 1539.9 -3.26352 -0.127125 0
M  V30 16536 H 1538.56 -3.07435 1.99698 0
M  V30 16537 H 1538.21 -5.00961 0.452422 0
M  V30 16538 H 1537.91 -5.46967 2.14711 0
M  V30 16539 H 1539.43 -5.95472 1.35078 0
M  V30 16540 H 1540.85 -4.71845 3.25631 0
M  V30 16541 H 1539.25 -4.46752 4.00665 0
M  V30 16542 H 1540.32 -3.07807 3.74677 0
M  V30 16543 N 1541.66 -1.11854 -1.11024 0
M  V30 16544 C 1542.89 -0.892714 -1.8665 0
M  V30 16545 C 1543.3 0.557721 -1.80374 0
M  V30 16546 O 1542.66 1.3853 -1.1881 0
M  V30 16547 C 1542.71 -1.35135 -3.35292 0
M  V30 16548 O 1542.43 -2.74493 -3.41446 0
M  V30 16549 C 1543.93 -1.16157 -4.27811 0
M  V30 16550 H 1541.15 -0.319409 -0.590101 0
M  V30 16551 H 1543.7 -1.48697 -1.40391 0
M  V30 16552 H 1541.85 -0.80046 -3.7904 0
M  V30 16553 H 1542.26 -2.94474 -4.34034 0
M  V30 16554 H 1543.74 -1.53144 -5.30331 0
M  V30 16555 H 1544.22 -0.101546 -4.39083 0
M  V30 16556 H 1544.82 -1.69966 -3.89861 0
M  V30 16557 N 1543.14 1.28707 -0.909517 0
M  V30 16558 C 1544.55 1.77212 -0.587613 0
M  V30 16559 C 1544.9 1.74495 0.896986 0
M  V30 16560 O 1544.02 1.33698 1.70158 0
M  V30 16561 C 1544.62 3.21794 -1.05989 0
M  V30 16562 C 1543.18 3.68038 -0.788983 0
M  V30 16563 C 1542.32 2.48576 -1.22903 0
M  V30 16564 H 1545.28 1.1523 -1.09122 0
M  V30 16565 H 1545.3 3.78397 -0.399469 0
M  V30 16566 H 1544.81 3.23739 -2.14043 0
M  V30 16567 H 1542.91 3.71558 0.278523 0
M  V30 16568 H 1543.02 4.58379 -1.39376 0
M  V30 16569 H 1541.39 2.46323 -0.647838 0
M  V30 16570 H 1542.17 2.53243 -2.31782 0
M  V30 16571 N 1544.61 0.673042 1.42506 0
M  V30 16572 C 1546.03 0.342429 1.55883 0
M  V30 16573 C 1546.23 -1.15229 1.65302 0
M  V30 16574 O 1545.29 -1.93767 1.61897 0
M  V30 16575 C 1546.6 1.0712 2.80973 0
M  V30 16576 C 1548.15 1.05336 2.94743 0
M  V30 16577 C 1548.62 1.76342 4.22691 0
M  V30 16578 N 1550.11 1.73201 4.29599 0
M  V30 16579 C 1550.85 2.25 5.27411 0
M  V30 16580 N 1550.34 2.85173 6.31386 0
M  V30 16581 N 1552.14 2.15385 5.19197 0
M  V30 16582 H 1544.29 1.64277 1.34636 0
M  V30 16583 H 1546.55 0.691984 0.647968 0
M  V30 16584 H 1546.26 2.1263 2.80145 0
M  V30 16585 H 1546.13 0.635313 3.71811 0
M  V30 16586 H 1548.52 0.00659669 2.95099 0
M  V30 16587 H 1548.6 1.52811 2.0514 0
M  V30 16588 H 1548.24 2.80985 4.23096 0
M  V30 16589 H 1548.17 1.26317 5.11225 0
M  V30 16590 H 1550.66 1.2931 3.55088 0
M  V30 16591 H 1550.98 3.22323 7.02373 0
M  V30 16592 H 1549.32 2.89242 6.31953 0
M  V30 16593 H 1552.51 1.68065 4.36889 0
M  V30 16594 H 1552.69 2.5606 5.95262 0
M  V30 16595 N 1546.09 -1.52004 0.416254 0
M  V30 16596 C 1547.32 -2.0679 -0.158937 0
M  V30 16597 C 1547.74 -1.28366 -1.37491 0
M  V30 16598 O 1547.1 -0.315815 -1.78528 0
M  V30 16599 C 1547.15 -3.57381 -0.480717 0
M  V30 16600 O 1546.25 -3.81321 -1.5706 0
M  V30 16601 H 1545.59 -0.663907 -0.0110938 0
M  V30 16602 H 1548.12 -1.95863 0.591509 0
M  V30 16603 H 1548.13 -4.01283 -0.737297 0
M  V30 16604 H 1546.81 -4.13893 0.408137 0
M  V30 16605 H 1545.39 -3.49296 -1.30563 0
M  V30 16606 N 1547.57 -0.146903 -1.56914 0
M  V30 16607 C 1548.98 0.373938 -1.82917 0
M  V30 16608 C 1549.33 1.64741 -1.06559 0
M  V30 16609 O 1548.46 2.14156 -0.310849 0
M  V30 16610 C 1549.05 0.685213 -3.31799 0
M  V30 16611 C 1547.61 1.15058 -3.58383 0
M  V30 16612 C 1546.76 0.17362 -2.76756 0
M  V30 16613 H 1549.71 -0.371602 -1.54288 0
M  V30 16614 H 1549.73 1.53989 -3.47948 0
M  V30 16615 H 1549.24 -0.241816 -3.87346 0
M  V30 16616 H 1547.34 2.09355 -3.08223 0
M  V30 16617 H 1547.46 1.07662 -4.66847 0
M  V30 16618 H 1545.82 0.666227 -2.45832 0
M  V30 16619 H 1546.6 -0.746998 -3.35074 0
M  V30 16620 N 1549.05 1.57088 0.126881 0
M  V30 16621 C 1550.3 1.84071 0.834397 0
M  V30 16622 C 1550.62 0.730896 1.80784 0
M  V30 16623 O 1549.89 -0.245791 1.94352 0
M  V30 16624 H 1548.47 0.679123 0.311128 0
M  V30 16625 H 1551.13 1.94554 0.116083 0
M  V30 16626 H 1550.23 2.79714 1.38443 0
M  V30 16627 N 1550.53 -0.396836 1.52522 0
M  V30 16628 C 1551.75 -1.16404 1.71049 0
M  V30 16629 C 1552.17 -1.83946 0.425378 0
M  V30 16630 O 1551.53 -1.7237 -0.599561 0
M  V30 16631 C 1551.58 -2.21796 2.85463 0
M  V30 16632 O 1551.3 -1.57009 4.08998 0
M  V30 16633 C 1552.8 -3.11303 3.15603 0
M  V30 16634 H 1550.02 -0.349314 0.572905 0
M  V30 16635 H 1552.56 -0.465297 1.99136 0
M  V30 16636 H 1550.72 -2.87318 2.59859 0
M  V30 16637 H 1551.13 -2.26977 4.72844 0
M  V30 16638 H 1552.61 -3.81299 3.99143 0
M  V30 16639 H 1553.08 -3.7437 2.2966 0
M  V30 16640 H 1553.69 -2.51435 3.43017 0
M  V30 16641 N 1552.01 -1.43353 -0.654814 0
M  V30 16642 C 1553.25 -1.44599 -1.41193 0
M  V30 16643 C 1553.57 -0.0707955 -1.94871 0
M  V30 16644 O 1552.84 0.893637 -1.7433 0
M  V30 16645 H 1551.42 -0.532373 -0.524011 0
M  V30 16646 H 1554.09 -1.78942 -0.772388 0
M  V30 16647 H 1553.18 -2.15761 -2.25508 0
M  V30 16648 N 1553.48 0.89303 -1.29857 0
M  V30 16649 C 1554.71 1.67744 -1.21119 0
M  V30 16650 C 1555.13 1.87428 0.227198 0
M  V30 16651 O 1554.48 1.41605 1.15128 0
M  V30 16652 C 1554.53 3.05827 -1.92749 0
M  V30 16653 O 1554.26 2.87036 -3.30971 0
M  V30 16654 C 1555.76 4.00248 -1.9057 0
M  V30 16655 H 1552.98 0.523699 -0.4195 0
M  V30 16656 H 1555.52 1.1163 -1.71344 0
M  V30 16657 H 1553.68 3.58696 -1.46342 0
M  V30 16658 H 1554.09 3.74578 -3.6714 0
M  V30 16659 H 1555.56 4.9453 -2.45242 0
M  V30 16660 H 1556.04 4.30237 -0.882753 0
M  V30 16661 H 1556.65 3.53312 -2.36751 0
M  V30 16662 N 1554.96 1.12442 1.10429 0
M  V30 16663 C 1556.19 0.902914 1.86714 0
M  V30 16664 C 1556.61 -0.542514 1.80107 0
M  V30 16665 O 1555.97 -1.38406 1.17105 0
M  V30 16666 C 1556.02 1.38238 3.33051 0
M  V30 16667 O 1555.12 0.560877 4.08568 0
M  V30 16668 H 1554.46 0.324397 0.579364 0
M  V30 16669 H 1556.99 1.49652 1.39519 0
M  V30 16670 H 1557 1.38148 3.839 0
M  V30 16671 H 1555.68 2.43486 3.37176 0
M  V30 16672 H 1554.25 0.628771 3.67561 0
M  V30 16673 N 1556.44 -1.28223 0.91633 0
M  V30 16674 C 1557.66 -1.99523 0.566147 0
M  V30 16675 C 1558.09 -1.68 -0.846034 0
M  V30 16676 O 1557.45 -0.913838 -1.56584 0
M  V30 16677 C 1557.5 -3.51949 0.785114 0
M  V30 16678 O 1556.6 -4.1211 -0.154686 0
M  V30 16679 H 1555.94 -0.626764 0.219232 0
M  V30 16680 H 1558.47 -1.63313 1.23247 0
M  V30 16681 H 1558.48 -4.02016 0.696224 0
M  V30 16682 H 1557.16 -3.74227 1.81457 0
M  V30 16683 H 1555.73 -3.72896 -0.0168463 0
M  V30 16684 N 1557.92 -0.68059 -1.42147 0
M  V30 16685 C 1558.83 -0.00595573 -2.34599 0
M  V30 16686 C 1559.84 0.782528 -1.55411 0
M  V30 16687 O 1561.02 0.723524 -1.87955 0
M  V30 16688 C 1558.08 0.92964 -3.34004 0
M  V30 16689 C 1557.15 0.135041 -4.29088 0
M  V30 16690 C 1556.38 1.02607 -5.23744 0
M  V30 16691 O 1556.6 2.26562 -5.23475 0
M  V30 16692 O 1555.54 0.483774 -5.99953 0
M  V30 16693 H 1559.36 -0.767652 -2.93838 0
M  V30 16694 H 1556.95 -0.440849 -1.42748 0
M  V30 16695 H 1558.83 1.46657 -3.95057 0
M  V30 16696 H 1557.5 1.67109 -2.7723 0
M  V30 16697 H 1556.41 -0.44613 -3.7143 0
M  V30 16698 H 1557.74 -0.567417 -4.88918 0
M  V30 16699 N 1559.4 1.51781 -0.424309 0
M  V30 16700 C 1560.67 1.94514 0.205791 0
M  V30 16701 C 1561.05 1.36219 1.61269 0
M  V30 16702 O 1560.4 0.544019 2.21929 0
M  V30 16703 C 1560.61 3.48445 0.196749 0
M  V30 16704 C 1561.96 4.22628 0.408702 0
M  V30 16705 O 1562.98 3.55133 0.275441 0
M  V30 16706 O 1561.84 5.42344 0.672698 0
M  V30 16707 H 1558.94 0.815576 0.136983 0
M  V30 16708 H 1561.48 1.6273 -0.481349 0
M  V30 16709 H 1560.25 3.83297 -0.787342 0
M  V30 16710 H 1559.88 3.86634 0.92735 0
M  V30 16711 N 1560.87 0.155222 1.56834 0
M  V30 16712 C 1561.8 -0.777258 2.20184 0
M  V30 16713 C 1562.78 -1.25102 1.15254 0
M  V30 16714 O 1563.97 -1.3071 1.43627 0
M  V30 16715 C 1561.1 -2.01326 2.82993 0
M  V30 16716 C 1560.05 -1.67596 3.93822 0
M  V30 16717 C 1559.38 -2.98529 4.43604 0
M  V30 16718 C 1560.68 -0.916302 5.142 0
M  V30 16719 H 1562.37 -0.249257 2.98361 0
M  V30 16720 H 1559.92 -0.118448 1.43512 0
M  V30 16721 H 1561.87 -2.67048 3.2598 0
M  V30 16722 H 1560.6 -2.56513 2.0216 0
M  V30 16723 H 1559.26 -1.0425 3.51465 0
M  V30 16724 H 1558.9 -3.51723 3.59583 0
M  V30 16725 H 1558.6 -2.76721 5.18362 0
M  V30 16726 H 1560.13 -3.65308 4.89267 0
M  V30 16727 H 1561.54 -1.47577 5.5398 0
M  V30 16728 H 1559.94 -0.797856 5.94772 0
M  V30 16729 H 1561.01 0.0904351 4.84816 0
M  V30 16730 N 1562.35 -1.57153 -0.118549 0
M  V30 16731 C 1563.31 -1.99438 -1.12947 0
M  V30 16732 C 1564.31 -0.884588 -1.34282 0
M  V30 16733 O 1565.5 -1.15062 -1.30792 0
M  V30 16734 C 1562.64 -2.33492 -2.48384 0
M  V30 16735 H 1563.83 -2.89952 -0.766034 0
M  V30 16736 H 1561.38 -1.5203 -0.362858 0
M  V30 16737 H 1562.12 -1.45859 -2.89647 0
M  V30 16738 H 1561.9 -3.14433 -2.34252 0
M  V30 16739 H 1563.39 -2.66945 -3.21139 0
M  V30 16740 N 1563.83 0.388742 -1.5273 0
M  V30 16741 C 1565.24 0.966667 -1.59726 0
M  V30 16742 C 1565.59 1.90963 -0.450272 0
M  V30 16743 O 1564.72 2.12153 0.426611 0
M  V30 16744 C 1565.31 1.75998 -2.895 0
M  V30 16745 C 1563.87 2.28761 -2.98907 0
M  V30 16746 C 1563.02 1.09322 -2.54841 0
M  V30 16747 H 1565.97 0.16828 -1.57805 0
M  V30 16748 H 1565.99 2.61924 -2.76 0
M  V30 16749 H 1565.5 1.07342 -3.7296 0
M  V30 16750 H 1563.6 3.00728 -2.19985 0
M  V30 16751 H 1563.72 2.58229 -4.03552 0
M  V30 16752 H 1562.08 1.45332 -2.09167 0
M  V30 16753 H 1562.86 0.421999 -3.40696 0
M  V30 16754 N 1565.31 1.43698 0.647203 0
M  V30 16755 C 1566.53 1.49301 1.43958 0
M  V30 16756 C 1566.96 0.11395 1.87755 0
M  V30 16757 O 1566.32 -0.893571 1.5775 0
M  V30 16758 C 1566.36 2.44905 2.64677 0
M  V30 16759 O 1565.47 1.93947 3.63948 0
M  V30 16760 H 1564.81 0.504771 0.431396 0
M  V30 16761 H 1567.34 1.88673 0.791432 0
M  V30 16762 H 1567.35 2.62409 3.12419 0
M  V30 16763 H 1566.02 3.45083 2.32143 0
M  V30 16764 H 1564.6 1.86133 3.23124 0
M  V30 16765 N 1566.79 -0.886131 1.30328 0
M  V30 16766 C 1567.72 -2.00793 1.19183 0
M  V30 16767 C 1568.7 -1.69899 0.08276 0
M  V30 16768 O 1569.88 -1.92389 0.264593 0
M  V30 16769 C 1567.01 -3.35922 0.881669 0
M  V30 16770 C 1565.97 -3.81072 1.94855 0
M  V30 16771 C 1565.29 -5.1348 1.4914 0
M  V30 16772 C 1566.59 -3.99923 3.35944 0
M  V30 16773 H 1568.29 -2.10375 2.13032 0
M  V30 16774 H 1565.83 -1.0108 1.02561 0
M  V30 16775 H 1567.79 -4.13922 0.790359 0
M  V30 16776 H 1566.51 -3.26469 -0.0925037 0
M  V30 16777 H 1565.17 -3.053 2.02947 0
M  V30 16778 H 1564.82 -5.00453 0.50553 0
M  V30 16779 H 1564.52 -5.44659 2.205 0
M  V30 16780 H 1566.04 -5.94005 1.41386 0
M  V30 16781 H 1567.45 -4.68364 3.30617 0
M  V30 16782 H 1565.85 -4.42477 4.05381 0
M  V30 16783 H 1566.92 -3.03816 3.77921 0
M  V30 16784 N 1568.26 -1.13026 -1.09832 0
M  V30 16785 C 1569.51 -0.887662 -1.81563 0
M  V30 16786 C 1569.83 0.587935 -1.85926 0
M  V30 16787 O 1569.1 1.42732 -1.3418 0
M  V30 16788 H 1567.68 -0.32541 -0.672397 0
M  V30 16789 H 1570.35 -1.42597 -1.32861 0
M  V30 16790 H 1569.44 -1.2747 -2.84882 0
M  V30 16791 N 1569.74 1.27735 -0.923117 0
M  V30 16792 C 1570.65 2.30734 -0.424124 0
M  V30 16793 C 1571.67 1.66872 0.49291 0
M  V30 16794 O 1572.84 1.97843 0.37683 0
M  V30 16795 C 1569.91 3.45227 0.319254 0
M  V30 16796 C 1568.97 4.2462 -0.632137 0
M  V30 16797 C 1568.2 5.33646 0.0758596 0
M  V30 16798 O 1568.43 5.55481 1.29602 0
M  V30 16799 O 1567.36 5.98966 -0.593624 0
M  V30 16800 H 1571.19 2.75444 -1.27923 0
M  V30 16801 H 1568.77 1.32601 -0.688288 0
M  V30 16802 H 1570.65 4.14874 0.73873 0
M  V30 16803 H 1569.33 3.02582 1.15004 0
M  V30 16804 H 1568.24 3.57525 -1.1012 0
M  V30 16805 H 1569.57 4.70969 -1.43001 0
M  V30 16806 N 1571.22 0.688118 1.41784 0
M  V30 16807 C 1572.45 0.22475 2.05676 0
M  V30 16808 C 1572.86 -1.1232 1.51755 0
M  V30 16809 O 1572.22 -1.70041 0.662735 0
M  V30 16810 C 1572.27 0.165661 3.6112 0
M  V30 16811 O 1571.99 1.46035 4.13044 0
M  V30 16812 C 1573.49 -0.319599 4.42146 0
M  V30 16813 H 1570.71 0.106135 0.662553 0
M  V30 16814 H 1573.26 0.938605 1.81688 0
M  V30 16815 H 1571.41 -0.498968 3.84173 0
M  V30 16816 H 1571.83 1.34252 5.07027 0
M  V30 16817 H 1573.3 -0.30983 5.5113 0
M  V30 16818 H 1573.78 -1.3572 4.17704 0
M  V30 16819 H 1574.38 0.313764 4.24141 0
M  V30 16820 N 1572.7 -1.51554 0.432352 0
M  V30 16821 C 1573.94 -2.02995 -0.128264 0
M  V30 16822 C 1574.3 -1.31104 -1.40817 0
M  V30 16823 O 1573.59 -0.415687 -1.87036 0
M  V30 16824 C 1573.79 -3.55076 -0.406915 0
M  V30 16825 C 1573.62 -4.41701 0.844433 0
M  V30 16826 C 1572.39 -4.8619 1.37649 0
M  V30 16827 C 1574.58 -4.8436 1.72917 0
M  V30 16828 N 1572.57 -5.57012 2.5809 0
M  V30 16829 C 1573.94 -5.54198 2.77966 0
M  V30 16830 C 1575.99 -4.66351 1.74418 0
M  V30 16831 C 1574.69 -6.07937 3.84455 0
M  V30 16832 C 1576.72 -5.21003 2.79839 0
M  V30 16833 C 1576.08 -5.90783 3.83608 0
M  V30 16834 H 1572.18 -0.78196 -0.00789942 0
M  V30 16835 H 1574.77 -1.85485 0.591906 0
M  V30 16836 H 1572.94 -3.72612 -1.09612 0
M  V30 16837 H 1574.67 -3.93187 -0.958451 0
M  V30 16838 H 1571.42 -4.64356 0.931141 0
M  V30 16839 H 1571.85 -5.97053 3.1915 0
M  V30 16840 H 1576.49 -4.11868 0.955235 0
M  V30 16841 H 1574.21 -6.61478 4.64191 0
M  V30 16842 H 1577.79 -5.08923 2.81936 0
M  V30 16843 H 1576.67 -6.32313 4.63842 0
M  V30 16844 N 1574.18 -0.163538 -1.56749 0
M  V30 16845 C 1575.12 0.769787 -2.17584 0
M  V30 16846 C 1576.09 1.23246 -1.11354 0
M  V30 16847 O 1577.28 1.30203 -1.3947 0
M  V30 16848 C 1574.42 1.99685 -2.81461 0
M  V30 16849 C 1573.53 1.57846 -4.0213 0
M  V30 16850 C 1572.67 2.75858 -4.53955 0
M  V30 16851 C 1571.71 2.30473 -5.67053 0
M  V30 16852 N 1570.84 3.41551 -6.13423 0
M  V30 16853 H 1575.68 0.244221 -2.96998 0
M  V30 16854 H 1573.22 0.108821 -1.46697 0
M  V30 16855 H 1575.18 2.71643 -3.16648 0
M  V30 16856 H 1573.81 2.49624 -2.04664 0
M  V30 16857 H 1572.86 0.755907 -3.72814 0
M  V30 16858 H 1574.17 1.20525 -4.8402 0
M  V30 16859 H 1573.33 3.55984 -4.91284 0
M  V30 16860 H 1572.06 3.16434 -3.71107 0
M  V30 16861 H 1571.07 1.48791 -5.29284 0
M  V30 16862 H 1572.29 1.90964 -6.51698 0
M  V30 16863 H 1570.24 3.81717 -5.33506 0
M  V30 16864 H 1570.16 3.08298 -6.90281 0
M  V30 16865 H 1571.43 4.21985 -6.554 0
M  V30 16866 N 1575.65 1.57214 0.110213 0
M  V30 16867 C 1576.93 1.76298 0.847249 0
M  V30 16868 C 1577.31 0.741294 1.97656 0
M  V30 16869 O 1576.66 -0.233104 2.27308 0
M  V30 16870 C 1576.87 3.21588 1.35582 0
M  V30 16871 C 1578.22 3.8434 1.80465 0
M  V30 16872 O 1579.24 3.25244 1.45241 0
M  V30 16873 O 1578.1 4.88231 2.45546 0
M  V30 16874 H 1575.19 0.722167 0.402993 0
M  V30 16875 H 1577.74 1.69443 0.0932694 0
M  V30 16876 H 1576.51 3.87472 0.54599 0
M  V30 16877 H 1576.14 3.33015 2.17225 0
M  V30 16878 N 1577.13 -0.380637 1.52934 0
M  V30 16879 C 1578.04 -1.48957 1.81243 0
M  V30 16880 C 1579.06 -1.5931 0.69974 0
M  V30 16881 O 1580.23 -1.75488 0.988218 0
M  V30 16882 C 1577.3 -2.84397 1.9829 0
M  V30 16883 C 1576.36 -2.83697 3.22202 0
M  V30 16884 C 1575.59 -4.12677 3.38427 0
M  V30 16885 O 1575.82 -5.08068 2.59274 0
M  V30 16886 O 1574.75 -4.19407 4.31719 0
M  V30 16887 H 1578.58 -1.27964 2.75425 0
M  V30 16888 H 1576.16 -0.56929 1.38128 0
M  V30 16889 H 1578.04 -3.64676 2.11161 0
M  V30 16890 H 1576.72 -3.054 1.07298 0
M  V30 16891 H 1575.63 -2.0217 3.14767 0
M  V30 16892 H 1576.96 -2.67648 4.13068 0
M  V30 16893 N 1578.61 -1.44039 -0.639573 0
M  V30 16894 C 1579.84 -1.50063 -1.43164 0
M  V30 16895 C 1580.26 -0.123906 -1.87691 0
M  V30 16896 O 1579.62 0.885192 -1.58221 0
M  V30 16897 C 1579.67 -2.46305 -2.63375 0
M  V30 16898 O 1578.77 -1.95874 -3.62915 0
M  V30 16899 H 1578.11 -0.507052 -0.428713 0
M  V30 16900 H 1580.64 -1.8909 -0.781415 0
M  V30 16901 H 1580.65 -2.64062 -3.11023 0
M  V30 16902 H 1579.33 -3.46309 -2.3031 0
M  V30 16903 H 1577.9 -1.87844 -3.22132 0
M  V30 16904 N 1580.09 0.879207 -1.30796 0
M  V30 16905 C 1581.33 1.63392 -1.20129 0
M  V30 16906 C 1581.67 1.92684 0.242164 0
M  V30 16907 O 1580.94 1.55188 1.17247 0
M  V30 16908 C 1581.23 2.97005 -2.03618 0
M  V30 16909 C 1581.08 2.74649 -3.56214 0
M  V30 16910 C 1582.4 3.97998 -1.87845 0
M  V30 16911 H 1579.52 0.592911 -0.437751 0
M  V30 16912 H 1582.16 1.017 -1.6049 0
M  V30 16913 H 1580.31 3.49659 -1.69326 0
M  V30 16914 H 1581.98 2.28738 -4.00595 0
M  V30 16915 H 1580.22 2.09048 -3.80107 0
M  V30 16916 H 1580.89 3.69681 -4.09927 0
M  V30 16917 H 1583.37 3.54523 -2.17836 0
M  V30 16918 H 1582.25 4.89388 -2.48578 0
M  V30 16919 H 1582.51 4.34062 -0.839183 0
M  V30 16920 N 1581.57 1.13606 1.09231 0
M  V30 16921 C 1582.98 0.91148 1.62938 0
M  V30 16922 C 1583.33 -0.55157 1.88287 0
M  V30 16923 O 1582.45 -1.4187 1.63407 0
M  V30 16924 C 1583.05 1.64812 2.96011 0
M  V30 16925 C 1581.61 1.46935 3.46536 0
M  V30 16926 C 1580.76 1.67605 2.20916 0
M  V30 16927 H 1583.71 1.28907 0.925669 0
M  V30 16928 H 1583.73 1.10638 3.6406 0
M  V30 16929 H 1583.24 2.71291 2.77529 0
M  V30 16930 H 1581.34 0.427667 3.70138 0
M  V30 16931 H 1581.45 2.23374 4.2384 0
M  V30 16932 H 1579.82 1.10105 2.29672 0
M  V30 16933 H 1580.6 2.75408 2.04952 0
M  V30 16934 N 1583.05 -1.27244 0.929878 0
M  V30 16935 C 1583.98 -2.25893 0.387967 0
M  V30 16936 C 1584.99 -1.55485 -0.482524 0
M  V30 16937 O 1586.18 -1.76049 -0.294795 0
M  V30 16938 C 1583.28 -3.35729 -0.462544 0
M  V30 16939 C 1582.45 -4.35665 0.38916 0
M  V30 16940 C 1581.51 -5.24685 -0.399061 0
M  V30 16941 O 1580.54 -5.68869 0.193996 0
M  V30 16942 N 1581.74 -5.551 -1.69836 0
M  V30 16943 H 1584.5 -2.73027 1.23597 0
M  V30 16944 H 1582.07 -1.40893 0.797539 0
M  V30 16945 H 1584.06 -3.92228 -0.996974 0
M  V30 16946 H 1582.63 -2.88177 -1.2113 0
M  V30 16947 H 1581.85 -3.78399 1.10488 0
M  V30 16948 H 1583.14 -4.99442 0.971349 0
M  V30 16949 H 1582.53 -5.21064 -2.20248 0
M  V30 16950 H 1581.09 -6.14289 -2.17927 0
M  V30 16951 N 1584.52 -0.695628 -1.41417 0
M  V30 16952 C 1585.77 -0.226954 -2.01526 0
M  V30 16953 C 1586.1 1.1704 -1.54968 0
M  V30 16954 O 1585.38 1.78999 -0.760895 0
M  V30 16955 C 1585.66 -0.284704 -3.58973 0
M  V30 16956 C 1585.51 -1.71901 -4.15656 0
M  V30 16957 C 1586.83 0.355454 -4.38662 0
M  V30 16958 H 1583.95 -0.0839425 -0.732204 0
M  V30 16959 H 1586.59 -0.884359 -1.68164 0
M  V30 16960 H 1584.74 0.275041 -3.87525 0
M  V30 16961 H 1586.42 -2.3326 -3.97979 0
M  V30 16962 H 1584.66 -2.25314 -3.70696 0
M  V30 16963 H 1585.33 -1.71095 -5.24815 0
M  V30 16964 H 1587.81 -0.121256 -4.15923 0
M  V30 16965 H 1586.68 0.284503 -5.48162 0
M  V30 16966 H 1586.94 1.43617 -4.18123 0
M  V30 16967 N 1586 1.51322 -0.440383 0
M  V30 16968 C 1587.41 1.86687 0.0220272 0
M  V30 16969 C 1587.76 1.35734 1.41671 0
M  V30 16970 O 1586.89 0.709408 2.04442 0
M  V30 16971 C 1587.48 3.38768 0.0467477 0
M  V30 16972 C 1586.04 3.73657 0.45358 0
M  V30 16973 C 1585.19 2.7506 -0.351779 0
M  V30 16974 H 1588.14 1.44503 -0.65609 0
M  V30 16975 H 1588.16 3.70756 0.855589 0
M  V30 16976 H 1587.67 3.75823 -0.968451 0
M  V30 16977 H 1585.77 3.42193 1.47427 0
M  V30 16978 H 1585.89 4.78776 0.176262 0
M  V30 16979 H 1584.25 2.53988 0.190334 0
M  V30 16980 H 1585.03 3.14957 -1.36591 0
M  V30 16981 N 1587.48 0.171848 1.5666 0
M  V30 16982 C 1588.44 -0.744316 2.16778 0
M  V30 16983 C 1589.44 -1.15769 1.11598 0
M  V30 16984 O 1590.63 -1.07456 1.37109 0
M  V30 16985 C 1587.76 -2.01319 2.75106 0
M  V30 16986 H 1588.96 -0.220952 2.99085 0
M  V30 16987 H 1586.51 -0.0777149 1.56107 0
M  V30 16988 H 1587.25 -2.57963 1.96534 0
M  V30 16989 H 1587.03 -1.72575 3.5208 0
M  V30 16990 H 1588.52 -2.667 3.21342 0
M  V30 16991 N 1588.96 -1.5727 -0.101874 0
M  V30 16992 C 1589.87 -2.04896 -1.14257 0
M  V30 16993 C 1590.88 -0.972561 -1.44282 0
M  V30 16994 O 1592.06 -1.28526 -1.55058 0
M  V30 16995 C 1589.12 -2.45818 -2.44488 0
M  V30 16996 C 1588.19 -3.6762 -2.21707 0
M  V30 16997 C 1587.42 -4.06581 -3.45728 0
M  V30 16998 O 1587.64 -3.45702 -4.53703 0
M  V30 16999 O 1586.58 -4.99578 -3.35716 0
M  V30 17000 H 1590.4 -2.93827 -0.768085 0
M  V30 17001 H 1587.99 -1.46065 -0.313902 0
M  V30 17002 H 1589.87 -2.72796 -3.21186 0
M  V30 17003 H 1588.54 -1.60028 -2.81377 0
M  V30 17004 H 1587.45 -3.45768 -1.42812 0
M  V30 17005 H 1588.78 -4.54169 -1.89714 0
M  V30 17006 N 1590.44 0.372521 -1.53134 0
M  V30 17007 C 1591.68 1.11368 -1.68646 0
M  V30 17008 C 1592 1.90034 -0.437275 0
M  V30 17009 O 1591.27 1.88062 0.548593 0
M  V30 17010 H 1589.85 0.414129 -0.621696 0
M  V30 17011 H 1592.52 0.42082 -1.90303 0
M  V30 17012 H 1591.61 1.80738 -2.54441 0
M  V30 17013 N 1591.91 1.44376 0.631925 0
M  V30 17014 C 1593.16 1.47335 1.39356 0
M  V30 17015 C 1593.49 0.10525 1.93915 0
M  V30 17016 O 1592.77 -0.877006 1.73605 0
M  V30 17017 C 1593.05 2.53308 2.55943 0
M  V30 17018 C 1592.9 3.99473 2.06739 0
M  V30 17019 C 1594.22 2.55794 3.58131 0
M  V30 17020 H 1591.34 0.536447 0.505365 0
M  V30 17021 H 1593.98 1.76051 0.714572 0
M  V30 17022 H 1592.13 2.28953 3.13868 0
M  V30 17023 H 1593.81 4.34958 1.53652 0
M  V30 17024 H 1592.05 4.11288 1.37929 0
M  V30 17025 H 1592.72 4.69269 2.90672 0
M  V30 17026 H 1595.2 2.77554 3.10005 0
M  V30 17027 H 1594.07 3.31847 4.37228 0
M  V30 17028 H 1594.33 1.59962 4.12146 0
M  V30 17029 N 1593.39 -0.872258 1.31261 0
M  V30 17030 C 1594.67 -1.60739 1.11456 0
M  V30 17031 C 1595.05 -2.0848 -0.331569 0
M  V30 17032 O 1594.4 -1.86141 -1.32528 0
M  V30 17033 C 1594.61 -2.76714 2.12674 0
M  V30 17034 C 1595.95 -3.46734 2.45074 0
M  V30 17035 O 1596.98 -2.86919 2.11083 0
M  V30 17036 O 1595.84 -4.54632 3.0327 0
M  V30 17037 H 1592.93 -0.70707 0.428929 0
M  V30 17038 H 1595.48 -0.917922 1.42732 0
M  V30 17039 H 1594.25 -2.38834 3.09958 0
M  V30 17040 H 1593.87 -3.5335 1.8229 0
M  V30 17041 N 1594.87 -1.14184 -1.08627 0
M  V30 17042 C 1596.15 -0.81955 -1.77603 0
M  V30 17043 C 1596.53 0.687377 -1.99595 0
M  V30 17044 O 1595.87 1.62744 -1.60396 0
M  V30 17045 C 1596.08 -1.61574 -3.09346 0
M  V30 17046 C 1597.43 -1.81367 -3.83916 0
M  V30 17047 O 1598.46 -1.58241 -3.19121 0
M  V30 17048 O 1597.32 -2.20011 -5.00257 0
M  V30 17049 H 1594.41 -0.300086 -0.770635 0
M  V30 17050 H 1596.96 -1.24691 -1.15109 0
M  V30 17051 H 1595.73 -2.63946 -2.88874 0
M  V30 17052 H 1595.35 -1.18386 -3.79566 0
M  V30 17053 N 1596.35 1.26749 -0.936613 0
M  V30 17054 C 1597.58 1.98059 -0.598357 0
M  V30 17055 C 1597.99 1.6979 0.825646 0
M  V30 17056 O 1597.35 0.963514 1.54992 0
M  V30 17057 C 1597.4 3.51948 -0.825519 0
M  V30 17058 O 1597.12 3.79232 -2.19351 0
M  V30 17059 C 1598.62 4.40503 -0.497186 0
M  V30 17060 H 1595.84 0.631826 -0.225914 0
M  V30 17061 H 1598.39 1.61379 -1.25607 0
M  V30 17062 H 1596.54 3.86806 -0.214479 0
M  V30 17063 H 1596.95 4.73782 -2.25014 0
M  V30 17064 H 1598.43 5.47457 -0.706779 0
M  V30 17065 H 1598.91 4.35516 0.567645 0
M  V30 17066 H 1599.51 4.11181 -1.08675 0
M  V30 17067 N 1597.83 0.703118 1.41046 0
M  V30 17068 C 1599.05 0.245088 2.05947 0
M  V30 17069 C 1599.48 -1.09988 1.52592 0
M  V30 17070 O 1598.83 -1.69015 0.656023 0
M  V30 17071 C 1598.88 0.221444 3.59919 0
M  V30 17072 O 1597.99 -0.801324 4.0454 0
M  V30 17073 H 1597.33 0.117862 0.653456 0
M  V30 17074 H 1599.86 0.960099 1.80674 0
M  V30 17075 H 1599.87 0.0548681 4.07963 0
M  V30 17076 H 1598.54 1.20301 3.98121 0
M  V30 17077 H 1597.12 -0.603489 3.67984 0
M  V30 17078 N 1599.3 -1.51086 0.448402 0
M  V30 17079 C 1600.53 -2.07081 -0.115038 0
M  V30 17080 C 1600.95 -1.31253 -1.34737 0
M  V30 17081 O 1600.31 -0.353613 -1.77818 0
M  V30 17082 C 1600.36 -3.58321 -0.404803 0
M  V30 17083 O 1599.46 -3.84567 -1.48936 0
M  V30 17084 H 1598.81 -0.663993 0.00299118 0
M  V30 17085 H 1601.34 -1.94564 0.632921 0
M  V30 17086 H 1601.35 -4.02756 -0.652013 0
M  V30 17087 H 1600.02 -4.12934 0.495838 0
M  V30 17088 H 1598.6 -3.51987 -1.23124 0
M  V30 17089 N 1600.78 -0.180154 -1.56567 0
M  V30 17090 C 1602.01 0.471692 -2.01965 0
M  V30 17091 C 1602.43 1.5542 -1.05954 0
M  V30 17092 O 1601.79 1.81255 -0.0405307 0
M  V30 17093 C 1601.84 1.01883 -3.45908 0
M  V30 17094 O 1600.94 2.13245 -3.52988 0
M  V30 17095 H 1600.28 0.11197 -0.654491 0
M  V30 17096 H 1602.81 -0.286642 -2.02582 0
M  V30 17097 H 1602.82 1.33922 -3.85395 0
M  V30 17098 H 1601.5 0.226299 -4.15284 0
M  V30 17099 H 1600.08 1.82184 -3.25367 0
M  V30 17100 N 1602.26 1.57322 0.0935319 0
M  V30 17101 C 1603.17 2.05499 1.13169 0
M  V30 17102 C 1604.19 0.980199 1.43764 0
M  V30 17103 O 1605.36 1.29347 1.54374 0
M  V30 17104 C 1602.43 2.47111 2.43181 0
M  V30 17105 C 1601.49 3.68791 2.19754 0
M  V30 17106 C 1600.72 4.08408 3.43567 0
M  V30 17107 O 1600.94 3.48104 4.51863 0
M  V30 17108 O 1599.88 5.01351 3.33062 0
M  V30 17109 H 1603.7 2.9423 0.752491 0
M  V30 17110 H 1601.29 1.4623 0.306151 0
M  V30 17111 H 1603.17 2.74495 3.19735 0
M  V30 17112 H 1601.85 1.61518 2.80524 0
M  V30 17113 H 1600.75 3.46521 1.40976 0
M  V30 17114 H 1602.09 4.55169 1.87303 0
M  V30 17115 N 1603.74 -0.364395 1.53329 0
M  V30 17116 C 1604.99 -1.10473 1.69234 0
M  V30 17117 C 1605.31 -1.89799 0.447347 0
M  V30 17118 O 1604.58 -1.8835 -0.538612 0
M  V30 17119 H 1603.16 -0.410826 0.623884 0
M  V30 17120 H 1605.82 -0.410721 1.90523 0
M  V30 17121 H 1604.92 -1.79387 2.55396 0
M  V30 17122 N 1605.22 -1.44709 -0.62426 0
M  V30 17123 C 1606.44 -1.51573 -1.41564 0
M  V30 17124 C 1606.87 -0.143806 -1.87549 0
M  V30 17125 O 1606.22 0.868361 -1.59151 0
M  V30 17126 C 1606.27 -2.49085 -2.60747 0
M  V30 17127 O 1605.38 -1.99712 -3.60817 0
M  V30 17128 H 1604.72 -0.51157 -0.423311 0
M  V30 17129 H 1607.25 -1.89908 -0.761316 0
M  V30 17130 H 1607.26 -2.67346 -3.08205 0
M  V30 17131 H 1605.93 -3.48733 -2.26624 0
M  V30 17132 H 1604.51 -1.9125 -3.20122 0
M  V30 17133 N 1606.69 0.865285 -1.31722 0
M  V30 17134 C 1607.92 1.65137 -1.24649 0
M  V30 17135 C 1608.34 1.87868 0.187391 0
M  V30 17136 O 1607.69 1.44015 1.12098 0
M  V30 17137 C 1607.75 3.0167 -1.99193 0
M  V30 17138 O 1607.47 2.79951 -3.36985 0
M  V30 17139 C 1608.97 3.96115 -1.99017 0
M  V30 17140 H 1606.19 0.514683 -0.430514 0
M  V30 17141 H 1608.73 1.07971 -1.73674 0
M  V30 17142 H 1606.89 3.55511 -1.53918 0
M  V30 17143 H 1607.3 3.66706 -3.75002 0
M  V30 17144 H 1608.77 4.89217 -2.55677 0
M  V30 17145 H 1609.25 4.28268 -0.973815 0
M  V30 17146 H 1609.86 3.4821 -2.44192 0
M  V30 17147 N 1608.17 1.14759 1.0802 0
M  V30 17148 C 1609.42 0.919609 1.80751 0
M  V30 17149 C 1609.75 -0.552268 1.86182 0
M  V30 17150 O 1609.03 -1.40922 1.34057 0
M  V30 17151 C 1609.31 1.52611 3.26162 0
M  V30 17152 C 1609.16 3.06811 3.28918 0
M  V30 17153 C 1610.48 1.20625 4.23246 0
M  V30 17154 H 1607.6 0.33551 0.656203 0
M  V30 17155 H 1610.24 1.41816 1.26444 0
M  V30 17156 H 1608.39 1.10213 3.72539 0
M  V30 17157 H 1610.06 3.58068 2.90835 0
M  V30 17158 H 1608.31 3.41055 2.68075 0
M  V30 17159 H 1608.98 3.44357 4.31419 0
M  V30 17160 H 1611.45 1.57287 3.85227 0
M  V30 17161 H 1610.33 1.65689 5.23296 0
M  V30 17162 H 1610.59 0.122177 4.41931 0
M  V30 17163 N 1609.65 -1.26251 0.943322 0
M  V30 17164 C 1610.93 -1.88839 0.509831 0
M  V30 17165 C 1611.31 -1.85227 -1.01263 0
M  V30 17166 O 1610.66 -1.30805 -1.87356 0
M  V30 17167 C 1610.87 -3.32076 1.07361 0
M  V30 17168 C 1612.21 -4.0891 1.14357 0
M  V30 17169 O 1613.24 -3.41153 1.02435 0
M  V30 17170 O 1612.1 -5.30088 1.32926 0
M  V30 17171 H 1609.19 -0.810069 0.166484 0
M  V30 17172 H 1611.74 -1.34405 1.03602 0
M  V30 17173 H 1610.51 -3.29077 2.11716 0
M  V30 17174 H 1610.13 -3.94052 0.529991 0
M  V30 17175 N 1611.13 -0.710588 -1.40671 0
M  V30 17176 C 1612.37 -0.252303 -2.02837 0
M  V30 17177 C 1612.73 1.13154 -1.55113 0
M  V30 17178 O 1613.93 1.68653 -2.09307 0
M  V30 17179 C 1612.21 -0.323902 -3.55929 0
M  V30 17180 S 1613.76 0.0581316 -4.38761 0
M  V30 17181 H 1610.58 -0.100448 -0.703869 0
M  V30 17182 H 1613.18 -0.931699 -1.71871 0
M  V30 17183 H 1611.89 -1.33279 -3.88156 0
M  V30 17184 H 1611.42 0.37414 -3.91617 0
M  V30 17185 H 1613.43 1.28162 -4.79363 0
M  V30 17186 N 1612.61 1.50847 -0.456408 0
M  V30 17187 C 1613.54 2.31077 0.335523 0
M  V30 17188 C 1614.52 1.37326 1.00377 0
M  V30 17189 O 1615.7 1.66247 1.00376 0
M  V30 17190 C 1612.83 3.16662 1.42627 0
M  V30 17191 C 1611.79 4.18846 0.88045 0
M  V30 17192 C 1611.11 4.93074 2.06838 0
M  V30 17193 C 1612.41 5.22208 -0.0982288 0
M  V30 17194 H 1614.11 2.97531 -0.334056 0
M  V30 17195 H 1611.65 1.43085 -0.162099 0
M  V30 17196 H 1613.61 3.71578 1.98765 0
M  V30 17197 H 1612.33 2.48066 2.12441 0
M  V30 17198 H 1610.99 3.65009 0.341147 0
M  V30 17199 H 1610.64 4.20963 2.75316 0
M  V30 17200 H 1610.34 5.62184 1.70947 0
M  V30 17201 H 1611.86 5.5082 2.63494 0
M  V30 17202 H 1613.28 5.72082 0.373481 0
M  V30 17203 H 1611.67 5.98954 -0.370674 0
M  V30 17204 H 1612.74 4.73859 -1.02887 0
M  V30 17205 N 1614.09 0.188454 1.56469 0
M  V30 17206 C 1615.36 -0.499324 1.89119 0
M  V30 17207 C 1615.74 -1.80116 1.10098 0
M  V30 17208 O 1615.09 -2.27623 0.200048 0
M  V30 17209 C 1615.3 -0.724574 3.41396 0
M  V30 17210 C 1616.65 -1.04692 4.11491 0
M  V30 17211 O 1617.67 -0.812526 3.46809 0
M  V30 17212 O 1616.53 -1.48998 5.25797 0
M  V30 17213 H 1613.63 -0.259468 0.785242 0
M  V30 17214 H 1616.17 0.228172 1.68159 0
M  V30 17215 H 1614.94 0.195039 3.90814 0
M  V30 17216 H 1614.57 -1.50477 3.68025 0
M  V30 17217 N 1615.56 -1.5737 -0.0851874 0
M  V30 17218 C 1616.97 -1.7544 -0.638575 0
M  V30 17219 C 1617.33 -0.812041 -1.78607 0
M  V30 17220 O 1616.45 0.00710428 -2.16399 0
M  V30 17221 C 1617.05 -3.18134 -1.16517 0
M  V30 17222 C 1615.6 -3.37594 -1.66454 0
M  V30 17223 C 1614.75 -2.71203 -0.578274 0
M  V30 17224 H 1617.7 -1.58073 0.140931 0
M  V30 17225 H 1617.72 -3.21553 -2.0343 0
M  V30 17226 H 1617.24 -3.86696 -0.329794 0
M  V30 17227 H 1615.34 -2.74126 -2.5236 0
M  V30 17228 H 1615.45 -4.45968 -1.75071 0
M  V30 17229 H 1613.81 -2.33379 -1.02011 0
M  V30 17230 H 1614.6 -3.42413 0.246691 0
M  V30 17231 N 1617.04 0.356258 -1.53521 0
M  V30 17232 C 1617.95 1.46055 -1.83589 0
M  V30 17233 C 1618.97 1.58176 -0.724997 0
M  V30 17234 O 1620.14 1.73894 -1.01601 0
M  V30 17235 C 1617.21 2.81207 -2.0279 0
M  V30 17236 C 1616.27 2.78535 -3.26675 0
M  V30 17237 C 1615.5 4.07241 -3.4495 0
M  V30 17238 O 1615.73 5.03879 -2.67324 0
M  V30 17239 O 1614.66 4.12485 -4.38337 0
M  V30 17240 H 1618.49 1.23566 -2.77426 0
M  V30 17241 H 1616.07 0.547243 -1.39017 0
M  V30 17242 H 1617.95 3.61271 -2.16936 0
M  V30 17243 H 1616.63 3.03654 -1.12143 0
M  V30 17244 H 1615.53 1.97137 -3.17943 0
M  V30 17245 H 1616.87 2.61042 -4.17274 0
M  V30 17246 N 1618.52 1.45038 0.616577 0
M  V30 17247 C 1619.43 1.55542 1.75624 0
M  V30 17248 C 1620.45 0.440304 1.68337 0
M  V30 17249 O 1621.62 0.699725 1.88854 0
M  V30 17250 C 1618.69 1.51062 3.1206 0
M  V30 17251 C 1617.75 2.7354 3.30869 0
M  V30 17252 C 1616.98 2.69264 4.60796 0
M  V30 17253 O 1617.2 1.76085 5.42541 0
M  V30 17254 O 1616.14 3.60335 4.82123 0
M  V30 17255 H 1619.96 2.51854 1.69715 0
M  V30 17256 H 1617.55 1.27448 0.779578 0
M  V30 17257 H 1619.43 1.51138 3.93364 0
M  V30 17258 H 1618.11 0.578976 3.1848 0
M  V30 17259 H 1617.01 2.79027 2.49188 0
M  V30 17260 H 1618.35 3.65799 3.2932 0
M  V30 17261 N 1620 -0.858287 1.32179 0
M  V30 17262 C 1621.25 -1.60706 1.21887 0
M  V30 17263 C 1621.56 -1.94372 -0.218836 0
M  V30 17264 O 1622.77 -2.67852 -0.443572 0
M  V30 17265 C 1621.22 -2.8977 2.13452 0
M  V30 17266 C 1620.83 -2.63542 3.62284 0
M  V30 17267 C 1622.57 -3.67779 2.11988 0
M  V30 17268 C 1620.48 -3.88584 4.45821 0
M  V30 17269 H 1619.41 -0.603026 0.452632 0
M  V30 17270 H 1622.06 -0.948016 1.57114 0
M  V30 17271 H 1620.44 -3.57112 1.71135 0
M  V30 17272 H 1621.62 -2.04534 4.12919 0
M  V30 17273 H 1619.93 -1.98869 3.65842 0
M  V30 17274 H 1622.53 -4.60561 2.71639 0
M  V30 17275 H 1622.87 -4.0123 1.10995 0
M  V30 17276 H 1623.41 -3.07336 2.52565 0
M  V30 17277 H 1620.14 -3.60276 5.47614 0
M  V30 17278 H 1619.66 -4.47001 3.99937 0
M  V30 17279 H 1621.34 -4.56358 4.58635 0
M  V30 17280 N 1621.48 -1.1533 -1.07409 0
M  V30 17281 C 1622.41 -0.872476 -2.16587 0
M  V30 17282 C 1623.39 0.176683 -1.6918 0
M  V30 17283 O 1624.57 0.0311826 -1.94175 0
M  V30 17284 C 1621.7 -0.360342 -3.45426 0
M  V30 17285 C 1620.66 -1.34611 -4.06281 0
M  V30 17286 C 1619.98 -0.692848 -5.30192 0
M  V30 17287 C 1621.28 -2.71191 -4.46378 0
M  V30 17288 H 1622.98 -1.78546 -2.40336 0
M  V30 17289 H 1620.52 -0.859895 -1.15507 0
M  V30 17290 H 1622.47 -0.151429 -4.21128 0
M  V30 17291 H 1621.2 0.588109 -3.21261 0
M  V30 17292 H 1619.86 -1.54137 -3.32622 0
M  V30 17293 H 1619.51 0.261732 -5.02319 0
M  V30 17294 H 1619.21 -1.35071 -5.71865 0
M  V30 17295 H 1620.73 -0.493695 -6.08601 0
M  V30 17296 H 1622.14 -2.55513 -5.13212 0
M  V30 17297 H 1620.54 -3.33345 -4.99 0
M  V30 17298 H 1621.61 -3.273 -3.57775 0
M  V30 17299 N 1622.95 1.25748 -0.950004 0
M  V30 17300 C 1624.37 1.45599 -0.653697 0
M  V30 17301 C 1624.57 1.85357 0.790245 0
M  V30 17302 O 1623.63 1.98071 1.56601 0
M  V30 17303 C 1624.94 2.5316 -1.62267 0
M  V30 17304 C 1626.49 2.67004 -1.63334 0
M  V30 17305 C 1626.96 3.77745 -2.58984 0
M  V30 17306 N 1628.45 3.8515 -2.57321 0
M  V30 17307 C 1629.19 4.70315 -3.28011 0
M  V30 17308 N 1628.68 5.59802 -4.08159 0
M  V30 17309 N 1630.48 4.64239 -3.16921 0
M  V30 17310 H 1622.63 0.982321 -1.88319 0
M  V30 17311 H 1624.89 0.492917 -0.809776 0
M  V30 17312 H 1624.6 2.30792 -2.65382 0
M  V30 17313 H 1624.47 3.50988 -1.38158 0
M  V30 17314 H 1626.86 2.88739 -0.609388 0
M  V30 17315 H 1626.94 1.69591 -1.915 0
M  V30 17316 H 1626.58 3.56761 -3.61502 0
M  V30 17317 H 1626.51 4.74633 -2.28103 0
M  V30 17318 H 1629 3.21178 -1.99131 0
M  V30 17319 H 1629.32 6.21701 -4.59029 0
M  V30 17320 H 1627.66 5.59525 -4.12258 0
M  V30 17321 H 1630.85 3.93335 -2.53782 0
M  V30 17322 H 1631.03 5.30389 -3.72279 0
M  V30 17323 N 1624.43 0.718038 1.40292 0
M  V30 17324 C 1625.38 0.0670495 2.30703 0
M  V30 17325 C 1626.35 -0.747716 1.48319 0
M  V30 17326 O 1627.53 -0.711161 1.77051 0
M  V30 17327 C 1624.67 -0.846918 3.34546 0
M  V30 17328 C 1623.79 -0.0213622 4.31995 0
M  V30 17329 C 1622.92 -0.935035 5.22906 0
M  V30 17330 C 1621.96 -0.103715 6.12012 0
M  V30 17331 N 1621.1 -0.972397 6.95334 0
M  V30 17332 H 1625.94 0.843724 2.85806 0
M  V30 17333 H 1623.47 0.427756 1.40743 0
M  V30 17334 H 1625.43 -1.39109 3.93325 0
M  V30 17335 H 1624.06 -1.58975 2.80939 0
M  V30 17336 H 1623.11 0.640026 3.74977 0
M  V30 17337 H 1624.43 0.62215 4.94905 0
M  V30 17338 H 1623.58 -1.54766 5.86628 0
M  V30 17339 H 1622.32 -1.61236 4.60276 0
M  V30 17340 H 1621.32 0.521826 5.47318 0
M  V30 17341 H 1622.55 0.570146 6.76702 0
M  V30 17342 H 1620.5 -1.63533 6.3529 0
M  V30 17343 H 1620.41 -0.384977 7.55019 0
M  V30 17344 H 1621.68 -1.57112 7.63503 0
M  V30 17345 N 1625.91 -1.50602 0.464402 0
M  V30 17346 C 1627.16 -2.01478 -0.0945398 0
M  V30 17347 C 1627.47 -1.35165 -1.41386 0
M  V30 17348 O 1628.68 -1.7716 -2.05735 0
M  V30 17349 C 1627.13 -3.59233 -0.219003 0
M  V30 17350 C 1626.74 -4.345 1.09148 0
M  V30 17351 C 1628.49 -4.18172 -0.730262 0
M  V30 17352 C 1626.39 -5.84023 0.931179 0
M  V30 17353 H 1625.32 -0.752985 -0.0391065 0
M  V30 17354 H 1627.97 -1.73473 0.598283 0
M  V30 17355 H 1626.36 -3.83798 -0.975455 0
M  V30 17356 H 1627.53 -4.21665 1.85837 0
M  V30 17357 H 1625.85 -3.8714 1.53334 0
M  V30 17358 H 1628.44 -5.27622 -0.867119 0
M  V30 17359 H 1628.79 -3.79113 -1.71986 0
M  V30 17360 H 1629.32 -3.97788 -0.0313808 0
M  V30 17361 H 1626.06 -6.27543 1.89395 0
M  V30 17362 H 1625.58 -5.99451 0.20456 0
M  V30 17363 H 1627.26 -6.44257 0.595118 0
M  V30 17364 N 1627.39 -0.19675 -1.56367 0
M  V30 17365 C 1628.8 0.315555 -1.84014 0
M  V30 17366 C 1629.15 1.61267 -1.11747 0
M  V30 17367 O 1628.28 2.13058 -0.378824 0
M  V30 17368 C 1628.87 0.579307 -3.33811 0
M  V30 17369 C 1627.43 1.03598 -3.61862 0
M  V30 17370 C 1626.58 0.0854845 -2.77168 0
M  V30 17371 H 1629.53 -0.4205 -1.53028 0
M  V30 17372 H 1629.55 1.42841 -3.52671 0
M  V30 17373 H 1629.06 -0.364925 -3.86381 0
M  V30 17374 H 1627.16 1.99443 -3.14727 0
M  V30 17375 H 1627.27 0.927547 -4.70035 0
M  V30 17376 H 1625.64 0.58768 -2.47827 0
M  V30 17377 H 1626.42 -0.853221 -3.32528 0
M  V30 17378 N 1628.87 1.57413 0.0768405 0
M  V30 17379 C 1629.78 2.06688 1.10983 0
M  V30 17380 C 1630.79 0.995392 1.42716 0
M  V30 17381 O 1631.97 1.30977 1.52994 0
M  V30 17382 C 1629.03 2.49676 2.40546 0
M  V30 17383 C 1628.09 3.71101 2.1583 0
M  V30 17384 C 1627.33 4.1203 3.39216 0
M  V30 17385 O 1627.55 3.52877 4.48145 0
M  V30 17386 O 1626.48 5.04856 3.27726 0
M  V30 17387 H 1630.31 2.95012 0.721242 0
M  V30 17388 H 1627.9 1.46546 0.290624 0
M  V30 17389 H 1629.78 2.77871 3.16805 0
M  V30 17390 H 1628.45 1.64484 2.78795 0
M  V30 17391 H 1627.36 3.47996 1.37293 0
M  V30 17392 H 1628.69 4.5713 1.82465 0
M  V30 17393 N 1630.34 -0.348112 1.53707 0
M  V30 17394 C 1631.27 -1.43296 1.8436 0
M  V30 17395 C 1632.26 -1.55102 0.698376 0
M  V30 17396 O 1633.44 -1.69385 0.949864 0
M  V30 17397 C 1630.57 -2.80407 2.04912 0
M  V30 17398 C 1629.52 -2.83412 3.20721 0
M  V30 17399 C 1628.85 -4.23365 3.26597 0
M  V30 17400 C 1630.15 -2.49358 4.58931 0
M  V30 17401 H 1631.84 -1.17892 2.75212 0
M  V30 17402 H 1629.39 -0.565692 1.32423 0
M  V30 17403 H 1631.34 -3.56343 2.24939 0
M  V30 17404 H 1630.07 -3.07236 1.10786 0
M  V30 17405 H 1628.73 -2.09929 3.00542 0
M  V30 17406 H 1628.37 -4.47297 2.30076 0
M  V30 17407 H 1628.07 -4.26287 4.04417 0
M  V30 17408 H 1629.6 -5.01149 3.4883 0
M  V30 17409 H 1631.01 -3.15006 4.79003 0
M  V30 17410 H 1629.41 -2.6357 5.3912 0
M  V30 17411 H 1630.48 -1.44557 4.62851 0
M  V30 17412 N 1631.82 -1.45363 -0.608876 0
M  V30 17413 C 1632.79 -1.53551 -1.70161 0
M  V30 17414 C 1633.79 -0.415146 -1.55349 0
M  V30 17415 O 1634.98 -0.67858 -1.6044 0
M  V30 17416 C 1632.11 -1.43081 -3.0942 0
M  V30 17417 H 1633.3 -2.5091 -1.64268 0
M  V30 17418 H 1630.85 -1.32785 -0.824493 0
M  V30 17419 H 1631.59 -0.469016 -3.20891 0
M  V30 17420 H 1631.37 -2.24343 -3.21579 0
M  V30 17421 H 1632.86 -1.51841 -3.89017 0
M  V30 17422 N 1633.3 0.851265 -1.32632 0
M  V30 17423 C 1634.58 1.58945 -1.13999 0
M  V30 17424 C 1634.96 2.08981 0.29836 0
M  V30 17425 O 1634.31 1.88226 1.2955 0
M  V30 17426 C 1634.52 2.73296 -2.17049 0
M  V30 17427 C 1635.86 3.42791 -2.50559 0
M  V30 17428 O 1636.89 2.83524 -2.15621 0
M  V30 17429 O 1635.75 4.49749 -3.10464 0
M  V30 17430 H 1632.84 0.700157 -0.440124 0
M  V30 17431 H 1635.39 0.895098 -1.44174 0
M  V30 17432 H 1634.16 2.33873 -3.13718 0
M  V30 17433 H 1633.78 3.50405 -1.87888 0
M  V30 17434 N 1634.78 1.15898 1.06796 0
M  V30 17435 C 1636.06 0.847701 1.76276 0
M  V30 17436 C 1636.44 -0.655537 2.00664 0
M  V30 17437 O 1635.78 -1.60171 1.62964 0
M  V30 17438 C 1635.99 1.66475 3.06736 0
M  V30 17439 C 1637.34 1.87452 3.80982 0
M  V30 17440 O 1638.37 1.63298 3.16563 0
M  V30 17441 O 1637.22 2.27942 4.96694 0
M  V30 17442 H 1634.32 0.312308 0.765763 0
M  V30 17443 H 1636.86 1.26507 1.13111 0
M  V30 17444 H 1635.64 2.68508 2.84638 0
M  V30 17445 H 1635.26 1.24409 3.77635 0
M  V30 17446 N 1636.26 -1.25243 0.956659 0
M  V30 17447 C 1637.19 -2.28159 0.496574 0
M  V30 17448 C 1638.17 -1.63814 -0.458132 0
M  V30 17449 O 1639.35 -1.90897 -0.356648 0
M  V30 17450 C 1636.48 -3.46573 -0.22454 0
M  V30 17451 C 1635.44 -4.2311 0.645104 0
M  V30 17452 C 1634.76 -5.343 -0.206867 0
M  V30 17453 C 1636.06 -4.85562 1.92422 0
M  V30 17454 H 1637.76 -2.66895 1.35675 0
M  V30 17455 H 1635.3 -1.28301 0.653827 0
M  V30 17456 H 1637.26 -4.17695 -0.55755 0
M  V30 17457 H 1635.98 -3.06833 -1.11898 0
M  V30 17458 H 1634.64 -3.53774 0.961228 0
M  V30 17459 H 1634.29 -4.908 -1.10112 0
M  V30 17460 H 1633.99 -5.86423 0.371714 0
M  V30 17461 H 1635.51 -6.08253 -0.534798 0
M  V30 17462 H 1636.92 -5.48817 1.65749 0
M  V30 17463 H 1635.32 -5.47871 2.44862 0
M  V30 17464 H 1636.39 -4.07634 2.62607 0
M  V30 17465 N 1637.73 -0.725468 -1.3991 0
M  V30 17466 C 1638.64 -0.0805887 -2.34462 0
M  V30 17467 C 1639.66 0.732689 -1.57822 0
M  V30 17468 O 1640.84 0.663362 -1.90162 0
M  V30 17469 C 1637.9 0.822908 -3.36792 0
M  V30 17470 C 1636.96 -0.00153812 -4.293 0
M  V30 17471 C 1636.2 0.85893 -5.26743 0
M  V30 17472 O 1636.42 2.09793 -5.30418 0
M  V30 17473 O 1635.35 0.292659 -6.01188 0
M  V30 17474 H 1639.18 -0.860746 -2.91247 0
M  V30 17475 H 1636.76 -0.48604 -1.41273 0
M  V30 17476 H 1638.65 1.34014 -3.99522 0
M  V30 17477 H 1637.32 1.58204 -2.82406 0
M  V30 17478 H 1636.23 -0.564072 -3.69823 0
M  V30 17479 H 1637.56 -0.722675 -4.86866 0
M  V30 17480 N 1639.21 1.50354 -0.472382 0
M  V30 17481 C 1640.12 2.32318 0.326405 0
M  V30 17482 C 1641.14 1.4276 0.994771 0
M  V30 17483 O 1642.31 1.75811 0.98246 0
M  V30 17484 C 1639.38 3.17468 1.39337 0
M  V30 17485 C 1638.44 4.22848 0.741465 0
M  V30 17486 C 1637.67 5.03929 1.75759 0
M  V30 17487 O 1637.9 4.86105 2.98425 0
M  V30 17488 O 1636.83 5.87051 1.32871 0
M  V30 17489 H 1640.66 3.01749 -0.343702 0
M  V30 17490 H 1638.24 1.47553 -0.234207 0
M  V30 17491 H 1640.12 3.703 2.01136 0
M  V30 17492 H 1638.8 2.50764 2.04692 0
M  V30 17493 H 1637.71 3.74005 0.0844848 0
M  V30 17494 H 1639.04 4.92026 0.130838 0
M  V30 17495 N 1640.69 0.205039 1.56261 0
M  V30 17496 C 1642.1 -0.305792 1.84179 0
M  V30 17497 C 1642.45 -1.60672 1.126 0
M  V30 17498 O 1641.58 -2.12855 0.390118 0
M  V30 17499 C 1642.17 -0.561596 3.34113 0
M  V30 17500 C 1640.73 -1.01677 3.62407 0
M  V30 17501 C 1639.88 -0.0707844 2.7721 0
M  V30 17502 H 1642.83 0.428609 1.52803 0
M  V30 17503 H 1642.85 -1.40969 3.53423 0
M  V30 17504 H 1642.36 0.38541 3.86182 0
M  V30 17505 H 1640.46 -1.97771 3.1578 0
M  V30 17506 H 1640.58 -0.902607 4.70521 0
M  V30 17507 H 1638.94 -0.574529 2.48136 0
M  V30 17508 H 1639.72 0.870844 3.32071 0
M  V30 17509 N 1642.17 -1.57451 -0.0684915 0
M  V30 17510 C 1643.45 -1.78483 -0.800209 0
M  V30 17511 C 1643.83 -0.793438 -1.95621 0
M  V30 17512 O 1643.17 0.172756 -2.27846 0
M  V30 17513 C 1643.38 -3.25069 -1.27008 0
M  V30 17514 C 1644.73 -3.8899 -1.70212 0
M  V30 17515 O 1645.76 -3.2898 -1.36566 0
M  V30 17516 O 1644.62 -4.94569 -2.32515 0
M  V30 17517 H 1641.71 -0.732598 -0.383704 0
M  V30 17518 H 1644.26 -1.69631 -0.0483117 0
M  V30 17519 H 1643.03 -3.88784 -0.443067 0
M  V30 17520 H 1642.65 -3.38657 -2.08319 0
M  V30 17521 N 1643.65 0.339955 -1.5389 0
M  V30 17522 C 1644.92 1.09703 -1.6194 0
M  V30 17523 C 1645.3 2.06401 -0.442907 0
M  V30 17524 O 1644.65 2.21418 0.564477 0
M  V30 17525 C 1644.86 1.8135 -2.98183 0
M  V30 17526 C 1646.21 2.34965 -3.53662 0
M  V30 17527 O 1647.23 1.91442 -3.00381 0
M  V30 17528 O 1646.09 3.14601 -4.46865 0
M  V30 17529 H 1643.19 0.504703 -0.655136 0
M  V30 17530 H 1645.73 0.34116 -1.66235 0
M  V30 17531 H 1644.51 1.10924 -3.75249 0
M  V30 17532 H 1644.13 2.63787 -2.97494 0
M  V30 17533 N 1645.13 1.45684 0.601159 0
M  V30 17534 C 1646.37 1.51581 1.37123 0
M  V30 17535 C 1646.73 0.156185 1.91364 0
M  V30 17536 O 1647.93 0.0898599 2.6865 0
M  V30 17537 C 1646.2 2.56989 2.48378 0
M  V30 17538 S 1647.76 2.82158 3.36054 0
M  V30 17539 H 1644.58 0.53577 0.46741 0
M  V30 17540 H 1647.18 1.82805 0.693012 0
M  V30 17541 H 1645.88 3.54436 2.0689 0
M  V30 17542 H 1645.42 2.27437 3.20992 0
M  V30 17543 H 1647.43 2.16025 4.46708 0
M  V30 17544 N 1646.6 -0.84422 1.33082 0
M  V30 17545 C 1647.85 -1.59912 1.24235 0
M  V30 17546 C 1648.18 -1.93538 -0.193223 0
M  V30 17547 O 1647.43 -1.58418 -1.14901 0
M  V30 17548 C 1647.73 -2.92225 2.05765 0
M  V30 17549 C 1647.4 -2.77985 3.55014 0
M  V30 17550 C 1646.06 -2.73809 3.95705 0
M  V30 17551 C 1648.41 -2.63171 4.49878 0
M  V30 17552 C 1645.74 -2.5271 5.29485 0
M  V30 17553 C 1648.09 -2.43607 5.83814 0
M  V30 17554 C 1646.76 -2.37829 6.23693 0
M  V30 17555 H 1646.03 -0.58516 0.454608 0
M  V30 17556 H 1648.67 -0.978493 1.64614 0
M  V30 17557 H 1646.98 -3.58465 1.58146 0
M  V30 17558 H 1648.68 -3.49678 1.96281 0
M  V30 17559 H 1645.27 -2.82065 3.22703 0
M  V30 17560 H 1649.45 -2.65435 4.19354 0
M  V30 17561 H 1644.71 -2.4668 5.59427 0
M  V30 17562 H 1648.88 -2.31126 6.56927 0
M  V30 17563 H 1646.51 -2.21241 7.27294 0
M  V30 17564 N 1648.08 -1.16463 -1.0618 0
M  V30 17565 C 1649.31 -0.971075 -1.82696 0
M  V30 17566 C 1649.72 0.480716 -1.82578 0
M  V30 17567 O 1649.08 1.33366 -1.24579 0
M  V30 17568 C 1649.13 -1.49235 -3.29259 0
M  V30 17569 O 1648.85 -2.88728 -3.29496 0
M  V30 17570 C 1650.35 -1.34197 -4.225 0
M  V30 17571 H 1647.57 -0.34415 -0.576023 0
M  V30 17572 H 1650.12 -1.54517 -1.33958 0
M  V30 17573 H 1648.27 -0.960503 -3.75304 0
M  V30 17574 H 1648.69 -3.12618 -4.21153 0
M  V30 17575 H 1650.16 -1.75499 -5.23358 0
M  V30 17576 H 1650.64 -0.287685 -4.38257 0
M  V30 17577 H 1651.24 -1.86349 -3.82301 0
M  V30 17578 N 1649.56 1.24734 -0.963288 0
M  V30 17579 C 1650.47 2.29268 -0.497316 0
M  V30 17580 C 1651.49 1.68356 0.439572 0
M  V30 17581 O 1652.66 1.98942 0.313697 0
M  V30 17582 C 1649.73 3.46068 0.209261 0
M  V30 17583 C 1648.79 4.22394 -0.766907 0
M  V30 17584 C 1648.02 5.33617 -0.0939542 0
M  V30 17585 O 1648.24 5.59323 1.11864 0
M  V30 17586 O 1647.18 5.96774 -0.78388 0
M  V30 17587 H 1651 2.71235 -1.36622 0
M  V30 17588 H 1648.59 1.30344 -0.730126 0
M  V30 17589 H 1650.47 4.17015 0.606367 0
M  V30 17590 H 1649.15 3.06087 1.0532 0
M  V30 17591 H 1648.05 3.53841 -1.21439 0
M  V30 17592 H 1649.39 4.66181 -1.57912 0
M  V30 17593 N 1651.04 0.732878 1.39523 0
M  V30 17594 C 1652.29 0.279338 2.0016 0
M  V30 17595 C 1652.61 -1.13673 1.58441 0
M  V30 17596 O 1651.88 -1.77369 0.831681 0
M  V30 17597 H 1650.46 0.100288 0.740237 0
M  V30 17598 H 1653.12 0.942363 1.70603 0
M  V30 17599 H 1652.21 0.326053 3.10392 0
M  V30 17600 N 1652.52 -1.50101 0.480349 0
M  V30 17601 C 1653.76 -2.0428 -0.0700589 0
M  V30 17602 C 1654.12 -1.35372 -1.36155 0
M  V30 17603 O 1655.32 -1.80157 -1.99492 0
M  V30 17604 C 1653.59 -3.56591 -0.240285 0
M  V30 17605 S 1655.15 -4.32379 -0.747916 0
M  V30 17606 H 1651.97 -0.710906 -0.0115761 0
M  V30 17607 H 1654.57 -1.84392 0.649604 0
M  V30 17608 H 1653.27 -4.04294 0.705315 0
M  V30 17609 H 1652.81 -3.80849 -0.985792 0
M  V30 17610 H 1654.82 -4.5322 -2.02005 0
M  V30 17611 N 1653.99 -0.213323 -1.5615 0
M  V30 17612 C 1655.24 0.420909 -1.97259 0
M  V30 17613 C 1655.56 1.61483 -1.10375 0
M  V30 17614 O 1656.76 2.31804 -1.41347 0
M  V30 17615 C 1655.22 0.800243 -3.5089 0
M  V30 17616 C 1654.83 -0.370405 -4.46466 0
M  V30 17617 C 1656.57 1.40054 -4.00731 0
M  V30 17618 C 1654.48 0.0309052 -5.91392 0
M  V30 17619 H 1653.41 0.16103 -0.736604 0
M  V30 17620 H 1656.06 -0.308232 -1.80893 0
M  V30 17621 H 1654.44 1.58657 -3.62828 0
M  V30 17622 H 1655.61 -1.14796 -4.46272 0
M  V30 17623 H 1653.93 -0.883391 -4.06922 0
M  V30 17624 H 1656.53 1.71355 -5.06499 0
M  V30 17625 H 1656.87 2.31345 -3.461 0
M  V30 17626 H 1657.4 0.677813 -3.91983 0
M  V30 17627 H 1654.14 -0.848284 -6.49988 0
M  V30 17628 H 1653.66 0.772941 -5.94799 0
M  V30 17629 H 1655.34 0.460441 -6.4536 0
M  V30 17630 N 1655.47 1.57485 0.0601405 0
M  V30 17631 C 1656.89 1.54105 0.415187 0
M  V30 17632 C 1657.09 0.935177 1.78484 0
M  V30 17633 O 1656.14 0.542715 2.46599 0
M  V30 17634 C 1657.46 2.98708 0.34555 0
M  V30 17635 C 1659.01 3.10103 0.424895 0
M  V30 17636 C 1659.48 4.56379 0.385041 0
M  V30 17637 N 1660.97 4.6106 0.444771 0
M  V30 17638 C 1661.71 5.71737 0.436334 0
M  V30 17639 N 1661.2 6.91746 0.38202 0
M  V30 17640 N 1663 5.60014 0.483759 0
M  V30 17641 H 1655.15 1.95232 -0.836565 0
M  V30 17642 H 1657.41 0.894101 -0.3151 0
M  V30 17643 H 1657.12 3.4664 -0.594427 0
M  V30 17644 H 1656.99 3.59201 1.15129 0
M  V30 17645 H 1659.38 2.62137 1.3553 0
M  V30 17646 H 1659.46 2.52499 -0.409633 0
M  V30 17647 H 1659.1 5.05004 -0.541561 0
M  V30 17648 H 1659.03 5.11859 1.23726 0
M  V30 17649 H 1661.52 3.74703 0.490522 0
M  V30 17650 H 1661.84 7.71866 0.379829 0
M  V30 17651 H 1660.18 6.94126 0.348532 0
M  V30 17652 H 1663.37 4.65158 0.523965 0
M  V30 17653 H 1663.54 6.46266 0.473715 0
M  V30 17654 N 1656.95 -0.331789 1.54068 0
M  V30 17655 C 1657.9 -1.40889 1.7926 0
M  V30 17656 C 1658.88 -1.47263 0.648266 0
M  V30 17657 O 1660.08 -1.51934 0.908021 0
M  V30 17658 C 1657.21 -2.77864 2.0161 0
M  V30 17659 C 1656.29 -2.75835 3.22142 0
M  V30 17660 N 1656.68 -2.43431 4.43368 0
M  V30 17661 C 1654.98 -3.06972 3.23549 0
M  V30 17662 C 1655.68 -2.49932 5.2527 0
M  V30 17663 N 1654.66 -2.86037 4.6226 0
M  V30 17664 H 1658.46 -1.14751 2.70572 0
M  V30 17665 H 1655.97 -0.540225 1.53151 0
M  V30 17666 H 1657.97 -3.55486 2.17796 0
M  V30 17667 H 1656.63 -3.04938 1.11547 0
M  V30 17668 H 1657.64 -2.16421 4.70513 0
M  V30 17669 H 1654.32 -3.39142 2.43493 0
M  V30 17670 H 1655.71 -2.27938 6.32055 0
M  V30 17671 N 1658.43 -1.46001 -0.593424 0
M  V30 17672 C 1659.67 -1.52306 -1.36317 0
M  V30 17673 C 1660.03 -0.166331 -1.91278 0
M  V30 17674 O 1661.23 -0.104106 -2.68598 0
M  V30 17675 C 1659.5 -2.58303 -2.47011 0
M  V30 17676 S 1661.06 -2.83936 -3.34553 0
M  V30 17677 H 1657.88 -0.538241 -0.464562 0
M  V30 17678 H 1660.48 -1.8317 -0.683308 0
M  V30 17679 H 1659.19 -3.55528 -2.05007 0
M  V30 17680 H 1658.72 -2.29136 -3.19782 0
M  V30 17681 H 1660.73 -2.18391 -4.45556 0
M  V30 17682 N 1659.91 0.83715 -1.33527 0
M  V30 17683 C 1661.32 1.40878 -1.22516 0
M  V30 17684 C 1661.67 1.95585 0.155236 0
M  V30 17685 O 1660.79 1.88946 1.05491 0
M  V30 17686 C 1661.39 2.56093 -2.21815 0
M  V30 17687 C 1659.95 3.09205 -2.14638 0
M  V30 17688 C 1659.09 1.82012 -2.09205 0
M  V30 17689 H 1662.05 0.642766 -1.45101 0
M  V30 17690 H 1662.07 3.33775 -1.82687 0
M  V30 17691 H 1661.58 2.16246 -3.22272 0
M  V30 17692 H 1659.68 3.53592 -1.17489 0
M  V30 17693 H 1659.79 3.69261 -3.05259 0
M  V30 17694 H 1658.16 2.02331 -1.54707 0
M  V30 17695 H 1658.94 1.44359 -3.11473 0
M  V30 17696 N 1661.38 1.17024 1.05561 0
M  V30 17697 C 1662.62 0.967099 1.80074 0
M  V30 17698 C 1662.99 -0.495724 1.8549 0
M  V30 17699 O 1664.19 -0.817816 2.56057 0
M  V30 17700 C 1662.46 1.5862 3.20273 0
M  V30 17701 S 1664.02 1.52873 4.11309 0
M  V30 17702 H 1660.84 0.347623 0.620225 0
M  V30 17703 H 1663.44 1.48902 1.26682 0
M  V30 17704 H 1662.14 2.64341 3.1393 0
M  V30 17705 H 1661.67 1.06392 3.7874 0
M  V30 17706 H 1663.69 0.534126 4.93317 0
M  V30 17707 N 1662.86 -1.24221 0.969889 0
M  V30 17708 C 1664.1 -1.94094 0.640856 0
M  V30 17709 C 1664.47 -1.74112 -0.809267 0
M  V30 17710 O 1665.67 -2.38039 -1.24863 0
M  V30 17711 C 1663.94 -3.42892 1.00797 0
M  V30 17712 S 1665.5 -4.3156 0.79382 0
M  V30 17713 H 1662.32 -0.671028 0.235036 0
M  V30 17714 H 1664.92 -1.50541 1.24731 0
M  V30 17715 H 1663.62 -3.54942 2.0602 0
M  V30 17716 H 1663.15 -3.91438 0.392386 0
M  V30 17717 H 1665.17 -4.95117 -0.327707 0
M  V30 17718 N 1664.34 -0.740267 -1.39132 0
M  V30 17719 C 1665.29 -0.103744 -2.30567 0
M  V30 17720 C 1666.26 0.724026 -1.49489 0
M  V30 17721 O 1667.44 0.682904 -1.7816 0
M  V30 17722 C 1664.58 0.793587 -3.35851 0
M  V30 17723 C 1663.7 -0.0473671 -4.31974 0
M  V30 17724 C 1662.83 0.851726 -5.24327 0
M  V30 17725 C 1661.87 0.00633633 -6.121 0
M  V30 17726 N 1661.01 0.861652 -6.96793 0
M  V30 17727 H 1665.85 -0.889087 -2.84428 0
M  V30 17728 H 1663.38 -0.450093 -1.40045 0
M  V30 17729 H 1665.34 1.32834 -3.95488 0
M  V30 17730 H 1663.97 1.54485 -2.83433 0
M  V30 17731 H 1663.02 -0.699601 -3.73911 0
M  V30 17732 H 1664.34 -0.700806 -4.93852 0
M  V30 17733 H 1663.49 1.45413 -5.89016 0
M  V30 17734 H 1662.23 1.53893 -4.62783 0
M  V30 17735 H 1661.23 -0.608833 -5.46419 0
M  V30 17736 H 1662.46 -0.677731 -6.7571 0
M  V30 17737 H 1660.4 1.53405 -6.37811 0
M  V30 17738 H 1660.32 0.264812 -7.55536 0
M  V30 17739 H 1661.59 1.44945 -7.65905 0
M  V30 17740 N 1665.82 1.49844 -0.488302 0
M  V30 17741 C 1666.75 2.31737 0.286432 0
M  V30 17742 C 1667.73 1.39424 0.974418 0
M  V30 17743 O 1668.91 1.68339 0.968274 0
M  V30 17744 C 1666.04 3.19616 1.35878 0
M  V30 17745 C 1665 4.20619 0.791409 0
M  V30 17746 C 1664.32 4.9735 1.96333 0
M  V30 17747 C 1665.62 5.21882 -0.208975 0
M  V30 17748 H 1667.32 2.96755 -0.397092 0
M  V30 17749 H 1664.86 1.42709 -0.192413 0
M  V30 17750 H 1666.82 3.75711 1.90838 0
M  V30 17751 H 1665.54 2.52516 2.07131 0
M  V30 17752 H 1664.2 3.65651 0.263647 0
M  V30 17753 H 1663.85 4.26708 2.66325 0
M  V30 17754 H 1663.55 5.65684 1.58983 0
M  V30 17755 H 1665.07 5.56286 2.51751 0
M  V30 17756 H 1666.49 5.72746 0.252049 0
M  V30 17757 H 1664.88 5.98033 -0.497638 0
M  V30 17758 H 1665.95 4.7157 -1.12916 0
M  V30 17759 N 1667.3 0.221601 1.56034 0
M  V30 17760 C 1668.57 -0.459097 1.90136 0
M  V30 17761 C 1668.95 -1.7774 1.13894 0
M  V30 17762 O 1668.3 -2.27147 0.248285 0
M  V30 17763 C 1668.51 -0.651996 3.42856 0
M  V30 17764 C 1669.86 -0.959402 4.13619 0
M  V30 17765 O 1670.88 -0.73878 3.48454 0
M  V30 17766 O 1669.74 -1.37811 5.28839 0
M  V30 17767 H 1666.84 -0.242753 0.790569 0
M  V30 17768 H 1669.38 0.263789 1.67637 0
M  V30 17769 H 1668.15 0.277892 3.90312 0
M  V30 17770 H 1667.78 -1.42637 3.71134 0
M  V30 17771 N 1668.77 -1.57515 -0.0517878 0
M  V30 17772 C 1670 -1.92456 -0.759485 0
M  V30 17773 C 1670.42 -0.819396 -1.70092 0
M  V30 17774 O 1669.77 0.205913 -1.81335 0
M  V30 17775 C 1669.83 -3.27242 -1.53606 0
M  V30 17776 O 1669.55 -4.33511 -0.632441 0
M  V30 17777 C 1671.05 -3.76324 -2.34297 0
M  V30 17778 H 1668.27 -0.635688 -0.214807 0
M  V30 17779 H 1670.81 -2.04494 -0.0160862 0
M  V30 17780 H 1668.97 -3.16671 -2.23155 0
M  V30 17781 H 1669.38 -5.11178 -1.17462 0
M  V30 17782 H 1670.85 -4.73209 -2.84213 0
M  V30 17783 H 1671.33 -3.06351 -3.14716 0
M  V30 17784 H 1671.94 -3.89904 -1.69866 0
M  V30 17785 N 1670.25 0.323614 -1.54242 0
M  V30 17786 C 1671.48 1.0811 -1.76408 0
M  V30 17787 C 1671.9 1.81707 -0.512656 0
M  V30 17788 O 1671.25 1.75035 0.516638 0
M  V30 17789 C 1671.3 2.07923 -2.9572 0
M  V30 17790 O 1671.03 1.37317 -4.16024 0
M  V30 17791 C 1672.53 2.95891 -3.30096 0
M  V30 17792 H 1669.75 0.321583 -0.588919 0
M  V30 17793 H 1672.29 0.369756 -2.01129 0
M  V30 17794 H 1670.45 2.74593 -2.73272 0
M  V30 17795 H 1670.86 2.04158 -4.83135 0
M  V30 17796 H 1672.33 3.61822 -4.1688 0
M  V30 17797 H 1672.81 3.62986 -2.47261 0
M  V30 17798 H 1673.42 2.34783 -3.54622 0
M  V30 17799 N 1671.73 1.46313 0.585673 0
M  V30 17800 C 1672.68 1.56653 1.69495 0
M  V30 17801 C 1673.65 0.411007 1.60935 0
M  V30 17802 O 1674.83 0.627369 1.80191 0
M  V30 17803 C 1671.97 1.55996 3.0783 0
M  V30 17804 C 1671.09 2.82261 3.27036 0
M  V30 17805 C 1670.22 2.73129 4.55603 0
M  V30 17806 C 1669.26 3.94346 4.68143 0
M  V30 17807 N 1668.4 3.83617 5.88032 0
M  V30 17808 H 1673.24 2.51407 1.59995 0
M  V30 17809 H 1670.77 1.24729 0.779821 0
M  V30 17810 H 1672.73 1.53602 3.87895 0
M  V30 17811 H 1671.36 0.647766 3.16234 0
M  V30 17812 H 1670.41 2.94648 2.40596 0
M  V30 17813 H 1671.73 3.72107 3.32171 0
M  V30 17814 H 1670.88 2.68823 5.43893 0
M  V30 17815 H 1669.62 1.80917 4.52902 0
M  V30 17816 H 1668.62 3.98987 3.78272 0
M  V30 17817 H 1669.85 4.8765 4.72625 0
M  V30 17818 H 1667.8 2.9419 5.86334 0
M  V30 17819 H 1667.71 4.67117 5.94422 0
M  V30 17820 H 1668.98 3.83281 6.7876 0
M  V30 17821 N 1673.21 -0.830057 1.33969 0
M  V30 17822 C 1674.43 -1.62294 1.29133 0
M  V30 17823 C 1674.86 -1.87627 -0.133253 0
M  V30 17824 O 1674.22 -1.44669 -1.09272 0
M  V30 17825 C 1674.27 -2.94508 2.0808 0
M  V30 17826 O 1673.37 -3.86239 1.44544 0
M  V30 17827 H 1672.71 -0.493865 0.443839 0
M  V30 17828 H 1675.24 -1.03202 1.76665 0
M  V30 17829 H 1675.25 -3.44133 2.19173 0
M  V30 17830 H 1673.93 -2.75392 3.1166 0
M  V30 17831 H 1672.5 -3.44743 1.42151 0
M  V30 17832 N 1674.69 -1.17582 -1.04939 0
M  V30 17833 C 1676.1 -0.971326 -1.59443 0
M  V30 17834 C 1676.45 0.481308 -1.90205 0
M  V30 17835 O 1675.57 1.35708 -1.6856 0
M  V30 17836 C 1676.17 -1.75685 -2.8969 0
M  V30 17837 C 1674.73 -1.59695 -3.40844 0
M  V30 17838 C 1673.88 -1.75688 -2.14544 0
M  V30 17839 H 1676.83 -1.32254 -0.877188 0
M  V30 17840 H 1676.85 -1.24074 -3.59703 0
M  V30 17841 H 1676.36 -2.81405 -2.67269 0
M  V30 17842 H 1674.46 -0.564746 -3.68295 0
M  V30 17843 H 1674.57 -2.38951 -4.15258 0
M  V30 17844 H 1672.94 -1.18553 -2.25427 0
M  V30 17845 H 1673.72 -2.82825 -1.94589 0
M  V30 17846 N 1676.17 1.23705 -0.976463 0
M  V30 17847 C 1677.41 1.92608 -0.653736 0
M  V30 17848 C 1677.77 1.74822 0.803438 0
M  V30 17849 O 1677.06 1.09606 1.57153 0
M  V30 17850 C 1677.25 3.43853 -0.974676 0
M  V30 17851 C 1677.08 3.76351 -2.4615 0
M  V30 17852 C 1675.85 3.97251 -3.12282 0
M  V30 17853 C 1678.05 3.8214 -3.442 0
M  V30 17854 N 1676.03 4.16921 -4.5061 0
M  V30 17855 C 1677.4 4.06756 -4.6792 0
M  V30 17856 C 1679.46 3.64914 -3.38736 0
M  V30 17857 C 1678.16 4.15937 -5.86847 0
M  V30 17858 C 1680.19 3.75345 -4.57023 0
M  V30 17859 C 1679.55 4.00395 -5.79537 0
M  V30 17860 H 1675.65 0.726154 -0.290214 0
M  V30 17861 H 1678.23 1.49014 -1.25312 0
M  V30 17862 H 1676.4 3.86293 -0.404026 0
M  V30 17863 H 1678.14 4.00082 -0.609625 0
M  V30 17864 H 1674.89 3.94004 -2.62788 0
M  V30 17865 H 1675.31 4.30719 -5.22313 0
M  V30 17866 H 1679.96 3.44547 -2.45046 0
M  V30 17867 H 1677.67 4.35113 -6.80957 0
M  V30 17868 H 1681.26 3.63377 -4.54366 0
M  V30 17869 H 1680.14 4.08275 -6.69538 0
M  V30 17870 N 1677.64 0.747635 1.38738 0
M  V30 17871 C 1678.92 0.226908 1.94279 0
M  V30 17872 C 1679.3 -1.27373 1.68343 0
M  V30 17873 O 1678.65 -2.04538 1.01865 0
M  V30 17874 C 1678.86 0.574164 3.44245 0
M  V30 17875 C 1680.21 0.530498 4.21273 0
M  V30 17876 O 1681.23 0.512102 3.525 0
M  V30 17877 O 1680.09 0.536171 5.43863 0
M  V30 17878 H 1677.18 0.0456834 0.825737 0
M  V30 17879 H 1679.73 0.827353 1.48165 0
M  V30 17880 H 1678.5 1.6108 3.56607 0
M  V30 17881 H 1678.12 -0.0545964 3.97563 0
M  V30 17882 N 1679.12 -1.49583 0.496242 0
M  V30 17883 C 1680.37 -2.02738 -0.050037 0
M  V30 17884 C 1680.7 -1.37556 -1.37083 0
M  V30 17885 O 1679.98 -0.50964 -1.87704 0
M  V30 17886 C 1680.26 -3.59501 -0.207575 0
M  V30 17887 C 1680.11 -4.35218 1.13601 0
M  V30 17888 C 1681.43 -4.29715 -0.950443 0
M  V30 17889 H 1678.55 -0.736811 -0.0167105 0
M  V30 17890 H 1681.19 -1.78654 0.646728 0
M  V30 17891 H 1679.34 -3.80152 -0.801033 0
M  V30 17892 H 1681.01 -4.26075 1.76798 0
M  V30 17893 H 1679.26 -3.97964 1.72648 0
M  V30 17894 H 1679.93 -5.43247 0.979142 0
M  V30 17895 H 1682.4 -4.1369 -0.447173 0
M  V30 17896 H 1681.28 -5.39159 -1.02951 0
M  V30 17897 H 1681.54 -3.94627 -1.99304 0
M  V30 17898 N 1680.6 -0.229873 -1.55915 0
M  V30 17899 C 1681.85 0.398775 -1.98127 0
M  V30 17900 C 1682.17 1.597 -1.11897 0
M  V30 17901 O 1681.44 1.94898 -0.197868 0
M  V30 17902 H 1680.02 0.150323 -0.731719 0
M  V30 17903 H 1682.68 -0.324704 -1.92176 0
M  V30 17904 H 1681.78 0.719475 -3.03694 0
M  V30 17905 N 1682.08 1.5754 0.0434337 0
M  V30 17906 C 1683.32 1.89741 0.7328 0
M  V30 17907 C 1683.68 0.826869 1.73726 0
M  V30 17908 O 1682.97 -0.166036 1.90879 0
M  V30 17909 C 1683.17 3.26402 1.45591 0
M  V30 17910 C 1682.99 4.46648 0.522997 0
M  V30 17911 C 1681.76 5.05079 0.14936 0
M  V30 17912 C 1683.96 5.1394 -0.192494 0
M  V30 17913 N 1681.94 6.08843 -0.786309 0
M  V30 17914 C 1683.32 6.12136 -0.984327 0
M  V30 17915 C 1685.37 4.97216 -0.260965 0
M  V30 17916 C 1684.07 6.95412 -1.83831 0
M  V30 17917 C 1686.1 5.81042 -1.10202 0
M  V30 17918 C 1685.46 6.78798 -1.88182 0
M  V30 17919 H 1681.56 0.743386 0.242695 0
M  V30 17920 H 1684.14 1.94699 -0.00669196 0
M  V30 17921 H 1682.32 3.22399 2.16595 0
M  V30 17922 H 1684.05 3.46162 2.09653 0
M  V30 17923 H 1680.8 4.70863 0.508436 0
M  V30 17924 H 1681.23 6.65393 -1.24823 0
M  V30 17925 H 1685.87 4.21529 0.327607 0
M  V30 17926 H 1683.59 7.70454 -2.43774 0
M  V30 17927 H 1687.17 5.70152 -1.15835 0
M  V30 17928 H 1686.05 7.42535 -2.52212 0
M  V30 17929 N 1683.56 -0.31543 1.54411 0
M  V30 17930 C 1684.49 -1.4098 1.80713 0
M  V30 17931 C 1685.5 -1.47481 0.689435 0
M  V30 17932 O 1686.69 -1.50058 0.966682 0
M  V30 17933 C 1683.79 -2.79459 1.91718 0
M  V30 17934 C 1682.96 -2.96064 3.2197 0
M  V30 17935 C 1682.02 -4.14954 3.23573 0
M  V30 17936 O 1681.05 -4.07726 3.97175 0
M  V30 17937 N 1682.25 -5.24889 2.47935 0
M  V30 17938 H 1685.01 -1.18778 2.75158 0
M  V30 17939 H 1682.58 -0.50545 1.53808 0
M  V30 17940 H 1684.57 -3.57215 1.90209 0
M  V30 17941 H 1683.14 -2.94675 1.04333 0
M  V30 17942 H 1682.36 -2.05541 3.36372 0
M  V30 17943 H 1683.65 -3.0406 4.07952 0
M  V30 17944 H 1683.04 -5.33638 1.87741 0
M  V30 17945 H 1681.6 -6.01033 2.52195 0
M  V30 17946 N 1685.03 -1.46622 -0.577906 0
M  V30 17947 C 1686.28 -1.52406 -1.33792 0
M  V30 17948 C 1686.61 -0.177147 -1.9339 0
M  V30 17949 O 1685.89 0.81197 -1.76741 0
M  V30 17950 C 1686.17 -2.62633 -2.46366 0
M  V30 17951 C 1686.02 -4.06871 -1.91771 0
M  V30 17952 C 1687.34 -2.68909 -3.4839 0
M  V30 17953 H 1684.46 -0.554833 -0.485107 0
M  V30 17954 H 1687.1 -1.78582 -0.648739 0
M  V30 17955 H 1685.25 -2.40444 -3.05154 0
M  V30 17956 H 1686.93 -4.40361 -1.37403 0
M  V30 17957 H 1685.17 -4.16124 -1.2257 0
M  V30 17958 H 1685.84 -4.79734 -2.73056 0
M  V30 17959 H 1688.32 -2.88868 -2.9949 0
M  V30 17960 H 1687.19 -3.47846 -4.24611 0
M  V30 17961 H 1687.45 -1.75148 -4.05925 0
M  V30 17962 N 1686.51 0.822941 -1.34408 0
M  V30 17963 C 1687.93 1.11606 -1.14089 0
M  V30 17964 C 1688.13 2.01418 0.0576164 0
M  V30 17965 O 1687.18 2.41622 0.733146 0
M  V30 17966 C 1688.5 1.76279 -2.43611 0
M  V30 17967 C 1690.05 1.88773 -2.49667 0
M  V30 17968 C 1690.52 2.56862 -3.79191 0
M  V30 17969 N 1692.01 2.64362 -3.80351 0
M  V30 17970 C 1692.75 3.17775 -4.77291 0
M  V30 17971 N 1692.24 3.71751 -5.84613 0
M  V30 17972 N 1694.04 3.16175 -4.64747 0
M  V30 17973 H 1686.19 0.225555 -2.11199 0
M  V30 17974 H 1688.45 0.162621 -0.933948 0
M  V30 17975 H 1688.16 1.17749 -3.31403 0
M  V30 17976 H 1688.03 2.76147 -2.56949 0
M  V30 17977 H 1690.42 2.46451 -1.62314 0
M  V30 17978 H 1690.5 0.878079 -2.40257 0
M  V30 17979 H 1690.14 1.99839 -4.66933 0
M  V30 17980 H 1690.07 3.58332 -3.85883 0
M  V30 17981 H 1692.56 2.26102 -3.02797 0
M  V30 17982 H 1692.88 4.10759 -6.54597 0
M  V30 17983 H 1691.22 3.69995 -5.88327 0
M  V30 17984 H 1694.41 2.73274 -3.80051 0
M  V30 17985 H 1694.58 3.57498 -5.40462 0
M  V30 17986 N 1687.99 1.18137 1.04314 0
M  V30 17987 C 1688.94 0.906125 2.12269 0
M  V30 17988 C 1689.91 -0.153492 1.65389 0
M  V30 17989 O 1691.09 -0.0143887 1.90795 0
M  V30 17990 C 1688.23 0.435247 3.42344 0
M  V30 17991 C 1687.35 1.56 4.0285 0
M  V30 17992 C 1686.48 1.0421 5.20878 0
M  V30 17993 C 1685.52 2.14171 5.73409 0
M  V30 17994 N 1684.66 1.63792 6.82727 0
M  V30 17995 H 1689.5 1.83052 2.35151 0
M  V30 17996 H 1687.03 0.912846 1.1535 0
M  V30 17997 H 1688.99 0.143733 4.16952 0
M  V30 17998 H 1687.62 -0.452175 3.19617 0
M  V30 17999 H 1686.67 1.96705 3.25594 0
M  V30 18000 H 1687.99 2.389 4.37868 0
M  V30 18001 H 1687.14 0.704959 6.0259 0
M  V30 18002 H 1685.88 0.182643 4.87358 0
M  V30 18003 H 1684.88 2.48732 4.90319 0
M  V30 18004 H 1686.11 3.00547 6.08973 0
M  V30 18005 H 1684.05 0.801323 6.51087 0
M  V30 18006 H 1683.97 2.40293 7.16795 0
M  V30 18007 H 1685.24 1.32998 7.6807 0
M  V30 18008 N 1689.47 -1.23186 0.98301 0
M  V30 18009 C 1690.7 -1.95702 0.671453 0
M  V30 18010 C 1691.11 -1.72737 -0.76206 0
M  V30 18011 O 1690.47 -1.02037 -1.5131 0
M  V30 18012 C 1690.52 -3.48642 0.955573 0
M  V30 18013 O 1690.24 -3.70829 2.33275 0
M  V30 18014 C 1691.74 -4.38354 0.660333 0
M  V30 18015 H 1688.96 -0.623006 0.249209 0
M  V30 18016 H 1691.51 -1.56606 1.3151 0
M  V30 18017 H 1689.66 -3.85743 0.357892 0
M  V30 18018 H 1690.07 -4.65104 2.42443 0
M  V30 18019 H 1691.55 -5.44456 0.909477 0
M  V30 18020 H 1692.03 -4.37323 -0.405615 0
M  V30 18021 H 1692.63 -4.06864 1.23861 0
M  V30 18022 N 1690.95 -0.754982 -1.38339 0
M  V30 18023 C 1692.19 -0.316707 -2.01931 0
M  V30 18024 C 1692.55 1.08162 -1.58635 0
M  V30 18025 O 1693.75 1.61909 -2.14567 0
M  V30 18026 C 1692.02 -0.436974 -3.54719 0
M  V30 18027 S 1693.58 -0.0814864 -4.38724 0
M  V30 18028 H 1690.4 -0.122791 -0.700317 0
M  V30 18029 H 1693 -0.985907 -1.6882 0
M  V30 18030 H 1691.71 -1.45561 -3.83719 0
M  V30 18031 H 1691.24 0.249361 -3.92609 0
M  V30 18032 H 1693.25 1.12846 -4.83198 0
M  V30 18033 N 1692.42 1.49318 -0.504168 0
M  V30 18034 C 1693.65 2.06569 0.0358894 0
M  V30 18035 C 1694.06 1.36437 1.31079 0
M  V30 18036 O 1693.41 0.437416 1.78416 0
M  V30 18037 C 1693.47 3.57726 0.356656 0
M  V30 18038 C 1693.13 4.49565 -0.820987 0
M  V30 18039 C 1694.13 4.90892 -1.71235 0
M  V30 18040 C 1691.81 4.9182 -1.02069 0
M  V30 18041 C 1693.81 5.73214 -2.78754 0
M  V30 18042 C 1691.49 5.73919 -2.09905 0
M  V30 18043 C 1692.49 6.14521 -2.98082 0
M  V30 18044 O 1692.18 6.94977 -4.04057 0
M  V30 18045 H 1691.91 0.675742 -0.0186739 0
M  V30 18046 H 1694.47 1.93044 -0.701664 0
M  V30 18047 H 1692.7 3.69271 1.14785 0
M  V30 18048 H 1694.39 3.97204 0.835704 0
M  V30 18049 H 1695.15 4.58889 -1.5699 0
M  V30 18050 H 1691.03 4.59717 -0.343714 0
M  V30 18051 H 1694.57 6.04826 -3.47609 0
M  V30 18052 H 1690.47 6.05334 -2.24144 0
M  V30 18053 H 1691.24 7.13289 -4.01449 0
M  V30 18054 N 1693.9 0.238138 1.5579 0
M  V30 18055 C 1695.32 -0.116908 1.59171 0
M  V30 18056 C 1695.52 -1.57629 1.2552 0
M  V30 18057 O 1694.57 -2.31926 0.998332 0
M  V30 18058 C 1695.89 0.224366 2.99862 0
M  V30 18059 C 1697.44 0.16795 3.12549 0
M  V30 18060 C 1697.91 0.483132 4.55445 0
M  V30 18061 N 1699.4 0.43331 4.61169 0
M  V30 18062 C 1700.14 0.650461 5.69699 0
M  V30 18063 N 1699.63 0.930272 6.86526 0
M  V30 18064 N 1701.43 0.581764 5.59081 0
M  V30 18065 H 1693.58 1.18996 1.75936 0
M  V30 18066 H 1695.84 0.478169 0.818571 0
M  V30 18067 H 1695.55 1.23791 3.29194 0
M  V30 18068 H 1695.42 -0.452738 3.74473 0
M  V30 18069 H 1697.81 -0.836252 2.83003 0
M  V30 18070 H 1697.89 0.878776 2.40231 0
M  V30 18071 H 1697.53 1.48485 4.8571 0
M  V30 18072 H 1697.46 -0.249073 5.26011 0
M  V30 18073 H 1699.95 0.225412 3.77227 0
M  V30 18074 H 1700.27 1.08362 7.65165 0
M  V30 18075 H 1698.61 0.96765 6.88231 0
M  V30 18076 H 1701.8 0.363273 4.66688 0
M  V30 18077 H 1701.97 0.754398 6.43594 0
M  V30 18078 N 1695.38 -1.57561 -0.0350783 0
M  V30 18079 C 1696.63 -1.88177 -0.726105 0
M  V30 18080 C 1696.94 -0.835856 -1.76841 0
M  V30 18081 O 1698.15 -1.03105 -2.51161 0
M  V30 18082 C 1696.6 -3.33924 -1.34249 0
M  V30 18083 C 1696.21 -4.46732 -0.336845 0
M  V30 18084 C 1697.96 -3.73696 -2.01374 0
M  V30 18085 C 1695.86 -5.83536 -0.961234 0
M  V30 18086 H 1694.79 -0.702082 -0.274948 0
M  V30 18087 H 1697.44 -1.83489 0.0197081 0
M  V30 18088 H 1695.83 -3.33337 -2.13781 0
M  V30 18089 H 1697 -4.58777 0.431323 0
M  V30 18090 H 1695.32 -4.15753 0.231983 0
M  V30 18091 H 1697.91 -4.7322 -2.48931 0
M  V30 18092 H 1698.26 -3.05379 -2.8293 0
M  V30 18093 H 1698.79 -3.76431 -1.28626 0
M  V30 18094 H 1695.53 -6.55238 -0.185217 0
M  V30 18095 H 1695.05 -5.75223 -1.69938 0
M  V30 18096 H 1696.73 -6.30071 -1.47035 0
M  V30 18097 N 1696.86 0.307236 -1.54576 0
M  V30 18098 C 1698.1 1.04476 -1.73818 0
M  V30 18099 C 1698.44 1.87134 -0.519102 0
M  V30 18100 O 1697.71 1.88386 0.483852 0
M  V30 18101 C 1698 1.95594 -3.02349 0
M  V30 18102 C 1697.85 1.16158 -4.34543 0
M  V30 18103 C 1699.17 2.94865 -3.26715 0
M  V30 18104 H 1696.29 0.378415 -0.632433 0
M  V30 18105 H 1698.93 0.319955 -1.87287 0
M  V30 18106 H 1697.08 2.57396 -2.90997 0
M  V30 18107 H 1698.75 0.5669 -4.57803 0
M  V30 18108 H 1696.99 0.464158 -4.3131 0
M  V30 18109 H 1697.66 1.8315 -5.2073 0
M  V30 18110 H 1700.14 2.4319 -3.37636 0
M  V30 18111 H 1699.02 3.55791 -4.17976 0
M  V30 18112 H 1699.28 3.68195 -2.44714 0
M  V30 18113 N 1698.34 1.46926 0.570122 0
M  V30 18114 C 1699.25 1.6105 1.70587 0
M  V30 18115 C 1700.26 0.493636 1.66851 0
M  V30 18116 O 1701.44 0.759454 1.86532 0
M  V30 18117 C 1698.5 1.60913 3.07096 0
M  V30 18118 C 1697.56 2.83928 3.21999 0
M  V30 18119 C 1696.8 2.83788 4.51996 0
M  V30 18120 O 1697.02 1.93256 5.36664 0
M  V30 18121 O 1695.95 3.75491 4.70415 0
M  V30 18122 H 1699.78 2.57126 1.61616 0
M  V30 18123 H 1697.37 1.29863 0.738637 0
M  V30 18124 H 1699.25 1.63576 3.88356 0
M  V30 18125 H 1697.92 0.680005 3.16477 0
M  V30 18126 H 1696.83 2.86814 2.40185 0
M  V30 18127 H 1698.16 3.76091 3.17516 0
M  V30 18128 N 1699.82 -0.815801 1.34842 0
M  V30 18129 C 1700.77 -1.9162 1.23555 0
M  V30 18130 C 1701.75 -1.6035 0.132922 0
M  V30 18131 O 1702.94 -1.73232 0.363269 0
M  V30 18132 C 1700.07 -3.284 1.00043 0
M  V30 18133 C 1699.16 -3.65765 2.14655 0
M  V30 18134 N 1699.55 -3.74639 3.39822 0
M  V30 18135 C 1697.85 -3.9566 2.05837 0
M  V30 18136 C 1698.55 -4.07478 4.15135 0
M  V30 18137 N 1697.52 -4.21075 3.43797 0
M  V30 18138 H 1701.32 -1.96669 2.184 0
M  V30 18139 H 1698.84 -1.00987 1.27183 0
M  V30 18140 H 1700.84 -4.07059 0.900462 0
M  V30 18141 H 1699.5 -3.24643 0.0607337 0
M  V30 18142 H 1700.51 -3.57951 3.74288 0
M  V30 18143 H 1697.18 -3.99982 1.19667 0
M  V30 18144 H 1698.57 -4.21488 5.23257 0
M  V30 18145 N 1701.29 -1.18689 -1.03686 0
M  V30 18146 C 1702.52 -1.01024 -1.81132 0
M  V30 18147 C 1702.94 0.436584 -1.82963 0
M  V30 18148 O 1702.3 1.31343 -1.24975 0
M  V30 18149 C 1702.35 -1.5742 -3.24424 0
M  V30 18150 O 1701.45 -0.79813 -4.04603 0
M  V30 18151 H 1700.79 -0.357623 -0.559465 0
M  V30 18152 H 1703.32 -1.57532 -1.30556 0
M  V30 18153 H 1703.33 -1.60295 -3.75193 0
M  V30 18154 H 1702.01 -2.6273 -3.22406 0
M  V30 18155 H 1700.59 -0.842 -3.6327 0
M  V30 18156 N 1702.77 1.22662 -0.989529 0
M  V30 18157 C 1704.02 1.91904 -0.674128 0
M  V30 18158 C 1704.37 1.75664 0.78485 0
M  V30 18159 O 1703.67 1.11266 1.55982 0
M  V30 18160 C 1703.86 3.428 -1.01109 0
M  V30 18161 C 1703.69 3.73719 -2.50128 0
M  V30 18162 C 1702.46 3.93916 -3.16477 0
M  V30 18163 C 1704.66 3.78467 -3.48234 0
M  V30 18164 N 1702.64 4.12119 -4.55007 0
M  V30 18165 C 1704.01 4.01771 -4.72208 0
M  V30 18166 C 1706.06 3.61301 -3.42587 0
M  V30 18167 C 1704.77 4.09689 -5.91225 0
M  V30 18168 C 1706.79 3.70477 -4.60978 0
M  V30 18169 C 1706.16 3.94226 -5.83751 0
M  V30 18170 H 1702.25 0.723035 -0.297899 0
M  V30 18171 H 1704.84 1.47676 -1.26885 0
M  V30 18172 H 1703.01 3.85843 -0.444975 0
M  V30 18173 H 1704.74 3.99413 -0.652024 0
M  V30 18174 H 1701.5 3.91195 -2.66953 0
M  V30 18175 H 1701.92 4.25155 -5.26852 0
M  V30 18176 H 1706.56 3.41928 -2.48687 0
M  V30 18177 H 1704.28 4.27866 -6.85533 0
M  V30 18178 H 1707.87 3.58537 -4.58195 0
M  V30 18179 H 1706.75 4.01151 -6.7383 0
M  V30 18180 N 1704.25 0.762308 1.37937 0
M  V30 18181 C 1705.5 0.322369 1.99918 0
M  V30 18182 C 1705.82 -1.09843 1.60514 0
M  V30 18183 O 1705.08 -1.76837 0.83829 0
M  V30 18184 C 1705.38 0.402558 3.55126 0
M  V30 18185 C 1705.04 1.78025 4.14268 0
M  V30 18186 C 1703.71 2.15727 4.30134 0
M  V30 18187 C 1706.06 2.68359 4.46803 0
M  V30 18188 C 1703.39 3.43217 4.75835 0
M  V30 18189 C 1705.74 3.95248 4.93925 0
M  V30 18190 C 1704.4 4.33007 5.07997 0
M  V30 18191 H 1703.67 0.117963 0.73155 0
M  V30 18192 H 1706.32 0.974491 1.64851 0
M  V30 18193 H 1704.62 -0.333119 3.90381 0
M  V30 18194 H 1706.32 0.0436064 4.00976 0
M  V30 18195 H 1702.91 1.4772 4.02339 0
M  V30 18196 H 1707.1 2.40493 4.34139 0
M  V30 18197 H 1702.35 3.72379 4.84916 0
M  V30 18198 H 1706.53 4.6538 5.18068 0
M  V30 18199 H 1704.15 5.31856 5.4317 0
M  V30 18200 N 1705.73 -1.49049 0.51208 0
M  V30 18201 C 1706.64 -2.33102 -0.264695 0
M  V30 18202 C 1707.65 -1.45347 -0.956571 0
M  V30 18203 O 1708.83 -1.78355 -0.935501 0
M  V30 18204 C 1705.89 -3.21051 -1.30871 0
M  V30 18205 C 1704.96 -4.24666 -0.629094 0
M  V30 18206 C 1704.19 -5.08412 -1.62337 0
M  V30 18207 O 1704.41 -4.93847 -2.85432 0
M  V30 18208 O 1703.35 -5.90368 -1.17259 0
M  V30 18209 H 1707.17 -3.00732 0.423585 0
M  V30 18210 H 1704.76 -1.4688 0.273246 0
M  V30 18211 H 1706.64 -3.75503 -1.91248 0
M  V30 18212 H 1705.31 -2.56103 -1.97972 0
M  V30 18213 H 1704.22 -3.74097 0.0147056 0
M  V30 18214 H 1705.55 -4.922 -0.000339859 0
M  V30 18215 N 1707.21 -0.246397 -1.55662 0
M  V30 18216 C 1708.43 0.385607 -2.03784 0
M  V30 18217 C 1708.86 1.50786 -1.12451 0
M  V30 18218 O 1708.21 1.8092 -0.117371 0
M  V30 18219 C 1708.26 0.871204 -3.49918 0
M  V30 18220 O 1707.37 1.98082 -3.61715 0
M  V30 18221 H 1706.71 0.0841099 -0.658651 0
M  V30 18222 H 1709.24 -0.372306 -2.01184 0
M  V30 18223 H 1709.25 1.17455 -3.90728 0
M  V30 18224 H 1707.92 0.0499597 -4.1587 0
M  V30 18225 H 1706.5 1.6822 -3.32801 0
M  V30 18226 N 1708.68 1.57577 0.026722 0
M  V30 18227 C 1709.93 1.89379 0.717062 0
M  V30 18228 C 1710.26 0.843976 1.75235 0
M  V30 18229 O 1709.51 -0.154755 1.95087 0
M  V30 18230 C 1709.81 3.27927 1.42121 0
M  V30 18231 C 1709.48 4.47872 0.521676 0
M  V30 18232 C 1708.14 4.8042 0.273926 0
M  V30 18233 C 1710.49 5.21105 -0.0992493 0
M  V30 18234 C 1707.82 5.83588 -0.603488 0
M  V30 18235 C 1710.17 6.25206 -0.964379 0
M  V30 18236 C 1708.84 6.56227 -1.22157 0
M  V30 18237 H 1708.11 0.692988 0.262391 0
M  V30 18238 H 1710.75 1.91486 -0.0230629 0
M  V30 18239 H 1709.06 3.2182 2.23471 0
M  V30 18240 H 1710.76 3.49783 1.96094 0
M  V30 18241 H 1707.35 4.22425 0.724931 0
M  V30 18242 H 1711.53 4.96237 0.0791882 0
M  V30 18243 H 1706.79 6.05997 -0.811031 0
M  V30 18244 H 1710.96 6.81094 -1.45201 0
M  V30 18245 H 1708.59 7.35991 -1.90317 0
M  V30 18246 N 1710.16 -0.299034 1.54737 0
M  V30 18247 C 1711.41 -1.03164 1.7332 0
M  V30 18248 C 1711.72 -1.88362 0.527184 0
M  V30 18249 O 1712.93 -2.64903 0.594868 0
M  V30 18250 C 1711.39 -1.88391 3.06654 0
M  V30 18251 C 1710.99 -1.08187 4.34741 0
M  V30 18252 C 1712.74 -2.6124 3.34595 0
M  V30 18253 C 1710.64 -1.92702 5.59124 0
M  V30 18254 H 1709.57 -0.388887 0.645975 0
M  V30 18255 H 1712.23 -0.288544 1.81217 0
M  V30 18256 H 1710.61 -2.66696 2.92727 0
M  V30 18257 H 1711.78 -0.344817 4.59508 0
M  V30 18258 H 1710.1 -0.469118 4.13749 0
M  V30 18259 H 1712.69 -3.24826 4.24726 0
M  V30 18260 H 1713.04 -3.30172 2.53559 0
M  V30 18261 H 1713.57 -1.89982 3.49502 0
M  V30 18262 H 1710.31 -1.28236 6.42834 0
M  V30 18263 H 1709.83 -2.64074 5.38539 0
M  V30 18264 H 1711.51 -2.50702 5.96454 0
M  V30 18265 N 1711.64 -1.47227 -0.562322 0
M  V30 18266 C 1712.89 -1.52851 -1.31604 0
M  V30 18267 C 1713.2 -0.193236 -1.94643 0
M  V30 18268 O 1714.41 -0.127429 -2.71201 0
M  V30 18269 C 1712.86 -2.69422 -2.3862 0
M  V30 18270 C 1712.47 -4.09457 -1.81794 0
M  V30 18271 C 1714.22 -2.84334 -3.15205 0
M  V30 18272 C 1712.12 -5.17337 -2.8656 0
M  V30 18273 H 1711.05 -0.568923 -0.494816 0
M  V30 18274 H 1713.7 -1.73489 -0.597819 0
M  V30 18275 H 1712.09 -2.42153 -3.13333 0
M  V30 18276 H 1713.26 -4.46606 -1.13487 0
M  V30 18277 H 1711.57 -3.99387 -1.17811 0
M  V30 18278 H 1714.17 -3.621 -3.93431 0
M  V30 18279 H 1714.51 -1.9259 -3.69073 0
M  V30 18280 H 1715.05 -3.11348 -2.47603 0
M  V30 18281 H 1711.79 -6.1094 -2.37554 0
M  V30 18282 H 1711.31 -4.8471 -3.53293 0
M  V30 18283 H 1712.99 -5.44065 -3.50146 0
M  V30 18284 N 1713.12 0.808639 -1.35273 0
M  V30 18285 C 1714.36 1.56562 -1.28431 0
M  V30 18286 C 1714.69 1.93982 0.141842 0
M  V30 18287 O 1713.95 1.61409 1.10661 0
M  V30 18288 C 1714.25 2.86667 -2.1344 0
M  V30 18289 C 1713.91 2.68475 -3.6226 0
M  V30 18290 C 1712.57 2.63221 -4.02825 0
M  V30 18291 C 1714.93 2.51151 -4.56698 0
M  V30 18292 C 1712.25 2.38583 -5.35999 0
M  V30 18293 C 1714.61 2.28043 -5.90067 0
M  V30 18294 C 1713.27 2.2121 -6.2978 0
M  V30 18295 H 1712.54 0.572902 -0.469963 0
M  V30 18296 H 1715.19 0.934504 -1.6715 0
M  V30 18297 H 1713.49 3.54146 -1.67595 0
M  V30 18298 H 1715.19 3.44351 -2.05483 0
M  V30 18299 H 1711.78 2.7341 -3.30068 0
M  V30 18300 H 1715.96 2.54223 -4.26244 0
M  V30 18301 H 1711.22 2.31761 -5.65771 0
M  V30 18302 H 1715.39 2.13628 -6.62824 0
M  V30 18303 H 1713.02 2.01881 -7.32904 0
M  V30 18304 N 1714.6 1.19237 1.03055 0
M  V30 18305 C 1715.53 0.871947 2.10885 0
M  V30 18306 C 1716.51 -0.170311 1.61706 0
M  V30 18307 O 1717.69 -0.0469972 1.88441 0
M  V30 18308 C 1714.82 0.304639 3.37327 0
M  V30 18309 C 1713.86 1.32569 4.05374 0
M  V30 18310 S 1714.7 2.88551 4.51108 0
M  V30 18311 C 1715.85 2.33359 5.8077 0
M  V30 18312 H 1716.09 1.78514 2.37739 0
M  V30 18313 H 1713.62 1.01933 1.1597 0
M  V30 18314 H 1715.58 -0.0161522 4.10497 0
M  V30 18315 H 1714.24 -0.586834 3.08569 0
M  V30 18316 H 1713.43 0.877829 4.96296 0
M  V30 18317 H 1713.03 1.59323 3.38367 0
M  V30 18318 H 1715.33 1.7225 6.55238 0
M  V30 18319 H 1716.27 3.22622 6.30334 0
M  V30 18320 H 1716.68 1.75999 5.36362 0
M  V30 18321 N 1716.07 -1.22136 0.99602 0
M  V30 18322 C 1717.32 -1.9028 0.66907 0
M  V30 18323 C 1717.64 -1.7837 -0.802717 0
M  V30 18324 O 1718.84 -2.41458 -1.24138 0
M  V30 18325 C 1717.3 -3.4116 1.1462 0
M  V30 18326 C 1716.91 -3.617 2.64343 0
M  V30 18327 C 1718.65 -4.14985 0.893718 0
M  V30 18328 C 1716.56 -5.06297 3.05642 0
M  V30 18329 H 1715.49 -0.71255 0.246554 0
M  V30 18330 H 1718.14 -1.38304 1.20599 0
M  V30 18331 H 1716.52 -3.92337 0.537378 0
M  V30 18332 H 1717.69 -3.21002 3.30597 0
M  V30 18333 H 1716.01 -3.01212 2.87507 0
M  V30 18334 H 1718.61 -5.21564 1.17794 0
M  V30 18335 H 1718.95 -4.15952 -0.17013 0
M  V30 18336 H 1719.48 -3.69846 1.46488 0
M  V30 18337 H 1716.22 -5.10472 4.11216 0
M  V30 18338 H 1715.74 -5.47885 2.44094 0
M  V30 18339 H 1717.42 -5.74743 2.97118 0
M  V30 18340 N 1717.55 -0.769612 -1.37531 0
M  V30 18341 C 1718.48 -0.168389 -2.32892 0
M  V30 18342 C 1719.46 0.685549 -1.55673 0
M  V30 18343 O 1720.65 0.62345 -1.8392 0
M  V30 18344 C 1717.78 0.713183 -3.39898 0
M  V30 18345 C 1716.73 -0.0392808 -4.27982 0
M  V30 18346 C 1716.06 0.961596 -5.25982 0
M  V30 18347 C 1717.36 -1.21704 -5.07923 0
M  V30 18348 H 1719.05 -0.965022 -2.83421 0
M  V30 18349 H 1716.6 -0.465502 -1.36268 0
M  V30 18350 H 1718.55 1.14358 -4.05586 0
M  V30 18351 H 1717.28 1.54231 -2.87889 0
M  V30 18352 H 1715.93 -0.450429 -3.63822 0
M  V30 18353 H 1715.58 1.78522 -4.70254 0
M  V30 18354 H 1715.28 0.462679 -5.85776 0
M  V30 18355 H 1716.81 1.39097 -5.94545 0
M  V30 18356 H 1718.22 -0.863405 -5.66761 0
M  V30 18357 H 1716.62 -1.6479 -5.77031 0
M  V30 18358 H 1717.69 -2.02219 -4.40722 0
M  V30 18359 N 1719.03 1.48775 -0.519977 0
M  V30 18360 C 1719.96 2.32292 0.237213 0
M  V30 18361 C 1720.94 1.4146 0.944625 0
M  V30 18362 O 1722.13 1.70355 0.932349 0
M  V30 18363 C 1719.26 3.22426 1.29068 0
M  V30 18364 C 1718.21 4.22204 0.702011 0
M  V30 18365 C 1717.54 5.01403 1.85739 0
M  V30 18366 C 1718.84 5.21321 -0.319626 0
M  V30 18367 H 1720.53 2.95846 -0.459949 0
M  V30 18368 H 1718.08 1.42268 -0.222641 0
M  V30 18369 H 1720.03 3.79674 1.82826 0
M  V30 18370 H 1718.75 2.56853 2.01728 0
M  V30 18371 H 1717.41 3.66128 0.186027 0
M  V30 18372 H 1717.06 4.32262 2.57214 0
M  V30 18373 H 1716.76 5.68929 1.46949 0
M  V30 18374 H 1718.28 5.615 2.39895 0
M  V30 18375 H 1719.7 5.73151 0.130505 0
M  V30 18376 H 1718.1 5.96843 -0.624377 0
M  V30 18377 H 1719.17 4.69069 -1.22893 0
M  V30 18378 N 1720.51 0.254649 1.55529 0
M  V30 18379 C 1721.73 -0.374795 2.03985 0
M  V30 18380 C 1722.16 -1.50188 1.13249 0
M  V30 18381 O 1721.52 -1.80855 0.126963 0
M  V30 18382 C 1721.56 -0.852635 3.50375 0
M  V30 18383 O 1720.67 -1.9616 3.6276 0
M  V30 18384 H 1720.01 -0.0806157 0.659088 0
M  V30 18385 H 1722.54 0.38297 2.00984 0
M  V30 18386 H 1722.55 -1.15381 3.91345 0
M  V30 18387 H 1721.22 -0.0279044 4.15891 0
M  V30 18388 H 1719.8 -1.66453 3.33688 0
M  V30 18389 N 1721.99 -1.57589 -0.0183649 0
M  V30 18390 C 1723.21 -1.94421 -0.722172 0
M  V30 18391 C 1723.64 -0.855471 -1.67521 0
M  V30 18392 O 1722.99 0.187954 -1.80323 0
M  V30 18393 C 1723.04 -3.30331 -1.44615 0
M  V30 18394 O 1722.15 -3.23337 -2.55982 0
M  V30 18395 H 1721.49 -0.63519 -0.193466 0
M  V30 18396 H 1724.02 -2.04579 0.0293527 0
M  V30 18397 H 1724.03 -3.65471 -1.8137 0
M  V30 18398 H 1722.7 -4.09132 -0.747256 0
M  V30 18399 H 1721.28 -2.99845 -2.21692 0
M  V30 18400 N 1723.46 0.290824 -1.54893 0
M  V30 18401 C 1724.71 1.02272 -1.74312 0
M  V30 18402 C 1725.03 1.87449 -0.537393 0
M  V30 18403 O 1724.3 1.90705 0.448135 0
M  V30 18404 H 1722.88 0.380592 -0.642774 0
M  V30 18405 H 1725.55 0.319353 -1.92266 0
M  V30 18406 H 1724.64 1.66997 -2.63663 0
M  V30 18407 N 1724.94 1.47523 0.554506 0
M  V30 18408 C 1726.17 1.58154 1.34172 0
M  V30 18409 C 1726.59 0.233124 1.8665 0
M  V30 18410 O 1725.95 -0.791439 1.63113 0
M  V30 18411 C 1726 2.61242 2.48566 0
M  V30 18412 O 1725.1 2.167 3.50877 0
M  V30 18413 H 1724.44 0.531184 0.398421 0
M  V30 18414 H 1726.97 1.93324 0.669841 0
M  V30 18415 H 1726.98 2.81746 2.95098 0
M  V30 18416 H 1725.66 3.59148 2.09727 0
M  V30 18417 H 1724.24 2.06305 3.10632 0
M  V30 18418 N 1726.42 -0.801453 1.357 0
M  V30 18419 C 1727.35 -1.92807 1.31711 0
M  V30 18420 C 1728.33 -1.69028 0.190642 0
M  V30 18421 O 1729.52 -1.90317 0.38641 0
M  V30 18422 C 1726.65 -3.29635 1.09352 0
M  V30 18423 C 1725.6 -3.67908 2.18695 0
M  V30 18424 C 1724.93 -5.02955 1.81494 0
M  V30 18425 C 1726.23 -3.77749 3.60698 0
M  V30 18426 H 1727.92 -1.96401 2.2598 0
M  V30 18427 H 1725.47 -0.943528 1.08782 0
M  V30 18428 H 1727.42 -4.08058 1.052 0
M  V30 18429 H 1726.14 -3.26396 0.115306 0
M  V30 18430 H 1724.8 -2.91775 2.21952 0
M  V30 18431 H 1724.45 -4.96225 0.822776 0
M  V30 18432 H 1724.15 -5.29533 2.54692 0
M  V30 18433 H 1725.67 -5.83811 1.78876 0
M  V30 18434 H 1727.09 -4.4639 3.59734 0
M  V30 18435 H 1725.49 -4.15801 4.327 0
M  V30 18436 H 1726.56 -2.79167 3.96477 0
M  V30 18437 N 1727.9 -1.19782 -1.02421 0
M  V30 18438 C 1728.86 -0.941631 -2.08964 0
M  V30 18439 C 1729.86 0.0797747 -1.60602 0
M  V30 18440 O 1731.05 -0.155473 -1.73505 0
M  V30 18441 C 1728.18 -0.416114 -3.38351 0
M  V30 18442 H 1729.38 -1.88661 -2.33125 0
M  V30 18443 H 1726.93 -1.01212 -1.19104 0
M  V30 18444 H 1727.66 0.53469 -3.19862 0
M  V30 18445 H 1727.45 -1.15262 -3.74776 0
M  V30 18446 H 1728.94 -0.256114 -4.16814 0
M  V30 18447 N 1729.38 1.21606 -1.00248 0
M  V30 18448 C 1730.62 1.90607 -0.683752 0
M  V30 18449 C 1730.95 1.77945 0.785228 0
M  V30 18450 O 1730.21 1.14856 1.58451 0
M  V30 18451 C 1730.51 3.41708 -1.04739 0
M  V30 18452 C 1730.17 3.74565 -2.51022 0
M  V30 18453 C 1728.83 3.83243 -2.90995 0
M  V30 18454 C 1731.19 3.89971 -3.45792 0
M  V30 18455 C 1728.51 4.04773 -4.24707 0
M  V30 18456 C 1730.87 4.13008 -4.79174 0
M  V30 18457 C 1729.53 4.19912 -5.18874 0
M  V30 18458 H 1728.8 0.697481 -0.250203 0
M  V30 18459 H 1731.45 1.4417 -1.26045 0
M  V30 18460 H 1729.75 3.89865 -0.388905 0
M  V30 18461 H 1731.45 3.93367 -0.778675 0
M  V30 18462 H 1728.04 3.68399 -2.19043 0
M  V30 18463 H 1732.22 3.82635 -3.16076 0
M  V30 18464 H 1727.48 4.08349 -4.5504 0
M  V30 18465 H 1731.65 4.23871 -5.52545 0
M  V30 18466 H 1729.28 4.36348 -6.22499 0
M  V30 18467 N 1730.86 0.776895 1.37121 0
M  V30 18468 C 1731.77 0.167552 2.34001 0
M  V30 18469 C 1732.78 -0.673609 1.60432 0
M  V30 18470 O 1733.96 -0.592327 1.92493 0
M  V30 18471 C 1731.02 -0.697343 3.39615 0
M  V30 18472 C 1730.08 0.160869 4.28998 0
M  V30 18473 C 1729.32 -0.662841 5.29568 0
M  V30 18474 O 1729.54 -1.89962 5.37839 0
M  V30 18475 O 1728.47 -0.0693304 6.0186 0
M  V30 18476 H 1732.3 0.968247 2.87852 0
M  V30 18477 H 1729.88 0.538137 1.39372 0
M  V30 18478 H 1731.77 -1.19094 4.04221 0
M  V30 18479 H 1730.44 -1.47614 2.88083 0
M  V30 18480 H 1729.35 0.700941 3.67475 0
M  V30 18481 H 1730.68 0.902875 4.83848 0
M  V30 18482 N 1732.33 -1.48497 0.527859 0
M  V30 18483 C 1733.61 -1.9547 -0.0713049 0
M  V30 18484 C 1733.99 -1.47005 -1.51502 0
M  V30 18485 O 1733.34 -0.695609 -2.17655 0
M  V30 18486 C 1733.55 -3.48973 0.0437547 0
M  V30 18487 C 1734.9 -4.2444 -0.116591 0
M  V30 18488 O 1735.92 -3.56187 -0.0301431 0
M  V30 18489 O 1734.78 -5.4569 -0.297491 0
M  V30 18490 H 1731.87 -0.823075 -0.080474 0
M  V30 18491 H 1734.42 -1.59028 0.592307 0
M  V30 18492 H 1733.19 -3.76963 1.04952 0
M  V30 18493 H 1732.81 -3.92104 -0.658803 0
M  V30 18494 N 1733.81 -0.262893 -1.55392 0
M  V30 18495 C 1735.04 0.360534 -2.0343 0
M  V30 18496 C 1735.45 1.50917 -1.14108 0
M  V30 18497 O 1734.79 1.83077 -0.15118 0
M  V30 18498 C 1734.85 0.91519 -3.47656 0
M  V30 18499 C 1734.52 -0.103245 -4.56883 0
M  V30 18500 C 1735.52 -0.918464 -5.11723 0
M  V30 18501 C 1733.2 -0.233956 -5.01755 0
M  V30 18502 C 1735.19 -1.8507 -6.09941 0
M  V30 18503 C 1732.88 -1.16968 -5.99801 0
M  V30 18504 C 1733.88 -1.97656 -6.53774 0
M  V30 18505 O 1733.57 -2.89648 -7.49906 0
M  V30 18506 H 1733.3 0.0879049 -0.67026 0
M  V30 18507 H 1735.85 -0.389114 -2.01681 0
M  V30 18508 H 1734.08 1.71469 -3.46605 0
M  V30 18509 H 1735.77 1.4504 -3.79102 0
M  V30 18510 H 1736.54 -0.828152 -4.77877 0
M  V30 18511 H 1732.42 0.384057 -4.59397 0
M  V30 18512 H 1735.96 -2.48091 -6.51994 0
M  V30 18513 H 1731.86 -1.26085 -6.33066 0
M  V30 18514 H 1732.63 -2.84191 -7.67579 0
M  V30 18515 N 1735.29 1.57597 0.0100073 0
M  V30 18516 C 1736.52 1.9412 0.707165 0
M  V30 18517 C 1736.93 0.862669 1.68388 0
M  V30 18518 O 1736.27 -0.167949 1.82931 0
M  V30 18519 C 1736.33 3.26571 1.50306 0
M  V30 18520 C 1736 4.51776 0.689031 0
M  V30 18521 C 1736.99 5.19897 -0.018977 0
M  V30 18522 C 1734.68 4.98232 0.637951 0
M  V30 18523 C 1736.67 6.32766 -0.76716 0
M  V30 18524 C 1734.36 6.10994 -0.113964 0
M  V30 18525 C 1735.36 6.78117 -0.815262 0
M  V30 18526 O 1735.05 7.88719 -1.55493 0
M  V30 18527 H 1734.78 0.644932 0.202579 0
M  V30 18528 H 1737.33 2.05372 -0.0341978 0
M  V30 18529 H 1735.56 3.11699 2.28868 0
M  V30 18530 H 1737.25 3.4828 2.08461 0
M  V30 18531 H 1738.02 4.84999 0.0113968 0
M  V30 18532 H 1733.9 4.45818 1.17333 0
M  V30 18533 H 1737.44 6.85092 -1.31508 0
M  V30 18534 H 1733.34 6.45334 -0.146194 0
M  V30 18535 H 1734.1 8.05181 -1.47059 0
M  V30 18536 N 1736.77 -0.282606 1.55045 0
M  V30 18537 C 1737.7 -1.35347 1.90272 0
M  V30 18538 C 1738.68 -1.52001 0.763532 0
M  V30 18539 O 1739.86 -1.65204 1.02085 0
M  V30 18540 C 1736.99 -2.71464 2.16621 0
M  V30 18541 C 1735.95 -2.69554 3.32453 0
M  V30 18542 C 1735.27 -4.09132 3.4426 0
M  V30 18543 C 1736.57 -2.29669 4.69094 0
M  V30 18544 H 1738.27 -1.06113 2.79965 0
M  V30 18545 H 1735.81 -0.509018 1.34703 0
M  V30 18546 H 1737.77 -3.46482 2.39851 0
M  V30 18547 H 1736.49 -3.02261 1.23717 0
M  V30 18548 H 1735.15 -1.96993 3.09175 0
M  V30 18549 H 1734.8 -4.37136 2.4884 0
M  V30 18550 H 1734.5 -4.08751 4.22133 0
M  V30 18551 H 1736.02 -4.85903 3.69771 0
M  V30 18552 H 1737.44 -2.94407 4.91932 0
M  V30 18553 H 1735.83 -2.40467 5.49814 0
M  V30 18554 H 1736.9 -1.24796 4.68566 0
M  V30 18555 N 1738.25 -1.47815 -0.546675 0
M  V30 18556 C 1739.52 -1.45464 -1.30765 0
M  V30 18557 C 1739.9 -0.157249 -2.10514 0
M  V30 18558 O 1739.25 0.861203 -2.1165 0
M  V30 18559 C 1739.46 -2.70661 -2.20326 0
M  V30 18560 C 1740.81 -3.18309 -2.81007 0
M  V30 18561 O 1741.83 -2.71462 -2.30623 0
M  V30 18562 O 1740.69 -3.9978 -3.7261 0
M  V30 18563 H 1737.79 -0.580175 -0.589343 0
M  V30 18564 H 1740.33 -1.60029 -0.564707 0
M  V30 18565 H 1739.1 -3.56612 -1.61069 0
M  V30 18566 H 1738.73 -2.58734 -3.01898 0
M  V30 18567 N 1739.72 0.794246 -1.36123 0
M  V30 18568 C 1740.66 1.91514 -1.25917 0
M  V30 18569 C 1741.67 1.61805 -0.179715 0
M  V30 18570 O 1742.86 1.73143 -0.434029 0
M  V30 18571 C 1739.96 3.26201 -0.919018 0
M  V30 18572 C 1739.13 3.83725 -2.09937 0
M  V30 18573 C 1738.19 4.96842 -1.73304 0
M  V30 18574 O 1737.22 5.13615 -2.45333 0
M  V30 18575 N 1738.42 5.76691 -0.663887 0
M  V30 18576 H 1741.18 2.00793 -2.22491 0
M  V30 18577 H 1738.74 0.97228 -1.29454 0
M  V30 18578 H 1740.74 3.99361 -0.655208 0
M  V30 18579 H 1739.31 3.12571 -0.0425606 0
M  V30 18580 H 1738.53 3.02611 -2.52626 0
M  V30 18581 H 1739.81 4.18889 -2.88806 0
M  V30 18582 H 1739.21 5.65662 -0.0657071 0
M  V30 18583 H 1737.77 6.50176 -0.459889 0
M  V30 18584 N 1741.2 1.20323 1.01785 0
M  V30 18585 C 1742.15 0.950946 2.10299 0
M  V30 18586 C 1743.12 -0.118376 1.65678 0
M  V30 18587 O 1744.3 0.0260849 1.90782 0
M  V30 18588 C 1741.44 0.507765 3.41344 0
M  V30 18589 C 1740.56 1.6451 3.9945 0
M  V30 18590 C 1739.69 1.15235 5.1855 0
M  V30 18591 C 1738.73 2.26285 5.68737 0
M  V30 18592 N 1737.87 1.78237 6.79099 0
M  V30 18593 H 1742.71 1.87999 2.31215 0
M  V30 18594 H 1740.24 0.937108 1.13387 0
M  V30 18595 H 1742.2 0.232143 4.16554 0
M  V30 18596 H 1740.83 -0.384278 3.20505 0
M  V30 18597 H 1739.88 2.03567 3.21348 0
M  V30 18598 H 1741.2 2.48135 4.32702 0
M  V30 18599 H 1740.35 0.832619 6.0096 0
M  V30 18600 H 1739.09 0.285978 4.86861 0
M  V30 18601 H 1738.09 2.59076 4.84933 0
M  V30 18602 H 1739.32 3.13397 6.02461 0
M  V30 18603 H 1737.27 0.939248 6.49241 0
M  V30 18604 H 1737.18 2.55443 7.11537 0
M  V30 18605 H 1738.45 1.4926 7.65076 0
M  V30 18606 N 1742.68 -1.21073 1.00892 0
M  V30 18607 C 1744.09 -1.71982 0.726576 0
M  V30 18608 C 1744.44 -1.81071 -0.755486 0
M  V30 18609 O 1743.57 -1.46797 -1.58996 0
M  V30 18610 C 1744.16 -3.12354 1.31226 0
M  V30 18611 C 1742.72 -3.60605 1.07895 0
M  V30 18612 C 1741.87 -2.38024 1.42267 0
M  V30 18613 H 1744.82 -1.06195 1.17934 0
M  V30 18614 H 1744.84 -3.74026 0.6989 0
M  V30 18615 H 1744.35 -3.05707 2.39092 0
M  V30 18616 H 1742.45 -3.72596 0.0176168 0
M  V30 18617 H 1742.57 -4.45854 1.7536 0
M  V30 18618 H 1740.93 -2.40396 0.841531 0
M  V30 18619 H 1741.71 -2.34024 2.51173 0
M  V30 18620 N 1744.16 -0.784156 -1.36707 0
M  V30 18621 C 1745.39 -0.365901 -2.03639 0
M  V30 18622 C 1745.8 1.01599 -1.59132 0
M  V30 18623 O 1745.16 1.65072 -0.778298 0
M  V30 18624 C 1745.21 -0.414035 -3.59121 0
M  V30 18625 O 1744.93 -1.74142 -4.02003 0
M  V30 18626 C 1746.43 0.0142546 -4.43298 0
M  V30 18627 H 1743.65 -0.151525 -0.653667 0
M  V30 18628 H 1746.2 -1.06154 -1.7479 0
M  V30 18629 H 1744.35 0.233134 -3.86698 0
M  V30 18630 H 1744.76 -1.68861 -4.96575 0
M  V30 18631 H 1746.24 -0.0705681 -5.51955 0
M  V30 18632 H 1746.72 1.06623 -4.26061 0
M  V30 18633 H 1747.32 -0.605201 -4.20972 0
M  V30 18634 N 1745.64 1.48215 -0.535727 0
M  V30 18635 C 1746.88 2.028 -0.00373305 0
M  V30 18636 C 1747.22 1.41143 1.33388 0
M  V30 18637 O 1746.49 0.559227 1.86287 0
M  V30 18638 C 1746.77 3.59925 0.112186 0
M  V30 18639 C 1746.63 4.32053 -1.251 0
M  V30 18640 C 1747.95 4.32083 0.836177 0
M  V30 18641 H 1745.06 0.736995 -0.00283063 0
M  V30 18642 H 1747.71 1.76877 -0.693868 0
M  V30 18643 H 1745.86 3.82142 0.69996 0
M  V30 18644 H 1747.53 4.21238 -1.88033 0
M  V30 18645 H 1745.77 3.93246 -1.83139 0
M  V30 18646 H 1746.44 5.4046 -1.12283 0
M  V30 18647 H 1748.92 4.1473 0.337333 0
M  V30 18648 H 1747.79 5.41699 0.886196 0
M  V30 18649 H 1748.06 3.99772 1.88771 0
M  V30 18650 N 1747.11 0.27113 1.5525 0
M  V30 18651 C 1748.06 -0.618069 2.2237 0
M  V30 18652 C 1749.03 -1.15282 1.19579 0
M  V30 18653 O 1750.22 -1.20285 1.48108 0
M  V30 18654 C 1747.36 -1.79821 2.94548 0
M  V30 18655 C 1746.47 -1.29769 4.12049 0
M  V30 18656 C 1745.6 -2.43931 4.7188 0
M  V30 18657 C 1744.64 -1.90862 5.81582 0
M  V30 18658 N 1743.78 -2.98482 6.35494 0
M  V30 18659 H 1748.62 -0.0390456 2.97974 0
M  V30 18660 H 1746.16 -0.00750636 1.47098 0
M  V30 18661 H 1748.12 -2.49184 3.34609 0
M  V30 18662 H 1746.75 -2.34933 2.21374 0
M  V30 18663 H 1745.8 -0.497288 3.77136 0
M  V30 18664 H 1747.11 -0.868957 4.91173 0
M  V30 18665 H 1746.26 -3.21295 5.1464 0
M  V30 18666 H 1745 -2.90118 3.92024 0
M  V30 18667 H 1744.01 -1.11977 5.38276 0
M  V30 18668 H 1745.23 -1.45616 6.63304 0
M  V30 18669 H 1743.18 -3.44058 5.58534 0
M  V30 18670 H 1743.1 -2.60014 7.09879 0
M  V30 18671 H 1744.36 -3.75833 6.82913 0
M  V30 18672 N 1748.59 -1.576 -0.00164943 0
M  V30 18673 C 1749.56 -2.07267 -0.978423 0
M  V30 18674 C 1750.56 -0.981758 -1.27351 0
M  V30 18675 O 1751.75 -1.24446 -1.21896 0
M  V30 18676 C 1748.88 -2.51273 -2.30379 0
M  V30 18677 H 1750.07 -2.94835 -0.548845 0
M  V30 18678 H 1747.62 -1.54302 -0.249086 0
M  V30 18679 H 1748.36 -1.66943 -2.7803 0
M  V30 18680 H 1748.14 -3.30943 -2.10283 0
M  V30 18681 H 1749.63 -2.90031 -3.00453 0
M  V30 18682 N 1750.07 0.274379 -1.55193 0
M  V30 18683 C 1751 1.34336 -1.90987 0
M  V30 18684 C 1751.98 1.51594 -0.771582 0
M  V30 18685 O 1753.17 1.6466 -1.0296 0
M  V30 18686 C 1750.3 2.70312 -2.18057 0
M  V30 18687 C 1749.25 2.67787 -3.33878 0
M  V30 18688 C 1748.58 4.07301 -3.46425 0
M  V30 18689 C 1749.88 2.27178 -4.70306 0
M  V30 18690 H 1751.57 1.04627 -2.80524 0
M  V30 18691 H 1749.12 0.501867 -1.34971 0
M  V30 18692 H 1751.07 3.45205 -2.41685 0
M  V30 18693 H 1749.79 3.01601 -1.25318 0
M  V30 18694 H 1748.45 1.95351 -3.10216 0
M  V30 18695 H 1748.1 4.3581 -2.51155 0
M  V30 18696 H 1747.8 4.06507 -4.24295 0
M  V30 18697 H 1749.32 4.83935 -3.72343 0
M  V30 18698 H 1750.74 2.91794 -4.93487 0
M  V30 18699 H 1749.14 2.37548 -5.51082 0
M  V30 18700 H 1750.21 1.22309 -4.69221 0
M  V30 18701 N 1751.55 1.48103 0.538828 0
M  V30 18702 C 1752.48 1.64856 1.65363 0
M  V30 18703 C 1753.46 0.497579 1.6266 0
M  V30 18704 O 1754.64 0.729088 1.79994 0
M  V30 18705 C 1751.77 1.67984 3.03971 0
M  V30 18706 C 1750.73 2.82494 3.21529 0
M  V30 18707 C 1750.05 2.70706 4.6111 0
M  V30 18708 C 1751.35 4.23892 3.05145 0
M  V30 18709 H 1753.05 2.58183 1.51598 0
M  V30 18710 H 1750.59 1.24249 0.727886 0
M  V30 18711 H 1752.55 1.78294 3.81824 0
M  V30 18712 H 1751.27 0.712299 3.18738 0
M  V30 18713 H 1749.93 2.71725 2.46091 0
M  V30 18714 H 1749.58 1.7194 4.727 0
M  V30 18715 H 1749.28 3.47539 4.73804 0
M  V30 18716 H 1750.8 2.82971 5.41073 0
M  V30 18717 H 1752.22 4.3554 3.72797 0
M  V30 18718 H 1750.61 5.01654 3.29338 0
M  V30 18719 H 1751.68 4.40973 2.01671 0
M  V30 18720 N 1753.03 -0.787016 1.36542 0
M  V30 18721 C 1753.94 -1.93103 1.33223 0
M  V30 18722 C 1754.95 -1.72419 0.234047 0
M  V30 18723 O 1756.13 -1.95915 0.466828 0
M  V30 18724 C 1753.19 -3.28002 1.12319 0
M  V30 18725 C 1752.25 -3.61447 2.31635 0
M  V30 18726 C 1751.49 -4.89909 2.11719 0
M  V30 18727 O 1751.71 -5.59818 1.0936 0
M  V30 18728 O 1750.64 -5.22065 2.99552 0
M  V30 18729 H 1754.47 -1.98853 2.29545 0
M  V30 18730 H 1752.06 -0.92761 1.17114 0
M  V30 18731 H 1753.94 -4.08722 1.02589 0
M  V30 18732 H 1752.61 -3.23138 0.19061 0
M  V30 18733 H 1751.52 -2.81024 2.46934 0
M  V30 18734 H 1752.85 -3.71037 3.23407 0
M  V30 18735 N 1754.5 -1.20861 -1.01145 0
M  V30 18736 C 1755.73 -1.04617 -1.78154 0
M  V30 18737 C 1756.14 0.407396 -1.84762 0
M  V30 18738 O 1755.49 1.29457 -1.30333 0
M  V30 18739 C 1755.55 -1.56038 -3.23871 0
M  V30 18740 C 1755.21 -3.0441 -3.40857 0
M  V30 18741 C 1756.21 -4.02021 -3.29659 0
M  V30 18742 C 1753.89 -3.43479 -3.66507 0
M  V30 18743 C 1755.89 -5.36689 -3.43866 0
M  V30 18744 C 1753.57 -4.78301 -3.80356 0
M  V30 18745 C 1754.57 -5.74715 -3.69041 0
M  V30 18746 O 1754.26 -7.07093 -3.82459 0
M  V30 18747 H 1753.99 -0.368185 -0.566935 0
M  V30 18748 H 1756.55 -1.60508 -1.28165 0
M  V30 18749 H 1754.78 -0.945373 -3.74966 0
M  V30 18750 H 1756.47 -1.35735 -3.82532 0
M  V30 18751 H 1757.23 -3.73182 -3.09775 0
M  V30 18752 H 1753.11 -2.68972 -3.74399 0
M  V30 18753 H 1756.65 -6.11927 -3.3495 0
M  V30 18754 H 1752.55 -5.06829 -3.99743 0
M  V30 18755 H 1753.32 -7.14413 -3.99445 0
M  V30 18756 N 1755.98 1.20536 -1.01532 0
M  V30 18757 C 1757.21 1.93853 -0.723104 0
M  V30 18758 C 1757.63 1.74697 0.715994 0
M  V30 18759 O 1756.98 1.06013 1.48551 0
M  V30 18760 C 1757.03 3.45986 -1.04767 0
M  V30 18761 O 1756.75 3.64514 -2.43025 0
M  V30 18762 C 1758.26 4.36449 -0.776323 0
M  V30 18763 H 1755.48 0.616179 -0.265639 0
M  V30 18764 H 1758.02 1.53064 -1.35616 0
M  V30 18765 H 1756.17 3.84659 -0.460039 0
M  V30 18766 H 1756.59 4.58513 -2.54689 0
M  V30 18767 H 1758.06 5.41853 -1.05351 0
M  V30 18768 H 1758.54 4.38245 0.289524 0
M  V30 18769 H 1759.15 4.03437 -1.34605 0
M  V30 18770 N 1757.46 0.791395 1.36289 0
M  V30 18771 C 1758.74 0.288602 1.93459 0
M  V30 18772 C 1759.12 -1.21953 1.7231 0
M  V30 18773 O 1758.47 -2.01194 1.0832 0
M  V30 18774 C 1758.68 0.683392 3.42244 0
M  V30 18775 C 1760.02 0.664255 4.19372 0
M  V30 18776 O 1761.05 0.623988 3.50692 0
M  V30 18777 O 1759.91 0.708926 5.41882 0
M  V30 18778 H 1757 0.0719305 0.823866 0
M  V30 18779 H 1759.55 0.874071 1.45458 0
M  V30 18780 H 1758.32 1.72344 3.51302 0
M  V30 18781 H 1757.94 0.0719128 3.97535 0
M  V30 18782 N 1758.94 -1.47929 0.54358 0
M  V30 18783 C 1760.36 -1.58312 0.202376 0
M  V30 18784 C 1760.56 -1.54394 -1.29479 0
M  V30 18785 O 1759.61 -1.44015 -2.07403 0
M  V30 18786 C 1760.92 -2.89389 0.816958 0
M  V30 18787 C 1762.47 -3.02946 0.786935 0
M  V30 18788 C 1762.95 -4.36704 1.38034 0
M  V30 18789 N 1764.44 -4.43306 1.34291 0
M  V30 18790 C 1765.17 -5.45339 1.77182 0
M  V30 18791 N 1764.67 -6.54255 2.27866 0
M  V30 18792 N 1766.46 -5.36302 1.68336 0
M  V30 18793 H 1758.61 -1.48719 1.51646 0
M  V30 18794 H 1760.88 -0.706966 0.631587 0
M  V30 18795 H 1760.58 -2.97953 1.86861 0
M  V30 18796 H 1760.46 -3.75989 0.30198 0
M  V30 18797 H 1762.84 -2.93988 -0.25599 0
M  V30 18798 H 1762.92 -2.17923 1.33953 0
M  V30 18799 H 1762.57 -4.46418 2.42226 0
M  V30 18800 H 1762.5 -5.20437 0.803308 0
M  V30 18801 H 1764.99 -3.65185 0.972033 0
M  V30 18802 H 1765.3 -7.28265 2.58552 0
M  V30 18803 H 1763.65 -6.55181 2.31868 0
M  V30 18804 H 1766.84 -4.50109 1.28527 0
M  V30 18805 H 1767.01 -6.15684 2.02082 0
M  V30 18806 N 1760.42 -0.27936 -1.55104 0
M  V30 18807 C 1761.66 0.336703 -1.99985 0
M  V30 18808 C 1762 1.55186 -1.16752 0
M  V30 18809 O 1761.27 1.93031 -0.238626 0
M  V30 18810 C 1761.55 0.714701 -3.52936 0
M  V30 18811 C 1761.41 -0.508088 -4.46921 0
M  V30 18812 C 1762.73 1.54953 -4.11919 0
M  V30 18813 H 1759.85 0.120908 -0.727015 0
M  V30 18814 H 1762.49 -0.38715 -1.86014 0
M  V30 18815 H 1760.64 1.33143 -3.64973 0
M  V30 18816 H 1762.31 -1.14664 -4.46822 0
M  V30 18817 H 1760.55 -1.14537 -4.18406 0
M  V30 18818 H 1761.22 -0.199782 -5.51638 0
M  V30 18819 H 1763.7 1.02864 -4.03185 0
M  V30 18820 H 1762.58 1.78282 -5.1914 0
M  V30 18821 H 1762.84 2.53192 -3.62417 0
M  V30 18822 N 1761.9 1.57599 -0.0067085 0
M  V30 18823 C 1763.14 1.90858 0.67673 0
M  V30 18824 C 1763.47 0.880956 1.73405 0
M  V30 18825 O 1762.73 -0.113339 1.95372 0
M  V30 18826 C 1763.02 3.30868 1.35133 0
M  V30 18827 C 1762.69 4.48878 0.426559 0
M  V30 18828 C 1761.35 4.80893 0.17196 0
M  V30 18829 C 1763.7 5.20778 -0.209761 0
M  V30 18830 C 1761.03 5.82177 -0.727139 0
M  V30 18831 C 1763.38 6.2302 -1.09678 0
M  V30 18832 C 1762.05 6.53488 -1.36049 0
M  V30 18833 H 1761.32 0.698397 0.247633 0
M  V30 18834 H 1763.97 1.91394 -0.0636748 0
M  V30 18835 H 1762.27 3.26487 2.16594 0
M  V30 18836 H 1763.97 3.53864 1.8863 0
M  V30 18837 H 1760.56 4.23867 0.635166 0
M  V30 18838 H 1764.74 4.96293 -0.0260888 0
M  V30 18839 H 1760 6.0414 -0.939389 0
M  V30 18840 H 1764.17 6.77861 -1.59616 0
M  V30 18841 H 1761.8 7.31789 -2.05886 0
M  V30 18842 N 1763.37 -0.266145 1.55336 0
M  V30 18843 C 1764.6 -1.01489 1.80299 0
M  V30 18844 C 1765.02 -1.79679 0.579742 0
M  V30 18845 O 1764.37 -1.76831 -0.451319 0
M  V30 18846 C 1764.42 -1.96805 3.03233 0
M  V30 18847 O 1764.15 -1.21782 4.20834 0
M  V30 18848 C 1765.65 -2.83436 3.40851 0
M  V30 18849 H 1762.87 -0.299504 0.600449 0
M  V30 18850 H 1765.41 -0.294854 2.02363 0
M  V30 18851 H 1763.57 -2.64262 2.83275 0
M  V30 18852 H 1763.98 -1.86086 4.9038 0
M  V30 18853 H 1765.45 -3.461 4.30022 0
M  V30 18854 H 1765.93 -3.53559 2.60562 0
M  V30 18855 H 1766.54 -2.2146 3.63092 0
M  V30 18856 N 1764.85 -1.48386 -0.530967 0
M  V30 18857 C 1766.1 -1.56354 -1.28685 0
M  V30 18858 C 1766.43 -0.237022 -1.9305 0
M  V30 18859 O 1765.68 0.772595 -1.79804 0
M  V30 18860 C 1765.98 -2.64979 -2.39835 0
M  V30 18861 C 1765.65 -4.07446 -1.93129 0
M  V30 18862 C 1764.31 -4.46222 -1.80108 0
M  V30 18863 C 1766.66 -4.96732 -1.5782 0
M  V30 18864 C 1763.99 -5.7209 -1.30113 0
M  V30 18865 C 1766.34 -6.23088 -1.09288 0
M  V30 18866 C 1765 -6.60722 -0.948835 0
M  V30 18867 H 1764.27 -0.572139 -0.470891 0
M  V30 18868 H 1766.92 -1.82099 -0.592626 0
M  V30 18869 H 1765.23 -2.3309 -3.14923 0
M  V30 18870 H 1766.92 -2.68359 -2.97967 0
M  V30 18871 H 1763.51 -3.76822 -2.04213 0
M  V30 18872 H 1767.7 -4.67452 -1.6674 0
M  V30 18873 H 1762.95 -5.99974 -1.17647 0
M  V30 18874 H 1767.13 -6.91669 -0.810376 0
M  V30 18875 H 1764.75 -7.5814 -0.559235 0
M  V30 18876 N 1766.33 0.779763 -1.36958 0
M  V30 18877 C 1767.58 1.53326 -1.31049 0
M  V30 18878 C 1767.89 1.95317 0.105139 0
M  V30 18879 O 1769.1 2.69983 0.286652 0
M  V30 18880 C 1767.55 2.76832 -2.29983 0
M  V30 18881 C 1767.16 2.41972 -3.77033 0
M  V30 18882 C 1768.91 3.54794 -2.3307 0
M  V30 18883 C 1766.81 3.61931 -4.67718 0
M  V30 18884 H 1765.74 0.57561 -0.48702 0
M  V30 18885 H 1768.39 0.854801 -1.62374 0
M  V30 18886 H 1766.78 3.46527 -1.91665 0
M  V30 18887 H 1767.95 1.80112 -4.24142 0
M  V30 18888 H 1766.26 1.77201 -3.76814 0
M  V30 18889 H 1768.86 4.4394 -2.98029 0
M  V30 18890 H 1769.2 3.94077 -1.34199 0
M  V30 18891 H 1769.74 2.92088 -2.70054 0
M  V30 18892 H 1766.48 3.27736 -5.67688 0
M  V30 18893 H 1766 4.22923 -4.25319 0
M  V30 18894 H 1767.68 4.28842 -4.84462 0
M  V30 18895 N 1767.81 1.21396 1.00503 0
M  V30 18896 C 1769.05 1.03117 1.74279 0
M  V30 18897 C 1769.38 -0.43531 1.89566 0
M  V30 18898 O 1768.64 -1.33929 1.42694 0
M  V30 18899 C 1768.94 1.67343 3.15802 0
M  V30 18900 C 1768.6 3.17198 3.20463 0
M  V30 18901 C 1767.26 3.5809 3.21442 0
M  V30 18902 C 1769.62 4.13172 3.17708 0
M  V30 18903 C 1766.94 4.93462 3.17352 0
M  V30 18904 C 1769.3 5.48505 3.15159 0
M  V30 18905 C 1767.96 5.88794 3.14448 0
M  V30 18906 H 1767.23 0.377332 0.637732 0
M  V30 18907 H 1769.88 1.50987 1.17792 0
M  V30 18908 H 1768.18 1.11765 3.75521 0
M  V30 18909 H 1769.88 1.50703 3.71604 0
M  V30 18910 H 1766.47 2.8463 3.20443 0
M  V30 18911 H 1770.65 3.82606 3.16112 0
M  V30 18912 H 1765.91 5.23925 3.15138 0
M  V30 18913 H 1770.08 6.22608 3.11982 0
M  V30 18914 H 1767.71 6.93659 3.11033 0
M  V30 18915 N 1769.29 -1.19996 1.0217 0
M  V30 18916 C 1770.53 -1.89776 0.715047 0
M  V30 18917 C 1770.86 -1.78971 -0.753862 0
M  V30 18918 O 1770.14 -1.17729 -1.54823 0
M  V30 18919 C 1770.42 -3.4098 1.15779 0
M  V30 18920 C 1770.28 -3.60693 2.68739 0
M  V30 18921 C 1771.59 -4.33953 0.733008 0
M  V30 18922 H 1768.71 -0.689148 0.261236 0
M  V30 18923 H 1771.36 -1.41287 1.27035 0
M  V30 18924 H 1769.51 -3.82407 0.68534 0
M  V30 18925 H 1771.18 -3.28484 3.23876 0
M  V30 18926 H 1769.42 -3.0399 3.09472 0
M  V30 18927 H 1770.09 -4.66704 2.94773 0
M  V30 18928 H 1772.57 -4.002 1.13925 0
M  V30 18929 H 1771.44 -5.38355 1.07077 0
M  V30 18930 H 1771.7 -4.4059 -0.365047 0
M  V30 18931 N 1770.76 -0.798611 -1.35867 0
M  V30 18932 C 1772.01 -0.37526 -1.98993 0
M  V30 18933 C 1772.34 1.05549 -1.6337 0
M  V30 18934 O 1771.59 1.74552 -0.88488 0
M  V30 18935 C 1771.89 -0.496572 -3.53934 0
M  V30 18936 C 1771.56 -1.88946 -4.09402 0
M  V30 18937 C 1770.22 -2.27056 -4.24263 0
M  V30 18938 C 1772.57 -2.8011 -4.39531 0
M  V30 18939 C 1769.9 -3.55712 -4.66568 0
M  V30 18940 C 1772.25 -4.08205 -4.83272 0
M  V30 18941 C 1770.92 -4.46323 -4.96338 0
M  V30 18942 H 1770.19 -0.137317 -0.728165 0
M  V30 18943 H 1772.83 -1.01786 -1.6221 0
M  V30 18944 H 1771.14 0.229499 -3.91127 0
M  V30 18945 H 1772.84 -0.149903 -4.0072 0
M  V30 18946 H 1769.43 -1.58336 -3.98281 0
M  V30 18947 H 1773.61 -2.51919 -4.2761 0
M  V30 18948 H 1768.87 -3.85105 -4.74873 0
M  V30 18949 H 1773.04 -4.78952 -5.05547 0
M  V30 18950 H 1770.67 -5.4607 -5.28877 0
M  V30 18951 N 1772.24 1.47639 -0.551417 0
M  V30 18952 C 1773.15 2.33722 0.202799 0
M  V30 18953 C 1774.17 1.47832 0.917699 0
M  V30 18954 O 1775.34 1.80772 0.887885 0
M  V30 18955 C 1772.41 3.24408 1.22313 0
M  V30 18956 C 1771.47 4.26184 0.51628 0
M  V30 18957 C 1770.7 5.12537 1.488 0
M  V30 18958 O 1770.93 5.01241 2.72238 0
M  V30 18959 O 1769.86 5.93269 1.01566 0
M  V30 18960 H 1773.69 2.99503 -0.50317 0
M  V30 18961 H 1771.27 1.46104 -0.312093 0
M  V30 18962 H 1773.15 3.80441 1.81225 0
M  V30 18963 H 1771.83 2.61262 1.91112 0
M  V30 18964 H 1770.73 3.73927 -0.113886 0
M  V30 18965 H 1772.07 4.92028 -0.130158 0
M  V30 18966 N 1773.72 0.287581 1.54954 0
M  V30 18967 C 1774.65 -0.636117 2.19155 0
M  V30 18968 C 1775.63 -1.14295 1.15652 0
M  V30 18969 O 1776.82 -1.21362 1.44234 0
M  V30 18970 C 1773.94 -1.86888 2.82472 0
M  V30 18971 C 1772.99 -1.49645 3.99385 0
M  V30 18972 S 1773.82 -0.563886 5.32523 0
M  V30 18973 C 1774.98 -1.80474 5.99316 0
M  V30 18974 H 1775.21 -0.0906517 2.97162 0
M  V30 18975 H 1772.74 0.0717757 1.54233 0
M  V30 18976 H 1774.7 -2.57639 3.19581 0
M  V30 18977 H 1773.36 -2.38549 2.04336 0
M  V30 18978 H 1772.56 -2.41408 4.42423 0
M  V30 18979 H 1772.16 -0.869001 3.63764 0
M  V30 18980 H 1774.45 -2.74708 6.19307 0
M  V30 18981 H 1775.39 -1.41716 6.93774 0
M  V30 18982 H 1775.8 -1.97535 5.2881 0
M  V30 18983 N 1775.2 -1.57593 0.0150662 0
M  V30 18984 C 1776.13 -2.12395 -0.970081 0
M  V30 18985 C 1777.11 -1.03666 -1.34861 0
M  V30 18986 O 1778.29 -1.31427 -1.4297 0
M  V30 18987 C 1775.42 -2.63958 -2.25707 0
M  V30 18988 C 1774.38 -3.77348 -2.01971 0
M  V30 18989 C 1773.7 -4.15284 -3.36814 0
M  V30 18990 C 1775 -5.04008 -1.37017 0
M  V30 18991 H 1776.7 -2.9496 -0.513731 0
M  V30 18992 H 1774.24 -1.41889 -0.245666 0
M  V30 18993 H 1776.2 -3.00927 -2.94993 0
M  V30 18994 H 1774.92 -1.78535 -2.73483 0
M  V30 18995 H 1773.58 -3.40795 -1.35107 0
M  V30 18996 H 1773.23 -3.26863 -3.82321 0
M  V30 18997 H 1772.93 -4.91686 -3.21744 0
M  V30 18998 H 1774.45 -4.54824 -4.07391 0
M  V30 18999 H 1775.87 -5.38652 -1.96282 0
M  V30 19000 H 1774.26 -5.85315 -1.32388 0
M  V30 19001 H 1775.33 -4.83698 -0.341281 0
M  V30 19002 N 1776.68 0.257904 -1.55475 0
M  V30 19003 C 1777.61 1.32303 -1.92401 0
M  V30 19004 C 1778.59 1.50767 -0.787617 0
M  V30 19005 O 1779.77 1.63559 -1.047 0
M  V30 19006 C 1776.9 2.67984 -2.20912 0
M  V30 19007 C 1775.86 2.64231 -3.36699 0
M  V30 19008 C 1775.18 4.03604 -3.50725 0
M  V30 19009 C 1776.48 2.22177 -4.72689 0
M  V30 19010 H 1778.18 1.01646 -2.81618 0
M  V30 19011 H 1775.72 0.487523 -1.35496 0
M  V30 19012 H 1777.68 3.42622 -2.45332 0
M  V30 19013 H 1776.4 3.00254 -1.2851 0
M  V30 19014 H 1775.06 1.92049 -3.1227 0
M  V30 19015 H 1774.71 4.33122 -2.55763 0
M  V30 19016 H 1774.41 4.01983 -4.28583 0
M  V30 19017 H 1775.93 4.79959 -3.77455 0
M  V30 19018 H 1777.34 2.86543 -4.96554 0
M  V30 19019 H 1775.74 2.3169 -5.5357 0
M  V30 19020 H 1776.81 1.17326 -4.70492 0
M  V30 19021 N 1778.15 1.48666 0.52309 0
M  V30 19022 C 1779.1 1.63701 1.62698 0
M  V30 19023 C 1780.07 0.478895 1.59047 0
M  V30 19024 O 1781.26 0.703229 1.77368 0
M  V30 19025 C 1778.4 1.68912 3.00936 0
M  V30 19026 C 1777.51 2.95878 3.1477 0
M  V30 19027 C 1776.64 2.92206 4.43609 0
M  V30 19028 C 1775.68 4.13846 4.50996 0
M  V30 19029 N 1774.82 4.08213 5.71233 0
M  V30 19030 H 1779.66 2.57967 1.49188 0
M  V30 19031 H 1777.2 1.27924 0.726217 0
M  V30 19032 H 1779.16 1.69915 3.81031 0
M  V30 19033 H 1777.79 0.781309 3.13202 0
M  V30 19034 H 1776.84 3.04588 2.27883 0
M  V30 19035 H 1778.15 3.85861 3.1609 0
M  V30 19036 H 1777.3 2.91649 5.32002 0
M  V30 19037 H 1776.04 1.99964 4.44821 0
M  V30 19038 H 1775.05 4.14671 3.61009 0
M  V30 19039 H 1776.27 5.07256 4.51517 0
M  V30 19040 H 1774.22 3.18794 5.73329 0
M  V30 19041 H 1774.14 4.91908 5.74075 0
M  V30 19042 H 1775.4 4.11725 6.61893 0
M  V30 19043 N 1779.63 -0.772489 1.37369 0
M  V30 19044 C 1780.88 -1.53249 1.3374 0
M  V30 19045 C 1781.23 -1.92242 -0.0778522 0
M  V30 19046 O 1780.53 -1.61156 -1.03631 0
M  V30 19047 C 1780.72 -2.80907 2.20966 0
M  V30 19048 C 1780.55 -2.54391 3.7083 0
M  V30 19049 C 1779.32 -2.48557 4.3994 0
M  V30 19050 C 1781.52 -2.22438 4.63709 0
M  V30 19051 N 1779.5 -2.14117 5.75349 0
M  V30 19052 C 1780.87 -1.98131 5.8749 0
M  V30 19053 C 1782.93 -2.08587 4.52101 0
M  V30 19054 C 1781.63 -1.61372 7.00965 0
M  V30 19055 C 1783.65 -1.73228 5.65461 0
M  V30 19056 C 1783.02 -1.4978 6.88292 0
M  V30 19057 H 1779.12 -0.56112 0.544673 0
M  V30 19058 H 1781.7 -0.901278 1.72583 0
M  V30 19059 H 1779.87 -3.41867 1.8434 0
M  V30 19060 H 1781.6 -3.46797 2.086 0
M  V30 19061 H 1778.36 -2.64386 3.92934 0
M  V30 19062 H 1778.78 -1.99596 6.46908 0
M  V30 19063 H 1783.42 -2.25398 3.57708 0
M  V30 19064 H 1781.14 -1.43299 7.95293 0
M  V30 19065 H 1784.73 -1.6317 5.5845 0
M  V30 19066 H 1783.61 -1.22824 7.74522 0
M  V30 19067 N 1781.11 -1.21927 -0.998575 0
M  V30 19068 C 1782.36 -1.04194 -1.73987 0
M  V30 19069 C 1782.69 0.4227 -1.89544 0
M  V30 19070 O 1781.96 1.31353 -1.43446 0
M  V30 19071 C 1782.25 -1.74717 -3.14874 0
M  V30 19072 C 1782.1 -3.28741 -3.07001 0
M  V30 19073 C 1783.42 -1.49495 -4.13931 0
M  V30 19074 H 1780.54 -0.379918 -0.631531 0
M  V30 19075 H 1783.18 -1.5019 -1.16374 0
M  V30 19076 H 1781.33 -1.35615 -3.64062 0
M  V30 19077 H 1783 -3.77252 -2.65478 0
M  V30 19078 H 1781.25 -3.58711 -2.43944 0
M  V30 19079 H 1781.92 -3.73258 -4.06672 0
M  V30 19080 H 1784.39 -1.83451 -3.73477 0
M  V30 19081 H 1783.27 -2.01344 -5.10639 0
M  V30 19082 H 1783.53 -0.426324 -4.4004 0
M  V30 19083 N 1782.59 1.19452 -1.02805 0
M  V30 19084 C 1783.55 2.20857 -0.612757 0
M  V30 19085 C 1784.55 1.57519 0.323182 0
M  V30 19086 O 1785.74 1.7385 0.110303 0
M  V30 19087 C 1782.87 3.40743 0.103488 0
M  V30 19088 H 1784.07 2.59113 -1.50998 0
M  V30 19089 H 1781.62 1.33116 -0.819142 0
M  V30 19090 H 1782.35 3.08004 1.0151 0
M  V30 19091 H 1782.14 3.87949 -0.56903 0
M  V30 19092 H 1783.63 4.15858 0.380998 0
M  V30 19093 N 1784.07 0.805805 1.35442 0
M  V30 19094 C 1785.3 0.397675 2.02737 0
M  V30 19095 C 1785.7 -0.99586 1.6087 0
M  V30 19096 O 1785.05 -1.65293 0.801496 0
M  V30 19097 C 1785.11 0.400706 3.5726 0
M  V30 19098 C 1784.77 1.74462 4.22388 0
M  V30 19099 C 1785.77 2.70278 4.44123 0
M  V30 19100 C 1783.46 2.02841 4.59522 0
M  V30 19101 C 1785.45 3.92658 5.02094 0
M  V30 19102 C 1783.14 3.25485 5.17207 0
M  V30 19103 C 1784.13 4.20211 5.38435 0
M  V30 19104 O 1783.82 5.4069 5.94903 0
M  V30 19105 H 1783.55 0.159829 0.656834 0
M  V30 19106 H 1786.11 1.09052 1.7406 0
M  V30 19107 H 1784.34 -0.348738 3.85124 0
M  V30 19108 H 1786.03 0.0149949 4.05897 0
M  V30 19109 H 1786.79 2.49645 4.15815 0
M  V30 19110 H 1782.67 1.29921 4.42314 0
M  V30 19111 H 1786.22 4.66607 5.18578 0
M  V30 19112 H 1782.11 3.45989 5.44942 0
M  V30 19113 H 1782.88 5.41976 6.13355 0
M  V30 19114 N 1785.54 -1.47344 0.559239 0
M  V30 19115 C 1786.79 -2.02068 0.035872 0
M  V30 19116 C 1787.11 -1.43573 -1.31953 0
M  V30 19117 O 1786.38 -0.611672 -1.86106 0
M  V30 19118 H 1784.96 -0.746929 0.0102713 0
M  V30 19119 H 1787.63 -1.80724 0.729707 0
M  V30 19120 H 1786.72 -3.12059 -0.0507123 0
M  V30 19121 N 1787.02 -0.295795 -1.54799 0
M  V30 19122 C 1788.27 0.315007 -2.00035 0
M  V30 19123 C 1788.6 1.54295 -1.1842 0
M  V30 19124 O 1787.85 1.94134 -0.247101 0
M  V30 19125 C 1788.15 0.721225 -3.50047 0
M  V30 19126 C 1787.82 -0.404395 -4.49083 0
M  V30 19127 C 1786.48 -0.713419 -4.75882 0
M  V30 19128 C 1788.83 -1.16185 -5.08085 0
M  V30 19129 C 1786.16 -1.78311 -5.58947 0
M  V30 19130 C 1788.51 -2.22142 -5.92314 0
M  V30 19131 C 1787.18 -2.53657 -6.17426 0
M  V30 19132 H 1786.45 0.115269 -0.73198 0
M  V30 19133 H 1789.09 -0.41381 -1.86976 0
M  V30 19134 H 1787.4 1.53005 -3.60689 0
M  V30 19135 H 1789.09 1.20491 -3.82469 0
M  V30 19136 H 1785.68 -0.153436 -4.28325 0
M  V30 19137 H 1789.87 -0.936365 -4.87387 0
M  V30 19138 H 1785.12 -2.03206 -5.76643 0
M  V30 19139 H 1789.3 -2.81296 -6.3706 0
M  V30 19140 H 1786.93 -3.36676 -6.81581 0
M  V30 19141 N 1788.5 1.57583 -0.0234236 0
M  V30 19142 C 1789.45 2.09872 0.960327 0
M  V30 19143 C 1790.42 0.999466 1.32665 0
M  V30 19144 O 1791.6 1.27332 1.42095 0
M  V30 19145 C 1788.74 2.62578 2.23935 0
M  V30 19146 C 1787.86 3.86491 1.92999 0
M  V30 19147 C 1786.99 4.27611 3.15154 0
M  V30 19148 C 1786.03 5.44298 2.80011 0
M  V30 19149 N 1785.17 5.80601 3.94775 0
M  V30 19150 H 1790.01 2.93647 0.507502 0
M  V30 19151 H 1787.54 1.45147 0.238911 0
M  V30 19152 H 1789.5 2.91223 2.98739 0
M  V30 19153 H 1788.13 1.81643 2.66844 0
M  V30 19154 H 1787.18 3.6461 1.08462 0
M  V30 19155 H 1788.5 4.71377 1.63112 0
M  V30 19156 H 1787.65 4.57663 3.98284 0
M  V30 19157 H 1786.39 3.41481 3.48198 0
M  V30 19158 H 1785.39 5.13946 1.95293 0
M  V30 19159 H 1786.62 6.32122 2.4819 0
M  V30 19160 H 1784.57 4.97427 4.27671 0
M  V30 19161 H 1784.48 6.60113 3.68492 0
M  V30 19162 H 1785.75 6.15255 4.78624 0
M  V30 19163 N 1789.98 -0.249655 1.5561 0
M  V30 19164 C 1790.93 -1.30906 1.90085 0
M  V30 19165 C 1791.9 -1.4796 0.754784 0
M  V30 19166 O 1793.08 -1.61988 1.00819 0
M  V30 19167 C 1790.22 -2.66 2.19859 0
M  V30 19168 C 1789.33 -2.56976 3.47257 0
M  V30 19169 C 1788.47 -3.84404 3.66615 0
M  V30 19170 C 1787.51 -3.69986 4.87623 0
M  V30 19171 N 1786.65 -4.89301 5.03517 0
M  V30 19172 H 1791.49 -1.00805 2.80432 0
M  V30 19173 H 1789.02 -0.486509 1.38822 0
M  V30 19174 H 1790.98 -3.44632 2.35126 0
M  V30 19175 H 1789.61 -2.94254 1.32719 0
M  V30 19176 H 1788.66 -1.69927 3.40337 0
M  V30 19177 H 1789.97 -2.42231 4.36034 0
M  V30 19178 H 1789.13 -4.7148 3.81826 0
M  V30 19179 H 1787.87 -4.02043 2.76066 0
M  V30 19180 H 1786.87 -2.81294 4.72391 0
M  V30 19181 H 1788.1 -3.53845 5.7963 0
M  V30 19182 H 1786.04 -5.07306 4.15905 0
M  V30 19183 H 1785.96 -4.77176 5.86378 0
M  V30 19184 H 1787.23 -5.77883 5.23137 0
M  V30 19185 N 1791.46 -1.48941 -0.515198 0
M  V30 19186 C 1792.69 -1.61162 -1.29269 0
M  V30 19187 C 1793.1 -0.276697 -1.87166 0
M  V30 19188 O 1792.44 0.746082 -1.67867 0
M  V30 19189 C 1792.5 -2.61067 -2.47152 0
M  V30 19190 C 1792.16 -4.05773 -2.10232 0
M  V30 19191 C 1793.16 -4.93011 -1.65035 0
M  V30 19192 C 1790.85 -4.51412 -2.20302 0
M  V30 19193 C 1792.84 -6.2392 -1.30393 0
M  V30 19194 C 1790.53 -5.82338 -1.85271 0
M  V30 19195 C 1791.53 -6.68416 -1.4039 0
M  V30 19196 O 1791.21 -7.96904 -1.05826 0
M  V30 19197 H 1790.95 -0.545818 -0.398821 0
M  V30 19198 H 1793.5 -1.95608 -0.626638 0
M  V30 19199 H 1791.73 -2.21773 -3.16787 0
M  V30 19200 H 1793.42 -2.62967 -3.09198 0
M  V30 19201 H 1794.18 -4.58984 -1.56713 0
M  V30 19202 H 1790.06 -3.8459 -2.54189 0
M  V30 19203 H 1793.61 -6.91061 -0.952892 0
M  V30 19204 H 1789.5 -6.15897 -1.93238 0
M  V30 19205 H 1790.27 -8.09789 -1.19096 0
M  V30 19206 N 1792.94 0.765193 -1.37777 0
M  V30 19207 C 1794.18 1.52397 -1.33347 0
M  V30 19208 C 1794.51 1.94335 0.0800559 0
M  V30 19209 O 1793.77 1.64847 1.05469 0
M  V30 19210 C 1794.06 2.79732 -2.22452 0
M  V30 19211 C 1793.73 2.56814 -3.70618 0
M  V30 19212 C 1792.39 2.50272 -4.10996 0
M  V30 19213 C 1794.74 2.36494 -4.64457 0
M  V30 19214 C 1792.07 2.2141 -5.43318 0
M  V30 19215 C 1794.42 2.09155 -5.97024 0
M  V30 19216 C 1793.09 2.01062 -6.36499 0
M  V30 19217 H 1792.36 0.55766 -0.487951 0
M  V30 19218 H 1795.01 0.880853 -1.70039 0
M  V30 19219 H 1793.31 3.48635 -1.78777 0
M  V30 19220 H 1795.01 3.37639 -2.16335 0
M  V30 19221 H 1791.6 2.62771 -3.38599 0
M  V30 19222 H 1795.78 2.40534 -4.34117 0
M  V30 19223 H 1791.04 2.13644 -5.72858 0
M  V30 19224 H 1795.21 1.92433 -6.69285 0
M  V30 19225 H 1792.84 1.78462 -7.38956 0
M  V30 19226 N 1794.41 1.22455 0.992094 0
M  V30 19227 C 1795.64 1.07594 1.76723 0
M  V30 19228 C 1796.06 -0.37345 1.8507 0
M  V30 19229 O 1795.41 -1.25876 1.32142 0
M  V30 19230 C 1795.46 1.68178 3.19998 0
M  V30 19231 O 1795.19 3.07447 3.12102 0
M  V30 19232 C 1796.69 1.58602 4.13957 0
M  V30 19233 H 1793.91 0.377148 0.554978 0
M  V30 19234 H 1796.45 1.62065 1.24721 0
M  V30 19235 H 1794.61 1.17768 3.69066 0
M  V30 19236 H 1795.02 3.36641 4.0221 0
M  V30 19237 H 1796.49 2.05714 5.12236 0
M  V30 19238 H 1796.97 0.542712 4.35834 0
M  V30 19239 H 1797.58 2.08321 3.70786 0
M  V30 19240 N 1795.89 -1.18905 1.03437 0
M  V30 19241 C 1796.84 -2.24362 0.613557 0
M  V30 19242 C 1797.83 -1.65605 -0.356541 0
M  V30 19243 O 1799.04 -1.78594 -0.22452 0
M  V30 19244 H 1795.41 -0.730098 0.18017 0
M  V30 19245 H 1797.39 -2.57168 1.51351 0
M  V30 19246 C 1796.13 -3.47697 -0.0141125 0
M  V30 19247 H 1795.46 -3.93201 0.723394 0
M  V30 19248 H 1796.9 -4.2313 -0.271424 0
M  V30 19249 C 1795.36 -3.12357 -1.26232 0
M  V30 19250 O 1795.89 -3.25515 -2.35378 0
M  V30 19251 N 1794.09 -2.6674 -1.15318 0
M  V30 19252 H 1793.64 -2.56233 -0.26501 0
M  V30 19253 H 1793.6 -2.43466 -1.98927 0
M  V30 19254 N 1797.37 -0.812977 -1.35013 0
M  V30 19255 C 1798.33 -0.233373 -2.28009 0
M  V30 19256 C 1799.33 0.58298 -1.4986 0
M  V30 19257 O 1800.52 0.400533 -1.69533 0
M  V30 19258 C 1797.65 0.673931 -3.34172 0
M  V30 19259 H 1798.85 -1.05366 -2.80781 0
M  V30 19260 H 1796.4 -0.584097 -1.44976 0
M  V30 19261 H 1797.14 1.51766 -2.86597 0
M  V30 19262 H 1796.92 0.0901848 -3.91996 0
M  V30 19263 H 1798.41 1.07358 -4.03564 0
M  V30 19264 N 1798.85 1.47045 -0.567045 0
M  V30 19265 C 1800.09 2.03326 -0.0550208 0
M  V30 19266 C 1800.45 1.4325 1.28441 0
M  V30 19267 O 1799.74 0.582394 1.82534 0
M  V30 19268 C 1799.94 3.57298 0.0855754 0
M  V30 19269 C 1799.76 4.32304 -1.23868 0
M  V30 19270 C 1798.53 4.71822 -1.80864 0
M  V30 19271 C 1800.73 4.66824 -2.15823 0
M  V30 19272 N 1798.71 5.31513 -3.07192 0
M  V30 19273 C 1800.09 5.26921 -3.26733 0
M  V30 19274 C 1802.14 4.48753 -2.15696 0
M  V30 19275 C 1800.84 5.70854 -4.37628 0
M  V30 19276 C 1802.87 4.93692 -3.25611 0
M  V30 19277 C 1802.23 5.53846 -4.3524 0
M  V30 19278 H 1798.33 0.779496 -0.0625352 0
M  V30 19279 H 1800.91 1.79402 -0.7565 0
M  V30 19280 H 1799.09 3.80968 0.756194 0
M  V30 19281 H 1800.82 4.00219 0.600559 0
M  V30 19282 H 1797.57 4.54087 -1.34543 0
M  V30 19283 H 1798 5.65894 -3.71609 0
M  V30 19284 H 1802.64 4.01595 -1.32217 0
M  V30 19285 H 1800.36 6.16998 -5.21861 0
M  V30 19286 H 1803.94 4.81473 -3.26612 0
M  V30 19287 H 1802.82 5.87984 -5.18887 0
M  V30 19288 N 1800.33 0.304 1.5464 0
M  V30 19289 C 1801.57 -0.305229 2.02108 0
M  V30 19290 C 1801.93 -1.50862 1.18763 0
M  V30 19291 O 1803.13 -2.18941 1.55943 0
M  V30 19292 C 1801.4 -0.65001 3.51439 0
M  V30 19293 S 1802.96 -1.24167 4.20866 0
M  V30 19294 H 1799.78 -0.0935021 0.704825 0
M  V30 19295 H 1802.38 0.432571 1.90654 0
M  V30 19296 H 1801.08 0.234253 4.09731 0
M  V30 19297 H 1800.62 -1.41852 3.66935 0
M  V30 19298 H 1802.63 -2.52936 4.26893 0
M  V30 19299 N 1801.8 -1.57568 0.0317802 0
M  V30 19300 C 1803.05 -1.93021 -0.641437 0
M  V30 19301 C 1803.4 -0.908815 -1.69583 0
M  V30 19302 O 1802.7 0.0747763 -1.91454 0
M  V30 19303 C 1802.89 -3.32976 -1.29852 0
M  V30 19304 C 1802.72 -4.48635 -0.3093 0
M  V30 19305 C 1801.49 -5.05217 0.0917902 0
M  V30 19306 C 1803.69 -5.12436 0.437482 0
M  V30 19307 N 1801.67 -6.04399 1.0759 0
M  V30 19308 C 1803.04 -6.06743 1.27526 0
M  V30 19309 C 1805.1 -4.95404 0.497895 0
M  V30 19310 C 1803.8 -6.8585 2.16801 0
M  V30 19311 C 1805.83 -5.75122 1.37799 0
M  V30 19312 C 1805.19 -6.69047 2.20354 0
M  V30 19313 H 1801.29 -0.754119 -0.206951 0
M  V30 19314 H 1803.87 -1.94445 0.0995777 0
M  V30 19315 H 1802.04 -3.32366 -2.00966 0
M  V30 19316 H 1803.77 -3.5577 -1.92898 0
M  V30 19317 H 1800.53 -4.72752 -0.283202 0
M  V30 19318 H 1800.95 -6.5868 1.56427 0
M  V30 19319 H 1805.59 -4.22612 -0.126117 0
M  V30 19320 H 1803.31 -7.57946 2.80256 0
M  V30 19321 H 1806.9 -5.63976 1.42906 0
M  V30 19322 H 1805.78 -7.29656 2.87352 0
M  V30 19323 N 1803.28 0.241399 -1.5574 0
M  V30 19324 C 1804.21 1.30255 -1.93793 0
M  V30 19325 C 1805.19 1.49923 -0.803563 0
M  V30 19326 O 1806.38 1.62439 -1.06429 0
M  V30 19327 C 1803.51 2.65625 -2.23742 0
M  V30 19328 C 1802.46 2.60645 -3.39483 0
M  V30 19329 C 1801.79 3.99861 -3.54986 0
M  V30 19330 C 1803.09 2.17151 -4.75019 0
M  V30 19331 H 1804.78 0.986532 -2.8268 0
M  V30 19332 H 1802.33 0.473125 -1.36006 0
M  V30 19333 H 1804.28 3.40001 -2.48953 0
M  V30 19334 H 1803.01 2.98874 -1.31688 0
M  V30 19335 H 1801.66 1.88727 -3.14289 0
M  V30 19336 H 1801.31 4.30385 -2.60342 0
M  V30 19337 H 1801.01 3.97415 -4.32822 0
M  V30 19338 H 1802.54 4.75928 -3.82524 0
M  V30 19339 H 1803.95 2.8126 -4.99565 0
M  V30 19340 H 1802.35 2.25805 -5.55996 0
M  V30 19341 H 1803.42 1.12329 -4.7171 0
M  V30 19342 N 1804.76 1.49212 0.507292 0
M  V30 19343 C 1806.04 1.4888 1.26863 0
M  V30 19344 C 1806.42 0.213007 2.10023 0
M  V30 19345 O 1805.77 -0.804785 2.13858 0
M  V30 19346 C 1805.98 2.76407 2.13073 0
M  V30 19347 C 1807.32 3.25647 2.72468 0
M  V30 19348 O 1808.35 2.77481 2.23344 0
M  V30 19349 O 1807.21 4.09518 3.6188 0
M  V30 19350 H 1804.3 0.595597 0.573754 0
M  V30 19351 H 1806.85 1.6147 0.52208 0
M  V30 19352 H 1805.62 3.60758 1.51558 0
M  V30 19353 H 1805.24 2.66648 2.94932 0
M  V30 19354 N 1806.24 -0.757876 1.38181 0
M  V30 19355 C 1807.49 -1.51688 1.34153 0
M  V30 19356 C 1807.81 -1.94375 -0.0697487 0
M  V30 19357 O 1807.07 -1.65404 -1.04594 0
M  V30 19358 C 1807.37 -2.78548 2.23933 0
M  V30 19359 C 1807.03 -2.54845 3.71975 0
M  V30 19360 C 1805.7 -2.48089 4.12317 0
M  V30 19361 C 1808.05 -2.34027 4.65704 0
M  V30 19362 C 1805.38 -2.18526 5.44485 0
M  V30 19363 C 1807.73 -2.05986 5.98124 0
M  V30 19364 C 1806.39 -1.97683 6.37556 0
M  V30 19365 H 1805.66 -0.555064 0.490902 0
M  V30 19366 H 1808.31 -0.871823 1.70504 0
M  V30 19367 H 1806.61 -3.47682 1.80623 0
M  V30 19368 H 1808.31 -3.36487 2.18122 0
M  V30 19369 H 1804.9 -2.60972 3.39988 0
M  V30 19370 H 1809.08 -2.38228 4.35386 0
M  V30 19371 H 1804.34 -2.10603 5.73983 0
M  V30 19372 H 1808.51 -1.8888 6.70296 0
M  V30 19373 H 1806.14 -1.7454 7.39892 0
M  V30 19374 N 1807.72 -1.22979 -0.985586 0
M  V30 19375 C 1808.65 -1.03073 -2.09519 0
M  V30 19376 C 1809.63 0.0507025 -1.70024 0
M  V30 19377 O 1810.81 -0.112938 -1.93871 0
M  V30 19378 C 1807.94 -0.615578 -3.41801 0
M  V30 19379 C 1806.9 -1.64377 -3.95176 0
M  V30 19380 C 1806.22 -1.08422 -5.23592 0
M  V30 19381 C 1807.52 -3.03555 -4.25032 0
M  V30 19382 H 1809.22 -1.95882 -2.2643 0
M  V30 19383 H 1806.76 -0.943206 -1.0881 0
M  V30 19384 H 1808.72 -0.463394 -4.18844 0
M  V30 19385 H 1807.44 0.348185 -3.24739 0
M  V30 19386 H 1806.1 -1.78386 -3.20272 0
M  V30 19387 H 1805.75 -0.111597 -5.02876 0
M  V30 19388 H 1805.45 -1.77118 -5.6027 0
M  V30 19389 H 1806.97 -0.94378 -6.03262 0
M  V30 19390 H 1808.38 -2.92878 -4.92844 0
M  V30 19391 H 1806.78 -3.69441 -4.72899 0
M  V30 19392 H 1807.85 -3.52937 -3.32511 0
M  V30 19393 N 1809.19 1.18355 -1.04066 0
M  V30 19394 C 1810.44 1.87665 -0.73923 0
M  V30 19395 C 1810.76 1.81226 0.735963 0
M  V30 19396 O 1811.96 2.45899 1.15091 0
M  V30 19397 C 1810.42 3.36671 -1.27203 0
M  V30 19398 C 1810.03 3.5164 -2.77585 0
M  V30 19399 C 1811.77 4.11383 -1.04712 0
M  V30 19400 C 1809.68 4.94605 -3.24222 0
M  V30 19401 H 1808.61 0.702908 -0.27283 0
M  V30 19402 H 1811.26 1.33733 -1.25649 0
M  V30 19403 H 1809.64 3.90072 -0.682621 0
M  V30 19404 H 1810.81 3.08511 -3.42283 0
M  V30 19405 H 1809.13 2.90334 -2.98488 0
M  V30 19406 H 1811.73 5.16832 -1.37071 0
M  V30 19407 H 1812.07 4.16297 0.0156344 0
M  V30 19408 H 1812.6 3.64154 -1.60114 0
M  V30 19409 H 1809.34 4.94859 -4.29878 0
M  V30 19410 H 1808.86 5.38449 -2.6426 0
M  V30 19411 H 1810.54 5.6332 -3.18245 0
M  V30 19412 N 1810.67 0.820125 1.3458 0
M  V30 19413 C 1811.92 0.407473 1.98664 0
M  V30 19414 C 1812.25 -1.02613 1.64877 0
M  V30 19415 O 1811.53 -1.71421 0.918964 0
M  V30 19416 C 1811.81 0.606744 3.54952 0
M  V30 19417 C 1811.66 2.08626 3.98491 0
M  V30 19418 C 1812.98 0.0409321 4.40081 0
M  V30 19419 H 1810.1 0.149524 0.721673 0
M  V30 19420 H 1812.74 1.03217 1.59519 0
M  V30 19421 H 1810.89 0.0749788 3.88428 0
M  V30 19422 H 1812.56 2.68144 3.75361 0
M  V30 19423 H 1810.81 2.57774 3.48905 0
M  V30 19424 H 1811.48 2.17651 5.07279 0
M  V30 19425 H 1813.95 0.495234 4.13142 0
M  V30 19426 H 1812.83 0.210182 5.48497 0
M  V30 19427 H 1813.09 -1.05389 4.29355 0
M  V30 19428 N 1812.15 -1.46743 0.574835 0
M  V30 19429 C 1813.1 -2.31935 -0.175778 0
M  V30 19430 C 1814.09 -1.44005 -0.892128 0
M  V30 19431 O 1815.3 -1.60674 -0.81141 0
M  V30 19432 H 1811.67 -0.748195 -0.0755558 0
M  V30 19433 H 1813.64 -2.93066 0.561671 0
M  V30 19434 C 1812.39 -3.27018 -1.18128 0
M  V30 19435 H 1811.72 -3.94652 -0.639492 0
M  V30 19436 H 1813.16 -3.89424 -1.67704 0
M  V30 19437 C 1811.62 -2.51802 -2.23824 0
M  V30 19438 O 1812.15 -2.2753 -3.31048 0
M  V30 19439 N 1810.35 -2.12501 -1.98221 0
M  V30 19440 H 1809.9 -2.32441 -1.11035 0
M  V30 19441 H 1809.86 -1.62494 -2.69153 0
M  V30 19442 N 1813.63 -0.312197 -1.54477 0
M  V30 19443 C 1814.88 0.294607 -1.99537 0
M  V30 19444 C 1815.19 1.54137 -1.20421 0
M  V30 19445 O 1816.4 2.22346 -1.55803 0
M  V30 19446 C 1814.85 0.57547 -3.55269 0
M  V30 19447 C 1814.46 -0.653591 -4.43207 0
M  V30 19448 C 1816.2 1.14285 -4.08827 0
M  V30 19449 C 1814.11 -0.345261 -5.90391 0
M  V30 19450 H 1813.04 0.113859 -0.745354 0
M  V30 19451 H 1815.69 -0.42265 -1.78566 0
M  V30 19452 H 1814.07 1.35262 -3.72183 0
M  V30 19453 H 1815.25 -1.42945 -4.38068 0
M  V30 19454 H 1813.56 -1.14039 -4.0048 0
M  V30 19455 H 1816.16 1.38797 -5.16371 0
M  V30 19456 H 1816.5 2.08866 -3.60112 0
M  V30 19457 H 1817.04 0.427154 -3.955 0
M  V30 19458 H 1813.78 -1.25994 -6.43277 0
M  V30 19459 H 1813.3 0.393106 -5.9851 0
M  V30 19460 H 1814.97 0.0490847 -6.46981 0
M  V30 19461 N 1815.11 1.57549 -0.040136 0
M  V30 19462 C 1816.33 1.96967 0.649517 0
M  V30 19463 C 1816.76 0.917056 1.64231 0
M  V30 19464 O 1816.11 -0.120899 1.80896 0
M  V30 19465 C 1816.16 3.35471 1.32256 0
M  V30 19466 O 1815.27 3.32615 2.43806 0
M  V30 19467 H 1814.61 0.641933 0.169758 0
M  V30 19468 H 1817.14 2.04329 -0.105261 0
M  V30 19469 H 1817.15 3.71951 1.6768 0
M  V30 19470 H 1815.82 4.11623 0.594895 0
M  V30 19471 H 1814.4 3.07867 2.10411 0
M  V30 19472 N 1816.58 -0.233136 1.55866 0
M  V30 19473 C 1817.51 -1.29225 1.94482 0
M  V30 19474 C 1818.5 -1.49495 0.811503 0
M  V30 19475 O 1819.68 -1.61872 1.07289 0
M  V30 19476 C 1816.81 -2.64435 2.25147 0
M  V30 19477 C 1815.76 -2.5884 3.4086 0
M  V30 19478 C 1815.09 -3.97973 3.57102 0
M  V30 19479 C 1816.39 -2.14629 4.76164 0
M  V30 19480 H 1818.08 -0.971527 2.83199 0
M  V30 19481 H 1815.63 -0.465905 1.36255 0
M  V30 19482 H 1817.58 -3.38676 2.50752 0
M  V30 19483 H 1816.31 -2.98172 1.33271 0
M  V30 19484 H 1814.97 -1.87057 3.15286 0
M  V30 19485 H 1814.61 -4.28998 2.62621 0
M  V30 19486 H 1814.31 -3.95114 4.34924 0
M  V30 19487 H 1815.84 -4.73893 3.85043 0
M  V30 19488 H 1817.25 -2.78607 5.0105 0
M  V30 19489 H 1815.65 -2.22853 5.57186 0
M  V30 19490 H 1816.72 -1.09826 4.72299 0
M  V30 19491 N 1818.06 -1.49479 -0.499372 0
M  V30 19492 C 1819.31 -1.58295 -1.25003 0
M  V30 19493 C 1819.63 -0.275616 -1.93648 0
M  V30 19494 O 1820.83 -0.24234 -2.70416 0
M  V30 19495 C 1819.29 -2.793 -2.26979 0
M  V30 19496 C 1818.9 -4.16799 -1.64264 0
M  V30 19497 C 1820.64 -2.97447 -3.02862 0
M  V30 19498 C 1818.55 -5.29025 -2.6436 0
M  V30 19499 H 1817.48 -0.589398 -0.470241 0
M  V30 19500 H 1820.13 -1.75868 -0.523698 0
M  V30 19501 H 1818.51 -2.55225 -3.02781 0
M  V30 19502 H 1819.68 -4.51018 -0.944432 0
M  V30 19503 H 1818 -4.04024 -1.00765 0
M  V30 19504 H 1820.6 -3.78461 -3.77719 0
M  V30 19505 H 1820.94 -2.08071 -3.60572 0
M  V30 19506 H 1821.47 -3.2157 -2.34175 0
M  V30 19507 H 1818.21 -6.20466 -2.11429 0
M  V30 19508 H 1817.73 -4.99258 -3.32417 0
M  V30 19509 H 1819.41 -5.58427 -3.26755 0
M  V30 19510 N 1819.54 0.750537 -1.38581 0
M  V30 19511 C 1820.77 1.54489 -1.38376 0
M  V30 19512 C 1821.19 1.88085 0.023634 0
M  V30 19513 O 1820.55 1.50794 1.00652 0
M  V30 19514 C 1820.6 2.81875 -2.24897 0
M  V30 19515 O 1819.7 3.77155 -1.66817 0
M  V30 19516 H 1819.04 0.467148 -0.471878 0
M  V30 19517 H 1821.57 0.927264 -1.82381 0
M  V30 19518 H 1821.58 3.30769 -2.38864 0
M  V30 19519 H 1820.26 2.56753 -3.27186 0
M  V30 19520 H 1818.83 3.35868 -1.62009 0
M  V30 19521 N 1821.02 1.235 0.979051 0
M  V30 19522 C 1821.95 1.04183 2.08969 0
M  V30 19523 C 1822.93 -0.041685 1.70049 0
M  V30 19524 O 1824.12 0.123217 1.93809 0
M  V30 19525 C 1821.25 0.633696 3.4147 0
M  V30 19526 C 1820.2 1.66471 3.94299 0
M  V30 19527 C 1819.53 1.11198 5.2301 0
M  V30 19528 C 1820.83 3.05804 4.23416 0
M  V30 19529 H 1822.52 1.9708 2.25388 0
M  V30 19530 H 1820.07 0.948963 1.08308 0
M  V30 19531 H 1822.02 0.485599 4.18593 0
M  V30 19532 H 1820.74 -0.330958 3.24919 0
M  V30 19533 H 1819.4 1.80082 3.19321 0
M  V30 19534 H 1819.05 0.138264 5.0281 0
M  V30 19535 H 1818.75 1.80087 5.59323 0
M  V30 19536 H 1820.27 0.975759 6.02753 0
M  V30 19537 H 1821.69 2.95487 4.91284 0
M  V30 19538 H 1820.08 3.71944 4.70933 0
M  V30 19539 H 1821.15 3.54695 3.30635 0
M  V30 19540 N 1822.5 -1.17802 1.04693 0
M  V30 19541 C 1823.73 -1.91867 0.774246 0
M  V30 19542 C 1824.14 -1.76534 -0.669425 0
M  V30 19543 O 1823.5 -1.09915 -1.45688 0
M  V30 19544 C 1823.55 -3.43086 1.13904 0
M  V30 19545 O 1823.27 -3.57943 2.52604 0
M  V30 19546 C 1824.77 -4.34238 0.891767 0
M  V30 19547 H 1821.99 -0.60892 0.281882 0
M  V30 19548 H 1824.53 -1.49414 1.39627 0
M  V30 19549 H 1822.69 -3.83304 0.561863 0
M  V30 19550 H 1823.1 -4.51599 2.66756 0
M  V30 19551 H 1824.58 -5.3887 1.1968 0
M  V30 19552 H 1825.05 -4.38858 -0.17323 0
M  V30 19553 H 1825.66 -3.99727 1.45254 0
M  V30 19554 N 1823.98 -0.827251 -1.34143 0
M  V30 19555 C 1824.94 -0.257543 -2.27748 0
M  V30 19556 C 1825.94 0.567053 -1.5047 0
M  V30 19557 O 1827.13 0.382529 -1.69948 0
M  V30 19558 C 1824.26 0.638449 -3.34868 0
M  V30 19559 H 1825.45 -1.08338 -2.79648 0
M  V30 19560 H 1823.01 -0.599441 -1.44348 0
M  V30 19561 H 1823.74 1.48717 -2.8819 0
M  V30 19562 H 1823.53 0.0486033 -3.9207 0
M  V30 19563 H 1825.02 1.03071 -4.0468 0
M  V30 19564 N 1825.45 1.46436 -0.582609 0
M  V30 19565 C 1826.4 2.30308 0.150697 0
M  V30 19566 C 1827.37 1.40611 0.884185 0
M  V30 19567 O 1828.56 1.6956 0.874874 0
M  V30 19568 C 1825.7 3.25074 1.15847 0
M  V30 19569 C 1824.81 4.2987 0.428442 0
M  V30 19570 C 1823.94 5.11765 1.42373 0
M  V30 19571 C 1822.98 6.0831 0.680103 0
M  V30 19572 N 1822.12 6.83073 1.62345 0
M  V30 19573 H 1826.96 2.92487 -0.570583 0
M  V30 19574 H 1824.5 1.44148 -0.293195 0
M  V30 19575 H 1826.45 3.78462 1.75563 0
M  V30 19576 H 1825.08 2.64704 1.84747 0
M  V30 19577 H 1824.14 3.7934 -0.283744 0
M  V30 19578 H 1825.45 4.98566 -0.15291 0
M  V30 19579 H 1824.6 5.69429 2.09369 0
M  V30 19580 H 1823.34 4.4303 2.03902 0
M  V30 19581 H 1822.35 5.498 -0.00363067 0
M  V30 19582 H 1823.57 6.79064 0.0702152 0
M  V30 19583 H 1821.52 6.17048 2.22684 0
M  V30 19584 H 1821.43 7.48029 1.0949 0
M  V30 19585 H 1822.7 7.45295 2.28376 0
M  V30 19586 N 1826.93 0.320385 1.54309 0
M  V30 19587 C 1828.18 -0.284021 1.9969 0
M  V30 19588 C 1828.49 -1.53496 1.21237 0
M  V30 19589 O 1829.7 -2.21517 1.5698 0
M  V30 19590 C 1828.16 -0.556621 3.5557 0
M  V30 19591 C 1827.76 0.677086 4.42854 0
M  V30 19592 C 1829.51 -1.12116 4.09427 0
M  V30 19593 C 1827.41 0.376566 5.902 0
M  V30 19594 H 1826.34 -0.109905 0.745947 0
M  V30 19595 H 1829 0.432113 1.7834 0
M  V30 19596 H 1827.38 -1.33286 3.72895 0
M  V30 19597 H 1828.55 1.45266 4.37304 0
M  V30 19598 H 1826.87 1.16161 3.99869 0
M  V30 19599 H 1829.46 -1.36057 5.171 0
M  V30 19600 H 1829.81 -2.06954 3.61215 0
M  V30 19601 H 1830.34 -0.406174 3.95721 0
M  V30 19602 H 1827.08 1.29403 6.426 0
M  V30 19603 H 1826.6 -0.36136 5.9871 0
M  V30 19604 H 1828.28 -0.014773 6.46998 0
M  V30 19605 N 1828.41 -1.57525 0.0484906 0
M  V30 19606 C 1829.34 -2.14405 -0.924811 0
M  V30 19607 C 1830.32 -1.06503 -1.32631 0
M  V30 19608 O 1831.51 -1.3443 -1.4015 0
M  V30 19609 C 1828.64 -2.68686 -2.20057 0
M  V30 19610 C 1827.59 -3.81547 -1.93922 0
M  V30 19611 C 1826.92 -4.22334 -3.27929 0
M  V30 19612 C 1828.22 -5.06801 -1.26295 0
M  V30 19613 H 1829.91 -2.95983 -0.45105 0
M  V30 19614 H 1827.46 -1.42378 -0.215514 0
M  V30 19615 H 1829.41 -3.07117 -2.88543 0
M  V30 19616 H 1828.13 -1.84296 -2.69634 0
M  V30 19617 H 1826.79 -3.43585 -1.27848 0
M  V30 19618 H 1826.44 -3.34899 -3.75302 0
M  V30 19619 H 1826.14 -4.984 -3.11242 0
M  V30 19620 H 1827.66 -4.63363 -3.97652 0
M  V30 19621 H 1829.08 -5.42695 -1.84812 0
M  V30 19622 H 1827.47 -5.87991 -1.19943 0
M  V30 19623 H 1828.54 -4.84313 -0.238605 0
M  V30 19624 N 1829.89 0.224867 -1.55988 0
M  V30 19625 C 1830.8 1.2997 -1.95307 0
M  V30 19626 C 1831.81 1.51463 -0.856444 0
M  V30 19627 O 1832.99 1.64658 -1.15973 0
M  V30 19628 C 1830.05 2.63009 -2.25892 0
M  V30 19629 C 1829.12 2.49847 -3.49106 0
M  V30 19630 C 1828.35 3.76541 -3.78223 0
M  V30 19631 O 1828.57 4.7941 -3.09066 0
M  V30 19632 O 1827.51 3.73852 -4.71718 0
M  V30 19633 H 1831.33 0.996093 -2.869 0
M  V30 19634 H 1828.92 0.427457 -1.43154 0
M  V30 19635 H 1830.8 3.41586 -2.46774 0
M  V30 19636 H 1829.47 2.93057 -1.37474 0
M  V30 19637 H 1828.38 1.69482 -3.33507 0
M  V30 19638 H 1829.71 2.24739 -4.37896 0
M  V30 19639 N 1831.37 1.49742 0.491438 0
M  V30 19640 C 1832.6 1.63198 1.26689 0
M  V30 19641 C 1833 0.306438 1.86702 0
M  V30 19642 O 1832.35 -0.719282 1.69033 0
M  V30 19643 C 1832.41 2.64966 2.42967 0
M  V30 19644 C 1832.07 4.09066 2.0375 0
M  V30 19645 C 1833.07 4.95574 1.57171 0
M  V30 19646 C 1830.75 4.54859 2.13092 0
M  V30 19647 C 1832.75 6.25916 1.2045 0
M  V30 19648 C 1830.44 5.85212 1.75983 0
M  V30 19649 C 1831.43 6.70565 1.29738 0
M  V30 19650 O 1831.12 7.98487 0.931347 0
M  V30 19651 H 1830.85 0.552094 0.390087 0
M  V30 19652 H 1833.41 1.9658 0.595439 0
M  V30 19653 H 1831.64 2.26784 3.13218 0
M  V30 19654 H 1833.33 2.67852 3.04975 0
M  V30 19655 H 1834.09 4.61419 1.49391 0
M  V30 19656 H 1829.97 3.88585 2.48038 0
M  V30 19657 H 1833.52 6.9249 0.84283 0
M  V30 19658 H 1829.41 6.18893 1.83415 0
M  V30 19659 H 1830.18 8.11581 1.06198 0
M  V30 19660 N 1832.84 -0.743177 1.38977 0
M  V30 19661 C 1834.07 -1.53753 1.39193 0
M  V30 19662 C 1834.49 -1.88095 -0.0136591 0
M  V30 19663 O 1833.85 -1.51326 -0.998508 0
M  V30 19664 C 1833.9 -2.80679 2.26389 0
M  V30 19665 O 1833 -3.76265 1.68815 0
M  V30 19666 H 1832.35 -0.464639 0.474349 0
M  V30 19667 H 1834.88 -0.917579 1.82871 0
M  V30 19668 H 1834.89 -3.29498 2.40614 0
M  V30 19669 H 1833.56 -2.55014 3.28543 0
M  V30 19670 H 1832.14 -3.35004 1.63788 0
M  V30 19671 N 1834.32 -1.24018 -0.972487 0
M  V30 19672 C 1835.23 -1.04527 -2.10027 0
M  V30 19673 C 1836.25 0.0125372 -1.73995 0
M  V30 19674 O 1837.42 -0.184615 -2.00552 0
M  V30 19675 C 1834.49 -0.647264 -3.40604 0
M  V30 19676 C 1833.55 -1.78102 -3.90613 0
M  V30 19677 C 1832.78 -1.4019 -5.14959 0
M  V30 19678 O 1833.01 -0.289608 -5.69664 0
M  V30 19679 O 1831.94 -2.22583 -5.59232 0
M  V30 19680 H 1835.77 -1.99064 -2.29363 0
M  V30 19681 H 1833.35 -1.02794 -1.08414 0
M  V30 19682 H 1835.23 -0.436606 -4.19132 0
M  V30 19683 H 1833.91 0.269025 -3.2258 0
M  V30 19684 H 1832.82 -2.04638 -3.13168 0
M  V30 19685 H 1834.15 -2.67591 -4.13105 0
M  V30 19686 N 1835.8 1.17245 -1.05316 0
M  V30 19687 C 1837.05 1.87813 -0.765112 0
M  V30 19688 C 1837.38 1.80907 0.706147 0
M  V30 19689 O 1836.65 1.21793 1.51647 0
M  V30 19690 C 1836.94 3.3779 -1.24779 0
M  V30 19691 C 1836.79 3.53441 -2.78208 0
M  V30 19692 C 1838.11 4.31857 -0.847805 0
M  V30 19693 H 1835.23 0.681979 -0.279415 0
M  V30 19694 H 1837.87 1.37869 -1.30737 0
M  V30 19695 H 1836.02 3.80456 -0.786487 0
M  V30 19696 H 1837.69 3.19782 -3.32472 0
M  V30 19697 H 1835.94 2.95678 -3.17423 0
M  V30 19698 H 1836.61 4.58725 -3.07043 0
M  V30 19699 H 1839.08 3.97039 -1.24496 0
M  V30 19700 H 1837.96 5.35326 -1.21313 0
M  V30 19701 H 1838.22 4.41403 0.248104 0
M  V30 19702 N 1837.28 0.834353 1.33702 0
M  V30 19703 C 1838.24 0.269618 2.27609 0
M  V30 19704 C 1839.24 -0.559065 1.50768 0
M  V30 19705 O 1840.43 -0.373511 1.70149 0
M  V30 19706 C 1837.56 -0.620682 3.35202 0
M  V30 19707 H 1838.76 1.09819 2.79069 0
M  V30 19708 H 1836.31 0.607087 1.44028 0
M  V30 19709 H 1837.04 -1.47187 2.88975 0
M  V30 19710 H 1836.83 -0.0278102 3.9209 0
M  V30 19711 H 1838.32 -1.00924 4.05221 0
M  V30 19712 N 1838.76 -1.46125 0.590367 0
M  V30 19713 C 1840.17 -1.85962 0.165876 0
M  V30 19714 C 1840.52 -1.49296 -1.27299 0
M  V30 19715 O 1839.64 -0.911461 -1.96269 0
M  V30 19716 C 1840.24 -3.3752 0.294262 0
M  V30 19717 C 1838.8 -3.76324 -0.0754118 0
M  V30 19718 C 1837.94 -2.70126 0.626682 0
M  V30 19719 H 1840.9 -1.3717 0.79812 0
M  V30 19720 H 1840.92 -3.77482 -0.4783 0
M  V30 19721 H 1840.43 -3.64175 1.34159 0
M  V30 19722 H 1838.53 -3.55287 -1.12258 0
M  V30 19723 H 1838.64 -4.7812 0.306241 0
M  V30 19724 H 1837.01 -2.54614 0.0661219 0
M  V30 19725 H 1837.79 -2.99619 1.6758 0
M  V30 19726 N 1840.23 -0.328564 -1.54137 0
M  V30 19727 C 1841.48 0.273427 -1.99838 0
M  V30 19728 C 1841.8 1.52851 -1.22049 0
M  V30 19729 O 1843 2.20681 -1.58152 0
M  V30 19730 C 1841.46 0.537757 -3.5586 0
M  V30 19731 C 1841.07 -0.700562 -4.42489 0
M  V30 19732 C 1842.81 1.09943 -4.10016 0
M  V30 19733 C 1840.72 -0.40786 -5.89992 0
M  V30 19734 H 1839.65 0.105947 -0.746519 0
M  V30 19735 H 1842.3 -0.441565 -1.78108 0
M  V30 19736 H 1840.68 1.31307 -3.73597 0
M  V30 19737 H 1841.85 -1.47583 -4.36527 0
M  V30 19738 H 1840.17 -1.1828 -3.99248 0
M  V30 19739 H 1842.77 1.33312 -5.17815 0
M  V30 19740 H 1843.11 2.05035 -3.62307 0
M  V30 19741 H 1843.64 0.385182 -3.95931 0
M  V30 19742 H 1840.38 -1.32809 -6.41905 0
M  V30 19743 H 1839.9 0.329604 -5.98894 0
M  V30 19744 H 1841.58 -0.0195391 -6.46997 0
M  V30 19745 N 1841.71 1.57497 -0.0568439 0
M  V30 19746 C 1842.66 2.11862 0.915593 0
M  V30 19747 C 1843.63 1.02738 1.30515 0
M  V30 19748 O 1844.81 1.30318 1.39362 0
M  V30 19749 C 1841.95 2.67269 2.18315 0
M  V30 19750 C 1841.07 3.90498 1.84757 0
M  V30 19751 C 1840.2 4.342 3.06013 0
M  V30 19752 C 1839.24 5.50115 2.68403 0
M  V30 19753 N 1838.38 5.88844 3.8237 0
M  V30 19754 H 1843.22 2.94657 0.445101 0
M  V30 19755 H 1840.76 1.45621 0.20807 0
M  V30 19756 H 1842.71 2.97494 2.92494 0
M  V30 19757 H 1841.34 1.87262 2.62931 0
M  V30 19758 H 1840.4 3.66828 1.00703 0
M  V30 19759 H 1841.71 4.7473 1.53077 0
M  V30 19760 H 1840.86 4.66008 3.88486 0
M  V30 19761 H 1839.6 3.4879 3.40876 0
M  V30 19762 H 1838.61 5.17973 1.84348 0
M  V30 19763 H 1839.83 6.37244 2.34726 0
M  V30 19764 H 1837.78 5.06387 4.17024 0
M  V30 19765 H 1837.69 6.67781 3.54407 0
M  V30 19766 H 1838.96 6.25269 4.65466 0
M  V30 19767 N 1843.19 -0.216591 1.56105 0
M  V30 19768 C 1844.15 -1.25198 1.91985 0
M  V30 19769 C 1845.15 -1.39551 0.798884 0
M  V30 19770 O 1846.34 -1.37731 1.06657 0
M  V30 19771 C 1843.48 -2.62499 2.17502 0
M  V30 19772 H 1844.67 -0.945854 2.84594 0
M  V30 19773 H 1842.22 -0.457218 1.49463 0
M  V30 19774 H 1842.96 -2.98202 1.27461 0
M  V30 19775 H 1842.74 -2.53457 2.99169 0
M  V30 19776 H 1844.23 -3.37204 2.4634 0
M  V30 19777 N 1844.67 -1.5 -0.48349 0
M  V30 19778 C 1845.6 -1.70879 -1.5913 0
M  V30 19779 C 1846.58 -0.557606 -1.60701 0
M  V30 19780 O 1847.76 -0.79539 -1.77164 0
M  V30 19781 C 1844.89 -1.7915 -2.97527 0
M  V30 19782 C 1843.85 -2.94233 -3.10823 0
M  V30 19783 C 1843.17 -2.87634 -4.50745 0
M  V30 19784 C 1844.47 -4.34925 -2.89202 0
M  V30 19785 H 1846.17 -2.63632 -1.41911 0
M  V30 19786 H 1843.71 -1.26865 -0.68127 0
M  V30 19787 H 1845.67 -1.92342 -3.74943 0
M  V30 19788 H 1844.39 -0.830106 -3.15875 0
M  V30 19789 H 1843.05 -2.80672 -2.35837 0
M  V30 19790 H 1842.7 -1.89365 -4.65993 0
M  V30 19791 H 1842.4 -3.64885 -4.60579 0
M  V30 19792 H 1843.92 -3.02857 -5.30198 0
M  V30 19793 H 1845.34 -4.49076 -3.56376 0
M  V30 19794 H 1843.73 -5.13531 -3.10492 0
M  V30 19795 H 1844.8 -4.48154 -1.85165 0
M  V30 19796 N 1846.15 0.735796 -1.39369 0
M  V30 19797 C 1847.56 1.04124 -1.20956 0
M  V30 19798 C 1847.76 2.01376 -0.0705944 0
M  V30 19799 O 1846.82 2.45795 0.577999 0
M  V30 19800 C 1848.13 1.60429 -2.54329 0
M  V30 19801 C 1849.68 1.72513 -2.61167 0
M  V30 19802 C 1850.15 2.32227 -3.94759 0
M  V30 19803 N 1851.65 2.39638 -3.96394 0
M  V30 19804 C 1852.38 2.86777 -4.96534 0
M  V30 19805 N 1851.88 3.3382 -6.07072 0
M  V30 19806 N 1853.67 2.85979 -4.83913 0
M  V30 19807 H 1845.82 0.0907834 -2.12206 0
M  V30 19808 H 1848.08 0.102896 -0.942399 0
M  V30 19809 H 1847.79 0.964351 -3.38221 0
M  V30 19810 H 1847.66 2.59247 -2.73991 0
M  V30 19811 H 1850.05 2.35629 -1.77659 0
M  V30 19812 H 1850.13 0.723507 -2.45355 0
M  V30 19813 H 1849.78 1.69739 -4.78697 0
M  V30 19814 H 1849.71 3.33066 -4.07891 0
M  V30 19815 H 1852.2 2.06388 -3.16563 0
M  V30 19816 H 1852.51 3.68297 -6.79395 0
M  V30 19817 H 1850.85 3.3183 -6.10666 0
M  V30 19818 H 1854.05 2.48551 -3.96661 0
M  V30 19819 H 1854.22 3.22403 -5.62104 0
M  V30 19820 N 1847.63 1.24532 0.965897 0
M  V30 19821 C 1848.85 1.11318 1.74401 0
M  V30 19822 C 1849.27 -0.33411 1.8582 0
M  V30 19823 O 1848.63 -1.23044 1.34783 0
M  V30 19824 C 1848.68 1.74927 3.16358 0
M  V30 19825 O 1848.4 3.13998 3.05511 0
M  V30 19826 C 1849.9 1.67347 4.105 0
M  V30 19827 H 1847.12 0.388835 0.546853 0
M  V30 19828 H 1849.66 1.64674 1.21255 0
M  V30 19829 H 1847.82 1.2557 3.66485 0
M  V30 19830 H 1848.23 3.45097 3.94979 0
M  V30 19831 H 1849.71 2.16533 5.07757 0
M  V30 19832 H 1850.18 0.635036 4.34585 0
M  V30 19833 H 1850.79 2.16139 3.66284 0
M  V30 19834 N 1849.1 -1.16685 1.05936 0
M  V30 19835 C 1850.03 -2.23129 0.688153 0
M  V30 19836 C 1851.01 -1.67108 -0.31765 0
M  V30 19837 O 1852.2 -1.93233 -0.193578 0
M  V30 19838 C 1849.33 -3.47229 0.069991 0
M  V30 19839 C 1848.28 -4.16121 1.00137 0
M  V30 19840 C 1847.61 -5.34131 0.246699 0
M  V30 19841 C 1848.91 -4.67508 2.32882 0
M  V30 19842 H 1850.6 -2.54436 1.57806 0
M  V30 19843 H 1848.15 -1.22298 0.76021 0
M  V30 19844 H 1850.1 -4.20918 -0.201545 0
M  V30 19845 H 1848.83 -3.15212 -0.854909 0
M  V30 19846 H 1847.49 -3.44355 1.25759 0
M  V30 19847 H 1847.13 -4.98366 -0.681204 0
M  V30 19848 H 1846.83 -5.81163 0.867373 0
M  V30 19849 H 1848.36 -6.10598 -0.0173762 0
M  V30 19850 H 1849.77 -5.32795 2.11666 0
M  V30 19851 H 1848.17 -5.25147 2.90414 0
M  V30 19852 H 1849.24 -3.83912 2.96209 0
M  V30 19853 N 1850.58 -0.841432 -1.33258 0
M  V30 19854 C 1852 -0.529552 -1.50559 0
M  V30 19855 C 1852.2 0.942598 -1.78094 0
M  V30 19856 O 1851.25 1.72628 -1.84271 0
M  V30 19857 C 1852.57 -1.40511 -2.65852 0
M  V30 19858 C 1854.11 -1.40415 -2.79737 0
M  V30 19859 C 1854.59 -2.26462 -3.98094 0
M  V30 19860 N 1856.08 -2.24185 -4.05334 0
M  V30 19861 C 1856.82 -2.875 -4.96116 0
M  V30 19862 N 1856.31 -3.59877 -5.91997 0
M  V30 19863 N 1858.1 -2.76957 -4.89133 0
M  V30 19864 H 1850.26 -1.79438 -1.13648 0
M  V30 19865 H 1852.52 -0.765683 -0.558958 0
M  V30 19866 H 1852.22 -2.45136 -2.52193 0
M  V30 19867 H 1852.1 -1.08299 -3.61319 0
M  V30 19868 H 1854.49 -0.365604 -2.92826 0
M  V30 19869 H 1854.57 -1.76636 -1.85023 0
M  V30 19870 H 1854.21 -3.30377 -3.85764 0
M  V30 19871 H 1854.14 -1.87581 -4.92058 0
M  V30 19872 H 1856.63 -1.71553 -3.36716 0
M  V30 19873 H 1856.94 -4.05388 -6.57936 0
M  V30 19874 H 1855.29 -3.63985 -5.92064 0
M  V30 19875 H 1858.48 -2.19974 -4.13194 0
M  V30 19876 H 1858.65 -3.26585 -5.59684 0
M  V30 19877 N 1852.06 1.4581 -0.598108 0
M  V30 19878 C 1853.02 2.28905 0.11623 0
M  V30 19879 C 1854.02 1.39246 0.804187 0
M  V30 19880 O 1855.21 1.61466 0.653793 0
M  V30 19881 C 1852.34 3.20029 1.17449 0
M  V30 19882 H 1853.54 2.93543 -0.614217 0
M  V30 19883 H 1851.09 1.52175 -0.356735 0
M  V30 19884 H 1851.83 2.60171 1.93601 0
M  V30 19885 H 1851.61 3.86061 0.685508 0
M  V30 19886 H 1853.1 3.82533 1.67505 0
M  V30 19887 N 1853.54 0.336733 1.53961 0
M  V30 19888 C 1854.47 -0.515664 2.27735 0
M  V30 19889 C 1855.45 -1.10835 1.29033 0
M  V30 19890 O 1856.63 -1.13102 1.57866 0
M  V30 19891 C 1853.76 -1.67015 3.04505 0
M  V30 19892 C 1852.72 -1.20613 4.10654 0
M  V30 19893 C 1852.04 -2.44861 4.75339 0
M  V30 19894 C 1853.34 -0.311507 5.2137 0
M  V30 19895 H 1855.04 0.0997513 2.99234 0
M  V30 19896 H 1852.58 0.0494157 1.43915 0
M  V30 19897 H 1854.54 -2.27286 3.54851 0
M  V30 19898 H 1853.26 -2.31236 2.30646 0
M  V30 19899 H 1851.92 -0.62628 3.61211 0
M  V30 19900 H 1851.57 -3.07474 3.98081 0
M  V30 19901 H 1851.27 -2.14498 5.47051 0
M  V30 19902 H 1852.79 -3.0587 5.28466 0
M  V30 19903 H 1854.21 -0.820868 5.67393 0
M  V30 19904 H 1852.6 -0.100073 6.00017 0
M  V30 19905 H 1853.67 0.654181 4.80467 0
M  V30 19906 N 1855.02 -1.57465 0.0651956 0
M  V30 19907 C 1856.43 -1.56917 -0.291414 0
M  V30 19908 C 1856.63 -1.07405 -1.70489 0
M  V30 19909 O 1855.69 -0.736958 -2.41506 0
M  V30 19910 C 1857 -3.00509 -0.107088 0
M  V30 19911 C 1858.55 -3.12498 -0.177127 0
M  V30 19912 C 1859.02 -4.57995 -0.0211616 0
M  V30 19913 N 1860.51 -4.63136 -0.0769824 0
M  V30 19914 C 1861.25 -5.73397 0.0193783 0
M  V30 19915 N 1860.75 -6.92594 0.168885 0
M  V30 19916 N 1862.54 -5.62088 -0.0372133 0
M  V30 19917 H 1854.69 -1.87966 0.989061 0
M  V30 19918 H 1856.95 -0.866234 0.385154 0
M  V30 19919 H 1856.66 -3.4082 0.868005 0
M  V30 19920 H 1856.53 -3.67214 -0.86221 0
M  V30 19921 H 1858.92 -2.72078 -1.1427 0
M  V30 19922 H 1859 -2.48445 0.608986 0
M  V30 19923 H 1858.64 -4.99104 0.941151 0
M  V30 19924 H 1858.57 -5.20072 -0.826597 0
M  V30 19925 H 1861.07 -3.77416 -0.191213 0
M  V30 19926 H 1861.38 -7.72443 0.234737 0
M  V30 19927 H 1859.72 -6.947 0.204159 0
M  V30 19928 H 1862.91 -4.67851 -0.152669 0
M  V30 19929 H 1863.09 -6.47987 0.0413392 0
M  V30 19930 N 1856.49 0.20831 -1.56217 0
M  V30 19931 C 1857.9 0.774162 -1.69893 0
M  V30 19932 C 1858.26 1.84424 -0.669506 0
M  V30 19933 O 1857.38 2.15677 0.176748 0
M  V30 19934 C 1857.98 1.41102 -3.08019 0
M  V30 19935 C 1856.53 1.9241 -3.23505 0
M  V30 19936 C 1855.68 0.789129 -2.65835 0
M  V30 19937 H 1858.63 -0.0165614 -1.58691 0
M  V30 19938 H 1858.65 2.28015 -3.04614 0
M  V30 19939 H 1858.17 0.631966 -3.8292 0
M  V30 19940 H 1856.27 2.73076 -2.53496 0
M  V30 19941 H 1856.38 2.09497 -4.30868 0
M  V30 19942 H 1854.74 1.19995 -2.24663 0
M  V30 19943 H 1855.53 0.0225345 -3.43293 0
M  V30 19944 N 1857.97 1.50255 0.475528 0
M  V30 19945 C 1858.9 1.71721 1.58222 0
M  V30 19946 C 1859.88 0.56612 1.60403 0
M  V30 19947 O 1861.07 0.804774 1.7674 0
M  V30 19948 C 1858.2 1.80726 2.96573 0
M  V30 19949 C 1857.15 2.95877 3.09258 0
M  V30 19950 C 1856.48 2.9002 4.49213 0
M  V30 19951 C 1857.78 4.36452 2.86891 0
M  V30 19952 H 1859.47 2.6438 1.40511 0
M  V30 19953 H 1857.02 1.27224 0.674533 0
M  V30 19954 H 1858.97 1.94328 3.73918 0
M  V30 19955 H 1857.69 0.846846 3.1543 0
M  V30 19956 H 1856.35 2.81918 2.34345 0
M  V30 19957 H 1856 1.91834 4.64982 0
M  V30 19958 H 1855.7 3.67322 4.58637 0
M  V30 19959 H 1857.23 3.05665 5.28584 0
M  V30 19960 H 1858.64 4.5096 3.53989 0
M  V30 19961 H 1857.04 5.15171 3.07765 0
M  V30 19962 H 1858.11 4.49129 1.82786 0
M  V30 19963 N 1859.45 -0.728395 1.39758 0
M  V30 19964 C 1860.87 -1.03481 1.21506 0
M  V30 19965 C 1861.07 -2.01336 0.0812728 0
M  V30 19966 O 1860.12 -2.46099 -0.564956 0
M  V30 19967 C 1861.43 -1.59078 2.55176 0
M  V30 19968 C 1862.98 -1.71126 2.62078 0
M  V30 19969 C 1863.46 -2.30131 3.95985 0
M  V30 19970 N 1864.95 -2.37532 3.97659 0
M  V30 19971 C 1865.68 -2.8414 4.98048 0
M  V30 19972 N 1865.18 -3.30595 6.08834 0
M  V30 19973 N 1866.97 -2.83409 4.85423 0
M  V30 19974 H 1859.12 -0.0795283 2.12251 0
M  V30 19975 H 1861.39 -0.0978972 0.942932 0
M  V30 19976 H 1861.09 -0.946401 3.38727 0
M  V30 19977 H 1860.97 -2.5779 2.75362 0
M  V30 19978 H 1863.35 -2.34684 1.78906 0
M  V30 19979 H 1863.43 -0.710485 2.45735 0
M  V30 19980 H 1863.08 -1.67198 4.79591 0
M  V30 19981 H 1863.01 -3.30898 4.09651 0
M  V30 19982 H 1865.5 -2.04706 3.17654 0
M  V30 19983 H 1865.81 -3.64689 6.81338 0
M  V30 19984 H 1864.16 -3.28587 6.12418 0
M  V30 19985 H 1867.35 -2.46444 3.97974 0
M  V30 19986 H 1867.52 -3.19417 5.63806 0
M  V30 19987 N 1860.93 -1.25042 -0.959279 0
M  V30 19988 C 1861.89 -1.05107 -2.03679 0
M  V30 19989 C 1862.89 -0.0054691 -1.60799 0
M  V30 19990 O 1864.08 -0.247225 -1.72437 0
M  V30 19991 C 1861.21 -0.594881 -3.35669 0
M  V30 19992 H 1862.41 -2.00753 -2.22796 0
M  V30 19993 H 1859.96 -1.07384 -1.13571 0
M  V30 19994 H 1860.69 0.364387 -3.22246 0
M  V30 19995 H 1860.48 -1.34966 -3.68139 0
M  V30 19996 H 1861.97 -0.476698 -4.1487 0
M  V30 19997 N 1862.41 1.16121 -1.06553 0
M  V30 19998 C 1863.34 2.22761 -0.699976 0
M  V30 19999 C 1864.32 1.67274 0.308783 0
M  V30 20000 O 1865.5 1.93333 0.183328 0
M  V30 20001 C 1862.63 3.47187 -0.0884044 0
M  V30 20002 C 1861.59 4.15584 -1.02343 0
M  V30 20003 C 1860.91 5.33992 -0.275022 0
M  V30 20004 C 1862.21 4.66266 -2.35358 0
M  V30 20005 H 1863.91 2.53595 -1.59153 0
M  V30 20006 H 1861.45 1.21893 -0.766686 0
M  V30 20007 H 1863.41 4.21019 0.17922 0
M  V30 20008 H 1862.13 3.15661 0.838181 0
M  V30 20009 H 1860.79 3.43683 -1.27584 0
M  V30 20010 H 1860.44 4.9872 0.654765 0
M  V30 20011 H 1860.14 5.80695 -0.898181 0
M  V30 20012 H 1861.66 6.10598 -0.0150056 0
M  V30 20013 H 1863.07 5.31665 -2.14488 0
M  V30 20014 H 1861.47 5.236 -2.93195 0
M  V30 20015 H 1862.54 3.82335 -2.98241 0
M  V30 20016 N 1863.88 0.848487 1.3281 0
M  V30 20017 C 1865.11 0.46174 2.02195 0
M  V30 20018 C 1865.53 -0.932159 1.63378 0
M  V30 20019 O 1864.89 -1.6112 0.831266 0
M  V30 20020 C 1864.94 0.601234 3.55552 0
M  V30 20021 O 1864.04 -0.368549 4.1075 0
M  V30 20022 H 1863.39 0.186379 0.637306 0
M  V30 20023 H 1865.92 1.14598 1.69495 0
M  V30 20024 H 1865.93 0.486456 4.0509 0
M  V30 20025 H 1864.6 1.61773 3.83148 0
M  V30 20026 H 1863.18 -0.210525 3.72305 0
M  V30 20027 N 1865.36 -1.4549 0.605832 0
M  V30 20028 C 1866.78 -1.57311 0.269339 0
M  V30 20029 C 1866.98 -1.59746 -1.22814 0
M  V30 20030 O 1866.03 -1.52682 -2.01108 0
M  V30 20031 C 1867.35 -2.85664 0.938963 0
M  V30 20032 C 1868.9 -2.99336 0.914717 0
M  V30 20033 C 1869.37 -4.30457 1.56432 0
M  V30 20034 N 1870.86 -4.37211 1.52973 0
M  V30 20035 C 1871.6 -5.37333 2.00152 0
M  V30 20036 N 1871.09 -6.44001 2.5541 0
M  V30 20037 N 1872.89 -5.28679 1.90931 0
M  V30 20038 H 1865.04 -1.42153 1.57817 0
M  V30 20039 H 1867.3 -0.679542 0.661004 0
M  V30 20040 H 1867.01 -2.89759 1.9933 0
M  V30 20041 H 1866.88 -3.7437 0.461178 0
M  V30 20042 H 1869.27 -2.94809 -0.131069 0
M  V30 20043 H 1869.35 -2.12045 1.43075 0
M  V30 20044 H 1868.99 -4.35742 2.60942 0
M  V30 20045 H 1868.92 -5.16561 1.02332 0
M  V30 20046 H 1871.41 -3.60733 1.12605 0
M  V30 20047 H 1871.73 -7.16644 2.89208 0
M  V30 20048 H 1870.07 -6.44757 2.59448 0
M  V30 20049 H 1873.26 -4.44253 1.47502 0
M  V30 20050 H 1873.43 -6.06559 2.28013 0
M  V30 20051 N 1866.84 -0.344893 -1.5378 0
M  V30 20052 C 1868.09 0.251208 -2.00936 0
M  V30 20053 C 1868.42 1.50449 -1.23269 0
M  V30 20054 O 1867.67 1.93249 -0.308738 0
M  V30 20055 C 1867.97 0.609495 -3.52165 0
M  V30 20056 C 1867.64 -0.547063 -4.47569 0
M  V30 20057 C 1866.3 -0.864456 -4.73372 0
M  V30 20058 C 1868.65 -1.3229 -5.04132 0
M  V30 20059 C 1865.98 -1.96003 -5.52991 0
M  V30 20060 C 1868.33 -2.40874 -5.84947 0
M  V30 20061 C 1866.99 -2.73171 -6.09043 0
M  V30 20062 H 1866.26 0.0919233 -0.735276 0
M  V30 20063 H 1868.91 -0.473086 -1.85564 0
M  V30 20064 H 1867.22 1.41452 -3.65375 0
M  V30 20065 H 1868.91 1.08262 -3.86109 0
M  V30 20066 H 1865.5 -0.289626 -4.2762 0
M  V30 20067 H 1869.69 -1.09095 -4.84161 0
M  V30 20068 H 1864.94 -2.21449 -5.69886 0
M  V30 20069 H 1869.12 -3.01421 -6.27789 0
M  V30 20070 H 1866.74 -3.5819 -6.70525 0
M  V30 20071 N 1868.32 1.57428 -0.0735454 0
M  V30 20072 C 1869.23 2.16325 0.907775 0
M  V30 20073 C 1870.24 1.12689 1.32579 0
M  V30 20074 O 1871.42 1.44963 1.39813 0
M  V30 20075 C 1868.49 2.71467 2.15654 0
M  V30 20076 C 1867.55 3.89983 1.79476 0
M  V30 20077 C 1866.78 4.42486 2.98399 0
M  V30 20078 O 1867 3.93985 4.12471 0
M  V30 20079 O 1865.94 5.33794 2.78114 0
M  V30 20080 H 1869.76 3.00543 0.436771 0
M  V30 20081 H 1867.35 1.48649 0.149623 0
M  V30 20082 H 1869.23 3.06802 2.88878 0
M  V30 20083 H 1867.9 1.90308 2.61848 0
M  V30 20084 H 1866.81 3.59498 1.03499 0
M  V30 20085 H 1868.14 4.7244 1.38063 0
M  V30 20086 N 1869.8 -0.200022 1.56326 0
M  V30 20087 C 1871.04 -0.919355 1.79979 0
M  V30 20088 C 1871.37 -1.83997 0.645767 0
M  V30 20089 O 1870.64 -1.92994 -0.336186 0
M  V30 20090 H 1869.22 -0.342469 0.66387 0
M  V30 20091 H 1871.88 -0.206713 1.93801 0
M  V30 20092 H 1870.97 -1.51341 2.72951 0
M  V30 20093 N 1871.27 -1.50505 -0.467553 0
M  V30 20094 C 1872.21 -1.64271 -1.58399 0
M  V30 20095 C 1873.19 -0.490745 -1.55018 0
M  V30 20096 O 1874.37 -0.710709 -1.74589 0
M  V30 20097 C 1871.5 -1.62854 -2.96978 0
M  V30 20098 C 1870.54 -2.83654 -3.18501 0
M  V30 20099 S 1871.38 -4.44908 -2.98022 0
M  V30 20100 C 1872.53 -4.4619 -4.38937 0
M  V30 20101 H 1872.76 -2.58708 -1.46484 0
M  V30 20102 H 1870.3 -1.39812 -0.655141 0
M  V30 20103 H 1872.26 -1.62722 -3.76871 0
M  V30 20104 H 1870.92 -0.696465 -3.06281 0
M  V30 20105 H 1870.11 -2.78977 -4.19747 0
M  V30 20106 H 1869.71 -2.81371 -2.46386 0
M  V30 20107 H 1872 -4.1997 -5.31631 0
M  V30 20108 H 1872.95 -5.47826 -4.48656 0
M  V30 20109 H 1873.35 -3.75855 -4.21181 0
M  V30 20110 N 1872.75 0.720973 -1.40142 0
M  V30 20111 C 1874.17 1.02835 -1.22054 0
M  V30 20112 C 1874.37 2.0129 -0.091949 0
M  V30 20113 O 1873.42 2.46395 0.551897 0
M  V30 20114 C 1874.74 1.57722 -2.56016 0
M  V30 20115 C 1876.29 1.69734 -2.62982 0
M  V30 20116 C 1876.76 2.28027 -3.972 0
M  V30 20117 N 1878.25 2.3542 -3.98913 0
M  V30 20118 C 1878.99 2.81495 -4.99548 0
M  V30 20119 N 1878.48 3.27362 -6.10578 0
M  V30 20120 N 1880.28 2.80831 -4.86919 0
M  V30 20121 H 1872.43 0.068271 -2.1229 0
M  V30 20122 H 1874.69 0.0928952 -0.943438 0
M  V30 20123 H 1874.4 0.928424 -3.39224 0
M  V30 20124 H 1874.27 2.56326 -2.76725 0
M  V30 20125 H 1876.66 2.33732 -1.80148 0
M  V30 20126 H 1876.74 0.697443 -2.46108 0
M  V30 20127 H 1876.38 1.64653 -4.80471 0
M  V30 20128 H 1876.31 3.28721 -4.114 0
M  V30 20129 H 1878.8 2.03019 -3.18735 0
M  V30 20130 H 1879.12 3.61071 -6.83263 0
M  V30 20131 H 1877.46 3.25335 -6.14152 0
M  V30 20132 H 1880.65 2.4433 -3.99275 0
M  V30 20133 H 1880.82 3.16423 -5.65492 0
M  V30 20134 N 1874.23 1.25549 0.952634 0
M  V30 20135 C 1875.48 1.1058 1.7 0
M  V30 20136 C 1875.81 -0.35206 1.90982 0
M  V30 20137 O 1875.08 -1.25938 1.48222 0
M  V30 20138 C 1875.37 1.86283 3.08173 0
M  V30 20139 C 1875.22 3.39909 2.94588 0
M  V30 20140 C 1876.54 1.64755 4.08098 0
M  V30 20141 H 1873.66 0.403095 0.616996 0
M  V30 20142 H 1876.3 1.54406 1.1072 0
M  V30 20143 H 1874.45 1.49033 3.58778 0
M  V30 20144 H 1876.12 3.86845 2.51294 0
M  V30 20145 H 1874.37 3.67518 2.30462 0
M  V30 20146 H 1875.04 3.88094 3.92539 0
M  V30 20147 H 1877.51 1.97186 3.66411 0
M  V30 20148 H 1876.39 2.20157 5.02814 0
M  V30 20149 H 1876.65 0.589348 4.38154 0
M  V30 20150 N 1875.71 -1.15554 1.07168 0
M  V30 20151 C 1876.95 -1.86572 0.794894 0
M  V30 20152 C 1877.29 -1.82007 -0.677276 0
M  V30 20153 O 1876.56 -1.2419 -1.4969 0
M  V30 20154 C 1876.85 -3.35762 1.30137 0
M  V30 20155 C 1876.7 -3.4897 2.83796 0
M  V30 20156 C 1878.02 -4.30453 0.916402 0
M  V30 20157 H 1875.14 -0.677448 0.29023 0
M  V30 20158 H 1877.78 -1.35772 1.32914 0
M  V30 20159 H 1875.93 -3.79156 0.846915 0
M  V30 20160 H 1877.6 -3.14452 3.37517 0
M  V30 20161 H 1875.84 -2.9059 3.22087 0
M  V30 20162 H 1876.51 -4.53782 3.14302 0
M  V30 20163 H 1878.99 -3.95008 1.30797 0
M  V30 20164 H 1877.87 -5.33329 1.29814 0
M  V30 20165 H 1878.13 -4.41742 -0.17785 0
M  V30 20166 N 1877.19 -0.855519 -1.32358 0
M  V30 20167 C 1878.43 -0.460002 -1.97514 0
M  V30 20168 C 1878.77 0.982052 -1.67539 0
M  V30 20169 O 1878.04 1.68925 -0.964091 0
M  V30 20170 C 1878.32 -0.70064 -3.53218 0
M  V30 20171 C 1878.18 -2.19118 -3.9282 0
M  V30 20172 C 1879.5 -0.157597 -4.39818 0
M  V30 20173 H 1876.62 -0.168606 -0.717455 0
M  V30 20174 H 1879.26 -1.0741 -1.56726 0
M  V30 20175 H 1877.41 -0.177937 -3.88092 0
M  V30 20176 H 1879.08 -2.78002 -3.6812 0
M  V30 20177 H 1877.32 -2.66934 -3.41948 0
M  V30 20178 H 1877.99 -2.31024 -5.0133 0
M  V30 20179 H 1880.47 -0.604597 -4.11684 0
M  V30 20180 H 1879.35 -0.355532 -5.47747 0
M  V30 20181 H 1879.61 0.939679 -4.31998 0
M  V30 20182 N 1878.67 1.45167 -0.61354 0
M  V30 20183 C 1879.94 1.95553 -0.042781 0
M  V30 20184 C 1880.32 1.55588 1.42673 0
M  V30 20185 O 1879.67 0.821325 2.13229 0
M  V30 20186 C 1879.88 3.48124 -0.247141 0
M  V30 20187 C 1881.23 4.24398 -0.131068 0
M  V30 20188 O 1882.25 3.55757 -0.177576 0
M  V30 20189 O 1881.11 5.46496 -0.0211683 0
M  V30 20190 H 1878.21 0.826367 0.0323494 0
M  V30 20191 H 1880.75 1.55304 -0.684017 0
M  V30 20192 H 1879.52 3.70202 -1.26751 0
M  V30 20193 H 1879.15 3.95278 0.429074 0
M  V30 20194 N 1880.14 0.353044 1.53595 0
M  V30 20195 C 1881.11 -0.48691 2.23968 0
M  V30 20196 C 1882.11 -1.01991 1.24316 0
M  V30 20197 O 1883.3 -0.907654 1.48685 0
M  V30 20198 C 1880.43 -1.67926 2.96671 0
M  V30 20199 H 1881.62 0.128707 2.99624 0
M  V30 20200 H 1879.17 0.104533 1.5595 0
M  V30 20201 H 1879.91 -2.33331 2.25227 0
M  V30 20202 H 1879.69 -1.30417 3.69776 0
M  V30 20203 H 1881.18 -2.2748 3.50203 0
M  V30 20204 N 1881.62 -1.57387 0.0818932 0
M  V30 20205 C 1882.55 -2.16318 -0.879124 0
M  V30 20206 C 1883.53 -1.09293 -1.30342 0
M  V30 20207 O 1884.72 -1.37373 -1.37267 0
M  V30 20208 C 1881.85 -2.73293 -2.14308 0
M  V30 20209 C 1880.8 -3.85575 -1.85785 0
M  V30 20210 C 1880.13 -4.29195 -3.18897 0
M  V30 20211 C 1881.43 -5.09365 -1.15517 0
M  V30 20212 H 1883.12 -2.96873 -0.388166 0
M  V30 20213 H 1880.67 -1.42803 -0.185265 0
M  V30 20214 H 1882.62 -3.13168 -2.81964 0
M  V30 20215 H 1881.34 -1.89974 -2.65664 0
M  V30 20216 H 1880 -3.46219 -1.20532 0
M  V30 20217 H 1879.65 -3.42784 -3.68114 0
M  V30 20218 H 1879.35 -5.04889 -3.006 0
M  V30 20219 H 1880.88 -4.71694 -3.87734 0
M  V30 20220 H 1882.29 -5.46493 -1.73259 0
M  V30 20221 H 1880.69 -5.90403 -1.07444 0
M  V30 20222 H 1881.76 -4.8471 -0.135822 0
M  V30 20223 N 1883.1 0.191729 -1.56429 0
M  V30 20224 C 1884.35 0.912948 -1.81089 0
M  V30 20225 C 1884.68 1.82767 -0.656483 0
M  V30 20226 O 1883.95 1.91456 0.342779 0
M  V30 20227 C 1884.24 1.72628 -3.16025 0
M  V30 20228 C 1884.09 0.836045 -4.41962 0
M  V30 20229 C 1885.41 2.69818 -3.47687 0
M  V30 20230 H 1882.53 0.33046 -0.658761 0
M  V30 20231 H 1885.17 0.180148 -1.89144 0
M  V30 20232 H 1883.32 2.35102 -3.09289 0
M  V30 20233 H 1884.99 0.225751 -4.60747 0
M  V30 20234 H 1883.23 0.142944 -4.33564 0
M  V30 20235 H 1883.91 1.44019 -5.32881 0
M  V30 20236 H 1886.38 2.17475 -3.54745 0
M  V30 20237 H 1885.26 3.23806 -4.43216 0
M  V30 20238 H 1885.52 3.49028 -2.71352 0
M  V30 20239 N 1884.58 1.50751 0.459565 0
M  V30 20240 C 1885.83 1.61995 1.20839 0
M  V30 20241 C 1886.15 0.327782 1.92225 0
M  V30 20242 O 1885.42 -0.655341 1.84613 0
M  V30 20243 H 1884 0.596972 0.449036 0
M  V30 20244 H 1886.66 1.87582 0.52906 0
M  V30 20245 H 1885.75 2.43678 1.95006 0
M  V30 20246 N 1886.06 -0.713531 1.40522 0
M  V30 20247 C 1887.02 -1.80932 1.40699 0
M  V30 20248 C 1888.02 -1.57968 0.30045 0
M  V30 20249 O 1889.21 -1.64972 0.559456 0
M  V30 20250 C 1886.34 -3.19053 1.20075 0
M  V30 20251 H 1887.53 -1.82174 2.38228 0
M  V30 20252 H 1885.09 -0.919374 1.26401 0
M  V30 20253 H 1885.82 -3.23461 0.233137 0
M  V30 20254 H 1885.61 -3.37121 2.00229 0
M  V30 20255 H 1887.1 -3.99078 1.22991 0
M  V30 20256 N 1887.53 -1.26053 -0.945962 0
M  V30 20257 C 1888.78 -1.10706 -1.68603 0
M  V30 20258 C 1889.1 0.350167 -1.9244 0
M  V30 20259 O 1890.3 0.624224 -2.64227 0
M  V30 20260 C 1888.76 -1.93306 -3.0358 0
M  V30 20261 C 1888.37 -3.43574 -2.87508 0
M  V30 20262 C 1890.11 -1.86555 -3.8131 0
M  V30 20263 C 1888.02 -4.18438 -4.17928 0
M  V30 20264 H 1886.95 -0.410689 -0.632337 0
M  V30 20265 H 1889.6 -1.50322 -1.0524 0
M  V30 20266 H 1887.98 -1.4652 -3.67897 0
M  V30 20267 H 1889.15 -3.98096 -2.3207 0
M  V30 20268 H 1887.47 -3.51511 -2.23224 0
M  V30 20269 H 1890.07 -2.39775 -4.77925 0
M  V30 20270 H 1890.41 -0.83525 -4.07835 0
M  V30 20271 H 1890.94 -2.31138 -3.23759 0
M  V30 20272 H 1887.68 -5.21917 -3.96589 0
M  V30 20273 H 1887.2 -3.68698 -4.73098 0
M  V30 20274 H 1888.88 -4.26626 -4.86415 0
M  V30 20275 N 1889.01 1.14984 -1.07779 0
M  V30 20276 C 1890.42 1.67453 -0.825611 0
M  V30 20277 C 1890.77 1.85168 0.648631 0
M  V30 20278 O 1889.9 1.55817 1.50167 0
M  V30 20279 C 1890.49 3.04172 -1.49214 0
M  V30 20280 C 1889.05 3.53701 -1.28736 0
M  V30 20281 C 1888.2 2.29324 -1.55903 0
M  V30 20282 H 1891.15 0.99138 -1.23925 0
M  V30 20283 H 1891.17 3.69315 -0.915779 0
M  V30 20284 H 1890.68 2.91247 -2.56509 0
M  V30 20285 H 1888.78 3.71859 -0.234821 0
M  V30 20286 H 1888.9 4.34871 -2.01056 0
M  V30 20287 H 1887.26 2.35081 -0.980257 0
M  V30 20288 H 1888.04 2.18982 -2.6439 0
M  V30 20289 N 1890.49 0.862526 1.31902 0
M  V30 20290 C 1891.71 0.483159 2.01694 0
M  V30 20291 C 1892.14 -0.914778 1.64358 0
M  V30 20292 O 1891.5 -1.60229 0.848308 0
M  V30 20293 C 1891.55 0.638911 3.54895 0
M  V30 20294 O 1890.65 -0.324962 4.11118 0
M  V30 20295 H 1889.99 0.193128 0.635293 0
M  V30 20296 H 1892.52 1.16389 1.6827 0
M  V30 20297 H 1892.53 0.529394 4.04551 0
M  V30 20298 H 1891.21 1.65828 3.81411 0
M  V30 20299 H 1889.78 -0.171025 3.72508 0
M  V30 20300 N 1891.97 -1.4484 0.62123 0
M  V30 20301 C 1893.22 -2.01347 0.11929 0
M  V30 20302 C 1893.53 -1.49373 -1.26282 0
M  V30 20303 O 1894.74 -1.97945 -1.85823 0
M  V30 20304 C 1893.19 -3.59533 0.162536 0
M  V30 20305 C 1892.8 -4.20504 1.54534 0
M  V30 20306 C 1894.54 -4.23553 -0.283454 0
M  V30 20307 C 1892.45 -5.70883 1.54423 0
M  V30 20308 H 1891.38 -0.752894 0.0408293 0
M  V30 20309 H 1894.03 -1.66164 0.778571 0
M  V30 20310 H 1892.41 -3.91968 -0.563659 0
M  V30 20311 H 1893.59 -3.99621 2.29433 0
M  V30 20312 H 1891.9 -3.68732 1.93457 0
M  V30 20313 H 1894.5 -5.33837 -0.303671 0
M  V30 20314 H 1894.84 -3.9519 -1.30884 0
M  V30 20315 H 1895.38 -3.95884 0.38992 0
M  V30 20316 H 1892.12 -6.03965 2.54767 0
M  V30 20317 H 1891.64 -5.93917 0.838029 0
M  V30 20318 H 1893.31 -6.34336 1.27383 0
M  V30 20319 N 1893.45 -0.361184 -1.53405 0
M  V30 20320 C 1894.38 0.530831 -2.2194 0
M  V30 20321 C 1895.36 1.08647 -1.20974 0
M  V30 20322 O 1896.54 1.14343 -1.4986 0
M  V30 20323 C 1893.67 1.73198 -2.91067 0
M  V30 20324 C 1892.71 1.30419 -4.0607 0
M  V30 20325 S 1893.55 0.30917 -5.34607 0
M  V30 20326 C 1894.7 1.51675 -6.07244 0
M  V30 20327 H 1894.94 -0.0512313 -2.97256 0
M  V30 20328 H 1892.47 -0.145281 -1.53715 0
M  V30 20329 H 1894.43 2.42098 -3.3151 0
M  V30 20330 H 1893.09 2.28528 -2.15485 0
M  V30 20331 H 1892.28 2.20024 -4.53437 0
M  V30 20332 H 1891.88 0.694455 -3.67496 0
M  V30 20333 H 1894.18 2.44847 -6.31709 0
M  V30 20334 H 1895.12 1.08454 -6.99745 0
M  V30 20335 H 1895.53 1.7208 -5.37632 0
M  V30 20336 N 1894.92 1.57341 -0.0902386 0
M  V30 20337 C 1895.87 2.14982 0.887997 0
M  V30 20338 C 1896.87 1.09142 1.29555 0
M  V30 20339 O 1898.07 1.27494 1.27064 0
M  V30 20340 H 1894.45 0.687648 0.304376 0
M  V30 20341 H 1896.42 2.96008 0.377094 0
M  V30 20342 C 1895.17 2.74101 2.13925 0
M  V30 20343 H 1894.49 3.55226 1.83452 0
M  V30 20344 H 1895.93 3.18007 2.80442 0
M  V30 20345 C 1894.39 1.69757 2.91005 0
M  V30 20346 O 1894.92 1.13359 3.85373 0
M  V30 20347 N 1893.13 1.40362 2.54454 0
M  V30 20348 H 1892.67 1.86414 1.77785 0
M  V30 20349 H 1892.63 0.707837 3.06328 0
M  V30 20350 N 1896.4 -0.183431 1.56529 0
M  V30 20351 C 1897.65 -0.903332 1.8157 0
M  V30 20352 C 1897.98 -1.82417 0.666167 0
M  V30 20353 O 1897.26 -1.91635 -0.332621 0
M  V30 20354 C 1897.54 -1.70949 3.16936 0
M  V30 20355 C 1897.39 -0.812595 4.42399 0
M  V30 20356 C 1898.71 -2.6797 3.49113 0
M  V30 20357 H 1895.83 -0.326961 0.660504 0
M  V30 20358 H 1898.47 -0.170115 1.89237 0
M  V30 20359 H 1896.62 -2.33458 3.10531 0
M  V30 20360 H 1898.29 -0.201313 4.60861 0
M  V30 20361 H 1896.54 -0.119949 4.33634 0
M  V30 20362 H 1897.21 -1.4119 5.33638 0
M  V30 20363 H 1899.68 -2.15591 3.55893 0
M  V30 20364 H 1898.56 -3.21451 4.44927 0
M  V30 20365 H 1898.82 -3.47584 2.73199 0
M  V30 20366 N 1897.88 -1.50992 -0.451564 0
M  V30 20367 C 1898.81 -1.74216 -1.5547 0
M  V30 20368 C 1899.79 -0.591568 -1.59482 0
M  V30 20369 O 1900.98 -0.83279 -1.75437 0
M  V30 20370 C 1898.11 -1.85421 -2.9366 0
M  V30 20371 C 1897.06 -3.0076 -3.04512 0
M  V30 20372 C 1896.39 -2.9713 -4.44542 0
M  V30 20373 C 1897.69 -4.40961 -2.79911 0
M  V30 20374 H 1899.38 -2.66582 -1.36287 0
M  V30 20375 H 1896.93 -1.28281 -0.654207 0
M  V30 20376 H 1898.88 -2.00252 -3.70779 0
M  V30 20377 H 1897.6 -0.896921 -3.14043 0
M  V30 20378 H 1896.26 -2.85611 -2.2983 0
M  V30 20379 H 1895.91 -1.99207 -4.61872 0
M  V30 20380 H 1895.61 -3.74572 -4.52736 0
M  V30 20381 H 1897.13 -3.14035 -5.23655 0
M  V30 20382 H 1898.55 -4.56534 -3.4677 0
M  V30 20383 H 1896.95 -5.20002 -2.9953 0
M  V30 20384 H 1898.02 -4.51981 -1.75618 0
M  V30 20385 N 1899.36 0.706069 -1.40899 0
M  V30 20386 C 1900.29 1.83275 -1.44681 0
M  V30 20387 C 1901.27 1.67313 -0.306629 0
M  V30 20388 O 1902.45 1.87203 -0.516597 0
M  V30 20389 C 1899.58 3.21319 -1.318 0
M  V30 20390 C 1898.54 3.51969 -2.4352 0
M  V30 20391 C 1897.86 4.89258 -2.1571 0
M  V30 20392 C 1899.16 3.52004 -3.85864 0
M  V30 20393 H 1900.86 1.80367 -2.38973 0
M  V30 20394 H 1898.4 0.866349 -1.15023 0
M  V30 20395 H 1900.36 3.99841 -1.3306 0
M  V30 20396 H 1899.08 3.24827 -0.339879 0
M  V30 20397 H 1897.74 2.75792 -2.41525 0
M  V30 20398 H 1897.39 4.89378 -1.16266 0
M  V30 20399 H 1897.09 5.1073 -2.90566 0
M  V30 20400 H 1898.61 5.70102 -2.18669 0
M  V30 20401 H 1900.03 4.20548 -3.8963 0
M  V30 20402 H 1898.42 3.85005 -4.60316 0
M  V30 20403 H 1899.49 2.51191 -4.14766 0
M  V30 20404 N 1900.84 1.26553 0.939264 0
M  V30 20405 C 1902.08 1.12376 1.68818 0
M  V30 20406 C 1902.42 -0.331784 1.91345 0
M  V30 20407 O 1901.69 -1.24359 1.4955 0
M  V30 20408 C 1901.97 1.89541 3.0618 0
M  V30 20409 C 1901.83 3.43014 2.90966 0
M  V30 20410 C 1903.15 1.69074 4.06327 0
M  V30 20411 H 1900.26 0.409616 0.612686 0
M  V30 20412 H 1902.91 1.55571 1.09076 0
M  V30 20413 H 1901.06 1.5283 3.57177 0
M  V30 20414 H 1902.73 3.89489 2.47176 0
M  V30 20415 H 1900.97 3.69942 2.26551 0
M  V30 20416 H 1901.64 3.92236 3.88401 0
M  V30 20417 H 1904.12 2.01061 3.64299 0
M  V30 20418 H 1902.99 2.25478 5.00451 0
M  V30 20419 H 1903.26 0.635787 4.37504 0
M  V30 20420 N 1902.31 -1.14411 1.08387 0
M  V30 20421 C 1903.55 -1.87102 0.822937 0
M  V30 20422 C 1903.92 -1.81032 -0.63963 0
M  V30 20423 O 1905.12 -2.48857 -1.01606 0
M  V30 20424 C 1903.39 -3.31723 1.33021 0
M  V30 20425 S 1904.95 -4.22029 1.20154 0
M  V30 20426 H 1901.77 -0.645571 0.297924 0
M  V30 20427 H 1904.37 -1.37967 1.38511 0
M  V30 20428 H 1903.07 -3.33689 2.38913 0
M  V30 20429 H 1902.6 -3.85916 0.763695 0
M  V30 20430 H 1904.62 -4.95986 0.1457 0
M  V30 20431 N 1903.79 -0.869509 -1.31443 0
M  V30 20432 C 1904.72 -0.340679 -2.31001 0
M  V30 20433 C 1905.7 0.568186 -1.6033 0
M  V30 20434 O 1906.89 0.485305 -1.88038 0
M  V30 20435 C 1904.02 0.45909 -3.44252 0
M  V30 20436 C 1902.97 -0.356639 -4.26512 0
M  V30 20437 C 1902.3 0.568786 -5.31666 0
M  V30 20438 C 1903.6 -1.59045 -4.97496 0
M  V30 20439 H 1905.29 -1.1726 -2.75482 0
M  V30 20440 H 1902.84 -0.5653 -1.3244 0
M  V30 20441 H 1904.79 0.839573 -4.12952 0
M  V30 20442 H 1903.52 1.32451 -2.98537 0
M  V30 20443 H 1902.17 -0.719063 -3.59479 0
M  V30 20444 H 1901.82 1.43148 -4.82201 0
M  V30 20445 H 1901.52 0.0268906 -5.87594 0
M  V30 20446 H 1903.05 0.946122 -6.03225 0
M  V30 20447 H 1904.46 -1.28144 -5.58795 0
M  V30 20448 H 1902.86 -2.07139 -5.63217 0
M  V30 20449 H 1903.93 -2.34354 -4.24507 0
M  V30 20450 N 1905.27 1.44508 -0.628902 0
M  V30 20451 C 1906.52 2.01281 -0.129966 0
M  V30 20452 C 1906.83 1.50041 1.25488 0
M  V30 20453 O 1908.04 1.98927 1.84771 0
M  V30 20454 C 1906.49 3.59442 -0.1816 0
M  V30 20455 C 1906.1 4.19678 -1.56762 0
M  V30 20456 C 1907.85 4.23697 0.260988 0
M  V30 20457 C 1905.75 5.70056 -1.57449 0
M  V30 20458 H 1904.68 0.752667 -0.0448215 0
M  V30 20459 H 1907.33 1.65749 -0.787372 0
M  V30 20460 H 1905.72 3.92261 0.542864 0
M  V30 20461 H 1906.89 3.98399 -2.31549 0
M  V30 20462 H 1905.21 3.67701 -1.9541 0
M  V30 20463 H 1907.8 5.33991 0.275356 0
M  V30 20464 H 1908.15 3.95878 1.28787 0
M  V30 20465 H 1908.68 3.95672 -0.410909 0
M  V30 20466 H 1905.42 6.02606 -2.57966 0
M  V30 20467 H 1904.94 5.93464 -0.869514 0
M  V30 20468 H 1906.62 6.33652 -1.30745 0
M  V30 20469 N 1906.75 0.369315 1.53212 0
M  V30 20470 C 1908 -0.219209 2.0131 0
M  V30 20471 C 1908.32 -1.48469 1.25647 0
M  V30 20472 O 1907.58 -1.92734 0.339443 0
M  V30 20473 C 1907.88 -0.553392 3.5309 0
M  V30 20474 C 1907.54 0.618198 4.46642 0
M  V30 20475 C 1906.21 0.939656 4.71936 0
M  V30 20476 C 1908.56 1.40294 5.01963 0
M  V30 20477 C 1905.89 2.04776 5.49803 0
M  V30 20478 C 1908.24 2.50149 5.81041 0
M  V30 20479 C 1906.9 2.82826 6.0462 0
M  V30 20480 H 1906.17 -0.0802141 0.736646 0
M  V30 20481 H 1908.82 0.502547 1.84788 0
M  V30 20482 H 1907.12 -1.35621 3.67579 0
M  V30 20483 H 1908.82 -1.02106 3.87783 0
M  V30 20484 H 1905.41 0.35762 4.27105 0
M  V30 20485 H 1909.6 1.16784 4.82364 0
M  V30 20486 H 1904.85 2.30487 5.66291 0
M  V30 20487 H 1909.03 3.1137 6.22914 0
M  V30 20488 H 1906.65 3.68812 6.64742 0
M  V30 20489 N 1908.23 -1.57291 0.0985816 0
M  V30 20490 C 1909.47 -1.95568 -0.558993 0
M  V30 20491 C 1909.83 -0.979923 -1.65576 0
M  V30 20492 O 1909.12 -0.00649322 -1.91599 0
M  V30 20493 C 1909.32 -3.38184 -1.15613 0
M  V30 20494 C 1909.14 -4.49543 -0.11874 0
M  V30 20495 C 1907.91 -5.04373 0.305987 0
M  V30 20496 C 1910.11 -5.10119 0.65443 0
M  V30 20497 N 1908.09 -5.99291 1.33128 0
M  V30 20498 C 1909.47 -6.00788 1.53146 0
M  V30 20499 C 1911.52 -4.92847 0.707565 0
M  V30 20500 C 1910.22 -6.76037 2.45695 0
M  V30 20501 C 1912.25 -5.6876 1.62068 0
M  V30 20502 C 1911.61 -6.59099 2.48533 0
M  V30 20503 H 1907.71 -0.762218 -0.17478 0
M  V30 20504 H 1910.29 -1.93848 0.181959 0
M  V30 20505 H 1908.47 -3.40591 -1.86688 0
M  V30 20506 H 1910.2 -3.63632 -1.77635 0
M  V30 20507 H 1906.95 -4.73528 -0.0824372 0
M  V30 20508 H 1907.38 -6.51453 1.84223 0
M  V30 20509 H 1912.02 -4.22766 0.0532402 0
M  V30 20510 H 1909.74 -7.45377 3.12151 0
M  V30 20511 H 1913.32 -5.57408 1.66697 0
M  V30 20512 H 1912.2 -7.16812 3.18041 0
M  V30 20513 N 1909.71 0.175127 -1.56624 0
M  V30 20514 C 1910.64 1.21918 -1.99144 0
M  V30 20515 C 1911.62 1.4638 -0.866428 0
M  V30 20516 O 1912.8 1.57779 -1.13223 0
M  V30 20517 C 1909.93 2.55897 -2.34807 0
M  V30 20518 C 1908.89 2.46011 -3.50232 0
M  V30 20519 C 1908.21 3.84445 -3.71626 0
M  V30 20520 C 1909.51 1.96808 -4.83801 0
M  V30 20521 H 1911.21 0.86575 -2.8661 0
M  V30 20522 H 1908.75 0.415014 -1.3789 0
M  V30 20523 H 1910.7 3.29136 -2.63149 0
M  V30 20524 H 1909.43 2.9302 -1.44245 0
M  V30 20525 H 1908.09 1.75227 -3.22011 0
M  V30 20526 H 1907.74 4.18955 -2.78362 0
M  V30 20527 H 1907.44 3.787 -4.49288 0
M  V30 20528 H 1908.96 4.59276 -4.02366 0
M  V30 20529 H 1910.37 2.59819 -5.11045 0
M  V30 20530 H 1908.77 2.0202 -5.65073 0
M  V30 20531 H 1909.84 0.922209 -4.7605 0
M  V30 20532 N 1911.18 1.5123 0.44355 0
M  V30 20533 C 1912.43 1.62825 1.19041 0
M  V30 20534 C 1912.75 0.347298 1.92492 0
M  V30 20535 O 1913.95 0.342537 2.69331 0
M  V30 20536 C 1912.41 2.87532 2.16456 0
M  V30 20537 C 1912.02 4.22608 1.48682 0
M  V30 20538 C 1913.76 3.08483 2.91614 0
M  V30 20539 C 1911.67 5.38472 2.44544 0
M  V30 20540 H 1910.6 0.606444 0.448041 0
M  V30 20541 H 1913.25 1.77691 0.458065 0
M  V30 20542 H 1911.63 2.66287 2.931 0
M  V30 20543 H 1912.8 4.54212 0.776389 0
M  V30 20544 H 1911.12 4.07485 0.857007 0
M  V30 20545 H 1913.72 3.92219 3.63413 0
M  V30 20546 H 1914.06 2.2131 3.52601 0
M  V30 20547 H 1914.59 3.30039 2.22078 0
M  V30 20548 H 1911.33 6.27886 1.88255 0
M  V30 20549 H 1910.85 5.11252 3.13658 0
M  V30 20550 H 1912.53 5.70169 3.05804 0
M  V30 20551 N 1912.66 -0.698586 1.41271 0
M  V30 20552 C 1913.91 -1.45861 1.40466 0
M  V30 20553 C 1914.24 -1.94496 0.0127551 0
M  V30 20554 O 1913.49 -1.69692 -0.974843 0
M  V30 20555 C 1913.79 -2.688 2.35545 0
M  V30 20556 C 1913.46 -2.38839 3.82449 0
M  V30 20557 C 1912.12 -2.30378 4.22468 0
M  V30 20558 C 1914.47 -2.14065 4.75211 0
M  V30 20559 C 1911.8 -1.95236 5.53263 0
M  V30 20560 C 1914.15 -1.80432 6.06323 0
M  V30 20561 C 1912.81 -1.70465 6.45367 0
M  V30 20562 H 1912.08 -0.533744 0.514002 0
M  V30 20563 H 1914.73 -0.798723 1.74048 0
M  V30 20564 H 1913.04 -3.39708 1.95207 0
M  V30 20565 H 1914.73 -3.26933 2.32197 0
M  V30 20566 H 1911.32 -2.46317 3.50751 0
M  V30 20567 H 1915.51 -2.19548 4.45098 0
M  V30 20568 H 1910.76 -1.86069 5.82399 0
M  V30 20569 H 1914.94 -1.60281 6.77704 0
M  V30 20570 H 1912.56 -1.43002 7.46629 0
M  V30 20571 N 1914.14 -1.27049 -0.93254 0
M  V30 20572 C 1915.36 -1.16011 -1.71919 0
M  V30 20573 C 1915.79 0.279951 -1.86005 0
M  V30 20574 O 1915.15 1.20279 -1.35657 0
M  V30 20575 C 1915.2 -1.84349 -3.09916 0
M  V30 20576 O 1914.3 -1.13816 -3.96383 0
M  V30 20577 H 1913.64 -0.403752 -0.527144 0
M  V30 20578 H 1916.17 -1.6803 -1.16736 0
M  V30 20579 H 1916.18 -1.91516 -3.60258 0
M  V30 20580 H 1914.86 -2.89109 -2.9898 0
M  V30 20581 H 1913.43 -1.14684 -3.54827 0
M  V30 20582 N 1915.62 1.13835 -1.08993 0
M  V30 20583 C 1916.87 1.84361 -0.818161 0
M  V30 20584 C 1917.18 1.84185 0.658437 0
M  V30 20585 O 1918.39 2.50559 1.04558 0
M  V30 20586 C 1916.84 3.30973 -1.41367 0
M  V30 20587 C 1916.45 3.3955 -2.92249 0
M  V30 20588 C 1918.19 4.06571 -1.22066 0
M  V30 20589 C 1916.1 4.80408 -3.44908 0
M  V30 20590 H 1915.03 0.690704 -0.302397 0
M  V30 20591 H 1917.68 1.28283 -1.31208 0
M  V30 20592 H 1916.06 3.86826 -0.84745 0
M  V30 20593 H 1917.24 2.93716 -3.5506 0
M  V30 20594 H 1915.55 2.77413 -3.10533 0
M  V30 20595 H 1918.15 5.10554 -1.58868 0
M  V30 20596 H 1918.49 4.15989 -0.160946 0
M  V30 20597 H 1919.03 3.57036 -1.75415 0
M  V30 20598 H 1915.76 4.76181 -4.5048 0
M  V30 20599 H 1915.28 5.26756 -2.86859 0
M  V30 20600 H 1916.96 5.49315 -3.4185 0
M  V30 20601 N 1917.1 0.876467 1.3098 0
M  V30 20602 C 1918.03 0.281625 2.26456 0
M  V30 20603 C 1919.01 -0.592945 1.51403 0
M  V30 20604 O 1920.19 -0.544929 1.80452 0
M  V30 20605 C 1917.32 -0.600618 3.33332 0
M  V30 20606 C 1916.36 0.203478 4.26014 0
M  V30 20607 S 1917.2 1.58623 5.11468 0
M  V30 20608 C 1918.35 0.710283 6.21857 0
M  V30 20609 H 1918.59 1.09094 2.76561 0
M  V30 20610 H 1916.12 0.675375 1.38845 0
M  V30 20611 H 1918.08 -1.10392 3.95378 0
M  V30 20612 H 1916.74 -1.38394 2.81968 0
M  V30 20613 H 1915.93 -0.469415 5.01809 0
M  V30 20614 H 1915.53 0.639107 3.68499 0
M  V30 20615 H 1917.82 -0.0763736 6.77457 0
M  V30 20616 H 1918.77 1.43957 6.93312 0
M  V30 20617 H 1919.18 0.274955 5.6383 0
M  V30 20618 N 1918.57 -1.44173 0.636557 0
M  V30 20619 C 1919.82 -2.01594 0.142933 0
M  V30 20620 C 1920.14 -1.50366 -1.24157 0
M  V30 20621 O 1919.41 -0.709463 -1.82602 0
M  V30 20622 H 1917.99 -0.745335 0.04985 0
M  V30 20623 H 1920.65 -1.76602 0.824479 0
M  V30 20624 H 1919.75 -3.11889 0.114775 0
M  V30 20625 N 1920.05 -0.377435 -1.53014 0
M  V30 20626 C 1921.3 0.208838 -2.01722 0
M  V30 20627 C 1921.63 1.47446 -1.26385 0
M  V30 20628 O 1920.91 1.91122 -0.360903 0
M  V30 20629 C 1921.19 0.4888 -3.56767 0
M  V30 20630 C 1921.04 -0.791285 -4.42785 0
M  V30 20631 C 1922.36 1.28443 -4.2094 0
M  V30 20632 H 1919.48 0.0744281 -0.733232 0
M  V30 20633 H 1922.12 -0.504664 -1.83175 0
M  V30 20634 H 1920.27 1.09662 -3.72702 0
M  V30 20635 H 1921.94 -1.42848 -4.38625 0
M  V30 20636 H 1920.19 -1.40914 -4.10275 0
M  V30 20637 H 1920.86 -0.550199 -5.49251 0
M  V30 20638 H 1923.33 0.770147 -4.08911 0
M  V30 20639 H 1922.21 1.44906 -5.29427 0
M  V30 20640 H 1922.47 2.29631 -3.77786 0
M  V30 20641 N 1921.53 1.57237 -0.106922 0
M  V30 20642 C 1922.48 2.15912 0.865145 0
M  V30 20643 C 1923.47 1.1051 1.2839 0
M  V30 20644 O 1924.68 1.28834 1.25705 0
M  V30 20645 H 1921.05 0.690837 0.297065 0
M  V30 20646 H 1923.02 2.96391 0.345677 0
M  V30 20647 C 1921.77 2.76355 2.11005 0
M  V30 20648 H 1921.1 3.57152 1.79674 0
M  V30 20649 H 1922.54 3.20963 2.77053 0
M  V30 20650 C 1921 1.72834 2.89188 0
M  V30 20651 O 1921.53 1.1744 3.84149 0
M  V30 20652 N 1919.73 1.43053 2.52951 0
M  V30 20653 H 1919.28 1.88289 1.75798 0
M  V30 20654 H 1919.24 0.740287 3.0556 0
M  V30 20655 N 1923.01 -0.166818 1.56715 0
M  V30 20656 C 1923.94 -1.2086 1.99787 0
M  V30 20657 C 1924.92 -1.45918 0.874178 0
M  V30 20658 O 1926.1 -1.57176 1.14058 0
M  V30 20659 C 1923.23 -2.54648 2.3616 0
M  V30 20660 C 1922.19 -2.44151 3.51532 0
M  V30 20661 C 1921.51 -3.82469 3.7366 0
M  V30 20662 C 1922.81 -1.9424 4.84838 0
M  V30 20663 H 1924.51 -0.850538 2.87065 0
M  V30 20664 H 1922.05 -0.407696 1.38108 0
M  V30 20665 H 1924.01 -3.27736 2.64891 0
M  V30 20666 H 1922.73 -2.92251 1.45797 0
M  V30 20667 H 1921.39 -1.73516 3.22936 0
M  V30 20668 H 1921.04 -4.17473 2.8058 0
M  V30 20669 H 1920.74 -3.76312 4.5129 0
M  V30 20670 H 1922.26 -4.57136 4.04796 0
M  V30 20671 H 1923.68 -2.57105 5.12416 0
M  V30 20672 H 1922.07 -1.99021 5.66137 0
M  V30 20673 H 1923.14 -0.89695 4.76532 0
M  V30 20674 N 1924.49 -1.51463 -0.435524 0
M  V30 20675 C 1925.73 -1.64221 -1.18481 0
M  V30 20676 C 1926.06 -0.359315 -1.91152 0
M  V30 20677 O 1925.32 0.656683 -1.84353 0
M  V30 20678 C 1925.62 -2.79695 -2.22498 0
M  V30 20679 C 1925.28 -4.18903 -1.66826 0
M  V30 20680 C 1923.94 -4.56773 -1.51366 0
M  V30 20681 C 1926.3 -5.05763 -1.2591 0
M  V30 20682 C 1923.62 -5.79207 -0.93467 0
M  V30 20683 C 1925.98 -6.28777 -0.694404 0
M  V30 20684 C 1924.64 -6.65419 -0.52672 0
M  V30 20685 H 1923.91 -0.600927 -0.433552 0
M  V30 20686 H 1926.56 -1.855 -0.475618 0
M  V30 20687 H 1924.86 -2.52646 -2.99462 0
M  V30 20688 H 1926.56 -2.86766 -2.80297 0
M  V30 20689 H 1923.15 -3.89046 -1.79835 0
M  V30 20690 H 1927.33 -4.7711 -1.36674 0
M  V30 20691 H 1922.59 -6.06242 -0.792531 0
M  V30 20692 H 1926.76 -6.95422 -0.36886 0
M  V30 20693 H 1924.39 -7.60162 -0.0759538 0
M  V30 20694 N 1925.96 0.691085 -1.4164 0
M  V30 20695 C 1926.93 1.78671 -1.43559 0
M  V30 20696 C 1927.93 1.5747 -0.325543 0
M  V30 20697 O 1929.12 1.64061 -0.585631 0
M  V30 20698 C 1926.25 3.17102 -1.25135 0
M  V30 20699 H 1927.44 1.78361 -2.41096 0
M  V30 20700 H 1925 0.899148 -1.27848 0
M  V30 20701 H 1925.73 3.23049 -0.284567 0
M  V30 20702 H 1925.52 3.33893 -2.05567 0
M  V30 20703 H 1927.01 3.97071 -1.29324 0
M  V30 20704 N 1927.44 1.27542 0.925789 0
M  V30 20705 C 1928.69 1.13767 1.67038 0
M  V30 20706 C 1929.01 -0.316603 1.92413 0
M  V30 20707 O 1928.28 -1.22124 1.53175 0
M  V30 20708 H 1926.86 0.41803 0.61908 0
M  V30 20709 H 1929.52 1.60097 1.11153 0
M  V30 20710 H 1928.62 1.66818 2.63777 0
M  V30 20711 N 1928.92 -1.13255 1.09595 0
M  V30 20712 C 1929.87 -2.1872 0.736907 0
M  V30 20713 C 1930.84 -1.63677 -0.282692 0
M  V30 20714 O 1932.02 -1.90094 -0.163936 0
M  V30 20715 C 1929.16 -3.44703 0.165494 0
M  V30 20716 C 1928.28 -4.13841 1.23934 0
M  V30 20717 C 1927.41 -5.27445 0.630499 0
M  V30 20718 C 1926.45 -5.88435 1.68554 0
M  V30 20719 N 1925.59 -6.93468 1.09759 0
M  V30 20720 H 1930.43 -2.48779 1.64052 0
M  V30 20721 H 1927.96 -1.22152 0.819597 0
M  V30 20722 H 1929.92 -4.16796 -0.183618 0
M  V30 20723 H 1928.55 -3.15088 -0.701377 0
M  V30 20724 H 1927.6 -3.40014 1.70571 0
M  V30 20725 H 1928.92 -4.5525 2.03834 0
M  V30 20726 H 1928.07 -6.06263 0.230332 0
M  V30 20727 H 1926.81 -4.8729 -0.200028 0
M  V30 20728 H 1925.81 -5.08311 2.09523 0
M  V30 20729 H 1927.04 -6.30663 2.51876 0
M  V30 20730 H 1924.98 -6.55366 0.288376 0
M  V30 20731 H 1924.9 -7.33429 1.83353 0
M  V30 20732 H 1926.17 -7.76133 0.723688 0
M  V30 20733 N 1930.4 -0.883401 -1.30514 0
M  V30 20734 C 1931.65 -0.501052 -1.96203 0
M  V30 20735 C 1931.97 0.949454 -1.69752 0
M  V30 20736 O 1931.23 1.68571 -0.994097 0
M  V30 20737 C 1931.53 -0.720655 -3.50059 0
M  V30 20738 C 1931.19 -2.146 -3.96557 0
M  V30 20739 C 1929.86 -2.53577 -4.08964 0
M  V30 20740 C 1932.21 -3.07496 -4.20827 0
M  V30 20741 C 1929.54 -3.84664 -4.43002 0
M  V30 20742 C 1931.89 -4.38113 -4.56333 0
M  V30 20743 C 1930.55 -4.76985 -4.66949 0
M  V30 20744 H 1929.82 -0.183348 -0.717959 0
M  V30 20745 H 1932.47 -1.11895 -1.55408 0
M  V30 20746 H 1930.77 -0.0197082 -3.91795 0
M  V30 20747 H 1932.47 -0.404442 -3.98955 0
M  V30 20748 H 1929.06 -1.83345 -3.87405 0
M  V30 20749 H 1933.24 -2.78604 -4.10723 0
M  V30 20750 H 1928.5 -4.14526 -4.4942 0
M  V30 20751 H 1932.67 -5.10133 -4.74064 0
M  V30 20752 H 1930.3 -5.786 -4.93079 0
M  V30 20753 N 1931.88 1.43833 -0.644194 0
M  V30 20754 C 1933.12 2.02748 -0.162722 0
M  V30 20755 C 1933.48 1.49857 1.20667 0
M  V30 20756 O 1932.77 0.678332 1.7919 0
M  V30 20757 C 1932.96 3.57249 -0.103941 0
M  V30 20758 C 1932.79 4.2513 -1.4661 0
M  V30 20759 C 1931.56 4.61572 -2.0562 0
M  V30 20760 C 1933.76 4.54728 -2.40265 0
M  V30 20761 N 1931.74 5.14482 -3.34934 0
M  V30 20762 C 1933.11 5.0886 -3.54205 0
M  V30 20763 C 1935.17 4.36689 -2.39181 0
M  V30 20764 C 1933.87 5.46853 -4.67273 0
M  V30 20765 C 1935.9 4.75738 -3.51322 0
M  V30 20766 C 1935.26 5.29996 -4.63987 0
M  V30 20767 H 1931.36 0.775085 -0.103767 0
M  V30 20768 H 1933.94 1.7514 -0.850534 0
M  V30 20769 H 1932.11 3.8444 0.553188 0
M  V30 20770 H 1933.85 4.0284 0.387567 0
M  V30 20771 H 1930.6 4.46317 -1.58425 0
M  V30 20772 H 1931.03 5.454 -4.01083 0
M  V30 20773 H 1935.67 3.94022 -1.53319 0
M  V30 20774 H 1933.39 5.88468 -5.53833 0
M  V30 20775 H 1936.97 4.63483 -3.51674 0
M  V30 20776 H 1935.85 5.59652 -5.49326 0
M  V30 20777 N 1933.35 0.385544 1.52811 0
M  V30 20778 C 1934.77 0.0353371 1.59561 0
M  V30 20779 C 1934.97 -1.44948 1.39973 0
M  V30 20780 O 1934.03 -2.21354 1.21484 0
M  V30 20781 C 1935.34 0.509155 2.96358 0
M  V30 20782 C 1936.89 0.465088 3.09525 0
M  V30 20783 C 1937.36 0.915035 4.48766 0
M  V30 20784 N 1938.85 0.870895 4.54939 0
M  V30 20785 C 1939.59 1.1905 5.60905 0
M  V30 20786 N 1939.08 1.58039 6.74534 0
M  V30 20787 N 1940.88 1.112 5.50991 0
M  V30 20788 H 1933.03 1.35224 1.63793 0
M  V30 20789 H 1935.29 0.554013 0.769268 0
M  V30 20790 H 1935 1.54604 3.15896 0
M  V30 20791 H 1934.87 -0.0937516 3.77083 0
M  V30 20792 H 1937.26 -0.562704 2.89685 0
M  V30 20793 H 1937.34 1.10375 2.30762 0
M  V30 20794 H 1936.98 1.94104 4.69346 0
M  V30 20795 H 1936.91 0.253422 5.2599 0
M  V30 20796 H 1939.4 0.583936 3.73361 0
M  V30 20797 H 1939.72 1.808 7.51353 0
M  V30 20798 H 1938.06 1.61922 6.75874 0
M  V30 20799 H 1941.25 0.806438 4.61101 0
M  V30 20800 H 1941.43 1.3644 6.33473 0
M  V30 20801 N 1934.83 -1.57178 0.115259 0
M  V30 20802 C 1936.07 -1.96951 -0.546776 0
M  V30 20803 C 1936.44 -0.996997 -1.64085 0
M  V30 20804 O 1937.64 -1.28396 -2.36152 0
M  V30 20805 C 1935.91 -3.41033 -1.06916 0
M  V30 20806 S 1937.47 -4.02816 -1.74024 0
M  V30 20807 H 1934.29 -0.688401 -0.177833 0
M  V30 20808 H 1936.89 -1.9448 0.199452 0
M  V30 20809 H 1935.59 -4.09565 -0.261661 0
M  V30 20810 H 1935.12 -3.47147 -1.85075 0
M  V30 20811 H 1937.14 -3.93268 -3.0258 0
M  V30 20812 N 1936.31 0.158505 -1.56801 0
M  V30 20813 C 1937.56 0.871408 -1.81905 0
M  V30 20814 C 1937.87 1.8285 -0.694632 0
M  V30 20815 O 1939.08 2.58471 -0.830953 0
M  V30 20816 C 1937.54 1.60017 -3.2237 0
M  V30 20817 C 1937.14 0.686065 -4.42716 0
M  V30 20818 C 1938.89 2.30054 -3.56757 0
M  V30 20819 C 1936.79 1.41579 -5.74203 0
M  V30 20820 H 1935.72 0.329148 -0.678364 0
M  V30 20821 H 1938.38 0.124216 -1.83079 0
M  V30 20822 H 1936.76 2.39258 -3.1555 0
M  V30 20823 H 1937.93 -0.0702946 -4.60746 0
M  V30 20824 H 1936.25 0.0947 -4.16292 0
M  V30 20825 H 1938.84 2.85268 -4.52246 0
M  V30 20826 H 1939.19 3.06002 -2.82256 0
M  V30 20827 H 1939.72 1.57744 -3.65187 0
M  V30 20828 H 1936.46 0.698382 -6.51769 0
M  V30 20829 H 1935.98 2.14515 -5.60128 0
M  V30 20830 H 1937.66 1.95983 -6.16603 0
M  V30 20831 N 1937.79 1.51692 0.427485 0
M  V30 20832 C 1938.74 1.74303 1.54017 0
M  V30 20833 C 1939.73 0.609588 1.58052 0
M  V30 20834 O 1940.94 0.791207 1.61678 0
M  V30 20835 H 1937.31 0.550902 0.51187 0
M  V30 20836 H 1939.28 2.67556 1.32123 0
M  V30 20837 C 1938.03 1.89415 2.91577 0
M  V30 20838 H 1937.36 2.76041 2.89208 0
M  V30 20839 H 1938.8 2.09244 3.68772 0
M  V30 20840 C 1937.25 0.656462 3.30442 0
M  V30 20841 O 1937.78 -0.184283 4.01277 0
M  V30 20842 N 1935.99 0.497681 2.86307 0
M  V30 20843 H 1935.54 1.18293 2.28833 0
M  V30 20844 H 1935.5 -0.329176 3.12672 0
M  V30 20845 N 1939.27 -0.683564 1.42004 0
M  V30 20846 C 1940.5 -1.46996 1.45175 0
M  V30 20847 C 1940.91 -1.89108 0.0589536 0
M  V30 20848 O 1940.25 -1.5814 -0.934737 0
M  V30 20849 C 1940.31 -2.75616 2.30816 0
M  V30 20850 C 1939.97 -2.55634 3.78814 0
M  V30 20851 C 1940.97 -2.20802 4.70683 0
M  V30 20852 C 1938.66 -2.70901 4.22987 0
M  V30 20853 C 1940.65 -2.01492 6.04715 0
M  V30 20854 C 1938.34 -2.51207 5.5708 0
M  V30 20855 C 1939.34 -2.16555 6.4776 0
M  V30 20856 O 1939.02 -1.97043 7.79378 0
M  V30 20857 H 1938.76 -0.459119 0.496171 0
M  V30 20858 H 1941.31 -0.848089 1.87074 0
M  V30 20859 H 1939.54 -3.40254 1.83751 0
M  V30 20860 H 1941.23 -3.37467 2.25545 0
M  V30 20861 H 1941.99 -2.08611 4.37843 0
M  V30 20862 H 1937.87 -2.96855 3.52702 0
M  V30 20863 H 1941.42 -1.74367 6.75457 0
M  V30 20864 H 1937.31 -2.62992 5.89496 0
M  V30 20865 H 1938.08 -2.11711 7.90646 0
M  V30 20866 N 1940.75 -1.28031 -0.919012 0
M  V30 20867 C 1941.97 -1.17714 -1.7015 0
M  V30 20868 C 1942.39 0.264914 -1.86932 0
M  V30 20869 O 1941.75 1.17957 -1.39256 0
M  V30 20870 C 1941.8 -1.86548 -3.09648 0
M  V30 20871 O 1941.52 -3.25121 -2.93646 0
M  V30 20872 C 1943.02 -1.82467 -4.04006 0
M  V30 20873 H 1940.24 -0.408863 -0.532045 0
M  V30 20874 H 1942.78 -1.69061 -1.1506 0
M  V30 20875 H 1940.94 -1.39085 -3.61572 0
M  V30 20876 H 1941.35 -3.59518 -3.81899 0
M  V30 20877 H 1942.83 -2.35229 -4.99371 0
M  V30 20878 H 1943.3 -0.795892 -4.31928 0
M  V30 20879 H 1943.91 -2.29585 -3.5801 0
M  V30 20880 N 1942.22 1.12672 -1.10194 0
M  V30 20881 C 1943.5 1.80442 -0.75499 0
M  V30 20882 C 1943.88 1.96988 0.758887 0
M  V30 20883 O 1943.23 1.54424 1.6842 0
M  V30 20884 C 1943.44 3.14969 -1.50317 0
M  V30 20885 C 1944.79 3.90205 -1.67409 0
M  V30 20886 O 1945.81 3.24618 -1.46634 0
M  V30 20887 O 1944.67 5.07864 -2.01833 0
M  V30 20888 H 1941.76 0.780952 -0.272109 0
M  V30 20889 H 1944.31 1.1953 -1.20461 0
M  V30 20890 H 1943.08 2.98202 -2.5336 0
M  V30 20891 H 1942.7 3.83587 -1.04625 0
M  V30 20892 N 1943.7 0.89031 1.30043 0
M  V30 20893 C 1944.95 0.51044 1.95548 0
M  V30 20894 C 1945.27 -0.944562 1.70596 0
M  V30 20895 O 1944.54 -1.66482 1.0325 0
M  V30 20896 H 1943.12 0.185776 0.723531 0
M  V30 20897 H 1945.78 1.13455 1.58474 0
M  V30 20898 H 1944.88 0.685155 3.04487 0
M  V30 20899 N 1945.18 -1.43489 0.651812 0
M  V30 20900 C 1946.09 -2.34564 -0.0413115 0
M  V30 20901 C 1947.11 -1.53803 -0.81368 0
M  V30 20902 O 1948.28 -1.86459 -0.761246 0
M  V30 20903 C 1945.35 -3.32063 -0.996745 0
M  V30 20904 C 1944.41 -4.28728 -0.221464 0
M  V30 20905 C 1943.64 -5.2157 -1.13139 0
M  V30 20906 O 1943.86 -5.18804 -2.37062 0
M  V30 20907 O 1942.8 -5.98856 -0.604552 0
M  V30 20908 H 1946.62 -2.95325 0.708295 0
M  V30 20909 H 1944.21 -1.43607 0.411999 0
M  V30 20910 H 1946.09 -3.92022 -1.54586 0
M  V30 20911 H 1944.77 -2.73807 -1.7266 0
M  V30 20912 H 1943.67 -3.72254 0.371205 0
M  V30 20913 H 1945.01 -4.89962 0.468797 0
M  V30 20914 N 1946.66 -0.393643 -1.52605 0
M  V30 20915 C 1947.9 0.187154 -2.01633 0
M  V30 20916 C 1948.23 1.46451 -1.27993 0
M  V30 20917 O 1947.49 1.92169 -0.370063 0
M  V30 20918 C 1947.79 0.497148 -3.53925 0
M  V30 20919 C 1947.45 -0.689176 -4.45602 0
M  V30 20920 C 1946.11 -1.01462 -4.70382 0
M  V30 20921 C 1948.47 -1.48262 -4.99668 0
M  V30 20922 C 1945.79 -2.13497 -5.46476 0
M  V30 20923 C 1948.15 -2.59361 -5.76987 0
M  V30 20924 C 1946.81 -2.92409 -6.00044 0
M  V30 20925 H 1946.08 0.0684846 -0.737828 0
M  V30 20926 H 1948.73 -0.531882 -1.83965 0
M  V30 20927 H 1947.03 1.29756 -3.6969 0
M  V30 20928 H 1948.73 0.959239 -3.89358 0
M  V30 20929 H 1945.32 -0.425524 -4.26482 0
M  V30 20930 H 1949.5 -1.24443 -4.80445 0
M  V30 20931 H 1944.76 -2.39467 -5.62553 0
M  V30 20932 H 1948.93 -3.21241 -6.17881 0
M  V30 20933 H 1946.56 -3.79341 -6.5879 0
M  V30 20934 N 1948.14 1.57115 -0.123593 0
M  V30 20935 C 1949.36 2.00133 0.544196 0
M  V30 20936 C 1949.79 1.00282 1.59139 0
M  V30 20937 O 1949.14 -0.0248396 1.81283 0
M  V30 20938 C 1949.19 3.4201 1.14287 0
M  V30 20939 O 1948.3 3.45071 2.25832 0
M  V30 20940 H 1947.64 0.650029 0.135492 0
M  V30 20941 H 1950.17 2.03484 -0.213423 0
M  V30 20942 H 1950.18 3.80316 1.47728 0
M  V30 20943 H 1948.85 4.14198 0.375866 0
M  V30 20944 H 1947.43 3.18587 1.93795 0
M  V30 20945 N 1949.61 -0.150187 1.56883 0
M  V30 20946 C 1950.54 -1.18735 2.01058 0
M  V30 20947 C 1951.52 -1.44983 0.889606 0
M  V30 20948 O 1952.71 -1.55958 1.15719 0
M  V30 20949 C 1949.84 -2.52129 2.38848 0
M  V30 20950 C 1948.79 -2.40408 3.54101 0
M  V30 20951 C 1948.12 -3.78484 3.77695 0
M  V30 20952 C 1949.42 -1.89087 4.86871 0
M  V30 20953 H 1951.11 -0.820044 2.87951 0
M  V30 20954 H 1948.66 -0.393025 1.38533 0
M  V30 20955 H 1950.61 -3.24908 2.68352 0
M  V30 20956 H 1949.34 -2.90688 1.48889 0
M  V30 20957 H 1948 -1.70082 3.24758 0
M  V30 20958 H 1947.64 -4.14474 2.84992 0
M  V30 20959 H 1947.34 -3.71504 4.55256 0
M  V30 20960 H 1948.87 -4.52816 4.09621 0
M  V30 20961 H 1950.28 -2.51656 5.15114 0
M  V30 20962 H 1948.68 -1.93005 5.68216 0
M  V30 20963 H 1949.75 -0.846357 4.77457 0
M  V30 20964 N 1951.09 -1.51916 -0.419434 0
M  V30 20965 C 1952.34 -1.65714 -1.16905 0
M  V30 20966 C 1952.67 -0.380888 -1.90428 0
M  V30 20967 O 1951.95 0.620297 -1.84344 0
M  V30 20968 C 1952.23 -2.87239 -2.17177 0
M  V30 20969 C 1952.08 -4.24887 -1.47619 0
M  V30 20970 C 1953.4 -3.04281 -3.17964 0
M  V30 20971 H 1950.52 -0.603072 -0.423643 0
M  V30 20972 H 1953.16 -1.84446 -0.456035 0
M  V30 20973 H 1951.31 -2.71398 -2.77984 0
M  V30 20974 H 1952.98 -4.52433 -0.900112 0
M  V30 20975 H 1951.23 -4.26761 -0.778273 0
M  V30 20976 H 1951.9 -5.05945 -2.20733 0
M  V30 20977 H 1954.37 -3.18951 -2.67226 0
M  V30 20978 H 1953.25 -3.90843 -3.85399 0
M  V30 20979 H 1953.51 -2.17138 -3.85102 0
M  V30 20980 N 1952.57 0.676023 -1.42365 0
M  V30 20981 C 1953.98 1.25659 -1.38082 0
M  V30 20982 C 1954.33 1.96062 -0.0734945 0
M  V30 20983 O 1953.46 1.99941 0.827793 0
M  V30 20984 C 1954.05 2.28531 -2.50118 0
M  V30 20985 C 1952.61 2.82117 -2.49172 0
M  V30 20986 C 1951.76 1.56422 -2.28971 0
M  V30 20987 H 1954.71 0.469489 -1.51596 0
M  V30 20988 H 1954.73 3.1024 -2.20299 0
M  V30 20989 H 1954.24 1.77261 -3.45254 0
M  V30 20990 H 1952.34 3.37511 -1.57851 0
M  V30 20991 H 1952.46 3.31216 -3.46168 0
M  V30 20992 H 1950.82 1.82946 -1.77208 0
M  V30 20993 H 1951.6 1.0712 -3.2616 0
M  V30 20994 N 1954.05 1.28517 0.912209 0
M  V30 20995 C 1954.98 1.15113 2.03153 0
M  V30 20996 C 1955.96 0.0485128 1.70031 0
M  V30 20997 O 1957.14 0.225778 1.92883 0
M  V30 20998 C 1954.27 0.81381 3.37631 0
M  V30 20999 C 1953.23 1.87137 3.8492 0
M  V30 21000 C 1952.55 1.38765 5.1638 0
M  V30 21001 C 1953.85 3.27819 4.06611 0
M  V30 21002 H 1955.55 2.0875 2.14625 0
M  V30 21003 H 1953.09 1.00504 1.03126 0
M  V30 21004 H 1955.05 0.706804 4.1543 0
M  V30 21005 H 1953.77 -0.15826 3.26216 0
M  V30 21006 H 1952.43 1.96755 3.09327 0
M  V30 21007 H 1952.08 0.404598 5.0137 0
M  V30 21008 H 1951.78 2.09482 5.48991 0
M  V30 21009 H 1953.3 1.29389 5.96733 0
M  V30 21010 H 1954.72 3.21114 4.7493 0
M  V30 21011 H 1953.11 3.96384 4.50555 0
M  V30 21012 H 1954.18 3.71723 3.11368 0
M  V30 21013 N 1955.53 -1.12086 1.1079 0
M  V30 21014 C 1956.75 -1.88034 0.875097 0
M  V30 21015 C 1957.18 -1.79281 -0.569191 0
M  V30 21016 O 1956.53 -1.15037 -1.40129 0
M  V30 21017 C 1956.58 -3.35066 1.33278 0
M  V30 21018 O 1955.69 -4.09356 0.500163 0
M  V30 21019 H 1955.03 -0.584116 0.31576 0
M  V30 21020 H 1957.56 -1.41725 1.47564 0
M  V30 21021 H 1957.57 -3.85908 1.32434 0
M  V30 21022 H 1956.24 -3.40753 2.38453 0
M  V30 21023 H 1954.82 -3.68454 0.574137 0
M  V30 21024 N 1957 -0.897194 -1.29569 0
M  V30 21025 C 1958.25 -0.517823 -1.9494 0
M  V30 21026 C 1958.57 0.940096 -1.71527 0
M  V30 21027 O 1959.77 1.42687 -2.30982 0
M  V30 21028 C 1958.23 -0.875183 -3.49097 0
M  V30 21029 C 1957.84 -2.3517 -3.81312 0
M  V30 21030 C 1959.58 -0.565601 -4.20715 0
M  V30 21031 C 1957.49 -2.65005 -5.28702 0
M  V30 21032 H 1956.42 -0.189928 -0.729687 0
M  V30 21033 H 1959.07 -1.09385 -1.47334 0
M  V30 21034 H 1957.45 -0.228115 -3.95342 0
M  V30 21035 H 1958.62 -3.04411 -3.45934 0
M  V30 21036 H 1956.94 -2.63005 -3.22827 0
M  V30 21037 H 1959.54 -0.765387 -5.29194 0
M  V30 21038 H 1959.88 0.49573 -4.13338 0
M  V30 21039 H 1960.41 -1.1704 -3.80193 0
M  V30 21040 H 1957.15 -3.69927 -5.41142 0
M  V30 21041 H 1956.67 -2.00386 -5.65337 0
M  V30 21042 H 1958.35 -2.51141 -5.96269 0
M  V30 21043 N 1958.48 1.43142 -0.659413 0
M  V30 21044 C 1959.73 2.02038 -0.175593 0
M  V30 21045 C 1960.06 1.5194 1.20946 0
M  V30 21046 O 1959.34 0.715095 1.80877 0
M  V30 21047 C 1959.62 3.59581 -0.193256 0
M  V30 21048 C 1959.47 4.19896 -1.61267 0
M  V30 21049 C 1960.79 4.37616 0.466976 0
M  V30 21050 H 1957.91 0.734103 -0.0652811 0
M  V30 21051 H 1960.55 1.7036 -0.841276 0
M  V30 21052 H 1958.7 3.867 0.373574 0
M  V30 21053 H 1960.37 4.03786 -2.23056 0
M  V30 21054 H 1958.62 3.7631 -2.15807 0
M  V30 21055 H 1959.29 5.28999 -1.57683 0
M  V30 21056 H 1961.76 4.16097 -0.0153667 0
M  V30 21057 H 1960.64 5.47261 0.423915 0
M  V30 21058 H 1960.9 4.14332 1.54211 0
M  V30 21059 N 1959.96 0.40173 1.52394 0
M  V30 21060 C 1960.91 -0.442142 2.28359 0
M  V30 21061 C 1961.9 -1.05228 1.32753 0
M  V30 21062 O 1963.11 -0.991332 1.50242 0
M  V30 21063 H 1959.48 -0.161356 0.734485 0
M  V30 21064 H 1961.45 0.219869 2.97589 0
M  V30 21065 C 1960.2 -1.55062 3.11209 0
M  V30 21066 H 1959.53 -1.09046 3.84642 0
M  V30 21067 H 1960.97 -2.11505 3.6748 0
M  V30 21068 C 1959.43 -2.51376 2.24303 0
M  V30 21069 O 1959.96 -3.55084 1.87825 0
M  V30 21070 N 1958.16 -2.2141 1.88218 0
M  V30 21071 H 1957.71 -1.37106 2.18082 0
M  V30 21072 H 1957.67 -2.861 1.30362 0
M  V30 21073 N 1961.44 -1.57047 0.131923 0
M  V30 21074 C 1962.39 -2.17261 -0.830686 0
M  V30 21075 C 1963.38 -1.12538 -1.26616 0
M  V30 21076 O 1964.59 -1.30818 -1.23639 0
M  V30 21077 H 1960.96 -0.695476 -0.286037 0
M  V30 21078 H 1962.93 -2.96903 -0.29848 0
M  V30 21079 C 1961.68 -2.79677 -2.06582 0
M  V30 21080 H 1961 -3.59965 -1.73969 0
M  V30 21081 H 1962.44 -3.2533 -2.71912 0
M  V30 21082 C 1960.9 -1.77413 -2.86402 0
M  V30 21083 O 1961.43 -1.23537 -3.82232 0
M  V30 21084 N 1959.64 -1.47059 -2.50643 0
M  V30 21085 H 1959.19 -1.91062 -1.7278 0
M  V30 21086 H 1959.14 -0.788806 -3.04344 0
M  V30 21087 N 1962.92 0.141865 -1.5696 0
M  V30 21088 C 1963.86 1.175 -1.98651 0
M  V30 21089 C 1964.83 1.42409 -0.854918 0
M  V30 21090 O 1966.02 1.54658 -1.11738 0
M  V30 21091 C 1963.16 2.50222 -2.37661 0
M  V30 21092 C 1962.27 2.32443 -3.64135 0
M  V30 21093 C 1961.41 3.58236 -3.92225 0
M  V30 21094 C 1960.45 3.35516 -5.11952 0
M  V30 21095 N 1959.58 4.53452 -5.36027 0
M  V30 21096 H 1964.42 0.812473 -2.8671 0
M  V30 21097 H 1961.96 0.389721 -1.41844 0
M  V30 21098 H 1963.92 3.27616 -2.58309 0
M  V30 21099 H 1962.55 2.84412 -1.52675 0
M  V30 21100 H 1961.6 1.46078 -3.51234 0
M  V30 21101 H 1962.91 2.11618 -4.51685 0
M  V30 21102 H 1962.07 4.44057 -4.13399 0
M  V30 21103 H 1960.8 3.8207 -3.03106 0
M  V30 21104 H 1959.81 2.48084 -4.90647 0
M  V30 21105 H 1961.03 3.13075 -6.02628 0
M  V30 21106 H 1958.98 4.7745 -4.49864 0
M  V30 21107 H 1958.9 4.35648 -6.17856 0
M  V30 21108 H 1960.17 5.40472 -5.61703 0
M  V30 21109 N 1964.39 1.52136 0.411372 0
M  V30 21110 C 1965.62 1.70223 1.18486 0
M  V30 21111 C 1966.04 0.409966 1.83578 0
M  V30 21112 O 1965.4 -0.632366 1.69914 0
M  V30 21113 C 1965.45 2.83744 2.22535 0
M  V30 21114 O 1964.55 2.49157 3.28625 0
M  V30 21115 H 1963.9 0.566741 0.345978 0
M  V30 21116 H 1966.43 1.98829 0.482526 0
M  V30 21117 H 1966.44 3.08591 2.669 0
M  V30 21118 H 1965.11 3.77503 1.74541 0
M  V30 21119 H 1963.69 2.34974 2.89554 0
M  V30 21120 N 1965.87 -0.668464 1.42721 0
M  V30 21121 C 1967.15 -1.42481 1.3401 0
M  V30 21122 C 1967.53 -2.11091 -0.0194821 0
M  V30 21123 O 1966.88 -2.037 -1.03531 0
M  V30 21124 C 1967.09 -2.42205 2.51272 0
M  V30 21125 C 1968.44 -3.0666 2.93675 0
M  V30 21126 O 1969.46 -2.52532 2.51209 0
M  V30 21127 O 1968.32 -4.04761 3.67193 0
M  V30 21128 H 1965.41 -0.635831 0.528818 0
M  V30 21129 H 1967.96 -0.696654 1.54741 0
M  V30 21130 H 1966.73 -1.90349 3.41881 0
M  V30 21131 H 1966.35 -3.22492 2.32561 0
M  V30 21132 N 1967.35 -1.28999 -0.905381 0
M  V30 21133 C 1968.59 -1.17901 -1.66969 0
M  V30 21134 C 1968.96 0.26635 -1.90144 0
M  V30 21135 O 1970.16 0.500188 -2.64105 0
M  V30 21136 C 1968.43 -1.9641 -2.98593 0
M  V30 21137 S 1969.99 -2.01783 -3.89653 0
M  V30 21138 H 1966.8 -0.420505 -0.573321 0
M  V30 21139 H 1969.41 -1.6321 -1.07624 0
M  V30 21140 H 1968.11 -3.00573 -2.79435 0
M  V30 21141 H 1967.64 -1.51684 -3.62981 0
M  V30 21142 H 1969.66 -1.13039 -4.83153 0
M  V30 21143 N 1968.83 1.11497 -1.11383 0
M  V30 21144 C 1969.78 2.1752 -0.771611 0
M  V30 21145 C 1970.75 1.64106 0.256616 0
M  V30 21146 O 1971.93 1.90331 0.133672 0
M  V30 21147 C 1969.07 3.44396 -0.220313 0
M  V30 21148 C 1968.18 4.11817 -1.30503 0
M  V30 21149 C 1967.32 5.26375 -0.714331 0
M  V30 21150 C 1966.36 5.85679 -1.77894 0
M  V30 21151 N 1965.5 6.91634 -1.20778 0
M  V30 21152 H 1970.34 2.46138 -1.67989 0
M  V30 21153 H 1967.87 1.20832 -0.838927 0
M  V30 21154 H 1969.83 4.17035 0.117286 0
M  V30 21155 H 1968.46 3.16164 0.651161 0
M  V30 21156 H 1967.51 3.37258 -1.75959 0
M  V30 21157 H 1968.82 4.5195 -2.11051 0
M  V30 21158 H 1967.98 6.05819 -0.326754 0
M  V30 21159 H 1966.72 4.87546 0.12248 0
M  V30 21160 H 1965.72 5.04914 -2.17583 0
M  V30 21161 H 1966.95 6.26576 -2.61877 0
M  V30 21162 H 1964.89 6.54824 -0.392602 0
M  V30 21163 H 1964.81 7.30419 -1.94998 0
M  V30 21164 H 1966.08 7.74884 -0.847072 0
M  V30 21165 N 1970.31 0.904053 1.29092 0
M  V30 21166 C 1971.56 0.528154 1.94662 0
M  V30 21167 C 1971.87 -0.930986 1.72023 0
M  V30 21168 O 1973.08 -1.4146 2.31735 0
M  V30 21169 C 1971.53 0.893684 3.48628 0
M  V30 21170 C 1971.14 2.37189 3.8006 0
M  V30 21171 C 1972.88 0.587904 4.20409 0
M  V30 21172 C 1970.79 2.67805 5.2729 0
M  V30 21173 H 1969.72 0.193795 0.72867 0
M  V30 21174 H 1972.37 1.10164 1.46752 0
M  V30 21175 H 1970.75 0.249078 3.95216 0
M  V30 21176 H 1971.93 3.06241 3.44315 0
M  V30 21177 H 1970.24 2.64714 3.21428 0
M  V30 21178 H 1972.84 0.793441 5.2878 0
M  V30 21179 H 1973.18 -0.473803 4.13595 0
M  V30 21180 H 1973.72 1.19054 3.79567 0
M  V30 21181 H 1970.45 3.72791 5.39172 0
M  V30 21182 H 1969.97 2.03381 5.64266 0
M  V30 21183 H 1971.65 2.543 5.94929 0
M  V30 21184 N 1971.79 -1.4279 0.666995 0
M  V30 21185 C 1972.72 -2.29134 -0.0550112 0
M  V30 21186 C 1973.73 -1.43259 -0.773357 0
M  V30 21187 O 1974.92 -1.67057 -0.628816 0
M  V30 21188 C 1972.02 -3.20503 -1.1014 0
M  V30 21189 C 1971.19 -4.34991 -0.458443 0
M  V30 21190 C 1970.25 -5.07136 -1.40356 0
M  V30 21191 O 1969.28 -5.61929 -0.90686 0
M  V30 21192 N 1970.48 -5.1192 -2.73712 0
M  V30 21193 H 1973.24 -2.9174 0.686156 0
M  V30 21194 H 1970.81 -1.5363 0.510814 0
M  V30 21195 H 1972.8 -3.65634 -1.73477 0
M  V30 21196 H 1971.37 -2.59403 -1.74439 0
M  V30 21197 H 1970.59 -3.92605 0.354287 0
M  V30 21198 H 1971.88 -5.08799 -0.0101948 0
M  V30 21199 H 1971.27 -4.68799 -3.16613 0
M  V30 21200 H 1969.83 -5.60722 -3.32316 0
M  V30 21201 N 1973.26 -0.409806 -1.52179 0
M  V30 21202 C 1974.21 0.430025 -2.2859 0
M  V30 21203 C 1975.21 1.04523 -1.33309 0
M  V30 21204 O 1976.41 0.98335 -1.50765 0
M  V30 21205 H 1972.79 0.157459 -0.73533 0
M  V30 21206 H 1974.76 -0.235647 -2.97468 0
M  V30 21207 C 1973.51 1.53409 -3.12027 0
M  V30 21208 H 1972.83 1.07004 -3.85214 0
M  V30 21209 H 1974.27 2.09553 -3.68597 0
M  V30 21210 C 1972.73 2.50183 -2.25633 0
M  V30 21211 O 1973.26 3.54083 -1.89705 0
M  V30 21212 N 1971.46 2.20409 -1.8939 0
M  V30 21213 H 1971.01 1.35948 -2.18806 0
M  V30 21214 H 1970.97 2.85404 -1.31878 0
M  V30 21215 N 1974.74 1.56975 -0.14025 0
M  V30 21216 C 1975.97 2.00699 0.522938 0
M  V30 21217 C 1976.39 1.01964 1.58066 0
M  V30 21218 O 1975.75 -0.0056107 1.81299 0
M  V30 21219 C 1975.8 3.43203 1.10653 0
M  V30 21220 O 1974.9 3.47447 2.22159 0
M  V30 21221 H 1974.24 0.65143 0.12859 0
M  V30 21222 H 1976.77 2.03246 -0.234993 0
M  V30 21223 H 1976.78 3.81862 1.43686 0
M  V30 21224 H 1975.46 4.14573 0.331913 0
M  V30 21225 H 1974.03 3.20625 1.90405 0
M  V30 21226 N 1976.22 -0.133539 1.57033 0
M  V30 21227 C 1977.45 -0.858432 1.88251 0
M  V30 21228 C 1977.86 -1.74119 0.729935 0
M  V30 21229 O 1977.22 -1.8002 -0.29983 0
M  V30 21230 C 1977.27 -1.70397 3.18821 0
M  V30 21231 O 1976.99 -0.856775 4.29641 0
M  V30 21232 C 1978.49 -2.53529 3.63646 0
M  V30 21233 H 1975.71 -0.247538 0.623671 0
M  V30 21234 H 1978.26 -0.122289 2.04134 0
M  V30 21235 H 1976.41 -2.39303 3.04652 0
M  V30 21236 H 1976.83 -1.43857 5.04386 0
M  V30 21237 H 1978.3 -3.0841 4.57807 0
M  V30 21238 H 1978.78 -3.30204 2.89589 0
M  V30 21239 H 1979.38 -1.89891 3.80554 0
M  V30 21240 N 1977.7 -1.52352 -0.403298 0
M  V30 21241 C 1978.95 -1.66368 -1.14744 0
M  V30 21242 C 1979.27 -0.398899 -1.90876 0
M  V30 21243 O 1978.54 0.586372 -1.86918 0
M  V30 21244 H 1977.12 -0.613226 -0.426571 0
M  V30 21245 H 1979.78 -1.89416 -0.459075 0
M  V30 21246 H 1978.87 -2.50748 -1.85828 0
M  V30 21247 N 1979.18 0.660885 -1.43074 0
M  V30 21248 C 1980.4 1.45376 -1.47921 0
M  V30 21249 C 1980.83 1.87855 -0.0960289 0
M  V30 21250 O 1980.18 1.5689 0.908583 0
M  V30 21251 C 1980.23 2.67002 -2.42368 0
M  V30 21252 O 1979.34 3.65783 -1.90465 0
M  V30 21253 H 1978.68 0.436193 -0.500632 0
M  V30 21254 H 1981.21 0.809399 -1.87909 0
M  V30 21255 H 1981.22 3.14909 -2.59416 0
M  V30 21256 H 1979.89 2.35426 -3.42852 0
M  V30 21257 H 1978.47 3.24885 -1.83041 0
M  V30 21258 N 1980.65 1.29477 0.898527 0
M  V30 21259 C 1981.9 1.17516 1.64913 0
M  V30 21260 C 1982.23 -0.273086 1.92573 0
M  V30 21261 O 1981.48 -1.21353 1.53531 0
M  V30 21262 C 1981.78 1.93505 3.00484 0
M  V30 21263 C 1981.45 3.43216 2.92427 0
M  V30 21264 C 1980.11 3.84044 2.89937 0
M  V30 21265 C 1982.46 4.38611 2.81548 0
M  V30 21266 C 1979.79 5.18582 2.74389 0
M  V30 21267 C 1982.14 5.73241 2.67539 0
M  V30 21268 C 1980.81 6.13326 2.63416 0
M  V30 21269 H 1980.08 0.430023 0.603458 0
M  V30 21270 H 1982.72 1.60427 1.04572 0
M  V30 21271 H 1981.03 1.43189 3.64698 0
M  V30 21272 H 1982.73 1.81654 3.57495 0
M  V30 21273 H 1979.32 3.10763 2.95168 0
M  V30 21274 H 1983.5 4.0802 2.82548 0
M  V30 21275 H 1978.76 5.48748 2.69602 0
M  V30 21276 H 1982.93 6.46808 2.58093 0
M  V30 21277 H 1980.56 7.17523 2.51126 0
M  V30 21278 N 1982.13 -1.10905 1.11972 0
M  V30 21279 C 1983.38 -1.82762 0.872019 0
M  V30 21280 C 1983.71 -1.84941 -0.602247 0
M  V30 21281 O 1982.96 -1.30212 -1.46094 0
M  V30 21282 C 1983.26 -3.29439 1.38581 0
M  V30 21283 C 1982.93 -3.47414 2.87427 0
M  V30 21284 C 1981.59 -3.52027 3.2807 0
M  V30 21285 C 1983.94 -3.53209 3.83266 0
M  V30 21286 C 1981.27 -3.59998 4.63269 0
M  V30 21287 C 1983.62 -3.62712 5.18288 0
M  V30 21288 C 1982.29 -3.65588 5.58482 0
M  V30 21289 H 1981.56 -0.668775 0.319094 0
M  V30 21290 H 1984.2 -1.30759 1.39908 0
M  V30 21291 H 1982.51 -3.83976 0.779104 0
M  V30 21292 H 1984.2 -3.83539 1.17042 0
M  V30 21293 H 1980.79 -3.44497 2.5499 0
M  V30 21294 H 1984.98 -3.489 3.52963 0
M  V30 21295 H 1980.23 -3.60504 4.93808 0
M  V30 21296 H 1984.41 -3.6614 5.9238 0
M  V30 21297 H 1982.04 -3.71517 6.63234 0
M  V30 21298 N 1983.61 -0.910886 -1.2861 0
M  V30 21299 C 1984.86 -0.552803 -1.95744 0
M  V30 21300 C 1985.21 0.893164 -1.70412 0
M  V30 21301 O 1984.5 1.62635 -1.01294 0
M  V30 21302 C 1984.7 -0.794745 -3.48452 0
M  V30 21303 C 1984.53 -2.26268 -3.8863 0
M  V30 21304 C 1983.3 -2.91225 -4.12936 0
M  V30 21305 C 1985.5 -3.23885 -3.99503 0
M  V30 21306 N 1983.48 -4.28345 -4.39766 0
M  V30 21307 C 1984.85 -4.46159 -4.30513 0
M  V30 21308 C 1986.9 -3.19323 -3.82017 0
M  V30 21309 C 1985.61 -5.64449 -4.45859 0
M  V30 21310 C 1987.63 -4.36908 -3.98579 0
M  V30 21311 C 1986.99 -5.57956 -4.29959 0
M  V30 21312 H 1983.09 -0.252102 -0.740249 0
M  V30 21313 H 1985.68 -1.17402 -1.55322 0
M  V30 21314 H 1983.85 -0.20282 -3.8787 0
M  V30 21315 H 1985.58 -0.400978 -4.02709 0
M  V30 21316 H 1982.34 -2.41967 -4.07123 0
M  V30 21317 H 1982.76 -4.99234 -4.57269 0
M  V30 21318 H 1987.4 -2.26818 -3.5681 0
M  V30 21319 H 1985.12 -6.57435 -4.69898 0
M  V30 21320 H 1988.71 -4.34877 -3.86488 0
M  V30 21321 H 1987.59 -6.47426 -4.42503 0
M  V30 21322 N 1985.09 1.42434 -0.674558 0
M  V30 21323 C 1986.33 2.01841 -0.197012 0
M  V30 21324 C 1986.67 1.53214 1.19328 0
M  V30 21325 O 1985.94 0.734239 1.80109 0
M  V30 21326 C 1986.23 3.59356 -0.231383 0
M  V30 21327 C 1986.08 4.18162 -1.65711 0
M  V30 21328 C 1987.4 4.38086 0.420535 0
M  V30 21329 H 1984.52 0.733369 -0.0730636 0
M  V30 21330 H 1987.16 1.69458 -0.859297 0
M  V30 21331 H 1985.31 3.87074 0.332539 0
M  V30 21332 H 1986.98 4.01398 -2.27327 0
M  V30 21333 H 1985.22 3.74 -2.19787 0
M  V30 21334 H 1985.89 5.27297 -1.63285 0
M  V30 21335 H 1988.37 4.16057 -0.0594985 0
M  V30 21336 H 1987.25 5.47679 0.365847 0
M  V30 21337 H 1987.51 4.15945 1.49808 0
M  V30 21338 N 1986.57 0.417871 1.51959 0
M  V30 21339 C 1987.51 -0.417897 2.28815 0
M  V30 21340 C 1988.51 -1.03814 1.33862 0
M  V30 21341 O 1989.71 -0.975341 1.51285 0
M  V30 21342 H 1986.09 -0.153557 0.736155 0
M  V30 21343 H 1988.06 0.25142 2.97339 0
M  V30 21344 C 1986.81 -1.51752 3.12836 0
M  V30 21345 H 1986.13 -1.0496 3.85776 0
M  V30 21346 H 1987.57 -2.07595 3.69703 0
M  V30 21347 C 1986.03 -2.48983 2.26957 0
M  V30 21348 O 1986.56 -3.53072 1.91581 0
M  V30 21349 N 1984.77 -2.19401 1.90556 0
M  V30 21350 H 1984.31 -1.34786 2.19524 0
M  V30 21351 H 1984.27 -2.84701 1.3339 0
M  V30 21352 N 1988.04 -1.56898 0.148573 0
M  V30 21353 C 1989.29 -1.96466 -0.50289 0
M  V30 21354 C 1989.62 -1.03355 -1.64412 0
M  V30 21355 O 1988.9 -0.0762411 -1.94351 0
M  V30 21356 C 1989.18 -3.45717 -1.00757 0
M  V30 21357 C 1989.03 -4.49605 0.132277 0
M  V30 21358 C 1990.35 -3.97506 -1.88883 0
M  V30 21359 H 1987.47 -0.714345 -0.181328 0
M  V30 21360 H 1990.11 -1.88601 0.230117 0
M  V30 21361 H 1988.26 -3.5255 -1.6322 0
M  V30 21362 H 1989.94 -4.54851 0.76867 0
M  V30 21363 H 1988.18 -4.26524 0.791189 0
M  V30 21364 H 1988.85 -5.51375 -0.262585 0
M  V30 21365 H 1991.33 -3.93162 -1.36246 0
M  V30 21366 H 1990.2 -5.02399 -2.21104 0
M  V30 21367 H 1990.46 -3.39956 -2.82635 0
M  V30 21368 N 1989.52 0.125209 -1.57102 0
M  V30 21369 C 1990.47 1.15387 -1.99886 0
M  V30 21370 C 1991.44 1.41494 -0.869974 0
M  V30 21371 O 1992.62 1.53464 -1.13372 0
M  V30 21372 C 1989.76 2.47687 -2.40302 0
M  V30 21373 C 1988.88 2.28568 -3.6658 0
M  V30 21374 C 1988.01 3.54056 -3.96003 0
M  V30 21375 C 1987.05 3.30067 -5.15482 0
M  V30 21376 N 1986.19 4.47741 -5.40807 0
M  V30 21377 H 1991.03 0.782018 -2.87556 0
M  V30 21378 H 1988.57 0.374655 -1.42249 0
M  V30 21379 H 1990.52 3.24858 -2.61769 0
M  V30 21380 H 1989.15 2.82777 -1.55683 0
M  V30 21381 H 1988.21 1.42345 -3.52764 0
M  V30 21382 H 1989.52 2.06815 -4.53904 0
M  V30 21383 H 1988.67 4.39647 -4.18085 0
M  V30 21384 H 1987.41 3.78834 -3.07142 0
M  V30 21385 H 1986.42 2.42866 -4.93251 0
M  V30 21386 H 1987.64 3.06666 -6.05915 0
M  V30 21387 H 1985.59 4.72652 -4.54902 0
M  V30 21388 H 1985.5 4.2907 -6.22442 0
M  V30 21389 H 1986.77 5.34484 -5.67404 0
M  V30 21390 N 1991 1.52564 0.395213 0
M  V30 21391 C 1992.25 1.67552 1.14254 0
M  V30 21392 C 1992.58 0.411135 1.89798 0
M  V30 21393 O 1991.85 -0.590891 1.85307 0
M  V30 21394 C 1992.14 2.90657 2.1258 0
M  V30 21395 C 1991.99 4.27181 1.40841 0
M  V30 21396 C 1993.31 3.09301 3.13083 0
M  V30 21397 H 1990.43 0.609735 0.413995 0
M  V30 21398 H 1993.07 1.85148 0.426634 0
M  V30 21399 H 1991.22 2.75787 2.73631 0
M  V30 21400 H 1992.89 4.53808 0.82802 0
M  V30 21401 H 1991.14 4.27946 0.71028 0
M  V30 21402 H 1991.81 5.09393 2.12656 0
M  V30 21403 H 1994.28 3.23162 2.62118 0
M  V30 21404 H 1993.16 3.96925 3.79133 0
M  V30 21405 H 1993.42 2.23237 3.81599 0
M  V30 21406 N 1992.48 -0.653289 1.43422 0
M  V30 21407 C 1993.43 -1.78742 1.48842 0
M  V30 21408 C 1994.42 -1.65486 0.362035 0
M  V30 21409 O 1995.63 -1.71834 0.536023 0
M  V30 21410 H 1992 -0.589724 0.466614 0
M  V30 21411 H 1993.97 -1.7129 2.4434 0
M  V30 21412 C 1992.72 -3.17 1.4285 0
M  V30 21413 H 1992.04 -3.27838 2.28828 0
M  V30 21414 H 1993.48 -3.96314 1.50704 0
M  V30 21415 C 1991.94 -3.36583 0.146093 0
M  V30 21416 O 1992.47 -3.93802 -0.792631 0
M  V30 21417 N 1990.68 -2.90545 0.0563076 0
M  V30 21418 H 1990.23 -2.44166 0.82102 0
M  V30 21419 H 1990.18 -3.04024 -0.801035 0
M  V30 21420 N 1993.96 -1.29952 -0.891648 0
M  V30 21421 C 1995.2 -1.18389 -1.64287 0
M  V30 21422 C 1995.53 0.262869 -1.92715 0
M  V30 21423 O 1994.79 1.20538 -1.54173 0
M  V30 21424 C 1995.09 -1.95096 -2.99453 0
M  V30 21425 C 1994.75 -3.44762 -2.90603 0
M  V30 21426 C 1993.41 -3.85577 -2.87896 0
M  V30 21427 C 1995.77 -4.40098 -2.79218 0
M  V30 21428 C 1993.09 -5.2003 -2.71635 0
M  V30 21429 C 1995.45 -5.74652 -2.64496 0
M  V30 21430 C 1994.11 -6.14714 -2.6016 0
M  V30 21431 H 1993.38 -0.433217 -0.601169 0
M  V30 21432 H 1996.03 -1.60979 -1.0372 0
M  V30 21433 H 1994.33 -1.45121 -3.63933 0
M  V30 21434 H 1996.03 -1.83547 -3.56527 0
M  V30 21435 H 1992.62 -3.12324 -2.93516 0
M  V30 21436 H 1996.8 -4.09512 -2.80381 0
M  V30 21437 H 1992.06 -5.50171 -2.66688 0
M  V30 21438 H 1996.23 -6.48168 -2.54659 0
M  V30 21439 H 1993.86 -7.18845 -2.47317 0
M  V30 21440 N 1995.44 1.1031 -1.12559 0
M  V30 21441 C 1996.71 1.788 -0.793094 0
M  V30 21442 C 1997.09 1.98553 0.716932 0
M  V30 21443 O 1996.44 1.57962 1.65107 0
M  V30 21444 C 1996.65 3.1171 -1.56964 0
M  V30 21445 C 1998 3.86566 -1.75648 0
M  V30 21446 O 1999.02 3.21435 -1.53487 0
M  V30 21447 O 1997.88 5.03468 -2.1256 0
M  V30 21448 H 1994.98 0.775004 -0.288612 0
M  V30 21449 H 1997.52 1.16948 -1.22969 0
M  V30 21450 H 1996.29 2.92761 -2.59628 0
M  V30 21451 H 1995.92 3.81282 -1.12738 0
M  V30 21452 N 1996.91 0.917694 1.28125 0
M  V30 21453 C 1997.86 0.399355 2.29146 0
M  V30 21454 C 1998.86 -0.511045 1.61508 0
M  V30 21455 O 2000.06 -0.391853 1.75683 0
M  V30 21456 H 1996.44 0.110553 0.743829 0
M  V30 21457 H 1998.41 1.26438 2.70289 0
M  V30 21458 C 1997.16 -0.34177 3.46016 0
M  V30 21459 H 1996.48 0.349564 3.98269 0
M  V30 21460 H 1997.92 -0.669035 4.18688 0
M  V30 21461 C 1996.38 -1.55111 2.99069 0
M  V30 21462 O 1996.91 -2.65012 3.0188 0
M  V30 21463 N 1995.11 -1.39946 2.54683 0
M  V30 21464 H 1994.66 -0.505341 2.52595 0
M  V30 21465 H 1994.62 -2.20989 2.23632 0
M  V30 21466 N 1998.39 -1.42074 0.682102 0
M  V30 21467 C 1999.64 -2.01733 0.207714 0
M  V30 21468 C 1999.97 -1.53844 -1.18514 0
M  V30 21469 O 1999.25 -0.74378 -1.79717 0
M  V30 21470 C 1999.53 -3.59228 0.250438 0
M  V30 21471 C 1999.38 -4.17278 1.67927 0
M  V30 21472 C 2000.7 -4.38303 -0.397296 0
M  V30 21473 H 1997.82 -0.732972 0.0769518 0
M  V30 21474 H 2000.46 -1.69 0.868272 0
M  V30 21475 H 1998.61 -3.87245 -0.312007 0
M  V30 21476 H 2000.28 -4.00187 2.29452 0
M  V30 21477 H 1998.53 -3.7283 2.21767 0
M  V30 21478 H 1999.2 -5.26423 1.66079 0
M  V30 21479 H 2001.67 -4.1602 0.0815622 0
M  V30 21480 H 2000.55 -5.47866 -0.336797 0
M  V30 21481 H 2000.81 -4.16733 -1.476 0
M  V30 21482 N 1999.87 -0.425924 -1.51735 0
M  V30 21483 C 2000.83 0.379497 -2.26036 0
M  V30 21484 C 2001.83 0.95944 -1.2904 0
M  V30 21485 O 2003.02 0.83568 -1.52846 0
M  V30 21486 C 2000.15 1.5358 -3.04345 0
M  V30 21487 H 2001.35 -0.271515 -2.98668 0
M  V30 21488 H 1998.9 -0.17882 -1.55274 0
M  V30 21489 H 1999.64 2.2232 -2.36103 0
M  V30 21490 H 1999.42 1.12626 -3.75577 0
M  V30 21491 H 2000.91 2.10513 -3.60658 0
M  V30 21492 N 2001.35 1.56817 -0.156891 0
M  V30 21493 C 2002.28 2.13062 0.817296 0
M  V30 21494 C 2003.26 1.05681 1.23573 0
M  V30 21495 O 2004.44 1.33571 1.33008 0
M  V30 21496 C 2001.57 2.65841 2.09872 0
M  V30 21497 C 2000.62 3.85461 1.82544 0
M  V30 21498 S 2001.45 5.25935 1.00758 0
M  V30 21499 C 2002.6 5.8211 2.29998 0
M  V30 21500 H 2002.84 2.95361 0.339029 0
M  V30 21501 H 2000.37 1.54293 0.0575539 0
M  V30 21502 H 2002.33 2.96898 2.83481 0
M  V30 21503 H 2000.99 1.83655 2.54813 0
M  V30 21504 H 2000.18 4.20668 2.77587 0
M  V30 21505 H 1999.78 3.55215 1.17039 0
M  V30 21506 H 2002.08 5.94144 3.25574 0
M  V30 21507 H 2003.02 6.7948 1.99281 0
M  V30 21508 H 2003.43 5.10423 2.41099 0
M  V30 21509 N 2002.83 -0.116876 1.57166 0
M  V30 21510 C 2004.07 -0.822659 1.84599 0
M  V30 21511 C 2004.39 -1.80315 0.742392 0
M  V30 21512 O 2003.66 -1.94505 -0.233411 0
M  V30 21513 H 2002.24 -0.306797 0.681091 0
M  V30 21514 H 2004.91 -0.103693 1.94624 0
M  V30 21515 H 2004 -1.36659 2.8059 0
M  V30 21516 N 2004.3 -1.52772 -0.387116 0
M  V30 21517 C 2005.53 -1.71538 -1.15145 0
M  V30 21518 C 2005.94 -0.434325 -1.84147 0
M  V30 21519 O 2005.28 0.60113 -1.73586 0
M  V30 21520 C 2005.35 -2.81074 -2.24137 0
M  V30 21521 C 2005.01 -4.2213 -1.75086 0
M  V30 21522 C 2006.01 -5.05224 -1.22658 0
M  V30 21523 C 2003.69 -4.68458 -1.81252 0
M  V30 21524 C 2005.69 -6.32726 -0.770461 0
M  V30 21525 C 2003.37 -5.95945 -1.35251 0
M  V30 21526 C 2004.37 -6.77909 -0.832359 0
M  V30 21527 O 2004.06 -8.03006 -0.379074 0
M  V30 21528 H 2003.79 -0.577655 -0.351128 0
M  V30 21529 H 2006.35 -2.00215 -0.458605 0
M  V30 21530 H 2004.58 -2.47822 -2.96852 0
M  V30 21531 H 2006.26 -2.88225 -2.85799 0
M  V30 21532 H 2007.03 -4.70614 -1.1725 0
M  V30 21533 H 2002.91 -4.04748 -2.2068 0
M  V30 21534 H 2006.45 -6.96651 -0.363786 0
M  V30 21535 H 2002.35 -6.30058 -1.40345 0
M  V30 21536 H 2003.12 -8.16969 -0.500379 0
M  V30 21537 N 2005.78 0.645673 -1.43767 0
M  V30 21538 C 2006.71 1.76974 -1.52324 0
M  V30 21539 C 2007.69 1.65862 -0.377316 0
M  V30 21540 O 2008.88 1.84843 -0.595532 0
M  V30 21541 C 2006.01 3.1544 -1.4531 0
M  V30 21542 C 2004.96 3.41324 -2.58229 0
M  V30 21543 C 2004.29 4.79669 -2.36267 0
M  V30 21544 C 2005.59 3.35321 -4.00446 0
M  V30 21545 H 2007.28 1.70069 -2.46408 0
M  V30 21546 H 2004.83 0.816784 -1.18594 0
M  V30 21547 H 2006.78 3.93838 -1.49899 0
M  V30 21548 H 2005.5 3.23093 -0.477344 0
M  V30 21549 H 2004.16 2.653 -2.53005 0
M  V30 21550 H 2003.81 4.84007 -1.36918 0
M  V30 21551 H 2003.51 4.97947 -3.11966 0
M  V30 21552 H 2005.04 5.60315 -2.42652 0
M  V30 21553 H 2006.45 4.03644 -4.07117 0
M  V30 21554 H 2004.85 3.65135 -4.76231 0
M  V30 21555 H 2005.92 2.33373 -4.25047 0
M  V30 21556 N 2007.26 1.30423 0.884744 0
M  V30 21557 C 2008.22 1.16804 1.97204 0
M  V30 21558 C 2009.22 0.0992103 1.60494 0
M  V30 21559 O 2010.41 0.34734 1.70702 0
M  V30 21560 C 2007.54 0.789574 3.3163 0
M  V30 21561 H 2008.74 2.13401 2.10713 0
M  V30 21562 H 2006.29 1.13823 1.07117 0
M  V30 21563 H 2007.03 -0.175888 3.23823 0
M  V30 21564 H 2006.81 1.562 3.59644 0
M  V30 21565 H 2008.3 0.717768 4.11385 0
M  V30 21566 N 2008.74 -1.09711 1.13142 0
M  V30 21567 C 2009.67 -2.18301 0.828662 0
M  V30 21568 C 2010.65 -1.6879 -0.210733 0
M  V30 21569 O 2011.83 -1.94073 -0.0702977 0
M  V30 21570 C 2008.96 -3.46081 0.290674 0
M  V30 21571 C 2007.92 -4.0891 1.26398 0
M  V30 21572 C 2007.24 -5.3148 0.585887 0
M  V30 21573 C 2008.54 -4.51751 2.62142 0
M  V30 21574 H 2010.24 -2.43885 1.73668 0
M  V30 21575 H 2007.78 -1.17216 0.836449 0
M  V30 21576 H 2009.74 -4.21347 0.0665509 0
M  V30 21577 H 2008.46 -3.20011 -0.652716 0
M  V30 21578 H 2007.12 -3.3566 1.47405 0
M  V30 21579 H 2006.77 -5.01689 -0.362883 0
M  V30 21580 H 2006.47 -5.7447 1.23522 0
M  V30 21581 H 2007.99 -6.09472 0.370976 0
M  V30 21582 H 2009.41 -5.18255 2.45121 0
M  V30 21583 H 2007.8 -5.05615 3.23223 0
M  V30 21584 H 2008.87 -3.64297 3.20025 0
M  V30 21585 N 2010.22 -0.924476 -1.27637 0
M  V30 21586 C 2011.15 -0.438348 -2.29349 0
M  V30 21587 C 2012.13 0.499673 -1.62595 0
M  V30 21588 O 2013.31 0.405114 -1.89928 0
M  V30 21589 C 2010.44 0.312668 -3.4589 0
M  V30 21590 C 2009.4 -0.537216 -4.24615 0
M  V30 21591 C 2008.72 0.342776 -5.336 0
M  V30 21592 C 2010.02 -1.80003 -4.90302 0
M  V30 21593 H 2011.72 -1.28838 -2.70261 0
M  V30 21594 H 2009.26 -0.620964 -1.29923 0
M  V30 21595 H 2011.22 0.66367 -4.16141 0
M  V30 21596 H 2009.94 1.1967 -3.03886 0
M  V30 21597 H 2008.6 -0.870883 -3.56106 0
M  V30 21598 H 2008.25 1.22567 -4.87838 0
M  V30 21599 H 2007.95 -0.222352 -5.87179 0
M  V30 21600 H 2009.47 0.689422 -6.06695 0
M  V30 21601 H 2010.88 -1.51729 -5.52857 0
M  V30 21602 H 2009.28 -2.3084 -5.53925 0
M  V30 21603 H 2010.35 -2.52148 -4.14186 0
M  V30 21604 N 2011.69 1.41711 -0.689627 0
M  V30 21605 C 2012.63 2.29192 0.018551 0
M  V30 21606 C 2013.64 1.44471 0.750468 0
M  V30 21607 O 2014.83 1.68037 0.602159 0
M  V30 21608 C 2011.93 3.22215 1.05027 0
M  V30 21609 C 2011.1 4.35665 0.389181 0
M  V30 21610 C 2010.16 5.09304 1.3227 0
M  V30 21611 O 2009.19 5.63301 0.817347 0
M  V30 21612 N 2010.39 5.16209 2.65533 0
M  V30 21613 H 2013.15 2.90611 -0.732482 0
M  V30 21614 H 2010.71 1.52798 -0.535191 0
M  V30 21615 H 2012.71 3.68347 1.67638 0
M  V30 21616 H 2011.28 2.62145 1.7029 0
M  V30 21617 H 2010.5 3.91991 -0.416702 0
M  V30 21618 H 2011.78 5.08751 -0.070752 0
M  V30 21619 H 2011.18 4.73777 3.09115 0
M  V30 21620 H 2009.74 5.65938 3.23354 0
M  V30 21621 N 2013.17 0.433965 1.51507 0
M  V30 21622 C 2014.42 -0.133827 2.02358 0
M  V30 21623 C 2014.75 -1.42654 1.3177 0
M  V30 21624 O 2014.03 -1.89651 0.431588 0
M  V30 21625 C 2014.31 -0.356052 3.58335 0
M  V30 21626 C 2014.16 0.955077 4.39543 0
M  V30 21627 C 2015.48 -1.12732 4.25417 0
M  V30 21628 H 2012.6 -0.0471634 0.735489 0
M  V30 21629 H 2015.24 0.572301 1.81176 0
M  V30 21630 H 2013.39 -0.957541 3.76515 0
M  V30 21631 H 2015.06 1.59029 4.33021 0
M  V30 21632 H 2013.31 1.56044 4.04762 0
M  V30 21633 H 2013.98 0.753671 5.46831 0
M  V30 21634 H 2016.45 -0.617852 4.11487 0
M  V30 21635 H 2015.33 -1.25157 5.34441 0
M  V30 21636 H 2015.59 -2.15452 3.86048 0
M  V30 21637 N 2014.65 -1.56732 0.165206 0
M  V30 21638 C 2015.61 -2.1646 -0.753498 0
M  V30 21639 C 2016.61 -1.11106 -1.16241 0
M  V30 21640 O 2017.8 -1.36652 -1.08037 0
M  V30 21641 C 2014.94 -2.7425 -2.02483 0
M  V30 21642 H 2016.13 -2.98989 -0.233629 0
M  V30 21643 H 2013.68 -1.56072 -0.0843317 0
M  V30 21644 H 2014.42 -1.95439 -2.58794 0
M  V30 21645 H 2014.2 -3.51345 -1.74065 0
M  V30 21646 H 2015.69 -3.20209 -2.6806 0
M  V30 21647 N 2016.13 0.10854 -1.57226 0
M  V30 21648 C 2017.36 0.828374 -1.89593 0
M  V30 21649 C 2017.77 1.72936 -0.757543 0
M  V30 21650 O 2017.13 1.80474 0.271152 0
M  V30 21651 C 2017.18 1.65304 -3.21492 0
M  V30 21652 O 2016.9 0.788315 -4.30949 0
M  V30 21653 C 2018.4 2.47711 -3.67633 0
M  V30 21654 H 2015.62 0.237584 -0.627531 0
M  V30 21655 H 2018.17 0.0897975 -2.04303 0
M  V30 21656 H 2016.32 2.34426 -3.0842 0
M  V30 21657 H 2016.73 1.35814 -5.06611 0
M  V30 21658 H 2018.21 3.01088 -4.62655 0
M  V30 21659 H 2018.69 3.25555 -2.94806 0
M  V30 21660 H 2019.29 1.83812 -3.83527 0
M  V30 21661 N 2017.61 1.52975 0.379009 0
M  V30 21662 C 2018.85 1.68505 1.12304 0
M  V30 21663 C 2019.18 0.430012 1.89687 0
M  V30 21664 O 2018.44 -0.587809 1.86664 0
M  V30 21665 C 2018.74 2.8776 2.11964 0
M  V30 21666 C 2018.4 4.24806 1.51163 0
M  V30 21667 C 2017.06 4.62077 1.34308 0
M  V30 21668 C 2019.42 5.10087 1.07053 0
M  V30 21669 C 2016.74 5.82277 0.719058 0
M  V30 21670 C 2019.1 6.30921 0.460559 0
M  V30 21671 C 2017.76 6.66915 0.279391 0
M  V30 21672 H 2017.03 0.616604 0.41095 0
M  V30 21673 H 2019.68 1.87137 0.406443 0
M  V30 21674 H 2017.98 2.63586 2.89879 0
M  V30 21675 H 2019.68 2.96971 2.69461 0
M  V30 21676 H 2016.27 3.95453 1.65272 0
M  V30 21677 H 2020.45 4.81854 1.18872 0
M  V30 21678 H 2015.71 6.08765 0.566983 0
M  V30 21679 H 2019.88 6.96312 0.110504 0
M  V30 21680 H 2017.51 7.5992 -0.206228 0
M  V30 21681 N 2019.08 -0.63804 1.44107 0
M  V30 21682 C 2020.03 -1.75032 1.5044 0
M  V30 21683 C 2021 -1.62312 0.352721 0
M  V30 21684 O 2022.19 -1.82335 0.562 0
M  V30 21685 C 2019.33 -3.13253 1.44798 0
M  V30 21686 C 2018.44 -3.37 2.70287 0
M  V30 21687 C 2017.57 -4.65154 2.56526 0
M  V30 21688 C 2016.61 -4.82055 3.77212 0
M  V30 21689 N 2015.75 -6.0148 3.62169 0
M  V30 21690 H 2020.59 -1.68954 2.45476 0
M  V30 21691 H 2018.13 -0.82428 1.21836 0
M  V30 21692 H 2020.09 -3.9318 1.39518 0
M  V30 21693 H 2018.72 -3.18364 0.53334 0
M  V30 21694 H 2017.77 -2.51062 2.85783 0
M  V30 21695 H 2019.08 -3.4537 3.5989 0
M  V30 21696 H 2018.23 -5.5323 2.4904 0
M  V30 21697 H 2016.97 -4.5913 1.64472 0
M  V30 21698 H 2015.98 -3.9241 3.8509 0
M  V30 21699 H 2017.2 -4.89898 4.70294 0
M  V30 21700 H 2015.15 -5.96559 2.72861 0
M  V30 21701 H 2015.07 -6.10876 4.45384 0
M  V30 21702 H 2016.33 -6.92137 3.58562 0
M  V30 21703 N 2020.56 -1.3089 -0.877815 0
M  V30 21704 C 2021.81 -1.19888 -1.627 0
M  V30 21705 C 2022.13 0.244972 -1.93455 0
M  V30 21706 O 2021.4 1.16355 -1.57602 0
M  V30 21707 H 2019.98 -0.440719 -0.603138 0
M  V30 21708 H 2022.64 -1.64112 -1.05134 0
M  V30 21709 H 2021.74 -1.76493 -2.57404 0
M  V30 21710 N 2022.04 1.0911 -1.13723 0
M  V30 21711 C 2023.29 1.81794 -0.912268 0
M  V30 21712 C 2023.64 1.84206 0.555522 0
M  V30 21713 O 2022.93 1.30166 1.40597 0
M  V30 21714 C 2023.13 3.27193 -1.43805 0
M  V30 21715 C 2022.96 3.38947 -2.95542 0
M  V30 21716 C 2021.73 3.50558 -3.63919 0
M  V30 21717 C 2023.93 3.31203 -3.93458 0
M  V30 21718 N 2021.91 3.51029 -5.03639 0
M  V30 21719 C 2023.28 3.38581 -5.19387 0
M  V30 21720 C 2025.33 3.14892 -3.85678 0
M  V30 21721 C 2024.04 3.31328 -6.38447 0
M  V30 21722 C 2026.06 3.08966 -5.04276 0
M  V30 21723 C 2025.42 3.16939 -6.2907 0
M  V30 21724 H 2021.52 0.679373 -0.387268 0
M  V30 21725 H 2024.11 1.30375 -1.44604 0
M  V30 21726 H 2022.28 3.77073 -0.931145 0
M  V30 21727 H 2024.01 3.87906 -1.15375 0
M  V30 21728 H 2020.77 3.54145 -3.1445 0
M  V30 21729 H 2021.19 3.5484 -5.76557 0
M  V30 21730 H 2025.83 3.07595 -2.90078 0
M  V30 21731 H 2023.55 3.37387 -7.34299 0
M  V30 21732 H 2027.14 2.97476 -4.99999 0
M  V30 21733 H 2026.02 3.12373 -7.193 0
M  V30 21734 N 2023.52 0.931232 1.27145 0
M  V30 21735 C 2024.45 0.377419 2.25057 0
M  V30 21736 C 2025.43 -0.528197 1.53782 0
M  V30 21737 O 2026.61 -0.467903 1.826 0
M  V30 21738 C 2023.74 -0.4587 3.3558 0
M  V30 21739 C 2022.79 0.383982 4.24768 0
M  V30 21740 S 2023.62 1.80173 5.0428 0
M  V30 21741 C 2024.78 0.973395 6.18285 0
M  V30 21742 H 2025.01 1.20726 2.71685 0
M  V30 21743 H 2022.54 0.733657 1.35856 0
M  V30 21744 H 2024.5 -0.935236 3.99704 0
M  V30 21745 H 2023.16 -1.2631 2.87584 0
M  V30 21746 H 2022.35 -0.256158 5.03349 0
M  V30 21747 H 2021.96 0.794824 3.65457 0
M  V30 21748 H 2024.25 0.211028 6.77171 0
M  V30 21749 H 2025.19 1.73233 6.86583 0
M  V30 21750 H 2025.6 0.513847 5.62156 0
M  V30 21751 N 2025 -1.41343 0.697132 0
M  V30 21752 C 2026.27 -1.94971 0.156721 0
M  V30 21753 C 2026.65 -1.63641 -1.33359 0
M  V30 21754 O 2026 -0.944246 -2.08077 0
M  V30 21755 C 2026.21 -3.46091 0.449687 0
M  V30 21756 C 2027.56 -4.22912 0.378281 0
M  V30 21757 O 2028.58 -3.54117 0.38469 0
M  V30 21758 O 2027.44 -5.45443 0.339755 0
M  V30 21759 H 2024.54 -0.826847 0.0158852 0
M  V30 21760 H 2027.08 -1.51052 0.7734 0
M  V30 21761 H 2025.86 -3.62183 1.48119 0
M  V30 21762 H 2025.48 -3.97107 -0.197886 0
M  V30 21763 N 2026.48 -0.441993 -1.51275 0
M  V30 21764 C 2027.72 0.124439 -2.01316 0
M  V30 21765 C 2028.04 1.43376 -1.33051 0
M  V30 21766 O 2029.24 2.08342 -1.74086 0
M  V30 21767 C 2027.7 0.272307 -3.58868 0
M  V30 21768 C 2027.31 -1.02686 -4.36073 0
M  V30 21769 C 2029.05 0.792259 -4.17041 0
M  V30 21770 C 2026.96 -0.844378 -5.85341 0
M  V30 21771 H 2025.89 0.0502803 -0.752322 0
M  V30 21772 H 2028.54 -0.572465 -1.74342 0
M  V30 21773 H 2026.92 1.03232 -3.82308 0
M  V30 21774 H 2028.1 -1.79557 -4.24377 0
M  V30 21775 H 2026.41 -1.4757 -3.89374 0
M  V30 21776 H 2029.01 0.94535 -5.26277 0
M  V30 21777 H 2029.35 1.77595 -3.76518 0
M  V30 21778 H 2029.88 0.0904292 -3.97697 0
M  V30 21779 H 2026.62 -1.80058 -6.30285 0
M  V30 21780 H 2026.14 -0.115549 -5.99689 0
M  V30 21781 H 2027.82 -0.499412 -6.4507 0
M  V30 21782 N 2027.95 1.56642 -0.173515 0
M  V30 21783 C 2028.89 2.13917 0.794652 0
M  V30 21784 C 2029.86 1.06986 1.22445 0
M  V30 21785 O 2031.05 1.34974 1.31583 0
M  V30 21786 C 2028.18 2.68052 2.07041 0
M  V30 21787 C 2027.22 3.87375 1.78446 0
M  V30 21788 S 2028.05 5.26975 0.951737 0
M  V30 21789 C 2029.21 5.84516 2.23811 0
M  V30 21790 H 2029.44 2.95704 0.307683 0
M  V30 21791 H 2026.98 1.54345 0.0411859 0
M  V30 21792 H 2028.93 2.99888 2.80316 0
M  V30 21793 H 2027.6 1.86347 2.52851 0
M  V30 21794 H 2026.79 4.23588 2.7311 0
M  V30 21795 H 2026.39 3.56437 1.13265 0
M  V30 21796 H 2028.68 5.97564 3.19254 0
M  V30 21797 H 2029.63 6.81555 1.92063 0
M  V30 21798 H 2030.03 5.12952 2.35671 0
M  V30 21799 N 2029.43 -0.1002 1.57281 0
M  V30 21800 C 2030.66 -0.817121 1.89754 0
M  V30 21801 C 2031.07 -1.7305 0.764869 0
M  V30 21802 O 2030.41 -1.81669 -0.272384 0
M  V30 21803 C 2030.47 -1.68753 3.17432 0
M  V30 21804 C 2030.14 -0.9465 4.47091 0
M  V30 21805 C 2031.14 -0.278645 5.19153 0
M  V30 21806 C 2028.82 -0.922095 4.93764 0
M  V30 21807 C 2030.81 0.403703 6.3612 0
M  V30 21808 C 2028.5 -0.235958 6.10644 0
M  V30 21809 C 2029.5 0.425768 6.81672 0
M  V30 21810 O 2029.19 1.10091 7.96326 0
M  V30 21811 H 2028.92 -0.239163 0.632279 0
M  V30 21812 H 2031.47 -0.0834139 2.05231 0
M  V30 21813 H 2029.7 -2.46334 2.98088 0
M  V30 21814 H 2031.39 -2.28055 3.35776 0
M  V30 21815 H 2032.16 -0.288994 4.84138 0
M  V30 21816 H 2028.04 -1.4266 4.38371 0
M  V30 21817 H 2031.58 0.920777 6.91497 0
M  V30 21818 H 2027.48 -0.223438 6.45113 0
M  V30 21819 H 2028.25 1.00729 8.12278 0
M  V30 21820 N 2030.91 -1.53174 -0.370891 0
M  V30 21821 C 2031.87 -1.7857 -1.43685 0
M  V30 21822 C 2032.87 -0.656018 -1.4681 0
M  V30 21823 O 2034.06 -0.924191 -1.47663 0
M  V30 21824 C 2031.19 -1.90295 -2.82844 0
M  V30 21825 H 2032.39 -2.73766 -1.22442 0
M  V30 21826 H 2029.94 -1.4417 -0.603713 0
M  V30 21827 H 2030.68 -0.971472 -3.09407 0
M  V30 21828 H 2030.46 -2.72456 -2.81975 0
M  V30 21829 H 2031.95 -2.11554 -3.60048 0
M  V30 21830 N 2032.39 0.630389 -1.44443 0
M  V30 21831 C 2033.35 1.72422 -1.51008 0
M  V30 21832 C 2034.35 1.55948 -0.392038 0
M  V30 21833 O 2035.54 1.61429 -0.654688 0
M  V30 21834 C 2032.67 3.1151 -1.38472 0
M  V30 21835 H 2033.87 1.67975 -2.48444 0
M  V30 21836 H 2031.42 0.844115 -1.31546 0
M  V30 21837 H 2032.15 3.21551 -0.421327 0
M  V30 21838 H 2031.94 3.24874 -2.19544 0
M  V30 21839 H 2033.43 3.91228 -1.46049 0
M  V30 21840 N 2033.87 1.31354 0.870861 0
M  V30 21841 C 2035.11 1.21167 1.62623 0
M  V30 21842 C 2035.44 -0.22989 1.92835 0
M  V30 21843 O 2034.72 -1.16257 1.55931 0
M  V30 21844 C 2035 2.05505 2.95702 0
M  V30 21845 C 2034.86 3.57955 2.72375 0
M  V30 21846 C 2036.17 1.90375 3.96794 0
M  V30 21847 H 2033.29 0.441517 0.590111 0
M  V30 21848 H 2035.94 1.61134 1.00676 0
M  V30 21849 H 2034.09 1.71549 3.48573 0
M  V30 21850 H 2035.76 4.02044 2.26183 0
M  V30 21851 H 2034 3.81431 2.06623 0
M  V30 21852 H 2034.67 4.12273 3.67063 0
M  V30 21853 H 2037.15 2.20089 3.53129 0
M  V30 21854 H 2036.02 2.51689 4.87795 0
M  V30 21855 H 2036.28 0.866804 4.33519 0
M  V30 21856 N 2035.34 -1.08505 1.143 0
M  V30 21857 C 2036.62 -1.77515 0.82144 0
M  V30 21858 C 2037 -1.99668 -0.685253 0
M  V30 21859 O 2036.35 -1.60569 -1.62573 0
M  V30 21860 C 2036.56 -3.09174 1.61903 0
M  V30 21861 C 2037.91 -3.83722 1.81775 0
M  V30 21862 O 2038.93 -3.18952 1.58581 0
M  V30 21863 O 2037.79 -5.00023 2.20543 0
M  V30 21864 H 2034.88 -0.770315 0.300906 0
M  V30 21865 H 2037.43 -1.14976 1.24814 0
M  V30 21866 H 2036.2 -2.88593 2.64253 0
M  V30 21867 H 2035.82 -3.7944 1.1879 0
M  V30 21868 N 2036.82 -0.937962 -1.26649 0
M  V30 21869 C 2038.05 -0.59993 -1.98534 0
M  V30 21870 C 2038.47 0.817397 -1.69411 0
M  V30 21871 O 2037.83 1.55011 -0.940284 0
M  V30 21872 C 2037.88 -0.844738 -3.50566 0
M  V30 21873 O 2036.98 0.0847162 -4.12313 0
M  V30 21874 H 2036.32 -0.229839 -0.622953 0
M  V30 21875 H 2038.85 -1.26002 -1.61198 0
M  V30 21876 H 2038.86 -0.764359 -4.00776 0
M  V30 21877 H 2037.54 -1.87783 -3.71094 0
M  V30 21878 H 2036.11 -0.0464484 -3.72871 0
M  V30 21879 N 2038.3 1.40971 -0.704618 0
M  V30 21880 C 2039.72 1.55082 -0.377067 0
M  V30 21881 C 2039.92 1.67827 1.11518 0
M  V30 21882 O 2038.97 1.66173 1.90112 0
M  V30 21883 C 2040.28 2.78517 -1.13352 0
M  V30 21884 C 2041.83 2.92323 -1.11875 0
M  V30 21885 C 2042.31 4.18658 -1.85714 0
M  V30 21886 N 2043.8 4.25635 -1.82728 0
M  V30 21887 C 2044.53 5.22268 -2.36693 0
M  V30 21888 N 2044.03 6.24877 -2.99167 0
M  V30 21889 N 2045.82 5.14271 -2.26897 0
M  V30 21890 H 2037.97 1.30944 -1.67235 0
M  V30 21891 H 2040.24 0.632393 -0.706246 0
M  V30 21892 H 2039.94 2.75339 -2.18818 0
M  V30 21893 H 2039.82 3.70304 -0.717978 0
M  V30 21894 H 2042.2 2.95011 -0.0723296 0
M  V30 21895 H 2042.28 2.01685 -1.57343 0
M  V30 21896 H 2041.93 4.16732 -2.9034 0
M  V30 21897 H 2041.86 5.08285 -1.37674 0
M  V30 21898 H 2044.35 3.52119 -1.37187 0
M  V30 21899 H 2044.66 6.95019 -3.37889 0
M  V30 21900 H 2043.01 6.25353 -3.03247 0
M  V30 21901 H 2046.2 4.33037 -1.77755 0
M  V30 21902 H 2046.37 5.89411 -2.69256 0
M  V30 21903 N 2039.78 0.45001 1.51039 0
M  V30 21904 C 2040.69 -0.360857 2.31808 0
M  V30 21905 C 2041.7 -1.01585 1.41267 0
M  V30 21906 O 2042.88 -1.00845 1.74334 0
M  V30 21907 C 2039.95 -1.44034 3.15365 0
M  V30 21908 C 2039.01 -0.804156 4.21701 0
M  V30 21909 C 2038.24 -1.83221 5.01264 0
M  V30 21910 O 2038.46 -3.05609 4.81622 0
M  V30 21911 O 2037.4 -1.41571 5.85014 0
M  V30 21912 H 2041.22 0.298869 3.02226 0
M  V30 21913 H 2038.81 0.212277 1.47884 0
M  V30 21914 H 2040.69 -2.06611 3.67273 0
M  V30 21915 H 2039.36 -2.08392 2.47698 0
M  V30 21916 H 2038.27 -0.139997 3.73838 0
M  V30 21917 H 2039.6 -0.203865 4.91778 0
M  V30 21918 N 2041.26 -1.56548 0.18182 0
M  V30 21919 C 2042.5 -1.97488 -0.461104 0
M  V30 21920 C 2042.84 -1.06819 -1.62183 0
M  V30 21921 O 2042.11 -0.117449 -1.94145 0
M  V30 21922 C 2042.39 -3.47776 -0.934008 0
M  V30 21923 C 2042.25 -4.49224 0.227615 0
M  V30 21924 C 2043.57 -4.01423 -1.80409 0
M  V30 21925 H 2040.68 -0.718031 -0.166135 0
M  V30 21926 H 2043.33 -1.88071 0.27007 0
M  V30 21927 H 2041.48 -3.55933 -1.55705 0
M  V30 21928 H 2043.15 -4.53118 0.864978 0
M  V30 21929 H 2041.39 -4.2475 0.881483 0
M  V30 21930 H 2042.06 -5.51808 -0.145571 0
M  V30 21931 H 2044.54 -3.95963 -1.27876 0
M  V30 21932 H 2043.41 -5.06975 -2.10398 0
M  V30 21933 H 2043.68 -3.45875 -2.7536 0
M  V30 21934 N 2042.73 0.0918577 -1.57332 0
M  V30 21935 C 2043.68 1.13005 -2.03304 0
M  V30 21936 C 2044.68 1.4128 -0.934688 0
M  V30 21937 O 2045.88 1.40923 -1.11986 0
M  V30 21938 H 2042.26 0.381664 -0.647948 0
M  V30 21939 H 2044.23 0.716022 -2.89682 0
M  V30 21940 C 2042.98 2.44114 -2.47595 0
M  V30 21941 H 2042.3 2.23203 -3.31694 0
M  V30 21942 H 2043.74 3.15252 -2.83535 0
M  V30 21943 C 2042.2 3.08644 -1.35057 0
M  V30 21944 O 2042.73 3.95877 -0.681498 0
M  V30 21945 N 2040.94 2.68946 -1.10074 0
M  V30 21946 H 2040.48 1.98101 -1.64662 0
M  V30 21947 H 2040.44 3.12448 -0.349761 0
M  V30 21948 N 2044.21 1.53368 0.362763 0
M  V30 21949 C 2045.15 1.74792 1.46707 0
M  V30 21950 C 2046.12 0.596367 1.51269 0
M  V30 21951 O 2047.31 0.829291 1.69278 0
M  V30 21952 C 2044.43 1.82926 2.85054 0
M  V30 21953 C 2043.48 3.04921 2.98204 0
M  V30 21954 S 2044.31 4.64381 2.66666 0
M  V30 21955 C 2045.47 4.75367 4.07157 0
M  V30 21956 H 2045.7 2.68184 1.28314 0
M  V30 21957 H 2043.24 1.43993 0.557272 0
M  V30 21958 H 2045.19 1.88297 3.64766 0
M  V30 21959 H 2043.85 0.905801 3.00756 0
M  V30 21960 H 2043.05 3.0723 3.99532 0
M  V30 21961 H 2042.65 2.97676 2.26418 0
M  V30 21962 H 2044.94 4.55595 5.01437 0
M  V30 21963 H 2045.88 5.77432 4.09852 0
M  V30 21964 H 2046.29 4.03977 3.94288 0
M  V30 21965 N 2045.69 -0.62272 1.44776 0
M  V30 21966 C 2046.62 -1.74771 1.48283 0
M  V30 21967 C 2047.64 -1.58416 0.375253 0
M  V30 21968 O 2048.82 -1.66575 0.641472 0
M  V30 21969 C 2045.92 -3.12596 1.30909 0
M  V30 21970 C 2045.1 -3.55331 2.55066 0
M  V30 21971 C 2044.16 -4.72064 2.32469 0
M  V30 21972 O 2043.18 -4.79949 3.06003 0
M  V30 21973 N 2044.38 -5.64329 1.36063 0
M  V30 21974 H 2047.15 -1.7223 2.45269 0
M  V30 21975 H 2044.71 -0.807546 1.40322 0
M  V30 21976 H 2046.7 -3.88422 1.13625 0
M  V30 21977 H 2045.27 -3.09731 0.422559 0
M  V30 21978 H 2044.49 -2.69625 2.87569 0
M  V30 21979 H 2045.78 -3.80637 3.37628 0
M  V30 21980 H 2045.18 -5.6066 0.753476 0
M  V30 21981 H 2043.74 -6.39749 1.24756 0
M  V30 21982 N 2047.17 -1.31814 -0.863883 0
M  V30 21983 C 2048.58 -1.19653 -1.43318 0
M  V30 21984 C 2048.93 0.19461 -1.95232 0
M  V30 21985 O 2048.06 1.09277 -1.86782 0
M  V30 21986 C 2048.65 -2.1661 -2.6051 0
M  V30 21987 C 2047.21 -2.08364 -3.13466 0
M  V30 21988 C 2046.36 -2.05496 -1.8619 0
M  V30 21989 H 2049.31 -1.43776 -0.67187 0
M  V30 21990 H 2049.33 -1.75925 -3.37388 0
M  V30 21991 H 2048.84 -3.1785 -2.22695 0
M  V30 21992 H 2046.94 -1.10341 -3.55887 0
M  V30 21993 H 2047.05 -2.97757 -3.75336 0
M  V30 21994 H 2045.42 -1.50599 -2.05407 0
M  V30 21995 H 2046.2 -3.08501 -1.50605 0
M  V30 21996 N 2048.65 1.07897 -1.14873 0
M  V30 21997 C 2049.59 2.14955 -0.840422 0
M  V30 21998 C 2050.56 1.64839 0.204277 0
M  V30 21999 O 2051.75 1.9066 0.0730523 0
M  V30 22000 C 2048.89 3.43521 -0.329768 0
M  V30 22001 C 2048 4.07456 -1.43538 0
M  V30 22002 C 2047.14 5.23836 -0.881432 0
M  V30 22003 C 2046.18 5.79723 -1.96437 0
M  V30 22004 N 2045.31 6.87441 -1.42721 0
M  V30 22005 H 2050.15 2.40669 -1.75734 0
M  V30 22006 H 2047.69 1.18102 -0.876944 0
M  V30 22007 H 2049.65 4.17197 -0.01545 0
M  V30 22008 H 2048.28 3.18076 0.550246 0
M  V30 22009 H 2047.33 3.31489 -1.86599 0
M  V30 22010 H 2048.64 4.45007 -2.25323 0
M  V30 22011 H 2047.8 6.04473 -0.519325 0
M  V30 22012 H 2046.53 4.87689 -0.0326916 0
M  V30 22013 H 2045.54 4.97736 -2.33536 0
M  V30 22014 H 2046.76 6.17927 -2.81678 0
M  V30 22015 H 2044.71 6.53244 -0.600731 0
M  V30 22016 H 2044.63 7.23845 -2.18137 0
M  V30 22017 H 2045.9 7.71797 -1.09317 0
M  V30 22018 N 2050.12 0.944665 1.2615 0
M  V30 22019 C 2051.37 0.604506 1.94209 0
M  V30 22020 C 2051.73 -0.847669 1.7272 0
M  V30 22021 O 2051.02 -1.59892 1.05571 0
M  V30 22022 C 2051.21 0.886852 3.46222 0
M  V30 22023 C 2051.04 2.36492 3.82494 0
M  V30 22024 C 2049.81 3.02071 4.0507 0
M  V30 22025 C 2052.01 3.34363 3.90776 0
M  V30 22026 N 2049.99 4.39854 4.28254 0
M  V30 22027 C 2051.36 4.57417 4.18533 0
M  V30 22028 C 2053.42 3.29339 3.73417 0
M  V30 22029 C 2052.12 5.76071 4.30737 0
M  V30 22030 C 2054.15 4.47323 3.86855 0
M  V30 22031 C 2053.51 5.69159 4.15014 0
M  V30 22032 H 2049.61 0.271639 0.733305 0
M  V30 22033 H 2052.19 1.21479 1.52154 0
M  V30 22034 H 2050.36 0.305586 3.87196 0
M  V30 22035 H 2052.09 0.507609 4.01504 0
M  V30 22036 H 2048.85 2.52676 4.00564 0
M  V30 22037 H 2049.27 5.11182 4.43872 0
M  V30 22038 H 2053.92 2.36198 3.50671 0
M  V30 22039 H 2051.63 6.69663 4.52302 0
M  V30 22040 H 2055.22 4.44971 3.74822 0
M  V30 22041 H 2054.1 6.58931 4.25182 0
M  V30 22042 N 2051.6 -1.40596 0.712085 0
M  V30 22043 C 2052.51 -2.34528 0.0582122 0
M  V30 22044 C 2053.53 -1.57115 -0.747715 0
M  V30 22045 O 2054.7 -1.8952 -0.681477 0
M  V30 22046 C 2051.77 -3.35992 -0.855008 0
M  V30 22047 C 2050.83 -4.29282 -0.0394267 0
M  V30 22048 C 2050.06 -5.25899 -0.909154 0
M  V30 22049 O 2050.29 -5.28392 -2.14845 0
M  V30 22050 O 2049.22 -6.00881 -0.350012 0
M  V30 22051 H 2053.05 -2.92055 0.832915 0
M  V30 22052 H 2050.63 -1.4173 0.472537 0
M  V30 22053 H 2052.51 -3.98225 -1.3782 0
M  V30 22054 H 2051.19 -2.80883 -1.60892 0
M  V30 22055 H 2050.1 -3.70344 0.528757 0
M  V30 22056 H 2051.43 -4.87533 0.676185 0
M  V30 22057 N 2053.08 -0.458013 -1.50798 0
M  V30 22058 C 2054.36 0.162411 -1.94925 0
M  V30 22059 C 2054.74 1.58194 -1.39777 0
M  V30 22060 O 2054.09 2.20663 -0.59332 0
M  V30 22061 C 2054.3 0.119083 -3.48797 0
M  V30 22062 C 2055.64 0.314458 -4.23434 0
M  V30 22063 O 2056.67 0.196266 -3.55659 0
M  V30 22064 O 2055.53 0.551722 -5.43708 0
M  V30 22065 H 2052.62 0.118781 -0.818425 0
M  V30 22066 H 2055.17 -0.517478 -1.61618 0
M  V30 22067 H 2053.94 -0.872528 -3.81448 0
M  V30 22068 H 2053.56 0.840995 -3.88604 0
M  V30 22069 N 2054.56 1.56449 -0.190119 0
M  V30 22070 C 2055.51 2.20194 0.749479 0
M  V30 22071 C 2056.5 1.1716 1.22352 0
M  V30 22072 O 2057.71 1.35317 1.18699 0
M  V30 22073 H 2054.08 0.705613 0.260028 0
M  V30 22074 H 2056.05 2.97807 0.18808 0
M  V30 22075 C 2054.8 2.87151 1.9606 0
M  V30 22076 H 2054.13 3.66174 1.60489 0
M  V30 22077 H 2055.57 3.35198 2.5965 0
M  V30 22078 C 2054.02 1.87921 2.7962 0
M  V30 22079 O 2054.55 1.37638 3.77384 0
M  V30 22080 N 2052.76 1.5626 2.45013 0
M  V30 22081 H 2052.31 1.97343 1.6557 0
M  V30 22082 H 2052.27 0.901217 3.01207 0
M  V30 22083 N 2056.04 -0.0835127 1.57379 0
M  V30 22084 C 2057.28 -0.786031 1.86948 0
M  V30 22085 C 2057.62 -1.77811 0.780828 0
M  V30 22086 O 2056.89 -1.93362 -0.210075 0
M  V30 22087 C 2057.17 -1.50447 3.27166 0
M  V30 22088 C 2057.03 -0.529601 4.46671 0
M  V30 22089 C 2058.35 -2.45226 3.65448 0
M  V30 22090 H 2055.47 -0.284294 0.67996 0
M  V30 22091 H 2058.11 -0.0494231 1.89936 0
M  V30 22092 H 2056.26 -2.13237 3.24749 0
M  V30 22093 H 2057.93 0.0921842 4.61208 0
M  V30 22094 H 2056.17 0.156069 4.33519 0
M  V30 22095 H 2056.84 -1.06967 5.41537 0
M  V30 22096 H 2059.32 -1.92521 3.68883 0
M  V30 22097 H 2058.2 -2.92505 4.6447 0
M  V30 22098 H 2058.46 -3.29506 2.94751 0
M  V30 22099 N 2057.52 -1.53558 -0.354624 0
M  V30 22100 C 2058.75 -1.73941 -1.11481 0
M  V30 22101 C 2059.15 -0.473288 -1.83185 0
M  V30 22102 O 2058.5 0.564174 -1.74822 0
M  V30 22103 C 2058.56 -2.85765 -2.18125 0
M  V30 22104 C 2058.22 -4.25749 -1.66093 0
M  V30 22105 C 2059.22 -5.07712 -1.11914 0
M  V30 22106 C 2056.9 -4.72198 -1.71274 0
M  V30 22107 C 2058.9 -6.34218 -0.636077 0
M  V30 22108 C 2056.59 -5.9868 -1.2258 0
M  V30 22109 C 2057.58 -6.79522 -0.688378 0
M  V30 22110 O 2057.27 -8.03629 -0.208659 0
M  V30 22111 H 2057 -0.584973 -0.338796 0
M  V30 22112 H 2059.56 -2.01143 -0.416033 0
M  V30 22113 H 2057.79 -2.54063 -2.91528 0
M  V30 22114 H 2059.48 -2.94222 -2.79621 0
M  V30 22115 H 2060.24 -4.72995 -1.07241 0
M  V30 22116 H 2056.12 -4.09338 -2.12045 0
M  V30 22117 H 2059.67 -6.97266 -0.215934 0
M  V30 22118 H 2055.56 -6.32893 -1.26949 0
M  V30 22119 H 2056.33 -8.17847 -0.326976 0
M  V30 22120 N 2058.99 0.615033 -1.45104 0
M  V30 22121 C 2059.93 1.73963 -1.47689 0
M  V30 22122 C 2060.9 1.59132 -0.334015 0
M  V30 22123 O 2062.09 1.80796 -0.533407 0
M  V30 22124 C 2059.22 3.11713 -1.32487 0
M  V30 22125 C 2058.26 3.45152 -2.50544 0
M  V30 22126 S 2059.09 3.40825 -4.13035 0
M  V30 22127 C 2060.25 4.81168 -4.00285 0
M  V30 22128 H 2060.48 1.71506 -2.42843 0
M  V30 22129 H 2058.02 0.791046 -1.32596 0
M  V30 22130 H 2059.97 3.91196 -1.24403 0
M  V30 22131 H 2058.64 3.11692 -0.388156 0
M  V30 22132 H 2057.83 4.4543 -2.35813 0
M  V30 22133 H 2057.43 2.73168 -2.55451 0
M  V30 22134 H 2059.72 5.70792 -3.6497 0
M  V30 22135 H 2060.67 5.00955 -5.0045 0
M  V30 22136 H 2061.07 4.56499 -3.32067 0
M  V30 22137 N 2060.47 1.3227 0.85688 0
M  V30 22138 C 2061.7 1.25516 1.64101 0
M  V30 22139 C 2062.11 -0.179564 1.88346 0
M  V30 22140 O 2061.45 -1.12637 1.45116 0
M  V30 22141 C 2061.51 1.94285 3.02479 0
M  V30 22142 C 2061.18 3.43622 3.01286 0
M  V30 22143 C 2062.18 4.39144 2.78295 0
M  V30 22144 C 2059.86 3.85521 3.21992 0
M  V30 22145 C 2061.85 5.74541 2.7601 0
M  V30 22146 C 2059.54 5.21027 3.19334 0
M  V30 22147 C 2060.54 6.15348 2.96372 0
M  V30 22148 O 2060.23 7.48374 2.93583 0
M  V30 22149 H 2059.96 0.43443 0.517925 0
M  V30 22150 H 2062.51 1.7491 1.07683 0
M  V30 22151 H 2060.74 1.39458 3.60678 0
M  V30 22152 H 2062.43 1.81271 3.63175 0
M  V30 22153 H 2063.2 4.081 2.62067 0
M  V30 22154 H 2059.08 3.12528 3.38891 0
M  V30 22155 H 2062.62 6.48135 2.58006 0
M  V30 22156 H 2058.52 5.51701 3.35106 0
M  V30 22157 H 2059.29 7.57707 3.09553 0
M  V30 22158 N 2061.95 -1.07287 1.15444 0
M  V30 22159 C 2062.88 -2.16494 0.87478 0
M  V30 22160 C 2063.86 -1.69199 -0.174882 0
M  V30 22161 O 2065.05 -1.94178 -0.0291162 0
M  V30 22162 C 2062.18 -3.45387 0.364018 0
M  V30 22163 C 2061.13 -4.06137 1.35043 0
M  V30 22164 C 2060.46 -5.30118 0.69849 0
M  V30 22165 C 2061.76 -4.46089 2.71665 0
M  V30 22166 H 2063.45 -2.40146 1.78802 0
M  V30 22167 H 2061 -1.15415 0.861124 0
M  V30 22168 H 2062.95 -4.21111 0.15591 0
M  V30 22169 H 2061.67 -3.21324 -0.58469 0
M  V30 22170 H 2060.33 -3.32458 1.54491 0
M  V30 22171 H 2059.98 -5.02346 -0.256386 0
M  V30 22172 H 2059.68 -5.71721 1.35679 0
M  V30 22173 H 2061.2 -6.08548 0.500171 0
M  V30 22174 H 2062.62 -5.12939 2.56059 0
M  V30 22175 H 2061.01 -4.98645 3.33876 0
M  V30 22176 H 2062.08 -3.57427 3.2768 0
M  V30 22177 N 2063.43 -0.951342 -1.25647 0
M  V30 22178 C 2064.66 -0.62053 -1.97061 0
M  V30 22179 C 2065.07 0.810902 -1.70942 0
M  V30 22180 O 2064.41 1.55361 -0.980235 0
M  V30 22181 C 2064.47 -0.795277 -3.50593 0
M  V30 22182 C 2064.13 -2.20325 -4.00382 0
M  V30 22183 C 2065.13 -3.17963 -4.11334 0
M  V30 22184 C 2062.82 -2.52655 -4.34132 0
M  V30 22185 C 2064.81 -4.46028 -4.55344 0
M  V30 22186 C 2062.5 -3.8095 -4.77829 0
M  V30 22187 C 2063.5 -4.77449 -4.88397 0
M  V30 22188 O 2063.18 -6.03457 -5.31126 0
M  V30 22189 H 2062.92 -0.231839 -0.635001 0
M  V30 22190 H 2065.47 -1.27722 -1.60861 0
M  V30 22191 H 2063.7 -0.0814441 -3.86614 0
M  V30 22192 H 2065.39 -0.46601 -4.03216 0
M  V30 22193 H 2066.15 -2.94311 -3.85494 0
M  V30 22194 H 2062.03 -1.78274 -4.25135 0
M  V30 22195 H 2065.58 -5.21351 -4.63508 0
M  V30 22196 H 2061.47 -4.0441 -5.03113 0
M  V30 22197 H 2062.24 -6.06786 -5.49321 0
M  V30 22198 N 2064.91 1.40216 -0.719531 0
M  V30 22199 C 2066.15 2.00814 -0.26074 0
M  V30 22200 C 2066.48 1.5706 1.14727 0
M  V30 22201 O 2065.74 0.783515 1.79331 0
M  V30 22202 C 2066.03 3.56196 -0.293164 0
M  V30 22203 C 2065.7 4.19546 -1.65202 0
M  V30 22204 C 2064.36 4.36564 -2.02398 0
M  V30 22205 C 2066.71 4.54844 -2.54492 0
M  V30 22206 C 2064.04 4.86164 -3.28422 0
M  V30 22207 C 2066.39 5.05845 -3.79873 0
M  V30 22208 C 2065.06 5.21072 -4.17181 0
M  V30 22209 H 2064.33 0.734832 -0.0954117 0
M  V30 22210 H 2066.98 1.6777 -0.923337 0
M  V30 22211 H 2065.28 3.89172 0.453006 0
M  V30 22212 H 2066.98 4.00921 0.0797168 0
M  V30 22213 H 2063.57 4.06691 -1.35278 0
M  V30 22214 H 2067.75 4.41329 -2.2703 0
M  V30 22215 H 2063.01 4.96138 -3.57292 0
M  V30 22216 H 2067.18 5.32134 -4.49229 0
M  V30 22217 H 2064.81 5.59268 -5.14902 0
M  V30 22218 N 2066.38 0.466004 1.50553 0
M  V30 22219 C 2067.63 -0.0908736 2.02596 0
M  V30 22220 C 2067.96 -1.39827 1.34767 0
M  V30 22221 O 2067.24 -1.88693 0.471719 0
M  V30 22222 C 2067.52 -0.279963 3.5901 0
M  V30 22223 C 2067.37 1.0481 4.37419 0
M  V30 22224 C 2068.69 -1.03683 4.27712 0
M  V30 22225 H 2065.81 -0.031552 0.736324 0
M  V30 22226 H 2068.45 0.610602 1.79921 0
M  V30 22227 H 2066.6 -0.877461 3.78461 0
M  V30 22228 H 2068.28 1.68178 4.29551 0
M  V30 22229 H 2066.52 1.64595 4.01361 0
M  V30 22230 H 2067.19 0.869493 5.45109 0
M  V30 22231 H 2069.67 -0.53043 4.12705 0
M  V30 22232 H 2068.54 -1.13792 5.36975 0
M  V30 22233 H 2068.8 -2.07215 3.90531 0
M  V30 22234 N 2067.86 -1.56346 0.198413 0
M  V30 22235 C 2069.11 -1.96849 -0.439713 0
M  V30 22236 C 2069.42 -1.08829 -1.62529 0
M  V30 22237 O 2070.63 -1.39128 -2.33143 0
M  V30 22238 C 2069.09 -3.50111 -0.83369 0
M  V30 22239 C 2068.69 -4.46799 0.327785 0
M  V30 22240 C 2070.44 -3.99376 -1.43871 0
M  V30 22241 C 2068.34 -5.91336 -0.0873357 0
M  V30 22242 H 2067.27 -0.735034 -0.168052 0
M  V30 22243 H 2069.93 -1.81179 0.290957 0
M  V30 22244 H 2068.31 -3.61297 -1.62112 0
M  V30 22245 H 2069.48 -4.47347 1.10532 0
M  V30 22246 H 2067.8 -4.07746 0.844522 0
M  V30 22247 H 2070.39 -5.04841 -1.76181 0
M  V30 22248 H 2070.74 -3.43877 -2.34637 0
M  V30 22249 H 2071.27 -3.91318 -0.715186 0
M  V30 22250 H 2068.01 -6.50768 0.786222 0
M  V30 22251 H 2067.53 -5.94034 -0.829663 0
M  V30 22252 H 2069.21 -6.44891 -0.522002 0
M  V30 22253 N 2069.34 0.0751653 -1.57421 0
M  V30 22254 C 2070.59 0.774958 -1.87085 0
M  V30 22255 C 2070.92 1.77747 -0.789691 0
M  V30 22256 O 2070.17 1.94519 0.214672 0
M  V30 22257 C 2070.47 1.52138 -3.23402 0
M  V30 22258 C 2070.14 0.659153 -4.46056 0
M  V30 22259 C 2068.8 0.421528 -4.7935 0
M  V30 22260 C 2071.15 0.0610407 -5.21164 0
M  V30 22261 C 2068.48 -0.423745 -5.85168 0
M  V30 22262 C 2070.83 -0.771668 -6.27876 0
M  V30 22263 C 2069.49 -1.0192 -6.59673 0
M  V30 22264 H 2068.76 0.283577 -0.684591 0
M  V30 22265 H 2071.41 0.0358311 -1.91466 0
M  V30 22266 H 2069.72 2.33261 -3.14796 0
M  V30 22267 H 2071.41 2.06757 -3.43588 0
M  V30 22268 H 2068 0.854487 -4.19996 0
M  V30 22269 H 2072.19 0.231747 -4.95759 0
M  V30 22270 H 2067.44 -0.6243 -6.08204 0
M  V30 22271 H 2071.62 -1.24188 -6.85237 0
M  V30 22272 H 2069.24 -1.67595 -7.41496 0
M  V30 22273 N 2070.82 1.53744 0.346476 0
M  V30 22274 C 2072.07 1.70066 1.08445 0
M  V30 22275 C 2072.38 0.469013 1.89894 0
M  V30 22276 O 2073.59 0.513127 2.66607 0
M  V30 22277 C 2072.04 3.00716 1.97732 0
M  V30 22278 C 2071.65 4.31208 1.21504 0
M  V30 22279 C 2073.39 3.26404 2.71405 0
M  V30 22280 C 2071.3 5.52934 2.09804 0
M  V30 22281 H 2070.23 0.633711 0.408567 0
M  V30 22282 H 2072.88 1.80244 0.344133 0
M  V30 22283 H 2071.26 2.84388 2.75572 0
M  V30 22284 H 2072.44 4.5823 0.485955 0
M  V30 22285 H 2070.75 4.12111 0.596126 0
M  V30 22286 H 2073.35 4.14536 3.37733 0
M  V30 22287 H 2073.69 2.43286 3.37813 0
M  V30 22288 H 2074.23 3.43495 2.0064 0
M  V30 22289 H 2070.97 6.38587 1.47943 0
M  V30 22290 H 2070.49 5.30164 2.8051 0
M  V30 22291 H 2072.16 5.88463 2.68924 0
M  V30 22292 N 2072.3 -0.607329 1.45428 0
M  V30 22293 C 2073.55 -1.36242 1.48731 0
M  V30 22294 C 2073.86 -1.95145 0.13329 0
M  V30 22295 O 2075.06 -2.71464 0.0439733 0
M  V30 22296 C 2073.52 -2.46792 2.61957 0
M  V30 22297 C 2073.13 -1.94299 4.03673 0
M  V30 22298 C 2074.87 -3.238 2.74507 0
M  V30 22299 C 2072.78 -3.02333 5.0828 0
M  V30 22300 H 2071.71 -0.512076 0.553438 0
M  V30 22301 H 2074.36 -0.650885 1.71568 0
M  V30 22302 H 2072.74 -3.20632 2.32404 0
M  V30 22303 H 2073.92 -1.27167 4.42905 0
M  V30 22304 H 2072.23 -1.30036 3.95575 0
M  V30 22305 H 2074.83 -4.0438 3.4983 0
M  V30 22306 H 2075.17 -3.7482 1.8115 0
M  V30 22307 H 2075.7 -2.5706 3.03587 0
M  V30 22308 H 2072.44 -2.56229 6.03346 0
M  V30 22309 H 2071.96 -3.68031 4.73617 0
M  V30 22310 H 2073.64 -3.6671 5.33041 0
M  V30 22311 N 2073.77 -1.32722 -0.849853 0
M  V30 22312 C 2075.02 -1.23556 -1.60437 0
M  V30 22313 C 2075.35 0.201425 -1.93454 0
M  V30 22314 O 2074.6 1.15572 -1.57929 0
M  V30 22315 C 2074.9 -2.04524 -2.93095 0
M  V30 22316 C 2074.57 -3.53833 -2.79487 0
M  V30 22317 C 2073.23 -3.94541 -2.75483 0
M  V30 22318 C 2075.58 -4.48759 -2.65076 0
M  V30 22319 C 2072.91 -5.28409 -2.54953 0
M  V30 22320 C 2075.26 -5.82776 -2.4608 0
M  V30 22321 C 2073.93 -6.2268 -2.40471 0
M  V30 22322 H 2073.2 -0.452123 -0.587082 0
M  V30 22323 H 2075.84 -1.64198 -0.985462 0
M  V30 22324 H 2074.15 -1.56625 -3.59132 0
M  V30 22325 H 2075.85 -1.94797 -3.50507 0
M  V30 22326 H 2072.44 -3.21504 -2.83431 0
M  V30 22327 H 2076.62 -4.18225 -2.6721 0
M  V30 22328 H 2071.88 -5.58376 -2.4905 0
M  V30 22329 H 2076.05 -6.55942 -2.33909 0
M  V30 22330 H 2073.68 -7.26349 -2.24322 0
M  V30 22331 N 2075.25 1.06673 -1.16011 0
M  V30 22332 C 2076.5 1.79046 -0.937394 0
M  V30 22333 C 2076.82 1.87476 0.536438 0
M  V30 22334 O 2076.09 1.38065 1.38977 0
M  V30 22335 H 2074.67 0.663167 -0.343829 0
M  V30 22336 H 2077.33 1.28878 -1.46207 0
M  V30 22337 H 2076.43 2.81259 -1.35278 0
M  V30 22338 N 2076.73 0.957992 1.25141 0
M  V30 22339 C 2077.98 0.613378 1.92567 0
M  V30 22340 C 2078.3 -0.852805 1.75363 0
M  V30 22341 O 2077.57 -1.60775 1.11929 0
M  V30 22342 H 2076.15 0.223867 0.712666 0
M  V30 22343 H 2078.81 1.21696 1.52237 0
M  V30 22344 H 2077.91 0.845594 3.00427 0
M  V30 22345 N 2078.21 -1.39832 0.726957 0
M  V30 22346 C 2079.46 -2.00673 0.271386 0
M  V30 22347 C 2079.78 -1.57667 -1.13892 0
M  V30 22348 O 2079.04 -0.793014 -1.78913 0
M  V30 22349 C 2079.34 -3.56035 0.31205 0
M  V30 22350 C 2079 -4.18664 1.67425 0
M  V30 22351 C 2077.67 -4.35485 2.04711 0
M  V30 22352 C 2080.02 -4.53488 2.56901 0
M  V30 22353 C 2077.35 -4.84416 3.30996 0
M  V30 22354 C 2079.7 -5.03824 3.8255 0
M  V30 22355 C 2078.36 -5.18852 4.19939 0
M  V30 22356 H 2077.63 -0.734315 0.0993073 0
M  V30 22357 H 2080.28 -1.67278 0.932222 0
M  V30 22358 H 2078.58 -3.89407 -0.43236 0
M  V30 22359 H 2080.28 -4.00957 -0.0584539 0
M  V30 22360 H 2076.87 -4.05968 1.37433 0
M  V30 22361 H 2081.05 -4.40119 2.29367 0
M  V30 22362 H 2076.31 -4.94236 3.59918 0
M  V30 22363 H 2080.48 -5.29744 4.52045 0
M  V30 22364 H 2078.11 -5.56529 5.1786 0
M  V30 22365 N 2079.69 -0.473982 -1.50304 0
M  V30 22366 C 2080.93 0.0800096 -2.02342 0
M  V30 22367 C 2081.26 1.39461 -1.35576 0
M  V30 22368 O 2080.52 1.89937 -0.471407 0
M  V30 22369 C 2080.82 0.308841 -3.56063 0
M  V30 22370 C 2080.48 -0.924412 -4.41322 0
M  V30 22371 C 2079.14 -1.26253 -4.64342 0
M  V30 22372 C 2081.5 -1.7454 -4.91106 0
M  V30 22373 C 2078.82 -2.42164 -5.34391 0
M  V30 22374 C 2081.18 -2.89582 -5.62428 0
M  V30 22375 C 2079.84 -3.23805 -5.83701 0
M  V30 22376 H 2079.11 0.0292776 -0.740421 0
M  V30 22377 H 2081.76 -0.62865 -1.80887 0
M  V30 22378 H 2080.06 1.09977 -3.76048 0
M  V30 22379 H 2081.76 0.7515 -3.93895 0
M  V30 22380 H 2078.35 -0.650995 -4.23627 0
M  V30 22381 H 2082.53 -1.49735 -4.73173 0
M  V30 22382 H 2077.79 -2.6895 -5.49068 0
M  V30 22383 H 2081.96 -3.53542 -5.99984 0
M  V30 22384 H 2079.59 -4.13729 -6.37756 0
M  V30 22385 N 2081.16 1.56239 -0.206702 0
M  V30 22386 C 2082.39 2.02291 0.434267 0
M  V30 22387 C 2082.81 1.08672 1.54388 0
M  V30 22388 O 2082.16 0.0936387 1.8226 0
M  V30 22389 C 2082.22 3.47969 0.97978 0
M  V30 22390 O 2081.94 4.38016 -0.0855779 0
M  V30 22391 C 2083.44 4.09596 1.69548 0
M  V30 22392 H 2080.66 0.662272 0.107873 0
M  V30 22393 H 2083.2 2.02 -0.318809 0
M  V30 22394 H 2081.36 3.48923 1.68319 0
M  V30 22395 H 2081.77 5.2351 0.32218 0
M  V30 22396 H 2083.24 5.13343 2.02935 0
M  V30 22397 H 2083.72 3.53727 2.60334 0
M  V30 22398 H 2084.33 4.12448 1.03764 0
M  V30 22399 N 2082.64 -0.0668159 1.57458 0
M  V30 22400 C 2083.57 -1.0791 2.07069 0
M  V30 22401 C 2084.55 -1.40063 0.965207 0
M  V30 22402 O 2085.74 -1.49604 1.23823 0
M  V30 22403 C 2082.87 -2.39113 2.51877 0
M  V30 22404 C 2081.82 -2.213 3.66347 0
M  V30 22405 C 2081.15 -3.57931 3.97227 0
M  V30 22406 C 2082.45 -1.63013 4.9621 0
M  V30 22407 H 2084.14 -0.666254 2.91893 0
M  V30 22408 H 2081.69 -0.319039 1.40421 0
M  V30 22409 H 2083.64 -3.10226 2.85198 0
M  V30 22410 H 2082.37 -2.82387 1.64088 0
M  V30 22411 H 2081.02 -1.52628 3.33317 0
M  V30 22412 H 2080.67 -3.98784 3.06562 0
M  V30 22413 H 2080.37 -3.4685 4.74309 0
M  V30 22414 H 2081.9 -4.30467 4.33048 0
M  V30 22415 H 2083.31 -2.23997 5.27729 0
M  V30 22416 H 2081.71 -1.62614 5.77648 0
M  V30 22417 H 2082.78 -0.592078 4.81272 0
M  V30 22418 N 2084.12 -1.53926 -0.338317 0
M  V30 22419 C 2085.07 -1.82986 -1.43592 0
M  V30 22420 C 2086.06 -0.700699 -1.54229 0
M  V30 22421 O 2087.27 -0.884124 -1.5679 0
M  V30 22422 H 2083.64 -0.579808 -0.47888 0
M  V30 22423 H 2085.62 -2.74804 -1.16299 0
M  V30 22424 C 2084.36 -2.06092 -2.80038 0
M  V30 22425 H 2083.69 -2.92433 -2.72622 0
M  V30 22426 H 2085.13 -2.30388 -3.55946 0
M  V30 22427 C 2083.59 -0.848002 -3.26053 0
M  V30 22428 O 2084.12 -0.0499866 -4.01669 0
M  V30 22429 N 2082.32 -0.663759 -2.82918 0
M  V30 22430 H 2081.87 -1.31433 -2.21547 0
M  V30 22431 H 2081.83 0.146319 -3.14059 0
M  V30 22432 N 2085.6 0.599608 -1.45748 0
M  V30 22433 C 2086.53 1.72038 -1.57877 0
M  V30 22434 C 2087.51 1.64578 -0.429893 0
M  V30 22435 O 2088.7 1.82855 -0.654037 0
M  V30 22436 C 2085.83 3.10657 -1.55272 0
M  V30 22437 C 2084.78 3.32936 -2.68957 0
M  V30 22438 C 2084.11 4.71909 -2.51408 0
M  V30 22439 C 2085.41 3.22412 -4.10911 0
M  V30 22440 H 2087.1 1.62144 -2.51694 0
M  V30 22441 H 2084.65 0.778641 -1.21133 0
M  V30 22442 H 2086.6 3.8887 -1.62353 0
M  V30 22443 H 2085.32 3.21411 -0.579891 0
M  V30 22444 H 2083.98 2.57117 -2.61317 0
M  V30 22445 H 2083.63 4.79406 -1.52247 0
M  V30 22446 H 2083.33 4.8777 -3.2765 0
M  V30 22447 H 2084.85 5.52311 -2.60355 0
M  V30 22448 H 2086.27 3.90488 -4.19752 0
M  V30 22449 H 2084.66 3.498 -4.87607 0
M  V30 22450 H 2085.73 2.19732 -4.32256 0
M  V30 22451 N 2087.08 1.33171 0.842803 0
M  V30 22452 C 2088.32 1.24405 1.5978 0
M  V30 22453 C 2088.65 -0.191163 1.93558 0
M  V30 22454 O 2087.91 -1.14732 1.5854 0
M  V30 22455 C 2088.21 2.06076 2.92006 0
M  V30 22456 C 2087.87 3.5531 2.77607 0
M  V30 22457 C 2086.53 3.95996 2.73387 0
M  V30 22458 C 2088.89 4.50158 2.62692 0
M  V30 22459 C 2086.21 5.29754 2.52147 0
M  V30 22460 C 2088.57 5.84073 2.42986 0
M  V30 22461 C 2087.23 6.23946 2.37166 0
M  V30 22462 H 2086.5 0.45523 0.584676 0
M  V30 22463 H 2089.15 1.64718 0.97674 0
M  V30 22464 H 2087.45 1.58528 3.58296 0
M  V30 22465 H 2089.15 1.96653 3.49469 0
M  V30 22466 H 2085.74 3.23003 2.81722 0
M  V30 22467 H 2089.92 4.19636 2.64989 0
M  V30 22468 H 2085.18 5.59689 2.46085 0
M  V30 22469 H 2089.35 6.57173 2.30427 0
M  V30 22470 H 2086.98 7.27529 2.20467 0
M  V30 22471 N 2088.56 -1.06056 1.16576 0
M  V30 22472 C 2089.8 -1.79164 0.950155 0
M  V30 22473 C 2090.13 -1.87092 -0.520588 0
M  V30 22474 O 2089.41 -1.36429 -1.38627 0
M  V30 22475 C 2089.69 -3.23525 1.58125 0
M  V30 22476 C 2089.55 -3.23663 3.1235 0
M  V30 22477 C 2090.86 -4.21138 1.27792 0
M  V30 22478 H 2087.98 -0.650413 0.3466 0
M  V30 22479 H 2090.63 -1.24019 1.43942 0
M  V30 22480 H 2088.78 -3.70615 1.16521 0
M  V30 22481 H 2090.45 -2.84716 3.62953 0
M  V30 22482 H 2088.69 -2.62248 3.45555 0
M  V30 22483 H 2089.36 -4.25512 3.51629 0
M  V30 22484 H 2091.84 -3.82502 1.63803 0
M  V30 22485 H 2090.71 -5.20408 1.74547 0
M  V30 22486 H 2090.97 -4.4166 0.197169 0
M  V30 22487 N 2090.03 -0.964615 -1.24631 0
M  V30 22488 C 2091.28 -0.623582 -1.92239 0
M  V30 22489 C 2091.6 0.843493 -1.75813 0
M  V30 22490 O 2090.87 1.60179 -1.12781 0
M  V30 22491 H 2089.45 -0.227644 -0.711468 0
M  V30 22492 H 2092.11 -1.22502 -1.51589 0
M  V30 22493 H 2091.21 -0.861514 -2.99974 0
M  V30 22494 N 2091.51 1.39445 -0.734362 0
M  V30 22495 C 2092.76 2.00824 -0.282443 0
M  V30 22496 C 2093.09 1.58137 1.12722 0
M  V30 22497 O 2092.37 0.809969 1.76833 0
M  V30 22498 C 2092.65 3.58051 -0.38359 0
M  V30 22499 C 2092.5 4.10758 -1.83298 0
M  V30 22500 C 2093.82 4.39476 0.234349 0
M  V30 22501 H 2090.94 0.729611 -0.104103 0
M  V30 22502 H 2093.58 1.65661 -0.930397 0
M  V30 22503 H 2091.73 3.88136 0.168068 0
M  V30 22504 H 2093.4 3.91395 -2.44147 0
M  V30 22505 H 2091.65 3.64342 -2.35451 0
M  V30 22506 H 2092.32 5.19897 -1.85503 0
M  V30 22507 H 2094.79 4.15431 -0.235909 0
M  V30 22508 H 2093.67 5.48738 0.133228 0
M  V30 22509 H 2093.93 4.21924 1.32032 0
M  V30 22510 N 2092.99 0.481946 1.5005 0
M  V30 22511 C 2094.24 -0.0710199 2.01575 0
M  V30 22512 C 2094.55 -1.39798 1.36806 0
M  V30 22513 O 2095.76 -2.03653 1.79549 0
M  V30 22514 C 2094.21 -0.177064 3.59464 0
M  V30 22515 C 2093.82 1.14212 4.33197 0
M  V30 22516 C 2095.57 -0.681409 4.18995 0
M  V30 22517 C 2093.47 0.999274 5.82897 0
M  V30 22518 H 2092.4 -0.0303162 0.75339 0
M  V30 22519 H 2095.05 0.618487 1.72763 0
M  V30 22520 H 2093.44 -0.930598 3.8491 0
M  V30 22521 H 2094.61 1.90745 4.19467 0
M  V30 22522 H 2092.92 1.57841 3.85325 0
M  V30 22523 H 2095.52 -0.805484 5.28598 0
M  V30 22524 H 2095.86 -1.6755 3.81094 0
M  V30 22525 H 2096.4 0.015045 3.97797 0
M  V30 22526 H 2093.14 1.96706 6.2529 0
M  V30 22527 H 2092.66 0.274505 5.99172 0
M  V30 22528 H 2094.34 0.670265 6.43519 0
M  V30 22529 N 2094.47 -1.56127 0.214985 0
M  V30 22530 C 2095.72 -1.97304 -0.41881 0
M  V30 22531 C 2096.03 -1.10547 -1.61366 0
M  V30 22532 O 2097.24 -1.41593 -2.31654 0
M  V30 22533 C 2095.69 -3.50975 -0.796509 0
M  V30 22534 C 2095.3 -4.46426 0.375156 0
M  V30 22535 C 2097.04 -4.0088 -1.39627 0
M  V30 22536 C 2094.95 -5.91395 -0.0246118 0
M  V30 22537 H 2093.88 -0.736775 -0.160246 0
M  V30 22538 H 2096.53 -1.8086 0.310157 0
M  V30 22539 H 2094.91 -3.62996 -1.58271 0
M  V30 22540 H 2096.09 -4.46149 1.15271 0
M  V30 22541 H 2094.4 -4.06827 0.887721 0
M  V30 22542 H 2097 -5.06681 -1.70816 0
M  V30 22543 H 2097.34 -3.46346 -2.30977 0
M  V30 22544 H 2097.88 -3.92055 -0.673641 0
M  V30 22545 H 2094.61 -6.49897 0.855201 0
M  V30 22546 H 2094.13 -5.94881 -0.766611 0
M  V30 22547 H 2095.81 -6.45408 -0.453573 0
M  V30 22548 N 2095.95 0.0584645 -1.57492 0
M  V30 22549 C 2097.22 0.788828 -1.78988 0
M  V30 22550 C 2097.6 1.95112 -0.805878 0
M  V30 22551 O 2096.95 2.27951 0.158244 0
M  V30 22552 C 2097.16 1.24936 -3.25871 0
M  V30 22553 C 2098.51 1.67732 -3.90066 0
M  V30 22554 O 2099.53 1.34469 -3.29843 0
M  V30 22555 O 2098.39 2.29361 -4.9604 0
M  V30 22556 H 2095.49 0.379032 -0.735027 0
M  V30 22557 H 2098.03 0.0375096 -1.69659 0
M  V30 22558 H 2096.8 0.418302 -3.89058 0
M  V30 22559 H 2096.43 2.06159 -3.39977 0
M  V30 22560 N 2097.42 1.54103 0.330149 0
M  V30 22561 C 2098.37 1.83745 1.4262 0
M  V30 22562 C 2099.37 0.708869 1.53855 0
M  V30 22563 O 2100.57 0.892427 1.56319 0
M  V30 22564 H 2096.95 0.58234 0.475799 0
M  V30 22565 H 2098.92 2.75417 1.1484 0
M  V30 22566 C 2097.67 2.07574 2.78941 0
M  V30 22567 H 2096.99 2.93875 2.71068 0
M  V30 22568 H 2098.43 2.32273 3.54719 0
M  V30 22569 C 2096.89 0.865282 3.25599 0
M  V30 22570 O 2097.42 0.0712874 4.01637 0
M  V30 22571 N 2095.62 0.678754 2.82562 0
M  V30 22572 H 2095.17 1.32607 2.20847 0
M  V30 22573 H 2095.13 -0.129662 3.14133 0
M  V30 22574 N 2098.9 -0.59187 1.46064 0
M  V30 22575 C 2100.15 -1.3504 1.50899 0
M  V30 22576 C 2100.48 -1.93865 0.156992 0
M  V30 22577 O 2099.73 -1.76455 -0.846284 0
M  V30 22578 C 2100.03 -2.50587 2.54835 0
M  V30 22579 C 2099.7 -2.09811 3.99111 0
M  V30 22580 C 2098.36 -1.98406 4.38393 0
M  V30 22581 C 2100.71 -1.78225 4.89781 0
M  V30 22582 C 2098.04 -1.53658 5.66221 0
M  V30 22583 C 2100.39 -1.34959 6.18036 0
M  V30 22584 C 2099.06 -1.22123 6.56233 0
M  V30 22585 H 2098.33 -0.494146 0.552178 0
M  V30 22586 H 2100.97 -0.667418 1.79493 0
M  V30 22587 H 2099.28 -3.24292 2.19868 0
M  V30 22588 H 2100.97 -3.08809 2.55809 0
M  V30 22589 H 2097.56 -2.1962 3.68056 0
M  V30 22590 H 2101.75 -1.85927 4.60158 0
M  V30 22591 H 2097 -1.42356 5.94596 0
M  V30 22592 H 2101.18 -1.09569 6.87726 0
M  V30 22593 H 2098.81 -0.872249 7.55179 0
M  V30 22594 N 2100.38 -1.33616 -0.835729 0
M  V30 22595 C 2101.33 -1.24117 -1.96717 0
M  V30 22596 C 2102.32 -0.141892 -1.68805 0
M  V30 22597 O 2103.53 -0.306054 -1.77379 0
M  V30 22598 H 2099.9 -0.385249 -0.645823 0
M  V30 22599 H 2101.87 -2.19767 -2.01854 0
M  V30 22600 C 2100.62 -1.00045 -3.32996 0
M  V30 22601 H 2099.95 -1.8386 -3.55015 0
M  V30 22602 H 2101.39 -0.974302 -4.12654 0
M  V30 22603 C 2099.85 0.296559 -3.35592 0
M  V30 22604 O 2100.38 1.30221 -3.80007 0
M  V30 22605 N 2098.58 0.325196 -2.88775 0
M  V30 22606 H 2098.13 -0.493733 -2.52824 0
M  V30 22607 H 2098.09 1.19281 -2.90894 0
M  V30 22608 N 2101.86 1.05436 -1.17136 0
M  V30 22609 C 2102.79 2.13111 -0.843582 0
M  V30 22610 C 2103.8 1.6208 0.152942 0
M  V30 22611 O 2104.99 1.78351 -0.0730153 0
M  V30 22612 C 2102.09 3.38072 -0.236753 0
M  V30 22613 C 2101.27 4.18389 -1.27553 0
M  V30 22614 C 2100.32 5.21697 -0.686916 0
M  V30 22615 O 2099.35 5.52761 -1.35807 0
M  V30 22616 N 2100.55 5.78146 0.522229 0
M  V30 22617 H 2103.32 2.41827 -1.7703 0
M  V30 22618 H 2100.88 1.21513 -1.06987 0
M  V30 22619 H 2102.87 4.04342 0.170262 0
M  V30 22620 H 2101.44 3.0691 0.593699 0
M  V30 22621 H 2100.66 3.47645 -1.85839 0
M  V30 22622 H 2101.95 4.6885 -1.97628 0
M  V30 22623 H 2101.35 5.55188 1.0855 0
M  V30 22624 H 2099.9 6.4595 0.871341 0
M  V30 22625 N 2103.34 0.971211 1.24118 0
M  V30 22626 C 2104.27 0.462026 2.24495 0
M  V30 22627 C 2105.28 -0.431143 1.56987 0
M  V30 22628 O 2106.47 -0.236754 1.76923 0
M  V30 22629 C 2103.57 -0.351913 3.37068 0
M  V30 22630 C 2102.74 0.532187 4.3415 0
M  V30 22631 C 2101.8 -0.22634 5.25713 0
M  V30 22632 O 2100.83 0.380923 5.67924 0
M  V30 22633 N 2102.03 -1.51493 5.60384 0
M  V30 22634 H 2104.8 1.32507 2.68816 0
M  V30 22635 H 2102.36 0.843431 1.38195 0
M  V30 22636 H 2104.35 -0.867478 3.95293 0
M  V30 22637 H 2102.92 -1.1159 2.92004 0
M  V30 22638 H 2102.14 1.22869 3.74562 0
M  V30 22639 H 2103.43 1.13503 4.95978 0
M  V30 22640 H 2102.82 -2.02997 5.28023 0
M  V30 22641 H 2101.38 -1.97612 6.21122 0
M  V30 22642 N 2104.81 -1.39054 0.741747 0
M  V30 22643 C 2105.76 -2.30556 0.106197 0
M  V30 22644 C 2106.73 -1.49566 -0.722434 0
M  V30 22645 O 2107.92 -1.78233 -0.681008 0
M  V30 22646 C 2105.06 -3.35936 -0.790013 0
M  V30 22647 C 2104.17 -4.31969 0.051964 0
M  V30 22648 C 2103.3 -5.24418 -0.846146 0
M  V30 22649 C 2102.34 -6.121 0.000177444 0
M  V30 22650 N 2101.48 -6.96884 -0.854237 0
M  V30 22651 H 2106.32 -2.84333 0.892113 0
M  V30 22652 H 2103.86 -1.39997 0.451583 0
M  V30 22653 H 2105.82 -3.95629 -1.32413 0
M  V30 22654 H 2104.45 -2.83597 -1.54183 0
M  V30 22655 H 2103.5 -3.73837 0.70358 0
M  V30 22656 H 2104.81 -4.93777 0.706061 0
M  V30 22657 H 2103.96 -5.8917 -1.44786 0
M  V30 22658 H 2102.7 -4.62947 -1.53401 0
M  V30 22659 H 2101.71 -5.46353 0.614648 0
M  V30 22660 H 2102.93 -6.75637 0.684921 0
M  V30 22661 H 2100.88 -6.37974 -1.52727 0
M  V30 22662 H 2100.8 -7.55564 -0.256771 0
M  V30 22663 H 2102.06 -7.66059 -1.4413 0
M  V30 22664 N 2106.29 -0.489897 -1.49792 0
M  V30 22665 C 2107.24 0.294423 -2.28914 0
M  V30 22666 C 2108.21 0.970384 -1.34806 0
M  V30 22667 O 2109.39 0.979195 -1.63757 0
M  V30 22668 C 2106.53 1.35949 -3.17194 0
M  V30 22669 C 2105.65 0.696419 -4.2635 0
M  V30 22670 C 2104.78 1.74098 -5.0186 0
M  V30 22671 C 2103.82 1.05917 -6.02866 0
M  V30 22672 N 2102.96 2.04743 -6.71584 0
M  V30 22673 H 2107.8 -0.386562 -2.95482 0
M  V30 22674 H 2105.34 -0.202479 -1.457 0
M  V30 22675 H 2107.29 1.98886 -3.66743 0
M  V30 22676 H 2105.92 2.00938 -2.52633 0
M  V30 22677 H 2104.98 -0.0459714 -3.80372 0
M  V30 22678 H 2106.29 0.159163 -4.98546 0
M  V30 22679 H 2105.44 2.44568 -5.55222 0
M  V30 22680 H 2104.18 2.31207 -4.29412 0
M  V30 22681 H 2103.19 0.340189 -5.48747 0
M  V30 22682 H 2104.41 0.494725 -6.77296 0
M  V30 22683 H 2102.36 2.60835 -6.01915 0
M  V30 22684 H 2102.27 1.56053 -7.39718 0
M  V30 22685 H 2103.54 2.74536 -7.29555 0
M  V30 22686 N 2107.77 1.56011 -0.223262 0
M  V30 22687 C 2108.72 2.20365 0.686157 0
M  V30 22688 C 2109.69 1.15978 1.18905 0
M  V30 22689 O 2110.87 1.44339 1.24783 0
M  V30 22690 C 2108.01 2.88879 1.88793 0
M  V30 22691 C 2107.13 4.07863 1.42378 0
M  V30 22692 C 2106.26 4.64156 2.58326 0
M  V30 22693 C 2105.3 5.75438 2.08656 0
M  V30 22694 N 2104.44 6.26015 3.17883 0
M  V30 22695 H 2109.28 2.97713 0.130656 0
M  V30 22696 H 2106.81 1.47005 0.0527363 0
M  V30 22697 H 2108.77 3.26788 2.59356 0
M  V30 22698 H 2107.4 2.14045 2.41629 0
M  V30 22699 H 2106.45 3.75428 0.613024 0
M  V30 22700 H 2107.77 4.88268 1.01958 0
M  V30 22701 H 2106.92 5.04517 3.36968 0
M  V30 22702 H 2105.66 3.82918 3.02035 0
M  V30 22703 H 2104.66 5.34578 1.28476 0
M  V30 22704 H 2105.89 6.58513 1.65944 0
M  V30 22705 H 2103.83 5.4769 3.61071 0
M  V30 22706 H 2103.75 7.01548 2.8172 0
M  V30 22707 H 2105.02 6.71033 3.96655 0
M  V30 22708 N 2109.25 -0.0501116 1.5752 0
M  V30 22709 C 2110.18 -1.05708 2.08202 0
M  V30 22710 C 2111.16 -1.39032 0.980009 0
M  V30 22711 O 2112.34 -1.48283 1.25403 0
M  V30 22712 C 2109.47 -2.36429 2.54399 0
M  V30 22713 C 2108.43 -2.17402 3.68674 0
M  V30 22714 C 2107.75 -3.53698 4.01001 0
M  V30 22715 C 2109.05 -1.57741 4.97911 0
M  V30 22716 H 2110.75 -0.635258 2.92583 0
M  V30 22717 H 2108.29 -0.304127 1.40752 0
M  V30 22718 H 2110.25 -3.07184 2.88472 0
M  V30 22719 H 2108.97 -2.80631 1.67074 0
M  V30 22720 H 2107.63 -1.49084 3.34917 0
M  V30 22721 H 2107.28 -3.9551 3.10774 0
M  V30 22722 H 2106.98 -3.418 4.77961 0
M  V30 22723 H 2108.5 -4.25849 4.3759 0
M  V30 22724 H 2109.92 -2.18387 5.30075 0
M  V30 22725 H 2108.31 -1.56478 5.7934 0
M  V30 22726 H 2109.38 -0.540999 4.81873 0
M  V30 22727 N 2110.73 -1.54276 -0.321972 0
M  V30 22728 C 2111.97 -1.72216 -1.05764 0
M  V30 22729 C 2112.3 -0.499518 -1.88494 0
M  V30 22730 O 2111.57 0.486466 -1.89764 0
M  V30 22731 H 2110.15 -0.634976 -0.393465 0
M  V30 22732 H 2112.81 -1.91583 -0.358025 0
M  V30 22733 H 2111.9 -2.60245 -1.72275 0
M  V30 22734 N 2112.2 0.584116 -1.46376 0
M  V30 22735 C 2113.45 1.33973 -1.51313 0
M  V30 22736 C 2113.77 1.94294 -0.165758 0
M  V30 22737 O 2113.04 1.78481 0.807546 0
M  V30 22738 H 2111.62 0.497422 -0.557298 0
M  V30 22739 H 2114.29 0.684191 -1.82496 0
M  V30 22740 H 2113.38 2.14716 -2.26503 0
M  V30 22741 N 2113.68 1.34058 0.828631 0
M  V30 22742 C 2114.62 1.21002 1.94657 0
M  V30 22743 C 2115.63 0.138478 1.6221 0
M  V30 22744 O 2116.82 0.389824 1.74191 0
M  V30 22745 C 2113.92 0.835704 3.28434 0
M  V30 22746 C 2113.09 2.00103 3.88944 0
M  V30 22747 C 2112.15 1.60604 5.01092 0
M  V30 22748 O 2111.18 2.32182 5.19692 0
M  V30 22749 N 2112.38 0.516907 5.78194 0
M  V30 22750 H 2115.14 2.17309 2.0639 0
M  V30 22751 H 2112.7 1.26938 1.00491 0
M  V30 22752 H 2114.7 0.553361 4.00899 0
M  V30 22753 H 2113.27 -0.0370007 3.12578 0
M  V30 22754 H 2112.49 2.44843 3.08943 0
M  V30 22755 H 2113.77 2.78052 4.26104 0
M  V30 22756 H 2113.17 -0.0782718 5.65646 0
M  V30 22757 H 2111.73 0.294274 6.51135 0
M  V30 22758 N 2115.16 -1.04814 1.17694 0
M  V30 22759 C 2116.44 -1.74812 0.877499 0
M  V30 22760 C 2116.82 -2.01747 -0.621383 0
M  V30 22761 O 2116.17 -1.6566 -1.57382 0
M  V30 22762 C 2116.38 -3.03866 1.71658 0
M  V30 22763 C 2117.72 -3.77745 1.93891 0
M  V30 22764 O 2118.75 -3.13746 1.68648 0
M  V30 22765 O 2117.61 -4.92753 2.3634 0
M  V30 22766 H 2114.7 -0.760352 0.32526 0
M  V30 22767 H 2117.25 -1.10947 1.28409 0
M  V30 22768 H 2116.02 -2.8004 2.73301 0
M  V30 22769 H 2115.64 -3.75469 1.30801 0
M  V30 22770 N 2116.64 -0.977779 -1.23601 0
M  V30 22771 C 2117.89 -0.640749 -1.91252 0
M  V30 22772 C 2118.2 0.829108 -1.77159 0
M  V30 22773 O 2119.41 1.27709 -2.39589 0
M  V30 22774 C 2117.86 -1.09542 -3.42824 0
M  V30 22775 C 2117.47 -2.58944 -3.65584 0
M  V30 22776 C 2119.22 -0.832015 -4.16266 0
M  V30 22777 C 2117.12 -2.98092 -5.10779 0
M  V30 22778 H 2116.05 -0.235949 -0.716131 0
M  V30 22779 H 2118.7 -1.18533 -1.40079 0
M  V30 22780 H 2117.09 -0.479076 -3.93091 0
M  V30 22781 H 2118.26 -3.25795 -3.25875 0
M  V30 22782 H 2116.57 -2.83003 -3.05447 0
M  V30 22783 H 2119.17 -1.10039 -5.23255 0
M  V30 22784 H 2119.51 0.231859 -4.15654 0
M  V30 22785 H 2120.05 -1.40982 -3.7198 0
M  V30 22786 H 2116.79 -4.03592 -5.16521 0
M  V30 22787 H 2116.31 -2.35933 -5.51449 0
M  V30 22788 H 2117.99 -2.88553 -5.79091 0
M  V30 22789 N 2118.12 1.38658 -0.749111 0
M  V30 22790 C 2119.36 2.00216 -0.303277 0
M  V30 22791 C 2119.69 1.59459 1.1137 0
M  V30 22792 O 2118.95 0.821377 1.77628 0
M  V30 22793 C 2119.25 3.55494 -0.368653 0
M  V30 22794 C 2118.91 4.15948 -1.74064 0
M  V30 22795 C 2117.57 4.32173 -2.11613 0
M  V30 22796 C 2119.93 4.49344 -2.64083 0
M  V30 22797 C 2117.25 4.79088 -3.38661 0
M  V30 22798 C 2119.61 4.97674 -3.90517 0
M  V30 22799 C 2118.27 5.12106 -4.2814 0
M  V30 22800 H 2117.54 0.732643 -0.110977 0
M  V30 22801 H 2120.19 1.65774 -0.958716 0
M  V30 22802 H 2118.49 3.90046 0.370354 0
M  V30 22803 H 2120.19 4.01 -0.00534235 0
M  V30 22804 H 2116.78 4.0373 -1.43875 0
M  V30 22805 H 2120.96 4.36414 -2.3634 0
M  V30 22806 H 2116.22 4.88447 -3.67735 0
M  V30 22807 H 2120.39 5.22485 -4.60415 0
M  V30 22808 H 2118.02 5.4822 -5.26649 0
M  V30 22809 N 2119.6 0.497834 1.49531 0
M  V30 22810 C 2120.53 -0.328854 2.25818 0
M  V30 22811 C 2121.51 -0.97314 1.30264 0
M  V30 22812 O 2122.69 -1.00386 1.59546 0
M  V30 22813 C 2119.82 -1.46289 3.05479 0
M  V30 22814 C 2118.86 -0.933294 4.16163 0
M  V30 22815 S 2119.7 0.173411 5.35219 0
M  V30 22816 C 2120.85 -0.963862 6.18434 0
M  V30 22817 H 2121.09 0.318653 2.95587 0
M  V30 22818 H 2118.62 0.283085 1.51783 0
M  V30 22819 H 2120.58 -2.11268 3.5196 0
M  V30 22820 H 2119.24 -2.08199 2.35185 0
M  V30 22821 H 2118.43 -1.78306 4.71405 0
M  V30 22822 H 2118.03 -0.360765 3.72256 0
M  V30 22823 H 2120.32 -1.86978 6.51188 0
M  V30 22824 H 2121.27 -0.450129 7.06668 0
M  V30 22825 H 2121.68 -1.22977 5.50942 0
M  V30 22826 N 2121.07 -1.5589 0.231532 0
M  V30 22827 C 2122.3 -2.02956 -0.40203 0
M  V30 22828 C 2122.72 -1.11115 -1.5264 0
M  V30 22829 O 2122.07 -0.122623 -1.82088 0
M  V30 22830 C 2122.12 -3.49484 -0.924297 0
M  V30 22831 O 2121.85 -4.37825 0.155252 0
M  V30 22832 C 2123.35 -4.12241 -1.6301 0
M  V30 22833 H 2120.57 -0.663905 -0.097323 0
M  V30 22834 H 2123.11 -2.01467 0.350905 0
M  V30 22835 H 2121.27 -3.51557 -1.62747 0
M  V30 22836 H 2121.68 -5.23956 -0.238854 0
M  V30 22837 H 2123.15 -5.16507 -1.94742 0
M  V30 22838 H 2123.63 -3.57824 -2.54674 0
M  V30 22839 H 2124.24 -4.14046 -0.971887 0
M  V30 22840 N 2122.55 0.0417572 -1.57545 0
M  V30 22841 C 2123.46 1.06351 -2.09109 0
M  V30 22842 C 2124.48 1.40464 -1.02694 0
M  V30 22843 O 2125.65 1.50038 -1.34352 0
M  V30 22844 C 2122.72 2.34925 -2.54973 0
M  V30 22845 C 2121.78 2.0751 -3.75816 0
M  V30 22846 C 2121.01 3.29954 -4.19483 0
M  V30 22847 O 2121.24 4.40174 -3.62772 0
M  V30 22848 O 2120.17 3.16399 -5.12031 0
M  V30 22849 H 2124 0.655348 -2.96545 0
M  V30 22850 H 2121.58 0.257909 -1.47157 0
M  V30 22851 H 2123.46 3.10537 -2.84859 0
M  V30 22852 H 2122.14 2.75062 -1.70653 0
M  V30 22853 H 2121.04 1.29507 -3.50968 0
M  V30 22854 H 2122.38 1.72237 -4.61081 0
M  V30 22855 N 2124.03 1.54445 0.313786 0
M  V30 22856 C 2124.94 1.87547 1.40937 0
M  V30 22857 C 2125.96 0.768341 1.56117 0
M  V30 22858 O 2127.13 1.06358 1.71026 0
M  V30 22859 C 2124.2 2.10467 2.75508 0
M  V30 22860 C 2123.26 3.34232 2.69421 0
M  V30 22861 C 2122.49 3.56049 3.97574 0
M  V30 22862 O 2122.71 2.81118 4.96316 0
M  V30 22863 O 2121.65 4.49546 4.0024 0
M  V30 22864 H 2125.47 2.80728 1.15868 0
M  V30 22865 H 2123.06 1.40473 0.508698 0
M  V30 22866 H 2124.94 2.26817 3.55151 0
M  V30 22867 H 2123.62 1.20474 3.00446 0
M  V30 22868 H 2122.52 3.23259 1.88294 0
M  V30 22869 H 2123.86 4.24314 2.49436 0
M  V30 22870 N 2125.51 -0.576345 1.46683 0
M  V30 22871 C 2126.44 -1.69965 1.53768 0
M  V30 22872 C 2127.45 -1.57142 0.425462 0
M  V30 22873 O 2128.64 -1.6445 0.694142 0
M  V30 22874 C 2125.74 -3.08273 1.40788 0
M  V30 22875 C 2124.91 -3.47036 2.66242 0
M  V30 22876 C 2123.97 -4.6443 2.47369 0
M  V30 22877 O 2123 -4.69971 3.21117 0
M  V30 22878 N 2124.2 -5.59714 1.53948 0
M  V30 22879 H 2126.97 -1.6434 2.50624 0
M  V30 22880 H 2124.53 -0.762495 1.4282 0
M  V30 22881 H 2126.52 -3.8461 1.25925 0
M  V30 22882 H 2125.09 -3.0823 0.520883 0
M  V30 22883 H 2124.31 -2.6034 2.96001 0
M  V30 22884 H 2125.6 -3.69703 3.49567 0
M  V30 22885 H 2125 -5.57979 0.931464 0
M  V30 22886 H 2123.55 -6.35456 1.45046 0
M  V30 22887 N 2126.99 -1.34495 -0.82151 0
M  V30 22888 C 2127.93 -1.26188 -1.93249 0
M  V30 22889 C 2128.9 -0.136822 -1.65536 0
M  V30 22890 O 2130.09 -0.318035 -1.88131 0
M  V30 22891 C 2127.23 -1.02467 -3.29537 0
M  V30 22892 C 2126.34 -2.2376 -3.69534 0
M  V30 22893 C 2125.48 -1.93311 -4.94777 0
M  V30 22894 C 2124.51 -3.10739 -5.27359 0
M  V30 22895 N 2123.65 -2.80164 -6.4378 0
M  V30 22896 H 2128.49 -2.21199 -1.99687 0
M  V30 22897 H 2126.03 -1.09974 -0.976936 0
M  V30 22898 H 2127.99 -0.867518 -4.08081 0
M  V30 22899 H 2126.62 -0.111236 -3.22608 0
M  V30 22900 H 2125.67 -2.50391 -2.86371 0
M  V30 22901 H 2126.98 -3.11491 -3.89583 0
M  V30 22902 H 2126.13 -1.7434 -5.81112 0
M  V30 22903 H 2124.87 -1.02842 -4.76733 0
M  V30 22904 H 2123.88 -3.30304 -4.39521 0
M  V30 22905 H 2125.1 -4.01988 -5.47341 0
M  V30 22906 H 2123.05 -1.92273 -6.2719 0
M  V30 22907 H 2122.97 -3.61428 -6.64007 0
M  V30 22908 H 2124.23 -2.647 -7.33181 0
M  V30 22909 N 2128.46 1.04188 -1.18248 0
M  V30 22910 C 2129.41 2.12172 -0.908383 0
M  V30 22911 C 2130.38 1.65406 0.151732 0
M  V30 22912 O 2131.57 1.90796 0.0123583 0
M  V30 22913 C 2128.71 3.42298 -0.43889 0
M  V30 22914 C 2127.82 4.02684 -1.56428 0
M  V30 22915 C 2126.95 5.20767 -1.04764 0
M  V30 22916 C 2125.99 5.7318 -2.14781 0
M  V30 22917 N 2125.13 6.82553 -1.64519 0
M  V30 22918 H 2129.97 2.34956 -1.83302 0
M  V30 22919 H 2127.51 1.15252 -0.914073 0
M  V30 22920 H 2129.47 4.16937 -0.14817 0
M  V30 22921 H 2128.1 3.19665 0.448774 0
M  V30 22922 H 2127.15 3.25384 -1.97051 0
M  V30 22923 H 2128.46 4.37613 -2.39366 0
M  V30 22924 H 2127.61 6.02515 -0.711371 0
M  V30 22925 H 2126.35 4.87338 -0.18783 0
M  V30 22926 H 2125.36 4.90054 -2.49253 0
M  V30 22927 H 2126.58 6.08653 -3.01195 0
M  V30 22928 H 2124.53 6.51002 -0.808251 0
M  V30 22929 H 2124.45 7.16539 -2.41056 0
M  V30 22930 H 2125.71 7.67928 -1.33815 0
M  V30 22931 N 2129.94 0.98432 1.23081 0
M  V30 22932 C 2131.17 0.672559 1.95346 0
M  V30 22933 C 2131.58 -0.765295 1.73031 0
M  V30 22934 O 2130.92 -1.52708 1.02108 0
M  V30 22935 C 2130.99 0.887951 3.48361 0
M  V30 22936 C 2130.65 2.30863 3.944 0
M  V30 22937 C 2131.65 3.28757 4.02759 0
M  V30 22938 C 2129.33 2.64077 4.27281 0
M  V30 22939 C 2131.33 4.57943 4.43358 0
M  V30 22940 C 2129.01 3.93485 4.67561 0
M  V30 22941 C 2130.01 4.9023 4.75567 0
M  V30 22942 O 2129.7 6.17327 5.1494 0
M  V30 22943 H 2129.43 0.248593 0.628631 0
M  V30 22944 H 2131.98 1.31942 1.57418 0
M  V30 22945 H 2130.21 0.183919 3.86262 0
M  V30 22946 H 2131.9 0.572752 4.01839 0
M  V30 22947 H 2132.67 3.04428 3.77556 0
M  V30 22948 H 2128.55 1.89483 4.20258 0
M  V30 22949 H 2132.09 5.33456 4.49522 0
M  V30 22950 H 2127.99 4.17607 4.92214 0
M  V30 22951 H 2128.76 6.21137 5.3304 0
M  V30 22952 N 2131.42 -1.38259 0.756453 0
M  V30 22953 C 2132.65 -2.04038 0.324328 0
M  V30 22954 C 2133.06 -1.57176 -1.05321 0
M  V30 22955 O 2132.4 -0.741386 -1.68075 0
M  V30 22956 C 2132.46 -3.58472 0.271651 0
M  V30 22957 C 2132.13 -4.28403 1.59121 0
M  V30 22958 C 2133.12 -4.53578 2.54092 0
M  V30 22959 C 2130.81 -4.66536 1.86143 0
M  V30 22960 C 2132.8 -5.15923 3.74302 0
M  V30 22961 C 2130.49 -5.28605 3.06627 0
M  V30 22962 C 2131.49 -5.53233 4.00527 0
M  V30 22963 O 2131.18 -6.14009 5.18892 0
M  V30 22964 H 2130.91 -0.662169 0.136046 0
M  V30 22965 H 2133.46 -1.77878 1.02707 0
M  V30 22966 H 2131.69 -3.83617 -0.487352 0
M  V30 22967 H 2133.38 -4.05687 -0.131344 0
M  V30 22968 H 2134.15 -4.24545 2.34492 0
M  V30 22969 H 2130.03 -4.4671 1.1389 0
M  V30 22970 H 2133.57 -5.35063 4.47609 0
M  V30 22971 H 2129.47 -5.57061 3.26119 0
M  V30 22972 H 2130.24 -6.32495 5.19512 0
M  V30 22973 N 2132.9 -0.505757 -1.49264 0
M  V30 22974 C 2133.85 0.28378 -2.30862 0
M  V30 22975 C 2134.84 0.958332 -1.39687 0
M  V30 22976 O 2136.05 0.885479 -1.56714 0
M  V30 22977 H 2132.42 0.110376 -0.743856 0
M  V30 22978 H 2134.39 -0.424349 -2.95367 0
M  V30 22979 C 2133.14 1.33255 -3.21152 0
M  V30 22980 H 2132.46 0.822894 -3.9124 0
M  V30 22981 H 2133.9 1.85687 -3.81177 0
M  V30 22982 C 2132.36 2.35327 -2.41087 0
M  V30 22983 O 2132.89 3.41302 -2.1184 0
M  V30 22984 N 2131.1 2.07918 -2.03023 0
M  V30 22985 H 2130.65 1.21758 -2.27009 0
M  V30 22986 H 2130.6 2.7644 -1.49762 0
M  V30 22987 N 2134.38 1.55765 -0.239796 0
M  V30 22988 C 2135.34 2.19809 0.649364 0
M  V30 22989 C 2136.34 1.16526 1.10808 0
M  V30 22990 O 2137.53 1.41651 1.01394 0
M  V30 22991 C 2134.66 2.83599 1.89168 0
M  V30 22992 H 2135.85 2.99763 0.0907114 0
M  V30 22993 H 2133.41 1.56297 0.00977153 0
M  V30 22994 H 2134.14 2.07564 2.49174 0
M  V30 22995 H 2133.93 3.5925 1.57104 0
M  V30 22996 H 2135.42 3.32634 2.52477 0
M  V30 22997 N 2135.85 -0.0334016 1.57565 0
M  V30 22998 C 2136.79 -1.06832 2.01649 0
M  V30 22999 C 2137.77 -1.35418 0.900045 0
M  V30 23000 O 2138.95 -1.48147 1.16553 0
M  V30 23001 C 2136.08 -2.40405 2.38586 0
M  V30 23002 C 2135.12 -2.27704 3.60629 0
M  V30 23003 S 2135.96 -1.63459 5.09943 0
M  V30 23004 C 2137.11 -2.98531 5.50118 0
M  V30 23005 H 2137.34 -0.692807 2.89115 0
M  V30 23006 H 2134.88 -0.243236 1.52472 0
M  V30 23007 H 2136.84 -3.17222 2.60538 0
M  V30 23008 H 2135.5 -2.75105 1.51579 0
M  V30 23009 H 2134.69 -3.263 3.84115 0
M  V30 23010 H 2134.29 -1.59029 3.38505 0
M  V30 23011 H 2136.58 -3.94861 5.50537 0
M  V30 23012 H 2137.53 -2.79783 6.50482 0
M  V30 23013 H 2137.93 -3.00904 4.77616 0
M  V30 23014 N 2137.33 -1.54609 -0.305591 0
M  V30 23015 C 2138.28 -1.85242 -1.37673 0
M  V30 23016 C 2139.25 -0.700952 -1.50585 0
M  V30 23017 O 2140.43 -0.949135 -1.65518 0
M  V30 23018 C 2137.57 -2.10127 -2.73753 0
M  V30 23019 C 2136.69 -3.37767 -2.69328 0
M  V30 23020 C 2135.82 -3.52519 -3.97371 0
M  V30 23021 C 2134.86 -4.73968 -3.87325 0
M  V30 23022 N 2134 -4.8555 -5.07135 0
M  V30 23023 H 2138.84 -2.76616 -1.10849 0
M  V30 23024 H 2136.38 -1.36978 -0.536239 0
M  V30 23025 H 2138.33 -2.22549 -3.52885 0
M  V30 23026 H 2136.96 -1.22025 -2.98847 0
M  V30 23027 H 2136.02 -3.33989 -1.82086 0
M  V30 23028 H 2137.33 -4.27018 -2.57793 0
M  V30 23029 H 2136.48 -3.64581 -4.84939 0
M  V30 23030 H 2135.22 -2.61393 -4.11734 0
M  V30 23031 H 2134.23 -4.61944 -2.98141 0
M  V30 23032 H 2135.45 -5.66496 -3.74511 0
M  V30 23033 H 2133.4 -3.97345 -5.2197 0
M  V30 23034 H 2133.31 -5.68794 -4.98005 0
M  V30 23035 H 2134.58 -5.01963 -5.96367 0
M  V30 23036 N 2138.81 0.568558 -1.46987 0
M  V30 23037 C 2139.76 1.67655 -1.5862 0
M  V30 23038 C 2140.73 1.60444 -0.429761 0
M  V30 23039 O 2141.91 1.79446 -0.648355 0
M  V30 23040 C 2139.05 3.05988 -1.59578 0
M  V30 23041 C 2138.17 3.2372 -2.86058 0
M  V30 23042 C 2137.3 4.52385 -2.78427 0
M  V30 23043 C 2136.34 4.63509 -3.99782 0
M  V30 23044 N 2135.48 5.83515 -3.90454 0
M  V30 23045 H 2140.32 1.5705 -2.53257 0
M  V30 23046 H 2137.85 0.765211 -1.2563 0
M  V30 23047 H 2139.81 3.86076 -1.58118 0
M  V30 23048 H 2138.44 3.15456 -0.684628 0
M  V30 23049 H 2137.49 2.37141 -2.97436 0
M  V30 23050 H 2138.81 3.27806 -3.75959 0
M  V30 23051 H 2137.96 5.40718 -2.75152 0
M  V30 23052 H 2136.7 4.5076 -1.86191 0
M  V30 23053 H 2135.7 3.7359 -4.03374 0
M  V30 23054 H 2136.93 4.66902 -4.93132 0
M  V30 23055 H 2134.87 5.82861 -3.01013 0
M  V30 23056 H 2134.79 5.8893 -4.74022 0
M  V30 23057 H 2136.06 6.74241 -3.91177 0
M  V30 23058 N 2140.29 1.34929 0.814366 0
M  V30 23059 C 2141.22 1.29866 1.94055 0
M  V30 23060 C 2142.2 0.174504 1.69203 0
M  V30 23061 O 2143.38 0.368232 1.90677 0
M  V30 23062 C 2140.51 1.06201 3.30664 0
M  V30 23063 C 2139.47 2.15174 3.69978 0
M  V30 23064 C 2138.79 1.76686 5.04664 0
M  V30 23065 C 2140.09 3.57077 3.81174 0
M  V30 23066 H 2141.79 2.24095 1.98549 0
M  V30 23067 H 2139.33 1.07877 0.953865 0
M  V30 23068 H 2141.29 1.01301 4.09043 0
M  V30 23069 H 2140.01 0.0841549 3.26492 0
M  V30 23070 H 2138.67 2.19158 2.9388 0
M  V30 23071 H 2138.32 0.775388 4.96988 0
M  V30 23072 H 2138.02 2.49628 5.3194 0
M  V30 23073 H 2139.54 1.73297 5.85492 0
M  V30 23074 H 2140.96 3.55458 4.49803 0
M  V30 23075 H 2139.35 4.28713 4.19911 0
M  V30 23076 H 2140.42 3.93795 2.82937 0
M  V30 23077 N 2141.77 -1.0356 1.18799 0
M  V30 23078 C 2143.01 -1.76497 0.984535 0
M  V30 23079 C 2143.34 -1.88833 -0.486544 0
M  V30 23080 O 2142.61 -1.41702 -1.35268 0
M  V30 23081 H 2141.19 -0.653818 0.36129 0
M  V30 23082 H 2143.85 -1.24956 1.49573 0
M  V30 23083 H 2142.94 -2.77573 1.42687 0
M  V30 23084 N 2143.25 -0.990834 -1.22557 0
M  V30 23085 C 2144.47 -0.683595 -1.9581 0
M  V30 23086 C 2144.9 0.744808 -1.72726 0
M  V30 23087 O 2144.25 1.50883 -1.00518 0
M  V30 23088 C 2144.3 -0.992665 -3.46668 0
M  V30 23089 O 2143.41 -0.0902361 -4.12301 0
M  V30 23090 H 2142.75 -0.256053 -0.612644 0
M  V30 23091 H 2145.28 -1.32725 -1.55709 0
M  V30 23092 H 2145.29 -0.933654 -3.97174 0
M  V30 23093 H 2143.96 -2.03353 -3.62795 0
M  V30 23094 H 2142.54 -0.204554 -3.72339 0
M  V30 23095 N 2144.72 1.37856 -0.763775 0
M  V30 23096 C 2145.67 2.30357 -0.142863 0
M  V30 23097 C 2146.64 1.50697 0.698548 0
M  V30 23098 O 2147.83 1.79294 0.652566 0
M  V30 23099 C 2144.97 3.3715 0.736468 0
M  V30 23100 C 2144.08 4.31831 -0.12068 0
M  V30 23101 C 2143.21 5.25697 0.762609 0
M  V30 23102 C 2142.25 6.12022 -0.0975572 0
M  V30 23103 N 2141.39 6.98155 0.74326 0
M  V30 23104 H 2146.23 2.82878 -0.937235 0
M  V30 23105 H 2143.77 1.39261 -0.473798 0
M  V30 23106 H 2145.72 3.97686 1.26102 0
M  V30 23107 H 2144.35 2.86014 1.49652 0
M  V30 23108 H 2143.41 3.7267 -0.762965 0
M  V30 23109 H 2144.72 4.92592 -0.784528 0
M  V30 23110 H 2143.87 5.91399 1.35395 0
M  V30 23111 H 2142.61 4.65328 1.46016 0
M  V30 23112 H 2141.62 5.45306 -0.70149 0
M  V30 23113 H 2142.84 6.74462 -0.792323 0
M  V30 23114 H 2140.79 6.40323 1.42558 0
M  V30 23115 H 2140.7 7.55877 0.136535 0
M  V30 23116 H 2141.97 7.68255 1.31925 0
M  V30 23117 N 2146.2 0.513665 1.48994 0
M  V30 23118 C 2147.15 -0.257967 2.29354 0
M  V30 23119 C 2148.12 -0.948815 1.36333 0
M  V30 23120 O 2149.3 -0.953018 1.65294 0
M  V30 23121 C 2146.44 -1.30885 3.19317 0
M  V30 23122 C 2145.56 -0.628503 4.27404 0
M  V30 23123 C 2144.69 -1.66091 5.04566 0
M  V30 23124 C 2143.73 -0.963129 6.04475 0
M  V30 23125 N 2142.87 -1.94033 6.74756 0
M  V30 23126 H 2147.71 0.433522 2.9483 0
M  V30 23127 H 2145.24 0.225633 1.45359 0
M  V30 23128 H 2147.2 -1.93026 3.69861 0
M  V30 23129 H 2145.83 -1.96894 2.55798 0
M  V30 23130 H 2144.88 0.10648 3.80251 0
M  V30 23131 H 2146.2 -0.0798289 4.98736 0
M  V30 23132 H 2145.35 -2.35704 5.59043 0
M  V30 23133 H 2144.09 -2.24346 4.33036 0
M  V30 23134 H 2143.09 -0.252846 5.49218 0
M  V30 23135 H 2144.32 -0.386911 6.77997 0
M  V30 23136 H 2142.27 -2.51226 6.05988 0
M  V30 23137 H 2142.18 -1.44265 7.42107 0
M  V30 23138 H 2143.45 -2.62894 7.3383 0
M  V30 23139 N 2147.68 -1.55636 0.248053 0
M  V30 23140 C 2149.09 -1.84952 -0.254884 0
M  V30 23141 C 2149.44 -1.16988 -1.57506 0
M  V30 23142 O 2148.57 -0.448668 -2.11698 0
M  V30 23143 C 2149.16 -3.35535 -0.469244 0
M  V30 23144 C 2147.72 -3.65073 -0.916445 0
M  V30 23145 C 2146.87 -2.77299 0.00568866 0
M  V30 23146 H 2149.82 -1.51563 0.470584 0
M  V30 23147 H 2149.84 -3.57176 -1.31169 0
M  V30 23148 H 2149.35 -3.84972 0.491761 0
M  V30 23149 H 2147.45 -3.21114 -1.88988 0
M  V30 23150 H 2147.57 -4.72831 -0.772508 0
M  V30 23151 H 2145.93 -2.49626 -0.505882 0
M  V30 23152 H 2146.71 -3.29543 0.962088 0
M  V30 23153 N 2149.16 0.0250451 -1.5758 0
M  V30 23154 C 2150.09 1.05207 -2.03627 0
M  V30 23155 C 2151.1 1.32224 -0.949769 0
M  V30 23156 O 2152.29 1.29641 -1.22701 0
M  V30 23157 C 2149.39 2.39277 -2.39999 0
M  V30 23158 C 2148.56 2.31559 -3.71078 0
M  V30 23159 C 2147.62 3.48111 -3.94595 0
M  V30 23160 O 2146.65 3.27424 -4.65599 0
M  V30 23161 N 2147.85 4.70117 -3.40545 0
M  V30 23162 H 2150.62 0.659567 -2.92352 0
M  V30 23163 H 2148.18 0.212915 -1.60494 0
M  V30 23164 H 2150.17 3.15976 -2.52866 0
M  V30 23165 H 2148.74 2.70358 -1.56924 0
M  V30 23166 H 2147.96 1.39933 -3.68527 0
M  V30 23167 H 2149.25 2.23549 -4.57059 0
M  V30 23168 H 2148.65 4.89824 -2.83 0
M  V30 23169 H 2147.2 5.44167 -3.58784 0
M  V30 23170 N 2150.64 1.54769 0.297388 0
M  V30 23171 C 2151.58 1.8597 1.36689 0
M  V30 23172 C 2152.55 0.708928 1.50211 0
M  V30 23173 O 2153.74 0.9579 1.65012 0
M  V30 23174 C 2150.88 2.11576 2.72635 0
M  V30 23175 C 2149.99 3.39191 2.67533 0
M  V30 23176 C 2149.13 3.54621 3.95496 0
M  V30 23177 C 2148.16 4.76015 3.84806 0
M  V30 23178 N 2147.3 4.88232 5.04553 0
M  V30 23179 H 2152.14 2.772 1.09381 0
M  V30 23180 H 2149.68 1.3726 0.528967 0
M  V30 23181 H 2151.64 2.24418 3.517 0
M  V30 23182 H 2150.27 1.23608 2.98196 0
M  V30 23183 H 2149.32 3.3495 1.80312 0
M  V30 23184 H 2150.63 4.28379 2.55525 0
M  V30 23185 H 2149.78 3.67147 4.82999 0
M  V30 23186 H 2148.52 2.63573 4.10342 0
M  V30 23187 H 2147.53 4.63518 2.95687 0
M  V30 23188 H 2148.75 5.68475 3.71502 0
M  V30 23189 H 2146.7 4.00108 5.19855 0
M  V30 23190 H 2146.62 5.71427 4.94982 0
M  V30 23191 H 2147.88 5.05119 5.93696 0
M  V30 23192 N 2152.11 -0.560755 1.47286 0
M  V30 23193 C 2153.52 -1.14289 1.47631 0
M  V30 23194 C 2153.88 -1.94858 0.229063 0
M  V30 23195 O 2153 -2.05887 -0.666292 0
M  V30 23196 C 2153.6 -2.07933 2.67487 0
M  V30 23197 C 2152.15 -2.61425 2.70803 0
M  V30 23198 C 2151.3 -1.37732 2.40677 0
M  V30 23199 H 2154.25 -0.347538 1.54848 0
M  V30 23200 H 2154.27 -2.91752 2.44256 0
M  V30 23201 H 2153.79 -1.49265 3.58248 0
M  V30 23202 H 2151.89 -3.239 1.84172 0
M  V30 23203 H 2152 -3.02661 3.71394 0
M  V30 23204 H 2150.36 -1.68286 1.91186 0
M  V30 23205 H 2151.15 -0.808627 3.33641 0
M  V30 23206 N 2153.59 -1.35359 -0.807199 0
M  V30 23207 C 2154.84 -1.27934 -1.55935 0
M  V30 23208 C 2155.15 0.144469 -1.95066 0
M  V30 23209 O 2156.36 0.340989 -2.6935 0
M  V30 23210 C 2154.82 -2.24359 -2.81409 0
M  V30 23211 C 2154.42 -3.72081 -2.49519 0
M  V30 23212 C 2156.17 -2.25874 -3.59418 0
M  V30 23213 C 2154.07 -4.60331 -3.71281 0
M  V30 23214 H 2153 -0.475324 -0.585306 0
M  V30 23215 H 2155.66 -1.60619 -0.887342 0
M  V30 23216 H 2154.04 -1.84644 -3.50318 0
M  V30 23217 H 2155.21 -4.20427 -1.88621 0
M  V30 23218 H 2153.53 -3.73167 -1.84757 0
M  V30 23219 H 2156.12 -2.89024 -4.49855 0
M  V30 23220 H 2156.47 -1.26232 -3.967 0
M  V30 23221 H 2157 -2.64115 -2.9747 0
M  V30 23222 H 2153.74 -5.60969 -3.39107 0
M  V30 23223 H 2153.26 -4.16711 -4.31407 0
M  V30 23224 H 2154.94 -4.75723 -4.38516 0
M  V30 23225 N 2155.07 1.02928 -1.19346 0
M  V30 23226 C 2156.48 1.57772 -0.998248 0
M  V30 23227 C 2156.83 1.90994 0.448955 0
M  V30 23228 O 2155.96 1.70839 1.32827 0
M  V30 23229 C 2156.55 2.86666 -1.80577 0
M  V30 23230 C 2155.11 3.38084 -1.65457 0
M  V30 23231 C 2154.26 2.11531 -1.79304 0
M  V30 23232 H 2157.21 0.854614 -1.33724 0
M  V30 23233 H 2157.23 3.57545 -1.30161 0
M  V30 23234 H 2156.74 2.62455 -2.85901 0
M  V30 23235 H 2154.84 3.67284 -0.627176 0
M  V30 23236 H 2154.96 4.11143 -2.45965 0
M  V30 23237 H 2153.32 2.23382 -1.22362 0
M  V30 23238 H 2154.1 1.89761 -2.86087 0
M  V30 23239 N 2156.55 0.997319 1.2203 0
M  V30 23240 C 2157.96 0.708807 1.42997 0
M  V30 23241 C 2158.16 -0.718903 1.88239 0
M  V30 23242 O 2157.22 -1.48925 2.03906 0
M  V30 23243 C 2158.53 1.71814 2.4678 0
M  V30 23244 C 2160.08 1.73408 2.60573 0
M  V30 23245 C 2160.56 2.73216 3.67582 0
M  V30 23246 N 2162.05 2.71837 3.75045 0
M  V30 23247 C 2162.78 3.45728 4.57449 0
M  V30 23248 N 2162.28 4.29233 5.43811 0
M  V30 23249 N 2164.07 3.34413 4.51801 0
M  V30 23250 H 2156.22 1.91932 0.909709 0
M  V30 23251 H 2158.48 0.828004 0.461642 0
M  V30 23252 H 2158.19 2.74 2.20492 0
M  V30 23253 H 2158.06 1.51457 3.45457 0
M  V30 23254 H 2160.45 0.719178 2.86202 0
M  V30 23255 H 2160.53 1.97835 1.62157 0
M  V30 23256 H 2160.18 3.74859 3.427 0
M  V30 23257 H 2160.11 2.46058 4.65578 0
M  V30 23258 H 2162.6 2.11248 3.13341 0
M  V30 23259 H 2162.91 4.82429 6.03723 0
M  V30 23260 H 2161.26 4.33319 5.43378 0
M  V30 23261 H 2164.45 2.68614 3.83359 0
M  V30 23262 H 2164.62 3.92257 5.15789 0
M  V30 23263 N 2158.03 -1.37449 0.771075 0
M  V30 23264 C 2159.44 -1.82352 0.400585 0
M  V30 23265 C 2159.79 -1.64247 -1.07318 0
M  V30 23266 O 2158.91 -1.15322 -1.83111 0
M  V30 23267 C 2159.51 -3.31054 0.720312 0
M  V30 23268 C 2158.07 -3.74238 0.402886 0
M  V30 23269 C 2157.21 -2.59986 0.964497 0
M  V30 23270 H 2160.17 -1.2593 0.965782 0
M  V30 23271 H 2160.19 -3.805 0.00472604 0
M  V30 23272 H 2159.7 -3.44199 1.793 0
M  V30 23273 H 2157.8 -3.66663 -0.662511 0
M  V30 23274 H 2157.91 -4.70365 0.910666 0
M  V30 23275 H 2156.28 -2.51715 0.388782 0
M  V30 23276 H 2157.06 -2.75924 2.04257 0
M  V30 23277 N 2159.5 -0.52156 -1.4872 0
M  V30 23278 C 2160.43 0.234741 -2.32317 0
M  V30 23279 C 2161.42 0.943119 -1.4156 0
M  V30 23280 O 2162.6 0.930536 -1.70454 0
M  V30 23281 C 2159.73 1.28724 -3.22564 0
M  V30 23282 C 2158.68 0.697518 -4.22278 0
M  V30 23283 C 2158.01 1.85205 -5.016 0
M  V30 23284 C 2159.31 -0.325174 -5.21287 0
M  V30 23285 H 2161 -0.463097 -2.95797 0
M  V30 23286 H 2158.55 -0.224154 -1.42245 0
M  V30 23287 H 2160.5 1.82422 -3.79869 0
M  V30 23288 H 2159.23 2.01455 -2.57067 0
M  V30 23289 H 2157.89 0.182131 -3.66147 0
M  V30 23290 H 2157.53 2.56754 -4.32535 0
M  V30 23291 H 2157.23 1.46343 -5.69085 0
M  V30 23292 H 2158.76 2.39297 -5.61755 0
M  V30 23293 H 2160.17 0.124406 -5.73165 0
M  V30 23294 H 2158.57 -0.630729 -5.96776 0
M  V30 23295 H 2159.64 -1.23392 -4.68938 0
M  V30 23296 N 2160.98 1.55502 -0.256304 0
M  V30 23297 C 2161.93 2.23175 0.655412 0
M  V30 23298 C 2162.92 1.22244 1.17272 0
M  V30 23299 O 2164.13 1.40229 1.12853 0
M  V30 23300 H 2160.51 0.716007 0.229866 0
M  V30 23301 H 2162.48 2.98336 0.0616012 0
M  V30 23302 C 2161.23 2.95209 1.83704 0
M  V30 23303 H 2160.55 3.72651 1.44814 0
M  V30 23304 H 2161.99 3.45909 2.452 0
M  V30 23305 C 2160.45 1.99611 2.71398 0
M  V30 23306 O 2160.98 1.53521 3.71207 0
M  V30 23307 N 2159.18 1.66511 2.38165 0
M  V30 23308 H 2158.73 2.04188 1.57051 0
M  V30 23309 H 2158.69 1.02816 2.97113 0
M  V30 23310 N 2162.46 -0.0166879 1.57591 0
M  V30 23311 C 2163.41 -1.01343 2.0736 0
M  V30 23312 C 2164.38 -1.35165 0.96538 0
M  V30 23313 O 2165.56 -1.4529 1.23675 0
M  V30 23314 C 2162.7 -2.30545 2.56794 0
M  V30 23315 C 2161.82 -2.02772 3.81454 0
M  V30 23316 C 2160.95 -3.25935 4.19452 0
M  V30 23317 C 2159.99 -2.93773 5.36995 0
M  V30 23318 N 2159.13 -4.09423 5.70366 0
M  V30 23319 H 2163.97 -0.582069 2.9226 0
M  V30 23320 H 2161.5 -0.275773 1.44492 0
M  V30 23321 H 2163.46 -3.06054 2.83526 0
M  V30 23322 H 2162.09 -2.7138 1.74793 0
M  V30 23323 H 2161.14 -1.17706 3.61731 0
M  V30 23324 H 2162.46 -1.75056 4.67073 0
M  V30 23325 H 2161.61 -4.09802 4.47378 0
M  V30 23326 H 2160.35 -3.56776 3.32509 0
M  V30 23327 H 2159.35 -2.0831 5.08809 0
M  V30 23328 H 2160.58 -2.64197 6.25601 0
M  V30 23329 H 2158.52 -4.40192 4.86382 0
M  V30 23330 H 2158.44 -3.85172 6.50521 0
M  V30 23331 H 2159.71 -4.94127 6.02875 0
M  V30 23332 N 2163.94 -1.54924 -0.289176 0
M  V30 23333 C 2165.19 -1.74766 -1.02289 0
M  V30 23334 C 2165.51 -0.539873 -1.86857 0
M  V30 23335 O 2164.77 0.477978 -1.89773 0
M  V30 23336 C 2165.07 -2.99629 -1.94826 0
M  V30 23337 C 2164.73 -4.32897 -1.26139 0
M  V30 23338 C 2163.4 -4.69121 -1.0714 0
M  V30 23339 C 2165.75 -5.15461 -0.771309 0
M  V30 23340 C 2163.08 -5.85479 -0.37835 0
M  V30 23341 C 2165.43 -6.32533 -0.0919302 0
M  V30 23342 C 2164.09 -6.67409 0.109915 0
M  V30 23343 H 2163.36 -0.639515 -0.374301 0
M  V30 23344 H 2166.01 -1.89188 -0.296646 0
M  V30 23345 H 2164.31 -2.80038 -2.74018 0
M  V30 23346 H 2166.01 -3.12176 -2.51688 0
M  V30 23347 H 2162.6 -4.04416 -1.41935 0
M  V30 23348 H 2166.78 -4.87965 -0.905767 0
M  V30 23349 H 2162.04 -6.11035 -0.211091 0
M  V30 23350 H 2166.21 -6.95772 0.295654 0
M  V30 23351 H 2163.84 -7.57425 0.648932 0
M  V30 23352 N 2165.42 0.552936 -1.47582 0
M  V30 23353 C 2166.35 1.67497 -1.56453 0
M  V30 23354 C 2167.36 1.56445 -0.450408 0
M  V30 23355 O 2168.55 1.63325 -0.720217 0
M  V30 23356 C 2165.65 3.05994 -1.45674 0
M  V30 23357 C 2164.82 3.42757 -2.71729 0
M  V30 23358 C 2163.88 4.60435 -2.54727 0
M  V30 23359 O 2162.91 4.64802 -3.28554 0
M  V30 23360 N 2164.11 5.57194 -1.62833 0
M  V30 23361 H 2166.88 1.60332 -2.53207 0
M  V30 23362 H 2164.44 0.739677 -1.44015 0
M  V30 23363 H 2166.43 3.82558 -1.32028 0
M  V30 23364 H 2165 3.07362 -0.569854 0
M  V30 23365 H 2164.22 2.55598 -3.00106 0
M  V30 23366 H 2165.51 3.64095 -3.55404 0
M  V30 23367 H 2164.9 5.56426 -1.02012 0
M  V30 23368 H 2163.46 6.33068 -1.55137 0
M  V30 23369 N 2166.89 1.35785 0.800009 0
M  V30 23370 C 2168.14 1.2917 1.55434 0
M  V30 23371 C 2168.46 -0.131766 1.94554 0
M  V30 23372 O 2167.73 -1.06968 1.64118 0
M  V30 23373 H 2166.31 0.475134 0.576417 0
M  V30 23374 H 2168.98 1.69963 0.953872 0
M  V30 23375 H 2168.07 1.912 2.46676 0
M  V30 23376 N 2168.37 -1.02294 1.19891 0
M  V30 23377 C 2169.62 -1.7579 1.00519 0
M  V30 23378 C 2169.95 -1.88899 -0.463403 0
M  V30 23379 O 2169.2 -1.4069 -1.36032 0
M  V30 23380 C 2169.5 -3.18252 1.62636 0
M  V30 23381 C 2169.17 -3.25136 3.12406 0
M  V30 23382 C 2167.83 -3.26722 3.53279 0
M  V30 23383 C 2170.18 -3.23806 4.0841 0
M  V30 23384 C 2167.51 -3.24642 4.88697 0
M  V30 23385 C 2169.86 -3.23267 5.43766 0
M  V30 23386 C 2168.53 -3.23154 5.84061 0
M  V30 23387 H 2167.8 -0.643263 0.367823 0
M  V30 23388 H 2170.44 -1.20021 1.49222 0
M  V30 23389 H 2168.75 -3.77138 1.06178 0
M  V30 23390 H 2170.44 -3.738 1.4517 0
M  V30 23391 H 2167.03 -3.24633 2.79841 0
M  V30 23392 H 2171.22 -3.21757 3.77871 0
M  V30 23393 H 2166.47 -3.22881 5.19189 0
M  V30 23394 H 2170.65 -3.2119 6.17908 0
M  V30 23395 H 2168.28 -3.21296 6.88965 0
M  V30 23396 N 2169.85 -1.00378 -1.21499 0
M  V30 23397 C 2171.1 -0.686796 -1.90817 0
M  V30 23398 C 2171.43 0.780348 -1.77832 0
M  V30 23399 O 2170.7 1.56554 -1.15418 0
M  V30 23400 C 2170.99 -1.10705 -3.42661 0
M  V30 23401 C 2170.84 -2.63355 -3.64642 0
M  V30 23402 C 2172.16 -0.668506 -4.34993 0
M  V30 23403 H 2169.28 -0.250976 -0.69295 0
M  V30 23404 H 2171.92 -1.24924 -1.43157 0
M  V30 23405 H 2170.07 -0.628496 -3.83383 0
M  V30 23406 H 2171.74 -3.18964 -3.33256 0
M  V30 23407 H 2169.99 -3.04925 -3.0855 0
M  V30 23408 H 2170.66 -2.87812 -4.71029 0
M  V30 23409 H 2173.13 -1.07972 -4.01847 0
M  V30 23410 H 2172.01 -0.990733 -5.39885 0
M  V30 23411 H 2172.27 0.430413 -4.4 0
M  V30 23412 N 2171.33 1.37038 -0.778354 0
M  V30 23413 C 2172.58 1.99528 -0.345678 0
M  V30 23414 C 2172.9 1.61785 1.07962 0
M  V30 23415 O 2172.16 0.85887 1.75846 0
M  V30 23416 C 2172.46 3.54632 -0.443975 0
M  V30 23417 C 2172.12 4.12162 -1.82848 0
M  V30 23418 C 2170.79 4.27587 -2.20732 0
M  V30 23419 C 2173.14 4.43641 -2.73555 0
M  V30 23420 C 2170.47 4.71797 -3.48747 0
M  V30 23421 C 2172.82 4.89278 -4.00986 0
M  V30 23422 C 2171.48 5.02909 -4.38906 0
M  V30 23423 H 2170.75 0.730124 -0.126493 0
M  V30 23424 H 2173.4 1.63703 -0.993664 0
M  V30 23425 H 2171.7 3.90743 0.287537 0
M  V30 23426 H 2173.4 4.00898 -0.0903991 0
M  V30 23427 H 2169.99 4.00588 -1.52406 0
M  V30 23428 H 2174.17 4.31303 -2.45544 0
M  V30 23429 H 2169.43 4.80537 -3.78013 0
M  V30 23430 H 2173.6 5.12601 -4.71394 0
M  V30 23431 H 2171.23 5.36926 -5.38159 0
M  V30 23432 N 2172.81 0.529439 1.48441 0
M  V30 23433 C 2174.08 -0.0692247 1.95477 0
M  V30 23434 C 2174.46 -1.51345 1.47166 0
M  V30 23435 O 2173.81 -2.1758 0.697925 0
M  V30 23436 C 2174.02 0.0474683 3.48968 0
M  V30 23437 C 2175.37 -0.112074 4.24452 0
M  V30 23438 O 2176.39 -0.0263527 3.5619 0
M  V30 23439 O 2175.25 -0.291683 5.45721 0
M  V30 23440 H 2172.35 -0.079598 0.82316 0
M  V30 23441 H 2174.89 0.593999 1.58965 0
M  V30 23442 H 2173.67 1.05353 3.76851 0
M  V30 23443 H 2173.29 -0.65463 3.92174 0
M  V30 23444 N 2174.29 -1.55364 0.264547 0
M  V30 23445 C 2175.53 -1.98537 -0.355827 0
M  V30 23446 C 2175.85 -1.15624 -1.57767 0
M  V30 23447 O 2177.05 -1.48892 -2.27032 0
M  V30 23448 C 2175.51 -3.53332 -0.684446 0
M  V30 23449 C 2175.12 -4.45007 0.516993 0
M  V30 23450 C 2176.86 -4.05119 -1.26803 0
M  V30 23451 C 2174.77 -5.91174 0.163548 0
M  V30 23452 H 2173.7 -0.7415 -0.136725 0
M  V30 23453 H 2176.35 -1.79782 0.367539 0
M  V30 23454 H 2174.73 -3.67848 -1.46643 0
M  V30 23455 H 2175.91 -4.42256 1.29406 0
M  V30 23456 H 2174.22 -4.03797 1.0167 0
M  V30 23457 H 2176.82 -5.11859 -1.5461 0
M  V30 23458 H 2177.16 -3.53519 -2.19841 0
M  V30 23459 H 2177.69 -3.93999 -0.548571 0
M  V30 23460 H 2174.43 -6.46848 1.06153 0
M  V30 23461 H 2173.95 -5.97019 -0.576966 0
M  V30 23462 H 2175.63 -6.46524 -0.248012 0
M  V30 23463 N 2175.76 0.00833021 -1.57598 0
M  V30 23464 C 2177.01 0.695941 -1.90485 0
M  V30 23465 C 2177.34 1.73883 -0.864775 0
M  V30 23466 O 2176.62 1.94144 0.11758 0
M  V30 23467 C 2176.9 1.34667 -3.33971 0
M  V30 23468 C 2176.75 0.315885 -4.48689 0
M  V30 23469 C 2178.07 2.2751 -3.76732 0
M  V30 23470 H 2175.19 0.251528 -0.69275 0
M  V30 23471 H 2177.83 -0.0412539 -1.89955 0
M  V30 23472 H 2175.98 1.975 -3.34553 0
M  V30 23473 H 2177.66 -0.312127 -4.60243 0
M  V30 23474 H 2175.9 -0.362729 -4.32281 0
M  V30 23475 H 2176.57 0.810081 -5.46024 0
M  V30 23476 H 2179.05 1.74702 -3.77649 0
M  V30 23477 H 2177.92 2.70011 -4.77897 0
M  V30 23478 H 2178.18 3.15068 -3.10136 0
M  V30 23479 N 2177.24 1.55075 0.280956 0
M  V30 23480 C 2178.47 1.79322 1.03205 0
M  V30 23481 C 2178.88 0.56257 1.80224 0
M  V30 23482 O 2178.24 -0.468172 1.76393 0
M  V30 23483 C 2178.29 3.01341 1.99689 0
M  V30 23484 O 2178.01 4.19652 1.25792 0
M  V30 23485 C 2179.51 3.38131 2.86675 0
M  V30 23486 H 2176.73 0.597563 0.30522 0
M  V30 23487 H 2179.28 2.02073 0.31415 0
M  V30 23488 H 2177.43 2.8074 2.66953 0
M  V30 23489 H 2177.85 4.88582 1.90757 0
M  V30 23490 H 2179.32 4.267 3.50188 0
M  V30 23491 H 2179.8 2.57177 3.56029 0
M  V30 23492 H 2180.4 3.60962 2.24914 0
M  V30 23493 N 2178.72 -0.545102 1.47873 0
M  V30 23494 C 2180.14 -0.872206 1.33659 0
M  V30 23495 C 2180.34 -1.98676 0.336181 0
M  V30 23496 O 2179.39 -2.51279 -0.248001 0
M  V30 23497 C 2180.7 -1.254 2.73304 0
M  V30 23498 C 2182.25 -1.36475 2.8168 0
M  V30 23499 C 2182.73 -1.78005 4.21993 0
M  V30 23500 N 2184.22 -1.85134 4.24593 0
M  V30 23501 C 2184.95 -2.18622 5.30087 0
M  V30 23502 N 2184.45 -2.50639 6.45873 0
M  V30 23503 N 2186.24 -2.19499 5.17471 0
M  V30 23504 H 2178.39 0.190536 2.11544 0
M  V30 23505 H 2180.66 0.0225858 0.947731 0
M  V30 23506 H 2180.36 -0.508782 3.48 0
M  V30 23507 H 2180.24 -2.20752 3.05857 0
M  V30 23508 H 2182.62 -2.10076 2.07249 0
M  V30 23509 H 2182.7 -0.392814 2.52766 0
M  V30 23510 H 2182.35 -1.04969 4.96935 0
M  V30 23511 H 2182.28 -2.76222 4.4834 0
M  V30 23512 H 2184.77 -1.62729 3.41068 0
M  V30 23513 H 2185.08 -2.75253 7.22119 0
M  V30 23514 H 2183.43 -2.48192 6.49173 0
M  V30 23515 H 2186.62 -1.93934 4.26037 0
M  V30 23516 H 2186.79 -2.45267 5.9979 0
M  V30 23517 N 2180.2 -1.36208 -0.792797 0
M  V30 23518 C 2181.13 -1.2612 -1.9138 0
M  V30 23519 C 2182.14 -0.181437 -1.61786 0
M  V30 23520 O 2183.33 -0.435871 -1.73097 0
M  V30 23521 C 2180.43 -0.922489 -3.26103 0
M  V30 23522 C 2179.6 -2.10345 -3.83502 0
M  V30 23523 C 2178.66 -1.73833 -4.96657 0
M  V30 23524 O 2177.69 -2.45879 -5.13354 0
M  V30 23525 N 2178.89 -0.670023 -5.7662 0
M  V30 23526 H 2181.66 -2.22705 -2.00556 0
M  V30 23527 H 2179.22 -1.29557 -0.970902 0
M  V30 23528 H 2181.21 -0.659458 -3.99291 0
M  V30 23529 H 2179.78 -0.0458868 -3.12566 0
M  V30 23530 H 2179 -2.52948 -3.02342 0
M  V30 23531 H 2180.29 -2.89252 -4.18582 0
M  V30 23532 H 2179.69 -0.0717267 -5.65655 0
M  V30 23533 H 2178.24 -0.466808 -6.50126 0
M  V30 23534 N 2181.68 1.01656 -1.20431 0
M  V30 23535 C 2182.64 2.0836 -0.954918 0
M  V30 23536 C 2183.64 1.6065 0.0695469 0
M  V30 23537 O 2184.83 1.73402 -0.166517 0
M  V30 23538 C 2181.96 3.38079 -0.43765 0
M  V30 23539 H 2183.15 2.31919 -1.90142 0
M  V30 23540 H 2180.71 1.18457 -1.01969 0
M  V30 23541 H 2181.44 3.20196 0.514313 0
M  V30 23542 H 2181.23 3.74034 -1.17646 0
M  V30 23543 H 2182.72 4.16642 -0.282649 0
M  V30 23544 N 2183.15 1.01021 1.20965 0
M  V30 23545 C 2184.4 0.695875 1.90168 0
M  V30 23546 C 2184.73 -0.773882 1.78441 0
M  V30 23547 O 2183.98 -1.57716 1.15862 0
M  V30 23548 C 2184.28 1.06913 3.41034 0
M  V30 23549 C 2183.95 2.53402 3.72959 0
M  V30 23550 C 2182.61 2.9343 3.81382 0
M  V30 23551 C 2184.96 3.48268 3.87761 0
M  V30 23552 C 2182.29 4.27275 4.02061 0
M  V30 23553 C 2184.64 4.81794 4.09948 0
M  V30 23554 C 2183.31 5.21537 4.166 0
M  V30 23555 H 2182.58 0.254639 0.695874 0
M  V30 23556 H 2185.22 1.26961 1.43364 0
M  V30 23557 H 2183.53 0.413721 3.8961 0
M  V30 23558 H 2185.23 0.803706 3.92863 0
M  V30 23559 H 2181.82 2.21384 3.66997 0
M  V30 23560 H 2186 3.18506 3.80615 0
M  V30 23561 H 2181.26 4.57631 4.05443 0
M  V30 23562 H 2185.43 5.55233 4.20344 0
M  V30 23563 H 2183.06 6.25264 4.32375 0
M  V30 23564 N 2184.63 -1.36623 0.78561 0
M  V30 23565 C 2185.91 -1.9358 0.280398 0
M  V30 23566 C 2186.29 -1.71791 -1.22683 0
M  V30 23567 O 2185.64 -1.07466 -2.01651 0
M  V30 23568 C 2185.85 -3.4253 0.668878 0
M  V30 23569 C 2187.19 -4.1965 0.646471 0
M  V30 23570 O 2188.22 -3.50953 0.609116 0
M  V30 23571 O 2187.08 -5.42178 0.685949 0
M  V30 23572 H 2184.17 -0.824163 0.0684374 0
M  V30 23573 H 2186.72 -1.45827 0.867897 0
M  V30 23574 H 2185.49 -3.5203 1.70853 0
M  V30 23575 H 2185.11 -3.97562 0.0550603 0
M  V30 23576 N 2186.11 -0.537304 -1.48158 0
M  V30 23577 C 2187.36 -0.00384223 -2.017 0
M  V30 23578 C 2187.67 1.34625 -1.419 0
M  V30 23579 O 2188.88 1.96849 -1.86983 0
M  V30 23580 C 2187.33 0.0435291 -3.59874 0
M  V30 23581 C 2186.94 -1.30211 -4.2866 0
M  V30 23582 C 2188.69 0.525433 -4.21236 0
M  V30 23583 C 2186.59 -1.21492 -5.78786 0
M  V30 23584 H 2185.52 0.00233368 -0.753996 0
M  V30 23585 H 2188.17 -0.682181 -1.70348 0
M  V30 23586 H 2186.56 0.7871 -3.88099 0
M  V30 23587 H 2187.73 -2.06182 -4.12099 0
M  V30 23588 H 2186.04 -1.72034 -3.79201 0
M  V30 23589 H 2188.64 0.608744 -5.31223 0
M  V30 23590 H 2188.98 1.5329 -3.8705 0
M  V30 23591 H 2189.52 -0.162674 -3.97467 0
M  V30 23592 H 2186.26 -2.19778 -6.17558 0
M  V30 23593 H 2185.78 -0.496694 -5.9774 0
M  V30 23594 H 2187.46 -0.908641 -6.40588 0
M  V30 23595 N 2187.59 1.55221 -0.272782 0
M  V30 23596 C 2188.82 2.03951 0.348078 0
M  V30 23597 C 2189.23 1.15123 1.4964 0
M  V30 23598 O 2188.59 0.170857 1.81698 0
M  V30 23599 C 2188.64 3.51812 0.831313 0
M  V30 23600 O 2188.36 4.37259 -0.271279 0
M  V30 23601 C 2189.86 4.16418 1.52023 0
M  V30 23602 H 2187.08 0.666252 0.0796865 0
M  V30 23603 H 2189.63 2.00466 -0.404197 0
M  V30 23604 H 2187.78 3.55748 1.53368 0
M  V30 23605 H 2188.19 5.24405 0.0998522 0
M  V30 23606 H 2189.67 5.21489 1.80979 0
M  V30 23607 H 2190.15 3.6445 2.45097 0
M  V30 23608 H 2190.75 4.16478 0.861768 0
M  V30 23609 N 2189.07 2.77022e-05 1.576 0
M  V30 23610 C 2190.32 -0.684007 1.89748 0
M  V30 23611 C 2190.63 -1.74935 0.875041 0
M  V30 23612 O 2191.83 -2.48802 1.08674 0
M  V30 23613 C 2190.29 -1.26778 3.36831 0
M  V30 23614 C 2189.9 -0.23725 4.47371 0
M  V30 23615 C 2191.64 -1.93 3.78089 0
M  V30 23616 C 2189.55 -0.831011 5.85532 0
M  V30 23617 H 2188.48 -0.259241 0.708033 0
M  V30 23618 H 2191.13 0.0605762 1.834 0
M  V30 23619 H 2189.51 -2.06303 3.38017 0
M  V30 23620 H 2190.69 0.53341 4.57702 0
M  V30 23621 H 2189 0.324536 4.15133 0
M  V30 23622 H 2191.6 -2.38328 4.78648 0
M  V30 23623 H 2191.94 -2.76058 3.11605 0
M  V30 23624 H 2192.47 -1.20209 3.79203 0
M  V30 23625 H 2189.21 -0.0392145 6.55488 0
M  V30 23626 H 2188.73 -1.57083 5.78865 0
M  V30 23627 H 2190.41 -1.32963 6.3319 0
M  V30 23628 N 2190.54 -1.55222 -0.272728 0
M  V30 23629 C 2191.48 -1.83048 -1.36266 0
M  V30 23630 C 2192.46 -0.683547 -1.47534 0
M  V30 23631 O 2193.64 -0.926574 -1.64155 0
M  V30 23632 C 2190.77 -1.99234 -2.73904 0
M  V30 23633 C 2189.81 -3.21788 -2.79919 0
M  V30 23634 S 2190.65 -4.79138 -2.39137 0
M  V30 23635 C 2191.8 -4.98297 -3.78749 0
M  V30 23636 H 2192.03 -2.75209 -1.1246 0
M  V30 23637 H 2189.57 -1.46997 -0.472372 0
M  V30 23638 H 2191.53 -2.09244 -3.53167 0
M  V30 23639 H 2190.19 -1.07961 -2.94963 0
M  V30 23640 H 2189.38 -3.30001 -3.8094 0
M  V30 23641 H 2188.98 -3.1037 -2.08677 0
M  V30 23642 H 2191.27 -4.84055 -4.74022 0
M  V30 23643 H 2192.22 -6.00345 -3.75488 0
M  V30 23644 H 2192.62 -4.26277 -3.70065 0
M  V30 23645 N 2192.02 0.537252 -1.4816 0
M  V30 23646 C 2193.27 1.29538 -1.56038 0
M  V30 23647 C 2193.6 1.92828 -0.230411 0
M  V30 23648 O 2192.88 1.78913 0.762921 0
M  V30 23649 C 2193.16 2.39029 -2.69327 0
M  V30 23650 C 2193.01 1.80478 -4.12005 0
M  V30 23651 C 2194.33 3.40842 -2.78414 0
M  V30 23652 H 2191.45 0.469622 -0.568 0
M  V30 23653 H 2194.09 0.599245 -1.80303 0
M  V30 23654 H 2192.24 2.98407 -2.48768 0
M  V30 23655 H 2193.91 1.25207 -4.43983 0
M  V30 23656 H 2192.16 1.11048 -4.19346 0
M  V30 23657 H 2192.83 2.59722 -4.87082 0
M  V30 23658 H 2195.3 2.9141 -2.97017 0
M  V30 23659 H 2194.18 4.14857 -3.59423 0
M  V30 23660 H 2194.44 4.00941 -1.86276 0
M  V30 23661 N 2193.5 1.36626 0.785562 0
M  V30 23662 C 2194.43 1.33953 1.91256 0
M  V30 23663 C 2195.41 0.210355 1.68794 0
M  V30 23664 O 2196.6 0.408594 1.89853 0
M  V30 23665 C 2193.73 1.13191 3.28337 0
M  V30 23666 C 2192.68 2.22974 3.65331 0
M  V30 23667 C 2192.01 1.87351 5.00803 0
M  V30 23668 C 2193.31 3.65082 3.73514 0
M  V30 23669 H 2195 2.28257 1.93751 0
M  V30 23670 H 2192.55 1.09876 0.930768 0
M  V30 23671 H 2194.5 1.09955 4.06802 0
M  V30 23672 H 2193.22 0.15339 3.2624 0
M  V30 23673 H 2191.88 2.25342 2.89165 0
M  V30 23674 H 2191.53 0.880632 4.95231 0
M  V30 23675 H 2191.23 2.60855 5.26525 0
M  V30 23676 H 2192.75 1.85677 5.81684 0
M  V30 23677 H 2194.17 3.64919 4.42162 0
M  V30 23678 H 2192.57 4.37523 4.10723 0
M  V30 23679 H 2193.64 3.99708 2.7452 0
M  V30 23680 N 2194.98 -1.01016 1.20969 0
M  V30 23681 C 2196.23 -1.74126 1.01799 0
M  V30 23682 C 2196.54 -1.90361 -0.449657 0
M  V30 23683 O 2197.75 -2.60627 -0.760634 0
M  V30 23684 C 2196.2 -3.13211 1.77276 0
M  V30 23685 C 2195.81 -3.04967 3.28176 0
M  V30 23686 C 2197.55 -3.90486 1.66496 0
M  V30 23687 C 2195.46 -4.391 3.96164 0
M  V30 23688 H 2194.39 -0.652817 0.377288 0
M  V30 23689 H 2197.04 -1.12906 1.44653 0
M  V30 23690 H 2195.42 -3.75011 1.27211 0
M  V30 23691 H 2196.6 -2.52436 3.85503 0
M  V30 23692 H 2194.91 -2.41182 3.39441 0
M  V30 23693 H 2197.51 -4.89734 2.14626 0
M  V30 23694 H 2197.85 -4.11623 0.622272 0
M  V30 23695 H 2198.39 -3.35328 2.14009 0
M  V30 23696 H 2195.13 -4.23165 5.00611 0
M  V30 23697 H 2194.65 -4.91611 3.43625 0
M  V30 23698 H 2196.32 -5.07919 4.00783 0
M  V30 23699 N 2196.46 -1.01661 -1.20428 0
M  V30 23700 C 2197.7 -0.714489 -1.91506 0
M  V30 23701 C 2198.06 0.742205 -1.77074 0
M  V30 23702 O 2199.26 1.15684 -2.42633 0
M  V30 23703 C 2197.53 -1.13815 -3.38793 0
M  V30 23704 S 2199.09 -0.958001 -4.28215 0
M  V30 23705 H 2195.91 -0.260483 -0.661566 0
M  V30 23706 H 2198.51 -1.30387 -1.45669 0
M  V30 23707 H 2197.22 -2.19421 -3.46818 0
M  V30 23708 H 2196.75 -0.541543 -3.89655 0
M  V30 23709 H 2198.76 0.138444 -4.96007 0
M  V30 23710 N 2197.93 1.36205 -0.792844 0
M  V30 23711 C 2198.86 2.32573 -0.207894 0
M  V30 23712 C 2199.85 1.56815 0.659028 0
M  V30 23713 O 2201.03 1.84952 0.592143 0
M  V30 23714 C 2198.16 3.4106 0.655389 0
M  V30 23715 C 2197.11 4.27854 -0.111917 0
M  V30 23716 C 2196.44 5.27539 0.872181 0
M  V30 23717 C 2197.74 5.05784 -1.30308 0
M  V30 23718 H 2199.43 2.81743 -1.01299 0
M  V30 23719 H 2196.98 1.35459 -0.488564 0
M  V30 23720 H 2198.93 4.07469 1.07457 0
M  V30 23721 H 2197.66 2.90466 1.49323 0
M  V30 23722 H 2196.32 3.63005 -0.512116 0
M  V30 23723 H 2195.96 4.73217 1.70514 0
M  V30 23724 H 2195.66 5.86477 0.363188 0
M  V30 23725 H 2197.19 5.96821 1.28986 0
M  V30 23726 H 2198.6 5.65214 -0.959478 0
M  V30 23727 H 2197 5.7415 -1.7456 0
M  V30 23728 H 2198.07 4.37226 -2.0967 0
M  V30 23729 N 2199.41 0.545154 1.47871 0
M  V30 23730 C 2200.36 -0.222471 2.31534 0
M  V30 23731 C 2201.35 -0.92096 1.42178 0
M  V30 23732 O 2202.56 -0.843617 1.59007 0
M  V30 23733 H 2198.94 -0.0906147 0.746521 0
M  V30 23734 H 2200.91 0.502511 2.94138 0
M  V30 23735 C 2199.66 -1.24693 3.24572 0
M  V30 23736 H 2198.98 -0.718875 3.93284 0
M  V30 23737 H 2200.42 -1.75516 3.85967 0
M  V30 23738 C 2198.88 -2.28852 2.47241 0
M  V30 23739 O 2199.41 -3.35565 2.20814 0
M  V30 23740 N 2197.61 -2.02462 2.08465 0
M  V30 23741 H 2197.16 -1.15696 2.30157 0
M  V30 23742 H 2197.12 -2.72372 1.57038 0
M  V30 23743 N 2200.89 -1.55074 0.28101 0
M  V30 23744 C 2201.82 -2.18883 -0.645401 0
M  V30 23745 C 2202.8 -1.15167 -1.14784 0
M  V30 23746 O 2203.99 -1.43718 -1.21973 0
M  V30 23747 C 2201.11 -2.81678 -1.88083 0
M  V30 23748 C 2200.16 -3.98748 -1.51336 0
M  V30 23749 S 2200.99 -5.32279 -0.586455 0
M  V30 23750 C 2202.15 -5.98546 -1.83013 0
M  V30 23751 H 2202.38 -2.97121 -0.103248 0
M  V30 23752 H 2199.91 -1.54262 0.065237 0
M  V30 23753 H 2201.87 -3.18486 -2.58992 0
M  V30 23754 H 2200.53 -2.03323 -2.39413 0
M  V30 23755 H 2199.73 -4.41396 -2.43281 0
M  V30 23756 H 2199.33 -3.63393 -0.884413 0
M  V30 23757 H 2201.62 -6.18137 -2.77331 0
M  V30 23758 H 2202.56 -6.93167 -1.44656 0
M  V30 23759 H 2202.97 -5.27968 -1.99775 0
M  V30 23760 N 2202.37 -0.00838561 -1.57598 0
M  V30 23761 C 2203.62 0.673935 -1.90108 0
M  V30 23762 C 2203.93 1.74469 -0.884306 0
M  V30 23763 O 2205.14 2.48222 -1.09992 0
M  V30 23764 C 2203.59 1.24989 -3.37499 0
M  V30 23765 C 2203.2 0.213522 -4.47491 0
M  V30 23766 C 2204.95 1.90992 -3.79107 0
M  V30 23767 C 2202.85 0.799947 -5.85965 0
M  V30 23768 H 2201.78 0.255482 -0.709398 0
M  V30 23769 H 2204.43 -0.0703015 -1.83365 0
M  V30 23770 H 2202.82 2.04507 -3.39106 0
M  V30 23771 H 2203.99 -0.557676 -4.57413 0
M  V30 23772 H 2202.3 -0.346547 -4.14955 0
M  V30 23773 H 2204.9 2.35787 -4.79905 0
M  V30 23774 H 2205.24 2.74401 -3.13065 0
M  V30 23775 H 2205.78 1.18196 -3.79835 0
M  V30 23776 H 2202.52 0.00445186 -6.555 0
M  V30 23777 H 2202.04 1.54011 -5.7969 0
M  V30 23778 H 2203.72 1.29604 -6.33886 0
M  V30 23779 N 2203.85 1.55365 0.264492 0
M  V30 23780 C 2205.08 1.80407 1.01297 0
M  V30 23781 C 2205.49 0.581654 1.79617 0
M  V30 23782 O 2204.85 -0.449437 1.76879 0
M  V30 23783 C 2204.9 3.03442 1.96482 0
M  V30 23784 O 2204.62 4.20963 1.21334 0
M  V30 23785 C 2206.12 3.41152 2.83073 0
M  V30 23786 H 2203.34 0.600767 0.298865 0
M  V30 23787 H 2205.88 2.02394 0.2927 0
M  V30 23788 H 2204.04 2.83556 2.6396 0
M  V30 23789 H 2204.45 4.90577 1.85564 0
M  V30 23790 H 2205.93 4.3039 3.45642 0
M  V30 23791 H 2206.4 2.60938 3.53282 0
M  V30 23792 H 2207.01 3.63327 2.21073 0
M  V30 23793 N 2205.33 -0.529387 1.48443 0
M  V30 23794 C 2206.26 -1.65057 1.5758 0
M  V30 23795 C 2207.24 -1.56914 0.426225 0
M  V30 23796 O 2208.42 -1.77378 0.637908 0
M  V30 23797 C 2205.55 -3.03458 1.50435 0
M  V30 23798 C 2204.59 -3.29958 2.70241 0
M  V30 23799 S 2205.43 -3.16164 4.32204 0
M  V30 23800 C 2206.58 -4.57012 4.27658 0
M  V30 23801 H 2206.82 -1.57056 2.5243 0
M  V30 23802 H 2204.35 -0.712393 1.36983 0
M  V30 23803 H 2206.31 -3.83277 1.46999 0
M  V30 23804 H 2204.97 -3.08899 0.569221 0
M  V30 23805 H 2204.16 -4.30924 2.61382 0
M  V30 23806 H 2203.76 -2.5781 2.70943 0
M  V30 23807 H 2206.05 -5.48542 3.97628 0
M  V30 23808 H 2207 -4.70925 5.28806 0
M  V30 23809 H 2207.41 -4.36362 3.58118 0
M  V30 23810 N 2206.8 -1.37041 -0.778305 0
M  V30 23811 C 2207.74 -1.26636 -1.89838 0
M  V30 23812 C 2208.71 -0.148225 -1.61923 0
M  V30 23813 O 2209.9 -0.321298 -1.85742 0
M  V30 23814 C 2207.03 -0.95646 -3.24915 0
M  V30 23815 C 2206.07 -2.09058 -3.71749 0
M  V30 23816 S 2206.9 -3.70964 -3.86194 0
M  V30 23817 C 2208.06 -3.4211 -5.24129 0
M  V30 23818 H 2208.29 -2.21439 -1.98373 0
M  V30 23819 H 2205.83 -1.22587 -0.938717 0
M  V30 23820 H 2207.78 -0.78448 -4.02934 0
M  V30 23821 H 2206.45 -0.0260265 -3.14089 0
M  V30 23822 H 2205.64 -1.82858 -4.69658 0
M  V30 23823 H 2205.24 -2.22235 -3.00811 0
M  V30 23824 H 2207.53 -2.96692 -6.09081 0
M  V30 23825 H 2208.48 -4.39324 -5.55338 0
M  V30 23826 H 2208.88 -2.77194 -4.91756 0
M  V30 23827 N 2208.28 1.00373 -1.21503 0
M  V30 23828 C 2209.53 1.74427 -1.03456 0
M  V30 23829 C 2209.86 1.89363 0.430731 0
M  V30 23830 O 2209.14 1.42888 1.31959 0
M  V30 23831 C 2209.42 3.15612 -1.73381 0
M  V30 23832 C 2209.27 3.08391 -3.27437 0
M  V30 23833 C 2210.59 4.14561 -1.47739 0
M  V30 23834 H 2207.71 0.633136 -0.377237 0
M  V30 23835 H 2210.35 1.1701 -1.49695 0
M  V30 23836 H 2208.5 3.64633 -1.3407 0
M  V30 23837 H 2210.17 2.67075 -3.76123 0
M  V30 23838 H 2208.42 2.45462 -3.57674 0
M  V30 23839 H 2209.09 4.08251 -3.71531 0
M  V30 23840 H 2211.56 3.74251 -1.81866 0
M  V30 23841 H 2210.44 5.11488 -1.99178 0
M  V30 23842 H 2210.7 4.40216 -0.407666 0
M  V30 23843 N 2209.76 1.02298 1.19887 0
M  V30 23844 C 2210.67 0.608548 2.2657 0
M  V30 23845 C 2211.69 -0.356934 1.703 0
M  V30 23846 O 2212.86 -0.216291 2.00235 0
M  V30 23847 C 2209.93 -0.0402204 3.46677 0
M  V30 23848 C 2208.99 0.972013 4.18151 0
M  V30 23849 C 2208.22 0.35411 5.32524 0
M  V30 23850 O 2208.44 -0.844505 5.64114 0
M  V30 23851 O 2207.38 1.07402 5.9224 0
M  V30 23852 H 2211.2 1.49688 2.64248 0
M  V30 23853 H 2208.79 0.792831 1.26628 0
M  V30 23854 H 2210.67 -0.40225 4.19476 0
M  V30 23855 H 2209.35 -0.902652 3.1086 0
M  V30 23856 H 2208.25 1.38552 3.47497 0
M  V30 23857 H 2209.59 1.80462 4.57924 0
M  V30 23858 N 2211.24 -1.35782 0.800057 0
M  V30 23859 C 2212.47 -2.03198 0.389642 0
M  V30 23860 C 2212.88 -1.60307 -0.997347 0
M  V30 23861 O 2212.24 -0.79751 -1.64152 0
M  V30 23862 C 2212.29 -3.58613 0.455918 0
M  V30 23863 O 2212.01 -3.99943 1.78822 0
M  V30 23864 C 2213.51 -4.43284 0.0374812 0
M  V30 23865 H 2210.73 -0.651855 0.159143 0
M  V30 23866 H 2213.27 -1.7354 1.08186 0
M  V30 23867 H 2211.43 -3.86944 -0.187989 0
M  V30 23868 H 2211.84 -4.9457 1.74645 0
M  V30 23869 H 2213.32 -5.51835 0.134979 0
M  V30 23870 H 2213.79 -4.27277 -1.01643 0
M  V30 23871 H 2214.4 -4.20237 0.654289 0
M  V30 23872 N 2212.72 -0.552988 -1.4758 0
M  V30 23873 C 2213.99 0.0381172 -1.95563 0
M  V30 23874 C 2214.37 1.48985 -1.49555 0
M  V30 23875 O 2213.72 2.16443 -0.732452 0
M  V30 23876 C 2213.93 -0.10298 -3.48848 0
M  V30 23877 C 2215.28 0.0445335 -4.24577 0
M  V30 23878 O 2216.3 -0.0303175 -3.56187 0
M  V30 23879 O 2215.16 0.204827 -5.46116 0
M  V30 23880 H 2212.26 0.0664922 -0.824323 0
M  V30 23881 H 2214.8 -0.619213 -1.57999 0
M  V30 23882 H 2213.57 -1.11335 -3.75127 0
M  V30 23883 H 2213.2 0.592155 -3.93166 0
M  V30 23884 N 2214.19 1.54923 -0.28923 0
M  V30 23885 C 2215.47 1.91952 0.375998 0
M  V30 23886 C 2215.85 1.21514 1.7262 0
M  V30 23887 O 2215.2 0.346807 2.25853 0
M  V30 23888 C 2215.41 3.45366 0.502318 0
M  V30 23889 C 2216.76 4.17399 0.778667 0
M  V30 23890 O 2217.78 3.51337 0.586585 0
M  V30 23891 O 2216.64 5.3433 1.14689 0
M  V30 23892 H 2213.73 0.800376 0.208153 0
M  V30 23893 H 2216.28 1.66332 -0.336423 0
M  V30 23894 H 2215.05 3.88735 -0.447324 0
M  V30 23895 H 2214.67 3.76985 1.26366 0
M  V30 23896 N 2215.67 0.0167433 1.57591 0
M  V30 23897 C 2216.6 -0.997717 2.06345 0
M  V30 23898 C 2217.62 -1.2966 0.984492 0
M  V30 23899 O 2218.81 -1.26342 1.26095 0
M  V30 23900 C 2215.91 -2.3283 2.46259 0
M  V30 23901 C 2215.08 -2.21639 3.77087 0
M  V30 23902 C 2214.14 -3.37527 4.03686 0
M  V30 23903 O 2213.16 -3.14965 4.74116 0
M  V30 23904 N 2214.37 -4.60922 3.52889 0
M  V30 23905 H 2217.13 -0.581823 2.93998 0
M  V30 23906 H 2214.69 -0.170288 1.61002 0
M  V30 23907 H 2216.68 -3.09161 2.61154 0
M  V30 23908 H 2215.25 -2.66103 1.64037 0
M  V30 23909 H 2214.47 -1.30113 3.72108 0
M  V30 23910 H 2215.76 -2.11352 4.62826 0
M  V30 23911 H 2215.16 -4.82149 2.95887 0
M  V30 23912 H 2213.72 -5.34463 3.73085 0
M  V30 23913 N 2217.15 -1.55503 -0.256249 0
M  V30 23914 C 2218.38 -1.81278 -1.00762 0
M  V30 23915 C 2218.8 -0.592551 -1.78523 0
M  V30 23916 O 2218.16 0.458239 -1.75413 0
M  V30 23917 C 2218.21 -3.0469 -1.92864 0
M  V30 23918 O 2217.31 -2.8095 -3.01896 0
M  V30 23919 H 2216.65 -0.598669 -0.287213 0
M  V30 23920 H 2219.18 -2.02674 -0.280074 0
M  V30 23921 H 2219.19 -3.33873 -2.34505 0
M  V30 23922 H 2217.87 -3.93145 -1.35682 0
M  V30 23923 H 2216.44 -2.62909 -2.64449 0
M  V30 23924 N 2218.63 0.521507 -1.48721 0
M  V30 23925 C 2219.54 1.652 -1.66572 0
M  V30 23926 C 2220.55 1.65138 -0.548226 0
M  V30 23927 O 2221.73 1.83934 -0.820371 0
M  V30 23928 C 2218.8 3.01639 -1.70923 0
M  V30 23929 C 2217.86 3.1249 -2.94361 0
M  V30 23930 C 2217.09 4.42421 -2.98495 0
M  V30 23931 O 2217.31 5.3002 -2.10796 0
M  V30 23932 O 2216.25 4.57815 -3.90754 0
M  V30 23933 H 2220.07 1.53075 -2.62301 0
M  V30 23934 H 2217.66 0.695541 -1.32222 0
M  V30 23935 H 2219.54 3.82768 -1.76256 0
M  V30 23936 H 2218.21 3.1407 -0.783688 0
M  V30 23937 H 2217.12 2.30625 -2.94556 0
M  V30 23938 H 2218.45 3.04979 -3.86327 0
M  V30 23939 N 2220.11 1.37452 0.771027 0
M  V30 23940 C 2221.02 1.35467 1.91535 0
M  V30 23941 C 2222.03 0.254153 1.72134 0
M  V30 23942 O 2223.21 0.48966 1.95357 0
M  V30 23943 C 2220.27 1.16139 3.26669 0
M  V30 23944 C 2219.33 2.35837 3.58719 0
M  V30 23945 C 2218.57 2.17422 4.87405 0
M  V30 23946 O 2218.79 1.15885 5.58504 0
M  V30 23947 O 2217.72 3.05624 5.18534 0
M  V30 23948 H 2221.55 2.3185 1.96161 0
M  V30 23949 H 2219.14 1.18189 0.913879 0
M  V30 23950 H 2221.02 1.07352 4.07497 0
M  V30 23951 H 2219.69 0.228308 3.22894 0
M  V30 23952 H 2218.6 2.50197 2.78123 0
M  V30 23953 H 2219.93 3.27716 3.67237 0
M  V30 23954 N 2221.58 -0.997276 1.22033 0
M  V30 23955 C 2222.53 -2.08655 0.986504 0
M  V30 23956 C 2223.5 -1.65855 -0.090238 0
M  V30 23957 O 2224.69 -1.9071 0.0584629 0
M  V30 23958 C 2221.83 -3.40433 0.565629 0
M  V30 23959 C 2220.94 -3.966 1.71266 0
M  V30 23960 C 2220.07 -5.1652 1.2402 0
M  V30 23961 C 2219.11 -5.64814 2.35906 0
M  V30 23962 N 2218.25 -6.75976 1.89738 0
M  V30 23963 H 2223.09 -2.27991 1.91896 0
M  V30 23964 H 2220.63 -1.1178 0.956219 0
M  V30 23965 H 2222.59 -4.161 0.302812 0
M  V30 23966 H 2221.22 -3.21111 -0.329823 0
M  V30 23967 H 2220.27 -3.17847 2.08992 0
M  V30 23968 H 2221.58 -4.28428 2.55443 0
M  V30 23969 H 2220.73 -5.9946 0.934501 0
M  V30 23970 H 2219.47 -4.86305 0.368573 0
M  V30 23971 H 2218.48 -4.80465 2.67269 0
M  V30 23972 H 2219.7 -5.97055 3.23577 0
M  V30 23973 H 2217.65 -6.47553 1.04931 0
M  V30 23974 H 2217.57 -7.07099 2.67483 0
M  V30 23975 H 2218.83 -7.62433 1.62224 0
M  V30 23976 N 2223.06 -1.02932 -1.19343 0
M  V30 23977 C 2224.29 -0.745678 -1.92995 0
M  V30 23978 C 2224.71 0.695558 -1.7552 0
M  V30 23979 O 2224.06 1.47304 -1.0774 0
M  V30 23980 C 2224.11 -1.08798 -3.44739 0
M  V30 23981 O 2223.83 -2.47262 -3.61653 0
M  V30 23982 C 2225.34 -0.827206 -4.35514 0
M  V30 23983 H 2222.56 -0.272812 -0.613037 0
M  V30 23984 H 2225.1 -1.37393 -1.51471 0
M  V30 23985 H 2223.25 -0.504899 -3.84096 0
M  V30 23986 H 2223.67 -2.60023 -4.55509 0
M  V30 23987 H 2225.14 -1.11668 -5.40587 0
M  V30 23988 H 2225.62 0.238359 -4.38553 0
M  V30 23989 H 2226.23 -1.39304 -4.01839 0
M  V30 23990 N 2224.54 1.35356 -0.807246 0
M  V30 23991 C 2225.49 2.29786 -0.216077 0
M  V30 23992 C 2226.46 1.52843 0.650252 0
M  V30 23993 O 2227.64 1.81279 0.595195 0
M  V30 23994 C 2224.78 3.39322 0.628834 0
M  V30 23995 C 2223.9 4.31229 -0.258003 0
M  V30 23996 C 2223.03 5.27857 0.594976 0
M  V30 23997 C 2222.07 6.11402 -0.292218 0
M  V30 23998 N 2221.21 7.00166 0.520772 0
M  V30 23999 H 2226.05 2.79753 -1.02676 0
M  V30 24000 H 2223.58 1.37683 -0.517863 0
M  V30 24001 H 2225.54 4.01496 1.13386 0
M  V30 24002 H 2224.17 2.9063 1.40477 0
M  V30 24003 H 2223.22 3.70054 -0.881141 0
M  V30 24004 H 2224.54 4.89846 -0.940845 0
M  V30 24005 H 2223.69 5.95407 1.16511 0
M  V30 24006 H 2222.43 4.69738 1.31138 0
M  V30 24007 H 2221.43 5.42799 -0.87462 0
M  V30 24008 H 2222.66 6.716 -1.0065 0
M  V30 24009 H 2220.6 6.44534 1.22114 0
M  V30 24010 H 2220.52 7.55928 -0.10401 0
M  V30 24011 H 2221.79 7.72063 1.07416 0
M  V30 24012 N 2226.02 0.560807 1.47284 0
M  V30 24013 C 2227.27 0.0359304 2.01668 0
M  V30 24014 C 2227.58 -1.3235 1.44024 0
M  V30 24015 O 2228.79 -1.93849 1.90091 0
M  V30 24016 C 2227.24 0.0137292 3.59897 0
M  V30 24017 C 2226.85 1.37014 4.26534 0
M  V30 24018 C 2228.59 -0.458351 4.22018 0
M  V30 24019 C 2226.5 1.30685 5.7678 0
M  V30 24020 H 2225.43 0.00966204 0.753938 0
M  V30 24021 H 2228.08 0.709195 1.69241 0
M  V30 24022 H 2226.46 -0.725257 3.89302 0
M  V30 24023 H 2227.64 2.12712 4.08767 0
M  V30 24024 H 2225.95 1.78045 3.76416 0
M  V30 24025 H 2228.55 -0.524154 5.32125 0
M  V30 24026 H 2228.89 -1.47113 3.8944 0
M  V30 24027 H 2229.43 0.225887 3.97158 0
M  V30 24028 H 2226.17 2.29575 6.13984 0
M  V30 24029 H 2225.69 0.591727 5.96874 0
M  V30 24030 H 2227.36 1.01044 6.39061 0
M  V30 24031 N 2227.5 -1.54768 0.297442 0
M  V30 24032 C 2228.43 -2.26349 -0.573454 0
M  V30 24033 C 2229.41 -1.26171 -1.14083 0
M  V30 24034 O 2230.59 -1.54936 -1.17083 0
M  V30 24035 C 2227.72 -3.00156 -1.74711 0
M  V30 24036 C 2226.68 -4.07451 -1.31025 0
M  V30 24037 C 2226 -4.68954 -2.56878 0
M  V30 24038 C 2227.3 -5.20409 -0.444092 0
M  V30 24039 H 2229 -2.99391 0.0235657 0
M  V30 24040 H 2226.54 -1.43994 0.0127742 0
M  V30 24041 H 2228.5 -3.48951 -2.36243 0
M  V30 24042 H 2227.22 -2.24686 -2.37031 0
M  V30 24043 H 2225.88 -3.595 -0.718003 0
M  V30 24044 H 2225.53 -3.90128 -3.17505 0
M  V30 24045 H 2225.23 -5.41415 -2.28351 0
M  V30 24046 H 2226.75 -5.2051 -3.1922 0
M  V30 24047 H 2228.16 -5.6512 -0.965 0
M  V30 24048 H 2226.56 -5.99568 -0.252741 0
M  V30 24049 H 2227.63 -4.81976 0.531693 0
M  V30 24050 N 2228.97 -0.0251005 -1.5758 0
M  V30 24051 C 2230.22 0.653118 -1.91256 0
M  V30 24052 C 2230.54 1.72899 -0.901721 0
M  V30 24053 O 2229.81 1.95816 0.0573441 0
M  V30 24054 H 2228.39 0.24423 -0.705947 0
M  V30 24055 H 2231.06 -0.0719551 -1.94767 0
M  V30 24056 H 2230.15 1.10842 -2.91754 0
M  V30 24057 N 2230.45 1.55637 0.247999 0
M  V30 24058 C 2231.4 1.90224 1.30703 0
M  V30 24059 C 2232.37 0.756358 1.4788 0
M  V30 24060 O 2233.55 1.00991 1.61881 0
M  V30 24061 C 2230.69 2.20142 2.65766 0
M  V30 24062 C 2229.81 3.4753 2.56606 0
M  V30 24063 C 2228.94 3.67024 3.84014 0
M  V30 24064 C 2227.98 4.88017 3.69467 0
M  V30 24065 N 2227.12 5.04037 4.88765 0
M  V30 24066 H 2231.96 2.80539 1.00507 0
M  V30 24067 H 2229.5 1.38874 0.485031 0
M  V30 24068 H 2231.45 2.35493 3.44382 0
M  V30 24069 H 2230.08 1.33032 2.94113 0
M  V30 24070 H 2229.14 3.40517 1.69565 0
M  V30 24071 H 2230.45 4.36292 2.41767 0
M  V30 24072 H 2229.6 3.82328 4.71074 0
M  V30 24073 H 2228.34 2.76494 4.01749 0
M  V30 24074 H 2227.35 4.72691 2.80791 0
M  V30 24075 H 2228.57 5.80006 3.53228 0
M  V30 24076 H 2226.52 4.16444 5.06863 0
M  V30 24077 H 2226.43 5.86885 4.76552 0
M  V30 24078 H 2227.7 5.23751 5.77326 0
M  V30 24079 N 2231.93 -0.513613 1.48996 0
M  V30 24080 C 2233.18 -1.26507 1.57095 0
M  V30 24081 C 2233.49 -1.93903 0.257126 0
M  V30 24082 O 2234.7 -2.70635 0.216526 0
M  V30 24083 C 2233.16 -2.29633 2.77122 0
M  V30 24084 C 2232.76 -1.68234 4.15212 0
M  V30 24085 C 2234.51 -3.05686 2.94544 0
M  V30 24086 C 2232.41 -2.69396 5.26478 0
M  V30 24087 H 2231.34 -0.475843 0.584884 0
M  V30 24088 H 2234 -0.540456 1.75361 0
M  V30 24089 H 2232.38 -3.05202 2.52324 0
M  V30 24090 H 2233.55 -0.987426 4.50096 0
M  V30 24091 H 2231.87 -1.04616 4.03044 0
M  V30 24092 H 2234.46 -3.81313 3.74839 0
M  V30 24093 H 2234.81 -3.62541 2.04621 0
M  V30 24094 H 2235.34 -2.37232 3.19321 0
M  V30 24095 H 2232.08 -2.1734 6.1842 0
M  V30 24096 H 2231.6 -3.37166 4.96064 0
M  V30 24097 H 2233.28 -3.32069 5.55283 0
M  V30 24098 N 2233.41 -1.37859 -0.763727 0
M  V30 24099 C 2234.36 -1.3437 -1.89862 0
M  V30 24100 C 2235.35 -0.231173 -1.67815 0
M  V30 24101 O 2236.56 -0.399648 -1.75507 0
M  V30 24102 H 2232.93 -0.418941 -0.624494 0
M  V30 24103 H 2234.9 -2.30158 -1.89921 0
M  V30 24104 C 2233.65 -1.17556 -3.27225 0
M  V30 24105 H 2232.98 -2.0242 -3.4477 0
M  V30 24106 H 2234.42 -1.19167 -4.06909 0
M  V30 24107 C 2232.87 0.118252 -3.36692 0
M  V30 24108 O 2233.4 1.09895 -3.86375 0
M  V30 24109 N 2231.61 0.171666 -2.90093 0
M  V30 24110 H 2231.16 -0.627056 -2.49851 0
M  V30 24111 H 2231.12 1.03694 -2.96808 0
M  V30 24112 N 2234.89 0.990791 -1.22561 0
M  V30 24113 C 2235.82 2.0834 -0.955362 0
M  V30 24114 C 2236.83 1.62663 0.0668122 0
M  V30 24115 O 2238.02 1.77713 -0.167452 0
M  V30 24116 C 2235.12 3.36342 -0.415625 0
M  V30 24117 C 2234.29 4.11039 -1.49552 0
M  V30 24118 C 2233.35 5.17322 -0.96249 0
M  V30 24119 O 2232.38 5.44785 -1.64917 0
M  V30 24120 N 2233.58 5.80102 0.215032 0
M  V30 24121 H 2236.35 2.32103 -1.896 0
M  V30 24122 H 2233.91 1.15671 -1.13278 0
M  V30 24123 H 2235.9 4.04676 -0.0443098 0
M  V30 24124 H 2234.47 3.09626 0.430178 0
M  V30 24125 H 2233.69 3.37306 -2.04006 0
M  V30 24126 H 2234.98 4.57715 -2.22203 0
M  V30 24127 H 2234.38 5.60161 0.789681 0
M  V30 24128 H 2232.93 6.4966 0.527712 0
M  V30 24129 N 2236.37 1.03564 1.18795 0
M  V30 24130 C 2237.61 0.736056 1.88649 0
M  V30 24131 C 2237.94 -0.735857 1.80043 0
M  V30 24132 O 2237.2 -1.55223 1.19182 0
M  V30 24133 C 2237.49 1.14123 3.3869 0
M  V30 24134 C 2237.16 2.61256 3.675 0
M  V30 24135 C 2235.82 3.01453 3.75072 0
M  V30 24136 C 2238.17 3.56415 3.80287 0
M  V30 24137 C 2235.5 4.35707 3.92907 0
M  V30 24138 C 2237.85 4.90381 3.99636 0
M  V30 24139 C 2236.52 5.30256 4.05443 0
M  V30 24140 H 2235.79 0.269342 0.690316 0
M  V30 24141 H 2238.44 1.29973 1.40639 0
M  V30 24142 H 2236.74 0.49627 3.88644 0
M  V30 24143 H 2238.44 0.886858 3.9107 0
M  V30 24144 H 2235.03 2.29119 3.62219 0
M  V30 24145 H 2239.21 3.26508 3.73773 0
M  V30 24146 H 2234.47 4.66128 3.95645 0
M  V30 24147 H 2238.64 5.64024 4.08473 0
M  V30 24148 H 2236.27 6.34295 4.19015 0
M  V30 24149 N 2237.84 -1.34926 0.814413 0
M  V30 24150 C 2239.09 -1.98541 0.398458 0
M  V30 24151 C 2239.42 -1.64591 -1.03635 0
M  V30 24152 O 2238.67 -0.905191 -1.73507 0
M  V30 24153 C 2238.97 -3.5333 0.537843 0
M  V30 24154 C 2238.64 -4.07169 1.93711 0
M  V30 24155 C 2237.3 -4.21584 2.31991 0
M  V30 24156 C 2239.65 -4.36232 2.85221 0
M  V30 24157 C 2236.98 -4.62385 3.61133 0
M  V30 24158 C 2239.33 -4.78475 4.13817 0
M  V30 24159 C 2238 -4.91096 4.52086 0
M  V30 24160 H 2237.27 -0.726513 0.145806 0
M  V30 24161 H 2239.91 -1.61011 1.03672 0
M  V30 24162 H 2238.22 -3.91368 -0.183837 0
M  V30 24163 H 2239.92 -4.00517 0.196658 0
M  V30 24164 H 2236.51 -3.96406 1.62973 0
M  V30 24165 H 2240.69 -4.24641 2.56893 0
M  V30 24166 H 2235.95 -4.70346 3.90621 0
M  V30 24167 H 2240.12 -4.99923 4.84819 0
M  V30 24168 H 2237.75 -5.22468 5.52205 0
M  V30 24169 N 2239.32 -0.56861 -1.46985 0
M  V30 24170 C 2240.57 -0.0489066 -2.02741 0
M  V30 24171 C 2240.9 1.30211 -1.44079 0
M  V30 24172 O 2240.18 1.84995 -0.600585 0
M  V30 24173 C 2240.46 0.0319837 -3.60086 0
M  V30 24174 C 2240.31 -1.34693 -4.29159 0
M  V30 24175 C 2241.63 0.739722 -4.33839 0
M  V30 24176 H 2238.75 -0.0192468 -0.736749 0
M  V30 24177 H 2241.39 -0.733096 -1.75287 0
M  V30 24178 H 2239.54 0.614663 -3.83607 0
M  V30 24179 H 2241.21 -1.97369 -4.16945 0
M  V30 24180 H 2239.46 -1.91853 -3.89069 0
M  V30 24181 H 2240.13 -1.24294 -5.37824 0
M  V30 24182 H 2242.6 0.244866 -4.15379 0
M  V30 24183 H 2241.48 0.765311 -5.43539 0
M  V30 24184 H 2241.74 1.79819 -4.03878 0
M  V30 24185 N 2240.8 1.54608 -0.305646 0
M  V30 24186 C 2241.76 2.22365 0.555551 0
M  V30 24187 C 2242.76 1.21121 1.05766 0
M  V30 24188 O 2243.95 1.45824 0.952946 0
M  V30 24189 C 2241.08 2.91367 1.76969 0
M  V30 24190 H 2242.28 2.99878 -0.0365099 0
M  V30 24191 H 2239.83 1.56198 -0.0565281 0
M  V30 24192 H 2240.57 2.17945 2.40147 0
M  V30 24193 H 2240.35 3.6559 1.41726 0
M  V30 24194 H 2241.84 3.43043 2.38142 0
M  V30 24195 N 2242.28 0.033457 1.57564 0
M  V30 24196 C 2243.52 -0.645193 1.92263 0
M  V30 24197 C 2243.86 -1.71529 0.910573 0
M  V30 24198 O 2243.13 -1.94388 -0.0660648 0
M  V30 24199 C 2243.41 -1.25765 3.37425 0
M  V30 24200 C 2243.27 -0.196812 4.49369 0
M  V30 24201 C 2244.59 -2.17442 3.82632 0
M  V30 24202 H 2241.71 -0.233073 0.699175 0
M  V30 24203 H 2244.35 0.0916027 1.89779 0
M  V30 24204 H 2242.5 -1.8856 3.39672 0
M  V30 24205 H 2244.17 0.434043 4.59253 0
M  V30 24206 H 2242.41 0.477213 4.31167 0
M  V30 24207 H 2243.08 -0.665027 5.47979 0
M  V30 24208 H 2245.56 -1.64628 3.82148 0
M  V30 24209 H 2244.44 -2.57246 4.84888 0
M  V30 24210 H 2244.7 -3.06734 3.18381 0
M  V30 24211 N 2243.76 -1.55766 -0.239741 0
M  V30 24212 C 2245 -1.77932 -0.96677 0
M  V30 24213 C 2245.33 -0.599047 -1.85045 0
M  V30 24214 O 2244.59 0.417362 -1.91198 0
M  V30 24215 C 2244.88 -3.05676 -1.85195 0
M  V30 24216 C 2244.55 -4.36691 -1.12303 0
M  V30 24217 C 2243.21 -4.72292 -0.921606 0
M  V30 24218 C 2245.56 -5.17654 -0.606928 0
M  V30 24219 C 2242.89 -5.86386 -0.191893 0
M  V30 24220 C 2245.24 -6.32505 0.109352 0
M  V30 24221 C 2243.91 -6.66722 0.32219 0
M  V30 24222 H 2243.18 -0.651099 -0.353766 0
M  V30 24223 H 2245.83 -1.90036 -0.236307 0
M  V30 24224 H 2244.13 -2.88614 -2.6497 0
M  V30 24225 H 2245.83 -3.20026 -2.41629 0
M  V30 24226 H 2242.42 -4.08727 -1.28997 0
M  V30 24227 H 2246.6 -4.90599 -0.750067 0
M  V30 24228 H 2241.86 -6.11398 -0.0165874 0
M  V30 24229 H 2246.03 -6.94479 0.516859 0
M  V30 24230 H 2243.66 -7.54977 0.889573 0
M  V30 24231 N 2245.23 0.505704 -1.49266 0
M  V30 24232 C 2246.46 1.28426 -1.62217 0
M  V30 24233 C 2246.88 1.86533 -0.29173 0
M  V30 24234 O 2246.23 1.67602 0.722204 0
M  V30 24235 C 2246.28 2.41788 -2.68739 0
M  V30 24236 O 2246.01 1.86071 -3.96622 0
M  V30 24237 C 2247.51 3.33235 -2.92352 0
M  V30 24238 H 2244.73 0.389687 -0.546246 0
M  V30 24239 H 2247.27 0.607575 -1.95266 0
M  V30 24240 H 2245.43 3.05296 -2.38481 0
M  V30 24241 H 2245.84 2.60457 -4.55261 0
M  V30 24242 H 2247.31 4.09068 -3.70631 0
M  V30 24243 H 2247.79 3.89945 -2.02088 0
M  V30 24244 H 2248.4 2.75498 -3.24008 0
M  V30 24245 N 2246.71 1.38262 0.756405 0
M  V30 24246 C 2247.96 1.34049 1.51245 0
M  V30 24247 C 2248.28 -0.069803 1.94875 0
M  V30 24248 O 2247.55 -1.01693 1.67438 0
M  V30 24249 H 2246.13 0.493232 0.561009 0
M  V30 24250 H 2248.79 1.72911 0.899317 0
M  V30 24251 H 2247.89 1.98951 2.40468 0
M  V30 24252 N 2248.19 -0.984277 1.23084 0
M  V30 24253 C 2249.1 -2.11015 1.02518 0
M  V30 24254 C 2250.12 -1.73976 -0.0291397 0
M  V30 24255 O 2251.29 -2.00719 0.165469 0
M  V30 24256 C 2248.36 -3.41207 0.614733 0
M  V30 24257 C 2247.42 -3.92294 1.74366 0
M  V30 24258 C 2246.65 -5.16273 1.3527 0
M  V30 24259 O 2246.87 -5.69915 0.235236 0
M  V30 24260 O 2245.81 -5.6133 2.17237 0
M  V30 24261 H 2249.63 -2.31252 1.96866 0
M  V30 24262 H 2247.22 -1.0939 1.01755 0
M  V30 24263 H 2249.1 -4.1953 0.396591 0
M  V30 24264 H 2247.78 -3.22309 -0.299794 0
M  V30 24265 H 2246.68 -3.15106 2.01641 0
M  V30 24266 H 2248.02 -4.1564 2.63637 0
M  V30 24267 N 2249.67 -1.04192 -1.18244 0
M  V30 24268 C 2250.91 -0.75495 -1.89947 0
M  V30 24269 C 2251.27 0.704478 -1.78609 0
M  V30 24270 O 2252.47 1.10511 -2.45032 0
M  V30 24271 C 2250.74 -1.20975 -3.36303 0
M  V30 24272 S 2252.3 -1.04862 -4.26086 0
M  V30 24273 H 2249.12 -0.274457 -0.655892 0
M  V30 24274 H 2251.72 -1.33447 -1.42871 0
M  V30 24275 H 2250.43 -2.26728 -3.42085 0
M  V30 24276 H 2249.96 -0.624072 -3.88418 0
M  V30 24277 H 2251.97 0.0332024 -4.96189 0
M  V30 24278 N 2251.15 1.34492 -0.821557 0
M  V30 24279 C 2252.39 1.98621 -0.409587 0
M  V30 24280 C 2252.73 1.64986 1.02437 0
M  V30 24281 O 2252 0.920788 1.71324 0
M  V30 24282 C 2252.28 3.54887 -0.610521 0
M  V30 24283 C 2252.14 3.98269 -2.0905 0
M  V30 24284 C 2253.46 4.40076 -0.0456153 0
M  V30 24285 H 2250.57 0.721513 -0.150292 0
M  V30 24286 H 2253.22 1.59409 -1.03387 0
M  V30 24287 H 2251.37 3.88419 -0.0791123 0
M  V30 24288 H 2253.04 3.75076 -2.68544 0
M  V30 24289 H 2251.28 3.48631 -2.58146 0
M  V30 24290 H 2251.95 5.07047 -2.18191 0
M  V30 24291 H 2254.43 4.13089 -0.49963 0
M  V30 24292 H 2253.3 5.48475 -0.216018 0
M  V30 24293 H 2253.57 4.29467 1.04932 0
M  V30 24294 N 2252.62 0.576397 1.46681 0
M  V30 24295 C 2253.56 -0.208691 2.27244 0
M  V30 24296 C 2254.54 -0.902722 1.35239 0
M  V30 24297 O 2255.72 -0.917875 1.64643 0
M  V30 24298 C 2252.85 -1.2989 3.12804 0
M  V30 24299 C 2251.89 -0.711383 4.20525 0
M  V30 24300 S 2252.73 0.456875 5.33547 0
M  V30 24301 C 2253.88 -0.634689 6.22674 0
M  V30 24302 H 2254.11 0.474889 2.93483 0
M  V30 24303 H 2251.65 0.363144 1.50069 0
M  V30 24304 H 2253.61 -1.92314 3.62664 0
M  V30 24305 H 2252.27 -1.9544 2.4589 0
M  V30 24306 H 2251.46 -1.53067 4.80194 0
M  V30 24307 H 2251.06 -0.162933 3.73645 0
M  V30 24308 H 2253.35 -1.52197 6.60184 0
M  V30 24309 H 2254.3 -0.0749066 7.0806 0
M  V30 24310 H 2254.7 -0.935994 5.56686 0
M  V30 24311 N 2254.1 -1.54444 0.313841 0
M  V30 24312 C 2255.05 -2.2399 -0.556511 0
M  V30 24313 C 2256.02 -1.22713 -1.11941 0
M  V30 24314 O 2257.2 -1.51369 -1.16155 0
M  V30 24315 C 2254.34 -2.99395 -1.7163 0
M  V30 24316 C 2253.46 -4.1547 -1.18357 0
M  V30 24317 C 2252.59 -4.78428 -2.30825 0
M  V30 24318 C 2251.63 -5.86625 -1.74751 0
M  V30 24319 N 2250.77 -6.43484 -2.80844 0
M  V30 24320 H 2255.61 -2.97969 0.0431417 0
M  V30 24321 H 2253.15 -1.47063 0.0330618 0
M  V30 24322 H 2255.1 -3.41353 -2.39862 0
M  V30 24323 H 2253.73 -2.27769 -2.28738 0
M  V30 24324 H 2252.79 -3.78363 -0.393096 0
M  V30 24325 H 2254.1 -4.93382 -0.733176 0
M  V30 24326 H 2253.25 -5.23305 -3.0698 0
M  V30 24327 H 2251.99 -3.99876 -2.79197 0
M  V30 24328 H 2251 -5.41159 -0.9709 0
M  V30 24329 H 2252.22 -6.67068 -1.27269 0
M  V30 24330 H 2250.17 -5.67809 -3.28525 0
M  V30 24331 H 2250.08 -7.1678 -2.40339 0
M  V30 24332 H 2251.35 -6.93017 -3.56857 0
M  V30 24333 N 2255.58 -0.0418125 -1.57545 0
M  V30 24334 C 2256.51 0.970891 -2.06516 0
M  V30 24335 C 2257.49 1.30969 -0.96363 0
M  V30 24336 O 2258.68 1.42418 -1.23489 0
M  V30 24337 C 2255.8 2.28748 -2.49784 0
M  V30 24338 C 2254.85 2.10239 -3.71082 0
M  V30 24339 S 2255.68 1.38942 -5.17161 0
M  V30 24340 C 2256.84 2.71944 -5.63735 0
M  V30 24341 H 2257.07 0.554078 -2.92091 0
M  V30 24342 H 2254.6 0.170213 -1.53459 0
M  V30 24343 H 2256.56 3.04431 -2.75377 0
M  V30 24344 H 2255.22 2.67559 -1.64532 0
M  V30 24345 H 2254.42 3.07602 -3.99246 0
M  V30 24346 H 2254.02 1.42697 -3.45707 0
M  V30 24347 H 2256.31 3.68144 -5.68749 0
M  V30 24348 H 2257.25 2.48429 -6.6309 0
M  V30 24349 H 2257.66 2.77774 -4.91429 0
M  V30 24350 N 2257.06 1.55891 0.231477 0
M  V30 24351 C 2258.31 1.78442 0.95732 0
M  V30 24352 C 2258.63 0.608852 1.84725 0
M  V30 24353 O 2257.89 -0.407216 1.91416 0
M  V30 24354 C 2258.19 3.06653 1.83571 0
M  V30 24355 C 2257.85 4.3728 1.09985 0
M  V30 24356 C 2256.52 4.72774 0.896546 0
M  V30 24357 C 2258.87 5.17969 0.579467 0
M  V30 24358 C 2256.2 5.8648 0.160793 0
M  V30 24359 C 2258.55 6.32439 -0.142894 0
M  V30 24360 C 2257.21 6.66542 -0.357544 0
M  V30 24361 H 2256.48 0.652966 0.350308 0
M  V30 24362 H 2259.13 1.90159 0.226225 0
M  V30 24363 H 2257.43 2.90015 2.63436 0
M  V30 24364 H 2259.13 3.21302 2.39929 0
M  V30 24365 H 2255.72 4.09405 1.26828 0
M  V30 24366 H 2259.9 4.9099 0.724038 0
M  V30 24367 H 2255.16 6.11398 -0.0158367 0
M  V30 24368 H 2259.33 6.94195 -0.553681 0
M  V30 24369 H 2256.96 7.54495 -0.929599 0
M  V30 24370 N 2258.54 -0.497781 1.49532 0
M  V30 24371 C 2259.5 -1.58125 1.65919 0
M  V30 24372 C 2260.5 -1.51785 0.530851 0
M  V30 24373 O 2261.69 -1.54879 0.79737 0
M  V30 24374 C 2258.82 -2.97777 1.65956 0
M  V30 24375 H 2260.01 -1.44924 2.62559 0
M  V30 24376 H 2257.57 -0.722251 1.38612 0
M  V30 24377 H 2258.3 -3.16452 0.70912 0
M  V30 24378 H 2258.09 -3.03788 2.47902 0
M  V30 24379 H 2259.58 -3.7649 1.80679 0
M  V30 24380 N 2260.01 -1.38661 -0.749062 0
M  V30 24381 C 2260.94 -1.38976 -1.87637 0
M  V30 24382 C 2261.93 -0.255034 -1.68177 0
M  V30 24383 O 2263.11 -0.458787 -1.88703 0
M  V30 24384 C 2260.24 -1.21857 -3.2522 0
M  V30 24385 C 2259.19 -2.32581 -3.59291 0
M  V30 24386 C 2258.52 -2.00563 -4.9566 0
M  V30 24387 C 2259.82 -3.74857 -3.63703 0
M  V30 24388 H 2261.51 -2.33313 -1.87631 0
M  V30 24389 H 2259.06 -1.12305 -0.90131 0
M  V30 24390 H 2261.01 -1.20702 -4.03744 0
M  V30 24391 H 2259.74 -0.239832 -3.25718 0
M  V30 24392 H 2258.4 -2.3293 -2.83089 0
M  V30 24393 H 2258.04 -1.01162 -4.92722 0
M  V30 24394 H 2257.74 -2.74723 -5.19424 0
M  V30 24395 H 2259.27 -2.01034 -5.76557 0
M  V30 24396 H 2260.68 -3.76514 -4.32331 0
M  V30 24397 H 2259.08 -4.48259 -3.98978 0
M  V30 24398 H 2260.15 -4.06846 -2.63826 0
M  V30 24399 N 2261.49 0.977736 -1.23605 0
M  V30 24400 C 2262.91 1.24446 -0.999273 0
M  V30 24401 C 2263.11 1.99284 0.298018 0
M  V30 24402 O 2262.17 2.31123 1.01677 0
M  V30 24403 C 2263.48 2.0414 -2.20788 0
M  V30 24404 C 2265.03 2.17269 -2.25306 0
M  V30 24405 C 2265.5 3.00356 -3.4576 0
M  V30 24406 N 2266.99 3.0794 -3.46016 0
M  V30 24407 C 2267.73 3.7256 -4.35874 0
M  V30 24408 N 2267.22 4.38981 -5.35973 0
M  V30 24409 N 2269.02 3.69473 -4.23611 0
M  V30 24410 H 2261.17 0.476447 -2.06987 0
M  V30 24411 H 2263.43 0.273118 -0.907805 0
M  V30 24412 H 2263.14 1.56527 -3.14948 0
M  V30 24413 H 2263.01 3.04887 -2.2209 0
M  V30 24414 H 2265.4 2.64089 -1.31684 0
M  V30 24415 H 2265.48 1.15903 -2.28035 0
M  V30 24416 H 2265.12 2.54232 -4.39691 0
M  V30 24417 H 2265.05 4.01898 -3.40273 0
M  V30 24418 H 2267.54 2.60683 -2.73592 0
M  V30 24419 H 2267.86 4.86076 -6.00791 0
M  V30 24420 H 2266.2 4.37681 -5.3987 0
M  V30 24421 H 2269.39 3.16753 -3.44652 0
M  V30 24422 H 2269.57 4.19551 -4.93843 0
M  V30 24423 N 2262.97 1.04818 1.1769 0
M  V30 24424 C 2263.9 0.603861 2.21102 0
M  V30 24425 C 2264.92 -0.330432 1.59411 0
M  V30 24426 O 2266.11 -0.123758 1.7807 0
M  V30 24427 C 2263.21 -0.136838 3.38624 0
M  V30 24428 C 2262.38 0.807213 4.29887 0
M  V30 24429 C 2261.44 0.108452 5.26088 0
M  V30 24430 O 2260.46 0.741331 5.64352 0
M  V30 24431 N 2261.67 -1.15548 5.68884 0
M  V30 24432 H 2264.43 1.49334 2.59845 0
M  V30 24433 H 2261.99 0.92961 1.32551 0
M  V30 24434 H 2263.98 -0.614331 4.0001 0
M  V30 24435 H 2262.55 -0.927941 2.9851 0
M  V30 24436 H 2261.77 1.46441 3.6599 0
M  V30 24437 H 2263.06 1.44816 4.87756 0
M  V30 24438 H 2262.46 -1.69006 5.39864 0
M  V30 24439 H 2261.02 -1.57711 6.32432 0
M  V30 24440 N 2264.45 -1.34055 0.828678 0
M  V30 24441 C 2265.68 -2.02032 0.432028 0
M  V30 24442 C 2266.09 -1.62537 -0.968412 0
M  V30 24443 O 2265.43 -0.829436 -1.63909 0
M  V30 24444 C 2265.49 -3.56528 0.461287 0
M  V30 24445 C 2265.16 -4.19366 1.81606 0
M  V30 24446 C 2266.15 -4.39472 2.77778 0
M  V30 24447 C 2263.84 -4.56013 2.10612 0
M  V30 24448 C 2265.83 -4.95357 4.01124 0
M  V30 24449 C 2263.52 -5.11608 3.34216 0
M  V30 24450 C 2264.52 -5.31225 4.29289 0
M  V30 24451 O 2264.21 -5.8564 5.50709 0
M  V30 24452 H 2263.94 -0.654026 0.170955 0
M  V30 24453 H 2266.49 -1.72184 1.11991 0
M  V30 24454 H 2264.72 -3.85661 -0.28332 0
M  V30 24455 H 2266.41 -4.05813 0.0838863 0
M  V30 24456 H 2267.18 -4.11518 2.56666 0
M  V30 24457 H 2263.06 -4.40045 1.37409 0
M  V30 24458 H 2266.6 -5.10584 4.75342 0
M  V30 24459 H 2262.5 -5.38991 3.55189 0
M  V30 24460 H 2263.26 -6.04068 5.52308 0
M  V30 24461 N 2265.93 -0.584167 -1.46374 0
M  V30 24462 C 2267.16 -0.0758558 -2.06461 0
M  V30 24463 C 2267.57 1.2351 -1.43325 0
M  V30 24464 O 2266.91 1.7579 -0.533247 0
M  V30 24465 C 2266.97 0.16271 -3.59132 0
M  V30 24466 C 2266.63 -1.06287 -4.44468 0
M  V30 24467 C 2267.63 -1.97527 -4.80915 0
M  V30 24468 C 2265.32 -1.28512 -4.85582 0
M  V30 24469 C 2267.31 -3.0934 -5.57304 0
M  V30 24470 C 2265 -2.4063 -5.6173 0
M  V30 24471 C 2266 -3.30873 -5.97505 0
M  V30 24472 O 2265.68 -4.41044 -6.72113 0
M  V30 24473 H 2265.42 -0.0551843 -0.673744 0
M  V30 24474 H 2267.97 -0.805017 -1.88967 0
M  V30 24475 H 2266.2 0.946499 -3.74938 0
M  V30 24476 H 2267.89 0.619712 -4.01141 0
M  V30 24477 H 2268.65 -1.81573 -4.49729 0
M  V30 24478 H 2264.53 -0.591783 -4.57186 0
M  V30 24479 H 2268.08 -3.79803 -5.85146 0
M  V30 24480 H 2263.97 -2.56547 -5.92329 0
M  V30 24481 H 2264.74 -4.39429 -6.90539 0
M  V30 24482 N 2267.41 1.54275 -0.322027 0
M  V30 24483 C 2268.65 2.00541 0.281009 0
M  V30 24484 C 2268.98 1.21022 1.52263 0
M  V30 24485 O 2268.24 0.280016 1.93686 0
M  V30 24486 C 2268.53 3.51221 0.661707 0
M  V30 24487 C 2268.2 4.48332 -0.48056 0
M  V30 24488 C 2266.86 4.74603 -0.794088 0
M  V30 24489 C 2269.21 5.0604 -1.24792 0
M  V30 24490 C 2266.54 5.5584 -1.87773 0
M  V30 24491 C 2268.89 5.88458 -2.32164 0
M  V30 24492 C 2267.56 6.13031 -2.641 0
M  V30 24493 H 2266.83 0.733831 0.102828 0
M  V30 24494 H 2269.48 1.86246 -0.445486 0
M  V30 24495 H 2267.78 3.63234 1.4686 0
M  V30 24496 H 2269.48 3.84459 1.13982 0
M  V30 24497 H 2266.07 4.28003 -0.226114 0
M  V30 24498 H 2270.25 4.85727 -1.01896 0
M  V30 24499 H 2265.51 5.73111 -2.12964 0
M  V30 24500 H 2269.68 6.32194 -2.92068 0
M  V30 24501 H 2267.31 6.75769 -3.48196 0
M  V30 24502 N 2268.88 0.0501669 1.5752 0
M  V30 24503 C 2270.11 -0.633457 1.96964 0
M  V30 24504 C 2270.53 -1.64438 0.92766 0
M  V30 24505 O 2269.88 -1.82287 -0.0882344 0
M  V30 24506 C 2269.93 -1.32126 3.36489 0
M  V30 24507 O 2269.66 -0.350817 4.36693 0
M  V30 24508 C 2271.16 -2.09474 3.90686 0
M  V30 24509 H 2268.38 -0.173255 0.648247 0
M  V30 24510 H 2270.92 0.116169 2.0417 0
M  V30 24511 H 2269.08 -2.02212 3.30437 0
M  V30 24512 H 2269.49 -0.841644 5.17703 0
M  V30 24513 H 2270.96 -2.53021 4.90596 0
M  V30 24514 H 2271.44 -2.94249 3.26059 0
M  V30 24515 H 2272.05 -1.443 4.00072 0
M  V30 24516 N 2270.36 -1.56011 -0.223207 0
M  V30 24517 C 2271.31 -1.93133 -1.29623 0
M  V30 24518 C 2272.3 -0.813172 -1.48606 0
M  V30 24519 O 2273.51 -0.997992 -1.498 0
M  V30 24520 H 2269.88 -0.613733 -0.434552 0
M  V30 24521 H 2271.86 -2.82673 -0.955946 0
M  V30 24522 C 2270.6 -2.26297 -2.63979 0
M  V30 24523 H 2269.93 -3.1185 -2.50179 0
M  V30 24524 H 2271.37 -2.56157 -3.37875 0
M  V30 24525 C 2269.83 -1.08752 -3.18864 0
M  V30 24526 O 2270.36 -0.347797 -4.00192 0
M  V30 24527 N 2268.56 -0.871792 -2.77215 0
M  V30 24528 H 2268.11 -1.47505 -2.11187 0
M  V30 24529 H 2268.07 -0.0870457 -3.14279 0
M  V30 24530 N 2271.84 0.489844 -1.49794 0
M  V30 24531 C 2273.09 1.24079 -1.59527 0
M  V30 24532 C 2273.41 1.92847 -0.288987 0
M  V30 24533 O 2272.68 1.83256 0.692403 0
M  V30 24534 H 2271.26 0.460973 -0.587804 0
M  V30 24535 H 2273.92 0.566746 -1.86478 0
M  V30 24536 H 2273.02 1.99876 -2.397 0
M  V30 24537 N 2273.32 1.39056 0.741698 0
M  V30 24538 C 2274.56 1.3712 1.50232 0
M  V30 24539 C 2274.92 -0.0350101 1.92368 0
M  V30 24540 O 2274.21 -1.00016 1.63424 0
M  V30 24541 C 2274.41 2.27168 2.75916 0
M  V30 24542 C 2274.23 3.76405 2.46068 0
M  V30 24543 C 2273 4.45368 2.38696 0
M  V30 24544 C 2275.2 4.68549 2.12054 0
M  V30 24545 N 2273.18 5.79976 2.01248 0
M  V30 24546 C 2274.56 5.91757 1.84995 0
M  V30 24547 C 2276.61 4.56636 1.98465 0
M  V30 24548 C 2275.31 7.04386 1.45717 0
M  V30 24549 C 2277.34 5.69179 1.60589 0
M  V30 24550 C 2276.7 6.91457 1.34411 0
M  V30 24551 H 2272.8 0.557037 0.548848 0
M  V30 24552 H 2275.38 1.74548 0.862611 0
M  V30 24553 H 2273.56 1.9191 3.37676 0
M  V30 24554 H 2275.29 2.16273 3.42064 0
M  V30 24555 H 2272.04 3.98726 2.55567 0
M  V30 24556 H 2272.47 6.51194 1.85136 0
M  V30 24557 H 2277.11 3.62641 2.17374 0
M  V30 24558 H 2274.83 7.98288 1.25548 0
M  V30 24559 H 2278.41 5.61946 1.5069 0
M  V30 24560 H 2277.29 7.77065 1.05541 0
M  V30 24561 N 2274.8 -0.971167 1.24121 0
M  V30 24562 C 2275.74 -2.08642 1.02816 0
M  V30 24563 C 2276.74 -1.69362 -0.0358105 0
M  V30 24564 O 2277.94 -1.7961 0.11846 0
M  V30 24565 H 2274.32 -0.682643 0.31544 0
M  V30 24566 H 2276.29 -2.23775 1.97401 0
M  V30 24567 C 2275.04 -3.41647 0.645934 0
M  V30 24568 H 2274.36 -3.7233 1.45639 0
M  V30 24569 H 2275.8 -4.20593 0.53644 0
M  V30 24570 C 2274.26 -3.30636 -0.646655 0
M  V30 24571 O 2274.79 -3.64266 -1.69332 0
M  V30 24572 N 2273 -2.83776 -0.626065 0
M  V30 24573 H 2272.54 -2.56606 0.226033 0
M  V30 24574 H 2272.5 -2.7679 -1.49112 0
M  V30 24575 N 2276.27 -1.05441 -1.17133 0
M  V30 24576 C 2277.52 -0.76711 -1.87732 0
M  V30 24577 C 2277.85 0.704221 -1.80982 0
M  V30 24578 O 2277.13 1.51517 -1.21954 0
M  V30 24579 C 2277.41 -1.25139 -3.37657 0
M  V30 24580 C 2277.26 -2.78584 -3.53145 0
M  V30 24581 C 2278.58 -0.8524 -4.31766 0
M  V30 24582 H 2275.7 -0.280141 -0.681682 0
M  V30 24583 H 2278.34 -1.30883 -1.3773 0
M  V30 24584 H 2276.49 -0.790536 -3.80372 0
M  V30 24585 H 2278.17 -3.32812 -3.19428 0
M  V30 24586 H 2276.41 -3.17737 -2.9534 0
M  V30 24587 H 2277.08 -3.07531 -4.58398 0
M  V30 24588 H 2279.56 -1.24918 -3.96906 0
M  V30 24589 H 2278.43 -1.21883 -5.35197 0
M  V30 24590 H 2278.69 0.243407 -4.41429 0
M  V30 24591 N 2277.75 1.33613 -0.835776 0
M  V30 24592 C 2279 1.97882 -0.429993 0
M  V30 24593 C 2279.33 1.66218 1.01003 0
M  V30 24594 O 2278.58 0.93268 1.72045 0
M  V30 24595 C 2278.88 3.5243 -0.593987 0
M  V30 24596 C 2278.55 4.04036 -2.00165 0
M  V30 24597 C 2277.21 4.1784 -2.38669 0
M  V30 24598 C 2279.56 4.31639 -2.92125 0
M  V30 24599 C 2276.89 4.56581 -3.68443 0
M  V30 24600 C 2279.24 4.71831 -4.21377 0
M  V30 24601 C 2277.91 4.83841 -4.59841 0
M  V30 24602 H 2277.18 0.724102 -0.157346 0
M  V30 24603 H 2279.82 1.59341 -1.0622 0
M  V30 24604 H 2278.13 3.91611 0.12155 0
M  V30 24605 H 2279.82 4.00154 -0.260352 0
M  V30 24606 H 2276.41 3.93763 -1.69259 0
M  V30 24607 H 2280.6 4.205 -2.63616 0
M  V30 24608 H 2275.85 4.64072 -3.98054 0
M  V30 24609 H 2280.03 4.92147 -4.92711 0
M  V30 24610 H 2277.66 5.13617 -5.60447 0
M  V30 24611 N 2279.23 0.591922 1.46062 0
M  V30 24612 C 2280.51 0.0137463 1.95595 0
M  V30 24613 C 2280.89 -1.44967 1.53453 0
M  V30 24614 O 2280.24 -2.14425 0.78958 0
M  V30 24615 C 2280.45 0.195435 3.48452 0
M  V30 24616 C 2281.79 0.0680511 4.24545 0
M  V30 24617 O 2282.82 0.124744 3.55982 0
M  V30 24618 O 2281.68 -0.0599619 5.46467 0
M  V30 24619 H 2278.77 -0.0446133 0.825796 0
M  V30 24620 H 2281.32 0.660886 1.56302 0
M  V30 24621 H 2280.09 1.21242 3.72043 0
M  V30 24622 H 2279.71 -0.487706 3.94598 0
M  V30 24623 N 2280.71 -1.54102 0.330204 0
M  V30 24624 C 2281.96 -2.00687 -0.27037 0
M  V30 24625 C 2282.28 -1.21828 -1.51619 0
M  V30 24626 O 2281.54 -0.290284 -1.93535 0
M  V30 24627 C 2281.84 -3.51567 -0.643072 0
M  V30 24628 C 2281.5 -4.48071 0.50433 0
M  V30 24629 C 2280.17 -4.74175 0.819247 0
M  V30 24630 C 2282.52 -5.05371 1.27474 0
M  V30 24631 C 2279.85 -5.54837 1.90718 0
M  V30 24632 C 2282.2 -5.87219 2.35281 0
M  V30 24633 C 2280.86 -6.11622 2.67347 0
M  V30 24634 H 2280.13 -0.734366 -0.0989353 0
M  V30 24635 H 2282.78 -1.86007 0.455357 0
M  V30 24636 H 2281.08 -3.64008 -1.44932 0
M  V30 24637 H 2282.78 -3.85058 -1.11942 0
M  V30 24638 H 2279.37 -4.27877 0.248809 0
M  V30 24639 H 2283.55 -4.8518 1.0447 0
M  V30 24640 H 2278.81 -5.71973 2.16001 0
M  V30 24641 H 2282.98 -6.30636 2.95417 0
M  V30 24642 H 2280.61 -6.73913 3.51775 0
M  V30 24643 N 2282.19 -0.0585199 -1.57491 0
M  V30 24644 C 2283.44 0.613112 -1.92156 0
M  V30 24645 C 2283.75 1.71567 -0.939364 0
M  V30 24646 O 2284.95 2.44597 -1.17833 0
M  V30 24647 C 2283.41 1.14189 -3.41305 0
M  V30 24648 C 2283.02 0.0710478 -4.47944 0
M  V30 24649 C 2284.76 1.78835 -3.84991 0
M  V30 24650 C 2282.67 0.613122 -5.88213 0
M  V30 24651 H 2281.6 0.232784 -0.717166 0
M  V30 24652 H 2284.25 -0.128602 -1.83049 0
M  V30 24653 H 2282.63 1.93615 -3.45441 0
M  V30 24654 H 2283.81 -0.702916 -4.55407 0
M  V30 24655 H 2282.12 -0.478386 -4.13643 0
M  V30 24656 H 2284.72 2.204 -4.87163 0
M  V30 24657 H 2285.06 2.64303 -3.21636 0
M  V30 24658 H 2285.59 1.06052 -3.83403 0
M  V30 24659 H 2282.33 -0.204093 -6.55182 0
M  V30 24660 H 2281.85 1.35491 -5.84296 0
M  V30 24661 H 2283.53 1.09371 -6.37689 0
M  V30 24662 N 2283.66 1.56128 0.21493 0
M  V30 24663 C 2284.91 1.79713 0.93973 0
M  V30 24664 C 2285.24 0.629279 1.83722 0
M  V30 24665 O 2284.52 -0.371163 1.90926 0
M  V30 24666 C 2284.8 3.13427 1.773 0
M  V30 24667 C 2284.65 4.40672 0.901562 0
M  V30 24668 C 2285.97 3.43643 2.7495 0
M  V30 24669 H 2283.09 0.653782 0.340203 0
M  V30 24670 H 2285.73 1.88856 0.208207 0
M  V30 24671 H 2283.88 3.05764 2.39667 0
M  V30 24672 H 2285.56 4.60361 0.294125 0
M  V30 24673 H 2283.8 4.33304 0.207291 0
M  V30 24674 H 2284.47 5.30685 1.51913 0
M  V30 24675 H 2286.95 3.51477 2.22717 0
M  V30 24676 H 2285.82 4.38361 3.3035 0
M  V30 24677 H 2286.08 2.66141 3.53018 0
M  V30 24678 N 2285.14 -0.481893 1.50052 0
M  V30 24679 C 2286.39 -1.23658 1.60738 0
M  V30 24680 C 2286.72 -1.9184 0.30182 0
M  V30 24681 O 2286 -1.81621 -0.695993 0
M  V30 24682 C 2286.28 -2.28869 2.78013 0
M  V30 24683 C 2286.13 -1.65062 4.18419 0
M  V30 24684 C 2287.45 -3.30274 2.90873 0
M  V30 24685 H 2284.57 -0.448218 0.585038 0
M  V30 24686 H 2287.21 -0.531914 1.82403 0
M  V30 24687 H 2285.36 -2.88969 2.59672 0
M  V30 24688 H 2287.03 -1.08642 4.48324 0
M  V30 24689 H 2285.28 -0.954074 4.23178 0
M  V30 24690 H 2285.95 -2.41465 4.96385 0
M  V30 24691 H 2288.42 -2.80186 3.07628 0
M  V30 24692 H 2287.3 -4.01231 3.74573 0
M  V30 24693 H 2287.56 -3.93751 2.01028 0
M  V30 24694 N 2286.62 -1.39448 -0.734313 0
M  V30 24695 C 2287.87 -1.36911 -1.4961 0
M  V30 24696 C 2288.2 0.0347488 -1.94169 0
M  V30 24697 O 2287.47 0.999818 -1.66835 0
M  V30 24698 C 2287.76 -2.34208 -2.7353 0
M  V30 24699 C 2287.61 -3.83538 -2.34986 0
M  V30 24700 C 2288.93 -2.29324 -3.75631 0
M  V30 24701 H 2286.05 -0.498638 -0.542705 0
M  V30 24702 H 2288.69 -1.70444 -0.839567 0
M  V30 24703 H 2286.84 -2.05742 -3.29549 0
M  V30 24704 H 2288.51 -4.22756 -1.84593 0
M  V30 24705 H 2286.76 -4.00281 -1.67206 0
M  V30 24706 H 2287.43 -4.47105 -3.2373 0
M  V30 24707 H 2289.9 -2.54495 -3.29198 0
M  V30 24708 H 2288.78 -2.9948 -4.60003 0
M  V30 24709 H 2289.04 -1.29849 -4.22601 0
M  V30 24710 N 2288.1 0.964571 -1.24635 0
M  V30 24711 C 2289.03 2.07739 -1.06614 0
M  V30 24712 C 2290.01 1.70086 0.0218367 0
M  V30 24713 O 2291.19 1.93652 -0.145827 0
M  V30 24714 C 2288.32 3.40707 -0.673503 0
M  V30 24715 C 2287.28 3.92329 -1.71061 0
M  V30 24716 C 2286.6 5.21676 -1.17294 0
M  V30 24717 C 2287.9 4.19818 -3.10725 0
M  V30 24718 H 2289.6 2.23073 -1.99697 0
M  V30 24719 H 2287.14 1.07193 -0.961539 0
M  V30 24720 H 2289.1 4.17998 -0.534418 0
M  V30 24721 H 2287.82 3.25283 0.293016 0
M  V30 24722 H 2286.48 3.17198 -1.83796 0
M  V30 24723 H 2286.13 5.02614 -0.196935 0
M  V30 24724 H 2285.83 5.57183 -1.86602 0
M  V30 24725 H 2287.35 6.01573 -1.04604 0
M  V30 24726 H 2288.77 4.87802 -3.01201 0
M  V30 24727 H 2287.16 4.6656 -3.77414 0
M  V30 24728 H 2288.23 3.26473 -3.5853 0
M  V30 24729 N 2289.58 1.0606 1.16572 0
M  V30 24730 C 2290.8 0.796596 1.91492 0
M  V30 24731 C 2291.23 -0.642837 1.76774 0
M  V30 24732 O 2290.58 -1.44766 1.09144 0
M  V30 24733 C 2290.63 1.19309 3.40291 0
M  V30 24734 O 2289.74 0.330466 4.11074 0
M  V30 24735 H 2289.08 0.291337 0.596673 0
M  V30 24736 H 2291.61 1.41578 1.47706 0
M  V30 24737 H 2291.62 1.16363 3.91055 0
M  V30 24738 H 2290.29 2.24159 3.50322 0
M  V30 24739 H 2288.87 0.42129 3.70513 0
M  V30 24740 N 2291.06 -1.33168 0.84285 0
M  V30 24741 C 2292.3 -1.96914 0.436773 0
M  V30 24742 C 2292.62 -1.67493 -1.01022 0
M  V30 24743 O 2293.82 -2.24884 -1.52116 0
M  V30 24744 C 2292.28 -3.52417 0.730082 0
M  V30 24745 C 2291.89 -3.9071 2.19202 0
M  V30 24746 C 2293.63 -4.22694 0.391151 0
M  V30 24747 C 2291.54 -5.39208 2.42917 0
M  V30 24748 H 2290.47 -0.736917 0.159593 0
M  V30 24749 H 2293.12 -1.51731 1.03199 0
M  V30 24750 H 2291.5 -3.95948 0.0644451 0
M  V30 24751 H 2292.68 -3.58226 2.89846 0
M  V30 24752 H 2290.99 -3.33426 2.49431 0
M  V30 24753 H 2293.59 -5.31906 0.54591 0
M  V30 24754 H 2293.93 -4.10935 -0.666222 0
M  V30 24755 H 2294.46 -3.84707 1.01219 0
M  V30 24756 H 2291.2 -5.55976 3.47234 0
M  V30 24757 H 2290.72 -5.73139 1.76837 0
M  V30 24758 H 2292.4 -6.06144 2.2627 0
M  V30 24759 N 2292.53 -0.599659 -1.45746 0
M  V30 24760 C 2293.5 0.113794 -2.28917 0
M  V30 24761 C 2294.5 0.802705 -1.39332 0
M  V30 24762 O 2295.69 0.652074 -1.61535 0
M  V30 24763 C 2292.82 1.17108 -3.20154 0
M  V30 24764 H 2294.01 -0.617341 -2.93477 0
M  V30 24765 H 2291.56 -0.358354 -1.52136 0
M  V30 24766 H 2292.3 1.93324 -2.60377 0
M  V30 24767 H 2292.08 0.6814 -3.86134 0
M  V30 24768 H 2293.57 1.67098 -3.82711 0
M  V30 24769 N 2294.01 1.53925 -0.338371 0
M  V30 24770 C 2295.24 2.05714 0.263951 0
M  V30 24771 C 2295.66 1.21204 1.43845 0
M  V30 24772 O 2295.02 0.224567 1.79904 0
M  V30 24773 C 2295.07 3.54472 0.661938 0
M  V30 24774 O 2294.17 3.72836 1.76259 0
M  V30 24775 H 2293.51 0.662483 0.0448606 0
M  V30 24776 H 2296.04 1.98619 -0.491083 0
M  V30 24777 H 2296.05 3.97012 0.940524 0
M  V30 24778 H 2294.73 4.15433 -0.19701 0
M  V30 24779 H 2293.3 3.422 1.48167 0
M  V30 24780 N 2295.49 0.0668712 1.57458 0
M  V30 24781 C 2296.42 -0.899726 2.1547 0
M  V30 24782 C 2297.4 -1.31379 1.08044 0
M  V30 24783 O 2298.59 -1.38572 1.36057 0
M  V30 24784 C 2295.72 -2.16907 2.71236 0
M  V30 24785 C 2294.67 -1.89456 3.83784 0
M  V30 24786 C 2294 -3.22978 4.26133 0
M  V30 24787 C 2295.3 -1.20372 5.0824 0
M  V30 24788 H 2296.99 -0.416477 2.96489 0
M  V30 24789 H 2294.54 -0.198883 1.4262 0
M  V30 24790 H 2296.49 -2.84939 3.10463 0
M  V30 24791 H 2295.21 -2.67465 1.8743 0
M  V30 24792 H 2293.87 -1.2383 3.45053 0
M  V30 24793 H 2293.52 -3.71368 3.39256 0
M  V30 24794 H 2293.22 -3.05404 5.01998 0
M  V30 24795 H 2294.74 -3.92217 4.67973 0
M  V30 24796 H 2296.16 -1.78466 5.44814 0
M  V30 24797 H 2294.55 -1.13073 5.89351 0
M  V30 24798 H 2295.62 -0.182068 4.84558 0
M  V30 24799 N 2296.97 -1.56239 -0.206647 0
M  V30 24800 C 2298.22 -1.79139 -0.926933 0
M  V30 24801 C 2298.53 -0.638076 -1.849 0
M  V30 24802 O 2299.74 -0.751079 -2.60904 0
M  V30 24803 C 2298.19 -3.17297 -1.69854 0
M  V30 24804 C 2297.8 -4.40397 -0.821878 0
M  V30 24805 C 2299.54 -3.49514 -2.40915 0
M  V30 24806 C 2297.45 -5.69578 -1.59169 0
M  V30 24807 H 2296.38 -0.667922 -0.349852 0
M  V30 24808 H 2299.03 -1.82611 -0.180455 0
M  V30 24809 H 2297.41 -3.08043 -2.48848 0
M  V30 24810 H 2298.59 -4.60745 -0.0714209 0
M  V30 24811 H 2296.9 -4.15804 -0.222668 0
M  V30 24812 H 2299.5 -4.4326 -2.99039 0
M  V30 24813 H 2299.84 -2.72712 -3.14537 0
M  V30 24814 H 2300.38 -3.60164 -1.68899 0
M  V30 24815 H 2297.11 -6.49313 -0.898475 0
M  V30 24816 H 2296.63 -5.53267 -2.31638 0
M  V30 24817 H 2298.31 -6.10285 -2.14851 0
M  V30 24818 N 2298.45 0.473929 -1.50305 0
M  V30 24819 C 2299.69 1.22622 -1.61153 0
M  V30 24820 C 2300.02 1.92005 -0.310551 0
M  V30 24821 O 2299.28 1.82622 0.703387 0
M  V30 24822 C 2299.57 2.29544 -2.73942 0
M  V30 24823 C 2299.24 1.77432 -4.14522 0
M  V30 24824 C 2297.9 1.62941 -4.52773 0
M  V30 24825 C 2300.25 1.38741 -5.02395 0
M  V30 24826 C 2297.58 1.08177 -5.76641 0
M  V30 24827 C 2299.93 0.854199 -6.26806 0
M  V30 24828 C 2298.6 0.695894 -6.63863 0
M  V30 24829 H 2297.87 0.448705 -0.589699 0
M  V30 24830 H 2300.52 0.522673 -1.84229 0
M  V30 24831 H 2298.82 3.05795 -2.44943 0
M  V30 24832 H 2300.52 2.87504 -2.79539 0
M  V30 24833 H 2297.11 1.89678 -3.84344 0
M  V30 24834 H 2301.29 1.48772 -4.73477 0
M  V30 24835 H 2296.55 0.94656 -6.04028 0
M  V30 24836 H 2300.72 0.545721 -6.94258 0
M  V30 24837 H 2298.35 0.269386 -7.59723 0
M  V30 24838 N 2299.92 1.39835 0.726907 0
M  V30 24839 C 2301.15 1.40978 1.52118 0
M  V30 24840 C 2301.57 0.00829336 1.88098 0
M  V30 24841 O 2300.93 -0.98078 1.52481 0
M  V30 24842 C 2300.98 2.29649 2.78017 0
M  V30 24843 O 2300.08 1.73194 3.74269 0
M  V30 24844 H 2299.42 0.479739 0.459071 0
M  V30 24845 H 2301.95 1.83929 0.896175 0
M  V30 24846 H 2301.96 2.44443 3.26667 0
M  V30 24847 H 2300.64 3.31497 2.51163 0
M  V30 24848 H 2299.22 1.67686 3.3307 0
M  V30 24849 N 2301.4 -0.957948 1.25144 0
M  V30 24850 C 2302.36 -2.03567 1.05324 0
M  V30 24851 C 2303.36 -1.60798 0.00718027 0
M  V30 24852 O 2304.55 -1.7241 0.24906 0
M  V30 24853 C 2301.69 -3.35606 0.598453 0
M  V30 24854 H 2302.88 -2.22583 2.0099 0
M  V30 24855 H 2300.43 -1.13457 1.07504 0
M  V30 24856 H 2301.17 -3.22285 -0.360957 0
M  V30 24857 H 2300.95 -3.67995 1.35358 0
M  V30 24858 H 2302.44 -4.14819 0.481113 0
M  V30 24859 N 2302.88 -1.06677 -1.16008 0
M  V30 24860 C 2304.13 -0.78085 -1.85972 0
M  V30 24861 C 2304.44 0.695412 -1.82821 0
M  V30 24862 O 2305.65 1.09585 -2.48402 0
M  V30 24863 C 2304.1 -1.3467 -3.33754 0
M  V30 24864 C 2303.71 -2.85349 -3.45369 0
M  V30 24865 C 2305.46 -1.1385 -4.08948 0
M  V30 24866 C 2303.36 -3.35159 -4.8726 0
M  V30 24867 H 2302.29 -0.28842 -0.696656 0
M  V30 24868 H 2304.94 -1.28597 -1.30901 0
M  V30 24869 H 2303.33 -0.769342 -3.88455 0
M  V30 24870 H 2304.5 -3.4907 -3.0081 0
M  V30 24871 H 2302.81 -3.04881 -2.83613 0
M  V30 24872 H 2305.41 -1.48549 -5.13651 0
M  V30 24873 H 2305.75 -0.0771014 -4.16229 0
M  V30 24874 H 2306.29 -1.68186 -3.60497 0
M  V30 24875 H 2303.03 -4.40795 -4.8516 0
M  V30 24876 H 2302.55 -2.76188 -5.32428 0
M  V30 24877 H 2304.23 -3.30714 -5.56091 0
M  V30 24878 N 2304.36 1.32719 -0.8499 0
M  V30 24879 C 2305.29 2.31482 -0.306349 0
M  V30 24880 C 2306.27 1.59469 0.591924 0
M  V30 24881 O 2307.45 1.87297 0.513166 0
M  V30 24882 C 2304.58 3.43533 0.510144 0
M  V30 24883 C 2303.54 4.26994 -0.293284 0
M  V30 24884 C 2302.86 5.30763 0.647649 0
M  V30 24885 C 2304.16 4.99802 -1.51643 0
M  V30 24886 H 2305.86 2.77193 -1.13157 0
M  V30 24887 H 2303.4 1.33265 -0.545577 0
M  V30 24888 H 2305.36 4.1166 0.900783 0
M  V30 24889 H 2304.08 2.96538 1.36869 0
M  V30 24890 H 2302.74 3.60507 -0.665619 0
M  V30 24891 H 2302.39 4.80023 1.5029 0
M  V30 24892 H 2302.09 5.87489 0.114116 0
M  V30 24893 H 2303.61 6.01754 1.03557 0
M  V30 24894 H 2305.03 5.60636 -1.19834 0
M  V30 24895 H 2303.42 5.6623 -1.98755 0
M  V30 24896 H 2304.49 4.27939 -2.28026 0
M  V30 24897 N 2305.84 0.60738 1.45426 0
M  V30 24898 C 2306.78 -0.111584 2.3053 0
M  V30 24899 C 2307.75 -0.860191 1.42091 0
M  V30 24900 O 2308.94 -0.845968 1.71021 0
M  V30 24901 C 2306.08 -1.10313 3.26994 0
M  V30 24902 C 2305.19 -0.355417 4.30535 0
M  V30 24903 C 2304.33 -1.33667 5.14108 0
M  V30 24904 C 2303.37 -0.576755 6.09377 0
M  V30 24905 N 2302.5 -1.50728 6.8573 0
M  V30 24906 H 2307.34 0.620145 2.91476 0
M  V30 24907 H 2304.88 0.317619 1.4363 0
M  V30 24908 H 2306.84 -1.69114 3.81388 0
M  V30 24909 H 2305.47 -1.80227 2.67802 0
M  V30 24910 H 2304.52 0.348089 3.78804 0
M  V30 24911 H 2305.83 0.23751 4.98234 0
M  V30 24912 H 2304.99 -1.99674 5.72901 0
M  V30 24913 H 2303.72 -1.96353 4.46427 0
M  V30 24914 H 2302.73 0.0969486 5.49715 0
M  V30 24915 H 2303.95 0.0450534 6.79085 0
M  V30 24916 H 2301.9 -2.12179 6.20738 0
M  V30 24917 H 2301.82 -0.967781 7.4978 0
M  V30 24918 H 2303.09 -2.15693 7.49064 0
M  V30 24919 N 2307.31 -1.53743 0.34653 0
M  V30 24920 C 2308.54 -2.05851 -0.253038 0
M  V30 24921 C 2308.96 -1.21965 -1.432 0
M  V30 24922 O 2308.32 -0.234104 -1.79782 0
M  V30 24923 C 2308.37 -3.54819 -0.64313 0
M  V30 24924 O 2307.47 -3.73765 -1.74279 0
M  V30 24925 H 2306.82 -0.662711 -0.0413466 0
M  V30 24926 H 2309.35 -1.98356 0.501609 0
M  V30 24927 H 2309.36 -3.97505 -0.919456 0
M  V30 24928 H 2308.03 -4.15323 0.219039 0
M  V30 24929 H 2306.61 -3.42981 -1.4635 0
M  V30 24930 N 2308.79 -0.0752207 -1.5742 0
M  V30 24931 C 2309.72 0.888286 -2.15944 0
M  V30 24932 C 2310.7 1.30804 -1.08739 0
M  V30 24933 O 2311.89 1.37848 -1.3679 0
M  V30 24934 C 2309.02 2.15465 -2.72382 0
M  V30 24935 C 2307.97 1.87418 -3.84784 0
M  V30 24936 C 2307.3 3.20714 -4.2784 0
M  V30 24937 C 2308.6 1.17675 -5.08871 0
M  V30 24938 H 2310.29 0.400747 -2.96706 0
M  V30 24939 H 2307.84 0.191317 -1.42723 0
M  V30 24940 H 2309.79 2.83289 -3.1197 0
M  V30 24941 H 2308.52 2.66467 -1.88846 0
M  V30 24942 H 2307.17 1.21998 -3.45705 0
M  V30 24943 H 2306.82 3.69564 -3.41221 0
M  V30 24944 H 2306.52 3.02738 -5.03611 0
M  V30 24945 H 2308.05 3.8973 -4.70046 0
M  V30 24946 H 2309.46 1.75574 -5.45753 0
M  V30 24947 H 2307.86 1.09946 -5.89942 0
M  V30 24948 H 2308.93 0.156368 -4.84648 0
M  V30 24949 N 2310.27 1.56347 0.198358 0
M  V30 24950 C 2311.2 1.90808 1.26984 0
M  V30 24951 C 2312.22 0.798444 1.41876 0
M  V30 24952 O 2313.4 1.07684 1.4236 0
M  V30 24953 C 2310.5 2.12201 2.64242 0
M  V30 24954 C 2309.68 3.43333 2.71001 0
M  V30 24955 C 2308.74 3.53877 3.89433 0
M  V30 24956 O 2307.76 4.26726 3.76688 0
M  V30 24957 N 2308.96 2.86724 5.04747 0
M  V30 24958 H 2311.73 2.83315 0.977383 0
M  V30 24959 H 2309.29 1.57175 0.388294 0
M  V30 24960 H 2311.28 2.16546 3.41892 0
M  V30 24961 H 2309.85 1.26209 2.8599 0
M  V30 24962 H 2309.07 3.50884 1.7965 0
M  V30 24963 H 2310.36 4.29673 2.72504 0
M  V30 24964 H 2309.76 2.27359 5.18 0
M  V30 24965 H 2308.32 2.96701 5.80355 0
M  V30 24966 N 2311.75 -0.465951 1.50554 0
M  V30 24967 C 2312.97 -1.24546 1.6584 0
M  V30 24968 C 2313.4 -1.84937 0.343518 0
M  V30 24969 O 2312.76 -1.67524 -0.69321 0
M  V30 24970 C 2312.8 -2.32619 2.75537 0
M  V30 24971 O 2311.91 -3.37394 2.37147 0
M  V30 24972 H 2311.25 -0.366184 0.5539 0
M  V30 24973 H 2313.78 -0.553892 1.9696 0
M  V30 24974 H 2313.79 -2.77852 2.98768 0
M  V30 24975 H 2312.46 -1.88037 3.70965 0
M  V30 24976 H 2311.04 -2.97837 2.24382 0
M  V30 24977 N 2313.23 -1.40218 -0.719481 0
M  V30 24978 C 2314.46 -1.41387 -1.50643 0
M  V30 24979 C 2314.86 -0.0108076 -1.89197 0
M  V30 24980 O 2314.21 0.97468 -1.5571 0
M  V30 24981 C 2314.27 -2.23727 -2.81401 0
M  V30 24982 C 2313.93 -3.72186 -2.65192 0
M  V30 24983 C 2314.93 -4.64911 -2.32709 0
M  V30 24984 C 2312.62 -4.15955 -2.81579 0
M  V30 24985 C 2314.61 -5.99391 -2.16816 0
M  V30 24986 C 2312.3 -5.50506 -2.65303 0
M  V30 24987 C 2313.29 -6.42039 -2.3297 0
M  V30 24988 O 2312.98 -7.7411 -2.16814 0
M  V30 24989 H 2312.71 -0.484326 -0.471598 0
M  V30 24990 H 2315.27 -1.84855 -0.895424 0
M  V30 24991 H 2313.5 -1.75032 -3.4482 0
M  V30 24992 H 2315.19 -2.16884 -3.43098 0
M  V30 24993 H 2315.95 -4.32392 -2.19686 0
M  V30 24994 H 2311.83 -3.45033 -3.05734 0
M  V30 24995 H 2315.38 -6.708 -1.91501 0
M  V30 24996 H 2311.27 -5.82612 -2.7791 0
M  V30 24997 H 2312.04 -7.85002 -2.31764 0
M  V30 24998 N 2314.7 0.951297 -1.25651 0
M  V30 24999 C 2315.95 1.69631 -1.10597 0
M  V30 25000 C 2316.28 1.91279 0.352482 0
M  V30 25001 O 2315.53 1.48382 1.27598 0
M  V30 25002 C 2315.83 3.08228 -1.80915 0
M  V30 25003 C 2315.5 3.06369 -3.30831 0
M  V30 25004 C 2314.16 3.05569 -3.71727 0
M  V30 25005 C 2316.51 2.99444 -4.26594 0
M  V30 25006 C 2313.84 2.95597 -5.06793 0
M  V30 25007 C 2316.19 2.91014 -5.61688 0
M  V30 25008 C 2314.86 2.88552 -6.01909 0
M  V30 25009 H 2314.13 0.620723 -0.404702 0
M  V30 25010 H 2316.77 1.11117 -1.55966 0
M  V30 25011 H 2315.08 3.70306 -1.27986 0
M  V30 25012 H 2316.78 3.64701 -1.66716 0
M  V30 25013 H 2313.37 3.07766 -2.98292 0
M  V30 25014 H 2317.55 2.99178 -3.95987 0
M  V30 25015 H 2312.81 2.92062 -5.37131 0
M  V30 25016 H 2316.98 2.84618 -6.35583 0
M  V30 25017 H 2314.61 2.80581 -7.06526 0
M  V30 25018 N 2316.18 1.07291 1.1544 0
M  V30 25019 C 2317.41 0.816861 1.90636 0
M  V30 25020 C 2317.83 -0.624052 1.77446 0
M  V30 25021 O 2317.19 -1.436 1.10674 0
M  V30 25022 C 2317.24 1.22912 3.39006 0
M  V30 25023 O 2316.34 0.374047 4.107 0
M  V30 25024 H 2315.68 0.297649 0.59355 0
M  V30 25025 H 2318.21 1.43136 1.46196 0
M  V30 25026 H 2318.22 1.20504 3.89798 0
M  V30 25027 H 2316.9 2.27862 3.47925 0
M  V30 25028 H 2315.48 0.460564 3.70045 0
M  V30 25029 N 2317.66 -1.32267 0.856927 0
M  V30 25030 C 2319.07 -1.79435 0.515743 0
M  V30 25031 C 2319.42 -1.7074 -0.966556 0
M  V30 25032 O 2318.55 -1.26734 -1.75407 0
M  V30 25033 C 2319.14 -3.25803 0.929392 0
M  V30 25034 C 2317.7 -3.70918 0.640071 0
M  V30 25035 C 2316.85 -2.53326 1.12789 0
M  V30 25036 H 2319.8 -1.19533 1.04391 0
M  V30 25037 H 2319.82 -3.79699 0.2467 0
M  V30 25038 H 2319.33 -3.321 2.00827 0
M  V30 25039 H 2317.43 -3.70134 -0.427986 0
M  V30 25040 H 2317.55 -4.63622 1.20796 0
M  V30 25041 H 2315.91 -2.48733 0.548076 0
M  V30 25042 H 2316.69 -2.62375 2.21391 0
M  V30 25043 N 2319.14 -0.615084 -1.45102 0
M  V30 25044 C 2320.37 -0.119806 -2.06553 0
M  V30 25045 C 2320.78 1.19896 -1.45844 0
M  V30 25046 O 2320.14 1.73193 -0.575355 0
M  V30 25047 C 2320.19 0.0183005 -3.61495 0
M  V30 25048 O 2319.91 -1.2483 -4.19939 0
M  V30 25049 C 2321.41 0.54416 -4.39947 0
M  V30 25050 H 2318.63 -0.0722856 -0.667095 0
M  V30 25051 H 2321.18 -0.844942 -1.86228 0
M  V30 25052 H 2319.33 0.693798 -3.81137 0
M  V30 25053 H 2319.74 -1.08279 -5.13202 0
M  V30 25054 H 2321.22 0.589856 -5.48839 0
M  V30 25055 H 2321.7 1.56798 -4.10257 0
M  V30 25056 H 2322.3 -0.0975451 -4.25188 0
M  V30 25057 N 2320.62 1.53557 -0.354678 0
M  V30 25058 C 2321.55 2.28321 0.489051 0
M  V30 25059 C 2322.53 1.30318 1.09322 0
M  V30 25060 O 2323.71 1.59175 1.11252 0
M  V30 25061 C 2320.84 3.06433 1.6345 0
M  V30 25062 C 2319.8 4.12033 1.15813 0
M  V30 25063 C 2319.12 4.78164 2.39297 0
M  V30 25064 C 2320.42 5.21698 0.250639 0
M  V30 25065 H 2322.12 2.99097 -0.134666 0
M  V30 25066 H 2319.66 1.43848 -0.0662079 0
M  V30 25067 H 2321.62 3.57479 2.2313 0
M  V30 25068 H 2320.34 2.33329 2.28529 0
M  V30 25069 H 2319 3.61917 0.584083 0
M  V30 25070 H 2318.65 4.01643 3.02807 0
M  V30 25071 H 2318.35 5.49517 2.08099 0
M  V30 25072 H 2319.87 5.31999 2.99682 0
M  V30 25073 H 2321.29 5.68312 0.754595 0
M  V30 25074 H 2319.68 6.00092 0.0300413 0
M  V30 25075 H 2320.75 4.79671 -0.710209 0
M  V30 25076 N 2322.1 0.083568 1.57378 0
M  V30 25077 C 2323.34 -0.582836 1.93931 0
M  V30 25078 C 2323.67 -1.68902 0.964484 0
M  V30 25079 O 2322.93 -1.95692 -0.017913 0
M  V30 25080 C 2323.22 -1.18834 3.37066 0
M  V30 25081 C 2322.89 -0.207114 4.50424 0
M  V30 25082 C 2321.55 0.0627961 4.81159 0
M  V30 25083 C 2323.9 0.463517 5.19135 0
M  V30 25084 C 2321.23 1.01023 5.77937 0
M  V30 25085 C 2323.58 1.39934 6.16929 0
M  V30 25086 C 2322.25 1.6776 6.46075 0
M  V30 25087 H 2321.52 -0.213275 0.709644 0
M  V30 25088 H 2324.17 0.15695 1.90856 0
M  V30 25089 H 2322.47 -2.00413 3.36663 0
M  V30 25090 H 2324.17 -1.71146 3.62643 0
M  V30 25091 H 2320.76 -0.427672 4.26461 0
M  V30 25092 H 2324.94 0.268121 4.95575 0
M  V30 25093 H 2320.2 1.23294 5.98839 0
M  V30 25094 H 2324.37 1.92488 6.69269 0
M  V30 25095 H 2322 2.41333 7.20876 0
M  V30 25096 N 2323.57 -1.5645 -0.190064 0
M  V30 25097 C 2324.99 -1.50147 -0.541104 0
M  V30 25098 C 2325.19 -0.784498 -1.85601 0
M  V30 25099 O 2324.25 -0.337095 -2.5024 0
M  V30 25100 C 2325.56 -2.94831 -0.591189 0
M  V30 25101 C 2327.11 -3.05531 -0.679678 0
M  V30 25102 C 2327.58 -4.51636 -0.760828 0
M  V30 25103 N 2329.07 -4.55808 -0.824222 0
M  V30 25104 C 2329.81 -5.66177 -0.907266 0
M  V30 25105 N 2329.3 -6.86224 -0.952301 0
M  V30 25106 N 2331.1 -5.54102 -0.944843 0
M  V30 25107 H 2323.25 -2.01476 0.672385 0
M  V30 25108 H 2325.51 -0.91708 0.240144 0
M  V30 25109 H 2325.22 -3.50367 0.305967 0
M  V30 25110 H 2325.09 -3.48459 -1.44416 0
M  V30 25111 H 2327.48 -2.50042 -1.56726 0
M  V30 25112 H 2327.56 -2.5502 0.199594 0
M  V30 25113 H 2327.2 -5.07752 0.122425 0
M  V30 25114 H 2327.13 -4.99885 -1.65597 0
M  V30 25115 H 2329.62 -3.69368 -0.798461 0
M  V30 25116 H 2329.94 -7.66088 -1.01632 0
M  V30 25117 H 2328.28 -6.88872 -0.920893 0
M  V30 25118 H 2331.47 -4.59238 -0.906532 0
M  V30 25119 H 2331.65 -6.40142 -1.0061 0
M  V30 25120 N 2325.05 0.45796 -1.50799 0
M  V30 25121 C 2326.3 1.21085 -1.62685 0
M  V30 25122 C 2326.63 1.91336 -0.332301 0
M  V30 25123 O 2325.91 1.82705 0.667011 0
M  V30 25124 C 2326.19 2.24417 -2.81619 0
M  V30 25125 C 2326.04 1.58384 -4.20992 0
M  V30 25126 C 2327.36 3.25605 -2.9609 0
M  V30 25127 H 2324.48 0.438853 -0.592095 0
M  V30 25128 H 2327.12 0.502828 -1.83226 0
M  V30 25129 H 2325.27 2.84801 -2.64236 0
M  V30 25130 H 2326.94 1.01496 -4.49996 0
M  V30 25131 H 2325.19 0.886629 -4.24643 0
M  V30 25132 H 2325.86 2.33538 -5.00164 0
M  V30 25133 H 2328.33 2.75256 -3.12047 0
M  V30 25134 H 2327.21 3.95221 -3.80909 0
M  V30 25135 H 2327.47 3.90503 -2.07267 0
M  V30 25136 N 2326.53 1.40598 0.712035 0
M  V30 25137 C 2327.78 1.38372 1.46752 0
M  V30 25138 C 2328.09 -0.00974952 1.95598 0
M  V30 25139 O 2329.3 -0.154629 2.71059 0
M  V30 25140 C 2327.75 2.43211 2.65285 0
M  V30 25141 C 2327.36 3.88386 2.23294 0
M  V30 25142 C 2329.11 2.50097 3.43004 0
M  V30 25143 C 2327.01 4.84814 3.38688 0
M  V30 25144 H 2325.94 0.514516 0.551171 0
M  V30 25145 H 2328.59 1.6635 0.774587 0
M  V30 25146 H 2326.98 2.08338 3.36766 0
M  V30 25147 H 2328.15 4.32422 1.5921 0
M  V30 25148 H 2326.46 3.85008 1.58611 0
M  V30 25149 H 2329.06 3.19327 4.28876 0
M  V30 25150 H 2329.4 1.5326 3.87062 0
M  V30 25151 H 2329.94 2.83979 2.78569 0
M  V30 25152 H 2326.68 5.82997 2.99658 0
M  V30 25153 H 2326.2 4.4544 4.01675 0
M  V30 25154 H 2327.88 5.04802 4.04703 0
M  V30 25155 N 2328.01 -0.94462 1.26153 0
M  V30 25156 C 2329.42 -1.21752 1.03192 0
M  V30 25157 C 2329.62 -2.00004 -0.245077 0
M  V30 25158 O 2328.68 -2.33738 -0.955135 0
M  V30 25159 C 2329.99 -1.98215 2.26123 0
M  V30 25160 C 2331.54 -2.1122 2.30988 0
M  V30 25161 C 2332.02 -2.91083 3.53602 0
M  V30 25162 N 2333.51 -2.98658 3.54059 0
M  V30 25163 C 2334.24 -3.60873 4.45599 0
M  V30 25164 N 2333.74 -4.24617 5.47424 0
M  V30 25165 N 2335.53 -3.58112 4.33258 0
M  V30 25166 H 2327.68 -0.4214 2.08178 0
M  V30 25167 H 2329.94 -0.248953 0.914728 0
M  V30 25168 H 2329.65 -1.48122 3.18987 0
M  V30 25169 H 2329.52 -2.98891 2.30095 0
M  V30 25170 H 2331.91 -2.60505 1.3864 0
M  V30 25171 H 2331.99 -1.09817 2.31028 0
M  V30 25172 H 2331.64 -2.42485 4.46277 0
M  V30 25173 H 2331.57 -3.92735 3.50809 0
M  V30 25174 H 2334.06 -2.53338 2.80408 0
M  V30 25175 H 2334.37 -4.69976 6.13467 0
M  V30 25176 H 2332.72 -4.23214 5.51285 0
M  V30 25177 H 2335.91 -3.07504 3.52929 0
M  V30 25178 H 2336.08 -4.0631 5.04793 0
M  V30 25179 N 2329.49 -1.07901 -1.1487 0
M  V30 25180 C 2330.42 -0.725926 -2.21929 0
M  V30 25181 C 2331.4 0.289241 -1.67623 0
M  V30 25182 O 2332.58 0.160753 -1.93534 0
M  V30 25183 C 2329.71 -0.128917 -3.47061 0
M  V30 25184 C 2328.67 -1.07186 -4.14361 0
M  V30 25185 C 2327.99 -0.337322 -5.33635 0
M  V30 25186 C 2329.29 -2.40783 -4.63488 0
M  V30 25187 H 2330.99 -1.62102 -2.51721 0
M  V30 25188 H 2328.53 -0.780859 -1.2099 0
M  V30 25189 H 2330.48 0.130073 -4.21199 0
M  V30 25190 H 2329.21 0.801285 -3.16618 0
M  V30 25191 H 2327.87 -1.31586 -3.42171 0
M  V30 25192 H 2327.52 0.596518 -4.9945 0
M  V30 25193 H 2327.22 -0.96589 -5.79607 0
M  V30 25194 H 2328.74 -0.086264 -6.10539 0
M  V30 25195 H 2330.15 -2.20678 -5.29126 0
M  V30 25196 H 2328.55 -2.99285 -5.20143 0
M  V30 25197 H 2329.62 -3.02683 -3.78829 0
M  V30 25198 N 2330.96 1.31811 -0.863929 0
M  V30 25199 C 2331.93 2.26952 -0.320252 0
M  V30 25200 C 2332.93 1.51976 0.525342 0
M  V30 25201 O 2334.12 1.70938 0.335517 0
M  V30 25202 C 2331.25 3.36501 0.54586 0
M  V30 25203 H 2332.44 2.76554 -1.16008 0
M  V30 25204 H 2329.99 1.4264 -0.63902 0
M  V30 25205 H 2330.73 2.92182 1.40713 0
M  V30 25206 H 2330.51 3.92055 -0.0595363 0
M  V30 25207 H 2332 4.07369 0.918724 0
M  V30 25208 N 2332.44 0.62277 1.44773 0
M  V30 25209 C 2333.86 0.287679 1.56986 0
M  V30 25210 C 2334.06 -1.20942 1.61169 0
M  V30 25211 O 2333.11 -1.99312 1.55019 0
M  V30 25212 C 2334.43 0.972238 2.84549 0
M  V30 25213 C 2335.97 0.949588 2.98248 0
M  V30 25214 C 2336.45 1.61445 4.28602 0
M  V30 25215 N 2337.94 1.58065 4.35396 0
M  V30 25216 C 2338.68 2.0641 5.3496 0
M  V30 25217 N 2338.17 2.62908 6.40977 0
M  V30 25218 N 2339.96 1.97088 5.26415 0
M  V30 25219 H 2332.12 1.59465 1.40302 0
M  V30 25220 H 2334.38 0.66889 0.671782 0
M  V30 25221 H 2334.08 2.02698 2.87413 0
M  V30 25222 H 2333.96 0.504837 3.73806 0
M  V30 25223 H 2336.35 -0.0966549 2.94942 0
M  V30 25224 H 2336.43 1.4554 2.10361 0
M  V30 25225 H 2336.07 2.6601 4.32667 0
M  V30 25226 H 2336 1.08354 5.15332 0
M  V30 25227 H 2338.49 1.16807 3.59395 0
M  V30 25228 H 2338.8 2.97552 7.1322 0
M  V30 25229 H 2337.15 2.66955 6.41685 0
M  V30 25230 H 2340.34 1.52677 4.42501 0
M  V30 25231 H 2340.51 2.35076 6.03857 0
M  V30 25232 N 2333.92 -1.53367 0.362817 0
M  V30 25233 C 2335.17 -2.00398 -0.228845 0
M  V30 25234 C 2335.48 -1.25424 -1.50094 0
M  V30 25235 O 2336.69 -1.63029 -2.17103 0
M  V30 25236 C 2335.14 -3.56969 -0.458354 0
M  V30 25237 C 2334.75 -4.40818 0.798955 0
M  V30 25238 C 2336.5 -4.12363 -1.00782 0
M  V30 25239 C 2334.4 -5.88937 0.539182 0
M  V30 25240 H 2333.33 -0.748694 -0.0892919 0
M  V30 25241 H 2335.98 -1.7708 0.48113 0
M  V30 25242 H 2334.37 -3.76429 -1.22952 0
M  V30 25243 H 2335.54 -4.33131 1.5727 0
M  V30 25244 H 2333.85 -3.96514 1.27144 0
M  V30 25245 H 2336.45 -5.20656 -1.21745 0
M  V30 25246 H 2336.79 -3.66784 -1.96914 0
M  V30 25247 H 2337.33 -3.96691 -0.296891 0
M  V30 25248 H 2334.07 -6.38787 1.47075 0
M  V30 25249 H 2333.59 -5.99479 -0.196116 0
M  V30 25250 H 2335.27 -6.46793 0.163655 0
M  V30 25251 N 2335.4 -0.091913 -1.57332 0
M  V30 25252 C 2336.65 0.571412 -1.93854 0
M  V30 25253 C 2336.97 1.68919 -0.974242 0
M  V30 25254 O 2336.24 1.95883 -0.0257598 0
M  V30 25255 H 2334.82 0.214069 -0.71567 0
M  V30 25256 H 2337.48 -0.154498 -1.94287 0
M  V30 25257 H 2336.58 0.983677 -2.96193 0
M  V30 25258 N 2336.88 1.56548 0.181765 0
M  V30 25259 C 2338.29 1.50432 0.533133 0
M  V30 25260 C 2338.49 0.79433 1.85183 0
M  V30 25261 O 2337.55 0.350361 2.50057 0
M  V30 25262 C 2338.86 2.95141 0.575545 0
M  V30 25263 C 2340.41 3.05887 0.663466 0
M  V30 25264 C 2340.88 4.52033 0.736866 0
M  V30 25265 N 2342.38 4.56239 0.800037 0
M  V30 25266 C 2343.11 5.6665 0.877227 0
M  V30 25267 N 2342.61 6.86719 0.915895 0
M  V30 25268 N 2344.4 5.54595 0.915444 0
M  V30 25269 H 2336.55 2.01117 -0.68306 0
M  V30 25270 H 2338.81 0.915793 -0.245004 0
M  V30 25271 H 2338.52 3.50199 -0.324543 0
M  V30 25272 H 2338.39 3.4922 1.42566 0
M  V30 25273 H 2340.78 2.50869 1.55398 0
M  V30 25274 H 2340.86 2.54911 -0.213115 0
M  V30 25275 H 2340.51 5.0768 -0.149351 0
M  V30 25276 H 2340.44 5.00756 1.62944 0
M  V30 25277 H 2342.93 3.69787 0.778861 0
M  V30 25278 H 2343.24 7.66616 0.975678 0
M  V30 25279 H 2341.58 6.89351 0.884348 0
M  V30 25280 H 2344.78 4.59712 0.882164 0
M  V30 25281 H 2344.95 6.40666 0.97214 0
M  V30 25282 N 2338.35 -0.449957 1.5104 0
M  V30 25283 C 2339.6 -1.19731 1.62319 0
M  V30 25284 C 2339.92 -1.92638 0.339135 0
M  V30 25285 O 2341.12 -2.69473 0.331116 0
M  V30 25286 C 2339.58 -2.17673 2.86612 0
M  V30 25287 C 2339.19 -1.50472 4.21974 0
M  V30 25288 C 2340.93 -2.92919 3.07244 0
M  V30 25289 C 2338.84 -2.46824 5.37431 0
M  V30 25290 H 2337.77 -0.450608 0.60454 0
M  V30 25291 H 2340.42 -0.465593 1.77495 0
M  V30 25292 H 2338.8 -2.94226 2.65042 0
M  V30 25293 H 2339.97 -0.795636 4.53879 0
M  V30 25294 H 2338.29 -0.874273 4.07118 0
M  V30 25295 H 2340.89 -3.65072 3.90675 0
M  V30 25296 H 2341.23 -3.53536 2.19813 0
M  V30 25297 H 2341.76 -2.23475 3.29095 0
M  V30 25298 H 2338.5 -1.90915 6.27082 0
M  V30 25299 H 2338.02 -3.15823 5.09918 0
M  V30 25300 H 2339.7 -3.08218 5.68868 0
M  V30 25301 N 2339.83 -1.40974 -0.704569 0
M  V30 25302 C 2340.76 -1.44876 -1.83121 0
M  V30 25303 C 2341.74 -0.308409 -1.67281 0
M  V30 25304 O 2342.93 -0.518589 -1.87148 0
M  V30 25305 C 2340.06 -1.32142 -3.21179 0
M  V30 25306 C 2339.01 -2.43894 -3.5171 0
M  V30 25307 C 2338.34 -2.16231 -4.89028 0
M  V30 25308 C 2339.64 -3.86238 -3.51593 0
M  V30 25309 H 2341.33 -2.39164 -1.80113 0
M  V30 25310 H 2338.88 -1.15116 -0.865124 0
M  V30 25311 H 2340.83 -1.33486 -3.99699 0
M  V30 25312 H 2339.56 -0.343336 -3.2479 0
M  V30 25313 H 2338.21 -2.41818 -2.75535 0
M  V30 25314 H 2337.86 -1.16787 -4.89254 0
M  V30 25315 H 2337.56 -2.91109 -5.10421 0
M  V30 25316 H 2339.09 -2.19275 -5.69869 0
M  V30 25317 H 2340.5 -3.90078 -4.20134 0
M  V30 25318 H 2338.9 -4.60725 -3.84515 0
M  V30 25319 H 2339.97 -4.15033 -2.50749 0
M  V30 25320 N 2341.31 0.937917 -1.26653 0
M  V30 25321 C 2342.73 1.21203 -1.03836 0
M  V30 25322 C 2342.93 2.00131 0.234467 0
M  V30 25323 O 2341.98 2.34241 0.942726 0
M  V30 25324 C 2343.3 1.97013 -2.27171 0
M  V30 25325 C 2344.84 2.09992 -2.32105 0
M  V30 25326 C 2345.32 2.89204 -3.55141 0
M  V30 25327 N 2346.81 2.96776 -3.55638 0
M  V30 25328 C 2347.54 3.58505 -4.47506 0
M  V30 25329 N 2347.04 4.21707 -5.49668 0
M  V30 25330 N 2348.83 3.55809 -4.35151 0
M  V30 25331 H 2340.98 0.410354 -2.08398 0
M  V30 25332 H 2343.25 0.244098 -0.916035 0
M  V30 25333 H 2342.95 1.46428 -3.19768 0
M  V30 25334 H 2342.83 2.97667 -2.31677 0
M  V30 25335 H 2345.21 2.59766 -1.4002 0
M  V30 25336 H 2345.3 1.0859 -2.31607 0
M  V30 25337 H 2344.94 2.40115 -4.47557 0
M  V30 25338 H 2344.87 3.90869 -3.52887 0
M  V30 25339 H 2347.36 2.51847 -2.81747 0
M  V30 25340 H 2347.67 4.66716 -6.15951 0
M  V30 25341 H 2346.02 4.20284 -5.53522 0
M  V30 25342 H 2349.21 3.05628 -3.54555 0
M  V30 25343 H 2349.38 4.03627 -5.06941 0
M  V30 25344 N 2342.79 1.08509 1.14296 0
M  V30 25345 C 2343.72 0.737685 2.21541 0
M  V30 25346 C 2344.7 -0.280347 1.67774 0
M  V30 25347 O 2345.88 -0.150487 1.93616 0
M  V30 25348 C 2343.01 0.14732 3.46987 0
M  V30 25349 C 2341.97 1.09382 4.13787 0
M  V30 25350 C 2341.29 0.365618 5.33449 0
M  V30 25351 C 2342.59 2.43238 4.62204 0
M  V30 25352 H 2344.29 1.63435 2.50858 0
M  V30 25353 H 2341.83 0.787264 1.20574 0
M  V30 25354 H 2343.79 -0.107734 4.21262 0
M  V30 25355 H 2342.51 -0.784483 3.17039 0
M  V30 25356 H 2341.17 1.33399 3.41468 0
M  V30 25357 H 2340.82 -0.570022 4.9976 0
M  V30 25358 H 2340.52 0.996614 5.79087 0
M  V30 25359 H 2342.04 0.118641 6.10485 0
M  V30 25360 H 2343.46 2.23481 5.27948 0
M  V30 25361 H 2341.85 3.0204 5.18548 0
M  V30 25362 H 2342.92 3.04687 3.77218 0
M  V30 25363 N 2344.27 -1.31351 0.870907 0
M  V30 25364 C 2345.52 -1.95943 0.478443 0
M  V30 25365 C 2345.83 -1.69598 -0.974463 0
M  V30 25366 O 2347.03 -2.2806 -1.47312 0
M  V30 25367 C 2345.49 -3.50789 0.804671 0
M  V30 25368 C 2345.1 -3.85973 2.2744 0
M  V30 25369 C 2346.84 -4.21769 0.480722 0
M  V30 25370 C 2344.75 -5.33934 2.54299 0
M  V30 25371 H 2343.68 -0.733366 0.175188 0
M  V30 25372 H 2346.33 -1.49508 1.06394 0
M  V30 25373 H 2344.71 -3.95722 0.148417 0
M  V30 25374 H 2345.89 -3.51997 2.9738 0
M  V30 25375 H 2344.2 -3.2806 2.56448 0
M  V30 25376 H 2346.8 -5.30628 0.658612 0
M  V30 25377 H 2347.14 -4.12255 -0.578907 0
M  V30 25378 H 2347.67 -3.82474 1.09356 0
M  V30 25379 H 2344.41 -5.48485 3.58949 0
M  V30 25380 H 2343.93 -5.69259 1.88955 0
M  V30 25381 H 2345.61 -6.01208 2.39077 0
M  V30 25382 N 2345.74 -0.630439 -1.44441 0
M  V30 25383 C 2347.16 -0.296001 -1.56831 0
M  V30 25384 C 2347.36 1.20085 -1.61808 0
M  V30 25385 O 2346.42 1.98487 -1.56074 0
M  V30 25386 C 2347.73 -0.987314 -2.84029 0
M  V30 25387 C 2349.28 -0.965392 -2.9774 0
M  V30 25388 C 2349.75 -1.63716 -4.2774 0
M  V30 25389 N 2351.24 -1.60371 -4.34552 0
M  V30 25390 C 2351.98 -2.09244 -5.33858 0
M  V30 25391 N 2351.47 -2.66304 -6.39573 0
M  V30 25392 N 2353.27 -1.99877 -5.25363 0
M  V30 25393 H 2345.42 -1.60207 -1.39454 0
M  V30 25394 H 2347.68 -0.672443 -0.668225 0
M  V30 25395 H 2347.39 -2.0422 -2.86334 0
M  V30 25396 H 2347.26 -0.524654 -3.73533 0
M  V30 25397 H 2349.65 0.0810121 -2.94989 0
M  V30 25398 H 2349.73 -1.46654 -2.09586 0
M  V30 25399 H 2349.37 -2.68301 -4.31251 0
M  V30 25400 H 2349.3 -1.11085 -5.1475 0
M  V30 25401 H 2351.79 -1.18711 -3.5877 0
M  V30 25402 H 2352.11 -3.0133 -7.11632 0
M  V30 25403 H 2350.45 -2.70354 -6.40261 0
M  V30 25404 H 2353.64 -1.55021 -4.41686 0
M  V30 25405 H 2353.82 -2.38275 -6.02602 0
M  V30 25406 N 2347.22 1.53172 -0.370945 0
M  V30 25407 C 2348.19 2.24521 0.460739 0
M  V30 25408 C 2349.19 1.25498 1.00534 0
M  V30 25409 O 2350.38 1.49734 0.89024 0
M  V30 25410 C 2347.51 2.98611 1.64452 0
M  V30 25411 H 2348.7 2.99453 -0.163665 0
M  V30 25412 H 2346.25 1.55817 -0.122726 0
M  V30 25413 H 2346.99 2.27934 2.30687 0
M  V30 25414 H 2346.77 3.71272 1.26092 0
M  V30 25415 H 2348.26 3.52834 2.23378 0
M  V30 25416 N 2348.7 0.100255 1.57281 0
M  V30 25417 C 2349.66 -0.842361 2.13159 0
M  V30 25418 C 2350.66 -1.20736 1.06205 0
M  V30 25419 O 2351.85 -1.13595 1.32068 0
M  V30 25420 C 2348.99 -2.13651 2.65643 0
M  V30 25421 H 2350.18 -0.357061 2.97767 0
M  V30 25422 H 2347.73 -0.148796 1.5559 0
M  V30 25423 H 2348.47 -2.66654 1.8457 0
M  V30 25424 H 2348.25 -1.88445 3.43847 0
M  V30 25425 H 2349.74 -2.81071 3.08851 0
M  V30 25426 N 2350.18 -1.56643 -0.17346 0
M  V30 25427 C 2351.13 -1.96244 -1.21479 0
M  V30 25428 C 2352.1 -0.826052 -1.44103 0
M  V30 25429 O 2353.28 -1.086 -1.56878 0
M  V30 25430 C 2350.42 -2.32572 -2.5496 0
M  V30 25431 C 2349.53 -3.59378 -2.39733 0
M  V30 25432 C 2348.67 -3.84928 -3.66066 0
M  V30 25433 C 2347.71 -5.05089 -3.45763 0
M  V30 25434 N 2346.85 -5.26783 -4.6416 0
M  V30 25435 H 2351.69 -2.85015 -0.870073 0
M  V30 25436 H 2349.22 -1.4103 -0.41822 0
M  V30 25437 H 2351.18 -2.51656 -3.32754 0
M  V30 25438 H 2349.81 -1.46913 -2.8743 0
M  V30 25439 H 2348.86 -3.4822 -1.53125 0
M  V30 25440 H 2350.17 -4.4733 -2.20675 0
M  V30 25441 H 2349.33 -4.04368 -4.52296 0
M  V30 25442 H 2348.07 -2.95347 -3.881 0
M  V30 25443 H 2347.07 -4.85549 -2.57919 0
M  V30 25444 H 2348.3 -5.96198 -3.25153 0
M  V30 25445 H 2346.24 -4.40153 -4.86417 0
M  V30 25446 H 2346.16 -6.08954 -4.48008 0
M  V30 25447 H 2347.43 -5.507 -5.51679 0
M  V30 25448 N 2351.66 0.44194 -1.51277 0
M  V30 25449 C 2352.91 1.1894 -1.63394 0
M  V30 25450 C 2353.23 1.9183 -0.350193 0
M  V30 25451 O 2352.5 1.85366 0.633752 0
M  V30 25452 H 2351.08 0.442039 -0.602172 0
M  V30 25453 H 2353.74 0.507132 -1.88187 0
M  V30 25454 H 2352.83 1.92149 -2.45937 0
M  V30 25455 N 2353.14 1.41345 0.697083 0
M  V30 25456 C 2354.38 1.39921 1.45276 0
M  V30 25457 C 2354.7 0.0109968 1.95597 0
M  V30 25458 O 2355.9 -0.125871 2.71208 0
M  V30 25459 C 2354.36 2.46011 2.62691 0
M  V30 25460 C 2353.97 3.90732 2.19162 0
M  V30 25461 C 2355.71 2.53721 3.40332 0
M  V30 25462 C 2353.62 4.88379 3.33526 0
M  V30 25463 H 2352.55 0.520333 0.545683 0
M  V30 25464 H 2355.2 1.67162 0.7569 0
M  V30 25465 H 2353.58 2.11898 3.34537 0
M  V30 25466 H 2354.76 4.34086 1.54615 0
M  V30 25467 H 2353.07 3.86669 1.54519 0
M  V30 25468 H 2355.67 3.23858 4.25465 0
M  V30 25469 H 2356.01 1.57356 3.85415 0
M  V30 25470 H 2356.54 2.86918 2.75541 0
M  V30 25471 H 2353.28 5.86143 2.93457 0
M  V30 25472 H 2352.8 4.49675 3.96928 0
M  V30 25473 H 2354.48 5.09066 3.99326 0
M  V30 25474 N 2354.61 -0.931187 1.27148 0
M  V30 25475 C 2356.03 -1.20651 1.04477 0
M  V30 25476 C 2356.23 -2.00253 -0.22385 0
M  V30 25477 O 2355.29 -2.34738 -0.93029 0
M  V30 25478 C 2356.6 -1.95805 2.28212 0
M  V30 25479 C 2358.15 -2.08758 2.33215 0
M  V30 25480 C 2358.62 -2.87316 3.5667 0
M  V30 25481 N 2360.11 -2.94886 3.57206 0
M  V30 25482 C 2360.85 -3.56126 4.49401 0
M  V30 25483 N 2360.34 -4.18786 5.51896 0
M  V30 25484 N 2362.14 -3.53496 4.37032 0
M  V30 25485 H 2354.29 -0.399296 2.08613 0
M  V30 25486 H 2356.55 -0.239237 0.917317 0
M  V30 25487 H 2356.26 -1.44731 3.2054 0
M  V30 25488 H 2356.13 -2.96434 2.33253 0
M  V30 25489 H 2358.52 -2.5902 1.41395 0
M  V30 25490 H 2358.6 -1.0736 2.3218 0
M  V30 25491 H 2358.24 -2.37738 4.48824 0
M  V30 25492 H 2358.17 -3.88992 3.54955 0
M  V30 25493 H 2360.66 -2.50349 2.83079 0
M  V30 25494 H 2360.98 -4.63443 6.18418 0
M  V30 25495 H 2359.32 -4.17343 5.55743 0
M  V30 25496 H 2362.51 -3.03743 3.56171 0
M  V30 25497 H 2362.69 -4.00933 5.09074 0
M  V30 25498 N 2356.09 -1.09114 -1.13719 0
M  V30 25499 C 2357.32 -0.846932 -1.88771 0
M  V30 25500 C 2357.73 0.60154 -1.78961 0
M  V30 25501 O 2357.09 1.41386 -1.15397 0
M  V30 25502 C 2357.14 -1.26919 -3.38488 0
M  V30 25503 O 2356.86 -2.66085 -3.48038 0
M  V30 25504 C 2358.36 -1.0569 -4.30517 0
M  V30 25505 H 2355.58 -0.304924 -0.597714 0
M  V30 25506 H 2358.13 -1.45229 -1.43975 0
M  V30 25507 H 2356.28 -0.70779 -3.80879 0
M  V30 25508 H 2356.7 -2.83803 -4.41085 0
M  V30 25509 H 2358.17 -1.40166 -5.33908 0
M  V30 25510 H 2358.65 0.00555696 -4.392 0
M  V30 25511 H 2359.25 -1.60409 -3.9389 0
M  V30 25512 N 2357.57 1.30887 -0.877861 0
M  V30 25513 C 2358.5 2.3078 -0.355381 0
M  V30 25514 C 2359.48 1.60688 0.557965 0
M  V30 25515 O 2360.67 1.88344 0.473322 0
M  V30 25516 C 2357.8 3.44538 0.437161 0
M  V30 25517 C 2356.75 4.26276 -0.38379 0
M  V30 25518 C 2356.08 5.32018 0.534921 0
M  V30 25519 C 2357.38 4.96473 -1.6221 0
M  V30 25520 H 2359.07 2.7473 -1.19012 0
M  V30 25521 H 2356.62 1.32077 -0.573722 0
M  V30 25522 H 2358.57 4.13478 0.813261 0
M  V30 25523 H 2357.29 2.99374 1.30548 0
M  V30 25524 H 2355.95 3.59014 -0.741938 0
M  V30 25525 H 2355.6 4.83103 1.40074 0
M  V30 25526 H 2355.3 5.87599 -0.0105244 0
M  V30 25527 H 2356.82 6.03816 0.907693 0
M  V30 25528 H 2358.24 5.57968 -1.31699 0
M  V30 25529 H 2356.63 5.61887 -2.10721 0
M  V30 25530 H 2357.7 4.23006 -2.37052 0
M  V30 25531 N 2359.05 0.638091 1.44105 0
M  V30 25532 C 2359.98 -0.0493876 2.33448 0
M  V30 25533 C 2360.96 -0.827646 1.48607 0
M  V30 25534 O 2362.14 -0.792141 1.7731 0
M  V30 25535 C 2359.27 -1.02685 3.31773 0
M  V30 25536 C 2358.23 -0.359748 4.26485 0
M  V30 25537 C 2357.55 -1.4476 5.14732 0
M  V30 25538 C 2358.85 0.738387 5.17054 0
M  V30 25539 H 2360.55 0.696688 2.91181 0
M  V30 25540 H 2358.09 0.336481 1.40014 0
M  V30 25541 H 2360.05 -1.51659 3.93164 0
M  V30 25542 H 2358.77 -1.8039 2.72263 0
M  V30 25543 H 2357.43 0.109404 3.66437 0
M  V30 25544 H 2357.08 -2.2157 4.5157 0
M  V30 25545 H 2356.78 -1.00658 5.78914 0
M  V30 25546 H 2358.3 -1.93901 5.78995 0
M  V30 25547 H 2359.72 0.331454 5.72341 0
M  V30 25548 H 2358.11 1.10296 5.89877 0
M  V30 25549 H 2359.18 1.60266 4.57649 0
M  V30 25550 N 2360.53 -1.52973 0.379063 0
M  V30 25551 C 2361.77 -2.01446 -0.206386 0
M  V30 25552 C 2362.1 -1.2659 -1.47666 0
M  V30 25553 O 2361.36 -0.351709 -1.92514 0
M  V30 25554 C 2361.65 -3.53435 -0.530898 0
M  V30 25555 C 2361.32 -4.46239 0.646625 0
M  V30 25556 C 2359.98 -4.71328 0.969687 0
M  V30 25557 C 2362.33 -5.0106 1.43487 0
M  V30 25558 C 2359.66 -5.48488 2.08273 0
M  V30 25559 C 2362.01 -5.79436 2.53844 0
M  V30 25560 C 2360.68 -6.02807 2.8667 0
M  V30 25561 H 2359.95 -0.737141 -0.075522 0
M  V30 25562 H 2362.6 -1.84465 0.514303 0
M  V30 25563 H 2360.9 -3.68435 -1.33278 0
M  V30 25564 H 2362.6 -3.88425 -0.996349 0
M  V30 25565 H 2359.19 -4.26869 0.384809 0
M  V30 25566 H 2363.37 -4.81611 1.19853 0
M  V30 25567 H 2358.63 -5.64812 2.34088 0
M  V30 25568 H 2362.8 -6.20919 3.1533 0
M  V30 25569 H 2360.43 -6.6238 3.73037 0
M  V30 25570 N 2362 -0.108595 -1.57225 0
M  V30 25571 C 2362.97 0.831044 -2.13603 0
M  V30 25572 C 2363.97 1.20171 -1.06843 0
M  V30 25573 O 2365.16 1.12893 -1.32668 0
M  V30 25574 C 2362.29 2.12239 -2.66772 0
M  V30 25575 H 2363.48 0.341265 -2.97952 0
M  V30 25576 H 2361.03 0.140542 -1.55667 0
M  V30 25577 H 2361.77 2.65671 -1.85982 0
M  V30 25578 H 2361.55 1.86619 -3.44842 0
M  V30 25579 H 2363.04 2.79429 -3.10337 0
M  V30 25580 N 2363.48 1.56732 0.16515 0
M  V30 25581 C 2364.41 1.99916 1.20648 0
M  V30 25582 C 2365.39 0.875731 1.45825 0
M  V30 25583 O 2366.58 1.14226 1.57055 0
M  V30 25584 C 2363.71 2.36431 2.54396 0
M  V30 25585 C 2362.66 3.51791 2.43776 0
M  V30 25586 C 2361.99 3.74067 3.82071 0
M  V30 25587 C 2363.29 4.85045 1.93724 0
M  V30 25588 H 2364.98 2.87155 0.847483 0
M  V30 25589 H 2362.53 1.38151 0.406226 0
M  V30 25590 H 2364.48 2.6524 3.27454 0
M  V30 25591 H 2363.2 1.46108 2.92096 0
M  V30 25592 H 2361.86 3.2312 1.73173 0
M  V30 25593 H 2361.51 2.81024 4.17174 0
M  V30 25594 H 2361.21 4.51691 3.75832 0
M  V30 25595 H 2362.74 4.05282 4.56705 0
M  V30 25596 H 2364.15 5.12689 2.5656 0
M  V30 25597 H 2362.55 5.66348 1.98418 0
M  V30 25598 H 2363.62 4.76627 0.891879 0
M  V30 25599 N 2364.96 -0.433911 1.51509 0
M  V30 25600 C 2365.89 -1.54701 1.67758 0
M  V30 25601 C 2366.87 -1.53886 0.525154 0
M  V30 25602 O 2368.05 -1.72962 0.749423 0
M  V30 25603 C 2365.18 -2.93277 1.69429 0
M  V30 25604 C 2364.23 -3.12103 2.90678 0
M  V30 25605 S 2365.06 -2.88038 4.51436 0
M  V30 25606 C 2366.22 -4.28889 4.55856 0
M  V30 25607 H 2366.45 -1.40684 2.61907 0
M  V30 25608 H 2363.98 -0.623835 1.41236 0
M  V30 25609 H 2365.94 -3.73153 1.71077 0
M  V30 25610 H 2364.6 -3.04654 0.764517 0
M  V30 25611 H 2363.8 -4.13429 2.88258 0
M  V30 25612 H 2363.4 -2.40057 2.8679 0
M  V30 25613 H 2365.69 -5.22144 4.31708 0
M  V30 25614 H 2366.63 -4.36342 5.57684 0
M  V30 25615 H 2367.04 -4.12704 3.85144 0
M  V30 25616 N 2366.44 -1.41713 -0.689577 0
M  V30 25617 C 2367.37 -1.38453 -1.814 0
M  V30 25618 C 2368.35 -0.250902 -1.60653 0
M  V30 25619 O 2369.53 -0.438772 -1.83322 0
M  V30 25620 C 2366.66 -1.16116 -3.18174 0
M  V30 25621 C 2365.71 -2.32277 -3.57701 0
M  V30 25622 S 2366.54 -3.94774 -3.6182 0
M  V30 25623 C 2367.7 -3.74751 -5.01311 0
M  V30 25624 H 2367.93 -2.33607 -1.83889 0
M  V30 25625 H 2365.46 -1.28308 -0.858856 0
M  V30 25626 H 2367.42 -1.03914 -3.9713 0
M  V30 25627 H 2366.08 -0.225723 -3.13288 0
M  V30 25628 H 2365.27 -2.12357 -4.57078 0
M  V30 25629 H 2364.88 -2.40916 -2.86069 0
M  V30 25630 H 2367.17 -3.34827 -5.8898 0
M  V30 25631 H 2368.11 -4.73752 -5.26274 0
M  V30 25632 H 2368.52 -3.07906 -4.73132 0
M  V30 25633 N 2367.92 0.924431 -1.2764 0
M  V30 25634 C 2369.14 1.71177 -1.17104 0
M  V30 25635 C 2369.57 1.8618 0.268101 0
M  V30 25636 O 2368.92 1.3642 1.19413 0
M  V30 25637 C 2368.97 3.08736 -1.86319 0
M  V30 25638 O 2368.08 3.9565 -1.16338 0
M  V30 25639 H 2367.42 0.524562 -0.4071 0
M  V30 25640 H 2369.95 1.15663 -1.68769 0
M  V30 25641 H 2369.96 3.59031 -1.93806 0
M  V30 25642 H 2368.63 2.97133 -2.91006 0
M  V30 25643 H 2367.21 3.54089 -1.16941 0
M  V30 25644 N 2369.39 1.09715 1.13139 0
M  V30 25645 C 2370.32 0.761141 2.20746 0
M  V30 25646 C 2371.31 -0.262537 1.68062 0
M  V30 25647 O 2372.49 -0.129943 1.93765 0
M  V30 25648 C 2369.62 0.184115 3.46812 0
M  V30 25649 C 2368.57 1.13764 4.12604 0
M  V30 25650 C 2367.9 0.422176 5.33031 0
M  V30 25651 C 2369.2 2.48127 4.59598 0
M  V30 25652 H 2370.89 1.66086 2.4911 0
M  V30 25653 H 2368.44 0.800008 1.19732 0
M  V30 25654 H 2370.39 -0.0630474 4.21353 0
M  V30 25655 H 2369.12 -0.750812 3.17853 0
M  V30 25656 H 2367.78 1.37013 3.40034 0
M  V30 25657 H 2367.42 -0.516984 5.00336 0
M  V30 25658 H 2367.12 1.05798 5.77997 0
M  V30 25659 H 2368.65 0.183385 6.10325 0
M  V30 25660 H 2370.06 2.29068 5.25548 0
M  V30 25661 H 2368.46 3.07523 5.15315 0
M  V30 25662 H 2369.53 3.08671 3.73965 0
M  V30 25663 N 2370.87 -1.30419 0.88479 0
M  V30 25664 C 2372.28 -1.78301 0.553688 0
M  V30 25665 C 2372.63 -1.72752 -0.930122 0
M  V30 25666 O 2371.76 -1.30426 -1.72679 0
M  V30 25667 C 2372.35 -3.23759 0.998291 0
M  V30 25668 C 2370.91 -3.69477 0.718605 0
M  V30 25669 C 2370.06 -2.50876 1.18137 0
M  V30 25670 H 2373.01 -1.17292 1.06903 0
M  V30 25671 H 2373.03 -3.79091 0.327184 0
M  V30 25672 H 2372.54 -3.27765 2.07826 0
M  V30 25673 H 2370.65 -3.70958 -0.349378 0
M  V30 25674 H 2370.76 -4.60955 1.30603 0
M  V30 25675 H 2369.12 -2.47515 0.600713 0
M  V30 25676 H 2369.91 -2.5762 2.26907 0
M  V30 25677 N 2372.35 -0.645724 -1.43764 0
M  V30 25678 C 2373.31 0.0409085 -2.29163 0
M  V30 25679 C 2374.31 0.757971 -1.41815 0
M  V30 25680 O 2375.5 0.600353 -1.63528 0
M  V30 25681 C 2372.64 1.06863 -3.23718 0
M  V30 25682 H 2373.83 -0.710396 -2.91365 0
M  V30 25683 H 2371.38 -0.406574 -1.50919 0
M  V30 25684 H 2372.12 1.84943 -2.66396 0
M  V30 25685 H 2371.9 0.558209 -3.88106 0
M  V30 25686 H 2373.39 1.54838 -3.87834 0
M  V30 25687 N 2373.83 1.5277 -0.38717 0
M  V30 25688 C 2374.76 2.29307 0.440511 0
M  V30 25689 C 2375.74 1.32607 1.06533 0
M  V30 25690 O 2376.92 1.61499 1.0785 0
M  V30 25691 C 2374.05 3.09831 1.56914 0
M  V30 25692 C 2373.01 4.14397 1.07047 0
M  V30 25693 C 2372.33 4.83133 2.291 0
M  V30 25694 C 2373.63 5.22113 0.139923 0
M  V30 25695 H 2375.33 2.98744 -0.198079 0
M  V30 25696 H 2372.87 1.43675 -0.0967052 0
M  V30 25697 H 2374.83 3.62131 2.15497 0
M  V30 25698 H 2373.55 2.38123 2.23528 0
M  V30 25699 H 2372.21 3.63075 0.507183 0
M  V30 25700 H 2371.86 4.07975 2.94219 0
M  V30 25701 H 2371.56 5.53807 1.96396 0
M  V30 25702 H 2373.08 5.38236 2.8833 0
M  V30 25703 H 2374.5 5.69785 0.633878 0
M  V30 25704 H 2372.89 6.00021 -0.097254 0
M  V30 25705 H 2373.96 4.78056 -0.811795 0
M  V30 25706 N 2375.31 0.116931 1.57166 0
M  V30 25707 C 2376.55 -0.541569 1.95124 0
M  V30 25708 C 2376.88 -1.66818 1.00009 0
M  V30 25709 O 2376.14 -1.95686 0.0236002 0
M  V30 25710 C 2376.44 -1.11658 3.3951 0
M  V30 25711 C 2376.1 -0.111526 4.50762 0
M  V30 25712 C 2374.76 0.164843 4.80918 0
M  V30 25713 C 2377.12 0.573529 5.18035 0
M  V30 25714 C 2374.44 1.13259 5.75664 0
M  V30 25715 C 2376.8 1.52989 6.13822 0
M  V30 25716 C 2375.46 1.81427 6.42371 0
M  V30 25717 H 2374.73 -0.198174 0.714008 0
M  V30 25718 H 2377.38 0.197398 1.9048 0
M  V30 25719 H 2375.68 -1.93226 3.40838 0
M  V30 25720 H 2377.38 -1.63416 3.66192 0
M  V30 25721 H 2373.97 -0.337117 4.27272 0
M  V30 25722 H 2378.15 0.373179 4.94895 0
M  V30 25723 H 2373.41 1.35968 5.96089 0
M  V30 25724 H 2377.58 2.06641 6.65036 0
M  V30 25725 H 2375.21 2.5657 7.15595 0
M  V30 25726 N 2376.78 -1.56818 -0.156836 0
M  V30 25727 C 2377.73 -1.98457 -1.21315 0
M  V30 25728 C 2378.73 -0.87547 -1.45024 0
M  V30 25729 O 2379.93 -1.06063 -1.45433 0
M  V30 25730 H 2376.31 -0.631612 -0.408131 0
M  V30 25731 H 2378.28 -2.86474 -0.835194 0
M  V30 25732 C 2377.03 -2.3729 -2.54144 0
M  V30 25733 H 2376.35 -3.2218 -2.36727 0
M  V30 25734 H 2377.79 -2.70257 -3.26707 0
M  V30 25735 C 2376.25 -1.22179 -3.13965 0
M  V30 25736 O 2376.78 -0.517219 -3.98356 0
M  V30 25737 N 2374.99 -0.988584 -2.73268 0
M  V30 25738 H 2374.53 -1.5633 -2.04741 0
M  V30 25739 H 2374.49 -0.220264 -3.13627 0
M  V30 25740 N 2378.26 0.425871 -1.51737 0
M  V30 25741 C 2379.51 1.17133 -1.64203 0
M  V30 25742 C 2379.82 1.92074 -0.369739 0
M  V30 25743 O 2381.03 2.68912 -0.373945 0
M  V30 25744 C 2379.49 2.13086 -2.90039 0
M  V30 25745 C 2379.09 1.4374 -4.24315 0
M  V30 25746 C 2380.84 2.87994 -3.11865 0
M  V30 25747 C 2378.75 2.38243 -5.41289 0
M  V30 25748 H 2377.68 0.440933 -0.611632 0
M  V30 25749 H 2380.33 0.437296 -1.78213 0
M  V30 25750 H 2378.71 2.89972 -2.69689 0
M  V30 25751 H 2379.88 0.723328 -4.55087 0
M  V30 25752 H 2378.2 0.809393 -4.08458 0
M  V30 25753 H 2380.79 3.5881 -3.96433 0
M  V30 25754 H 2381.14 3.49995 -2.2541 0
M  V30 25755 H 2381.67 2.18212 -3.32609 0
M  V30 25756 H 2378.41 1.80914 -6.3004 0
M  V30 25757 H 2377.93 3.07671 -5.14878 0
M  V30 25758 H 2379.61 2.99129 -5.73699 0
M  V30 25759 N 2379.74 1.42077 0.682052 0
M  V30 25760 C 2380.99 1.41878 1.43927 0
M  V30 25761 C 2381.31 0.0335942 1.94971 0
M  V30 25762 O 2380.58 -0.926743 1.72593 0
M  V30 25763 H 2379.16 0.522276 0.534076 0
M  V30 25764 H 2381.82 1.77435 0.806396 0
M  V30 25765 H 2380.92 2.11418 2.29584 0
M  V30 25766 N 2381.22 -0.917649 1.28129 0
M  V30 25767 C 2382.15 -2.03639 1.14251 0
M  V30 25768 C 2383.13 -1.7005 0.0413047 0
M  V30 25769 O 2384.32 -1.92977 0.217599 0
M  V30 25770 C 2381.45 -3.37973 0.799491 0
M  V30 25771 C 2380.4 -3.8571 1.85504 0
M  V30 25772 C 2379.73 -5.16964 1.36575 0
M  V30 25773 C 2381.03 -4.07997 3.26092 0
M  V30 25774 H 2382.72 -2.15508 2.07839 0
M  V30 25775 H 2380.27 -1.03551 1.00066 0
M  V30 25776 H 2382.22 -4.15726 0.689187 0
M  V30 25777 H 2380.94 -3.26146 -0.172088 0
M  V30 25778 H 2379.6 -3.10158 1.95442 0
M  V30 25779 H 2379.25 -5.01537 0.383341 0
M  V30 25780 H 2378.95 -5.49874 2.07153 0
M  V30 25781 H 2380.47 -5.97277 1.26859 0
M  V30 25782 H 2381.89 -4.76287 3.19098 0
M  V30 25783 H 2380.28 -4.52231 3.9447 0
M  V30 25784 H 2381.35 -3.12941 3.70399 0
M  V30 25785 N 2382.7 -1.10314 -1.12555 0
M  V30 25786 C 2383.63 -0.772837 -2.20339 0
M  V30 25787 C 2384.61 0.25362 -1.68199 0
M  V30 25788 O 2385.79 0.119665 -1.93831 0
M  V30 25789 C 2382.92 -0.202504 -3.46709 0
M  V30 25790 C 2381.88 -1.15951 -4.11994 0
M  V30 25791 C 2381.2 -0.450438 -5.32799 0
M  V30 25792 C 2382.5 -2.5056 -4.58276 0
M  V30 25793 H 2384.2 -1.67405 -2.48226 0
M  V30 25794 H 2381.74 -0.806347 -1.19307 0
M  V30 25795 H 2383.7 0.0407012 -4.2138 0
M  V30 25796 H 2382.42 0.733945 -3.18246 0
M  V30 25797 H 2381.08 -1.38814 -3.39302 0
M  V30 25798 H 2380.73 0.490443 -5.00603 0
M  V30 25799 H 2380.43 -1.08862 -5.77428 0
M  V30 25800 H 2381.95 -0.215749 -6.10219 0
M  V30 25801 H 2383.37 -2.31852 -5.24326 0
M  V30 25802 H 2381.76 -3.10251 -5.13677 0
M  V30 25803 H 2382.83 -3.1065 -3.72323 0
M  V30 25804 N 2384.18 1.29948 -0.891694 0
M  V30 25805 C 2385.11 2.3039 -0.379838 0
M  V30 25806 C 2386.09 1.61271 0.540891 0
M  V30 25807 O 2387.27 1.88835 0.453319 0
M  V30 25808 C 2384.4 3.44982 0.400593 0
M  V30 25809 C 2383.36 4.25845 -0.42898 0
M  V30 25810 C 2382.68 5.32555 0.478463 0
M  V30 25811 C 2383.98 4.94724 -1.67467 0
M  V30 25812 H 2385.68 2.73452 -1.21919 0
M  V30 25813 H 2383.22 1.31461 -0.587698 0
M  V30 25814 H 2385.17 4.14317 0.769361 0
M  V30 25815 H 2383.9 3.00742 1.27365 0
M  V30 25816 H 2382.56 3.58207 -0.779974 0
M  V30 25817 H 2382.21 4.84561 1.34943 0
M  V30 25818 H 2381.91 5.87555 -0.0728465 0
M  V30 25819 H 2383.43 6.04744 0.843599 0
M  V30 25820 H 2384.84 5.5654 -1.3761 0
M  V30 25821 H 2383.24 5.5962 -2.16668 0
M  V30 25822 H 2384.31 4.20468 -2.41525 0
M  V30 25823 N 2385.65 0.653339 1.4342 0
M  V30 25824 C 2386.9 0.16678 2.01812 0
M  V30 25825 C 2387.23 -1.21929 1.51538 0
M  V30 25826 O 2386.48 -1.82791 0.699007 0
M  V30 25827 C 2386.78 0.126686 3.57175 0
M  V30 25828 C 2386.45 1.45451 4.26796 0
M  V30 25829 C 2385.11 1.81813 4.45531 0
M  V30 25830 C 2387.46 2.32997 4.66221 0
M  V30 25831 C 2384.79 3.05386 5.00955 0
M  V30 25832 C 2387.14 3.55862 5.23015 0
M  V30 25833 C 2385.81 3.9242 5.39966 0
M  V30 25834 H 2385.08 0.0610292 0.738483 0
M  V30 25835 H 2387.72 0.84407 1.71894 0
M  V30 25836 H 2386.03 -0.634055 3.86635 0
M  V30 25837 H 2387.73 -0.266653 4.00112 0
M  V30 25838 H 2384.32 1.1616 4.12559 0
M  V30 25839 H 2388.5 2.06195 4.51439 0
M  V30 25840 H 2383.76 3.33759 5.12265 0
M  V30 25841 H 2387.93 4.23917 5.5251 0
M  V30 25842 H 2385.56 4.88252 5.82678 0
M  V30 25843 N 2387.13 -1.52563 0.395266 0
M  V30 25844 C 2388.06 -2.29538 -0.428344 0
M  V30 25845 C 2389.04 -1.33171 -1.05828 0
M  V30 25846 O 2390.23 -1.62069 -1.06992 0
M  V30 25847 C 2387.36 -3.10659 -1.55268 0
M  V30 25848 C 2386.31 -4.14959 -1.04848 0
M  V30 25849 C 2385.64 -4.84341 -2.26535 0
M  V30 25850 C 2386.94 -5.22179 -0.112232 0
M  V30 25851 H 2388.63 -2.98635 0.213919 0
M  V30 25852 H 2386.18 -1.43622 0.104323 0
M  V30 25853 H 2388.13 -3.63269 -2.13573 0
M  V30 25854 H 2386.85 -2.39306 -2.22262 0
M  V30 25855 H 2385.51 -3.63339 -0.487921 0
M  V30 25856 H 2385.16 -4.0953 -2.92052 0
M  V30 25857 H 2384.86 -5.54841 -1.93457 0
M  V30 25858 H 2386.39 -5.39758 -2.85471 0
M  V30 25859 H 2387.8 -5.70113 -0.603652 0
M  V30 25860 H 2386.2 -5.99961 0.129073 0
M  V30 25861 H 2387.27 -4.77619 0.837136 0
M  V30 25862 N 2388.61 -0.125265 -1.57101 0
M  V30 25863 C 2389.86 0.532 -1.95698 0
M  V30 25864 C 2390.19 1.65928 -1.00903 0
M  V30 25865 O 2389.46 1.94442 -0.0473812 0
M  V30 25866 C 2389.75 1.05878 -3.44183 0
M  V30 25867 C 2389.6 -0.0655182 -4.49752 0
M  V30 25868 C 2390.92 1.94764 -3.94658 0
M  V30 25869 H 2388.04 0.191913 -0.711575 0
M  V30 25870 H 2390.68 -0.202094 -1.88922 0
M  V30 25871 H 2388.83 1.68436 -3.50088 0
M  V30 25872 H 2390.5 -0.701063 -4.55942 0
M  V30 25873 H 2388.74 -0.727784 -4.27651 0
M  V30 25874 H 2389.42 0.344409 -5.50925 0
M  V30 25875 H 2391.89 1.42067 -3.91096 0
M  V30 25876 H 2390.77 2.28538 -4.99061 0
M  V30 25877 H 2391.03 2.8765 -3.35723 0
M  V30 25878 N 2390.09 1.56899 0.148518 0
M  V30 25879 C 2391.02 1.93298 1.2129 0
M  V30 25880 C 2392 0.798624 1.41636 0
M  V30 25881 O 2393.18 1.05409 1.56273 0
M  V30 25882 C 2390.31 2.2037 2.57206 0
M  V30 25883 C 2389.36 3.43014 2.53463 0
M  V30 25884 S 2390.19 4.96626 2.00306 0
M  V30 25885 C 2391.34 5.26818 3.37954 0
M  V30 25886 H 2391.58 2.83276 0.902343 0
M  V30 25887 H 2389.11 1.50285 0.354067 0
M  V30 25888 H 2391.07 2.36647 3.35423 0
M  V30 25889 H 2389.73 1.31059 2.85451 0
M  V30 25890 H 2388.92 3.59229 3.53512 0
M  V30 25891 H 2388.52 3.25972 1.83354 0
M  V30 25892 H 2390.82 5.20193 4.34057 0
M  V30 25893 H 2391.76 6.28285 3.26595 0
M  V30 25894 H 2392.17 4.54337 3.3502 0
M  V30 25895 N 2391.57 -0.417818 1.51961 0
M  V30 25896 C 2392.81 -1.16556 1.65593 0
M  V30 25897 C 2393.14 -1.9072 0.381598 0
M  V30 25898 O 2392.4 -1.85107 -0.635123 0
M  V30 25899 C 2392.69 -2.19219 2.82273 0
M  V30 25900 C 2392.36 -1.61925 4.20822 0
M  V30 25901 C 2391.02 -1.46024 4.58509 0
M  V30 25902 C 2393.37 -1.19999 5.07198 0
M  V30 25903 C 2390.7 -0.867011 5.80258 0
M  V30 25904 C 2393.05 -0.620975 6.29545 0
M  V30 25905 C 2391.72 -0.449027 6.65988 0
M  V30 25906 H 2390.99 -0.426509 0.605946 0
M  V30 25907 H 2393.64 -0.453937 1.86042 0
M  V30 25908 H 2391.94 -2.96493 2.56123 0
M  V30 25909 H 2393.64 -2.76931 2.90017 0
M  V30 25910 H 2390.23 -1.75283 3.91119 0
M  V30 25911 H 2394.41 -1.31097 4.78672 0
M  V30 25912 H 2389.67 -0.721726 6.07125 0
M  V30 25913 H 2393.84 -0.287676 6.95806 0
M  V30 25914 H 2391.47 0.0127657 7.60199 0
M  V30 25915 N 2393.04 -1.42436 -0.674508 0
M  V30 25916 C 2394.29 -1.42214 -1.43032 0
M  V30 25917 C 2394.61 -0.0421131 -1.95555 0
M  V30 25918 O 2395.81 0.0827081 -2.71374 0
M  V30 25919 C 2394.27 -2.50159 -2.58744 0
M  V30 25920 C 2393.88 -3.9417 -2.12918 0
M  V30 25921 C 2395.62 -2.59104 -3.36252 0
M  V30 25922 C 2393.53 -4.93623 -3.25714 0
M  V30 25923 H 2392.46 -0.528948 -0.537336 0
M  V30 25924 H 2395.11 -1.68345 -0.73021 0
M  V30 25925 H 2393.49 -2.17194 -3.31124 0
M  V30 25926 H 2394.66 -4.36491 -1.4769 0
M  V30 25927 H 2392.98 -3.89078 -1.48348 0
M  V30 25928 H 2395.58 -3.30586 -4.20258 0
M  V30 25929 H 2395.92 -1.63468 -3.82863 0
M  V30 25930 H 2396.45 -2.91265 -2.70942 0
M  V30 25931 H 2393.19 -5.90737 -2.84095 0
M  V30 25932 H 2392.71 -4.55933 -3.89724 0
M  V30 25933 H 2394.39 -5.15354 -3.91177 0
M  V30 25934 N 2394.52 0.910841 -1.28614 0
M  V30 25935 C 2395.75 1.69151 -1.18623 0
M  V30 25936 C 2396.16 1.87442 0.257291 0
M  V30 25937 O 2395.5 1.40334 1.18541 0
M  V30 25938 C 2395.56 3.10254 -1.81611 0
M  V30 25939 C 2395.23 3.15237 -3.30869 0
M  V30 25940 C 2396.23 2.96216 -4.27261 0
M  V30 25941 C 2393.91 3.37658 -3.71877 0
M  V30 25942 C 2395.9 2.99531 -5.62636 0
M  V30 25943 C 2393.59 3.40605 -5.07377 0
M  V30 25944 C 2394.59 3.21563 -6.02566 0
M  V30 25945 O 2394.28 3.24277 -7.35595 0
M  V30 25946 H 2394.01 0.535446 -0.412643 0
M  V30 25947 H 2396.56 1.14824 -1.70308 0
M  V30 25948 H 2394.79 3.66136 -1.24425 0
M  V30 25949 H 2396.48 3.70359 -1.66098 0
M  V30 25950 H 2397.25 2.78718 -3.96915 0
M  V30 25951 H 2393.13 3.51524 -2.98248 0
M  V30 25952 H 2396.67 2.84586 -6.36912 0
M  V30 25953 H 2392.57 3.57632 -5.37373 0
M  V30 25954 H 2393.34 3.40619 -7.44258 0
M  V30 25955 N 2396 1.10909 1.11969 0
M  V30 25956 C 2397.23 0.877097 1.87941 0
M  V30 25957 C 2397.65 -0.567283 1.79342 0
M  V30 25958 O 2397.01 -1.40007 1.15186 0
M  V30 25959 C 2397.06 1.33635 3.34924 0
M  V30 25960 O 2396.16 0.504519 4.09302 0
M  V30 25961 H 2395.5 0.316382 0.58378 0
M  V30 25962 H 2398.03 1.47715 1.41568 0
M  V30 25963 H 2398.04 1.32844 3.85767 0
M  V30 25964 H 2396.72 2.38816 3.40499 0
M  V30 25965 H 2395.29 0.578058 3.68392 0
M  V30 25966 N 2397.48 -1.29474 0.898573 0
M  V30 25967 C 2398.73 -1.94884 0.519898 0
M  V30 25968 C 2399.04 -1.71627 -0.93827 0
M  V30 25969 O 2400.25 -2.31134 -1.42441 0
M  V30 25970 C 2398.7 -3.49003 0.878898 0
M  V30 25971 C 2398.31 -3.81062 2.35576 0
M  V30 25972 C 2400.05 -4.20655 0.570078 0
M  V30 25973 C 2397.96 -5.2842 2.65568 0
M  V30 25974 H 2396.89 -0.729485 0.190704 0
M  V30 25975 H 2399.54 -1.47217 1.09541 0
M  V30 25976 H 2397.92 -3.95318 0.232322 0
M  V30 25977 H 2399.1 -3.4561 3.04779 0
M  V30 25978 H 2397.41 -3.22547 2.63349 0
M  V30 25979 H 2400.01 -5.29112 0.771018 0
M  V30 25980 H 2400.35 -4.1339 -0.491331 0
M  V30 25981 H 2400.89 -3.80068 1.17444 0
M  V30 25982 H 2397.63 -5.40748 3.70502 0
M  V30 25983 H 2397.15 -5.65123 2.00987 0
M  V30 25984 H 2398.82 -5.96002 2.51775 0
M  V30 25985 N 2398.96 -0.660936 -1.43071 0
M  V30 25986 C 2400.2 -0.17748 -2.01721 0
M  V30 25987 C 2400.53 1.21123 -1.52182 0
M  V30 25988 O 2399.79 1.82417 -0.708691 0
M  V30 25989 C 2400.09 -0.145626 -3.57103 0
M  V30 25990 C 2399.75 -1.47713 -4.26019 0
M  V30 25991 C 2398.41 -1.84173 -4.4456 0
M  V30 25992 C 2400.77 -2.35467 -4.64978 0
M  V30 25993 C 2398.09 -3.08039 -4.99329 0
M  V30 25994 C 2400.45 -3.58631 -5.2112 0
M  V30 25995 C 2399.11 -3.95278 -5.37877 0
M  V30 25996 H 2398.38 -0.0649447 -0.738148 0
M  V30 25997 H 2401.03 -0.853175 -1.71444 0
M  V30 25998 H 2399.33 0.613542 -3.86966 0
M  V30 25999 H 2401.03 0.24543 -4.00248 0
M  V30 26000 H 2397.62 -1.18346 -4.11937 0
M  V30 26001 H 2401.8 -2.08586 -4.50339 0
M  V30 26002 H 2397.06 -3.36471 -5.10487 0
M  V30 26003 H 2401.23 -4.26841 -5.50254 0
M  V30 26004 H 2398.86 -4.91336 -5.80081 0
M  V30 26005 N 2400.43 1.52351 -0.403352 0
M  V30 26006 C 2401.68 2.0135 0.173967 0
M  V30 26007 C 2402 1.29108 1.46137 0
M  V30 26008 O 2401.27 0.415287 1.91448 0
M  V30 26009 H 2399.85 0.743964 0.067278 0
M  V30 26010 H 2402.52 1.8732 -0.538268 0
M  V30 26011 H 2401.61 3.09849 0.3742 0
M  V30 26012 N 2401.91 0.133594 1.57033 0
M  V30 26013 C 2402.85 -0.848835 2.11825 0
M  V30 26014 C 2403.82 -1.25128 1.03835 0
M  V30 26015 O 2405.01 -1.34976 1.31582 0
M  V30 26016 C 2402.13 -2.13796 2.62696 0
M  V30 26017 C 2401.18 -1.88246 3.82708 0
M  V30 26018 S 2402.01 -1.08554 5.24382 0
M  V30 26019 C 2403.17 -2.38614 5.78631 0
M  V30 26020 H 2403.4 -0.382838 2.94825 0
M  V30 26021 H 2400.94 -0.0804525 1.5419 0
M  V30 26022 H 2402.89 -2.87858 2.92657 0
M  V30 26023 H 2401.55 -2.57511 1.79852 0
M  V30 26024 H 2400.75 -2.83802 4.16501 0
M  V30 26025 H 2400.35 -1.22299 3.53439 0
M  V30 26026 H 2402.64 -3.34359 5.89246 0
M  V30 26027 H 2403.58 -2.09346 6.76447 0
M  V30 26028 H 2403.99 -2.48649 5.06788 0
M  V30 26029 N 2403.39 -1.56975 -0.140195 0
M  V30 26030 C 2404.62 -1.88253 -0.870381 0
M  V30 26031 C 2405.04 -0.723342 -1.73636 0
M  V30 26032 O 2404.4 0.326859 -1.78329 0
M  V30 26033 C 2404.45 -3.18157 -1.69731 0
M  V30 26034 O 2403.55 -3.0257 -2.80224 0
M  V30 26035 H 2402.89 -0.618324 -0.242014 0
M  V30 26036 H 2405.42 -2.04193 -0.128963 0
M  V30 26037 H 2405.43 -3.50349 -2.09093 0
M  V30 26038 H 2404.11 -4.02127 -1.06145 0
M  V30 26039 H 2402.68 -2.81801 -2.44219 0
M  V30 26040 N 2404.87 0.409753 -1.5218 0
M  V30 26041 C 2406.09 1.18305 -1.70349 0
M  V30 26042 C 2406.52 1.83534 -0.411919 0
M  V30 26043 O 2405.88 1.69981 0.630557 0
M  V30 26044 C 2405.92 2.22233 -2.83981 0
M  V30 26045 O 2405.03 3.2836 -2.49506 0
M  V30 26046 H 2404.37 0.345374 -0.567109 0
M  V30 26047 H 2406.9 0.48041 -1.9888 0
M  V30 26048 H 2406.91 2.66572 -3.08874 0
M  V30 26049 H 2405.58 1.74139 -3.77688 0
M  V30 26050 H 2404.16 2.89304 -2.35282 0
M  V30 26051 N 2406.35 1.42792 0.666944 0
M  V30 26052 C 2407.59 1.4368 1.42696 0
M  V30 26053 C 2407.92 0.0560766 1.94419 0
M  V30 26054 O 2407.18 -0.936801 1.71821 0
M  V30 26055 C 2407.48 2.41474 2.63486 0
M  V30 26056 C 2407.14 3.87674 2.3026 0
M  V30 26057 C 2405.8 4.27495 2.2091 0
M  V30 26058 C 2408.16 4.79862 2.03426 0
M  V30 26059 C 2405.48 5.57475 1.82863 0
M  V30 26060 C 2407.84 6.10191 1.66881 0
M  V30 26061 C 2406.5 6.49004 1.56047 0
M  V30 26062 H 2405.77 0.525764 0.522162 0
M  V30 26063 H 2408.42 1.75784 0.759754 0
M  V30 26064 H 2406.72 2.02726 3.35275 0
M  V30 26065 H 2408.42 2.39422 3.2168 0
M  V30 26066 H 2405.01 3.5615 2.38442 0
M  V30 26067 H 2409.19 4.49878 2.09578 0
M  V30 26068 H 2404.45 5.86399 1.7305 0
M  V30 26069 H 2408.62 6.81106 1.45145 0
M  V30 26070 H 2406.25 7.49629 1.26335 0
M  V30 26071 N 2407.82 -0.904008 1.29095 0
M  V30 26072 C 2409.24 -1.4693 1.15189 0
M  V30 26073 C 2409.59 -1.94542 -0.254553 0
M  V30 26074 O 2408.71 -1.83334 -1.14969 0
M  V30 26075 C 2409.31 -2.67048 2.08497 0
M  V30 26076 C 2407.87 -3.19726 1.98627 0
M  V30 26077 C 2407.01 -1.92421 1.99673 0
M  V30 26078 H 2409.96 -0.715764 1.41642 0
M  V30 26079 H 2409.98 -3.42638 1.65467 0
M  V30 26080 H 2409.5 -2.32364 3.10851 0
M  V30 26081 H 2407.6 -3.59112 0.993452 0
M  V30 26082 H 2407.71 -3.84315 2.86075 0
M  V30 26083 H 2406.07 -2.09941 1.44212 0
M  V30 26084 H 2406.86 -1.6002 3.03724 0
M  V30 26085 N 2409.3 -1.11501 -1.11379 0
M  V30 26086 C 2410.25 -0.743018 -2.15553 0
M  V30 26087 C 2411.24 0.253248 -1.58894 0
M  V30 26088 O 2412.43 0.0602607 -1.76897 0
M  V30 26089 C 2409.56 -0.188541 -3.42782 0
M  V30 26090 C 2408.64 -1.21251 -4.06398 0
M  V30 26091 N 2409.03 -2.40693 -4.4486 0
M  V30 26092 C 2407.33 -1.05559 -4.33328 0
M  V30 26093 C 2408.03 -3.06003 -4.94709 0
M  V30 26094 N 2407.01 -2.33481 -4.90905 0
M  V30 26095 H 2410.81 -1.65207 -2.43072 0
M  V30 26096 H 2408.33 -0.994351 -1.28399 0
M  V30 26097 H 2410.32 0.096096 -4.16789 0
M  V30 26098 H 2408.98 0.715093 -3.16728 0
M  V30 26099 H 2409.99 -2.78143 -4.36871 0
M  V30 26100 H 2406.67 -0.208445 -4.16979 0
M  V30 26101 H 2408.06 -4.07666 -5.34096 0
M  V30 26102 N 2410.78 1.28995 -0.905426 0
M  V30 26103 C 2412.03 1.95614 -0.535073 0
M  V30 26104 C 2412.36 1.71166 0.917374 0
M  V30 26105 O 2411.64 1.02788 1.65121 0
M  V30 26106 C 2411.92 3.50286 -0.83498 0
M  V30 26107 C 2411.77 3.84168 -2.33955 0
M  V30 26108 C 2413.09 4.38895 -0.325395 0
M  V30 26109 H 2410.21 0.710495 -0.195874 0
M  V30 26110 H 2412.85 1.52511 -1.13315 0
M  V30 26111 H 2411 3.8713 -0.325972 0
M  V30 26112 H 2412.67 3.57238 -2.91854 0
M  V30 26113 H 2410.92 3.31508 -2.79795 0
M  V30 26114 H 2411.59 4.92145 -2.49995 0
M  V30 26115 H 2414.06 4.09076 -0.761328 0
M  V30 26116 H 2412.94 5.45991 -0.564391 0
M  V30 26117 H 2413.2 4.35271 0.774067 0
M  V30 26118 N 2412.26 0.668514 1.42719 0
M  V30 26119 C 2413.68 0.337478 1.55991 0
M  V30 26120 C 2413.88 -1.15753 1.64935 0
M  V30 26121 O 2412.93 -1.9428 1.61281 0
M  V30 26122 C 2414.24 1.06227 2.81312 0
M  V30 26123 C 2415.79 1.04399 2.95076 0
M  V30 26124 C 2416.27 1.74999 4.23249 0
M  V30 26125 N 2417.76 1.71836 4.30147 0
M  V30 26126 C 2418.49 2.23324 5.28123 0
M  V30 26127 N 2417.99 2.83167 6.32288 0
M  V30 26128 N 2419.78 2.13735 5.19878 0
M  V30 26129 H 2411.93 1.63848 1.35157 0
M  V30 26130 H 2414.2 0.689923 0.650162 0
M  V30 26131 H 2413.9 2.11739 2.80819 0
M  V30 26132 H 2413.78 0.623505 3.72011 0
M  V30 26133 H 2416.16 -0.00277253 2.951 0
M  V30 26134 H 2416.24 1.52159 2.05624 0
M  V30 26135 H 2415.89 2.7964 4.23986 0
M  V30 26136 H 2415.82 1.24694 5.11624 0
M  V30 26137 H 2418.31 1.28182 3.55497 0
M  V30 26138 H 2418.62 3.20092 7.03393 0
M  V30 26139 H 2416.97 2.87234 6.32868 0
M  V30 26140 H 2420.16 1.66677 4.3742 0
M  V30 26141 H 2420.33 2.54169 5.96072 0
M  V30 26142 N 2413.74 -1.52135 0.411426 0
M  V30 26143 C 2414.98 -2.02799 -0.156226 0
M  V30 26144 C 2415.34 -1.29151 -1.4261 0
M  V30 26145 O 2414.63 -0.389872 -1.87591 0
M  V30 26146 C 2414.83 -3.54482 -0.45581 0
M  V30 26147 C 2414.65 -4.42822 0.783482 0
M  V30 26148 C 2413.42 -4.88041 1.30936 0
M  V30 26149 C 2415.62 -4.86697 1.66226 0
M  V30 26150 N 2413.6 -5.60516 2.5039 0
M  V30 26151 C 2414.98 -5.57976 2.70302 0
M  V30 26152 C 2417.03 -4.6871 1.67974 0
M  V30 26153 C 2415.73 -6.13177 3.76041 0
M  V30 26154 C 2417.76 -5.2481 2.72633 0
M  V30 26155 C 2417.12 -5.96013 3.7543 0
M  V30 26156 H 2413.22 -0.781777 -0.0186749 0
M  V30 26157 H 2415.8 -1.86283 0.566288 0
M  V30 26158 H 2413.98 -3.71066 -1.14737 0
M  V30 26159 H 2415.71 -3.91829 -1.01255 0
M  V30 26160 H 2412.46 -4.65595 0.867059 0
M  V30 26161 H 2412.89 -6.01394 3.10892 0
M  V30 26162 H 2417.53 -4.13145 0.898384 0
M  V30 26163 H 2415.25 -6.67812 4.55031 0
M  V30 26164 H 2418.83 -5.12761 2.74896 0
M  V30 26165 H 2417.71 -6.38646 4.55084 0
M  V30 26166 N 2415.22 -0.14192 -1.5696 0
M  V30 26167 C 2416.13 0.812866 -2.20067 0
M  V30 26168 C 2417.14 1.27554 -1.18346 0
M  V30 26169 O 2418.32 1.33379 -1.50904 0
M  V30 26170 C 2415.38 2.03647 -2.80586 0
M  V30 26171 C 2414.44 1.62352 -3.97417 0
M  V30 26172 C 2413.68 2.78879 -4.55041 0
M  V30 26173 O 2413.9 3.94952 -4.11545 0
M  V30 26174 O 2412.83 2.54644 -5.45381 0
M  V30 26175 H 2416.66 0.305693 -3.02158 0
M  V30 26176 H 2414.24 0.0848537 -1.49159 0
M  V30 26177 H 2416.13 2.75266 -3.19071 0
M  V30 26178 H 2414.8 2.53327 -2.01512 0
M  V30 26179 H 2413.71 0.877711 -3.63658 0
M  V30 26180 H 2415.04 1.17393 -4.77996 0
M  V30 26181 N 2416.69 1.57047 0.131868 0
M  V30 26182 C 2417.66 1.98473 1.14634 0
M  V30 26183 C 2418.66 0.873171 1.35027 0
M  V30 26184 O 2419.85 1.13949 1.31762 0
M  V30 26185 C 2416.98 2.31378 2.50354 0
M  V30 26186 H 2418.17 2.89292 0.790589 0
M  V30 26187 H 2415.72 1.51717 0.375734 0
M  V30 26188 H 2416.46 1.43398 2.90873 0
M  V30 26189 H 2416.24 3.12436 2.3691 0
M  V30 26190 H 2417.73 2.64213 3.23391 0
M  V30 26191 N 2418.17 -0.401677 1.52395 0
M  V30 26192 C 2419.42 -1.14567 1.6649 0
M  V30 26193 C 2419.74 -1.90834 0.40093 0
M  V30 26194 O 2419.01 -1.86981 -0.584382 0
M  V30 26195 H 2417.59 -0.425918 0.61368 0
M  V30 26196 H 2420.25 -0.457059 1.89465 0
M  V30 26197 H 2419.35 -1.85561 2.50945 0
M  V30 26198 N 2419.65 -1.43144 -0.659362 0
M  V30 26199 C 2420.9 -1.43723 -1.41515 0
M  V30 26200 C 2421.21 -0.062852 -1.95499 0
M  V30 26201 O 2422.42 0.0539206 -2.71446 0
M  V30 26202 C 2420.87 -2.5289 -2.56076 0
M  V30 26203 C 2420.48 -3.96406 -2.08726 0
M  V30 26204 C 2422.23 -2.62655 -3.33485 0
M  V30 26205 C 2420.13 -4.9705 -3.20461 0
M  V30 26206 H 2419.06 -0.534618 -0.531696 0
M  V30 26207 H 2421.71 -1.6911 -0.712314 0
M  V30 26208 H 2420.1 -2.20693 -3.28801 0
M  V30 26209 H 2421.27 -4.38033 -1.43052 0
M  V30 26210 H 2419.58 -3.9063 -1.44212 0
M  V30 26211 H 2422.18 -3.35025 -4.16729 0
M  V30 26212 H 2422.52 -1.6752 -3.81107 0
M  V30 26213 H 2423.06 -2.94123 -2.67837 0
M  V30 26214 H 2419.8 -5.93717 -2.77814 0
M  V30 26215 H 2419.32 -4.60041 -3.84866 0
M  V30 26216 H 2421 -5.19474 -3.85689 0
M  V30 26217 N 2421.13 0.897149 -1.29572 0
M  V30 26218 C 2422.4 1.62837 -1.08368 0
M  V30 26219 C 2422.78 2.07809 0.371294 0
M  V30 26220 O 2422.13 1.83578 1.36057 0
M  V30 26221 C 2422.34 2.80722 -2.07354 0
M  V30 26222 C 2423.69 3.51347 -2.38412 0
M  V30 26223 O 2424.71 2.90895 -2.05569 0
M  V30 26224 O 2423.57 4.60336 -2.94538 0
M  V30 26225 H 2420.67 0.715127 -0.415358 0
M  V30 26226 H 2423.21 0.944993 -1.40954 0
M  V30 26227 H 2421.99 2.44706 -3.05343 0
M  V30 26228 H 2421.61 3.56764 -1.75514 0
M  V30 26229 N 2422.61 1.1209 1.10786 0
M  V30 26230 C 2423.88 0.785508 1.79134 0
M  V30 26231 C 2424.26 -0.725342 1.98247 0
M  V30 26232 O 2423.61 -1.65775 1.57261 0
M  V30 26233 C 2423.82 1.55641 3.12373 0
M  V30 26234 C 2425.17 1.74007 3.87307 0
M  V30 26235 O 2426.19 1.52123 3.22082 0
M  V30 26236 O 2425.05 2.10424 5.04365 0
M  V30 26237 H 2422.15 0.285325 0.776221 0
M  V30 26238 H 2424.69 1.22472 1.17468 0
M  V30 26239 H 2423.46 2.58385 2.93859 0
M  V30 26240 H 2423.09 1.11121 3.81756 0
M  V30 26241 N 2424.08 -1.28513 0.912254 0
M  V30 26242 C 2425.02 -2.25593 0.343968 0
M  V30 26243 C 2425.99 -1.52981 -0.550967 0
M  V30 26244 O 2427.18 -1.81886 -0.494959 0
M  V30 26245 C 2424.31 -3.34862 -0.508466 0
M  V30 26246 C 2423.35 -4.25291 0.320883 0
M  V30 26247 S 2424.18 -5.06899 1.72667 0
M  V30 26248 C 2425.34 -6.19661 0.881503 0
M  V30 26249 H 2425.57 -2.73447 1.16679 0
M  V30 26250 H 2423.11 -1.3693 0.713408 0
M  V30 26251 H 2425.06 -3.98272 -0.994469 0
M  V30 26252 H 2423.73 -2.85677 -1.30566 0
M  V30 26253 H 2422.92 -5.02913 -0.330853 0
M  V30 26254 H 2422.52 -3.66596 0.740485 0
M  V30 26255 H 2424.81 -6.7741 0.110478 0
M  V30 26256 H 2425.76 -6.89079 1.63021 0
M  V30 26257 H 2426.16 -5.62857 0.430337 0
M  V30 26258 N 2425.56 -0.676073 -1.42362 0
M  V30 26259 C 2426.81 -0.198866 -2.01521 0
M  V30 26260 C 2427.14 1.19502 -1.53458 0
M  V30 26261 O 2426.39 1.81655 -0.727999 0
M  V30 26262 C 2426.69 -0.183493 -3.56929 0
M  V30 26263 C 2426.36 -1.52223 -4.24428 0
M  V30 26264 C 2425.02 -1.88878 -4.42582 0
M  V30 26265 C 2427.37 -2.40385 -4.62455 0
M  V30 26266 C 2424.7 -3.13317 -4.96033 0
M  V30 26267 C 2427.05 -3.64138 -5.17287 0
M  V30 26268 C 2425.72 -4.0096 -5.33654 0
M  V30 26269 H 2424.99 -0.0727701 -0.737418 0
M  V30 26270 H 2427.63 -0.871311 -1.7053 0
M  V30 26271 H 2425.94 0.572464 -3.87595 0
M  V30 26272 H 2427.63 0.202965 -4.00486 0
M  V30 26273 H 2424.22 -1.22709 -4.10659 0
M  V30 26274 H 2428.41 -2.13351 -4.48102 0
M  V30 26275 H 2423.66 -3.41866 -5.0689 0
M  V30 26276 H 2427.84 -4.32653 -5.45696 0
M  V30 26277 H 2425.47 -4.9746 -5.74837 0
M  V30 26278 N 2427.04 1.51915 -0.419488 0
M  V30 26279 C 2427.99 2.2886 0.415461 0
M  V30 26280 C 2428.98 1.33972 1.03672 0
M  V30 26281 O 2430.19 1.51389 0.973731 0
M  V30 26282 H 2426.56 0.736318 0.152773 0
M  V30 26283 H 2428.53 2.97312 -0.254584 0
M  V30 26284 C 2427.28 3.12998 1.51419 0
M  V30 26285 H 2426.61 3.85888 1.04549 0
M  V30 26286 H 2428.05 3.69924 2.07202 0
M  V30 26287 C 2426.51 2.27221 2.48741 0
M  V30 26288 O 2427.04 1.91956 3.52868 0
M  V30 26289 N 2425.24 1.90789 2.19198 0
M  V30 26290 H 2424.79 2.19667 1.34552 0
M  V30 26291 H 2424.75 1.33692 2.84559 0
M  V30 26292 N 2428.52 0.150242 1.56882 0
M  V30 26293 C 2429.77 -0.500058 1.96229 0
M  V30 26294 C 2430.09 -1.64659 1.03525 0
M  V30 26295 O 2429.35 -1.95592 0.0651027 0
M  V30 26296 C 2429.65 -1.04431 3.41802 0
M  V30 26297 C 2429.31 -0.0158879 4.50897 0
M  V30 26298 C 2427.98 0.266816 4.8046 0
M  V30 26299 C 2430.33 0.683282 5.16702 0
M  V30 26300 C 2427.66 1.25444 5.73132 0
M  V30 26301 C 2430.01 1.65975 6.10439 0
M  V30 26302 C 2428.67 1.95012 6.38378 0
M  V30 26303 H 2427.94 -0.182984 0.718051 0
M  V30 26304 H 2430.59 0.237757 1.90018 0
M  V30 26305 H 2428.89 -1.85953 3.4486 0
M  V30 26306 H 2430.59 -1.55611 3.69576 0
M  V30 26307 H 2427.18 -0.24641 4.27891 0
M  V30 26308 H 2431.36 0.47807 4.93992 0
M  V30 26309 H 2426.62 1.48581 5.93071 0
M  V30 26310 H 2430.79 2.207 6.60503 0
M  V30 26311 H 2428.42 2.71691 7.09992 0
M  V30 26312 N 2430 -1.57115 -0.123538 0
M  V30 26313 C 2430.93 -1.9665 -1.17735 0
M  V30 26314 C 2431.94 -0.865225 -1.37905 0
M  V30 26315 O 2433.13 -1.14354 -1.3706 0
M  V30 26316 C 2430.23 -2.24566 -2.53817 0
M  V30 26317 C 2429.4 -3.55872 -2.54311 0
M  V30 26318 C 2428.46 -3.72054 -3.72105 0
M  V30 26319 O 2427.49 -4.44212 -3.55899 0
M  V30 26320 N 2428.69 -3.1048 -4.90492 0
M  V30 26321 H 2431.46 -2.87655 -0.841097 0
M  V30 26322 H 2429.02 -1.58848 -0.312862 0
M  V30 26323 H 2431.01 -2.32611 -3.31171 0
M  V30 26324 H 2429.58 -1.3971 -2.79642 0
M  V30 26325 H 2428.8 -3.59055 -1.62705 0
M  V30 26326 H 2430.09 -4.42185 -2.51693 0
M  V30 26327 H 2429.48 -2.51815 -5.06563 0
M  V30 26328 H 2428.04 -3.24053 -5.65538 0
M  V30 26329 N 2431.47 0.393589 -1.52606 0
M  V30 26330 C 2432.7 1.1604 -1.71296 0
M  V30 26331 C 2433.12 1.83855 -0.429292 0
M  V30 26332 O 2432.47 1.72498 0.595891 0
M  V30 26333 C 2432.53 2.21188 -2.85934 0
M  V30 26334 O 2432.25 1.56138 -4.09332 0
M  V30 26335 C 2433.75 3.10631 -3.16265 0
M  V30 26336 H 2430.97 0.348094 -0.573647 0
M  V30 26337 H 2433.51 0.461057 -1.99235 0
M  V30 26338 H 2431.67 2.86765 -2.6047 0
M  V30 26339 H 2432.08 2.2597 -4.73326 0
M  V30 26340 H 2433.55 3.80449 -3.99953 0
M  V30 26341 H 2434.03 3.7388 -2.30457 0
M  V30 26342 H 2434.64 2.50704 -3.43551 0
M  V30 26343 N 2432.95 1.43492 0.651762 0
M  V30 26344 C 2434.2 1.45186 1.41164 0
M  V30 26345 C 2434.53 0.0766942 1.94349 0
M  V30 26346 O 2433.78 -0.918524 1.72805 0
M  V30 26347 C 2434.08 2.44255 2.6091 0
M  V30 26348 C 2433.75 3.90094 2.26135 0
M  V30 26349 C 2432.41 4.29814 2.16363 0
M  V30 26350 C 2434.76 4.81992 1.98325 0
M  V30 26351 C 2432.09 5.59383 1.7694 0
M  V30 26352 C 2434.44 6.11927 1.604 0
M  V30 26353 C 2433.11 6.50622 1.49154 0
M  V30 26354 H 2432.38 0.531273 0.516556 0
M  V30 26355 H 2435.02 1.7658 0.741068 0
M  V30 26356 H 2433.33 2.0627 3.33106 0
M  V30 26357 H 2435.02 2.42821 3.19122 0
M  V30 26358 H 2431.61 3.58659 2.34652 0
M  V30 26359 H 2435.8 4.52076 2.04795 0
M  V30 26360 H 2431.05 5.88201 1.66821 0
M  V30 26361 H 2435.23 6.82608 1.37913 0
M  V30 26362 H 2432.86 7.50927 1.18377 0
M  V30 26363 N 2434.43 -0.890264 1.30046 0
M  V30 26364 C 2435.39 -1.97698 1.15967 0
M  V30 26365 C 2436.39 -1.60534 0.0924059 0
M  V30 26366 O 2437.58 -1.70848 0.340101 0
M  V30 26367 C 2434.72 -3.31962 0.775509 0
M  V30 26368 H 2435.91 -2.11616 2.12506 0
M  V30 26369 H 2433.46 -1.07599 1.13367 0
M  V30 26370 H 2434.2 -3.23745 -0.189614 0
M  V30 26371 H 2433.98 -3.60303 1.54674 0
M  V30 26372 H 2435.47 -4.11686 0.700323 0
M  V30 26373 N 2435.91 -1.12676 -1.1019 0
M  V30 26374 C 2436.86 -0.792234 -2.18692 0
M  V30 26375 C 2437.85 0.222028 -1.67939 0
M  V30 26376 O 2439.06 0.0799758 -1.79822 0
M  V30 26377 H 2435.43 -0.238377 -0.713218 0
M  V30 26378 H 2437.4 -1.71568 -2.44146 0
M  V30 26379 C 2436.15 -0.26592 -3.46682 0
M  V30 26380 H 2435.47 -1.03767 -3.86099 0
M  V30 26381 H 2436.91 -0.0701873 -4.23942 0
M  V30 26382 C 2435.37 1.00669 -3.21508 0
M  V30 26383 O 2435.9 2.08402 -3.43412 0
M  V30 26384 N 2434.11 0.934644 -2.7516 0
M  V30 26385 H 2433.66 0.0578151 -2.57535 0
M  V30 26386 H 2433.61 1.78675 -2.58694 0
M  V30 26387 N 2437.39 1.28028 -0.919057 0
M  V30 26388 C 2438.61 1.99402 -0.570392 0
M  V30 26389 C 2439.04 1.68179 0.842456 0
M  V30 26390 O 2438.39 0.917169 1.5639 0
M  V30 26391 C 2438.44 3.51781 -0.792603 0
M  V30 26392 O 2437.55 4.12142 0.145915 0
M  V30 26393 H 2436.89 0.626296 -0.220566 0
M  V30 26394 H 2439.42 1.63051 -1.23595 0
M  V30 26395 H 2439.43 4.01867 -0.704779 0
M  V30 26396 H 2438.1 3.7384 -1.82253 0
M  V30 26397 H 2436.68 3.72899 0.00890974 0
M  V30 26398 N 2438.86 0.683613 1.42002 0
M  V30 26399 C 2439.8 -0.0395519 2.28166 0
M  V30 26400 C 2440.78 -0.799918 1.41563 0
M  V30 26401 O 2441.96 -0.793218 1.70998 0
M  V30 26402 C 2439.09 -1.06329 3.21577 0
M  V30 26403 C 2438.13 -0.397488 4.24644 0
M  V30 26404 S 2438.97 0.851389 5.28689 0
M  V30 26405 C 2440.12 -0.171056 6.25666 0
M  V30 26406 H 2440.35 0.691279 2.89152 0
M  V30 26407 H 2437.89 0.473461 1.46962 0
M  V30 26408 H 2439.85 -1.64883 3.75931 0
M  V30 26409 H 2438.51 -1.76662 2.5971 0
M  V30 26410 H 2437.7 -1.17026 4.90225 0
M  V30 26411 H 2437.3 0.114677 3.73824 0
M  V30 26412 H 2439.59 -1.02807 6.69654 0
M  V30 26413 H 2440.54 0.450522 7.06665 0
M  V30 26414 H 2440.94 -0.520479 5.62095 0
M  V30 26415 N 2440.34 -1.5169 0.427538 0
M  V30 26416 C 2441.27 -2.30394 -0.379559 0
M  V30 26417 C 2442.25 -1.35385 -1.0298 0
M  V30 26418 O 2443.44 -1.64302 -1.03531 0
M  V30 26419 C 2440.57 -3.13883 -1.48644 0
M  V30 26420 C 2439.52 -4.1709 -0.960221 0
M  V30 26421 C 2438.85 -4.89037 -2.1621 0
M  V30 26422 C 2440.15 -5.223 -0.00144499 0
M  V30 26423 H 2441.84 -2.98114 0.277216 0
M  V30 26424 H 2439.39 -1.43368 0.134764 0
M  V30 26425 H 2441.34 -3.67718 -2.0582 0
M  V30 26426 H 2440.07 -2.43966 -2.17136 0
M  V30 26427 H 2438.73 -3.64292 -0.410742 0
M  V30 26428 H 2438.37 -4.15633 -2.83299 0
M  V30 26429 H 2438.07 -5.58819 -1.81644 0
M  V30 26430 H 2439.6 -5.45692 -2.73958 0
M  V30 26431 H 2441.01 -5.71265 -0.482586 0
M  V30 26432 H 2439.41 -5.99552 0.256305 0
M  V30 26433 H 2440.48 -4.75736 0.938258 0
M  V30 26434 N 2441.82 -0.15856 -1.568 0
M  V30 26435 C 2443.06 0.492255 -1.98384 0
M  V30 26436 C 2443.43 1.61273 -1.04187 0
M  V30 26437 O 2444.63 2.32521 -1.3486 0
M  V30 26438 C 2442.9 0.974706 -3.43852 0
M  V30 26439 S 2444.46 1.6285 -4.07462 0
M  V30 26440 H 2441.27 0.158781 -0.693044 0
M  V30 26441 H 2443.88 -0.253008 -1.93856 0
M  V30 26442 H 2442.58 0.148616 -4.10131 0
M  V30 26443 H 2442.11 1.75431 -3.52118 0
M  V30 26444 H 2444.13 2.9162 -4.01463 0
M  V30 26445 N 2443.3 1.57178 0.115204 0
M  V30 26446 C 2444.23 2.03653 1.14227 0
M  V30 26447 C 2445.21 0.921681 1.42965 0
M  V30 26448 O 2446.4 1.19164 1.53341 0
M  V30 26449 C 2443.53 2.44405 2.46746 0
M  V30 26450 C 2442.48 3.59369 2.32461 0
M  V30 26451 C 2441.81 3.86033 3.69977 0
M  V30 26452 C 2443.11 4.90962 1.78194 0
M  V30 26453 H 2444.8 2.89706 0.755698 0
M  V30 26454 H 2442.35 1.39374 0.362068 0
M  V30 26455 H 2444.3 2.75523 3.1885 0
M  V30 26456 H 2443.02 1.55327 2.873 0
M  V30 26457 H 2441.68 3.28466 1.62805 0
M  V30 26458 H 2441.33 2.94154 4.08023 0
M  V30 26459 H 2441.03 4.63419 3.61271 0
M  V30 26460 H 2442.55 4.19606 4.4358 0
M  V30 26461 H 2443.97 5.20592 2.40119 0
M  V30 26462 H 2442.36 5.72374 1.803 0
M  V30 26463 H 2443.43 4.79223 0.739792 0
M  V30 26464 N 2444.78 -0.38549 1.52813 0
M  V30 26465 C 2446.02 -1.13018 1.68028 0
M  V30 26466 C 2446.35 -1.89868 0.421967 0
M  V30 26467 O 2445.61 -1.86413 -0.595716 0
M  V30 26468 C 2445.91 -2.13182 2.86859 0
M  V30 26469 C 2445.57 -1.52963 4.24162 0
M  V30 26470 C 2444.23 -1.36266 4.61503 0
M  V30 26471 C 2446.59 -1.09214 5.09629 0
M  V30 26472 C 2443.91 -0.743734 5.81967 0
M  V30 26473 C 2446.27 -0.4873 6.3072 0
M  V30 26474 C 2444.93 -0.30766 6.66791 0
M  V30 26475 H 2444.2 -0.41356 0.614857 0
M  V30 26476 H 2446.85 -0.414373 1.86963 0
M  V30 26477 H 2445.15 -2.90994 2.62355 0
M  V30 26478 H 2446.85 -2.70717 2.95826 0
M  V30 26479 H 2443.44 -1.66947 3.94749 0
M  V30 26480 H 2447.62 -1.20914 4.81346 0
M  V30 26481 H 2442.88 -0.592784 6.0852 0
M  V30 26482 H 2447.05 -0.14002 6.96259 0
M  V30 26483 H 2444.68 0.174012 7.60001 0
M  V30 26484 N 2446.26 -1.43835 -0.644143 0
M  V30 26485 C 2447.19 -1.45672 -1.76953 0
M  V30 26486 C 2448.2 -0.351694 -1.58956 0
M  V30 26487 O 2449.39 -0.616673 -1.67509 0
M  V30 26488 C 2446.49 -1.26254 -3.14505 0
M  V30 26489 C 2445.66 -2.49763 -3.59078 0
M  V30 26490 C 2444.72 -2.25435 -4.75463 0
M  V30 26491 O 2443.75 -2.98844 -4.84438 0
M  V30 26492 N 2444.95 -1.27671 -5.66287 0
M  V30 26493 H 2447.71 -2.42685 -1.75852 0
M  V30 26494 H 2445.28 -1.39108 -0.828288 0
M  V30 26495 H 2447.27 -1.07847 -3.90066 0
M  V30 26496 H 2445.84 -0.376532 -3.10324 0
M  V30 26497 H 2445.06 -2.83535 -2.73865 0
M  V30 26498 H 2446.35 -3.3194 -3.85607 0
M  V30 26499 H 2445.74 -0.670163 -5.61716 0
M  V30 26500 H 2444.3 -1.15245 -6.41531 0
M  V30 26501 N 2447.73 0.883355 -1.30517 0
M  V30 26502 C 2448.98 1.63003 -1.18798 0
M  V30 26503 C 2449.3 1.93919 0.255889 0
M  V30 26504 O 2450.5 2.66957 0.494607 0
M  V30 26505 C 2448.96 2.9379 -2.07883 0
M  V30 26506 C 2448.57 2.70408 -3.57188 0
M  V30 26507 C 2450.31 3.71757 -2.04931 0
M  V30 26508 C 2448.22 3.97022 -4.38324 0
M  V30 26509 H 2447.15 0.611554 -0.441042 0
M  V30 26510 H 2449.8 0.977826 -1.55277 0
M  V30 26511 H 2448.18 3.60313 -1.64289 0
M  V30 26512 H 2449.35 2.12377 -4.08941 0
M  V30 26513 H 2447.67 2.05814 -3.6198 0
M  V30 26514 H 2450.27 4.65661 -2.628 0
M  V30 26515 H 2450.61 4.03276 -1.03317 0
M  V30 26516 H 2451.14 3.121 -2.46654 0
M  V30 26517 H 2447.88 3.70661 -5.40639 0
M  V30 26518 H 2447.4 4.54552 -3.91334 0
M  V30 26519 H 2449.08 4.65028 -4.49842 0
M  V30 26520 N 2449.21 1.13259 1.09591 0
M  V30 26521 C 2450.44 0.91641 1.85498 0
M  V30 26522 C 2450.85 -0.534706 1.8107 0
M  V30 26523 O 2450.21 -1.37005 1.20564 0
M  V30 26524 C 2450.26 1.39394 3.33544 0
M  V30 26525 O 2449.98 2.78819 3.37923 0
M  V30 26526 C 2451.48 1.21595 4.26297 0
M  V30 26527 H 2448.7 0.326898 0.585985 0
M  V30 26528 H 2451.25 1.50473 1.38486 0
M  V30 26529 H 2449.4 0.848664 3.7799 0
M  V30 26530 H 2449.82 2.99978 4.30248 0
M  V30 26531 H 2451.29 1.59885 5.28338 0
M  V30 26532 H 2451.77 0.157453 4.38918 0
M  V30 26533 H 2452.37 1.74917 3.87665 0
M  V30 26534 N 2450.69 -1.27539 0.925834 0
M  V30 26535 C 2451.92 -1.98559 0.581544 0
M  V30 26536 C 2452.33 -1.69084 -0.840011 0
M  V30 26537 O 2451.69 -0.950339 -1.55804 0
M  V30 26538 C 2451.74 -3.52635 0.795651 0
M  V30 26539 O 2451.46 -3.81078 2.16128 0
M  V30 26540 C 2452.96 -4.40909 0.459822 0
M  V30 26541 H 2450.18 -0.633718 0.22055 0
M  V30 26542 H 2452.73 -1.62438 1.24234 0
M  V30 26543 H 2450.88 -3.86974 0.181678 0
M  V30 26544 H 2451.3 -4.75672 2.20989 0
M  V30 26545 H 2452.77 -5.48036 0.66034 0
M  V30 26546 H 2453.25 -4.35019 -0.604548 0
M  V30 26547 H 2453.85 -4.12088 1.05185 0
M  V30 26548 N 2452.17 -0.691135 -1.41637 0
M  V30 26549 C 2453.39 -0.227619 -2.06147 0
M  V30 26550 C 2453.82 1.11278 -1.51654 0
M  V30 26551 O 2453.18 1.69565 -0.64167 0
M  V30 26552 C 2453.22 -0.190922 -3.60094 0
M  V30 26553 O 2452.33 0.835593 -4.03846 0
M  V30 26554 H 2451.67 -0.112318 -0.654432 0
M  V30 26555 H 2454.2 -0.944746 -1.81482 0
M  V30 26556 H 2454.21 -0.0202787 -4.07995 0
M  V30 26557 H 2452.88 -1.16922 -3.99127 0
M  V30 26558 H 2451.46 0.634665 -3.67459 0
M  V30 26559 N 2453.65 1.51461 -0.435577 0
M  V30 26560 C 2454.61 2.26273 0.365097 0
M  V30 26561 C 2455.61 1.29649 0.951204 0
M  V30 26562 O 2456.8 1.53375 0.825931 0
M  V30 26563 C 2453.93 3.05317 1.51639 0
M  V30 26564 H 2455.12 2.98489 -0.290526 0
M  V30 26565 H 2452.68 1.55157 -0.188703 0
M  V30 26566 H 2453.41 2.37514 2.20812 0
M  V30 26567 H 2453.2 3.76286 1.10232 0
M  V30 26568 H 2454.69 3.61991 2.08212 0
M  V30 26569 N 2455.12 0.166873 1.56714 0
M  V30 26570 C 2456.37 -0.478271 1.96359 0
M  V30 26571 C 2456.69 -1.64078 1.05373 0
M  V30 26572 O 2455.96 -1.95537 0.119189 0
M  V30 26573 H 2454.54 -0.17968 0.725068 0
M  V30 26574 H 2457.21 0.247018 1.93328 0
M  V30 26575 H 2456.3 -0.84124 3.00549 0
M  V30 26576 N 2456.6 -1.57237 -0.106866 0
M  V30 26577 C 2457.85 -1.86635 -0.808646 0
M  V30 26578 C 2458.2 -0.756209 -1.76916 0
M  V30 26579 O 2457.5 0.242801 -1.90055 0
M  V30 26580 C 2457.69 -3.20271 -1.58622 0
M  V30 26581 C 2457.52 -4.44179 -0.702514 0
M  V30 26582 C 2456.29 -5.04067 -0.352719 0
M  V30 26583 C 2458.49 -5.14298 -0.0147127 0
M  V30 26584 N 2456.47 -6.11517 0.540387 0
M  V30 26585 C 2457.84 -6.15605 0.736917 0
M  V30 26586 C 2459.9 -4.97863 0.0604399 0
M  V30 26587 C 2458.6 -7.02254 1.55666 0
M  V30 26588 C 2460.62 -5.8501 0.867045 0
M  V30 26589 C 2459.99 -6.85828 1.60683 0
M  V30 26590 H 2456.09 -0.733005 -0.272447 0
M  V30 26591 H 2458.67 -1.94568 -0.0717516 0
M  V30 26592 H 2456.84 -3.13412 -2.29407 0
M  V30 26593 H 2458.57 -3.37434 -2.23428 0
M  V30 26594 H 2455.33 -4.68432 -0.69772 0
M  V30 26595 H 2455.75 -6.69882 0.979147 0
M  V30 26596 H 2460.39 -4.19867 -0.497162 0
M  V30 26597 H 2458.11 -7.7965 2.12537 0
M  V30 26598 H 2461.7 -5.74356 0.927713 0
M  V30 26599 H 2460.58 -7.52093 2.22093 0
M  V30 26600 N 2458.08 0.377381 -1.53015 0
M  V30 26601 C 2459.36 1.13619 -1.59217 0
M  V30 26602 C 2459.74 2.0742 -0.392444 0
M  V30 26603 O 2459.09 2.19976 0.618303 0
M  V30 26604 C 2459.3 1.88568 -2.93672 0
M  V30 26605 C 2460.64 2.43519 -3.47827 0
M  V30 26606 O 2461.67 1.9871 -2.95623 0
M  V30 26607 O 2460.53 3.25404 -4.39061 0
M  V30 26608 H 2457.62 0.520529 -0.642634 0
M  V30 26609 H 2460.17 0.381596 -1.65354 0
M  V30 26610 H 2458.94 1.20042 -3.72432 0
M  V30 26611 H 2458.56 2.70963 -2.90972 0
M  V30 26612 N 2459.56 1.44175 0.636506 0
M  V30 26613 C 2460.81 1.46385 1.39341 0
M  V30 26614 C 2461.13 0.0956057 1.94765 0
M  V30 26615 O 2460.4 -0.871365 1.75454 0
M  V30 26616 H 2458.98 0.539003 0.517189 0
M  V30 26617 H 2461.64 1.79911 0.749538 0
M  V30 26618 H 2460.74 2.18615 2.22742 0
M  V30 26619 N 2461.04 -0.876421 1.30983 0
M  V30 26620 C 2461.97 -1.99901 1.20672 0
M  V30 26621 C 2462.95 -1.69832 0.0953838 0
M  V30 26622 O 2464.13 -1.92187 0.278884 0
M  V30 26623 C 2461.26 -3.35258 0.906609 0
M  V30 26624 C 2460.22 -3.79613 1.97681 0
M  V30 26625 C 2459.54 -5.12357 1.52952 0
M  V30 26626 C 2460.84 -3.97416 3.38907 0
M  V30 26627 H 2462.54 -2.08786 2.1459 0
M  V30 26628 H 2460.08 -1.00315 1.0331 0
M  V30 26629 H 2462.04 -4.13323 0.821098 0
M  V30 26630 H 2460.76 -3.26529 -0.0682395 0
M  V30 26631 H 2459.42 -3.03783 2.05211 0
M  V30 26632 H 2459.07 -5.00064 0.542707 0
M  V30 26633 H 2458.77 -5.43005 2.24542 0
M  V30 26634 H 2460.29 -5.92938 1.45796 0
M  V30 26635 H 2461.7 -4.65894 3.34089 0
M  V30 26636 H 2460.1 -4.39453 4.08658 0
M  V30 26637 H 2461.17 -3.00999 3.80168 0
M  V30 26638 N 2462.51 -1.13839 -1.08989 0
M  V30 26639 C 2463.44 -0.842545 -2.17769 0
M  V30 26640 C 2464.43 0.199981 -1.6892 0
M  V30 26641 O 2465.61 0.0579389 -1.94114 0
M  V30 26642 C 2462.74 -0.312705 -3.45889 0
M  V30 26643 C 2461.69 -1.28999 -4.08097 0
M  V30 26644 C 2461.02 -0.619716 -5.31097 0
M  V30 26645 C 2462.32 -2.65013 -4.50073 0
M  V30 26646 H 2464.01 -1.75217 -2.42774 0
M  V30 26647 H 2461.56 -0.843895 -1.16681 0
M  V30 26648 H 2463.51 -0.0933784 -4.21297 0
M  V30 26649 H 2462.24 0.632326 -3.2042 0
M  V30 26650 H 2460.9 -1.49539 -3.34714 0
M  V30 26651 H 2460.54 0.330931 -5.0191 0
M  V30 26652 H 2460.24 -1.27177 -5.73672 0
M  V30 26653 H 2461.77 -0.409776 -6.09223 0
M  V30 26654 H 2463.18 -2.48416 -5.16684 0
M  V30 26655 H 2461.58 -3.26436 -5.03547 0
M  V30 26656 H 2462.65 -3.22338 -3.62252 0
M  V30 26657 N 2463.99 1.27046 -0.932584 0
M  V30 26658 C 2465.22 1.98786 -0.591509 0
M  V30 26659 C 2465.64 1.69063 0.824571 0
M  V30 26660 O 2465 0.933704 1.55408 0
M  V30 26661 C 2465.05 3.50921 -0.82987 0
M  V30 26662 O 2464.15 4.12273 0.102194 0
M  V30 26663 H 2463.49 0.623922 -0.227196 0
M  V30 26664 H 2466.02 1.61731 -1.25317 0
M  V30 26665 H 2466.03 4.01097 -0.747362 0
M  V30 26666 H 2464.71 3.71886 -1.86208 0
M  V30 26667 H 2463.29 3.72887 -0.0306417 0
M  V30 26668 N 2465.47 0.698636 1.41269 0
M  V30 26669 C 2466.88 0.305321 1.84187 0
M  V30 26670 C 2467.23 -1.15705 1.58451 0
M  V30 26671 O 2466.36 -1.88855 1.05655 0
M  V30 26672 C 2466.95 0.547373 3.34349 0
M  V30 26673 C 2465.51 0.207944 3.75825 0
M  V30 26674 C 2464.66 0.828145 2.64645 0
M  V30 26675 H 2467.61 0.899063 1.30777 0
M  V30 26676 H 2467.63 -0.192931 3.80011 0
M  V30 26677 H 2467.14 1.61178 3.53048 0
M  V30 26678 H 2465.24 -0.852079 3.62726 0
M  V30 26679 H 2465.36 0.665105 4.74461 0
M  V30 26680 H 2463.72 0.257503 2.53395 0
M  V30 26681 H 2464.5 1.89648 2.86161 0
M  V30 26682 N 2466.95 -1.51228 0.443603 0
M  V30 26683 C 2468.2 -2.01329 -0.122297 0
M  V30 26684 C 2468.51 -1.33203 -1.43235 0
M  V30 26685 O 2469.72 -1.74308 -2.08156 0
M  V30 26686 C 2468.17 -3.58897 -0.268488 0
M  V30 26687 C 2467.78 -4.35963 1.0315 0
M  V30 26688 C 2469.52 -4.17125 -0.787821 0
M  V30 26689 C 2467.43 -5.85251 0.850607 0
M  V30 26690 H 2466.36 -0.752375 -0.0494797 0
M  V30 26691 H 2469.01 -1.74281 0.57432 0
M  V30 26692 H 2467.39 -3.82417 -1.02825 0
M  V30 26693 H 2468.57 -4.24186 1.80008 0
M  V30 26694 H 2466.88 -3.89217 1.47984 0
M  V30 26695 H 2469.48 -5.26377 -0.939749 0
M  V30 26696 H 2469.82 -3.76707 -1.77194 0
M  V30 26697 H 2470.36 -3.97707 -0.086197 0
M  V30 26698 H 2467.1 -6.30093 1.80729 0
M  V30 26699 H 2466.62 -5.99676 0.12193 0
M  V30 26700 H 2468.29 -6.45016 0.506276 0
M  V30 26701 N 2468.43 -0.175182 -1.56623 0
M  V30 26702 C 2469.36 0.749156 -2.21156 0
M  V30 26703 C 2470.34 1.23624 -1.16838 0
M  V30 26704 O 2471.52 1.2887 -1.4528 0
M  V30 26705 C 2468.65 1.97706 -2.85534 0
M  V30 26706 C 2467.61 1.62568 -3.95924 0
M  V30 26707 C 2466.93 2.92856 -4.4737 0
M  V30 26708 C 2468.23 0.850747 -5.15325 0
M  V30 26709 H 2469.93 0.211242 -2.98654 0
M  V30 26710 H 2467.47 0.100163 -1.43651 0
M  V30 26711 H 2469.43 2.62875 -3.29355 0
M  V30 26712 H 2468.15 2.53918 -2.0541 0
M  V30 26713 H 2466.81 0.997657 -3.52764 0
M  V30 26714 H 2466.46 3.47115 -3.64033 0
M  V30 26715 H 2466.16 2.70097 -5.21844 0
M  V30 26716 H 2467.68 3.59048 -4.9388 0
M  V30 26717 H 2469.09 1.40511 -5.55814 0
M  V30 26718 H 2467.49 0.72205 -5.9574 0
M  V30 26719 H 2468.56 -0.152167 -4.84661 0
M  V30 26720 N 2469.91 1.57292 0.0985263 0
M  V30 26721 C 2470.85 2.02823 1.13866 0
M  V30 26722 C 2471.85 0.928691 1.41675 0
M  V30 26723 O 2473.05 1.11387 1.41396 0
M  V30 26724 H 2469.43 0.646324 0.384408 0
M  V30 26725 H 2471.4 2.89376 0.728296 0
M  V30 26726 C 2470.15 2.46558 2.45162 0
M  V30 26727 H 2469.47 3.30744 2.24607 0
M  V30 26728 H 2470.91 2.82196 3.16451 0
M  V30 26729 C 2469.37 1.33747 3.09214 0
M  V30 26730 O 2469.9 0.66471 3.96162 0
M  V30 26731 N 2468.11 1.08932 2.69411 0
M  V30 26732 H 2467.65 1.63821 1.98798 0
M  V30 26733 H 2467.61 0.336513 3.12594 0
M  V30 26734 N 2471.38 -0.369261 1.53213 0
M  V30 26735 C 2472.61 -1.133 1.73121 0
M  V30 26736 C 2473.03 -1.83148 0.458487 0
M  V30 26737 O 2472.38 -1.73424 -0.568372 0
M  V30 26738 C 2472.43 -2.16611 2.89417 0
M  V30 26739 O 2472.16 -1.49607 4.11764 0
M  V30 26740 C 2473.66 -3.0556 3.21167 0
M  V30 26741 H 2470.88 -0.338924 0.579113 0
M  V30 26742 H 2473.42 -0.429302 1.99943 0
M  V30 26743 H 2471.58 -2.82585 2.64999 0
M  V30 26744 H 2471.99 -2.18411 4.76862 0
M  V30 26745 H 2473.46 -3.74038 4.05955 0
M  V30 26746 H 2473.94 -3.70166 2.36376 0
M  V30 26747 H 2474.55 -2.45207 3.47496 0
M  V30 26748 N 2472.86 -1.4451 -0.628851 0
M  V30 26749 C 2474.11 -1.47122 -1.38562 0
M  V30 26750 C 2474.43 -0.105933 -1.94712 0
M  V30 26751 O 2473.7 0.862048 -1.75913 0
M  V30 26752 H 2472.28 -0.541738 -0.514324 0
M  V30 26753 H 2474.94 -1.80306 -0.739986 0
M  V30 26754 H 2474.04 -2.19793 -2.21579 0
M  V30 26755 N 2474.34 0.869463 -1.31446 0
M  V30 26756 C 2475.75 1.43824 -1.19044 0
M  V30 26757 C 2476.1 1.95148 0.202884 0
M  V30 26758 O 2475.23 1.86317 1.10067 0
M  V30 26759 C 2475.82 2.61426 -2.15504 0
M  V30 26760 C 2474.38 3.14347 -2.07034 0
M  V30 26761 C 2473.53 1.8706 -2.04705 0
M  V30 26762 H 2476.48 0.677959 -1.4349 0
M  V30 26763 H 2476.5 3.38131 -1.74493 0
M  V30 26764 H 2476.01 2.24041 -3.16903 0
M  V30 26765 H 2474.11 3.56352 -1.08831 0
M  V30 26766 H 2474.23 3.76595 -2.96164 0
M  V30 26767 H 2472.59 2.06043 -1.49727 0
M  V30 26768 H 2473.37 1.51911 -3.0786 0
M  V30 26769 N 2475.82 1.14415 1.08383 0
M  V30 26770 C 2477.23 0.923564 1.62257 0
M  V30 26771 C 2477.58 -0.537562 1.88692 0
M  V30 26772 O 2476.7 -1.40652 1.64457 0
M  V30 26773 C 2477.3 1.67008 2.94778 0
M  V30 26774 C 2475.86 1.49506 3.45434 0
M  V30 26775 C 2475.01 1.69242 2.19665 0
M  V30 26776 H 2477.96 1.29592 0.916064 0
M  V30 26777 H 2477.98 1.13341 3.63227 0
M  V30 26778 H 2477.49 2.73346 2.75506 0
M  V30 26779 H 2475.59 0.455162 3.69809 0
M  V30 26780 H 2475.7 2.26518 4.22169 0
M  V30 26781 H 2474.07 1.11808 2.28847 0
M  V30 26782 H 2474.85 2.76923 2.029 0
M  V30 26783 N 2477.3 -1.26549 0.939309 0
M  V30 26784 C 2478.53 -1.97644 0.601697 0
M  V30 26785 C 2478.93 -1.7016 -0.827176 0
M  V30 26786 O 2478.28 -0.965366 -1.56289 0
M  V30 26787 C 2478.34 -3.51336 0.761787 0
M  V30 26788 C 2478 -4.02466 2.16494 0
M  V30 26789 C 2479 -4.14349 3.14024 0
M  V30 26790 C 2476.68 -4.36523 2.48501 0
M  V30 26791 C 2478.68 -4.59579 4.41662 0
M  V30 26792 C 2476.37 -4.81442 3.76373 0
M  V30 26793 C 2477.36 -4.92931 4.72766 0
M  V30 26794 O 2477.05 -5.3686 5.98361 0
M  V30 26795 H 2476.78 -0.637185 0.225769 0
M  V30 26796 H 2479.34 -1.62073 1.26181 0
M  V30 26797 H 2477.57 -3.86674 0.0445488 0
M  V30 26798 H 2479.26 -4.03642 0.427513 0
M  V30 26799 H 2480.02 -3.88285 2.90619 0
M  V30 26800 H 2475.9 -4.26816 1.74209 0
M  V30 26801 H 2479.45 -4.68461 5.16904 0
M  V30 26802 H 2475.34 -5.06949 3.99591 0
M  V30 26803 H 2476.11 -5.55086 6.01516 0
M  V30 26804 N 2478.77 -0.706118 -1.40896 0
M  V30 26805 C 2480.01 -0.245862 -2.02916 0
M  V30 26806 C 2480.38 1.13646 -1.54753 0
M  V30 26807 O 2481.58 1.69317 -2.08771 0
M  V30 26808 C 2479.85 -0.3126 -3.5603 0
M  V30 26809 S 2481.41 0.0720617 -4.38741 0
M  V30 26810 H 2478.23 -0.0982131 -0.704184 0
M  V30 26811 H 2480.83 -0.926238 -1.72166 0
M  V30 26812 H 2479.53 -1.32046 -3.88577 0
M  V30 26813 H 2479.06 0.386572 -3.91496 0
M  V30 26814 H 2481.08 1.29683 -4.78954 0
M  V30 26815 N 2480.25 1.50991 -0.451617 0
M  V30 26816 C 2481.53 1.94854 0.170672 0
M  V30 26817 C 2481.91 1.39106 1.58786 0
M  V30 26818 O 2481.26 0.58396 2.20912 0
M  V30 26819 C 2481.47 3.48743 0.133867 0
M  V30 26820 C 2482.81 4.23297 0.332405 0
M  V30 26821 O 2483.84 3.55572 0.211341 0
M  V30 26822 O 2482.7 5.43469 0.574765 0
M  V30 26823 H 2479.79 0.817914 0.12225 0
M  V30 26824 H 2482.34 1.61836 -0.510622 0
M  V30 26825 H 2481.11 3.81815 -0.85635 0
M  V30 26826 H 2480.73 3.88244 0.857461 0
M  V30 26827 N 2481.73 0.183486 1.56528 0
M  V30 26828 C 2483.14 -0.331144 1.8374 0
M  V30 26829 C 2483.49 -1.62209 1.10375 0
M  V30 26830 O 2482.62 -2.13372 0.360747 0
M  V30 26831 C 2483.21 -0.607587 3.33307 0
M  V30 26832 C 2481.77 -1.06662 3.60971 0
M  V30 26833 C 2480.92 -0.10898 2.77086 0
M  V30 26834 H 2483.87 0.407511 1.53379 0
M  V30 26835 H 2483.89 -1.45826 3.51447 0
M  V30 26836 H 2483.4 0.332154 3.86676 0
M  V30 26837 H 2481.5 -2.02104 3.13025 0
M  V30 26838 H 2481.62 -0.967364 4.69232 0
M  V30 26839 H 2479.98 -0.60867 2.4732 0
M  V30 26840 H 2480.76 0.824998 3.3324 0
M  V30 26841 N 2483.21 -1.57342 -0.0901833 0
M  V30 26842 C 2484.16 -2.03424 -1.12789 0
M  V30 26843 C 2485.15 -0.936191 -1.4118 0
M  V30 26844 O 2486.36 -1.12136 -1.40803 0
M  V30 26845 H 2482.73 -0.648354 -0.380975 0
M  V30 26846 H 2484.7 -2.89758 -0.712939 0
M  V30 26847 C 2483.45 -2.47855 -2.43851 0
M  V30 26848 H 2482.77 -3.31931 -2.2285 0
M  V30 26849 H 2484.21 -2.8387 -3.1495 0
M  V30 26850 C 2482.67 -1.35385 -3.085 0
M  V30 26851 O 2483.2 -0.68571 -3.95804 0
M  V30 26852 N 2481.41 -1.1036 -2.68829 0
M  V30 26853 H 2480.96 -1.64873 -1.97926 0
M  V30 26854 H 2480.91 -0.353086 -3.12411 0
M  V30 26855 N 2484.69 0.36113 -1.53407 0
M  V30 26856 C 2485.62 1.44853 -1.83139 0
M  V30 26857 C 2486.6 1.55689 -0.685201 0
M  V30 26858 O 2487.78 1.70184 -0.93547 0
M  V30 26859 C 2484.91 2.82135 -2.02527 0
M  V30 26860 C 2483.87 2.8612 -3.18307 0
M  V30 26861 C 2483.19 4.26119 -3.22996 0
M  V30 26862 C 2484.49 2.5324 -4.56801 0
M  V30 26863 H 2486.19 1.20221 -2.74203 0
M  V30 26864 H 2483.73 0.576899 -1.31939 0
M  V30 26865 H 2485.69 3.58237 -2.2191 0
M  V30 26866 H 2484.41 3.08164 -1.08177 0
M  V30 26867 H 2483.07 2.12469 -2.98751 0
M  V30 26868 H 2482.72 4.49231 -2.26275 0
M  V30 26869 H 2482.42 4.29701 -4.00788 0
M  V30 26870 H 2483.94 5.04088 -3.44568 0
M  V30 26871 H 2485.35 3.19056 -4.76315 0
M  V30 26872 H 2483.75 2.68131 -5.36866 0
M  V30 26873 H 2484.82 1.48476 -4.61609 0
M  V30 26874 N 2486.16 1.44842 0.621179 0
M  V30 26875 C 2487.58 1.42779 1.20296 0
M  V30 26876 C 2487.93 0.148293 1.95639 0
M  V30 26877 O 2487.05 -0.750857 2.02956 0
M  V30 26878 C 2487.65 2.58661 2.18815 0
M  V30 26879 C 2486.21 2.59761 2.72399 0
M  V30 26880 C 2485.35 2.34776 1.47566 0
M  V30 26881 H 2488.3 1.53278 0.41127 0
M  V30 26882 H 2488.32 2.31983 3.01603 0
M  V30 26883 H 2487.84 3.51769 1.63951 0
M  V30 26884 H 2485.94 1.70621 3.31239 0
M  V30 26885 H 2486.05 3.58561 3.17759 0
M  V30 26886 H 2484.41 1.84064 1.76047 0
M  V30 26887 H 2485.2 3.30012 0.945896 0
M  V30 26888 N 2487.64 -0.862479 1.31905 0
M  V30 26889 C 2488.59 -1.99178 1.20128 0
M  V30 26890 C 2489.58 -1.69056 0.107854 0
M  V30 26891 O 2490.79 -1.7796 0.270254 0
M  V30 26892 H 2487.17 -0.653454 0.372159 0
M  V30 26893 H 2489.14 -2.0624 2.15656 0
M  V30 26894 C 2487.89 -3.34944 0.933158 0
M  V30 26895 H 2487.21 -3.58647 1.7667 0
M  V30 26896 H 2488.65 -4.14533 0.890964 0
M  V30 26897 C 2487.11 -3.34927 -0.364113 0
M  V30 26898 O 2487.64 -3.77306 -1.37851 0
M  V30 26899 N 2485.84 -2.88061 -0.383311 0
M  V30 26900 H 2485.39 -2.53768 0.442695 0
M  V30 26901 H 2485.35 -2.88432 -1.25118 0
M  V30 26902 N 2489.12 -1.14988 -1.07775 0
M  V30 26903 C 2490.35 -0.946246 -1.84556 0
M  V30 26904 C 2490.77 0.50033 -1.81324 0
M  V30 26905 O 2490.13 1.35635 -1.20303 0
M  V30 26906 C 2490.18 -1.45973 -3.29733 0
M  V30 26907 O 2489.28 -0.656081 -4.07148 0
M  V30 26908 H 2488.62 -0.33783 -0.571635 0
M  V30 26909 H 2491.15 -1.52867 -1.35988 0
M  V30 26910 H 2491.16 -1.4707 -3.80571 0
M  V30 26911 H 2489.84 -2.51289 -3.31401 0
M  V30 26912 H 2488.41 -0.714386 -3.65993 0
M  V30 26913 N 2490.6 1.26049 -0.946007 0
M  V30 26914 C 2491.55 2.282 -0.450299 0
M  V30 26915 C 2492.54 1.62606 0.474941 0
M  V30 26916 O 2493.75 1.76512 0.352622 0
M  V30 26917 H 2490.12 0.741182 -0.127095 0
M  V30 26918 H 2492.09 2.67405 -1.32427 0
M  V30 26919 C 2490.84 3.46692 0.264609 0
M  V30 26920 H 2490.16 3.97391 -0.438193 0
M  V30 26921 H 2491.6 4.20075 0.575604 0
M  V30 26922 C 2490.06 3.0245 1.48411 0
M  V30 26923 O 2490.59 3.07709 2.58221 0
M  V30 26924 N 2488.8 2.57737 1.34238 0
M  V30 26925 H 2488.35 2.53658 0.44895 0
M  V30 26926 H 2488.3 2.28499 2.15953 0
M  V30 26927 N 2492.08 0.71358 1.4052 0
M  V30 26928 C 2493.32 0.251727 2.00526 0
M  V30 26929 C 2493.65 -1.15845 1.56859 0
M  V30 26930 O 2492.92 -1.78499 0.807159 0
M  V30 26931 H 2491.5 0.0900777 0.741549 0
M  V30 26932 H 2494.16 0.918763 1.71886 0
M  V30 26933 H 2493.25 0.283246 3.10812 0
M  V30 26934 N 2493.55 -1.50749 0.459618 0
M  V30 26935 C 2494.78 -2.06671 -0.0973386 0
M  V30 26936 C 2495.2 -1.32475 -1.34521 0
M  V30 26937 O 2494.55 -0.390665 -1.7827 0
M  V30 26938 C 2494.61 -3.59313 -0.397077 0
M  V30 26939 O 2494.33 -4.3071 0.801289 0
M  V30 26940 C 2495.83 -4.31821 -1.00226 0
M  V30 26941 H 2493.05 -0.670997 0.00197033 0
M  V30 26942 H 2495.59 -1.94058 0.645106 0
M  V30 26943 H 2493.75 -3.71766 -1.08944 0
M  V30 26944 H 2494.16 -5.21724 0.538949 0
M  V30 26945 H 2495.63 -5.39634 -1.16184 0
M  V30 26946 H 2496.11 -3.91564 -1.98933 0
M  V30 26947 H 2496.72 -4.23869 -0.348625 0
M  V30 26948 N 2495.03 -0.191784 -1.56429 0
M  V30 26949 C 2496.45 0.164109 -1.58754 0
M  V30 26950 C 2496.65 1.61286 -1.20785 0
M  V30 26951 O 2495.7 2.34787 -0.92904 0
M  V30 26952 C 2497.02 -0.135248 -3.00396 0
M  V30 26953 C 2498.57 -0.0750901 -3.1291 0
M  V30 26954 C 2499.04 -0.347712 -4.56678 0
M  V30 26955 N 2500.53 -0.296212 -4.62252 0
M  V30 26956 C 2501.27 -0.481048 -5.71379 0
M  V30 26957 N 2500.76 -0.726054 -6.88985 0
M  V30 26958 N 2502.56 -0.415534 -5.60562 0
M  V30 26959 H 2494.71 -1.13721 -1.79391 0
M  V30 26960 H 2496.97 -0.453657 -0.832406 0
M  V30 26961 H 2496.68 -1.13964 -3.32724 0
M  V30 26962 H 2496.55 0.563708 -3.72964 0
M  V30 26963 H 2498.94 0.919899 -2.80396 0
M  V30 26964 H 2499.02 -0.807071 -2.42734 0
M  V30 26965 H 2498.66 -1.34 -4.89904 0
M  V30 26966 H 2498.59 0.40512 -5.25039 0
M  V30 26967 H 2501.08 -0.113326 -3.7773 0
M  V30 26968 H 2501.4 -0.855992 -7.68045 0
M  V30 26969 H 2499.74 -0.762909 -6.908 0
M  V30 26970 H 2502.93 -0.224568 -4.67561 0
M  V30 26971 H 2503.1 -0.563002 -6.4555 0
M  V30 26972 N 2496.51 1.57387 0.0818378 0
M  V30 26973 C 2497.76 1.86386 0.781335 0
M  V30 26974 C 2498.08 0.782374 1.78617 0
M  V30 26975 O 2497.35 -0.190027 1.94976 0
M  V30 26976 H 2495.93 0.687756 0.29155 0
M  V30 26977 H 2498.59 1.94807 0.0603137 0
M  V30 26978 H 2497.69 2.83564 1.30375 0
M  V30 26979 N 2497.99 -0.35299 1.53596 0
M  V30 26980 C 2499.27 -1.11072 1.61004 0
M  V30 26981 C 2499.65 -2.06769 0.425393 0
M  V30 26982 O 2498.99 -2.20931 -0.583229 0
M  V30 26983 C 2499.2 -1.83872 2.96635 0
M  V30 26984 C 2500.55 -2.37955 3.51657 0
M  V30 26985 O 2501.58 -1.93981 2.98747 0
M  V30 26986 O 2500.43 -3.18378 4.44182 0
M  V30 26987 H 2497.53 -0.510239 0.650834 0
M  V30 26988 H 2500.07 -0.355241 1.6594 0
M  V30 26989 H 2498.85 -1.14101 3.74295 0
M  V30 26990 H 2498.47 -2.66299 2.95246 0
M  V30 26991 N 2499.47 -1.45169 -0.613489 0
M  V30 26992 C 2500.71 -1.50413 -1.38403 0
M  V30 26993 C 2501.07 -0.139955 -1.91489 0
M  V30 26994 O 2502.27 -0.0670803 -2.68716 0
M  V30 26995 C 2500.54 -2.54874 -2.50547 0
M  V30 26996 S 2502.1 -2.79298 -3.38434 0
M  V30 26997 H 2498.92 -0.531788 -0.471935 0
M  V30 26998 H 2501.52 -1.82211 -0.708486 0
M  V30 26999 H 2500.23 -3.52669 -2.09887 0
M  V30 27000 H 2499.76 -2.24707 -3.22909 0
M  V30 27001 H 2501.77 -2.1223 -4.48523 0
M  V30 27002 N 2500.95 0.855472 -1.32361 0
M  V30 27003 C 2502.19 1.60642 -1.22632 0
M  V30 27004 C 2502.51 1.93843 0.212102 0
M  V30 27005 O 2501.78 1.59554 1.13663 0
M  V30 27006 H 2500.36 0.595571 -0.450893 0
M  V30 27007 H 2503.03 1.02334 -1.65873 0
M  V30 27008 H 2502.12 2.54371 -1.80836 0
M  V30 27009 N 2502.42 1.15558 1.07164 0
M  V30 27010 C 2503.65 0.95602 1.84052 0
M  V30 27011 C 2504.07 -0.490707 1.81587 0
M  V30 27012 O 2503.43 -1.34995 1.21021 0
M  V30 27013 C 2503.48 1.4772 3.28955 0
M  V30 27014 O 2502.58 0.677664 4.06794 0
M  V30 27015 H 2501.92 0.340857 0.569836 0
M  V30 27016 H 2504.45 1.53586 1.35175 0
M  V30 27017 H 2504.46 1.49086 3.79786 0
M  V30 27018 H 2503.14 2.53043 3.30064 0
M  V30 27019 H 2501.72 0.733786 3.65609 0
M  V30 27020 N 2503.9 -1.25546 0.952678 0
M  V30 27021 C 2505.31 -1.75115 0.647423 0
M  V30 27022 C 2505.66 -1.77439 -0.837243 0
M  V30 27023 O 2504.79 -1.39396 -1.65523 0
M  V30 27024 C 2505.38 -3.18012 1.1685 0
M  V30 27025 C 2503.94 -3.65148 0.913446 0
M  V30 27026 C 2503.09 -2.44262 1.31269 0
M  V30 27027 H 2506.04 -1.1146 1.1297 0
M  V30 27028 H 2506.06 -3.76823 0.527672 0
M  V30 27029 H 2505.57 -3.16288 2.24908 0
M  V30 27030 H 2503.67 -3.72289 -0.15225 0
M  V30 27031 H 2503.79 -4.53384 1.54853 0
M  V30 27032 H 2502.15 -2.43982 0.731071 0
M  V30 27033 H 2502.93 -2.4523 2.40244 0
M  V30 27034 N 2505.38 -0.721022 -1.40139 0
M  V30 27035 C 2506.34 -0.0806236 -2.29058 0
M  V30 27036 C 2507.34 0.681733 -1.45633 0
M  V30 27037 O 2508.53 0.512827 -1.6648 0
M  V30 27038 C 2505.66 0.895535 -3.28927 0
M  V30 27039 H 2506.86 -0.863843 -2.87189 0
M  V30 27040 H 2504.41 -0.486001 -1.48552 0
M  V30 27041 H 2505.15 1.70561 -2.75825 0
M  V30 27042 H 2504.93 0.351698 -3.9052 0
M  V30 27043 H 2506.42 1.34062 -3.95496 0
M  V30 27044 N 2506.86 1.50503 -0.467606 0
M  V30 27045 C 2508.1 2.02606 0.0887176 0
M  V30 27046 C 2508.44 1.34915 1.39683 0
M  V30 27047 O 2507.71 0.473727 1.88643 0
M  V30 27048 C 2507.99 3.5904 0.276143 0
M  V30 27049 C 2507.85 4.37307 -1.05275 0
M  V30 27050 C 2509.17 4.27823 1.03227 0
M  V30 27051 H 2506.29 0.736357 0.0307684 0
M  V30 27052 H 2508.93 1.79856 -0.612517 0
M  V30 27053 H 2507.08 3.78554 0.873433 0
M  V30 27054 H 2508.75 4.29372 -1.68635 0
M  V30 27055 H 2506.99 4.01186 -1.65022 0
M  V30 27056 H 2507.66 5.45016 -0.875293 0
M  V30 27057 H 2510.14 4.12761 0.526038 0
M  V30 27058 H 2509.02 5.37096 1.13221 0
M  V30 27059 H 2509.28 3.90751 2.06799 0
M  V30 27060 N 2508.34 0.200077 1.56325 0
M  V30 27061 C 2509.58 -0.436513 1.9733 0
M  V30 27062 C 2509.9 -1.61806 1.08829 0
M  V30 27063 O 2509.17 -1.9524 0.160638 0
M  V30 27064 H 2507.75 -0.164259 0.728717 0
M  V30 27065 H 2510.42 0.287971 1.92761 0
M  V30 27066 H 2509.51 -0.777299 3.02266 0
M  V30 27067 N 2509.81 -1.57429 -0.0734901 0
M  V30 27068 C 2511.06 -1.8635 -0.771777 0
M  V30 27069 C 2511.38 -0.792484 -1.78827 0
M  V30 27070 O 2512.58 -0.969494 -2.536 0
M  V30 27071 C 2511.04 -3.30551 -1.42352 0
M  V30 27072 C 2510.65 -4.45778 -0.445683 0
M  V30 27073 C 2512.39 -3.68674 -2.10427 0
M  V30 27074 C 2510.3 -5.81018 -1.10325 0
M  V30 27075 H 2509.23 -0.695169 -0.291987 0
M  V30 27076 H 2511.88 -1.83483 -0.0250427 0
M  V30 27077 H 2510.26 -3.28025 -2.21846 0
M  V30 27078 H 2511.43 -4.59692 0.319319 0
M  V30 27079 H 2509.75 -4.16195 0.13053 0
M  V30 27080 H 2512.35 -4.67009 -2.60397 0
M  V30 27081 H 2512.69 -2.98388 -2.90293 0
M  V30 27082 H 2513.22 -3.73182 -1.37767 0
M  V30 27083 H 2509.96 -6.54592 -0.344946 0
M  V30 27084 H 2509.48 -5.70907 -1.83915 0
M  V30 27085 H 2511.16 -6.26298 -1.62356 0
M  V30 27086 N 2511.29 0.344839 -1.53781 0
M  V30 27087 C 2512.54 1.08264 -1.70181 0
M  V30 27088 C 2512.85 1.89844 -0.471033 0
M  V30 27089 O 2514.06 2.66552 -0.515964 0
M  V30 27090 C 2512.52 1.97412 -3.00926 0
M  V30 27091 C 2512.12 1.21046 -4.31337 0
M  V30 27092 C 2513.87 2.71058 -3.26693 0
M  V30 27093 C 2511.77 2.09216 -5.53157 0
M  V30 27094 H 2510.7 0.407892 -0.634145 0
M  V30 27095 H 2513.36 0.342215 -1.80281 0
M  V30 27096 H 2511.74 2.75269 -2.84681 0
M  V30 27097 H 2512.91 0.481079 -4.58282 0
M  V30 27098 H 2511.23 0.59174 -4.12174 0
M  V30 27099 H 2513.82 3.37292 -4.14895 0
M  V30 27100 H 2514.17 3.37554 -2.43645 0
M  V30 27101 H 2514.7 2.00274 -3.43708 0
M  V30 27102 H 2511.44 1.47263 -6.38744 0
M  V30 27103 H 2510.96 2.79946 -5.30463 0
M  V30 27104 H 2512.64 2.68298 -5.88749 0
M  V30 27105 N 2512.77 1.45492 0.605781 0
M  V30 27106 C 2514.02 1.49603 1.36474 0
M  V30 27107 C 2514.34 0.138486 1.94006 0
M  V30 27108 O 2513.6 -0.863083 1.7564 0
M  V30 27109 C 2513.9 2.52432 2.53007 0
M  V30 27110 C 2513.56 3.97091 2.1361 0
M  V30 27111 C 2512.23 4.3648 2.0258 0
M  V30 27112 C 2514.58 4.88058 1.82891 0
M  V30 27113 C 2511.91 5.64729 1.59054 0
M  V30 27114 C 2514.26 6.1672 1.4085 0
M  V30 27115 C 2512.92 6.55038 1.2838 0
M  V30 27116 H 2512.19 0.547437 0.499393 0
M  V30 27117 H 2514.84 1.78848 0.684515 0
M  V30 27118 H 2513.14 2.16764 3.26375 0
M  V30 27119 H 2514.84 2.5285 3.11236 0
M  V30 27120 H 2511.43 3.65943 2.23122 0
M  V30 27121 H 2515.62 4.58362 1.90309 0
M  V30 27122 H 2510.87 5.93211 1.48023 0
M  V30 27123 H 2515.05 6.8665 1.16126 0
M  V30 27124 H 2512.67 7.54313 0.94427 0
M  V30 27125 N 2514.25 -0.848441 1.32813 0
M  V30 27126 C 2515.5 -1.60306 1.23727 0
M  V30 27127 C 2515.82 -1.93476 -0.199366 0
M  V30 27128 O 2515.08 -1.58052 -1.15404 0
M  V30 27129 C 2515.38 -2.92877 2.04836 0
M  V30 27130 C 2515.04 -2.79111 3.5413 0
M  V30 27131 C 2513.71 -2.75063 3.94834 0
M  V30 27132 C 2516.06 -2.64598 4.49041 0
M  V30 27133 C 2513.39 -2.5439 5.2868 0
M  V30 27134 C 2515.74 -2.45459 5.83037 0
M  V30 27135 C 2514.4 -2.39808 6.22935 0
M  V30 27136 H 2513.67 -0.586601 0.452748 0
M  V30 27137 H 2516.32 -0.983714 1.64303 0
M  V30 27138 H 2514.62 -3.58965 1.57008 0
M  V30 27139 H 2516.32 -3.50299 1.9517 0
M  V30 27140 H 2512.91 -2.83088 3.21806 0
M  V30 27141 H 2517.09 -2.66765 4.18509 0
M  V30 27142 H 2512.35 -2.48455 5.58641 0
M  V30 27143 H 2516.52 -2.33211 6.5619 0
M  V30 27144 H 2514.15 -2.23549 7.26588 0
M  V30 27145 N 2515.73 -1.16125 -1.06549 0
M  V30 27146 C 2516.95 -0.96527 -1.83003 0
M  V30 27147 C 2517.37 0.48651 -1.82424 0
M  V30 27148 O 2516.73 1.33761 -1.24155 0
M  V30 27149 C 2516.78 -1.48189 -3.29731 0
M  V30 27150 O 2516.5 -2.8768 -3.30411 0
M  V30 27151 C 2518 -1.32855 -4.22924 0
M  V30 27152 H 2515.22 -0.342319 -0.577112 0
M  V30 27153 H 2517.76 -1.54091 -1.34447 0
M  V30 27154 H 2515.92 -0.948583 -3.75607 0
M  V30 27155 H 2516.33 -3.11279 -4.22144 0
M  V30 27156 H 2517.81 -1.73837 -5.23913 0
M  V30 27157 H 2518.28 -0.273769 -4.38346 0
M  V30 27158 H 2518.89 -1.85134 -3.82891 0
M  V30 27159 N 2517.2 1.25039 -0.959323 0
M  V30 27160 C 2518.43 1.96947 -0.633984 0
M  V30 27161 C 2518.85 1.71251 0.794886 0
M  V30 27162 O 2518.2 0.991314 1.53229 0
M  V30 27163 C 2518.26 3.50402 -0.888866 0
M  V30 27164 O 2517.98 3.75214 -2.26156 0
M  V30 27165 C 2519.48 4.39535 -0.57656 0
M  V30 27166 H 2516.7 0.627648 -0.237274 0
M  V30 27167 H 2519.24 1.59087 -1.28498 0
M  V30 27168 H 2517.4 3.86356 -0.284213 0
M  V30 27169 H 2517.81 4.69646 -2.33523 0
M  V30 27170 H 2519.28 5.46093 -0.80541 0
M  V30 27171 H 2519.76 4.36469 0.488998 0
M  V30 27172 H 2520.37 4.09154 -1.16074 0
M  V30 27173 N 2518.68 0.728444 1.39755 0
M  V30 27174 C 2519.91 0.283153 2.0465 0
M  V30 27175 C 2520.32 -1.08466 1.55022 0
M  V30 27176 O 2519.66 -1.69534 0.707372 0
M  V30 27177 C 2519.73 0.199372 3.58947 0
M  V30 27178 C 2519.39 1.50458 4.31522 0
M  V30 27179 C 2520.39 2.44902 4.58606 0
M  V30 27180 C 2518.07 1.76706 4.70192 0
M  V30 27181 C 2520.07 3.63831 5.2336 0
M  V30 27182 C 2517.75 2.95915 5.34675 0
M  V30 27183 C 2518.75 3.89299 5.61191 0
M  V30 27184 O 2518.44 5.06415 6.24339 0
M  V30 27185 H 2518.17 0.122677 0.664775 0
M  V30 27186 H 2520.72 0.991019 1.79911 0
M  V30 27187 H 2518.95 -0.564542 3.82557 0
M  V30 27188 H 2520.64 -0.213054 4.0534 0
M  V30 27189 H 2521.41 2.25891 4.29183 0
M  V30 27190 H 2517.29 1.04867 4.48914 0
M  V30 27191 H 2520.83 4.36738 5.43973 0
M  V30 27192 H 2516.73 3.14829 5.63518 0
M  V30 27193 H 2517.5 5.06663 6.42833 0
M  V30 27194 N 2520.16 -1.50253 0.475581 0
M  V30 27195 C 2521.41 -2.01543 -0.0795642 0
M  V30 27196 C 2521.72 -1.36212 -1.40377 0
M  V30 27197 O 2522.93 -1.78684 -2.04412 0
M  V30 27198 C 2521.38 -3.59386 -0.1923 0
M  V30 27199 C 2520.99 -4.33677 1.12374 0
M  V30 27200 C 2522.74 -4.18703 -0.699165 0
M  V30 27201 C 2520.64 -5.83315 0.974556 0
M  V30 27202 H 2519.57 -0.753255 -0.0335096 0
M  V30 27203 H 2522.22 -1.73023 0.611158 0
M  V30 27204 H 2520.61 -3.84512 -0.946906 0
M  V30 27205 H 2521.78 -4.20272 1.88965 0
M  V30 27206 H 2520.1 -3.8599 1.56206 0
M  V30 27207 H 2522.69 -5.28252 -0.827885 0
M  V30 27208 H 2523.04 -3.8038 -1.69164 0
M  V30 27209 H 2523.57 -3.978 -0.00181815 0
M  V30 27210 H 2520.31 -6.26118 1.94053 0
M  V30 27211 H 2519.83 -5.99283 0.249103 0
M  V30 27212 H 2521.51 -6.43797 0.64298 0
M  V30 27213 N 2521.64 -0.208365 -1.56217 0
M  V30 27214 C 2522.89 0.42717 -1.97125 0
M  V30 27215 C 2523.2 1.61833 -1.09861 0
M  V30 27216 O 2524.41 2.32252 -1.4061 0
M  V30 27217 C 2522.86 0.81138 -3.50635 0
M  V30 27218 C 2522.47 -0.356228 -4.46581 0
M  V30 27219 C 2524.21 1.41325 -4.00284 0
M  V30 27220 C 2522.12 0.0496813 -5.91379 0
M  V30 27221 H 2521.05 0.163368 -0.736089 0
M  V30 27222 H 2523.7 -0.302488 -1.8099 0
M  V30 27223 H 2522.08 1.59808 -3.62322 0
M  V30 27224 H 2523.26 -1.13378 -4.46634 0
M  V30 27225 H 2521.57 -0.870467 -4.072 0
M  V30 27226 H 2524.17 1.72963 -5.05953 0
M  V30 27227 H 2524.51 2.32443 -3.45364 0
M  V30 27228 H 2525.05 0.690255 -3.91766 0
M  V30 27229 H 2521.79 -0.827643 -6.50254 0
M  V30 27230 H 2521.31 0.791821 -5.9455 0
M  V30 27231 H 2522.98 0.480929 -6.4521 0
M  V30 27232 N 2523.12 1.57465 0.0651402 0
M  V30 27233 C 2524.37 1.86757 0.761883 0
M  V30 27234 C 2524.68 0.801956 1.78404 0
M  V30 27235 O 2525.88 0.98293 2.53082 0
M  V30 27236 C 2524.34 3.31301 1.40597 0
M  V30 27237 C 2523.95 4.46008 0.422036 0
M  V30 27238 C 2525.69 3.69785 2.08469 0
M  V30 27239 C 2523.6 5.81595 1.07242 0
M  V30 27240 H 2522.53 0.696707 0.288296 0
M  V30 27241 H 2525.18 1.83494 0.0153118 0
M  V30 27242 H 2523.56 3.29197 2.20103 0
M  V30 27243 H 2524.74 4.59516 -0.343694 0
M  V30 27244 H 2523.05 4.1612 -0.1526 0
M  V30 27245 H 2525.65 4.68383 2.57917 0
M  V30 27246 H 2525.99 2.99924 2.88707 0
M  V30 27247 H 2526.52 3.73908 1.35786 0
M  V30 27248 H 2523.26 6.54765 0.310227 0
M  V30 27249 H 2522.78 5.71875 1.80885 0
M  V30 27250 H 2524.46 6.2715 1.59032 0
M  V30 27251 N 2524.59 -0.336679 1.53962 0
M  V30 27252 C 2525.82 -1.10043 1.75799 0
M  V30 27253 C 2526.24 -1.8136 0.499017 0
M  V30 27254 O 2525.6 -1.72796 -0.548739 0
M  V30 27255 C 2525.65 -2.0843 2.9426 0
M  V30 27256 O 2524.75 -3.16082 2.64889 0
M  V30 27257 H 2524.1 -0.317924 0.582941 0
M  V30 27258 H 2526.63 -0.384975 2.00946 0
M  V30 27259 H 2526.64 -2.51531 3.21241 0
M  V30 27260 H 2525.31 -1.55921 3.85567 0
M  V30 27261 H 2523.89 -2.77749 2.48817 0
M  V30 27262 N 2526.07 -1.45812 -0.598057 0
M  V30 27263 C 2527.32 -1.50325 -1.35678 0
M  V30 27264 C 2527.65 -0.148773 -1.9393 0
M  V30 27265 O 2526.9 0.853756 -1.76095 0
M  V30 27266 C 2527.2 -2.53771 -2.51665 0
M  V30 27267 C 2526.87 -3.98218 -2.11501 0
M  V30 27268 C 2525.53 -4.37548 -2.00262 0
M  V30 27269 C 2527.88 -4.89021 -1.803 0
M  V30 27270 C 2525.21 -5.65564 -1.56057 0
M  V30 27271 C 2527.56 -6.17459 -1.37578 0
M  V30 27272 C 2526.23 -6.5571 -1.24904 0
M  V30 27273 H 2525.5 -0.550078 -0.496483 0
M  V30 27274 H 2528.14 -1.79209 -0.67502 0
M  V30 27275 H 2526.45 -2.18491 -3.25221 0
M  V30 27276 H 2528.14 -2.54497 -3.0989 0
M  V30 27277 H 2524.73 -3.67121 -2.21179 0
M  V30 27278 H 2528.92 -4.59365 -1.87876 0
M  V30 27279 H 2524.17 -5.93988 -1.44875 0
M  V30 27280 H 2528.35 -6.87256 -1.12483 0
M  V30 27281 H 2525.98 -7.54803 -0.904254 0
M  V30 27282 N 2527.55 0.841385 -1.33261 0
M  V30 27283 C 2528.48 1.96632 -1.2593 0
M  V30 27284 C 2529.46 1.6952 -0.140378 0
M  V30 27285 O 2530.65 1.9138 -0.32974 0
M  V30 27286 C 2527.78 3.32736 -0.995178 0
M  V30 27287 C 2526.73 3.74239 -2.07676 0
M  V30 27288 C 2526.06 5.08122 -1.66483 0
M  V30 27289 C 2527.36 3.8829 -3.49325 0
M  V30 27290 H 2529.05 2.03023 -2.2005 0
M  V30 27291 H 2526.6 0.975406 -1.05933 0
M  V30 27292 H 2528.55 4.11001 -0.930395 0
M  V30 27293 H 2527.27 3.26595 -0.0183578 0
M  V30 27294 H 2525.93 2.98236 -2.13193 0
M  V30 27295 H 2525.58 4.98449 -0.6751 0
M  V30 27296 H 2525.28 5.36861 -2.3886 0
M  V30 27297 H 2526.8 5.88864 -1.61466 0
M  V30 27298 H 2528.22 4.56873 -3.46324 0
M  V30 27299 H 2526.62 4.28463 -4.20166 0
M  V30 27300 H 2527.69 2.90814 -3.88015 0
M  V30 27301 N 2529.03 1.16688 1.05932 0
M  V30 27302 C 2530.28 0.945116 1.78187 0
M  V30 27303 C 2530.59 -0.527988 1.88339 0
M  V30 27304 O 2531.8 -0.867754 2.57259 0
M  V30 27305 C 2530.25 1.64173 3.20274 0
M  V30 27306 C 2529.86 3.15285 3.18276 0
M  V30 27307 C 2531.61 1.50207 3.97037 0
M  V30 27308 C 2529.51 3.77668 4.55105 0
M  V30 27309 H 2528.44 0.349971 0.66786 0
M  V30 27310 H 2531.09 1.3986 1.18791 0
M  V30 27311 H 2529.48 1.11596 3.79951 0
M  V30 27312 H 2530.65 3.74735 2.68161 0
M  V30 27313 H 2528.96 3.29178 2.55012 0
M  V30 27314 H 2531.56 1.94192 4.9819 0
M  V30 27315 H 2531.9 0.451533 4.13844 0
M  V30 27316 H 2532.44 1.9996 3.43891 0
M  V30 27317 H 2529.18 4.82685 4.43503 0
M  V30 27318 H 2528.7 3.23003 5.054 0
M  V30 27319 H 2530.38 3.79437 5.24057 0
M  V30 27320 N 2530.51 -1.24529 0.96594 0
M  V30 27321 C 2531.44 -2.23931 0.43934 0
M  V30 27322 C 2532.42 -1.5518 -0.485587 0
M  V30 27323 O 2533.6 -1.83821 -0.417369 0
M  V30 27324 C 2530.73 -3.36717 -0.365982 0
M  V30 27325 C 2529.78 -4.23548 0.500974 0
M  V30 27326 S 2530.61 -4.99119 1.94011 0
M  V30 27327 C 2531.76 -6.15365 1.14353 0
M  V30 27328 H 2532 -2.68252 1.28172 0
M  V30 27329 H 2529.53 -1.33781 0.770843 0
M  V30 27330 H 2531.49 -4.02131 -0.824654 0
M  V30 27331 H 2530.15 -2.90958 -1.18332 0
M  V30 27332 H 2529.34 -5.03864 -0.117252 0
M  V30 27333 H 2528.94 -3.63126 0.895304 0
M  V30 27334 H 2531.24 -6.76332 0.397691 0
M  V30 27335 H 2532.18 -6.81544 1.92101 0
M  V30 27336 H 2532.59 -5.60526 0.668677 0
M  V30 27337 N 2531.99 -0.735845 -1.39367 0
M  V30 27338 C 2533.23 -0.28458 -2.00793 0
M  V30 27339 C 2533.56 1.12554 -1.58257 0
M  V30 27340 O 2532.84 1.76746 -0.81185 0
M  V30 27341 C 2533.12 -0.3874 -3.5801 0
M  V30 27342 C 2532.98 -1.83735 -4.10562 0
M  V30 27343 C 2534.29 0.229672 -4.395 0
M  V30 27344 H 2531.41 -0.104879 -0.729499 0
M  V30 27345 H 2534.06 -0.932159 -1.65562 0
M  V30 27346 H 2532.21 0.163938 -3.88154 0
M  V30 27347 H 2533.88 -2.44563 -3.91135 0
M  V30 27348 H 2532.12 -2.35839 -3.64091 0
M  V30 27349 H 2532.79 -1.86056 -5.19699 0
M  V30 27350 H 2535.27 -0.24033 -4.15405 0
M  V30 27351 H 2534.14 0.127389 -5.48752 0
M  V30 27352 H 2534.4 1.31583 -4.22064 0
M  V30 27353 N 2533.46 1.49999 -0.483543 0
M  V30 27354 C 2534.41 2.30416 0.31802 0
M  V30 27355 C 2535.41 1.38249 0.978963 0
M  V30 27356 O 2536.61 1.55382 0.908645 0
M  V30 27357 H 2532.99 0.742135 0.121406 0
M  V30 27358 H 2534.96 2.95965 -0.380455 0
M  V30 27359 C 2533.71 3.19138 1.38008 0
M  V30 27360 H 2533.03 3.89975 0.880883 0
M  V30 27361 H 2534.47 3.78379 1.91326 0
M  V30 27362 C 2532.93 2.37567 2.3888 0
M  V30 27363 O 2533.46 2.0675 3.44409 0
M  V30 27364 N 2531.66 1.99914 2.10909 0
M  V30 27365 H 2531.21 2.25176 1.25114 0
M  V30 27366 H 2531.17 1.45641 2.78632 0
M  V30 27367 N 2534.94 0.216646 1.56104 0
M  V30 27368 C 2535.87 -0.735358 2.16027 0
M  V30 27369 C 2536.85 -1.19448 1.10322 0
M  V30 27370 O 2538.04 -1.27811 1.38552 0
M  V30 27371 C 2535.16 -1.9957 2.73659 0
M  V30 27372 C 2534.21 -1.67695 3.92149 0
M  V30 27373 S 2535.04 -0.806052 5.29399 0
M  V30 27374 C 2536.2 -2.07607 5.90466 0
M  V30 27375 H 2536.43 -0.226019 2.9644 0
M  V30 27376 H 2533.96 0.00139353 1.544 0
M  V30 27377 H 2535.92 -2.7194 3.07505 0
M  V30 27378 H 2534.58 -2.47616 1.93249 0
M  V30 27379 H 2533.78 -2.61325 4.30959 0
M  V30 27380 H 2533.38 -1.03392 3.59425 0
M  V30 27381 H 2535.67 -3.02654 6.06141 0
M  V30 27382 H 2536.61 -1.73195 6.86592 0
M  V30 27383 H 2537.02 -2.21436 5.19256 0
M  V30 27384 N 2536.42 -1.57498 -0.0567885 0
M  V30 27385 C 2537.65 -1.91936 -0.764482 0
M  V30 27386 C 2538.06 -0.8123 -1.70875 0
M  V30 27387 O 2537.4 0.222181 -1.82351 0
M  V30 27388 C 2537.46 -3.21965 -1.59935 0
M  V30 27389 C 2537.13 -4.49531 -0.822846 0
M  V30 27390 C 2538.12 -5.19724 -0.135373 0
M  V30 27391 C 2535.81 -4.96119 -0.785579 0
M  V30 27392 C 2537.8 -6.34765 0.578973 0
M  V30 27393 C 2535.49 -6.11063 -0.067471 0
M  V30 27394 C 2536.49 -6.80238 0.613591 0
M  V30 27395 O 2536.18 -7.92987 1.3201 0
M  V30 27396 H 2535.91 -0.638634 -0.221636 0
M  V30 27397 H 2538.46 -2.05383 -0.0267857 0
M  V30 27398 H 2536.69 -3.04768 -2.3802 0
M  V30 27399 H 2538.38 -3.41937 -2.18709 0
M  V30 27400 H 2539.15 -4.84751 -0.155373 0
M  V30 27401 H 2535.03 -4.42139 -1.30516 0
M  V30 27402 H 2538.57 -6.88694 1.11112 0
M  V30 27403 H 2534.47 -6.45484 -0.0454501 0
M  V30 27404 H 2535.23 -8.09191 1.23091 0
M  V30 27405 N 2537.9 0.328509 -1.54138 0
M  V30 27406 C 2539.15 1.06453 -1.7132 0
M  V30 27407 C 2539.46 1.89333 -0.491142 0
M  V30 27408 O 2540.67 2.6599 -0.544207 0
M  V30 27409 C 2539.12 1.94209 -3.03003 0
M  V30 27410 C 2538.73 1.16464 -4.32597 0
M  V30 27411 C 2540.47 2.67577 -3.29549 0
M  V30 27412 C 2538.38 2.03337 -5.55345 0
M  V30 27413 H 2537.31 0.401143 -0.638436 0
M  V30 27414 H 2539.96 0.323074 -1.80634 0
M  V30 27415 H 2538.34 2.72234 -2.87584 0
M  V30 27416 H 2539.52 0.432445 -4.58766 0
M  V30 27417 H 2537.83 0.54799 -4.12778 0
M  V30 27418 H 2540.43 3.32872 -4.1845 0
M  V30 27419 H 2540.77 3.34951 -2.47212 0
M  V30 27420 H 2541.31 1.96617 -3.45813 0
M  V30 27421 H 2538.04 1.4048 -6.4027 0
M  V30 27422 H 2537.56 2.74303 -5.33402 0
M  V30 27423 H 2539.24 2.62039 -5.91561 0
M  V30 27424 N 2539.38 1.46127 0.590316 0
M  V30 27425 C 2540.34 1.55706 1.68192 0
M  V30 27426 C 2541.34 0.434895 1.54807 0
M  V30 27427 O 2542.53 0.698956 1.59563 0
M  V30 27428 C 2539.66 1.4701 3.07573 0
M  V30 27429 H 2540.85 2.52982 1.61059 0
M  V30 27430 H 2538.41 1.33824 0.807517 0
M  V30 27431 H 2539.14 0.509842 3.20267 0
M  V30 27432 H 2538.93 2.2842 3.18696 0
M  V30 27433 H 2540.42 1.56782 3.87052 0
M  V30 27434 N 2540.85 -0.834306 1.33705 0
M  V30 27435 C 2542.1 -1.5922 1.25606 0
M  V30 27436 C 2542.43 -1.93395 -0.176625 0
M  V30 27437 O 2541.71 -1.59078 -1.11913 0
M  V30 27438 C 2541.99 -2.89923 2.13581 0
M  V30 27439 C 2541.84 -2.624 3.6533 0
M  V30 27440 C 2543.16 -3.91393 2.01245 0
M  V30 27441 H 2540.28 -0.577711 0.457623 0
M  V30 27442 H 2542.92 -0.961943 1.6385 0
M  V30 27443 H 2541.07 -3.4371 1.81096 0
M  V30 27444 H 2542.75 -2.1501 4.08128 0
M  V30 27445 H 2540.99 -1.96026 3.86984 0
M  V30 27446 H 2541.66 -3.55554 4.22238 0
M  V30 27447 H 2544.14 -3.46925 2.29744 0
M  V30 27448 H 2543.01 -4.80669 2.65045 0
M  V30 27449 H 2543.27 -4.30964 0.986026 0
M  V30 27450 N 2542.33 -1.17248 -1.05312 0
M  V30 27451 C 2543.58 -0.954552 -1.77683 0
M  V30 27452 C 2543.89 0.517992 -1.88617 0
M  V30 27453 O 2545.1 0.854098 -2.57716 0
M  V30 27454 C 2543.56 -1.65869 -3.19399 0
M  V30 27455 C 2543.16 -3.16968 -3.16599 0
M  V30 27456 C 2544.91 -1.5231 -3.96235 0
M  V30 27457 C 2542.81 -3.80076 -4.53096 0
M  V30 27458 H 2541.74 -0.353508 -0.665994 0
M  V30 27459 H 2544.4 -1.40488 -1.18048 0
M  V30 27460 H 2542.78 -1.13609 -3.79353 0
M  V30 27461 H 2543.95 -3.76152 -2.66169 0
M  V30 27462 H 2542.27 -3.30525 -2.53263 0
M  V30 27463 H 2544.86 -1.96831 -4.97154 0
M  V30 27464 H 2545.21 -0.473474 -4.13599 0
M  V30 27465 H 2545.74 -2.01781 -3.42826 0
M  V30 27466 H 2542.48 -4.8503 -4.40937 0
M  V30 27467 H 2542 -3.25679 -5.0368 0
M  V30 27468 H 2543.68 -3.82211 -5.22038 0
M  V30 27469 N 2543.81 1.24015 -0.972531 0
M  V30 27470 C 2544.74 2.27508 -0.525588 0
M  V30 27471 C 2545.72 1.64385 0.437233 0
M  V30 27472 O 2546.91 1.91336 0.332309 0
M  V30 27473 C 2544.04 3.46831 0.180387 0
M  V30 27474 C 2542.99 4.22255 -0.698933 0
M  V30 27475 C 2542.32 5.3452 0.138809 0
M  V30 27476 C 2543.62 4.83073 -1.9859 0
M  V30 27477 H 2545.31 2.65145 -1.39063 0
M  V30 27478 H 2542.86 1.27458 -0.670113 0
M  V30 27479 H 2544.81 4.18371 0.504313 0
M  V30 27480 H 2543.53 3.08233 1.07981 0
M  V30 27481 H 2542.19 3.52521 -1.0062 0
M  V30 27482 H 2541.84 4.92162 1.03853 0
M  V30 27483 H 2541.54 5.85902 -0.446362 0
M  V30 27484 H 2543.06 6.08885 0.457297 0
M  V30 27485 H 2544.48 5.46662 -1.72725 0
M  V30 27486 H 2542.88 5.44708 -2.5182 0
M  V30 27487 H 2543.95 4.04257 -2.67776 0
M  V30 27488 N 2545.29 0.743226 1.38974 0
M  V30 27489 C 2546.2 0.11044 2.3434 0
M  V30 27490 C 2547.21 -0.712531 1.58742 0
M  V30 27491 O 2548.39 -0.639092 1.90991 0
M  V30 27492 C 2545.46 -0.779953 3.37813 0
M  V30 27493 C 2544.52 0.0562073 4.29263 0
M  V30 27494 C 2543.75 -0.791782 5.27794 0
M  V30 27495 O 2543.97 -2.03021 5.33046 0
M  V30 27496 O 2542.91 -0.216077 6.01512 0
M  V30 27497 H 2546.73 0.897765 2.90127 0
M  V30 27498 H 2544.32 0.503991 1.40642 0
M  V30 27499 H 2546.2 -1.28916 4.01197 0
M  V30 27500 H 2544.87 -1.54595 2.84398 0
M  V30 27501 H 2543.78 0.611121 3.69075 0
M  V30 27502 H 2545.11 0.784617 4.85906 0
M  V30 27503 N 2546.77 -1.4974 0.491491 0
M  V30 27504 C 2547.71 -2.30581 -0.305796 0
M  V30 27505 C 2548.71 -1.38766 -0.971618 0
M  V30 27506 O 2549.91 -1.55862 -0.900392 0
M  V30 27507 H 2546.29 -0.742769 -0.117469 0
M  V30 27508 H 2548.26 -2.95759 0.396145 0
M  V30 27509 C 2547.01 -3.19866 -1.36313 0
M  V30 27510 H 2546.33 -3.90437 -0.86019 0
M  V30 27511 H 2547.77 -3.79388 -1.89316 0
M  V30 27512 C 2546.23 -2.3883 -2.37617 0
M  V30 27513 O 2546.76 -2.08573 -3.43308 0
M  V30 27514 N 2544.97 -2.0103 -2.09846 0
M  V30 27515 H 2544.51 -2.25836 -1.23918 0
M  V30 27516 H 2544.47 -1.47117 -2.77856 0
M  V30 27517 N 2548.24 -0.224922 -1.55987 0
M  V30 27518 C 2549.49 0.405866 -1.98391 0
M  V30 27519 C 2549.82 1.59533 -1.11264 0
M  V30 27520 O 2549.07 1.95058 -0.158348 0
M  V30 27521 C 2549.37 0.880046 -3.46396 0
M  V30 27522 C 2549.04 -0.199259 -4.5046 0
M  V30 27523 C 2547.7 -0.495745 -4.7864 0
M  V30 27524 C 2550.05 -0.929029 -5.12853 0
M  V30 27525 C 2547.38 -1.52646 -5.66495 0
M  V30 27526 C 2549.73 -1.9491 -6.01824 0
M  V30 27527 C 2548.4 -2.25247 -6.28347 0
M  V30 27528 H 2547.67 0.148517 -0.725964 0
M  V30 27529 H 2550.31 -0.328147 -1.88668 0
M  V30 27530 H 2548.62 1.69288 -3.5334 0
M  V30 27531 H 2550.32 1.37801 -3.76579 0
M  V30 27532 H 2546.91 0.0419772 -4.28579 0
M  V30 27533 H 2551.09 -0.713216 -4.91149 0
M  V30 27534 H 2546.35 -1.76708 -5.85307 0
M  V30 27535 H 2550.52 -2.51963 -6.49221 0
M  V30 27536 H 2548.15 -3.05256 -6.9622 0
M  V30 27537 N 2549.72 1.57526 0.0484352 0
M  V30 27538 C 2550.67 2.06343 1.07356 0
M  V30 27539 C 2551.66 0.973294 1.38648 0
M  V30 27540 O 2552.87 1.1583 1.37781 0
M  V30 27541 H 2549.25 0.658227 0.363651 0
M  V30 27542 H 2551.22 2.91546 0.635864 0
M  V30 27543 C 2549.97 2.54233 2.37193 0
M  V30 27544 H 2549.29 3.37723 2.13971 0
M  V30 27545 H 2550.73 2.92121 3.07313 0
M  V30 27546 C 2549.19 1.43517 3.04802 0
M  V30 27547 O 2549.72 0.79041 3.93847 0
M  V30 27548 N 2547.92 1.17448 2.65809 0
M  V30 27549 H 2547.47 1.70062 1.93485 0
M  V30 27550 H 2547.43 0.435792 3.11365 0
M  V30 27551 N 2551.2 -0.32033 1.5431 0
M  V30 27552 C 2552.45 -1.05946 1.72926 0
M  V30 27553 C 2552.78 -1.87567 0.503218 0
M  V30 27554 O 2552.05 -1.87969 -0.499806 0
M  V30 27555 C 2552.34 -1.9815 3.0068 0
M  V30 27556 C 2552.19 -1.19838 4.33542 0
M  V30 27557 C 2553.51 -2.97625 3.24203 0
M  V30 27558 H 2550.63 -0.383763 0.629202 0
M  V30 27559 H 2553.27 -0.335821 1.87009 0
M  V30 27560 H 2551.42 -2.59854 2.88804 0
M  V30 27561 H 2553.09 -0.605693 4.57306 0
M  V30 27562 H 2551.34 -0.500708 4.30901 0
M  V30 27563 H 2552.01 -1.87558 5.19159 0
M  V30 27564 H 2554.48 -2.46044 3.35562 0
M  V30 27565 H 2553.36 -3.59322 4.14945 0
M  V30 27566 H 2553.62 -3.70256 2.41584 0
M  V30 27567 N 2552.68 -1.46438 -0.582558 0
M  V30 27568 C 2553.64 -1.56595 -1.67363 0
M  V30 27569 C 2554.64 -0.443099 -1.54574 0
M  V30 27570 O 2555.83 -0.707409 -1.5919 0
M  V30 27571 C 2552.96 -1.48639 -3.06789 0
M  V30 27572 H 2554.16 -2.53833 -1.59715 0
M  V30 27573 H 2551.71 -1.3425 -0.800409 0
M  V30 27574 H 2552.44 -0.526819 -3.19992 0
M  V30 27575 H 2552.23 -2.30106 -3.1748 0
M  V30 27576 H 2553.72 -1.58833 -3.86215 0
M  V30 27577 N 2554.16 0.827204 -1.34146 0
M  V30 27578 C 2555.38 1.61499 -1.29328 0
M  V30 27579 C 2555.8 1.88327 0.133507 0
M  V30 27580 O 2555.16 1.47166 1.07927 0
M  V30 27581 C 2555.21 2.95841 -2.07751 0
M  V30 27582 O 2554.93 2.70185 -3.44865 0
M  V30 27583 C 2556.43 3.90253 -2.1028 0
M  V30 27584 H 2553.65 0.502142 -0.445078 0
M  V30 27585 H 2556.19 1.02952 -1.76695 0
M  V30 27586 H 2554.35 3.50957 -1.64037 0
M  V30 27587 H 2554.76 3.55815 -3.85351 0
M  V30 27588 H 2556.24 4.81694 -2.69583 0
M  V30 27589 H 2556.71 4.25303 -1.09607 0
M  V30 27590 H 2557.32 3.41074 -2.54065 0
M  V30 27591 N 2555.63 1.17805 1.04688 0
M  V30 27592 C 2556.54 0.914189 2.16055 0
M  V30 27593 C 2557.56 -0.119472 1.73589 0
M  V30 27594 O 2558.74 0.0609822 2.01308 0
M  V30 27595 C 2555.8 0.436663 3.43939 0
M  V30 27596 C 2554.86 1.53753 4.00822 0
M  V30 27597 C 2554.1 1.0827 5.22603 0
M  V30 27598 O 2554.32 -0.0611242 5.70367 0
M  V30 27599 O 2553.25 1.87785 5.71857 0
M  V30 27600 H 2557.08 1.84588 2.41166 0
M  V30 27601 H 2554.66 0.959354 1.14528 0
M  V30 27602 H 2556.55 0.178131 4.21023 0
M  V30 27603 H 2555.22 -0.466813 3.20316 0
M  V30 27604 H 2554.13 1.85 3.25155 0
M  V30 27605 H 2555.46 2.4169 4.28774 0
M  V30 27606 N 2557.11 -1.23497 0.979094 0
M  V30 27607 C 2558.02 -2.28616 0.526472 0
M  V30 27608 C 2559.04 -1.68902 -0.418097 0
M  V30 27609 O 2560.21 -1.99325 -0.288337 0
M  V30 27610 C 2557.28 -3.46306 -0.165174 0
M  V30 27611 C 2556.34 -4.21384 0.820634 0
M  V30 27612 C 2555.57 -5.33454 0.1619 0
M  V30 27613 O 2555.8 -5.60702 -1.04732 0
M  V30 27614 O 2554.73 -5.95727 0.859813 0
M  V30 27615 H 2558.56 -2.69473 1.40065 0
M  V30 27616 H 2556.14 -1.29404 0.746665 0
M  V30 27617 H 2558.02 -4.17753 -0.553213 0
M  V30 27618 H 2556.7 -3.07404 -1.01413 0
M  V30 27619 H 2555.61 -3.52266 1.25935 0
M  V30 27620 H 2556.94 -4.64132 1.63836 0
M  V30 27621 N 2558.59 -0.750586 -1.38578 0
M  V30 27622 C 2559.82 -0.314848 -2.04996 0
M  V30 27623 C 2560.24 1.04746 -1.56237 0
M  V30 27624 O 2559.6 1.66691 -0.713011 0
M  V30 27625 C 2559.65 -0.343478 -3.5896 0
M  V30 27626 O 2558.75 0.663556 -4.07027 0
M  V30 27627 H 2558.09 -0.139973 -0.649079 0
M  V30 27628 H 2560.62 -1.02087 -1.77312 0
M  V30 27629 H 2560.63 -0.193305 -4.07542 0
M  V30 27630 H 2559.31 -1.33745 -3.93809 0
M  V30 27631 H 2557.88 0.478242 -3.69821 0
M  V30 27632 N 2560.07 1.49477 -0.499425 0
M  V30 27633 C 2561.3 2.06856 0.0425093 0
M  V30 27634 C 2561.71 1.35995 1.30962 0
M  V30 27635 O 2561.07 0.437793 1.77171 0
M  V30 27636 C 2561.12 3.60239 0.301672 0
M  V30 27637 O 2560.84 4.28434 -0.915203 0
M  V30 27638 C 2562.34 4.34327 0.887422 0
M  V30 27639 H 2559.56 0.670709 -0.0197599 0
M  V30 27640 H 2562.11 1.9228 -0.69633 0
M  V30 27641 H 2560.26 3.74524 0.99049 0
M  V30 27642 H 2560.68 5.20111 -0.677085 0
M  V30 27643 H 2562.15 5.42525 1.01835 0
M  V30 27644 H 2562.63 3.96701 1.88481 0
M  V30 27645 H 2563.23 4.24644 0.236121 0
M  V30 27646 N 2561.55 0.233191 1.55865 0
M  V30 27647 C 2562.46 -0.683178 2.24432 0
M  V30 27648 C 2563.47 -1.20438 1.25582 0
M  V30 27649 O 2564.65 -1.24353 1.58424 0
M  V30 27650 C 2561.71 -1.86942 2.91982 0
M  V30 27651 C 2560.78 -1.38905 4.06207 0
M  V30 27652 C 2560.01 -2.51875 4.70526 0
M  V30 27653 O 2560.23 -3.70286 4.33872 0
M  V30 27654 O 2559.17 -2.22413 5.593 0
M  V30 27655 H 2562.99 -0.129006 3.03426 0
M  V30 27656 H 2560.58 0.00225456 1.494 0
M  V30 27657 H 2562.46 -2.56195 3.34577 0
M  V30 27658 H 2561.13 -2.41147 2.15939 0
M  V30 27659 H 2560.04 -0.664195 3.68157 0
M  V30 27660 H 2561.37 -0.893243 4.84027 0
M  V30 27661 N 2563.03 -1.57549 -0.0400806 0
M  V30 27662 C 2564.44 -1.77197 -0.588066 0
M  V30 27663 C 2564.79 -0.862863 -1.76208 0
M  V30 27664 O 2563.91 -0.0548769 -2.1633 0
M  V30 27665 C 2564.51 -3.21341 -1.07358 0
M  V30 27666 C 2563.07 -3.42223 -1.56717 0
M  V30 27667 C 2562.21 -2.72748 -0.500362 0
M  V30 27668 H 2565.16 -1.57605 0.186147 0
M  V30 27669 H 2565.19 -3.27248 -1.94137 0
M  V30 27670 H 2564.7 -3.87482 -0.218906 0
M  V30 27671 H 2562.8 -2.81242 -2.44405 0
M  V30 27672 H 2562.91 -4.50799 -1.62226 0
M  V30 27673 H 2561.28 -2.36205 -0.952853 0
M  V30 27674 H 2562.06 -3.41565 0.344659 0
M  V30 27675 N 2564.5 0.312142 -1.54478 0
M  V30 27676 C 2565.43 1.38954 -1.87654 0
M  V30 27677 C 2566.41 1.5343 -0.734385 0
M  V30 27678 O 2567.6 1.67122 -0.989139 0
M  V30 27679 C 2564.73 2.75549 -2.11401 0
M  V30 27680 C 2563.68 2.75849 -3.27248 0
M  V30 27681 C 2563.01 4.15628 -3.36389 0
M  V30 27682 C 2564.31 2.38579 -4.64626 0
M  V30 27683 H 2566 1.11437 -2.77889 0
M  V30 27684 H 2563.55 0.534631 -1.33707 0
M  V30 27685 H 2565.5 3.50996 -2.33195 0
M  V30 27686 H 2564.23 3.04567 -1.17926 0
M  V30 27687 H 2562.89 2.02857 -3.0536 0
M  V30 27688 H 2562.53 4.41805 -2.40452 0
M  V30 27689 H 2562.23 4.16732 -4.14256 0
M  V30 27690 H 2563.76 4.92871 -3.60431 0
M  V30 27691 H 2565.17 3.03741 -4.86225 0
M  V30 27692 H 2563.57 2.50916 -5.45125 0
M  V30 27693 H 2564.64 1.33715 -4.66099 0
M  V30 27694 N 2565.98 1.46745 0.574784 0
M  V30 27695 C 2567.21 1.5629 1.36338 0
M  V30 27696 C 2567.63 0.20738 1.86953 0
M  V30 27697 O 2566.99 -0.813842 1.62007 0
M  V30 27698 C 2567.04 2.57791 2.52143 0
M  V30 27699 O 2566.14 2.11844 3.5383 0
M  V30 27700 H 2565.48 0.525643 0.405703 0
M  V30 27701 H 2568.01 1.92383 0.696419 0
M  V30 27702 H 2568.02 2.77653 2.98953 0
M  V30 27703 H 2566.7 3.56224 2.14657 0
M  V30 27704 H 2565.27 2.02005 3.13446 0
M  V30 27705 N 2567.46 -0.820078 1.34583 0
M  V30 27706 C 2568.37 -1.96294 1.28474 0
M  V30 27707 C 2569.39 -1.72938 0.191932 0
M  V30 27708 O 2570.56 -1.96995 0.418914 0
M  V30 27709 C 2567.63 -3.30643 1.04287 0
M  V30 27710 C 2566.69 -3.66988 2.22752 0
M  V30 27711 C 2565.92 -4.94926 1.99709 0
M  V30 27712 O 2566.14 -5.62319 0.956755 0
M  V30 27713 O 2565.08 -5.29215 2.86732 0
M  V30 27714 H 2568.9 -2.04392 2.24628 0
M  V30 27715 H 2566.49 -0.955893 1.14817 0
M  V30 27716 H 2568.37 -4.11102 0.925914 0
M  V30 27717 H 2567.05 -3.23507 0.111754 0
M  V30 27718 H 2565.95 -2.86962 2.40008 0
M  V30 27719 H 2567.29 -3.78813 3.14263 0
M  V30 27720 N 2568.94 -1.18359 -1.04062 0
M  V30 27721 C 2570.21 -0.888612 -1.7425 0
M  V30 27722 C 2570.59 0.608524 -2.02139 0
M  V30 27723 O 2569.94 1.56324 -1.66658 0
M  V30 27724 C 2570.15 -1.73589 -3.02767 0
M  V30 27725 C 2571.5 -1.96292 -3.76503 0
M  V30 27726 O 2572.52 -1.70642 -3.12665 0
M  V30 27727 O 2571.38 -2.39472 -4.91239 0
M  V30 27728 H 2568.48 -0.330095 -0.758265 0
M  V30 27729 H 2571.02 -1.29112 -1.10128 0
M  V30 27730 H 2569.8 -2.75078 -2.78294 0
M  V30 27731 H 2569.42 -1.33189 -3.74628 0
M  V30 27732 N 2570.42 1.22976 -0.98563 0
M  V30 27733 C 2571.69 1.87 -0.573632 0
M  V30 27734 C 2572.07 1.88557 0.949179 0
M  V30 27735 O 2571.42 1.37089 1.82808 0
M  V30 27736 C 2571.63 3.28241 -1.1857 0
M  V30 27737 C 2572.98 4.04793 -1.2817 0
M  V30 27738 O 2574 3.3748 -1.13955 0
M  V30 27739 O 2572.86 5.25271 -1.50841 0
M  V30 27740 H 2569.96 0.803952 -0.193883 0
M  V30 27741 H 2572.5 1.30811 -1.08105 0
M  V30 27742 H 2571.27 3.21702 -2.22764 0
M  V30 27743 H 2570.9 3.92026 -0.663432 0
M  V30 27744 N 2571.89 0.757924 1.38178 0
M  V30 27745 C 2573.14 0.31602 2.00019 0
M  V30 27746 C 2573.47 -1.10352 1.60164 0
M  V30 27747 O 2572.72 -1.77102 0.832671 0
M  V30 27748 C 2573.02 0.391281 3.55252 0
M  V30 27749 C 2572.69 1.76709 4.14831 0
M  V30 27750 C 2571.35 2.1436 4.30817 0
M  V30 27751 C 2573.7 2.66939 4.47653 0
M  V30 27752 C 2571.03 3.41704 4.76922 0
M  V30 27753 C 2573.38 3.93678 4.95177 0
M  V30 27754 C 2572.05 4.31392 5.09369 0
M  V30 27755 H 2571.32 0.11564 0.731921 0
M  V30 27756 H 2573.96 0.969252 1.6516 0
M  V30 27757 H 2572.27 -0.345511 3.90274 0
M  V30 27758 H 2573.97 0.0308755 4.00988 0
M  V30 27759 H 2570.56 1.46442 4.02806 0
M  V30 27760 H 2574.74 2.39114 4.349 0
M  V30 27761 H 2570 3.70838 4.86096 0
M  V30 27762 H 2574.17 4.63733 5.19543 0
M  V30 27763 H 2571.8 5.30129 5.44855 0
M  V30 27764 N 2573.37 -1.4921 0.507345 0
M  V30 27765 C 2574.65 -1.95353 -0.0982359 0
M  V30 27766 C 2575.03 -1.44903 -1.53513 0
M  V30 27767 O 2574.38 -0.665548 -2.18593 0
M  V30 27768 C 2574.59 -3.49 -0.00434148 0
M  V30 27769 C 2575.94 -4.24239 -0.175072 0
M  V30 27770 O 2576.96 -3.56112 -0.0792265 0
M  V30 27771 O 2575.82 -5.45228 -0.372664 0
M  V30 27772 H 2572.91 -0.821888 -0.0918091 0
M  V30 27773 H 2575.46 -1.59829 0.570335 0
M  V30 27774 H 2574.23 -3.78373 0.997468 0
M  V30 27775 H 2573.85 -3.91159 -0.712776 0
M  V30 27776 N 2574.85 -0.241454 -1.55739 0
M  V30 27777 C 2575.78 0.700896 -2.1717 0
M  V30 27778 C 2576.76 1.17678 -1.12208 0
M  V30 27779 O 2577.95 1.25591 -1.40567 0
M  V30 27780 C 2575.07 1.95191 -2.768 0
M  V30 27781 C 2574.12 1.61435 -3.94767 0
M  V30 27782 S 2574.95 0.721727 -5.30614 0
M  V30 27783 C 2576.11 1.98186 -5.93694 0
M  V30 27784 H 2576.34 0.17883 -2.96762 0
M  V30 27785 H 2573.87 -0.025957 -1.54378 0
M  V30 27786 H 2575.83 2.67013 -3.11792 0
M  V30 27787 H 2574.49 2.4451 -1.97164 0
M  V30 27788 H 2573.69 2.54435 -4.35062 0
M  V30 27789 H 2573.29 0.976608 -3.61024 0
M  V30 27790 H 2575.58 2.92972 -6.10879 0
M  V30 27791 H 2576.52 1.6225 -6.89261 0
M  V30 27792 H 2576.93 2.13147 -5.22713 0
M  V30 27793 N 2576.33 1.57568 0.0317248 0
M  V30 27794 C 2577.58 1.89151 0.723071 0
M  V30 27795 C 2577.9 0.838408 1.75502 0
M  V30 27796 O 2577.16 -0.160948 1.95037 0
M  V30 27797 C 2577.46 3.27475 1.43161 0
M  V30 27798 C 2577.12 4.47704 0.535893 0
M  V30 27799 C 2575.79 4.8033 0.289178 0
M  V30 27800 C 2578.14 5.21134 -0.0827041 0
M  V30 27801 C 2575.47 5.83777 -0.584956 0
M  V30 27802 C 2577.82 6.25509 -0.944524 0
M  V30 27803 C 2576.48 6.56612 -1.20073 0
M  V30 27804 H 2575.75 0.692151 0.26459 0
M  V30 27805 H 2578.4 1.91492 -0.0169833 0
M  V30 27806 H 2576.7 3.21109 2.24492 0
M  V30 27807 H 2578.4 3.49159 1.97203 0
M  V30 27808 H 2574.99 4.22193 0.738339 0
M  V30 27809 H 2579.17 4.96209 0.094943 0
M  V30 27810 H 2574.43 6.06251 -0.791787 0
M  V30 27811 H 2578.6 6.81552 -1.43038 0
M  V30 27812 H 2576.23 7.36592 -1.8798 0
M  V30 27813 N 2577.81 -0.303946 1.54641 0
M  V30 27814 C 2579.04 -1.05702 1.77513 0
M  V30 27815 C 2579.44 -1.8153 0.533259 0
M  V30 27816 O 2578.79 -1.76582 -0.506392 0
M  V30 27817 C 2578.85 -2.08611 2.92782 0
M  V30 27818 C 2578.51 -1.52005 4.3098 0
M  V30 27819 C 2579.51 -0.951611 5.11117 0
M  V30 27820 C 2577.2 -1.55657 4.77573 0
M  V30 27821 C 2579.19 -0.427216 6.35967 0
M  V30 27822 C 2576.88 -1.0283 6.02386 0
M  V30 27823 C 2577.87 -0.464593 6.81418 0
M  V30 27824 O 2577.56 0.0556696 8.03881 0
M  V30 27825 H 2577.29 -0.31938 0.595796 0
M  V30 27826 H 2579.85 -0.349677 2.02402 0
M  V30 27827 H 2578.08 -2.83018 2.63511 0
M  V30 27828 H 2579.77 -2.69797 3.03257 0
M  V30 27829 H 2580.53 -0.916323 4.76265 0
M  V30 27830 H 2576.41 -1.98472 4.16089 0
M  V30 27831 H 2579.96 0.0134288 6.97599 0
M  V30 27832 H 2575.85 -1.06073 6.36725 0
M  V30 27833 H 2576.62 -0.0579084 8.1848 0
M  V30 27834 N 2579.28 -1.47047 -0.566994 0
M  V30 27835 C 2580.19 -1.61413 -1.70244 0
M  V30 27836 C 2581.21 -0.497186 -1.66745 0
M  V30 27837 O 2582.39 -0.763422 -1.8637 0
M  V30 27838 C 2579.45 -1.61566 -3.06753 0
M  V30 27839 C 2578.51 -2.84613 -3.21394 0
M  V30 27840 C 2577.75 -2.84749 -4.51391 0
M  V30 27841 O 2577.97 -1.94398 -5.36252 0
M  V30 27842 O 2576.9 -3.76491 -4.69615 0
M  V30 27843 H 2580.73 -2.5747 -1.61069 0
M  V30 27844 H 2578.31 -1.3002 -0.735871 0
M  V30 27845 H 2580.2 -1.64403 -3.88007 0
M  V30 27846 H 2578.87 -0.686739 -3.16331 0
M  V30 27847 H 2577.78 -2.87324 -2.39574 0
M  V30 27848 H 2579.11 -3.76766 -3.16714 0
M  V30 27849 N 2580.76 0.812929 -1.35016 0
M  V30 27850 C 2581.99 1.60118 -1.31034 0
M  V30 27851 C 2582.41 1.88458 0.113525 0
M  V30 27852 O 2581.76 1.48303 1.0636 0
M  V30 27853 C 2581.81 2.93621 -2.10877 0
M  V30 27854 O 2581.53 2.66512 -3.47711 0
M  V30 27855 C 2583.04 3.88 -2.14407 0
M  V30 27856 H 2580.26 0.497393 -0.450379 0
M  V30 27857 H 2582.8 1.01072 -1.77777 0
M  V30 27858 H 2580.95 3.49197 -1.6775 0
M  V30 27859 H 2581.37 3.51708 -3.89103 0
M  V30 27860 H 2582.84 4.78807 -2.74677 0
M  V30 27861 H 2583.32 4.24117 -1.14112 0
M  V30 27862 H 2583.93 3.3836 -2.57668 0
M  V30 27863 N 2582.24 1.18909 1.03433 0
M  V30 27864 C 2583.49 0.999851 1.77129 0
M  V30 27865 C 2583.84 -0.465016 1.86696 0
M  V30 27866 O 2583.13 -1.34081 1.36868 0
M  V30 27867 C 2583.33 1.59592 3.19789 0
M  V30 27868 C 2583.16 3.11723 3.24128 0
M  V30 27869 C 2581.93 3.80584 3.32391 0
M  V30 27870 C 2584.13 4.09144 3.11618 0
M  V30 27871 N 2582.11 5.20161 3.26046 0
M  V30 27872 C 2583.48 5.35283 3.12845 0
M  V30 27873 C 2585.53 4.00577 2.95706 0
M  V30 27874 C 2584.24 6.53847 2.99794 0
M  V30 27875 C 2586.26 5.18745 2.84002 0
M  V30 27876 C 2585.62 6.4378 2.85879 0
M  V30 27877 H 2581.72 0.419943 0.659676 0
M  V30 27878 H 2584.31 1.50791 1.23167 0
M  V30 27879 H 2582.48 1.11395 3.72083 0
M  V30 27880 H 2584.21 1.34157 3.81817 0
M  V30 27881 H 2580.97 3.31348 3.38386 0
M  V30 27882 H 2581.39 5.93178 3.26296 0
M  V30 27883 H 2586.03 3.04735 2.93081 0
M  V30 27884 H 2583.75 7.49881 3.01171 0
M  V30 27885 H 2587.34 5.13913 2.72735 0
M  V30 27886 H 2586.22 7.3368 2.76918 0
M  V30 27887 N 2583.72 -1.22452 0.992137 0
M  V30 27888 C 2584.63 -2.28045 0.55069 0
M  V30 27889 C 2585.64 -1.69336 -0.400159 0
M  V30 27890 O 2586.82 -1.9962 -0.26718 0
M  V30 27891 C 2583.89 -3.46462 -0.128435 0
M  V30 27892 C 2582.95 -4.20489 0.865281 0
M  V30 27893 C 2582.18 -5.33253 0.218471 0
M  V30 27894 O 2582.4 -5.61782 -0.987795 0
M  V30 27895 O 2581.34 -5.94782 0.922949 0
M  V30 27896 H 2585.16 -2.67972 1.42915 0
M  V30 27897 H 2582.75 -1.28604 0.760348 0
M  V30 27898 H 2584.63 -4.18316 -0.508874 0
M  V30 27899 H 2583.3 -3.08462 -0.981472 0
M  V30 27900 H 2582.21 -3.5091 1.29664 0
M  V30 27901 H 2583.54 -4.62368 1.6875 0
M  V30 27902 N 2585.2 -0.765242 -1.37774 0
M  V30 27903 C 2586.14 -0.145315 -2.30342 0
M  V30 27904 C 2587.11 0.696944 -1.50771 0
M  V30 27905 O 2588.3 0.650658 -1.79363 0
M  V30 27906 C 2585.44 0.73288 -3.37228 0
M  V30 27907 C 2584.55 -0.125275 -4.31818 0
M  V30 27908 C 2583.69 0.757014 -5.25778 0
M  V30 27909 C 2582.73 -0.10407 -6.12012 0
M  V30 27910 N 2581.86 0.73583 -6.98233 0
M  V30 27911 H 2586.7 -0.940245 -2.82778 0
M  V30 27912 H 2584.24 -0.47528 -1.3921 0
M  V30 27913 H 2586.2 1.25679 -3.9782 0
M  V30 27914 H 2584.83 1.49348 -2.86173 0
M  V30 27915 H 2583.88 -0.76693 -3.72589 0
M  V30 27916 H 2585.19 -0.789769 -4.92508 0
M  V30 27917 H 2584.35 1.34765 -5.91543 0
M  V30 27918 H 2583.08 1.45521 -4.65484 0
M  V30 27919 H 2582.09 -0.707293 -5.45232 0
M  V30 27920 H 2583.31 -0.7995 -6.74377 0
M  V30 27921 H 2581.26 1.41876 -6.40474 0
M  V30 27922 H 2581.18 0.128491 -7.55891 0
M  V30 27923 H 2582.45 1.31107 -7.68395 0
M  V30 27924 N 2586.67 1.48939 -0.515251 0
M  V30 27925 C 2587.92 2.02486 0.0241794 0
M  V30 27926 C 2588.25 1.39371 1.35669 0
M  V30 27927 O 2587.5 0.523607 1.88565 0
M  V30 27928 C 2587.8 3.56779 0.210532 0
M  V30 27929 C 2587.47 4.38605 -1.04576 0
M  V30 27930 C 2586.13 4.60684 -1.3901 0
M  V30 27931 C 2588.48 4.86106 -1.88017 0
M  V30 27932 C 2585.81 5.27509 -2.56809 0
M  V30 27933 C 2588.16 5.54228 -3.04982 0
M  V30 27934 C 2586.83 5.74549 -3.39779 0
M  V30 27935 H 2586.1 0.740947 0.00884786 0
M  V30 27936 H 2588.74 1.79085 -0.678294 0
M  V30 27937 H 2587.05 3.78938 0.995653 0
M  V30 27938 H 2588.75 3.95818 0.64259 0
M  V30 27939 H 2585.34 4.21671 -0.767571 0
M  V30 27940 H 2589.52 4.68864 -1.62727 0
M  V30 27941 H 2584.78 5.41442 -2.8399 0
M  V30 27942 H 2588.95 5.90007 -3.69953 0
M  V30 27943 H 2586.58 6.26104 -4.31159 0
M  V30 27944 N 2588.15 0.249709 1.55609 0
M  V30 27945 C 2589.43 -0.424727 1.90933 0
M  V30 27946 C 2589.81 -1.75656 1.17081 0
M  V30 27947 O 2589.16 -2.26662 0.289216 0
M  V30 27948 C 2589.37 -0.590049 3.43976 0
M  V30 27949 C 2590.72 -0.884641 4.15282 0
M  V30 27950 O 2591.74 -0.675809 3.4973 0
M  V30 27951 O 2590.6 -1.2825 5.31238 0
M  V30 27952 H 2587.69 -0.228454 0.794819 0
M  V30 27953 H 2590.24 0.293984 1.67134 0
M  V30 27954 H 2589.01 0.348248 3.89747 0
M  V30 27955 H 2588.63 -1.35919 3.73646 0
M  V30 27956 N 2589.63 -1.57583 -0.0233682 0
M  V30 27957 C 2591.04 -1.7781 -0.569239 0
M  V30 27958 C 2591.39 -0.881503 -1.75283 0
M  V30 27959 O 2590.52 -0.0778186 -2.1626 0
M  V30 27960 C 2591.11 -3.22461 -1.03944 0
M  V30 27961 C 2589.67 -3.43866 -1.53078 0
M  V30 27962 C 2588.82 -2.73264 -0.471406 0
M  V30 27963 H 2591.77 -1.57398 0.202852 0
M  V30 27964 H 2591.79 -3.29289 -1.90655 0
M  V30 27965 H 2591.3 -3.87693 -0.177796 0
M  V30 27966 H 2589.4 -2.83818 -2.41409 0
M  V30 27967 H 2589.52 -4.52494 -1.57436 0
M  V30 27968 H 2587.88 -2.37202 -0.927746 0
M  V30 27969 H 2588.66 -3.41181 0.380868 0
M  V30 27970 N 2591.11 0.29574 -1.548 0
M  V30 27971 C 2592.02 1.38738 -1.89179 0
M  V30 27972 C 2593.04 1.5521 -0.786509 0
M  V30 27973 O 2594.21 1.69773 -1.08347 0
M  V30 27974 C 2591.28 2.73033 -2.13668 0
M  V30 27975 C 2590.34 2.65502 -3.37354 0
M  V30 27976 C 2589.57 3.93391 -3.60665 0
M  V30 27977 O 2589.79 4.93001 -2.86891 0
M  V30 27978 O 2588.73 3.94967 -4.54186 0
M  V30 27979 H 2592.55 1.12584 -2.82061 0
M  V30 27980 H 2590.14 0.49227 -1.41057 0
M  V30 27981 H 2592.02 3.5248 -2.30946 0
M  V30 27982 H 2590.7 2.99019 -1.23972 0
M  V30 27983 H 2589.6 1.84508 -3.25434 0
M  V30 27984 H 2590.94 2.44467 -4.27196 0
M  V30 27985 N 2592.59 1.47346 0.559187 0
M  V30 27986 C 2593.55 1.59238 1.64851 0
M  V30 27987 C 2594.55 0.467634 1.5385 0
M  V30 27988 O 2595.74 0.732645 1.58044 0
M  V30 27989 C 2592.87 1.53501 3.04385 0
M  V30 27990 H 2594.07 2.56341 1.55657 0
M  V30 27991 H 2591.62 1.35507 0.778949 0
M  V30 27992 H 2592.35 0.57766 3.19114 0
M  V30 27993 H 2592.14 2.35128 3.13779 0
M  V30 27994 H 2593.63 1.64957 3.83639 0
M  V30 27995 N 2594.07 -0.805758 1.35445 0
M  V30 27996 C 2595.29 -1.59421 1.31881 0
M  V30 27997 C 2595.71 -1.88516 -0.103529 0
M  V30 27998 O 2595.07 -1.48865 -1.05572 0
M  V30 27999 C 2595.12 -2.92498 2.12431 0
M  V30 28000 O 2594.84 -2.64664 3.4912 0
M  V30 28001 C 2596.34 -3.86858 2.16462 0
M  V30 28002 H 2593.56 -0.494998 0.45301 0
M  V30 28003 H 2596.1 -1.00128 1.7831 0
M  V30 28004 H 2594.26 -3.48303 1.69599 0
M  V30 28005 H 2594.67 -3.4964 3.90963 0
M  V30 28006 H 2596.15 -4.77344 2.77213 0
M  V30 28007 H 2596.62 -4.23506 1.1636 0
M  V30 28008 H 2597.23 -3.36988 2.59459 0
M  V30 28009 N 2595.54 -1.19456 -1.02801 0
M  V30 28010 C 2596.48 -0.890844 -2.11179 0
M  V30 28011 C 2597.49 0.1168 -1.6238 0
M  V30 28012 O 2598.68 -0.112725 -1.78144 0
M  V30 28013 C 2595.78 -0.312002 -3.37461 0
M  V30 28014 C 2594.95 -1.36841 -4.15443 0
M  V30 28015 C 2594.01 -0.802955 -5.20038 0
M  V30 28016 O 2593.04 -1.48086 -5.49599 0
M  V30 28017 N 2594.24 0.393315 -5.79166 0
M  V30 28018 H 2597 -1.82373 -2.37824 0
M  V30 28019 H 2594.56 -1.09668 -1.19099 0
M  V30 28020 H 2596.56 0.0801514 -4.04621 0
M  V30 28021 H 2595.13 0.525186 -3.08157 0
M  V30 28022 H 2594.35 -1.93537 -3.4342 0
M  V30 28023 H 2595.63 -2.08023 -4.64332 0
M  V30 28024 H 2595.03 0.96156 -5.57468 0
M  V30 28025 H 2593.59 0.727237 -6.4773 0
M  V30 28026 N 2597.02 1.21924 -0.998617 0
M  V30 28027 C 2598.27 1.90823 -0.677697 0
M  V30 28028 C 2598.6 1.77695 0.790874 0
M  V30 28029 O 2597.85 1.14352 1.58815 0
M  V30 28030 C 2598.15 3.42039 -1.03654 0
M  V30 28031 C 2597.82 3.7536 -2.49832 0
M  V30 28032 C 2596.48 3.84165 -2.89777 0
M  V30 28033 C 2598.83 3.91067 -3.44552 0
M  V30 28034 C 2596.16 4.06119 -4.23419 0
M  V30 28035 C 2598.51 4.14527 -4.7786 0
M  V30 28036 C 2597.17 4.21557 -5.17538 0
M  V30 28037 H 2596.44 0.698272 -0.247987 0
M  V30 28038 H 2599.09 1.44569 -1.25587 0
M  V30 28039 H 2597.4 3.89987 -0.376525 0
M  V30 28040 H 2599.09 3.93612 -0.766182 0
M  V30 28041 H 2595.68 3.69093 -2.17872 0
M  V30 28042 H 2599.87 3.83637 -3.1486 0
M  V30 28043 H 2595.12 4.09791 -4.53741 0
M  V30 28044 H 2599.3 4.25623 -5.51197 0
M  V30 28045 H 2596.92 4.38322 -6.2111 0
M  V30 28046 N 2598.5 0.772537 1.37367 0
M  V30 28047 C 2599.75 0.333896 1.98917 0
M  V30 28048 C 2600.06 -1.09586 1.62019 0
M  V30 28049 O 2601.27 -1.63593 2.16679 0
M  V30 28050 C 2599.72 0.546033 3.55734 0
M  V30 28051 C 2599.33 1.9861 4.01569 0
M  V30 28052 C 2601.08 0.171054 4.24155 0
M  V30 28053 C 2598.98 2.14579 5.51099 0
M  V30 28054 H 2597.91 0.121098 0.744212 0
M  V30 28055 H 2600.56 0.951778 1.56887 0
M  V30 28056 H 2598.95 -0.141317 3.95748 0
M  V30 28057 H 2600.12 2.70847 3.72798 0
M  V30 28058 H 2598.43 2.31775 3.45933 0
M  V30 28059 H 2601.03 0.268874 5.34024 0
M  V30 28060 H 2601.37 -0.878783 4.06919 0
M  V30 28061 H 2601.91 0.810983 3.89446 0
M  V30 28062 H 2598.65 3.17885 5.73262 0
M  V30 28063 H 2598.17 1.46827 5.81551 0
M  V30 28064 H 2599.85 1.94479 6.17079 0
M  V30 28065 N 2599.98 -1.48664 0.523142 0
M  V30 28066 C 2601.21 -2.06898 -0.00959483 0
M  V30 28067 C 2601.62 -1.38061 -1.28781 0
M  V30 28068 O 2600.98 -0.465924 -1.76452 0
M  V30 28069 C 2601.03 -3.60673 -0.244323 0
M  V30 28070 O 2600.75 -4.26924 0.983247 0
M  V30 28071 C 2602.25 -4.35684 -0.818212 0
M  V30 28072 H 2599.47 -0.67031 0.0304278 0
M  V30 28073 H 2602.01 -1.91148 0.726832 0
M  V30 28074 H 2600.17 -3.76052 -0.930781 0
M  V30 28075 H 2600.58 -5.18968 0.759744 0
M  V30 28076 H 2602.06 -5.44077 -0.931914 0
M  V30 28077 H 2602.53 -3.99649 -1.82146 0
M  V30 28078 H 2603.14 -4.24966 -0.168534 0
M  V30 28079 N 2601.46 -0.257958 -1.55475 0
M  V30 28080 C 2602.7 0.363693 -1.99207 0
M  V30 28081 C 2603.03 1.57137 -1.14622 0
M  V30 28082 O 2602.29 1.94679 -0.199687 0
M  V30 28083 C 2602.58 0.806372 -3.48184 0
M  V30 28084 C 2602.25 -0.294763 -4.49936 0
M  V30 28085 C 2600.91 -0.59716 -4.7748 0
M  V30 28086 C 2603.26 -1.0376 -5.10767 0
M  V30 28087 C 2600.59 -1.64628 -5.63129 0
M  V30 28088 C 2602.94 -2.07632 -5.97555 0
M  V30 28089 C 2601.61 -2.38525 -6.23428 0
M  V30 28090 H 2600.88 0.133085 -0.728951 0
M  V30 28091 H 2603.53 -0.368092 -1.87929 0
M  V30 28092 H 2601.83 1.61755 -3.56851 0
M  V30 28093 H 2603.53 1.29782 -3.79417 0
M  V30 28094 H 2600.12 -0.0489403 -4.28572 0
M  V30 28095 H 2604.3 -0.817235 -4.89525 0
M  V30 28096 H 2599.56 -1.89084 -5.81427 0
M  V30 28097 H 2603.73 -2.65677 -6.4373 0
M  V30 28098 H 2601.36 -3.19956 -6.89589 0
M  V30 28099 N 2602.93 1.57593 0.0150108 0
M  V30 28100 C 2604.16 1.94574 0.718033 0
M  V30 28101 C 2604.58 0.859035 1.67339 0
M  V30 28102 O 2603.94 -0.184116 1.80363 0
M  V30 28103 C 2603.99 3.30638 1.43912 0
M  V30 28104 O 2603.09 3.23881 2.55294 0
M  V30 28105 H 2602.44 0.635601 0.192114 0
M  V30 28106 H 2604.97 2.04572 -0.0337068 0
M  V30 28107 H 2604.98 3.65856 1.80591 0
M  V30 28108 H 2603.65 4.0929 0.738547 0
M  V30 28109 H 2602.23 3.00316 2.21053 0
M  V30 28110 N 2604.41 -0.287527 1.54955 0
M  V30 28111 C 2605.38 -1.33819 1.86078 0
M  V30 28112 C 2606.38 -1.43048 0.734439 0
M  V30 28113 O 2607.57 -1.4245 1.00268 0
M  V30 28114 C 2604.7 -2.72141 2.0531 0
M  V30 28115 H 2605.89 -1.0746 2.79986 0
M  V30 28116 H 2603.44 -0.524876 1.47223 0
M  V30 28117 H 2604.18 -3.03702 1.13735 0
M  V30 28118 H 2603.96 -2.66831 2.87304 0
M  V30 28119 H 2605.45 -3.48083 2.30713 0
M  V30 28120 N 2605.89 -1.47641 -0.551365 0
M  V30 28121 C 2606.82 -1.63448 -1.66755 0
M  V30 28122 C 2607.8 -0.48377 -1.63076 0
M  V30 28123 O 2608.99 -0.713802 -1.80606 0
M  V30 28124 C 2606.12 -1.65401 -3.05384 0
M  V30 28125 C 2605.07 -2.79758 -3.23913 0
M  V30 28126 C 2604.4 -2.66787 -4.63388 0
M  V30 28127 C 2605.7 -4.21289 -3.08727 0
M  V30 28128 H 2607.39 -2.56888 -1.53781 0
M  V30 28129 H 2604.94 -1.23627 -0.738394 0
M  V30 28130 H 2606.89 -1.7505 -3.83322 0
M  V30 28131 H 2605.61 -0.685251 -3.1933 0
M  V30 28132 H 2604.27 -2.69629 -2.48386 0
M  V30 28133 H 2603.92 -1.67926 -4.74141 0
M  V30 28134 H 2603.62 -3.4351 -4.76734 0
M  V30 28135 H 2605.14 -2.78373 -5.43453 0
M  V30 28136 H 2606.56 -4.32364 -3.76476 0
M  V30 28137 H 2604.96 -4.98844 -3.33579 0
M  V30 28138 H 2606.03 -4.39247 -2.05402 0
M  V30 28139 N 2607.37 0.798563 -1.3587 0
M  V30 28140 C 2608.59 1.59236 -1.32886 0
M  V30 28141 C 2609.02 1.87887 0.0894257 0
M  V30 28142 O 2608.38 1.4718 1.05866 0
M  V30 28143 C 2608.42 2.89571 -2.14897 0
M  V30 28144 O 2607.53 3.82761 -1.53519 0
M  V30 28145 H 2606.87 0.483372 -0.455245 0
M  V30 28146 H 2609.4 0.990507 -1.79025 0
M  V30 28147 H 2609.41 3.38924 -2.27145 0
M  V30 28148 H 2608.08 2.68043 -3.18003 0
M  V30 28149 H 2606.66 3.41331 -1.50159 0
M  V30 28150 N 2608.85 1.19999 1.02166 0
M  V30 28151 C 2610.12 0.916221 1.72814 0
M  V30 28152 C 2610.5 -0.576289 2.03082 0
M  V30 28153 O 2609.85 -1.53653 1.69124 0
M  V30 28154 C 2610.06 1.78384 2.99967 0
M  V30 28155 C 2611.41 2.02257 3.73332 0
M  V30 28156 O 2612.43 1.75595 3.09911 0
M  V30 28157 O 2611.29 2.47257 4.87367 0
M  V30 28158 H 2608.39 0.342117 0.752918 0
M  V30 28159 H 2610.93 1.30848 1.0806 0
M  V30 28160 H 2609.7 2.79471 2.73883 0
M  V30 28161 H 2609.33 1.39132 3.72462 0
M  V30 28162 N 2610.32 -1.21392 1.00507 0
M  V30 28163 C 2611.57 -1.90461 0.687807 0
M  V30 28164 C 2611.9 -1.78112 -0.781439 0
M  V30 28165 O 2611.15 -1.15193 -1.58206 0
M  V30 28166 C 2611.45 -3.41484 1.05466 0
M  V30 28167 C 2611.12 -3.74029 2.51819 0
M  V30 28168 C 2609.78 -3.82623 2.9181 0
M  V30 28169 C 2612.13 -3.89234 3.46621 0
M  V30 28170 C 2609.46 -4.03868 4.25567 0
M  V30 28171 C 2611.81 -4.11987 4.80052 0
M  V30 28172 C 2610.48 -4.18807 5.19766 0
M  V30 28173 H 2609.75 -0.696947 0.251687 0
M  V30 28174 H 2612.39 -1.43901 1.26352 0
M  V30 28175 H 2610.7 -3.89781 0.397202 0
M  V30 28176 H 2612.4 -3.932 0.787045 0
M  V30 28177 H 2608.99 -3.67932 2.19827 0
M  V30 28178 H 2613.17 -3.81962 3.1689 0
M  V30 28179 H 2608.43 -4.07379 4.55908 0
M  V30 28180 H 2612.6 -4.22694 5.53446 0
M  V30 28181 H 2610.23 -4.35022 6.23426 0
M  V30 28182 N 2611.8 -0.779811 -1.36955 0
M  V30 28183 C 2612.77 -0.177702 -2.2851 0
M  V30 28184 C 2613.77 0.619351 -1.48394 0
M  V30 28185 O 2614.96 0.441755 -1.68506 0
M  V30 28186 C 2612.09 0.75522 -3.32429 0
M  V30 28187 H 2613.28 -0.984873 -2.83267 0
M  V30 28188 H 2610.83 -0.54857 -1.46357 0
M  V30 28189 H 2611.57 1.58709 -2.82811 0
M  V30 28190 H 2611.35 0.185749 -3.9166 0
M  V30 28191 H 2612.84 1.17167 -4.00826 0
M  V30 28192 N 2613.28 1.48384 -0.531019 0
M  V30 28193 C 2614.56 1.95485 0.0671445 0
M  V30 28194 C 2614.94 1.47327 1.51189 0
M  V30 28195 O 2614.29 0.70024 2.17506 0
M  V30 28196 C 2614.5 3.48962 -0.0511819 0
M  V30 28197 C 2615.84 4.24464 0.107557 0
M  V30 28198 O 2616.87 3.56193 0.0225622 0
M  V30 28199 O 2615.73 5.45752 0.285876 0
M  V30 28200 H 2612.82 0.823245 0.078722 0
M  V30 28201 H 2615.37 1.58901 -0.59569 0
M  V30 28202 H 2614.14 3.76738 -1.05754 0
M  V30 28203 H 2613.76 3.92243 0.650456 0
M  V30 28204 N 2614.76 0.2662 1.55336 0
M  V30 28205 C 2615.99 -0.35672 2.03802 0
M  V30 28206 C 2616.4 -1.50127 1.14487 0
M  V30 28207 O 2615.76 -1.81769 0.163153 0
M  V30 28208 C 2615.81 -0.846219 3.51456 0
M  V30 28209 O 2615.53 0.25274 4.3737 0
M  V30 28210 C 2617.03 -1.53787 4.1577 0
M  V30 28211 H 2614.25 -0.0825101 0.665908 0
M  V30 28212 H 2616.8 0.395695 2.00635 0
M  V30 28213 H 2614.95 -1.54875 3.55095 0
M  V30 28214 H 2615.36 -0.122081 5.24358 0
M  V30 28215 H 2616.84 -1.83188 5.20717 0
M  V30 28216 H 2617.32 -2.4664 3.63408 0
M  V30 28217 H 2617.92 -0.879415 4.16109 0
M  V30 28218 N 2616.24 -1.57599 -0.0066531 0
M  V30 28219 C 2617.17 -2.11038 -0.999259 0
M  V30 28220 C 2618.15 -1.01798 -1.36276 0
M  V30 28221 O 2619.33 -1.29445 -1.44768 0
M  V30 28222 C 2616.46 -2.60822 -2.29323 0
M  V30 28223 C 2615.42 -3.74529 -2.07153 0
M  V30 28224 C 2614.74 -4.10602 -3.42505 0
M  V30 28225 C 2616.04 -5.02071 -1.4395 0
M  V30 28226 H 2617.74 -2.94224 -0.55433 0
M  V30 28227 H 2615.28 -1.41537 -0.265197 0
M  V30 28228 H 2617.24 -2.96833 -2.99112 0
M  V30 28229 H 2615.96 -1.7475 -2.75917 0
M  V30 28230 H 2614.62 -3.38901 -1.39791 0
M  V30 28231 H 2614.27 -3.21563 -3.8679 0
M  V30 28232 H 2613.97 -4.87205 -3.28489 0
M  V30 28233 H 2615.49 -4.49167 -4.1362 0
M  V30 28234 H 2616.9 -5.35896 -2.03686 0
M  V30 28235 H 2615.3 -5.83435 -1.40442 0
M  V30 28236 H 2616.37 -4.83181 -0.407908 0
M  V30 28237 N 2617.72 0.279305 -1.55105 0
M  V30 28238 C 2618.94 1.03442 -1.79762 0
M  V30 28239 C 2619.37 1.79383 -0.565984 0
M  V30 28240 O 2618.72 1.74714 0.484229 0
M  V30 28241 C 2618.77 1.97366 -3.01793 0
M  V30 28242 O 2617.88 3.06033 -2.76437 0
M  V30 28243 H 2617.22 0.296069 -0.594339 0
M  V30 28244 H 2619.75 0.31013 -2.02236 0
M  V30 28245 H 2619.76 2.39436 -3.30355 0
M  V30 28246 H 2618.43 1.41503 -3.91088 0
M  V30 28247 H 2617.01 2.68323 -2.58954 0
M  V30 28248 N 2619.19 1.47931 0.543528 0
M  V30 28249 C 2620.44 1.5495 1.29749 0
M  V30 28250 C 2620.76 0.219276 1.93763 0
M  V30 28251 O 2620.03 -0.758019 1.8064 0
M  V30 28252 H 2618.61 0.570803 0.481864 0
M  V30 28253 H 2621.27 1.84314 0.633604 0
M  V30 28254 H 2620.37 2.32338 2.08388 0
M  V30 28255 N 2620.67 -0.791347 1.36292 0
M  V30 28256 C 2622.08 -1.36639 1.27227 0
M  V30 28257 C 2622.43 -1.95999 -0.0887624 0
M  V30 28258 O 2621.56 -1.92418 -0.990173 0
M  V30 28259 C 2622.15 -2.48417 2.30379 0
M  V30 28260 C 2620.71 -3.01742 2.25009 0
M  V30 28261 C 2619.86 -1.74807 2.15263 0
M  V30 28262 H 2622.81 -0.593147 1.47199 0
M  V30 28263 H 2622.83 -3.27382 1.93911 0
M  V30 28264 H 2622.34 -2.05183 3.29426 0
M  V30 28265 H 2620.44 -3.494 1.29423 0
M  V30 28266 H 2620.56 -3.58687 3.17616 0
M  V30 28267 H 2618.92 -1.96963 1.61486 0
M  V30 28268 H 2619.7 -1.33704 3.16193 0
M  V30 28269 N 2622.15 -1.2054 -1.01528 0
M  V30 28270 C 2623.08 -0.979333 -2.1197 0
M  V30 28271 C 2624.06 0.0921489 -1.6985 0
M  V30 28272 O 2625.25 -0.0656273 -1.94089 0
M  V30 28273 C 2622.38 -0.532044 -3.432 0
M  V30 28274 C 2621.33 -1.54692 -3.99067 0
M  V30 28275 C 2620.66 -0.95622 -5.2608 0
M  V30 28276 C 2621.96 -2.931 -4.32308 0
M  V30 28277 H 2623.65 -1.90302 -2.3114 0
M  V30 28278 H 2621.2 -0.916392 -1.11078 0
M  V30 28279 H 2623.15 -0.361118 -4.1985 0
M  V30 28280 H 2621.87 0.427271 -3.23793 0
M  V30 28281 H 2620.53 -1.70523 -3.24527 0
M  V30 28282 H 2620.18 0.0110654 -5.02999 0
M  V30 28283 H 2619.88 -1.63403 -5.64423 0
M  V30 28284 H 2621.4 -0.79639 -6.05384 0
M  V30 28285 H 2622.82 -2.80772 -4.9984 0
M  V30 28286 H 2621.21 -3.57799 -4.81767 0
M  V30 28287 H 2622.28 -3.44723 -3.41019 0
M  V30 28288 N 2623.63 1.20858 -1.01149 0
M  V30 28289 C 2625.04 1.4216 -0.725447 0
M  V30 28290 C 2625.24 1.89065 0.696886 0
M  V30 28291 O 2624.3 2.0563 1.46535 0
M  V30 28292 C 2625.61 2.44758 -1.74682 0
M  V30 28293 C 2627.16 2.58532 -1.76438 0
M  V30 28294 C 2627.64 3.64369 -2.77488 0
M  V30 28295 N 2629.13 3.71847 -2.76196 0
M  V30 28296 C 2629.86 4.53383 -3.51043 0
M  V30 28297 N 2629.36 5.38765 -4.3555 0
M  V30 28298 N 2631.15 4.47867 -3.39663 0
M  V30 28299 H 2623.3 0.887248 -1.92981 0
M  V30 28300 H 2625.56 0.451947 -0.833335 0
M  V30 28301 H 2625.27 2.1728 -2.76555 0
M  V30 28302 H 2625.14 3.43666 -1.55478 0
M  V30 28303 H 2627.53 2.85344 -0.75253 0
M  V30 28304 H 2627.61 1.59837 -1.99714 0
M  V30 28305 H 2627.26 3.38302 -3.78833 0
M  V30 28306 H 2627.19 4.62675 -2.51474 0
M  V30 28307 H 2629.68 3.10854 -2.14891 0
M  V30 28308 H 2629.99 5.98052 -4.89442 0
M  V30 28309 H 2628.34 5.38284 -4.3963 0
M  V30 28310 H 2631.53 3.80198 -2.7307 0
M  V30 28311 H 2631.7 5.11177 -3.98249 0
M  V30 28312 N 2625.11 0.787064 1.3654 0
M  V30 28313 C 2626.35 0.354975 1.98552 0
M  V30 28314 C 2626.67 -1.07861 1.63173 0
M  V30 28315 O 2627.87 -1.61285 2.18402 0
M  V30 28316 C 2626.33 0.583733 3.55135 0
M  V30 28317 C 2625.94 2.02858 3.9944 0
M  V30 28318 C 2627.68 0.216031 4.2395 0
M  V30 28319 C 2625.59 2.20412 5.48792 0
M  V30 28320 H 2624.52 0.128985 0.742886 0
M  V30 28321 H 2627.17 0.968364 1.55868 0
M  V30 28322 H 2625.55 -0.099335 3.95875 0
M  V30 28323 H 2626.73 2.74786 3.69905 0
M  V30 28324 H 2625.04 2.35431 3.43455 0
M  V30 28325 H 2627.64 0.325499 5.33708 0
M  V30 28326 H 2627.98 -0.835575 4.07828 0
M  V30 28327 H 2628.51 0.852243 3.88564 0
M  V30 28328 H 2625.25 3.23947 5.69858 0
M  V30 28329 H 2624.77 1.52987 5.79961 0
M  V30 28330 H 2626.45 2.01013 6.14982 0
M  V30 28331 N 2626.58 -1.48101 0.53888 0
M  V30 28332 C 2627.99 -1.86428 0.100711 0
M  V30 28333 C 2628.35 -1.44751 -1.32445 0
M  V30 28334 O 2627.47 -0.842234 -1.99337 0
M  V30 28335 C 2628.07 -3.38343 0.175992 0
M  V30 28336 C 2626.62 -3.7583 -0.207032 0
M  V30 28337 C 2625.77 -2.72153 0.531789 0
M  V30 28338 H 2628.72 -1.39879 0.749639 0
M  V30 28339 H 2628.74 -3.75577 -0.610078 0
M  V30 28340 H 2628.26 -3.68645 1.21335 0
M  V30 28341 H 2626.36 -3.51142 -1.24619 0
M  V30 28342 H 2626.47 -4.78899 0.138772 0
M  V30 28343 H 2624.83 -2.5469 -0.0230014 0
M  V30 28344 H 2625.62 -3.05299 1.56995 0
M  V30 28345 N 2628.06 -0.274434 -1.55192 0
M  V30 28346 C 2629.01 0.613335 -2.22501 0
M  V30 28347 C 2629.98 1.15027 -1.19825 0
M  V30 28348 O 2631.16 1.1997 -1.48364 0
M  V30 28349 C 2628.3 1.79194 -2.9493 0
M  V30 28350 C 2627.42 1.28892 -4.12324 0
M  V30 28351 C 2626.55 2.42926 -4.72398 0
M  V30 28352 C 2625.59 1.89624 -5.81987 0
M  V30 28353 N 2624.73 2.97129 -6.36128 0
M  V30 28354 H 2629.57 0.0327036 -2.97982 0
M  V30 28355 H 2627.1 0.0043756 -1.47099 0
M  V30 28356 H 2629.06 2.48472 -3.35138 0
M  V30 28357 H 2627.69 2.34461 -2.21874 0
M  V30 28358 H 2626.74 0.48926 -3.77241 0
M  V30 28359 H 2628.06 0.858501 -4.91356 0
M  V30 28360 H 2627.21 3.20199 -5.15323 0
M  V30 28361 H 2625.95 2.89283 -3.92641 0
M  V30 28362 H 2624.95 1.10831 -5.38513 0
M  V30 28363 H 2626.18 1.44204 -6.63613 0
M  V30 28364 H 2624.13 3.42869 -5.59265 0
M  V30 28365 H 2624.04 2.58502 -7.10431 0
M  V30 28366 H 2625.31 3.74379 -6.83711 0
M  V30 28367 N 2629.54 1.576 -0.00170483 0
M  V30 28368 C 2630.95 1.78694 0.540879 0
M  V30 28369 C 2631.3 0.909278 1.73858 0
M  V30 28370 O 2630.43 0.112214 2.16109 0
M  V30 28371 C 2631.02 3.24074 0.988003 0
M  V30 28372 C 2629.58 3.46258 1.47588 0
M  V30 28373 C 2628.73 2.73979 0.427872 0
M  V30 28374 H 2631.68 1.57056 -0.227867 0
M  V30 28375 H 2631.7 3.3228 1.85392 0
M  V30 28376 H 2631.21 3.87926 0.116095 0
M  V30 28377 H 2629.31 2.87623 2.36863 0
M  V30 28378 H 2629.43 4.54941 1.50217 0
M  V30 28379 H 2627.79 2.38648 0.889892 0
M  V30 28380 H 2628.57 3.40532 -0.435098 0
M  V30 28381 N 2631.02 -0.271076 1.55251 0
M  V30 28382 C 2631.97 -1.35501 1.89056 0
M  V30 28383 C 2632.96 -1.51037 0.76709 0
M  V30 28384 O 2634.17 -1.52798 0.951455 0
M  V30 28385 H 2630.54 -0.453219 0.60008 0
M  V30 28386 H 2632.51 -1.04242 2.796 0
M  V30 28387 C 2631.26 -2.70813 2.18072 0
M  V30 28388 H 2630.58 -2.5965 3.04009 0
M  V30 28389 H 2632.02 -3.45593 2.45646 0
M  V30 28390 C 2630.48 -3.22058 0.988957 0
M  V30 28391 O 2631.01 -4.01072 0.224571 0
M  V30 28392 N 2629.22 -2.79765 0.786135 0
M  V30 28393 H 2628.77 -2.15623 1.40941 0
M  V30 28394 H 2628.72 -3.14399 -0.00963823 0
M  V30 28395 N 2632.5 -1.48217 -0.535675 0
M  V30 28396 C 2633.91 -1.34212 -0.863677 0
M  V30 28397 C 2634.11 -0.348825 -1.98458 0
M  V30 28398 O 2633.17 0.231996 -2.51432 0
M  V30 28399 C 2634.48 -2.74097 -1.23658 0
M  V30 28400 C 2636.03 -2.82543 -1.34678 0
M  V30 28401 C 2636.5 -4.23118 -1.75314 0
M  V30 28402 N 2638 -4.25764 -1.82427 0
M  V30 28403 C 2638.73 -5.31468 -2.15242 0
M  V30 28404 N 2638.23 -6.47456 -2.46521 0
M  V30 28405 N 2640.02 -5.18858 -2.162 0
M  V30 28406 H 2632.17 -2.11418 0.204002 0
M  V30 28407 H 2634.43 -0.947568 0.0286199 0
M  V30 28408 H 2634.14 -3.48317 -0.486613 0
M  V30 28409 H 2634.01 -3.07257 -2.188 0
M  V30 28410 H 2636.4 -2.08582 -2.08752 0
M  V30 28411 H 2636.48 -2.53011 -0.376712 0
M  V30 28412 H 2636.13 -4.97593 -1.01803 0
M  V30 28413 H 2636.06 -4.5009 -2.73362 0
M  V30 28414 H 2638.55 -3.42098 -1.60554 0
M  V30 28415 H 2638.86 -7.23857 -2.7065 0
M  V30 28416 H 2637.2 -6.5074 -2.44054 0
M  V30 28417 H 2640.4 -4.27263 -1.91217 0
M  V30 28418 H 2640.57 -6.0134 -2.41443 0
M  V30 28419 N 2633.97 0.784108 -1.3671 0
M  V30 28420 C 2634.92 1.91835 -1.31537 0
M  V30 28421 C 2635.92 1.6814 -0.206235 0
M  V30 28422 O 2637.12 1.76081 -0.37355 0
M  V30 28423 H 2633.5 0.630644 -0.409624 0
M  V30 28424 H 2635.47 1.93316 -2.27313 0
M  V30 28425 C 2634.22 3.28934 -1.12685 0
M  V30 28426 H 2633.54 3.47737 -1.9728 0
M  V30 28427 H 2634.98 4.08634 -1.13113 0
M  V30 28428 C 2633.44 3.3648 0.168221 0
M  V30 28429 O 2633.97 3.84702 1.15619 0
M  V30 28430 N 2632.18 2.89806 0.214711 0
M  V30 28431 H 2631.72 2.50755 -0.589896 0
M  V30 28432 H 2631.68 2.95236 1.08088 0
M  V30 28433 N 2635.45 1.21076 1.00888 0
M  V30 28434 C 2636.7 1.01984 1.74018 0
M  V30 28435 C 2637.01 -0.447631 1.90409 0
M  V30 28436 O 2638.22 -0.75786 2.60708 0
M  V30 28437 C 2636.68 1.77609 3.13023 0
M  V30 28438 C 2636.28 3.285 3.04617 0
M  V30 28439 C 2638.03 1.66911 3.90309 0
M  V30 28440 C 2635.94 3.96631 4.38678 0
M  V30 28441 H 2634.87 0.377982 0.652415 0
M  V30 28442 H 2637.52 1.44773 1.12752 0
M  V30 28443 H 2635.9 1.2761 3.74875 0
M  V30 28444 H 2637.07 3.85772 2.52025 0
M  V30 28445 H 2635.39 3.39697 2.40821 0
M  V30 28446 H 2637.98 2.15147 4.89506 0
M  V30 28447 H 2638.33 0.626652 4.11557 0
M  V30 28448 H 2638.86 2.14365 3.35101 0
M  V30 28449 H 2635.6 5.01061 4.22632 0
M  V30 28450 H 2635.12 3.44148 4.91245 0
M  V30 28451 H 2636.8 4.01323 5.07493 0
M  V30 28452 N 2636.93 -1.2032 1.01789 0
M  V30 28453 C 2637.86 -2.254 0.609664 0
M  V30 28454 C 2638.84 -1.65894 -0.375922 0
M  V30 28455 O 2640.03 -1.92437 -0.261067 0
M  V30 28456 C 2637.16 -3.47262 -0.0515384 0
M  V30 28457 C 2636.11 -4.1937 0.855169 0
M  V30 28458 C 2635.44 -5.34667 0.0596697 0
M  V30 28459 C 2636.74 -4.75369 2.16382 0
M  V30 28460 H 2638.43 -2.59801 1.48807 0
M  V30 28461 H 2635.98 -1.24883 0.716956 0
M  V30 28462 H 2637.93 -4.19955 -0.34869 0
M  V30 28463 H 2636.65 -3.12028 -0.964671 0
M  V30 28464 H 2635.31 -3.48544 1.13634 0
M  V30 28465 H 2634.96 -4.95677 -0.855153 0
M  V30 28466 H 2634.66 -5.83842 0.663508 0
M  V30 28467 H 2636.18 -6.10163 -0.230998 0
M  V30 28468 H 2637.6 -5.39874 1.92895 0
M  V30 28469 H 2636 -5.34987 2.71863 0
M  V30 28470 H 2637.07 -3.9404 2.82596 0
M  V30 28471 N 2638.41 -0.794293 -1.3612 0
M  V30 28472 C 2639.66 -0.365499 -1.98361 0
M  V30 28473 C 2639.97 1.06994 -1.63742 0
M  V30 28474 O 2641.18 1.60125 -2.19254 0
M  V30 28475 C 2639.63 -0.602558 -3.5482 0
M  V30 28476 C 2639.24 -2.04974 -3.98359 0
M  V30 28477 C 2640.98 -0.238511 -4.23829 0
M  V30 28478 C 2638.89 -2.2332 -5.47615 0
M  V30 28479 H 2637.82 -0.132923 -0.742191 0
M  V30 28480 H 2640.47 -0.976617 -1.55353 0
M  V30 28481 H 2638.85 0.0783394 -3.95923 0
M  V30 28482 H 2640.03 -2.76743 -3.68442 0
M  V30 28483 H 2638.34 -2.37249 -3.42202 0
M  V30 28484 H 2640.94 -0.353798 -5.33528 0
M  V30 28485 H 2641.28 0.813935 -4.08266 0
M  V30 28486 H 2641.82 -0.872838 -3.88106 0
M  V30 28487 H 2638.56 -3.26965 -5.68132 0
M  V30 28488 H 2638.08 -1.5606 -5.79142 0
M  V30 28489 H 2639.75 -2.04271 -6.13907 0
M  V30 28490 N 2639.89 1.47813 -0.546727 0
M  V30 28491 C 2640.82 2.27896 0.244156 0
M  V30 28492 C 2641.83 1.36379 0.889086 0
M  V30 28493 O 2643.02 1.6129 0.764704 0
M  V30 28494 C 2640.12 3.10307 1.36246 0
M  V30 28495 C 2639.29 4.29715 0.816306 0
M  V30 28496 C 2638.35 4.93804 1.8178 0
M  V30 28497 O 2637.38 5.52514 1.36808 0
M  V30 28498 N 2638.58 4.87552 3.15076 0
M  V30 28499 H 2641.35 2.96412 -0.442746 0
M  V30 28500 H 2638.91 1.57326 -0.382123 0
M  V30 28501 H 2640.9 3.50049 2.03096 0
M  V30 28502 H 2639.47 2.44102 1.95276 0
M  V30 28503 H 2638.69 3.9419 -0.0286674 0
M  V30 28504 H 2639.98 5.06975 0.430579 0
M  V30 28505 H 2639.37 4.41035 3.54267 0
M  V30 28506 H 2637.93 5.31345 3.77512 0
M  V30 28507 N 2641.36 0.28266 1.55044 0
M  V30 28508 C 2642.3 -0.643071 2.18952 0
M  V30 28509 C 2643.28 -1.14662 1.15289 0
M  V30 28510 O 2644.46 -1.2182 1.43848 0
M  V30 28511 C 2641.59 -1.87784 2.81878 0
M  V30 28512 C 2640.63 -1.50912 3.98908 0
M  V30 28513 S 2641.47 -0.58079 5.32341 0
M  V30 28514 C 2642.62 -1.82376 5.9874 0
M  V30 28515 H 2642.85 -0.100086 2.97131 0
M  V30 28516 H 2640.39 0.0668786 1.54255 0
M  V30 28517 H 2642.35 -2.58653 3.18762 0
M  V30 28518 H 2641.01 -2.39197 2.03577 0
M  V30 28519 H 2640.2 -2.42811 4.41655 0
M  V30 28520 H 2639.8 -0.880546 3.63486 0
M  V30 28521 H 2642.09 -2.76673 6.18432 0
M  V30 28522 H 2643.04 -1.43918 6.9332 0
M  V30 28523 H 2643.44 -1.99213 5.2818 0
M  V30 28524 N 2642.84 -1.57597 0.0100627 0
M  V30 28525 C 2644.12 -1.82249 -0.710264 0
M  V30 28526 C 2644.5 -0.889945 -1.91424 0
M  V30 28527 O 2643.85 0.0589891 -2.28424 0
M  V30 28528 C 2644.06 -3.30995 -1.1065 0
M  V30 28529 C 2645.41 -3.96989 -1.50614 0
M  V30 28530 O 2646.43 -3.35378 -1.20001 0
M  V30 28531 O 2645.29 -5.05543 -2.07578 0
M  V30 28532 H 2642.38 -0.750811 -0.346717 0
M  V30 28533 H 2644.93 -1.69661 0.0362876 0
M  V30 28534 H 2643.7 -3.90508 -0.248758 0
M  V30 28535 H 2643.32 -3.48619 -1.91183 0
M  V30 28536 N 2644.32 0.262839 -1.55393 0
M  V30 28537 C 2645.25 1.32913 -1.9198 0
M  V30 28538 C 2646.23 1.51016 -0.782826 0
M  V30 28539 O 2647.42 1.6389 -1.04181 0
M  V30 28540 C 2644.55 2.68684 -2.2006 0
M  V30 28541 C 2643.5 2.65298 -3.35858 0
M  V30 28542 C 2642.83 4.04715 -3.49442 0
M  V30 28543 C 2644.13 2.23677 -4.71981 0
M  V30 28544 H 2645.82 1.02539 -2.81293 0
M  V30 28545 H 2643.37 0.491823 -1.35341 0
M  V30 28546 H 2645.32 3.43399 -2.44243 0
M  V30 28547 H 2644.04 3.00661 -1.27556 0
M  V30 28548 H 2642.7 1.9304 -3.11659 0
M  V30 28549 H 2642.35 4.33932 -2.54386 0
M  V30 28550 H 2642.05 4.03342 -4.27304 0
M  V30 28551 H 2643.57 4.81155 -3.75929 0
M  V30 28552 H 2644.99 2.88118 -4.95642 0
M  V30 28553 H 2643.39 2.33446 -5.52832 0
M  V30 28554 H 2644.46 1.18819 -4.70117 0
M  V30 28555 N 2645.8 1.48499 0.527807 0
M  V30 28556 C 2647.21 1.5014 1.10972 0
M  V30 28557 C 2647.56 0.272412 1.943 0
M  V30 28558 O 2646.69 -0.620264 2.0732 0
M  V30 28559 C 2647.28 2.72053 2.01923 0
M  V30 28560 C 2645.84 2.76559 2.55328 0
M  V30 28561 C 2644.99 2.43685 1.32336 0
M  V30 28562 H 2647.94 1.55584 0.312958 0
M  V30 28563 H 2647.96 2.50694 2.86239 0
M  V30 28564 H 2647.47 3.61484 1.41248 0
M  V30 28565 H 2645.57 1.91341 3.19717 0
M  V30 28566 H 2645.68 3.78044 2.94313 0
M  V30 28567 H 2644.05 1.94887 1.63985 0
M  V30 28568 H 2644.83 3.35359 0.734106 0
M  V30 28569 N 2647.28 -0.776847 1.37123 0
M  V30 28570 C 2648.21 -1.90399 1.35168 0
M  V30 28571 C 2649.19 -1.68657 0.221099 0
M  V30 28572 O 2650.37 -1.89589 0.420675 0
M  V30 28573 C 2647.5 -3.27609 1.1528 0
M  V30 28574 C 2646.46 -3.63904 2.25295 0
M  V30 28575 C 2645.78 -4.996 1.90536 0
M  V30 28576 C 2647.08 -3.71181 3.67453 0
M  V30 28577 H 2648.78 -1.92293 2.29486 0
M  V30 28578 H 2646.32 -0.923753 1.10466 0
M  V30 28579 H 2648.28 -4.06094 1.12543 0
M  V30 28580 H 2647 -3.26135 0.17416 0
M  V30 28581 H 2645.66 -2.87724 2.27179 0
M  V30 28582 H 2645.31 -4.9466 0.912147 0
M  V30 28583 H 2645.01 -5.24853 2.64202 0
M  V30 28584 H 2646.53 -5.8049 1.89377 0
M  V30 28585 H 2647.95 -4.39829 3.67727 0
M  V30 28586 H 2646.34 -4.07929 4.4013 0
M  V30 28587 H 2647.41 -2.7197 4.01448 0
M  V30 28588 N 2648.76 -1.2161 -1.00244 0
M  V30 28589 C 2650 -1.03641 -1.74317 0
M  V30 28590 C 2650.33 0.428715 -1.89409 0
M  V30 28591 O 2649.61 1.31807 -1.43028 0
M  V30 28592 C 2649.89 -1.73717 -3.15428 0
M  V30 28593 C 2649.75 -3.27765 -3.08043 0
M  V30 28594 C 2651.06 -1.4818 -4.14404 0
M  V30 28595 H 2648.18 -0.377911 -0.632734 0
M  V30 28596 H 2650.83 -1.4982 -1.16851 0
M  V30 28597 H 2648.98 -1.34458 -3.6449 0
M  V30 28598 H 2650.65 -3.76407 -2.66674 0
M  V30 28599 H 2648.89 -3.57935 -2.45081 0
M  V30 28600 H 2649.56 -3.71965 -4.07855 0
M  V30 28601 H 2652.04 -1.82264 -3.74057 0
M  V30 28602 H 2650.91 -1.99722 -5.11275 0
M  V30 28603 H 2651.17 -0.412351 -4.40173 0
M  V30 28604 N 2650.23 1.19778 -1.02425 0
M  V30 28605 C 2651.64 1.71043 -0.748419 0
M  V30 28606 C 2652 1.82019 0.732366 0
M  V30 28607 O 2651.12 1.48809 1.57114 0
M  V30 28608 C 2651.72 3.10658 -1.35193 0
M  V30 28609 C 2650.27 3.59201 -1.12478 0
M  V30 28610 C 2649.42 2.36193 -1.45287 0
M  V30 28611 H 2652.37 1.04684 -1.19277 0
M  V30 28612 H 2652.39 3.73106 -0.746473 0
M  V30 28613 H 2651.91 3.02637 -2.42966 0
M  V30 28614 H 2650.01 3.72543 -0.0650637 0
M  V30 28615 H 2650.12 4.43585 -1.81023 0
M  V30 28616 H 2648.48 2.39305 -0.872076 0
M  V30 28617 H 2649.27 2.30806 -2.54133 0
M  V30 28618 N 2651.71 0.801501 1.35697 0
M  V30 28619 C 2652.96 0.378745 1.98519 0
M  V30 28620 C 2653.28 -1.05635 1.63909 0
M  V30 28621 O 2652.55 -1.73004 0.919043 0
M  V30 28622 H 2651.13 0.137055 0.734319 0
M  V30 28623 H 2653.79 1.02622 1.65695 0
M  V30 28624 H 2652.89 0.480338 3.08382 0
M  V30 28625 N 2653.19 -1.47521 0.554558 0
M  V30 28626 C 2654.47 -1.95567 -0.036036 0
M  V30 28627 C 2654.85 -1.49713 -1.48826 0
M  V30 28628 O 2654.19 -0.734755 -2.16365 0
M  V30 28629 C 2654.4 -3.48837 0.106692 0
M  V30 28630 C 2655.75 -4.24581 -0.0400153 0
M  V30 28631 O 2656.78 -3.56184 0.0341079 0
M  V30 28632 O 2655.64 -5.46138 -0.199015 0
M  V30 28633 H 2652.73 -0.824393 -0.0656149 0
M  V30 28634 H 2655.28 -1.57934 0.620894 0
M  V30 28635 H 2654.05 -3.75008 1.11734 0
M  V30 28636 H 2653.67 -3.93229 -0.587971 0
M  V30 28637 N 2654.67 -0.290879 -1.54892 0
M  V30 28638 C 2655.61 0.589701 -2.23139 0
M  V30 28639 C 2656.58 1.1375 -1.21038 0
M  V30 28640 O 2657.77 1.1839 -1.49628 0
M  V30 28641 C 2654.91 1.76055 -2.96814 0
M  V30 28642 C 2654.02 1.24511 -4.13668 0
M  V30 28643 C 2653.16 2.37902 -4.74948 0
M  V30 28644 C 2652.2 1.8344 -5.83966 0
M  V30 28645 N 2651.33 2.90365 -6.39244 0
M  V30 28646 H 2656.17 0.00109677 -2.98 0
M  V30 28647 H 2653.71 -0.0112265 -1.47096 0
M  V30 28648 H 2655.67 2.44903 -3.37755 0
M  V30 28649 H 2654.3 2.32094 -2.24348 0
M  V30 28650 H 2653.35 0.449221 -3.77738 0
M  V30 28651 H 2654.66 0.806338 -4.92239 0
M  V30 28652 H 2653.82 3.14715 -5.1869 0
M  V30 28653 H 2652.56 2.85102 -3.95687 0
M  V30 28654 H 2651.56 1.05113 -5.39659 0
M  V30 28655 H 2652.79 1.37157 -6.65105 0
M  V30 28656 H 2650.73 3.36918 -5.6287 0
M  V30 28657 H 2650.65 2.50953 -7.13133 0
M  V30 28658 H 2651.92 3.67106 -6.87643 0
M  V30 28659 N 2656.15 1.57589 -0.0184203 0
M  V30 28660 C 2657.39 1.90533 0.661816 0
M  V30 28661 C 2657.71 0.895397 1.73902 0
M  V30 28662 O 2658.91 1.1157 2.47516 0
M  V30 28663 C 2657.37 3.38288 1.22838 0
M  V30 28664 C 2656.98 4.47618 0.185024 0
M  V30 28665 C 2658.72 3.80316 1.88575 0
M  V30 28666 C 2656.63 5.86462 0.76262 0
M  V30 28667 H 2655.56 0.71101 0.25096 0
M  V30 28668 H 2658.21 1.83317 -0.0819757 0
M  V30 28669 H 2656.59 3.40401 2.02344 0
M  V30 28670 H 2657.77 4.57049 -0.58679 0
M  V30 28671 H 2656.08 4.14726 -0.372962 0
M  V30 28672 H 2658.68 4.81397 2.32726 0
M  V30 28673 H 2659.02 3.14806 2.72402 0
M  V30 28674 H 2659.55 3.8058 1.15775 0
M  V30 28675 H 2656.29 6.55489 -0.0372865 0
M  V30 28676 H 2655.81 5.80659 1.50317 0
M  V30 28677 H 2657.49 6.34699 1.25565 0
M  V30 28678 N 2657.62 -0.254594 1.5553 0
M  V30 28679 C 2658.57 -1.3178 1.86059 0
M  V30 28680 C 2659.56 -1.43849 0.720852 0
M  V30 28681 O 2660.75 -1.4722 0.982612 0
M  V30 28682 C 2657.88 -2.67471 2.15208 0
M  V30 28683 C 2656.96 -2.59438 3.35489 0
M  V30 28684 N 2657.36 -2.21032 4.54949 0
M  V30 28685 C 2655.65 -2.90466 3.38446 0
M  V30 28686 C 2656.35 -2.23443 5.37074 0
M  V30 28687 N 2655.33 -2.62643 4.75941 0
M  V30 28688 H 2659.13 -1.01124 2.75955 0
M  V30 28689 H 2656.65 -0.463228 1.55653 0
M  V30 28690 H 2658.64 -3.4419 2.35241 0
M  V30 28691 H 2657.3 -2.99 1.26606 0
M  V30 28692 H 2658.31 -1.92703 4.80714 0
M  V30 28693 H 2654.99 -3.26586 2.60092 0
M  V30 28694 H 2656.38 -1.96155 6.4263 0
M  V30 28695 N 2659.1 -1.48777 -0.519925 0
M  V30 28696 C 2660.34 -1.5891 -1.28557 0
M  V30 28697 C 2660.71 -0.261452 -1.90212 0
M  V30 28698 O 2661.91 -0.237838 -2.67746 0
M  V30 28699 C 2660.18 -2.70292 -2.33831 0
M  V30 28700 S 2661.74 -3.00256 -3.19987 0
M  V30 28701 H 2658.55 -0.560724 -0.43716 0
M  V30 28702 H 2661.16 -1.86348 -0.591172 0
M  V30 28703 H 2659.86 -3.65303 -1.87034 0
M  V30 28704 H 2659.39 -2.44788 -3.07965 0
M  V30 28705 H 2661.41 -2.40325 -4.34118 0
M  V30 28706 N 2660.58 0.769564 -1.37534 0
M  V30 28707 C 2661.51 1.8968 -1.36176 0
M  V30 28708 C 2662.49 1.68537 -0.23004 0
M  V30 28709 O 2663.68 1.89363 -0.430723 0
M  V30 28710 C 2660.81 3.26993 -1.17016 0
M  V30 28711 C 2659.76 3.62704 -2.27222 0
M  V30 28712 C 2659.09 4.98582 -1.93183 0
M  V30 28713 C 2660.39 3.69228 -3.69416 0
M  V30 28714 H 2662.08 1.91074 -2.30502 0
M  V30 28715 H 2659.63 0.917882 -1.10955 0
M  V30 28716 H 2661.58 4.05491 -1.14695 0
M  V30 28717 H 2660.3 3.26038 -0.191453 0
M  V30 28718 H 2658.96 2.86515 -2.28702 0
M  V30 28719 H 2658.61 4.9417 -0.938368 0
M  V30 28720 H 2658.31 5.23445 -2.66982 0
M  V30 28721 H 2659.83 5.79477 -1.92453 0
M  V30 28722 H 2661.25 4.37873 -3.70055 0
M  V30 28723 H 2659.64 4.05589 -4.42287 0
M  V30 28724 H 2660.71 2.69837 -4.02885 0
M  V30 28725 N 2662.06 1.22139 0.995977 0
M  V30 28726 C 2663.34 0.952672 1.70832 0
M  V30 28727 C 2663.72 -0.533083 2.04258 0
M  V30 28728 O 2663.06 -1.50031 1.72345 0
M  V30 28729 C 2663.27 1.84706 2.96116 0
M  V30 28730 C 2664.62 2.10131 3.68958 0
M  V30 28731 O 2665.65 1.82129 3.06117 0
M  V30 28732 O 2664.5 2.57539 4.82012 0
M  V30 28733 H 2661.6 0.35801 0.745492 0
M  V30 28734 H 2664.14 1.33111 1.0526 0
M  V30 28735 H 2662.92 2.85218 2.67893 0
M  V30 28736 H 2662.54 1.47002 3.69427 0
M  V30 28737 N 2663.54 -1.19233 1.03059 0
M  V30 28738 C 2664.79 -1.88285 0.723293 0
M  V30 28739 C 2665.1 -1.80596 -0.751301 0
M  V30 28740 O 2666.3 -2.44914 -1.17172 0
M  V30 28741 C 2664.76 -3.37738 1.24344 0
M  V30 28742 C 2664.37 -3.53981 2.74594 0
M  V30 28743 C 2666.11 -4.12256 1.01221 0
M  V30 28744 C 2664.02 -4.97336 3.20017 0
M  V30 28745 H 2662.95 -0.705196 0.266861 0
M  V30 28746 H 2665.6 -1.34793 1.24511 0
M  V30 28747 H 2663.98 -3.90637 0.649526 0
M  V30 28748 H 2665.16 -3.11402 3.39655 0
M  V30 28749 H 2663.47 -2.92854 2.96016 0
M  V30 28750 H 2666.07 -5.17976 1.32684 0
M  V30 28751 H 2666.41 -4.16269 -0.0509279 0
M  V30 28752 H 2666.94 -3.65499 1.57021 0
M  V30 28753 H 2663.68 -4.98485 4.25667 0
M  V30 28754 H 2663.2 -5.4067 2.59685 0
M  V30 28755 H 2664.88 -5.65998 3.13457 0
M  V30 28756 N 2665.01 -0.808686 -1.3527 0
M  V30 28757 C 2665.94 -0.235022 -2.32314 0
M  V30 28758 C 2666.93 0.640682 -1.57573 0
M  V30 28759 O 2668.11 0.570518 -1.85631 0
M  V30 28760 C 2665.24 0.615541 -3.41802 0
M  V30 28761 C 2664.19 -0.161842 -4.27694 0
M  V30 28762 C 2663.52 0.810556 -5.28521 0
M  V30 28763 C 2664.82 -1.36202 -5.04229 0
M  V30 28764 H 2666.51 -1.0458 -2.80541 0
M  V30 28765 H 2664.06 -0.504339 -1.34879 0
M  V30 28766 H 2666.01 1.02695 -4.08695 0
M  V30 28767 H 2664.74 1.45923 -2.92189 0
M  V30 28768 H 2663.4 -0.554446 -3.62383 0
M  V30 28769 H 2663.04 1.6498 -4.75174 0
M  V30 28770 H 2662.74 0.294719 -5.8686 0
M  V30 28771 H 2664.27 1.22012 -5.98285 0
M  V30 28772 H 2665.68 -1.02538 -5.64056 0
M  V30 28773 H 2664.08 -1.81249 -5.72074 0
M  V30 28774 H 2665.15 -2.14759 -4.34749 0
M  V30 28775 N 2666.49 1.47225 -0.562374 0
M  V30 28776 C 2667.74 2.0246 -0.0402521 0
M  V30 28777 C 2668.07 1.43616 1.31166 0
M  V30 28778 O 2667.32 0.583333 1.86804 0
M  V30 28779 C 2667.62 3.57269 0.0969189 0
M  V30 28780 C 2667.29 4.35056 -1.18477 0
M  V30 28781 C 2665.95 4.56028 -1.53596 0
M  V30 28782 C 2668.3 4.79878 -2.03387 0
M  V30 28783 C 2665.63 5.19072 -2.73462 0
M  V30 28784 C 2667.98 5.44245 -3.2246 0
M  V30 28785 C 2666.65 5.63449 -3.57885 0
M  V30 28786 H 2665.92 0.740854 -0.0147293 0
M  V30 28787 H 2668.56 1.76836 -0.734926 0
M  V30 28788 H 2666.87 3.81914 0.874593 0
M  V30 28789 H 2668.56 3.97662 0.516338 0
M  V30 28790 H 2665.15 4.19015 -0.901334 0
M  V30 28791 H 2669.34 4.6345 -1.77561 0
M  V30 28792 H 2664.59 5.32133 -3.01071 0
M  V30 28793 H 2668.77 5.77938 -3.88536 0
M  V30 28794 H 2666.4 6.1207 -4.50859 0
M  V30 28795 N 2667.97 0.299089 1.54736 0
M  V30 28796 C 2668.93 -0.564973 2.22128 0
M  V30 28797 C 2669.93 -1.06278 1.20671 0
M  V30 28798 O 2671.12 -0.959119 1.45419 0
M  V30 28799 C 2668.26 -1.78203 2.90614 0
M  V30 28800 H 2669.45 0.0237975 2.99891 0
M  V30 28801 H 2667 0.0499063 1.5622 0
M  V30 28802 H 2667.74 -2.41068 2.16925 0
M  V30 28803 H 2667.52 -1.43274 3.64986 0
M  V30 28804 H 2669.01 -2.39594 3.4203 0
M  V30 28805 N 2669.45 -1.57577 0.0267774 0
M  V30 28806 C 2670.7 -1.91704 -0.652371 0
M  V30 28807 C 2671.02 -0.902967 -1.72269 0
M  V30 28808 O 2670.28 0.08845 -1.955 0
M  V30 28809 C 2670.58 -3.32562 -1.30909 0
M  V30 28810 C 2670.24 -4.49385 -0.369362 0
M  V30 28811 C 2668.91 -4.81073 -0.110707 0
M  V30 28812 C 2671.26 -5.20468 0.276063 0
M  V30 28813 C 2668.59 -5.81203 0.801218 0
M  V30 28814 C 2670.94 -6.21572 1.17603 0
M  V30 28815 C 2669.6 -6.51703 1.4436 0
M  V30 28816 H 2668.87 -0.701494 -0.238719 0
M  V30 28817 H 2671.52 -1.91298 0.0880428 0
M  V30 28818 H 2669.82 -3.29219 -2.12419 0
M  V30 28819 H 2671.52 -3.56237 -1.84109 0
M  V30 28820 H 2668.11 -4.24642 -0.581137 0
M  V30 28821 H 2672.29 -4.9622 0.0892872 0
M  V30 28822 H 2667.55 -6.02895 1.01625 0
M  V30 28823 H 2671.72 -6.75774 1.68235 0
M  V30 28824 H 2669.35 -7.29108 2.15188 0
M  V30 28825 N 2670.93 0.246342 -1.55663 0
M  V30 28826 C 2672.15 0.991845 -1.81577 0
M  V30 28827 C 2672.57 1.78926 -0.602576 0
M  V30 28828 O 2671.93 1.77392 0.428764 0
M  V30 28829 C 2671.98 1.92927 -3.05715 0
M  V30 28830 O 2671.7 1.16413 -4.2235 0
M  V30 28831 C 2673.2 2.79072 -3.44432 0
M  V30 28832 H 2670.42 0.291833 -0.604214 0
M  V30 28833 H 2672.96 0.26906 -2.02722 0
M  V30 28834 H 2671.12 2.60633 -2.86617 0
M  V30 28835 H 2671.53 1.79826 -4.9271 0
M  V30 28836 H 2673.01 3.40596 -4.34394 0
M  V30 28837 H 2673.48 3.50212 -2.65043 0
M  V30 28838 H 2674.09 2.16818 -3.65883 0
M  V30 28839 N 2672.4 1.4905 0.512027 0
M  V30 28840 C 2673.35 1.64905 1.61477 0
M  V30 28841 C 2674.32 0.490701 1.58686 0
M  V30 28842 O 2675.51 0.716391 1.7684 0
M  V30 28843 C 2672.65 1.71144 2.99673 0
M  V30 28844 C 2671.76 2.98209 3.12563 0
M  V30 28845 C 2670.89 2.95495 4.41425 0
M  V30 28846 C 2669.93 4.17187 4.47908 0
M  V30 28847 N 2669.07 4.12447 5.68183 0
M  V30 28848 H 2673.91 2.59069 1.47267 0
M  V30 28849 H 2671.45 1.2846 0.716691 0
M  V30 28850 H 2673.41 1.72742 3.79758 0
M  V30 28851 H 2672.04 0.804563 3.12613 0
M  V30 28852 H 2671.09 3.06273 2.25613 0
M  V30 28853 H 2672.4 3.88199 3.13214 0
M  V30 28854 H 2671.55 2.95595 5.29819 0
M  V30 28855 H 2670.29 2.03264 4.43323 0
M  V30 28856 H 2669.3 4.17343 3.57918 0
M  V30 28857 H 2670.52 5.10598 4.47735 0
M  V30 28858 H 2668.47 3.23046 5.70944 0
M  V30 28859 H 2668.39 4.96161 5.70404 0
M  V30 28860 H 2669.65 4.16633 6.58815 0
M  V30 28861 N 2673.88 -0.762259 1.3794 0
M  V30 28862 C 2674.83 -1.89719 1.34572 0
M  V30 28863 C 2675.82 -1.67791 0.232958 0
M  V30 28864 O 2677.03 -1.75465 0.401516 0
M  V30 28865 H 2673.41 -0.624047 0.419605 0
M  V30 28866 H 2675.38 -1.89675 2.3036 0
M  V30 28867 C 2674.13 -3.27099 1.17904 0
M  V30 28868 H 2673.45 -3.44554 2.02787 0
M  V30 28869 H 2674.89 -4.06782 1.196 0
M  V30 28870 C 2673.35 -3.36705 -0.114669 0
M  V30 28871 O 2673.88 -3.86492 -1.09484 0
M  V30 28872 N 2672.08 -2.90111 -0.168579 0
M  V30 28873 H 2671.63 -2.49785 0.629714 0
M  V30 28874 H 2671.59 -2.96918 -1.03378 0
M  V30 28875 N 2675.36 -1.22666 -0.989486 0
M  V30 28876 C 2676.61 -1.05484 -1.73208 0
M  V30 28877 C 2676.94 0.408602 -1.89853 0
M  V30 28878 O 2676.21 1.30283 -1.44418 0
M  V30 28879 C 2676.5 -1.77052 -3.13567 0
M  V30 28880 C 2676.35 -3.31013 -3.04549 0
M  V30 28881 C 2677.67 -1.52567 -4.12809 0
M  V30 28882 H 2674.79 -0.3846 -0.62869 0
M  V30 28883 H 2677.43 -1.51051 -1.15255 0
M  V30 28884 H 2675.58 -1.38317 -3.63044 0
M  V30 28885 H 2677.25 -3.79215 -2.62667 0
M  V30 28886 H 2675.5 -3.60514 -2.41271 0
M  V30 28887 H 2676.17 -3.7627 -4.03887 0
M  V30 28888 H 2678.64 -1.86222 -3.72103 0
M  V30 28889 H 2677.52 -2.05133 -5.09128 0
M  V30 28890 H 2677.78 -0.459014 -4.39711 0
M  V30 28891 N 2676.84 1.18685 -1.0369 0
M  V30 28892 C 2677.77 2.24402 -0.645446 0
M  V30 28893 C 2678.75 1.66471 0.349482 0
M  V30 28894 O 2679.94 1.92828 0.230419 0
M  V30 28895 C 2677.07 3.473 -0.00371441 0
M  V30 28896 C 2676.02 4.17956 -0.921779 0
M  V30 28897 C 2675.35 5.34504 -0.144723 0
M  V30 28898 C 2676.65 4.71867 -2.23918 0
M  V30 28899 H 2678.34 2.57401 -1.52922 0
M  V30 28900 H 2675.89 1.23726 -0.736733 0
M  V30 28901 H 2677.84 4.20456 0.281835 0
M  V30 28902 H 2676.56 3.13524 0.914908 0
M  V30 28903 H 2675.22 3.46692 -1.19165 0
M  V30 28904 H 2674.87 4.96975 0.776186 0
M  V30 28905 H 2674.57 5.82712 -0.756308 0
M  V30 28906 H 2676.09 6.10453 0.133897 0
M  V30 28907 H 2677.51 5.36737 -2.01459 0
M  V30 28908 H 2675.9 5.30594 -2.80339 0
M  V30 28909 H 2676.97 3.89495 -2.88829 0
M  V30 28910 N 2678.32 0.815849 1.34839 0
M  V30 28911 C 2679.57 0.399779 1.98106 0
M  V30 28912 C 2679.89 -1.03891 1.6502 0
M  V30 28913 O 2679.16 -1.7202 0.937341 0
M  V30 28914 H 2677.74 0.144836 0.732824 0
M  V30 28915 H 2680.4 1.04373 1.64597 0
M  V30 28916 H 2679.49 0.513019 3.07855 0
M  V30 28917 N 2679.8 -1.46924 0.570174 0
M  V30 28918 C 2680.71 -2.33961 -0.173019 0
M  V30 28919 C 2681.72 -1.48989 -0.898798 0
M  V30 28920 O 2682.9 -1.81888 -0.864793 0
M  V30 28921 C 2679.96 -3.25939 -1.18172 0
M  V30 28922 C 2679.02 -4.26807 -0.461966 0
M  V30 28923 C 2678.26 -5.1439 -1.42261 0
M  V30 28924 O 2678.48 -5.04667 -2.65833 0
M  V30 28925 O 2677.41 -5.94514 -0.940023 0
M  V30 28926 H 2681.24 -2.98838 0.541269 0
M  V30 28927 H 2678.82 -1.45695 0.330673 0
M  V30 28928 H 2680.71 -3.82718 -1.76365 0
M  V30 28929 H 2679.38 -2.63675 -1.8777 0
M  V30 28930 H 2678.29 -3.73751 0.161494 0
M  V30 28931 H 2679.62 -4.91822 0.192805 0
M  V30 28932 N 2681.27 -0.307291 -1.54575 0
M  V30 28933 C 2682.5 0.305343 -2.0514 0
M  V30 28934 C 2682.92 1.46257 -1.18281 0
M  V30 28935 O 2682.28 1.8032 -0.188275 0
M  V30 28936 C 2682.33 0.733221 -3.53067 0
M  V30 28937 O 2681.43 1.83735 -3.69209 0
M  V30 28938 H 2680.77 0.0581989 -0.661445 0
M  V30 28939 H 2683.3 -0.450966 -1.99568 0
M  V30 28940 H 2683.31 1.02032 -3.95036 0
M  V30 28941 H 2681.99 -0.113271 -4.15746 0
M  V30 28942 H 2680.57 1.55031 -3.39146 0
M  V30 28943 N 2682.75 1.57561 -0.0351337 0
M  V30 28944 C 2684 1.91668 0.640926 0
M  V30 28945 C 2684.32 0.912712 1.72321 0
M  V30 28946 O 2683.59 -0.0448745 1.95849 0
M  V30 28947 H 2682.17 0.707487 0.23973 0
M  V30 28948 H 2684.83 1.94717 -0.0843552 0
M  V30 28949 H 2683.93 2.92454 1.08982 0
M  V30 28950 N 2684.23 -0.238084 1.55791 0
M  V30 28951 C 2685.14 -1.31621 1.94198 0
M  V30 28952 C 2686.16 -1.52184 0.843572 0
M  V30 28953 O 2687.33 -1.65635 1.14573 0
M  V30 28954 C 2684.4 -2.64914 2.23654 0
M  V30 28955 C 2683.46 -2.52798 3.46975 0
M  V30 28956 C 2682.69 -3.79734 3.75017 0
M  V30 28957 O 2682.91 -4.82014 3.0499 0
M  V30 28958 O 2681.85 -3.77838 4.68532 0
M  V30 28959 H 2685.67 -1.02038 2.86045 0
M  V30 28960 H 2683.26 -0.439578 1.42787 0
M  V30 28961 H 2685.14 -3.43665 2.43869 0
M  V30 28962 H 2683.82 -2.94212 1.34984 0
M  V30 28963 H 2682.72 -1.72303 3.32058 0
M  V30 28964 H 2684.06 -2.28443 4.35975 0
M  V30 28965 N 2685.71 -1.4932 -0.504115 0
M  V30 28966 C 2686.64 -1.6867 -1.6147 0
M  V30 28967 C 2687.62 -0.535407 -1.61454 0
M  V30 28968 O 2688.8 -0.770899 -1.78244 0
M  V30 28969 C 2685.93 -1.75033 -2.99968 0
M  V30 28970 C 2684.89 -2.89921 -3.14849 0
M  V30 28971 C 2684.21 -2.81395 -4.54666 0
M  V30 28972 C 2685.51 -4.30898 -2.95168 0
M  V30 28973 H 2687.21 -2.61651 -1.45531 0
M  V30 28974 H 2684.75 -1.25914 -0.698689 0
M  V30 28975 H 2686.71 -1.87157 -3.77558 0
M  V30 28976 H 2685.43 -0.786496 -3.16989 0
M  V30 28977 H 2684.09 -2.77395 -2.39682 0
M  V30 28978 H 2683.74 -1.82926 -4.68559 0
M  V30 28979 H 2683.44 -3.58503 -4.65564 0
M  V30 28980 H 2684.96 -2.95522 -5.34321 0
M  V30 28981 H 2686.38 -4.44122 -3.62531 0
M  V30 28982 H 2684.77 -5.09204 -3.1754 0
M  V30 28983 H 2685.84 -4.45559 -1.91324 0
M  V30 28984 N 2687.19 0.754933 -1.38342 0
M  V30 28985 C 2688.46 1.50449 -1.24998 0
M  V30 28986 C 2688.84 2.10572 0.149207 0
M  V30 28987 O 2688.19 1.9695 1.15857 0
M  V30 28988 C 2688.4 2.57193 -2.35908 0
M  V30 28989 C 2689.75 3.24133 -2.74268 0
M  V30 28990 O 2690.77 2.67497 -2.3521 0
M  V30 28991 O 2689.63 4.26567 -3.41617 0
M  V30 28992 H 2686.73 0.667136 -0.488732 0
M  V30 28993 H 2689.27 0.790459 -1.50166 0
M  V30 28994 H 2688.04 2.11005 -3.29534 0
M  V30 28995 H 2687.67 3.36178 -2.12297 0
M  V30 28996 N 2688.66 1.23189 0.982967 0
M  V30 28997 C 2689.89 1.08991 1.76453 0
M  V30 28998 C 2690.31 -0.354659 1.84726 0
M  V30 28999 O 2689.67 -1.25646 1.30701 0
M  V30 29000 C 2689.72 1.71714 3.17091 0
M  V30 29001 O 2688.82 0.977547 4.00647 0
M  V30 29002 H 2688.16 0.382187 0.542982 0
M  V30 29003 H 2690.69 1.6319 1.2341 0
M  V30 29004 H 2690.7 1.76847 3.67681 0
M  V30 29005 H 2689.38 2.76829 3.10385 0
M  V30 29006 H 2687.96 1.00296 3.59159 0
M  V30 29007 N 2690.14 -1.18133 1.04318 0
M  V30 29008 C 2691.07 -2.24057 0.657338 0
M  V30 29009 C 2692.05 -1.66654 -0.340649 0
M  V30 29010 O 2693.24 -1.92948 -0.22019 0
M  V30 29011 C 2690.37 -3.47293 0.0221325 0
M  V30 29012 C 2689.32 -4.17461 0.943931 0
M  V30 29013 C 2688.65 -5.3442 0.173067 0
M  V30 29014 C 2689.95 -4.70673 2.26417 0
M  V30 29015 H 2691.64 -2.56586 1.54285 0
M  V30 29016 H 2689.19 -1.23334 0.743284 0
M  V30 29017 H 2691.14 -4.206 -0.259533 0
M  V30 29018 H 2689.86 -3.14004 -0.898268 0
M  V30 29019 H 2688.52 -3.46055 1.21002 0
M  V30 29020 H 2688.17 -4.9738 -0.74982 0
M  V30 29021 H 2687.87 -5.82303 0.7872 0
M  V30 29022 H 2689.4 -6.10516 -0.101521 0
M  V30 29023 H 2690.81 -5.35661 2.04303 0
M  V30 29024 H 2689.21 -5.291 2.83149 0
M  V30 29025 H 2690.28 -3.87957 2.9089 0
M  V30 29026 N 2691.62 -0.822988 -1.34405 0
M  V30 29027 C 2692.57 -0.24288 -2.29518 0
M  V30 29028 C 2693.54 0.63237 -1.53591 0
M  V30 29029 O 2694.72 0.573998 -1.81961 0
M  V30 29030 C 2691.86 0.589191 -3.40033 0
M  V30 29031 C 2690.98 -0.308311 -4.30898 0
M  V30 29032 C 2690.11 0.533332 -5.28516 0
M  V30 29033 C 2689.15 -0.363551 -6.11019 0
M  V30 29034 N 2688.29 0.439024 -7.00726 0
M  V30 29035 H 2693.13 -1.05933 -2.78536 0
M  V30 29036 H 2690.66 -0.533896 -1.37069 0
M  V30 29037 H 2692.62 1.08693 -4.02792 0
M  V30 29038 H 2691.25 1.37076 -2.9225 0
M  V30 29039 H 2690.3 -0.924268 -3.69001 0
M  V30 29040 H 2691.62 -0.997948 -4.88715 0
M  V30 29041 H 2690.77 1.09555 -5.96727 0
M  V30 29042 H 2689.51 1.25647 -4.71237 0
M  V30 29043 H 2688.51 -0.937908 -5.41741 0
M  V30 29044 H 2689.74 -1.08481 -6.7038 0
M  V30 29045 H 2687.68 1.14584 -6.45915 0
M  V30 29046 H 2687.6 -0.192223 -7.55756 0
M  V30 29047 H 2688.87 0.983988 -7.73264 0
M  V30 29048 N 2693.1 1.4662 -0.577957 0
M  V30 29049 C 2694.06 2.28723 0.147765 0
M  V30 29050 C 2695.06 1.38125 0.8233 0
M  V30 29051 O 2696.25 1.60549 0.675983 0
M  V30 29052 C 2693.38 3.1838 1.21848 0
M  V30 29053 H 2694.58 2.94361 -0.573706 0
M  V30 29054 H 2692.13 1.52652 -0.33573 0
M  V30 29055 H 2692.86 2.57479 1.97168 0
M  V30 29056 H 2692.65 3.8508 0.738647 0
M  V30 29057 H 2694.14 3.80189 1.72761 0
M  V30 29058 N 2694.58 0.315484 1.5441 0
M  V30 29059 C 2695.52 -0.569731 2.25515 0
M  V30 29060 C 2696.52 -1.1252 1.26632 0
M  V30 29061 O 2697.72 -1.07417 1.44435 0
M  V30 29062 H 2694.1 -0.202363 0.72426 0
M  V30 29063 H 2696.07 0.0523419 2.98354 0
M  V30 29064 C 2694.82 -1.723 3.02007 0
M  V30 29065 H 2694.14 -1.30482 3.77908 0
M  V30 29066 H 2695.58 -2.31815 3.55018 0
M  V30 29067 C 2694.04 -2.6358 2.09827 0
M  V30 29068 O 2694.57 -3.65075 1.6758 0
M  V30 29069 N 2692.78 -2.31634 1.75482 0
M  V30 29070 H 2692.32 -1.49141 2.10035 0
M  V30 29071 H 2692.28 -2.92971 1.14084 0
M  V30 29072 N 2696.05 -1.5754 0.0434891 0
M  V30 29073 C 2696.99 -2.06619 -0.968693 0
M  V30 29074 C 2697.97 -0.965023 -1.30867 0
M  V30 29075 O 2699.15 -1.2364 -1.42286 0
M  V30 29076 C 2696.28 -2.50027 -2.28482 0
M  V30 29077 C 2695.32 -3.71305 -2.09844 0
M  V30 29078 S 2696.16 -5.17308 -1.38392 0
M  V30 29079 C 2697.31 -5.64024 -2.71344 0
M  V30 29080 H 2697.54 -2.9215 -0.550969 0
M  V30 29081 H 2695.08 -1.53477 -0.16858 0
M  V30 29082 H 2697.04 -2.757 -3.04137 0
M  V30 29083 H 2695.7 -1.64817 -2.67384 0
M  V30 29084 H 2694.89 -3.99573 -3.07177 0
M  V30 29085 H 2694.49 -3.45859 -1.42329 0
M  V30 29086 H 2696.78 -5.69141 -3.67539 0
M  V30 29087 H 2697.73 -6.63354 -2.47723 0
M  V30 29088 H 2698.13 -4.91724 -2.7725 0
M  V30 29089 N 2697.53 0.229818 -1.55915 0
M  V30 29090 C 2698.44 1.3059 -1.94894 0
M  V30 29091 C 2699.46 1.51734 -0.851631 0
M  V30 29092 O 2700.63 1.65025 -1.1545 0
M  V30 29093 C 2697.7 2.63725 -2.25056 0
M  V30 29094 C 2696.76 2.50954 -3.48311 0
M  V30 29095 C 2695.99 3.7774 -3.77025 0
M  V30 29096 O 2696.22 4.80389 -3.07542 0
M  V30 29097 O 2695.15 3.75348 -4.70529 0
M  V30 29098 H 2698.98 1.0052 -2.86582 0
M  V30 29099 H 2696.56 0.432 -1.43018 0
M  V30 29100 H 2698.44 3.42367 -2.45688 0
M  V30 29101 H 2697.12 2.93492 -1.36543 0
M  V30 29102 H 2696.03 1.7054 -3.32967 0
M  V30 29103 H 2697.36 2.26128 -4.37181 0
M  V30 29104 N 2699.01 1.49585 0.49619 0
M  V30 29105 C 2699.92 1.69352 1.62349 0
M  V30 29106 C 2700.94 0.576176 1.64183 0
M  V30 29107 O 2702.11 0.851472 1.82516 0
M  V30 29108 C 2699.18 1.76018 2.98695 0
M  V30 29109 C 2698.24 2.99623 3.07449 0
M  V30 29110 C 2697.47 3.05961 4.37291 0
M  V30 29111 O 2697.69 2.19762 5.26366 0
M  V30 29112 O 2696.63 3.98468 4.51117 0
M  V30 29113 H 2700.45 2.64861 1.48601 0
M  V30 29114 H 2698.04 1.33383 0.672999 0
M  V30 29115 H 2699.92 1.82728 3.79722 0
M  V30 29116 H 2698.6 0.836883 3.12695 0
M  V30 29117 H 2697.5 2.98428 2.25592 0
M  V30 29118 H 2698.84 3.91448 2.98378 0
M  V30 29119 N 2700.49 -0.747586 1.3874 0
M  V30 29120 C 2701.44 -1.86144 1.36452 0
M  V30 29121 C 2702.41 -1.64554 0.226127 0
M  V30 29122 O 2703.59 -1.86136 0.419293 0
M  V30 29123 C 2700.73 -3.23514 1.20136 0
M  V30 29124 C 2699.84 -3.56895 2.43413 0
M  V30 29125 C 2698.98 -4.83601 2.19781 0
M  V30 29126 C 2698.02 -5.09786 3.38799 0
M  V30 29127 N 2697.15 -6.2769 3.14564 0
M  V30 29128 H 2701.99 -1.87434 2.31673 0
M  V30 29129 H 2699.53 -0.916043 1.15096 0
M  V30 29130 H 2701.49 -4.02793 1.0869 0
M  V30 29131 H 2700.12 -3.21535 0.285509 0
M  V30 29132 H 2699.17 -2.72414 2.65509 0
M  V30 29133 H 2700.48 -3.7217 3.321 0
M  V30 29134 H 2699.64 -5.70835 2.05506 0
M  V30 29135 H 2698.38 -4.70475 1.28469 0
M  V30 29136 H 2697.38 -4.21019 3.53586 0
M  V30 29137 H 2698.61 -5.24805 4.30995 0
M  V30 29138 H 2696.55 -6.15876 2.25904 0
M  V30 29139 H 2696.47 -6.43493 3.96802 0
M  V30 29140 H 2697.74 -7.17796 3.03956 0
M  V30 29141 N 2701.97 -1.23709 -0.97642 0
M  V30 29142 C 2703.21 -1.07157 -1.71825 0
M  V30 29143 C 2703.54 0.390948 -1.9053 0
M  V30 29144 O 2702.8 1.30562 -1.45781 0
M  V30 29145 C 2703.1 -1.74668 -3.11811 0
M  V30 29146 C 2702.76 -3.24591 -3.12972 0
M  V30 29147 C 2701.42 -3.65495 -3.12996 0
M  V30 29148 C 2703.78 -4.20475 -3.07978 0
M  V30 29149 C 2701.1 -5.00734 -3.05748 0
M  V30 29150 C 2703.46 -5.55711 -3.02272 0
M  V30 29151 C 2702.12 -5.95973 -3.0062 0
M  V30 29152 H 2701.39 -0.392113 -0.628751 0
M  V30 29153 H 2704.04 -1.53695 -1.14236 0
M  V30 29154 H 2702.34 -1.20499 -3.7281 0
M  V30 29155 H 2704.04 -1.59335 -3.67986 0
M  V30 29156 H 2700.63 -2.92031 -3.13713 0
M  V30 29157 H 2704.81 -3.89879 -3.07096 0
M  V30 29158 H 2700.07 -5.31138 -3.02825 0
M  V30 29159 H 2704.24 -6.2972 -2.97365 0
M  V30 29160 H 2701.87 -7.00729 -2.94759 0
M  V30 29161 N 2703.44 1.17579 -1.04943 0
M  V30 29162 C 2704.38 2.20372 -0.592557 0
M  V30 29163 C 2705.36 1.58156 0.377534 0
M  V30 29164 O 2706.54 1.8626 0.289747 0
M  V30 29165 C 2703.67 3.38438 0.133156 0
M  V30 29166 C 2702.71 4.1909 -0.791557 0
M  V30 29167 S 2703.55 4.84568 -2.27934 0
M  V30 29168 C 2704.7 6.06026 -1.56472 0
M  V30 29169 H 2704.93 2.58785 -1.46347 0
M  V30 29170 H 2702.47 1.28153 -0.861171 0
M  V30 29171 H 2704.43 4.06857 0.545675 0
M  V30 29172 H 2703.09 2.98418 0.980071 0
M  V30 29173 H 2702.28 5.03474 -0.230127 0
M  V30 29174 H 2701.88 3.56096 -1.14333 0
M  V30 29175 H 2704.17 6.71985 -0.862657 0
M  V30 29176 H 2705.12 6.66692 -2.38595 0
M  V30 29177 H 2705.52 5.54588 -1.05322 0
M  V30 29178 N 2704.92 0.830104 1.33967 0
M  V30 29179 C 2705.89 0.26239 2.27693 0
M  V30 29180 C 2706.89 -0.563849 1.5059 0
M  V30 29181 O 2708.08 -0.378911 1.70029 0
M  V30 29182 C 2705.21 -0.631321 3.35003 0
M  V30 29183 H 2706.4 1.08933 2.79417 0
M  V30 29184 H 2703.95 0.602512 1.4422 0
M  V30 29185 H 2704.69 -1.48104 2.88506 0
M  V30 29186 H 2704.47 -0.0402587 3.92079 0
M  V30 29187 H 2705.96 -1.0221 4.04899 0
M  V30 29188 N 2706.4 -1.46311 0.585725 0
M  V30 29189 C 2707.63 -2.06752 0.0781662 0
M  V30 29190 C 2708.04 -1.43399 -1.2281 0
M  V30 29191 O 2707.4 -0.540344 -1.74317 0
M  V30 29192 C 2707.45 -3.61385 -0.0911292 0
M  V30 29193 O 2707.17 -4.22369 1.16344 0
M  V30 29194 C 2708.67 -4.38762 -0.632688 0
M  V30 29195 H 2705.89 -0.668416 0.0588306 0
M  V30 29196 H 2708.44 -1.87893 0.807251 0
M  V30 29197 H 2706.59 -3.79662 -0.770447 0
M  V30 29198 H 2707.01 -5.15279 0.979173 0
M  V30 29199 H 2708.48 -5.4754 -0.700314 0
M  V30 29200 H 2708.96 -4.07015 -1.65032 0
M  V30 29201 H 2709.56 -4.25298 0.0118603 0
M  V30 29202 N 2707.88 -0.323668 -1.54241 0
M  V30 29203 C 2708.83 0.557764 -2.25814 0
M  V30 29204 C 2709.82 1.11847 -1.27227 0
M  V30 29205 O 2711.03 1.06649 -1.45003 0
M  V30 29206 H 2707.4 0.198519 -0.725323 0
M  V30 29207 H 2709.37 -0.0681636 -2.98322 0
M  V30 29208 C 2708.12 1.70696 -3.02916 0
M  V30 29209 H 2707.45 1.28476 -3.78595 0
M  V30 29210 H 2708.89 2.29929 -3.56242 0
M  V30 29211 C 2707.34 2.62463 -2.11222 0
M  V30 29212 O 2707.87 3.64181 -1.69514 0
M  V30 29213 N 2706.08 2.307 -1.76708 0
M  V30 29214 H 2705.63 1.48025 -2.10823 0
M  V30 29215 H 2705.59 2.92362 -1.15636 0
M  V30 29216 N 2709.36 1.57515 -0.0518432 0
M  V30 29217 C 2710.29 2.14601 0.920246 0
M  V30 29218 C 2711.27 1.06785 1.32404 0
M  V30 29219 O 2712.45 1.34728 1.39864 0
M  V30 29220 C 2709.58 2.69154 2.19485 0
M  V30 29221 C 2708.54 3.81959 1.93109 0
M  V30 29222 C 2707.86 4.23031 3.2703 0
M  V30 29223 C 2709.16 5.07068 1.25217 0
M  V30 29224 H 2710.86 2.96078 0.444749 0
M  V30 29225 H 2708.4 1.42424 0.212483 0
M  V30 29226 H 2710.36 3.0773 2.87889 0
M  V30 29227 H 2709.08 1.8487 2.69241 0
M  V30 29228 H 2707.74 3.43856 1.27117 0
M  V30 29229 H 2707.39 3.35697 3.74589 0
M  V30 29230 H 2707.09 4.99061 3.1018 0
M  V30 29231 H 2708.61 4.64209 3.96665 0
M  V30 29232 H 2710.03 5.43087 1.83656 0
M  V30 29233 H 2708.42 5.88245 1.18691 0
M  V30 29234 H 2709.49 4.84362 0.228297 0
M  V30 29235 N 2710.84 -0.221546 1.56035 0
M  V30 29236 C 2712.06 -0.966994 1.83477 0
M  V30 29237 C 2712.49 -1.77159 0.632171 0
M  V30 29238 O 2711.84 -1.76391 -0.419051 0
M  V30 29239 C 2711.89 -1.86029 3.0891 0
M  V30 29240 O 2711 -2.95562 2.87605 0
M  V30 29241 H 2710.34 -0.273807 0.604918 0
M  V30 29242 H 2712.87 -0.234858 2.03248 0
M  V30 29243 H 2712.88 -2.2701 3.39014 0
M  V30 29244 H 2711.55 -1.26891 3.9607 0
M  V30 29245 H 2710.13 -2.58527 2.68734 0
M  V30 29246 N 2712.31 -1.49846 -0.48825 0
M  V30 29247 C 2713.26 -1.67453 -1.58833 0
M  V30 29248 C 2714.23 -0.515885 -1.57886 0
M  V30 29249 O 2715.42 -0.744434 -1.75678 0
M  V30 29250 C 2712.56 -1.7589 -2.96912 0
M  V30 29251 C 2711.67 -3.03144 -3.07779 0
M  V30 29252 C 2710.8 -3.0248 -4.36668 0
M  V30 29253 C 2709.84 -4.2426 -4.41214 0
M  V30 29254 N 2708.98 -4.21434 -5.6155 0
M  V30 29255 H 2713.82 -2.61379 -1.43127 0
M  V30 29256 H 2711.36 -1.29584 -0.696163 0
M  V30 29257 H 2713.31 -1.78762 -3.76962 0
M  V30 29258 H 2711.94 -0.854195 -3.11293 0
M  V30 29259 H 2711 -3.09823 -2.20712 0
M  V30 29260 H 2712.31 -3.93133 -3.06998 0
M  V30 29261 H 2711.46 -3.03986 -5.2505 0
M  V30 29262 H 2710.2 -2.10291 -4.40033 0
M  V30 29263 H 2709.21 -4.22984 -3.51233 0
M  V30 29264 H 2710.43 -5.17656 -4.39555 0
M  V30 29265 H 2708.38 -3.32088 -5.65733 0
M  V30 29266 H 2708.29 -5.05172 -5.62438 0
M  V30 29267 H 2709.56 -4.27061 -6.52104 0
M  V30 29268 N 2713.79 0.740218 -1.39135 0
M  V30 29269 C 2715.02 1.53456 -1.3952 0
M  V30 29270 C 2715.44 1.88098 0.00965577 0
M  V30 29271 O 2714.8 1.51538 0.995285 0
M  V30 29272 C 2714.85 2.80196 -2.26986 0
M  V30 29273 O 2713.95 3.75905 -1.69615 0
M  V30 29274 H 2713.29 0.463628 -0.475336 0
M  V30 29275 H 2715.82 0.913685 -1.83065 0
M  V30 29276 H 2715.83 3.28985 -2.41315 0
M  V30 29277 H 2714.51 2.54315 -3.29085 0
M  V30 29278 H 2713.08 3.34655 -1.645 0
M  V30 29279 N 2715.27 1.24225 0.969846 0
M  V30 29280 C 2716.49 1.10857 1.75287 0
M  V30 29281 C 2716.92 -0.335046 1.85092 0
M  V30 29282 O 2716.28 -1.24253 1.32026 0
M  V30 29283 C 2716.33 1.75068 3.15252 0
M  V30 29284 O 2715.43 1.01999 3.99587 0
M  V30 29285 H 2714.77 0.387924 0.538898 0
M  V30 29286 H 2717.3 1.6449 1.21672 0
M  V30 29287 H 2717.31 1.80737 3.65784 0
M  V30 29288 H 2715.99 2.80105 3.07431 0
M  V30 29289 H 2714.56 1.041 3.58075 0
M  V30 29290 N 2716.75 -1.1702 1.05565 0
M  V30 29291 C 2717.98 -1.91009 0.78734 0
M  V30 29292 C 2718.39 -1.77269 -0.661224 0
M  V30 29293 O 2717.73 -1.10994 -1.46377 0
M  V30 29294 C 2717.79 -3.42476 1.09319 0
M  V30 29295 C 2717.45 -3.79999 2.53869 0
M  V30 29296 C 2718.45 -3.82532 3.52087 0
M  V30 29297 C 2716.14 -4.1085 2.88977 0
M  V30 29298 C 2718.13 -4.1539 4.83456 0
M  V30 29299 C 2715.82 -4.43377 4.20548 0
M  V30 29300 C 2716.82 -4.45625 5.17597 0
M  V30 29301 O 2716.5 -4.77384 6.46807 0
M  V30 29302 H 2716.24 -0.612765 0.285474 0
M  V30 29303 H 2718.79 -1.49308 1.41054 0
M  V30 29304 H 2717.02 -3.84489 0.4129 0
M  V30 29305 H 2718.71 -3.9773 0.810294 0
M  V30 29306 H 2719.47 -3.58817 3.26305 0
M  V30 29307 H 2715.35 -4.08269 2.14098 0
M  V30 29308 H 2718.9 -4.17061 5.59201 0
M  V30 29309 H 2714.79 -4.66555 4.46091 0
M  V30 29310 H 2715.56 -4.95226 6.51685 0
M  V30 29311 N 2718.23 -0.837197 -1.33524 0
M  V30 29312 C 2719.14 -0.271609 -2.33022 0
M  V30 29313 C 2720.15 0.601485 -1.63273 0
M  V30 29314 O 2721.33 0.506004 -1.9494 0
M  V30 29315 C 2718.39 0.545388 -3.42383 0
M  V30 29316 C 2717.45 -0.351784 -4.27856 0
M  V30 29317 C 2716.69 0.426315 -5.31995 0
M  V30 29318 O 2716.91 1.65819 -5.45766 0
M  V30 29319 O 2715.84 -0.198805 -6.01572 0
M  V30 29320 H 2719.67 -1.09549 -2.83254 0
M  V30 29321 H 2717.25 -0.599679 -1.36836 0
M  V30 29322 H 2719.14 1.00972 -4.09124 0
M  V30 29323 H 2717.81 1.34636 -2.94372 0
M  V30 29324 H 2716.72 -0.863917 -3.63988 0
M  V30 29325 H 2718.05 -1.11748 -4.79347 0
M  V30 29326 N 2719.7 1.45999 -0.593476 0
M  V30 29327 C 2721.11 1.85926 -0.169834 0
M  V30 29328 C 2721.47 1.49567 1.26981 0
M  V30 29329 O 2720.59 0.915636 1.96074 0
M  V30 29330 C 2721.19 3.37456 -0.301444 0
M  V30 29331 C 2719.74 3.7634 0.0674022 0
M  V30 29332 C 2718.89 2.69992 -0.63243 0
M  V30 29333 H 2721.84 1.37 -0.801038 0
M  V30 29334 H 2721.86 3.77583 0.470265 0
M  V30 29335 H 2721.38 3.63888 -1.34933 0
M  V30 29336 H 2719.48 3.55525 1.11501 0
M  V30 29337 H 2719.59 4.78054 -0.316416 0
M  V30 29338 H 2717.95 2.546 -0.0715408 0
M  V30 29339 H 2718.74 2.99262 -1.68218 0
M  V30 29340 N 2721.18 0.331843 1.54067 0
M  V30 29341 C 2722.43 -0.269173 1.99896 0
M  V30 29342 C 2722.74 -1.52591 1.22374 0
M  V30 29343 O 2723.95 -2.20344 1.58621 0
M  V30 29344 C 2722.41 -0.530182 3.55973 0
M  V30 29345 C 2722.01 0.709978 4.42338 0
M  V30 29346 C 2723.76 -1.0907 4.10249 0
M  V30 29347 C 2721.67 0.420416 5.89904 0
M  V30 29348 H 2720.6 -0.104358 0.746743 0
M  V30 29349 H 2723.25 0.445355 1.78014 0
M  V30 29350 H 2721.63 -1.30511 3.73875 0
M  V30 29351 H 2722.8 1.48512 4.36212 0
M  V30 29352 H 2721.12 1.1913 3.98995 0
M  V30 29353 H 2723.71 -1.3221 5.18097 0
M  V30 29354 H 2724.06 -2.04263 3.62743 0
M  V30 29355 H 2724.59 -0.376755 3.96012 0
M  V30 29356 H 2721.33 1.34175 6.41621 0
M  V30 29357 H 2720.85 -0.316857 5.98962 0
M  V30 29358 H 2722.53 0.0333093 6.46991 0
M  V30 29359 N 2722.66 -1.57485 0.0601958 0
M  V30 29360 C 2723.62 -2.10947 -0.896336 0
M  V30 29361 C 2724.62 -1.03098 -1.234 0
M  V30 29362 O 2725.81 -1.29134 -1.16919 0
M  V30 29363 C 2722.95 -2.6012 -2.20342 0
M  V30 29364 H 2724.14 -2.96762 -0.432726 0
M  V30 29365 H 2721.69 -1.55161 -0.188344 0
M  V30 29366 H 2722.43 -1.77724 -2.71265 0
M  V30 29367 H 2722.21 -3.3894 -1.97134 0
M  V30 29368 H 2723.7 -3.01597 -2.8884 0
M  V30 29369 N 2724.14 0.213268 -1.5615 0
M  V30 29370 C 2725.37 0.953106 -1.8364 0
M  V30 29371 C 2725.78 1.77607 -0.640393 0
M  V30 29372 O 2725.14 1.78261 0.39104 0
M  V30 29373 C 2725.19 1.86399 -3.09738 0
M  V30 29374 O 2724.91 1.07428 -4.24725 0
M  V30 29375 C 2726.41 2.71703 -3.50274 0
M  V30 29376 H 2723.63 0.278951 -0.610268 0
M  V30 29377 H 2726.18 0.225999 -2.03247 0
M  V30 29378 H 2724.33 2.54495 -2.92081 0
M  V30 29379 H 2724.74 1.69335 -4.96413 0
M  V30 29380 H 2726.22 3.31305 -4.41521 0
M  V30 29381 H 2726.7 3.44511 -2.72412 0
M  V30 29382 H 2727.3 2.09008 -3.70399 0
M  V30 29383 N 2725.62 1.50103 0.480296 0
M  V30 29384 C 2726.84 1.64373 1.25654 0
M  V30 29385 C 2727.26 0.323349 1.8601 0
M  V30 29386 O 2726.62 -0.693652 1.68804 0
M  V30 29387 C 2726.67 2.72804 2.37192 0
M  V30 29388 O 2726.39 3.99723 1.79313 0
M  V30 29389 C 2727.89 2.97966 3.28225 0
M  V30 29390 H 2725.11 0.552782 0.380359 0
M  V30 29391 H 2727.65 1.96269 0.574344 0
M  V30 29392 H 2725.81 2.43629 3.01204 0
M  V30 29393 H 2726.22 4.59616 2.52693 0
M  V30 29394 H 2727.7 3.7752 4.02719 0
M  V30 29395 H 2728.17 2.08678 3.86459 0
M  V30 29396 H 2728.78 3.28637 2.69958 0
M  V30 29397 N 2727.09 -0.732829 1.39526 0
M  V30 29398 C 2728.02 -1.86003 1.41157 0
M  V30 29399 C 2729.01 -1.67868 0.274644 0
M  V30 29400 O 2730.19 -1.88155 0.480778 0
M  V30 29401 C 2727.32 -3.23776 1.25644 0
M  V30 29402 C 2726.27 -3.56552 2.36759 0
M  V30 29403 C 2725.6 -4.93285 2.06334 0
M  V30 29404 C 2726.9 -3.59303 3.79076 0
M  V30 29405 H 2728.59 -1.84895 2.35487 0
M  V30 29406 H 2726.14 -0.888142 1.13349 0
M  V30 29407 H 2728.09 -4.02308 1.25405 0
M  V30 29408 H 2726.82 -3.25416 0.277829 0
M  V30 29409 H 2725.48 -2.80351 2.36218 0
M  V30 29410 H 2725.12 -4.91508 1.06906 0
M  V30 29411 H 2724.82 -5.16182 2.80766 0
M  V30 29412 H 2726.35 -5.74171 2.07749 0
M  V30 29413 H 2727.76 -4.27907 3.81534 0
M  V30 29414 H 2726.16 -3.9372 4.52885 0
M  V30 29415 H 2727.23 -2.5906 4.09897 0
M  V30 29416 N 2728.57 -1.24737 -0.963244 0
M  V30 29417 C 2729.99 -1.01373 -1.23271 0
M  V30 29418 C 2730.19 0.274741 -1.99618 0
M  V30 29419 O 2729.24 0.989728 -2.32294 0
M  V30 29420 C 2730.56 -2.23155 -2.0155 0
M  V30 29421 C 2732.11 -2.27827 -2.14625 0
M  V30 29422 C 2732.58 -3.49242 -2.963 0
M  V30 29423 N 2734.07 -3.49586 -3.03881 0
M  V30 29424 C 2734.81 -4.40193 -3.67448 0
M  V30 29425 N 2734.3 -5.4106 -4.32696 0
M  V30 29426 N 2736.1 -4.27894 -3.64504 0
M  V30 29427 H 2728.25 -2.07529 -0.452258 0
M  V30 29428 H 2730.51 -0.910931 -0.262504 0
M  V30 29429 H 2730.22 -3.16753 -1.52841 0
M  V30 29430 H 2730.09 -2.25633 -3.02274 0
M  V30 29431 H 2732.48 -1.34757 -2.62535 0
M  V30 29432 H 2732.56 -2.29372 -1.13234 0
M  V30 29433 H 2732.2 -4.42628 -2.49084 0
M  V30 29434 H 2732.13 -3.4494 -3.97899 0
M  V30 29435 H 2734.62 -2.76616 -2.57472 0
M  V30 29436 H 2734.94 -6.06423 -4.79031 0
M  V30 29437 H 2733.28 -5.44942 -4.31351 0
M  V30 29438 H 2736.47 -3.48326 -3.12709 0
M  V30 29439 H 2736.64 -4.98706 -4.13759 0
M  V30 29440 N 2730.05 1.16459 -1.06184 0
M  V30 29441 C 2731.3 1.8748 -0.788858 0
M  V30 29442 C 2731.65 1.80086 0.677267 0
M  V30 29443 O 2730.94 1.20488 1.48973 0
M  V30 29444 C 2731.14 3.36064 -1.21639 0
M  V30 29445 C 2730.97 3.57922 -2.72253 0
M  V30 29446 C 2729.74 3.74073 -3.39702 0
M  V30 29447 C 2731.94 3.56733 -3.70467 0
M  V30 29448 N 2729.92 3.83871 -4.79079 0
M  V30 29449 C 2731.29 3.72502 -4.95623 0
M  V30 29450 C 2733.34 3.39939 -3.63794 0
M  V30 29451 C 2732.05 3.73214 -6.14901 0
M  V30 29452 C 2734.07 3.41944 -4.82523 0
M  V30 29453 C 2733.43 3.58231 -6.06506 0
M  V30 29454 H 2729.53 0.703713 -0.341046 0
M  V30 29455 H 2732.12 1.39739 -1.35577 0
M  V30 29456 H 2730.29 3.82449 -0.677317 0
M  V30 29457 H 2732.02 3.94743 -0.892188 0
M  V30 29458 H 2728.78 3.74349 -2.90104 0
M  V30 29459 H 2729.2 3.92541 -5.5158 0
M  V30 29460 H 2733.84 3.26276 -2.68894 0
M  V30 29461 H 2731.56 3.85659 -7.10136 0
M  V30 29462 H 2735.15 3.30194 -4.79023 0
M  V30 29463 H 2734.03 3.597 -6.9684 0
M  V30 29464 N 2731.53 0.844266 1.33079 0
M  V30 29465 C 2732.48 0.279364 2.29103 0
M  V30 29466 C 2733.45 -0.607855 1.54578 0
M  V30 29467 O 2734.63 -0.544977 1.82851 0
M  V30 29468 C 2731.77 -0.53502 3.40927 0
M  V30 29469 C 2730.88 0.376825 4.30353 0
M  V30 29470 C 2730.02 -0.449183 5.29297 0
M  V30 29471 C 2729.06 0.460713 6.10364 0
M  V30 29472 N 2728.19 -0.327489 7.01336 0
M  V30 29473 H 2733.03 1.10351 2.76815 0
M  V30 29474 H 2730.57 0.555635 1.36202 0
M  V30 29475 H 2732.53 -1.02271 4.04471 0
M  V30 29476 H 2731.16 -1.32409 2.94394 0
M  V30 29477 H 2730.21 0.982856 3.67483 0
M  V30 29478 H 2731.52 1.07557 4.87066 0
M  V30 29479 H 2730.68 -1.00048 5.98394 0
M  V30 29480 H 2729.42 -1.18134 4.73176 0
M  V30 29481 H 2728.42 1.02398 5.4018 0
M  V30 29482 H 2729.65 1.19132 6.68569 0
M  V30 29483 H 2727.59 -1.04293 6.47656 0
M  V30 29484 H 2727.51 0.312433 7.55354 0
M  V30 29485 H 2728.78 -0.860844 7.74732 0
M  V30 29486 N 2733.01 -1.45682 0.60121 0
M  V30 29487 C 2733.94 -2.28645 -0.159405 0
M  V30 29488 C 2734.95 -1.39584 -0.837858 0
M  V30 29489 O 2736.14 -1.64017 -0.704316 0
M  V30 29490 C 2733.24 -3.15149 -1.24636 0
M  V30 29491 C 2732.41 -4.32449 -0.656258 0
M  V30 29492 C 2731.47 -5.0021 -1.63328 0
M  V30 29493 O 2730.5 -5.57211 -1.16207 0
M  V30 29494 N 2731.7 -4.9891 -2.96764 0
M  V30 29495 H 2734.47 -2.94564 0.552452 0
M  V30 29496 H 2732.03 -1.55799 0.44025 0
M  V30 29497 H 2734.02 -3.57346 -1.89964 0
M  V30 29498 H 2732.59 -2.51182 -1.86082 0
M  V30 29499 H 2731.81 -3.93812 0.174949 0
M  V30 29500 H 2733.1 -5.08224 -0.242122 0
M  V30 29501 H 2732.49 -4.53879 -3.37654 0
M  V30 29502 H 2731.05 -5.4499 -3.57532 0
M  V30 29503 N 2734.48 -0.340009 -1.53889 0
M  V30 29504 C 2735.39 0.526948 -2.28605 0
M  V30 29505 C 2736.41 1.115 -1.3358 0
M  V30 29506 O 2737.59 1.13145 -1.66614 0
M  V30 29507 C 2734.65 1.66384 -3.04167 0
M  V30 29508 C 2733.71 1.10592 -4.14811 0
M  V30 29509 C 2732.95 2.18863 -4.86759 0
M  V30 29510 O 2733.17 3.39518 -4.58349 0
M  V30 29511 O 2732.1 1.83356 -5.73292 0
M  V30 29512 H 2735.93 -0.080324 -3.03594 0
M  V30 29513 H 2733.51 -0.105168 -1.49029 0
M  V30 29514 H 2735.4 2.32538 -3.51431 0
M  V30 29515 H 2734.07 2.25699 -2.32038 0
M  V30 29516 H 2732.98 0.409001 -3.71857 0
M  V30 29517 H 2734.31 0.557685 -4.8903 0
M  V30 29518 N 2735.96 1.57451 -0.0685468 0
M  V30 29519 C 2737.24 1.84759 0.642134 0
M  V30 29520 C 2737.62 0.960377 1.87989 0
M  V30 29521 O 2736.97 0.0258296 2.28485 0
M  V30 29522 C 2737.18 3.34874 0.982888 0
M  V30 29523 C 2738.53 4.02306 1.35777 0
M  V30 29524 O 2739.55 3.396 1.07471 0
M  V30 29525 O 2738.41 5.12899 1.88672 0
M  V30 29526 H 2735.5 0.763161 0.318612 0
M  V30 29527 H 2738.05 1.6941 -0.0992313 0
M  V30 29528 H 2736.82 3.91163 0.103652 0
M  V30 29529 H 2736.44 3.55474 1.78112 0
M  V30 29530 N 2737.44 -0.204984 1.56261 0
M  V30 29531 C 2738.69 -0.925026 1.79238 0
M  V30 29532 C 2739 -1.84832 0.640043 0
M  V30 29533 O 2740.21 -2.60824 0.753855 0
M  V30 29534 C 2738.67 -1.69517 3.17478 0
M  V30 29535 C 2738.27 -0.817191 4.40484 0
M  V30 29536 C 2740.02 -2.40543 3.4977 0
M  V30 29537 C 2737.92 -1.58563 5.69747 0
M  V30 29538 H 2736.85 -0.349141 0.668294 0
M  V30 29539 H 2739.51 -0.178512 1.8263 0
M  V30 29540 H 2737.89 -2.4852 3.08308 0
M  V30 29541 H 2739.06 -0.0665178 4.60752 0
M  V30 29542 H 2737.38 -0.218243 4.15828 0
M  V30 29543 H 2739.97 -2.98568 4.43578 0
M  V30 29544 H 2740.32 -3.14247 2.73047 0
M  V30 29545 H 2740.85 -1.68515 3.60344 0
M  V30 29546 H 2737.59 -0.891565 6.49408 0
M  V30 29547 H 2737.11 -2.31049 5.53513 0
M  V30 29548 H 2738.79 -2.14201 6.10514 0
M  V30 29549 N 2738.92 -1.50356 -0.472329 0
M  V30 29550 C 2740.14 -1.65311 -1.25248 0
M  V30 29551 C 2740.57 -0.335675 -1.85081 0
M  V30 29552 O 2739.93 0.700306 -1.67229 0
M  V30 29553 C 2739.98 -2.74548 -2.33785 0
M  V30 29554 O 2739.08 -2.35715 -3.38396 0
M  V30 29555 H 2738.42 -0.552343 -0.368529 0
M  V30 29556 H 2740.95 -1.96723 -0.562236 0
M  V30 29557 H 2740.96 -2.97587 -2.79116 0
M  V30 29558 H 2739.64 -3.70165 -1.89607 0
M  V30 29559 H 2738.21 -2.23118 -2.98786 0
M  V30 29560 N 2740.4 0.725419 -1.39912 0
M  V30 29561 C 2741.36 1.82119 -1.3916 0
M  V30 29562 C 2742.36 1.58217 -0.287046 0
M  V30 29563 O 2743.55 1.6544 -0.54545 0
M  V30 29564 C 2740.68 3.2006 -1.17366 0
M  V30 29565 H 2741.88 1.84187 -2.36675 0
M  V30 29566 H 2739.43 0.930057 -1.25617 0
M  V30 29567 H 2740.16 3.23647 -0.205705 0
M  V30 29568 H 2739.95 3.38806 -1.97364 0
M  V30 29569 H 2741.44 4.00106 -1.19603 0
M  V30 29570 N 2741.88 1.25246 0.956615 0
M  V30 29571 C 2743.1 1.12611 1.73569 0
M  V30 29572 C 2743.52 -0.320292 1.86063 0
M  V30 29573 O 2742.88 -1.22039 1.35693 0
M  V30 29574 C 2742.93 1.77274 3.1505 0
M  V30 29575 O 2742.65 3.1626 3.03169 0
M  V30 29576 C 2744.15 1.70393 4.09245 0
M  V30 29577 H 2741.37 0.392888 0.543948 0
M  V30 29578 H 2743.91 1.6557 1.20028 0
M  V30 29579 H 2742.07 1.2829 3.65541 0
M  V30 29580 H 2742.48 3.48022 3.92404 0
M  V30 29581 H 2743.96 2.203 5.06134 0
M  V30 29582 H 2744.43 0.667315 4.34101 0
M  V30 29583 H 2745.04 2.18855 3.64668 0
M  V30 29584 N 2743.35 -1.15894 1.068 0
M  V30 29585 C 2744.6 -1.86824 0.788967 0
M  V30 29586 C 2744.93 -1.81791 -0.683052 0
M  V30 29587 O 2744.21 -1.23714 -1.50084 0
M  V30 29588 C 2744.49 -3.36174 1.29071 0
M  V30 29589 C 2744.34 -3.49869 2.82686 0
M  V30 29590 C 2745.66 -4.30742 0.902731 0
M  V30 29591 H 2742.78 -0.678366 0.288077 0
M  V30 29592 H 2745.42 -1.36193 1.32482 0
M  V30 29593 H 2743.57 -3.79423 0.834873 0
M  V30 29594 H 2745.25 -3.15522 3.36517 0
M  V30 29595 H 2743.49 -2.91611 3.21162 0
M  V30 29596 H 2744.16 -4.54778 3.1286 0
M  V30 29597 H 2746.64 -3.95421 1.29542 0
M  V30 29598 H 2745.51 -5.33738 1.2812 0
M  V30 29599 H 2745.77 -4.41683 -0.191874 0
M  V30 29600 N 2744.83 -0.851312 -1.32629 0
M  V30 29601 C 2746.08 -0.449302 -1.96632 0
M  V30 29602 C 2746.39 0.999533 -1.68133 0
M  V30 29603 O 2747.6 1.50681 -2.25848 0
M  V30 29604 C 2746.06 -0.752507 -3.51945 0
M  V30 29605 C 2745.66 -2.21685 -3.89307 0
M  V30 29606 C 2747.41 -0.418057 -4.22436 0
M  V30 29607 C 2745.31 -2.46345 -5.37651 0
M  V30 29608 H 2744.24 -0.164282 -0.735886 0
M  V30 29609 H 2746.9 -1.04163 -1.51071 0
M  V30 29610 H 2745.28 -0.0896554 -3.95898 0
M  V30 29611 H 2746.45 -2.92121 -3.56373 0
M  V30 29612 H 2744.77 -2.51549 -3.31831 0
M  V30 29613 H 2747.36 -0.579768 -5.31548 0
M  V30 29614 H 2747.71 0.640043 -4.1135 0
M  V30 29615 H 2748.24 -1.03666 -3.84055 0
M  V30 29616 H 2744.98 -3.50767 -5.53753 0
M  V30 29617 H 2744.5 -1.80483 -5.72002 0
M  V30 29618 H 2746.18 -2.30125 -6.04691 0
M  V30 29619 N 2746.31 1.45361 -0.608928 0
M  V30 29620 C 2747.24 2.28726 0.147277 0
M  V30 29621 C 2748.25 1.40027 0.830443 0
M  V30 29622 O 2749.44 1.64388 0.695607 0
M  V30 29623 C 2746.54 3.15806 1.22963 0
M  V30 29624 C 2745.72 4.32791 0.633315 0
M  V30 29625 C 2744.78 5.0107 1.60673 0
M  V30 29626 O 2743.8 5.5782 1.13251 0
M  V30 29627 N 2745 5.00477 2.94114 0
M  V30 29628 H 2747.77 2.94267 -0.568066 0
M  V30 29629 H 2745.33 1.55564 -0.448507 0
M  V30 29630 H 2747.32 3.58348 1.88066 0
M  V30 29631 H 2745.89 2.52165 1.84747 0
M  V30 29632 H 2745.11 3.93713 -0.195831 0
M  V30 29633 H 2746.4 5.08345 0.215166 0
M  V30 29634 H 2745.8 4.55663 3.35242 0
M  V30 29635 H 2744.35 5.46879 3.54636 0
M  V30 29636 N 2747.79 0.348166 1.53706 0
M  V30 29637 C 2748.73 -0.506478 2.25174 0
M  V30 29638 C 2749.7 -1.09179 1.25176 0
M  V30 29639 O 2750.89 -1.12755 1.53919 0
M  V30 29640 C 2748.03 -1.64918 3.03144 0
M  V30 29641 C 2747.14 -1.09073 4.18004 0
M  V30 29642 C 2746.28 -2.20111 4.83451 0
M  V30 29643 C 2745.32 -1.61641 5.90372 0
M  V30 29644 N 2744.45 -2.6644 6.4958 0
M  V30 29645 H 2749.29 0.109505 2.97799 0
M  V30 29646 H 2746.83 0.0658124 1.46953 0
M  V30 29647 H 2748.79 -2.32199 3.46612 0
M  V30 29648 H 2747.42 -2.23608 2.32807 0
M  V30 29649 H 2746.47 -0.308717 3.79145 0
M  V30 29650 H 2747.78 -0.623091 4.94893 0
M  V30 29651 H 2746.94 -2.95248 5.30013 0
M  V30 29652 H 2745.68 -2.7022 4.05996 0
M  V30 29653 H 2744.68 -0.850114 5.43188 0
M  V30 29654 H 2745.91 -1.12378 6.69737 0
M  V30 29655 H 2743.85 -3.15795 5.74987 0
M  V30 29656 H 2743.77 -2.24312 7.21956 0
M  V30 29657 H 2745.04 -3.41332 7.00795 0
M  V30 29658 N 2749.27 -1.57412 0.0768958 0
M  V30 29659 C 2750.23 -2.11885 -0.873911 0
M  V30 29660 C 2751.23 -1.04401 -1.22299 0
M  V30 29661 O 2752.42 -1.30367 -1.15543 0
M  V30 29662 C 2749.55 -2.62442 -2.1757 0
M  V30 29663 H 2750.74 -2.97204 -0.401226 0
M  V30 29664 H 2748.3 -1.55352 -0.171877 0
M  V30 29665 H 2749.03 -1.80592 -2.69364 0
M  V30 29666 H 2748.82 -3.41012 -1.93528 0
M  V30 29667 H 2750.31 -3.04644 -2.85625 0
M  V30 29668 N 2750.74 0.196695 -1.56368 0
M  V30 29669 C 2751.97 0.932222 -1.84372 0
M  V30 29670 C 2752.38 1.77425 -0.657045 0
M  V30 29671 O 2751.73 1.79651 0.383545 0
M  V30 29672 C 2751.79 1.87947 -3.06458 0
M  V30 29673 C 2751.45 1.21955 -4.40427 0
M  V30 29674 C 2752.45 0.597252 -5.16458 0
M  V30 29675 C 2750.13 1.22388 -4.87162 0
M  V30 29676 C 2752.13 -0.0119033 -6.37399 0
M  V30 29677 C 2749.81 0.610888 -6.08039 0
M  V30 29678 C 2750.81 -0.00592492 -6.83 0
M  V30 29679 O 2750.5 -0.609314 -8.01588 0
M  V30 29680 H 2750.23 0.277578 -0.616382 0
M  V30 29681 H 2752.79 0.209416 -2.0433 0
M  V30 29682 H 2751.02 2.64192 -2.82381 0
M  V30 29683 H 2752.71 2.48265 -3.21122 0
M  V30 29684 H 2753.47 0.586057 -4.81446 0
M  V30 29685 H 2749.35 1.69337 -4.28773 0
M  V30 29686 H 2752.89 -0.493958 -6.95849 0
M  V30 29687 H 2748.79 0.61958 -6.4252 0
M  V30 29688 H 2749.56 -0.506062 -8.16934 0
M  V30 29689 N 2752.22 1.50604 0.464349 0
M  V30 29690 C 2753.64 1.3818 0.79866 0
M  V30 29691 C 2753.84 0.443115 1.96567 0
M  V30 29692 O 2752.89 -0.11177 2.52253 0
M  V30 29693 C 2754.21 2.79685 1.10439 0
M  V30 29694 C 2755.76 2.88647 1.21045 0
M  V30 29695 C 2756.23 4.31001 1.54927 0
M  V30 29696 N 2757.72 4.33983 1.61905 0
M  V30 29697 C 2758.46 5.41132 1.8964 0
M  V30 29698 N 2757.95 6.5848 2.1535 0
M  V30 29699 N 2759.75 5.28583 1.91198 0
M  V30 29700 H 2751.9 2.10204 -0.30464 0
M  V30 29701 H 2754.16 0.945123 -0.073797 0
M  V30 29702 H 2753.87 3.50242 0.319872 0
M  V30 29703 H 2753.74 3.17346 2.03891 0
M  V30 29704 H 2756.13 2.18304 1.98563 0
M  V30 29705 H 2756.21 2.5452 0.255568 0
M  V30 29706 H 2755.85 5.01883 0.77946 0
M  V30 29707 H 2755.78 4.6262 2.51576 0
M  V30 29708 H 2758.27 3.49368 1.44049 0
M  V30 29709 H 2758.59 7.35945 2.35805 0
M  V30 29710 H 2756.93 6.61643 2.12728 0
M  V30 29711 H 2760.12 4.359 1.70614 0
M  V30 29712 H 2760.29 6.12174 2.12477 0
M  V30 29713 N 2753.7 -0.717989 1.40295 0
M  V30 29714 C 2754.93 -1.51217 1.41944 0
M  V30 29715 C 2755.35 -1.88089 0.0202701 0
M  V30 29716 O 2754.71 -1.53102 -0.971051 0
M  V30 29717 C 2754.76 -2.7655 2.31415 0
M  V30 29718 O 2753.86 -3.73159 1.75574 0
M  V30 29719 H 2753.2 -0.456007 0.482652 0
M  V30 29720 H 2755.73 -0.884445 1.84496 0
M  V30 29721 H 2755.74 -3.25104 2.46518 0
M  V30 29722 H 2754.42 -2.49047 3.33089 0
M  V30 29723 H 2752.99 -3.31996 1.69804 0
M  V30 29724 N 2755.18 -1.25752 -0.94996 0
M  V30 29725 C 2756.41 -1.13366 -1.72719 0
M  V30 29726 C 2756.82 0.314809 -1.86563 0
M  V30 29727 O 2756.16 1.228 -1.36623 0
M  V30 29728 C 2756.22 -1.71985 -3.15692 0
M  V30 29729 C 2755.89 -3.21019 -3.25262 0
M  V30 29730 C 2756.88 -4.1795 -3.09214 0
M  V30 29731 C 2754.57 -3.61318 -3.48934 0
M  V30 29732 C 2756.56 -5.53159 -3.16691 0
M  V30 29733 C 2754.25 -4.96663 -3.56046 0
M  V30 29734 C 2755.25 -5.92393 -3.3994 0
M  V30 29735 O 2754.93 -7.25275 -3.46744 0
M  V30 29736 H 2754.67 -0.395982 -0.547881 0
M  V30 29737 H 2757.22 -1.66696 -1.20006 0
M  V30 29738 H 2755.45 -1.13107 -3.69789 0
M  V30 29739 H 2757.14 -1.54631 -3.75292 0
M  V30 29740 H 2757.91 -3.88156 -2.90791 0
M  V30 29741 H 2753.78 -2.87297 -3.60529 0
M  V30 29742 H 2757.33 -6.27859 -3.04037 0
M  V30 29743 H 2753.23 -5.26121 -3.73988 0
M  V30 29744 H 2753.99 -7.33432 -3.63345 0
M  V30 29745 N 2756.66 1.15326 -1.07413 0
M  V30 29746 C 2757.9 1.86403 -0.798863 0
M  V30 29747 C 2758.24 1.82151 0.673401 0
M  V30 29748 O 2757.51 1.24508 1.49426 0
M  V30 29749 C 2757.79 3.35484 -1.30852 0
M  V30 29750 C 2757.65 3.48365 -2.84538 0
M  V30 29751 C 2758.97 4.30257 -0.925562 0
M  V30 29752 H 2756.08 0.676829 -0.291671 0
M  V30 29753 H 2758.73 1.35489 -1.33202 0
M  V30 29754 H 2756.88 3.78975 -0.854983 0
M  V30 29755 H 2758.55 3.13733 -3.38185 0
M  V30 29756 H 2756.79 2.89904 -3.22704 0
M  V30 29757 H 2757.46 4.53112 -3.15267 0
M  V30 29758 H 2759.94 3.94729 -1.31637 0
M  V30 29759 H 2758.81 5.33051 -1.30949 0
M  V30 29760 H 2759.08 4.41779 0.168447 0
M  V30 29761 N 2758.13 0.858334 1.32176 0
M  V30 29762 C 2759.06 0.321082 2.31282 0
M  V30 29763 C 2760.05 -0.581758 1.59842 0
M  V30 29764 O 2761.23 -0.501229 1.8762 0
M  V30 29765 C 2758.36 -0.48826 3.43851 0
M  V30 29766 C 2757.31 0.320466 4.26799 0
M  V30 29767 C 2756.64 -0.61384 5.31165 0
M  V30 29768 C 2757.94 1.54822 4.98826 0
M  V30 29769 H 2759.63 1.1492 2.76467 0
M  V30 29770 H 2757.18 0.554051 1.32915 0
M  V30 29771 H 2759.13 -0.874553 4.12225 0
M  V30 29772 H 2757.86 -1.34978 2.97403 0
M  V30 29773 H 2756.52 0.68856 3.60076 0
M  V30 29774 H 2756.16 -1.47231 4.8097 0
M  V30 29775 H 2755.86 -0.0767064 5.8755 0
M  V30 29776 H 2757.39 -0.99723 6.02402 0
M  V30 29777 H 2758.8 1.23401 5.59862 0
M  V30 29778 H 2757.2 2.02356 5.64953 0
M  V30 29779 H 2758.27 2.30746 4.26479 0
M  V30 29780 N 2759.61 -1.45036 0.616628 0
M  V30 29781 C 2760.56 -2.27692 -0.118503 0
M  V30 29782 C 2761.55 -1.3784 -0.830001 0
M  V30 29783 O 2762.74 -1.61761 -0.718499 0
M  V30 29784 C 2759.87 -3.24888 -1.10919 0
M  V30 29785 C 2758.95 -4.22228 -0.39806 0
M  V30 29786 N 2759.34 -5.02631 0.565321 0
M  V30 29787 C 2757.64 -4.4132 -0.644428 0
M  V30 29788 C 2758.34 -5.73314 0.984144 0
M  V30 29789 N 2757.32 -5.42622 0.325974 0
M  V30 29790 H 2761.12 -2.87258 0.621289 0
M  V30 29791 H 2758.64 -1.56298 0.440995 0
M  V30 29792 H 2760.63 -3.82845 -1.65032 0
M  V30 29793 H 2759.29 -2.66882 -1.84944 0
M  V30 29794 H 2760.3 -5.09252 0.942485 0
M  V30 29795 H 2756.98 -3.94429 -1.36866 0
M  V30 29796 H 2758.37 -6.47914 1.77923 0
M  V30 29797 N 2761.09 -0.356312 -1.53519 0
M  V30 29798 C 2762.51 -0.00488072 -1.59599 0
M  V30 29799 C 2762.71 1.47593 -1.37181 0
M  V30 29800 O 2761.76 2.23632 -1.17238 0
M  V30 29801 C 2763.08 -0.452506 -2.97276 0
M  V30 29802 C 2764.62 -0.405935 -3.10357 0
M  V30 29803 C 2765.1 -0.829228 -4.50431 0
M  V30 29804 N 2766.59 -0.783918 -4.56518 0
M  V30 29805 C 2767.32 -1.08324 -5.63075 0
M  V30 29806 N 2766.82 -1.45138 -6.77427 0
M  V30 29807 N 2768.61 -1.00665 -5.53013 0
M  V30 29808 H 2760.76 -1.32074 -1.66344 0
M  V30 29809 H 2763.03 -0.539232 -0.779701 0
M  V30 29810 H 2762.73 -1.48547 -3.18789 0
M  V30 29811 H 2762.61 0.165696 -3.76836 0
M  V30 29812 H 2764.99 0.617883 -2.88559 0
M  V30 29813 H 2765.08 -1.05951 -2.32826 0
M  V30 29814 H 2764.72 -1.85112 -4.72965 0
M  V30 29815 H 2764.65 -0.152998 -5.26378 0
M  V30 29816 H 2767.14 -0.512579 -3.74408 0
M  V30 29817 H 2767.45 -1.66428 -7.54666 0
M  V30 29818 H 2765.8 -1.48995 -6.78841 0
M  V30 29819 H 2768.99 -0.718297 -4.62556 0
M  V30 29820 H 2769.16 -1.24326 -6.35962 0
M  V30 29821 N 2762.57 1.57369 -0.0852427 0
M  V30 29822 C 2763.79 1.98747 0.592838 0
M  V30 29823 C 2764.22 0.963717 1.61537 0
M  V30 29824 O 2763.58 -0.0690391 1.81169 0
M  V30 29825 C 2763.62 3.39121 1.22593 0
M  V30 29826 O 2762.73 3.39461 2.34179 0
M  V30 29827 H 2762.07 0.646532 0.151303 0
M  V30 29828 H 2764.6 2.03944 -0.163739 0
M  V30 29829 H 2764.61 3.76601 1.56959 0
M  V30 29830 H 2763.28 4.13158 0.476759 0
M  V30 29831 H 2761.86 3.13767 2.01507 0
M  V30 29832 N 2764.05 -0.188399 1.5647 0
M  V30 29833 C 2764.98 -1.2617 1.90149 0
M  V30 29834 C 2765.96 -1.43623 0.76232 0
M  V30 29835 O 2767.14 -1.58905 1.01398 0
M  V30 29836 C 2764.27 -2.62731 2.13753 0
M  V30 29837 C 2763.31 -2.6211 3.36453 0
M  V30 29838 S 2764.15 -2.1288 4.91368 0
M  V30 29839 C 2765.3 -3.51252 5.18047 0
M  V30 29840 H 2765.54 -0.974143 2.80887 0
M  V30 29841 H 2763.07 -0.392199 1.49336 0
M  V30 29842 H 2765.03 -3.41337 2.28034 0
M  V30 29843 H 2763.69 -2.88694 1.23752 0
M  V30 29844 H 2762.88 -3.62539 3.50116 0
M  V30 29845 H 2762.48 -1.9159 3.212 0
M  V30 29846 H 2764.78 -4.47155 5.08978 0
M  V30 29847 H 2765.72 -3.42478 6.1977 0
M  V30 29848 H 2766.13 -3.46474 4.45663 0
M  V30 29849 N 2765.53 -1.50848 -0.456355 0
M  V30 29850 C 2766.49 -1.70216 -1.5349 0
M  V30 29851 C 2767.49 -0.572507 -1.50263 0
M  V30 29852 O 2768.68 -0.839777 -1.52622 0
M  V30 29853 C 2765.81 -1.74105 -2.93088 0
M  V30 29854 H 2767 -2.66455 -1.37628 0
M  V30 29855 H 2764.56 -1.40551 -0.683751 0
M  V30 29856 H 2765.29 -0.796119 -3.14376 0
M  V30 29857 H 2765.08 -2.56185 -2.96836 0
M  V30 29858 H 2766.57 -1.90993 -3.71364 0
M  V30 29859 N 2767 0.710538 -1.40674 0
M  V30 29860 C 2767.93 1.83734 -1.44098 0
M  V30 29861 C 2768.91 1.6741 -0.301315 0
M  V30 29862 O 2770.1 1.87366 -0.510651 0
M  V30 29863 C 2767.23 3.21736 -1.30779 0
M  V30 29864 C 2766.18 3.5274 -2.42401 0
M  V30 29865 C 2765.51 4.8994 -2.14156 0
M  V30 29866 C 2766.81 3.53227 -3.84744 0
M  V30 29867 H 2768.5 1.81125 -2.38399 0
M  V30 29868 H 2766.05 0.869996 -1.14748 0
M  V30 29869 H 2768 4.00262 -1.3179 0
M  V30 29870 H 2766.73 3.24933 -0.329565 0
M  V30 29871 H 2765.39 2.76558 -2.40648 0
M  V30 29872 H 2765.03 4.89745 -1.14712 0
M  V30 29873 H 2764.73 5.1165 -2.88943 0
M  V30 29874 H 2766.26 5.70793 -2.16858 0
M  V30 29875 H 2767.67 4.21783 -3.88293 0
M  V30 29876 H 2766.07 3.86465 -4.59091 0
M  V30 29877 H 2767.14 2.52506 -4.13967 0
M  V30 29878 N 2768.48 1.26254 0.943277 0
M  V30 29879 C 2769.71 1.1455 1.72896 0
M  V30 29880 C 2770.13 -0.29571 1.85761 0
M  V30 29881 O 2769.49 -1.21425 1.34632 0
M  V30 29882 C 2769.54 1.81715 3.11467 0
M  V30 29883 O 2768.64 1.10452 3.97334 0
M  V30 29884 H 2767.98 0.399268 0.530548 0
M  V30 29885 H 2770.51 1.67034 1.18156 0
M  V30 29886 H 2770.52 1.88455 3.61868 0
M  V30 29887 H 2769.2 2.86563 3.0142 0
M  V30 29888 H 2767.77 1.11672 3.55786 0
M  V30 29889 N 2769.96 -1.14755 1.08024 0
M  V30 29890 C 2770.91 -2.21781 0.701127 0
M  V30 29891 C 2771.9 -1.66877 -0.291281 0
M  V30 29892 O 2773.11 -1.79338 -0.154264 0
M  V30 29893 H 2769.48 -0.722465 0.208681 0
M  V30 29894 H 2771.45 -2.51031 1.61326 0
M  V30 29895 C 2770.2 -3.47485 0.122339 0
M  V30 29896 H 2769.53 -3.90059 0.877134 0
M  V30 29897 H 2770.97 -4.2387 -0.105173 0
M  V30 29898 C 2769.42 -3.1707 -1.13877 0
M  V30 29899 O 2769.95 -3.34501 -2.22424 0
M  V30 29900 N 2768.16 -2.71059 -1.04762 0
M  V30 29901 H 2767.71 -2.57076 -0.164257 0
M  V30 29902 H 2767.67 -2.51084 -1.8922 0
M  V30 29903 N 2771.44 -0.865331 -1.31719 0
M  V30 29904 C 2772.67 -0.488286 -2.01056 0
M  V30 29905 C 2773.08 0.917971 -1.64981 0
M  V30 29906 O 2772.44 1.60067 -0.876625 0
M  V30 29907 C 2772.49 -0.630286 -3.55963 0
M  V30 29908 O 2772.21 -1.98116 -3.90745 0
M  V30 29909 C 2773.71 -0.253645 -4.42574 0
M  V30 29910 H 2770.93 -0.190748 -0.643317 0
M  V30 29911 H 2773.47 -1.16522 -1.68056 0
M  V30 29912 H 2771.63 -0.000963517 -3.874 0
M  V30 29913 H 2772.04 -1.98559 -4.85463 0
M  V30 29914 H 2773.52 -0.403971 -5.5052 0
M  V30 29915 H 2773.99 0.806819 -4.31726 0
M  V30 29916 H 2774.6 -0.858478 -4.16546 0
M  V30 29917 N 2772.92 1.44707 -0.624311 0
M  V30 29918 C 2774.33 1.85524 -0.209233 0
M  V30 29919 C 2774.68 1.52227 1.2378 0
M  V30 29920 O 2773.8 0.95702 1.94088 0
M  V30 29921 C 2774.4 3.36741 -0.372956 0
M  V30 29922 C 2772.96 3.76398 -0.0124401 0
M  V30 29923 C 2772.1 2.6859 -0.689557 0
M  V30 29924 H 2775.05 1.3527 -0.829917 0
M  V30 29925 H 2775.08 3.78495 0.390068 0
M  V30 29926 H 2774.59 3.60944 -1.42622 0
M  V30 29927 H 2772.69 3.5781 1.03935 0
M  V30 29928 H 2772.8 4.77275 -0.417747 0
M  V30 29929 H 2771.17 2.5439 -0.125529 0
M  V30 29930 H 2771.95 2.95626 -1.74528 0
M  V30 29931 N 2774.39 0.364449 1.53328 0
M  V30 29932 C 2775.63 -0.225684 2.0315 0
M  V30 29933 C 2776 -1.46085 1.24592 0
M  V30 29934 O 2777.2 -2.12653 1.64414 0
M  V30 29935 C 2775.47 -0.511601 3.53719 0
M  V30 29936 S 2777.03 -1.07557 4.25414 0
M  V30 29937 H 2773.85 -0.0657719 0.707951 0
M  V30 29938 H 2776.45 0.507052 1.8881 0
M  V30 29939 H 2775.15 0.394855 4.08496 0
M  V30 29940 H 2774.68 -1.27344 3.72219 0
M  V30 29941 H 2776.7 -2.3599 4.3649 0
M  V30 29942 N 2775.87 -1.57322 0.0935872 0
M  V30 29943 C 2777.12 -1.94586 -0.57132 0
M  V30 29944 C 2777.45 -0.975395 -1.67928 0
M  V30 29945 O 2776.73 -0.00819625 -1.94498 0
M  V30 29946 C 2777.01 -3.4198 -1.12791 0
M  V30 29947 C 2776.86 -4.49793 -0.0251091 0
M  V30 29948 C 2778.18 -3.90654 -2.02675 0
M  V30 29949 H 2775.3 -0.707564 -0.20621 0
M  V30 29950 H 2777.94 -1.89291 0.163989 0
M  V30 29951 H 2776.09 -3.46623 -1.75455 0
M  V30 29952 H 2777.76 -4.57262 0.609059 0
M  V30 29953 H 2776.01 -4.29031 0.641475 0
M  V30 29954 H 2776.68 -5.50119 -0.455336 0
M  V30 29955 H 2779.15 -3.88154 -1.49918 0
M  V30 29956 H 2778.03 -4.94355 -2.38546 0
M  V30 29957 H 2778.29 -3.29859 -2.94356 0
M  V30 29958 N 2777.35 0.180099 -1.56568 0
M  V30 29959 C 2778.76 0.743392 -1.71262 0
M  V30 29960 C 2779.11 1.83186 -0.702662 0
M  V30 29961 O 2778.24 2.15961 0.137818 0
M  V30 29962 C 2778.83 1.35523 -3.10514 0
M  V30 29963 C 2777.39 1.86544 -3.26922 0
M  V30 29964 C 2776.54 0.741052 -2.67215 0
M  V30 29965 H 2779.49 -0.0451822 -1.58636 0
M  V30 29966 H 2779.51 2.22483 -3.08677 0
M  V30 29967 H 2779.02 0.562795 -3.83998 0
M  V30 29968 H 2777.12 2.68459 -2.58381 0
M  V30 29969 H 2777.24 2.01692 -4.34577 0
M  V30 29970 H 2775.6 1.15923 -2.2679 0
M  V30 29971 H 2776.38 -0.0393894 -3.43277 0
M  V30 29972 N 2778.83 1.51088 0.448349 0
M  V30 29973 C 2780.24 1.39019 0.783959 0
M  V30 29974 C 2780.44 0.463938 1.96086 0
M  V30 29975 O 2779.5 -0.0850091 2.52357 0
M  V30 29976 C 2780.81 2.80841 1.07467 0
M  V30 29977 C 2782.36 2.89915 1.17976 0
M  V30 29978 C 2782.84 4.3262 1.50347 0
M  V30 29979 N 2784.33 4.35675 1.57293 0
M  V30 29980 C 2785.06 5.43113 1.8389 0
M  V30 29981 N 2784.56 6.60727 2.08353 0
M  V30 29982 N 2786.35 5.30581 1.85581 0
M  V30 29983 H 2778.5 2.09869 -0.326918 0
M  V30 29984 H 2780.76 0.944287 -0.0838172 0
M  V30 29985 H 2780.47 3.50562 0.282706 0
M  V30 29986 H 2780.34 3.1949 2.00514 0
M  V30 29987 H 2782.73 2.20398 1.96236 0
M  V30 29988 H 2782.81 2.54777 0.228558 0
M  V30 29989 H 2782.46 5.02682 0.726185 0
M  V30 29990 H 2782.39 4.65262 2.46655 0
M  V30 29991 H 2784.88 3.50876 1.40336 0
M  V30 29992 H 2785.19 7.38405 2.27986 0
M  V30 29993 H 2783.54 6.63862 2.05698 0
M  V30 29994 H 2786.73 4.37685 1.65981 0
M  V30 29995 H 2786.9 6.14394 2.05972 0
M  V30 29996 N 2780.31 -0.703068 1.41049 0
M  V30 29997 C 2781.27 -1.79882 1.42039 0
M  V30 29998 C 2782.27 -1.57741 0.312181 0
M  V30 29999 O 2783.46 -1.64552 0.571701 0
M  V30 30000 C 2780.59 -3.18152 1.22443 0
M  V30 30001 H 2781.78 -1.80398 2.39575 0
M  V30 30002 H 2779.34 -0.909955 1.27081 0
M  V30 30003 H 2780.07 -3.23279 0.257169 0
M  V30 30004 H 2779.86 -3.35624 2.02729 0
M  V30 30005 H 2781.35 -3.98153 1.25953 0
M  V30 30006 N 2781.78 -1.26752 -0.936569 0
M  V30 30007 C 2782.69 -1.105 -2.06947 0
M  V30 30008 C 2783.71 -0.0373016 -1.7396 0
M  V30 30009 O 2784.89 -0.241979 -1.99941 0
M  V30 30010 C 2781.95 -0.74455 -3.38611 0
M  V30 30011 C 2781.01 -1.89216 -3.85352 0
M  V30 30012 C 2780.25 -1.54882 -5.10732 0
M  V30 30013 O 2780.47 -0.452645 -5.68601 0
M  V30 30014 O 2779.4 -2.38509 -5.52628 0
M  V30 30015 H 2783.23 -2.05551 -2.23567 0
M  V30 30016 H 2780.81 -1.05857 -1.05426 0
M  V30 30017 H 2782.7 -0.556469 -4.1771 0
M  V30 30018 H 2781.37 0.176525 -3.23218 0
M  V30 30019 H 2780.28 -2.13524 -3.07178 0
M  V30 30020 H 2781.61 -2.79313 -4.05272 0
M  V30 30021 N 2783.26 1.1418 -1.08631 0
M  V30 30022 C 2784.17 2.22948 -0.730165 0
M  V30 30023 C 2785.19 1.71981 0.26433 0
M  V30 30024 O 2786.36 2.01112 0.107706 0
M  V30 30025 C 2783.43 3.46387 -0.147288 0
M  V30 30026 C 2782.49 4.12284 -1.19669 0
M  V30 30027 C 2781.72 5.2983 -0.64153 0
M  V30 30028 O 2781.95 5.67855 0.538251 0
M  V30 30029 O 2780.88 5.85567 -1.39267 0
M  V30 30030 H 2784.71 2.55768 -1.63757 0
M  V30 30031 H 2782.29 1.22155 -0.860139 0
M  V30 30032 H 2784.17 4.21037 0.174849 0
M  V30 30033 H 2782.85 3.15286 0.733248 0
M  V30 30034 H 2781.76 3.39497 -1.57139 0
M  V30 30035 H 2783.09 4.47496 -2.04958 0
M  V30 30036 N 2784.74 0.872304 1.31258 0
M  V30 30037 C 2785.65 0.333295 2.3222 0
M  V30 30038 C 2786.67 -0.557984 1.64811 0
M  V30 30039 O 2787.84 -0.454141 1.96213 0
M  V30 30040 C 2784.91 -0.454419 3.43709 0
M  V30 30041 C 2783.97 0.465099 4.26773 0
M  V30 30042 C 2783.2 -0.285116 5.32938 0
M  V30 30043 O 2783.42 -1.5129 5.4997 0
M  V30 30044 O 2782.36 0.358232 6.00833 0
M  V30 30045 H 2786.18 1.17021 2.8025 0
M  V30 30046 H 2783.77 0.635748 1.35198 0
M  V30 30047 H 2785.65 -0.90089 4.11658 0
M  V30 30048 H 2784.33 -1.26784 2.97838 0
M  V30 30049 H 2783.23 0.960119 3.6157 0
M  V30 30050 H 2784.57 1.24418 4.76215 0
M  V30 30051 N 2786.22 -1.44374 0.631976 0
M  V30 30052 C 2787.18 -2.29114 -0.0627739 0
M  V30 30053 C 2788.18 -1.41085 -0.771469 0
M  V30 30054 O 2789.37 -1.62948 -0.61593 0
M  V30 30055 C 2786.5 -3.22683 -1.09947 0
M  V30 30056 H 2787.7 -2.92029 0.682561 0
M  V30 30057 H 2785.25 -1.513 0.392154 0
M  V30 30058 H 2785.98 -2.64619 -1.87476 0
M  V30 30059 H 2785.77 -3.87556 -0.595218 0
M  V30 30060 H 2787.26 -3.86339 -1.58532 0
M  V30 30061 N 2787.7 -0.372575 -1.53133 0
M  V30 30062 C 2788.66 0.458349 -2.2457 0
M  V30 30063 C 2789.66 1.004 -1.25604 0
M  V30 30064 O 2790.85 0.888646 -1.49829 0
M  V30 30065 C 2787.98 1.64134 -2.98785 0
M  V30 30066 H 2789.17 -0.166852 -2.99435 0
M  V30 30067 H 2786.73 -0.124384 -1.55804 0
M  V30 30068 H 2787.46 2.30444 -2.2818 0
M  V30 30069 H 2787.25 1.25697 -3.71406 0
M  V30 30070 H 2788.74 2.23002 -3.53072 0
M  V30 30071 N 2789.17 1.5727 -0.101929 0
M  V30 30072 C 2790.4 1.99364 0.571724 0
M  V30 30073 C 2790.82 0.980796 1.60505 0
M  V30 30074 O 2790.18 -0.0498199 1.81232 0
M  V30 30075 C 2790.23 3.40402 1.1899 0
M  V30 30076 O 2789.33 3.41926 2.30566 0
M  V30 30077 H 2788.68 0.6481 0.144437 0
M  V30 30078 H 2791.21 2.03759 -0.185361 0
M  V30 30079 H 2791.22 3.78244 1.52955 0
M  V30 30080 H 2789.89 4.13641 0.432911 0
M  V30 30081 H 2788.47 3.15886 1.98167 0
M  V30 30082 N 2790.65 -0.171793 1.56661 0
M  V30 30083 C 2791.58 -1.21494 1.99403 0
M  V30 30084 C 2792.56 -1.46195 0.869541 0
M  V30 30085 O 2793.75 -1.57537 1.13559 0
M  V30 30086 C 2790.88 -2.55396 2.35351 0
M  V30 30087 C 2789.83 -2.45265 3.50755 0
M  V30 30088 C 2789.16 -3.83653 3.72444 0
M  V30 30089 C 2790.46 -1.95778 4.84219 0
M  V30 30090 H 2792.15 -0.859648 2.86793 0
M  V30 30091 H 2789.7 -0.412079 1.37978 0
M  V30 30092 H 2791.65 -3.28575 2.63849 0
M  V30 30093 H 2790.38 -2.92713 1.44869 0
M  V30 30094 H 2789.03 -1.74541 3.22383 0
M  V30 30095 H 2788.68 -4.18362 2.79253 0
M  V30 30096 H 2788.38 -3.77743 4.50093 0
M  V30 30097 H 2789.91 -4.58418 4.03342 0
M  V30 30098 H 2791.32 -2.58731 5.11597 0
M  V30 30099 H 2789.72 -2.00817 5.65502 0
M  V30 30100 H 2790.79 -0.912075 4.76245 0
M  V30 30101 N 2792.13 -1.51324 -0.44033 0
M  V30 30102 C 2793.54 -1.56355 -1.0203 0
M  V30 30103 C 2793.89 -0.385231 -1.92381 0
M  V30 30104 O 2793.02 0.498336 -2.10584 0
M  V30 30105 C 2793.61 -2.83363 -1.85718 0
M  V30 30106 C 2792.17 -2.90975 -2.38769 0
M  V30 30107 C 2791.32 -2.50986 -1.17904 0
M  V30 30108 H 2794.27 -1.57144 -0.221716 0
M  V30 30109 H 2794.29 -2.66956 -2.71136 0
M  V30 30110 H 2793.8 -3.69104 -1.19932 0
M  V30 30111 H 2791.9 -2.09656 -3.08018 0
M  V30 30112 H 2792.02 -3.9456 -2.71771 0
M  V30 30113 H 2790.38 -2.04116 -1.52344 0
M  V30 30114 H 2791.16 -3.39069 -0.537334 0
M  V30 30115 N 2793.61 0.695578 -1.41419 0
M  V30 30116 C 2794.89 1.45012 -1.31266 0
M  V30 30117 C 2795.27 2.11015 0.0597623 0
M  V30 30118 O 2794.61 2.01687 1.074 0
M  V30 30119 C 2794.82 2.46956 -2.46605 0
M  V30 30120 C 2796.17 3.12209 -2.87769 0
M  V30 30121 O 2797.2 2.5728 -2.46344 0
M  V30 30122 O 2796.05 4.11694 -3.59402 0
M  V30 30123 H 2793.15 0.645807 -0.516587 0
M  V30 30124 H 2795.69 0.726057 -1.53383 0
M  V30 30125 H 2794.47 1.96839 -3.38187 0
M  V30 30126 H 2794.09 3.26872 -2.26364 0
M  V30 30127 N 2795.09 1.27247 0.929833 0
M  V30 30128 C 2796 1.11596 2.06358 0
M  V30 30129 C 2797.01 0.0465266 1.73938 0
M  V30 30130 O 2798.19 0.252579 1.9981 0
M  V30 30131 C 2795.25 0.762497 3.38211 0
M  V30 30132 C 2794.32 1.91257 3.84343 0
M  V30 30133 C 2793.55 1.57588 5.09904 0
M  V30 30134 O 2793.77 0.482793 5.68353 0
M  V30 30135 O 2792.71 2.41436 5.51355 0
M  V30 30136 H 2796.53 2.06734 2.22474 0
M  V30 30137 H 2794.12 1.06415 1.04863 0
M  V30 30138 H 2796 0.578614 4.17409 0
M  V30 30139 H 2794.67 -0.159382 3.23307 0
M  V30 30140 H 2793.58 2.1515 3.06041 0
M  V30 30141 H 2794.91 2.81458 4.03785 0
M  V30 30142 N 2796.57 -1.13603 1.09235 0
M  V30 30143 C 2797.81 -1.84469 0.825558 0
M  V30 30144 C 2798.13 -1.83824 -0.650669 0
M  V30 30145 O 2797.4 -1.29261 -1.47202 0
M  V30 30146 H 2795.98 -0.683049 0.302412 0
M  V30 30147 H 2798.65 -1.37622 1.38008 0
M  V30 30148 H 2797.74 -2.89042 1.17732 0
M  V30 30149 N 2798.04 -0.879253 -1.30793 0
M  V30 30150 C 2799.29 -0.49482 -1.96361 0
M  V30 30151 C 2799.62 0.954838 -1.69449 0
M  V30 30152 O 2798.87 1.68886 -0.98874 0
M  V30 30153 C 2799.17 -0.709537 -3.50286 0
M  V30 30154 C 2798.84 -2.1334 -3.97236 0
M  V30 30155 C 2797.5 -2.52278 -4.09767 0
M  V30 30156 C 2799.85 -3.06158 -4.21802 0
M  V30 30157 C 2797.18 -3.83256 -4.44221 0
M  V30 30158 C 2799.53 -4.36662 -4.57722 0
M  V30 30159 C 2798.2 -4.755 -4.68461 0
M  V30 30160 H 2797.47 -0.181068 -0.718537 0
M  V30 30161 H 2800.11 -1.11401 -1.55763 0
M  V30 30162 H 2798.42 -0.00726886 -3.91799 0
M  V30 30163 H 2800.12 -0.391774 -3.99082 0
M  V30 30164 H 2796.71 -1.82114 -3.87985 0
M  V30 30165 H 2800.89 -2.77298 -4.11606 0
M  V30 30166 H 2796.15 -4.13097 -4.50734 0
M  V30 30167 H 2800.32 -5.08626 -4.75681 0
M  V30 30168 H 2797.95 -5.77031 -4.94913 0
M  V30 30169 N 2799.52 1.44037 -0.639624 0
M  V30 30170 C 2800.77 2.02261 -0.147734 0
M  V30 30171 C 2801.1 1.50258 1.23029 0
M  V30 30172 O 2800.38 0.6901 1.81846 0
M  V30 30173 C 2800.66 3.59813 -0.143683 0
M  V30 30174 C 2800.51 4.22079 -1.55465 0
M  V30 30175 C 2801.83 4.3693 0.52724 0
M  V30 30176 H 2798.95 0.734933 -0.0551582 0
M  V30 30177 H 2801.59 1.71503 -0.817718 0
M  V30 30178 H 2799.74 3.86148 0.42683 0
M  V30 30179 H 2801.41 4.06822 -2.17471 0
M  V30 30180 H 2799.66 3.79249 -2.10601 0
M  V30 30181 H 2800.33 5.31122 -1.50378 0
M  V30 30182 H 2802.8 4.16079 0.0419772 0
M  V30 30183 H 2801.68 5.46624 0.499293 0
M  V30 30184 H 2801.94 4.12168 1.59907 0
M  V30 30185 N 2801 0.380691 1.52933 0
M  V30 30186 C 2801.96 -0.446433 2.2481 0
M  V30 30187 C 2802.96 -0.997325 1.26135 0
M  V30 30188 O 2804.15 -0.880687 1.50298 0
M  V30 30189 C 2801.28 -1.62548 2.99652 0
M  V30 30190 H 2802.48 0.182729 2.99343 0
M  V30 30191 H 2800.03 0.132645 1.55736 0
M  V30 30192 H 2800.77 -2.29231 2.29399 0
M  V30 30193 H 2800.55 -1.23726 3.72068 0
M  V30 30194 H 2802.04 -2.21127 3.5425 0
M  V30 30195 N 2802.48 -1.57214 0.110268 0
M  V30 30196 C 2803.72 -1.94892 -0.549835 0
M  V30 30197 C 2804.05 -0.993013 -1.67241 0
M  V30 30198 O 2803.31 -0.0153047 -1.95694 0
M  V30 30199 C 2803.61 -3.39034 -1.13096 0
M  V30 30200 C 2803.27 -4.50711 -0.130633 0
M  V30 30201 C 2801.93 -4.80983 0.144455 0
M  V30 30202 C 2804.29 -5.18273 0.551564 0
M  V30 30203 C 2801.61 -5.76139 1.10817 0
M  V30 30204 C 2803.97 -6.14465 1.50386 0
M  V30 30205 C 2802.63 -6.43134 1.78702 0
M  V30 30206 H 2801.9 -0.713162 -0.201199 0
M  V30 30207 H 2804.55 -1.90562 0.189322 0
M  V30 30208 H 2802.85 -3.40016 -1.94669 0
M  V30 30209 H 2804.55 -3.65496 -1.64966 0
M  V30 30210 H 2801.14 -4.27125 -0.355226 0
M  V30 30211 H 2805.32 -4.95049 0.352197 0
M  V30 30212 H 2800.58 -5.9666 1.3344 0
M  V30 30213 H 2804.75 -6.65906 2.0382 0
M  V30 30214 H 2802.38 -7.16676 2.53534 0
M  V30 30215 N 2803.96 0.163482 -1.5675 0
M  V30 30216 C 2805.18 0.8942 -1.86579 0
M  V30 30217 C 2805.6 1.7548 -0.696574 0
M  V30 30218 O 2804.96 1.79415 0.334129 0
M  V30 30219 C 2805.01 1.76451 -3.15511 0
M  V30 30220 O 2804.73 0.93861 -4.27927 0
M  V30 30221 C 2806.23 2.60422 -3.58741 0
M  V30 30222 H 2803.45 0.259395 -0.618834 0
M  V30 30223 H 2805.99 0.161223 -2.03863 0
M  V30 30224 H 2804.15 2.45073 -3.0003 0
M  V30 30225 H 2804.56 1.53456 -5.01549 0
M  V30 30226 H 2806.04 3.17091 -4.51838 0
M  V30 30227 H 2806.51 3.3567 -2.83235 0
M  V30 30228 H 2807.12 1.97118 -3.76861 0
M  V30 30229 N 2805.43 1.51555 0.432299 0
M  V30 30230 C 2806.4 1.72636 1.50762 0
M  V30 30231 C 2807.4 0.59634 1.49333 0
M  V30 30232 O 2808.59 0.863952 1.51266 0
M  V30 30233 C 2805.72 1.78746 2.90281 0
M  V30 30234 H 2806.91 2.68611 1.33372 0
M  V30 30235 H 2804.46 1.41621 0.661304 0
M  V30 30236 H 2805.2 0.846032 3.1307 0
M  V30 30237 H 2804.98 2.60875 2.92723 0
M  V30 30238 H 2806.47 1.96877 3.68279 0
M  V30 30239 N 2806.91 -0.688069 1.41786 0
M  V30 30240 C 2807.86 -1.82318 1.44439 0
M  V30 30241 C 2808.85 -1.6632 0.321573 0
M  V30 30242 O 2810.06 -1.7309 0.493961 0
M  V30 30243 H 2806.43 -0.600928 0.452095 0
M  V30 30244 H 2808.41 -1.77198 2.40091 0
M  V30 30245 C 2807.15 -3.2039 1.35077 0
M  V30 30246 H 2806.48 -3.3332 2.20766 0
M  V30 30247 H 2807.92 -3.99871 1.40995 0
M  V30 30248 C 2806.38 -3.36839 0.0639719 0
M  V30 30249 O 2806.91 -3.91752 -0.888426 0
M  V30 30250 N 2805.11 -2.90596 -0.0145603 0
M  V30 30251 H 2804.66 -2.46095 0.761234 0
M  V30 30252 H 2804.62 -3.01981 -0.874935 0
M  V30 30253 N 2808.39 -1.27739 -0.923072 0
M  V30 30254 C 2809.3 -1.12688 -2.05763 0
M  V30 30255 C 2810.32 -0.0557503 -1.73911 0
M  V30 30256 O 2811.49 -0.263172 -1.99673 0
M  V30 30257 C 2808.56 -0.780422 -3.37802 0
M  V30 30258 C 2807.62 -1.93293 -3.83323 0
M  V30 30259 C 2806.85 -1.6029 -5.09061 0
M  V30 30260 O 2807.07 -0.512928 -5.68089 0
M  V30 30261 O 2806.01 -2.44357 -5.50067 0
M  V30 30262 H 2809.83 -2.07911 -2.21375 0
M  V30 30263 H 2807.42 -1.06969 -1.04297 0
M  V30 30264 H 2809.3 -0.600742 -4.17096 0
M  V30 30265 H 2807.98 0.142234 -3.23387 0
M  V30 30266 H 2806.88 -2.1677 -3.04896 0
M  V30 30267 H 2808.22 -2.83595 -4.02287 0
M  V30 30268 N 2809.87 1.13022 -1.09836 0
M  V30 30269 C 2810.82 2.20638 -0.736322 0
M  V30 30270 C 2811.81 1.67319 0.264696 0
M  V30 30271 O 2813.02 1.7956 0.125714 0
M  V30 30272 H 2809.39 0.719054 -0.220148 0
M  V30 30273 H 2811.36 2.48433 -1.65299 0
M  V30 30274 C 2810.11 3.47246 -0.177605 0
M  V30 30275 H 2809.43 3.88615 -0.939078 0
M  V30 30276 H 2810.87 4.23983 0.0377262 0
M  V30 30277 C 2809.33 3.18842 1.08819 0
M  V30 30278 O 2809.86 3.37997 2.17074 0
M  V30 30279 N 2808.07 2.72692 1.00437 0
M  V30 30280 H 2807.62 2.57305 0.123338 0
M  V30 30281 H 2807.57 2.54063 1.85201 0
M  V30 30282 N 2811.35 0.886177 1.30325 0
M  V30 30283 C 2812.59 0.511946 1.97885 0
M  V30 30284 C 2812.95 -0.921915 1.68418 0
M  V30 30285 O 2814.15 -1.40233 2.29321 0
M  V30 30286 C 2812.42 0.780506 3.48773 0
M  V30 30287 S 2813.98 0.508558 4.35843 0
M  V30 30288 H 2810.8 0.19044 0.685021 0
M  V30 30289 H 2813.4 1.1457 1.58411 0
M  V30 30290 H 2812.11 1.82255 3.67711 0
M  V30 30291 H 2811.64 0.134353 3.93171 0
M  V30 30292 H 2813.65 -0.652304 4.91894 0
M  V30 30293 N 2812.82 -1.43695 0.647253 0
M  V30 30294 C 2814.07 -2.0218 0.158458 0
M  V30 30295 C 2814.4 -1.50909 -1.2223 0
M  V30 30296 O 2813.68 -0.699734 -1.81477 0
M  V30 30297 C 2813.96 -3.59732 0.162763 0
M  V30 30298 C 2813.81 -4.21249 1.57701 0
M  V30 30299 C 2815.13 -4.37204 -0.504061 0
M  V30 30300 H 2812.25 -0.73463 0.059055 0
M  V30 30301 H 2814.89 -1.71067 0.826802 0
M  V30 30302 H 2813.04 -3.86369 -0.406346 0
M  V30 30303 H 2814.72 -4.05663 2.19625 0
M  V30 30304 H 2812.96 -3.78127 2.12609 0
M  V30 30305 H 2813.63 -5.30317 1.53193 0
M  V30 30306 H 2816.11 -4.16095 -0.019911 0
M  V30 30307 H 2814.98 -5.46882 -0.470297 0
M  V30 30308 H 2815.24 -4.1301 -1.57719 0
M  V30 30309 N 2814.3 -0.388796 -1.52729 0
M  V30 30310 C 2815.23 0.43807 -2.29354 0
M  V30 30311 C 2816.21 1.06392 -1.32721 0
M  V30 30312 O 2817.4 1.07679 -1.61614 0
M  V30 30313 C 2814.53 1.56584 -3.09998 0
M  V30 30314 C 2813.48 1.06606 -4.14511 0
M  V30 30315 C 2812.81 2.28586 -4.83376 0
M  V30 30316 C 2814.11 0.134367 -5.22127 0
M  V30 30317 H 2815.8 -0.201258 -2.98723 0
M  V30 30318 H 2813.35 -0.0982341 -1.43665 0
M  V30 30319 H 2815.3 2.15111 -3.62361 0
M  V30 30320 H 2814.03 2.23274 -2.38361 0
M  V30 30321 H 2812.68 0.503319 -3.63128 0
M  V30 30322 H 2812.33 2.93785 -4.08288 0
M  V30 30323 H 2812.03 1.95807 -5.54016 0
M  V30 30324 H 2813.56 2.87757 -5.38543 0
M  V30 30325 H 2814.97 0.627814 -5.69852 0
M  V30 30326 H 2813.37 -0.103639 -6.0001 0
M  V30 30327 H 2814.44 -0.816882 -4.7797 0
M  V30 30328 N 2815.78 1.57153 -0.118604 0
M  V30 30329 C 2817.19 1.82213 0.406838 0
M  V30 30330 C 2817.54 1.03574 1.66634 0
M  V30 30331 O 2816.67 0.272209 2.14681 0
M  V30 30332 C 2817.26 3.3051 0.744891 0
M  V30 30333 C 2815.82 3.56252 1.21497 0
M  V30 30334 C 2814.97 2.76398 0.223462 0
M  V30 30335 H 2817.92 1.54933 -0.34374 0
M  V30 30336 H 2817.94 3.45117 1.60234 0
M  V30 30337 H 2817.45 3.87719 -0.171979 0
M  V30 30338 H 2815.55 3.044 2.14875 0
M  V30 30339 H 2815.67 4.64831 1.16057 0
M  V30 30340 H 2814.03 2.44592 0.710417 0
M  V30 30341 H 2814.81 3.36366 -0.686498 0
M  V30 30342 N 2817.26 -0.155167 1.56834 0
M  V30 30343 C 2818.54 -0.897364 1.73801 0
M  V30 30344 C 2818.92 -1.99697 0.684415 0
M  V30 30345 O 2818.26 -2.26548 -0.298071 0
M  V30 30346 C 2818.47 -1.44731 3.17575 0
M  V30 30347 C 2819.82 -1.91393 3.79017 0
M  V30 30348 O 2820.85 -1.54491 3.20953 0
M  V30 30349 O 2819.7 -2.5942 4.81003 0
M  V30 30350 H 2816.8 -0.423498 0.710337 0
M  V30 30351 H 2819.34 -0.141731 1.69107 0
M  V30 30352 H 2818.12 -0.656673 3.85751 0
M  V30 30353 H 2817.74 -2.26668 3.26661 0
M  V30 30354 N 2818.74 -1.51782 -0.424256 0
M  V30 30355 C 2819.68 -1.74039 -1.51588 0
M  V30 30356 C 2820.65 -0.582385 -1.55555 0
M  V30 30357 O 2821.84 -0.818275 -1.72363 0
M  V30 30358 C 2818.98 -1.88325 -2.89185 0
M  V30 30359 C 2818.09 -3.15925 -2.94645 0
M  V30 30360 C 2817.23 -3.20729 -4.23446 0
M  V30 30361 C 2816.27 -4.42591 -4.22823 0
M  V30 30362 N 2815.4 -4.44872 -5.4317 0
M  V30 30363 H 2820.24 -2.67214 -1.31912 0
M  V30 30364 H 2817.78 -1.3242 -0.640576 0
M  V30 30365 H 2819.74 -1.94589 -3.6904 0
M  V30 30366 H 2818.37 -0.985456 -3.0739 0
M  V30 30367 H 2817.42 -3.18906 -2.07372 0
M  V30 30368 H 2818.73 -4.058 -2.90048 0
M  V30 30369 H 2817.89 -3.25982 -5.11684 0
M  V30 30370 H 2816.62 -2.28765 -4.30718 0
M  V30 30371 H 2815.63 -4.37501 -3.32976 0
M  V30 30372 H 2816.85 -5.35834 -4.17204 0
M  V30 30373 H 2814.8 -3.55784 -5.51138 0
M  V30 30374 H 2814.72 -5.28573 -5.40506 0
M  V30 30375 H 2815.99 -4.54335 -6.33404 0
M  V30 30376 N 2820.21 0.68054 -1.42149 0
M  V30 30377 C 2821.44 1.47401 -1.45903 0
M  V30 30378 C 2821.86 1.87969 -0.0701315 0
M  V30 30379 O 2821.22 1.55623 0.930117 0
M  V30 30380 C 2821.27 2.70317 -2.38666 0
M  V30 30381 O 2820.37 3.68373 -1.85406 0
M  V30 30382 H 2819.72 0.443051 -0.494573 0
M  V30 30383 H 2822.25 0.835218 -1.86776 0
M  V30 30384 H 2822.26 3.18454 -2.55051 0
M  V30 30385 H 2820.93 2.40128 -3.39575 0
M  V30 30386 H 2819.51 3.27377 -1.78546 0
M  V30 30387 N 2821.69 1.28226 0.916285 0
M  V30 30388 C 2822.6 1.13778 2.05163 0
M  V30 30389 C 2823.62 0.0649724 1.73879 0
M  V30 30390 O 2824.79 0.273757 1.99531 0
M  V30 30391 C 2821.86 0.798326 3.37384 0
M  V30 30392 C 2820.92 1.95323 3.82292 0
M  V30 30393 C 2820.15 1.62987 5.08204 0
M  V30 30394 O 2820.38 0.543048 5.67809 0
M  V30 30395 O 2819.31 2.4727 5.48763 0
M  V30 30396 H 2823.14 2.09082 2.20269 0
M  V30 30397 H 2820.72 1.07521 1.03728 0
M  V30 30398 H 2822.6 0.622853 4.16772 0
M  V30 30399 H 2821.28 -0.125082 3.23458 0
M  V30 30400 H 2820.19 2.18384 3.03742 0
M  V30 30401 H 2821.52 2.85725 4.00777 0
M  V30 30402 N 2823.17 -1.12438 1.10433 0
M  V30 30403 C 2824.4 -1.8777 0.868905 0
M  V30 30404 C 2824.81 -1.79651 -0.580614 0
M  V30 30405 O 2824.17 -1.17039 -1.40029 0
M  V30 30406 C 2824.22 -3.36983 1.30861 0
M  V30 30407 O 2823.94 -3.44909 2.70129 0
M  V30 30408 C 2825.44 -4.29254 1.10707 0
M  V30 30409 H 2822.66 -0.594115 0.311879 0
M  V30 30410 H 2825.21 -1.4227 1.46899 0
M  V30 30411 H 2823.36 -3.80027 0.752192 0
M  V30 30412 H 2823.78 -4.37743 2.88931 0
M  V30 30413 H 2825.25 -5.32236 1.46387 0
M  V30 30414 H 2825.73 -4.39176 0.0456999 0
M  V30 30415 H 2826.33 -3.91991 1.64995 0
M  V30 30416 N 2824.65 -0.893076 -1.29853 0
M  V30 30417 C 2825.61 -0.370727 -2.26182 0
M  V30 30418 C 2826.61 0.491358 -1.53109 0
M  V30 30419 O 2827.8 0.297356 -1.71643 0
M  V30 30420 C 2824.93 0.470768 -3.37634 0
M  V30 30421 H 2826.13 -1.2214 -2.73901 0
M  V30 30422 H 2823.68 -0.670635 -1.41181 0
M  V30 30423 H 2824.42 1.3417 -2.95244 0
M  V30 30424 H 2824.2 -0.146853 -3.91825 0
M  V30 30425 H 2825.69 0.827753 -4.09314 0
M  V30 30426 N 2826.13 1.4335 -0.654865 0
M  V30 30427 C 2827.35 2.0666 -0.175082 0
M  V30 30428 C 2827.78 1.48772 1.15102 0
M  V30 30429 O 2827.14 0.598309 1.71143 0
M  V30 30430 C 2827.18 3.60463 -0.0992178 0
M  V30 30431 O 2826.29 4.01589 0.938099 0
M  V30 30432 H 2825.63 0.657078 -0.0956263 0
M  V30 30433 H 2828.16 1.83828 -0.898254 0
M  V30 30434 H 2828.17 4.07914 0.0835603 0
M  V30 30435 H 2826.84 4.01973 -1.06726 0
M  V30 30436 H 2825.42 3.65725 0.727976 0
M  V30 30437 N 2827.61 0.39689 1.52521 0
M  V30 30438 C 2828.57 -0.422564 2.25271 0
M  V30 30439 C 2829.57 -0.983891 1.27186 0
M  V30 30440 O 2830.76 -0.864697 1.51224 0
M  V30 30441 C 2827.89 -1.5936 3.01359 0
M  V30 30442 H 2829.08 0.214469 2.99132 0
M  V30 30443 H 2826.64 0.149156 1.55587 0
M  V30 30444 H 2827.37 -2.26785 2.31817 0
M  V30 30445 H 2827.16 -1.19772 3.73359 0
M  V30 30446 H 2828.65 -2.17357 3.56575 0
M  V30 30447 N 2829.08 -1.57088 0.126936 0
M  V30 30448 C 2830.31 -1.9982 -0.536635 0
M  V30 30449 C 2830.73 -1.00676 -1.59718 0
M  V30 30450 O 2830.08 -0.000779444 -1.825 0
M  V30 30451 C 2830.13 -3.42533 -1.15557 0
M  V30 30452 O 2829.86 -4.37884 -0.137406 0
M  V30 30453 C 2831.36 -4.00438 -1.90169 0
M  V30 30454 H 2828.58 -0.655926 -0.141431 0
M  V30 30455 H 2831.12 -2.0336 0.215613 0
M  V30 30456 H 2829.28 -3.39907 -1.85855 0
M  V30 30457 H 2829.69 -5.21192 -0.588137 0
M  V30 30458 H 2831.16 -5.02353 -2.28792 0
M  V30 30459 H 2831.64 -3.40022 -2.77996 0
M  V30 30460 H 2832.25 -4.06634 -1.24615 0
M  V30 30461 N 2830.56 0.146848 -1.56914 0
M  V30 30462 C 2831.79 0.878353 -1.87882 0
M  V30 30463 C 2832.21 1.73941 -0.715975 0
M  V30 30464 O 2831.57 1.78189 0.334416 0
M  V30 30465 C 2831.62 1.71078 -3.17434 0
M  V30 30466 O 2830.72 2.81504 -3.01379 0
M  V30 30467 H 2830.06 0.244633 -0.617293 0
M  V30 30468 H 2832.59 0.137618 -2.04137 0
M  V30 30469 H 2832.6 2.10576 -3.49459 0
M  V30 30470 H 2831.28 1.07849 -4.01673 0
M  V30 30471 H 2829.85 2.45411 -2.80763 0
M  V30 30472 N 2832.04 1.52005 0.4162 0
M  V30 30473 C 2833.29 1.65717 1.1638 0
M  V30 30474 C 2833.61 0.383628 1.90679 0
M  V30 30475 O 2832.87 -0.633153 1.85175 0
M  V30 30476 C 2833.17 2.82506 2.18918 0
M  V30 30477 C 2832.83 4.20994 1.61478 0
M  V30 30478 C 2831.5 4.58664 1.45536 0
M  V30 30479 C 2833.85 5.07325 1.19459 0
M  V30 30480 C 2831.18 5.8035 0.860835 0
M  V30 30481 C 2833.53 6.29611 0.614276 0
M  V30 30482 C 2832.19 6.66035 0.441939 0
M  V30 30483 H 2831.46 0.6064 0.425864 0
M  V30 30484 H 2834.11 1.8609 0.451957 0
M  V30 30485 H 2832.41 2.56439 2.9622 0
M  V30 30486 H 2834.11 2.90312 2.76623 0
M  V30 30487 H 2830.7 3.91305 1.74867 0
M  V30 30488 H 2834.89 4.78812 1.30587 0
M  V30 30489 H 2830.14 6.07202 0.715265 0
M  V30 30490 H 2834.32 6.95836 0.280271 0
M  V30 30491 H 2831.94 7.60197 -0.0208554 0
M  V30 30492 N 2833.52 -0.672992 1.42508 0
M  V30 30493 C 2834.93 -1.25365 1.38349 0
M  V30 30494 C 2835.28 -1.96046 0.0776672 0
M  V30 30495 O 2834.4 -2.00117 -0.823536 0
M  V30 30496 C 2835 -2.27998 2.50604 0
M  V30 30497 C 2833.56 -2.81586 2.49772 0
M  V30 30498 C 2832.71 -1.55934 2.29303 0
M  V30 30499 H 2835.66 -0.466261 1.51696 0
M  V30 30500 H 2835.68 -3.0977 2.20959 0
M  V30 30501 H 2835.19 -1.76526 3.4563 0
M  V30 30502 H 2833.29 -3.37175 1.58569 0
M  V30 30503 H 2833.4 -3.30479 3.46873 0
M  V30 30504 H 2831.77 -1.82569 1.77597 0
M  V30 30505 H 2832.55 -1.06425 3.26387 0
M  V30 30506 N 2835 -1.2871 -0.909472 0
M  V30 30507 C 2836.41 -1.14565 -1.47417 0
M  V30 30508 C 2836.76 0.262798 -1.94432 0
M  V30 30509 O 2835.88 1.15745 -1.82845 0
M  V30 30510 C 2836.48 -2.07363 -2.67929 0
M  V30 30511 C 2835.04 -1.97269 -3.20565 0
M  V30 30512 C 2834.18 -1.98856 -1.93266 0
M  V30 30513 H 2837.13 -1.41337 -0.721762 0
M  V30 30514 H 2837.16 -1.64013 -3.43336 0
M  V30 30515 H 2836.67 -3.09864 -2.3368 0
M  V30 30516 H 2834.77 -0.97822 -3.5953 0
M  V30 30517 H 2834.88 -2.84443 -3.85524 0
M  V30 30518 H 2833.25 -1.43321 -2.1055 0
M  V30 30519 H 2834.03 -3.03043 -1.61306 0
M  V30 30520 N 2836.47 1.1185 -1.11028 0
M  V30 30521 C 2837.7 1.87847 -0.879097 0
M  V30 30522 C 2838.12 1.79402 0.565374 0
M  V30 30523 O 2837.48 1.15335 1.39884 0
M  V30 30524 C 2837.53 3.34782 -1.33991 0
M  V30 30525 O 2836.63 4.09248 -0.508875 0
M  V30 30526 H 2835.97 0.583443 -0.317003 0
M  V30 30527 H 2838.5 1.41411 -1.47866 0
M  V30 30528 H 2838.51 3.85626 -1.33255 0
M  V30 30529 H 2837.19 3.40245 -2.39178 0
M  V30 30530 H 2835.77 3.68331 -0.581978 0
M  V30 30531 N 2837.95 0.89995 1.29378 0
M  V30 30532 C 2839.18 0.540636 1.99401 0
M  V30 30533 C 2839.59 -0.87911 1.67536 0
M  V30 30534 O 2838.93 -1.59184 0.916849 0
M  V30 30535 C 2838.99 0.653389 3.53512 0
M  V30 30536 C 2838.66 2.04016 4.08933 0
M  V30 30537 C 2839.66 3.01134 4.23809 0
M  V30 30538 C 2837.34 2.3496 4.43958 0
M  V30 30539 C 2839.33 4.27321 4.72943 0
M  V30 30540 C 2837.02 3.6139 4.92788 0
M  V30 30541 C 2838.02 4.57385 5.07236 0
M  V30 30542 O 2837.71 5.81569 5.55006 0
M  V30 30543 H 2837.44 0.206068 0.643826 0
M  V30 30544 H 2839.99 1.21137 1.65876 0
M  V30 30545 H 2838.22 -0.074377 3.86628 0
M  V30 30546 H 2839.91 0.303189 4.04766 0
M  V30 30547 H 2840.68 2.78542 3.97038 0
M  V30 30548 H 2836.56 1.61002 4.31972 0
M  V30 30549 H 2840.1 5.02254 4.84135 0
M  V30 30550 H 2836 3.83813 5.18997 0
M  V30 30551 H 2836.77 5.84163 5.7332 0
M  V30 30552 N 2839.43 -1.43001 0.662458 0
M  V30 30553 C 2840.34 -2.34588 -0.0238786 0
M  V30 30554 C 2841.36 -1.54403 -0.802228 0
M  V30 30555 O 2842.53 -1.8702 -0.747368 0
M  V30 30556 C 2839.6 -3.32795 -0.97204 0
M  V30 30557 C 2838.66 -4.28881 -0.189597 0
M  V30 30558 C 2837.89 -5.22396 -1.0926 0
M  V30 30559 O 2838.11 -5.20551 -2.332 0
M  V30 30560 O 2837.05 -5.99289 -0.560031 0
M  V30 30561 H 2840.87 -2.9479 0.730223 0
M  V30 30562 H 2838.46 -1.43297 0.42266 0
M  V30 30563 H 2840.34 -3.9316 -1.51669 0
M  V30 30564 H 2839.02 -2.75082 -1.70621 0
M  V30 30565 H 2837.92 -3.71968 0.398859 0
M  V30 30566 H 2839.26 -4.896 0.505196 0
M  V30 30567 N 2840.91 -0.404973 -1.52308 0
M  V30 30568 C 2842.13 0.174264 -2.06667 0
M  V30 30569 C 2842.56 1.38439 -1.27343 0
M  V30 30570 O 2841.92 1.78757 -0.302571 0
M  V30 30571 C 2841.96 0.5072 -3.57015 0
M  V30 30572 O 2841.07 1.59883 -3.80146 0
M  V30 30573 H 2840.41 0.0160156 -0.663807 0
M  V30 30574 H 2842.94 -0.576971 -1.96296 0
M  V30 30575 H 2842.95 0.767027 -4.00725 0
M  V30 30576 H 2841.62 -0.37744 -4.14184 0
M  V30 30577 H 2840.2 1.33149 -3.48318 0
M  V30 30578 N 2842.39 1.57018 -0.135265 0
M  V30 30579 C 2843.63 1.96032 0.519529 0
M  V30 30580 C 2843.97 1.01958 1.65282 0
M  V30 30581 O 2843.24 0.0597611 1.94408 0
M  V30 30582 C 2843.52 3.4485 1.03684 0
M  V30 30583 C 2843.38 4.49701 -0.0941544 0
M  V30 30584 C 2844.7 3.9589 1.92247 0
M  V30 30585 H 2841.81 0.712782 0.187378 0
M  V30 30586 H 2844.46 1.8879 -0.214119 0
M  V30 30587 H 2842.61 3.51153 1.66203 0
M  V30 30588 H 2844.28 4.55486 -0.73008 0
M  V30 30589 H 2842.52 4.27179 -0.754999 0
M  V30 30590 H 2843.19 5.51133 0.309322 0
M  V30 30591 H 2845.67 3.91993 1.39574 0
M  V30 30592 H 2844.54 5.00506 2.25355 0
M  V30 30593 H 2844.81 3.37548 2.85507 0
M  V30 30594 N 2843.86 -0.138524 1.5699 0
M  V30 30595 C 2845.09 -0.864404 1.87978 0
M  V30 30596 C 2845.51 -1.7435 0.724403 0
M  V30 30597 O 2844.86 -1.79924 -0.305544 0
M  V30 30598 C 2844.92 -1.71409 3.18279 0
M  V30 30599 O 2844.64 -0.870412 4.29366 0
M  V30 30600 C 2846.14 -2.54682 3.62839 0
M  V30 30601 H 2843.36 -0.249517 0.622882 0
M  V30 30602 H 2845.9 -0.128769 2.04094 0
M  V30 30603 H 2844.06 -2.40269 3.03891 0
M  V30 30604 H 2844.47 -1.45457 5.03927 0
M  V30 30605 H 2845.94 -3.09862 4.56825 0
M  V30 30606 H 2846.42 -3.31122 2.88539 0
M  V30 30607 H 2847.03 -1.91098 3.7995 0
M  V30 30608 N 2845.34 -1.52224 -0.408133 0
M  V30 30609 C 2846.76 -1.41049 -0.746825 0
M  V30 30610 C 2846.96 -0.515764 -1.94787 0
M  V30 30611 O 2846.01 0.0180712 -2.52494 0
M  V30 30612 C 2847.33 -2.83591 -0.999828 0
M  V30 30613 C 2848.88 -2.92941 -1.10248 0
M  V30 30614 C 2849.35 -4.36454 -1.38824 0
M  V30 30615 N 2850.84 -4.39693 -1.45687 0
M  V30 30616 C 2851.58 -5.47798 -1.69426 0
M  V30 30617 N 2851.07 -6.66019 -1.90762 0
M  V30 30618 N 2852.87 -5.35315 -1.71448 0
M  V30 30619 H 2845.02 -2.08928 0.382446 0
M  V30 30620 H 2847.28 -0.941733 0.108824 0
M  V30 30621 H 2846.99 -3.51188 -0.189662 0
M  V30 30622 H 2846.86 -3.24694 -1.91972 0
M  V30 30623 H 2849.25 -2.25524 -1.90324 0
M  V30 30624 H 2849.33 -2.55293 -0.160928 0
M  V30 30625 H 2848.97 -5.0443 -0.592653 0
M  V30 30626 H 2848.9 -4.71638 -2.34233 0
M  V30 30627 H 2851.39 -3.54474 -1.30983 0
M  V30 30628 H 2851.71 -7.4419 -2.08329 0
M  V30 30629 H 2850.05 -6.69083 -1.88025 0
M  V30 30630 H 2853.24 -4.41932 -1.54318 0
M  V30 30631 H 2853.41 -6.19639 -1.8961 0
M  V30 30632 N 2846.82 0.665425 -1.42863 0
M  V30 30633 C 2848.07 1.42262 -1.43548 0
M  V30 30634 C 2848.39 1.94919 -0.0563459 0
M  V30 30635 O 2847.66 1.73663 0.906537 0
M  V30 30636 H 2846.24 0.527944 -0.528473 0
M  V30 30637 H 2848.9 0.785633 -1.78364 0
M  V30 30638 H 2848 2.27101 -2.14083 0
M  V30 30639 N 2848.3 1.29191 0.902633 0
M  V30 30640 C 2849.23 1.1662 2.02292 0
M  V30 30641 C 2850.21 0.0611474 1.6999 0
M  V30 30642 O 2851.39 0.240106 1.9271 0
M  V30 30643 C 2848.52 0.838879 3.37016 0
M  V30 30644 C 2847.48 1.89993 3.83519 0
M  V30 30645 C 2846.8 1.42598 5.15335 0
M  V30 30646 C 2848.1 3.30832 4.04163 0
M  V30 30647 H 2849.8 2.10339 2.13067 0
M  V30 30648 H 2847.34 1.01268 1.02376 0
M  V30 30649 H 2849.3 0.737657 4.14893 0
M  V30 30650 H 2848.02 -0.134013 3.26325 0
M  V30 30651 H 2846.68 1.99048 3.07856 0
M  V30 30652 H 2846.33 0.441847 5.01056 0
M  V30 30653 H 2846.03 2.13556 5.47419 0
M  V30 30654 H 2847.55 1.3382 5.95755 0
M  V30 30655 H 2848.97 3.24634 4.72531 0
M  V30 30656 H 2847.36 3.99721 4.47597 0
M  V30 30657 H 2848.43 3.74026 3.08597 0
M  V30 30658 N 2849.78 -1.1126 1.1162 0
M  V30 30659 C 2851 -1.87379 0.889046 0
M  V30 30660 C 2851.43 -1.79699 -0.555852 0
M  V30 30661 O 2850.78 -1.16075 -1.3927 0
M  V30 30662 C 2850.83 -3.34066 1.35765 0
M  V30 30663 O 2849.94 -4.08973 0.530571 0
M  V30 30664 H 2849.28 -0.581753 0.320092 0
M  V30 30665 H 2851.81 -1.40624 1.48613 0
M  V30 30666 H 2851.82 -3.84914 1.35298 0
M  V30 30667 H 2850.49 -3.38972 2.40979 0
M  V30 30668 H 2849.07 -3.68017 0.601503 0
M  V30 30669 N 2851.25 -0.906798 -1.28899 0
M  V30 30670 C 2852.53 -0.455571 -1.90221 0
M  V30 30671 C 2852.91 1.06523 -1.82252 0
M  V30 30672 O 2852.26 1.91023 -1.25389 0
M  V30 30673 C 2852.47 -0.978119 -3.35013 0
M  V30 30674 C 2853.82 -1.02606 -4.12016 0
M  V30 30675 O 2854.84 -0.926279 -3.43946 0
M  V30 30676 O 2853.7 -1.17698 -5.33675 0
M  V30 30677 H 2850.79 -0.143229 -0.814503 0
M  V30 30678 H 2853.34 -0.997128 -1.37315 0
M  V30 30679 H 2852.11 -2.0221 -3.35003 0
M  V30 30680 H 2851.74 -0.416983 -3.95407 0
M  V30 30681 N 2852.73 1.42648 -0.670032 0
M  V30 30682 C 2854.15 1.55955 -0.339137 0
M  V30 30683 C 2854.35 1.65058 1.15577 0
M  V30 30684 O 2853.4 1.61488 1.94108 0
M  V30 30685 C 2854.72 2.81198 -1.06527 0
M  V30 30686 C 2856.27 2.94965 -1.04713 0
M  V30 30687 C 2856.74 4.23062 -1.75449 0
M  V30 30688 N 2858.23 4.29964 -1.72294 0
M  V30 30689 C 2858.97 5.27885 -2.23886 0
M  V30 30690 N 2858.46 6.31986 -2.8384 0
M  V30 30691 N 2860.26 5.19651 -2.14288 0
M  V30 30692 H 2852.41 1.34983 -1.63992 0
M  V30 30693 H 2854.67 0.649427 -0.690615 0
M  V30 30694 H 2854.38 2.80594 -2.12038 0
M  V30 30695 H 2854.25 3.71945 -0.627464 0
M  V30 30696 H 2856.64 2.951 -0.000367837 0
M  V30 30697 H 2856.72 2.05462 -1.52378 0
M  V30 30698 H 2856.36 4.23688 -2.80091 0
M  V30 30699 H 2856.29 5.11491 -1.25238 0
M  V30 30700 H 2858.78 3.5536 -1.2856 0
M  V30 30701 H 2859.1 7.03052 -3.2084 0
M  V30 30702 H 2857.44 6.32562 -2.87908 0
M  V30 30703 H 2860.63 4.37243 -1.67142 0
M  V30 30704 H 2860.8 5.95802 -2.54803 0
M  V30 30705 N 2854.21 0.413044 1.52091 0
M  V30 30706 C 2855.46 -0.161701 2.02154 0
M  V30 30707 C 2855.79 -1.44457 1.29792 0
M  V30 30708 O 2855.07 -1.90228 0.405411 0
M  V30 30709 C 2855.35 -0.4054 3.57811 0
M  V30 30710 C 2855.2 0.894412 4.40818 0
M  V30 30711 C 2856.52 -1.18584 4.23823 0
M  V30 30712 H 2853.64 -0.0572948 0.73477 0
M  V30 30713 H 2856.28 0.547279 1.81947 0
M  V30 30714 H 2854.43 -1.00934 3.75159 0
M  V30 30715 H 2856.1 1.53046 4.35172 0
M  V30 30716 H 2854.35 1.50452 4.06874 0
M  V30 30717 H 2855.02 0.678241 5.47817 0
M  V30 30718 H 2857.49 -0.674501 4.10597 0
M  V30 30719 H 2856.37 -1.3251 5.32665 0
M  V30 30720 H 2856.63 -2.20751 3.83042 0
M  V30 30721 N 2855.69 -1.56945 0.143591 0
M  V30 30722 C 2856.64 -2.17872 -0.814517 0
M  V30 30723 C 2857.63 -1.13476 -1.25776 0
M  V30 30724 O 2858.84 -1.31733 -1.22664 0
M  V30 30725 H 2855.21 -0.697583 -0.28086 0
M  V30 30726 H 2857.18 -2.97117 -0.276407 0
M  V30 30727 C 2855.93 -2.81204 -2.04498 0
M  V30 30728 H 2855.26 -3.61248 -1.71289 0
M  V30 30729 H 2856.7 -3.27342 -2.69487 0
M  V30 30730 C 2855.15 -1.79537 -2.85076 0
M  V30 30731 O 2855.68 -1.26374 -3.81304 0
M  V30 30732 N 2853.89 -1.48918 -2.49543 0
M  V30 30733 H 2853.44 -1.92341 -1.71356 0
M  V30 30734 H 2853.4 -0.811401 -3.03749 0
M  V30 30735 N 2857.17 0.130197 -1.57061 0
M  V30 30736 C 2858.1 1.19025 -1.947 0
M  V30 30737 C 2859.08 1.40694 -0.815099 0
M  V30 30738 O 2860.26 1.55032 -1.07226 0
M  V30 30739 C 2857.39 2.54617 -2.23356 0
M  V30 30740 C 2856.44 2.49442 -3.45949 0
M  V30 30741 S 2857.27 1.94497 -4.9893 0
M  V30 30742 C 2858.42 3.31783 -5.30727 0
M  V30 30743 H 2858.66 0.869222 -2.84309 0
M  V30 30744 H 2856.19 0.336504 -1.50688 0
M  V30 30745 H 2858.15 3.32638 -2.40545 0
M  V30 30746 H 2856.81 2.83902 -1.34381 0
M  V30 30747 H 2856 3.49295 -3.6333 0
M  V30 30748 H 2855.6 1.79537 -3.28089 0
M  V30 30749 H 2857.9 4.27957 -5.25223 0
M  V30 30750 H 2858.84 3.1924 -6.32053 0
M  V30 30751 H 2859.25 3.29695 -4.58216 0
M  V30 30752 N 2858.65 1.52438 0.400055 0
M  V30 30753 C 2860.06 1.41443 0.739334 0
M  V30 30754 C 2860.26 0.526087 1.94511 0
M  V30 30755 O 2859.32 -0.00468063 2.525 0
M  V30 30756 C 2860.63 2.84117 0.984774 0
M  V30 30757 C 2862.18 2.93521 1.08693 0
M  V30 30758 C 2862.65 4.37184 1.36507 0
M  V30 30759 N 2864.14 4.40459 1.43353 0
M  V30 30760 C 2864.88 5.48689 1.66518 0
M  V30 30761 N 2864.38 6.67022 1.87227 0
M  V30 30762 N 2866.17 5.36216 1.68607 0
M  V30 30763 H 2858.32 2.08723 -0.39352 0
M  V30 30764 H 2860.58 0.941143 -0.113817 0
M  V30 30765 H 2860.29 3.51284 0.171035 0
M  V30 30766 H 2860.16 3.25708 1.90248 0
M  V30 30767 H 2862.55 2.2653 1.89125 0
M  V30 30768 H 2862.63 2.55375 0.147387 0
M  V30 30769 H 2862.27 5.04738 0.565893 0
M  V30 30770 H 2862.2 4.72874 2.31728 0
M  V30 30771 H 2864.7 3.55164 1.29102 0
M  V30 30772 H 2865.01 7.45284 2.04379 0
M  V30 30773 H 2863.35 6.7007 1.84474 0
M  V30 30774 H 2866.54 4.42744 1.51972 0
M  V30 30775 H 2866.72 6.20635 1.86321 0
M  V30 30776 N 2860.12 -0.657839 1.43214 0
M  V30 30777 C 2861.35 -1.44563 1.48017 0
M  V30 30778 C 2861.77 -1.88553 0.0966283 0
M  V30 30779 O 2861.12 -1.59205 -0.892193 0
M  V30 30780 C 2861.17 -2.68365 2.42203 0
M  V30 30781 O 2860.9 -2.26217 3.75177 0
M  V30 30782 C 2862.4 -3.61768 2.56201 0
M  V30 30783 H 2859.62 -0.444257 0.502868 0
M  V30 30784 H 2862.16 -0.806884 1.87909 0
M  V30 30785 H 2860.32 -3.28391 2.0552 0
M  V30 30786 H 2860.73 -3.06285 4.25781 0
M  V30 30787 H 2862.2 -4.45314 3.2619 0
M  V30 30788 H 2862.68 -4.08807 1.60541 0
M  V30 30789 H 2863.29 -3.07627 2.93677 0
M  V30 30790 N 2861.6 -1.29668 -0.895769 0
M  V30 30791 C 2862.83 -1.20888 -1.68526 0
M  V30 30792 C 2863.25 0.226563 -1.86731 0
M  V30 30793 O 2862.61 1.16344 -1.39046 0
M  V30 30794 C 2862.66 -1.9315 -3.04509 0
M  V30 30795 O 2861.76 -1.25122 -3.92961 0
M  V30 30796 H 2861.1 -0.418684 -0.515364 0
M  V30 30797 H 2863.63 -1.71304 -1.11875 0
M  V30 30798 H 2863.64 -2.01756 -3.54625 0
M  V30 30799 H 2862.32 -2.97553 -2.90577 0
M  V30 30800 H 2860.89 -1.248 -3.51396 0
M  V30 30801 N 2863.08 1.10667 -1.12208 0
M  V30 30802 C 2864.3 1.86904 -0.898971 0
M  V30 30803 C 2864.73 1.79992 0.546314 0
M  V30 30804 O 2864.09 1.16812 1.38653 0
M  V30 30805 C 2864.14 3.33342 -1.37534 0
M  V30 30806 O 2863.24 4.08686 -0.552252 0
M  V30 30807 H 2862.58 0.580048 -0.323173 0
M  V30 30808 H 2865.11 1.39834 -1.49357 0
M  V30 30809 H 2865.12 3.84191 -1.37337 0
M  V30 30810 H 2863.8 3.37689 -2.42773 0
M  V30 30811 H 2862.37 3.67693 -0.621012 0
M  V30 30812 N 2864.56 0.913621 1.28416 0
M  V30 30813 C 2865.78 0.561934 1.99642 0
M  V30 30814 C 2866.21 -0.849578 1.67821 0
M  V30 30815 O 2865.57 -1.56777 0.910531 0
M  V30 30816 C 2865.61 0.777684 3.52114 0
M  V30 30817 O 2864.72 -0.163385 4.12076 0
M  V30 30818 H 2864.06 0.217909 0.627226 0
M  V30 30819 H 2866.59 1.22902 1.63573 0
M  V30 30820 H 2866.6 0.687737 4.02162 0
M  V30 30821 H 2865.27 1.80667 3.7461 0
M  V30 30822 H 2863.85 -0.0247172 3.72892 0
M  V30 30823 N 2866.04 -1.4229 0.677588 0
M  V30 30824 C 2867.28 -2.00724 0.198209 0
M  V30 30825 C 2867.6 -1.54214 -1.20323 0
M  V30 30826 O 2868.8 -2.05084 -1.77912 0
M  V30 30827 C 2867.26 -3.58618 0.303495 0
M  V30 30828 C 2866.87 -4.14116 1.70916 0
M  V30 30829 C 2868.61 -4.24339 -0.117029 0
M  V30 30830 C 2866.52 -5.64384 1.76706 0
M  V30 30831 H 2865.45 -0.750712 0.0703422 0
M  V30 30832 H 2868.1 -1.62981 0.843176 0
M  V30 30833 H 2866.48 -3.93878 -0.409413 0
M  V30 30834 H 2867.66 -3.9031 2.44938 0
M  V30 30835 H 2865.97 -3.60857 2.07778 0
M  V30 30836 H 2868.57 -5.34617 -0.0939531 0
M  V30 30837 H 2868.91 -4.00021 -1.15276 0
M  V30 30838 H 2869.44 -3.94049 0.544969 0
M  V30 30839 H 2866.18 -5.93503 2.78271 0
M  V30 30840 H 2865.7 -5.90171 1.07044 0
M  V30 30841 H 2867.38 -6.28849 1.52177 0
M  V30 30842 N 2867.51 -0.421104 -1.5187 0
M  V30 30843 C 2868.45 0.434025 -2.25053 0
M  V30 30844 C 2869.46 1.0001 -1.28459 0
M  V30 30845 O 2870.65 0.897005 -1.54325 0
M  V30 30846 C 2867.75 1.61738 -2.97815 0
M  V30 30847 C 2866.92 1.17307 -4.21376 0
M  V30 30848 C 2865.98 2.22469 -4.76858 0
M  V30 30849 O 2865.01 1.82568 -5.39127 0
M  V30 30850 N 2866.21 3.54774 -4.59473 0
M  V30 30851 H 2868.97 -0.193125 -2.99077 0
M  V30 30852 H 2866.53 -0.249116 -1.59972 0
M  V30 30853 H 2868.53 2.31679 -3.31824 0
M  V30 30854 H 2867.1 2.1502 -2.26903 0
M  V30 30855 H 2866.32 0.301331 -3.93047 0
M  V30 30856 H 2867.6 0.853356 -5.01593 0
M  V30 30857 H 2867 3.89934 -4.09839 0
M  V30 30858 H 2865.56 4.20656 -4.97887 0
M  V30 30859 N 2868.99 1.56866 -0.151912 0
M  V30 30860 C 2869.94 2.18301 0.802952 0
M  V30 30861 C 2870.93 1.14141 1.25172 0
M  V30 30862 O 2872.14 1.32382 1.21963 0
M  V30 30863 H 2868.52 0.699062 0.277157 0
M  V30 30864 H 2870.49 2.97259 0.260646 0
M  V30 30865 C 2869.24 2.82285 2.03004 0
M  V30 30866 H 2868.56 3.62151 1.69371 0
M  V30 30867 H 2870 3.28767 2.67747 0
M  V30 30868 C 2868.46 1.81046 2.8412 0
M  V30 30869 O 2868.99 1.28395 3.80628 0
M  V30 30870 N 2867.19 1.50239 2.4875 0
M  V30 30871 H 2866.74 1.93247 1.70333 0
M  V30 30872 H 2866.7 0.827498 3.03315 0
M  V30 30873 N 2870.47 -0.121866 1.57128 0
M  V30 30874 C 2871.38 -1.16854 2.03427 0
M  V30 30875 C 2872.4 -1.45507 0.954134 0
M  V30 30876 O 2873.57 -1.5668 1.26544 0
M  V30 30877 C 2870.64 -2.47594 2.42689 0
M  V30 30878 C 2869.7 -2.26364 3.64771 0
M  V30 30879 C 2868.93 -3.5087 4.02151 0
M  V30 30880 O 2869.15 -4.58062 3.39905 0
M  V30 30881 O 2868.09 -3.42042 4.95268 0
M  V30 30882 H 2871.91 -0.805388 2.92826 0
M  V30 30883 H 2869.5 -0.332452 1.45654 0
M  V30 30884 H 2871.38 -3.24629 2.68689 0
M  V30 30885 H 2870.06 -2.83389 1.56437 0
M  V30 30886 H 2868.96 -1.47197 3.43924 0
M  V30 30887 H 2870.3 -1.95474 4.5172 0
M  V30 30888 N 2871.95 -1.52648 -0.391965 0
M  V30 30889 C 2873.23 -1.58125 -1.15133 0
M  V30 30890 C 2873.61 -0.372633 -2.07785 0
M  V30 30891 O 2872.95 0.639265 -2.19376 0
M  V30 30892 C 2873.16 -2.91859 -1.91362 0
M  V30 30893 C 2874.51 -3.45487 -2.46827 0
M  V30 30894 O 2875.54 -2.93713 -2.01521 0
M  V30 30895 O 2874.39 -4.35936 -3.29579 0
M  V30 30896 H 2871.49 -0.637638 -0.526637 0
M  V30 30897 H 2874.03 -1.64982 -0.397357 0
M  V30 30898 H 2872.81 -3.7127 -1.2359 0
M  V30 30899 H 2872.43 -2.88374 -2.73727 0
M  V30 30900 N 2873.43 0.650235 -1.43561 0
M  V30 30901 C 2874.34 1.79204 -1.51404 0
M  V30 30902 C 2875.35 1.69318 -0.400925 0
M  V30 30903 O 2876.53 1.90434 -0.655491 0
M  V30 30904 C 2873.59 3.15498 -1.43743 0
M  V30 30905 C 2872.65 3.37159 -2.65749 0
M  V30 30906 C 2871.89 4.6695 -2.58444 0
M  V30 30907 O 2872.11 5.465 -1.63384 0
M  V30 30908 O 2871.04 4.90395 -3.48993 0
M  V30 30909 H 2874.87 1.75542 -2.47828 0
M  V30 30910 H 2872.46 0.809089 -1.25595 0
M  V30 30911 H 2874.34 3.96782 -1.41923 0
M  V30 30912 H 2873.01 3.19744 -0.504544 0
M  V30 30913 H 2871.92 2.55627 -2.7314 0
M  V30 30914 H 2873.25 3.37761 -3.5802 0
M  V30 30915 N 2874.9 1.30141 0.88888 0
M  V30 30916 C 2875.87 1.16177 1.97574 0
M  V30 30917 C 2876.87 0.0941142 1.60524 0
M  V30 30918 O 2878.06 0.341919 1.70811 0
M  V30 30919 C 2875.19 0.779041 3.31879 0
M  V30 30920 H 2876.38 2.12731 2.11389 0
M  V30 30921 H 2873.94 1.13482 1.07478 0
M  V30 30922 H 2874.67 -0.186168 3.23765 0
M  V30 30923 H 2874.46 1.55058 3.60138 0
M  V30 30924 H 2875.95 0.704704 4.11611 0
M  V30 30925 N 2876.38 -1.1007 1.12794 0
M  V30 30926 C 2877.61 -1.85885 0.908538 0
M  V30 30927 C 2878.03 -1.80842 -0.542377 0
M  V30 30928 O 2877.38 -1.19983 -1.37515 0
M  V30 30929 C 2877.43 -3.34132 1.37979 0
M  V30 30930 O 2877.15 -3.39101 2.77384 0
M  V30 30931 C 2878.66 -4.26809 1.19787 0
M  V30 30932 H 2875.88 -0.587366 0.324411 0
M  V30 30933 H 2878.42 -1.39122 1.49884 0
M  V30 30934 H 2876.57 -3.78346 0.832633 0
M  V30 30935 H 2876.99 -4.31516 2.98151 0
M  V30 30936 H 2878.46 -5.29011 1.57644 0
M  V30 30937 H 2878.94 -4.3898 0.138845 0
M  V30 30938 H 2879.55 -3.88403 1.73272 0
M  V30 30939 N 2877.86 -0.920419 -1.2793 0
M  V30 30940 C 2879.09 -0.572514 -1.99342 0
M  V30 30941 C 2879.51 0.840666 -1.68269 0
M  V30 30942 O 2878.87 1.56292 -0.918832 0
M  V30 30943 C 2878.92 -0.796346 -3.51697 0
M  V30 30944 O 2878.02 0.141529 -4.12157 0
M  V30 30945 H 2877.36 -0.221232 -0.626061 0
M  V30 30946 H 2879.89 -1.23768 -1.62919 0
M  V30 30947 H 2879.9 -0.709055 -4.01792 0
M  V30 30948 H 2878.58 -1.82651 -3.73646 0
M  V30 30949 H 2877.15 0.00494146 -3.729 0
M  V30 30950 N 2879.34 1.41929 -0.685124 0
M  V30 30951 C 2880.27 2.2817 0.0371238 0
M  V30 30952 C 2881.25 1.41648 0.798411 0
M  V30 30953 O 2882.43 1.71082 0.791398 0
M  V30 30954 C 2879.56 3.2169 1.05987 0
M  V30 30955 C 2878.61 4.24686 0.392968 0
M  V30 30956 S 2879.44 5.28598 -0.857014 0
M  V30 30957 C 2880.6 6.25684 0.164398 0
M  V30 30958 H 2880.83 2.89078 -0.694356 0
M  V30 30959 H 2878.36 1.46911 -0.475025 0
M  V30 30960 H 2880.32 3.76106 1.64483 0
M  V30 30961 H 2878.98 2.59898 1.76386 0
M  V30 30962 H 2878.17 4.9035 1.16504 0
M  V30 30963 H 2877.78 3.73812 -0.118655 0
M  V30 30964 H 2880.07 6.69763 1.02094 0
M  V30 30965 H 2881.01 7.06617 -0.458041 0
M  V30 30966 H 2881.42 5.6215 0.514497 0
M  V30 30967 N 2880.82 0.429152 1.51644 0
M  V30 30968 C 2881.73 -0.392768 2.31289 0
M  V30 30969 C 2882.74 -1.03523 1.39854 0
M  V30 30970 O 2883.92 -1.03238 1.72927 0
M  V30 30971 C 2880.98 -1.48367 3.1335 0
M  V30 30972 C 2880.04 -0.862194 4.20553 0
M  V30 30973 C 2879.28 -1.90111 4.98692 0
M  V30 30974 O 2879.5 -3.12217 4.77364 0
M  V30 30975 O 2878.43 -1.49619 5.83007 0
M  V30 30976 H 2882.26 0.257191 3.02609 0
M  V30 30977 H 2879.85 0.191877 1.48163 0
M  V30 30978 H 2881.73 -2.11653 3.64391 0
M  V30 30979 H 2880.4 -2.11786 2.44803 0
M  V30 30980 H 2879.31 -0.191502 3.7361 0
M  V30 30981 H 2880.64 -0.271618 4.9145 0
M  V30 30982 N 2882.29 -1.56783 0.160229 0
M  V30 30983 C 2883.22 -2.20431 -0.770225 0
M  V30 30984 C 2884.21 -1.15653 -1.24734 0
M  V30 30985 O 2885.39 -1.44043 -1.30251 0
M  V30 30986 C 2882.52 -2.83634 -2.00422 0
M  V30 30987 C 2881.47 -3.94355 -1.66338 0
M  V30 30988 C 2880.8 -4.44555 -2.97111 0
M  V30 30989 C 2882.1 -5.14489 -0.899882 0
M  V30 30990 H 2883.79 -2.98439 -0.239731 0
M  V30 30991 H 2881.34 -1.43549 -0.113866 0
M  V30 30992 H 2883.29 -3.26831 -2.66006 0
M  V30 30993 H 2882.02 -2.02978 -2.55866 0
M  V30 30994 H 2880.68 -3.51796 -1.03127 0
M  V30 30995 H 2880.32 -3.60704 -3.50573 0
M  V30 30996 H 2880.02 -5.19243 -2.75064 0
M  V30 30997 H 2881.55 -4.90431 -3.63744 0
M  V30 30998 H 2882.96 -5.54448 -1.45808 0
M  V30 30999 H 2881.36 -5.95024 -0.778864 0
M  V30 31000 H 2882.43 -4.84784 0.105912 0
M  V30 31001 N 2883.77 0.113531 -1.57191 0
M  V30 31002 C 2885.02 0.818952 -1.84326 0
M  V30 31003 C 2885.34 1.80786 -0.746717 0
M  V30 31004 O 2886.54 2.55985 -0.904641 0
M  V30 31005 C 2885 1.50718 -3.26821 0
M  V30 31006 C 2884.61 0.558987 -4.44499 0
M  V30 31007 C 2886.35 2.19742 -3.63199 0
M  V30 31008 C 2884.26 1.25076 -5.78023 0
M  V30 31009 H 2883.19 0.309584 -0.687513 0
M  V30 31010 H 2885.84 0.0717299 -1.8336 0
M  V30 31011 H 2884.22 2.30122 -3.22273 0
M  V30 31012 H 2885.39 -0.202227 -4.60356 0
M  V30 31013 H 2883.71 -0.0245681 -4.16393 0
M  V30 31014 H 2886.31 2.72198 -4.60231 0
M  V30 31015 H 2886.65 2.97793 -2.90904 0
M  V30 31016 H 2887.18 1.4722 -3.69555 0
M  V30 31017 H 2883.92 0.511424 -6.53502 0
M  V30 31018 H 2883.44 1.98385 -5.66042 0
M  V30 31019 H 2885.12 1.78242 -6.21964 0
M  V30 31020 N 2885.25 1.52854 0.383864 0
M  V30 31021 C 2886.21 1.77345 1.45194 0
M  V30 31022 C 2887.21 0.643548 1.4736 0
M  V30 31023 O 2888.4 0.911639 1.48441 0
M  V30 31024 C 2885.54 1.8789 2.84447 0
M  V30 31025 H 2886.73 2.72718 1.24759 0
M  V30 31026 H 2884.28 1.43653 0.615914 0
M  V30 31027 H 2885.02 0.945205 3.1022 0
M  V30 31028 H 2884.8 2.70056 2.84275 0
M  V30 31029 H 2886.29 2.08494 3.61829 0
M  V30 31030 N 2886.73 -0.642612 1.43904 0
M  V30 31031 C 2888.14 -1.22402 1.40977 0
M  V30 31032 C 2888.49 -1.95837 0.119234 0
M  V30 31033 O 2887.62 -2.01819 -0.780903 0
M  V30 31034 C 2888.21 -2.22631 2.55384 0
M  V30 31035 C 2886.77 -2.76225 2.55689 0
M  V30 31036 C 2885.92 -1.51035 2.32559 0
M  V30 31037 H 2888.87 -0.433979 1.52651 0
M  V30 31038 H 2888.89 -3.05013 2.2748 0
M  V30 31039 H 2888.4 -1.69155 3.49297 0
M  V30 31040 H 2886.5 -3.33735 1.65685 0
M  V30 31041 H 2886.62 -3.23047 3.53804 0
M  V30 31042 H 2884.98 -1.7876 1.8143 0
M  V30 31043 H 2885.76 -0.994783 3.28571 0
M  V30 31044 N 2888.21 -1.30611 -0.881966 0
M  V30 31045 C 2889.46 -1.19371 -1.6308 0
M  V30 31046 C 2889.78 0.251113 -1.93376 0
M  V30 31047 O 2889.05 1.16855 -1.57232 0
M  V30 31048 H 2887.63 -0.438802 -0.604535 0
M  V30 31049 H 2890.29 -1.63778 -1.05655 0
M  V30 31050 H 2889.38 -1.75675 -2.57963 0
M  V30 31051 N 2889.69 1.0947 -1.13376 0
M  V30 31052 C 2891.1 1.6313 -0.908039 0
M  V30 31053 C 2891.45 1.88171 0.555543 0
M  V30 31054 O 2890.57 1.63107 1.42215 0
M  V30 31055 C 2891.17 2.96358 -1.64187 0
M  V30 31056 C 2889.73 3.46845 -1.46203 0
M  V30 31057 C 2888.87 2.2127 -1.67138 0
M  V30 31058 H 2891.82 0.928388 -1.28711 0
M  V30 31059 H 2891.85 3.64292 -1.0987 0
M  V30 31060 H 2891.36 2.78101 -2.70705 0
M  V30 31061 H 2889.46 3.70227 -0.419853 0
M  V30 31062 H 2889.57 4.24311 -2.22479 0
M  V30 31063 H 2887.94 2.29904 -1.0962 0
M  V30 31064 H 2888.72 2.05533 -2.74975 0
M  V30 31065 O 2891.2 1.05848 1.21977 0
M  V30 31066 H 2891.89 0.737711 1.79102 0
M  V30 END ATOM
M  V30 BEGIN BOND
M  V30 END BOND
M  V30 END CTAB
M  END
$$$$
