drugbank_target|Q86VU5 Catechol O-methyltransferase domain-containing protein 1 (DB01752; DB03179; DB03923)
 OpenBabel12092120553D

  0  0  0     0  0            999 V3000
M  V30 BEGIN CTAB
M  V30 COUNTS 4120 4157 0 0 0
M  V30 BEGIN ATOM
M  V30 1 H -0.908 1.98254 -0.117106 0
M  V30 2 N 0 1.576 0 0
M  V30 3 C 0.933 2.03868 1.02534 0
M  V30 4 C 1.911 0.928543 1.3348 0
M  V30 5 O 3.095 1.19667 1.45644 0
M  V30 6 C 0.222 2.43627 2.35294 0
M  V30 7 C -0.732 3.65373 2.2001 0
M  V30 8 S 0.101 5.13292 1.52614 0
M  V30 9 C 1.257 5.56322 2.86805 0
M  V30 10 H 1.49 2.90518 0.631377 0
M  V30 11 H -0.977 1.52953 0.210867 0
M  V30 12 H 0.981 2.67203 3.11629 0
M  V30 13 H -0.358 1.57376 2.7183 0
M  V30 14 H -1.165 3.90944 3.18086 0
M  V30 15 H -1.563 3.418 1.51819 0
M  V30 16 H 0.729 5.58782 3.83104 0
M  V30 17 H 1.672 6.56266 2.65933 0
M  V30 18 H 2.08 4.83886 2.90714 0
M  V30 19 N 1.4781 -0.272755 1.55222 0
M  V30 20 C 2.7061 -1.02255 1.79865 0
M  V30 21 C 3.1211 -1.79924 0.572088 0
M  V30 22 O 2.4781 -1.76638 -0.458842 0
M  V30 23 C 2.5291 -1.98094 3.02392 0
M  V30 24 O 2.2501 -1.23572 4.20311 0
M  V30 25 C 3.7511 -2.84884 3.39641 0
M  V30 26 H 0.9711 -0.302057 0.599168 0
M  V30 27 H 3.5151 -0.303465 2.02236 0
M  V30 28 H 1.6701 -2.65465 2.82147 0
M  V30 29 H 2.0841 -1.88172 4.89583 0
M  V30 30 H 3.5581 -3.47927 4.28545 0
M  V30 31 H 4.0351 -3.54665 2.59055 0
M  V30 32 H 4.6411 -2.23003 3.62146 0
M  V30 33 N 2.9562 -1.48159 -0.537278 0
M  V30 34 C 3.8882 -1.58218 -1.65831 0
M  V30 35 C 4.9012 -0.466948 -1.5596 0
M  V30 36 O 6.0902 -0.73747 -1.62553 0
M  V30 37 C 3.1902 -1.48906 -3.04434 0
M  V30 38 C 2.3632 -2.75343 -3.3986 0
M  V30 39 C 1.4222 -2.59588 -4.57712 0
M  V30 40 O 0.4482 -3.33457 -4.61297 0
M  V30 41 N 1.6502 -1.68724 -5.55439 0
M  V30 42 H 4.4152 -2.54891 -1.57641 0
M  V30 43 H 1.9762 -1.4479 -0.724386 0
M  V30 44 H 3.9682 -1.36072 -3.81139 0
M  V30 45 H 2.5382 -0.602368 -3.06741 0
M  V30 46 H 1.7582 -3.02795 -2.52406 0
M  V30 47 H 3.0462 -3.5924 -3.60311 0
M  V30 48 H 2.4442 -1.07898 -5.55315 0
M  V30 49 H 1.0012 -1.61832 -6.3139 0
M  V30 50 N 4.4343 0.785586 -1.36625 0
M  V30 51 C 5.8453 1.36101 -1.27803 0
M  V30 52 C 6.1963 1.96035 0.0804875 0
M  V30 53 O 5.3213 1.92834 0.982042 0
M  V30 54 C 5.9163 2.47442 -2.31426 0
M  V30 55 C 4.4753 3.00789 -2.26281 0
M  V30 56 C 3.6223 1.73896 -2.15999 0
M  V30 57 H 6.5733 0.586928 -1.47448 0
M  V30 58 H 6.5943 3.2656 -1.95291 0
M  V30 59 H 6.1063 2.03791 -3.30289 0
M  V30 60 H 4.2073 3.48851 -1.30896 0
M  V30 61 H 4.3203 3.57343 -3.19128 0
M  V30 62 H 2.6843 1.9628 -1.62316 0
M  V30 63 H 3.4673 1.32368 -3.16755 0
M  V30 64 N 5.9124 1.20967 1.01018 0
M  V30 65 C 7.1584 1.02526 1.74975 0
M  V30 66 C 7.4914 -0.4408 1.89131 0
M  V30 67 O 6.7664 -1.32718 1.42184 0
M  V30 68 C 7.0494 1.71699 3.1653 0
M  V30 69 C 6.9024 3.25791 3.10129 0
M  V30 70 C 8.2214 1.45531 4.15342 0
M  V30 71 H 5.3404 0.373863 0.635134 0
M  V30 72 H 7.9824 1.49071 1.17805 0
M  V30 73 H 6.1324 1.32128 3.65341 0
M  V30 74 H 7.8044 3.74697 2.69072 0
M  V30 75 H 6.0474 3.56363 2.47362 0
M  V30 76 H 6.7184 3.69353 4.10222 0
M  V30 77 H 9.1944 1.79872 3.75213 0
M  V30 78 H 8.0704 1.96453 5.1254 0
M  V30 79 H 8.3314 0.384237 4.40427 0
M  V30 80 N 7.3905 -1.2043 1.01659 0
M  V30 81 C 8.8015 -1.71517 0.737482 0
M  V30 82 C 9.1525 -1.81547 -0.743973 0
M  V30 83 O 8.2775 -1.47803 -1.58061 0
M  V30 84 C 8.8725 -3.11515 1.33206 0
M  V30 85 C 7.4315 -3.59912 1.10183 0
M  V30 86 C 6.5785 -2.37116 1.43776 0
M  V30 87 H 9.5295 -1.05444 1.18606 0
M  V30 88 H 9.5505 -3.73575 0.722636 0
M  V30 89 H 9.0625 -3.04182 2.41028 0
M  V30 90 H 7.1635 -3.72577 0.0412756 0
M  V30 91 H 7.2765 -4.44731 1.78188 0
M  V30 92 H 5.6405 -2.39857 0.856778 0
M  V30 93 H 6.4235 -2.32424 2.52654 0
M  V30 94 N 8.8686 -0.792821 -1.36206 0
M  V30 95 C 10.2846 -0.474903 -1.52371 0
M  V30 96 C 10.4846 1.00622 -1.74578 0
M  V30 97 O 9.5406 1.79162 -1.77924 0
M  V30 98 C 10.8536 -1.3083 -2.70747 0
M  V30 99 C 12.4016 -1.30234 -2.84619 0
M  V30 100 C 12.8766 -2.11956 -4.06004 0
M  V30 101 N 14.3676 -2.09419 -4.13156 0
M  V30 102 C 15.1026 -2.69419 -5.06163 0
M  V30 103 N 14.5986 -3.3829 -6.04592 0
M  V30 104 N 16.3916 -2.59134 -4.98804 0
M  V30 105 H 8.5426 -1.75222 -1.20046 0
M  V30 106 H 10.8056 -0.745024 -0.586211 0
M  V30 107 H 10.5116 -2.35881 -2.6087 0
M  V30 108 H 10.3856 -0.95196 -3.6499 0
M  V30 109 H 12.7726 -0.259748 -2.93955 0
M  V30 110 H 12.8536 -1.69847 -1.91274 0
M  V30 111 H 12.4976 -3.16248 -3.97429 0
M  V30 112 H 12.4276 -1.69711 -4.98503 0
M  V30 113 H 14.9186 -1.59297 -3.42685 0
M  V30 114 H 15.2316 -3.81394 -6.7213 0
M  V30 115 H 13.5766 -3.42393 -6.04807 0
M  V30 116 H 16.7676 -2.04927 -4.20859 0
M  V30 117 H 16.9406 -3.06185 -5.711 0
M  V30 118 N 10.3467 1.47872 -0.545128 0
M  V30 119 C 11.2767 2.32661 0.197793 0
M  V30 120 C 12.2577 1.43041 0.920504 0
M  V30 121 O 13.4427 1.71912 0.90333 0
M  V30 122 C 10.5727 3.24569 1.23582 0
M  V30 123 C 9.5267 4.23333 0.630323 0
M  V30 124 C 8.8527 5.0448 1.77211 0
M  V30 125 C 10.1527 5.20704 -0.407974 0
M  V30 126 H 11.8467 2.95024 -0.510045 0
M  V30 127 H 9.3927 1.4187 -0.246731 0
M  V30 128 H 11.3457 3.8272 1.76362 0
M  V30 129 H 10.0697 2.60236 1.97344 0
M  V30 130 H 8.7287 3.6639 0.123922 0
M  V30 131 H 8.3767 4.36561 2.49847 0
M  V30 132 H 8.0767 5.71339 1.37281 0
M  V30 133 H 9.6007 5.65487 2.3034 0
M  V30 134 H 11.0147 5.7329 0.033305 0
M  V30 135 H 9.4117 5.95699 -0.725486 0
M  V30 136 H 10.4817 4.66917 -1.30828 0
M  V30 137 N 11.8248 0.280983 1.55075 0
M  V30 138 C 13.0498 -0.340154 2.04592 0
M  V30 139 C 13.4748 -1.48246 1.15779 0
M  V30 140 O 12.8328 -1.80614 0.15761 0
M  V30 141 C 12.8808 -0.793104 3.5177 0
M  V30 142 O 11.9848 -1.89981 3.66034 0
M  V30 143 H 11.3258 -0.0694289 0.66036 0
M  V30 144 H 13.8558 0.416993 2.00306 0
M  V30 145 H 13.8658 -1.08729 3.93245 0
M  V30 146 H 12.5408 0.0426163 4.15878 0
M  V30 147 H 11.1178 -1.60771 3.36463 0
M  V30 148 N 13.3029 -1.57598 0.00835791 0
M  V30 149 C 14.5489 -1.91211 -0.675732 0
M  V30 150 C 14.8819 -0.883139 -1.72958 0
M  V30 151 O 14.1569 0.097016 -1.94258 0
M  V30 152 C 14.4399 -3.35379 -1.31123 0
M  V30 153 C 14.2929 -4.48999 -0.268356 0
M  V30 154 C 15.6119 -3.7912 -2.23508 0
M  V30 155 H 12.7309 -0.695374 -0.244179 0
M  V30 156 H 15.3729 -1.89901 0.0613655 0
M  V30 157 H 13.5229 -3.36626 -1.93946 0
M  V30 158 H 15.1949 -4.59887 0.360844 0
M  V30 159 H 13.4379 -4.31873 0.408482 0
M  V30 160 H 14.1089 -5.46851 -0.752218 0
M  V30 161 H 16.5849 -3.79477 -1.70693 0
M  V30 162 H 15.4609 -4.80729 -2.64936 0
M  V30 163 H 15.7219 -3.13455 -3.11766 0
M  V30 164 N 14.781 0.264519 -1.55364 0
M  V30 165 C 16.192 0.834936 -1.6699 0
M  V30 166 C 16.543 1.86718 -0.602552 0
M  V30 167 O 15.668 2.14899 0.254425 0
M  V30 168 C 16.263 1.5212 -3.02729 0
M  V30 169 C 14.822 2.03954 -3.16354 0
M  V30 170 C 13.969 0.884498 -2.62815 0
M  V30 171 H 16.92 0.0406869 -1.58648 0
M  V30 172 H 16.941 2.38853 -2.96191 0
M  V30 173 H 16.453 0.769668 -3.80392 0
M  V30 174 H 14.554 2.82041 -2.43482 0
M  V30 175 H 14.667 2.24902 -4.23032 0
M  V30 176 H 13.031 1.2802 -2.20188 0
M  V30 177 H 13.814 0.14634 -3.42988 0
M  V30 178 N 16.2591 1.48442 0.529413 0
M  V30 179 C 17.2221 1.62524 1.61612 0
M  V30 180 C 18.2221 0.498509 1.52877 0
M  V30 181 O 19.4121 0.76431 1.56537 0
M  V30 182 C 16.5441 1.59597 3.01233 0
M  V30 183 H 17.7371 2.59423 1.50465 0
M  V30 184 H 15.2901 1.37047 0.751514 0
M  V30 185 H 16.0251 0.641781 3.17886 0
M  V30 186 H 15.8101 2.41397 3.08982 0
M  V30 187 H 17.3001 1.72646 3.80241 0
M  V30 188 N 17.7372 -0.778329 1.37039 0
M  V30 189 C 18.7002 -1.87301 1.32102 0
M  V30 190 C 19.7002 -1.59198 0.226405 0
M  V30 191 O 20.8902 -1.67403 0.481861 0
M  V30 192 C 18.0222 -3.24309 1.05055 0
M  V30 193 H 19.2152 -1.93093 2.29467 0
M  V30 194 H 16.7682 -0.977358 1.21973 0
M  V30 195 H 17.5032 -3.24196 0.0819373 0
M  V30 196 H 17.2882 -3.46098 1.84279 0
M  V30 197 H 18.7782 -4.04382 1.04234 0
M  V30 198 N 19.2153 -1.21501 -1.00376 0
M  V30 199 C 20.1453 -0.999478 -2.11028 0
M  V30 200 C 21.1263 0.0759671 -1.6993 0
M  V30 201 O 22.3113 -0.0841106 -1.94018 0
M  V30 202 C 19.4413 -0.564709 -3.42678 0
M  V30 203 C 18.3953 -1.58486 -3.97576 0
M  V30 204 C 17.7213 -1.00628 -5.25146 0
M  V30 205 C 19.0213 -2.97204 -4.29496 0
M  V30 206 H 20.7153 -1.92495 -2.29317 0
M  V30 207 H 18.2613 -0.92693 -1.102 0
M  V30 208 H 20.2143 -0.401091 -4.19487 0
M  V30 209 H 18.9383 0.396411 -3.24185 0
M  V30 210 H 17.5973 -1.73606 -3.22888 0
M  V30 211 H 17.2453 -0.0368439 -5.02987 0
M  V30 212 H 16.9453 -1.68771 -5.62841 0
M  V30 213 H 18.4693 -0.854015 -6.04598 0
M  V30 214 H 19.8833 -2.8552 -4.97143 0
M  V30 215 H 18.2803 -3.62372 -4.78338 0
M  V30 216 H 19.3503 -3.47956 -3.3772 0
M  V30 217 N 20.6934 1.19889 -1.02296 0
M  V30 218 C 21.6564 2.21116 -0.603351 0
M  V30 219 C 22.6564 1.5738 0.329884 0
M  V30 220 O 23.8464 1.73802 0.117702 0
M  V30 221 C 20.9784 3.40696 0.117992 0
M  V30 222 H 22.1714 2.59754 -1.49893 0
M  V30 223 H 19.7244 1.33463 -0.813468 0
M  V30 224 H 20.4594 3.07569 1.0282 0
M  V30 225 H 20.2444 3.88188 -0.552511 0
M  V30 226 H 21.7344 4.15692 0.398696 0
M  V30 227 N 22.1715 0.800033 1.35784 0
M  V30 228 C 23.1015 0.220184 2.3246 0
M  V30 229 C 24.0825 -0.65073 1.57161 0
M  V30 230 O 25.2675 -0.582359 1.85263 0
M  V30 231 C 22.3975 -0.637353 3.41402 0
M  V30 232 C 21.3515 0.134531 4.27789 0
M  V30 233 C 20.6775 -0.844285 5.27992 0
M  V30 234 C 21.9775 1.32979 5.05088 0
M  V30 235 H 23.6715 1.02787 2.81203 0
M  V30 236 H 21.2175 0.495717 1.35199 0
M  V30 237 H 23.1705 -1.05302 4.08031 0
M  V30 238 H 21.8945 -1.47785 2.91251 0
M  V30 239 H 20.5535 0.531296 3.6273 0
M  V30 240 H 20.2015 -1.68011 4.74111 0
M  V30 241 H 19.9015 -0.332184 5.8666 0
M  V30 242 H 21.4255 -1.2583 5.97494 0
M  V30 243 H 22.8395 0.98934 5.64699 0
M  V30 244 H 21.2365 1.77593 5.7322 0
M  V30 245 H 22.3065 2.11978 4.36111 0
M  V30 246 N 23.6496 -1.47581 0.552962 0
M  V30 247 C 24.8976 -2.02082 0.0272703 0
M  V30 248 C 25.2186 -1.4301 -1.32563 0
M  V30 249 O 24.4886 -0.603745 -1.86365 0
M  V30 250 H 23.0686 -0.746966 0.00709182 0
M  V30 251 H 25.7306 -1.81033 0.722008 0
M  V30 252 H 24.8266 -3.12034 -0.0639951 0
M  V30 253 N 25.1277 -0.289203 -1.54924 0
M  V30 254 C 26.3527 0.329299 -2.04769 0
M  V30 255 C 26.7777 1.4763 -1.16564 0
M  V30 256 O 26.1357 1.80527 -0.167186 0
M  V30 257 C 26.1837 0.774438 -3.52186 0
M  V30 258 O 25.2877 1.88038 -3.67036 0
M  V30 259 H 24.6287 0.0659259 -0.660719 0
M  V30 260 H 27.1587 -0.42761 -2.00082 0
M  V30 261 H 27.1687 1.06642 -3.93816 0
M  V30 262 H 25.8437 -0.0646707 -4.1585 0
M  V30 263 H 24.4207 1.58985 -3.3731 0
M  V30 264 N 26.6058 1.57591 -0.0167156 0
M  V30 265 C 27.5688 2.08393 0.954204 0
M  V30 266 C 28.5688 0.996531 1.26198 0
M  V30 267 O 29.7588 1.25858 1.20438 0
M  V30 268 C 26.8908 2.5394 2.27436 0
M  V30 269 H 28.0838 2.95455 0.514451 0
M  V30 270 H 25.6368 1.54582 0.231089 0
M  V30 271 H 26.3718 1.70171 2.76066 0
M  V30 272 H 26.1568 3.33371 2.06412 0
M  V30 273 H 27.6468 2.93512 2.97053 0
M  V30 274 N 28.0839 -0.256276 1.55502 0
M  V30 275 C 29.0469 -1.30047 1.88734 0
M  V30 276 C 30.0469 -1.4154 0.763086 0
M  V30 277 O 31.2369 -1.40403 1.03115 0
M  V30 278 C 28.3689 -2.67953 2.10747 0
M  V30 279 H 29.5619 -1.01802 2.82093 0
M  V30 280 H 27.1149 -0.495134 1.4825 0
M  V30 281 H 27.8499 -3.01351 1.19825 0
M  V30 282 H 27.6349 -2.60993 2.92617 0
M  V30 283 H 29.1249 -3.43368 2.37673 0
M  V30 284 N 29.562 -1.4872 -0.521534 0
M  V30 285 C 30.492 -1.66771 -1.63431 0
M  V30 286 C 31.473 -0.516499 -1.62069 0
M  V30 287 O 32.658 -0.750013 -1.79132 0
M  V30 288 C 29.788 -1.71515 -3.01993 0
M  V30 289 C 28.742 -2.86222 -3.18216 0
M  V30 290 C 28.068 -2.76061 -4.57924 0
M  V30 291 C 29.368 -4.27419 -3.00184 0
M  V30 292 H 31.062 -2.59932 -1.48579 0
M  V30 293 H 28.608 -1.25089 -0.713358 0
M  V30 294 H 30.561 -1.82731 -3.7972 0
M  V30 295 H 29.285 -0.749393 -3.17886 0
M  V30 296 H 27.944 -2.74575 -2.42908 0
M  V30 297 H 27.592 -1.77437 -4.70665 0
M  V30 298 H 27.292 -3.53037 -4.69722 0
M  V30 299 H 28.816 -2.89256 -5.37739 0
M  V30 300 H 30.23 -4.39855 -3.67697 0
M  V30 301 H 28.627 -5.05458 -3.2347 0
M  V30 302 H 29.697 -4.43293 -1.96518 0
M  V30 303 N 31.0401 0.771051 -1.3745 0
M  V30 304 C 32.2881 1.52661 -1.32435 0
M  V30 305 C 32.6091 1.9479 0.0905024 0
M  V30 306 O 31.8791 1.66348 1.03466 0
M  V30 307 H 30.4591 0.566218 -0.487244 0
M  V30 308 H 33.1211 0.917636 -1.71946 0
M  V30 309 H 32.2171 2.42568 -1.96385 0
M  V30 310 N 32.5182 1.22032 0.997298 0
M  V30 311 C 33.4812 0.987909 2.06816 0
M  V30 312 C 34.4812 -0.0440084 1.6074 0
M  V30 313 O 35.6712 0.194053 1.73116 0
M  V30 314 C 32.8032 0.49132 3.37341 0
M  V30 315 H 33.9962 1.93803 2.28868 0
M  V30 316 H 31.5492 1.03838 1.16822 0
M  V30 317 H 32.2842 -0.463364 3.20973 0
M  V30 318 H 32.0692 1.23575 3.72118 0
M  V30 319 H 33.5592 0.348824 4.16141 0
M  V30 320 N 33.9963 -1.19345 1.0293 0
M  V30 321 C 34.9593 -2.20793 0.615069 0
M  V30 322 C 35.9593 -1.57553 -0.321533 0
M  V30 323 O 37.1493 -1.73862 -0.108483 0
M  V30 324 C 34.2813 -3.40754 -0.0999222 0
M  V30 325 H 35.4743 -2.58955 1.51269 0
M  V30 326 H 33.0273 -1.3303 0.820534 0
M  V30 327 H 33.7623 -3.0811 -1.01187 0
M  V30 328 H 33.5473 -3.87889 0.57309 0
M  V30 329 H 35.0373 -4.15898 -0.376645 0
M  V30 330 N 35.4744 -0.807222 -1.35358 0
M  V30 331 C 36.7214 -0.387888 -1.9875 0
M  V30 332 C 37.0494 1.04509 -1.64037 0
M  V30 333 O 36.3044 1.73986 -0.895946 0
M  V30 334 C 36.6034 -0.519036 -3.53611 0
M  V30 335 C 36.2694 -1.91542 -4.08194 0
M  V30 336 C 34.9314 -2.29745 -4.22813 0
M  V30 337 C 37.2834 -2.82896 -4.37744 0
M  V30 338 C 34.6114 -3.58668 -4.643 0
M  V30 339 C 36.9634 -4.11265 -4.8067 0
M  V30 340 C 35.6274 -4.49466 -4.93494 0
M  V30 341 H 34.8974 -0.141938 -0.727279 0
M  V30 342 H 37.5444 -1.02814 -1.6156 0
M  V30 343 H 35.8494 0.204658 -3.91265 0
M  V30 344 H 37.5464 -0.175345 -4.00616 0
M  V30 345 H 34.1364 -1.60862 -3.97268 0
M  V30 346 H 38.3204 -2.54629 -4.26002 0
M  V30 347 H 33.5764 -3.88113 -4.72418 0
M  V30 348 H 37.7504 -4.82153 -5.02496 0
M  V30 349 H 35.3774 -5.49418 -5.25399 0
M  V30 350 N 36.9525 1.47285 -0.560781 0
M  V30 351 C 37.9155 2.28535 0.174488 0
M  V30 352 C 38.9155 1.37153 0.839388 0
M  V30 353 O 40.1055 1.59748 0.694702 0
M  V30 354 C 37.2375 3.16934 1.25561 0
M  V30 355 H 38.4305 2.95012 -0.539262 0
M  V30 356 H 35.9835 1.53034 -0.317865 0
M  V30 357 H 36.7185 2.55157 2.00164 0
M  V30 358 H 36.5035 3.8419 0.783604 0
M  V30 359 H 37.9935 3.78143 1.77193 0
M  V30 360 N 38.4306 0.297415 1.54768 0
M  V30 361 C 39.6586 -0.315623 2.04478 0
M  V30 362 C 40.0736 -1.47792 1.17486 0
M  V30 363 O 39.4306 -1.81404 0.19971 0
M  V30 364 C 39.4816 -0.7753 3.53088 0
M  V30 365 O 39.2026 0.340732 4.36773 0
M  V30 366 C 40.7036 -1.45386 4.18781 0
M  V30 367 H 37.9236 -0.0690887 0.667434 0
M  V30 368 H 40.4676 0.436003 1.99798 0
M  V30 369 H 38.6226 -1.47696 3.58141 0
M  V30 370 H 39.0366 -0.0165035 5.24497 0
M  V30 371 H 40.5106 -1.72669 5.24299 0
M  V30 372 H 40.9876 -2.39275 3.68299 0
M  V30 373 H 41.5936 -0.795475 4.17795 0
M  V30 374 N 39.9087 -1.5758 0.0250728 0
M  V30 375 C 41.1567 -1.91255 -0.653151 0
M  V30 376 C 41.4777 -0.901691 -1.729 0
M  V30 377 O 40.7477 0.0573785 -1.95816 0
M  V30 378 H 39.3277 -0.705942 -0.244243 0
M  V30 379 H 41.9897 -1.94767 0.0719209 0
M  V30 380 H 41.0857 -2.91752 -1.10847 0
M  V30 381 N 41.3868 0.248026 -1.55636 0
M  V30 382 C 42.3168 1.31079 -1.93237 0
M  V30 383 C 43.2978 1.50264 -0.797174 0
M  V30 384 O 44.4828 1.62891 -1.05737 0
M  V30 385 C 41.6128 2.66575 -2.22609 0
M  V30 386 C 40.5668 2.62087 -3.3837 0
M  V30 387 C 39.8928 4.01369 -3.53281 0
M  V30 388 C 41.1928 2.19171 -4.7409 0
M  V30 389 H 42.8868 0.998556 -2.82257 0
M  V30 390 H 40.4328 0.47891 -1.35803 0
M  V30 391 H 42.3858 3.41057 -2.47503 0
M  V30 392 H 41.1098 2.99432 -1.30414 0
M  V30 393 H 39.7688 1.90063 -3.13483 0
M  V30 394 H 39.4168 4.31489 -2.58508 0
M  V30 395 H 39.1168 3.99254 -4.31127 0
M  V30 396 H 40.6408 4.77552 -3.80495 0
M  V30 397 H 42.0548 2.83384 -4.98363 0
M  V30 398 H 40.4518 2.2817 -5.5503 0
M  V30 399 H 41.5218 1.14336 -4.71227 0
M  V30 400 N 42.8649 1.48995 0.513639 0
M  V30 401 C 44.1119 1.57843 1.26854 0
M  V30 402 C 44.4399 0.259501 1.92761 0
M  V30 403 O 43.6949 -0.75159 1.80692 0
M  V30 404 C 43.9939 2.67756 2.36731 0
M  V30 405 C 43.6599 4.09669 1.88368 0
M  V30 406 C 42.3219 4.48291 1.74896 0
M  V30 407 C 44.6739 4.98537 1.52021 0
M  V30 408 C 42.0019 5.73568 1.23438 0
M  V30 409 C 44.3539 6.24319 1.0202 0
M  V30 410 C 43.0179 6.61783 0.871778 0
M  V30 411 H 42.2879 0.577587 0.464192 0
M  V30 412 H 44.9349 1.82778 0.571366 0
M  V30 413 H 43.2399 2.36743 3.12185 0
M  V30 414 H 44.9369 2.71813 2.9482 0
M  V30 415 H 41.5269 3.79176 1.99808 0
M  V30 416 H 45.7109 4.69363 1.61281 0
M  V30 417 H 40.9669 6.01304 1.10648 0
M  V30 418 H 45.1409 6.92566 0.729722 0
M  V30 419 H 42.7679 7.5874 0.470852 0
M  V30 420 N 44.343 -0.763751 1.37857 0
M  V30 421 C 45.273 -1.89103 1.36975 0
M  V30 422 C 46.254 -1.68439 0.237152 0
M  V30 423 O 47.439 -1.8918 0.438713 0
M  V30 424 C 44.569 -3.26496 1.18395 0
M  V30 425 C 43.523 -3.61741 2.28751 0
M  V30 426 C 42.849 -4.97762 1.95286 0
M  V30 427 C 44.149 -3.67665 3.70972 0
M  V30 428 H 45.843 -1.90099 2.31307 0
M  V30 429 H 43.389 -0.91319 1.11341 0
M  V30 430 H 45.342 -4.05003 1.16406 0
M  V30 431 H 44.066 -3.25955 0.205215 0
M  V30 432 H 42.725 -2.85547 2.29909 0
M  V30 433 H 42.373 -4.93769 0.959221 0
M  V30 434 H 42.073 -5.22313 2.69189 0
M  V30 435 H 43.597 -5.7866 1.94898 0
M  V30 436 H 45.011 -4.36307 3.719 0
M  V30 437 H 43.408 -4.03718 4.43995 0
M  V30 438 H 44.478 -2.68134 4.0402 0
M  V30 439 N 45.8211 -1.22559 -0.990812 0
M  V30 440 C 47.0691 -1.04933 -1.72724 0
M  V30 441 C 47.3901 0.416158 -1.90508 0
M  V30 442 O 46.6601 1.29918 -1.46622 0
M  V30 443 H 45.2401 -0.385296 -0.639965 0
M  V30 444 H 47.9021 -1.54105 -1.19322 0
M  V30 445 H 46.9981 -1.52886 -2.72089 0
M  V30 446 N 47.2992 1.18797 -1.03562 0
M  V30 447 C 48.7152 1.40671 -0.753917 0
M  V30 448 C 48.9152 1.9043 0.658686 0
M  V30 449 O 47.9712 2.08538 1.42366 0
M  V30 450 C 49.2842 2.41192 -1.79574 0
M  V30 451 C 50.8322 2.54928 -1.81606 0
M  V30 452 C 51.3072 3.58709 -2.84766 0
M  V30 453 N 52.7982 3.66212 -2.83625 0
M  V30 454 C 53.5332 4.46225 -3.60098 0
M  V30 455 N 53.0292 5.29888 -4.46308 0
M  V30 456 N 54.8222 4.40939 -3.4861 0
M  V30 457 H 46.9732 0.848221 -1.94728 0
M  V30 458 H 49.2362 0.435081 -0.842264 0
M  V30 459 H 48.9422 2.11669 -2.80872 0
M  V30 460 H 48.8162 3.40467 -1.62365 0
M  V30 461 H 51.2032 2.83771 -0.809817 0
M  V30 462 H 51.2842 1.55784 -2.02891 0
M  V30 463 H 50.9282 3.30607 -3.85566 0
M  V30 464 H 50.8582 4.57519 -2.60737 0
M  V30 465 H 53.3492 3.06466 -2.21105 0
M  V30 466 H 53.6622 5.88078 -5.01382 0
M  V30 467 H 52.0072 5.29326 -4.50377 0
M  V30 468 H 55.1982 3.74624 -2.80668 0
M  V30 469 H 55.3712 5.03056 -4.08459 0
M  V30 470 N 48.7773 0.814389 1.34928 0
M  V30 471 C 50.1933 0.499084 1.51596 0
M  V30 472 C 50.3933 -0.978319 1.76157 0
M  V30 473 O 49.4493 -1.76309 1.80752 0
M  V30 474 C 50.7623 1.35121 2.68631 0
M  V30 475 C 52.3103 1.34746 2.82511 0
M  V30 476 C 52.7853 2.18388 4.0258 0
M  V30 477 N 54.2763 2.15966 4.09772 0
M  V30 478 C 55.0113 2.77437 5.01813 0
M  V30 479 N 54.5073 3.47866 5.99134 0
M  V30 480 N 56.3003 2.67037 4.94619 0
M  V30 481 H 48.4513 1.7711 1.17243 0
M  V30 482 H 50.7143 0.754256 0.574284 0
M  V30 483 H 50.4203 2.40001 2.57085 0
M  V30 484 H 50.2943 1.00991 3.63429 0
M  V30 485 H 52.6813 0.30648 2.93504 0
M  V30 486 H 52.7623 1.72869 1.88547 0
M  V30 487 H 52.4063 3.2253 3.92347 0
M  V30 488 H 52.3363 1.77621 4.9574 0
M  V30 489 H 54.8273 1.64729 3.40107 0
M  V30 490 H 55.1403 3.92038 6.65977 0
M  V30 491 H 53.4853 3.51972 5.99284 0
M  V30 492 H 56.6763 2.11597 4.17546 0
M  V30 493 H 56.8493 3.15232 5.66156 0
M  V30 494 N 50.2554 -1.46986 0.568584 0
M  V30 495 C 51.4954 -2.04336 0.0512999 0
M  V30 496 C 51.8594 -1.43214 -1.27881 0
M  V30 497 O 53.0604 -1.91679 -1.88448 0
M  V30 498 C 51.3314 -3.57389 -0.0282328 0
M  V30 499 S 52.8904 -4.36056 -0.489991 0
M  V30 500 H 49.7084 -0.71034 0.0306349 0
M  V30 501 H 52.3104 -1.80212 0.757891 0
M  V30 502 H 51.0144 -3.99395 0.944011 0
M  V30 503 H 50.5454 -3.86028 -0.75803 0
M  V30 504 H 52.5604 -4.6441 -1.74752 0
M  V30 505 N 51.7335 -0.305618 -1.54608 0
M  V30 506 C 53.1445 0.186098 -1.8577 0
M  V30 507 C 53.4955 1.53058 -1.22751 0
M  V30 508 O 52.6205 2.09888 -0.526893 0
M  V30 509 C 53.2155 0.344449 -3.37044 0
M  V30 510 C 51.7745 0.780384 -3.68221 0
M  V30 511 C 50.9215 -0.108554 -2.77087 0
M  V30 512 H 53.8725 -0.526485 -1.49712 0
M  V30 513 H 53.8935 1.17828 -3.61796 0
M  V30 514 H 53.4055 -0.634235 -3.82883 0
M  V30 515 H 51.5065 1.76945 -3.27904 0
M  V30 516 H 51.6195 0.596572 -4.75371 0
M  V30 517 H 49.9835 0.412931 -2.5133 0
M  V30 518 H 50.7665 -1.08368 -3.25747 0
M  V30 519 N 53.2116 1.57565 -0.0334293 0
M  V30 520 C 54.6226 1.79746 0.504798 0
M  V30 521 C 54.9736 0.944091 1.71992 0
M  V30 522 O 54.0986 0.155694 2.15839 0
M  V30 523 C 54.6936 3.25997 0.922567 0
M  V30 524 C 53.2526 3.49159 1.40588 0
M  V30 525 C 52.3996 2.74785 0.372633 0
M  V30 526 H 55.3506 1.56565 -0.259436 0
M  V30 527 H 55.3716 3.35945 1.78666 0
M  V30 528 H 54.8836 3.88081 0.0379825 0
M  V30 529 H 52.9846 2.92332 2.31025 0
M  V30 530 H 53.0976 4.57873 1.41028 0
M  V30 531 H 51.4616 2.40391 0.841672 0
M  V30 532 H 52.2446 3.39587 -0.503559 0
M  V30 533 N 54.6897 -0.239769 1.55765 0
M  V30 534 C 55.9357 -0.963942 1.79108 0
M  V30 535 C 56.2907 -1.82689 0.60352 0
M  V30 536 O 55.5837 -1.87313 -0.403033 0
M  V30 537 C 55.7777 -1.852 3.05672 0
M  V30 538 C 55.6067 -1.07651 4.36625 0
M  V30 539 C 54.3767 -0.778738 4.99263 0
M  V30 540 C 56.5747 -0.45062 5.12322 0
M  V30 541 N 54.5567 0.0200708 6.13897 0
M  V30 542 C 55.9277 0.212429 6.19636 0
M  V30 543 C 57.9827 -0.361806 4.96584 0
M  V30 544 C 56.6857 0.955772 7.12922 0
M  V30 545 C 58.7117 0.368023 5.90254 0
M  V30 546 C 58.0737 1.01968 6.96981 0
M  V30 547 H 54.1727 -0.333601 0.707272 0
M  V30 548 H 56.7567 -0.236425 1.93259 0
M  V30 549 H 54.9277 -2.55149 2.92837 0
M  V30 550 H 56.6597 -2.51228 3.1728 0
M  V30 551 H 53.4147 -1.09229 4.60832 0
M  V30 552 H 53.8387 0.407777 6.75771 0
M  V30 553 H 58.4807 -0.851286 4.14141 0
M  V30 554 H 56.1987 1.45683 7.9486 0
M  V30 555 H 59.7847 0.437504 5.80153 0
M  V30 556 H 58.6647 1.5754 7.68213 0
M  V30 557 N 56.1678 -1.49265 -0.50573 0
M  V30 558 C 57.5838 -1.35923 -0.836486 0
M  V30 559 C 57.7838 -0.388704 -1.97715 0
M  V30 560 O 56.8398 0.181336 -2.51848 0
M  V30 561 C 58.1528 -2.76531 -1.18115 0
M  V30 562 C 59.7008 -2.85197 -1.28964 0
M  V30 563 C 60.1758 -4.26561 -1.66761 0
M  V30 564 N 61.6668 -4.2935 -1.73819 0
M  V30 565 C 62.4018 -5.35693 -2.045 0
M  V30 566 N 61.8978 -6.52287 -2.33438 0
M  V30 567 N 63.6908 -5.23105 -2.05711 0
M  V30 568 H 55.8418 -2.10965 0.246519 0
M  V30 569 H 58.1048 -0.9468 0.0476887 0
M  V30 570 H 57.8108 -3.49226 -0.416398 0
M  V30 571 H 57.6848 -3.11599 -2.1257 0
M  V30 572 H 60.0718 -2.12742 -2.04511 0
M  V30 573 H 60.1528 -2.53718 -0.325704 0
M  V30 574 H 59.7968 -4.99541 -0.917656 0
M  V30 575 H 59.7268 -4.55502 -2.64246 0
M  V30 576 H 62.2178 -3.4526 -1.53635 0
M  V30 577 H 62.5308 -7.29158 -2.56024 0
M  V30 578 H 60.8758 -6.55521 -2.30905 0
M  V30 579 H 64.0668 -4.31026 -1.82577 0
M  V30 580 H 64.2398 -6.06078 -2.29289 0
M  V30 581 N 57.6459 0.756429 -1.3826 0
M  V30 582 C 58.8939 1.51248 -1.34047 0
M  V30 583 C 59.2149 1.94875 0.0698372 0
M  V30 584 O 58.4849 1.67436 1.01696 0
M  V30 585 H 57.0649 0.561018 -0.493222 0
M  V30 586 H 59.7269 0.899347 -1.7291 0
M  V30 587 H 58.8229 2.40472 -1.98947 0
M  V30 588 N 59.124 1.23083 0.984299 0
M  V30 589 C 60.54 0.992637 1.24975 0
M  V30 590 C 60.74 -0.308618 1.99123 0
M  V30 591 O 59.796 -1.02905 2.30579 0
M  V30 592 C 61.109 2.19698 2.05312 0
M  V30 593 C 62.657 2.24147 2.18465 0
M  V30 594 C 63.132 3.44157 3.02192 0
M  V30 595 N 64.623 3.44372 3.09777 0
M  V30 596 C 65.358 4.33886 3.74874 0
M  V30 597 N 64.854 5.3363 4.41827 0
M  V30 598 N 66.647 4.21639 3.71721 0
M  V30 599 H 58.798 2.06731 0.487453 0
M  V30 600 H 61.061 0.906339 0.277944 0
M  V30 601 H 60.767 3.1411 1.58201 0
M  V30 602 H 60.641 2.20465 3.06064 0
M  V30 603 H 63.028 1.30277 2.64786 0
M  V30 604 H 63.109 2.27415 1.17115 0
M  V30 605 H 62.753 4.38332 2.56568 0
M  V30 606 H 62.683 3.3813 4.03702 0
M  V30 607 H 65.174 2.72201 2.62135 0
M  V30 608 H 65.487 5.98196 4.89266 0
M  V30 609 H 63.832 5.37534 4.40548 0
M  V30 610 H 67.023 3.42962 3.18582 0
M  V30 611 H 67.196 4.91604 4.22173 0
M  V30 612 N 60.6021 -1.18246 1.0419 0
M  V30 613 C 62.0181 -1.40269 0.761366 0
M  V30 614 C 62.2181 -1.90777 -0.648578 0
M  V30 615 O 61.2741 -2.0929 -1.41258 0
M  V30 616 C 62.5871 -2.40237 1.8085 0
M  V30 617 C 64.1351 -2.53961 1.82955 0
M  V30 618 C 64.6101 -3.57194 2.86664 0
M  V30 619 N 66.1011 -3.64702 2.85563 0
M  V30 620 C 66.8361 -4.44309 3.6246 0
M  V30 621 N 66.3321 -5.27514 4.49111 0
M  V30 622 N 68.1251 -4.39084 3.50944 0
M  V30 623 H 60.2761 -0.837882 1.95175 0
M  V30 624 H 62.5391 -0.430608 0.84456 0
M  V30 625 H 62.2451 -2.10176 2.81991 0
M  V30 626 H 62.1191 -3.39601 1.64168 0
M  V30 627 H 64.5061 -2.83338 0.824855 0
M  V30 628 H 64.5871 -1.54706 2.03715 0
M  V30 629 H 64.2311 -3.28558 3.87314 0
M  V30 630 H 64.1611 -4.5613 2.6316 0
M  V30 631 H 66.6521 -3.05289 2.22727 0
M  V30 632 H 66.9651 -5.85411 5.04493 0
M  V30 633 H 65.3101 -5.2693 4.53178 0
M  V30 634 H 68.5011 -3.7313 2.82651 0
M  V30 635 H 68.6741 -5.00883 4.11121 0
M  V30 636 N 62.0802 -0.821533 -1.34494 0
M  V30 637 C 62.9902 -0.244355 -2.33324 0
M  V30 638 C 64.0062 0.620527 -1.62559 0
M  V30 639 O 65.1822 0.528754 -1.94335 0
M  V30 640 C 62.2472 0.585368 -3.41723 0
M  V30 641 C 61.3082 -0.301752 -4.28238 0
M  V30 642 C 60.5412 0.488466 -5.3146 0
M  V30 643 O 60.7642 1.72186 -5.4379 0
M  V30 644 O 59.6982 -0.12848 -6.01763 0
M  V30 645 H 63.5242 -1.06231 -2.84515 0
M  V30 646 H 61.1092 -0.583645 -1.37528 0
M  V30 647 H 62.9912 1.05747 -4.07916 0
M  V30 648 H 61.6662 1.38068 -2.92778 0
M  V30 649 H 60.5732 -0.821315 -3.64973 0
M  V30 650 H 61.9062 -1.06138 -4.8062 0
M  V30 651 N 63.5583 1.46682 -0.576371 0
M  V30 652 C 64.4903 2.28341 0.198231 0
M  V30 653 C 65.5033 1.38141 0.861453 0
M  V30 654 O 66.6923 1.62797 0.732082 0
M  V30 655 C 63.7923 3.12986 1.29972 0
M  V30 656 C 62.9653 4.31271 0.729639 0
M  V30 657 C 62.0243 4.97363 1.71803 0
M  V30 658 O 61.0503 5.55156 1.25658 0
M  V30 659 N 62.2523 4.93796 3.05198 0
M  V30 660 H 65.0173 2.9546 -0.502324 0
M  V30 661 H 62.5783 1.56525 -0.413715 0
M  V30 662 H 64.5703 3.54066 1.96008 0
M  V30 663 H 63.1403 2.47984 1.90323 0
M  V30 664 H 62.3603 3.94052 -0.108012 0
M  V30 665 H 63.6483 5.07739 0.328438 0
M  V30 666 H 63.0463 4.48077 3.45317 0
M  V30 667 H 61.6033 5.38837 3.6674 0
M  V30 668 N 65.0364 0.313813 1.54444 0
M  V30 669 C 66.2764 -0.292389 2.02298 0
M  V30 670 C 66.6404 -1.50105 1.19719 0
M  V30 671 O 67.8414 -2.17947 1.5733 0
M  V30 672 C 66.1124 -0.627682 3.51845 0
M  V30 673 S 67.6714 -1.21493 4.21646 0
M  V30 674 H 64.4894 -0.0890247 0.705405 0
M  V30 675 H 67.0914 0.444668 1.90376 0
M  V30 676 H 65.7954 0.260265 4.09574 0
M  V30 677 H 65.3264 -1.39519 3.67829 0
M  V30 678 H 67.3414 -2.5022 4.28491 0
M  V30 679 N 66.5145 -1.57545 0.0417849 0
M  V30 680 C 67.4445 -2.14009 -0.933929 0
M  V30 681 C 68.4255 -1.05938 -1.33083 0
M  V30 682 O 69.6105 -1.33833 -1.40721 0
M  V30 683 C 66.7405 -2.67747 -2.21199 0
M  V30 684 C 65.6945 -3.80718 -1.95544 0
M  V30 685 C 65.0205 -4.20935 -3.29724 0
M  V30 686 C 66.3205 -5.06258 -1.28452 0
M  V30 687 H 68.0145 -2.95788 -0.463645 0
M  V30 688 H 65.5605 -1.42285 -0.221573 0
M  V30 689 H 67.5135 -3.05886 -2.89848 0
M  V30 690 H 66.2375 -1.83147 -2.70416 0
M  V30 691 H 64.8965 -3.43037 -1.2931 0
M  V30 692 H 64.5445 -3.33298 -3.76724 0
M  V30 693 H 64.2445 -4.9707 -3.13361 0
M  V30 694 H 65.7685 -4.61666 -3.9962 0
M  V30 695 H 67.1825 -5.41903 -1.8712 0
M  V30 696 H 65.5795 -5.87475 -1.22445 0
M  V30 697 H 66.6495 -4.84207 -0.259219 0
M  V30 698 N 67.9926 0.231505 -1.5589 0
M  V30 699 C 68.9226 1.29022 -1.94617 0
M  V30 700 C 69.9036 1.4941 -0.813067 0
M  V30 701 O 71.0886 1.6176 -1.07459 0
M  V30 702 C 68.2186 2.64199 -2.25424 0
M  V30 703 C 67.1726 2.58484 -3.41131 0
M  V30 704 C 66.4986 3.97599 -3.57518 0
M  V30 705 C 67.7986 2.1413 -4.76388 0
M  V30 706 H 69.4926 0.968563 -2.83301 0
M  V30 707 H 67.0386 0.464479 -1.36303 0
M  V30 708 H 68.9916 3.38413 -2.51107 0
M  V30 709 H 67.7156 2.98032 -1.33583 0
M  V30 710 H 66.3746 1.86727 -3.15481 0
M  V30 711 H 66.0226 4.28723 -2.6307 0
M  V30 712 H 65.7226 3.94659 -4.35337 0
M  V30 713 H 67.2466 4.7349 -3.85538 0
M  V30 714 H 68.6606 2.78083 -5.01341 0
M  V30 715 H 67.0576 2.2227 -5.57419 0
M  V30 716 H 68.1276 1.09331 -4.72414 0
M  V30 717 N 69.4707 1.49531 0.497807 0
M  V30 718 C 70.8817 1.52344 1.07927 0
M  V30 719 C 71.2327 0.311469 1.93712 0
M  V30 720 O 70.3577 -0.578405 2.08527 0
M  V30 721 C 70.9527 2.76062 1.96405 0
M  V30 722 C 69.5117 2.81643 2.49709 0
M  V30 723 C 68.6587 2.46299 1.27404 0
M  V30 724 H 71.6097 1.56182 0.281576 0
M  V30 725 H 71.6307 2.56405 2.81135 0
M  V30 726 H 71.1427 3.64254 1.33943 0
M  V30 727 H 69.2437 1.97739 3.15801 0
M  V30 728 H 69.3567 3.83891 2.86643 0
M  V30 729 H 67.7207 1.98148 1.60029 0
M  V30 730 H 68.5037 3.36769 0.66645 0
M  V30 731 N 70.9488 -0.749086 1.3866 0
M  V30 732 C 72.3598 -1.32664 1.31366 0
M  V30 733 C 72.7108 -1.96179 -0.028484 0
M  V30 734 O 71.8358 -1.9537 -0.93057 0
M  V30 735 C 72.4308 -2.41219 2.37905 0
M  V30 736 C 70.9898 -2.94684 2.34176 0
M  V30 737 C 70.1368 -1.68108 2.20533 0
M  V30 738 H 73.0878 -0.547628 1.48952 0
M  V30 739 H 73.1088 -3.21268 2.0388 0
M  V30 740 H 72.6208 -1.94962 3.35576 0
M  V30 741 H 70.7218 -3.45258 1.401 0
M  V30 742 H 70.8348 -3.48757 3.2849 0
M  V30 743 H 69.1988 -1.91907 1.67463 0
M  V30 744 H 69.9818 -1.23923 3.20153 0
M  V30 745 N 72.4269 -1.23603 -0.977757 0
M  V30 746 C 73.3369 -1.03632 -2.1047 0
M  V30 747 C 74.3529 0.0199435 -1.73989 0
M  V30 748 O 75.5289 -0.176076 -2.00629 0
M  V30 749 C 72.5939 -0.63276 -3.40877 0
M  V30 750 C 71.6549 -1.76437 -3.91367 0
M  V30 751 C 70.8879 -1.37997 -5.15551 0
M  V30 752 O 71.1109 -0.265357 -5.69782 0
M  V30 753 O 70.0449 -2.20201 -5.60174 0
M  V30 754 H 73.8709 -1.98086 -2.30208 0
M  V30 755 H 71.4559 -1.02332 -1.08851 0
M  V30 756 H 73.3379 -0.418761 -4.19314 0
M  V30 757 H 72.0129 0.282754 -3.22463 0
M  V30 758 H 70.9199 -2.03304 -3.14036 0
M  V30 759 H 72.2529 -2.6583 -4.14241 0
M  V30 760 N 73.905 1.17692 -1.04816 0
M  V30 761 C 75.182 1.83768 -0.669963 0
M  V30 762 C 75.562 1.93232 0.849986 0
M  V30 763 O 74.91 1.46397 1.75443 0
M  V30 764 C 75.12 3.21641 -1.35455 0
M  V30 765 C 76.468 3.97592 -1.49017 0
M  V30 766 O 77.492 3.31107 -1.31326 0
M  V30 767 O 76.351 5.16729 -1.77914 0
M  V30 768 H 73.445 0.792799 -0.235368 0
M  V30 769 H 75.991 1.25021 -1.14751 0
M  V30 770 H 74.763 3.097 -2.39168 0
M  V30 771 H 74.386 3.88052 -0.866107 0
M  V30 772 N 75.3831 0.828654 1.34056 0
M  V30 773 C 76.6081 0.431637 2.02859 0
M  V30 774 C 77.0331 -0.956339 1.61975 0
M  V30 775 O 76.3911 -1.62338 0.807228 0
M  V30 776 C 76.4391 0.548323 3.56407 0
M  V30 777 O 75.5431 -0.429556 4.10157 0
M  V30 778 H 74.8841 0.176886 0.640006 0
M  V30 779 H 77.4141 1.12066 1.71179 0
M  V30 780 H 77.4241 0.426196 4.05768 0
M  V30 781 H 76.0991 1.5606 3.8551 0
M  V30 782 H 74.6761 -0.265836 3.71951 0
M  V30 783 N 76.8612 -1.46375 0.584142 0
M  V30 784 C 78.2772 -1.57694 0.245929 0
M  V30 785 C 78.4772 -1.57903 -1.25175 0
M  V30 786 O 77.5332 -1.49676 -2.03355 0
M  V30 787 C 78.8462 -2.87028 0.896402 0
M  V30 788 C 80.3942 -3.00662 0.870127 0
M  V30 789 C 80.8692 -4.32734 1.50017 0
M  V30 790 N 82.3602 -4.39436 1.46458 0
M  V30 791 C 83.0952 -5.40248 1.92144 0
M  V30 792 N 82.5912 -6.47726 2.4581 0
M  V30 793 N 84.3842 -5.31459 1.83052 0
M  V30 794 H 76.5352 -1.44483 1.55687 0
M  V30 795 H 78.7982 -0.689291 0.650831 0
M  V30 796 H 78.5042 -2.9269 1.95002 0
M  V30 797 H 78.3782 -3.75014 0.405486 0
M  V30 798 H 80.7652 -2.94581 -0.174871 0
M  V30 799 H 80.8462 -2.14148 1.39908 0
M  V30 800 H 80.4902 -4.39573 2.54437 0
M  V30 801 H 80.4202 -5.18025 0.946432 0
M  V30 802 H 82.9112 -3.62367 1.07231 0
M  V30 803 H 83.2242 -7.20863 2.78525 0
M  V30 804 H 81.5692 -6.48542 2.49836 0
M  V30 805 H 84.7602 -4.46396 1.40883 0
M  V30 806 H 84.9332 -6.09881 2.18973 0
M  V30 807 N 78.3393 -0.321999 -1.54275 0
M  V30 808 C 79.2693 0.537411 -2.27231 0
M  V30 809 C 80.2503 1.12064 -1.27968 0
M  V30 810 O 81.4353 1.14606 -1.56777 0
M  V30 811 C 78.5653 1.69919 -3.02894 0
M  V30 812 C 77.5193 1.24534 -4.09482 0
M  V30 813 C 76.8453 2.49394 -4.72977 0
M  V30 814 C 78.1453 0.361335 -5.21049 0
M  V30 815 H 79.8393 -0.0711406 -2.99315 0
M  V30 816 H 77.3853 -0.0356555 -1.43956 0
M  V30 817 H 79.3383 2.30668 -3.52662 0
M  V30 818 H 78.0623 2.33431 -2.28424 0
M  V30 819 H 76.7213 0.660782 -3.60596 0
M  V30 820 H 76.3693 3.11265 -3.95124 0
M  V30 821 H 76.0693 2.19718 -5.44975 0
M  V30 822 H 77.5933 3.10908 -5.25517 0
M  V30 823 H 79.0073 0.875072 -5.66582 0
M  V30 824 H 77.4043 0.157428 -5.99893 0
M  V30 825 H 78.4743 -0.60822 -4.8107 0
M  V30 826 N 79.8174 1.5752 -0.0501392 0
M  V30 827 C 81.0634 1.93755 0.618901 0
M  V30 828 C 81.4184 0.928514 1.68512 0
M  V30 829 O 80.7114 -0.0524613 1.91528 0
M  V30 830 C 80.9054 3.34467 1.25963 0
M  V30 831 C 80.7344 4.48965 0.257 0
M  V30 832 C 79.5044 5.05075 -0.150656 0
M  V30 833 C 81.7024 5.11891 -0.497166 0
M  V30 834 N 79.6844 6.03104 -1.14626 0
M  V30 835 C 81.0554 6.05216 -1.34588 0
M  V30 836 C 83.1104 4.9479 -0.55559 0
M  V30 837 C 81.8134 6.83277 -2.24778 0
M  V30 838 C 83.8394 5.73477 -1.44492 0
M  V30 839 C 83.2014 6.66433 -2.28136 0
M  V30 840 H 79.3004 0.756479 0.198149 0
M  V30 841 H 81.8844 1.94316 -0.122229 0
M  V30 842 H 80.0554 3.34685 1.97079 0
M  V30 843 H 81.7874 3.57994 1.88739 0
M  V30 844 H 78.5424 4.7305 0.228094 0
M  V30 845 H 78.9664 6.56813 -1.64092 0
M  V30 846 H 83.6084 4.2273 0.0768625 0
M  V30 847 H 81.3264 7.54629 -2.89069 0
M  V30 848 H 84.9124 5.62273 -1.49468 0
M  V30 849 H 83.7924 7.26258 -2.95835 0
M  V30 850 N 81.2955 -0.223234 1.56011 0
M  V30 851 C 82.2275 -1.30006 1.88762 0
M  V30 852 C 83.2405 -1.43129 0.775746 0
M  V30 853 O 84.4295 -1.44057 1.05403 0
M  V30 854 C 81.5295 -2.67589 2.07965 0
M  V30 855 C 80.7025 -2.76434 3.38973 0
M  V30 856 C 79.7615 -3.95019 3.47629 0
M  V30 857 O 78.7875 -3.83436 4.20672 0
M  V30 858 N 79.9895 -5.09249 2.78649 0
M  V30 859 H 82.7545 -1.02238 2.81722 0
M  V30 860 H 80.3155 -0.413278 1.56536 0
M  V30 861 H 82.3075 -3.45297 2.11073 0
M  V30 862 H 80.8775 -2.87964 1.21638 0
M  V30 863 H 80.0975 -1.85216 3.47978 0
M  V30 864 H 81.3855 -2.79313 4.25278 0
M  V30 865 H 80.7835 -5.21556 2.19081 0
M  V30 866 H 79.3405 -5.85007 2.8742 0
M  V30 867 N 82.7736 -1.49793 -0.48987 0
M  V30 868 C 84.0036 -1.6333 -1.26518 0
M  V30 869 C 84.4116 -0.308392 -1.8667 0
M  V30 870 O 83.7546 0.717512 -1.69108 0
M  V30 871 C 83.8166 -2.6522 -2.4269 0
M  V30 872 C 83.4806 -4.09279 -2.03321 0
M  V30 873 C 84.4776 -4.95738 -1.56652 0
M  V30 874 C 82.1626 -4.55082 -2.12616 0
M  V30 875 C 84.1566 -6.26041 -1.19795 0
M  V30 876 C 81.8436 -5.85396 -1.75371 0
M  V30 877 C 82.8416 -6.707 -1.29036 0
M  V30 878 O 82.5296 -7.98584 -0.92299 0
M  V30 879 H 82.2616 -0.552502 -0.389509 0
M  V30 880 H 84.8156 -1.96642 -0.593381 0
M  V30 881 H 83.0456 -2.27112 -3.12981 0
M  V30 882 H 84.7346 -2.68171 -3.04695 0
M  V30 883 H 85.5006 -4.61575 -1.48908 0
M  V30 884 H 81.3796 -3.88844 -2.47631 0
M  V30 885 H 84.9236 -6.92578 -0.835582 0
M  V30 886 H 80.8206 -6.19085 -1.82768 0
M  V30 887 H 81.5886 -8.11692 -1.05349 0
M  V30 888 N 84.2517 0.741722 -1.39055 0
M  V30 889 C 85.1817 1.869 -1.39966 0
M  V30 890 C 86.1627 1.6804 -0.26392 0
M  V30 891 O 87.3477 1.88458 -0.468755 0
M  V30 892 C 84.4777 3.24572 -1.23574 0
M  V30 893 C 83.4317 3.58056 -2.34477 0
M  V30 894 C 82.7577 4.94593 -2.0318 0
M  V30 895 C 84.0577 3.61716 -3.76774 0
M  V30 896 H 85.7517 1.86395 -2.34302 0
M  V30 897 H 83.2977 0.895361 -1.1278 0
M  V30 898 H 85.2507 4.031 -1.22834 0
M  V30 899 H 83.9747 3.25587 -0.257045 0
M  V30 900 H 82.6337 2.81854 -2.34423 0
M  V30 901 H 82.2817 4.92181 -1.03765 0
M  V30 902 H 81.9817 5.17964 -2.77465 0
M  V30 903 H 83.5057 5.75486 -2.04079 0
M  V30 904 H 84.9197 4.30335 -3.78794 0
M  V30 905 H 83.3167 3.96603 -4.50362 0
M  V30 906 H 84.3867 2.61672 -4.08235 0
M  V30 907 N 85.7298 1.2412 0.971189 0
M  V30 908 C 86.6598 1.05508 2.08304 0
M  V30 909 C 87.6408 -0.0308864 1.70072 0
M  V30 910 O 88.8258 0.135521 1.93727 0
M  V30 911 C 85.9558 0.655365 3.4106 0
M  V30 912 C 84.9098 1.68971 3.93234 0
M  V30 913 C 84.2358 1.14516 5.22293 0
M  V30 914 C 85.5358 3.08487 4.21465 0
M  V30 915 H 87.2298 1.98507 2.24132 0
M  V30 916 H 84.7758 0.955821 1.07704 0
M  V30 917 H 86.7288 0.51217 4.18276 0
M  V30 918 H 85.4528 -0.31032 3.25122 0
M  V30 919 H 84.1118 1.82106 3.18171 0
M  V30 920 H 83.7598 0.170189 5.02712 0
M  V30 921 H 83.4598 1.83635 5.58168 0
M  V30 922 H 84.9838 1.01401 6.02121 0
M  V30 923 H 86.3978 2.98601 4.89398 0
M  V30 924 H 84.7948 3.74926 4.68562 0
M  V30 925 H 85.8648 3.56787 3.28376 0
M  V30 926 N 87.2079 -1.17134 1.05439 0
M  V30 927 C 88.4329 -1.91913 0.786396 0
M  V30 928 C 88.8579 -1.7643 -0.652234 0
M  V30 929 O 88.2159 -1.08372 -1.45345 0
M  V30 930 C 88.2639 -3.40921 1.17497 0
M  V30 931 O 87.3679 -4.11244 0.308589 0
M  V30 932 H 86.7089 -0.598215 0.288158 0
M  V30 933 H 89.2389 -1.48457 1.4079 0
M  V30 934 H 89.2489 -3.91668 1.14281 0
M  V30 935 H 87.9239 -3.5151 2.22292 0
M  V30 936 H 86.5009 -3.70731 0.40157 0
M  V30 937 N 88.686 -0.835752 -1.33615 0
M  V30 938 C 90.102 -0.523139 -1.50783 0
M  V30 939 C 90.302 0.950171 -1.77691 0
M  V30 940 O 89.358 1.73411 -1.83534 0
M  V30 941 C 90.671 -1.39378 -2.66448 0
M  V30 942 C 92.219 -1.39223 -2.80332 0
M  V30 943 C 92.694 -2.24765 -3.99055 0
M  V30 944 N 94.185 -2.22458 -4.06284 0
M  V30 945 C 94.92 -2.85386 -4.97336 0
M  V30 946 N 94.416 -3.57354 -5.93523 0
M  V30 947 N 96.209 -2.74872 -4.90308 0
M  V30 948 H 88.36 -1.78952 -1.14411 0
M  V30 949 H 90.623 -0.763297 -0.562212 0
M  V30 950 H 90.329 -2.44061 -2.53234 0
M  V30 951 H 90.203 -1.0676 -3.61776 0
M  V30 952 H 92.59 -0.353136 -2.92979 0
M  V30 953 H 92.671 -1.75846 -1.85773 0
M  V30 954 H 92.315 -3.28732 -3.87167 0
M  V30 955 H 92.245 -1.85485 -4.92852 0
M  V30 956 H 94.736 -1.70119 -3.37443 0
M  V30 957 H 95.049 -4.02584 -6.59656 0
M  V30 958 H 93.394 -3.61461 -5.93608 0
M  V30 959 H 96.585 -2.18213 -4.14126 0
M  V30 960 H 96.758 -3.24199 -5.61069 0
M  V30 961 N 90.1641 1.46063 -0.591896 0
M  V30 962 C 91.3891 2.07226 -0.0850314 0
M  V30 963 C 91.8141 1.43625 1.21463 0
M  V30 964 O 91.1721 0.523305 1.73583 0
M  V30 965 C 91.2201 3.60554 0.0576567 0
M  V30 966 O 90.3241 3.97128 1.11188 0
M  V30 967 H 89.6651 0.660615 -0.0669568 0
M  V30 968 H 92.1951 1.8756 -0.81745 0
M  V30 969 H 92.2051 4.07165 0.2609 0
M  V30 970 H 90.8801 4.06235 -0.891416 0
M  V30 971 H 89.4571 3.62213 0.886356 0
M  V30 972 N 91.6422 0.330177 1.54103 0
M  V30 973 C 92.5752 -0.575477 2.20825 0
M  V30 974 C 93.5532 -1.11064 1.18758 0
M  V30 975 O 94.7372 -1.17341 1.47524 0
M  V30 976 C 91.8642 -1.79032 2.87516 0
M  V30 977 C 90.9102 -1.38581 4.03358 0
M  V30 978 S 91.7432 -0.416911 5.33875 0
M  V30 979 C 92.8992 -1.63889 6.04062 0
M  V30 980 H 93.1322 -0.00872114 2.97299 0
M  V30 981 H 90.6652 0.114254 1.53977 0
M  V30 982 H 92.6232 -2.48734 3.2656 0
M  V30 983 H 91.2842 -2.32827 2.10832 0
M  V30 984 H 90.4772 -2.29123 4.48908 0
M  V30 985 H 90.0792 -0.768419 3.66021 0
M  V30 986 H 92.3712 -2.57536 6.26643 0
M  V30 987 H 93.3142 -1.22542 6.97416 0
M  V30 988 H 93.7222 -1.82887 5.34053 0
M  V30 989 N 93.1203 -1.57491 0.0584922 0
M  V30 990 C 94.5363 -1.56792 -0.298091 0
M  V30 991 C 94.7363 -1.06679 -1.70944 0
M  V30 992 O 93.7923 -0.726672 -2.41818 0
M  V30 993 C 95.1053 -3.00461 -0.119879 0
M  V30 994 C 96.6533 -3.1242 -0.190428 0
M  V30 995 C 97.1283 -4.57982 -0.0406567 0
M  V30 996 N 98.6193 -4.63099 -0.0966958 0
M  V30 997 C 99.3543 -5.734 -0.00502943 0
M  V30 998 N 98.8503 -6.9266 0.139402 0
M  V30 999 N 100.643 -5.62067 -0.0611391 0
M  V30 1000 H 92.7943 -1.88386 0.98105 0
M  V30 1001 H 95.0573 -0.867865 0.381463 0
M  V30 1002 H 94.7633 -3.41187 0.85349 0
M  V30 1003 H 94.6373 -3.66843 -0.877833 0
M  V30 1004 H 97.0243 -2.71589 -1.15427 0
M  V30 1005 H 97.1053 -2.48702 0.598405 0
M  V30 1006 H 96.7493 -4.995 0.919897 0
M  V30 1007 H 96.6793 -5.19715 -0.848727 0
M  V30 1008 H 99.1703 -3.77331 -0.207277 0
M  V30 1009 H 99.4833 -7.72536 0.201855 0
M  V30 1010 H 97.8283 -6.94781 0.174586 0
M  V30 1011 H 101.019 -4.67782 -0.172583 0
M  V30 1012 H 101.192 -6.47999 0.0137562 0
M  V30 1013 N 94.5984 0.214957 -1.56127 0
M  V30 1014 C 95.5084 1.28727 -1.96129 0
M  V30 1015 C 96.5244 1.50916 -0.866044 0
M  V30 1016 O 97.7004 1.63918 -1.17016 0
M  V30 1017 C 94.7654 2.61569 -2.27558 0
M  V30 1018 C 93.8264 2.47625 -3.50685 0
M  V30 1019 C 93.0594 3.74132 -3.80606 0
M  V30 1020 O 93.2824 4.77438 -3.12104 0
M  V30 1021 O 92.2164 3.70849 -4.74083 0
M  V30 1022 H 96.0424 0.977855 -2.87527 0
M  V30 1023 H 93.6274 0.418358 -1.43423 0
M  V30 1024 H 95.5094 3.40012 -2.48938 0
M  V30 1025 H 94.1844 2.92178 -1.39332 0
M  V30 1026 H 93.0914 1.67361 -3.34576 0
M  V30 1027 H 94.4244 2.21954 -4.39315 0
M  V30 1028 N 96.0765 1.50051 0.48192 0
M  V30 1029 C 97.0265 1.64512 1.5786 0
M  V30 1030 C 98.0105 0.500073 1.52932 0
M  V30 1031 O 99.2025 0.753964 1.60139 0
M  V30 1032 C 96.3315 1.73263 2.9637 0
M  V30 1033 C 95.4175 2.93409 3.06222 0
M  V30 1034 N 95.8085 4.17236 2.85915 0
M  V30 1035 C 94.1065 2.91742 3.37346 0
M  V30 1036 C 94.8075 4.981 3.00451 0
M  V30 1037 N 93.7835 4.3184 3.30174 0
M  V30 1038 H 97.5855 2.57955 1.40842 0
M  V30 1039 H 95.0995 1.47086 0.688439 0
M  V30 1040 H 97.0965 1.81724 3.75209 0
M  V30 1041 H 95.7565 0.809711 3.14442 0
M  V30 1042 H 96.7675 4.46909 2.6171 0
M  V30 1043 H 93.4445 2.08907 3.61475 0
M  V30 1044 H 94.8345 6.06532 2.89082 0
M  V30 1045 N 97.5546 -0.734337 1.39446 0
M  V30 1046 C 98.9656 -1.31264 1.32766 0
M  V30 1047 C 99.3166 -1.96198 -0.00767497 0
M  V30 1048 O 98.4416 -1.96346 -0.909796 0
M  V30 1049 C 99.0366 -2.38682 2.4045 0
M  V30 1050 C 97.5956 -2.92184 2.37288 0
M  V30 1051 C 96.7426 -1.6576 2.22304 0
M  V30 1052 H 99.6936 -0.531799 1.49525 0
M  V30 1053 H 99.7146 -3.19087 2.07276 0
M  V30 1054 H 99.2266 -1.91392 3.37625 0
M  V30 1055 H 97.3276 -3.43752 1.43754 0
M  V30 1056 H 97.4406 -3.45253 3.3217 0
M  V30 1057 H 95.8046 -1.9012 1.69489 0
M  V30 1058 H 96.5876 -1.20521 3.21449 0
M  V30 1059 N 99.0327 -1.24633 -0.964593 0
M  V30 1060 C 99.9957 -1.0424 -2.04124 0
M  V30 1061 C 100.996 0.00137563 -1.608 0
M  V30 1062 O 102.186 -0.239883 -1.7254 0
M  V30 1063 C 99.3177 -0.580588 -3.3592 0
M  V30 1064 H 100.511 -1.99803 -2.23649 0
M  V30 1065 H 98.0637 -1.06899 -1.14027 0
M  V30 1066 H 98.7987 0.3781 -3.22088 0
M  V30 1067 H 98.5837 -1.33398 -3.6871 0
M  V30 1068 H 100.074 -0.459034 -4.15069 0
M  V30 1069 N 100.511 1.16574 -1.06058 0
M  V30 1070 C 101.441 2.23057 -0.690488 0
M  V30 1071 C 102.422 1.67141 0.315901 0
M  V30 1072 O 103.607 1.93253 0.191556 0
M  V30 1073 C 100.737 3.47222 -0.073625 0
M  V30 1074 C 99.6908 4.16016 -1.00573 0
M  V30 1075 C 99.0168 5.34104 -0.252289 0
M  V30 1076 C 100.317 4.67264 -2.33371 0
M  V30 1077 H 102.011 2.54271 -1.58072 0
M  V30 1078 H 99.5568 1.22218 -0.76149 0
M  V30 1079 H 101.51 4.20939 0.19714 0
M  V30 1080 H 100.234 3.15302 0.85161 0
M  V30 1081 H 98.8928 3.44223 -1.2612 0
M  V30 1082 H 98.5408 4.98437 0.675988 0
M  V30 1083 H 98.2408 5.81072 -0.873455 0
M  V30 1084 H 99.7648 6.10599 0.0109857 0
M  V30 1085 H 101.179 5.32573 -2.12223 0
M  V30 1086 H 99.5758 5.24843 -2.90963 0
M  V30 1087 H 100.646 3.83602 -2.96611 0
M  V30 1088 N 101.989 0.842826 1.3317 0
M  V30 1089 C 103.405 0.531128 1.50503 0
M  V30 1090 C 103.605 -0.940734 1.78192 0
M  V30 1091 O 102.661 -1.72436 1.84451 0
M  V30 1092 C 103.974 1.40789 2.65705 0
M  V30 1093 C 105.522 1.40708 2.79589 0
M  V30 1094 C 105.997 2.26878 3.97857 0
M  V30 1095 N 107.488 2.24609 4.05099 0
M  V30 1096 C 108.223 2.88019 4.95815 0
M  V30 1097 N 107.719 3.60496 5.9162 0
M  V30 1098 N 109.512 2.77469 4.88843 0
M  V30 1099 H 101.663 1.79557 1.1346 0
M  V30 1100 H 103.926 0.766267 0.558156 0
M  V30 1101 H 103.632 2.454 2.51936 0
M  V30 1102 H 103.506 1.08677 3.61205 0
M  V30 1103 H 105.893 0.368668 2.92788 0
M  V30 1104 H 105.974 1.76829 1.84838 0
M  V30 1105 H 105.618 3.3078 3.85418 0
M  V30 1106 H 105.548 1.88096 4.91861 0
M  V30 1107 H 108.039 1.71906 3.36536 0
M  V30 1108 H 108.352 4.06076 6.57512 0
M  V30 1109 H 106.697 3.64604 5.91683 0
M  V30 1110 H 109.888 2.20406 4.12963 0
M  V30 1111 H 110.061 3.2717 5.59342 0
M  V30 1112 N 103.467 -1.45747 0.599634 0
M  V30 1113 C 104.692 -2.07178 0.0960198 0
M  V30 1114 C 105.117 -1.44268 -1.207 0
M  V30 1115 O 104.475 -0.532503 -1.73303 0
M  V30 1116 C 104.523 -3.60579 -0.0385348 0
M  V30 1117 O 103.627 -3.97713 -1.0908 0
M  V30 1118 H 102.968 -0.660251 0.0704593 0
M  V30 1119 H 105.498 -1.87124 0.827385 0
M  V30 1120 H 105.508 -4.07298 -0.239304 0
M  V30 1121 H 104.183 -4.05756 0.912947 0
M  V30 1122 H 102.76 -3.62678 -0.867135 0
M  V30 1123 N 104.945 -0.338344 -1.53925 0
M  V30 1124 C 105.875 0.51328 -2.27789 0
M  V30 1125 C 106.856 1.107 -1.29149 0
M  V30 1126 O 108.041 1.12937 -1.57984 0
M  V30 1127 C 105.171 1.66697 -3.04679 0
M  V30 1128 C 104.125 1.20183 -4.1078 0
M  V30 1129 C 103.451 2.44363 -4.75595 0
M  V30 1130 C 104.751 0.30605 -5.21403 0
M  V30 1131 H 106.445 -0.102883 -2.99223 0
M  V30 1132 H 103.991 -0.0509219 -1.4391 0
M  V30 1133 H 105.944 2.26915 -3.55088 0
M  V30 1134 H 104.668 2.30995 -2.30887 0
M  V30 1135 H 103.327 0.622499 -3.61276 0
M  V30 1136 H 102.975 3.07057 -3.98403 0
M  V30 1137 H 102.675 2.13925 -5.47275 0
M  V30 1138 H 104.199 3.05317 -5.28786 0
M  V30 1139 H 105.613 0.814929 -5.67478 0
M  V30 1140 H 104.01 0.0937929 -6.00027 0
M  V30 1141 H 105.08 -0.65921 -4.80398 0
M  V30 1142 N 106.423 1.57458 -0.0668435 0
M  V30 1143 C 107.839 1.56947 0.289772 0
M  V30 1144 C 108.039 1.07584 1.70376 0
M  V30 1145 O 107.095 0.739486 2.41429 0
M  V30 1146 C 108.408 3.0052 0.103943 0
M  V30 1147 C 109.956 3.12517 0.173857 0
M  V30 1148 C 110.431 4.57997 0.0163682 0
M  V30 1149 N 111.922 4.63144 0.0721352 0
M  V30 1150 C 112.657 5.73394 -0.0253794 0
M  V30 1151 N 112.153 6.92576 -0.176133 0
M  V30 1152 N 113.946 5.62091 0.0313305 0
M  V30 1153 H 106.097 1.87863 -0.991027 0
M  V30 1154 H 108.36 0.86583 -0.38606 0
M  V30 1155 H 108.066 3.40729 -0.871572 0
M  V30 1156 H 107.94 3.67304 0.858366 0
M  V30 1157 H 110.327 2.72197 1.13985 0
M  V30 1158 H 110.408 2.48381 -0.611586 0
M  V30 1159 H 110.052 4.99005 -0.946374 0
M  V30 1160 H 109.982 5.20158 0.821153 0
M  V30 1161 H 112.473 3.77436 0.187263 0
M  V30 1162 H 112.786 7.72418 -0.242821 0
M  V30 1163 H 111.131 6.94678 -0.211429 0
M  V30 1164 H 114.322 4.67867 0.147773 0
M  V30 1165 H 114.495 6.47982 -0.048121 0
M  V30 1166 N 107.901 -0.206675 1.56239 0
M  V30 1167 C 108.831 -1.25909 1.96645 0
M  V30 1168 C 109.812 -1.48097 0.836734 0
M  V30 1169 O 110.997 -1.6003 1.10019 0
M  V30 1170 C 108.127 -2.6058 2.29599 0
M  V30 1171 C 107.081 -2.53024 3.452 0
M  V30 1172 C 106.407 -3.91861 3.63798 0
M  V30 1173 C 107.707 -2.06524 4.79734 0
M  V30 1174 H 109.401 -0.923369 2.84806 0
M  V30 1175 H 106.947 -0.442735 1.37025 0
M  V30 1176 H 108.9 -3.34375 2.56459 0
M  V30 1177 H 107.624 -2.95869 1.38307 0
M  V30 1178 H 106.283 -1.81684 3.18412 0
M  V30 1179 H 105.931 -4.24483 2.69857 0
M  V30 1180 H 105.631 -3.87683 4.4156 0
M  V30 1181 H 107.155 -4.67296 3.93022 0
M  V30 1182 H 108.569 -2.70072 5.05702 0
M  V30 1183 H 106.966 -2.13374 5.60885 0
M  V30 1184 H 108.036 -1.01802 4.74093 0
M  V30 1185 N 109.379 -1.50304 -0.473955 0
M  V30 1186 C 110.309 -1.71886 -1.58042 0
M  V30 1187 C 111.29 -0.567799 -1.60344 0
M  V30 1188 O 112.475 -0.806623 -1.76656 0
M  V30 1189 C 109.605 -1.81036 -2.96384 0
M  V30 1190 C 108.559 -2.962 -3.08949 0
M  V30 1191 C 107.885 -2.9049 -4.48909 0
M  V30 1192 C 109.185 -4.36752 -2.86434 0
M  V30 1193 H 110.879 -2.64527 -1.40234 0
M  V30 1194 H 108.425 -1.27295 -0.673201 0
M  V30 1195 H 110.378 -1.94719 -3.73714 0
M  V30 1196 H 109.102 -0.850147 -3.15341 0
M  V30 1197 H 107.761 -2.82164 -2.3405 0
M  V30 1198 H 107.409 -1.92321 -4.64781 0
M  V30 1199 H 107.109 -3.67802 -4.58253 0
M  V30 1200 H 108.633 -3.06218 -5.28264 0
M  V30 1201 H 110.047 -4.5133 -3.53517 0
M  V30 1202 H 108.444 -5.15493 -3.07225 0
M  V30 1203 H 109.514 -4.49321 -1.82316 0
M  V30 1204 N 110.857 0.726932 -1.39834 0
M  V30 1205 C 112.085 1.51613 -1.40787 0
M  V30 1206 C 112.5 1.88799 -0.00451505 0
M  V30 1207 O 111.857 1.54662 0.968809 0
M  V30 1208 C 111.908 2.79863 -2.28821 0
M  V30 1209 O 111.629 2.44253 -3.63692 0
M  V30 1210 C 113.13 3.73837 -2.38245 0
M  V30 1211 H 110.35 0.468264 -0.480593 0
M  V30 1212 H 112.894 0.897607 -1.83748 0
M  V30 1213 H 111.049 3.38027 -1.89252 0
M  V30 1214 H 111.463 3.26695 -4.1033 0
M  V30 1215 H 112.937 4.60699 -3.04073 0
M  V30 1216 H 113.414 4.16153 -1.40403 0
M  V30 1217 H 114.02 3.21589 -2.78317 0
M  V30 1218 N 112.336 1.25143 0.95797 0
M  V30 1219 C 113.266 1.07711 2.07173 0
M  V30 1220 C 114.247 -0.0128462 1.70095 0
M  V30 1221 O 115.432 0.156061 1.93572 0
M  V30 1222 C 112.562 0.691503 3.40346 0
M  V30 1223 C 111.516 1.73132 3.9142 0
M  V30 1224 C 110.842 1.20049 5.21049 0
M  V30 1225 C 112.142 3.1294 4.1817 0
M  V30 1226 H 113.836 2.00873 2.22014 0
M  V30 1227 H 111.382 0.967191 1.06684 0
M  V30 1228 H 113.335 0.556505 4.17709 0
M  V30 1229 H 112.059 -0.275819 3.25433 0
M  V30 1230 H 110.718 1.8547 3.16222 0
M  V30 1231 H 110.366 0.223499 5.02503 0
M  V30 1232 H 110.066 1.89545 5.56189 0
M  V30 1233 H 111.59 1.07782 6.01012 0
M  V30 1234 H 113.004 3.03775 4.86203 0
M  V30 1235 H 111.401 3.79875 4.64559 0
M  V30 1236 H 112.471 3.6025 3.24573 0
M  V30 1237 N 113.814 -1.1601 1.06675 0
M  V30 1238 C 114.724 -2.24156 0.692179 0
M  V30 1239 C 115.74 -1.71507 -0.293513 0
M  V30 1240 O 116.916 -2.009 -0.141861 0
M  V30 1241 C 113.981 -3.46587 0.0884131 0
M  V30 1242 C 113.042 -4.14257 1.12646 0
M  V30 1243 C 112.275 -5.30844 0.551416 0
M  V30 1244 O 112.498 -5.66858 -0.634656 0
M  V30 1245 O 111.432 -5.87848 1.29298 0
M  V30 1246 H 115.258 -2.58513 1.59388 0
M  V30 1247 H 112.843 -1.23599 0.83926 0
M  V30 1248 H 114.725 -4.20679 -0.246361 0
M  V30 1249 H 113.4 -3.13994 -0.786712 0
M  V30 1250 H 112.307 -3.42118 1.51348 0
M  V30 1251 H 113.64 -4.50914 1.97325 0
M  V30 1252 N 115.292 -0.849877 -1.32721 0
M  V30 1253 C 116.224 -0.248332 -2.27851 0
M  V30 1254 C 117.237 0.577218 -1.52224 0
M  V30 1255 O 118.426 0.402489 -1.73903 0
M  V30 1256 C 115.526 0.668107 -3.32249 0
M  V30 1257 C 114.699 -0.120534 -4.37234 0
M  V30 1258 C 113.758 0.720932 -5.21238 0
M  V30 1259 O 112.784 0.156166 -5.68986 0
M  V30 1260 N 113.986 2.03647 -5.43607 0
M  V30 1261 H 116.751 -1.06575 -2.80111 0
M  V30 1262 H 114.312 -0.709395 -1.45531 0
M  V30 1263 H 116.304 1.23627 -3.85355 0
M  V30 1264 H 114.874 1.38621 -2.80184 0
M  V30 1265 H 114.094 -0.870108 -3.84477 0
M  V30 1266 H 115.382 -0.662406 -5.0447 0
M  V30 1267 H 114.78 2.51871 -5.06535 0
M  V30 1268 H 113.337 2.55287 -5.99727 0
M  V30 1269 N 116.77 1.45427 -0.607355 0
M  V30 1270 C 118.181 1.85756 -0.187535 0
M  V30 1271 C 118.532 1.5077 1.25551 0
M  V30 1272 O 117.657 0.93427 1.95193 0
M  V30 1273 C 118.252 3.37154 -0.333572 0
M  V30 1274 C 116.811 3.76387 0.0315542 0
M  V30 1275 C 115.958 2.69377 -0.658117 0
M  V30 1276 H 118.909 1.36231 -0.81405 0
M  V30 1277 H 118.93 3.78014 0.43428 0
M  V30 1278 H 118.442 3.62586 -1.38393 0
M  V30 1279 H 116.543 3.56571 1.0811 0
M  V30 1280 H 116.656 4.77731 -0.361935 0
M  V30 1281 H 115.02 2.5452 -0.0957873 0
M  V30 1282 H 115.803 2.97646 -1.7106 0
M  V30 1283 N 118.248 0.346503 1.53744 0
M  V30 1284 C 119.18 -0.543316 2.22667 0
M  V30 1285 C 120.193 -1.06159 1.23427 0
M  V30 1286 O 121.382 -0.971235 1.49764 0
M  V30 1287 C 118.482 -1.76076 2.89569 0
M  V30 1288 C 117.655 -1.37727 4.15151 0
M  V30 1289 C 116.714 -2.45471 4.65436 0
M  V30 1290 O 115.74 -2.08655 5.29577 0
M  V30 1291 N 116.942 -3.7677 4.41616 0
M  V30 1292 H 119.707 0.0469703 2.99663 0
M  V30 1293 H 117.268 0.170766 1.60997 0
M  V30 1294 H 119.26 -2.47593 3.20125 0
M  V30 1295 H 117.83 -2.25835 2.16142 0
M  V30 1296 H 117.05 -0.492746 3.91108 0
M  V30 1297 H 118.338 -1.09708 4.96832 0
M  V30 1298 H 117.736 -4.09467 3.90325 0
M  V30 1299 H 116.293 -4.44448 4.7677 0
M  V30 1300 N 119.726 -1.57421 0.075193 0
M  V30 1301 C 120.974 -1.93236 -0.591974 0
M  V30 1302 C 121.295 -0.956241 -1.69944 0
M  V30 1303 O 120.565 -0.00494792 -1.95899 0
M  V30 1304 H 119.145 -0.713355 -0.22166 0
M  V30 1305 H 121.807 -1.9444 0.133848 0
M  V30 1306 H 120.903 -2.95131 -1.01509 0
M  V30 1307 N 121.204 0.198386 -1.56346 0
M  V30 1308 C 122.481 0.944982 -1.71258 0
M  V30 1309 C 122.861 2.0151 -0.629048 0
M  V30 1310 O 122.209 2.25639 0.360473 0
M  V30 1311 C 122.419 1.5344 -3.1346 0
M  V30 1312 C 123.767 2.01778 -3.73591 0
M  V30 1313 O 124.791 1.63288 -3.16568 0
M  V30 1314 O 123.65 2.72594 -4.73661 0
M  V30 1315 H 120.744 0.442939 -0.69838 0
M  V30 1316 H 123.29 0.188342 -1.68652 0
M  V30 1317 H 122.062 0.762869 -3.83792 0
M  V30 1318 H 121.685 2.35596 -3.20282 0
M  V30 1319 N 122.682 1.50554 0.465978 0
M  V30 1320 C 123.907 1.65838 1.24549 0
M  V30 1321 C 124.332 0.343486 1.84937 0
M  V30 1322 O 123.69 -0.69324 1.67523 0
M  V30 1323 C 123.738 2.75533 2.32624 0
M  V30 1324 O 122.842 2.37142 3.37398 0
M  V30 1325 H 122.183 0.553893 0.366194 0
M  V30 1326 H 124.713 1.96959 0.553927 0
M  V30 1327 H 124.723 2.98763 2.77857 0
M  V30 1328 H 123.398 3.70962 1.88043 0
M  V30 1329 H 121.975 2.24377 2.97841 0
M  V30 1330 N 124.16 -0.719506 1.40217 0
M  V30 1331 C 125.093 -1.84298 1.34571 0
M  V30 1332 C 126.071 -1.61149 0.216741 0
M  V30 1333 O 127.255 -1.84212 0.399756 0
M  V30 1334 C 124.382 -3.20568 1.09335 0
M  V30 1335 C 123.428 -3.62551 2.24631 0
M  V30 1336 S 124.261 -3.7012 3.87004 0
M  V30 1337 C 125.417 -5.09154 3.64024 0
M  V30 1338 H 125.65 -1.88807 2.2965 0
M  V30 1339 H 123.183 -0.885901 1.26456 0
M  V30 1340 H 125.141 -3.99246 0.954602 0
M  V30 1341 H 123.802 -3.13696 0.159164 0
M  V30 1342 H 122.995 -4.61483 2.02606 0
M  V30 1343 H 122.597 -2.91119 2.34789 0
M  V30 1344 H 124.889 -5.95955 3.22248 0
M  V30 1345 H 125.832 -5.36213 4.62473 0
M  V30 1346 H 126.24 -4.79562 2.97793 0
M  V30 1347 N 125.638 -1.25649 -0.95132 0
M  V30 1348 C 126.571 -1.00644 -2.04807 0
M  V30 1349 C 127.549 0.0654271 -1.62468 0
M  V30 1350 O 128.733 -0.074911 -1.88351 0
M  V30 1351 C 125.86 -0.522052 -3.34653 0
M  V30 1352 C 124.906 -1.58495 -3.95957 0
M  V30 1353 S 125.739 -3.17108 -4.31512 0
M  V30 1354 C 126.895 -2.70412 -5.64471 0
M  V30 1355 H 127.128 -1.93508 -2.25703 0
M  V30 1356 H 124.661 -1.09216 -1.09139 0
M  V30 1357 H 126.619 -0.24923 -4.09743 0
M  V30 1358 H 125.28 0.386146 -3.11717 0
M  V30 1359 H 124.473 -1.1968 -4.89584 0
M  V30 1360 H 124.075 -1.80862 -3.2736 0
M  V30 1361 H 126.367 -2.14245 -6.42733 0
M  V30 1362 H 127.31 -3.62693 -6.08161 0
M  V30 1363 H 127.718 -2.10302 -5.23864 0
M  V30 1364 N 127.117 1.15442 -1.07289 0
M  V30 1365 C 128.345 1.90096 -0.81676 0
M  V30 1366 C 128.76 1.7798 0.629966 0
M  V30 1367 O 128.117 1.1313 1.43206 0
M  V30 1368 C 128.168 3.40466 -1.21512 0
M  V30 1369 O 127.889 3.52232 -2.60508 0
M  V30 1370 C 129.39 4.32145 -0.988198 0
M  V30 1371 H 126.61 0.602495 -0.295366 0
M  V30 1372 H 129.154 1.4627 -1.42918 0
M  V30 1373 H 127.309 3.81958 -0.647039 0
M  V30 1374 H 127.723 4.45549 -2.76742 0
M  V30 1375 H 129.197 5.36072 -1.31645 0
M  V30 1376 H 129.674 4.39135 0.0755063 0
M  V30 1377 H 130.28 3.96395 -1.54115 0
M  V30 1378 N 128.595 0.856903 1.32268 0
M  V30 1379 C 129.835 0.467705 1.98977 0
M  V30 1380 C 130.199 -0.959231 1.66321 0
M  V30 1381 O 131.4 -1.4531 2.26138 0
M  V30 1382 C 129.671 0.70256 3.50427 0
M  V30 1383 S 131.23 0.411269 4.36868 0
M  V30 1384 H 128.048 0.175121 0.689096 0
M  V30 1385 H 130.65 1.1101 1.60925 0
M  V30 1386 H 129.354 1.74012 3.71683 0
M  V30 1387 H 128.885 0.0466707 3.93372 0
M  V30 1388 H 130.9 -0.761799 4.90317 0
M  V30 1389 N 130.073 -1.45103 0.615059 0
M  V30 1390 C 130.983 -2.34382 -0.101034 0
M  V30 1391 C 131.999 -1.51681 -0.852585 0
M  V30 1392 O 133.175 -1.8446 -0.808484 0
M  V30 1393 C 130.24 -3.29417 -1.08099 0
M  V30 1394 C 129.301 -4.28025 -0.330577 0
M  V30 1395 C 128.534 -5.1852 -1.26385 0
M  V30 1396 O 128.757 -5.12598 -2.50198 0
M  V30 1397 O 127.691 -5.97122 -0.756866 0
M  V30 1398 H 131.517 -2.97033 0.632855 0
M  V30 1399 H 129.102 -1.4461 0.375293 0
M  V30 1400 H 130.984 -3.87958 -1.6452 0
M  V30 1401 H 129.659 -2.69321 -1.79577 0
M  V30 1402 H 128.566 -3.73078 0.276283 0
M  V30 1403 H 129.899 -4.90997 0.343866 0
M  V30 1404 N 131.551 -0.354651 -1.53558 0
M  V30 1405 C 132.483 0.5315 -2.22952 0
M  V30 1406 C 133.496 1.05503 -1.23988 0
M  V30 1407 O 134.685 0.963279 -1.50277 0
M  V30 1408 C 131.785 1.74538 -2.90499 0
M  V30 1409 C 130.958 1.35524 -4.15875 0
M  V30 1410 C 130.017 2.42999 -4.66731 0
M  V30 1411 O 129.043 2.05844 -5.30676 0
M  V30 1412 N 130.245 3.74423 -4.43608 0
M  V30 1413 H 133.01 -0.0628615 -2.99634 0
M  V30 1414 H 130.571 -0.179302 -1.60904 0
M  V30 1415 H 132.563 2.45892 -3.21433 0
M  V30 1416 H 131.133 2.24686 -2.17336 0
M  V30 1417 H 130.353 0.471998 -3.91364 0
M  V30 1418 H 131.641 1.07071 -4.97406 0
M  V30 1419 H 131.039 4.07391 -3.92491 0
M  V30 1420 H 129.596 4.41913 -4.7912 0
M  V30 1421 N 133.029 1.57378 -0.0835403 0
M  V30 1422 C 133.992 2.12252 0.864959 0
M  V30 1423 C 134.992 1.04916 1.21858 0
M  V30 1424 O 136.182 1.30853 1.14991 0
M  V30 1425 C 133.314 2.63358 2.16461 0
M  V30 1426 H 134.507 2.97371 0.388676 0
M  V30 1427 H 132.06 1.55423 0.165317 0
M  V30 1428 H 132.795 1.81727 2.686 0
M  V30 1429 H 132.58 3.41826 1.92087 0
M  V30 1430 H 134.07 3.05847 2.84337 0
M  V30 1431 N 134.507 -0.190092 1.56449 0
M  V30 1432 C 135.439 -1.25973 1.91477 0
M  V30 1433 C 136.452 -1.41452 0.805931 0
M  V30 1434 O 137.641 -1.41789 1.08435 0
M  V30 1435 C 134.741 -2.63117 2.13594 0
M  V30 1436 C 133.914 -2.69182 3.4476 0
M  V30 1437 C 132.973 -3.87557 3.5593 0
M  V30 1438 O 131.999 -3.74427 4.28711 0
M  V30 1439 N 133.201 -5.03224 2.89388 0
M  V30 1440 H 135.966 -0.962394 2.83828 0
M  V30 1441 H 133.527 -0.379981 1.57378 0
M  V30 1442 H 135.519 -3.40742 2.1835 0
M  V30 1443 H 134.089 -2.85319 1.27719 0
M  V30 1444 H 133.309 -1.77793 3.51828 0
M  V30 1445 H 134.597 -2.70229 4.31107 0
M  V30 1446 H 133.995 -5.16791 2.30094 0
M  V30 1447 H 132.552 -5.78778 2.99764 0
M  V30 1448 N 135.985 -1.50799 -0.457987 0
M  V30 1449 C 136.915 -1.73553 -1.5621 0
M  V30 1450 C 137.896 -0.584774 -1.59732 0
M  V30 1451 O 139.081 -0.825314 -1.7579 0
M  V30 1452 C 136.211 -1.84169 -2.94447 0
M  V30 1453 C 135.165 -2.99461 -3.0579 0
M  V30 1454 C 134.491 -2.95235 -4.45803 0
M  V30 1455 C 135.791 -4.39766 -2.81786 0
M  V30 1456 H 137.485 -2.66 -1.37421 0
M  V30 1457 H 135.031 -1.28002 -0.659662 0
M  V30 1458 H 136.984 -1.98672 -3.71628 0
M  V30 1459 H 135.708 -0.883545 -3.14422 0
M  V30 1460 H 134.367 -2.8463 -2.31044 0
M  V30 1461 H 134.015 -1.97239 -4.62715 0
M  V30 1462 H 133.715 -3.72642 -4.54326 0
M  V30 1463 H 135.239 -3.11803 -5.24987 0
M  V30 1464 H 136.653 -4.55054 -3.4871 0
M  V30 1465 H 135.05 -5.18722 -3.0174 0
M  V30 1466 H 136.12 -4.51229 -1.7754 0
M  V30 1467 N 137.463 0.71206 -1.40597 0
M  V30 1468 C 138.393 1.83889 -1.43899 0
M  V30 1469 C 139.374 1.67442 -0.299504 0
M  V30 1470 O 140.559 1.87421 -0.508624 0
M  V30 1471 C 137.689 3.21877 -1.30431 0
M  V30 1472 C 136.643 3.53002 -2.42019 0
M  V30 1473 C 135.969 4.90172 -2.13626 0
M  V30 1474 C 137.269 3.53643 -3.84362 0
M  V30 1475 H 138.963 1.81383 -2.38203 0
M  V30 1476 H 136.509 0.871237 -1.14654 0
M  V30 1477 H 138.462 4.00404 -1.31357 0
M  V30 1478 H 137.186 3.24968 -0.326049 0
M  V30 1479 H 135.845 2.76818 -2.40349 0
M  V30 1480 H 135.493 4.89869 -1.14182 0
M  V30 1481 H 135.193 5.11962 -2.88389 0
M  V30 1482 H 136.717 5.71028 -2.1624 0
M  V30 1483 H 138.131 4.22203 -3.87837 0
M  V30 1484 H 136.528 3.86961 -4.58673 0
M  V30 1485 H 137.598 2.52954 -4.13693 0
M  V30 1486 N 138.941 1.26152 0.944643 0
M  V30 1487 C 139.904 1.07474 2.0244 0
M  V30 1488 C 140.904 0.0242064 1.60782 0
M  V30 1489 O 142.094 0.267302 1.72137 0
M  V30 1490 C 139.226 0.633956 3.34953 0
M  V30 1491 H 140.419 2.03336 2.20442 0
M  V30 1492 H 137.972 1.087 1.12312 0
M  V30 1493 H 138.707 -0.326811 3.22649 0
M  V30 1494 H 138.492 1.39247 3.66542 0
M  V30 1495 H 139.982 0.52501 4.14287 0
M  V30 1496 N 140.419 -1.14872 1.07899 0
M  V30 1497 C 141.367 -2.21857 0.698727 0
M  V30 1498 C 142.361 -1.66845 -0.293086 0
M  V30 1499 O 143.567 -1.79321 -0.156204 0
M  V30 1500 H 139.942 -0.722691 0.207899 0
M  V30 1501 H 141.913 -2.51205 1.61054 0
M  V30 1502 C 140.662 -3.47498 0.11858 0
M  V30 1503 H 139.985 -3.90154 0.872914 0
M  V30 1504 H 141.425 -4.23858 -0.109759 0
M  V30 1505 C 139.884 -3.16947 -1.1422 0
M  V30 1506 O 140.414 -3.3426 -2.22785 0
M  V30 1507 N 138.62 -2.70946 -1.05055 0
M  V30 1508 H 138.167 -2.57058 -0.167038 0
M  V30 1509 H 138.125 -2.50879 -1.89491 0
M  V30 1510 N 141.898 -0.863906 -1.31812 0
M  V30 1511 C 142.828 -0.330843 -2.31144 0
M  V30 1512 C 143.809 0.575005 -1.60087 0
M  V30 1513 O 144.994 0.493304 -1.8783 0
M  V30 1514 C 142.124 0.47374 -3.44054 0
M  V30 1515 C 141.078 -0.338481 -4.26659 0
M  V30 1516 C 140.404 0.591412 -5.31419 0
M  V30 1517 C 141.704 -1.56926 -4.98168 0
M  V30 1518 H 143.398 -1.16086 -2.75979 0
M  V30 1519 H 140.944 -0.559657 -1.32679 0
M  V30 1520 H 142.897 0.857143 -4.12591 0
M  V30 1521 H 141.621 1.33721 -2.9797 0
M  V30 1522 H 140.28 -0.703754 -3.59782 0
M  V30 1523 H 139.928 1.45199 -4.81587 0
M  V30 1524 H 139.628 0.0519022 -5.87577 0
M  V30 1525 H 141.152 0.97179 -6.02817 0
M  V30 1526 H 142.566 -1.25764 -5.59336 0
M  V30 1527 H 140.963 -2.04739 -5.64094 0
M  V30 1528 H 142.033 -2.32544 -4.25501 0
M  V30 1529 N 143.376 1.44774 -0.622745 0
M  V30 1530 C 144.339 2.29069 0.0774015 0
M  V30 1531 C 145.339 1.4059 0.780461 0
M  V30 1532 O 146.529 1.62551 0.626322 0
M  V30 1533 C 143.661 3.21974 1.12006 0
M  V30 1534 H 144.854 2.92459 -0.663901 0
M  V30 1535 H 142.407 1.51548 -0.382486 0
M  V30 1536 H 143.142 2.63417 1.89162 0
M  V30 1537 H 142.927 3.87168 0.619951 0
M  V30 1538 H 144.417 3.85318 1.60995 0
M  V30 1539 N 144.854 0.36279 1.53368 0
M  V30 1540 C 146.27 0.0116182 1.59596 0
M  V30 1541 C 146.47 -1.47012 1.37803 0
M  V30 1542 O 145.526 -2.23136 1.18181 0
M  V30 1543 C 146.839 0.465052 2.97082 0
M  V30 1544 C 148.387 0.419033 3.10182 0
M  V30 1545 C 148.862 0.848235 4.50077 0
M  V30 1546 N 150.353 0.803183 4.56183 0
M  V30 1547 C 151.088 1.107 5.62613 0
M  V30 1548 N 150.584 1.47996 6.76808 0
M  V30 1549 N 152.377 1.02998 5.52583 0
M  V30 1550 H 144.528 1.32775 1.65785 0
M  V30 1551 H 146.791 0.542518 0.777417 0
M  V30 1552 H 146.497 1.49892 3.18159 0
M  V30 1553 H 146.371 -0.149786 3.76902 0
M  V30 1554 H 148.758 -0.605696 2.88817 0
M  V30 1555 H 148.839 1.06933 2.32377 0
M  V30 1556 H 148.483 1.87107 4.7218 0
M  V30 1557 H 148.413 0.175218 5.26308 0
M  V30 1558 H 150.904 0.52838 3.74188 0
M  V30 1559 H 151.217 1.69613 7.53957 0
M  V30 1560 H 149.562 1.51859 6.78206 0
M  V30 1561 H 152.753 0.737817 4.62249 0
M  V30 1562 H 152.926 1.2701 6.35431 0
M  V30 1563 N 146.332 -1.57332 0.0918853 0
M  V30 1564 C 147.262 -2.16872 -0.865371 0
M  V30 1565 C 148.243 -1.10118 -1.29646 0
M  V30 1566 O 149.428 -1.38242 -1.36392 0
M  V30 1567 C 146.558 -2.74649 -2.12569 0
M  V30 1568 C 145.512 -3.86747 -1.83333 0
M  V30 1569 C 144.838 -4.31212 -3.16166 0
M  V30 1570 C 146.138 -5.10089 -1.1228 0
M  V30 1571 H 147.832 -2.97114 -0.369307 0
M  V30 1572 H 145.378 -1.42918 -0.176194 0
M  V30 1573 H 147.331 -3.14952 -2.7997 0
M  V30 1574 H 146.055 -1.91657 -2.64452 0
M  V30 1575 H 144.714 -3.46978 -1.18331 0
M  V30 1576 H 144.362 -3.45115 -3.6593 0
M  V30 1577 H 144.062 -5.06788 -2.97388 0
M  V30 1578 H 145.586 -4.74146 -3.84731 0
M  V30 1579 H 147 -5.47582 -1.69785 0
M  V30 1580 H 145.397 -5.91073 -1.03693 0
M  V30 1581 H 146.467 -4.84786 -0.105041 0
M  V30 1582 N 147.81 0.181792 -1.56548 0
M  V30 1583 C 149.059 0.898348 -1.8059 0
M  V30 1584 C 149.372 1.83862 -0.667379 0
M  V30 1585 O 150.578 2.59678 -0.792446 0
M  V30 1586 C 149.034 1.64791 -3.19956 0
M  V30 1587 C 148.642 0.751789 -4.41647 0
M  V30 1588 C 150.386 2.35331 -3.53298 0
M  V30 1589 C 148.293 1.50098 -5.72035 0
M  V30 1590 H 147.223 0.339194 -0.673397 0
M  V30 1591 H 149.874 0.151413 -1.82874 0
M  V30 1592 H 148.256 2.43921 -3.11959 0
M  V30 1593 H 149.43 -0.0018076 -4.608 0
M  V30 1594 H 147.745 0.156562 -4.16106 0
M  V30 1595 H 150.342 2.91958 -4.47956 0
M  V30 1596 H 150.685 3.10164 -2.77676 0
M  V30 1597 H 151.218 1.63154 -3.62803 0
M  V30 1598 H 147.957 0.795175 -6.50659 0
M  V30 1599 H 147.477 2.22817 -5.56878 0
M  V30 1600 H 149.156 2.05125 -6.13622 0
M  V30 1601 N 149.288 1.51039 0.449983 0
M  V30 1602 C 150.22 1.67617 1.56324 0
M  V30 1603 C 151.233 0.557083 1.52972 0
M  V30 1604 O 152.422 0.830989 1.57977 0
M  V30 1605 C 149.522 1.66402 2.95235 0
M  V30 1606 C 148.695 2.9469 3.23229 0
M  V30 1607 C 147.754 2.85832 4.41799 0
M  V30 1608 O 146.78 3.59785 4.41071 0
M  V30 1609 N 147.982 2.00821 5.44657 0
M  V30 1610 H 150.747 2.63648 1.42512 0
M  V30 1611 H 148.308 1.48767 0.638737 0
M  V30 1612 H 150.3 1.58062 3.72557 0
M  V30 1613 H 148.87 0.780182 3.02708 0
M  V30 1614 H 148.09 3.16996 2.34323 0
M  V30 1615 H 149.378 3.79636 3.38754 0
M  V30 1616 H 148.776 1.40091 5.48079 0
M  V30 1617 H 147.333 1.98368 6.20881 0
M  V30 1618 N 150.766 -0.704594 1.40972 0
M  V30 1619 C 151.729 -1.80035 1.41845 0
M  V30 1620 C 152.729 -1.57774 0.310474 0
M  V30 1621 O 153.919 -1.64613 0.56992 0
M  V30 1622 C 151.051 -3.18284 1.22098 0
M  V30 1623 H 152.244 -1.80658 2.3938 0
M  V30 1624 H 149.797 -0.911329 1.26982 0
M  V30 1625 H 150.532 -3.23306 0.253672 0
M  V30 1626 H 150.317 -3.35843 2.02366 0
M  V30 1627 H 151.807 -3.98289 1.25522 0
M  V30 1628 N 152.244 -1.26651 -0.937939 0
M  V30 1629 C 153.191 -1.0849 -2.03712 0
M  V30 1630 C 154.161 0.011033 -1.66096 0
M  V30 1631 O 155.346 -0.149353 -1.90215 0
M  V30 1632 C 152.486 -0.72735 -3.37348 0
M  V30 1633 C 151.599 -1.89986 -3.87981 0
M  V30 1634 C 150.734 -1.48513 -5.10017 0
M  V30 1635 C 149.773 -2.62575 -5.5292 0
M  V30 1636 N 148.91 -2.21762 -6.66158 0
M  V30 1637 H 153.75 -2.02551 -2.18579 0
M  V30 1638 H 151.287 -1.00844 -1.07093 0
M  V30 1639 H 153.245 -0.50092 -4.14182 0
M  V30 1640 H 151.875 0.176298 -3.22318 0
M  V30 1641 H 150.927 -2.23913 -3.07518 0
M  V30 1642 H 152.239 -2.75586 -4.15757 0
M  V30 1643 H 151.393 -1.21934 -5.94321 0
M  V30 1644 H 150.132 -0.60009 -4.83994 0
M  V30 1645 H 149.137 -2.8988 -4.67172 0
M  V30 1646 H 150.362 -3.51685 -5.80943 0
M  V30 1647 H 148.308 -1.35696 -6.41812 0
M  V30 1648 H 148.225 -3.00903 -6.93537 0
M  V30 1649 H 149.493 -1.98403 -7.53828 0
M  V30 1650 N 153.722 1.14298 -1.08507 0
M  V30 1651 C 154.669 2.19414 -0.715965 0
M  V30 1652 C 155.639 1.63399 0.298326 0
M  V30 1653 O 156.824 1.89929 0.182101 0
M  V30 1654 C 153.964 3.44845 -0.132534 0
M  V30 1655 C 153.077 4.15007 -1.19973 0
M  V30 1656 C 152.212 5.28024 -0.580048 0
M  V30 1657 C 151.251 5.9002 -1.62921 0
M  V30 1658 N 150.388 6.94485 -1.03125 0
M  V30 1659 H 155.228 2.50336 -1.61666 0
M  V30 1660 H 152.765 1.2293 -0.807882 0
M  V30 1661 H 154.723 4.16601 0.223454 0
M  V30 1662 H 153.353 3.14403 0.731467 0
M  V30 1663 H 152.405 3.41629 -1.67313 0
M  V30 1664 H 153.717 4.57178 -1.99473 0
M  V30 1665 H 152.871 6.06455 -0.172364 0
M  V30 1666 H 151.61 4.87076 0.246603 0
M  V30 1667 H 150.615 5.10291 -2.04654 0
M  V30 1668 H 151.84 6.33042 -2.45835 0
M  V30 1669 H 149.786 6.55612 -0.225711 0
M  V30 1670 H 149.703 7.35148 -1.76334 0
M  V30 1671 H 150.971 7.7679 -0.649458 0
M  V30 1672 N 155.201 0.870884 1.31352 0
M  V30 1673 C 156.164 0.332243 2.26779 0
M  V30 1674 C 157.164 -0.517302 1.52252 0
M  V30 1675 O 158.354 -0.326477 1.71113 0
M  V30 1676 C 155.486 -0.528066 3.36785 0
M  V30 1677 H 156.679 1.17469 2.75937 0
M  V30 1678 H 154.232 0.64655 1.423 0
M  V30 1679 H 154.967 -1.39167 2.92922 0
M  V30 1680 H 154.752 0.0802582 3.92018 0
M  V30 1681 H 156.242 -0.897179 4.07849 0
M  V30 1682 N 156.679 -1.44442 0.630414 0
M  V30 1683 C 157.609 -2.33418 -0.0618083 0
M  V30 1684 C 158.59 -1.48165 -0.835541 0
M  V30 1685 O 159.775 -1.76886 -0.801564 0
M  V30 1686 C 156.905 -3.31222 -1.04449 0
M  V30 1687 C 155.859 -4.26288 -0.382436 0
M  V30 1688 C 155.185 -5.13954 -1.47497 0
M  V30 1689 C 156.485 -5.1744 0.710865 0
M  V30 1690 H 158.179 -2.91548 0.681184 0
M  V30 1691 H 155.725 -1.40191 0.329026 0
M  V30 1692 H 157.678 -3.92351 -1.53748 0
M  V30 1693 H 156.402 -2.71299 -1.81836 0
M  V30 1694 H 155.061 -3.6649 0.0899054 0
M  V30 1695 H 154.709 -4.50385 -2.2397 0
M  V30 1696 H 154.409 -5.7837 -1.03737 0
M  V30 1697 H 155.933 -5.77955 -1.96979 0
M  V30 1698 H 157.347 -5.72509 0.300996 0
M  V30 1699 H 155.744 -5.90455 1.07156 0
M  V30 1700 H 156.814 -4.58496 1.57829 0
M  V30 1701 N 158.157 -0.370918 -1.53173 0
M  V30 1702 C 159.434 0.273754 -1.93675 0
M  V30 1703 C 159.814 1.65938 -1.3049 0
M  V30 1704 O 159.162 2.23698 -0.465999 0
M  V30 1705 C 159.372 0.318602 -3.47543 0
M  V30 1706 C 160.72 0.556392 -4.20939 0
M  V30 1707 O 161.744 0.399587 -3.53952 0
M  V30 1708 O 160.603 0.862133 -5.39657 0
M  V30 1709 H 157.697 0.165448 -0.810281 0
M  V30 1710 H 160.243 -0.42409 -1.64315 0
M  V30 1711 H 159.015 -0.652687 -3.85818 0
M  V30 1712 H 158.638 1.06212 -3.83151 0
M  V30 1713 N 159.635 1.57281 -0.100228 0
M  V30 1714 C 160.565 2.17328 0.853857 0
M  V30 1715 C 161.546 1.10804 1.2906 0
M  V30 1716 O 162.731 1.38963 1.35657 0
M  V30 1717 C 159.861 2.75772 2.11109 0
M  V30 1718 C 158.815 3.87713 1.81279 0
M  V30 1719 C 158.141 4.32882 3.13874 0
M  V30 1720 C 159.441 5.10677 1.09574 0
M  V30 1721 H 161.135 2.97305 0.353545 0
M  V30 1722 H 158.681 1.43009 0.168612 0
M  V30 1723 H 160.634 3.16433 2.78296 0
M  V30 1724 H 159.358 1.93057 2.63432 0
M  V30 1725 H 158.017 3.476 1.16489 0
M  V30 1726 H 157.665 3.47051 3.64095 0
M  V30 1727 H 157.365 5.08358 2.94696 0
M  V30 1728 H 158.889 4.7618 3.82211 0
M  V30 1729 H 160.303 5.48474 1.66879 0
M  V30 1730 H 158.7 5.91615 1.00557 0
M  V30 1731 H 159.77 4.84835 0.0793299 0
M  V30 1732 N 161.113 -0.173488 1.56642 0
M  V30 1733 C 162.361 -0.888706 1.81512 0
M  V30 1734 C 162.682 -1.82875 0.676872 0
M  V30 1735 O 161.952 -1.93536 -0.303414 0
M  V30 1736 H 160.532 -0.331164 0.669582 0
M  V30 1737 H 163.194 -0.173823 1.94123 0
M  V30 1738 H 162.29 -1.46691 2.75478 0
M  V30 1739 N 162.591 -1.51276 -0.441967 0
M  V30 1740 C 163.819 -1.67516 -1.21434 0
M  V30 1741 C 164.234 -0.37055 -1.85128 0
M  V30 1742 O 163.591 0.650498 -1.70513 0
M  V30 1743 C 163.642 -2.78748 -2.30177 0
M  V30 1744 O 163.363 -4.04154 -1.69089 0
M  V30 1745 C 164.864 -3.06217 -3.20541 0
M  V30 1746 H 162.084 -0.562276 -0.366178 0
M  V30 1747 H 164.628 -1.97666 -0.524244 0
M  V30 1748 H 162.783 -2.5121 -2.94911 0
M  V30 1749 H 163.197 -4.65894 -2.40922 0
M  V30 1750 H 164.671 -3.8764 -3.92987 0
M  V30 1751 H 165.148 -2.18439 -3.81026 0
M  V30 1752 H 165.754 -3.35397 -2.61513 0
M  V30 1753 N 164.069 0.697108 -1.41344 0
M  V30 1754 C 165.316 1.45714 -1.40619 0
M  V30 1755 C 165.644 1.94494 -0.0147907 0
M  V30 1756 O 164.899 1.69794 0.973066 0
M  V30 1757 C 165.198 2.68553 -2.35826 0
M  V30 1758 C 164.864 2.38438 -3.82698 0
M  V30 1759 C 163.526 2.29936 -4.22709 0
M  V30 1760 C 165.878 2.13567 -4.75435 0
M  V30 1761 C 163.206 1.94656 -5.53467 0
M  V30 1762 C 165.558 1.79797 -6.06511 0
M  V30 1763 C 164.222 1.69789 -6.45545 0
M  V30 1764 H 163.492 0.533206 -0.51456 0
M  V30 1765 H 166.139 0.796901 -1.74131 0
M  V30 1766 H 164.444 3.39503 -1.95563 0
M  V30 1767 H 166.141 3.2669 -2.32539 0
M  V30 1768 H 162.731 2.4595 -3.51008 0
M  V30 1769 H 166.915 2.19082 -4.45328 0
M  V30 1770 H 162.171 1.8546 -5.82593 0
M  V30 1771 H 166.345 1.59572 -6.77872 0
M  V30 1772 H 163.972 1.4222 -7.46778 0
M  V30 1773 N 165.547 1.27147 0.931209 0
M  V30 1774 C 166.775 1.16082 1.71267 0
M  V30 1775 C 167.19 -0.282772 1.8667 0
M  V30 1776 O 166.547 -1.19283 1.38122 0
M  V30 1777 C 166.598 1.8358 3.11417 0
M  V30 1778 O 166.319 3.22299 2.96741 0
M  V30 1779 C 167.82 1.78597 4.05732 0
M  V30 1780 H 165.04 0.403758 0.535929 0
M  V30 1781 H 167.584 1.67953 1.16671 0
M  V30 1782 H 165.739 1.35623 3.62885 0
M  V30 1783 H 166.153 3.55851 3.85319 0
M  V30 1784 H 167.627 2.30444 5.01597 0
M  V30 1785 H 168.104 0.754564 4.3267 0
M  V30 1786 H 168.71 2.26152 3.60188 0
M  V30 1787 N 167.025 -1.13721 1.09112 0
M  V30 1788 C 168.273 -1.84559 0.823562 0
M  V30 1789 C 168.594 -1.83754 -0.652658 0
M  V30 1790 O 167.864 -1.29102 -1.47342 0
M  V30 1791 H 166.444 -0.683376 0.301673 0
M  V30 1792 H 169.106 -1.37771 1.37859 0
M  V30 1793 H 168.202 -2.8917 1.17419 0
M  V30 1794 N 168.503 -0.877838 -1.30888 0
M  V30 1795 C 169.733 -0.506678 -2.00291 0
M  V30 1796 C 170.141 0.907449 -1.66018 0
M  V30 1797 O 169.484 1.60719 -0.88967 0
M  V30 1798 C 169.546 -0.59323 -3.54572 0
M  V30 1799 C 169.21 -1.97038 -4.12341 0
M  V30 1800 C 170.207 -2.93889 -4.28865 0
M  V30 1801 C 167.892 -2.27383 -4.47886 0
M  V30 1802 C 169.886 -4.19224 -4.80136 0
M  V30 1803 C 167.573 -3.52965 -4.98857 0
M  V30 1804 C 168.571 -4.48701 -5.14934 0
M  V30 1805 O 168.259 -5.72056 -5.64808 0
M  V30 1806 H 167.991 -0.1951 -0.647234 0
M  V30 1807 H 170.545 -1.18301 -1.6791 0
M  V30 1808 H 168.775 0.140057 -3.86446 0
M  V30 1809 H 170.464 -0.234372 -4.05223 0
M  V30 1810 H 171.23 -2.71756 -4.01714 0
M  V30 1811 H 167.109 -1.53639 -4.34645 0
M  V30 1812 H 170.653 -4.93956 -4.92599 0
M  V30 1813 H 166.55 -3.74939 -5.25443 0
M  V30 1814 H 167.318 -5.74337 -5.83163 0
M  V30 1815 N 169.982 1.44106 -0.638065 0
M  V30 1816 C 171.207 2.0685 -0.150916 0
M  V30 1817 C 171.632 1.47417 1.16833 0
M  V30 1818 O 170.99 0.578264 1.71831 0
M  V30 1819 C 171.038 3.60555 -0.05708 0
M  V30 1820 O 170.142 4.00465 0.984972 0
M  V30 1821 H 169.483 0.658151 -0.0879399 0
M  V30 1822 H 172.013 1.84865 -0.876707 0
M  V30 1823 H 172.023 4.07789 0.131232 0
M  V30 1824 H 170.698 4.03193 -1.02021 0
M  V30 1825 H 169.275 3.64849 0.770672 0
M  V30 1826 N 171.46 0.379036 1.52974 0
M  V30 1827 C 172.423 -0.448865 2.24762 0
M  V30 1828 C 173.423 -0.998689 1.26027 0
M  V30 1829 O 174.613 -0.882313 1.50203 0
M  V30 1830 C 171.745 -1.62872 2.99476 0
M  V30 1831 H 172.938 0.179491 2.99362 0
M  V30 1832 H 170.491 0.13096 1.5575 0
M  V30 1833 H 171.226 -2.29479 2.29151 0
M  V30 1834 H 171.011 -1.24128 3.71934 0
M  V30 1835 H 172.501 -2.2151 3.5401 0
M  V30 1836 N 172.938 -1.57226 0.108567 0
M  V30 1837 C 173.868 -2.17778 -0.84232 0
M  V30 1838 C 174.849 -1.11487 -1.2847 0
M  V30 1839 O 176.034 -1.39681 -1.34918 0
M  V30 1840 C 173.164 -2.76888 -2.09644 0
M  V30 1841 C 172.118 -3.88669 -1.79221 0
M  V30 1842 C 171.444 -4.34541 -3.11574 0
M  V30 1843 C 172.744 -5.11251 -1.06864 0
M  V30 1844 H 174.438 -2.97489 -0.337774 0
M  V30 1845 H 171.984 -1.43097 -0.161025 0
M  V30 1846 H 173.937 -3.17904 -2.76614 0
M  V30 1847 H 172.661 -1.94451 -2.62405 0
M  V30 1848 H 171.32 -3.48213 -1.14644 0
M  V30 1849 H 170.968 -3.48977 -3.62249 0
M  V30 1850 H 170.668 -5.09914 -2.91996 0
M  V30 1851 H 172.192 -4.782 -3.7968 0
M  V30 1852 H 173.606 -5.49352 -1.63968 0
M  V30 1853 H 172.003 -5.9214 -0.974178 0
M  V30 1854 H 173.073 -4.8487 -0.0536168 0
M  V30 1855 N 174.416 0.165178 -1.56732 0
M  V30 1856 C 175.379 1.18822 -1.95995 0
M  V30 1857 C 176.379 1.3685 -0.84431 0
M  V30 1858 O 177.569 1.34152 -1.11126 0
M  V30 1859 C 174.701 2.5521 -2.26011 0
M  V30 1860 H 175.894 0.851825 -2.87548 0
M  V30 1861 H 173.447 0.407857 -1.50885 0
M  V30 1862 H 174.182 2.93852 -1.37191 0
M  V30 1863 H 173.967 2.43489 -3.07336 0
M  V30 1864 H 175.457 3.28927 -2.57288 0
M  V30 1865 N 175.894 1.51508 0.433938 0
M  V30 1866 C 176.824 1.76016 1.53429 0
M  V30 1867 C 177.805 0.610112 1.58782 0
M  V30 1868 O 178.99 0.853177 1.74455 0
M  V30 1869 C 176.12 1.88831 2.9148 0
M  V30 1870 C 175.074 3.04288 3.00987 0
M  V30 1871 C 174.4 3.0229 4.4105 0
M  V30 1872 C 175.7 4.44193 2.74754 0
M  V30 1873 H 177.394 2.68152 1.33171 0
M  V30 1874 H 174.94 1.29035 0.639214 0
M  V30 1875 H 176.893 2.04559 3.6842 0
M  V30 1876 H 175.617 0.933455 3.12976 0
M  V30 1877 H 174.276 2.8827 2.26486 0
M  V30 1878 H 173.924 2.04576 4.59519 0
M  V30 1879 H 173.624 3.79822 4.4834 0
M  V30 1880 H 175.148 3.20116 5.1996 0
M  V30 1881 H 176.562 4.60544 3.41426 0
M  V30 1882 H 174.959 5.23457 2.9345 0
M  V30 1883 H 176.029 4.53996 1.70339 0
M  V30 1884 N 177.372 -0.689602 1.41712 0
M  V30 1885 C 178.335 -1.78521 1.43746 0
M  V30 1886 C 179.335 -1.57436 0.327191 0
M  V30 1887 O 180.525 -1.64 0.587348 0
M  V30 1888 C 177.657 -3.16971 1.25467 0
M  V30 1889 H 178.85 -1.78108 2.41283 0
M  V30 1890 H 176.403 -0.89781 1.27942 0
M  V30 1891 H 177.138 -3.23019 0.287948 0
M  V30 1892 H 176.923 -3.33678 2.05917 0
M  V30 1893 H 178.413 -3.96935 1.2974 0
M  V30 1894 N 178.85 -1.27639 -0.924453 0
M  V30 1895 C 179.78 -1.13166 -2.04244 0
M  V30 1896 C 180.761 -0.032256 -1.70069 0
M  V30 1897 O 181.946 -0.207328 -1.9309 0
M  V30 1898 C 179.076 -0.781496 -3.38393 0
M  V30 1899 C 178.03 -1.83449 -3.86692 0
M  V30 1900 C 177.356 -1.33822 -5.17683 0
M  V30 1901 C 178.656 -3.23917 -4.09726 0
M  V30 1902 H 180.35 -2.06689 -2.1661 0
M  V30 1903 H 177.896 -0.995136 -1.04082 0
M  V30 1904 H 179.849 -0.667057 -4.16087 0
M  V30 1905 H 178.573 0.189439 -3.2605 0
M  V30 1906 H 177.232 -1.93789 -3.11193 0
M  V30 1907 H 176.88 -0.35665 -5.01734 0
M  V30 1908 H 176.58 -2.04224 -5.50968 0
M  V30 1909 H 178.104 -1.23679 -5.97943 0
M  V30 1910 H 179.518 -3.16559 -4.77978 0
M  V30 1911 H 177.915 -3.92059 -4.54324 0
M  V30 1912 H 178.985 -3.68729 -3.14908 0
M  V30 1913 N 180.328 1.1314 -1.09713 0
M  V30 1914 C 181.291 2.16831 -0.742751 0
M  V30 1915 C 182.291 1.59159 0.229129 0
M  V30 1916 O 183.481 1.74199 0.00693237 0
M  V30 1917 C 180.613 3.40756 -0.0989168 0
M  V30 1918 H 181.806 2.49695 -1.66109 0
M  V30 1919 H 179.359 1.2802 -0.896699 0
M  V30 1920 H 180.094 3.13485 0.830514 0
M  V30 1921 H 179.879 3.83888 -0.798265 0
M  V30 1922 H 181.369 4.17386 0.133524 0
M  V30 1923 N 181.806 0.884767 1.30421 0
M  V30 1924 C 182.736 0.367574 2.30589 0
M  V30 1925 C 183.717 -0.549464 1.60981 0
M  V30 1926 O 184.902 -0.46336 1.88591 0
M  V30 1927 C 182.032 -0.418944 3.44764 0
M  V30 1928 C 180.986 0.406316 4.26067 0
M  V30 1929 C 180.312 -0.506793 5.32293 0
M  V30 1930 C 181.612 1.64832 4.95608 0
M  V30 1931 H 183.306 1.20462 2.74097 0
M  V30 1932 H 180.852 0.580695 1.31772 0
M  V30 1933 H 182.805 -0.791395 4.13902 0
M  V30 1934 H 181.529 -1.28964 3.0006 0
M  V30 1935 H 180.188 0.760903 3.58617 0
M  V30 1936 H 179.836 -1.37519 4.83836 0
M  V30 1937 H 179.536 0.0415828 5.87585 0
M  V30 1938 H 181.06 -0.875764 6.04287 0
M  V30 1939 H 182.474 1.34646 5.57264 0
M  V30 1940 H 180.871 2.13688 5.60765 0
M  V30 1941 H 181.941 2.39284 4.21748 0
M  V30 1942 N 183.284 -1.43765 0.645699 0
M  V30 1943 C 184.695 -1.85193 0.236719 0
M  V30 1944 C 185.046 -1.54045 -1.21509 0
M  V30 1945 O 184.171 -0.985694 -1.92647 0
M  V30 1946 C 184.766 -3.36151 0.422845 0
M  V30 1947 C 183.325 -3.76338 0.0682492 0
M  V30 1948 C 182.472 -2.67538 0.729306 0
M  V30 1949 H 185.423 -1.34025 0.849883 0
M  V30 1950 H 185.444 -3.79032 -0.333904 0
M  V30 1951 H 184.956 -3.5879 1.47958 0
M  V30 1952 H 183.057 -3.59312 -0.986179 0
M  V30 1953 H 183.17 -4.76603 0.488469 0
M  V30 1954 H 181.534 -2.54176 0.163235 0
M  V30 1955 H 182.317 -2.93006 1.78892 0
M  V30 1956 N 184.763 -0.387143 -1.52771 0
M  V30 1957 C 185.726 0.436939 -2.24997 0
M  V30 1958 C 186.726 0.991991 -1.26555 0
M  V30 1959 O 187.916 0.874335 -1.50669 0
M  V30 1960 C 185.048 1.61281 -3.00335 0
M  V30 1961 H 186.241 -0.195365 -2.99263 0
M  V30 1962 H 183.794 -0.139218 -1.55679 0
M  V30 1963 H 184.529 2.2826 -2.30364 0
M  V30 1964 H 184.314 1.22154 -3.72587 0
M  V30 1965 H 185.804 2.19629 -3.5518 0
M  V30 1966 N 186.241 1.57166 -0.116904 0
M  V30 1967 C 187.518 1.86645 0.585049 0
M  V30 1968 C 187.898 1.0177 1.84949 0
M  V30 1969 O 187.246 0.0960379 2.28298 0
M  V30 1970 C 187.456 3.37736 0.879507 0
M  V30 1971 C 188.804 4.06289 1.23348 0
M  V30 1972 O 189.828 3.42743 0.969836 0
M  V30 1973 O 188.687 5.18455 1.7282 0
M  V30 1974 H 185.781 0.772593 0.295007 0
M  V30 1975 H 188.327 1.69025 -0.151249 0
M  V30 1976 H 187.099 3.91296 -0.0166136 0
M  V30 1977 H 186.722 3.6078 1.67103 0
M  V30 1978 N 187.719 -0.156864 1.56817 0
M  V30 1979 C 188.967 -0.869404 1.82444 0
M  V30 1980 C 189.288 -1.82147 0.69623 0
M  V30 1981 O 188.558 -1.93847 -0.28287 0
M  V30 1982 H 187.138 -0.324043 0.673056 0
M  V30 1983 H 189.8 -0.153224 1.94297 0
M  V30 1984 H 188.896 -1.43761 2.77019 0
M  V30 1985 N 189.197 -1.51736 -0.425897 0
M  V30 1986 C 190.613 -1.40166 -0.76326 0
M  V30 1987 C 190.813 -0.492962 -1.95377 0
M  V30 1988 O 189.869 0.0475815 -2.52455 0
M  V30 1989 C 191.182 -2.82403 -1.03291 0
M  V30 1990 C 192.73 -2.91632 -1.13665 0
M  V30 1991 C 193.205 -4.34801 -1.43916 0
M  V30 1992 N 194.696 -4.3796 -1.50816 0
M  V30 1993 C 195.431 -5.4578 -1.75817 0
M  V30 1994 N 194.927 -6.63744 -1.98534 0
M  V30 1995 N 196.72 -5.33274 -1.77694 0
M  V30 1996 H 188.871 -2.09361 0.358 0
M  V30 1997 H 191.134 -0.942941 0.0978094 0
M  V30 1998 H 190.84 -3.50943 -0.230696 0
M  V30 1999 H 190.714 -3.22428 -1.95754 0
M  V30 2000 H 193.101 -2.23284 -1.92947 0
M  V30 2001 H 193.182 -2.55088 -0.190756 0
M  V30 2002 H 192.826 -5.03703 -0.65157 0
M  V30 2003 H 192.756 -4.68868 -2.39729 0
M  V30 2004 H 195.247 -3.52919 -1.35118 0
M  V30 2005 H 195.56 -7.41704 -2.17013 0
M  V30 2006 H 193.905 -6.66839 -1.95832 0
M  V30 2007 H 197.096 -4.40098 -1.59473 0
M  V30 2008 H 197.269 -6.1738 -1.9684 0
M  V30 2009 N 190.675 0.682077 -1.42076 0
M  V30 2010 C 191.921 1.44428 -1.42367 0
M  V30 2011 C 192.254 1.94164 -0.0373056 0
M  V30 2012 O 191.529 1.70429 0.937239 0
M  V30 2013 C 191.812 2.64654 -2.44194 0
M  V30 2014 C 191.665 2.20596 -3.91991 0
M  V30 2015 C 192.984 3.66865 -2.431 0
M  V30 2016 H 190.103 0.523834 -0.518428 0
M  V30 2017 H 192.745 0.77576 -1.73442 0
M  V30 2018 H 190.895 3.2169 -2.17826 0
M  V30 2019 H 192.567 1.68783 -4.29313 0
M  V30 2020 H 190.81 1.52242 -4.06208 0
M  V30 2021 H 191.481 3.06921 -4.58807 0
M  V30 2022 H 193.957 3.19531 -2.66532 0
M  V30 2023 H 192.833 4.48577 -3.16339 0
M  V30 2024 H 193.094 4.17493 -1.45437 0
M  V30 2025 N 192.153 1.28127 0.917671 0
M  V30 2026 C 193.399 1.15223 1.66888 0
M  V30 2027 C 193.732 -0.299293 1.9188 0
M  V30 2028 O 193.007 -1.21805 1.51637 0
M  V30 2029 C 193.29 1.94706 3.02922 0
M  V30 2030 C 193.143 3.47898 2.85109 0
M  V30 2031 C 194.462 1.75939 4.03402 0
M  V30 2032 H 191.581 0.419946 0.605652 0
M  V30 2033 H 194.223 1.57398 1.06423 0
M  V30 2034 H 192.373 1.58864 3.54534 0
M  V30 2035 H 194.045 3.93624 2.40537 0
M  V30 2036 H 192.288 3.7373 2.20246 0
M  V30 2037 H 192.959 3.98765 3.81694 0
M  V30 2038 H 195.435 2.07209 3.60837 0
M  V30 2039 H 194.311 2.33931 4.96556 0
M  V30 2040 H 194.572 0.709877 4.36364 0
M  V30 2041 N 193.631 -1.12557 1.10312 0
M  V30 2042 C 194.859 -1.87864 0.866873 0
M  V30 2043 C 195.274 -1.79588 -0.582557 0
M  V30 2044 O 194.631 -1.16887 -1.40156 0
M  V30 2045 C 194.682 -3.37125 1.30496 0
M  V30 2046 O 194.403 -3.45201 2.69755 0
M  V30 2047 C 195.904 -4.29373 1.10243 0
M  V30 2048 H 193.124 -0.594452 0.311236 0
M  V30 2049 H 195.668 -1.42429 1.46745 0
M  V30 2050 H 193.823 -3.80109 0.748081 0
M  V30 2051 H 194.237 -4.38056 2.88457 0
M  V30 2052 H 195.711 -5.32394 1.45811 0
M  V30 2053 H 196.188 -4.39181 0.0409492 0
M  V30 2054 H 196.794 -3.92169 1.64571 0
M  V30 2055 N 195.109 -0.891671 -1.2995 0
M  V30 2056 C 196.349 -0.520296 -1.97667 0
M  V30 2057 C 196.713 0.914797 -1.68806 0
M  V30 2058 O 197.914 1.39263 -2.29911 0
M  V30 2059 C 196.185 -0.795222 -3.48441 0
M  V30 2060 S 197.744 -0.526953 -4.35624 0
M  V30 2061 H 194.562 -0.19333 -0.684211 0
M  V30 2062 H 197.164 -1.15238 -1.57926 0
M  V30 2063 H 195.868 -1.83805 -3.66938 0
M  V30 2064 H 195.399 -0.15095 -3.9311 0
M  V30 2065 H 197.414 0.631533 -4.92165 0
M  V30 2066 N 196.587 1.43421 -0.653314 0
M  V30 2067 C 197.497 2.34568 0.0388565 0
M  V30 2068 C 198.513 1.53888 0.81207 0
M  V30 2069 O 199.689 1.86539 0.759294 0
M  V30 2070 C 196.754 3.32167 0.993269 0
M  V30 2071 C 195.815 4.28751 0.216977 0
M  V30 2072 C 195.048 5.21688 1.12593 0
M  V30 2073 O 195.271 5.19052 2.36519 0
M  V30 2074 O 194.205 5.98919 0.598284 0
M  V30 2075 H 198.031 2.95251 -0.711386 0
M  V30 2076 H 195.616 1.43564 -0.413502 0
M  V30 2077 H 197.498 3.92183 1.54176 0
M  V30 2078 H 196.173 2.73987 1.72374 0
M  V30 2079 H 195.08 3.72215 -0.375101 0
M  V30 2080 H 196.413 4.89913 -0.473924 0
M  V30 2081 N 198.065 0.39524 1.52563 0
M  V30 2082 C 199.311 -0.185318 2.01952 0
M  V30 2083 C 199.644 -1.45964 1.28095 0
M  V30 2084 O 198.919 -1.90689 0.38315 0
M  V30 2085 C 199.202 -0.447193 3.57312 0
M  V30 2086 C 199.055 0.842828 4.41833 0
M  V30 2087 C 200.374 -1.23529 4.22408 0
M  V30 2088 H 197.493 -0.0658788 0.73405 0
M  V30 2089 H 200.135 0.525975 1.82575 0
M  V30 2090 H 198.285 -1.05312 3.73954 0
M  V30 2091 H 199.957 1.4795 4.36931 0
M  V30 2092 H 198.2 1.45686 4.08605 0
M  V30 2093 H 198.871 0.614165 5.48573 0
M  V30 2094 H 201.347 -0.722445 4.0978 0
M  V30 2095 H 200.223 -1.38727 5.3108 0
M  V30 2096 H 200.484 -2.25213 3.80436 0
M  V30 2097 N 199.544 -1.57102 0.125237 0
M  V30 2098 C 200.821 -1.86953 -0.575142 0
M  V30 2099 C 201.201 -1.02749 -1.84407 0
M  V30 2100 O 200.549 -0.108144 -2.28244 0
M  V30 2101 C 200.759 -3.38198 -0.861583 0
M  V30 2102 C 202.107 -4.06937 -1.21192 0
M  V30 2103 O 203.131 -3.43252 -0.951645 0
M  V30 2104 O 201.99 -5.19364 -1.70068 0
M  V30 2105 H 199.084 -0.774147 -0.290906 0
M  V30 2106 H 201.63 -1.68942 0.160211 0
M  V30 2107 H 200.402 -3.91282 0.0373647 0
M  V30 2108 H 200.025 -3.61661 -1.65188 0
M  V30 2109 N 201.022 0.148545 -1.56898 0
M  V30 2110 C 201.985 1.16736 -1.97244 0
M  V30 2111 C 202.985 1.35947 -0.858777 0
M  V30 2112 O 204.175 1.32966 -1.12542 0
M  V30 2113 C 201.307 2.52798 -2.28705 0
M  V30 2114 H 202.5 0.821279 -2.88435 0
M  V30 2115 H 200.053 0.391831 -1.51309 0
M  V30 2116 H 200.788 2.92381 -1.403 0
M  V30 2117 H 200.573 2.40216 -3.09901 0
M  V30 2118 H 202.063 3.26179 -2.60762 0
M  V30 2119 N 202.5 1.5196 0.417844 0
M  V30 2120 C 203.432 1.70895 1.52733 0
M  V30 2121 C 204.445 0.589405 1.51756 0
M  V30 2122 O 205.634 0.864312 1.56179 0
M  V30 2123 C 202.734 1.72627 2.91639 0
M  V30 2124 C 201.907 3.01479 3.16905 0
M  V30 2125 C 200.966 2.95139 4.35637 0
M  V30 2126 O 199.992 3.69059 4.3334 0
M  V30 2127 N 201.194 2.12328 5.40275 0
M  V30 2128 H 203.959 2.66612 1.36888 0
M  V30 2129 H 201.52 1.50089 0.607037 0
M  V30 2130 H 203.512 1.65928 3.6912 0
M  V30 2131 H 202.082 0.844216 3.00985 0
M  V30 2132 H 201.302 3.21895 2.27546 0
M  V30 2133 H 202.59 3.86736 3.30625 0
M  V30 2134 H 201.988 1.51685 5.44985 0
M  V30 2135 H 200.545 2.11494 6.16534 0
M  V30 2136 N 203.978 -0.674533 1.42435 0
M  V30 2137 C 205.389 -1.25514 1.38214 0
M  V30 2138 C 205.74 -1.96055 0.0755464 0
M  V30 2139 O 204.865 -2.00028 -0.8257 0
M  V30 2140 C 205.46 -2.28269 2.50357 0
M  V30 2141 C 204.019 -2.81856 2.49467 0
M  V30 2142 C 203.166 -1.56182 2.29134 0
M  V30 2143 H 206.117 -0.467902 1.51646 0
M  V30 2144 H 206.138 -3.10009 2.20624 0
M  V30 2145 H 205.65 -1.769 3.45439 0
M  V30 2146 H 203.751 -3.37346 1.58204 0
M  V30 2147 H 203.864 -3.30854 3.46515 0
M  V30 2148 H 202.228 -1.82761 1.774 0
M  V30 2149 H 203.011 -1.06778 3.26272 0
M  V30 2150 N 205.456 -1.28612 -0.910864 0
M  V30 2151 C 206.867 -1.14406 -1.47541 0
M  V30 2152 C 207.218 0.264901 -1.94403 0
M  V30 2153 O 206.343 1.15942 -1.82719 0
M  V30 2154 C 206.938 -2.07073 -2.68153 0
M  V30 2155 C 205.497 -1.96923 -3.20778 0
M  V30 2156 C 204.644 -1.98646 -1.93481 0
M  V30 2157 H 207.595 -1.41259 -0.723291 0
M  V30 2158 H 207.616 -1.63642 -3.43514 0
M  V30 2159 H 207.128 -3.09611 -2.34015 0
M  V30 2160 H 205.229 -0.97433 -3.59635 0
M  V30 2161 H 205.342 -2.84026 -3.85832 0
M  V30 2162 H 203.706 -1.43093 -2.10705 0
M  V30 2163 H 204.489 -3.02868 -1.61634 0
M  V30 2164 N 206.934 1.1197 -1.10907 0
M  V30 2165 C 207.844 2.21433 -0.774896 0
M  V30 2166 C 208.86 1.72478 0.229657 0
M  V30 2167 O 210.036 2.01288 0.0672008 0
M  V30 2168 C 207.101 3.4602 -0.216986 0
M  V30 2169 C 206.162 4.09791 -1.27944 0
M  V30 2170 C 205.395 5.28431 -0.748055 0
M  V30 2171 O 205.618 5.68823 0.423833 0
M  V30 2172 O 204.552 5.82644 -1.51027 0
M  V30 2173 H 208.378 2.5242 -1.68873 0
M  V30 2174 H 205.963 1.20399 -0.884555 0
M  V30 2175 H 207.845 4.21304 0.090059 0
M  V30 2176 H 206.52 3.16698 0.669633 0
M  V30 2177 H 205.427 3.36265 -1.63941 0
M  V30 2178 H 206.76 4.4328 -2.13925 0
M  V30 2179 N 208.412 0.89855 1.29475 0
M  V30 2180 C 209.342 0.39201 2.30186 0
M  V30 2181 C 210.323 -0.532359 1.61555 0
M  V30 2182 O 211.508 -0.443331 1.89072 0
M  V30 2183 C 208.638 -0.382353 3.45189 0
M  V30 2184 C 207.592 0.451483 4.25612 0
M  V30 2185 C 206.918 -0.450307 5.328 0
M  V30 2186 C 208.218 1.70079 4.93832 0
M  V30 2187 H 209.912 1.23362 2.72804 0
M  V30 2188 H 207.458 0.594638 1.31149 0
M  V30 2189 H 209.411 -0.747451 4.14718 0
M  V30 2190 H 208.135 -1.25774 3.01411 0
M  V30 2191 H 206.794 0.798897 3.57789 0
M  V30 2192 H 206.442 -1.32379 4.85268 0
M  V30 2193 H 206.142 0.103902 5.87508 0
M  V30 2194 H 207.666 -0.811623 6.05182 0
M  V30 2195 H 209.08 1.40549 5.55805 0
M  V30 2196 H 207.477 2.19623 5.58467 0
M  V30 2197 H 208.547 2.43744 4.19186 0
M  V30 2198 N 209.89 -1.43072 0.660911 0
M  V30 2199 C 211.138 -2.01323 0.177094 0
M  V30 2200 C 211.459 -1.5245 -1.2159 0
M  V30 2201 O 210.729 -0.740322 -1.81373 0
M  V30 2202 H 209.309 -0.744382 0.0624804 0
M  V30 2203 H 211.971 -1.75179 0.854305 0
M  V30 2204 H 211.067 -3.11649 0.167641 0
M  V30 2205 N 211.368 -0.403325 -1.52352 0
M  V30 2206 C 212.784 -0.0539281 -1.59509 0
M  V30 2207 C 212.984 1.43307 -1.41652 0
M  V30 2208 O 212.04 2.19924 -1.24056 0
M  V30 2209 C 213.353 -0.543654 -2.95745 0
M  V30 2210 C 214.901 -0.501125 -3.08962 0
M  V30 2211 C 215.376 -0.967267 -4.47669 0
M  V30 2212 N 216.867 -0.923849 -4.53893 0
M  V30 2213 C 217.602 -1.25578 -5.5948 0
M  V30 2214 N 217.098 -1.65889 -6.72646 0
M  V30 2215 N 218.891 -1.17613 -5.49658 0
M  V30 2216 H 211.042 -1.37123 -1.62206 0
M  V30 2217 H 213.305 -0.56294 -0.76276 0
M  V30 2218 H 213.011 -1.58275 -3.14073 0
M  V30 2219 H 212.885 0.0498042 -3.77167 0
M  V30 2220 H 215.272 0.528909 -2.90321 0
M  V30 2221 H 215.353 -1.13056 -2.2946 0
M  V30 2222 H 214.997 -1.9956 -4.67053 0
M  V30 2223 H 214.927 -0.314698 -5.25659 0
M  V30 2224 H 217.418 -0.627403 -3.72655 0
M  V30 2225 H 217.731 -1.89543 -7.49195 0
M  V30 2226 H 216.076 -1.69787 -6.73942 0
M  V30 2227 H 219.267 -0.860115 -4.6013 0
M  V30 2228 H 219.44 -1.43812 -6.3184 0
M  V30 2229 N 212.846 1.57033 -0.133567 0
M  V30 2230 C 214.257 1.82593 0.389464 0
M  V30 2231 C 214.608 1.05156 1.6564 0
M  V30 2232 O 213.733 0.292644 2.14412 0
M  V30 2233 C 214.328 3.31204 0.713377 0
M  V30 2234 C 212.887 3.57393 1.18098 0
M  V30 2235 C 212.034 2.76598 0.197126 0
M  V30 2236 H 214.985 1.54598 -0.358481 0
M  V30 2237 H 215.006 3.46627 1.56939 0
M  V30 2238 H 214.518 3.87537 -0.2089 0
M  V30 2239 H 212.619 3.06433 2.11966 0
M  V30 2240 H 212.732 4.65915 1.11624 0
M  V30 2241 H 211.096 2.45257 0.687088 0
M  V30 2242 H 211.879 3.35697 -0.718504 0
M  V30 2243 N 214.325 -0.140222 1.56975 0
M  V30 2244 C 215.255 -1.17456 2.01808 0
M  V30 2245 C 216.236 -1.44415 0.898794 0
M  V30 2246 O 217.421 -1.5522 1.16707 0
M  V30 2247 C 214.551 -2.50607 2.40444 0
M  V30 2248 C 213.505 -2.38155 3.55621 0
M  V30 2249 C 212.831 -3.76078 3.80091 0
M  V30 2250 C 214.131 -1.85991 4.88062 0
M  V30 2251 H 215.825 -0.801743 2.88466 0
M  V30 2252 H 213.371 -0.38422 1.38779 0
M  V30 2253 H 215.324 -3.23197 2.7041 0
M  V30 2254 H 214.048 -2.89737 1.50732 0
M  V30 2255 H 212.707 -1.68016 3.25832 0
M  V30 2256 H 212.355 -4.12656 2.87618 0
M  V30 2257 H 212.055 -3.68606 4.57606 0
M  V30 2258 H 213.579 -4.50206 4.12488 0
M  V30 2259 H 214.993 -2.4838 5.16701 0
M  V30 2260 H 213.39 -1.89393 5.6943 0
M  V30 2261 H 214.46 -0.816023 4.77984 0
M  V30 2262 N 215.803 -1.52179 -0.40978 0
M  V30 2263 C 217.049 -1.67408 -1.15525 0
M  V30 2264 C 217.404 -0.398746 -1.88223 0
M  V30 2265 O 216.697 0.60678 -1.81738 0
M  V30 2266 C 216.891 -2.83428 -2.17723 0
M  V30 2267 C 216.72 -4.22121 -1.55061 0
M  V30 2268 C 215.49 -4.87657 -1.3236 0
M  V30 2269 C 217.688 -5.04248 -1.01185 0
M  V30 2270 N 215.67 -6.10387 -0.655834 0
M  V30 2271 C 217.041 -6.18209 -0.470963 0
M  V30 2272 C 219.096 -4.89583 -0.906252 0
M  V30 2273 C 217.799 -7.1911 0.165172 0
M  V30 2274 C 219.825 -5.90718 -0.28397 0
M  V30 2275 C 219.187 -7.03969 0.246243 0
M  V30 2276 H 215.286 -0.666251 -0.409431 0
M  V30 2277 H 217.87 -1.89482 -0.447729 0
M  V30 2278 H 216.041 -2.6297 -2.85834 0
M  V30 2279 H 217.773 -2.87697 -2.84627 0
M  V30 2280 H 214.528 -4.46007 -1.59294 0
M  V30 2281 H 214.952 -6.76153 -0.338596 0
M  V30 2282 H 219.594 -4.02253 -1.302 0
M  V30 2283 H 217.312 -8.06066 0.572986 0
M  V30 2284 H 220.898 -5.81443 -0.203792 0
M  V30 2285 H 219.778 -7.80886 0.720173 0
M  V30 2286 N 217.281 0.66697 -1.42791 0
M  V30 2287 C 218.697 0.981027 -1.25889 0
M  V30 2288 C 218.897 2.00793 -0.168695 0
M  V30 2289 O 217.953 2.48321 0.45747 0
M  V30 2290 C 219.266 1.47838 -2.61848 0
M  V30 2291 C 220.814 1.59575 -2.69267 0
M  V30 2292 C 221.289 2.12704 -4.05612 0
M  V30 2293 N 222.78 2.20026 -4.07606 0
M  V30 2294 C 223.515 2.62227 -5.09926 0
M  V30 2295 N 223.011 3.03824 -6.22626 0
M  V30 2296 N 224.804 2.62045 -4.97281 0
M  V30 2297 H 216.955 -0.0127891 -2.12396 0
M  V30 2298 H 219.218 0.0568258 -0.946295 0
M  V30 2299 H 218.924 0.798299 -3.4252 0
M  V30 2300 H 218.798 2.45579 -2.86305 0
M  V30 2301 H 221.185 2.26687 -1.88936 0
M  V30 2302 H 221.266 0.60302 -2.48591 0
M  V30 2303 H 220.91 1.46198 -4.86404 0
M  V30 2304 H 220.84 3.12782 -4.23645 0
M  V30 2305 H 223.331 1.90708 -3.2625 0
M  V30 2306 H 223.644 3.34734 -6.96544 0
M  V30 2307 H 221.989 3.01662 -6.26119 0
M  V30 2308 H 225.18 2.28916 -4.08308 0
M  V30 2309 H 225.353 2.94613 -5.77154 0
M  V30 2310 N 218.759 1.29093 0.90403 0
M  V30 2311 C 219.691 1.09658 2.01266 0
M  V30 2312 C 220.704 0.0453729 1.62737 0
M  V30 2313 O 221.893 0.289446 1.76138 0
M  V30 2314 C 218.993 0.646278 3.32681 0
M  V30 2315 C 218.166 1.77505 3.99763 0
M  V30 2316 C 217.225 1.31649 5.09465 0
M  V30 2317 O 216.251 2.02045 5.32134 0
M  V30 2318 N 217.453 0.184997 5.80205 0
M  V30 2319 H 220.218 2.05135 2.18494 0
M  V30 2320 H 217.779 1.20975 1.07594 0
M  V30 2321 H 219.771 0.322906 4.0341 0
M  V30 2322 H 218.341 -0.215916 3.11853 0
M  V30 2323 H 217.561 2.26752 3.22455 0
M  V30 2324 H 218.849 2.53198 4.41325 0
M  V30 2325 H 218.247 -0.402021 5.6427 0
M  V30 2326 H 216.804 -0.0790358 6.51752 0
M  V30 2327 N 220.237 -1.11381 1.11499 0
M  V30 2328 C 221.2 -2.15622 0.777153 0
M  V30 2329 C 222.2 -1.59504 -0.203779 0
M  V30 2330 O 223.39 -1.74188 0.020782 0
M  V30 2331 C 220.522 -3.40556 0.153116 0
M  V30 2332 H 221.715 -2.47021 1.70061 0
M  V30 2333 H 219.268 -1.26577 0.916952 0
M  V30 2334 H 220.003 -3.14767 -0.780536 0
M  V30 2335 H 219.788 -3.8257 0.859238 0
M  V30 2336 H 221.278 -4.17546 -0.0671044 0
M  V30 2337 N 221.715 -0.905404 -1.28997 0
M  V30 2338 C 222.625 -0.392246 -2.31298 0
M  V30 2339 C 223.641 0.515889 -1.66176 0
M  V30 2340 O 224.817 0.404093 -1.97304 0
M  V30 2341 C 221.882 0.36686 -3.44754 0
M  V30 2342 C 220.943 -0.573485 -4.25452 0
M  V30 2343 C 220.176 0.149488 -5.33491 0
M  V30 2344 O 220.399 1.37255 -5.5364 0
M  V30 2345 O 219.333 -0.510919 -5.99728 0
M  V30 2346 H 223.159 -1.2411 -2.77183 0
M  V30 2347 H 220.744 -0.669926 -1.33538 0
M  V30 2348 H 222.626 0.795907 -4.13816 0
M  V30 2349 H 221.301 1.19169 -3.00966 0
M  V30 2350 H 220.208 -1.05176 -3.59011 0
M  V30 2351 H 221.541 -1.36489 -4.72897 0
M  V30 2352 N 223.193 1.4272 -0.668489 0
M  V30 2353 C 224.156 2.292 0.00448567 0
M  V30 2354 C 225.156 1.43001 0.735339 0
M  V30 2355 O 226.346 1.64461 0.57429 0
M  V30 2356 C 223.478 3.25375 1.01705 0
M  V30 2357 H 224.671 2.90199 -0.756608 0
M  V30 2358 H 222.224 1.50254 -0.430506 0
M  V30 2359 H 222.959 2.69301 1.80686 0
M  V30 2360 H 222.744 3.88944 0.496463 0
M  V30 2361 H 224.234 3.90245 1.48655 0
M  V30 2362 N 224.671 0.411399 1.52136 0
M  V30 2363 C 225.581 -0.419774 2.30814 0
M  V30 2364 C 226.597 -1.0515 1.38634 0
M  V30 2365 O 227.773 -1.05252 1.71709 0
M  V30 2366 C 224.838 -1.52019 3.11594 0
M  V30 2367 C 223.899 -0.91129 4.19516 0
M  V30 2368 C 223.132 -1.95927 4.96436 0
M  V30 2369 O 223.355 -3.17775 4.73683 0
M  V30 2370 O 222.289 -1.56423 5.81219 0
M  V30 2371 H 226.115 0.221805 3.02889 0
M  V30 2372 H 223.7 0.174547 1.48377 0
M  V30 2373 H 225.582 -2.15898 3.61892 0
M  V30 2374 H 224.257 -2.14633 2.42311 0
M  V30 2375 H 223.164 -0.235157 3.7336 0
M  V30 2376 H 224.497 -0.32904 4.91099 0
M  V30 2377 N 226.149 -1.5696 0.141893 0
M  V30 2378 C 227.099 -2.13074 -0.811383 0
M  V30 2379 C 228.083 -1.05726 -1.21288 0
M  V30 2380 O 229.275 -1.31914 -1.18015 0
M  V30 2381 C 226.404 -2.75186 -2.0525 0
M  V30 2382 C 225.49 -3.8965 -1.67432 0
M  V30 2383 N 225.881 -4.95733 -1.0041 0
M  V30 2384 C 224.179 -4.00262 -1.96739 0
M  V30 2385 C 224.88 -5.75858 -0.822345 0
M  V30 2386 N 223.856 -5.26452 -1.3546 0
M  V30 2387 H 227.658 -2.92465 -0.290031 0
M  V30 2388 H 225.172 -1.6229 -0.0598218 0
M  V30 2389 H 227.169 -3.13745 -2.74535 0
M  V30 2390 H 225.829 -1.97266 -2.57907 0
M  V30 2391 H 226.84 -5.13607 -0.665441 0
M  V30 2392 H 223.517 -3.33412 -2.51282 0
M  V30 2393 H 224.907 -6.71254 -0.294496 0
M  V30 2394 N 227.627 0.131896 -1.57047 0
M  V30 2395 C 228.574 1.16236 -1.99393 0
M  V30 2396 C 229.544 1.41863 -0.863943 0
M  V30 2397 O 230.729 1.53946 -1.12718 0
M  V30 2398 C 227.869 2.48708 -2.39245 0
M  V30 2399 C 226.982 2.30127 -3.65603 0
M  V30 2400 C 226.117 3.55738 -3.94492 0
M  V30 2401 C 225.156 3.32259 -5.14073 0
M  V30 2402 N 224.293 4.50039 -5.38896 0
M  V30 2403 H 229.133 0.794251 -2.87221 0
M  V30 2404 H 226.67 0.380707 -1.42088 0
M  V30 2405 H 228.628 3.25969 -2.60384 0
M  V30 2406 H 227.258 2.83437 -1.54478 0
M  V30 2407 H 226.31 1.43845 -3.52154 0
M  V30 2408 H 227.622 2.08746 -4.5302 0
M  V30 2409 H 226.776 4.41423 -4.1621 0
M  V30 2410 H 225.515 3.80138 -3.05526 0
M  V30 2411 H 224.52 2.44963 -4.92212 0
M  V30 2412 H 225.745 3.09242 -6.04604 0
M  V30 2413 H 223.691 4.74584 -4.52886 0
M  V30 2414 H 223.608 4.31716 -6.2061 0
M  V30 2415 H 224.876 5.36895 -5.65123 0
M  V30 2416 N 229.106 1.52395 0.401703 0
M  V30 2417 C 230.355 1.66044 1.14509 0
M  V30 2418 C 230.668 0.400216 1.91462 0
M  V30 2419 O 231.874 0.416632 2.68284 0
M  V30 2420 C 230.33 2.93388 2.0845 0
M  V30 2421 C 229.938 4.26545 1.36978 0
M  V30 2422 C 231.682 3.16402 2.83001 0
M  V30 2423 C 229.589 5.45007 2.29611 0
M  V30 2424 H 228.519 0.618562 0.431158 0
M  V30 2425 H 231.17 1.78886 0.40892 0
M  V30 2426 H 229.552 2.74263 2.8565 0
M  V30 2427 H 230.726 4.56179 0.650916 0
M  V30 2428 H 229.041 4.09692 0.74438 0
M  V30 2429 H 231.638 4.02085 3.52465 0
M  V30 2430 H 231.981 2.30943 3.46368 0
M  V30 2431 H 232.514 3.36034 2.12898 0
M  V30 2432 H 229.253 6.32835 1.70879 0
M  V30 2433 H 228.773 5.19702 2.9945 0
M  V30 2434 H 230.452 5.7838 2.89974 0
M  V30 2435 N 230.584 -0.659388 1.43143 0
M  V30 2436 C 231.861 -1.41627 1.34912 0
M  V30 2437 C 232.241 -2.11099 -0.00607785 0
M  V30 2438 O 231.589 -2.04353 -1.02236 0
M  V30 2439 C 231.799 -2.40604 2.52805 0
M  V30 2440 C 233.147 -3.04789 2.95616 0
M  V30 2441 O 234.171 -2.50932 2.52807 0
M  V30 2442 O 233.03 -4.02421 3.69756 0
M  V30 2443 H 230.124 -0.63246 0.532844 0
M  V30 2444 H 232.67 -0.686814 1.5518 0
M  V30 2445 H 231.442 -1.88174 3.43083 0
M  V30 2446 H 231.065 -3.21009 2.34604 0
M  V30 2447 N 232.062 -1.29571 -0.897171 0
M  V30 2448 C 232.992 -1.17473 -2.01798 0
M  V30 2449 C 233.973 -0.068323 -1.69963 0
M  V30 2450 O 235.158 -0.248239 -1.92607 0
M  V30 2451 C 232.288 -0.853099 -3.36659 0
M  V30 2452 C 231.242 -1.9161 -3.82713 0
M  V30 2453 C 230.568 -1.44773 -5.14728 0
M  V30 2454 C 231.868 -3.32535 -4.02763 0
M  V30 2455 H 233.562 -2.11237 -2.12177 0
M  V30 2456 H 231.108 -1.01699 -1.01948 0
M  V30 2457 H 233.061 -0.755165 -4.14578 0
M  V30 2458 H 231.785 0.120236 -3.26379 0
M  V30 2459 H 230.444 -2.00346 -3.07013 0
M  V30 2460 H 230.092 -0.462995 -5.00865 0
M  V30 2461 H 229.792 -2.15865 -5.46513 0
M  V30 2462 H 231.316 -1.36334 -5.95185 0
M  V30 2463 H 232.73 -3.26626 -4.71156 0
M  V30 2464 H 231.127 -4.01607 -4.45905 0
M  V30 2465 H 232.197 -3.75326 -3.07016 0
M  V30 2466 N 233.54 1.10788 -1.12088 0
M  V30 2467 C 234.956 1.34691 -0.856186 0
M  V30 2468 C 235.156 1.94791 0.515615 0
M  V30 2469 O 234.212 2.18524 1.26505 0
M  V30 2470 C 235.525 2.27208 -1.9697 0
M  V30 2471 C 237.073 2.40755 -2.00016 0
M  V30 2472 C 237.548 3.36598 -3.1059 0
M  V30 2473 N 239.039 3.44164 -3.10008 0
M  V30 2474 C 239.774 4.18284 -3.92206 0
M  V30 2475 N 239.27 4.95322 -4.84384 0
M  V30 2476 N 241.063 4.13865 -3.80357 0
M  V30 2477 H 233.214 0.70144 -2.00483 0
M  V30 2478 H 235.477 0.371405 -0.872217 0
M  V30 2479 H 235.183 1.90251 -2.958 0
M  V30 2480 H 235.057 3.27485 -1.87172 0
M  V30 2481 H 237.444 2.76982 -1.01808 0
M  V30 2482 H 237.525 1.40305 -2.13888 0
M  V30 2483 H 237.169 3.01096 -4.09028 0
M  V30 2484 H 237.099 4.36918 -2.93956 0
M  V30 2485 H 239.59 2.8922 -2.43228 0
M  V30 2486 H 239.903 5.49267 -5.43623 0
M  V30 2487 H 238.248 4.94459 -4.884 0
M  V30 2488 H 241.439 3.52773 -3.07683 0
M  V30 2489 H 241.612 4.71372 -4.44649 0
M  V30 2490 N 235.018 0.912232 1.28515 0
M  V30 2491 C 235.948 0.416403 2.29757 0
M  V30 2492 C 236.929 -0.515194 1.6211 0
M  V30 2493 O 238.114 -0.423253 1.89532 0
M  V30 2494 C 235.244 -0.34572 3.45575 0
M  V30 2495 C 234.198 0.496599 4.25109 0
M  V30 2496 C 233.524 -0.393771 5.33248 0
M  V30 2497 C 234.824 1.75307 4.92001 0
M  V30 2498 H 236.518 1.26249 2.7148 0
M  V30 2499 H 234.064 0.608515 1.30511 0
M  V30 2500 H 236.017 -0.703422 4.15488 0
M  V30 2501 H 234.741 -1.2257 3.02728 0
M  V30 2502 H 233.4 0.8368 3.56922 0
M  V30 2503 H 233.048 -1.27225 4.86644 0
M  V30 2504 H 232.748 0.166209 5.87365 0
M  V30 2505 H 234.272 -0.747389 6.06009 0
M  V30 2506 H 235.686 1.46437 5.54283 0
M  V30 2507 H 234.083 2.25534 5.56106 0
M  V30 2508 H 235.153 2.48176 4.16577 0
M  V30 2509 N 236.496 -1.42363 0.676048 0
M  V30 2510 C 237.443 -2.308 -0.00150904 0
M  V30 2511 C 238.413 -1.46032 -0.791444 0
M  V30 2512 O 239.598 -1.74861 -0.76344 0
M  V30 2513 C 236.738 -3.31883 -0.945919 0
M  V30 2514 C 235.851 -4.31741 -0.149675 0
M  V30 2515 C 234.986 -5.19898 -1.08995 0
M  V30 2516 C 234.025 -6.11434 -0.285465 0
M  V30 2517 N 233.162 -6.92138 -1.17851 0
M  V30 2518 H 238.002 -2.88187 0.758455 0
M  V30 2519 H 235.539 -1.41952 0.38576 0
M  V30 2520 H 237.497 -3.89019 -1.50731 0
M  V30 2521 H 236.127 -2.76093 -1.6725 0
M  V30 2522 H 235.179 -3.76713 0.528359 0
M  V30 2523 H 236.491 -4.96534 0.474866 0
M  V30 2524 H 235.645 -5.81772 -1.72123 0
M  V30 2525 H 234.384 -4.55284 -1.74837 0
M  V30 2526 H 233.389 -5.48627 0.359018 0
M  V30 2527 H 234.614 -6.78097 0.368883 0
M  V30 2528 H 232.56 -6.30152 -1.82332 0
M  V30 2529 H 232.477 -7.53542 -0.609082 0
M  V30 2530 H 233.745 -7.58499 -1.79722 0
M  V30 2531 N 237.974 -0.419461 -1.51915 0
M  V30 2532 C 239.385 0.0477853 -1.86639 0
M  V30 2533 C 239.736 1.43531 -1.33766 0
M  V30 2534 O 238.861 2.05401 -0.68113 0
M  V30 2535 C 239.456 0.0934885 -3.38671 0
M  V30 2536 C 238.015 0.505097 -3.72996 0
M  V30 2537 C 237.162 -0.313792 -2.75519 0
M  V30 2538 H 240.113 -0.636088 -1.45395 0
M  V30 2539 H 240.134 0.906667 -3.6954 0
M  V30 2540 H 239.646 -0.916501 -3.77123 0
M  V30 2541 H 237.747 1.52135 -3.40126 0
M  V30 2542 H 237.86 0.242309 -4.78487 0
M  V30 2543 H 236.224 0.225363 -2.53701 0
M  V30 2544 H 237.007 -1.32232 -3.16812 0
M  V30 2545 N 239.452 1.56882 -0.150215 0
M  V30 2546 C 240.415 2.1573 0.774157 0
M  V30 2547 C 241.415 1.0999 1.17298 0
M  V30 2548 O 242.605 1.35613 1.09338 0
M  V30 2549 C 239.737 2.72302 2.05096 0
M  V30 2550 H 240.93 2.98752 0.262201 0
M  V30 2551 H 238.483 1.55985 0.099248 0
M  V30 2552 H 239.218 1.92956 2.6065 0
M  V30 2553 H 239.003 3.49665 1.77416 0
M  V30 2554 H 240.493 3.17632 2.71109 0
M  V30 2555 N 240.93 -0.123565 1.57115 0
M  V30 2556 C 241.86 -1.15309 2.03042 0
M  V30 2557 C 242.841 -1.43454 0.914061 0
M  V30 2558 O 244.026 -1.53973 1.18347 0
M  V30 2559 C 241.156 -2.48043 2.43089 0
M  V30 2560 C 240.11 -2.3437 3.58127 0
M  V30 2561 C 239.436 -3.72026 3.84059 0
M  V30 2562 C 240.736 -1.80804 4.90007 0
M  V30 2563 H 242.43 -0.771102 2.893 0
M  V30 2564 H 239.976 -0.369479 1.39179 0
M  V30 2565 H 241.929 -3.20311 2.73823 0
M  V30 2566 H 240.653 -2.88122 1.53796 0
M  V30 2567 H 239.312 -1.64551 3.27595 0
M  V30 2568 H 238.96 -4.09582 2.91979 0
M  V30 2569 H 238.66 -3.63732 4.6149 0
M  V30 2570 H 240.184 -4.45806 4.1724 0
M  V30 2571 H 241.598 -2.42886 5.19307 0
M  V30 2572 H 239.995 -1.83343 5.71407 0
M  V30 2573 H 241.065 -0.76528 4.78823 0
M  V30 2574 N 242.408 -1.52605 -0.393616 0
M  V30 2575 C 243.318 -1.79971 -1.50492 0
M  V30 2576 C 244.334 -0.686181 -1.59899 0
M  V30 2577 O 245.51 -0.973274 -1.76322 0
M  V30 2578 C 242.575 -1.95867 -2.86072 0
M  V30 2579 C 241.636 -3.19781 -2.86424 0
M  V30 2580 C 240.869 -3.34909 -4.15538 0
M  V30 2581 O 241.092 -2.54948 -5.10253 0
M  V30 2582 O 240.026 -4.28141 -4.23059 0
M  V30 2583 H 243.852 -2.74328 -1.30299 0
M  V30 2584 H 241.437 -1.3764 -0.581005 0
M  V30 2585 H 243.319 -2.08056 -3.66457 0
M  V30 2586 H 241.994 -1.04699 -3.063 0
M  V30 2587 H 240.901 -3.13038 -2.04837 0
M  V30 2588 H 242.234 -4.1078 -2.71147 0
M  V30 2589 N 243.887 0.651787 -1.4349 0
M  V30 2590 C 245.115 1.43937 -1.48626 0
M  V30 2591 C 245.53 1.8851 -0.104587 0
M  V30 2592 O 244.887 1.5958 0.885464 0
M  V30 2593 C 244.938 2.6734 -2.43334 0
M  V30 2594 O 244.659 2.24631 -3.76128 0
M  V30 2595 C 246.16 3.60683 -2.57726 0
M  V30 2596 H 243.38 0.44213 -0.504739 0
M  V30 2597 H 245.924 0.798944 -1.88248 0
M  V30 2598 H 244.079 3.2752 -2.06904 0
M  V30 2599 H 244.493 3.04485 -4.2707 0
M  V30 2600 H 245.967 4.43933 -3.28067 0
M  V30 2601 H 246.444 4.08126 -1.62265 0
M  V30 2602 H 247.05 3.06384 -2.94973 0
M  V30 2603 N 245.365 1.30045 0.890287 0
M  V30 2604 C 246.295 1.18541 2.01172 0
M  V30 2605 C 247.276 0.0773356 1.69924 0
M  V30 2606 O 248.461 0.25845 1.92473 0
M  V30 2607 C 245.591 0.870941 3.36202 0
M  V30 2608 C 244.545 1.93637 3.81692 0
M  V30 2609 C 243.871 1.475 5.13953 0
M  V30 2610 C 245.171 3.34666 4.00994 0
M  V30 2611 H 246.865 2.12359 2.11054 0
M  V30 2612 H 244.411 1.02238 1.01407 0
M  V30 2613 H 246.364 0.777141 4.14172 0
M  V30 2614 H 245.088 -0.102926 3.26438 0
M  V30 2615 H 243.747 2.01972 3.05946 0
M  V30 2616 H 243.395 0.489551 5.00612 0
M  V30 2617 H 243.095 2.1876 5.4536 0
M  V30 2618 H 244.619 1.39489 5.94454 0
M  V30 2619 H 246.033 3.2912 4.69417 0
M  V30 2620 H 244.43 4.03966 4.43769 0
M  V30 2621 H 245.5 3.76949 3.05021 0
M  V30 2622 N 246.843 -1.10192 1.12674 0
M  V30 2623 C 248.12 -1.78717 0.794965 0
M  V30 2624 C 248.5 -1.98628 -0.714853 0
M  V30 2625 O 247.848 -1.58135 -1.64941 0
M  V30 2626 C 248.058 -3.11546 1.5729 0
M  V30 2627 C 249.406 -3.86382 1.76052 0
M  V30 2628 O 250.43 -3.21274 1.53823 0
M  V30 2629 O 249.289 -5.03246 2.13087 0
M  V30 2630 H 246.383 -0.774702 0.289423 0
M  V30 2631 H 248.929 -1.16819 1.23091 0
M  V30 2632 H 247.701 -2.92489 2.59935 0
M  V30 2633 H 247.324 -3.81164 1.13137 0
M  V30 2634 N 248.321 -0.919034 -1.28029 0
M  V30 2635 C 249.231 -0.416756 -2.30869 0
M  V30 2636 C 250.247 0.498235 -1.66714 0
M  V30 2637 O 251.423 0.383144 -1.97722 0
M  V30 2638 C 248.488 0.330274 -3.45123 0
M  V30 2639 C 247.549 -0.618578 -4.2482 0
M  V30 2640 C 246.782 0.0928959 -5.33619 0
M  V30 2641 O 247.005 1.31375 -5.55065 0
M  V30 2642 O 245.939 -0.574499 -5.99152 0
M  V30 2643 H 249.765 -1.27043 -2.75851 0
M  V30 2644 H 247.35 -0.684052 -1.3282 0
M  V30 2645 H 249.232 0.751972 -4.14636 0
M  V30 2646 H 247.907 1.1597 -3.02213 0
M  V30 2647 H 246.814 -1.08978 -3.57875 0
M  V30 2648 H 248.147 -1.41497 -4.71423 0
M  V30 2649 N 249.799 1.42003 -0.683588 0
M  V30 2650 C 250.729 2.33487 -0.024866 0
M  V30 2651 C 251.71 1.51163 0.779975 0
M  V30 2652 O 252.895 1.79739 0.735362 0
M  V30 2653 C 250.025 3.3487 0.920836 0
M  V30 2654 C 248.979 4.27414 0.223958 0
M  V30 2655 C 248.305 5.19074 1.2832 0
M  V30 2656 C 249.605 5.14445 -0.90242 0
M  V30 2657 H 251.299 2.88819 -0.788921 0
M  V30 2658 H 248.845 1.38873 -0.38083 0
M  V30 2659 H 250.798 3.97787 1.39081 0
M  V30 2660 H 249.522 2.77861 1.71642 0
M  V30 2661 H 248.181 3.65904 -0.225864 0
M  V30 2662 H 247.829 4.58387 2.071 0
M  V30 2663 H 247.529 5.81822 0.821995 0
M  V30 2664 H 249.053 5.84867 1.75392 0
M  V30 2665 H 250.467 5.70998 -0.513272 0
M  V30 2666 H 248.864 5.86072 -1.28997 0
M  V30 2667 H 249.934 4.52322 -1.74737 0
M  V30 2668 N 251.277 0.427512 1.51691 0
M  V30 2669 C 252.207 -0.3796 2.30394 0
M  V30 2670 C 253.188 -1.02982 1.35384 0
M  V30 2671 O 254.373 -1.03534 1.643 0
M  V30 2672 C 251.503 -1.48649 3.1388 0
M  V30 2673 C 250.457 -0.960294 4.17088 0
M  V30 2674 C 249.783 -2.16219 4.89033 0
M  V30 2675 C 251.083 -0.00153679 5.223 0
M  V30 2676 H 252.777 0.277164 2.98114 0
M  V30 2677 H 250.323 0.134739 1.43368 0
M  V30 2678 H 252.276 -2.05826 3.67714 0
M  V30 2679 H 251 -2.1714 2.43962 0
M  V30 2680 H 249.659 -0.410806 3.64291 0
M  V30 2681 H 249.307 -2.83307 4.15628 0
M  V30 2682 H 249.007 -1.81654 5.58816 0
M  V30 2683 H 250.531 -2.73968 5.45687 0
M  V30 2684 H 251.945 -0.482687 5.71264 0
M  V30 2685 H 250.342 0.256199 5.99553 0
M  V30 2686 H 251.412 0.938174 4.75738 0
M  V30 2687 N 252.755 -1.56801 0.158532 0
M  V30 2688 C 253.718 -2.16138 -0.762705 0
M  V30 2689 C 254.718 -1.1061 -1.16713 0
M  V30 2690 O 255.908 -1.36191 -1.08617 0
M  V30 2691 C 253.04 -2.73386 -2.03649 0
M  V30 2692 H 254.233 -2.98886 -0.246354 0
M  V30 2693 H 251.786 -1.56035 -0.0909744 0
M  V30 2694 H 252.521 -1.94335 -2.59623 0
M  V30 2695 H 252.306 -3.50601 -1.75559 0
M  V30 2696 H 253.796 -3.19065 -2.6942 0
M  V30 2697 N 254.233 0.115231 -1.57178 0
M  V30 2698 C 255.196 1.12526 -1.99676 0
M  V30 2699 C 256.196 1.34095 -0.88742 0
M  V30 2700 O 257.386 1.30548 -1.15337 0
M  V30 2701 C 254.518 2.4789 -2.34015 0
M  V30 2702 H 255.711 0.759912 -2.90113 0
M  V30 2703 H 253.264 0.359648 -1.52106 0
M  V30 2704 H 253.999 2.89339 -1.4647 0
M  V30 2705 H 253.784 2.33588 -3.14927 0
M  V30 2706 H 255.274 3.20575 -2.67622 0
M  V30 2707 N 255.711 1.52812 0.385517 0
M  V30 2708 C 256.959 1.67694 1.12797 0
M  V30 2709 C 257.28 0.421115 1.90399 0
M  V30 2710 O 256.55 -0.564551 1.87589 0
M  V30 2711 H 255.13 0.618155 0.419396 0
M  V30 2712 H 257.792 1.89938 0.436972 0
M  V30 2713 H 256.888 2.52896 1.82894 0
M  V30 2714 N 257.189 -0.644168 1.43834 0
M  V30 2715 C 258.099 -1.78563 1.52159 0
M  V30 2716 C 259.115 -1.69147 0.408069 0
M  V30 2717 O 260.291 -1.90156 0.663524 0
M  V30 2718 C 257.356 -3.14888 1.45073 0
M  V30 2719 C 256.417 -3.36034 2.6717 0
M  V30 2720 C 255.65 -4.65855 2.60413 0
M  V30 2721 O 255.873 -5.45805 1.65689 0
M  V30 2722 O 254.807 -4.88918 3.5106 0
M  V30 2723 H 258.633 -1.74494 2.48567 0
M  V30 2724 H 256.218 -0.80378 1.25935 0
M  V30 2725 H 258.1 -3.96179 1.43597 0
M  V30 2726 H 256.775 -3.19528 0.518037 0
M  V30 2727 H 255.682 -2.54472 2.74217 0
M  V30 2728 H 257.015 -3.36247 3.59442 0
M  V30 2729 N 258.668 -1.30515 -0.883378 0
M  V30 2730 C 259.631 -1.1701 -1.97082 0
M  V30 2731 C 260.631 -0.10089 -1.60483 0
M  V30 2732 O 261.821 -0.349127 -1.70666 0
M  V30 2733 C 258.953 -0.793045 -3.31547 0
M  V30 2734 H 260.146 -2.13622 -2.10489 0
M  V30 2735 H 257.699 -1.13935 -1.06998 0
M  V30 2736 H 258.434 0.172499 -3.23841 0
M  V30 2737 H 258.219 -1.56576 -3.5948 0
M  V30 2738 H 259.709 -0.722073 -4.1131 0
M  V30 2739 N 260.146 1.09593 -1.13257 0
M  V30 2740 C 261.394 1.81375 -0.891492 0
M  V30 2741 C 261.715 1.86049 0.584009 0
M  V30 2742 O 260.985 1.34481 1.42449 0
M  V30 2743 H 259.565 0.671708 -0.326828 0
M  V30 2744 H 262.227 1.3256 -1.42877 0
M  V30 2745 H 261.323 2.84612 -1.28071 0
M  V30 2746 N 261.624 0.925811 1.2754 0
M  V30 2747 C 262.852 0.581509 1.9856 0
M  V30 2748 C 263.267 -0.840041 1.69082 0
M  V30 2749 O 262.624 -1.55805 0.950312 0
M  V30 2750 C 262.675 0.795589 3.52637 0
M  V30 2751 O 262.396 2.16121 3.81082 0
M  V30 2752 C 263.897 0.459744 4.4091 0
M  V30 2753 H 261.117 0.220538 0.633722 0
M  V30 2754 H 263.661 1.24232 1.6244 0
M  V30 2755 H 261.816 0.18161 3.86974 0
M  V30 2756 H 262.23 2.2098 4.75676 0
M  V30 2757 H 263.704 0.660244 5.48037 0
M  V30 2758 H 264.181 -0.604625 4.35018 0
M  V30 2759 H 264.787 1.05178 4.12089 0
M  V30 2760 N 263.102 -1.41638 0.69111 0
M  V30 2761 C 264.349 -2.01299 0.220193 0
M  V30 2762 C 264.677 -1.54715 -1.17871 0
M  V30 2763 O 263.932 -0.747193 -1.80874 0
M  V30 2764 C 264.231 -3.56714 0.221277 0
M  V30 2765 C 263.897 -4.22792 1.56709 0
M  V30 2766 C 262.559 -4.40557 1.93554 0
M  V30 2767 C 264.911 -4.59883 2.45268 0
M  V30 2768 C 262.239 -4.92688 3.18552 0
M  V30 2769 C 264.591 -5.13403 3.69595 0
M  V30 2770 C 263.255 -5.29379 4.06589 0
M  V30 2771 H 262.525 -0.736606 0.0805743 0
M  V30 2772 H 265.172 -1.69598 0.889319 0
M  V30 2773 H 263.477 -3.8818 -0.531391 0
M  V30 2774 H 265.174 -4.00678 -0.160547 0
M  V30 2775 H 261.764 -4.09336 1.2705 0
M  V30 2776 H 265.948 -4.45817 2.18084 0
M  V30 2777 H 261.204 -5.03242 3.47214 0
M  V30 2778 H 265.378 -5.41084 4.38407 0
M  V30 2779 H 263.005 -5.69537 5.03519 0
M  V30 2780 N 264.58 -0.43555 -1.51462 0
M  V30 2781 C 265.857 0.191364 -1.94662 0
M  V30 2782 C 266.237 1.60254 -1.37411 0
M  V30 2783 O 265.585 2.2152 -0.560458 0
M  V30 2784 C 265.795 0.17091 -3.48581 0
M  V30 2785 C 267.143 0.377357 -4.2292 0
M  V30 2786 O 268.167 0.249104 -3.55328 0
M  V30 2787 O 267.026 0.63247 -5.42828 0
M  V30 2788 H 264.12 0.130932 -0.816569 0
M  V30 2789 H 266.666 -0.4934 -1.62369 0
M  V30 2790 H 265.438 -0.815738 -3.82703 0
M  V30 2791 H 265.061 0.898659 -3.87311 0
M  V30 2792 N 266.058 1.56714 -0.166846 0
M  V30 2793 C 267.304 1.97039 0.479962 0
M  V30 2794 C 267.637 1.05264 1.63197 0
M  V30 2795 O 266.912 0.0988833 1.94248 0
M  V30 2796 C 267.195 3.46867 0.967212 0
M  V30 2797 C 267.048 4.49421 -0.18466 0
M  V30 2798 C 268.367 3.9968 1.84238 0
M  V30 2799 H 265.486 0.71641 0.172992 0
M  V30 2800 H 268.128 1.8832 -0.252079 0
M  V30 2801 H 266.278 3.54428 1.59101 0
M  V30 2802 H 267.95 4.53924 -0.821621 0
M  V30 2803 H 266.193 4.25573 -0.840837 0
M  V30 2804 H 266.864 5.51644 0.198317 0
M  V30 2805 H 269.34 3.94723 1.31655 0
M  V30 2806 H 268.216 5.04941 2.15234 0
M  V30 2807 H 268.477 3.43226 2.78654 0
M  V30 2808 N 267.536 -0.106894 1.57237 0
M  V30 2809 C 268.499 -1.11466 2.0027 0
M  V30 2810 C 269.499 -1.33623 0.894519 0
M  V30 2811 O 270.689 -1.29935 1.16028 0
M  V30 2812 C 267.821 -2.46646 2.35327 0
M  V30 2813 H 269.014 -0.744516 2.90512 0
M  V30 2814 H 266.567 -0.351576 1.52295 0
M  V30 2815 H 267.302 -2.88558 1.48003 0
M  V30 2816 H 267.087 -2.31915 3.16161 0
M  V30 2817 H 268.577 -3.19151 2.69318 0
M  V30 2818 N 269.014 -1.53014 -0.377408 0
M  V30 2819 C 270.26 -1.68872 -1.12294 0
M  V30 2820 C 270.593 -0.433224 -1.89306 0
M  V30 2821 O 269.868 0.569258 -1.85983 0
M  V30 2822 C 270.151 -2.93115 -2.09179 0
M  V30 2823 C 270.004 -4.28794 -1.35853 0
M  V30 2824 C 271.323 -3.12928 -3.09458 0
M  V30 2825 H 268.442 -0.614518 -0.406862 0
M  V30 2826 H 271.084 -1.85633 -0.40503 0
M  V30 2827 H 269.234 -2.78956 -2.70399 0
M  V30 2828 H 270.906 -4.54742 -0.775082 0
M  V30 2829 H 269.149 -4.28744 -0.660364 0
M  V30 2830 H 269.82 -5.11837 -2.06706 0
M  V30 2831 H 272.296 -3.26194 -2.58334 0
M  V30 2832 H 271.172 -4.01316 -3.74482 0
M  V30 2833 H 271.433 -2.27669 -3.78971 0
M  V30 2834 N 270.492 0.636531 -1.44174 0
M  V30 2835 C 271.738 1.39826 -1.4689 0
M  V30 2836 C 272.071 1.93947 -0.0990585 0
M  V30 2837 O 271.346 1.73325 0.882544 0
M  V30 2838 C 271.629 2.56751 -2.5249 0
M  V30 2839 C 271.482 2.08014 -3.98811 0
M  V30 2840 C 272.801 3.58946 -2.54649 0
M  V30 2841 H 269.92 0.507075 -0.53483 0
M  V30 2842 H 272.562 0.720188 -1.75822 0
M  V30 2843 H 270.712 3.14597 -2.2795 0
M  V30 2844 H 272.384 1.5504 -4.34466 0
M  V30 2845 H 270.627 1.39242 -4.10846 0
M  V30 2846 H 271.298 2.92169 -4.68339 0
M  V30 2847 H 273.774 3.1089 -2.76563 0
M  V30 2848 H 272.65 4.38286 -3.3045 0
M  V30 2849 H 272.911 4.12655 -1.58646 0
M  V30 2850 N 271.97 1.30982 0.876444 0
M  V30 2851 C 273.247 1.10942 1.61094 0
M  V30 2852 C 273.627 -0.338223 2.08373 0
M  V30 2853 O 272.975 -1.33122 1.85717 0
M  V30 2854 C 273.185 2.11789 2.77392 0
M  V30 2855 C 274.533 2.43965 3.47514 0
M  V30 2856 O 275.557 2.10166 2.87591 0
M  V30 2857 O 274.416 3.01817 4.55597 0
M  V30 2858 H 271.51 0.42667 0.708436 0
M  V30 2859 H 274.056 1.42438 0.922474 0
M  V30 2860 H 272.828 3.09194 2.39823 0
M  V30 2861 H 272.451 1.81161 3.5393 0
M  V30 2862 N 273.449 -1.08991 1.13837 0
M  V30 2863 C 274.412 -2.13925 0.822715 0
M  V30 2864 C 275.412 -1.599 -0.1699 0
M  V30 2865 O 276.602 -1.74104 0.0577251 0
M  V30 2866 C 273.734 -3.40155 0.225318 0
M  V30 2867 H 274.927 -2.43358 1.75262 0
M  V30 2868 H 272.48 -1.24603 0.943594 0
M  V30 2869 H 273.215 -3.16352 -0.713594 0
M  V30 2870 H 273 -3.80661 0.940193 0
M  V30 2871 H 274.49 -4.17594 0.0214784 0
M  V30 2872 N 274.927 -0.932562 -1.27047 0
M  V30 2873 C 276.204 -0.49377 -1.89265 0
M  V30 2874 C 276.584 1.02833 -1.8436 0
M  V30 2875 O 275.932 1.88461 -1.29209 0
M  V30 2876 C 276.142 -1.04536 -3.32976 0
M  V30 2877 C 277.49 -1.10879 -4.09867 0
M  V30 2878 O 278.514 -0.995327 -3.42011 0
M  V30 2879 O 277.373 -1.28417 -5.31198 0
M  V30 2880 H 274.467 -0.159596 -0.811454 0
M  V30 2881 H 277.013 -1.02457 -1.3528 0
M  V30 2882 H 275.785 -2.08913 -3.30864 0
M  V30 2883 H 275.408 -0.496494 -3.94488 0
M  V30 2884 N 276.405 1.4127 -0.698611 0
M  V30 2885 C 277.352 2.30773 -0.0352094 0
M  V30 2886 C 278.322 1.47273 0.768111 0
M  V30 2887 O 279.507 1.76053 0.735524 0
M  V30 2888 C 276.647 3.33346 0.893 0
M  V30 2889 C 275.76 4.31924 0.0809695 0
M  V30 2890 C 274.895 5.21566 1.0071 0
M  V30 2891 C 273.934 6.11811 0.188155 0
M  V30 2892 N 273.071 6.93926 1.06825 0
M  V30 2893 H 277.911 2.86943 -0.804207 0
M  V30 2894 H 275.448 1.4132 -0.408294 0
M  V30 2895 H 277.406 3.91368 1.44523 0
M  V30 2896 H 276.036 2.78719 1.62836 0
M  V30 2897 H 275.088 3.75825 -0.588224 0
M  V30 2898 H 276.4 4.95716 -0.553801 0
M  V30 2899 H 275.554 5.84437 1.62845 0
M  V30 2900 H 274.293 4.58008 1.67572 0
M  V30 2901 H 273.298 5.47986 -0.446254 0
M  V30 2902 H 274.523 6.77425 -0.476716 0
M  V30 2903 H 272.469 6.32973 1.72283 0
M  V30 2904 H 272.386 7.54416 0.489123 0
M  V30 2905 H 273.654 7.61262 1.67632 0
M  V30 2906 N 277.883 0.443576 1.51229 0
M  V30 2907 C 278.793 -0.370721 2.31652 0
M  V30 2908 C 279.809 -1.02186 1.40833 0
M  V30 2909 O 280.985 -1.01586 1.73903 0
M  V30 2910 C 278.05 -1.45376 3.14749 0
M  V30 2911 C 277.111 -0.822099 4.21355 0
M  V30 2912 C 276.344 -1.85353 5.0048 0
M  V30 2913 O 276.567 -3.07656 4.80316 0
M  V30 2914 O 275.501 -1.4406 5.84406 0
M  V30 2915 H 279.327 0.286002 3.0235 0
M  V30 2916 H 276.912 0.20598 1.47973 0
M  V30 2917 H 278.794 -2.08173 3.66391 0
M  V30 2918 H 277.469 -2.09445 2.46809 0
M  V30 2919 H 276.376 -0.155909 3.73775 0
M  V30 2920 H 277.709 -0.224797 4.91686 0
M  V30 2921 N 279.361 -1.56624 0.175154 0
M  V30 2922 C 280.309 -2.19468 -0.770495 0
M  V30 2923 C 281.303 -1.15985 -1.23466 0
M  V30 2924 O 282.509 -1.34176 -1.19987 0
M  V30 2925 H 278.884 -0.703095 -0.266761 0
M  V30 2926 H 280.855 -2.97613 -0.216542 0
M  V30 2927 C 279.604 -2.85264 -1.98796 0
M  V30 2928 H 278.927 -3.64623 -1.63983 0
M  V30 2929 H 280.367 -3.327 -2.62843 0
M  V30 2930 C 278.826 -1.85239 -2.81404 0
M  V30 2931 O 279.356 -1.34024 -3.78682 0
M  V30 2932 N 277.562 -1.53911 -2.46495 0
M  V30 2933 H 277.109 -1.95751 -1.67449 0
M  V30 2934 H 277.067 -0.872382 -3.02054 0
M  V30 2935 N 280.839 0.0985539 -1.57292 0
M  V30 2936 C 282.079 0.808332 -1.87737 0
M  V30 2937 C 282.443 1.7607 -0.76572 0
M  V30 2938 O 283.644 2.51358 -0.952499 0
M  V30 2939 C 281.915 1.52093 -3.23423 0
M  V30 2940 S 283.474 2.26947 -3.75554 0
M  V30 2941 H 280.292 0.269377 -0.657995 0
M  V30 2942 H 282.894 0.0656269 -1.9539 0
M  V30 2943 H 281.598 0.81363 -4.02254 0
M  V30 2944 H 281.129 2.30361 -3.189 0
M  V30 2945 H 283.144 3.53027 -3.48692 0
M  V30 2946 N 282.317 1.53212 0.369288 0
M  V30 2947 C 283.542 1.73423 1.1375 0
M  V30 2948 C 283.967 0.460404 1.82378 0
M  V30 2949 O 283.325 -0.585298 1.71592 0
M  V30 2950 C 283.373 2.89769 2.1463 0
M  V30 2951 O 282.477 2.58119 3.21634 0
M  V30 2952 H 281.818 0.576061 0.330227 0
M  V30 2953 H 284.348 2.00083 0.427547 0
M  V30 2954 H 284.358 3.15829 2.58294 0
M  V30 2955 H 283.033 3.8217 1.64071 0
M  V30 2956 H 281.61 2.42864 2.82969 0
M  V30 2957 N 283.795 -0.628877 1.44509 0
M  V30 2958 C 284.758 -1.72263 1.51188 0
M  V30 2959 C 285.758 -1.55907 0.39367 0
M  V30 2960 O 286.948 -1.61361 0.656377 0
M  V30 2961 C 284.08 -3.11365 1.38798 0
M  V30 2962 H 285.273 -1.67714 2.4862 0
M  V30 2963 H 282.826 -0.842737 1.31634 0
M  V30 2964 H 283.561 -3.21507 0.424693 0
M  V30 2965 H 283.346 -3.24644 2.19884 0
M  V30 2966 H 284.836 -3.91075 1.46458 0
M  V30 2967 N 285.273 -1.31445 -0.869486 0
M  V30 2968 C 286.503 -1.23942 -1.65294 0
M  V30 2969 C 286.911 0.197561 -1.88166 0
M  V30 2970 O 286.254 1.14019 -1.44033 0
M  V30 2971 C 286.316 -1.91385 -3.04322 0
M  V30 2972 C 285.98 -3.40726 -3.04557 0
M  V30 2973 C 286.977 -4.36464 -2.82481 0
M  V30 2974 C 284.662 -3.82425 -3.25663 0
M  V30 2975 C 286.656 -5.71876 -2.8149 0
M  V30 2976 C 284.343 -5.1795 -3.243 0
M  V30 2977 C 285.341 -6.12486 -3.02241 0
M  V30 2978 O 285.029 -7.45534 -3.00724 0
M  V30 2979 H 284.761 -0.429459 -0.522054 0
M  V30 2980 H 287.315 -1.73873 -1.0935 0
M  V30 2981 H 285.545 -1.36004 -3.61994 0
M  V30 2982 H 287.234 -1.77791 -3.64891 0
M  V30 2983 H 288 -4.05576 -2.65956 0
M  V30 2984 H 283.879 -3.09274 -3.41863 0
M  V30 2985 H 287.423 -6.45638 -2.64191 0
M  V30 2986 H 283.32 -5.48473 -3.40365 0
M  V30 2987 H 284.088 -7.54713 -3.16782 0
M  V30 2988 N 286.751 1.08385 -1.14413 0
M  V30 2989 C 287.981 1.8425 -0.934644 0
M  V30 2990 C 288.389 1.81907 0.520234 0
M  V30 2991 O 287.732 1.22126 1.37226 0
M  V30 2992 C 287.794 3.32853 -1.35828 0
M  V30 2993 C 287.458 3.5893 -2.82875 0
M  V30 2994 C 288.455 3.53756 -3.80989 0
M  V30 2995 C 286.14 3.86934 -3.20293 0
M  V30 2996 C 288.134 3.76216 -5.14529 0
M  V30 2997 C 285.821 4.09047 -4.54008 0
M  V30 2998 C 286.819 4.03682 -5.50936 0
M  V30 2999 O 286.507 4.25214 -6.82238 0
M  V30 3000 H 286.239 0.588502 -0.332628 0
M  V30 3001 H 288.793 1.37792 -1.52324 0
M  V30 3002 H 287.023 3.8007 -0.713019 0
M  V30 3003 H 288.712 3.90154 -1.11957 0
M  V30 3004 H 289.478 3.32135 -3.53428 0
M  V30 3005 H 285.357 3.9023 -2.45442 0
M  V30 3006 H 288.901 3.71943 -5.90173 0
M  V30 3007 H 284.798 4.30151 -4.8129 0
M  V30 3008 H 285.566 4.42619 -6.88499 0
M  V30 3009 N 288.23 0.939286 1.26551 0
M  V30 3010 C 289.14 0.453432 2.30176 0
M  V30 3011 C 290.156 -0.471649 1.67486 0
M  V30 3012 O 291.332 -0.35164 1.98306 0
M  V30 3013 C 288.397 -0.275326 3.45605 0
M  V30 3014 C 287.458 0.686084 4.23782 0
M  V30 3015 C 286.691 -0.00798994 5.33699 0
M  V30 3016 O 286.914 -1.22528 5.57085 0
M  V30 3017 O 285.848 0.669746 5.98162 0
M  V30 3018 H 289.674 1.31416 2.73795 0
M  V30 3019 H 287.259 0.705095 1.31715 0
M  V30 3020 H 289.141 -0.685911 4.1578 0
M  V30 3021 H 287.816 -1.11147 3.0402 0
M  V30 3022 H 286.723 1.14658 3.56096 0
M  V30 3023 H 288.056 1.48979 4.69112 0
M  V30 3024 N 289.708 -1.40897 0.706093 0
M  V30 3025 C 291.124 -1.55042 0.37869 0
M  V30 3026 C 291.324 -1.67944 -1.11342 0
M  V30 3027 O 290.38 -1.66372 -1.89938 0
M  V30 3028 C 291.693 -2.78398 1.13643 0
M  V30 3029 C 293.241 -2.92206 1.12181 0
M  V30 3030 C 293.716 -4.18463 1.86152 0
M  V30 3031 N 295.207 -4.25443 1.83173 0
M  V30 3032 C 295.942 -5.2202 2.37239 0
M  V30 3033 N 295.438 -6.24563 2.99821 0
M  V30 3034 N 297.231 -5.14033 2.27435 0
M  V30 3035 H 289.382 -1.30769 1.67372 0
M  V30 3036 H 291.645 -0.631653 0.706907 0
M  V30 3037 H 291.351 -2.7511 2.19106 0
M  V30 3038 H 291.225 -3.70228 0.721853 0
M  V30 3039 H 293.612 -2.95004 0.0754171 0
M  V30 3040 H 293.693 -2.01521 1.57554 0
M  V30 3041 H 293.337 -4.16427 2.90776 0
M  V30 3042 H 293.267 -5.08141 1.38206 0
M  V30 3043 H 295.758 -3.51976 1.37556 0
M  V30 3044 H 296.071 -6.94665 3.38616 0
M  V30 3045 H 294.416 -6.25035 3.03902 0
M  V30 3046 H 297.607 -4.3285 1.78208 0
M  V30 3047 H 297.78 -5.89129 2.69873 0
M  V30 3048 N 291.186 -0.45159 -1.50991 0
M  V30 3049 C 292.426 0.109066 -2.04109 0
M  V30 3050 C 292.79 1.38716 -1.32747 0
M  V30 3051 O 293.991 2.02896 -1.76314 0
M  V30 3052 C 292.262 0.308354 -3.56067 0
M  V30 3053 S 293.821 0.830369 -4.30872 0
M  V30 3054 H 290.639 0.0251531 -0.710555 0
M  V30 3055 H 293.241 -0.614264 -1.85599 0
M  V30 3056 H 291.945 -0.627962 -4.05567 0
M  V30 3057 H 291.476 1.05836 -3.78896 0
M  V30 3058 H 293.491 2.10626 -4.49279 0
M  V30 3059 N 292.664 1.56529 -0.183458 0
M  V30 3060 C 293.594 2.21549 0.737456 0
M  V30 3061 C 294.575 1.17489 1.23005 0
M  V30 3062 O 295.76 1.45959 1.281 0
M  V30 3063 C 292.89 2.86575 1.96194 0
M  V30 3064 C 291.844 3.96778 1.60473 0
M  V30 3065 C 291.17 4.48911 2.90487 0
M  V30 3066 C 292.47 5.15767 0.823497 0
M  V30 3067 H 294.164 2.98761 0.195453 0
M  V30 3068 H 291.71 1.43702 0.0925686 0
M  V30 3069 H 293.663 3.30739 2.61131 0
M  V30 3070 H 292.387 2.06749 2.52828 0
M  V30 3071 H 291.046 3.53286 0.978997 0
M  V30 3072 H 290.694 3.65862 3.45186 0
M  V30 3073 H 290.394 5.23265 2.67335 0
M  V30 3074 H 291.918 4.95771 3.56432 0
M  V30 3075 H 293.332 5.56549 1.37571 0
M  V30 3076 H 291.729 5.96114 0.690551 0
M  V30 3077 H 292.799 4.84574 -0.177782 0
M  V30 3078 N 294.142 -0.090211 1.57342 0
M  V30 3079 C 295.074 -1.13541 1.99101 0
M  V30 3080 C 296.087 -1.3604 0.894258 0
M  V30 3081 O 297.276 -1.34606 1.17233 0
M  V30 3082 C 294.376 -2.49001 2.29895 0
M  V30 3083 C 293.549 -2.46712 3.61182 0
M  V30 3084 C 292.608 -3.64136 3.79857 0
M  V30 3085 O 291.634 -3.46405 4.51655 0
M  V30 3086 N 292.836 -4.83802 3.20806 0
M  V30 3087 H 295.601 -0.779942 2.89373 0
M  V30 3088 H 293.162 -0.279125 1.59476 0
M  V30 3089 H 295.154 -3.26166 2.39578 0
M  V30 3090 H 293.724 -2.76619 1.45605 0
M  V30 3091 H 292.944 -1.55058 3.62423 0
M  V30 3092 H 294.232 -2.42265 4.4742 0
M  V30 3093 H 293.63 -5.01112 2.62494 0
M  V30 3094 H 292.187 -5.58543 3.35966 0
M  V30 3095 N 295.62 -1.53406 -0.361157 0
M  V30 3096 C 296.55 -1.83136 -1.44857 0
M  V30 3097 C 297.531 -0.685174 -1.5569 0
M  V30 3098 O 298.716 -0.93544 -1.70186 0
M  V30 3099 C 295.846 -2.02522 -2.82138 0
M  V30 3100 C 294.8 -3.18302 -2.86126 0
M  V30 3101 C 294.126 -3.22989 -4.26125 0
M  V30 3102 C 295.426 -4.56796 -2.53248 0
M  V30 3103 H 297.12 -2.74201 -1.20226 0
M  V30 3104 H 294.666 -1.31938 -0.576922 0
M  V30 3105 H 296.619 -2.21904 -3.58241 0
M  V30 3106 H 295.343 -1.08172 -3.08166 0
M  V30 3107 H 294.002 -2.98747 -2.12475 0
M  V30 3108 H 293.65 -2.26267 -4.49235 0
M  V30 3109 H 293.35 -4.00781 -4.29708 0
M  V30 3110 H 294.874 -3.44559 -5.04094 0
M  V30 3111 H 296.288 -4.7631 -3.19064 0
M  V30 3112 H 294.685 -5.36862 -2.68141 0
M  V30 3113 H 295.755 -4.61606 -1.48484 0
M  V30 3114 N 297.098 0.621204 -1.44841 0
M  V30 3115 C 298.028 1.74366 -1.55303 0
M  V30 3116 C 299.009 1.65199 -0.405385 0
M  V30 3117 O 300.194 1.83807 -0.626787 0
M  V30 3118 C 297.324 3.12931 -1.50637 0
M  V30 3119 C 296.278 3.36896 -2.63979 0
M  V30 3120 C 295.604 4.75594 -2.44366 0
M  V30 3121 C 296.904 3.28483 -4.06074 0
M  V30 3122 H 298.598 1.65867 -2.49256 0
M  V30 3123 H 296.144 0.796558 -1.19962 0
M  V30 3124 H 298.097 3.9124 -1.56555 0
M  V30 3125 H 296.821 3.22237 -0.532057 0
M  V30 3126 H 295.48 2.60972 -2.57467 0
M  V30 3127 H 295.128 4.81616 -1.45105 0
M  V30 3128 H 294.828 4.92586 -3.20364 0
M  V30 3129 H 296.352 5.5612 -2.52117 0
M  V30 3130 H 297.766 3.96684 -4.13902 0
M  V30 3131 H 296.163 3.57008 -4.82354 0
M  V30 3132 H 297.233 2.26133 -4.28943 0
M  V30 3133 N 298.576 1.31904 0.862503 0
M  V30 3134 C 299.992 1.10724 1.14945 0
M  V30 3135 C 300.192 -0.117421 2.01158 0
M  V30 3136 O 299.248 -0.804595 2.39338 0
M  V30 3137 C 300.561 2.38267 1.83437 0
M  V30 3138 C 302.109 2.43949 1.96106 0
M  V30 3139 C 302.584 3.71394 2.68013 0
M  V30 3140 N 304.075 3.72331 2.75543 0
M  V30 3141 C 304.81 4.67641 3.31812 0
M  V30 3142 N 304.306 5.73313 3.88953 0
M  V30 3143 N 306.099 4.5515 3.29841 0
M  V30 3144 H 298.25 2.10436 0.288191 0
M  V30 3145 H 300.513 0.928705 0.190292 0
M  V30 3146 H 300.219 3.27759 1.27542 0
M  V30 3147 H 300.093 2.48633 2.83657 0
M  V30 3148 H 302.48 1.54922 2.51164 0
M  V30 3149 H 302.561 2.37543 0.949059 0
M  V30 3150 H 302.205 4.60791 2.13621 0
M  V30 3151 H 302.135 3.75069 3.69636 0
M  V30 3152 H 304.626 2.95947 2.34997 0
M  V30 3153 H 304.939 6.42107 4.30022 0
M  V30 3154 H 303.284 5.77077 3.87308 0
M  V30 3155 H 306.475 3.71766 2.84443 0
M  V30 3156 H 306.648 5.29604 3.73394 0
M  V30 3157 N 300.054 -1.07777 1.14986 0
M  V30 3158 C 301.465 -1.61766 0.932127 0
M  V30 3159 C 301.816 -1.88974 -0.527581 0
M  V30 3160 O 300.941 -1.65198 -1.39781 0
M  V30 3161 C 301.536 -2.93891 1.68563 0
M  V30 3162 C 300.095 -3.44639 1.5133 0
M  V30 3163 C 299.242 -2.18767 1.704 0
M  V30 3164 H 302.193 -0.909201 1.30074 0
M  V30 3165 H 302.214 -3.62623 1.15259 0
M  V30 3166 H 301.726 -2.74057 2.74799 0
M  V30 3167 H 299.827 -3.69564 0.474702 0
M  V30 3168 H 299.94 -4.20966 2.28746 0
M  V30 3169 H 298.304 -2.28253 1.13016 0
M  V30 3170 H 299.087 -2.01433 2.77992 0
M  V30 3171 N 301.532 -0.945985 -1.26051 0
M  V30 3172 C 302.78 -0.594941 -1.93145 0
M  V30 3173 C 303.101 0.86953 -1.7454 0
M  V30 3174 O 302.371 1.61838 -1.10387 0
M  V30 3175 H 300.951 -0.217044 -0.714773 0
M  V30 3176 H 303.613 -1.20235 -1.53393 0
M  V30 3177 H 302.709 -0.816835 -3.01221 0
M  V30 3178 N 303.011 1.40521 -0.713556 0
M  V30 3179 C 304.259 2.00527 -0.251692 0
M  V30 3180 C 304.58 1.56857 1.15848 0
M  V30 3181 O 303.85 0.807127 1.785 0
M  V30 3182 H 302.43 0.741551 -0.0900646 0
M  V30 3183 H 305.092 1.71887 -0.918733 0
M  V30 3184 H 304.188 3.10813 -0.283192 0
M  V30 3185 N 304.489 0.459591 1.5075 0
M  V30 3186 C 305.738 -0.100971 2.01447 0
M  V30 3187 C 306.051 -1.41816 1.34713 0
M  V30 3188 O 307.257 -2.06299 1.76502 0
M  V30 3189 C 305.713 -0.23047 3.59161 0
M  V30 3190 C 305.321 1.0776 4.34847 0
M  V30 3191 C 307.065 -0.743608 4.17936 0
M  V30 3192 C 304.972 0.91253 5.84317 0
M  V30 3193 H 303.902 -0.0415102 0.752856 0
M  V30 3194 H 306.553 0.592742 1.73663 0
M  V30 3195 H 304.935 -0.987703 3.83485 0
M  V30 3196 H 306.109 1.8449 4.22256 0
M  V30 3197 H 304.424 1.52097 3.87628 0
M  V30 3198 H 307.021 -0.883959 5.27343 0
M  V30 3199 H 307.364 -1.73196 3.78562 0
M  V30 3200 H 307.897 -0.04408 3.97776 0
M  V30 3201 H 304.636 1.87391 6.28144 0
M  V30 3202 H 304.156 0.185422 5.99513 0
M  V30 3203 H 305.835 0.574547 6.44444 0
M  V30 3204 N 305.967 -1.56429 0.191757 0
M  V30 3205 C 306.897 -2.21937 -0.725696 0
M  V30 3206 C 307.878 -1.1814 -1.2238 0
M  V30 3207 O 309.063 -1.46636 -1.27325 0
M  V30 3208 C 306.193 -2.87611 -1.94672 0
M  V30 3209 C 305.147 -3.97623 -1.58366 0
M  V30 3210 C 304.473 -4.50446 -2.88102 0
M  V30 3211 C 305.773 -5.16197 -0.796133 0
M  V30 3212 H 307.467 -2.98861 -0.179606 0
M  V30 3213 H 305.013 -1.43749 -0.0849464 0
M  V30 3214 H 306.966 -3.3212 -2.59373 0
M  V30 3215 H 305.69 -2.08087 -2.51728 0
M  V30 3216 H 304.349 -3.53801 -0.960247 0
M  V30 3217 H 303.997 -3.67688 -3.43241 0
M  V30 3218 H 303.697 -5.24675 -2.64556 0
M  V30 3219 H 305.221 -4.97654 -3.53798 0
M  V30 3220 H 306.635 -5.57271 -1.34618 0
M  V30 3221 H 305.032 -5.96471 -0.658928 0
M  V30 3222 H 306.102 -4.84473 0.203478 0
M  V30 3223 N 307.445 0.0818655 -1.57387 0
M  V30 3224 C 308.408 1.08265 -2.02018 0
M  V30 3225 C 309.408 1.32183 -0.915664 0
M  V30 3226 O 310.598 1.28073 -1.18081 0
M  V30 3227 C 307.73 2.42871 -2.39221 0
M  V30 3228 H 308.923 0.698204 -2.91659 0
M  V30 3229 H 306.476 0.327303 -1.52835 0
M  V30 3230 H 307.211 2.86167 -1.52575 0
M  V30 3231 H 306.996 2.26855 -3.19811 0
M  V30 3232 H 308.486 3.14826 -2.74362 0
M  V30 3233 N 308.923 1.53595 0.353017 0
M  V30 3234 C 310.169 1.70638 1.09593 0
M  V30 3235 C 310.502 0.463286 1.88593 0
M  V30 3236 O 309.777 -0.539597 1.86865 0
M  V30 3237 C 310.06 2.96406 2.04489 0
M  V30 3238 C 309.913 4.30901 1.29014 0
M  V30 3239 C 311.232 3.17812 3.0444 0
M  V30 3240 H 308.351 0.620913 0.397034 0
M  V30 3241 H 310.993 1.86254 0.375446 0
M  V30 3242 H 309.143 2.83223 2.65927 0
M  V30 3243 H 310.815 4.55917 0.702638 0
M  V30 3244 H 309.058 4.29741 0.592071 0
M  V30 3245 H 309.729 5.1506 1.98537 0
M  V30 3246 H 312.205 3.30263 2.53112 0
M  V30 3247 H 311.081 4.07223 3.6805 0
M  V30 3248 H 311.342 2.33669 3.75301 0
M  V30 3249 N 310.401 -0.613514 1.45168 0
M  V30 3250 C 311.331 -1.7354 1.56225 0
M  V30 3251 C 312.312 -1.64981 0.41414 0
M  V30 3252 O 313.497 -1.83472 0.636526 0
M  V30 3253 C 310.627 -3.12128 1.52295 0
M  V30 3254 C 309.581 -3.35491 2.65762 0
M  V30 3255 C 308.907 -4.74291 2.46885 0
M  V30 3256 C 310.207 -3.26325 4.0781 0
M  V30 3257 H 311.901 -1.64543 2.50132 0
M  V30 3258 H 309.447 -0.790185 1.20383 0
M  V30 3259 H 311.4 -3.90404 1.58628 0
M  V30 3260 H 310.124 -3.2195 0.549139 0
M  V30 3261 H 308.783 -2.59603 2.58847 0
M  V30 3262 H 308.431 -4.80839 1.47657 0
M  V30 3263 H 308.131 -4.9088 3.22972 0
M  V30 3264 H 309.655 -5.54775 2.55063 0
M  V30 3265 H 311.069 -3.94483 4.16 0
M  V30 3266 H 309.466 -3.54445 4.8424 0
M  V30 3267 H 310.536 -2.23855 4.30136 0
M  V30 3268 N 311.879 -1.3236 -0.855495 0
M  V30 3269 C 313.295 -1.11332 -1.14356 0
M  V30 3270 C 313.495 0.106751 -2.01217 0
M  V30 3271 O 312.551 0.791891 -2.39761 0
M  V30 3272 C 313.864 -2.39237 -1.82171 0
M  V30 3273 C 315.412 -2.44986 -1.9481 0
M  V30 3274 C 315.887 -3.7281 -2.66039 0
M  V30 3275 N 317.378 -3.73787 -2.73565 0
M  V30 3276 C 318.113 -4.69394 -3.29327 0
M  V30 3277 N 317.609 -5.75367 -3.85907 0
M  V30 3278 N 319.402 -4.56893 -3.27423 0
M  V30 3279 H 311.553 -2.10586 -0.277027 0
M  V30 3280 H 313.816 -0.929701 -0.185364 0
M  V30 3281 H 313.522 -3.28431 -1.25802 0
M  V30 3282 H 313.396 -2.50134 -2.82335 0
M  V30 3283 H 315.783 -1.56252 -2.50338 0
M  V30 3284 H 315.864 -2.38043 -0.936448 0
M  V30 3285 H 315.508 -4.61918 -2.11174 0
M  V30 3286 H 315.438 -3.77024 -3.67642 0
M  V30 3287 H 317.929 -2.97189 -2.33424 0
M  V30 3288 H 318.242 -6.44378 -4.26611 0
M  V30 3289 H 316.587 -5.79123 -3.84242 0
M  V30 3290 H 319.778 -3.73269 -2.82467 0
M  V30 3291 H 319.951 -5.31577 -3.7058 0
M  V30 3292 N 313.357 1.07166 -1.15556 0
M  V30 3293 C 314.603 1.80065 -0.932984 0
M  V30 3294 C 314.936 1.86586 0.53845 0
M  V30 3295 O 314.211 1.35098 1.39924 0
M  V30 3296 C 314.494 3.25022 -1.55025 0
M  V30 3297 C 314.347 3.26634 -3.09242 0
M  V30 3298 C 315.666 4.22341 -1.2376 0
M  V30 3299 H 312.785 0.653697 -0.340366 0
M  V30 3300 H 315.427 1.25389 -1.4275 0
M  V30 3301 H 313.577 3.71712 -1.12972 0
M  V30 3302 H 315.249 2.88173 -3.60214 0
M  V30 3303 H 313.492 2.65539 -3.43033 0
M  V30 3304 H 314.163 4.28854 -3.47546 0
M  V30 3305 H 316.639 3.8405 -1.60139 0
M  V30 3306 H 315.515 5.22053 -1.69564 0
M  V30 3307 H 315.776 4.41828 -0.154938 0
M  V30 3308 N 314.835 0.952656 1.25548 0
M  V30 3309 C 315.765 0.489287 2.28316 0
M  V30 3310 C 316.746 -0.463359 1.63667 0
M  V30 3311 O 317.931 -0.36274 1.90782 0
M  V30 3312 C 315.061 -0.235603 3.465 0
M  V30 3313 C 314.015 0.631593 4.23314 0
M  V30 3314 C 313.341 -0.223923 5.34231 0
M  V30 3315 C 314.641 1.90871 4.86174 0
M  V30 3316 H 316.335 1.34822 2.67326 0
M  V30 3317 H 313.881 0.649728 1.28509 0
M  V30 3318 H 315.834 -0.570882 4.17515 0
M  V30 3319 H 314.558 -1.12877 3.06474 0
M  V30 3320 H 313.217 0.949929 3.54079 0
M  V30 3321 H 312.865 -1.11678 4.90446 0
M  V30 3322 H 312.565 0.35299 5.86539 0
M  V30 3323 H 314.089 -0.554214 6.0808 0
M  V30 3324 H 315.503 1.63997 5.49343 0
M  V30 3325 H 313.9 2.43112 5.4865 0
M  V30 3326 H 314.97 2.61304 4.08471 0
M  V30 3327 N 316.313 -1.40141 0.720998 0
M  V30 3328 C 317.559 -2.01572 0.272075 0
M  V30 3329 C 317.914 -1.5616 -1.12391 0
M  V30 3330 O 317.207 -0.774198 -1.75262 0
M  V30 3331 C 317.401 -3.56165 0.296892 0
M  V30 3332 C 317.23 -4.16584 1.69375 0
M  V30 3333 C 316 -4.49783 2.30269 0
M  V30 3334 C 318.198 -4.41076 2.64493 0
M  V30 3335 N 316.18 -4.95626 3.62254 0
M  V30 3336 C 317.551 -4.88971 3.81192 0
M  V30 3337 C 319.606 -4.23122 2.62435 0
M  V30 3338 C 318.309 -5.20796 4.96149 0
M  V30 3339 C 320.335 -4.56052 3.76524 0
M  V30 3340 C 319.697 -5.04141 4.91956 0
M  V30 3341 H 315.796 -0.768343 0.145511 0
M  V30 3342 H 318.38 -1.70287 0.943959 0
M  V30 3343 H 316.551 -3.86868 -0.344578 0
M  V30 3344 H 318.283 -4.04346 -0.169254 0
M  V30 3345 H 315.038 -4.37101 1.82318 0
M  V30 3346 H 315.462 -5.22923 4.29977 0
M  V30 3347 H 320.104 -3.85158 1.74393 0
M  V30 3348 H 317.822 -5.57672 5.84831 0
M  V30 3349 H 321.408 -4.43796 3.76213 0
M  V30 3350 H 320.288 -5.29142 5.78774 0
M  V30 3351 N 317.792 -0.46758 -1.50504 0
M  V30 3352 C 319.208 -0.121533 -1.59137 0
M  V30 3353 C 319.408 1.3717 -1.47603 0
M  V30 3354 O 318.464 2.14464 -1.33272 0
M  V30 3355 C 319.777 -0.6686 -2.93173 0
M  V30 3356 C 321.325 -0.631716 -3.06559 0
M  V30 3357 C 321.8 -1.15627 -4.43164 0
M  V30 3358 N 323.291 -1.11553 -4.49567 0
M  V30 3359 C 324.026 -1.49195 -5.5365 0
M  V30 3360 N 323.522 -1.94269 -6.65005 0
M  V30 3361 N 325.315 -1.4082 -5.44175 0
M  V30 3362 H 317.466 -1.4388 -1.56245 0
M  V30 3363 H 319.729 -0.594784 -0.738198 0
M  V30 3364 H 319.435 -1.71453 -3.07078 0
M  V30 3365 H 319.309 -0.11021 -3.77039 0
M  V30 3366 H 321.696 0.405297 -2.92304 0
M  V30 3367 H 321.777 -1.22687 -2.24458 0
M  V30 3368 H 321.421 -2.1919 -4.58168 0
M  V30 3369 H 321.351 -0.537365 -5.23851 0
M  V30 3370 H 323.842 -0.784895 -3.69659 0
M  V30 3371 H 324.155 -2.21148 -7.40482 0
M  V30 3372 H 322.5 -1.98219 -6.66134 0
M  V30 3373 H 325.691 -1.0545 -4.56068 0
M  V30 3374 H 325.864 -1.70481 -6.25172 0
M  V30 3375 N 319.27 1.56325 -0.20005 0
M  V30 3376 C 320.518 1.97329 0.436547 0
M  V30 3377 C 320.839 1.08826 1.61808 0
M  V30 3378 O 320.109 0.160604 1.95241 0
M  V30 3379 H 318.689 0.728714 0.164272 0
M  V30 3380 H 321.351 1.92761 -0.287937 0
M  V30 3381 H 320.447 3.02264 0.777353 0
M  V30 3382 N 320.748 -0.0735177 1.57428 0
M  V30 3383 C 321.695 -1.08756 2.0357 0
M  V30 3384 C 322.665 -1.38559 0.916 0
M  V30 3385 O 323.85 -1.49656 1.18354 0
M  V30 3386 C 320.99 -2.39657 2.48311 0
M  V30 3387 C 320.103 -2.16399 3.73892 0
M  V30 3388 C 319.238 -3.40852 4.07423 0
M  V30 3389 C 318.277 -3.1295 5.2605 0
M  V30 3390 N 317.414 -4.29729 5.55228 0
M  V30 3391 H 322.254 -0.687104 2.8997 0
M  V30 3392 H 319.791 -0.327709 1.43403 0
M  V30 3393 H 321.749 -3.16081 2.72303 0
M  V30 3394 H 320.379 -2.77508 1.64891 0
M  V30 3395 H 319.431 -1.30676 3.57251 0
M  V30 3396 H 320.743 -1.91788 4.60455 0
M  V30 3397 H 319.897 -4.25671 4.32306 0
M  V30 3398 H 318.636 -3.68537 3.19425 0
M  V30 3399 H 317.641 -2.26526 5.00965 0
M  V30 3400 H 318.866 -2.86589 6.15665 0
M  V30 3401 H 316.812 -4.57448 4.70188 0
M  V30 3402 H 316.729 -4.08385 6.36206 0
M  V30 3403 H 317.997 -5.1555 5.84661 0
M  V30 3404 N 322.226 -1.5378 -0.344866 0
M  V30 3405 C 323.472 -1.71216 -1.08687 0
M  V30 3406 C 323.805 -0.473281 -1.88345 0
M  V30 3407 O 323.08 0.52968 -1.87149 0
M  V30 3408 C 323.363 -2.97486 -2.02914 0
M  V30 3409 C 323.216 -4.31579 -1.26727 0
M  V30 3410 C 324.535 -3.19422 -3.0275 0
M  V30 3411 H 321.654 -0.62301 -0.393735 0
M  V30 3412 H 324.296 -1.8645 -0.365563 0
M  V30 3413 H 322.446 -2.84629 -2.64421 0
M  V30 3414 H 324.118 -4.56284 -0.67845 0
M  V30 3415 H 322.361 -4.30049 -0.569273 0
M  V30 3416 H 323.032 -5.16106 -1.95803 0
M  V30 3417 H 325.508 -3.316 -2.51357 0
M  V30 3418 H 324.384 -4.09169 -3.65885 0
M  V30 3419 H 324.645 -2.35656 -3.74057 0
M  V30 3420 N 323.704 0.605807 -1.45491 0
M  V30 3421 C 324.634 1.72709 -1.57143 0
M  V30 3422 C 325.615 1.6476 -0.422884 0
M  V30 3423 O 326.8 1.83132 -0.646247 0
M  V30 3424 C 323.93 3.11316 -1.53948 0
M  V30 3425 C 322.884 3.34077 -2.67537 0
M  V30 3426 C 322.21 4.72975 -2.49397 0
M  V30 3427 C 323.51 3.24158 -4.09535 0
M  V30 3428 H 325.204 1.63214 -2.51001 0
M  V30 3429 H 322.75 0.78379 -1.208 0
M  V30 3430 H 324.703 3.89557 -1.60696 0
M  V30 3431 H 323.427 3.21655 -0.566205 0
M  V30 3432 H 322.086 2.58227 -2.6022 0
M  V30 3433 H 321.734 4.8005 -1.50205 0
M  V30 3434 H 321.434 4.8916 -3.25571 0
M  V30 3435 H 322.958 5.53414 -2.58002 0
M  V30 3436 H 324.372 3.92271 -4.18086 0
M  V30 3437 H 322.769 3.51872 -4.86113 0
M  V30 3438 H 323.839 2.2157 -4.31317 0
M  V30 3439 N 325.182 1.32811 0.848464 0
M  V30 3440 C 326.114 1.18095 1.96433 0
M  V30 3441 C 327.127 0.114354 1.62398 0
M  V30 3442 O 328.316 0.363892 1.74751 0
M  V30 3443 C 325.416 0.786798 3.2964 0
M  V30 3444 C 324.589 1.943 3.91875 0
M  V30 3445 C 323.648 1.53138 5.03423 0
M  V30 3446 O 322.674 2.24432 5.23086 0
M  V30 3447 N 323.876 0.430915 5.78898 0
M  V30 3448 H 326.641 2.14218 2.09597 0
M  V30 3449 H 324.202 1.2543 1.02367 0
M  V30 3450 H 326.194 0.493715 4.01677 0
M  V30 3451 H 324.764 -0.0834541 3.12489 0
M  V30 3452 H 323.984 2.40224 3.12547 0
M  V30 3453 H 325.272 2.71689 4.30189 0
M  V30 3454 H 324.67 -0.162333 5.65467 0
M  V30 3455 H 323.227 0.197466 6.51501 0
M  V30 3456 N 326.66 -1.06551 1.16123 0
M  V30 3457 C 328.071 -1.60768 0.949232 0
M  V30 3458 C 328.422 -1.89523 -0.507508 0
M  V30 3459 O 327.547 -1.66671 -1.38021 0
M  V30 3460 C 328.142 -2.92086 1.71671 0
M  V30 3461 C 326.701 -3.43015 1.54977 0
M  V30 3462 C 325.848 -2.16947 1.72711 0
M  V30 3463 H 328.799 -0.895354 1.31031 0
M  V30 3464 H 328.82 -3.6138 1.19099 0
M  V30 3465 H 328.332 -2.71127 2.7769 0
M  V30 3466 H 326.433 -3.69039 0.513873 0
M  V30 3467 H 326.546 -4.18516 2.33198 0
M  V30 3468 H 324.91 -2.27041 1.15431 0
M  V30 3469 H 325.693 -1.98473 2.80113 0
M  V30 3470 N 328.138 -0.959301 -1.25041 0
M  V30 3471 C 329.549 -0.65667 -1.74771 0
M  V30 3472 C 329.9 0.827852 -1.77879 0
M  V30 3473 O 329.025 1.64783 -1.40269 0
M  V30 3474 C 329.62 -1.1853 -3.1739 0
M  V30 3475 C 328.179 -0.932734 -3.6466 0
M  V30 3476 C 327.326 -1.32558 -2.43564 0
M  V30 3477 H 330.277 -1.13558 -1.10862 0
M  V30 3478 H 330.298 -0.547582 -3.76539 0
M  V30 3479 H 329.81 -2.26576 -3.15095 0
M  V30 3480 H 327.911 0.13257 -3.72364 0
M  V30 3481 H 328.024 -1.57248 -4.52559 0
M  V30 3482 H 326.388 -0.743956 -2.43593 0
M  V30 3483 H 327.171 -2.41537 -2.43957 0
M  V30 3484 N 329.616 1.39756 -0.72842 0
M  V30 3485 C 330.563 2.30647 -0.0841519 0
M  V30 3486 C 331.533 1.48869 0.7367 0
M  V30 3487 O 332.718 1.77574 0.698015 0
M  V30 3488 C 329.858 3.35165 0.822091 0
M  V30 3489 C 328.971 4.31999 -0.0106663 0
M  V30 3490 C 328.106 5.23585 0.896241 0
M  V30 3491 C 327.145 6.12072 0.0583381 0
M  V30 3492 N 326.282 6.96035 0.920818 0
M  V30 3493 H 331.122 2.85173 -0.864891 0
M  V30 3494 H 328.659 1.40422 -0.438179 0
M  V30 3495 H 330.617 3.94345 1.36189 0
M  V30 3496 H 329.247 2.8211 1.56888 0
M  V30 3497 H 328.299 3.74492 -0.66781 0
M  V30 3498 H 329.611 4.9443 -0.658825 0
M  V30 3499 H 328.765 5.87759 1.50412 0
M  V30 3500 H 327.504 4.61459 1.57819 0
M  V30 3501 H 326.509 5.46916 -0.562389 0
M  V30 3502 H 327.734 6.76261 -0.6203 0
M  V30 3503 H 325.68 6.36485 1.58818 0
M  V30 3504 H 325.597 7.55284 0.32899 0
M  V30 3505 H 326.865 7.64646 1.51447 0
M  V30 3506 N 331.094 0.475555 1.50254 0
M  V30 3507 C 332.342 -0.077738 2.0195 0
M  V30 3508 C 332.663 -1.39813 1.35931 0
M  V30 3509 O 331.933 -1.89249 0.506123 0
M  V30 3510 H 330.513 -0.031719 0.746326 0
M  V30 3511 H 333.175 0.626995 1.84539 0
M  V30 3512 H 332.271 -0.225995 3.11281 0
M  V30 3513 N 332.573 -1.56217 0.208337 0
M  V30 3514 C 333.85 -1.89739 -0.475234 0
M  V30 3515 C 334.23 -1.1238 -1.78701 0
M  V30 3516 O 333.578 -0.228979 -2.2735 0
M  V30 3517 C 333.788 -3.42289 -0.681101 0
M  V30 3518 C 335.136 -4.12789 -0.994507 0
M  V30 3519 O 336.16 -3.47814 -0.768357 0
M  V30 3520 O 335.019 -5.27649 -1.42299 0
M  V30 3521 H 332.113 -0.788478 -0.249461 0
M  V30 3522 H 334.659 -1.67855 0.249538 0
M  V30 3523 H 333.431 -3.90534 0.244722 0
M  V30 3524 H 333.054 -3.69909 -1.45785 0
M  V30 3525 N 334.051 0.0651679 -1.57465 0
M  V30 3526 C 335.297 0.764193 -1.87851 0
M  V30 3527 C 335.63 1.76889 -0.801495 0
M  V30 3528 O 334.905 1.93594 0.187528 0
M  V30 3529 C 335.188 1.46625 -3.28897 0
M  V30 3530 C 335.041 0.477515 -4.47258 0
M  V30 3531 C 336.36 2.4095 -3.68281 0
M  V30 3532 H 333.479 0.276351 -0.683227 0
M  V30 3533 H 336.121 0.0272868 -1.8998 0
M  V30 3534 H 334.271 2.09438 -3.27212 0
M  V30 3535 H 335.943 -0.145922 -4.61069 0
M  V30 3536 H 334.186 -0.206576 -4.33308 0
M  V30 3537 H 334.857 1.0065 -5.42746 0
M  V30 3538 H 337.333 1.88209 -3.71102 0
M  V30 3539 H 336.209 2.87072 -4.67847 0
M  V30 3540 H 336.47 3.26049 -2.98571 0
M  V30 3541 N 335.529 1.53961 0.336706 0
M  V30 3542 C 336.492 1.81724 1.39675 0
M  V30 3543 C 337.492 0.688532 1.45313 0
M  V30 3544 O 338.682 0.956829 1.45569 0
M  V30 3545 C 335.814 1.96543 2.78538 0
M  V30 3546 H 337.007 2.76424 1.16318 0
M  V30 3547 H 334.56 1.45478 0.571474 0
M  V30 3548 H 335.295 1.0401 3.07168 0
M  V30 3549 H 335.08 2.78665 2.75841 0
M  V30 3550 H 336.57 2.19516 3.5525 0
M  V30 3551 N 337.007 -0.598083 1.45811 0
M  V30 3552 C 337.97 -1.69018 1.54808 0
M  V30 3553 C 338.97 -1.55037 0.426652 0
M  V30 3554 O 340.16 -1.59932 0.690456 0
M  V30 3555 C 337.292 -3.0835 1.45371 0
M  V30 3556 H 338.485 -1.62403 2.52121 0
M  V30 3557 H 336.038 -0.814626 1.33392 0
M  V30 3558 H 336.773 -3.20534 0.492793 0
M  V30 3559 H 336.558 -3.19907 2.26721 0
M  V30 3560 H 338.048 -3.8788 1.54721 0
M  V30 3561 N 338.485 -1.33259 -0.841409 0
M  V30 3562 C 339.395 -1.25332 -1.98316 0
M  V30 3563 C 340.411 -0.164364 -1.73222 0
M  V30 3564 O 341.587 -0.387486 -1.97637 0
M  V30 3565 C 338.652 -0.990078 -3.32262 0
M  V30 3566 C 337.713 -2.16879 -3.70489 0
M  V30 3567 C 336.946 -1.91801 -4.98044 0
M  V30 3568 O 337.169 -0.867075 -5.63771 0
M  V30 3569 O 336.103 -2.78267 -5.33714 0
M  V30 3570 H 339.929 -2.21344 -2.07944 0
M  V30 3571 H 337.514 -1.1328 -0.974058 0
M  V30 3572 H 339.396 -0.860321 -4.12524 0
M  V30 3573 H 338.071 -0.0602155 -3.23644 0
M  V30 3574 H 336.978 -2.35407 -2.90748 0
M  V30 3575 H 338.311 -3.0819 -3.8377 0
M  V30 3576 N 339.963 1.05934 -1.16686 0
M  V30 3577 C 341.203 1.80382 -0.961345 0
M  V30 3578 C 341.567 1.85331 0.501643 0
M  V30 3579 O 342.768 2.55795 0.825986 0
M  V30 3580 C 341.039 3.20777 -1.57596 0
M  V30 3581 S 342.598 4.11795 -1.51559 0
M  V30 3582 H 339.416 0.621332 -0.345641 0
M  V30 3583 H 342.018 1.27157 -1.48497 0
M  V30 3584 H 340.722 3.14773 -2.63337 0
M  V30 3585 H 340.253 3.79078 -1.05182 0
M  V30 3586 H 342.268 4.93485 -0.518374 0
M  V30 3587 N 341.441 0.965919 1.2453 0
M  V30 3588 C 342.687 0.62776 1.92839 0
M  V30 3589 C 343.02 -0.834694 1.75347 0
M  V30 3590 O 342.295 -1.60031 1.10546 0
M  V30 3591 C 342.578 1.00109 3.45905 0
M  V30 3592 C 342.431 2.52011 3.72573 0
M  V30 3593 C 343.75 0.53435 4.36844 0
M  V30 3594 H 340.869 0.229537 0.700344 0
M  V30 3595 H 343.511 1.2046 1.46933 0
M  V30 3596 H 341.661 0.510238 3.85135 0
M  V30 3597 H 343.333 3.08559 3.42912 0
M  V30 3598 H 341.576 2.95287 3.17786 0
M  V30 3599 H 342.247 2.73183 4.79661 0
M  V30 3600 H 344.723 0.955565 4.04979 0
M  V30 3601 H 343.599 0.824152 5.42678 0
M  V30 3602 H 343.86 -0.565589 4.38467 0
M  V30 3603 N 342.919 -1.39368 0.735821 0
M  V30 3604 C 344.335 -1.54204 0.411492 0
M  V30 3605 C 344.535 -1.70268 -1.07755 0
M  V30 3606 O 343.591 -1.70364 -1.86366 0
M  V30 3607 C 344.904 -2.75925 1.19523 0
M  V30 3608 C 346.452 -2.89761 1.18354 0
M  V30 3609 C 346.927 -4.14421 1.94986 0
M  V30 3610 N 348.418 -4.21462 1.92156 0
M  V30 3611 C 349.153 -5.16871 2.48258 0
M  V30 3612 N 348.649 -6.18063 3.13001 0
M  V30 3613 N 350.442 -5.09093 2.38287 0
M  V30 3614 H 342.593 -1.27189 1.70108 0
M  V30 3615 H 344.856 -0.616517 0.720147 0
M  V30 3616 H 344.562 -2.70401 2.24892 0
M  V30 3617 H 344.436 -3.68614 0.800222 0
M  V30 3618 H 346.823 -2.94777 0.137975 0
M  V30 3619 H 346.904 -1.98133 1.61793 0
M  V30 3620 H 346.548 -4.10166 2.99543 0
M  V30 3621 H 346.478 -5.05095 1.48953 0
M  V30 3622 H 348.969 -3.48979 1.44991 0
M  V30 3623 H 349.282 -6.87326 3.53275 0
M  V30 3624 H 347.627 -6.18448 3.17091 0
M  V30 3625 H 350.818 -4.28973 1.8735 0
M  V30 3626 H 350.991 -5.83272 2.82308 0
M  V30 3627 N 344.397 -0.483516 -1.5 0
M  V30 3628 C 345.345 0.318061 -2.30415 0
M  V30 3629 C 346.339 0.978988 -1.38247 0
M  V30 3630 O 347.545 0.908673 -1.55381 0
M  V30 3631 H 343.92 0.121419 -0.742133 0
M  V30 3632 H 345.891 -0.380403 -2.95965 0
M  V30 3633 C 344.64 1.38013 -3.19136 0
M  V30 3634 H 343.963 0.880952 -3.89973 0
M  V30 3635 H 345.403 1.91332 -3.78375 0
M  V30 3636 C 343.862 2.38884 -2.37563 0
M  V30 3637 O 344.392 3.44412 -2.06744 0
M  V30 3638 N 342.598 2.10912 -1.99911 0
M  V30 3639 H 342.145 1.25118 -2.25174 0
M  V30 3640 H 342.103 2.78635 -1.45636 0
M  V30 3641 N 345.875 1.56104 -0.216619 0
M  V30 3642 C 346.805 2.23063 0.690296 0
M  V30 3643 C 347.786 1.20072 1.20485 0
M  V30 3644 O 348.971 1.48643 1.24976 0
M  V30 3645 C 346.101 2.90672 1.90072 0
M  V30 3646 C 345.055 4.00092 1.5202 0
M  V30 3647 C 344.381 4.54972 2.80899 0
M  V30 3648 C 345.681 5.17398 0.71391 0
M  V30 3649 H 347.375 2.99109 0.132038 0
M  V30 3650 H 344.921 1.43866 0.0620664 0
M  V30 3651 H 346.874 3.36204 2.54057 0
M  V30 3652 H 345.598 2.12066 2.48386 0
M  V30 3653 H 344.257 3.55283 0.903839 0
M  V30 3654 H 343.905 3.73102 3.37348 0
M  V30 3655 H 343.605 5.28817 2.56176 0
M  V30 3656 H 345.129 5.0322 3.45836 0
M  V30 3657 H 346.543 5.59342 1.25735 0
M  V30 3658 H 344.94 5.97444 0.563951 0
M  V30 3659 H 346.01 4.84088 -0.280527 0
M  V30 3660 N 347.353 -0.0568162 1.57498 0
M  V30 3661 C 348.301 -1.08452 2.05769 0
M  V30 3662 C 349.295 -1.39164 0.965903 0
M  V30 3663 O 350.501 -1.38395 1.15095 0
M  V30 3664 H 346.876 -0.367148 0.656282 0
M  V30 3665 H 348.847 -0.651368 2.91204 0
M  V30 3666 C 347.596 -2.38543 2.52968 0
M  V30 3667 H 346.919 -2.15765 3.36579 0
M  V30 3668 H 348.359 -3.08863 2.90481 0
M  V30 3669 C 346.818 -3.05562 1.41893 0
M  V30 3670 O 347.348 -3.94262 0.769442 0
M  V30 3671 N 345.554 -2.6643 1.16032 0
M  V30 3672 H 345.101 -1.94387 1.6903 0
M  V30 3673 H 345.059 -3.11593 0.419219 0
M  V30 3674 N 348.832 -1.54138 -0.328536 0
M  V30 3675 C 349.742 -1.86192 -1.42723 0
M  V30 3676 C 350.758 -0.753382 -1.56844 0
M  V30 3677 O 351.934 -1.04718 -1.72035 0
M  V30 3678 C 348.999 -2.07824 -2.77507 0
M  V30 3679 C 348.06 -3.31641 -2.72603 0
M  V30 3680 C 347.293 -3.52232 -4.00959 0
M  V30 3681 O 347.516 -2.7636 -4.9898 0
M  V30 3682 O 346.45 -4.45699 -4.0452 0
M  V30 3683 H 350.276 -2.79608 -1.18547 0
M  V30 3684 H 347.861 -1.3998 -0.522104 0
M  V30 3685 H 349.743 -2.23411 -3.57303 0
M  V30 3686 H 348.418 -1.17596 -3.01584 0
M  V30 3687 H 347.325 -3.21444 -1.91376 0
M  V30 3688 H 348.658 -4.2191 -2.53481 0
M  V30 3689 N 350.31 0.590341 -1.46126 0
M  V30 3690 C 351.726 0.912917 -1.30912 0
M  V30 3691 C 351.926 1.99616 -0.274893 0
M  V30 3692 O 350.982 2.50397 0.325197 0
M  V30 3693 C 352.295 1.3375 -2.69317 0
M  V30 3694 C 353.843 1.45077 -2.77348 0
M  V30 3695 C 354.318 1.90904 -4.16317 0
M  V30 3696 N 355.809 1.9811 -4.18696 0
M  V30 3697 C 356.544 2.34828 -5.23109 0
M  V30 3698 N 356.04 2.70393 -6.37856 0
M  V30 3699 N 357.833 2.35317 -5.10473 0
M  V30 3700 H 349.984 -0.125358 -2.1203 0
M  V30 3701 H 352.247 0.00658481 -0.947977 0
M  V30 3702 H 351.953 0.615614 -3.4627 0
M  V30 3703 H 351.827 2.30058 -2.9892 0
M  V30 3704 H 354.214 2.16353 -2.00687 0
M  V30 3705 H 354.295 0.4704 -2.51438 0
M  V30 3706 H 353.939 1.20209 -4.9347 0
M  V30 3707 H 353.869 2.89886 -4.39629 0
M  V30 3708 H 356.36 1.73146 -3.359 0
M  V30 3709 H 356.673 2.97341 -7.13308 0
M  V30 3710 H 355.018 2.68048 -6.41229 0
M  V30 3711 H 358.209 2.0695 -4.19868 0
M  V30 3712 H 358.382 2.63605 -5.9196 0
M  V30 3713 N 351.788 1.33704 0.83433 0
M  V30 3714 C 353.037 1.24763 1.58484 0
M  V30 3715 C 353.35 -0.183775 1.94735 0
M  V30 3716 O 354.556 -0.395234 2.68608 0
M  V30 3717 C 353.012 2.18638 2.85876 0
M  V30 3718 C 352.62 3.66974 2.56971 0
M  V30 3719 C 354.364 2.18581 3.63899 0
M  V30 3720 C 352.271 4.5275 3.80488 0
M  V30 3721 H 351.201 0.463425 0.594772 0
M  V30 3722 H 353.852 1.58797 0.919551 0
M  V30 3723 H 352.234 1.77542 3.5397 0
M  V30 3724 H 353.408 4.16538 1.9706 0
M  V30 3725 H 351.723 3.69366 1.92244 0
M  V30 3726 H 354.32 2.79894 4.55591 0
M  V30 3727 H 354.663 1.18207 3.99165 0
M  V30 3728 H 355.196 2.58062 3.02735 0
M  V30 3729 H 351.935 5.54017 3.5035 0
M  V30 3730 H 351.455 4.07927 4.39722 0
M  V30 3731 H 353.134 4.66784 4.4802 0
M  V30 3732 N 353.266 -1.05314 1.17247 0
M  V30 3733 C 354.682 -1.30452 0.919473 0
M  V30 3734 C 354.882 -1.9703 -0.42209 0
M  V30 3735 O 353.938 -2.24311 -1.15935 0
M  V30 3736 C 355.251 -2.17551 2.07586 0
M  V30 3737 C 356.799 -2.30937 2.11275 0
M  V30 3738 C 357.274 -3.21396 3.26296 0
M  V30 3739 N 358.765 -3.28981 3.26076 0
M  V30 3740 C 359.5 -3.99095 4.11716 0
M  V30 3741 N 358.996 -4.71648 5.07465 0
M  V30 3742 N 360.789 -3.95247 3.9967 0
M  V30 3743 H 352.94 -0.604988 2.03602 0
M  V30 3744 H 355.203 -0.329368 0.888944 0
M  V30 3745 H 354.909 -1.75921 3.0454 0
M  V30 3746 H 354.783 -3.18182 2.02584 0
M  V30 3747 H 357.17 -2.71809 1.14907 0
M  V30 3748 H 357.251 -1.2994 2.20339 0
M  V30 3749 H 356.895 -2.81238 4.22927 0
M  V30 3750 H 356.825 -4.22395 3.14467 0
M  V30 3751 H 359.316 -2.77286 2.5675 0
M  V30 3752 H 359.629 -5.22705 5.6921 0
M  V30 3753 H 357.974 -4.70594 5.11435 0
M  V30 3754 H 361.165 -3.37691 3.24164 0
M  V30 3755 H 361.338 -4.4962 4.66632 0
M  V30 3756 N 354.744 -0.972509 -1.24016 0
M  V30 3757 C 356.16 -0.679827 -1.44397 0
M  V30 3758 C 356.36 0.756716 -1.86751 0
M  V30 3759 O 355.416 1.53007 -2.00861 0
M  V30 3760 C 356.729 -1.66803 -2.50195 0
M  V30 3761 C 358.277 -1.68119 -2.64017 0
M  V30 3762 C 358.752 -2.65748 -3.73017 0
M  V30 3763 N 360.243 -2.64219 -3.8045 0
M  V30 3764 C 360.978 -3.36433 -4.64328 0
M  V30 3765 N 360.474 -4.1818 -5.52356 0
M  V30 3766 N 362.267 -3.25235 -4.58453 0
M  V30 3767 H 354.418 -1.90059 -0.948228 0
M  V30 3768 H 356.681 -0.818527 -0.478245 0
M  V30 3769 H 356.387 -2.69498 -2.25973 0
M  V30 3770 H 356.261 -1.4446 -3.48441 0
M  V30 3771 H 358.648 -0.661319 -2.87594 0
M  V30 3772 H 358.729 -1.94525 -1.66113 0
M  V30 3773 H 358.373 -3.67872 -3.50189 0
M  V30 3774 H 358.303 -2.36619 -4.70446 0
M  V30 3775 H 360.794 -2.04887 -3.17537 0
M  V30 3776 H 361.107 -4.70157 -6.13329 0
M  V30 3777 H 359.452 -4.22273 -5.52006 0
M  V30 3778 H 362.643 -2.60829 -3.88698 0
M  V30 3779 H 362.816 -3.81776 -5.23594 0
M  V30 3780 N 356.222 1.38976 -0.743202 0
M  V30 3781 C 357.499 1.94351 -0.220705 0
M  V30 3782 C 357.879 1.67935 1.2791 0
M  V30 3783 O 357.227 1.01211 2.04862 0
M  V30 3784 C 357.437 3.44426 -0.563171 0
M  V30 3785 C 358.785 4.2144 -0.517046 0
M  V30 3786 O 359.809 3.52661 -0.500846 0
M  V30 3787 O 358.668 5.44032 -0.518806 0
M  V30 3788 H 355.762 0.825879 -0.043047 0
M  V30 3789 H 358.308 1.48429 -0.822618 0
M  V30 3790 H 357.08 3.5712 -1.59941 0
M  V30 3791 H 356.703 3.97543 0.0672883 0
M  V30 3792 N 357.7 0.491464 1.49741 0
M  V30 3793 C 358.946 -0.0565092 2.02721 0
M  V30 3794 C 359.279 -1.37522 1.37118 0
M  V30 3795 O 358.554 -1.87866 0.503645 0
M  V30 3796 C 358.837 -0.219051 3.59433 0
M  V30 3797 C 358.69 1.12211 4.35579 0
M  V30 3798 C 360.009 -0.964157 4.29409 0
M  V30 3799 H 357.128 -0.0190627 0.736753 0
M  V30 3800 H 359.77 0.641021 1.7886 0
M  V30 3801 H 357.92 -0.813165 3.79895 0
M  V30 3802 H 359.592 1.75437 4.26637 0
M  V30 3803 H 357.835 1.71377 3.98513 0
M  V30 3804 H 358.506 0.961794 5.43556 0
M  V30 3805 H 360.982 -0.460378 4.13545 0
M  V30 3806 H 359.858 -1.04671 5.38828 0
M  V30 3807 H 360.119 -2.00563 3.93988 0
M  V30 3808 N 359.178 -1.55987 0.224894 0
M  V30 3809 C 360.594 -1.59066 -0.130426 0
M  V30 3810 C 360.794 -1.24176 -1.5869 0
M  V30 3811 O 359.85 -0.978592 -2.32766 0
M  V30 3812 C 361.163 -3.00042 0.198883 0
M  V30 3813 C 362.711 -3.1268 0.141391 0
M  V30 3814 C 363.186 -4.55839 0.444422 0
M  V30 3815 N 364.677 -4.6152 0.394115 0
M  V30 3816 C 365.412 -5.70231 0.602038 0
M  V30 3817 N 364.908 -6.87291 0.871914 0
M  V30 3818 N 366.701 -5.59555 0.534245 0
M  V30 3819 H 358.852 -1.76941 1.17497 0
M  V30 3820 H 361.115 -0.822604 0.471197 0
M  V30 3821 H 360.821 -3.30234 1.2099 0
M  V30 3822 H 360.695 -3.74075 -0.484535 0
M  V30 3823 H 363.082 -2.82283 -0.860265 0
M  V30 3824 H 363.163 -2.40969 0.858335 0
M  V30 3825 H 362.807 -4.86954 1.44353 0
M  V30 3826 H 362.737 -5.2578 -0.293752 0
M  V30 3827 H 365.228 -3.77405 0.193356 0
M  V30 3828 H 365.541 -7.66058 1.01858 0
M  V30 3829 H 363.886 -6.89028 0.909145 0
M  V30 3830 H 367.077 -4.6698 0.323612 0
M  V30 3831 H 367.25 -6.44211 0.699693 0
M  V30 3832 N 360.656 0.0484629 -1.57525 0
M  V30 3833 C 361.902 0.744226 -1.88651 0
M  V30 3834 C 362.235 1.76029 -0.820212 0
M  V30 3835 O 361.51 1.93782 0.166985 0
M  V30 3836 C 361.793 1.43128 -3.30434 0
M  V30 3837 C 361.646 0.43005 -4.47739 0
M  V30 3838 C 362.965 2.37031 -3.70816 0
M  V30 3839 H 360.084 0.269089 -0.68612 0
M  V30 3840 H 362.726 0.00713532 -1.89999 0
M  V30 3841 H 360.876 2.05956 -3.29415 0
M  V30 3842 H 362.548 -0.194816 -4.60888 0
M  V30 3843 H 360.791 -0.252522 -4.33064 0
M  V30 3844 H 361.462 0.948874 -5.43783 0
M  V30 3845 H 363.938 1.84263 -3.73077 0
M  V30 3846 H 362.814 2.82094 -4.70865 0
M  V30 3847 H 363.075 3.22864 -3.02012 0
M  V30 3848 N 362.134 1.5431 0.320358 0
M  V30 3849 C 363.364 1.7638 1.07582 0
M  V30 3850 C 363.772 0.513944 1.82086 0
M  V30 3851 O 363.115 -0.525123 1.76035 0
M  V30 3852 C 363.177 2.9055 2.1171 0
M  V30 3853 C 362.841 4.2934 1.56575 0
M  V30 3854 C 363.838 5.10077 1.00586 0
M  V30 3855 C 361.523 4.75893 1.60722 0
M  V30 3856 C 363.517 6.35477 0.494756 0
M  V30 3857 C 361.204 6.0126 1.09224 0
M  V30 3858 C 362.202 6.80886 0.53696 0
M  V30 3859 O 361.89 8.03894 0.0297371 0
M  V30 3860 H 361.622 0.592369 0.325692 0
M  V30 3861 H 364.176 2.02019 0.37116 0
M  V30 3862 H 362.406 2.60489 2.85801 0
M  V30 3863 H 364.095 3.00373 2.73003 0
M  V30 3864 H 364.861 4.75265 0.966869 0
M  V30 3865 H 360.74 4.13957 2.02882 0
M  V30 3866 H 364.284 6.97574 0.0606842 0
M  V30 3867 H 360.181 6.35562 1.12831 0
M  V30 3868 H 360.949 8.18372 0.14486 0
M  V30 3869 N 363.613 -0.582584 1.46437 0
M  V30 3870 C 364.862 -1.337 1.5102 0
M  V30 3871 C 365.175 -1.94891 0.166359 0
M  V30 3872 O 366.381 -2.71351 0.0899954 0
M  V30 3873 C 364.837 -2.42315 2.66104 0
M  V30 3874 C 364.445 -1.87427 4.06909 0
M  V30 3875 C 366.189 -3.19099 2.79958 0
M  V30 3876 C 364.096 -2.93672 5.13333 0
M  V30 3877 H 363.026 -0.502619 0.562041 0
M  V30 3878 H 365.677 -0.621701 1.72647 0
M  V30 3879 H 364.059 -3.16645 2.37807 0
M  V30 3880 H 365.233 -1.19639 4.44998 0
M  V30 3881 H 363.548 -1.2331 3.97723 0
M  V30 3882 H 366.145 -3.9839 3.56636 0
M  V30 3883 H 366.488 -3.71695 1.87479 0
M  V30 3884 H 367.021 -2.51875 3.07902 0
M  V30 3885 H 363.76 -2.45962 6.07604 0
M  V30 3886 H 363.28 -3.59948 4.79789 0
M  V30 3887 H 364.959 -3.5762 5.39182 0
M  V30 3888 N 365.091 -1.34144 -0.827227 0
M  V30 3889 C 366.316 -1.29476 -1.62021 0
M  V30 3890 C 366.741 0.129292 -1.87655 0
M  V30 3891 O 366.099 1.08967 -1.449 0
M  V30 3892 C 366.147 -2.08702 -2.94068 0
M  V30 3893 O 365.251 -1.45359 -3.85933 0
M  V30 3894 H 364.592 -0.444881 -0.492927 0
M  V30 3895 H 367.122 -1.76882 -1.02829 0
M  V30 3896 H 367.132 -2.19898 -3.43669 0
M  V30 3897 H 365.807 -3.12241 -2.74734 0
M  V30 3898 H 364.384 -1.42879 -3.44442 0
M  V30 3899 N 366.569 1.04691 -1.17803 0
M  V30 3900 C 367.499 2.14494 -0.92275 0
M  V30 3901 C 368.48 1.69546 0.137179 0
M  V30 3902 O 369.665 1.94195 -0.0141108 0
M  V30 3903 C 366.795 3.44491 -0.440803 0
M  V30 3904 C 365.749 4.03031 -1.4405 0
M  V30 3905 C 365.075 5.28432 -0.81631 0
M  V30 3906 C 366.375 4.39932 -2.81527 0
M  V30 3907 H 368.069 2.36107 -1.84103 0
M  V30 3908 H 365.615 1.1347 -0.886599 0
M  V30 3909 H 367.568 4.2066 -0.249602 0
M  V30 3910 H 366.292 3.22546 0.513025 0
M  V30 3911 H 364.951 3.28937 -1.61853 0
M  V30 3912 H 364.599 5.02792 0.144511 0
M  V30 3913 H 364.299 5.68559 -1.48371 0
M  V30 3914 H 365.823 6.07284 -0.635496 0
M  V30 3915 H 367.237 5.07113 -2.67412 0
M  V30 3916 H 365.634 4.9109 -3.44892 0
M  V30 3917 H 366.704 3.50045 -3.35554 0
M  V30 3918 N 368.047 0.979072 1.23499 0
M  V30 3919 C 368.977 0.537606 2.27227 0
M  V30 3920 C 369.958 -0.428539 1.64613 0
M  V30 3921 O 371.143 -0.322191 1.91509 0
M  V30 3922 C 368.273 -0.162052 3.46922 0
M  V30 3923 C 367.227 0.721242 4.21879 0
M  V30 3924 C 366.553 -0.110555 5.34586 0
M  V30 3925 C 367.853 2.01141 4.82016 0
M  V30 3926 H 369.547 1.40462 2.64406 0
M  V30 3927 H 367.093 0.67684 1.27102 0
M  V30 3928 H 369.046 -0.482192 4.18632 0
M  V30 3929 H 367.77 -1.06351 3.08799 0
M  V30 3930 H 366.429 1.02482 3.51984 0
M  V30 3931 H 366.077 -1.0125 4.92704 0
M  V30 3932 H 365.777 0.477325 5.85658 0
M  V30 3933 H 367.301 -0.425107 6.09118 0
M  V30 3934 H 368.715 1.75612 5.45741 0
M  V30 3935 H 367.112 2.54695 5.43369 0
M  V30 3936 H 368.182 2.69909 4.02836 0
M  V30 3937 N 369.525 -1.3858 0.750561 0
M  V30 3938 C 370.936 -1.82927 0.373438 0
M  V30 3939 C 371.287 -1.62634 -1.09748 0
M  V30 3940 O 370.412 -1.12588 -1.84805 0
M  V30 3941 C 371.007 -3.32088 0.671029 0
M  V30 3942 C 369.566 -3.74795 0.34722 0
M  V30 3943 C 368.713 -2.61391 0.92575 0
M  V30 3944 H 371.664 -1.27351 0.946958 0
M  V30 3945 H 371.685 -3.80465 -0.0518269 0
M  V30 3946 H 371.197 -3.46826 1.74164 0
M  V30 3947 H 369.298 -3.65638 -0.716933 0
M  V30 3948 H 369.411 -4.71667 0.840656 0
M  V30 3949 H 367.775 -2.52265 0.351327 0
M  V30 3950 H 368.558 -2.78929 2.00133 0
M  V30 3951 N 371.003 -0.499398 -1.49478 0
M  V30 3952 C 371.933 0.269244 -2.31943 0
M  V30 3953 C 372.914 0.964054 -1.40143 0
M  V30 3954 O 374.099 0.955767 -1.69052 0
M  V30 3955 C 371.229 1.33504 -3.20615 0
M  V30 3956 C 370.183 0.760202 -4.21195 0
M  V30 3957 C 369.509 1.9264 -4.98792 0
M  V30 3958 C 370.809 -0.247661 -5.21712 0
M  V30 3959 H 372.503 -0.419082 -2.96452 0
M  V30 3960 H 370.049 -0.202988 -1.42562 0
M  V30 3961 H 372.002 1.88048 -3.77115 0
M  V30 3962 H 370.726 2.05253 -2.54045 0
M  V30 3963 H 369.385 0.23653 -3.65836 0
M  V30 3964 H 369.033 2.63154 -4.28671 0
M  V30 3965 H 368.733 1.54785 -5.66847 0
M  V30 3966 H 370.257 2.4762 -5.58137 0
M  V30 3967 H 371.671 0.209579 -5.72917 0
M  V30 3968 H 370.068 -0.541962 -5.97648 0
M  V30 3969 H 371.138 -1.16409 -4.7072 0
M  V30 3970 N 372.481 1.55866 -0.233164 0
M  V30 3971 C 373.729 1.9821 0.394593 0
M  V30 3972 C 374.05 1.12234 1.59463 0
M  V30 3973 O 373.32 0.201981 1.94856 0
M  V30 3974 H 371.9 0.732034 0.148778 0
M  V30 3975 H 374.562 1.92107 -0.32876 0
M  V30 3976 H 373.658 3.03845 0.713063 0
M  V30 3977 N 373.959 -0.0401083 1.57549 0
M  V30 3978 C 375.236 -0.767917 1.79896 0
M  V30 3979 C 375.616 -1.9416 0.82856 0
M  V30 3980 O 374.964 -2.2812 -0.131671 0
M  V30 3981 C 375.174 -1.2113 3.27305 0
M  V30 3982 C 376.522 -1.63175 3.91994 0
M  V30 3983 O 377.546 -1.30616 3.31388 0
M  V30 3984 O 376.405 -2.23565 4.98679 0
M  V30 3985 H 373.499 -0.370441 0.739393 0
M  V30 3986 H 376.045 -0.017737 1.69691 0
M  V30 3987 H 374.817 -0.372937 3.89519 0
M  V30 3988 H 374.44 -2.02183 3.42356 0
M  V30 3989 N 375.437 -1.54477 -0.31217 0
M  V30 3990 C 376.685 -1.72884 -1.04668 0
M  V30 3991 C 377.006 -0.511477 -1.88173 0
M  V30 3992 O 376.276 0.474407 -1.90069 0
M  V30 3993 H 374.856 -0.637461 -0.389425 0
M  V30 3994 H 377.518 -1.91807 -0.345852 0
M  V30 3995 H 376.614 -2.61334 -1.70619 0
M  V30 3996 N 376.915 0.57481 -1.46744 0
M  V30 3997 C 377.845 1.69337 -1.60771 0
M  V30 3998 C 378.826 1.63825 -0.457736 0
M  V30 3999 O 380.011 1.8172 -0.684947 0
M  V30 4000 C 377.141 3.0798 -1.60517 0
M  V30 4001 C 376.095 3.28327 -2.74564 0
M  V30 4002 C 375.421 4.67578 -2.59373 0
M  V30 4003 C 376.721 3.15398 -4.16319 0
M  V30 4004 H 378.415 1.57853 -2.54407 0
M  V30 4005 H 375.961 0.75799 -1.22436 0
M  V30 4006 H 377.914 3.86061 -1.68923 0
M  V30 4007 H 376.638 3.20381 -0.634305 0
M  V30 4008 H 375.297 2.52649 -2.65639 0
M  V30 4009 H 374.945 4.76755 -1.60353 0
M  V30 4010 H 374.645 4.82144 -3.35873 0
M  V30 4011 H 376.169 5.47817 -2.69682 0
M  V30 4012 H 377.583 3.83315 -4.26313 0
M  V30 4013 H 375.98 3.41482 -4.93468 0
M  V30 4014 H 377.05 2.12372 -4.3592 0
M  V30 4015 N 378.394 1.34581 0.820102 0
M  V30 4016 C 379.622 1.3018 1.60813 0
M  V30 4017 C 380.037 -0.123551 1.88395 0
M  V30 4018 O 379.394 -1.07148 1.47735 0
M  V30 4019 C 379.445 2.09312 2.94739 0
M  V30 4020 O 379.166 3.46288 2.68358 0
M  V30 4021 C 380.667 2.1234 3.89136 0
M  V30 4022 H 377.887 0.447726 0.499782 0
M  V30 4023 H 380.431 1.77237 1.02017 0
M  V30 4024 H 378.586 1.65889 3.50085 0
M  V30 4025 H 379 3.87227 3.53774 0
M  V30 4026 H 380.474 2.72126 4.80262 0
M  V30 4027 H 380.951 1.11854 4.24718 0
M  V30 4028 H 381.557 2.55864 3.39726 0
M  V30 4029 N 379.872 -1.04064 1.18357 0
M  V30 4030 C 380.802 -2.14001 0.934113 0
M  V30 4031 C 381.783 -1.69616 -0.128186 0
M  V30 4032 O 382.968 -1.94185 0.0244093 0
M  V30 4033 C 380.098 -3.44253 0.459066 0
M  V30 4034 C 379.052 -4.02261 1.46185 0
M  V30 4035 C 378.378 -5.27992 0.844322 0
M  V30 4036 C 379.678 -4.38432 2.83856 0
M  V30 4037 H 381.372 -2.35127 1.85352 0
M  V30 4038 H 378.918 -1.12998 0.892604 0
M  V30 4039 H 380.871 -4.20522 0.271907 0
M  V30 4040 H 379.595 -3.22813 -0.495912 0
M  V30 4041 H 378.254 -3.28074 1.63595 0
M  V30 4042 H 377.902 -5.02862 -0.117845 0
M  V30 4043 H 377.602 -5.67765 1.51384 0
M  V30 4044 H 379.126 -6.06938 0.667693 0
M  V30 4045 H 380.54 -5.05688 2.70098 0
M  V30 4046 H 378.937 -4.89254 3.47491 0
M  V30 4047 H 380.007 -3.4826 3.37406 0
M  V30 4048 N 381.35 -0.985608 -1.22978 0
M  V30 4049 C 382.313 -0.535071 -2.22867 0
M  V30 4050 C 383.313 0.378123 -1.56291 0
M  V30 4051 O 384.503 0.171092 -1.73358 0
M  V30 4052 C 381.635 0.222702 -3.40172 0
M  V30 4053 H 382.828 -1.41835 -2.6424 0
M  V30 4054 H 380.381 -0.772042 -1.35901 0
M  V30 4055 H 381.116 1.12229 -3.04262 0
M  V30 4056 H 380.901 -0.43288 -3.89703 0
M  V30 4057 H 382.391 0.526335 -4.1427 0
M  V30 4058 N 382.828 1.3818 -0.7579 0
M  V30 4059 C 384.075 2.00019 -0.315985 0
M  V30 4060 C 384.403 1.60163 1.10355 0
M  V30 4061 O 383.658 0.83264 1.77103 0
M  V30 4062 C 383.957 3.55252 -0.391218 0
M  V30 4063 C 383.623 4.14834 -1.76702 0
M  V30 4064 C 382.285 4.30821 -2.14353 0
M  V30 4065 C 384.637 4.47658 -2.66931 0
M  V30 4066 C 381.965 4.76928 -3.41696 0
M  V30 4067 C 384.317 4.95184 -3.93669 0
M  V30 4068 C 382.981 5.09377 -4.31383 0
M  V30 4069 H 382.251 0.731923 -0.115627 0
M  V30 4070 H 384.898 1.65161 -0.969223 0
M  V30 4071 H 383.203 3.90273 0.34558 0
M  V30 4072 H 384.9 4.00988 -0.030805 0
M  V30 4073 H 381.49 4.02808 -1.46435 0
M  V30 4074 H 385.674 4.34904 -2.39106 0
M  V30 4075 H 380.93 4.86103 -3.70829 0
M  V30 4076 H 385.104 5.19551 -4.63724 0
M  V30 4077 H 382.731 5.44865 -5.30119 0
M  V30 4078 N 384.306 0.507319 1.49211 0
M  V30 4079 C 385.253 -0.267728 2.29242 0
M  V30 4080 C 386.223 -0.954609 1.35928 0
M  V30 4081 O 387.408 -0.960046 1.64887 0
M  V30 4082 C 384.548 -1.32243 3.18756 0
M  V30 4083 C 383.661 -0.64669 4.27132 0
M  V30 4084 C 382.796 -1.68238 5.03855 0
M  V30 4085 C 381.835 -0.98885 6.0406 0
M  V30 4086 N 380.972 -1.96903 6.73924 0
M  V30 4087 H 385.812 0.420968 2.95012 0
M  V30 4088 H 383.349 0.219443 1.45454 0
M  V30 4089 H 385.307 -1.94599 3.69036 0
M  V30 4090 H 383.937 -1.97981 2.54958 0
M  V30 4091 H 382.989 0.0902926 3.80293 0
M  V30 4092 H 384.301 -0.101058 4.98698 0
M  V30 4093 H 383.455 -2.38081 5.58034 0
M  V30 4094 H 382.194 -2.26187 4.32077 0
M  V30 4095 H 381.199 -0.276222 5.49106 0
M  V30 4096 H 382.424 -0.415767 6.77826 0
M  V30 4097 H 380.37 -2.53803 6.04913 0
M  V30 4098 H 380.287 -1.47423 7.41487 0
M  V30 4099 H 381.555 -2.66015 7.32705 0
M  V30 4100 N 385.784 -1.5574 0.241426 0
M  V30 4101 C 387.033 -1.97986 -0.385295 0
M  V30 4102 C 387.346 -1.13267 -1.59468 0
M  V30 4103 O 388.552 -1.45501 -2.2922 0
M  V30 4104 C 387.008 -3.52275 -0.736884 0
M  V30 4105 C 386.616 -4.45726 0.450796 0
M  V30 4106 C 388.36 -4.03189 -1.3281 0
M  V30 4107 C 386.267 -5.91352 0.0756662 0
M  V30 4108 H 385.197 -0.739386 -0.147731 0
M  V30 4109 H 387.848 -1.80308 0.340779 0
M  V30 4110 H 386.23 -3.65628 -1.52094 0
M  V30 4111 H 387.404 -4.44131 1.22819 0
M  V30 4112 H 385.719 -4.05264 0.956573 0
M  V30 4113 H 388.316 -5.09505 -1.62201 0
M  V30 4114 H 388.659 -3.50212 -2.25071 0
M  V30 4115 H 389.192 -3.93141 -0.607069 0
M  V30 4116 H 385.931 -6.48354 0.965272 0
M  V30 4117 H 385.451 -5.96095 -0.665635 0
M  V30 4118 H 387.13 -6.46084 -0.344075 0
M  V30 4119 O 387.301 -0.105854 -1.61153 0
M  V30 4120 H 387.992 0.494986 -1.87269 0
M  V30 END ATOM
M  V30 BEGIN BOND
M  V30 END BOND
M  V30 END CTAB
M  END
$$$$
