drugbank_target|P54750 Calcium/calmodulin-dependent 3',5'-cyclic nucleotide phosphodiesterase 1A (DB00622; DB01023; DB01244)
 OpenBabel12092120343D

  0  0  0     0  0            999 V3000
M  V30 BEGIN CTAB
M  V30 COUNTS 8586 8673 0 0 0
M  V30 BEGIN ATOM
M  V30 1 H -0.908 1.98254 -0.117106 0
M  V30 2 N 0 1.576 0 0
M  V30 3 C 0.933 2.03868 1.02534 0
M  V30 4 C 1.911 0.928543 1.3348 0
M  V30 5 O 3.095 1.19667 1.45644 0
M  V30 6 C 0.222 2.43627 2.35294 0
M  V30 7 C -0.732 3.65373 2.2001 0
M  V30 8 S 0.101 5.13292 1.52614 0
M  V30 9 C 1.257 5.56322 2.86805 0
M  V30 10 H 1.49 2.90518 0.631377 0
M  V30 11 H -0.977 1.52953 0.210867 0
M  V30 12 H 0.981 2.67203 3.11629 0
M  V30 13 H -0.358 1.57376 2.7183 0
M  V30 14 H -1.165 3.90944 3.18086 0
M  V30 15 H -1.563 3.418 1.51819 0
M  V30 16 H 0.729 5.58782 3.83104 0
M  V30 17 H 1.672 6.56266 2.65933 0
M  V30 18 H 2.08 4.83886 2.90714 0
M  V30 19 N 1.4781 -0.272755 1.55222 0
M  V30 20 C 2.7261 -1.00234 1.75492 0
M  V30 21 C 3.0471 -1.8681 0.5592 0
M  V30 22 O 2.3171 -1.91215 -0.425882 0
M  V30 23 H 0.8971 -0.373076 0.647166 0
M  V30 24 H 3.5591 -0.296926 1.92625 0
M  V30 25 H 2.6551 -1.63913 2.65592 0
M  V30 26 N 2.9562 -1.48159 -0.537278 0
M  V30 27 C 4.1812 -1.59707 -1.32319 0
M  V30 28 C 4.6062 -0.254859 -1.86365 0
M  V30 29 O 3.9642 0.772378 -1.64024 0
M  V30 30 C 4.0122 -2.6412 -2.45505 0
M  V30 31 O 3.1162 -2.20774 -3.48328 0
M  V30 32 H 2.4572 -0.535791 -0.392204 0
M  V30 33 H 4.9872 -1.94092 -0.647268 0
M  V30 34 H 4.9972 -2.85166 -2.91795 0
M  V30 35 H 3.6722 -3.61567 -2.05528 0
M  V30 36 H 2.2492 -2.09911 -3.08207 0
M  V30 37 N 4.4343 0.785586 -1.36625 0
M  V30 38 C 5.6593 1.57963 -1.34397 0
M  V30 39 C 6.0843 1.87964 0.071526 0
M  V30 40 O 5.4423 1.48182 1.0446 0
M  V30 41 C 5.4903 2.87511 -2.17646 0
M  V30 42 O 4.5943 3.81281 -1.57158 0
M  V30 43 H 3.9353 0.479014 -0.459828 0
M  V30 44 H 6.4653 0.973411 -1.79961 0
M  V30 45 H 6.4753 3.36745 -2.30362 0
M  V30 46 H 5.1503 2.65002 -3.20541 0
M  V30 47 H 3.7273 3.39885 -1.53403 0
M  V30 48 N 5.9124 1.20967 1.01018 0
M  V30 49 C 6.8754 0.965918 2.07853 0
M  V30 50 C 7.8754 -0.0610545 1.60684 0
M  V30 51 O 9.0654 0.175681 1.73312 0
M  V30 52 C 6.1974 0.455513 3.37843 0
M  V30 53 H 7.3904 1.91365 2.3091 0
M  V30 54 H 4.9434 1.02594 1.17916 0
M  V30 55 H 5.6784 -0.497381 3.20463 0
M  V30 56 H 5.4634 1.19622 3.73407 0
M  V30 57 H 6.9534 0.304667 4.16487 0
M  V30 58 N 7.3905 -1.2043 1.01659 0
M  V30 59 C 8.6185 -1.93777 0.725132 0
M  V30 60 C 9.0335 -1.74772 -0.714166 0
M  V30 61 O 8.3905 -1.06169 -1.4844 0
M  V30 62 C 8.4415 -3.45876 1.05129 0
M  V30 63 O 8.1625 -3.6426 2.43406 0
M  V30 64 C 9.6635 -4.36368 0.780891 0
M  V30 65 H 6.8835 -0.615901 0.266284 0
M  V30 66 H 9.4275 -1.52922 1.35776 0
M  V30 67 H 7.5825 -3.8461 0.464065 0
M  V30 68 H 7.9965 -4.58246 2.55169 0
M  V30 69 H 9.4705 -5.41743 1.05918 0
M  V30 70 H 9.9475 -4.38275 -0.284937 0
M  V30 71 H 10.5535 -4.03296 1.35027 0
M  V30 72 N 8.8686 -0.792821 -1.36206 0
M  V30 73 C 9.7786 -0.194808 -2.3379 0
M  V30 74 C 10.7946 0.654869 -1.61206 0
M  V30 75 O 11.9706 0.569856 -1.9317 0
M  V30 76 C 9.0356 0.657721 -3.40404 0
M  V30 77 C 8.0966 -0.210849 -4.28782 0
M  V30 78 C 7.3296 0.601086 -5.30304 0
M  V30 79 O 7.5526 1.83682 -5.40016 0
M  V30 80 O 6.4866 -0.000808277 -6.019 0
M  V30 81 H 10.3126 -1.00172 -2.86704 0
M  V30 82 H 7.8976 -0.554341 -1.38735 0
M  V30 83 H 9.7796 1.14375 -4.05581 0
M  V30 84 H 8.4546 1.44247 -2.89784 0
M  V30 85 H 7.3616 -0.743714 -3.66633 0
M  V30 86 H 8.6946 -0.959195 -4.82763 0
M  V30 87 N 10.3467 1.47872 -0.545128 0
M  V30 88 C 11.5957 2.01695 -0.0145033 0
M  V30 89 C 11.9087 1.42609 1.33873 0
M  V30 90 O 13.1147 1.88021 1.95858 0
M  V30 91 C 11.5707 3.59892 0.0245068 0
M  V30 92 C 11.1787 4.27966 -1.32475 0
M  V30 93 C 12.9227 4.21507 0.50316 0
M  V30 94 C 10.8297 5.78136 -1.2455 0
M  V30 95 H 9.7597 0.753998 -0.00165172 0
M  V30 96 H 12.4107 1.69985 -0.691175 0
M  V30 97 H 10.7927 3.88509 0.766575 0
M  V30 98 H 11.9667 4.11003 -2.08357 0
M  V30 99 H 10.2817 3.78286 -1.74036 0
M  V30 100 H 12.8787 5.31538 0.580656 0
M  V30 101 H 13.2217 3.87855 1.51243 0
M  V30 102 H 13.7547 3.97376 -0.183681 0
M  V30 103 H 10.4937 6.16388 -2.23039 0
M  V30 104 H 10.0137 5.97469 -0.528282 0
M  V30 105 H 11.6927 6.40099 -0.942488 0
M  V30 106 N 11.8248 0.280983 1.55075 0
M  V30 107 C 12.7348 -0.61388 2.26426 0
M  V30 108 C 13.7508 -1.16521 1.29224 0
M  V30 109 O 14.9268 -1.19426 1.62171 0
M  V30 110 C 11.9918 -1.7788 2.9759 0
M  V30 111 C 11.0528 -1.26355 4.10284 0
M  V30 112 C 10.2858 -2.37295 4.78045 0
M  V30 113 O 10.5088 -3.56777 4.45047 0
M  V30 114 O 9.4428 -2.05119 5.65871 0
M  V30 115 H 13.2688 -0.0356932 3.03679 0
M  V30 116 H 10.8538 0.0481686 1.49322 0
M  V30 117 H 12.7358 -2.45791 3.42293 0
M  V30 118 H 11.4108 -2.34397 2.23249 0
M  V30 119 H 10.3178 -0.550735 3.70024 0
M  V30 120 H 11.6508 -0.744065 4.86543 0
M  V30 121 N 13.3029 -1.57598 0.00835791 0
M  V30 122 C 14.2129 -2.12385 -0.996487 0
M  V30 123 C 15.2289 -1.07108 -1.37127 0
M  V30 124 O 16.4049 -1.39055 -1.4569 0
M  V30 125 C 13.4699 -2.62314 -2.26699 0
M  V30 126 C 12.5309 -3.82225 -1.95456 0
M  V30 127 C 11.7639 -4.29763 -3.16449 0
M  V30 128 O 11.9869 -3.76584 -4.28416 0
M  V30 129 O 10.9209 -5.21832 -2.99958 0
M  V30 130 H 14.7469 -2.98479 -0.560725 0
M  V30 131 H 12.3319 -1.47903 -0.210987 0
M  V30 132 H 14.2139 -2.94589 -3.01322 0
M  V30 133 H 12.8889 -1.79313 -2.69497 0
M  V30 134 H 11.7959 -3.54909 -1.18282 0
M  V30 135 H 13.1289 -4.66324 -1.57489 0
M  V30 136 N 14.781 0.264519 -1.55364 0
M  V30 137 C 15.711 1.33121 -1.91836 0
M  V30 138 C 16.692 1.51101 -0.781192 0
M  V30 139 O 17.877 1.64003 -1.04003 0
M  V30 140 C 15.007 2.68921 -2.19769 0
M  V30 141 C 13.961 2.65661 -3.35571 0
M  V30 142 C 13.287 4.05093 -3.49004 0
M  V30 143 C 14.587 2.24187 -4.71739 0
M  V30 144 H 16.281 1.02844 -2.81182 0
M  V30 145 H 13.827 0.493286 -1.35287 0
M  V30 146 H 15.78 3.43663 -2.43872 0
M  V30 147 H 14.504 3.00799 -1.27231 0
M  V30 148 H 13.163 1.93377 -3.1145 0
M  V30 149 H 12.811 4.34206 -2.53917 0
M  V30 150 H 12.511 4.03804 -4.26868 0
M  V30 151 H 14.035 4.81561 -3.75408 0
M  V30 152 H 15.449 2.88654 -4.9533 0
M  V30 153 H 13.846 2.34044 -5.52579 0
M  V30 154 H 14.916 1.19327 -4.69988 0
M  V30 155 N 16.2591 1.48442 0.529413 0
M  V30 156 C 17.1691 1.6569 1.66084 0
M  V30 157 C 18.1851 0.539432 1.65427 0
M  V30 158 O 19.3611 0.810572 1.84368 0
M  V30 159 C 16.4261 1.69315 3.02545 0
M  V30 160 C 15.4871 2.92694 3.14052 0
M  V30 161 C 14.7201 2.96137 4.44003 0
M  V30 162 O 14.9431 2.07973 5.31134 0
M  V30 163 O 13.8771 3.88312 4.59888 0
M  V30 164 H 17.7031 2.61483 1.54469 0
M  V30 165 H 15.2881 1.3185 0.702567 0
M  V30 166 H 17.1701 1.74217 3.83701 0
M  V30 167 H 15.8451 0.766966 3.14483 0
M  V30 168 H 14.7521 2.93324 2.32189 0
M  V30 169 H 16.0851 3.84699 3.0703 0
M  V30 170 N 17.7372 -0.778329 1.37039 0
M  V30 171 C 18.6852 -1.91278 1.32345 0
M  V30 172 C 19.6792 -1.68051 0.213331 0
M  V30 173 O 20.8852 -1.75922 0.38098 0
M  V30 174 H 17.2602 -0.628909 0.412283 0
M  V30 175 H 19.2312 -1.92355 2.28127 0
M  V30 176 C 17.9802 -3.28455 1.14073 0
M  V30 177 H 17.3032 -3.46901 1.98746 0
M  V30 178 H 18.7432 -4.08152 1.14837 0
M  V30 179 C 17.2022 -3.36548 -0.154015 0
M  V30 180 O 17.7322 -3.85186 -1.13993 0
M  V30 181 N 15.9382 -2.89894 -0.202475 0
M  V30 182 H 15.4852 -2.50504 0.600476 0
M  V30 183 H 15.4432 -2.9569 -1.06841 0
M  V30 184 N 19.2153 -1.21501 -1.00376 0
M  V30 185 C 20.4433 -1.059 -1.77744 0
M  V30 186 C 20.8583 0.391125 -1.84704 0
M  V30 187 O 20.2153 1.27133 -1.30933 0
M  V30 188 C 20.2663 -1.65111 -3.21591 0
M  V30 189 O 19.9873 -3.0445 -3.15027 0
M  V30 190 C 21.4883 -1.54637 -4.15454 0
M  V30 191 H 18.7083 -0.371825 -0.558558 0
M  V30 192 H 21.2523 -1.60865 -1.26264 0
M  V30 193 H 19.4073 -1.14235 -3.70175 0
M  V30 194 H 19.8213 -3.3278 -4.0541 0
M  V30 195 H 21.2953 -2.00808 -5.14179 0
M  V30 196 H 21.7723 -0.501022 -4.36333 0
M  V30 197 H 22.3783 -2.04767 -3.72761 0
M  V30 198 N 20.6934 1.19889 -1.02296 0
M  V30 199 C 21.9214 1.9339 -0.735399 0
M  V30 200 C 22.3364 1.75148 0.704887 0
M  V30 201 O 21.6934 1.06954 1.47875 0
M  V30 202 C 21.7444 3.45313 -1.06962 0
M  V30 203 O 21.4654 3.62964 -2.45334 0
M  V30 204 C 22.9664 4.35948 -0.804021 0
M  V30 205 H 20.1864 0.61448 -0.269546 0
M  V30 206 H 22.7304 1.522 -1.36585 0
M  V30 207 H 20.8854 3.84359 -0.484455 0
M  V30 208 H 21.2994 4.56886 -2.57595 0
M  V30 209 H 22.7734 5.41174 -1.0879 0
M  V30 210 H 23.2504 4.3842 0.261691 0
M  V30 211 H 23.8564 4.02574 -1.37164 0
M  V30 212 N 22.1715 0.800033 1.35784 0
M  V30 213 C 23.4185 0.377342 1.98953 0
M  V30 214 C 23.7465 -1.05378 1.6348 0
M  V30 215 O 23.0015 -1.74459 0.886707 0
M  V30 216 C 23.3005 0.500276 3.53881 0
M  V30 217 C 22.9665 1.89375 4.09204 0
M  V30 218 C 21.6285 2.27499 4.24025 0
M  V30 219 C 23.9805 2.8057 4.39238 0
M  V30 220 C 21.3085 3.562 4.66195 0
M  V30 221 C 23.6605 4.0871 4.82844 0
M  V30 222 C 22.3245 4.46843 4.95871 0
M  V30 223 H 21.5945 0.138079 0.728021 0
M  V30 224 H 24.2415 1.01955 1.62103 0
M  V30 225 H 22.5465 -0.225405 3.91151 0
M  V30 226 H 24.2435 0.154097 4.00704 0
M  V30 227 H 20.8335 1.58753 3.98115 0
M  V30 228 H 25.0175 2.52367 4.27346 0
M  V30 229 H 20.2735 3.85602 4.74469 0
M  V30 230 H 24.4475 4.79481 5.05046 0
M  V30 231 H 22.0745 5.46623 5.28306 0
M  V30 232 N 23.6496 -1.47581 0.552962 0
M  V30 233 C 24.5966 -2.29957 -0.197108 0
M  V30 234 C 25.5666 -1.38799 -0.912359 0
M  V30 235 O 26.7516 -1.67761 -0.908888 0
M  V30 236 C 23.8916 -3.22672 -1.22379 0
M  V30 237 C 23.0046 -4.28919 -0.515038 0
M  V30 238 C 22.1396 -5.0879 -1.52664 0
M  V30 239 C 21.1786 -6.06815 -0.802631 0
M  V30 240 N 20.3156 -6.7966 -1.76086 0
M  V30 241 H 25.1556 -2.93578 0.511486 0
M  V30 242 H 22.6926 -1.4471 0.264067 0
M  V30 243 H 24.6506 -3.74845 -1.83159 0
M  V30 244 H 23.2806 -2.60925 -1.90047 0
M  V30 245 H 22.3326 -3.79835 0.207192 0
M  V30 246 H 23.6446 -4.98773 0.0523425 0
M  V30 247 H 22.7986 -5.65091 -2.20809 0
M  V30 248 H 21.5376 -4.38828 -2.12794 0
M  V30 249 H 20.5426 -5.49695 -0.107238 0
M  V30 250 H 21.7676 -6.78784 -0.207135 0
M  V30 251 H 19.7136 -6.12432 -2.35081 0
M  V30 252 H 19.6306 -7.45669 -1.24552 0
M  V30 253 H 20.8986 -7.40538 -2.43359 0
M  V30 254 N 25.1277 -0.289203 -1.54924 0
M  V30 255 C 26.3577 0.325989 -2.04012 0
M  V30 256 C 26.7657 1.48961 -1.1665 0
M  V30 257 O 26.1087 1.82794 -0.1822 0
M  V30 258 C 26.1707 0.856112 -3.49158 0
M  V30 259 C 25.8347 -0.180697 -4.56643 0
M  V30 260 C 26.8317 -1.0051 -5.10092 0
M  V30 261 C 24.5167 -0.318998 -5.01286 0
M  V30 262 C 26.5107 -1.95385 -6.06715 0
M  V30 263 C 24.1977 -1.27121 -5.97732 0
M  V30 264 C 25.1957 -2.08713 -6.50329 0
M  V30 265 O 24.8837 -3.02322 -7.44887 0
M  V30 266 H 24.6157 0.0765276 -0.671654 0
M  V30 267 H 27.1697 -0.423254 -2.00992 0
M  V30 268 H 25.3997 1.65567 -3.49463 0
M  V30 269 H 27.0887 1.38591 -3.81507 0
M  V30 270 H 27.8547 -0.90906 -4.76404 0
M  V30 271 H 23.7337 0.306108 -4.59983 0
M  V30 272 H 27.2777 -2.59111 -6.47694 0
M  V30 273 H 23.1747 -1.36801 -6.30837 0
M  V30 274 H 23.9427 -2.97165 -7.6265 0
M  V30 275 N 26.6058 1.57591 -0.0167156 0
M  V30 276 C 27.5358 2.12496 0.967858 0
M  V30 277 C 28.5168 1.03807 1.34752 0
M  V30 278 O 29.7018 1.31577 1.42833 0
M  V30 279 C 26.8318 2.64194 2.25431 0
M  V30 280 C 25.7858 3.77559 2.01576 0
M  V30 281 C 25.1118 4.15636 3.36379 0
M  V30 282 C 26.4118 5.04151 1.36489 0
M  V30 283 H 28.1058 2.95013 0.510643 0
M  V30 284 H 25.6518 1.41915 0.244181 0
M  V30 285 H 27.6048 3.01236 2.94678 0
M  V30 286 H 26.3288 1.78821 2.73296 0
M  V30 287 H 24.9878 3.40937 1.34751 0
M  V30 288 H 24.6358 3.27263 3.81979 0
M  V30 289 H 24.3358 4.92022 3.21229 0
M  V30 290 H 25.8598 4.5525 4.06915 0
M  V30 291 H 27.2738 5.38857 1.95718 0
M  V30 292 H 25.6708 5.85453 1.31776 0
M  V30 293 H 26.7408 4.83733 0.336219 0
M  V30 294 N 28.0839 -0.256276 1.55502 0
M  V30 295 C 29.3119 -1.00342 1.8094 0
M  V30 296 C 29.7269 -1.79307 0.59114 0
M  V30 297 O 29.0839 -1.77114 -0.440081 0
M  V30 298 C 29.1349 -1.94875 3.04476 0
M  V30 299 O 28.8559 -1.19107 4.21598 0
M  V30 300 C 30.3569 -2.81266 3.42644 0
M  V30 301 H 27.5769 -0.295685 0.602338 0
M  V30 302 H 30.1209 -0.281998 2.02546 0
M  V30 303 H 28.2759 -2.62457 2.84947 0
M  V30 304 H 28.6899 -1.82969 4.91551 0
M  V30 305 H 30.1639 -3.43362 4.32211 0
M  V30 306 H 30.6409 -3.51897 2.62802 0
M  V30 307 H 31.2469 -2.1915 3.64491 0
M  V30 308 N 29.562 -1.4872 -0.521534 0
M  V30 309 C 30.81 -1.56857 -1.27437 0
M  V30 310 C 31.131 -0.247982 -1.93417 0
M  V30 311 O 30.401 0.731151 -1.81744 0
M  V30 312 H 28.981 -0.577885 -0.473347 0
M  V30 313 H 31.643 -1.85233 -0.606205 0
M  V30 314 H 30.739 -2.35402 -2.0492 0
M  V30 315 N 31.0401 0.771051 -1.3745 0
M  V30 316 C 31.9501 1.91538 -1.35464 0
M  V30 317 C 32.9661 1.72134 -0.254123 0
M  V30 318 O 34.1421 1.95358 -0.489626 0
M  V30 319 C 31.2071 3.26671 -1.16134 0
M  V30 320 C 30.2681 3.58723 -2.35831 0
M  V30 321 C 29.5011 4.87409 -2.17413 0
M  V30 322 O 29.7241 5.58506 -1.15876 0
M  V30 323 O 28.6581 5.18539 -3.05615 0
M  V30 324 H 32.4841 1.96165 -2.31847 0
M  V30 325 H 30.0691 0.9139 -1.18187 0
M  V30 326 H 31.9511 4.07499 -1.07345 0
M  V30 327 H 30.6261 3.22894 -0.228251 0
M  V30 328 H 29.5331 2.78127 -2.50192 0
M  V30 329 H 30.8661 3.67243 -3.27709 0
M  V30 330 N 32.5182 1.22032 0.997298 0
M  V30 331 C 33.4502 0.944263 2.08845 0
M  V30 332 C 34.4632 -0.0754663 1.62625 0
M  V30 333 O 35.6522 0.157994 1.77799 0
M  V30 334 C 32.7522 0.397723 3.36558 0
M  V30 335 C 31.9252 1.47362 4.11829 0
M  V30 336 C 30.9842 0.934951 5.17827 0
M  V30 337 O 30.0102 1.62016 5.45655 0
M  V30 338 N 31.2122 -0.245895 5.79979 0
M  V30 339 H 33.9772 1.88363 2.33109 0
M  V30 340 H 31.5382 1.12661 1.16272 0
M  V30 341 H 33.5302 0.0227771 4.04694 0
M  V30 342 H 32.1002 -0.446646 3.09393 0
M  V30 343 H 31.3202 2.02208 3.38386 0
M  V30 344 H 32.6082 2.19764 4.58891 0
M  V30 345 H 32.0062 -0.819475 5.59733 0
M  V30 346 H 30.5632 -0.562272 6.4937 0
M  V30 347 N 33.9963 -1.19345 1.0293 0
M  V30 348 C 35.2243 -1.92997 0.745644 0
M  V30 349 C 35.6393 -1.75519 -0.695589 0
M  V30 350 O 34.9963 -1.07737 -1.47306 0
M  V30 351 C 35.0473 -3.44741 1.08792 0
M  V30 352 O 34.7683 -3.61658 2.47256 0
M  V30 353 C 36.2693 -4.35515 0.827129 0
M  V30 354 H 33.4893 -0.613042 0.272801 0
M  V30 355 H 36.0333 -1.51473 1.3739 0
M  V30 356 H 34.1883 -3.84097 0.504832 0
M  V30 357 H 34.6023 -4.55514 2.60015 0
M  V30 358 H 36.0763 -5.40589 1.11658 0
M  V30 359 H 36.5533 -4.38552 -0.238436 0
M  V30 360 H 37.1593 -4.01841 1.39297 0
M  V30 361 N 35.4744 -0.807222 -1.35358 0
M  V30 362 C 36.3844 -0.219594 -2.3357 0
M  V30 363 C 37.4004 0.637734 -1.61892 0
M  V30 364 O 38.5764 0.549336 -1.93763 0
M  V30 365 C 35.6414 0.62158 -3.41083 0
M  V30 366 C 34.7024 -0.256315 -4.28534 0
M  V30 367 C 33.9354 0.544807 -5.30912 0
M  V30 368 O 34.1584 1.77944 -5.41934 0
M  V30 369 O 33.0924 -0.0646478 -6.01865 0
M  V30 370 H 36.9184 -1.03208 -2.85625 0
M  V30 371 H 34.5034 -0.569025 -1.38139 0
M  V30 372 H 36.3854 1.10067 -4.06772 0
M  V30 373 H 35.0604 1.41165 -2.91297 0
M  V30 374 H 33.9674 -0.782559 -3.65823 0
M  V30 375 H 35.3004 -1.01034 -4.81719 0
M  V30 376 N 36.9525 1.47285 -0.560781 0
M  V30 377 C 37.8995 2.30058 0.18491 0
M  V30 378 C 38.8695 1.39281 0.904986 0
M  V30 379 O 40.0545 1.68241 0.899979 0
M  V30 380 C 37.1945 3.23317 1.20666 0
M  V30 381 C 36.3075 4.29186 0.492285 0
M  V30 382 C 35.4425 5.09592 1.49964 0
M  V30 383 C 34.4815 6.07232 0.770439 0
M  V30 384 N 33.6185 6.80584 1.72479 0
M  V30 385 H 38.4585 2.93302 -0.527048 0
M  V30 386 H 35.9955 1.44568 -0.271738 0
M  V30 387 H 37.9535 3.75811 1.81168 0
M  V30 388 H 36.5835 2.61929 1.88661 0
M  V30 389 H 35.6355 3.7972 -0.227333 0
M  V30 390 H 36.9475 4.98738 -0.0787929 0
M  V30 391 H 36.1015 5.66254 2.17809 0
M  V30 392 H 34.8405 4.3995 2.10464 0
M  V30 393 H 33.8455 5.49745 0.0780846 0
M  V30 394 H 35.0705 6.78884 0.171134 0
M  V30 395 H 33.0165 6.1367 2.3183 0
M  V30 396 H 32.9335 7.46319 1.20596 0
M  V30 397 H 34.2015 7.41818 2.39428 0
M  V30 398 N 38.4306 0.297415 1.54768 0
M  V30 399 C 39.3636 -0.622188 2.19554 0
M  V30 400 C 40.3416 -1.13558 1.16376 0
M  V30 401 O 41.5256 -1.20444 1.45002 0
M  V30 402 C 38.6526 -1.8509 2.83653 0
M  V30 403 C 37.6986 -1.47106 4.00328 0
M  V30 404 S 38.5316 -0.53006 5.3287 0
M  V30 405 C 39.6876 -1.76665 6.0045 0
M  V30 406 H 39.9206 -0.0717806 2.97213 0
M  V30 407 H 37.4536 0.0815678 1.54184 0
M  V30 408 H 39.4116 -2.55605 3.21211 0
M  V30 409 H 38.0726 -2.37247 2.05846 0
M  V30 410 H 37.2656 -2.38594 4.43947 0
M  V30 411 H 36.8676 -0.845885 3.64309 0
M  V30 412 H 39.1596 -2.7077 6.21039 0
M  V30 413 H 40.1026 -1.37308 6.9466 0
M  V30 414 H 40.5106 -1.94174 5.30054 0
M  V30 415 N 39.9087 -1.5758 0.0250728 0
M  V30 416 C 41.1547 -1.92746 -0.649648 0
M  V30 417 C 41.5097 -0.901588 -1.69968 0
M  V30 418 O 40.8027 0.0829251 -1.9142 0
M  V30 419 C 40.9967 -3.32421 -1.31268 0
M  V30 420 C 40.8257 -4.48499 -0.328394 0
M  V30 421 C 39.5957 -5.05251 0.070284 0
M  V30 422 C 41.7937 -5.12618 0.415665 0
M  V30 423 N 39.7757 -6.04851 1.05016 0
M  V30 424 C 41.1467 -6.0728 1.24943 0
M  V30 425 C 43.2017 -4.95612 0.476803 0
M  V30 426 C 41.9047 -6.86766 2.1388 0
M  V30 427 C 43.9307 -5.75703 1.3535 0
M  V30 428 C 43.2927 -6.69978 2.17504 0
M  V30 429 H 39.3917 -0.753231 -0.210159 0
M  V30 430 H 41.9757 -1.94486 0.0912999 0
M  V30 431 H 40.1467 -3.31508 -2.02379 0
M  V30 432 H 41.8787 -3.54946 -1.94411 0
M  V30 433 H 38.6337 -4.72628 -0.303323 0
M  V30 434 H 39.0577 -6.5934 1.53622 0
M  V30 435 H 43.6997 -4.22554 -0.144105 0
M  V30 436 H 41.4177 -7.59132 2.77027 0
M  V30 437 H 45.0037 -5.64579 1.40504 0
M  V30 438 H 43.8837 -7.30873 2.84244 0
M  V30 439 N 41.3868 0.248026 -1.55636 0
M  V30 440 C 42.3188 1.32993 -1.8667 0
M  V30 441 C 43.3318 1.44345 -0.752877 0
M  V30 442 O 44.5208 1.45715 -1.03098 0
M  V30 443 C 41.6208 2.70863 -2.03682 0
M  V30 444 C 40.7938 2.81792 -3.34532 0
M  V30 445 C 39.8528 4.005 -3.41301 0
M  V30 446 O 38.8788 3.9008 -4.14519 0
M  V30 447 N 40.0808 5.13618 -2.70512 0
M  V30 448 H 42.8458 1.06707 -2.8006 0
M  V30 449 H 40.4068 0.438129 -1.55859 0
M  V30 450 H 42.3988 3.48612 -2.05553 0
M  V30 451 H 40.9688 2.89862 -1.17041 0
M  V30 452 H 40.1888 1.90729 -3.44987 0
M  V30 453 H 41.4768 2.86043 -4.20781 0
M  V30 454 H 40.8748 5.24975 -2.10755 0
M  V30 455 H 39.4318 5.89505 -2.78077 0
M  V30 456 N 42.8649 1.48995 0.513639 0
M  V30 457 C 44.2809 1.35478 0.843682 0
M  V30 458 C 44.4809 0.378213 1.97919 0
M  V30 459 O 43.5369 -0.194689 2.51748 0
M  V30 460 C 44.8499 2.75901 1.1958 0
M  V30 461 C 46.3979 2.84509 1.30474 0
M  V30 462 C 46.8729 4.25671 1.69021 0
M  V30 463 N 48.3639 4.28422 1.76094 0
M  V30 464 C 49.0989 5.34601 2.07338 0
M  V30 465 N 48.5949 6.5104 2.36894 0
M  V30 466 N 50.3879 5.22007 2.08483 0
M  V30 467 H 42.5389 2.11092 -0.235328 0
M  V30 468 H 44.8019 0.947039 -0.0426669 0
M  V30 469 H 44.5079 3.49001 0.434913 0
M  V30 470 H 44.3819 3.10467 2.1422 0
M  V30 471 H 46.7689 2.11655 2.05637 0
M  V30 472 H 46.8499 2.53542 0.339155 0
M  V30 473 H 46.4939 4.99048 0.944135 0
M  V30 474 H 46.4239 4.54094 2.66658 0
M  V30 475 H 48.9149 3.44441 1.55464 0
M  V30 476 H 49.2279 7.2779 2.59887 0
M  V30 477 H 47.5729 6.54287 2.34378 0
M  V30 478 H 50.7639 4.30051 1.84861 0
M  V30 479 H 50.9369 6.04854 2.325 0
M  V30 480 N 44.343 -0.763751 1.37857 0
M  V30 481 C 45.273 -1.89103 1.36975 0
M  V30 482 C 46.254 -1.68439 0.237152 0
M  V30 483 O 47.439 -1.8918 0.438713 0
M  V30 484 C 44.569 -3.26496 1.18395 0
M  V30 485 C 43.523 -3.61741 2.28751 0
M  V30 486 C 42.849 -4.97762 1.95286 0
M  V30 487 C 44.149 -3.67665 3.70972 0
M  V30 488 H 45.843 -1.90099 2.31307 0
M  V30 489 H 43.389 -0.91319 1.11341 0
M  V30 490 H 45.342 -4.05003 1.16406 0
M  V30 491 H 44.066 -3.25955 0.205215 0
M  V30 492 H 42.725 -2.85547 2.29909 0
M  V30 493 H 42.373 -4.93769 0.959221 0
M  V30 494 H 42.073 -5.22313 2.69189 0
M  V30 495 H 43.597 -5.7866 1.94898 0
M  V30 496 H 45.011 -4.36307 3.719 0
M  V30 497 H 43.408 -4.03718 4.43995 0
M  V30 498 H 44.478 -2.68134 4.0402 0
M  V30 499 N 45.8211 -1.22559 -0.990812 0
M  V30 500 C 46.7681 -0.997519 -2.0813 0
M  V30 501 C 47.7381 0.0814702 -1.659 0
M  V30 502 O 48.9231 -0.0685424 -1.90677 0
M  V30 503 C 46.0631 -0.583615 -3.40129 0
M  V30 504 C 45.1761 -1.7336 -3.9569 0
M  V30 505 C 44.3111 -1.26748 -5.15857 0
M  V30 506 C 43.3501 -2.38888 -5.63559 0
M  V30 507 N 42.4871 -1.93308 -6.74964 0
M  V30 508 H 47.3271 -1.93099 -2.26973 0
M  V30 509 H 44.8641 -0.962114 -1.11273 0
M  V30 510 H 46.8221 -0.324801 -4.15934 0
M  V30 511 H 45.4521 0.312845 -3.2128 0
M  V30 512 H 44.5041 -2.10669 -3.16738 0
M  V30 513 H 45.8161 -2.57704 -4.27071 0
M  V30 514 H 44.9701 -0.966173 -5.98957 0
M  V30 515 H 43.7091 -0.394272 -4.86104 0
M  V30 516 H 42.7141 -2.69805 -4.79046 0
M  V30 517 H 43.9391 -3.26728 -5.95336 0
M  V30 518 H 41.8851 -1.08352 -6.4699 0
M  V30 519 H 41.8021 -2.71217 -7.05675 0
M  V30 520 H 43.0701 -1.66252 -7.61564 0
M  V30 521 N 47.2992 1.18797 -1.03562 0
M  V30 522 C 48.5472 1.88278 -0.734569 0
M  V30 523 C 48.8682 1.8043 0.739586 0
M  V30 524 O 48.1382 1.21925 1.53333 0
M  V30 525 H 46.7182 0.696991 -0.268725 0
M  V30 526 H 49.3802 1.44192 -1.31129 0
M  V30 527 H 48.4762 2.94443 -1.03489 0
M  V30 528 N 48.7773 0.814389 1.34928 0
M  V30 529 C 50.0263 0.394871 1.97797 0
M  V30 530 C 50.3393 -1.04555 1.65311 0
M  V30 531 O 51.5453 -1.56856 2.21604 0
M  V30 532 C 50.0013 0.655103 3.53888 0
M  V30 533 C 49.6093 2.10858 3.95276 0
M  V30 534 C 51.3533 0.301329 4.23429 0
M  V30 535 C 49.2603 2.31415 5.44244 0
M  V30 536 H 48.1903 0.143913 0.740139 0
M  V30 537 H 50.8413 0.999544 1.53888 0
M  V30 538 H 49.2233 -0.0196253 3.95995 0
M  V30 539 H 50.3973 2.82176 3.64298 0
M  V30 540 H 48.7123 2.42297 3.38646 0
M  V30 541 H 51.3093 0.432869 5.32945 0
M  V30 542 H 51.6523 -0.75331 4.09428 0
M  V30 543 H 52.1853 0.930288 3.86769 0
M  V30 544 H 48.9243 3.35353 5.63222 0
M  V30 545 H 48.4443 1.6463 5.76764 0
M  V30 546 H 50.1233 2.13352 6.10811 0
M  V30 547 N 50.2554 -1.46986 0.568584 0
M  V30 548 C 51.1854 -2.32946 -0.160753 0
M  V30 549 C 52.1664 -1.44487 -0.897631 0
M  V30 550 O 53.3514 -1.73327 -0.875867 0
M  V30 551 C 50.4814 -3.26494 -1.18403 0
M  V30 552 C 49.4354 -4.24282 -0.562895 0
M  V30 553 C 48.7614 -5.07236 -1.69163 0
M  V30 554 C 50.0614 -5.19989 0.490761 0
M  V30 555 H 51.7554 -2.94175 0.556916 0
M  V30 556 H 49.3014 -1.4146 0.26927 0
M  V30 557 H 51.2544 -3.85477 -1.70251 0
M  V30 558 H 49.9784 -2.63343 -1.93179 0
M  V30 559 H 48.6374 -3.66541 -0.0656164 0
M  V30 560 H 48.2854 -4.4048 -2.42871 0
M  V30 561 H 47.9854 -5.7345 -1.28174 0
M  V30 562 H 49.5094 -5.6908 -2.21314 0
M  V30 563 H 50.9234 -5.73271 0.0579047 0
M  V30 564 H 49.3204 -5.94469 0.820165 0
M  V30 565 H 50.3904 -4.64777 1.3824 0
M  V30 566 N 51.7335 -0.305618 -1.54608 0
M  V30 567 C 53.1495 0.0476228 -1.59529 0
M  V30 568 C 53.3495 1.52025 -1.32252 0
M  V30 569 O 52.4055 2.27368 -1.09818 0
M  V30 570 C 53.7185 -0.354471 -2.98603 0
M  V30 571 C 55.2665 -0.303622 -3.11524 0
M  V30 572 C 55.7415 -0.680608 -4.52915 0
M  V30 573 N 57.2325 -0.63332 -4.5885 0
M  V30 574 C 57.9675 -0.897432 -5.66334 0
M  V30 575 N 57.4635 -1.22775 -6.81834 0
M  V30 576 N 59.2565 -0.824186 -5.56025 0
M  V30 577 H 51.4075 -1.2653 -1.70599 0
M  V30 578 H 53.6705 -0.513291 -0.797017 0
M  V30 579 H 53.3765 -1.3798 -3.23503 0
M  V30 580 H 53.2505 0.289568 -3.76087 0
M  V30 581 H 55.6375 0.712472 -2.8637 0
M  V30 582 H 55.7185 -0.982348 -2.36185 0
M  V30 583 H 55.3625 -1.69453 -4.78799 0
M  V30 584 H 55.2925 0.0202385 -5.26596 0
M  V30 585 H 57.7835 -0.389138 -3.75891 0
M  V30 586 H 58.0965 -1.41513 -7.59733 0
M  V30 587 H 56.4415 -1.26583 -6.83375 0
M  V30 588 H 59.6325 -0.565748 -4.64669 0
M  V30 589 H 59.8055 -1.03338 -6.39707 0
M  V30 590 N 53.2116 1.57565 -0.0334293 0
M  V30 591 C 54.4516 1.93844 0.648379 0
M  V30 592 C 54.8156 0.910387 1.69044 0
M  V30 593 O 56.0166 1.15952 2.42505 0
M  V30 594 C 54.2876 3.35017 1.24492 0
M  V30 595 S 55.8466 3.93229 1.94721 0
M  V30 596 H 52.6646 0.678231 0.213364 0
M  V30 597 H 55.2666 1.95254 -0.0981253 0
M  V30 598 H 53.9706 4.07652 0.474128 0
M  V30 599 H 53.5016 3.37061 2.02864 0
M  V30 600 H 55.5166 3.77014 3.22606 0
M  V30 601 N 54.6897 -0.239769 1.55765 0
M  V30 602 C 55.6197 -1.30052 1.9393 0
M  V30 603 C 56.6007 -1.49839 0.805132 0
M  V30 604 O 57.7857 -1.62328 1.06599 0
M  V30 605 C 54.9157 -2.65391 2.2402 0
M  V30 606 C 53.8697 -2.60289 3.39755 0
M  V30 607 C 53.1957 -3.99489 3.55405 0
M  V30 608 C 54.4957 -2.16654 4.75246 0
M  V30 609 H 56.1897 -0.983573 2.82783 0
M  V30 610 H 53.7357 -0.471701 1.36055 0
M  V30 611 H 55.6887 -3.3974 2.49308 0
M  V30 612 H 54.4127 -2.98736 1.32 0
M  V30 613 H 53.0717 -1.88398 3.14487 0
M  V30 614 H 52.7197 -4.30112 2.60793 0
M  V30 615 H 52.4197 -3.96962 4.33238 0
M  V30 616 H 53.9437 -4.75528 3.83022 0
M  V30 617 H 55.3577 -2.80737 4.99859 0
M  V30 618 H 53.7547 -2.25223 5.56232 0
M  V30 619 H 54.8247 -1.11835 4.71827 0
M  V30 620 N 56.1678 -1.49265 -0.50573 0
M  V30 621 C 57.4138 -1.58748 -1.26202 0
M  V30 622 C 57.7468 -0.271227 -1.92297 0
M  V30 623 O 57.0218 0.724831 -1.80489 0
M  V30 624 C 57.3048 -2.74332 -2.33268 0
M  V30 625 C 57.1578 -4.15737 -1.71705 0
M  V30 626 C 58.4768 -2.85576 -3.34865 0
M  V30 627 H 55.5958 -0.577826 -0.457478 0
M  V30 628 H 58.2378 -1.81532 -0.560897 0
M  V30 629 H 56.3878 -2.55036 -2.93068 0
M  V30 630 H 58.0598 -4.46537 -1.15769 0
M  V30 631 H 56.3028 -4.21605 -1.02135 0
M  V30 632 H 56.9738 -4.92477 -2.49341 0
M  V30 633 H 59.4498 -3.03127 -2.8505 0
M  V30 634 H 58.3258 -3.68135 -4.07146 0
M  V30 635 H 58.5868 -1.94732 -3.96903 0
M  V30 636 N 57.6459 0.756429 -1.3826 0
M  V30 637 C 58.5929 1.87011 -1.35261 0
M  V30 638 C 59.5629 1.64695 -0.215616 0
M  V30 639 O 60.7479 1.864 -0.407399 0
M  V30 640 C 57.8879 3.24275 -1.18068 0
M  V30 641 C 57.0009 3.58442 -2.41129 0
M  V30 642 C 56.1359 4.84994 -2.16689 0
M  V30 643 C 55.1749 5.11939 -3.35537 0
M  V30 644 N 54.3119 6.29685 -3.10549 0
M  V30 645 H 59.1519 1.8891 -2.30472 0
M  V30 646 H 56.6889 0.923373 -1.14509 0
M  V30 647 H 58.6469 4.03479 -1.06116 0
M  V30 648 H 57.2769 3.21711 -0.264973 0
M  V30 649 H 56.3289 2.74103 -2.63764 0
M  V30 650 H 57.6409 3.74283 -3.29717 0
M  V30 651 H 56.7949 5.72135 -2.01857 0
M  V30 652 H 55.5339 4.71286 -1.25462 0
M  V30 653 H 54.5389 4.23268 -3.50891 0
M  V30 654 H 55.7639 5.27546 -4.27635 0
M  V30 655 H 53.7099 6.17306 -2.21967 0
M  V30 656 H 53.6269 6.46014 -3.92686 0
M  V30 657 H 54.8949 7.19722 -2.99367 0
M  V30 658 N 59.124 1.23083 0.984299 0
M  V30 659 C 60.056 0.96636 2.07832 0
M  V30 660 C 61.069 -0.0582135 1.62696 0
M  V30 661 O 62.258 0.176843 1.77622 0
M  V30 662 C 59.358 0.433397 3.36117 0
M  V30 663 C 58.531 1.51722 4.10243 0
M  V30 664 C 57.59 0.989821 5.16807 0
M  V30 665 O 56.616 1.67794 5.43906 0
M  V30 666 N 57.818 -0.184367 5.80207 0
M  V30 667 H 60.583 1.90824 2.31098 0
M  V30 668 H 58.144 1.13888 1.1507 0
M  V30 669 H 60.136 0.065699 4.04647 0
M  V30 670 H 58.706 -0.413806 3.09849 0
M  V30 671 H 57.926 2.05786 3.36223 0
M  V30 672 H 59.214 2.24619 4.56534 0
M  V30 673 H 58.612 -0.760062 5.60571 0
M  V30 674 H 57.169 -0.493366 6.4993 0
M  V30 675 N 60.6021 -1.18246 1.0419 0
M  V30 676 C 61.5321 -2.24127 0.654914 0
M  V30 677 C 62.5131 -1.66617 -0.342451 0
M  V30 678 O 63.6981 -1.92924 -0.222277 0
M  V30 679 C 60.8281 -3.47295 0.0183757 0
M  V30 680 C 59.7821 -4.17563 0.939414 0
M  V30 681 C 59.1081 -5.34438 0.167286 0
M  V30 682 C 60.4081 -4.70917 2.25908 0
M  V30 683 H 62.1021 -2.56753 1.54007 0
M  V30 684 H 59.6481 -1.23414 0.74195 0
M  V30 685 H 61.6011 -4.20572 -0.264082 0
M  V30 686 H 60.3251 -3.13907 -0.901664 0
M  V30 687 H 58.9841 -3.46186 1.20628 0
M  V30 688 H 58.6321 -4.97298 -0.7552 0
M  V30 689 H 58.3321 -5.82388 0.780901 0
M  V30 690 H 59.8561 -6.10504 -0.108125 0
M  V30 691 H 61.2701 -5.35882 2.03724 0
M  V30 692 H 59.6671 -5.29406 2.82577 0
M  V30 693 H 60.7371 -3.88272 2.9047 0
M  V30 694 N 62.0802 -0.821533 -1.34494 0
M  V30 695 C 62.9902 -0.244355 -2.33324 0
M  V30 696 C 64.0062 0.620527 -1.62559 0
M  V30 697 O 65.1822 0.528754 -1.94335 0
M  V30 698 C 62.2472 0.585368 -3.41723 0
M  V30 699 C 61.3082 -0.301752 -4.28238 0
M  V30 700 C 60.5412 0.488466 -5.3146 0
M  V30 701 O 60.7642 1.72186 -5.4379 0
M  V30 702 O 59.6982 -0.12848 -6.01763 0
M  V30 703 H 63.5242 -1.06231 -2.84515 0
M  V30 704 H 61.1092 -0.583645 -1.37528 0
M  V30 705 H 62.9912 1.05747 -4.07916 0
M  V30 706 H 61.6662 1.38068 -2.92778 0
M  V30 707 H 60.5732 -0.821315 -3.64973 0
M  V30 708 H 61.9062 -1.06138 -4.8062 0
M  V30 709 N 63.5583 1.46682 -0.576371 0
M  V30 710 C 64.9743 1.57822 -0.237562 0
M  V30 711 C 65.1743 1.57237 1.26011 0
M  V30 712 O 64.2303 1.48596 2.04146 0
M  V30 713 C 65.5433 2.87499 -0.881168 0
M  V30 714 C 67.0913 3.01119 -0.85417 0
M  V30 715 C 67.5663 4.33524 -1.4772 0
M  V30 716 N 69.0573 4.40207 -1.44125 0
M  V30 717 C 69.7923 5.4126 -1.89276 0
M  V30 718 N 69.2883 6.49021 -2.42371 0
M  V30 719 N 71.0813 5.32422 -1.80231 0
M  V30 720 H 63.2323 1.45306 -1.54919 0
M  V30 721 H 65.4953 0.692733 -0.647167 0
M  V30 722 H 65.2013 2.9372 -1.93447 0
M  V30 723 H 65.0753 3.75224 -0.385592 0
M  V30 724 H 67.4623 2.94485 0.190491 0
M  V30 725 H 67.5433 2.14887 -1.3877 0
M  V30 726 H 67.1873 4.40916 -2.52103 0
M  V30 727 H 67.1173 5.1852 -0.918947 0
M  V30 728 H 69.6083 3.62931 -1.05307 0
M  V30 729 H 69.9213 7.2233 -2.74698 0
M  V30 730 H 68.2663 6.49858 -2.46393 0
M  V30 731 H 71.4573 4.47137 -1.38514 0
M  V30 732 H 71.6303 6.11034 -2.15735 0
M  V30 733 N 65.0364 0.313813 1.54444 0
M  V30 734 C 66.2844 -0.291099 1.99993 0
M  V30 735 C 66.6054 -1.53418 1.20366 0
M  V30 736 O 65.8754 -1.93544 0.302927 0
M  V30 737 H 64.4554 -0.110552 0.738774 0
M  V30 738 H 67.1174 0.428106 1.9014 0
M  V30 739 H 66.2134 -0.554268 3.07139 0
M  V30 740 N 66.5145 -1.57545 0.0417849 0
M  V30 741 C 67.7915 -1.83642 -0.673433 0
M  V30 742 C 68.1715 -0.928298 -1.89594 0
M  V30 743 O 67.5195 0.0129955 -2.28496 0
M  V30 744 C 67.7295 -3.33155 -1.03964 0
M  V30 745 C 69.0775 -3.99941 -1.42592 0
M  V30 746 O 70.1015 -3.37725 -1.13226 0
M  V30 747 O 68.9605 -5.09619 -1.9736 0
M  V30 748 H 66.0545 -0.757638 -0.331533 0
M  V30 749 H 68.6005 -1.69554 0.070433 0
M  V30 750 H 67.3725 -3.9093 -0.170098 0
M  V30 751 H 66.9955 -3.52396 -1.84126 0
M  V30 752 N 67.9926 0.231505 -1.5589 0
M  V30 753 C 69.2386 0.95877 -1.78705 0
M  V30 754 C 69.5716 1.8438 -0.609725 0
M  V30 755 O 68.8466 1.90521 0.391426 0
M  V30 756 C 69.1296 1.8062 -3.11526 0
M  V30 757 C 68.9826 0.948328 -4.39689 0
M  V30 758 C 70.3016 2.78585 -3.40703 0
M  V30 759 H 67.4206 0.347129 -0.650131 0
M  V30 760 H 70.0626 0.228259 -1.88624 0
M  V30 761 H 68.2126 2.42902 -3.03201 0
M  V30 762 H 69.8846 0.343016 -4.60023 0
M  V30 763 H 68.1276 0.253314 -4.3306 0
M  V30 764 H 68.7986 1.57543 -5.29041 0
M  V30 765 H 71.2746 2.26439 -3.49091 0
M  V30 766 H 70.1506 3.34988 -4.34826 0
M  V30 767 H 70.4116 3.55825 -2.62375 0
M  V30 768 N 69.4707 1.49531 0.497807 0
M  V30 769 C 70.4187 1.66926 1.61983 0
M  V30 770 C 71.4127 0.535167 1.60724 0
M  V30 771 O 72.6187 0.714896 1.65195 0
M  V30 772 H 68.9937 0.526415 0.537021 0
M  V30 773 H 70.9647 2.61098 1.44465 0
M  V30 774 C 69.7137 1.75602 3.00099 0
M  V30 775 H 69.0367 2.62244 3.01775 0
M  V30 776 H 70.4767 1.91807 3.78135 0
M  V30 777 C 68.9357 0.501543 3.33146 0
M  V30 778 O 69.4657 -0.371342 3.9998 0
M  V30 779 N 67.6717 0.363531 2.88317 0
M  V30 780 H 67.2187 1.07485 2.34104 0
M  V30 781 H 67.1767 -0.474728 3.10795 0
M  V30 782 N 70.9488 -0.749086 1.3866 0
M  V30 783 C 72.1948 -1.51056 1.35314 0
M  V30 784 C 72.5278 -1.94121 -0.0553751 0
M  V30 785 O 71.8028 -1.65763 -1.01749 0
M  V30 786 C 72.0858 -2.76003 2.31288 0
M  V30 787 C 71.9388 -2.39047 3.8102 0
M  V30 788 C 73.2578 -3.78046 2.2532 0
M  V30 789 H 70.3768 -0.547972 0.492844 0
M  V30 790 H 73.0188 -0.857628 1.69543 0
M  V30 791 H 71.1688 -3.31716 2.02229 0
M  V30 792 H 72.8408 -1.89074 4.20771 0
M  V30 793 H 71.0838 -1.71449 3.98482 0
M  V30 794 H 71.7548 -3.28462 4.4364 0
M  V30 795 H 74.2308 -3.31884 2.50983 0
M  V30 796 H 73.1068 -4.63159 2.94576 0
M  V30 797 H 73.3678 -4.23957 1.25352 0
M  V30 798 N 72.4269 -1.23603 -0.977757 0
M  V30 799 C 73.6729 -1.07129 -1.72195 0
M  V30 800 C 74.0059 0.390501 -1.90233 0
M  V30 801 O 73.2809 1.28902 -1.45653 0
M  V30 802 C 73.5639 -1.80031 -3.11867 0
M  V30 803 C 73.4169 -3.33899 -3.01383 0
M  V30 804 C 74.7359 -1.56492 -4.11337 0
M  V30 805 H 71.8549 -0.390571 -0.624999 0
M  V30 806 H 74.4969 -1.52142 -1.13811 0
M  V30 807 H 72.6469 -1.41768 -3.6171 0
M  V30 808 H 74.3189 -3.81699 -2.59043 0
M  V30 809 H 72.5619 -3.62796 -2.37827 0
M  V30 810 H 73.2329 -3.801 -4.00285 0
M  V30 811 H 75.7089 -1.89757 -3.70313 0
M  V30 812 H 74.5849 -2.09973 -5.07151 0
M  V30 813 H 74.8459 -0.500874 -4.39254 0
M  V30 814 N 73.905 1.17692 -1.04816 0
M  V30 815 C 75.182 1.83768 -0.669963 0
M  V30 816 C 75.562 1.93232 0.849986 0
M  V30 817 O 74.91 1.46397 1.75443 0
M  V30 818 C 75.12 3.21641 -1.35455 0
M  V30 819 C 76.468 3.97592 -1.49017 0
M  V30 820 O 77.492 3.31107 -1.31326 0
M  V30 821 O 76.351 5.16729 -1.77914 0
M  V30 822 H 73.445 0.792799 -0.235368 0
M  V30 823 H 75.991 1.25021 -1.14751 0
M  V30 824 H 74.763 3.097 -2.39168 0
M  V30 825 H 74.386 3.88052 -0.866107 0
M  V30 826 N 75.3831 0.828654 1.34056 0
M  V30 827 C 76.3131 0.269443 2.3194 0
M  V30 828 C 77.2941 -0.617247 1.58506 0
M  V30 829 O 78.4791 -0.542931 1.86456 0
M  V30 830 C 75.6091 -0.564793 3.42677 0
M  V30 831 C 74.5631 0.225241 4.27407 0
M  V30 832 C 73.8891 -0.7321 5.29664 0
M  V30 833 C 75.1891 1.43663 5.02154 0
M  V30 834 H 76.8831 1.08728 2.7896 0
M  V30 835 H 74.4291 0.524283 1.34117 0
M  V30 836 H 76.3821 -0.966233 4.10173 0
M  V30 837 H 75.1061 -1.41574 2.9432 0
M  V30 838 H 73.7651 0.608117 3.61521 0
M  V30 839 H 73.4131 -1.57916 4.77568 0
M  V30 840 H 73.1131 -0.20767 5.87233 0
M  V30 841 H 74.6371 -1.13128 6.00029 0
M  V30 842 H 76.0511 1.1089 5.62473 0
M  V30 843 H 74.4481 1.89711 5.69324 0
M  V30 844 H 75.5181 2.21181 4.31517 0
M  V30 845 N 76.8612 -1.46375 0.584142 0
M  V30 846 C 77.8082 -2.30323 -0.148286 0
M  V30 847 C 78.7782 -1.40703 -0.882713 0
M  V30 848 O 79.9632 -1.69651 -0.873099 0
M  V30 849 C 77.1032 -3.25196 -1.15507 0
M  V30 850 C 76.2162 -4.29915 -0.423943 0
M  V30 851 C 75.3512 -5.11914 -1.41838 0
M  V30 852 C 74.3902 -6.08381 -0.673736 0
M  V30 853 N 73.5272 -6.83242 -1.6163 0
M  V30 854 H 78.3672 -2.92427 0.573644 0
M  V30 855 H 75.9042 -1.44118 0.294703 0
M  V30 856 H 77.8622 -3.78646 -1.75166 0
M  V30 857 H 76.4922 -2.64898 -1.8447 0
M  V30 858 H 75.5442 -3.7931 0.287714 0
M  V30 859 H 76.8562 -4.98549 0.158128 0
M  V30 860 H 76.0102 -5.69648 -2.08773 0
M  V30 861 H 74.7492 -4.43243 -2.03438 0
M  V30 862 H 73.7542 -5.49799 0.00938483 0
M  V30 863 H 74.9792 -6.79071 -0.0631082 0
M  V30 864 H 72.9252 -6.1728 -2.22038 0
M  V30 865 H 72.8422 -7.48144 -1.08707 0
M  V30 866 H 74.1102 -7.45534 -2.27596 0
M  V30 867 N 78.3393 -0.321999 -1.54275 0
M  V30 868 C 79.2863 0.544664 -2.24281 0
M  V30 869 C 80.2563 1.1129 -1.23303 0
M  V30 870 O 81.4413 1.15354 -1.51981 0
M  V30 871 C 78.5813 1.70045 -3.00298 0
M  V30 872 C 77.6943 1.16159 -4.1609 0
M  V30 873 C 76.8293 2.28293 -4.79641 0
M  V30 874 C 75.8683 1.71648 -5.8754 0
M  V30 875 N 75.0053 2.77438 -6.44959 0
M  V30 876 H 79.8453 -0.0588907 -2.97942 0
M  V30 877 H 77.3823 -0.0408345 -1.47043 0
M  V30 878 H 79.3403 2.38054 -3.42616 0
M  V30 879 H 77.9703 2.27531 -2.28975 0
M  V30 880 H 77.0223 0.373092 -3.78566 0
M  V30 881 H 78.3343 0.707087 -4.93763 0
M  V30 882 H 77.4883 3.0421 -5.2492 0
M  V30 883 H 76.2273 2.77079 -4.01346 0
M  V30 884 H 75.2323 0.942282 -5.41665 0
M  V30 885 H 76.4573 1.23741 -6.67731 0
M  V30 886 H 74.4033 3.25519 -5.69538 0
M  V30 887 H 74.3203 2.36547 -7.1804 0
M  V30 888 H 75.5883 3.53189 -6.94894 0
M  V30 889 N 79.8174 1.5752 -0.0501392 0
M  V30 890 C 80.7654 2.12651 0.942459 0
M  V30 891 C 81.7594 1.05807 1.32292 0
M  V30 892 O 82.9654 1.24217 1.3027 0
M  V30 893 H 79.3404 0.679673 0.321789 0
M  V30 894 H 81.3114 2.94951 0.452356 0
M  V30 895 C 80.0604 2.68565 2.20836 0
M  V30 896 H 79.3834 3.50439 1.92439 0
M  V30 897 H 80.8234 3.10761 2.8845 0
M  V30 898 C 79.2824 1.62291 2.95234 0
M  V30 899 O 79.8124 1.03508 3.88135 0
M  V30 900 N 78.0184 1.33836 2.57946 0
M  V30 901 H 77.5654 1.81826 1.82475 0
M  V30 902 H 77.5234 0.629595 3.08032 0
M  V30 903 N 81.2955 -0.223234 1.56011 0
M  V30 904 C 82.5445 -0.945912 1.78144 0
M  V30 905 C 82.8575 -1.85567 0.618396 0
M  V30 906 O 84.0635 -2.61688 0.723318 0
M  V30 907 C 82.5195 -1.73216 3.15475 0
M  V30 908 C 82.1275 -0.868619 4.39499 0
M  V30 909 C 83.8715 -2.44615 3.46935 0
M  V30 910 C 81.7785 -1.65212 5.67855 0
M  V30 911 H 80.7085 -0.356929 0.664167 0
M  V30 912 H 83.3595 -0.199845 1.82409 0
M  V30 913 H 81.7415 -2.52107 3.05382 0
M  V30 914 H 82.9155 -0.120366 4.60643 0
M  V30 915 H 81.2305 -0.26683 4.15544 0
M  V30 916 H 83.8275 -3.03732 4.40058 0
M  V30 917 H 84.1705 -3.17417 2.69355 0
M  V30 918 H 84.7035 -1.72715 3.58349 0
M  V30 919 H 81.4425 -0.967407 6.48322 0
M  V30 920 H 80.9625 -2.37503 5.50774 0
M  V30 921 H 82.6415 -2.21322 6.07968 0
M  V30 922 N 82.7736 -1.49793 -0.48987 0
M  V30 923 C 83.6836 -1.70036 -1.61632 0
M  V30 924 C 84.6996 -0.583102 -1.63939 0
M  V30 925 O 85.8756 -0.859169 -1.82154 0
M  V30 926 C 82.9406 -1.77277 -2.97949 0
M  V30 927 C 82.0016 -3.00918 -3.06181 0
M  V30 928 C 81.2346 -3.07804 -4.35996 0
M  V30 929 O 81.4576 -2.21982 -5.25433 0
M  V30 930 O 80.3916 -4.00369 -4.49431 0
M  V30 931 H 84.2176 -2.65486 -1.47482 0
M  V30 932 H 81.8026 -1.33666 -0.667362 0
M  V30 933 H 83.6846 -1.84329 -3.78947 0
M  V30 934 H 82.3596 -0.850076 -3.12339 0
M  V30 935 H 81.2666 -2.99377 -2.2433 0
M  V30 936 H 82.5996 -3.92704 -2.96723 0
M  V30 937 N 84.2517 0.741722 -1.39055 0
M  V30 938 C 85.4817 1.52876 -1.3897 0
M  V30 939 C 85.8897 1.8919 0.0193266 0
M  V30 940 O 85.2327 1.54138 0.999356 0
M  V30 941 C 85.2947 2.84929 -2.19216 0
M  V30 942 C 84.9587 2.71086 -3.67915 0
M  V30 943 C 85.9557 2.40084 -4.61146 0
M  V30 944 C 83.6407 2.88168 -4.11418 0
M  V30 945 C 85.6347 2.26335 -5.95862 0
M  V30 946 C 83.3217 2.74037 -5.46211 0
M  V30 947 C 84.3197 2.43166 -6.38247 0
M  V30 948 O 84.0077 2.29115 -7.70559 0
M  V30 949 H 83.7397 0.479252 -0.476753 0
M  V30 950 H 86.2937 0.924751 -1.83405 0
M  V30 951 H 84.5237 3.47564 -1.69518 0
M  V30 952 H 86.2127 3.46509 -2.11392 0
M  V30 953 H 86.9787 2.26545 -4.28838 0
M  V30 954 H 82.8577 3.11191 -3.40119 0
M  V30 955 H 86.4017 2.0216 -6.67665 0
M  V30 956 H 82.2987 2.87153 -5.78112 0
M  V30 957 H 83.0667 2.44237 -7.81211 0
M  V30 958 N 85.7298 1.2412 0.971189 0
M  V30 959 C 86.6928 1.03156 2.04674 0
M  V30 960 C 87.6928 -0.00990322 1.60797 0
M  V30 961 O 88.8828 0.230729 1.72665 0
M  V30 962 C 86.0148 0.562765 3.36223 0
M  V30 963 H 87.2078 1.98614 2.24705 0
M  V30 964 H 84.7608 1.06293 1.14593 0
M  V30 965 H 85.4958 -0.395176 3.21883 0
M  V30 966 H 85.2808 1.31441 3.69413 0
M  V30 967 H 86.7708 0.437015 4.15307 0
M  V30 968 N 87.2079 -1.17134 1.05439 0
M  V30 969 C 88.1709 -2.19439 0.661764 0
M  V30 970 C 89.1709 -1.58199 -0.288042 0
M  V30 971 O 90.3609 -1.74053 -0.0715803 0
M  V30 972 C 87.4929 -3.40889 -0.0276209 0
M  V30 973 H 88.6859 -2.55688 1.56728 0
M  V30 974 H 86.2389 -1.31259 0.848567 0
M  V30 975 H 86.9739 -3.10187 -0.94629 0
M  V30 976 H 86.7589 -3.86586 0.655238 0
M  V30 977 H 88.2489 -4.16603 -0.288342 0
M  V30 978 N 88.686 -0.835752 -1.33615 0
M  V30 979 C 89.911 -0.442389 -2.02627 0
M  V30 980 C 90.336 0.947735 -1.62479 0
M  V30 981 O 89.694 1.61907 -0.815826 0
M  V30 982 C 89.742 -0.567216 -3.56111 0
M  V30 983 O 88.846 0.407799 -4.10379 0
M  V30 984 H 88.187 -0.180278 -0.639059 0
M  V30 985 H 90.717 -1.12972 -1.70583 0
M  V30 986 H 90.727 -0.447708 -4.05536 0
M  V30 987 H 89.402 -1.58103 -3.84677 0
M  V30 988 H 87.979 0.246107 -3.72087 0
M  V30 989 N 90.1641 1.46063 -0.591896 0
M  V30 990 C 91.4101 2.02638 -0.0811191 0
M  V30 991 C 91.7431 1.4613 1.27905 0
M  V30 992 O 91.0181 0.629908 1.84017 0
M  V30 993 C 91.3011 3.60091 -0.0252436 0
M  V30 994 C 91.1541 4.26965 -1.41496 0
M  V30 995 C 92.4731 4.3496 0.670685 0
M  V30 996 H 89.5921 0.73635 -0.0309524 0
M  V30 997 H 92.2341 1.741 -0.760859 0
M  V30 998 H 90.3841 3.84535 0.553624 0
M  V30 999 H 92.0561 4.13756 -2.0397 0
M  V30 1000 H 90.2991 3.85971 -1.98011 0
M  V30 1001 H 90.9701 5.35781 -1.32825 0
M  V30 1002 H 93.4461 4.15716 0.178825 0
M  V30 1003 H 92.3221 5.44686 0.678837 0
M  V30 1004 H 92.5831 4.06685 1.73379 0
M  V30 1005 N 91.6422 0.330177 1.54103 0
M  V30 1006 C 92.5722 -0.525353 2.27513 0
M  V30 1007 C 93.5532 -1.11383 1.2856 0
M  V30 1008 O 94.7382 -1.13773 1.57383 0
M  V30 1009 C 91.8682 -1.6831 3.03791 0
M  V30 1010 C 90.8222 -1.2236 4.10137 0
M  V30 1011 C 90.1482 -2.46882 4.74293 0
M  V30 1012 C 91.4482 -0.333697 5.21233 0
M  V30 1013 H 93.1422 0.087013 2.99274 0
M  V30 1014 H 90.6882 0.0432893 1.43935 0
M  V30 1015 H 92.6412 -2.28795 3.5388 0
M  V30 1016 H 91.3652 -2.32216 2.29659 0
M  V30 1017 H 90.0242 -0.64165 3.60941 0
M  V30 1018 H 89.6722 -3.09165 3.96769 0
M  V30 1019 H 89.3722 -2.16825 5.46133 0
M  V30 1020 H 90.8962 -3.08117 5.27159 0
M  V30 1021 H 92.3102 -0.845013 5.67038 0
M  V30 1022 H 90.7072 -0.125612 5.99969 0
M  V30 1023 H 91.7772 0.633724 4.80741 0
M  V30 1024 N 93.1203 -1.57491 0.0584922 0
M  V30 1025 C 94.0303 -2.15448 -0.928414 0
M  V30 1026 C 95.0463 -1.11416 -1.3365 0
M  V30 1027 O 96.2223 -1.4362 -1.41193 0
M  V30 1028 C 93.2873 -2.69393 -2.18239 0
M  V30 1029 C 92.3483 -3.88249 -1.83196 0
M  V30 1030 C 91.5813 -4.39613 -3.02616 0
M  V30 1031 O 91.8043 -3.90023 -4.16219 0
M  V30 1032 O 90.7383 -5.31111 -2.83204 0
M  V30 1033 H 94.5643 -3.00112 -0.465483 0
M  V30 1034 H 92.1493 -1.48499 -0.163826 0
M  V30 1035 H 94.0313 -3.04026 -2.91798 0
M  V30 1036 H 92.7063 -1.87796 -2.63656 0
M  V30 1037 H 91.6133 -3.58492 -1.06931 0
M  V30 1038 H 92.9463 -4.71098 -1.42573 0
M  V30 1039 N 94.5984 0.214957 -1.56127 0
M  V30 1040 C 95.5614 1.24997 -1.92116 0
M  V30 1041 C 96.5614 1.39467 -0.800344 0
M  V30 1042 O 97.7514 1.37619 -1.06802 0
M  V30 1043 C 94.8834 2.62271 -2.17777 0
M  V30 1044 H 96.0764 0.942875 -2.84693 0
M  V30 1045 H 93.6294 0.455654 -1.49511 0
M  V30 1046 H 94.3644 2.98068 -1.27773 0
M  V30 1047 H 94.1494 2.53143 -2.99434 0
M  V30 1048 H 95.6394 3.36946 -2.46693 0
M  V30 1049 N 96.0765 1.50051 0.48192 0
M  V30 1050 C 97.3225 1.60736 1.2366 0
M  V30 1051 C 97.6555 0.301786 1.91841 0
M  V30 1052 O 96.9305 -0.696025 1.8162 0
M  V30 1053 C 97.2135 2.78009 2.28874 0
M  V30 1054 C 97.0665 4.18416 1.65069 0
M  V30 1055 C 98.3855 2.90867 3.30279 0
M  V30 1056 H 95.5045 0.585031 0.448228 0
M  V30 1057 H 98.1465 1.82402 0.531946 0
M  V30 1058 H 96.2965 2.59667 2.88973 0
M  V30 1059 H 97.9685 4.48322 1.0865 0
M  V30 1060 H 96.2115 4.23177 0.954148 0
M  V30 1061 H 96.8825 4.96381 2.41474 0
M  V30 1062 H 99.3585 3.07623 2.80191 0
M  V30 1063 H 98.2345 3.74566 4.01238 0
M  V30 1064 H 98.4955 2.01021 3.93755 0
M  V30 1065 N 97.5546 -0.734337 1.39446 0
M  V30 1066 C 98.7846 -1.52137 1.39778 0
M  V30 1067 C 99.1926 -1.89198 -0.00929312 0
M  V30 1068 O 98.5356 -1.54666 -0.991168 0
M  V30 1069 C 98.5976 -2.83762 2.20724 0
M  V30 1070 C 98.2616 -2.69131 3.69347 0
M  V30 1071 C 99.2586 -2.37635 4.62413 0
M  V30 1072 C 96.9436 -2.85982 4.1294 0
M  V30 1073 C 98.9376 -2.23172 5.97054 0
M  V30 1074 C 96.6246 -2.71137 5.47657 0
M  V30 1075 C 97.6226 -2.39777 6.39528 0
M  V30 1076 O 97.3106 -2.25026 7.71763 0
M  V30 1077 H 97.0426 -0.476717 0.479288 0
M  V30 1078 H 99.5966 -0.915012 1.83893 0
M  V30 1079 H 97.8266 -3.4666 1.71359 0
M  V30 1080 H 99.5156 -3.45383 2.13226 0
M  V30 1081 H 100.282 -2.24267 4.30034 0
M  V30 1082 H 96.1606 -3.09383 3.41765 0
M  V30 1083 H 99.7046 -1.98617 6.68728 0
M  V30 1084 H 95.6016 -2.84083 5.79626 0
M  V30 1085 H 96.3696 -2.40091 7.82495 0
M  V30 1086 N 99.0327 -1.24633 -0.964593 0
M  V30 1087 C 100.282 -1.08188 -1.7023 0
M  V30 1088 C 100.595 0.37873 -1.91898 0
M  V30 1089 O 101.801 0.663427 -2.6327 0
M  V30 1090 C 100.257 -1.88773 -3.06419 0
M  V30 1091 C 99.8647 -3.39263 -2.92582 0
M  V30 1092 C 101.609 -1.80867 -3.84041 0
M  V30 1093 C 99.5157 -4.1218 -4.24101 0
M  V30 1094 H 98.4457 -0.401245 -0.638372 0
M  V30 1095 H 101.097 -1.48742 -1.07462 0
M  V30 1096 H 99.4787 -1.41035 -3.70034 0
M  V30 1097 H 100.653 -3.94603 -2.37961 0
M  V30 1098 H 98.9677 -3.48154 -2.28424 0
M  V30 1099 H 101.565 -2.32646 -4.81435 0
M  V30 1100 H 101.908 -0.774543 -4.09031 0
M  V30 1101 H 102.441 -2.26301 -3.27159 0
M  V30 1102 H 99.1797 -5.15965 -4.04303 0
M  V30 1103 H 98.6997 -3.61626 -4.78526 0
M  V30 1104 H 100.379 -4.19349 -4.92702 0
M  V30 1105 N 100.511 1.16574 -1.06058 0
M  V30 1106 C 101.788 1.83048 -0.689416 0
M  V30 1107 C 102.168 1.94122 0.829443 0
M  V30 1108 O 101.516 1.48249 1.7388 0
M  V30 1109 C 101.726 3.20186 -1.38859 0
M  V30 1110 C 103.074 3.95989 -1.53226 0
M  V30 1111 O 104.098 3.29696 -1.3483 0
M  V30 1112 O 102.957 5.14813 -1.83384 0
M  V30 1113 H 100.051 0.790258 -0.243764 0
M  V30 1114 H 102.597 1.23797 -1.16071 0
M  V30 1115 H 101.369 3.07146 -2.4244 0
M  V30 1116 H 100.992 3.87112 -0.907216 0
M  V30 1117 N 101.989 0.842826 1.3317 0
M  V30 1118 C 102.899 0.281444 2.32906 0
M  V30 1119 C 103.915 -0.594587 1.63526 0
M  V30 1120 O 105.091 -0.49777 1.95152 0
M  V30 1121 C 102.156 -0.530929 3.42611 0
M  V30 1122 C 101.217 0.369843 4.27704 0
M  V30 1123 C 100.45 -0.403853 5.3217 0
M  V30 1124 O 100.673 -1.63513 5.46461 0
M  V30 1125 O 99.6069 0.224199 6.01482 0
M  V30 1126 H 103.433 1.10744 2.82789 0
M  V30 1127 H 101.018 0.60545 1.36582 0
M  V30 1128 H 102.9 -0.992437 4.09547 0
M  V30 1129 H 101.575 -1.33392 2.94938 0
M  V30 1130 H 100.482 0.879275 3.6362 0
M  V30 1131 H 101.815 1.13771 4.78871 0
M  V30 1132 N 103.467 -1.45747 0.599634 0
M  V30 1133 C 104.695 -2.06668 0.0978551 0
M  V30 1134 C 105.11 -1.44562 -1.21439 0
M  V30 1135 O 104.467 -0.556923 -1.73795 0
M  V30 1136 C 104.518 -3.61456 -0.0567044 0
M  V30 1137 O 104.239 -4.21242 1.20361 0
M  V30 1138 C 105.74 -4.39345 -0.590869 0
M  V30 1139 H 102.96 -0.667825 0.0651943 0
M  V30 1140 H 105.504 -1.87115 0.82511 0
M  V30 1141 H 103.659 -3.80378 -0.734251 0
M  V30 1142 H 104.073 -5.14323 1.02821 0
M  V30 1143 H 105.547 -5.48182 -0.648131 0
M  V30 1144 H 106.024 -4.08568 -1.61147 0
M  V30 1145 H 106.63 -4.25268 0.0523679 0
M  V30 1146 N 104.945 -0.338344 -1.53925 0
M  V30 1147 C 106.361 0.0137736 -1.59594 0
M  V30 1148 C 106.561 1.49186 -1.35447 0
M  V30 1149 O 105.617 2.24987 -1.14616 0
M  V30 1150 C 106.93 -0.41773 -2.97784 0
M  V30 1151 C 108.478 -0.369633 -3.1081 0
M  V30 1152 C 108.953 -0.776524 -4.51369 0
M  V30 1153 N 110.444 -0.730506 -4.57403 0
M  V30 1154 C 111.179 -1.01736 -5.64303 0
M  V30 1155 N 110.675 -1.3721 -6.79077 0
M  V30 1156 N 112.468 -0.941942 -5.54151 0
M  V30 1157 H 104.619 -1.3012 -1.67876 0
M  V30 1158 H 106.882 -0.530082 -0.78595 0
M  V30 1159 H 106.588 -1.44811 -3.20504 0
M  V30 1160 H 106.462 0.209729 -3.76616 0
M  V30 1161 H 108.849 0.651568 -2.87817 0
M  V30 1162 H 108.93 -1.03223 -2.34049 0
M  V30 1163 H 108.574 -1.79571 -4.75096 0
M  V30 1164 H 108.504 -0.0914649 -5.26521 0
M  V30 1165 H 110.995 -0.468783 -3.74981 0
M  V30 1166 H 111.308 -1.57597 -7.5656 0
M  V30 1167 H 109.653 -1.4105 -6.80536 0
M  V30 1168 H 112.844 -0.664184 -4.63364 0
M  V30 1169 H 113.017 -1.16884 -6.37371 0
M  V30 1170 N 106.423 1.57458 -0.0668435 0
M  V30 1171 C 107.839 1.56947 0.289772 0
M  V30 1172 C 108.039 1.07584 1.70376 0
M  V30 1173 O 107.095 0.739486 2.41429 0
M  V30 1174 C 108.408 3.0052 0.103943 0
M  V30 1175 C 109.956 3.12517 0.173857 0
M  V30 1176 C 110.431 4.57997 0.0163682 0
M  V30 1177 N 111.922 4.63144 0.0721352 0
M  V30 1178 C 112.657 5.73394 -0.0253794 0
M  V30 1179 N 112.153 6.92576 -0.176133 0
M  V30 1180 N 113.946 5.62091 0.0313305 0
M  V30 1181 H 106.097 1.87863 -0.991027 0
M  V30 1182 H 108.36 0.86583 -0.38606 0
M  V30 1183 H 108.066 3.40729 -0.871572 0
M  V30 1184 H 107.94 3.67304 0.858366 0
M  V30 1185 H 110.327 2.72197 1.13985 0
M  V30 1186 H 110.408 2.48381 -0.611586 0
M  V30 1187 H 110.052 4.99005 -0.946374 0
M  V30 1188 H 109.982 5.20158 0.821153 0
M  V30 1189 H 112.473 3.77436 0.187263 0
M  V30 1190 H 112.786 7.72418 -0.242821 0
M  V30 1191 H 111.131 6.94678 -0.211429 0
M  V30 1192 H 114.322 4.67867 0.147773 0
M  V30 1193 H 114.495 6.47982 -0.048121 0
M  V30 1194 N 107.901 -0.206675 1.56239 0
M  V30 1195 C 108.831 -1.25909 1.96645 0
M  V30 1196 C 109.812 -1.48097 0.836734 0
M  V30 1197 O 110.997 -1.6003 1.10019 0
M  V30 1198 C 108.127 -2.6058 2.29599 0
M  V30 1199 C 107.081 -2.53024 3.452 0
M  V30 1200 C 106.407 -3.91861 3.63798 0
M  V30 1201 C 107.707 -2.06524 4.79734 0
M  V30 1202 H 109.401 -0.923369 2.84806 0
M  V30 1203 H 106.947 -0.442735 1.37025 0
M  V30 1204 H 108.9 -3.34375 2.56459 0
M  V30 1205 H 107.624 -2.95869 1.38307 0
M  V30 1206 H 106.283 -1.81684 3.18412 0
M  V30 1207 H 105.931 -4.24483 2.69857 0
M  V30 1208 H 105.631 -3.87683 4.4156 0
M  V30 1209 H 107.155 -4.67296 3.93022 0
M  V30 1210 H 108.569 -2.70072 5.05702 0
M  V30 1211 H 106.966 -2.13374 5.60885 0
M  V30 1212 H 108.036 -1.01802 4.74093 0
M  V30 1213 N 109.379 -1.50304 -0.473955 0
M  V30 1214 C 110.309 -1.71886 -1.58042 0
M  V30 1215 C 111.29 -0.567799 -1.60344 0
M  V30 1216 O 112.475 -0.806623 -1.76656 0
M  V30 1217 C 109.605 -1.81036 -2.96384 0
M  V30 1218 C 108.559 -2.962 -3.08949 0
M  V30 1219 C 107.885 -2.9049 -4.48909 0
M  V30 1220 C 109.185 -4.36752 -2.86434 0
M  V30 1221 H 110.879 -2.64527 -1.40234 0
M  V30 1222 H 108.425 -1.27295 -0.673201 0
M  V30 1223 H 110.378 -1.94719 -3.73714 0
M  V30 1224 H 109.102 -0.850147 -3.15341 0
M  V30 1225 H 107.761 -2.82164 -2.3405 0
M  V30 1226 H 107.409 -1.92321 -4.64781 0
M  V30 1227 H 107.109 -3.67802 -4.58253 0
M  V30 1228 H 108.633 -3.06218 -5.28264 0
M  V30 1229 H 110.047 -4.5133 -3.53517 0
M  V30 1230 H 108.444 -5.15493 -3.07225 0
M  V30 1231 H 109.514 -4.49321 -1.82316 0
M  V30 1232 N 110.857 0.726932 -1.39834 0
M  V30 1233 C 112.134 1.47902 -1.28001 0
M  V30 1234 C 112.514 2.1083 0.106789 0
M  V30 1235 O 111.862 1.99242 1.11869 0
M  V30 1236 C 112.072 2.52392 -2.41038 0
M  V30 1237 C 113.42 3.18546 -2.80737 0
M  V30 1238 O 114.444 2.62708 -2.40547 0
M  V30 1239 O 113.303 4.19604 -3.50135 0
M  V30 1240 H 110.397 0.657163 -0.502062 0
M  V30 1241 H 112.943 0.760071 -1.51727 0
M  V30 1242 H 111.715 2.04329 -3.33715 0
M  V30 1243 H 111.338 3.31837 -2.19021 0
M  V30 1244 N 112.336 1.25143 0.95797 0
M  V30 1245 C 113.564 1.12424 1.73691 0
M  V30 1246 C 113.979 -0.322304 1.86029 0
M  V30 1247 O 113.336 -1.22186 1.35561 0
M  V30 1248 C 113.387 1.76933 3.15241 0
M  V30 1249 O 113.108 3.15932 3.03511 0
M  V30 1250 C 114.609 1.6995 4.09429 0
M  V30 1251 H 111.829 0.3923 0.544373 0
M  V30 1252 H 114.373 1.6544 1.20207 0
M  V30 1253 H 112.528 1.27895 3.6568 0
M  V30 1254 H 112.942 3.47598 3.9278 0
M  V30 1255 H 114.416 2.19753 5.06372 0
M  V30 1256 H 114.893 0.662619 4.34173 0
M  V30 1257 H 115.499 2.18461 3.64904 0
M  V30 1258 N 113.814 -1.1601 1.06675 0
M  V30 1259 C 114.724 -2.24156 0.692179 0
M  V30 1260 C 115.74 -1.71507 -0.293513 0
M  V30 1261 O 116.916 -2.009 -0.141861 0
M  V30 1262 C 113.981 -3.46587 0.0884131 0
M  V30 1263 C 113.042 -4.14257 1.12646 0
M  V30 1264 C 112.275 -5.30844 0.551416 0
M  V30 1265 O 112.498 -5.66858 -0.634656 0
M  V30 1266 O 111.432 -5.87848 1.29298 0
M  V30 1267 H 115.258 -2.58513 1.59388 0
M  V30 1268 H 112.843 -1.23599 0.83926 0
M  V30 1269 H 114.725 -4.20679 -0.246361 0
M  V30 1270 H 113.4 -3.13994 -0.786712 0
M  V30 1271 H 112.307 -3.42118 1.51348 0
M  V30 1272 H 113.64 -4.50914 1.97325 0
M  V30 1273 N 115.292 -0.849877 -1.32721 0
M  V30 1274 C 116.569 -0.372405 -1.92022 0
M  V30 1275 C 116.949 1.1435 -1.77447 0
M  V30 1276 O 116.297 1.96296 -1.16962 0
M  V30 1277 C 116.507 -0.831482 -3.3895 0
M  V30 1278 C 117.855 -0.845882 -4.16089 0
M  V30 1279 O 118.879 -0.775806 -3.47649 0
M  V30 1280 O 117.738 -0.943753 -5.38289 0
M  V30 1281 H 114.832 -0.107667 -0.819961 0
M  V30 1282 H 117.378 -0.93646 -1.41522 0
M  V30 1283 H 116.15 -1.87448 -3.4348 0
M  V30 1284 H 115.773 -0.24461 -3.96847 0
M  V30 1285 N 116.77 1.45427 -0.607355 0
M  V30 1286 C 117.68 2.34325 0.113463 0
M  V30 1287 C 118.696 1.51226 0.860617 0
M  V30 1288 O 119.872 1.84029 0.818255 0
M  V30 1289 C 116.937 3.28839 1.09844 0
M  V30 1290 C 115.998 4.27844 0.353271 0
M  V30 1291 C 115.231 5.17842 1.29133 0
M  V30 1292 O 115.454 5.11264 2.52913 0
M  V30 1293 O 114.388 5.96713 0.788523 0
M  V30 1294 H 118.214 2.97364 -0.617094 0
M  V30 1295 H 115.799 1.44807 -0.367619 0
M  V30 1296 H 117.681 3.8708 1.66575 0
M  V30 1297 H 116.356 2.68365 1.81003 0
M  V30 1298 H 115.263 3.7322 -0.256494 0
M  V30 1299 H 116.596 4.91173 -0.317822 0
M  V30 1300 N 118.248 0.346503 1.53744 0
M  V30 1301 C 119.178 -0.501193 2.28058 0
M  V30 1302 C 120.159 -1.10014 1.29734 0
M  V30 1303 O 121.344 -1.12097 1.58581 0
M  V30 1304 C 118.474 -1.65078 3.05559 0
M  V30 1305 C 117.428 -1.18003 4.11411 0
M  V30 1306 C 116.754 -2.41837 4.76884 0
M  V30 1307 C 118.054 -0.278394 5.21558 0
M  V30 1308 H 119.748 0.11875 2.99164 0
M  V30 1309 H 117.294 0.0585531 1.43881 0
M  V30 1310 H 119.247 -2.25028 3.56287 0
M  V30 1311 H 117.971 -2.29767 2.32109 0
M  V30 1312 H 116.63 -0.603331 3.61601 0
M  V30 1313 H 116.278 -3.0494 4.00026 0
M  V30 1314 H 115.978 -2.1102 5.48402 0
M  V30 1315 H 117.502 -3.02508 5.30397 0
M  V30 1316 H 118.916 -0.784823 5.67903 0
M  V30 1317 H 117.313 -0.0619707 6.00068 0
M  V30 1318 H 118.383 0.684677 4.80042 0
M  V30 1319 N 119.726 -1.57421 0.075193 0
M  V30 1320 C 120.951 -1.98364 -0.605515 0
M  V30 1321 C 121.376 -0.953383 -1.62149 0
M  V30 1322 O 120.734 0.0806053 -1.81121 0
M  V30 1323 C 120.782 -3.38332 -1.24756 0
M  V30 1324 O 119.886 -3.37959 -2.36342 0
M  V30 1325 H 119.227 -0.645553 -0.155428 0
M  V30 1326 H 121.757 -2.04044 0.150714 0
M  V30 1327 H 121.767 -3.75591 -1.5936 0
M  V30 1328 H 120.442 -4.12846 -0.503129 0
M  V30 1329 H 119.019 -3.12474 -2.03506 0
M  V30 1330 N 121.204 0.198386 -1.56346 0
M  V30 1331 C 122.481 0.944982 -1.71258 0
M  V30 1332 C 122.861 2.0151 -0.629048 0
M  V30 1333 O 122.209 2.25639 0.360473 0
M  V30 1334 C 122.419 1.5344 -3.1346 0
M  V30 1335 C 123.767 2.01778 -3.73591 0
M  V30 1336 O 124.791 1.63288 -3.16568 0
M  V30 1337 O 123.65 2.72594 -4.73661 0
M  V30 1338 H 120.744 0.442939 -0.69838 0
M  V30 1339 H 123.29 0.188342 -1.68652 0
M  V30 1340 H 122.062 0.762869 -3.83792 0
M  V30 1341 H 121.685 2.35596 -3.20282 0
M  V30 1342 N 122.682 1.50554 0.465978 0
M  V30 1343 C 123.931 1.61038 1.21448 0
M  V30 1344 C 124.244 0.31865 1.92987 0
M  V30 1345 O 125.45 0.302469 2.6981 0
M  V30 1346 C 123.906 2.84283 2.20706 0
M  V30 1347 C 123.514 4.20352 1.54946 0
M  V30 1348 C 125.258 3.04115 2.96166 0
M  V30 1349 C 123.165 5.34778 2.5252 0
M  V30 1350 H 122.095 0.599718 0.457005 0
M  V30 1351 H 124.746 1.7699 0.484424 0
M  V30 1352 H 123.128 2.61901 2.97025 0
M  V30 1353 H 124.302 4.53008 0.843811 0
M  V30 1354 H 122.617 4.06167 0.917475 0
M  V30 1355 H 125.214 3.86774 3.69202 0
M  V30 1356 H 125.557 2.16045 3.55852 0
M  V30 1357 H 126.09 3.26702 2.26959 0
M  V30 1358 H 122.829 6.25018 1.97566 0
M  V30 1359 H 122.349 5.06534 3.21222 0
M  V30 1360 H 124.028 5.65561 3.14245 0
M  V30 1361 N 124.16 -0.719506 1.40217 0
M  V30 1362 C 125.092 -1.84428 1.36084 0
M  V30 1363 C 126.105 -1.60597 0.266913 0
M  V30 1364 O 127.294 -1.70544 0.526983 0
M  V30 1365 C 124.394 -3.20757 1.094 0
M  V30 1366 C 123.567 -3.71817 2.30372 0
M  V30 1367 C 122.626 -4.86748 1.99907 0
M  V30 1368 O 121.652 -4.99603 2.72737 0
M  V30 1369 N 122.854 -5.7226 0.974635 0
M  V30 1370 H 125.619 -1.88473 2.33019 0
M  V30 1371 H 123.18 -0.900885 1.3452 0
M  V30 1372 H 125.172 -3.95235 0.870116 0
M  V30 1373 H 123.742 -3.11884 0.211452 0
M  V30 1374 H 122.962 -2.88514 2.68614 0
M  V30 1375 H 124.25 -4.02666 3.11026 0
M  V30 1376 H 123.648 -5.6448 0.371368 0
M  V30 1377 H 122.205 -6.46739 0.810656 0
M  V30 1378 N 125.638 -1.25649 -0.95132 0
M  V30 1379 C 126.866 -1.13343 -1.73092 0
M  V30 1380 C 127.281 0.312434 -1.86197 0
M  V30 1381 O 126.638 1.21465 -1.36207 0
M  V30 1382 C 126.689 -1.78602 -3.14299 0
M  V30 1383 O 126.41 -3.17537 -3.01831 0
M  V30 1384 C 127.911 -1.72119 -4.08522 0
M  V30 1385 H 125.131 -0.395181 -0.542285 0
M  V30 1386 H 127.675 -1.66076 -1.19328 0
M  V30 1387 H 125.83 -1.29832 -3.64996 0
M  V30 1388 H 126.244 -3.49676 -3.90931 0
M  V30 1389 H 127.718 -2.22435 -5.052 0
M  V30 1390 H 128.195 -0.685635 -4.33815 0
M  V30 1391 H 128.801 -2.20393 -3.63741 0
M  V30 1392 N 127.117 1.15442 -1.07289 0
M  V30 1393 C 128.394 1.82306 -0.708792 0
M  V30 1394 C 128.774 1.94991 0.808807 0
M  V30 1395 O 128.122 1.50085 1.72298 0
M  V30 1396 C 128.332 3.18695 -1.42247 0
M  V30 1397 C 129.68 3.94341 -1.57417 0
M  V30 1398 O 130.704 3.28247 -1.38319 0
M  V30 1399 O 129.563 5.12839 -1.88834 0
M  V30 1400 H 126.657 0.787628 -0.252132 0
M  V30 1401 H 129.203 1.22559 -1.17377 0
M  V30 1402 H 127.975 3.04557 -2.45684 0
M  V30 1403 H 127.598 3.86128 -0.948223 0
M  V30 1404 N 128.595 0.856903 1.32268 0
M  V30 1405 C 129.82 0.474569 2.01897 0
M  V30 1406 C 130.245 -0.921766 1.63967 0
M  V30 1407 O 129.603 -1.60589 0.84148 0
M  V30 1408 C 129.651 0.623799 3.55164 0
M  V30 1409 O 128.755 -0.342459 4.10976 0
M  V30 1410 H 128.096 0.190422 0.63611 0
M  V30 1411 H 130.626 1.15672 1.68764 0
M  V30 1412 H 130.636 0.512169 4.04773 0
M  V30 1413 H 129.311 1.64202 3.82113 0
M  V30 1414 H 127.888 -0.18688 3.72431 0
M  V30 1415 N 130.073 -1.45103 0.615059 0
M  V30 1416 C 131.319 -2.02483 0.113347 0
M  V30 1417 C 131.652 -1.48146 -1.25564 0
M  V30 1418 O 130.927 -0.659104 -1.82992 0
M  V30 1419 C 131.21 -3.60005 0.0825278 0
M  V30 1420 C 131.063 -4.2466 1.48271 0
M  V30 1421 C 132.382 -4.35972 -0.601401 0
M  V30 1422 H 129.501 -0.735764 0.0426632 0
M  V30 1423 H 132.143 -1.72868 0.788461 0
M  V30 1424 H 130.293 -3.85367 -0.492378 0
M  V30 1425 H 131.965 -4.10458 2.10527 0
M  V30 1426 H 130.208 -3.82772 2.04127 0
M  V30 1427 H 130.879 -5.336 1.41332 0
M  V30 1428 H 133.355 -4.15947 -0.112666 0
M  V30 1429 H 132.231 -5.45697 -0.592097 0
M  V30 1430 H 132.492 -4.09391 -1.66887 0
M  V30 1431 N 131.551 -0.354651 -1.53558 0
M  V30 1432 C 132.962 0.126902 -1.86268 0
M  V30 1433 C 133.313 1.49075 -1.27558 0
M  V30 1434 O 132.438 2.08105 -0.5934 0
M  V30 1435 C 133.033 0.237046 -3.3797 0
M  V30 1436 C 131.592 0.662842 -3.70518 0
M  V30 1437 C 130.739 -0.196652 -2.76602 0
M  V30 1438 H 133.69 -0.573849 -1.47962 0
M  V30 1439 H 133.711 1.06259 -3.65362 0
M  V30 1440 H 133.223 -0.755725 -3.80671 0
M  V30 1441 H 131.324 1.66424 -3.33367 0
M  V30 1442 H 131.437 0.445034 -4.77029 0
M  V30 1443 H 129.801 0.332763 -2.52517 0
M  V30 1444 H 130.584 -1.18676 -3.22135 0
M  V30 1445 N 133.029 1.57378 -0.0835403 0
M  V30 1446 C 134.254 1.98682 0.594987 0
M  V30 1447 C 134.679 0.961969 1.61641 0
M  V30 1448 O 134.037 -0.0709989 1.81161 0
M  V30 1449 C 134.085 3.38988 1.2296 0
M  V30 1450 O 133.189 3.39208 2.34546 0
M  V30 1451 H 132.53 0.646368 0.152002 0
M  V30 1452 H 135.06 2.03961 -0.161533 0
M  V30 1453 H 135.07 3.76431 1.57366 0
M  V30 1454 H 133.745 4.13107 0.481228 0
M  V30 1455 H 132.322 3.13548 2.01846 0
M  V30 1456 N 134.507 -0.190092 1.56449 0
M  V30 1457 C 135.417 -1.25591 1.98152 0
M  V30 1458 C 136.433 -1.49519 0.889944 0
M  V30 1459 O 137.609 -1.62036 1.19609 0
M  V30 1460 C 134.674 -2.57916 2.3169 0
M  V30 1461 C 133.735 -2.42015 3.5458 0
M  V30 1462 C 132.968 -3.6803 3.8651 0
M  V30 1463 O 133.191 -4.72413 3.1966 0
M  V30 1464 O 132.125 -3.6326 4.79923 0
M  V30 1465 H 135.951 -0.931988 2.89046 0
M  V30 1466 H 133.536 -0.395488 1.4407 0
M  V30 1467 H 135.418 -3.36008 2.54316 0
M  V30 1468 H 134.093 -2.89925 1.43963 0
M  V30 1469 H 133 -1.62017 3.37196 0
M  V30 1470 H 134.333 -2.14937 4.4279 0
M  V30 1471 N 135.985 -1.50799 -0.457987 0
M  V30 1472 C 137.231 -1.62683 -1.21088 0
M  V30 1473 C 137.564 -0.332268 -1.91336 0
M  V30 1474 O 136.839 0.667043 -1.82704 0
M  V30 1475 C 137.122 -2.81615 -2.24422 0
M  V30 1476 C 136.975 -4.20989 -1.58392 0
M  V30 1477 C 138.294 -2.96085 -3.2561 0
M  V30 1478 H 135.413 -0.592087 -0.438864 0
M  V30 1479 H 138.055 -1.83225 -0.50286 0
M  V30 1480 H 136.205 -2.64231 -2.84806 0
M  V30 1481 H 137.877 -4.49994 -1.01504 0
M  V30 1482 H 136.12 -4.24641 -0.886704 0
M  V30 1483 H 136.791 -5.0016 -2.33547 0
M  V30 1484 H 139.267 -3.12042 -2.75262 0
M  V30 1485 H 138.143 -3.80902 -3.95228 0
M  V30 1486 H 138.404 -2.0726 -3.90507 0
M  V30 1487 N 137.463 0.71206 -1.40597 0
M  V30 1488 C 138.879 1.02058 -1.22704 0
M  V30 1489 C 139.079 2.01228 -0.104729 0
M  V30 1490 O 138.135 2.4674 0.53624 0
M  V30 1491 C 139.448 1.56094 -2.57012 0
M  V30 1492 C 140.996 1.6806 -2.64054 0
M  V30 1493 C 141.471 2.25501 -3.9864 0
M  V30 1494 N 142.962 2.32882 -4.004 0
M  V30 1495 C 143.697 2.78317 -5.01325 0
M  V30 1496 N 143.193 3.23478 -6.12645 0
M  V30 1497 N 144.986 2.77733 -4.88693 0
M  V30 1498 H 137.137 0.0547896 -2.12329 0
M  V30 1499 H 139.4 0.0869027 -0.944008 0
M  V30 1500 H 139.106 0.906865 -3.39807 0
M  V30 1501 H 138.98 2.54564 -2.78347 0
M  V30 1502 H 141.367 2.32583 -1.81629 0
M  V30 1503 H 141.448 0.681802 -2.46546 0
M  V30 1504 H 141.092 1.61598 -4.81506 0
M  V30 1505 H 141.022 3.26102 -4.13479 0
M  V30 1506 H 143.513 2.00991 -3.20017 0
M  V30 1507 H 143.826 3.56725 -6.85542 0
M  V30 1508 H 142.171 3.21429 -6.16205 0
M  V30 1509 H 145.362 2.4179 -4.00818 0
M  V30 1510 H 145.535 3.12826 -5.67489 0
M  V30 1511 N 138.941 1.26152 0.944643 0
M  V30 1512 C 140.218 1.02247 1.66748 0
M  V30 1513 C 140.598 -0.448202 2.06287 0
M  V30 1514 O 139.946 -1.42779 1.78399 0
M  V30 1515 C 140.156 1.96788 2.88228 0
M  V30 1516 C 141.504 2.25201 3.59958 0
M  V30 1517 O 142.528 1.94626 2.98327 0
M  V30 1518 O 141.387 2.77242 4.70956 0
M  V30 1519 H 138.481 0.388517 0.730057 0
M  V30 1520 H 141.027 1.37348 0.99668 0
M  V30 1521 H 139.799 2.96047 2.55875 0
M  V30 1522 H 139.422 1.62145 3.63035 0
M  V30 1523 N 140.419 -1.14872 1.07899 0
M  V30 1524 C 141.665 -1.86289 0.81657 0
M  V30 1525 C 142.02 -1.8107 -0.65049 0
M  V30 1526 O 141.313 -1.22684 -1.47171 0
M  V30 1527 C 141.507 -3.34223 1.26609 0
M  V30 1528 C 141.336 -3.53846 2.77531 0
M  V30 1529 C 140.106 -3.68995 3.45212 0
M  V30 1530 C 142.304 -3.51201 3.75716 0
M  V30 1531 N 140.286 -3.76725 4.84718 0
M  V30 1532 C 141.657 -3.65112 5.01092 0
M  V30 1533 C 143.712 -3.34507 3.68794 0
M  V30 1534 C 142.415 -3.64056 6.20368 0
M  V30 1535 C 144.441 -3.34752 4.8754 0
M  V30 1536 C 143.803 -3.49199 6.11751 0
M  V30 1537 H 139.902 -0.698579 0.351443 0
M  V30 1538 H 142.486 -1.37713 1.37634 0
M  V30 1539 H 140.657 -3.81402 0.73395 0
M  V30 1540 H 142.389 -3.93377 0.95062 0
M  V30 1541 H 139.144 -3.70006 2.95622 0
M  V30 1542 H 139.568 -3.8432 5.5734 0
M  V30 1543 H 144.21 -3.22253 2.73702 0
M  V30 1544 H 141.928 -3.75087 7.15776 0
M  V30 1545 H 145.514 -3.23055 4.83866 0
M  V30 1546 H 144.394 -3.49328 7.02097 0
M  V30 1547 N 141.898 -0.863906 -1.31812 0
M  V30 1548 C 142.828 -0.330843 -2.31144 0
M  V30 1549 C 143.809 0.575005 -1.60087 0
M  V30 1550 O 144.994 0.493304 -1.8783 0
M  V30 1551 C 142.124 0.47374 -3.44054 0
M  V30 1552 C 141.078 -0.338481 -4.26659 0
M  V30 1553 C 140.404 0.591412 -5.31419 0
M  V30 1554 C 141.704 -1.56926 -4.98168 0
M  V30 1555 H 143.398 -1.16086 -2.75979 0
M  V30 1556 H 140.944 -0.559657 -1.32679 0
M  V30 1557 H 142.897 0.857143 -4.12591 0
M  V30 1558 H 141.621 1.33721 -2.9797 0
M  V30 1559 H 140.28 -0.703754 -3.59782 0
M  V30 1560 H 139.928 1.45199 -4.81587 0
M  V30 1561 H 139.628 0.0519022 -5.87577 0
M  V30 1562 H 141.152 0.97179 -6.02817 0
M  V30 1563 H 142.566 -1.25764 -5.59336 0
M  V30 1564 H 140.963 -2.04739 -5.64094 0
M  V30 1565 H 142.033 -2.32544 -4.25501 0
M  V30 1566 N 143.376 1.44774 -0.622745 0
M  V30 1567 C 144.339 2.29069 0.0774015 0
M  V30 1568 C 145.339 1.4059 0.780461 0
M  V30 1569 O 146.529 1.62551 0.626322 0
M  V30 1570 C 143.661 3.21974 1.12006 0
M  V30 1571 H 144.854 2.92459 -0.663901 0
M  V30 1572 H 142.407 1.51548 -0.382486 0
M  V30 1573 H 143.142 2.63417 1.89162 0
M  V30 1574 H 142.927 3.87168 0.619951 0
M  V30 1575 H 144.417 3.85318 1.60995 0
M  V30 1576 N 144.854 0.36279 1.53368 0
M  V30 1577 C 146.079 -0.231226 2.06107 0
M  V30 1578 C 146.504 -1.419 1.23474 0
M  V30 1579 O 145.862 -1.79524 0.253128 0
M  V30 1580 C 145.91 -0.605523 3.5548 0
M  V30 1581 O 145.014 -1.70312 3.7559 0
M  V30 1582 H 144.355 -0.034327 0.663112 0
M  V30 1583 H 146.885 0.522584 1.97814 0
M  V30 1584 H 146.895 -0.877314 3.98456 0
M  V30 1585 H 145.57 0.263004 4.15068 0
M  V30 1586 H 144.147 -1.4271 3.44512 0
M  V30 1587 N 146.332 -1.57332 0.0918853 0
M  V30 1588 C 147.56 -1.98574 -0.581048 0
M  V30 1589 C 147.975 -0.970903 -1.61923 0
M  V30 1590 O 147.332 0.0399054 -1.82456 0
M  V30 1591 C 147.383 -3.39872 -1.23164 0
M  V30 1592 O 147.104 -4.37469 -0.234989 0
M  V30 1593 C 148.605 -3.96099 -1.99049 0
M  V30 1594 H 145.825 -0.65261 -0.156018 0
M  V30 1595 H 148.369 -2.0379 0.170225 0
M  V30 1596 H 146.524 -3.35679 -1.93386 0
M  V30 1597 H 146.938 -5.19751 -0.70418 0
M  V30 1598 H 148.412 -4.97127 -2.39934 0
M  V30 1599 H 148.889 -3.3374 -2.85507 0
M  V30 1600 H 149.495 -4.03755 -1.3365 0
M  V30 1601 N 147.81 0.181792 -1.56548 0
M  V30 1602 C 149.057 0.900097 -1.81396 0
M  V30 1603 C 149.385 1.82695 -0.667281 0
M  V30 1604 O 148.64 1.92614 0.346146 0
M  V30 1605 C 148.939 1.73728 -3.12335 0
M  V30 1606 C 148.605 0.960255 -4.40556 0
M  V30 1607 C 147.267 0.745766 -4.75386 0
M  V30 1608 C 149.619 0.414477 -5.19549 0
M  V30 1609 C 146.947 -0.0257694 -5.86694 0
M  V30 1610 C 149.299 -0.343916 -6.31664 0
M  V30 1611 C 147.963 -0.569301 -6.65068 0
M  V30 1612 H 147.233 0.329369 -0.663775 0
M  V30 1613 H 149.88 0.165647 -1.90782 0
M  V30 1614 H 148.185 2.54081 -2.98245 0
M  V30 1615 H 149.882 2.29591 -3.28769 0
M  V30 1616 H 146.472 1.13746 -4.13231 0
M  V30 1617 H 150.656 0.567554 -4.93044 0
M  V30 1618 H 145.912 -0.210233 -6.11038 0
M  V30 1619 H 150.086 -0.774133 -6.92084 0
M  V30 1620 H 147.713 -1.16903 -7.51158 0
M  V30 1621 N 149.288 1.51039 0.449983 0
M  V30 1622 C 150.516 1.66869 1.2232 0
M  V30 1623 C 150.931 0.360727 1.85322 0
M  V30 1624 O 150.288 -0.659531 1.70166 0
M  V30 1625 C 150.339 2.77524 2.31652 0
M  V30 1626 O 150.06 4.03252 1.7123 0
M  V30 1627 C 151.561 3.04512 3.2216 0
M  V30 1628 H 148.781 0.560326 0.369155 0
M  V30 1629 H 151.325 1.97385 0.534719 0
M  V30 1630 H 149.48 2.49642 2.96239 0
M  V30 1631 H 149.894 4.64609 2.43389 0
M  V30 1632 H 151.368 3.85551 3.95038 0
M  V30 1633 H 151.845 2.16415 3.8218 0
M  V30 1634 H 152.451 3.34005 2.63288 0
M  V30 1635 N 150.766 -0.704594 1.40972 0
M  V30 1636 C 152.182 -1.01406 1.23244 0
M  V30 1637 C 152.382 -2.01169 0.115399 0
M  V30 1638 O 151.438 -2.47021 -0.523147 0
M  V30 1639 C 152.751 -1.54728 2.57836 0
M  V30 1640 C 154.299 -1.66658 2.64942 0
M  V30 1641 C 154.774 -2.23383 3.9983 0
M  V30 1642 N 156.265 -2.30756 4.01629 0
M  V30 1643 C 157 -2.75655 5.02794 0
M  V30 1644 N 156.496 -3.20225 6.14352 0
M  V30 1645 N 158.289 -2.75138 4.90159 0
M  V30 1646 H 150.44 -0.0435285 2.12355 0
M  V30 1647 H 152.703 -0.0818951 0.944456 0
M  V30 1648 H 152.409 -0.888832 3.40283 0
M  V30 1649 H 152.283 -2.53084 2.79693 0
M  V30 1650 H 154.67 -2.31617 1.8286 0
M  V30 1651 H 154.751 -0.668717 2.46904 0
M  V30 1652 H 154.395 -1.59043 4.82357 0
M  V30 1653 H 154.325 -3.23904 4.15203 0
M  V30 1654 H 156.816 -1.99291 3.21079 0
M  V30 1655 H 157.129 -3.53084 6.87424 0
M  V30 1656 H 155.474 -3.18156 6.17901 0
M  V30 1657 H 158.665 -2.39661 4.02095 0
M  V30 1658 H 158.838 -3.09812 5.6914 0
M  V30 1659 N 152.244 -1.26651 -0.937939 0
M  V30 1660 C 153.191 -1.0849 -2.03712 0
M  V30 1661 C 154.161 0.011033 -1.66096 0
M  V30 1662 O 155.346 -0.149353 -1.90215 0
M  V30 1663 C 152.486 -0.72735 -3.37348 0
M  V30 1664 C 151.599 -1.89986 -3.87981 0
M  V30 1665 C 150.734 -1.48513 -5.10017 0
M  V30 1666 C 149.773 -2.62575 -5.5292 0
M  V30 1667 N 148.91 -2.21762 -6.66158 0
M  V30 1668 H 153.75 -2.02551 -2.18579 0
M  V30 1669 H 151.287 -1.00844 -1.07093 0
M  V30 1670 H 153.245 -0.50092 -4.14182 0
M  V30 1671 H 151.875 0.176298 -3.22318 0
M  V30 1672 H 150.927 -2.23913 -3.07518 0
M  V30 1673 H 152.239 -2.75586 -4.15757 0
M  V30 1674 H 151.393 -1.21934 -5.94321 0
M  V30 1675 H 150.132 -0.60009 -4.83994 0
M  V30 1676 H 149.137 -2.8988 -4.67172 0
M  V30 1677 H 150.362 -3.51685 -5.80943 0
M  V30 1678 H 148.308 -1.35696 -6.41812 0
M  V30 1679 H 148.225 -3.00903 -6.93537 0
M  V30 1680 H 149.493 -1.98403 -7.53828 0
M  V30 1681 N 153.722 1.14298 -1.08507 0
M  V30 1682 C 154.655 2.18447 -0.660004 0
M  V30 1683 C 155.633 1.59242 0.328749 0
M  V30 1684 O 156.817 1.87062 0.232367 0
M  V30 1685 C 153.944 3.38688 0.0290807 0
M  V30 1686 C 152.99 4.1646 -0.919982 0
M  V30 1687 S 153.823 4.77334 -2.42718 0
M  V30 1688 C 154.979 6.00931 -1.75024 0
M  V30 1689 H 155.212 2.54166 -1.54231 0
M  V30 1690 H 152.745 1.25446 -0.900149 0
M  V30 1691 H 154.703 4.08342 0.420378 0
M  V30 1692 H 153.364 3.01289 0.887895 0
M  V30 1693 H 152.557 5.02529 -0.384751 0
M  V30 1694 H 152.159 3.52414 -1.25223 0
M  V30 1695 H 154.451 6.69017 -1.06877 0
M  V30 1696 H 155.394 6.59044 -2.58971 0
M  V30 1697 H 155.802 5.51089 -1.22317 0
M  V30 1698 N 155.201 0.870884 1.31352 0
M  V30 1699 C 156.449 0.48132 1.96285 0
M  V30 1700 C 156.77 -0.969813 1.69173 0
M  V30 1701 O 156.04 -1.67998 1.00764 0
M  V30 1702 H 154.62 0.175002 0.726212 0
M  V30 1703 H 157.282 1.11087 1.60143 0
M  V30 1704 H 156.378 0.639825 3.05471 0
M  V30 1705 N 156.679 -1.44442 0.630414 0
M  V30 1706 C 157.612 -2.27862 -0.124247 0
M  V30 1707 C 158.59 -1.38495 -0.851931 0
M  V30 1708 O 159.774 -1.67935 -0.856166 0
M  V30 1709 C 156.901 -3.17407 -1.18197 0
M  V30 1710 C 155.947 -4.22875 -0.554892 0
M  V30 1711 S 156.78 -5.31485 0.654489 0
M  V30 1712 C 157.936 -6.246 -0.40326 0
M  V30 1713 H 158.169 -2.91519 0.583435 0
M  V30 1714 H 155.702 -1.48618 0.418565 0
M  V30 1715 H 157.66 -3.69549 -1.78728 0
M  V30 1716 H 156.321 -2.52971 -1.86184 0
M  V30 1717 H 155.514 -4.85542 -1.35148 0
M  V30 1718 H 155.116 -3.73992 -0.0242105 0
M  V30 1719 H 157.408 -6.65375 -1.27602 0
M  V30 1720 H 158.351 -7.07851 0.187813 0
M  V30 1721 H 158.759 -5.59775 -0.728837 0
M  V30 1722 N 158.157 -0.370918 -1.53173 0
M  V30 1723 C 159.385 0.217704 -2.05751 0
M  V30 1724 C 159.8 1.42018 -1.24404 0
M  V30 1725 O 159.157 1.80245 -0.286033 0
M  V30 1726 C 159.208 0.605954 -3.56385 0
M  V30 1727 O 158.929 -0.548734 -4.3465 0
M  V30 1728 C 160.43 1.2524 -4.25241 0
M  V30 1729 H 157.65 0.0371659 -0.66997 0
M  V30 1730 H 160.194 -0.530832 -1.9749 0
M  V30 1731 H 158.349 1.3044 -3.6478 0
M  V30 1732 H 158.763 -0.23376 -5.23979 0
M  V30 1733 H 160.237 1.47458 -5.3194 0
M  V30 1734 H 160.714 2.2143 -3.79296 0
M  V30 1735 H 161.32 0.595233 -4.21114 0
M  V30 1736 N 159.635 1.57281 -0.100228 0
M  V30 1737 C 160.582 2.14305 0.856858 0
M  V30 1738 C 161.552 1.06296 1.27634 0
M  V30 1739 O 162.737 1.34109 1.35718 0
M  V30 1740 C 159.877 2.73184 2.10866 0
M  V30 1741 C 158.99 3.95442 1.73925 0
M  V30 1742 C 158.125 4.42468 2.93931 0
M  V30 1743 C 157.164 5.57303 2.5314 0
M  V30 1744 N 156.301 5.99158 3.65997 0
M  V30 1745 H 161.141 2.95772 0.363726 0
M  V30 1746 H 158.678 1.46139 0.167858 0
M  V30 1747 H 160.636 3.05442 2.84185 0
M  V30 1748 H 159.266 1.94437 2.57671 0
M  V30 1749 H 158.318 3.69464 0.905554 0
M  V30 1750 H 159.63 4.78769 1.39935 0
M  V30 1751 H 158.784 4.76537 3.75496 0
M  V30 1752 H 157.523 3.58052 3.31134 0
M  V30 1753 H 156.528 5.22857 1.70003 0
M  V30 1754 H 157.753 6.43471 2.17075 0
M  V30 1755 H 155.699 5.17687 4.02909 0
M  V30 1756 H 155.616 6.77295 3.35869 0
M  V30 1757 H 156.884 6.3786 4.48057 0
M  V30 1758 N 161.113 -0.173488 1.56642 0
M  V30 1759 C 162.06 -1.21482 1.96242 0
M  V30 1760 C 163.03 -1.44104 0.826027 0
M  V30 1761 O 164.215 -1.5688 1.08597 0
M  V30 1762 C 161.355 -2.54964 2.32567 0
M  V30 1763 C 160.468 -2.39739 3.59373 0
M  V30 1764 C 159.603 -3.66072 3.84921 0
M  V30 1765 C 158.642 -3.45771 5.05083 0
M  V30 1766 N 157.779 -4.64169 5.26775 0
M  V30 1767 H 162.619 -0.870123 2.85014 0
M  V30 1768 H 160.156 -0.418245 1.41029 0
M  V30 1769 H 162.114 -3.32758 2.5165 0
M  V30 1770 H 160.744 -2.87433 1.46908 0
M  V30 1771 H 159.796 -1.53131 3.48217 0
M  V30 1772 H 161.108 -2.20683 4.47326 0
M  V30 1773 H 160.262 -4.52303 4.0436 0
M  V30 1774 H 159.001 -3.88105 2.9534 0
M  V30 1775 H 158.006 -2.57927 4.85545 0
M  V30 1776 H 159.231 -3.25163 5.96193 0
M  V30 1777 H 157.177 -4.86425 4.40144 0
M  V30 1778 H 157.094 -4.48019 6.08946 0
M  V30 1779 H 158.362 -5.51689 5.5069 0
M  V30 1780 N 162.591 -1.51276 -0.441967 0
M  V30 1781 C 163.538 -1.72256 -1.53612 0
M  V30 1782 C 164.508 -0.564164 -1.56225 0
M  V30 1783 O 165.693 -0.798074 -1.73307 0
M  V30 1784 C 162.833 -1.84932 -2.91366 0
M  V30 1785 C 161.946 -3.12459 -2.98317 0
M  V30 1786 C 161.081 -3.15758 -4.27166 0
M  V30 1787 C 160.12 -4.37619 -4.27967 0
M  V30 1788 N 159.257 -4.38493 -5.48333 0
M  V30 1789 H 164.097 -2.65654 -1.35026 0
M  V30 1790 H 161.634 -1.31662 -0.656009 0
M  V30 1791 H 163.592 -1.90263 -3.7129 0
M  V30 1792 H 162.222 -0.949461 -3.08521 0
M  V30 1793 H 161.274 -3.1646 -2.11086 0
M  V30 1794 H 162.586 -4.02382 -2.94771 0
M  V30 1795 H 161.74 -3.19979 -5.15459 0
M  V30 1796 H 160.479 -2.23715 -4.33362 0
M  V30 1797 H 159.484 -4.33579 -3.38067 0
M  V30 1798 H 160.709 -5.30921 -4.23438 0
M  V30 1799 H 158.655 -3.49318 -5.55259 0
M  V30 1800 H 158.572 -5.22219 -5.46647 0
M  V30 1801 H 159.84 -4.469 -6.38671 0
M  V30 1802 N 164.069 0.697108 -1.41344 0
M  V30 1803 C 165.48 1.27697 -1.36199 0
M  V30 1804 C 165.831 1.9615 -0.0443463 0
M  V30 1805 O 164.956 1.98689 0.857419 0
M  V30 1806 C 165.551 2.32223 -2.46694 0
M  V30 1807 C 164.11 2.8579 -2.44952 0
M  V30 1808 C 163.257 1.59807 -2.26621 0
M  V30 1809 H 166.208 0.491968 -1.50882 0
M  V30 1810 H 166.229 3.1348 -2.15664 0
M  V30 1811 H 165.741 1.82373 -3.42581 0
M  V30 1812 H 163.842 3.3982 -1.52817 0
M  V30 1813 H 163.955 3.36325 -3.41207 0
M  V30 1814 H 162.319 1.8556 -1.7447 0
M  V30 1815 H 163.102 1.11956 -3.24532 0
M  V30 1816 N 165.547 1.27147 0.931209 0
M  V30 1817 C 166.457 1.11372 2.06478 0
M  V30 1818 C 167.473 0.044645 1.73943 0
M  V30 1819 O 168.649 0.250417 1.99837 0
M  V30 1820 C 165.714 0.758838 3.38294 0
M  V30 1821 C 164.775 1.90841 3.84549 0
M  V30 1822 C 164.008 1.57036 5.10074 0
M  V30 1823 O 164.231 0.476645 5.68405 0
M  V30 1824 O 163.165 2.40839 5.51616 0
M  V30 1825 H 166.991 2.06493 2.22698 0
M  V30 1826 H 164.576 1.06301 1.04978 0
M  V30 1827 H 166.458 0.574098 4.17471 0
M  V30 1828 H 165.133 -0.162879 3.2329 0
M  V30 1829 H 164.04 2.14819 3.06274 0
M  V30 1830 H 165.373 2.81021 4.04089 0
M  V30 1831 N 167.025 -1.13721 1.09112 0
M  V30 1832 C 167.935 -2.22638 0.73957 0
M  V30 1833 C 168.951 -1.72091 -0.257068 0
M  V30 1834 O 170.127 -2.01155 -0.0992154 0
M  V30 1835 C 167.192 -3.46322 0.16191 0
M  V30 1836 C 166.253 -4.11775 1.21408 0
M  V30 1837 C 165.486 -5.29555 0.663891 0
M  V30 1838 O 165.709 -5.68077 -0.514274 0
M  V30 1839 O 164.643 -5.84973 1.41738 0
M  V30 1840 H 168.469 -2.55074 1.64836 0
M  V30 1841 H 166.054 -1.21791 0.865289 0
M  V30 1842 H 167.936 -4.21107 -0.157073 0
M  V30 1843 H 166.611 -3.15593 -0.719932 0
M  V30 1844 H 165.518 -3.3883 1.58571 0
M  V30 1845 H 166.851 -4.46627 2.06845 0
M  V30 1846 N 168.503 -0.877838 -1.30888 0
M  V30 1847 C 169.45 -0.337538 -2.28318 0
M  V30 1848 C 170.42 0.568346 -1.56074 0
M  V30 1849 O 171.605 0.498298 -1.84178 0
M  V30 1850 C 168.745 0.448142 -3.42178 0
M  V30 1851 C 167.858 -0.48615 -4.29256 0
M  V30 1852 C 166.993 0.314427 -5.30269 0
M  V30 1853 C 166.032 -0.615791 -6.08995 0
M  V30 1854 N 165.169 0.14902 -7.01942 0
M  V30 1855 H 170.009 -1.17356 -2.73919 0
M  V30 1856 H 167.546 -0.590094 -1.34745 0
M  V30 1857 H 169.504 0.919517 -4.06941 0
M  V30 1858 H 168.134 1.24879 -2.97666 0
M  V30 1859 H 167.186 -1.076 -3.64865 0
M  V30 1860 H 168.498 -1.19909 -4.84173 0
M  V30 1861 H 167.652 0.847969 -6.00745 0
M  V30 1862 H 166.391 1.06062 -4.76027 0
M  V30 1863 H 165.396 -1.16102 -5.37401 0
M  V30 1864 H 166.621 -1.36097 -6.65323 0
M  V30 1865 H 164.567 0.877884 -6.50099 0
M  V30 1866 H 164.484 -0.504433 -7.54315 0
M  V30 1867 H 165.752 0.663537 -7.76671 0
M  V30 1868 N 169.982 1.44106 -0.638065 0
M  V30 1869 C 171.393 1.85316 -0.226894 0
M  V30 1870 C 171.744 1.53399 1.22324 0
M  V30 1871 O 170.869 0.975463 1.93167 0
M  V30 1872 C 171.464 3.3637 -0.405013 0
M  V30 1873 C 170.023 3.76369 -0.0482902 0
M  V30 1874 C 169.17 2.67921 -0.715108 0
M  V30 1875 H 172.121 1.34474 -0.842764 0
M  V30 1876 H 172.142 3.7885 0.354 0
M  V30 1877 H 171.654 3.59569 -1.46053 0
M  V30 1878 H 169.755 3.58784 1.00522 0
M  V30 1879 H 169.868 4.76856 -0.463187 0
M  V30 1880 H 168.232 2.54259 -0.149753 0
M  V30 1881 H 169.015 2.93951 -1.77335 0
M  V30 1882 N 171.46 0.379036 1.52974 0
M  V30 1883 C 172.407 -0.461048 2.26148 0
M  V30 1884 C 173.377 -1.06637 1.27349 0
M  V30 1885 O 174.562 -1.09633 1.56157 0
M  V30 1886 C 171.702 -1.58782 3.06402 0
M  V30 1887 C 170.815 -1.00636 4.20115 0
M  V30 1888 C 169.95 -2.10334 4.87784 0
M  V30 1889 C 168.989 -1.49724 5.93506 0
M  V30 1890 N 168.126 -2.5331 6.54812 0
M  V30 1891 H 172.966 0.169429 2.97518 0
M  V30 1892 H 170.503 0.0953806 1.4679 0
M  V30 1893 H 172.461 -2.25174 3.51215 0
M  V30 1894 H 171.091 -2.18876 2.37261 0
M  V30 1895 H 170.143 -0.232332 3.7969 0
M  V30 1896 H 171.455 -0.523343 4.96047 0
M  V30 1897 H 170.609 -2.84519 5.35849 0
M  V30 1898 H 169.348 -2.61992 4.11353 0
M  V30 1899 H 168.353 -0.740598 5.44789 0
M  V30 1900 H 169.578 -0.988732 6.71864 0
M  V30 1901 H 167.524 -3.04156 5.81227 0
M  V30 1902 H 167.441 -2.09734 7.26325 0
M  V30 1903 H 168.709 -3.27155 7.07524 0
M  V30 1904 N 172.938 -1.57226 0.108567 0
M  V30 1905 C 174.185 -1.94833 -0.551943 0
M  V30 1906 C 174.513 -0.991204 -1.67348 0
M  V30 1907 O 173.768 -0.0131878 -1.95696 0
M  V30 1908 C 174.067 -3.38911 -1.13463 0
M  V30 1909 C 173.733 -4.50696 -0.135509 0
M  V30 1910 C 172.395 -4.80998 0.139252 0
M  V30 1911 C 174.747 -5.18333 0.545957 0
M  V30 1912 C 172.075 -5.76259 1.10194 0
M  V30 1913 C 174.427 -6.14627 1.49721 0
M  V30 1914 C 173.091 -6.43327 1.78006 0
M  V30 1915 H 172.361 -0.712944 -0.20197 0
M  V30 1916 H 175.008 -1.90582 0.18726 0
M  V30 1917 H 173.313 -3.39805 -1.95037 0
M  V30 1918 H 175.01 -3.65317 -1.65362 0
M  V30 1919 H 171.6 -4.27087 -0.359846 0
M  V30 1920 H 175.784 -4.95087 0.346842 0
M  V30 1921 H 171.04 -5.96804 1.32795 0
M  V30 1922 H 175.214 -6.66126 2.03099 0
M  V30 1923 H 172.841 -7.1695 2.52759 0
M  V30 1924 N 174.416 0.165178 -1.56732 0
M  V30 1925 C 175.832 0.517174 -1.50988 0
M  V30 1926 C 176.032 1.84331 -0.813894 0
M  V30 1927 O 175.088 2.49672 -0.37682 0
M  V30 1928 C 176.401 0.544261 -2.95733 0
M  V30 1929 C 177.949 0.631039 -3.06573 0
M  V30 1930 C 178.424 0.68896 -4.52788 0
M  V30 1931 N 179.915 0.751683 -4.5706 0
M  V30 1932 C 180.65 0.817177 -5.67547 0
M  V30 1933 N 180.146 0.843129 -6.8765 0
M  V30 1934 N 181.939 0.856668 -5.55534 0
M  V30 1935 H 174.09 -0.704318 -2.00382 0
M  V30 1936 H 176.353 -0.254687 -0.913148 0
M  V30 1937 H 176.059 -0.361607 -3.49836 0
M  V30 1938 H 175.933 1.3886 -3.5071 0
M  V30 1939 H 178.32 1.52733 -2.52501 0
M  V30 1940 H 178.401 -0.240095 -2.54671 0
M  V30 1941 H 178.045 -0.2031 -5.07494 0
M  V30 1942 H 177.975 1.57633 -5.02454 0
M  V30 1943 H 180.466 0.739661 -3.70591 0
M  V30 1944 H 180.779 0.894448 -7.67606 0
M  V30 1945 H 179.124 0.811304 -6.90248 0
M  V30 1946 H 182.315 0.833437 -4.60621 0
M  V30 1947 H 182.488 0.904247 -6.4166 0
M  V30 1948 N 175.894 1.51508 0.433938 0
M  V30 1949 C 177.119 1.68443 1.21003 0
M  V30 1950 C 177.544 0.382636 1.84167 0
M  V30 1951 O 176.902 -0.65755 1.68956 0
M  V30 1952 C 176.95 2.80405 2.26727 0
M  V30 1953 O 176.054 2.44245 3.32292 0
M  V30 1954 H 175.395 0.561536 0.354363 0
M  V30 1955 H 177.925 1.9809 0.512024 0
M  V30 1956 H 177.935 3.0459 2.71457 0
M  V30 1957 H 176.61 3.74867 1.80132 0
M  V30 1958 H 175.187 2.30644 2.93015 0
M  V30 1959 N 177.372 -0.689602 1.41712 0
M  V30 1960 C 178.621 -1.44534 1.40686 0
M  V30 1961 C 178.934 -1.95588 0.0213352 0
M  V30 1962 O 180.14 -2.71271 -0.111534 0
M  V30 1963 C 178.596 -2.61387 2.47396 0
M  V30 1964 C 178.204 -2.17094 3.91885 0
M  V30 1965 C 179.948 -3.38986 2.55517 0
M  V30 1966 C 177.855 -3.3094 4.90135 0
M  V30 1967 H 176.785 -0.542925 0.52321 0
M  V30 1968 H 179.436 -0.748054 1.6756 0
M  V30 1969 H 177.818 -3.33412 2.13664 0
M  V30 1970 H 178.992 -1.52318 4.34897 0
M  V30 1971 H 177.307 -1.52473 3.8748 0
M  V30 1972 H 179.904 -4.23747 3.26102 0
M  V30 1973 H 180.247 -3.84578 1.59391 0
M  V30 1974 H 180.78 -2.74021 2.8837 0
M  V30 1975 H 177.519 -2.90355 5.87685 0
M  V30 1976 H 177.039 -3.94546 4.51767 0
M  V30 1977 H 178.718 -3.9663 5.11169 0
M  V30 1978 N 178.85 -1.27639 -0.924453 0
M  V30 1979 C 180.096 -1.14336 -1.67497 0
M  V30 1980 C 180.429 0.309465 -1.91718 0
M  V30 1981 O 179.704 1.22608 -1.50989 0
M  V30 1982 C 179.987 -1.93096 -3.0395 0
M  V30 1983 C 179.84 -3.46381 -2.8695 0
M  V30 1984 C 181.159 -1.73798 -4.0433 0
M  V30 1985 H 178.278 -0.416728 -0.607871 0
M  V30 1986 H 180.92 -1.56832 -1.07256 0
M  V30 1987 H 179.07 -1.56982 -3.55372 0
M  V30 1988 H 180.742 -3.92343 -2.42621 0
M  V30 1989 H 178.985 -3.72557 -2.22225 0
M  V30 1990 H 179.656 -3.96735 -3.83804 0
M  V30 1991 H 182.132 -2.05293 -3.61931 0
M  V30 1992 H 181.008 -2.31294 -4.97789 0
M  V30 1993 H 181.269 -0.686725 -4.36734 0
M  V30 1994 N 180.328 1.1314 -1.09713 0
M  V30 1995 C 181.278 2.16709 -0.708593 0
M  V30 1996 C 182.262 1.58471 0.278523 0
M  V30 1997 O 183.454 1.76779 0.088427 0
M  V30 1998 C 180.583 3.43039 -0.133923 0
M  V30 1999 C 179.669 4.08277 -1.14763 0
M  V30 2000 N 180.06 4.48637 -2.33577 0
M  V30 2001 C 178.358 4.34954 -0.986446 0
M  V30 2002 C 179.059 4.9952 -2.98085 0
M  V30 2003 N 178.035 4.94561 -2.25632 0
M  V30 2004 H 181.837 2.45672 -1.61315 0
M  V30 2005 H 179.351 1.29967 -0.973775 0
M  V30 2006 H 181.348 4.16583 0.162465 0
M  V30 2007 H 180.008 3.15549 0.765447 0
M  V30 2008 H 181.019 4.41246 -2.7115 0
M  V30 2009 H 177.696 4.17258 -0.142008 0
M  V30 2010 H 179.086 5.40521 -3.99108 0
M  V30 2011 N 181.806 0.884767 1.30421 0
M  V30 2012 C 182.769 0.356277 2.26414 0
M  V30 2013 C 183.769 -0.501124 1.52792 0
M  V30 2014 O 184.959 -0.30831 1.7145 0
M  V30 2015 C 182.091 -0.492316 3.37326 0
M  V30 2016 H 183.284 1.20389 2.74675 0
M  V30 2017 H 180.837 0.661607 1.41607 0
M  V30 2018 H 181.572 -1.36052 2.94381 0
M  V30 2019 H 181.357 0.121832 3.91911 0
M  V30 2020 H 182.847 -0.853871 4.08777 0
M  V30 2021 N 183.284 -1.43765 0.645699 0
M  V30 2022 C 184.53 -2.02197 0.156271 0
M  V30 2023 C 184.863 -1.50776 -1.22393 0
M  V30 2024 O 184.138 -0.697771 -1.81553 0
M  V30 2025 C 184.421 -3.59749 0.158872 0
M  V30 2026 C 184.274 -4.21419 1.57245 0
M  V30 2027 C 185.593 -4.37149 -0.50879 0
M  V30 2028 H 182.712 -0.734694 0.0582602 0
M  V30 2029 H 185.354 -1.71157 0.824951 0
M  V30 2030 H 183.504 -3.86325 -0.410525 0
M  V30 2031 H 185.176 -4.059 2.19186 0
M  V30 2032 H 183.419 -3.78356 2.122 0
M  V30 2033 H 184.09 -5.30482 1.52619 0
M  V30 2034 H 186.566 -4.16093 -0.024412 0
M  V30 2035 H 185.442 -5.4683 -0.476213 0
M  V30 2036 H 185.703 -4.12839 -1.58165 0
M  V30 2037 N 184.763 -0.387143 -1.52771 0
M  V30 2038 C 185.695 0.484089 -2.2403 0
M  V30 2039 C 186.708 1.02849 -1.26198 0
M  V30 2040 O 187.897 0.931186 -1.52286 0
M  V30 2041 C 184.997 1.68337 -2.94136 0
M  V30 2042 C 184.17 1.26672 -4.18656 0
M  V30 2043 C 183.229 2.33045 -4.7178 0
M  V30 2044 O 182.255 1.94541 -5.34923 0
M  V30 2045 N 183.457 3.64929 -4.5145 0
M  V30 2046 H 186.222 -0.126404 -2.99433 0
M  V30 2047 H 183.783 -0.213392 -1.60488 0
M  V30 2048 H 185.775 2.39019 -3.26577 0
M  V30 2049 H 184.345 2.20025 -2.22053 0
M  V30 2050 H 183.565 0.388878 -3.92277 0
M  V30 2051 H 184.853 0.964964 -4.99566 0
M  V30 2052 H 184.251 3.98974 -4.01044 0
M  V30 2053 H 182.808 4.31651 -4.88386 0
M  V30 2054 N 186.241 1.57166 -0.116904 0
M  V30 2055 C 187.204 2.14039 0.819742 0
M  V30 2056 C 188.204 1.07477 1.19605 0
M  V30 2057 O 189.394 1.33263 1.1219 0
M  V30 2058 C 186.526 2.67891 2.10826 0
M  V30 2059 H 187.719 2.98128 0.325511 0
M  V30 2060 H 185.272 1.55739 0.132312 0
M  V30 2061 H 186.007 1.87384 2.64685 0
M  V30 2062 H 185.792 3.45823 1.84793 0
M  V30 2063 H 187.282 3.11809 2.77785 0
M  V30 2064 N 187.719 -0.156864 1.56817 0
M  V30 2065 C 188.967 -0.869404 1.82444 0
M  V30 2066 C 189.288 -1.82147 0.69623 0
M  V30 2067 O 188.558 -1.93847 -0.28287 0
M  V30 2068 H 187.138 -0.324043 0.673056 0
M  V30 2069 H 189.8 -0.153224 1.94297 0
M  V30 2070 H 188.896 -1.43761 2.77019 0
M  V30 2071 N 189.197 -1.51736 -0.425897 0
M  V30 2072 C 190.446 -1.64201 -1.17136 0
M  V30 2073 C 190.759 -0.369705 -1.92074 0
M  V30 2074 O 191.965 -0.373898 -2.68913 0
M  V30 2075 C 190.421 -2.90035 -2.13091 0
M  V30 2076 C 190.029 -4.24312 -1.43747 0
M  V30 2077 C 191.773 -3.1186 -2.87999 0
M  V30 2078 C 189.68 -5.41285 -2.38253 0
M  V30 2079 H 188.61 -0.611624 -0.440944 0
M  V30 2080 H 191.261 -1.78212 -0.437328 0
M  V30 2081 H 189.643 -2.69684 -2.89977 0
M  V30 2082 H 190.817 -4.55086 -0.723408 0
M  V30 2083 H 189.132 -4.08456 -0.809465 0
M  V30 2084 H 191.729 -3.96427 -3.58817 0
M  V30 2085 H 192.072 -2.25403 -3.49999 0
M  V30 2086 H 192.605 -3.32605 -2.18217 0
M  V30 2087 H 189.344 -6.30037 -1.80925 0
M  V30 2088 H 188.864 -5.14872 -3.0768 0
M  V30 2089 H 190.543 -5.73694 -2.99139 0
M  V30 2090 N 190.675 0.682077 -1.42076 0
M  V30 2091 C 191.922 1.44215 -1.42156 0
M  V30 2092 C 192.25 1.94468 -0.0354186 0
M  V30 2093 O 191.505 1.70816 0.955002 0
M  V30 2094 C 191.804 2.66036 -2.38662 0
M  V30 2095 C 191.47 2.34366 -3.85206 0
M  V30 2096 C 190.132 2.25439 -4.25124 0
M  V30 2097 C 192.484 2.08513 -4.77673 0
M  V30 2098 C 189.812 1.88775 -5.55501 0
M  V30 2099 C 192.164 1.73354 -6.08384 0
M  V30 2100 C 190.828 1.62933 -6.47309 0
M  V30 2101 H 190.098 0.527718 -0.520187 0
M  V30 2102 H 192.745 0.778387 -1.74967 0
M  V30 2103 H 191.05 3.3741 -1.99152 0
M  V30 2104 H 192.747 3.24205 -2.35991 0
M  V30 2105 H 189.337 2.42213 -3.53597 0
M  V30 2106 H 193.521 2.14346 -4.47626 0
M  V30 2107 H 188.777 1.7927 -5.84527 0
M  V30 2108 H 192.951 1.52373 -6.79526 0
M  V30 2109 H 190.578 1.34292 -7.48244 0
M  V30 2110 N 192.153 1.28127 0.917671 0
M  V30 2111 C 193.399 1.15223 1.66888 0
M  V30 2112 C 193.732 -0.299293 1.9188 0
M  V30 2113 O 193.007 -1.21805 1.51637 0
M  V30 2114 C 193.29 1.94706 3.02922 0
M  V30 2115 C 193.143 3.47898 2.85109 0
M  V30 2116 C 194.462 1.75939 4.03402 0
M  V30 2117 H 191.581 0.419946 0.605652 0
M  V30 2118 H 194.223 1.57398 1.06423 0
M  V30 2119 H 192.373 1.58864 3.54534 0
M  V30 2120 H 194.045 3.93624 2.40537 0
M  V30 2121 H 192.288 3.7373 2.20246 0
M  V30 2122 H 192.959 3.98765 3.81694 0
M  V30 2123 H 195.435 2.07209 3.60837 0
M  V30 2124 H 194.311 2.33931 4.96556 0
M  V30 2125 H 194.572 0.709877 4.36364 0
M  V30 2126 N 193.631 -1.12557 1.10312 0
M  V30 2127 C 194.541 -2.21841 0.763142 0
M  V30 2128 C 195.557 -1.72354 -0.238801 0
M  V30 2129 O 196.733 -2.01249 -0.0778746 0
M  V30 2130 C 193.798 -3.46131 0.198632 0
M  V30 2131 C 192.859 -4.10464 1.25769 0
M  V30 2132 C 192.092 -5.28821 0.72002 0
M  V30 2133 O 192.315 -5.6859 -0.453993 0
M  V30 2134 O 191.249 -5.83437 1.47935 0
M  V30 2135 H 195.075 -2.53312 1.67532 0
M  V30 2136 H 192.66 -1.20867 0.878157 0
M  V30 2137 H 194.542 -4.2125 -0.112401 0
M  V30 2138 H 193.217 -3.16338 -0.686419 0
M  V30 2139 H 192.124 -3.3713 1.62156 0
M  V30 2140 H 193.457 -4.44408 2.11571 0
M  V30 2141 N 195.109 -0.891671 -1.2995 0
M  V30 2142 C 196.525 -0.58662 -1.48428 0
M  V30 2143 C 196.725 0.873951 -1.81561 0
M  V30 2144 O 195.781 1.65471 -1.90724 0
M  V30 2145 C 197.094 -1.50553 -2.60296 0
M  V30 2146 C 198.642 -1.50988 -2.74175 0
M  V30 2147 C 199.117 -2.41488 -3.89163 0
M  V30 2148 N 200.608 -2.39489 -3.96483 0
M  V30 2149 C 201.343 -3.06223 -4.84784 0
M  V30 2150 N 200.839 -3.82206 -5.77833 0
M  V30 2151 N 202.632 -2.95421 -4.78208 0
M  V30 2152 H 194.783 -1.83644 -1.06718 0
M  V30 2153 H 197.046 -0.786455 -0.529332 0
M  V30 2154 H 196.752 -2.54581 -2.42654 0
M  V30 2155 H 196.626 -1.22008 -3.56923 0
M  V30 2156 H 199.013 -0.47708 -2.91218 0
M  V30 2157 H 199.094 -1.83567 -1.78148 0
M  V30 2158 H 198.738 -3.44857 -3.72876 0
M  V30 2159 H 198.668 -2.06222 -4.84541 0
M  V30 2160 H 201.159 -1.84278 -3.29924 0
M  V30 2161 H 201.472 -4.302 -6.41988 0
M  V30 2162 H 199.817 -3.86313 -5.77743 0
M  V30 2163 H 203.008 -2.35581 -4.04499 0
M  V30 2164 H 203.181 -3.47704 -5.46814 0
M  V30 2165 N 196.587 1.43421 -0.653314 0
M  V30 2166 C 197.52 2.2803 0.0879804 0
M  V30 2167 C 198.498 1.39833 0.82979 0
M  V30 2168 O 199.682 1.69275 0.829341 0
M  V30 2169 C 196.809 3.19247 1.13132 0
M  V30 2170 C 195.855 4.23704 0.487546 0
M  V30 2171 S 196.688 5.30377 -0.738961 0
M  V30 2172 C 197.844 6.25162 0.30384 0
M  V30 2173 H 198.077 2.90554 -0.629739 0
M  V30 2174 H 195.61 1.47934 -0.442156 0
M  V30 2175 H 197.568 3.72346 1.72827 0
M  V30 2176 H 196.229 2.55901 1.82136 0
M  V30 2177 H 195.422 4.87631 1.27407 0
M  V30 2178 H 195.024 3.73983 -0.0352915 0
M  V30 2179 H 197.316 6.67321 1.17 0
M  V30 2180 H 198.259 7.07463 -0.300402 0
M  V30 2181 H 198.667 5.60864 0.63969 0
M  V30 2182 N 198.065 0.39524 1.52563 0
M  V30 2183 C 199.295 -0.184675 2.05773 0
M  V30 2184 C 199.703 -1.40571 1.26635 0
M  V30 2185 O 199.046 -1.81105 0.30769 0
M  V30 2186 C 199.108 -0.613551 3.54226 0
M  V30 2187 C 198.772 0.49484 4.54313 0
M  V30 2188 C 199.769 1.3541 5.01956 0
M  V30 2189 C 197.454 0.663565 4.97898 0
M  V30 2190 C 199.448 2.36716 5.91814 0
M  V30 2191 C 197.135 1.67996 5.87555 0
M  V30 2192 C 198.133 2.53017 6.34406 0
M  V30 2193 O 197.821 3.52917 7.22291 0
M  V30 2194 H 197.553 -0.030077 0.675331 0
M  V30 2195 H 200.107 0.560708 1.97599 0
M  V30 2196 H 198.337 -1.411 3.60038 0
M  V30 2197 H 200.026 -1.11981 3.90148 0
M  V30 2198 H 200.792 1.23509 4.6901 0
M  V30 2199 H 196.671 0.0114913 4.60999 0
M  V30 2200 H 200.215 3.03113 6.28306 0
M  V30 2201 H 196.112 1.79933 6.19915 0
M  V30 2202 H 196.88 3.48996 7.40367 0
M  V30 2203 N 199.544 -1.57102 0.125237 0
M  V30 2204 C 200.96 -1.57915 -0.231322 0
M  V30 2205 C 201.16 -1.13833 -1.66266 0
M  V30 2206 O 200.216 -0.828581 -2.38518 0
M  V30 2207 C 201.529 -3.00699 0.00766489 0
M  V30 2208 C 203.077 -3.12947 -0.0577483 0
M  V30 2209 C 203.552 -4.57742 0.153626 0
M  V30 2210 N 205.043 -4.63092 0.0998073 0
M  V30 2211 C 205.778 -5.72905 0.238174 0
M  V30 2212 N 205.274 -6.91445 0.433057 0
M  V30 2213 N 207.067 -5.6182 0.177308 0
M  V30 2214 H 199.218 -1.84055 1.06007 0
M  V30 2215 H 201.481 -0.850905 0.417929 0
M  V30 2216 H 201.187 -3.3726 0.997431 0
M  V30 2217 H 201.061 -3.70236 -0.721452 0
M  V30 2218 H 203.448 -2.7624 -1.03804 0
M  V30 2219 H 203.529 -2.4594 0.70335 0
M  V30 2220 H 203.173 -4.95149 1.13092 0
M  V30 2221 H 203.103 -5.22848 -0.627534 0
M  V30 2222 H 205.594 -3.77871 -0.047051 0
M  V30 2223 H 205.907 -7.70985 0.529332 0
M  V30 2224 H 204.252 -6.93415 0.469109 0
M  V30 2225 H 207.443 -4.68093 0.0259748 0
M  V30 2226 H 207.616 -6.47357 0.288582 0
M  V30 2227 N 201.022 0.148545 -1.56898 0
M  V30 2228 C 201.969 1.18345 -1.98149 0
M  V30 2229 C 202.939 1.42772 -0.848848 0
M  V30 2230 O 204.124 1.55132 -1.11079 0
M  V30 2231 C 201.264 2.51231 -2.36594 0
M  V30 2232 C 200.377 2.33991 -3.63142 0
M  V30 2233 C 199.512 3.59902 -3.90697 0
M  V30 2234 C 198.551 3.37692 -5.1052 0
M  V30 2235 N 197.688 4.5573 -5.34092 0
M  V30 2236 H 202.528 0.82467 -2.86362 0
M  V30 2237 H 200.065 0.395756 -1.41676 0
M  V30 2238 H 202.023 3.28713 -2.56912 0
M  V30 2239 H 200.653 2.85059 -1.51463 0
M  V30 2240 H 199.705 1.47572 -3.50609 0
M  V30 2241 H 201.017 2.13539 -4.5078 0
M  V30 2242 H 200.171 4.45813 -4.11505 0
M  V30 2243 H 198.91 3.83357 -3.01477 0
M  V30 2244 H 197.915 2.5017 -4.89587 0
M  V30 2245 H 199.14 3.15637 -6.0129 0
M  V30 2246 H 197.086 4.79361 -4.47827 0
M  V30 2247 H 197.003 4.38274 -6.15996 0
M  V30 2248 H 198.271 5.42858 -5.59397 0
M  V30 2249 N 202.5 1.5196 0.417844 0
M  V30 2250 C 203.728 1.69426 1.18753 0
M  V30 2251 C 204.143 0.399955 1.84515 0
M  V30 2252 O 203.5 -0.623288 1.71527 0
M  V30 2253 C 203.551 2.82375 2.25714 0
M  V30 2254 O 203.272 4.06793 1.62638 0
M  V30 2255 C 204.773 3.11277 3.15628 0
M  V30 2256 H 201.993 0.568031 0.357186 0
M  V30 2257 H 204.537 1.98475 0.49273 0
M  V30 2258 H 202.692 2.5587 2.90877 0
M  V30 2259 H 203.106 4.69667 2.3348 0
M  V30 2260 H 204.58 3.93843 3.86771 0
M  V30 2261 H 205.057 2.24473 3.77503 0
M  V30 2262 H 205.663 3.39515 2.56144 0
M  V30 2263 N 203.978 -0.674533 1.42435 0
M  V30 2264 C 205.208 -1.46071 1.46105 0
M  V30 2265 C 205.616 -1.89067 0.0709605 0
M  V30 2266 O 204.959 -1.58731 -0.924677 0
M  V30 2267 C 205.021 -2.74145 2.32561 0
M  V30 2268 C 204.685 -2.53224 3.8043 0
M  V30 2269 C 205.682 -2.17809 4.72075 0
M  V30 2270 C 203.367 -2.6821 4.24698 0
M  V30 2271 C 205.361 -1.97648 6.05982 0
M  V30 2272 C 203.048 -2.47665 5.58664 0
M  V30 2273 C 204.046 -2.12437 6.49122 0
M  V30 2274 O 203.734 -1.9209 7.80613 0
M  V30 2275 H 203.466 -0.455959 0.499076 0
M  V30 2276 H 206.02 -0.836193 1.87609 0
M  V30 2277 H 204.25 -3.3908 1.85908 0
M  V30 2278 H 205.939 -3.36028 2.27683 0
M  V30 2279 H 206.705 -2.05826 4.39159 0
M  V30 2280 H 202.584 -2.94609 3.54579 0
M  V30 2281 H 206.128 -1.70075 6.7655 0
M  V30 2282 H 202.025 -2.59244 5.91154 0
M  V30 2283 H 202.793 -2.06686 7.91974 0
M  V30 2284 N 205.456 -1.28612 -0.910864 0
M  V30 2285 C 206.406 -1.09423 -2.00026 0
M  V30 2286 C 207.39 -0.0170079 -1.60891 0
M  V30 2287 O 208.582 -0.237472 -1.754 0
M  V30 2288 C 205.711 -0.76114 -3.34756 0
M  V30 2289 C 204.797 -1.87735 -3.80285 0
M  V30 2290 N 205.188 -3.11938 -3.98156 0
M  V30 2291 C 203.486 -1.76786 -4.09467 0
M  V30 2292 C 204.187 -3.84687 -4.36338 0
M  V30 2293 N 203.163 -3.12555 -4.44759 0
M  V30 2294 H 206.965 -2.03658 -2.11898 0
M  V30 2295 H 204.479 -1.19573 -1.09891 0
M  V30 2296 H 206.476 -0.604743 -4.12491 0
M  V30 2297 H 205.136 0.173403 -3.24237 0
M  V30 2298 H 206.147 -3.47516 -3.83996 0
M  V30 2299 H 202.824 -0.905284 -4.07567 0
M  V30 2300 H 204.214 -4.91518 -4.58104 0
M  V30 2301 N 206.934 1.1197 -1.10907 0
M  V30 2302 C 207.867 2.16998 -0.706192 0
M  V30 2303 C 208.845 1.59903 0.294897 0
M  V30 2304 O 210.029 1.87513 0.192636 0
M  V30 2305 C 207.156 3.38673 -0.0427664 0
M  V30 2306 C 206.202 4.14414 -1.00811 0
M  V30 2307 S 207.035 4.72079 -2.52789 0
M  V30 2308 C 208.191 5.97083 -1.87731 0
M  V30 2309 H 208.424 2.50837 -1.59587 0
M  V30 2310 H 205.957 1.23508 -0.926555 0
M  V30 2311 H 207.915 4.09142 0.333668 0
M  V30 2312 H 206.576 3.03105 0.823788 0
M  V30 2313 H 205.769 5.016 -0.491259 0
M  V30 2314 H 205.371 3.49678 -1.3267 0
M  V30 2315 H 207.663 6.66599 -1.21044 0
M  V30 2316 H 208.606 6.53403 -2.72892 0
M  V30 2317 H 209.014 5.4837 -1.33979 0
M  V30 2318 N 208.412 0.89855 1.29475 0
M  V30 2319 C 209.658 0.524658 1.95896 0
M  V30 2320 C 209.991 -0.926468 1.70676 0
M  V30 2321 O 209.266 -1.65665 1.01908 0
M  V30 2322 C 209.549 0.81633 3.50725 0
M  V30 2323 C 209.402 2.31907 3.85408 0
M  V30 2324 C 210.721 0.302038 4.39062 0
M  V30 2325 H 207.84 0.19209 0.711527 0
M  V30 2326 H 210.482 1.12502 1.53112 0
M  V30 2327 H 208.632 0.305369 3.87298 0
M  V30 2328 H 210.304 2.89949 3.58786 0
M  V30 2329 H 208.547 2.78027 3.32992 0
M  V30 2330 H 209.218 2.47373 4.93468 0
M  V30 2331 H 211.694 0.739551 4.09475 0
M  V30 2332 H 210.57 0.535331 5.46283 0
M  V30 2333 H 210.831 -0.797216 4.34853 0
M  V30 2334 N 209.89 -1.43072 0.660911 0
M  V30 2335 C 211.138 -2.01323 0.177094 0
M  V30 2336 C 211.459 -1.5245 -1.2159 0
M  V30 2337 O 210.729 -0.740322 -1.81373 0
M  V30 2338 H 209.309 -0.744382 0.0624804 0
M  V30 2339 H 211.971 -1.75179 0.854305 0
M  V30 2340 H 211.067 -3.11649 0.167641 0
M  V30 2341 N 211.368 -0.403325 -1.52352 0
M  V30 2342 C 212.298 0.416205 -2.29761 0
M  V30 2343 C 213.279 1.05123 -1.33728 0
M  V30 2344 O 214.464 1.06134 -1.62632 0
M  V30 2345 C 211.594 1.53624 -3.11475 0
M  V30 2346 C 210.548 1.02653 -4.15507 0
M  V30 2347 C 209.874 2.23971 -4.85532 0
M  V30 2348 C 211.174 0.08463 -5.22231 0
M  V30 2349 H 212.868 -0.229701 -2.98518 0
M  V30 2350 H 210.414 -0.111913 -1.43564 0
M  V30 2351 H 212.367 2.1165 -3.64393 0
M  V30 2352 H 211.091 2.20994 -2.40477 0
M  V30 2353 H 209.75 0.46871 -3.63591 0
M  V30 2354 H 209.398 2.89883 -4.11068 0
M  V30 2355 H 209.098 1.90521 -5.55856 0
M  V30 2356 H 210.622 2.82614 -5.41259 0
M  V30 2357 H 212.036 0.573509 -5.70424 0
M  V30 2358 H 210.433 -0.160783 -5.99885 0
M  V30 2359 H 211.503 -0.86237 -4.7717 0
M  V30 2360 N 212.846 1.57033 -0.133567 0
M  V30 2361 C 213.809 2.14897 0.796995 0
M  V30 2362 C 214.809 1.0874 1.18458 0
M  V30 2363 O 215.999 1.34446 1.1077 0
M  V30 2364 C 213.131 2.70112 2.07973 0
M  V30 2365 H 214.324 2.98457 0.293873 0
M  V30 2366 H 211.877 1.55871 0.115787 0
M  V30 2367 H 212.612 1.9018 2.62682 0
M  V30 2368 H 212.397 3.47764 1.81115 0
M  V30 2369 H 213.887 3.14738 2.74462 0
M  V30 2370 N 214.325 -0.140222 1.56975 0
M  V30 2371 C 215.555 -0.865181 1.87612 0
M  V30 2372 C 215.963 -1.74942 0.72055 0
M  V30 2373 O 215.306 -1.80917 -0.318561 0
M  V30 2374 C 215.368 -1.76782 3.13031 0
M  V30 2375 C 215.032 -1.06005 4.44536 0
M  V30 2376 C 216.029 -0.410768 5.18275 0
M  V30 2377 C 213.714 -1.04754 4.91255 0
M  V30 2378 C 215.708 0.241572 6.36942 0
M  V30 2379 C 213.395 -0.391394 6.09845 0
M  V30 2380 C 214.393 0.252029 6.82535 0
M  V30 2381 O 214.081 0.897757 7.98871 0
M  V30 2382 H 213.813 -0.255188 0.625983 0
M  V30 2383 H 216.367 -0.135653 2.04952 0
M  V30 2384 H 214.597 -2.53846 2.91718 0
M  V30 2385 H 216.286 -2.36533 3.29859 0
M  V30 2386 H 217.052 -0.412195 4.83245 0
M  V30 2387 H 212.931 -1.53777 4.34596 0
M  V30 2388 H 216.475 0.744375 6.93617 0
M  V30 2389 H 212.372 -0.387656 6.44335 0
M  V30 2390 H 213.14 0.800102 8.1458 0
M  V30 2391 N 215.803 -1.52179 -0.40978 0
M  V30 2392 C 217.214 -1.58377 -0.988615 0
M  V30 2393 C 217.565 -0.423879 -1.91566 0
M  V30 2394 O 216.69 0.455844 -2.11544 0
M  V30 2395 C 217.285 -2.87044 -1.79976 0
M  V30 2396 C 215.844 -2.95722 -2.32863 0
M  V30 2397 C 214.991 -2.53309 -1.12828 0
M  V30 2398 H 217.942 -1.57558 -0.190039 0
M  V30 2399 H 217.963 -2.7236 -2.65707 0
M  V30 2400 H 217.475 -3.71444 -1.12478 0
M  V30 2401 H 215.576 -2.15814 -3.03735 0
M  V30 2402 H 215.689 -3.99951 -2.63773 0
M  V30 2403 H 214.053 -2.07142 -1.48204 0
M  V30 2404 H 214.836 -3.40082 -0.46897 0
M  V30 2405 N 217.281 0.66697 -1.42791 0
M  V30 2406 C 218.244 1.76211 -1.46568 0
M  V30 2407 C 219.244 1.56896 -0.352196 0
M  V30 2408 O 220.434 1.63044 -0.613364 0
M  V30 2409 C 217.566 3.14935 -1.30494 0
M  V30 2410 H 218.759 1.74247 -2.44086 0
M  V30 2411 H 216.312 0.877342 -1.29354 0
M  V30 2412 H 217.047 3.2252 -0.339301 0
M  V30 2413 H 216.832 3.30359 -2.11199 0
M  V30 2414 H 218.322 3.94821 -1.36038 0
M  V30 2415 N 218.759 1.29093 0.90403 0
M  V30 2416 C 219.722 1.1386 1.98919 0
M  V30 2417 C 220.722 0.0753457 1.60623 0
M  V30 2418 O 221.912 0.321931 1.71199 0
M  V30 2419 C 219.044 0.740198 3.32767 0
M  V30 2420 H 220.237 2.10246 2.13861 0
M  V30 2421 H 217.79 1.12218 1.08797 0
M  V30 2422 H 218.525 -0.223997 3.23525 0
M  V30 2423 H 218.31 1.50838 3.61926 0
M  V30 2424 H 219.8 0.656546 4.12407 0
M  V30 2425 N 220.237 -1.11381 1.11499 0
M  V30 2426 C 221.483 -1.83403 0.865512 0
M  V30 2427 C 221.816 -1.84459 -0.607329 0
M  V30 2428 O 221.091 -1.29811 -1.44842 0
M  V30 2429 C 221.374 -3.30552 1.42855 0
M  V30 2430 C 221.227 -3.37886 2.96906 0
M  V30 2431 C 222.546 -4.26643 1.08 0
M  V30 2432 H 219.665 -0.665879 0.31587 0
M  V30 2433 H 222.307 -1.30601 1.37998 0
M  V30 2434 H 220.457 -3.75648 0.990985 0
M  V30 2435 H 222.129 -3.01343 3.49271 0
M  V30 2436 H 220.372 -2.78088 3.32941 0
M  V30 2437 H 221.043 -4.41458 3.31389 0
M  V30 2438 H 223.519 -3.89729 1.45775 0
M  V30 2439 H 222.395 -5.27986 1.50072 0
M  V30 2440 H 222.656 -4.42099 -0.00915037 0
M  V30 2441 N 221.715 -0.905404 -1.28997 0
M  V30 2442 C 222.964 -0.530191 -1.94607 0
M  V30 2443 C 223.277 0.929185 -1.72121 0
M  V30 2444 O 224.483 1.41218 -2.31883 0
M  V30 2445 C 222.939 -0.897333 -3.48534 0
M  V30 2446 C 222.547 -2.37587 -3.79811 0
M  V30 2447 C 224.291 -0.592304 -4.20347 0
M  V30 2448 C 222.198 -2.68357 -5.27009 0
M  V30 2449 H 221.128 -0.194558 -0.728466 0
M  V30 2450 H 223.779 -1.10318 -1.46636 0
M  V30 2451 H 222.161 -0.253214 -3.9519 0
M  V30 2452 H 223.335 -3.06602 -3.43994 0
M  V30 2453 H 221.65 -2.6505 -3.2115 0
M  V30 2454 H 224.247 -0.798975 -5.28697 0
M  V30 2455 H 224.59 0.469474 -4.13644 0
M  V30 2456 H 225.123 -1.19452 -3.79442 0
M  V30 2457 H 221.862 -3.73355 -5.38782 0
M  V30 2458 H 221.382 -2.03971 -5.64053 0
M  V30 2459 H 223.061 -2.54922 -5.94663 0
M  V30 2460 N 223.193 1.4272 -0.668489 0
M  V30 2461 C 224.439 2.01923 -0.188419 0
M  V30 2462 C 224.772 1.52704 1.19979 0
M  V30 2463 O 224.047 0.726566 1.8042 0
M  V30 2464 C 224.33 3.59451 -0.216085 0
M  V30 2465 C 224.183 4.18864 -1.6393 0
M  V30 2466 C 225.502 4.37903 0.439179 0
M  V30 2467 H 222.621 0.733674 -0.0699412 0
M  V30 2468 H 225.263 1.69822 -0.852076 0
M  V30 2469 H 223.413 3.86929 0.349012 0
M  V30 2470 H 225.085 4.02362 -2.25616 0
M  V30 2471 H 223.328 3.74933 -2.18193 0
M  V30 2472 H 223.999 5.27987 -1.61039 0
M  V30 2473 H 226.475 4.16079 -0.0417878 0
M  V30 2474 H 225.351 5.47519 0.389157 0
M  V30 2475 H 225.612 4.15303 1.51577 0
M  V30 2476 N 224.671 0.411399 1.52136 0
M  V30 2477 C 225.899 -0.163076 2.06256 0
M  V30 2478 C 226.314 -1.3867 1.28125 0
M  V30 2479 O 225.671 -1.79423 0.333721 0
M  V30 2480 C 225.722 -0.511252 3.57867 0
M  V30 2481 O 225.443 0.66378 4.33042 0
M  V30 2482 C 226.944 -1.13921 4.28412 0
M  V30 2483 H 224.164 -0.0193897 0.67072 0
M  V30 2484 H 226.708 0.583007 1.96013 0
M  V30 2485 H 224.863 -1.20723 3.6811 0
M  V30 2486 H 225.277 0.372601 5.23175 0
M  V30 2487 H 226.751 -1.33302 5.35663 0
M  V30 2488 H 227.228 -2.11296 3.85033 0
M  V30 2489 H 227.834 -0.483373 4.22544 0
M  V30 2490 N 226.149 -1.5696 0.141893 0
M  V30 2491 C 227.079 -2.19516 -0.795936 0
M  V30 2492 C 228.06 -1.14187 -1.26077 0
M  V30 2493 O 229.245 -1.42511 -1.31925 0
M  V30 2494 C 226.375 -2.81272 -2.03723 0
M  V30 2495 C 225.329 -3.92384 -1.70936 0
M  V30 2496 C 224.655 -4.41052 -3.02287 0
M  V30 2497 C 225.955 -5.13403 -0.959954 0
M  V30 2498 H 227.649 -2.98138 -0.274596 0
M  V30 2499 H 225.195 -1.43406 -0.130636 0
M  V30 2500 H 227.148 -3.237 -2.69808 0
M  V30 2501 H 225.872 -1.99973 -2.58221 0
M  V30 2502 H 224.531 -3.50566 -1.07232 0
M  V30 2503 H 224.179 -3.56582 -3.54765 0
M  V30 2504 H 223.879 -5.15993 -2.81114 0
M  V30 2505 H 225.403 -4.86146 -3.69451 0
M  V30 2506 H 226.817 -5.52706 -1.52279 0
M  V30 2507 H 225.214 -5.94073 -0.848357 0
M  V30 2508 H 226.284 -4.84875 0.0492434 0
M  V30 2509 N 227.627 0.131896 -1.57047 0
M  V30 2510 C 228.574 1.16236 -1.99393 0
M  V30 2511 C 229.544 1.41863 -0.863943 0
M  V30 2512 O 230.729 1.53946 -1.12718 0
M  V30 2513 C 227.869 2.48708 -2.39245 0
M  V30 2514 C 226.982 2.30127 -3.65603 0
M  V30 2515 C 226.117 3.55738 -3.94492 0
M  V30 2516 C 225.156 3.32259 -5.14073 0
M  V30 2517 N 224.293 4.50039 -5.38896 0
M  V30 2518 H 229.133 0.794251 -2.87221 0
M  V30 2519 H 226.67 0.380707 -1.42088 0
M  V30 2520 H 228.628 3.25969 -2.60384 0
M  V30 2521 H 227.258 2.83437 -1.54478 0
M  V30 2522 H 226.31 1.43845 -3.52154 0
M  V30 2523 H 227.622 2.08746 -4.5302 0
M  V30 2524 H 226.776 4.41423 -4.1621 0
M  V30 2525 H 225.515 3.80138 -3.05526 0
M  V30 2526 H 224.52 2.44963 -4.92212 0
M  V30 2527 H 225.745 3.09242 -6.04604 0
M  V30 2528 H 223.691 4.74584 -4.52886 0
M  V30 2529 H 223.608 4.31716 -6.2061 0
M  V30 2530 H 224.876 5.36895 -5.65123 0
M  V30 2531 N 229.106 1.52395 0.401703 0
M  V30 2532 C 230.383 1.57387 1.16141 0
M  V30 2533 C 230.763 0.359359 2.08019 0
M  V30 2534 O 230.111 -0.65326 2.18963 0
M  V30 2535 C 230.321 2.90631 1.93221 0
M  V30 2536 C 231.669 3.43904 2.49028 0
M  V30 2537 O 232.693 2.92421 2.03393 0
M  V30 2538 O 231.552 4.33823 3.32356 0
M  V30 2539 H 228.646 0.634262 0.530698 0
M  V30 2540 H 231.192 1.64725 0.407883 0
M  V30 2541 H 229.964 3.70473 1.25958 0
M  V30 2542 H 229.587 2.8662 2.75563 0
M  V30 2543 N 230.584 -0.659388 1.43143 0
M  V30 2544 C 231.83 -1.42145 1.44647 0
M  V30 2545 C 232.163 -1.9408 0.0681907 0
M  V30 2546 O 231.438 -1.71899 -0.910007 0
M  V30 2547 C 231.721 -2.60735 2.48373 0
M  V30 2548 C 231.574 -2.14332 3.95451 0
M  V30 2549 C 232.893 -3.62951 2.48906 0
M  V30 2550 H 230.012 -0.51552 0.526696 0
M  V30 2551 H 232.654 -0.748069 1.74654 0
M  V30 2552 H 230.804 -3.18184 2.22916 0
M  V30 2553 H 232.476 -1.61932 4.31944 0
M  V30 2554 H 230.719 -1.4576 4.08578 0
M  V30 2555 H 231.39 -2.99583 4.63631 0
M  V30 2556 H 233.866 -3.1525 2.71582 0
M  V30 2557 H 232.742 -4.43487 3.23435 0
M  V30 2558 H 233.003 -4.15126 1.52061 0
M  V30 2559 N 232.062 -1.29571 -0.897171 0
M  V30 2560 C 233.339 -1.08365 -1.62839 0
M  V30 2561 C 233.719 0.371331 -2.07808 0
M  V30 2562 O 233.067 1.3606 -1.83576 0
M  V30 2563 C 233.277 -2.0735 -2.80726 0
M  V30 2564 C 234.625 -2.38406 -3.51351 0
M  V30 2565 O 235.649 -2.05564 -2.90898 0
M  V30 2566 O 234.508 -2.9453 -4.60341 0
M  V30 2567 H 231.602 -0.415345 -0.715134 0
M  V30 2568 H 234.148 -1.40952 -0.945018 0
M  V30 2569 H 232.92 -3.05339 -2.44711 0
M  V30 2570 H 232.543 -1.75507 -3.56767 0
M  V30 2571 N 233.54 1.10788 -1.12088 0
M  V30 2572 C 234.487 2.17025 -0.785407 0
M  V30 2573 C 235.457 1.64265 0.246191 0
M  V30 2574 O 236.642 1.90412 0.121584 0
M  V30 2575 C 233.782 3.44249 -0.242177 0
M  V30 2576 C 232.895 4.1098 -1.33115 0
M  V30 2577 C 232.03 5.25911 -0.747741 0
M  V30 2578 C 231.069 5.84538 -1.81609 0
M  V30 2579 N 230.206 6.90853 -1.25167 0
M  V30 2580 H 235.046 2.45066 -1.69548 0
M  V30 2581 H 232.583 1.20297 -0.846582 0
M  V30 2582 H 234.541 4.17101 0.0908026 0
M  V30 2583 H 233.171 3.16571 0.631072 0
M  V30 2584 H 232.223 3.36133 -1.78097 0
M  V30 2585 H 233.535 4.50601 -2.13917 0
M  V30 2586 H 232.689 6.056 -0.365216 0
M  V30 2587 H 231.428 4.87614 0.0915188 0
M  V30 2588 H 230.433 5.03522 -2.20785 0
M  V30 2589 H 231.658 6.249 -2.6585 0
M  V30 2590 H 229.604 6.54562 -0.434174 0
M  V30 2591 H 229.521 7.29166 -1.99633 0
M  V30 2592 H 230.789 7.7433 -0.896259 0
M  V30 2593 N 235.018 0.912232 1.28515 0
M  V30 2594 C 236.264 0.554851 1.95686 0
M  V30 2595 C 236.619 -0.89138 1.70506 0
M  V30 2596 O 235.912 -1.62529 1.01464 0
M  V30 2597 C 236.106 0.798392 3.48368 0
M  V30 2598 C 235.935 2.26674 3.88393 0
M  V30 2599 C 234.705 2.91657 4.12631 0
M  V30 2600 C 236.903 3.24303 3.99164 0
M  V30 2601 N 234.885 4.28805 4.39317 0
M  V30 2602 C 236.256 4.4661 4.30046 0
M  V30 2603 C 238.311 3.19723 3.81683 0
M  V30 2604 C 237.014 5.64915 4.45268 0
M  V30 2605 C 239.04 4.37325 3.98121 0
M  V30 2606 C 238.402 5.58406 4.29375 0
M  V30 2607 H 234.501 0.252876 0.739985 0
M  V30 2608 H 237.085 1.17565 1.55199 0
M  V30 2609 H 235.256 0.20688 3.87849 0
M  V30 2610 H 236.988 0.405193 4.02666 0
M  V30 2611 H 233.743 2.42393 4.06869 0
M  V30 2612 H 234.167 4.99712 4.56746 0
M  V30 2613 H 238.809 2.27191 3.56573 0
M  V30 2614 H 236.527 6.57927 4.6921 0
M  V30 2615 H 240.113 4.35282 3.86033 0
M  V30 2616 H 238.993 6.47889 4.41825 0
M  V30 2617 N 236.496 -1.42363 0.676048 0
M  V30 2618 C 237.721 -2.06377 0.205705 0
M  V30 2619 C 238.146 -1.50463 -1.12883 0
M  V30 2620 O 237.504 -0.623619 -1.70237 0
M  V30 2621 C 237.552 -3.60277 0.152655 0
M  V30 2622 O 236.656 -4.02935 -0.87845 0
M  V30 2623 H 235.997 -0.655588 0.105359 0
M  V30 2624 H 238.527 -1.82475 0.925412 0
M  V30 2625 H 238.537 -4.07993 -0.0230675 0
M  V30 2626 H 237.212 -4.00346 1.12675 0
M  V30 2627 H 235.789 -3.66764 -0.673668 0
M  V30 2628 N 237.974 -0.419461 -1.51915 0
M  V30 2629 C 239.221 0.152939 -2.01922 0
M  V30 2630 C 239.549 1.4426 -1.30458 0
M  V30 2631 O 238.804 1.91514 -0.402593 0
M  V30 2632 C 239.103 0.437067 -3.54717 0
M  V30 2633 C 238.769 -0.764632 -4.44369 0
M  V30 2634 C 237.431 -1.09423 -4.68594 0
M  V30 2635 C 239.783 -1.56713 -4.97082 0
M  V30 2636 C 237.111 -2.22732 -5.42777 0
M  V30 2637 C 239.463 -2.69107 -5.72507 0
M  V30 2638 C 238.127 -3.02541 -5.95 0
M  V30 2639 H 237.397 0.0559644 -0.738884 0
M  V30 2640 H 240.044 -0.562998 -1.83037 0
M  V30 2641 H 238.349 1.23469 -3.71837 0
M  V30 2642 H 240.046 0.893083 -3.90928 0
M  V30 2643 H 236.636 -0.497775 -4.257 0
M  V30 2644 H 240.82 -1.32571 -4.78266 0
M  V30 2645 H 236.076 -2.48971 -5.58411 0
M  V30 2646 H 240.25 -3.31671 -6.12346 0
M  V30 2647 H 237.877 -3.90457 -6.52264 0
M  V30 2648 N 239.452 1.56882 -0.150215 0
M  V30 2649 C 240.729 1.87844 0.545327 0
M  V30 2650 C 241.109 1.0567 1.82749 0
M  V30 2651 O 240.457 0.144442 2.28043 0
M  V30 2652 C 240.667 3.39526 0.80767 0
M  V30 2653 C 242.015 4.08814 1.14703 0
M  V30 2654 O 243.039 3.44723 0.896917 0
M  V30 2655 O 241.898 5.22004 1.61784 0
M  V30 2656 H 238.992 0.778677 0.278553 0
M  V30 2657 H 241.538 1.68666 -0.187068 0
M  V30 2658 H 240.31 3.91173 -0.0996096 0
M  V30 2659 H 239.933 3.64243 1.59413 0
M  V30 2660 N 240.93 -0.123565 1.57115 0
M  V30 2661 C 242.176 -0.833386 1.84885 0
M  V30 2662 C 242.509 -1.79742 0.735292 0
M  V30 2663 O 241.784 -1.92764 -0.25925 0
M  V30 2664 C 242.067 -1.5873 3.23228 0
M  V30 2665 C 241.92 -0.643183 4.45178 0
M  V30 2666 C 243.239 -2.54453 3.59085 0
M  V30 2667 H 240.358 -0.301518 0.6725 0
M  V30 2668 H 243 -0.097778 1.89748 0
M  V30 2669 H 241.15 -2.21438 3.19214 0
M  V30 2670 H 242.822 -0.0253015 4.61293 0
M  V30 2671 H 241.065 0.0456139 4.33776 0
M  V30 2672 H 241.736 -1.20724 5.38637 0
M  V30 2673 H 244.212 -2.01853 3.63861 0
M  V30 2674 H 243.088 -3.04238 4.5687 0
M  V30 2675 H 243.349 -3.36906 2.86264 0
M  V30 2676 N 242.408 -1.52605 -0.393616 0
M  V30 2677 C 243.655 -1.67424 -1.1391 0
M  V30 2678 C 243.983 -0.411859 -1.90089 0
M  V30 2679 O 243.238 0.605626 -1.86093 0
M  V30 2680 C 243.537 -2.85721 -2.14705 0
M  V30 2681 C 243.203 -4.23342 -1.55218 0
M  V30 2682 C 241.865 -4.60771 -1.3872 0
M  V30 2683 C 244.217 -5.09041 -1.11924 0
M  V30 2684 C 241.545 -5.81563 -0.774689 0
M  V30 2685 C 243.897 -6.30452 -0.520853 0
M  V30 2686 C 242.561 -6.66617 -0.343134 0
M  V30 2687 H 241.831 -0.612648 -0.416826 0
M  V30 2688 H 244.478 -1.8674 -0.424315 0
M  V30 2689 H 242.783 -2.60803 -2.92385 0
M  V30 2690 H 244.48 -2.94382 -2.72288 0
M  V30 2691 H 241.07 -3.93855 -1.69045 0
M  V30 2692 H 245.254 -4.80695 -1.23473 0
M  V30 2693 H 240.51 -6.08196 -0.625154 0
M  V30 2694 H 244.684 -6.96175 -0.177065 0
M  V30 2695 H 242.311 -7.60083 0.133571 0
M  V30 2696 N 243.887 0.651787 -1.4349 0
M  V30 2697 C 244.85 1.74647 -1.48429 0
M  V30 2698 C 245.85 1.56513 -0.368817 0
M  V30 2699 O 247.04 1.62385 -0.630623 0
M  V30 2700 C 244.172 3.13533 -1.33827 0
M  V30 2701 H 245.365 1.71649 -2.4592 0
M  V30 2702 H 242.918 0.863573 -1.30277 0
M  V30 2703 H 243.653 3.22142 -0.37349 0
M  V30 2704 H 243.438 3.28101 -2.14691 0
M  V30 2705 H 244.928 3.93356 -1.40218 0
M  V30 2706 N 245.365 1.30045 0.890287 0
M  V30 2707 C 246.295 1.18541 2.01172 0
M  V30 2708 C 247.276 0.0773356 1.69924 0
M  V30 2709 O 248.461 0.25845 1.92473 0
M  V30 2710 C 245.591 0.870941 3.36202 0
M  V30 2711 C 244.545 1.93637 3.81692 0
M  V30 2712 C 243.871 1.475 5.13953 0
M  V30 2713 C 245.171 3.34666 4.00994 0
M  V30 2714 H 246.865 2.12359 2.11054 0
M  V30 2715 H 244.411 1.02238 1.01407 0
M  V30 2716 H 246.364 0.777141 4.14172 0
M  V30 2717 H 245.088 -0.102926 3.26438 0
M  V30 2718 H 243.747 2.01972 3.05946 0
M  V30 2719 H 243.395 0.489551 5.00612 0
M  V30 2720 H 243.095 2.1876 5.4536 0
M  V30 2721 H 244.619 1.39489 5.94454 0
M  V30 2722 H 246.033 3.2912 4.69417 0
M  V30 2723 H 244.43 4.03966 4.43769 0
M  V30 2724 H 245.5 3.76949 3.05021 0
M  V30 2725 N 246.843 -1.10192 1.12674 0
M  V30 2726 C 247.791 -2.18694 0.792196 0
M  V30 2727 C 248.785 -1.67938 -0.222058 0
M  V30 2728 O 249.991 -1.79822 -0.0800074 0
M  V30 2729 H 246.366 -0.713223 0.238364 0
M  V30 2730 H 248.337 -2.44149 1.71564 0
M  V30 2731 C 247.086 -3.46682 0.265859 0
M  V30 2732 H 246.409 -3.86101 1.03761 0
M  V30 2733 H 247.849 -4.23942 0.0701128 0
M  V30 2734 C 246.308 -3.21506 -1.00675 0
M  V30 2735 O 246.838 -3.43408 -2.08408 0
M  V30 2736 N 245.044 -2.75158 -0.934692 0
M  V30 2737 H 244.591 -2.57535 -0.0578604 0
M  V30 2738 H 244.549 -2.58691 -1.7868 0
M  V30 2739 N 248.321 -0.919034 -1.28029 0
M  V30 2740 C 249.231 -0.416756 -2.30869 0
M  V30 2741 C 250.247 0.498235 -1.66714 0
M  V30 2742 O 251.423 0.383144 -1.97722 0
M  V30 2743 C 248.488 0.330274 -3.45123 0
M  V30 2744 C 247.549 -0.618578 -4.2482 0
M  V30 2745 C 246.782 0.0928959 -5.33619 0
M  V30 2746 O 247.005 1.31375 -5.55065 0
M  V30 2747 O 245.939 -0.574499 -5.99152 0
M  V30 2748 H 249.765 -1.27043 -2.75851 0
M  V30 2749 H 247.35 -0.684052 -1.3282 0
M  V30 2750 H 249.232 0.751972 -4.14636 0
M  V30 2751 H 247.907 1.1597 -3.02213 0
M  V30 2752 H 246.814 -1.08978 -3.57875 0
M  V30 2753 H 248.147 -1.41497 -4.71423 0
M  V30 2754 N 249.799 1.42003 -0.683588 0
M  V30 2755 C 250.762 2.29191 -0.0198243 0
M  V30 2756 C 251.762 1.43773 0.72013 0
M  V30 2757 O 252.952 1.65061 0.556815 0
M  V30 2758 C 250.084 3.26435 0.982487 0
M  V30 2759 H 251.277 2.8938 -0.787345 0
M  V30 2760 H 248.83 1.49789 -0.446418 0
M  V30 2761 H 249.565 2.71203 1.77819 0
M  V30 2762 H 249.35 3.89449 0.455182 0
M  V30 2763 H 250.84 3.918 1.44508 0
M  V30 2764 N 251.277 0.427512 1.51691 0
M  V30 2765 C 252.502 -0.143601 2.06902 0
M  V30 2766 C 252.927 -1.36536 1.29382 0
M  V30 2767 O 252.285 -1.78289 0.329043 0
M  V30 2768 C 252.333 -0.454207 3.57728 0
M  V30 2769 O 251.437 -1.54228 3.82475 0
M  V30 2770 H 250.778 -0.00617128 0.663971 0
M  V30 2771 H 253.308 0.606014 1.95419 0
M  V30 2772 H 253.318 -0.707525 4.01818 0
M  V30 2773 H 251.993 0.438812 4.13579 0
M  V30 2774 H 250.57 -1.2797 3.50254 0
M  V30 2775 N 252.755 -1.56801 0.158532 0
M  V30 2776 C 254.003 -1.96102 -0.488712 0
M  V30 2777 C 254.324 -1.04498 -1.64636 0
M  V30 2778 O 253.594 -0.108783 -1.95598 0
M  V30 2779 H 252.174 -0.724102 -0.183535 0
M  V30 2780 H 254.836 -1.93457 0.236728 0
M  V30 2781 H 253.932 -3.00097 -0.857219 0
M  V30 2782 N 254.233 0.115231 -1.57178 0
M  V30 2783 C 255.143 1.15994 -2.03918 0
M  V30 2784 C 256.159 1.45103 -0.960268 0
M  V30 2785 O 257.335 1.56144 -1.27204 0
M  V30 2786 C 254.4 2.46568 -2.43732 0
M  V30 2787 C 253.461 2.24822 -3.65723 0
M  V30 2788 C 252.694 3.4917 -4.03629 0
M  V30 2789 O 252.917 4.56623 -3.41835 0
M  V30 2790 O 251.851 3.39949 -4.96708 0
M  V30 2791 H 255.677 0.793019 -2.93164 0
M  V30 2792 H 253.262 0.3263 -1.45793 0
M  V30 2793 H 255.144 3.23492 -2.70057 0
M  V30 2794 H 253.819 2.82726 -1.57631 0
M  V30 2795 H 252.726 1.45744 -3.44542 0
M  V30 2796 H 254.059 1.93566 -4.52541 0
M  V30 2797 N 255.711 1.52812 0.385517 0
M  V30 2798 C 256.661 1.74219 1.47078 0
M  V30 2799 C 257.645 0.59632 1.49442 0
M  V30 2800 O 258.837 0.85428 1.5502 0
M  V30 2801 C 255.966 1.9176 2.84751 0
M  V30 2802 C 255.052 3.12289 2.86943 0
M  V30 2803 N 255.443 4.34575 2.58802 0
M  V30 2804 C 253.741 3.12605 3.1811 0
M  V30 2805 C 254.442 5.162 2.68166 0
M  V30 2806 N 253.418 4.51964 3.02043 0
M  V30 2807 H 257.22 2.6639 1.24152 0
M  V30 2808 H 254.734 1.51166 0.593504 0
M  V30 2809 H 256.731 2.05218 3.62893 0
M  V30 2810 H 255.391 1.00805 3.08656 0
M  V30 2811 H 256.402 4.62649 2.32759 0
M  V30 2812 H 253.079 2.31472 3.47458 0
M  V30 2813 H 254.469 6.23689 2.49923 0
M  V30 2814 N 257.189 -0.644168 1.43834 0
M  V30 2815 C 258.414 -1.43642 1.49605 0
M  V30 2816 C 258.839 -1.8773 0.117913 0
M  V30 2817 O 258.197 -1.57938 -0.890239 0
M  V30 2818 C 258.245 -2.6416 2.45463 0
M  V30 2819 O 257.349 -3.63538 1.94714 0
M  V30 2820 H 256.69 -0.430329 0.50568 0
M  V30 2821 H 259.22 -0.787448 1.8884 0
M  V30 2822 H 259.23 -3.11864 2.63068 0
M  V30 2823 H 257.905 -2.31414 3.45572 0
M  V30 2824 H 256.482 -3.2273 1.86814 0
M  V30 2825 N 258.668 -1.30515 -0.883378 0
M  V30 2826 C 259.598 -1.19607 -2.00541 0
M  V30 2827 C 260.579 -0.086346 -1.69881 0
M  V30 2828 O 261.764 -0.268654 -1.92333 0
M  V30 2829 C 258.894 -0.888758 -3.35736 0
M  V30 2830 C 257.848 -1.95659 -3.8066 0
M  V30 2831 C 257.174 -1.50224 -5.13164 0
M  V30 2832 C 258.474 -3.36788 -3.99213 0
M  V30 2833 H 260.168 -2.13476 -2.09925 0
M  V30 2834 H 257.714 -1.02775 -1.00863 0
M  V30 2835 H 259.667 -0.799094 -4.13754 0
M  V30 2836 H 258.391 0.0856125 -3.26488 0
M  V30 2837 H 257.05 -2.03591 -3.04871 0
M  V30 2838 H 256.698 -0.516092 -5.00345 0
M  V30 2839 H 256.398 -2.2165 -5.44192 0
M  V30 2840 H 257.922 -1.42639 -5.93706 0
M  V30 2841 H 259.336 -3.31605 -4.67665 0
M  V30 2842 H 257.733 -4.06314 -4.41621 0
M  V30 2843 H 258.803 -3.78561 -3.03017 0
M  V30 2844 N 260.146 1.09593 -1.13257 0
M  V30 2845 C 261.093 2.1618 -0.808381 0
M  V30 2846 C 262.063 1.64517 0.228754 0
M  V30 2847 O 263.248 1.9053 0.101381 0
M  V30 2848 C 260.388 3.43973 -0.278675 0
M  V30 2849 C 259.501 4.09545 -1.37466 0
M  V30 2850 C 258.636 5.25088 -0.803479 0
M  V30 2851 C 257.675 5.82579 -1.87799 0
M  V30 2852 N 256.812 6.89486 -1.32488 0
M  V30 2853 H 261.652 2.43254 -1.72138 0
M  V30 2854 H 259.189 1.19392 -0.859294 0
M  V30 2855 H 261.147 4.17174 0.0465583 0
M  V30 2856 H 259.777 3.17223 0.597459 0
M  V30 2857 H 258.829 3.34226 -1.81652 0
M  V30 2858 H 260.141 4.48307 -2.18684 0
M  V30 2859 H 259.295 6.05178 -0.429427 0
M  V30 2860 H 258.034 4.87684 0.0397956 0
M  V30 2861 H 257.039 5.01152 -2.26113 0
M  V30 2862 H 258.264 6.22045 -2.72463 0
M  V30 2863 H 256.21 6.54064 -0.503575 0
M  V30 2864 H 256.127 7.27007 -2.07355 0
M  V30 2865 H 257.395 7.73336 -0.978336 0
M  V30 2866 N 261.624 0.925811 1.2754 0
M  V30 2867 C 262.871 0.565255 1.94451 0
M  V30 2868 C 263.199 -0.89316 1.7278 0
M  V30 2869 O 262.454 -1.65213 1.04895 0
M  V30 2870 C 262.753 0.835296 3.47502 0
M  V30 2871 C 262.419 2.27515 3.89291 0
M  V30 2872 C 261.081 2.66879 4.00411 0
M  V30 2873 C 263.433 3.21158 4.10496 0
M  V30 2874 C 260.761 3.99014 4.30122 0
M  V30 2875 C 263.113 4.52871 4.4169 0
M  V30 2876 C 261.777 4.92072 4.51023 0
M  V30 2877 H 261.047 0.206841 0.711546 0
M  V30 2878 H 263.694 1.16942 1.51647 0
M  V30 2879 H 261.999 0.148442 3.91519 0
M  V30 2880 H 263.696 0.535322 3.97411 0
M  V30 2881 H 260.286 1.95976 3.81171 0
M  V30 2882 H 264.47 2.9195 4.01346 0
M  V30 2883 H 259.726 4.2907 4.35556 0
M  V30 2884 H 263.9 5.25436 4.57045 0
M  V30 2885 H 261.527 5.9449 4.738 0
M  V30 2886 N 263.102 -1.41638 0.69111 0
M  V30 2887 C 264.035 -2.28183 -0.0274913 0
M  V30 2888 C 265.013 -1.41984 -0.792424 0
M  V30 2889 O 266.197 -1.71415 -0.784169 0
M  V30 2890 C 263.324 -3.22135 -1.04628 0
M  V30 2891 C 262.37 -4.24848 -0.375037 0
M  V30 2892 S 263.203 -5.28231 0.879321 0
M  V30 2893 C 264.359 -6.25748 -0.137983 0
M  V30 2894 H 264.592 -2.88782 0.706553 0
M  V30 2895 H 262.125 -1.46709 0.481222 0
M  V30 2896 H 264.083 -3.76797 -1.62894 0
M  V30 2897 H 262.744 -2.6064 -1.75287 0
M  V30 2898 H 261.937 -4.90837 -1.14433 0
M  V30 2899 H 261.539 -3.73758 0.134434 0
M  V30 2900 H 263.831 -6.70188 -0.992659 0
M  V30 2901 H 264.774 -7.06417 0.487867 0
M  V30 2902 H 265.182 -5.62363 -0.490762 0
M  V30 2903 N 264.58 -0.43555 -1.51462 0
M  V30 2904 C 265.829 0.133007 -2.01261 0
M  V30 2905 C 266.142 1.43942 -1.32439 0
M  V30 2906 O 267.348 2.09081 -1.73198 0
M  V30 2907 C 265.804 0.287581 -3.58749 0
M  V30 2908 C 265.412 -1.00829 -4.36506 0
M  V30 2909 C 267.156 0.810004 -4.167 0
M  V30 2910 C 265.063 -0.819454 -5.85695 0
M  V30 2911 H 263.993 0.0534822 -0.752101 0
M  V30 2912 H 266.644 -0.565038 -1.74584 0
M  V30 2913 H 265.026 1.04859 -3.81865 0
M  V30 2914 H 266.2 -1.77749 -4.25138 0
M  V30 2915 H 264.515 -1.45911 -3.89999 0
M  V30 2916 H 267.112 0.967743 -5.2587 0
M  V30 2917 H 267.455 1.79196 -3.75758 0
M  V30 2918 H 267.988 0.107357 -3.97655 0
M  V30 2919 H 264.727 -1.77374 -6.31046 0
M  V30 2920 H 264.247 -0.0900208 -5.99732 0
M  V30 2921 H 265.926 -0.471949 -6.45276 0
M  V30 2922 N 266.058 1.56714 -0.166846 0
M  V30 2923 C 267.288 2.00828 0.48494 0
M  V30 2924 C 267.696 1.04612 1.57648 0
M  V30 2925 O 267.039 0.0383201 1.8366 0
M  V30 2926 C 267.101 3.4137 1.12723 0
M  V30 2927 C 266.765 4.56654 0.177886 0
M  V30 2928 C 267.762 5.16402 -0.60207 0
M  V30 2929 C 265.447 5.02244 0.0750139 0
M  V30 2930 C 267.441 6.20167 -1.47215 0
M  V30 2931 C 265.128 6.05859 -0.798649 0
M  V30 2932 C 266.126 6.64691 -1.57082 0
M  V30 2933 O 265.814 7.66297 -2.42989 0
M  V30 2934 H 265.546 0.663587 0.128953 0
M  V30 2935 H 268.1 2.03692 -0.264365 0
M  V30 2936 H 266.33 3.35406 1.92457 0
M  V30 2937 H 268.019 3.69466 1.68076 0
M  V30 2938 H 268.785 4.82065 -0.53274 0
M  V30 2939 H 264.664 4.56167 0.665812 0
M  V30 2940 H 268.208 6.66016 -2.07531 0
M  V30 2941 H 264.105 6.39621 -0.869199 0
M  V30 2942 H 264.873 7.83601 -2.36455 0
M  V30 2943 N 267.536 -0.106894 1.57237 0
M  V30 2944 C 268.446 -1.14911 2.0453 0
M  V30 2945 C 269.462 -1.44592 0.96795 0
M  V30 2946 O 270.638 -1.55468 1.2803 0
M  V30 2947 C 267.703 -2.45272 2.45036 0
M  V30 2948 C 266.764 -2.22879 3.66911 0
M  V30 2949 C 265.997 -3.47024 4.05475 0
M  V30 2950 O 266.22 -4.54804 3.44252 0
M  V30 2951 O 265.154 -3.3731 4.98504 0
M  V30 2952 H 268.98 -0.777461 2.9358 0
M  V30 2953 H 266.565 -0.318563 1.45964 0
M  V30 2954 H 268.447 -3.22055 2.71769 0
M  V30 2955 H 267.122 -2.81886 1.59129 0
M  V30 2956 H 266.029 -1.43915 3.45311 0
M  V30 2957 H 267.362 -1.91163 4.53561 0
M  V30 2958 N 269.014 -1.53014 -0.377408 0
M  V30 2959 C 269.944 -1.81589 -1.46791 0
M  V30 2960 C 270.925 -0.668622 -1.56408 0
M  V30 2961 O 272.11 -0.917337 -1.71168 0
M  V30 2962 C 269.24 -1.99519 -2.8427 0
M  V30 2963 C 268.194 -3.15249 -2.89486 0
M  V30 2964 C 267.52 -3.18451 -4.29527 0
M  V30 2965 C 268.82 -4.54084 -2.58079 0
M  V30 2966 H 270.514 -2.7291 -1.23127 0
M  V30 2967 H 268.06 -1.31319 -0.590883 0
M  V30 2968 H 270.013 -2.18092 -3.60575 0
M  V30 2969 H 268.737 -1.04897 -3.09296 0
M  V30 2970 H 267.396 -2.96477 -2.15631 0
M  V30 2971 H 267.044 -2.2149 -4.5161 0
M  V30 2972 H 266.744 -3.962 -4.33934 0
M  V30 2973 H 268.268 -3.39193 -5.07721 0
M  V30 2974 H 269.682 -4.72899 -3.24098 0
M  V30 2975 H 268.079 -5.33987 -2.7382 0
M  V30 2976 H 269.149 -4.60006 -1.53372 0
M  V30 2977 N 270.492 0.636531 -1.44174 0
M  V30 2978 C 271.739 1.39619 -1.46672 0
M  V30 2979 C 272.067 1.94257 -0.0972691 0
M  V30 2980 O 271.322 1.73768 0.900175 0
M  V30 2981 C 271.621 2.58309 -2.47005 0
M  V30 2982 C 271.287 2.21992 -3.92467 0
M  V30 2983 C 269.949 2.118 -4.32081 0
M  V30 2984 C 272.301 1.9321 -4.84065 0
M  V30 2985 C 269.629 1.71007 -5.61225 0
M  V30 2986 C 271.981 1.53911 -6.13591 0
M  V30 2987 C 270.645 1.42257 -6.52165 0
M  V30 2988 H 269.915 0.510902 -0.536712 0
M  V30 2989 H 272.562 0.722328 -1.77355 0
M  V30 2990 H 270.867 3.30903 -2.09786 0
M  V30 2991 H 272.564 3.16533 -2.46186 0
M  V30 2992 H 269.154 2.30841 -3.61124 0
M  V30 2993 H 273.338 1.99997 -4.54219 0
M  V30 2994 H 268.594 1.60583 -5.89935 0
M  V30 2995 H 272.768 1.30677 -6.8403 0
M  V30 2996 H 270.395 1.10419 -7.52138 0
M  V30 2997 N 271.97 1.30982 0.876444 0
M  V30 2998 C 273.198 1.23242 1.6619 0
M  V30 2999 C 273.613 -0.203345 1.87702 0
M  V30 3000 O 272.97 -1.13317 1.43057 0
M  V30 3001 C 273.021 1.96623 3.03351 0
M  V30 3002 O 272.742 3.34594 2.82804 0
M  V30 3003 C 274.243 1.95644 3.97792 0
M  V30 3004 H 271.463 0.426126 0.518322 0
M  V30 3005 H 274.007 1.7275 1.09442 0
M  V30 3006 H 272.162 1.50892 3.56806 0
M  V30 3007 H 272.576 3.71873 3.69879 0
M  V30 3008 H 274.05 2.51511 4.91372 0
M  V30 3009 H 274.527 0.937395 4.2908 0
M  V30 3010 H 275.133 2.41225 3.50272 0
M  V30 3011 N 273.449 -1.08991 1.13837 0
M  V30 3012 C 274.865 -1.33312 0.877506 0
M  V30 3013 C 275.065 -1.95587 -0.48456 0
M  V30 3014 O 274.121 -2.20509 -1.23013 0
M  V30 3015 C 275.434 -2.24045 2.0056 0
M  V30 3016 C 276.982 -2.37542 2.03821 0
M  V30 3017 C 277.457 -3.31614 3.15905 0
M  V30 3018 N 278.948 -3.39189 3.15445 0
M  V30 3019 C 279.683 -4.11992 3.98811 0
M  V30 3020 N 279.179 -4.87553 4.92203 0
M  V30 3021 N 280.972 -4.07762 3.86894 0
M  V30 3022 H 273.123 -0.669456 2.01574 0
M  V30 3023 H 275.386 -0.357482 0.878015 0
M  V30 3024 H 275.092 -1.85521 2.98789 0
M  V30 3025 H 274.966 -3.24466 1.92359 0
M  V30 3026 H 277.353 -2.75327 1.06202 0
M  V30 3027 H 277.434 -1.36884 2.16093 0
M  V30 3028 H 277.078 -2.94551 4.13766 0
M  V30 3029 H 277.008 -4.32186 3.0087 0
M  V30 3030 H 279.499 -2.85314 2.47799 0
M  V30 3031 H 279.812 -5.40549 5.52292 0
M  V30 3032 H 278.157 -4.86627 4.96205 0
M  V30 3033 H 281.348 -3.47833 3.13257 0
M  V30 3034 H 281.521 -4.64238 4.52092 0
M  V30 3035 N 274.927 -0.932562 -1.27047 0
M  V30 3036 C 276.157 -0.591173 -1.97961 0
M  V30 3037 C 276.565 0.836219 -1.69717 0
M  V30 3038 O 275.908 1.56801 -0.957036 0
M  V30 3039 C 275.97 -0.743082 -3.51736 0
M  V30 3040 C 275.634 -2.1435 -4.03613 0
M  V30 3041 C 276.631 -3.11815 -4.16014 0
M  V30 3042 C 274.316 -2.46175 -4.37839 0
M  V30 3043 C 276.31 -4.39211 -4.61923 0
M  V30 3044 C 273.997 -3.73806 -4.83438 0
M  V30 3045 C 274.995 -4.70137 -4.95439 0
M  V30 3046 O 274.683 -5.95496 -5.40037 0
M  V30 3047 H 274.415 -0.222375 -0.638377 0
M  V30 3048 H 276.969 -1.25317 -1.62742 0
M  V30 3049 H 275.199 -0.0239739 -3.86693 0
M  V30 3050 H 276.888 -0.40603 -4.03864 0
M  V30 3051 H 277.654 -2.88549 -3.89826 0
M  V30 3052 H 273.533 -1.71936 -4.27737 0
M  V30 3053 H 277.077 -5.14404 -4.71205 0
M  V30 3054 H 272.974 -3.96888 -5.09068 0
M  V30 3055 H 273.742 -5.98554 -5.58279 0
M  V30 3056 N 276.405 1.4127 -0.698611 0
M  V30 3057 C 277.682 1.94955 -0.158762 0
M  V30 3058 C 278.062 1.63781 1.33188 0
M  V30 3059 O 277.41 0.946423 2.07979 0
M  V30 3060 C 277.62 3.46044 -0.453309 0
M  V30 3061 C 278.968 4.22872 -0.382707 0
M  V30 3062 O 279.992 3.54076 -0.388396 0
M  V30 3063 O 278.851 5.45407 -0.345463 0
M  V30 3064 H 275.945 0.82683 -0.0167505 0
M  V30 3065 H 278.491 1.50971 -0.77498 0
M  V30 3066 H 277.263 3.62028 -1.48498 0
M  V30 3067 H 276.886 3.97128 0.19373 0
M  V30 3068 N 277.883 0.443576 1.51229 0
M  V30 3069 C 278.813 -0.355142 2.30783 0
M  V30 3070 C 279.794 -1.0154 1.36468 0
M  V30 3071 O 280.979 -1.01785 1.65389 0
M  V30 3072 C 278.109 -1.45312 3.15439 0
M  V30 3073 C 277.063 -0.916002 4.18083 0
M  V30 3074 C 276.389 -2.1102 4.91299 0
M  V30 3075 C 277.689 0.0538602 5.22272 0
M  V30 3076 H 279.383 0.308767 2.97804 0
M  V30 3077 H 276.929 0.149937 1.43217 0
M  V30 3078 H 278.882 -2.01914 3.69876 0
M  V30 3079 H 277.606 -2.14541 2.46252 0
M  V30 3080 H 276.265 -0.372145 3.64706 0
M  V30 3081 H 275.913 -2.78882 4.18609 0
M  V30 3082 H 275.613 -1.75717 5.60712 0
M  V30 3083 H 277.137 -2.68164 5.48562 0
M  V30 3084 H 278.551 -0.422069 5.71744 0
M  V30 3085 H 276.948 0.319776 5.99247 0
M  V30 3086 H 278.018 0.98858 4.74716 0
M  V30 3087 N 279.361 -1.56624 0.175154 0
M  V30 3088 C 280.61 -1.96173 -0.468921 0
M  V30 3089 C 280.923 -1.06401 -1.64128 0
M  V30 3090 O 282.129 -1.35648 -2.35185 0
M  V30 3091 C 280.585 -3.48833 -0.885633 0
M  V30 3092 C 280.193 -4.47237 0.261343 0
M  V30 3093 C 281.937 -3.97194 -1.49791 0
M  V30 3094 C 279.844 -5.9114 -0.175214 0
M  V30 3095 H 278.774 -0.732455 -0.178958 0
M  V30 3096 H 281.425 -1.81591 0.263997 0
M  V30 3097 H 279.807 -3.58848 -1.67464 0
M  V30 3098 H 280.981 -4.4894 1.03871 0
M  V30 3099 H 279.296 -4.08956 0.783827 0
M  V30 3100 H 281.893 -5.02167 -1.83665 0
M  V30 3101 H 282.236 -3.40351 -2.39722 0
M  V30 3102 H 282.769 -3.90212 -0.773267 0
M  V30 3103 H 279.508 -6.51865 0.689414 0
M  V30 3104 H 279.028 -5.92735 -0.91786 0
M  V30 3105 H 280.707 -6.44044 -0.617792 0
M  V30 3106 N 280.839 0.0985539 -1.57292 0
M  V30 3107 C 281.787 1.1387 -2.02821 0
M  V30 3108 C 282.781 1.41676 -0.928666 0
M  V30 3109 O 283.987 1.41398 -1.11385 0
M  V30 3110 H 280.362 0.384419 -0.646317 0
M  V30 3111 H 282.333 0.728347 -2.89375 0
M  V30 3112 C 281.082 2.45166 -2.46554 0
M  V30 3113 H 280.405 2.24613 -3.3074 0
M  V30 3114 H 281.845 3.16456 -2.8219 0
M  V30 3115 C 280.304 3.09216 -1.33742 0
M  V30 3116 O 280.834 3.96163 -0.66464 0
M  V30 3117 N 279.04 2.69413 -1.08928 0
M  V30 3118 H 278.587 1.98801 -1.63817 0
M  V30 3119 H 278.545 3.12594 -0.336458 0
M  V30 3120 N 282.317 1.53212 0.369288 0
M  V30 3121 C 283.733 1.42902 0.710712 0
M  V30 3122 C 283.933 0.565135 1.93413 0
M  V30 3123 O 282.989 0.0461484 2.52458 0
M  V30 3124 C 284.302 2.86042 0.927382 0
M  V30 3125 C 285.85 2.9565 1.02762 0
M  V30 3126 C 286.325 4.39843 1.27679 0
M  V30 3127 N 287.816 4.43256 1.34457 0
M  V30 3128 C 288.551 5.51929 1.55439 0
M  V30 3129 N 288.047 6.70655 1.73762 0
M  V30 3130 N 289.84 5.39502 1.57779 0
M  V30 3131 H 281.991 2.07888 -0.435457 0
M  V30 3132 H 284.254 0.938661 -0.132739 0
M  V30 3133 H 283.96 3.51557 0.100287 0
M  V30 3134 H 283.834 3.29472 1.83653 0
M  V30 3135 H 286.221 2.30291 1.84527 0
M  V30 3136 H 286.302 2.5562 0.0959504 0
M  V30 3137 H 285.946 5.05774 0.464175 0
M  V30 3138 H 285.876 4.77443 2.22162 0
M  V30 3139 H 288.367 3.5769 1.21926 0
M  V30 3140 H 288.68 7.49248 1.89335 0
M  V30 3141 H 287.025 6.73648 1.70948 0
M  V30 3142 H 290.216 4.45713 1.43029 0
M  V30 3143 H 290.389 6.2426 1.7379 0
M  V30 3144 N 283.795 -0.628877 1.44509 0
M  V30 3145 C 285.042 -1.38839 1.47411 0
M  V30 3146 C 285.37 -1.94202 0.10757 0
M  V30 3147 O 284.625 -1.74243 -0.890947 0
M  V30 3148 C 284.924 -2.56995 2.48371 0
M  V30 3149 C 284.59 -2.19908 3.93639 0
M  V30 3150 C 283.252 -2.09506 4.33198 0
M  V30 3151 C 285.604 -1.9064 4.85083 0
M  V30 3152 C 282.932 -1.68028 5.62124 0
M  V30 3153 C 285.284 -1.50655 6.14399 0
M  V30 3154 C 283.948 -1.38796 6.5291 0
M  V30 3155 H 283.218 -0.508048 0.539414 0
M  V30 3156 H 285.865 -0.712913 1.77735 0
M  V30 3157 H 284.17 -3.29786 2.11538 0
M  V30 3158 H 285.867 -3.15223 2.47861 0
M  V30 3159 H 282.457 -2.28922 3.62343 0
M  V30 3160 H 286.641 -1.97585 4.55273 0
M  V30 3161 H 281.897 -1.57452 5.90778 0
M  V30 3162 H 286.071 -1.27048 6.84713 0
M  V30 3163 H 283.698 -1.06429 7.52713 0
M  V30 3164 N 285.273 -1.31445 -0.869486 0
M  V30 3165 C 286.22 -1.19135 -1.97675 0
M  V30 3166 C 287.19 -0.0770266 -1.65921 0
M  V30 3167 O 288.375 -0.249972 -1.89155 0
M  V30 3168 C 285.515 -0.905149 -3.33018 0
M  V30 3169 C 284.628 -2.10285 -3.77365 0
M  V30 3170 C 283.763 -1.75339 -5.01427 0
M  V30 3171 C 282.802 -2.91515 -5.38224 0
M  V30 3172 N 281.939 -2.56762 -6.53466 0
M  V30 3173 H 286.779 -2.13853 -2.07535 0
M  V30 3174 H 284.316 -1.06379 -1.01597 0
M  V30 3175 H 286.274 -0.719765 -4.10944 0
M  V30 3176 H 284.904 0.00519624 -3.228 0
M  V30 3177 H 283.956 -2.39899 -2.95216 0
M  V30 3178 H 285.268 -2.97237 -4.00564 0
M  V30 3179 H 284.422 -1.53266 -5.87022 0
M  V30 3180 H 283.161 -0.855801 -4.80133 0
M  V30 3181 H 282.166 -3.14237 -4.51149 0
M  V30 3182 H 283.391 -3.81985 -5.61484 0
M  V30 3183 H 281.337 -1.69526 -6.33717 0
M  V30 3184 H 281.254 -3.37243 -6.76612 0
M  V30 3185 H 282.522 -2.38083 -7.42251 0
M  V30 3186 N 286.751 1.08385 -1.14413 0
M  V30 3187 C 288 1.80153 -0.907076 0
M  V30 3188 C 288.313 1.87176 0.567851 0
M  V30 3189 O 289.519 2.55359 0.922172 0
M  V30 3190 C 287.975 3.23687 -1.57336 0
M  V30 3191 C 287.583 3.24897 -3.08457 0
M  V30 3192 C 289.327 4.00136 -1.41744 0
M  V30 3193 C 287.234 4.6302 -3.67921 0
M  V30 3194 H 286.164 0.675139 -0.335714 0
M  V30 3195 H 288.815 1.21733 -1.37307 0
M  V30 3196 H 287.197 3.82234 -1.03505 0
M  V30 3197 H 288.371 2.76055 -3.68958 0
M  V30 3198 H 286.686 2.61943 -3.2369 0
M  V30 3199 H 289.283 5.02201 -1.83572 0
M  V30 3200 H 289.626 4.14709 -0.363576 0
M  V30 3201 H 290.159 3.48058 -1.92614 0
M  V30 3202 H 286.898 4.5365 -4.73161 0
M  V30 3203 H 286.418 5.12143 -3.12201 0
M  V30 3204 H 288.097 5.31994 -3.68227 0
M  V30 3205 N 288.23 0.939286 1.26551 0
M  V30 3206 C 289.641 0.628782 1.75793 0
M  V30 3207 C 289.992 -0.856046 1.7654 0
M  V30 3208 O 289.117 -1.66994 1.3763 0
M  V30 3209 C 289.712 1.13465 3.19235 0
M  V30 3210 C 288.271 0.874601 3.66098 0
M  V30 3211 C 287.418 1.28667 2.45642 0
M  V30 3212 H 290.369 1.1178 1.12654 0
M  V30 3213 H 290.39 0.487609 3.77363 0
M  V30 3214 H 289.902 2.21535 3.1866 0
M  V30 3215 H 288.003 -0.191793 3.72106 0
M  V30 3216 H 288.116 1.50028 4.55004 0
M  V30 3217 H 286.48 0.705109 2.44745 0
M  V30 3218 H 287.263 2.37625 2.47769 0
M  V30 3219 N 289.708 -1.40897 0.706093 0
M  V30 3220 C 290.954 -2.01352 0.241889 0
M  V30 3221 C 291.287 -1.55832 -1.15888 0
M  V30 3222 O 290.562 -0.774145 -1.7843 0
M  V30 3223 C 290.845 -3.58752 0.311311 0
M  V30 3224 C 290.698 -4.1437 1.74978 0
M  V30 3225 C 292.017 -4.38914 -0.322922 0
M  V30 3226 H 289.136 -0.731562 0.0893687 0
M  V30 3227 H 291.778 -1.67504 0.896802 0
M  V30 3228 H 289.928 -3.87718 -0.246302 0
M  V30 3229 H 291.6 -3.96239 2.36205 0
M  V30 3230 H 289.843 -3.69016 2.28057 0
M  V30 3231 H 290.514 -5.23532 1.74981 0
M  V30 3232 H 292.99 -4.15822 0.152089 0
M  V30 3233 H 291.866 -5.48358 -0.243855 0
M  V30 3234 H 292.127 -4.19176 -1.40513 0
M  V30 3235 N 291.186 -0.45159 -1.50991 0
M  V30 3236 C 292.411 0.110667 -2.07105 0
M  V30 3237 C 292.836 1.3446 -1.31538 0
M  V30 3238 O 292.194 1.77743 -0.357365 0
M  V30 3239 C 292.242 0.397238 -3.58405 0
M  V30 3240 O 291.346 1.48124 -3.84881 0
M  V30 3241 H 290.687 -0.00439271 -0.663985 0
M  V30 3242 H 293.217 -0.637026 -1.9443 0
M  V30 3243 H 293.227 0.64351 -4.02893 0
M  V30 3244 H 291.902 -0.504553 -4.12828 0
M  V30 3245 H 290.479 1.22381 -3.52246 0
M  V30 3246 N 292.664 1.56529 -0.183458 0
M  V30 3247 C 293.904 1.99141 0.460667 0
M  V30 3248 C 294.268 1.06736 1.59597 0
M  V30 3249 O 295.469 1.38538 2.30349 0
M  V30 3250 C 293.74 3.45358 0.919939 0
M  V30 3251 S 295.299 4.09999 1.56354 0
M  V30 3252 H 292.117 0.695479 0.147748 0
M  V30 3253 H 294.719 1.93429 -0.283782 0
M  V30 3254 H 293.423 4.10315 0.0834208 0
M  V30 3255 H 292.954 3.54862 1.69814 0
M  V30 3256 H 294.969 4.06046 2.85203 0
M  V30 3257 N 294.142 -0.090211 1.57342 0
M  V30 3258 C 295.072 -1.10976 2.05443 0
M  V30 3259 C 296.053 -1.41482 0.944284 0
M  V30 3260 O 297.238 -1.51428 1.21586 0
M  V30 3261 C 294.368 -2.42831 2.48295 0
M  V30 3262 C 293.322 -2.26721 3.63018 0
M  V30 3263 C 292.648 -3.63796 3.91863 0
M  V30 3264 C 293.948 -1.7037 4.93732 0
M  V30 3265 H 295.642 -0.709564 2.9087 0
M  V30 3266 H 293.188 -0.339874 1.39932 0
M  V30 3267 H 295.141 -3.14431 2.80555 0
M  V30 3268 H 293.865 -2.84795 1.59873 0
M  V30 3269 H 292.524 -1.57565 3.31012 0
M  V30 3270 H 292.172 -4.03297 3.00601 0
M  V30 3271 H 291.872 -3.53861 4.69101 0
M  V30 3272 H 293.396 -4.36855 4.26603 0
M  V30 3273 H 294.81 -2.31816 5.24342 0
M  V30 3274 H 293.207 -1.71181 5.75167 0
M  V30 3275 H 294.277 -0.663542 4.80339 0
M  V30 3276 N 295.62 -1.53406 -0.361157 0
M  V30 3277 C 296.869 -1.69022 -1.10066 0
M  V30 3278 C 297.182 -0.450838 -1.90333 0
M  V30 3279 O 298.388 -0.487617 -2.67085 0
M  V30 3280 C 296.844 -2.98812 -2.00598 0
M  V30 3281 C 296.452 -4.30027 -1.25621 0
M  V30 3282 C 298.196 -3.23795 -2.74513 0
M  V30 3283 C 296.103 -5.50903 -2.1508 0
M  V30 3284 H 295.033 -0.629776 -0.414606 0
M  V30 3285 H 297.684 -1.79907 -0.361348 0
M  V30 3286 H 296.066 -2.8174 -2.78278 0
M  V30 3287 H 297.24 -4.57745 -0.529739 0
M  V30 3288 H 295.555 -4.11522 -0.635496 0
M  V30 3289 H 298.152 -4.11289 -3.41681 0
M  V30 3290 H 298.495 -2.40045 -3.40123 0
M  V30 3291 H 299.028 -3.41561 -2.03914 0
M  V30 3292 H 295.767 -6.37143 -1.54041 0
M  V30 3293 H 295.287 -5.27459 -2.85565 0
M  V30 3294 H 296.966 -5.85865 -2.74538 0
M  V30 3295 N 297.098 0.621204 -1.44841 0
M  V30 3296 C 298.326 1.40752 -1.51646 0
M  V30 3297 C 298.741 1.88246 -0.144549 0
M  V30 3298 O 298.098 1.61422 0.851416 0
M  V30 3299 C 298.149 2.62119 -2.4895 0
M  V30 3300 O 297.87 2.16602 -3.80808 0
M  V30 3301 C 299.371 3.55135 -2.65319 0
M  V30 3302 H 296.591 0.431325 -0.514004 0
M  V30 3303 H 299.135 0.758835 -1.899 0
M  V30 3304 H 297.29 3.23058 -2.13805 0
M  V30 3305 H 297.704 2.95358 -4.33433 0
M  V30 3306 H 299.178 4.36874 -3.37409 0
M  V30 3307 H 299.655 4.04592 -1.70886 0
M  V30 3308 H 300.261 3.00058 -3.01405 0
M  V30 3309 N 298.576 1.31904 0.862503 0
M  V30 3310 C 299.823 1.22017 1.61611 0
M  V30 3311 C 300.151 -0.21991 1.93253 0
M  V30 3312 O 299.406 -1.17076 1.56817 0
M  V30 3313 C 299.705 2.01713 2.95037 0
M  V30 3314 C 299.371 3.51145 2.82857 0
M  V30 3315 C 298.033 3.91889 2.79243 0
M  V30 3316 C 300.385 4.46204 2.69353 0
M  V30 3317 C 297.713 5.25947 2.59993 0
M  V30 3318 C 300.065 5.80397 2.5164 0
M  V30 3319 C 298.729 6.20352 2.46413 0
M  V30 3320 H 297.999 0.44649 0.591378 0
M  V30 3321 H 300.646 1.63248 1.00111 0
M  V30 3322 H 298.951 1.53185 3.60613 0
M  V30 3323 H 300.648 1.91437 3.52353 0
M  V30 3324 H 297.238 3.1878 2.86491 0
M  V30 3325 H 301.422 4.15652 2.71196 0
M  V30 3326 H 296.678 5.5597 2.54376 0
M  V30 3327 H 300.852 6.53676 2.40169 0
M  V30 3328 H 298.479 7.24172 2.31256 0
M  V30 3329 N 300.054 -1.07777 1.14986 0
M  V30 3330 C 301.017 -2.13041 0.845358 0
M  V30 3331 C 302.017 -1.60071 -0.152931 0
M  V30 3332 O 303.207 -1.74033 0.0761879 0
M  V30 3333 C 300.339 -3.39896 0.261383 0
M  V30 3334 H 301.532 -2.41485 1.77834 0
M  V30 3335 H 299.085 -1.23595 0.956757 0
M  V30 3336 H 299.82 -3.17091 -0.68 0
M  V30 3337 H 299.605 -3.79642 0.980514 0
M  V30 3338 H 301.095 -4.17548 0.0657687 0
M  V30 3339 N 301.532 -0.945985 -1.26051 0
M  V30 3340 C 302.442 -0.465633 -2.29933 0
M  V30 3341 C 303.458 0.462761 -1.67733 0
M  V30 3342 O 304.634 0.341118 -1.9849 0
M  V30 3343 C 301.699 0.256994 -3.45746 0
M  V30 3344 C 300.76 -0.708549 -4.23412 0
M  V30 3345 C 299.993 -0.0203135 -5.33696 0
M  V30 3346 O 300.216 1.19571 -5.57726 0
M  V30 3347 O 299.15 -0.701459 -5.97799 0
M  V30 3348 H 302.976 -1.32866 -2.73094 0
M  V30 3349 H 300.561 -0.712071 -1.31339 0
M  V30 3350 H 302.443 0.663852 -4.16138 0
M  V30 3351 H 301.118 1.09533 -3.04605 0
M  V30 3352 H 300.025 -1.16545 -3.55483 0
M  V30 3353 H 301.358 -1.51465 -4.68315 0
M  V30 3354 N 303.011 1.40521 -0.713556 0
M  V30 3355 C 303.974 2.29098 -0.0684347 0
M  V30 3356 C 304.974 1.45268 0.689472 0
M  V30 3357 O 306.164 1.66205 0.521677 0
M  V30 3358 C 303.296 3.28446 0.913024 0
M  V30 3359 H 304.489 2.87645 -0.84855 0
M  V30 3360 H 302.042 1.48809 -0.47809 0
M  V30 3361 H 302.777 2.74913 1.72027 0
M  V30 3362 H 302.562 3.90327 0.372472 0
M  V30 3363 H 304.052 3.94777 1.36165 0
M  V30 3364 N 304.489 0.459591 1.5075 0
M  V30 3365 C 305.419 -0.330644 2.31147 0
M  V30 3366 C 306.4 -1.00087 1.37538 0
M  V30 3367 O 307.585 -1.00025 1.66459 0
M  V30 3368 C 304.715 -1.41958 3.16962 0
M  V30 3369 C 303.669 -0.871608 4.19031 0
M  V30 3370 C 302.995 -2.05797 4.9351 0
M  V30 3371 C 304.295 0.109251 5.22186 0
M  V30 3372 H 305.989 0.340336 2.97459 0
M  V30 3373 H 303.535 0.165119 1.4305 0
M  V30 3374 H 305.488 -1.9798 3.71997 0
M  V30 3375 H 304.212 -2.11917 2.48513 0
M  V30 3376 H 302.871 -0.333442 3.6508 0
M  V30 3377 H 302.519 -2.74427 4.21544 0
M  V30 3378 H 302.219 -1.6976 5.62544 0
M  V30 3379 H 303.743 -2.62331 5.51375 0
M  V30 3380 H 305.157 -0.361405 5.7216 0
M  V30 3381 H 303.554 0.383316 5.98875 0
M  V30 3382 H 304.624 1.03887 4.73641 0
M  V30 3383 N 305.967 -1.56429 0.191757 0
M  V30 3384 C 306.877 -2.22541 -0.742481 0
M  V30 3385 C 307.893 -1.22342 -1.23727 0
M  V30 3386 O 309.069 -1.55069 -1.28513 0
M  V30 3387 C 306.134 -2.8692 -1.94623 0
M  V30 3388 C 305.195 -4.02378 -1.49633 0
M  V30 3389 C 304.428 -4.63678 -2.6427 0
M  V30 3390 O 304.651 -4.23895 -3.81666 0
M  V30 3391 O 303.585 -5.53202 -2.37174 0
M  V30 3392 H 307.411 -3.02977 -0.209462 0
M  V30 3393 H 304.996 -1.49353 -0.0373832 0
M  V30 3394 H 306.878 -3.27663 -2.64982 0
M  V30 3395 H 305.553 -2.09466 -2.46791 0
M  V30 3396 H 304.46 -3.66265 -0.761636 0
M  V30 3397 H 305.793 -4.81487 -1.02134 0
M  V30 3398 N 307.445 0.0818655 -1.57387 0
M  V30 3399 C 308.691 0.784074 -1.8703 0
M  V30 3400 C 309.024 1.77729 -0.782689 0
M  V30 3401 O 308.299 1.93384 0.208051 0
M  V30 3402 C 308.582 1.50105 -3.27323 0
M  V30 3403 C 308.435 0.524925 -4.46727 0
M  V30 3404 C 309.754 2.44843 -3.65705 0
M  V30 3405 H 306.873 0.283582 -0.680257 0
M  V30 3406 H 309.515 0.0474352 -1.89941 0
M  V30 3407 H 307.665 2.12897 -3.24972 0
M  V30 3408 H 309.337 -0.0970111 -4.61198 0
M  V30 3409 H 307.58 -0.160606 -4.33503 0
M  V30 3410 H 308.251 1.064 -5.41648 0
M  V30 3411 H 310.727 1.92135 -3.69085 0
M  V30 3412 H 309.603 2.92018 -4.64776 0
M  V30 3413 H 309.864 3.29197 -2.95096 0
M  V30 3414 N 308.923 1.53595 0.353017 0
M  V30 3415 C 310.171 1.70049 1.09215 0
M  V30 3416 C 310.492 0.461406 1.89463 0
M  V30 3417 O 309.762 -0.524633 1.88744 0
M  V30 3418 H 308.342 0.626912 0.40619 0
M  V30 3419 H 311.004 1.90822 0.396585 0
M  V30 3420 H 310.1 2.56718 1.77488 0
M  V30 3421 N 310.401 -0.613514 1.45168 0
M  V30 3422 C 311.631 -1.39743 1.52169 0
M  V30 3423 C 312.039 -1.88596 0.151086 0
M  V30 3424 O 311.382 -1.6251 -0.856521 0
M  V30 3425 C 311.444 -2.64035 2.43979 0
M  V30 3426 C 311.108 -2.36861 3.90827 0
M  V30 3427 C 312.105 -1.97591 4.80889 0
M  V30 3428 C 309.79 -2.49956 4.35692 0
M  V30 3429 C 311.784 -1.71768 6.1382 0
M  V30 3430 C 309.471 -2.23747 5.68665 0
M  V30 3431 C 310.469 -1.84714 6.57548 0
M  V30 3432 O 310.157 -1.58809 7.88058 0
M  V30 3433 H 309.889 -0.434382 0.517966 0
M  V30 3434 H 312.443 -0.75587 1.90986 0
M  V30 3435 H 310.673 -3.3089 2.00122 0
M  V30 3436 H 312.362 -3.26069 2.41731 0
M  V30 3437 H 313.128 -1.87015 4.47493 0
M  V30 3438 H 309.007 -2.79305 3.66756 0
M  V30 3439 H 312.551 -1.41227 6.83155 0
M  V30 3440 H 308.448 -2.33938 6.01617 0
M  V30 3441 H 309.216 -1.7291 8.00028 0
M  V30 3442 N 311.879 -1.3236 -0.855495 0
M  V30 3443 C 313.104 -1.2601 -1.64731 0
M  V30 3444 C 313.529 0.169068 -1.87339 0
M  V30 3445 O 312.887 1.12016 -1.42556 0
M  V30 3446 C 312.935 -2.02417 -2.98429 0
M  V30 3447 O 312.039 -1.3714 -3.8893 0
M  V30 3448 H 311.38 -0.434325 -0.502253 0
M  V30 3449 H 313.91 -1.74661 -1.06558 0
M  V30 3450 H 313.92 -2.12559 -3.48257 0
M  V30 3451 H 312.595 -3.06343 -2.81295 0
M  V30 3452 H 311.172 -1.3554 -3.47395 0
M  V30 3453 N 313.357 1.07166 -1.15556 0
M  V30 3454 C 314.304 2.14417 -0.854055 0
M  V30 3455 C 315.274 1.64965 0.193806 0
M  V30 3456 O 316.459 1.90703 0.0609443 0
M  V30 3457 C 313.599 3.43304 -0.351574 0
M  V30 3458 C 312.712 4.06537 -1.46123 0
M  V30 3459 C 311.847 5.23266 -0.914677 0
M  V30 3460 C 310.886 5.78464 -2.00114 0
M  V30 3461 N 310.023 6.86521 -1.47083 0
M  V30 3462 H 314.863 2.39548 -1.77259 0
M  V30 3463 H 312.4 1.17543 -0.884425 0
M  V30 3464 H 314.358 4.17179 -0.0419409 0
M  V30 3465 H 312.988 3.18419 0.530037 0
M  V30 3466 H 312.04 3.30297 -1.88701 0
M  V30 3467 H 313.352 4.43567 -2.28144 0
M  V30 3468 H 312.506 6.04131 -0.557698 0
M  V30 3469 H 311.245 4.87658 -0.0636583 0
M  V30 3470 H 310.25 4.96243 -2.36692 0
M  V30 3471 H 311.475 6.16126 -2.85597 0
M  V30 3472 H 309.421 6.52849 -0.642198 0
M  V30 3473 H 309.338 7.22446 -2.22729 0
M  V30 3474 H 310.606 7.71087 -1.14215 0
M  V30 3475 N 314.835 0.952656 1.25548 0
M  V30 3476 C 316.065 0.622592 1.96996 0
M  V30 3477 C 316.473 -0.809112 1.71026 0
M  V30 3478 O 315.816 -1.55258 0.981861 0
M  V30 3479 C 315.878 0.798946 3.5051 0
M  V30 3480 C 315.542 2.20744 4.00151 0
M  V30 3481 C 316.539 3.18394 4.11001 0
M  V30 3482 C 314.224 2.5311 4.33867 0
M  V30 3483 C 316.218 4.46504 4.54877 0
M  V30 3484 C 313.905 3.8145 4.7743 0
M  V30 3485 C 314.903 4.77959 4.87897 0
M  V30 3486 O 314.591 6.04012 5.30494 0
M  V30 3487 H 314.323 0.232503 0.634758 0
M  V30 3488 H 316.877 1.2789 1.60728 0
M  V30 3489 H 315.107 0.0854903 3.86605 0
M  V30 3490 H 316.796 0.47023 4.03167 0
M  V30 3491 H 317.562 2.94715 3.85186 0
M  V30 3492 H 313.441 1.78719 4.24948 0
M  V30 3493 H 316.985 5.21835 4.62962 0
M  V30 3494 H 312.882 4.04936 5.0269 0
M  V30 3495 H 313.65 6.0736 5.48685 0
M  V30 3496 N 316.313 -1.40141 0.720998 0
M  V30 3497 C 317.26 -2.30688 0.071919 0
M  V30 3498 C 318.23 -1.48476 -0.744584 0
M  V30 3499 O 319.415 -1.77201 -0.707423 0
M  V30 3500 C 316.555 -3.34724 -0.839855 0
M  V30 3501 C 315.668 -4.31998 -0.0122438 0
M  V30 3502 C 314.803 -5.23102 -0.923995 0
M  V30 3503 C 313.842 -6.12033 -0.0907969 0
M  V30 3504 N 312.979 -6.95537 -0.957718 0
M  V30 3505 H 317.819 -2.85628 0.849755 0
M  V30 3506 H 315.356 -1.40653 0.430726 0
M  V30 3507 H 317.314 -3.93618 -1.38279 0
M  V30 3508 H 315.944 -2.81274 -1.58381 0
M  V30 3509 H 314.996 -3.74841 0.64794 0
M  V30 3510 H 316.308 -4.94772 0.632595 0
M  V30 3511 H 315.462 -5.86953 -1.53527 0
M  V30 3512 H 314.201 -4.60615 -1.60264 0
M  V30 3513 H 313.206 -5.47207 0.533377 0
M  V30 3514 H 314.431 -6.76581 0.584428 0
M  V30 3515 H 312.377 -6.35633 -1.62192 0
M  V30 3516 H 312.294 -7.55099 -0.36904 0
M  V30 3517 H 313.562 -7.63832 -1.555 0
M  V30 3518 N 317.792 -0.46758 -1.50504 0
M  V30 3519 C 318.74 0.342482 -2.30065 0
M  V30 3520 C 319.734 0.993596 -1.37201 0
M  V30 3521 O 320.94 0.925102 -1.54408 0
M  V30 3522 H 317.315 0.129283 -0.740803 0
M  V30 3523 H 319.286 -0.34899 -2.96352 0
M  V30 3524 C 318.035 1.4139 -3.17654 0
M  V30 3525 H 317.358 0.922264 -3.89017 0
M  V30 3526 H 318.798 1.95335 -3.76325 0
M  V30 3527 C 317.257 2.4139 -2.35016 0
M  V30 3528 O 317.787 3.46586 -2.03079 0
M  V30 3529 N 315.993 2.13021 -1.97662 0
M  V30 3530 H 315.54 1.27499 -2.23834 0
M  V30 3531 H 315.498 2.80164 -1.42673 0
M  V30 3532 N 319.27 1.56325 -0.20005 0
M  V30 3533 C 320.681 1.8408 0.31167 0
M  V30 3534 C 321.032 1.12087 1.61031 0
M  V30 3535 O 320.157 0.38332 2.12978 0
M  V30 3536 C 320.752 3.33932 0.57226 0
M  V30 3537 C 319.311 3.6208 1.02834 0
M  V30 3538 C 318.458 2.77186 0.079634 0
M  V30 3539 H 321.409 1.52939 -0.423729 0
M  V30 3540 H 321.43 3.52971 1.42096 0
M  V30 3541 H 320.942 3.86303 -0.37308 0
M  V30 3542 H 319.043 3.15147 1.98778 0
M  V30 3543 H 319.156 4.7023 0.917624 0
M  V30 3544 H 317.52 2.47951 0.582448 0
M  V30 3545 H 318.303 3.32347 -0.860238 0
M  V30 3546 N 320.748 -0.0735177 1.57428 0
M  V30 3547 C 321.978 -0.78483 1.91112 0
M  V30 3548 C 322.386 -1.71729 0.7941 0
M  V30 3549 O 321.729 -1.82105 -0.241542 0
M  V30 3550 C 321.791 -1.63346 3.20247 0
M  V30 3551 C 321.455 -0.870557 4.48632 0
M  V30 3552 C 322.452 -0.19058 5.19551 0
M  V30 3553 C 320.137 -0.838242 4.95256 0
M  V30 3554 C 322.131 0.511503 6.35344 0
M  V30 3555 C 319.818 -0.132386 6.10957 0
M  V30 3556 C 320.816 0.541288 6.80852 0
M  V30 3557 O 320.504 1.23578 7.94345 0
M  V30 3558 H 320.236 -0.228408 0.636244 0
M  V30 3559 H 322.79 -0.0486039 2.05342 0
M  V30 3560 H 321.02 -2.41245 3.02222 0
M  V30 3561 H 322.709 -2.22329 3.39595 0
M  V30 3562 H 323.475 -0.206864 4.84559 0
M  V30 3563 H 319.354 -1.35206 4.40727 0
M  V30 3564 H 322.898 1.03789 6.89836 0
M  V30 3565 H 318.795 -0.114023 6.45399 0
M  V30 3566 H 319.563 1.14487 8.10454 0
M  V30 3567 N 322.226 -1.5378 -0.344866 0
M  V30 3568 C 323.176 -1.78057 -1.42407 0
M  V30 3569 C 324.16 -0.635732 -1.47808 0
M  V30 3570 O 325.352 -0.89508 -1.527 0
M  V30 3571 C 322.481 -1.99242 -2.79566 0
M  V30 3572 C 321.567 -3.19787 -2.78562 0
M  V30 3573 N 321.958 -4.41284 -2.47189 0
M  V30 3574 C 320.256 -3.2093 -3.0971 0
M  V30 3575 C 320.957 -5.23128 -2.54385 0
M  V30 3576 N 319.933 -4.59813 -2.89953 0
M  V30 3577 H 323.735 -2.69588 -1.17046 0
M  V30 3578 H 321.249 -1.52687 -0.553217 0
M  V30 3579 H 323.246 -2.14768 -3.57324 0
M  V30 3580 H 321.906 -1.08953 -3.05875 0
M  V30 3581 H 322.917 -4.68657 -2.20411 0
M  V30 3582 H 319.594 -2.40603 -3.41199 0
M  V30 3583 H 320.984 -6.30096 -2.333 0
M  V30 3584 N 323.704 0.605807 -1.45491 0
M  V30 3585 C 324.652 1.73754 -1.54636 0
M  V30 3586 C 325.646 1.64207 -0.416219 0
M  V30 3587 O 326.852 1.69979 -0.592199 0
M  V30 3588 H 323.227 0.574073 -0.485741 0
M  V30 3589 H 325.198 1.63169 -2.49837 0
M  V30 3590 C 323.947 3.12135 -1.53189 0
M  V30 3591 H 323.27 3.20141 -2.39478 0
M  V30 3592 H 324.71 3.91147 -1.63645 0
M  V30 3593 C 323.169 3.35921 -0.256616 0
M  V30 3594 O 323.699 3.96194 0.662798 0
M  V30 3595 N 321.905 2.90204 -0.151751 0
M  V30 3596 H 321.452 2.41336 -0.90081 0
M  V30 3597 H 321.41 3.06492 0.700699 0
M  V30 3598 N 325.182 1.32811 0.848464 0
M  V30 3599 C 326.112 1.24882 1.97299 0
M  V30 3600 C 327.093 0.131357 1.69592 0
M  V30 3601 O 328.278 0.319553 1.91553 0
M  V30 3602 C 325.408 0.97746 3.33261 0
M  V30 3603 C 324.362 2.05682 3.75338 0
M  V30 3604 C 323.688 1.63777 5.09 0
M  V30 3605 C 324.988 3.47254 3.90144 0
M  V30 3606 H 326.682 2.18966 2.04191 0
M  V30 3607 H 324.228 1.05413 0.981029 0
M  V30 3608 H 326.181 0.908513 4.1149 0
M  V30 3609 H 324.905 0.000980011 3.266 0
M  V30 3610 H 323.564 2.11603 2.99366 0
M  V30 3611 H 323.212 0.648569 4.98801 0
M  V30 3612 H 322.912 2.36 5.38124 0
M  V30 3613 H 324.436 1.5833 5.89715 0
M  V30 3614 H 325.85 3.43888 4.58709 0
M  V30 3615 H 324.247 4.1788 4.30693 0
M  V30 3616 H 325.317 3.86462 2.92874 0
M  V30 3617 N 326.66 -1.06551 1.16123 0
M  V30 3618 C 327.909 -1.78687 0.935622 0
M  V30 3619 C 328.222 -1.88056 -0.538001 0
M  V30 3620 O 329.428 -2.56794 -0.88143 0
M  V30 3621 C 327.884 -3.21143 1.62466 0
M  V30 3622 C 327.492 -3.19949 3.13587 0
M  V30 3623 C 329.236 -3.9783 1.48092 0
M  V30 3624 C 327.143 -4.57108 3.75241 0
M  V30 3625 H 326.073 -0.669712 0.346412 0
M  V30 3626 H 328.724 -1.19534 1.39226 0
M  V30 3627 H 327.106 -3.80539 1.09572 0
M  V30 3628 H 328.28 -2.70151 3.73303 0
M  V30 3629 H 326.595 -2.5676 3.27816 0
M  V30 3630 H 329.192 -4.99217 1.91538 0
M  V30 3631 H 329.535 -4.14078 0.429507 0
M  V30 3632 H 330.068 -3.4495 1.98127 0
M  V30 3633 H 326.807 -4.46065 4.80319 0
M  V30 3634 H 326.327 -5.07111 3.20309 0
M  V30 3635 H 328.006 -5.26069 3.76644 0
M  V30 3636 N 328.138 -0.959301 -1.25041 0
M  V30 3637 C 329.088 -0.453888 -2.23436 0
M  V30 3638 C 330.072 0.459461 -1.542 0
M  V30 3639 O 331.264 0.291752 -1.74579 0
M  V30 3640 C 328.393 0.262667 -3.42294 0
M  V30 3641 C 327.479 -0.669022 -4.1879 0
M  V30 3642 N 327.87 -1.80267 -4.72586 0
M  V30 3643 C 326.168 -0.47814 -4.4343 0
M  V30 3644 C 326.869 -2.38475 -5.3057 0
M  V30 3645 N 325.845 -1.67078 -5.17287 0
M  V30 3646 H 329.647 -1.319 -2.6264 0
M  V30 3647 H 327.161 -0.817358 -1.40332 0
M  V30 3648 H 329.158 0.641911 -4.11929 0
M  V30 3649 H 327.818 1.12432 -3.04613 0
M  V30 3650 H 328.829 -2.18442 -4.69578 0
M  V30 3651 H 325.506 0.340249 -4.16111 0
M  V30 3652 H 326.896 -3.34094 -5.8295 0
M  V30 3653 N 329.616 1.39756 -0.72842 0
M  V30 3654 C 330.579 2.29012 -0.0927297 0
M  V30 3655 C 331.579 1.45992 0.674025 0
M  V30 3656 O 332.769 1.66749 0.50402 0
M  V30 3657 C 329.901 3.29396 0.878137 0
M  V30 3658 H 331.094 2.86729 -0.879011 0
M  V30 3659 H 328.647 1.48293 -0.493847 0
M  V30 3660 H 329.382 2.76722 1.69101 0
M  V30 3661 H 329.167 3.907 0.331051 0
M  V30 3662 H 330.657 3.96199 1.3197 0
M  V30 3663 N 331.094 0.475555 1.50254 0
M  V30 3664 C 332.057 -0.305016 2.27161 0
M  V30 3665 C 333.057 -0.916519 1.32123 0
M  V30 3666 O 334.247 -0.785003 1.5551 0
M  V30 3667 C 331.379 -1.43496 3.09227 0
M  V30 3668 H 332.572 0.369511 2.97615 0
M  V30 3669 H 330.125 0.229747 1.54602 0
M  V30 3670 H 330.86 -2.14441 2.43281 0
M  V30 3671 H 330.645 -1.00223 3.79075 0
M  V30 3672 H 332.135 -1.98548 3.67381 0
M  V30 3673 N 332.573 -1.56217 0.208337 0
M  V30 3674 C 333.85 -1.89739 -0.475234 0
M  V30 3675 C 334.23 -1.1238 -1.78701 0
M  V30 3676 O 333.578 -0.228979 -2.2735 0
M  V30 3677 C 333.788 -3.42289 -0.681101 0
M  V30 3678 C 335.136 -4.12789 -0.994507 0
M  V30 3679 O 336.16 -3.47814 -0.768357 0
M  V30 3680 O 335.019 -5.27649 -1.42299 0
M  V30 3681 H 332.113 -0.788478 -0.249461 0
M  V30 3682 H 334.659 -1.67855 0.249538 0
M  V30 3683 H 333.431 -3.90534 0.244722 0
M  V30 3684 H 333.054 -3.69909 -1.45785 0
M  V30 3685 N 334.051 0.0651679 -1.57465 0
M  V30 3686 C 335.297 0.764193 -1.87851 0
M  V30 3687 C 335.63 1.76889 -0.801495 0
M  V30 3688 O 334.905 1.93594 0.187528 0
M  V30 3689 C 335.188 1.46625 -3.28897 0
M  V30 3690 C 335.041 0.477515 -4.47258 0
M  V30 3691 C 336.36 2.4095 -3.68281 0
M  V30 3692 H 333.479 0.276351 -0.683227 0
M  V30 3693 H 336.121 0.0272868 -1.8998 0
M  V30 3694 H 334.271 2.09438 -3.27212 0
M  V30 3695 H 335.943 -0.145922 -4.61069 0
M  V30 3696 H 334.186 -0.206576 -4.33308 0
M  V30 3697 H 334.857 1.0065 -5.42746 0
M  V30 3698 H 337.333 1.88209 -3.71102 0
M  V30 3699 H 336.209 2.87072 -4.67847 0
M  V30 3700 H 336.47 3.26049 -2.98571 0
M  V30 3701 N 335.529 1.53961 0.336706 0
M  V30 3702 C 336.757 1.75483 1.09605 0
M  V30 3703 C 337.172 0.4972 1.82136 0
M  V30 3704 O 336.529 -0.53149 1.74589 0
M  V30 3705 C 336.58 2.93943 2.10428 0
M  V30 3706 O 336.301 4.14842 1.40846 0
M  V30 3707 C 337.802 3.27571 2.98684 0
M  V30 3708 H 335.022 0.586166 0.326574 0
M  V30 3709 H 337.566 2.00808 0.38683 0
M  V30 3710 H 335.721 2.70929 2.76905 0
M  V30 3711 H 336.135 4.81383 2.08255 0
M  V30 3712 H 337.609 4.13791 3.6535 0
M  V30 3713 H 338.086 2.44168 3.65074 0
M  V30 3714 H 338.692 3.52615 2.37787 0
M  V30 3715 N 337.007 -0.598083 1.45811 0
M  V30 3716 C 337.939 -1.72231 1.51225 0
M  V30 3717 C 338.952 -1.57757 0.402059 0
M  V30 3718 O 340.141 -1.65464 0.669624 0
M  V30 3719 C 337.241 -3.10331 1.3619 0
M  V30 3720 C 336.414 -3.50955 2.61054 0
M  V30 3721 C 335.473 -4.68055 2.40439 0
M  V30 3722 O 334.499 -4.74691 3.14097 0
M  V30 3723 N 335.701 -5.61941 1.45612 0
M  V30 3724 H 338.466 -1.68046 2.48154 0
M  V30 3725 H 336.027 -0.783637 1.41671 0
M  V30 3726 H 338.019 -3.86439 1.20195 0
M  V30 3727 H 336.589 -3.0897 0.475015 0
M  V30 3728 H 335.809 -2.64711 2.92099 0
M  V30 3729 H 337.097 -3.74858 3.44034 0
M  V30 3730 H 336.495 -5.59301 0.848431 0
M  V30 3731 H 335.052 -6.37542 1.35585 0
M  V30 3732 N 338.485 -1.33259 -0.841409 0
M  V30 3733 C 339.713 -1.27605 -1.62864 0
M  V30 3734 C 340.128 0.153507 -1.88175 0
M  V30 3735 O 339.485 1.09485 -1.46011 0
M  V30 3736 C 339.536 -2.04596 -2.98031 0
M  V30 3737 O 339.257 -3.41975 -2.73834 0
M  V30 3738 C 340.758 -2.06122 -3.92465 0
M  V30 3739 H 337.978 -0.439718 -0.506842 0
M  V30 3740 H 340.522 -1.75591 -1.04824 0
M  V30 3741 H 338.677 -1.60299 -3.5268 0
M  V30 3742 H 339.091 -3.81549 -3.59889 0
M  V30 3743 H 340.565 -2.64451 -4.84531 0
M  V30 3744 H 341.042 -1.05083 -4.26444 0
M  V30 3745 H 341.648 -2.50427 -3.43753 0
M  V30 3746 N 339.963 1.05934 -1.16686 0
M  V30 3747 C 341.209 1.79065 -0.95203 0
M  V30 3748 C 341.542 1.87147 0.518629 0
M  V30 3749 O 340.817 1.36574 1.38484 0
M  V30 3750 C 341.1 3.23359 -1.58464 0
M  V30 3751 C 340.953 3.23336 -3.12689 0
M  V30 3752 C 342.272 4.21004 -1.28232 0
M  V30 3753 H 339.391 0.65005 -0.34728 0
M  V30 3754 H 342.033 1.23868 -1.44072 0
M  V30 3755 H 340.183 3.70493 -1.16908 0
M  V30 3756 H 341.855 2.84336 -3.6325 0
M  V30 3757 H 340.098 2.61886 -3.4583 0
M  V30 3758 H 340.769 4.25144 -3.52075 0
M  V30 3759 H 343.245 3.8233 -1.64203 0
M  V30 3760 H 342.121 5.20225 -1.75092 0
M  V30 3761 H 342.382 4.41639 -0.201791 0
M  V30 3762 N 341.441 0.965919 1.2453 0
M  V30 3763 C 342.391 0.465731 2.23193 0
M  V30 3764 C 343.375 -0.451277 1.54442 0
M  V30 3765 O 344.567 -0.282489 1.74731 0
M  V30 3766 C 341.696 -0.244511 3.42428 0
M  V30 3767 C 340.782 0.691222 4.18429 0
M  V30 3768 N 341.173 1.82771 4.71623 0
M  V30 3769 C 339.471 0.501649 4.4317 0
M  V30 3770 C 340.172 2.41285 5.29298 0
M  V30 3771 N 339.148 1.69819 5.16394 0
M  V30 3772 H 342.95 1.33291 2.61937 0
M  V30 3773 H 340.464 0.824789 1.39896 0
M  V30 3774 H 342.461 -0.620056 4.12263 0
M  V30 3775 H 341.121 -1.10815 3.05205 0
M  V30 3776 H 342.132 2.20929 4.68413 0
M  V30 3777 H 338.809 -0.318177 4.16286 0
M  V30 3778 H 340.199 3.37181 5.8117 0
M  V30 3779 N 342.919 -1.39368 0.735821 0
M  V30 3780 C 344.149 -2.04498 0.293967 0
M  V30 3781 C 344.557 -1.55593 -1.07645 0
M  V30 3782 O 343.9 -0.716324 -1.69158 0
M  V30 3783 C 343.962 -3.58836 0.218342 0
M  V30 3784 C 343.626 -4.30721 1.52736 0
M  V30 3785 C 344.623 -4.57305 2.47322 0
M  V30 3786 C 342.308 -4.69251 1.79189 0
M  V30 3787 C 344.302 -5.21429 3.66593 0
M  V30 3788 C 341.989 -5.33104 2.98737 0
M  V30 3789 C 342.987 -5.59125 3.9226 0
M  V30 3790 O 342.675 -6.21653 5.09708 0
M  V30 3791 H 342.407 -0.664118 0.126189 0
M  V30 3792 H 344.961 -1.79385 1.00051 0
M  V30 3793 H 343.191 -3.8285 -0.544314 0
M  V30 3794 H 344.88 -4.05447 -0.191626 0
M  V30 3795 H 345.646 -4.27983 2.28156 0
M  V30 3796 H 341.525 -4.48354 1.07239 0
M  V30 3797 H 345.069 -5.41656 4.39607 0
M  V30 3798 H 340.966 -5.61846 3.17803 0
M  V30 3799 H 341.734 -6.40146 5.10054 0
M  V30 3800 N 344.397 -0.483516 -1.5 0
M  V30 3801 C 345.646 0.0689102 -2.01582 0
M  V30 3802 C 345.959 1.39655 -1.36952 0
M  V30 3803 O 347.165 2.03465 -1.79762 0
M  V30 3804 C 345.621 0.173302 -3.59483 0
M  V30 3805 C 345.229 -1.14665 -4.33077 0
M  V30 3806 C 346.973 0.677024 -4.19066 0
M  V30 3807 C 344.88 -1.00537 -5.82792 0
M  V30 3808 H 343.81 0.0295277 -0.753422 0
M  V30 3809 H 346.461 -0.620295 -1.72698 0
M  V30 3810 H 344.843 0.926569 -3.85007 0
M  V30 3811 H 346.017 -1.91184 -4.19268 0
M  V30 3812 H 344.332 -1.58244 -3.85159 0
M  V30 3813 H 346.929 0.799952 -5.28682 0
M  V30 3814 H 347.272 1.67151 -3.81269 0
M  V30 3815 H 347.805 -0.0192083 -3.97795 0
M  V30 3816 H 344.544 -1.9736 -6.25083 0
M  V30 3817 H 344.064 -0.280776 -5.99142 0
M  V30 3818 H 345.743 -0.677 -6.43448 0
M  V30 3819 N 345.875 1.56104 -0.216619 0
M  V30 3820 C 346.808 2.16026 0.735395 0
M  V30 3821 C 347.786 1.1032 1.1945 0
M  V30 3822 O 348.97 1.38549 1.27814 0
M  V30 3823 C 346.097 2.73656 1.99575 0
M  V30 3824 C 345.143 3.92146 1.67702 0
M  V30 3825 S 345.976 5.29397 0.806145 0
M  V30 3826 C 347.132 5.90463 2.07617 0
M  V30 3827 H 347.365 2.96439 0.226072 0
M  V30 3828 H 344.898 1.544 -0.00136639 0
M  V30 3829 H 346.856 3.075 2.71945 0
M  V30 3830 H 345.517 1.93245 2.47619 0
M  V30 3831 H 344.71 4.30954 2.61332 0
M  V30 3832 H 344.312 3.59423 1.03398 0
M  V30 3833 H 346.604 6.06136 3.02664 0
M  V30 3834 H 347.547 6.86589 1.73207 0
M  V30 3835 H 347.955 5.19252 2.21445 0
M  V30 3836 N 347.353 -0.0568162 1.57498 0
M  V30 3837 C 348.283 -1.06593 2.0775 0
M  V30 3838 C 349.264 -1.39448 0.974082 0
M  V30 3839 O 350.449 -1.48815 1.24771 0
M  V30 3840 C 347.579 -2.37509 2.5339 0
M  V30 3841 C 346.533 -2.1897 3.67745 0
M  V30 3842 C 345.859 -3.55402 3.99492 0
M  V30 3843 C 347.159 -1.59859 4.97235 0
M  V30 3844 H 348.853 -0.647706 2.9231 0
M  V30 3845 H 346.399 -0.310116 1.40621 0
M  V30 3846 H 348.352 -3.08409 2.87162 0
M  V30 3847 H 347.076 -2.8134 1.65878 0
M  V30 3848 H 345.735 -1.50508 3.3428 0
M  V30 3849 H 345.383 -3.9683 3.09088 0
M  V30 3850 H 345.083 -3.43831 4.76502 0
M  V30 3851 H 346.607 -4.27708 4.35773 0
M  V30 3852 H 348.021 -2.20642 5.29141 0
M  V30 3853 H 346.418 -1.58942 5.78669 0
M  V30 3854 H 347.488 -0.561506 4.81638 0
M  V30 3855 N 348.832 -1.54138 -0.328536 0
M  V30 3856 C 349.782 -1.79557 -1.4051 0
M  V30 3857 C 350.766 -0.651373 -1.47126 0
M  V30 3858 O 351.958 -0.911226 -1.51742 0
M  V30 3859 C 349.087 -2.02196 -2.77438 0
M  V30 3860 C 348.173 -3.22724 -2.75155 0
M  V30 3861 N 348.564 -4.43881 -2.42494 0
M  V30 3862 C 346.862 -3.24196 -3.06289 0
M  V30 3863 C 347.563 -5.25797 -2.48822 0
M  V30 3864 N 346.539 -4.62862 -2.8506 0
M  V30 3865 H 350.341 -2.70814 -1.1418 0
M  V30 3866 H 347.855 -1.53265 -0.536991 0
M  V30 3867 H 349.852 -2.18546 -3.55026 0
M  V30 3868 H 348.512 -1.12191 -3.04702 0
M  V30 3869 H 349.523 -4.70969 -2.15428 0
M  V30 3870 H 346.2 -2.44208 -3.38627 0
M  V30 3871 H 347.59 -6.32535 -2.26603 0
M  V30 3872 N 350.31 0.590341 -1.46126 0
M  V30 3873 C 351.538 1.37504 -1.54597 0
M  V30 3874 C 351.953 1.87897 -0.184447 0
M  V30 3875 O 351.31 1.63192 0.816984 0
M  V30 3876 C 351.361 2.56779 -2.54454 0
M  V30 3877 O 351.082 2.08476 -3.85317 0
M  V30 3878 C 352.583 3.49427 -2.72792 0
M  V30 3879 H 349.803 0.420325 -0.523037 0
M  V30 3880 H 352.347 0.718383 -1.91467 0
M  V30 3881 H 350.502 3.1845 -2.20609 0
M  V30 3882 H 350.916 2.86097 -4.396 0
M  V30 3883 H 352.39 4.29619 -3.466 0
M  V30 3884 H 352.867 4.00876 -1.79429 0
M  V30 3885 H 353.473 2.93598 -3.07702 0
M  V30 3886 N 351.788 1.33704 0.83433 0
M  V30 3887 C 353.036 1.25169 1.58673 0
M  V30 3888 C 353.357 -0.18127 1.94156 0
M  V30 3889 O 352.627 -1.11113 1.6134 0
M  V30 3890 H 351.207 0.4603 0.58833 0
M  V30 3891 H 353.869 1.67478 0.996847 0
M  V30 3892 H 352.965 1.84856 2.51465 0
M  V30 3893 N 353.266 -1.05314 1.17247 0
M  V30 3894 C 354.515 -1.77685 0.954521 0
M  V30 3895 C 354.828 -1.88616 -0.518025 0
M  V30 3896 O 356.034 -2.57714 -0.854144 0
M  V30 3897 C 354.49 -3.19402 1.65863 0
M  V30 3898 C 354.098 -3.16605 3.16963 0
M  V30 3899 C 355.842 -3.96237 1.52303 0
M  V30 3900 C 353.749 -4.53103 3.80068 0
M  V30 3901 H 352.679 -0.666 0.353496 0
M  V30 3902 H 355.33 -1.1805 1.40486 0
M  V30 3903 H 353.712 -3.79355 1.13602 0
M  V30 3904 H 354.886 -2.66176 3.76148 0
M  V30 3905 H 353.201 -2.53268 3.30521 0
M  V30 3906 H 355.798 -4.97157 1.96822 0
M  V30 3907 H 356.141 -4.136 0.473401 0
M  V30 3908 H 356.674 -3.42829 2.01775 0
M  V30 3909 H 353.413 -4.40946 4.85023 0
M  V30 3910 H 352.933 -5.03686 3.2567 0
M  V30 3911 H 354.612 -5.22045 3.82202 0
M  V30 3912 N 354.744 -0.972509 -1.24016 0
M  V30 3913 C 355.677 -0.45117 -2.23696 0
M  V30 3914 C 356.655 0.477378 -1.55434 0
M  V30 3915 O 357.839 0.407647 -1.84039 0
M  V30 3916 C 354.966 0.34818 -3.36906 0
M  V30 3917 C 354.012 -0.523355 -4.23277 0
M  V30 3918 S 354.845 -1.96647 -4.98087 0
M  V30 3919 C 356.001 -1.17604 -6.14752 0
M  V30 3920 H 356.234 -1.29588 -2.67571 0
M  V30 3921 H 353.767 -0.777903 -1.33372 0
M  V30 3922 H 355.725 0.803387 -4.02562 0
M  V30 3923 H 354.386 1.16792 -2.91579 0
M  V30 3924 H 353.579 0.0906181 -5.03919 0
M  V30 3925 H 353.181 -0.914485 -3.62647 0
M  V30 3926 H 355.473 -0.433434 -6.76112 0
M  V30 3927 H 356.416 -1.95701 -6.8052 0
M  V30 3928 H 356.824 -0.698295 -5.60164 0
M  V30 3929 N 356.222 1.38976 -0.743202 0
M  V30 3930 C 357.172 2.27843 -0.084513 0
M  V30 3931 C 358.156 1.44677 0.704094 0
M  V30 3932 O 359.348 1.67511 0.571755 0
M  V30 3933 C 356.477 3.33466 0.815781 0
M  V30 3934 C 355.563 4.24095 0.0208844 0
M  V30 3935 N 355.954 4.95609 -1.0102 0
M  V30 3936 C 354.252 4.45303 0.249293 0
M  V30 3937 C 354.953 5.62287 -1.49024 0
M  V30 3938 N 353.929 5.37571 -0.807377 0
M  V30 3939 H 357.731 2.80593 -0.87436 0
M  V30 3940 H 355.245 1.51755 -0.578283 0
M  V30 3941 H 357.242 3.96008 1.30321 0
M  V30 3942 H 355.902 2.82276 1.6047 0
M  V30 3943 H 356.913 4.98849 -1.39176 0
M  V30 3944 H 353.59 4.0504 1.01237 0
M  V30 3945 H 354.98 6.29519 -2.34853 0
M  V30 3946 N 357.7 0.491464 1.49741 0
M  V30 3947 C 358.946 -0.0485431 2.03342 0
M  V30 3948 C 359.301 -1.35566 1.36527 0
M  V30 3949 O 358.594 -1.85262 0.488729 0
M  V30 3950 C 358.788 -0.267329 3.56399 0
M  V30 3951 C 358.617 1.01703 4.38049 0
M  V30 3952 C 357.387 1.56614 4.80417 0
M  V30 3953 C 359.585 1.91782 4.77204 0
M  V30 3954 N 357.567 2.7974 5.4646 0
M  V30 3955 C 358.938 2.99489 5.42868 0
M  V30 3956 C 360.993 1.92575 4.5915 0
M  V30 3957 C 359.696 4.08005 5.92389 0
M  V30 3958 C 361.722 3.0006 5.09626 0
M  V30 3959 C 361.084 4.06485 5.75282 0
M  V30 3960 H 357.183 0.0227779 0.781668 0
M  V30 3961 H 359.767 0.664204 1.8302 0
M  V30 3962 H 357.938 -0.949126 3.76625 0
M  V30 3963 H 359.67 -0.803492 3.96644 0
M  V30 3964 H 356.425 1.11256 4.60347 0
M  V30 3965 H 356.849 3.42323 5.84075 0
M  V30 3966 H 361.491 1.11605 4.07804 0
M  V30 3967 H 359.209 4.89779 6.42761 0
M  V30 3968 H 362.795 3.01681 4.97473 0
M  V30 3969 H 361.675 4.88287 6.13633 0
M  V30 3970 N 359.178 -1.55987 0.224894 0
M  V30 3971 C 360.108 -2.23426 -0.678457 0
M  V30 3972 C 361.089 -1.20709 -1.19847 0
M  V30 3973 O 362.274 -1.49304 -1.24186 0
M  V30 3974 C 359.404 -2.91676 -1.88527 0
M  V30 3975 C 358.358 -4.00893 -1.49896 0
M  V30 3976 C 357.684 -4.56455 -2.78483 0
M  V30 3977 C 358.984 -5.17769 -0.686461 0
M  V30 3978 H 360.678 -2.99175 -0.116173 0
M  V30 3979 H 358.224 -1.43897 -0.054436 0
M  V30 3980 H 360.177 -3.37547 -2.5227 0
M  V30 3981 H 358.901 -2.1338 -2.47258 0
M  V30 3982 H 357.56 -3.55758 -0.884985 0
M  V30 3983 H 357.208 -3.74886 -3.35365 0
M  V30 3984 H 356.908 -5.30169 -2.53368 0
M  V30 3985 H 358.432 -5.05047 -3.43162 0
M  V30 3986 H 359.846 -5.60001 -1.22767 0
M  V30 3987 H 358.243 -5.97735 -0.532259 0
M  V30 3988 H 359.313 -4.83932 0.306196 0
M  V30 3989 N 360.656 0.0484629 -1.57525 0
M  V30 3990 C 361.884 0.755421 -1.92616 0
M  V30 3991 C 362.299 1.69919 -0.822984 0
M  V30 3992 O 361.656 1.81378 0.202085 0
M  V30 3993 C 361.707 1.52915 -3.27566 0
M  V30 3994 O 361.428 0.62329 -4.33644 0
M  V30 3995 C 362.929 2.33502 -3.76818 0
M  V30 3996 H 360.149 0.213465 -0.63614 0
M  V30 3997 H 362.693 0.0117698 -2.04497 0
M  V30 3998 H 360.848 2.22486 -3.17142 0
M  V30 3999 H 361.262 1.16383 -5.11425 0
M  V30 4000 H 362.736 2.83214 -4.73808 0
M  V30 4001 H 363.213 3.14068 -3.07014 0
M  V30 4002 H 363.819 1.69043 -3.90262 0
M  V30 4003 N 362.134 1.5431 0.320358 0
M  V30 4004 C 363.044 1.86946 1.41734 0
M  V30 4005 C 364.06 0.761689 1.56443 0
M  V30 4006 O 365.236 1.05629 1.71477 0
M  V30 4007 C 362.301 2.09293 2.76401 0
M  V30 4008 C 361.362 3.33082 2.70841 0
M  V30 4009 C 360.595 3.54353 3.99086 0
M  V30 4010 O 360.818 2.79002 4.97508 0
M  V30 4011 O 359.752 4.47838 4.0215 0
M  V30 4012 H 363.578 2.80232 1.17062 0
M  V30 4013 H 361.163 1.40255 0.514673 0
M  V30 4014 H 363.045 2.25303 3.56113 0
M  V30 4015 H 361.72 1.19194 3.00956 0
M  V30 4016 H 360.627 3.22454 1.89668 0
M  V30 4017 H 361.96 4.23249 2.5124 0
M  V30 4018 N 363.613 -0.582584 1.46437 0
M  V30 4019 C 364.543 -1.70187 1.59871 0
M  V30 4020 C 365.524 -1.64066 0.449042 0
M  V30 4021 O 366.709 -1.82081 0.6753 0
M  V30 4022 C 363.839 -3.08827 1.58881 0
M  V30 4023 C 362.793 -3.29779 2.72819 0
M  V30 4024 C 362.119 -4.68947 2.5689 0
M  V30 4025 C 363.419 -3.17601 4.1464 0
M  V30 4026 H 365.113 -1.592 2.53566 0
M  V30 4027 H 362.659 -0.764472 1.22032 0
M  V30 4028 H 364.612 -3.86951 1.66873 0
M  V30 4029 H 363.336 -3.20713 0.617306 0
M  V30 4030 H 361.995 -2.54054 2.64296 0
M  V30 4031 H 361.643 -4.77599 1.57823 0
M  V30 4032 H 361.343 -4.83919 3.33312 0
M  V30 4033 H 362.867 -5.4924 2.66773 0
M  V30 4034 H 364.281 -3.8557 4.24274 0
M  V30 4035 H 362.678 -3.44094 4.9165 0
M  V30 4036 H 363.748 -2.14681 4.34788 0
M  V30 4037 N 365.091 -1.34144 -0.827227 0
M  V30 4038 C 366.001 -1.27428 -1.96975 0
M  V30 4039 C 367.017 -0.182728 -1.73038 0
M  V30 4040 O 368.193 -0.408426 -1.97215 0
M  V30 4041 C 365.258 -1.02526 -3.31194 0
M  V30 4042 C 364.319 -2.20796 -3.68168 0
M  V30 4043 C 363.552 -1.97073 -4.95982 0
M  V30 4044 O 363.775 -0.926822 -5.6282 0
M  V30 4045 O 362.709 -2.83912 -5.30733 0
M  V30 4046 H 366.535 -2.23537 -2.05584 0
M  V30 4047 H 364.12 -1.14307 -0.961989 0
M  V30 4048 H 366.002 -0.904026 -4.11589 0
M  V30 4049 H 364.677 -0.0945389 -3.23562 0
M  V30 4050 H 363.584 -2.38477 -2.88235 0
M  V30 4051 H 364.917 -3.12243 -3.8048 0
M  V30 4052 N 366.569 1.04691 -1.17803 0
M  V30 4053 C 367.818 1.77176 -0.963931 0
M  V30 4054 C 368.131 1.88888 0.508015 0
M  V30 4055 O 369.337 2.58164 0.840465 0
M  V30 4056 C 367.793 3.18518 -1.67555 0
M  V30 4057 C 367.401 3.14919 -3.18637 0
M  V30 4058 C 369.145 3.95424 -1.54402 0
M  V30 4059 C 367.052 4.51081 -3.82466 0
M  V30 4060 H 365.982 0.664116 -0.357023 0
M  V30 4061 H 368.633 1.17303 -1.4111 0
M  V30 4062 H 367.015 3.78748 -1.15613 0
M  V30 4063 H 368.189 2.64178 -3.77554 0
M  V30 4064 H 366.504 2.51512 -3.31859 0
M  V30 4065 H 369.101 4.96106 -1.99456 0
M  V30 4066 H 369.444 4.13343 -0.495329 0
M  V30 4067 H 369.977 3.41754 -2.0359 0
M  V30 4068 H 366.716 4.38368 -4.87354 0
M  V30 4069 H 366.236 5.01951 -3.28337 0
M  V30 4070 H 367.915 5.2001 -3.84965 0
M  V30 4071 N 368.047 0.979072 1.23499 0
M  V30 4072 C 368.977 0.537606 2.27227 0
M  V30 4073 C 369.958 -0.428539 1.64613 0
M  V30 4074 O 371.143 -0.322191 1.91509 0
M  V30 4075 C 368.273 -0.162052 3.46922 0
M  V30 4076 C 367.227 0.721242 4.21879 0
M  V30 4077 C 366.553 -0.110555 5.34586 0
M  V30 4078 C 367.853 2.01141 4.82016 0
M  V30 4079 H 369.547 1.40462 2.64406 0
M  V30 4080 H 367.093 0.67684 1.27102 0
M  V30 4081 H 369.046 -0.482192 4.18632 0
M  V30 4082 H 367.77 -1.06351 3.08799 0
M  V30 4083 H 366.429 1.02482 3.51984 0
M  V30 4084 H 366.077 -1.0125 4.92704 0
M  V30 4085 H 365.777 0.477325 5.85658 0
M  V30 4086 H 367.301 -0.425107 6.09118 0
M  V30 4087 H 368.715 1.75612 5.45741 0
M  V30 4088 H 367.112 2.54695 5.43369 0
M  V30 4089 H 368.182 2.69909 4.02836 0
M  V30 4090 N 369.525 -1.3858 0.750561 0
M  V30 4091 C 370.488 -2.28836 0.129152 0
M  V30 4092 C 371.488 -1.47045 -0.650714 0
M  V30 4093 O 372.678 -1.6753 -0.477428 0
M  V30 4094 C 369.81 -3.30751 -0.825622 0
M  V30 4095 H 371.003 -2.85294 0.924516 0
M  V30 4096 H 368.556 -1.47489 0.517376 0
M  V30 4097 H 369.291 -2.79378 -1.64677 0
M  V30 4098 H 369.076 -3.91177 -0.268852 0
M  V30 4099 H 370.566 -3.98249 -1.2565 0
M  V30 4100 N 371.003 -0.499398 -1.49478 0
M  V30 4101 C 371.936 0.326491 -2.25852 0
M  V30 4102 C 372.914 0.971776 -1.30366 0
M  V30 4103 O 374.098 1.00219 -1.59651 0
M  V30 4104 C 371.225 1.45969 -3.05632 0
M  V30 4105 C 370.271 0.928938 -4.16261 0
M  V30 4106 S 371.104 -0.179012 -5.35201 0
M  V30 4107 C 372.26 0.957389 -6.18534 0
M  V30 4108 H 372.493 -0.321746 -2.95554 0
M  V30 4109 H 370.026 -0.284674 -1.51753 0
M  V30 4110 H 371.984 2.109 -3.52181 0
M  V30 4111 H 370.645 2.07953 -2.35402 0
M  V30 4112 H 369.838 1.77813 -4.71592 0
M  V30 4113 H 369.44 0.356869 -3.72293 0
M  V30 4114 H 371.732 1.86296 -6.51383 0
M  V30 4115 H 372.675 0.442733 -7.06715 0
M  V30 4116 H 373.083 1.224 -5.5107 0
M  V30 4117 N 372.481 1.55866 -0.233164 0
M  V30 4118 C 373.727 1.98897 0.395959 0
M  V30 4119 C 374.06 1.12091 1.58585 0
M  V30 4120 O 373.335 0.181182 1.93654 0
M  V30 4121 C 373.618 3.50658 0.819224 0
M  V30 4122 C 373.471 4.48233 -0.375109 0
M  V30 4123 C 374.79 4.07135 1.67121 0
M  V30 4124 H 371.909 0.723102 0.142451 0
M  V30 4125 H 374.551 1.87082 -0.331725 0
M  V30 4126 H 372.701 3.60857 1.43925 0
M  V30 4127 H 374.373 4.50031 -1.01341 0
M  V30 4128 H 372.616 4.21624 -1.02058 0
M  V30 4129 H 373.287 5.51988 -0.0358328 0
M  V30 4130 H 375.763 3.99952 1.14795 0
M  V30 4131 H 374.639 5.13615 1.93625 0
M  V30 4132 H 374.9 3.54736 2.63846 0
M  V30 4133 N 373.959 -0.0401083 1.57549 0
M  V30 4134 C 375.206 -0.733125 1.88763 0
M  V30 4135 C 375.534 -1.75946 0.829058 0
M  V30 4136 O 374.789 -1.94949 -0.171323 0
M  V30 4137 C 375.088 -1.44902 3.26708 0
M  V30 4138 C 374.754 -0.559707 4.47413 0
M  V30 4139 C 373.416 -0.314731 4.8017 0
M  V30 4140 C 375.768 0.0549743 5.21171 0
M  V30 4141 C 373.096 0.553886 5.8408 0
M  V30 4142 C 375.448 0.911229 6.26003 0
M  V30 4143 C 374.112 1.16577 6.57241 0
M  V30 4144 H 373.382 -0.268269 0.690733 0
M  V30 4145 H 376.029 0.00679408 1.91499 0
M  V30 4146 H 374.334 -2.26197 3.1991 0
M  V30 4147 H 376.031 -1.99058 3.48105 0
M  V30 4148 H 372.621 -0.760793 4.21794 0
M  V30 4149 H 376.805 -0.121344 4.96152 0
M  V30 4150 H 372.061 0.759518 6.06664 0
M  V30 4151 H 376.235 1.3941 6.82303 0
M  V30 4152 H 373.862 1.84058 7.37582 0
M  V30 4153 N 375.437 -1.54477 -0.31217 0
M  V30 4154 C 376.4 -1.83923 -1.36766 0
M  V30 4155 C 377.4 -0.711563 -1.44199 0
M  V30 4156 O 378.59 -0.979866 -1.44029 0
M  V30 4157 C 375.722 -2.0095 -2.75376 0
M  V30 4158 H 376.915 -2.78239 -1.11906 0
M  V30 4159 H 374.468 -1.46369 -0.548257 0
M  V30 4160 H 375.203 -1.08883 -3.05475 0
M  V30 4161 H 374.988 -2.83018 -2.71373 0
M  V30 4162 H 376.478 -2.2514 -3.51713 0
M  V30 4163 N 376.915 0.57481 -1.46744 0
M  V30 4164 C 377.878 1.66533 -1.57478 0
M  V30 4165 C 378.878 1.54338 -0.451263 0
M  V30 4166 O 380.068 1.58814 -0.715813 0
M  V30 4167 C 377.2 3.05999 -1.50259 0
M  V30 4168 H 378.393 1.58372 -2.54673 0
M  V30 4169 H 375.946 0.793301 -1.34672 0
M  V30 4170 H 376.681 3.19709 -0.543725 0
M  V30 4171 H 376.466 3.16259 -2.31781 0
M  V30 4172 H 377.956 3.8537 -1.60872 0
M  V30 4173 N 378.394 1.34581 0.820102 0
M  V30 4174 C 379.357 1.2628 1.91275 0
M  V30 4175 C 380.357 0.177344 1.59819 0
M  V30 4176 O 381.547 0.430156 1.68806 0
M  V30 4177 C 378.679 0.950327 3.27386 0
M  V30 4178 H 379.872 2.23421 2.00057 0
M  V30 4179 H 377.425 1.1891 1.0144 0
M  V30 4180 H 378.16 -0.0177938 3.24295 0
M  V30 4181 H 377.945 1.73549 3.51601 0
M  V30 4182 H 379.435 0.917492 4.07396 0
M  V30 4183 N 379.872 -1.04064 1.18357 0
M  V30 4184 C 381.121 -1.76662 0.973313 0
M  V30 4185 C 381.434 -1.89154 -0.497991 0
M  V30 4186 O 382.64 -2.58606 -0.826762 0
M  V30 4187 C 381.096 -3.17624 1.69242 0
M  V30 4188 C 380.704 -3.13225 3.20303 0
M  V30 4189 C 382.448 -3.946 1.56497 0
M  V30 4190 C 380.355 -4.49046 3.84853 0
M  V30 4191 H 379.285 -0.662214 0.36054 0
M  V30 4192 H 381.936 -1.16553 1.41731 0
M  V30 4193 H 380.318 -3.78129 1.1762 0
M  V30 4194 H 381.492 -2.62172 3.78949 0
M  V30 4195 H 379.807 -2.49749 3.33189 0
M  V30 4196 H 382.404 -4.95042 2.02084 0
M  V30 4197 H 382.747 -4.13074 0.517243 0
M  V30 4198 H 383.28 -3.4067 2.05399 0
M  V30 4199 H 380.019 -4.35777 4.89672 0
M  V30 4200 H 379.539 -5.00203 3.30994 0
M  V30 4201 H 381.218 -5.17961 3.87718 0
M  V30 4202 N 381.35 -0.985608 -1.22978 0
M  V30 4203 C 382.3 -0.50118 -2.22423 0
M  V30 4204 C 383.284 0.426649 -1.5514 0
M  V30 4205 O 384.476 0.254656 -1.75159 0
M  V30 4206 C 381.605 0.190003 -3.42774 0
M  V30 4207 C 380.691 -0.757703 -4.17276 0
M  V30 4208 N 381.082 -1.90251 -4.68656 0
M  V30 4209 C 379.38 -0.57209 -4.42316 0
M  V30 4210 C 380.081 -2.49676 -5.25392 0
M  V30 4211 N 379.057 -1.78013 -5.13627 0
M  V30 4212 H 382.859 -1.37441 -2.59783 0
M  V30 4213 H 380.373 -0.846941 -1.38567 0
M  V30 4214 H 382.37 0.55439 -4.13197 0
M  V30 4215 H 381.03 1.05946 -3.06929 0
M  V30 4216 H 382.041 -2.28354 -4.64839 0
M  V30 4217 H 378.718 0.251909 -4.16739 0
M  V30 4218 H 380.108 -3.46384 -5.75732 0
M  V30 4219 N 382.828 1.3818 -0.7579 0
M  V30 4220 C 384.105 1.94106 -0.241306 0
M  V30 4221 C 384.485 1.69282 1.26122 0
M  V30 4222 O 383.833 1.03378 2.03777 0
M  V30 4223 C 384.043 3.43809 -0.59967 0
M  V30 4224 C 385.391 4.20868 -0.561717 0
M  V30 4225 O 386.415 3.5211 -0.538222 0
M  V30 4226 O 385.274 5.43451 -0.576478 0
M  V30 4227 H 382.368 0.825376 -0.0518042 0
M  V30 4228 H 384.914 1.47548 -0.838315 0
M  V30 4229 H 383.686 3.55403 -1.6372 0
M  V30 4230 H 383.309 3.97592 0.0251197 0
M  V30 4231 N 384.306 0.507319 1.49211 0
M  V30 4232 C 385.536 -0.0315292 2.06576 0
M  V30 4233 C 385.944 -1.30791 1.36713 0
M  V30 4234 O 385.287 -1.78324 0.441181 0
M  V30 4235 C 385.349 -0.349104 3.57801 0
M  V30 4236 C 385.013 0.830475 4.49391 0
M  V30 4237 C 386.01 1.72271 4.90529 0
M  V30 4238 C 383.695 1.03107 4.91604 0
M  V30 4239 C 385.689 2.79964 5.72625 0
M  V30 4240 C 383.376 2.11116 5.73475 0
M  V30 4241 C 384.374 2.99379 6.1389 0
M  V30 4242 O 384.062 4.05523 6.94123 0
M  V30 4243 H 383.794 0.0201002 0.675701 0
M  V30 4244 H 386.348 0.705737 1.92895 0
M  V30 4245 H 384.578 -1.14005 3.69513 0
M  V30 4246 H 386.267 -0.827319 3.97379 0
M  V30 4247 H 387.033 1.57958 4.58557 0
M  V30 4248 H 382.912 0.353417 4.59643 0
M  V30 4249 H 386.456 3.48884 6.04091 0
M  V30 4250 H 382.353 2.25421 6.0486 0
M  V30 4251 H 383.121 4.02953 7.1244 0
M  V30 4252 N 385.784 -1.5574 0.241426 0
M  V30 4253 C 386.694 -2.2479 -0.671305 0
M  V30 4254 C 387.71 -1.26217 -1.19772 0
M  V30 4255 O 388.886 -1.59079 -1.23514 0
M  V30 4256 C 385.951 -2.92966 -1.85396 0
M  V30 4257 C 385.012 -4.06935 -1.36756 0
M  V30 4258 C 384.245 -4.71851 -2.49384 0
M  V30 4259 O 384.468 -4.35823 -3.67987 0
M  V30 4260 O 383.402 -5.60467 -2.19454 0
M  V30 4261 H 387.228 -3.0349 -0.112966 0
M  V30 4262 H 384.813 -1.49397 0.0101513 0
M  V30 4263 H 386.695 -3.35927 -2.54423 0
M  V30 4264 H 385.37 -2.17211 -2.40002 0
M  V30 4265 H 384.277 -3.68503 -0.644726 0
M  V30 4266 H 385.61 -4.84492 -0.867647 0
M  V30 4267 N 387.262 0.0317525 -1.57568 0
M  V30 4268 C 388.212 1.04101 -2.02847 0
M  V30 4269 C 389.196 1.3219 -0.917317 0
M  V30 4270 O 390.388 1.31819 -1.18121 0
M  V30 4271 C 387.517 2.34295 -2.5092 0
M  V30 4272 C 386.603 2.09308 -3.68851 0
M  V30 4273 N 386.994 1.5437 -4.81667 0
M  V30 4274 C 385.292 2.39604 -3.76172 0
M  V30 4275 C 385.993 1.45126 -5.63306 0
M  V30 4276 N 384.969 1.92589 -5.08341 0
M  V30 4277 H 388.771 0.610217 -2.87495 0
M  V30 4278 H 386.285 0.238108 -1.60645 0
M  V30 4279 H 388.282 3.07404 -2.81617 0
M  V30 4280 H 386.942 2.78055 -1.67677 0
M  V30 4281 H 387.953 1.22678 -5.03161 0
M  V30 4282 H 384.63 2.86457 -3.03724 0
M  V30 4283 H 386.02 1.03163 -6.63933 0
M  V30 4284 N 388.74 1.54641 0.303973 0
M  V30 4285 C 389.968 1.77768 1.05858 0
M  V30 4286 C 390.383 0.535722 1.8104 0
M  V30 4287 O 389.74 -0.494337 1.75677 0
M  V30 4288 C 389.791 2.9834 2.04146 0
M  V30 4289 O 389.512 4.17736 1.32015 0
M  V30 4290 C 391.013 3.33832 2.91669 0
M  V30 4291 H 388.233 0.592961 0.314067 0
M  V30 4292 H 390.777 2.01583 0.344149 0
M  V30 4293 H 388.932 2.76742 2.71096 0
M  V30 4294 H 389.346 4.85693 1.97998 0
M  V30 4295 H 390.82 4.21448 3.56491 0
M  V30 4296 H 391.297 2.51857 3.59812 0
M  V30 4297 H 391.903 3.57579 2.30254 0
M  V30 4298 N 390.218 -0.567019 1.47046 0
M  V30 4299 C 391.466 -1.322 1.52864 0
M  V30 4300 C 391.787 -1.94088 0.188388 0
M  V30 4301 O 391.057 -1.7941 -0.786693 0
M  V30 4302 H 389.637 -0.490894 0.563056 0
M  V30 4303 H 392.299 -0.662879 1.83281 0
M  V30 4304 H 391.395 -2.12062 2.2899 0
M  V30 4305 N 391.696 -1.35014 -0.812953 0
M  V30 4306 C 392.924 -1.31031 -1.6012 0
M  V30 4307 C 393.339 0.113558 -1.88458 0
M  V30 4308 O 392.696 1.06363 -1.48301 0
M  V30 4309 C 392.747 -2.10872 -2.93624 0
M  V30 4310 O 392.468 -3.47706 -2.66518 0
M  V30 4311 C 393.969 -2.14401 -3.88004 0
M  V30 4312 H 391.189 -0.45037 -0.497401 0
M  V30 4313 H 393.733 -1.77775 -1.01076 0
M  V30 4314 H 391.888 -1.67744 -3.492 0
M  V30 4315 H 392.302 -3.89097 -3.51715 0
M  V30 4316 H 393.776 -2.74669 -4.78812 0
M  V30 4317 H 394.253 -1.14105 -4.24119 0
M  V30 4318 H 394.859 -2.57662 -3.38364 0
M  V30 4319 N 393.175 1.03435 -1.18907 0
M  V30 4320 C 394.403 1.80381 -1.01342 0
M  V30 4321 C 394.818 1.83649 0.438005 0
M  V30 4322 O 394.175 1.27655 1.30424 0
M  V30 4323 C 394.226 3.25689 -1.56873 0
M  V30 4324 O 393.947 3.22673 -2.96334 0
M  V30 4325 C 395.448 4.19255 -1.44014 0
M  V30 4326 H 392.668 0.56784 -0.35749 0
M  V30 4327 H 395.212 1.30317 -1.576 0
M  V30 4328 H 393.367 3.72962 -1.04777 0
M  V30 4329 H 393.781 4.13748 -3.22355 0
M  V30 4330 H 395.255 5.19123 -1.87657 0
M  V30 4331 H 395.732 4.37467 -0.389815 0
M  V30 4332 H 396.338 3.77851 -1.95214 0
M  V30 4333 N 394.653 0.992116 1.22453 0
M  V30 4334 C 395.601 0.534644 2.26372 0
M  V30 4335 C 396.595 -0.414293 1.64256 0
M  V30 4336 O 397.801 -0.286899 1.77699 0
M  V30 4337 H 394.176 0.154502 0.735957 0
M  V30 4338 H 396.147 1.42256 2.62309 0
M  V30 4339 C 394.896 -0.135815 3.47435 0
M  V30 4340 H 394.219 0.585311 3.95492 0
M  V30 4341 H 395.659 -0.419374 4.21921 0
M  V30 4342 C 394.118 -1.37089 3.07747 0
M  V30 4343 O 394.648 -2.46629 3.17076 0
M  V30 4344 N 392.854 -1.24585 2.62539 0
M  V30 4345 H 392.401 -0.354542 2.55149 0
M  V30 4346 H 392.359 -2.07327 2.36353 0
M  V30 4347 N 396.131 -1.37776 0.765217 0
M  V30 4348 C 397.079 -2.32209 0.134798 0
M  V30 4349 C 398.073 -1.54607 -0.692315 0
M  V30 4350 O 399.279 -1.70052 -0.590109 0
M  V30 4351 H 395.654 -0.751591 0.0248005 0
M  V30 4352 H 397.625 -2.8297 0.947119 0
M  V30 4353 C 396.374 -3.39841 -0.735063 0
M  V30 4354 H 395.697 -3.99654 -0.107991 0
M  V30 4355 H 397.137 -4.08296 -1.14326 0
M  V30 4356 C 395.596 -2.79378 -1.88281 0
M  V30 4357 O 396.126 -2.69608 -2.97783 0
M  V30 4358 N 394.332 -2.37016 -1.68142 0
M  V30 4359 H 393.879 -2.45162 -0.790772 0
M  V30 4360 H 393.837 -1.96905 -2.45104 0
M  V30 4361 N 397.609 -0.515225 -1.4894 0
M  V30 4362 C 398.856 0.024215 -2.02486 0
M  V30 4363 C 399.184 1.35671 -1.39368 0
M  V30 4364 O 398.439 1.88566 -0.523574 0
M  V30 4365 C 398.738 0.210595 -3.56779 0
M  V30 4366 C 398.404 -1.04569 -4.38607 0
M  V30 4367 C 397.066 -1.39002 -4.60686 0
M  V30 4368 C 399.418 -1.88008 -4.86109 0
M  V30 4369 C 396.746 -2.568 -5.27514 0
M  V30 4370 C 399.098 -3.04972 -5.54234 0
M  V30 4371 C 397.762 -3.39768 -5.74555 0
M  V30 4372 H 397.032 0.00886088 -0.740947 0
M  V30 4373 H 399.679 -0.678263 -1.79086 0
M  V30 4374 H 397.984 0.99572 -3.78936 0
M  V30 4375 H 399.681 0.642659 -3.95817 0
M  V30 4376 H 396.271 -0.767497 -4.21672 0
M  V30 4377 H 400.455 -1.62719 -4.68867 0
M  V30 4378 H 395.711 -2.8398 -5.41447 0
M  V30 4379 H 399.885 -3.69943 -5.90013 0
M  V30 4380 H 397.512 -4.31148 -6.26112 0
M  V30 4381 N 399.087 1.5561 -0.249682 0
M  V30 4382 C 400.037 2.18157 0.662673 0
M  V30 4383 C 401.021 1.1383 1.13717 0
M  V30 4384 O 402.213 1.39731 1.08648 0
M  V30 4385 C 399.342 2.88672 1.85805 0
M  V30 4386 C 398.428 4.00258 1.40193 0
M  V30 4387 N 398.819 5.01473 0.660213 0
M  V30 4388 C 397.117 4.12864 1.68698 0
M  V30 4389 C 397.818 5.80155 0.423695 0
M  V30 4390 N 396.794 5.34533 0.988721 0
M  V30 4391 H 400.596 2.93769 0.0878688 0
M  V30 4392 H 398.11 1.62316 -0.0521183 0
M  V30 4393 H 400.107 3.31912 2.5227 0
M  V30 4394 H 398.767 2.14564 2.43705 0
M  V30 4395 H 399.778 5.16971 0.310047 0
M  V30 4396 H 396.455 3.4993 2.27717 0
M  V30 4397 H 397.845 6.71688 -0.168616 0
M  V30 4398 N 400.565 -0.0233959 1.57583 0
M  V30 4399 C 401.814 -0.712133 1.8871 0
M  V30 4400 C 402.127 -1.76217 0.848944 0
M  V30 4401 O 403.333 -2.50389 1.04964 0
M  V30 4402 C 401.789 -1.3177 3.3491 0
M  V30 4403 C 401.397 -0.303715 4.46969 0
M  V30 4404 C 403.141 -1.98598 3.75179 0
M  V30 4405 C 401.048 -0.917945 5.84233 0
M  V30 4406 H 399.978 -0.269735 0.704101 0
M  V30 4407 H 402.629 0.0333114 1.8347 0
M  V30 4408 H 401.011 -2.11304 3.34913 0
M  V30 4409 H 402.185 0.465325 4.58445 0
M  V30 4410 H 400.5 0.2628 4.1557 0
M  V30 4411 H 403.097 -2.45416 4.75053 0
M  V30 4412 H 403.44 -2.80659 3.07468 0
M  V30 4413 H 403.973 -1.25831 3.77374 0
M  V30 4414 H 400.712 -0.136633 6.55358 0
M  V30 4415 H 400.232 -1.65669 5.76467 0
M  V30 4416 H 401.911 -1.4236 6.31144 0
M  V30 4417 N 402.043 -1.548 -0.295768 0
M  V30 4418 C 402.975 -1.82492 -1.3867 0
M  V30 4419 C 403.988 -0.708134 -1.46592 0
M  V30 4420 O 405.177 -0.985686 -1.48817 0
M  V30 4421 C 402.277 -1.95256 -2.76999 0
M  V30 4422 C 401.45 -3.25709 -2.91946 0
M  V30 4423 C 400.509 -3.28824 -4.10806 0
M  V30 4424 O 399.535 -4.02328 -4.02643 0
M  V30 4425 N 400.737 -2.5459 -5.21694 0
M  V30 4426 H 403.502 -2.76646 -1.15269 0
M  V30 4427 H 401.063 -1.54438 -0.485849 0
M  V30 4428 H 403.055 -1.94736 -3.54768 0
M  V30 4429 H 401.625 -1.08072 -2.93324 0
M  V30 4430 H 400.845 -3.38959 -2.01247 0
M  V30 4431 H 402.133 -4.11786 -2.98847 0
M  V30 4432 H 401.531 -1.94512 -5.31208 0
M  V30 4433 H 400.088 -2.59818 -5.97778 0
M  V30 4434 N 403.521 0.559213 -1.47345 0
M  V30 4435 C 404.749 1.34194 -1.57479 0
M  V30 4436 C 405.164 1.87463 -0.224261 0
M  V30 4437 O 404.521 1.64888 0.782185 0
M  V30 4438 C 404.572 2.51324 -2.59843 0
M  V30 4439 O 404.293 2.00256 -3.89653 0
M  V30 4440 C 405.794 3.43563 -2.80142 0
M  V30 4441 H 403.014 0.409136 -0.531835 0
M  V30 4442 H 405.558 0.677609 -1.92947 0
M  V30 4443 H 403.713 3.13699 -2.27314 0
M  V30 4444 H 404.127 2.76708 -4.4557 0
M  V30 4445 H 405.601 4.2217 -3.55635 0
M  V30 4446 H 406.078 3.9698 -1.87892 0
M  V30 4447 H 406.684 2.87005 -3.1386 0
M  V30 4448 N 404.999 1.35443 0.805782 0
M  V30 4449 C 406.415 1.15499 1.10146 0
M  V30 4450 C 406.615 -0.0319975 2.01475 0
M  V30 4451 O 405.671 -0.70236 2.42535 0
M  V30 4452 C 406.984 2.45833 1.73166 0
M  V30 4453 C 408.532 2.52047 1.85583 0
M  V30 4454 C 409.007 3.82427 2.52019 0
M  V30 4455 N 410.498 3.83682 2.59504 0
M  V30 4456 C 411.233 4.81294 3.11679 0
M  V30 4457 N 410.729 5.89294 3.64287 0
M  V30 4458 N 412.522 4.6873 3.1024 0
M  V30 4459 H 404.673 2.11469 0.198678 0
M  V30 4460 H 406.936 0.93594 0.150731 0
M  V30 4461 H 406.642 3.32874 1.13526 0
M  V30 4462 H 406.516 2.6044 2.72857 0
M  V30 4463 H 408.903 1.65435 2.44367 0
M  V30 4464 H 408.984 2.41354 0.847455 0
M  V30 4465 H 408.628 4.69437 1.93885 0
M  V30 4466 H 408.558 3.90409 3.53395 0
M  V30 4467 H 411.049 3.05648 2.22234 0
M  V30 4468 H 411.362 6.59768 4.02401 0
M  V30 4469 H 409.707 5.92985 3.62483 0
M  V30 4470 H 412.898 3.83496 2.68419 0
M  V30 4471 H 413.071 5.44965 3.50596 0
M  V30 4472 N 406.477 -1.02803 1.19454 0
M  V30 4473 C 407.702 -1.80378 1.02364 0
M  V30 4474 C 408.127 -1.83282 -0.423007 0
M  V30 4475 O 407.485 -1.25945 -1.30413 0
M  V30 4476 C 407.533 -3.23248 1.59821 0
M  V30 4477 O 406.637 -4.04 0.828105 0
M  V30 4478 H 405.978 -0.556799 0.361761 0
M  V30 4479 H 408.508 -1.29385 1.58495 0
M  V30 4480 H 408.518 -3.73994 1.63073 0
M  V30 4481 H 407.193 -3.2045 2.65113 0
M  V30 4482 H 405.77 -3.62635 0.86891 0
M  V30 4483 N 407.956 -0.998596 -1.21925 0
M  V30 4484 C 409.233 -0.593401 -1.86382 0
M  V30 4485 C 409.613 0.92916 -1.89552 0
M  V30 4486 O 408.961 1.81347 -1.39017 0
M  V30 4487 C 409.171 -1.22039 -3.26967 0
M  V30 4488 C 410.519 -1.32449 -4.03413 0
M  V30 4489 O 411.543 -1.17522 -3.36254 0
M  V30 4490 O 410.402 -1.56395 -5.23644 0
M  V30 4491 H 407.496 -0.202385 -0.801854 0
M  V30 4492 H 410.042 -1.09484 -1.29659 0
M  V30 4493 H 408.814 -2.26158 -3.19325 0
M  V30 4494 H 408.437 -0.704906 -3.91301 0
M  V30 4495 N 409.434 1.37368 -0.772513 0
M  V30 4496 C 410.68 1.99969 -0.337681 0
M  V30 4497 C 411.013 1.61184 1.08321 0
M  V30 4498 O 410.288 0.858395 1.74533 0
M  V30 4499 C 410.571 3.56858 -0.482121 0
M  V30 4500 C 410.424 4.0555 -1.94549 0
M  V30 4501 C 411.743 4.39955 0.113143 0
M  V30 4502 H 408.862 0.726464 -0.124171 0
M  V30 4503 H 411.504 1.63034 -0.975699 0
M  V30 4504 H 409.654 3.88452 0.0610361 0
M  V30 4505 H 411.326 3.84518 -2.54841 0
M  V30 4506 H 409.569 3.57715 -2.45403 0
M  V30 4507 H 410.24 5.14587 -1.9976 0
M  V30 4508 H 412.716 4.14623 -0.35031 0
M  V30 4509 H 411.592 5.48897 -0.0180514 0
M  V30 4510 H 411.853 4.25403 1.20354 0
M  V30 4511 N 410.912 0.523116 1.48665 0
M  V30 4512 C 411.875 -0.232592 2.28017 0
M  V30 4513 C 412.875 -0.874021 1.34972 0
M  V30 4514 O 414.065 -0.735132 1.57929 0
M  V30 4515 C 411.197 -1.33586 3.13636 0
M  V30 4516 H 412.39 0.464008 2.96289 0
M  V30 4517 H 409.943 0.278816 1.53793 0
M  V30 4518 H 410.678 -2.06593 2.4998 0
M  V30 4519 H 410.463 -0.881125 3.82071 0
M  V30 4520 H 411.953 -1.86759 3.73511 0
M  V30 4521 N 412.39 -1.55475 0.257931 0
M  V30 4522 C 413.639 -1.98383 -0.364275 0
M  V30 4523 C 413.952 -1.14952 -1.58258 0
M  V30 4524 O 415.158 -1.47924 -2.27664 0
M  V30 4525 C 413.614 -3.53037 -0.699479 0
M  V30 4526 C 413.222 -4.45223 0.498046 0
M  V30 4527 C 414.966 -4.04575 -1.28526 0
M  V30 4528 C 412.873 -5.91238 0.138383 0
M  V30 4529 H 411.803 -0.740911 -0.13988 0
M  V30 4530 H 414.454 -1.79936 0.359883 0
M  V30 4531 H 412.836 -3.6722 -1.48207 0
M  V30 4532 H 414.01 -4.42803 1.27522 0
M  V30 4533 H 412.325 -4.04226 0.999503 0
M  V30 4534 H 414.922 -5.11196 -1.56788 0
M  V30 4535 H 415.265 -3.5258 -2.21344 0
M  V30 4536 H 415.798 -3.93762 -0.565337 0
M  V30 4537 H 412.537 -6.47294 1.03398 0
M  V30 4538 H 412.057 -5.96768 -0.602374 0
M  V30 4539 H 413.736 -6.46413 -0.27553 0
M  V30 4540 N 413.868 0.0150385 -1.57593 0
M  V30 4541 C 414.798 1.01047 -2.10503 0
M  V30 4542 C 415.779 1.36816 -1.01071 0
M  V30 4543 O 416.964 1.45455 -1.28672 0
M  V30 4544 C 414.094 2.30708 -2.59598 0
M  V30 4545 C 413.048 2.09142 -3.73421 0
M  V30 4546 C 412.374 3.44685 -4.08774 0
M  V30 4547 C 413.674 1.46619 -5.01298 0
M  V30 4548 H 415.368 0.569978 -2.93925 0
M  V30 4549 H 412.914 0.272724 -1.41394 0
M  V30 4550 H 414.867 3.00687 -2.95238 0
M  V30 4551 H 413.591 2.76843 -1.73279 0
M  V30 4552 H 412.25 1.41592 -3.38153 0
M  V30 4553 H 411.898 3.88495 -3.195 0
M  V30 4554 H 411.598 3.31077 -4.8545 0
M  V30 4555 H 413.122 4.16004 -4.4696 0
M  V30 4556 H 414.536 2.06535 -5.34805 0
M  V30 4557 H 412.933 1.43544 -5.82679 0
M  V30 4558 H 414.003 0.433611 -4.82957 0
M  V30 4559 N 415.346 1.54954 0.287554 0
M  V30 4560 C 416.576 1.78622 1.03816 0
M  V30 4561 C 416.984 0.552451 1.80955 0
M  V30 4562 O 416.327 -0.487665 1.77109 0
M  V30 4563 C 416.389 2.94975 2.055 0
M  V30 4564 C 416.053 4.32565 1.47433 0
M  V30 4565 C 417.05 5.12096 0.897436 0
M  V30 4566 C 414.735 4.79195 1.50591 0
M  V30 4567 C 416.729 6.36383 0.359851 0
M  V30 4568 C 414.416 6.03441 0.964459 0
M  V30 4569 C 415.414 6.81872 0.392413 0
M  V30 4570 O 415.102 8.03777 -0.140788 0
M  V30 4571 H 414.834 0.599144 0.313053 0
M  V30 4572 H 417.388 2.02761 0.328225 0
M  V30 4573 H 415.618 2.66493 2.80211 0
M  V30 4574 H 417.307 3.06097 2.6657 0
M  V30 4575 H 418.073 4.77209 0.865841 0
M  V30 4576 H 413.952 4.18167 1.94055 0
M  V30 4577 H 417.496 6.97545 -0.0872951 0
M  V30 4578 H 413.393 6.37813 0.993246 0
M  V30 4579 H 414.161 8.18495 -0.0287617 0
M  V30 4580 N 416.824 -0.551391 1.4764 0
M  V30 4581 C 417.772 -1.67896 1.60978 0
M  V30 4582 C 418.766 -1.62549 0.476877 0
M  V30 4583 O 419.972 -1.67664 0.654878 0
M  V30 4584 H 416.347 -0.555649 0.506713 0
M  V30 4585 H 418.318 -1.53784 2.55721 0
M  V30 4586 C 417.067 -3.06234 1.64669 0
M  V30 4587 H 416.39 -3.11033 2.51194 0
M  V30 4588 H 417.83 -3.84804 1.7805 0
M  V30 4589 C 416.289 -3.34737 0.381115 0
M  V30 4590 O 416.819 -3.98381 -0.515297 0
M  V30 4591 N 415.025 -2.8944 0.259354 0
M  V30 4592 H 414.572 -2.37827 0.98976 0
M  V30 4593 H 414.53 -3.08882 -0.586464 0
M  V30 4594 N 418.302 -1.35869 -0.798587 0
M  V30 4595 C 419.579 -1.20145 -1.54352 0
M  V30 4596 C 419.959 0.216161 -2.0999 0
M  V30 4597 O 419.307 1.22068 -1.93162 0
M  V30 4598 C 419.517 -2.27602 -2.64572 0
M  V30 4599 C 420.865 -2.63811 -3.32699 0
M  V30 4600 O 421.889 -2.26576 -2.74849 0
M  V30 4601 O 420.748 -3.27866 -4.37226 0
M  V30 4602 H 417.842 -0.467248 -0.682355 0
M  V30 4603 H 420.388 -1.47574 -0.837859 0
M  V30 4604 H 419.16 -3.2265 -2.21388 0
M  V30 4605 H 418.783 -2.01488 -3.42766 0
M  V30 4606 N 419.78 1.02168 -1.19998 0
M  V30 4607 C 421.196 1.27969 -0.953737 0
M  V30 4608 C 421.396 1.98079 0.369703 0
M  V30 4609 O 420.452 2.27306 1.09947 0
M  V30 4610 C 421.765 2.11971 -2.13281 0
M  V30 4611 C 423.313 2.25255 -2.17323 0
M  V30 4612 C 423.788 3.12632 -3.34702 0
M  V30 4613 N 425.279 3.2022 -3.34684 0
M  V30 4614 C 426.014 3.88039 -4.22153 0
M  V30 4615 N 425.51 4.58027 -5.19791 0
M  V30 4616 N 427.303 3.84511 -4.10009 0
M  V30 4617 H 419.454 0.550794 -2.05134 0
M  V30 4618 H 421.717 0.305683 -0.897364 0
M  V30 4619 H 421.423 1.67785 -3.09097 0
M  V30 4620 H 421.297 3.12699 -2.10949 0
M  V30 4621 H 423.684 2.68667 -1.22073 0
M  V30 4622 H 423.765 1.24053 -2.23706 0
M  V30 4623 H 423.409 2.69926 -4.30235 0
M  V30 4624 H 423.339 4.13909 -3.25556 0
M  V30 4625 H 425.83 2.70382 -2.64012 0
M  V30 4626 H 426.143 5.07429 -5.82868 0
M  V30 4627 H 424.488 4.56869 -5.23733 0
M  V30 4628 H 427.679 3.28978 -3.33003 0
M  V30 4629 H 427.852 4.3709 -4.78389 0
M  V30 4630 N 421.258 1.00505 1.21394 0
M  V30 4631 C 422.483 0.706367 1.95001 0
M  V30 4632 C 422.908 -0.72463 1.73582 0
M  V30 4633 O 422.266 -1.49702 1.0227 0
M  V30 4634 C 422.314 1.03299 3.45487 0
M  V30 4635 O 421.418 0.138275 4.12168 0
M  V30 4636 H 420.759 0.263175 0.609619 0
M  V30 4637 H 423.289 1.34531 1.54151 0
M  V30 4638 H 423.299 0.979872 3.96059 0
M  V30 4639 H 421.974 2.07567 3.60401 0
M  V30 4640 H 420.551 0.247928 3.72075 0
M  V30 4641 N 422.737 -1.36956 0.779787 0
M  V30 4642 C 423.983 -1.99787 0.348281 0
M  V30 4643 C 424.316 -1.61756 -1.07465 0
M  V30 4644 O 423.591 -0.867639 -1.74075 0
M  V30 4645 C 423.874 -3.56597 0.50104 0
M  V30 4646 C 423.727 -4.04513 1.96697 0
M  V30 4647 C 425.046 -4.40008 -0.0898097 0
M  V30 4648 H 422.165 -0.725796 0.128022 0
M  V30 4649 H 424.807 -1.62514 0.984331 0
M  V30 4650 H 422.957 -3.88479 -0.0404347 0
M  V30 4651 H 424.629 -3.83161 2.56876 0
M  V30 4652 H 422.872 -3.56408 2.47297 0
M  V30 4653 H 423.543 -5.1352 2.02486 0
M  V30 4654 H 426.019 -4.14431 0.372293 0
M  V30 4655 H 424.895 -5.4888 0.0471605 0
M  V30 4656 H 425.156 -4.26035 -1.18096 0
M  V30 4657 N 424.215 -0.530993 -1.48385 0
M  V30 4658 C 425.145 0.219985 -2.32461 0
M  V30 4659 C 426.126 0.934111 -1.42156 0
M  V30 4660 O 427.311 0.919694 -1.71042 0
M  V30 4661 C 424.441 1.26674 -3.23375 0
M  V30 4662 C 423.395 0.67069 -4.22712 0
M  V30 4663 C 422.721 1.82017 -5.02766 0
M  V30 4664 C 424.021 -0.358268 -5.2107 0
M  V30 4665 H 425.715 -0.48187 -2.95497 0
M  V30 4666 H 423.261 -0.233182 -1.42099 0
M  V30 4667 H 425.214 1.80006 -3.81019 0
M  V30 4668 H 423.938 1.99818 -2.58341 0
M  V30 4669 H 422.597 0.158878 -3.66256 0
M  V30 4670 H 422.245 2.54002 -4.34157 0
M  V30 4671 H 421.945 1.42727 -5.70003 0
M  V30 4672 H 423.469 2.35725 -5.63264 0
M  V30 4673 H 424.883 0.0880081 -5.73232 0
M  V30 4674 H 423.28 -0.66861 -5.96364 0
M  V30 4675 H 424.35 -1.26367 -4.68145 0
M  V30 4676 N 425.693 1.55336 -0.266172 0
M  V30 4677 C 426.603 2.2583 0.635458 0
M  V30 4678 C 427.619 1.28106 1.17749 0
M  V30 4679 O 428.795 1.61024 1.20968 0
M  V30 4680 C 425.86 2.95879 1.80712 0
M  V30 4681 C 424.921 4.09059 1.30265 0
M  V30 4682 C 424.154 4.75759 2.41846 0
M  V30 4683 O 424.377 4.41622 3.61007 0
M  V30 4684 O 423.311 5.63888 2.1051 0
M  V30 4685 H 427.137 3.03631 0.0646693 0
M  V30 4686 H 424.722 1.49361 -0.0339177 0
M  V30 4687 H 426.604 3.39932 2.49047 0
M  V30 4688 H 425.279 2.21002 2.36516 0
M  V30 4689 H 424.186 3.69482 0.586019 0
M  V30 4690 H 425.519 4.85811 0.790458 0
M  V30 4691 N 427.171 -0.0066808 1.57599 0
M  V30 4692 C 428.119 -1.01851 2.09115 0
M  V30 4693 C 429.113 -1.36021 1.00969 0
M  V30 4694 O 430.319 -1.34663 1.19439 0
M  V30 4695 H 426.694 -0.346083 0.667631 0
M  V30 4696 H 428.665 -0.558394 2.93129 0
M  V30 4697 C 427.414 -2.30374 2.60429 0
M  V30 4698 H 426.737 -2.04947 3.43273 0
M  V30 4699 H 428.177 -2.99466 3.00161 0
M  V30 4700 C 426.636 -3.00893 1.51542 0
M  V30 4701 O 427.166 -3.91614 0.894484 0
M  V30 4702 N 425.372 -2.62603 1.2445 0
M  V30 4703 H 424.919 -1.88911 1.75129 0
M  V30 4704 H 424.877 -3.10101 0.518137 0
M  V30 4705 N 428.649 -1.55105 -0.279332 0
M  V30 4706 C 429.599 -1.83937 -1.34727 0
M  V30 4707 C 430.583 -0.69785 -1.44979 0
M  V30 4708 O 431.775 -0.95904 -1.48766 0
M  V30 4709 C 428.904 -2.1092 -2.70864 0
M  V30 4710 C 427.99 -3.31314 -2.64748 0
M  V30 4711 N 428.381 -4.51371 -2.2825 0
M  V30 4712 C 426.679 -3.33777 -2.95819 0
M  V30 4713 C 427.38 -5.33447 -2.31969 0
M  V30 4714 N 426.356 -4.71697 -2.7019 0
M  V30 4715 H 430.158 -2.74309 -1.05506 0
M  V30 4716 H 427.672 -1.54896 -0.487959 0
M  V30 4717 H 429.669 -2.2973 -3.47893 0
M  V30 4718 H 428.329 -1.21828 -3.00979 0
M  V30 4719 H 429.34 -4.77584 -2.00335 0
M  V30 4720 H 426.017 -2.54858 -3.30687 0
M  V30 4721 H 427.407 -6.39424 -2.06365 0
M  V30 4722 N 430.127 0.543554 -1.4793 0
M  V30 4723 C 431.077 1.64527 -1.57844 0
M  V30 4724 C 432.061 1.54869 -0.436408 0
M  V30 4725 O 433.253 1.63119 -0.687101 0
M  V30 4726 C 430.382 3.03281 -1.6086 0
M  V30 4727 C 429.468 3.18093 -2.80495 0
M  V30 4728 N 429.859 3.02923 -4.05057 0
M  V30 4729 C 428.157 3.49121 -2.77543 0
M  V30 4730 C 428.858 3.20791 -4.85251 0
M  V30 4731 N 427.834 3.47749 -4.17818 0
M  V30 4732 H 431.636 1.51388 -2.5191 0
M  V30 4733 H 429.15 0.748671 -1.44113 0
M  V30 4734 H 431.147 3.82403 -1.66054 0
M  V30 4735 H 429.807 3.17521 -0.678996 0
M  V30 4736 H 430.818 2.79966 -4.35705 0
M  V30 4737 H 427.495 3.69804 -1.93781 0
M  V30 4738 H 428.885 3.13915 -5.9406 0
M  V30 4739 N 431.605 1.3629 0.791371 0
M  V30 4740 C 432.851 1.30605 1.55146 0
M  V30 4741 C 433.184 -0.115042 1.93859 0
M  V30 4742 O 432.459 -1.06798 1.62556 0
M  V30 4743 C 432.742 2.22692 2.82985 0
M  V30 4744 C 432.595 3.73489 2.50651 0
M  V30 4745 C 433.914 2.13588 3.84796 0
M  V30 4746 H 431.033 0.475761 0.562868 0
M  V30 4747 H 433.675 1.66825 0.909358 0
M  V30 4748 H 431.825 1.91933 3.37778 0
M  V30 4749 H 433.497 4.14758 2.01924 0
M  V30 4750 H 431.74 3.93021 1.83622 0
M  V30 4751 H 432.411 4.3333 3.41949 0
M  V30 4752 H 434.887 2.40659 3.39445 0
M  V30 4753 H 433.763 2.80195 4.71998 0
M  V30 4754 H 434.024 1.12256 4.27611 0
M  V30 4755 N 433.083 -1.0153 1.20538 0
M  V30 4756 C 434.308 -1.79283 1.04271 0
M  V30 4757 C 434.733 -1.8372 -0.403544 0
M  V30 4758 O 434.091 -1.27321 -1.2907 0
M  V30 4759 C 434.139 -3.21535 1.63241 0
M  V30 4760 O 433.243 -4.03099 0.870908 0
M  V30 4761 H 432.584 -0.55293 0.367647 0
M  V30 4762 H 435.114 -1.27696 1.59859 0
M  V30 4763 H 435.124 -3.72243 1.6703 0
M  V30 4764 H 433.799 -3.1762 2.68497 0
M  V30 4765 H 432.376 -3.61693 0.907323 0
M  V30 4766 N 434.561 -1.01147 -1.20859 0
M  V30 4767 C 435.524 -0.582224 -2.21682 0
M  V30 4768 C 436.524 0.344887 -1.57058 0
M  V30 4769 O 437.714 0.134281 -1.73682 0
M  V30 4770 C 434.846 0.150496 -3.40568 0
M  V30 4771 H 436.039 -1.47408 -2.61172 0
M  V30 4772 H 433.592 -0.800695 -1.34233 0
M  V30 4773 H 434.327 1.0575 -3.06574 0
M  V30 4774 H 434.112 -0.515444 -3.88697 0
M  V30 4775 H 435.602 0.438344 -4.15293 0
M  V30 4776 N 436.039 1.36541 -0.78704 0
M  V30 4777 C 437.002 2.28413 -0.189778 0
M  V30 4778 C 438.002 1.48719 0.611499 0
M  V30 4779 O 439.192 1.68737 0.432842 0
M  V30 4780 C 436.324 3.32824 0.737638 0
M  V30 4781 H 437.517 2.82743 -0.999831 0
M  V30 4782 H 435.07 1.46065 -0.556298 0
M  V30 4783 H 435.805 2.83646 1.57212 0
M  V30 4784 H 435.59 3.91752 0.165044 0
M  V30 4785 H 437.08 4.0144 1.15047 0
M  V30 4786 N 437.518 0.538854 1.48102 0
M  V30 4787 C 438.748 0.0122958 2.06596 0
M  V30 4788 C 439.156 -1.27861 1.39457 0
M  V30 4789 O 438.499 -1.77348 0.478907 0
M  V30 4790 C 438.561 -0.273131 3.58461 0
M  V30 4791 C 438.225 0.92561 4.47528 0
M  V30 4792 C 439.222 1.82637 4.86765 0
M  V30 4793 C 436.907 1.13511 4.89306 0
M  V30 4794 C 438.901 2.92047 5.66558 0
M  V30 4795 C 436.588 2.23233 5.68868 0
M  V30 4796 C 437.586 3.12333 6.07402 0
M  V30 4797 O 437.274 4.20155 6.85365 0
M  V30 4798 H 437.006 0.0344283 0.675123 0
M  V30 4799 H 439.56 0.746494 1.91355 0
M  V30 4800 H 437.79 -1.06141 3.71848 0
M  V30 4801 H 439.479 -0.742842 3.99045 0
M  V30 4802 H 440.245 1.67649 4.55103 0
M  V30 4803 H 436.124 0.450835 4.5879 0
M  V30 4804 H 439.668 3.6162 5.96554 0
M  V30 4805 H 435.565 2.38201 5.99942 0
M  V30 4806 H 436.333 4.17975 7.03732 0
M  V30 4807 N 438.996 -1.55193 0.274407 0
M  V30 4808 C 440.412 -1.59401 -0.0797543 0
M  V30 4809 C 440.612 -1.29162 -1.54659 0
M  V30 4810 O 439.668 -1.05215 -2.29534 0
M  V30 4811 C 440.981 -2.99257 0.294238 0
M  V30 4812 C 442.529 -3.12072 0.240796 0
M  V30 4813 C 443.004 -4.54194 0.589218 0
M  V30 4814 N 444.495 -4.60033 0.540744 0
M  V30 4815 C 445.23 -5.68027 0.783147 0
M  V30 4816 N 444.726 -6.8417 1.09013 0
M  V30 4817 N 446.519 -5.57572 0.711993 0
M  V30 4818 H 438.67 -1.73113 1.23067 0
M  V30 4819 H 440.933 -0.807197 0.497129 0
M  V30 4820 H 440.639 -3.26217 1.31435 0
M  V30 4821 H 440.513 -3.75427 -0.365281 0
M  V30 4822 H 442.9 -2.84877 -0.770024 0
M  V30 4823 H 442.981 -2.38117 0.934563 0
M  V30 4824 H 442.625 -4.82115 1.59772 0
M  V30 4825 H 442.555 -5.26448 -0.126331 0
M  V30 4826 H 445.046 -3.76599 0.313327 0
M  V30 4827 H 445.359 -7.6243 1.26178 0
M  V30 4828 H 443.704 -6.85787 1.12789 0
M  V30 4829 H 446.895 -4.65714 0.472014 0
M  V30 4830 H 447.068 -6.41659 0.90429 0
M  V30 4831 N 440.474 -0.00167713 -1.576 0
M  V30 4832 C 441.404 0.988091 -2.11563 0
M  V30 4833 C 442.385 1.35736 -1.02517 0
M  V30 4834 O 443.57 1.44082 -1.30208 0
M  V30 4835 C 440.7 2.27941 -2.62031 0
M  V30 4836 C 439.654 2.0517 -3.75619 0
M  V30 4837 C 438.98 3.4033 -4.12407 0
M  V30 4838 C 440.28 1.41294 -5.02825 0
M  V30 4839 H 441.974 0.538771 -2.94513 0
M  V30 4840 H 439.52 0.257712 -1.41675 0
M  V30 4841 H 441.473 2.97539 -2.9841 0
M  V30 4842 H 440.197 2.74989 -1.76205 0
M  V30 4843 H 438.856 1.37998 -3.39635 0
M  V30 4844 H 438.504 3.85085 -3.23603 0
M  V30 4845 H 438.204 3.25909 -4.88935 0
M  V30 4846 H 439.728 4.1124 -4.51347 0
M  V30 4847 H 441.142 2.00851 -5.36965 0
M  V30 4848 H 439.539 1.37356 -5.84169 0
M  V30 4849 H 440.609 0.382362 -4.8339 0
M  V30 4850 N 441.952 1.55251 0.271103 0
M  V30 4851 C 442.885 1.83191 1.36075 0
M  V30 4852 C 443.863 0.685091 1.47463 0
M  V30 4853 O 445.047 0.928292 1.64058 0
M  V30 4854 C 442.174 1.99521 2.73696 0
M  V30 4855 C 441.22 3.22081 2.79582 0
M  V30 4856 S 442.053 4.79388 2.38636 0
M  V30 4857 C 443.209 4.98693 3.78228 0
M  V30 4858 H 443.442 2.75327 1.12171 0
M  V30 4859 H 440.975 1.47046 0.470833 0
M  V30 4860 H 442.933 2.09613 3.52948 0
M  V30 4861 H 441.594 1.0827 2.9485 0
M  V30 4862 H 440.787 3.304 3.80594 0
M  V30 4863 H 440.389 3.10589 2.08352 0
M  V30 4864 H 442.681 4.84551 4.73515 0
M  V30 4865 H 443.624 6.00738 3.7486 0
M  V30 4866 H 444.032 4.26665 3.69618 0
M  V30 4867 N 443.43 -0.535701 1.48216 0
M  V30 4868 C 444.362 -1.65662 1.58394 0
M  V30 4869 C 445.375 -1.5591 0.468607 0
M  V30 4870 O 446.564 -1.62475 0.7392 0
M  V30 4871 C 443.664 -3.04276 1.4923 0
M  V30 4872 C 442.837 -3.39567 2.75705 0
M  V30 4873 C 441.896 -4.57436 2.60075 0
M  V30 4874 O 440.922 -4.60942 3.33948 0
M  V30 4875 N 442.124 -5.55259 1.69315 0
M  V30 4876 H 444.889 -1.5737 2.55058 0
M  V30 4877 H 442.45 -0.722845 1.44867 0
M  V30 4878 H 444.442 -3.80994 1.36477 0
M  V30 4879 H 443.012 -3.06677 0.605632 0
M  V30 4880 H 442.232 -2.52083 3.03064 0
M  V30 4881 H 443.52 -3.59929 3.59623 0
M  V30 4882 H 442.918 -5.552 1.08489 0
M  V30 4883 H 441.475 -6.31218 1.62504 0
M  V30 4884 N 444.908 -1.36708 -0.784132 0
M  V30 4885 C 445.818 -1.3363 -1.92822 0
M  V30 4886 C 446.834 -0.237686 -1.72369 0
M  V30 4887 O 448.01 -0.470962 -1.95816 0
M  V30 4888 C 445.075 -1.13011 -3.27764 0
M  V30 4889 C 444.136 -2.32397 -3.60957 0
M  V30 4890 C 443.369 -2.12752 -4.89461 0
M  V30 4891 O 443.592 -1.10541 -5.59586 0
M  V30 4892 O 442.526 -3.00653 -5.21432 0
M  V30 4893 H 446.352 -2.29964 -1.98369 0
M  V30 4894 H 443.937 -1.1731 -0.925136 0
M  V30 4895 H 445.819 -1.03451 -4.08504 0
M  V30 4896 H 444.494 -0.19743 -3.23097 0
M  V30 4897 H 443.401 -2.47527 -2.80502 0
M  V30 4898 H 444.734 -3.2419 -3.70354 0
M  V30 4899 N 446.386 1.0089 -1.21074 0
M  V30 4900 C 447.296 2.13039 -0.982425 0
M  V30 4901 C 448.312 1.73881 0.0642161 0
M  V30 4902 O 449.488 2.01012 -0.12496 0
M  V30 4903 C 446.553 3.42377 -0.545803 0
M  V30 4904 C 445.614 3.95731 -1.6642 0
M  V30 4905 C 444.847 5.18896 -1.24832 0
M  V30 4906 O 445.07 5.70273 -0.120265 0
M  V30 4907 O 444.004 5.65597 -2.05873 0
M  V30 4908 H 447.83 2.35175 -1.92163 0
M  V30 4909 H 445.415 1.1142 -0.995285 0
M  V30 4910 H 447.297 4.20244 -0.311912 0
M  V30 4911 H 445.972 3.21639 0.364727 0
M  V30 4912 H 444.879 3.19108 -1.95246 0
M  V30 4913 H 446.212 4.20872 -2.55201 0
M  V30 4914 N 447.864 1.01787 1.20321 0
M  V30 4915 C 448.774 0.598898 2.26827 0
M  V30 4916 C 449.79 -0.36418 1.70146 0
M  V30 4917 O 450.966 -0.224812 2.00141 0
M  V30 4918 C 448.031 -0.0549769 3.46656 0
M  V30 4919 C 447.092 0.954205 4.18561 0
M  V30 4920 C 446.325 0.331439 5.3267 0
M  V30 4921 O 446.548 -0.86851 5.63749 0
M  V30 4922 O 445.482 1.0488 5.92692 0
M  V30 4923 H 449.308 1.48562 2.64883 0
M  V30 4924 H 446.893 0.787434 1.26964 0
M  V30 4925 H 448.775 -0.420102 4.19301 0
M  V30 4926 H 447.45 -0.915876 3.10473 0
M  V30 4927 H 446.357 1.37072 3.48083 0
M  V30 4928 H 447.69 1.78511 4.58688 0
M  V30 4929 N 449.342 -1.36122 0.79427 0
M  V30 4930 C 450.275 -2.27759 0.141845 0
M  V30 4931 C 451.253 -1.47471 -0.684921 0
M  V30 4932 O 452.437 -1.76759 -0.654857 0
M  V30 4933 C 449.564 -3.29008 -0.804446 0
M  V30 4934 C 448.61 -4.26459 -0.0588617 0
M  V30 4935 S 449.443 -5.20253 1.26873 0
M  V30 4936 C 450.599 -6.25048 0.326562 0
M  V30 4937 H 450.832 -2.82746 0.918818 0
M  V30 4938 H 448.365 -1.42736 0.588722 0
M  V30 4939 H 450.323 -3.87842 -1.34495 0
M  V30 4940 H 448.984 -2.72924 -1.5547 0
M  V30 4941 H 448.177 -4.97973 -0.777087 0
M  V30 4942 H 447.779 -3.71731 0.411309 0
M  V30 4943 H 450.071 -6.75705 -0.492795 0
M  V30 4944 H 451.014 -7.00852 1.01053 0
M  V30 4945 H 451.422 -5.64454 -0.0722627 0
M  V30 4946 N 450.82 -0.546701 -1.47814 0
M  V30 4947 C 451.768 0.220048 -2.31557 0
M  V30 4948 C 452.762 0.919472 -1.42275 0
M  V30 4949 O 453.968 0.841953 -1.59095 0
M  V30 4950 H 450.343 0.0898334 -0.746615 0
M  V30 4951 H 452.314 -0.505589 -2.94086 0
M  V30 4952 C 451.063 1.24353 -3.24702 0
M  V30 4953 H 450.386 0.714758 -3.93359 0
M  V30 4954 H 451.826 1.75112 -3.8615 0
M  V30 4955 C 450.285 2.28593 -2.47481 0
M  V30 4956 O 450.815 3.35334 -2.21165 0
M  V30 4957 N 449.021 2.02244 -2.08676 0
M  V30 4958 H 448.568 1.15455 -2.30278 0
M  V30 4959 H 448.526 2.72207 -1.57323 0
M  V30 4960 N 452.299 1.55045 -0.282633 0
M  V30 4961 C 453.548 1.98938 0.332667 0
M  V30 4962 C 453.861 1.17455 1.56409 0
M  V30 4963 O 455.067 1.51527 2.25282 0
M  V30 4964 C 453.523 3.54105 0.643226 0
M  V30 4965 C 453.131 4.44374 -0.568814 0
M  V30 4966 C 454.875 4.06569 1.22074 0
M  V30 4967 C 452.782 5.90943 -0.232426 0
M  V30 4968 H 451.712 0.743043 0.128075 0
M  V30 4969 H 454.363 1.79341 -0.388464 0
M  V30 4970 H 452.745 3.69532 1.42346 0
M  V30 4971 H 453.919 4.40718 -1.34551 0
M  V30 4972 H 452.234 4.02585 -1.06369 0
M  V30 4973 H 454.831 5.13626 1.48635 0
M  V30 4974 H 455.174 3.56057 2.15707 0
M  V30 4975 H 455.707 3.94612 0.502621 0
M  V30 4976 H 452.446 6.45567 -1.13683 0
M  V30 4977 H 451.966 5.9765 0.507357 0
M  V30 4978 H 453.645 6.4677 0.172657 0
M  V30 4979 N 453.777 0.010035 1.57597 0
M  V30 4980 C 454.707 -0.976857 2.12084 0
M  V30 4981 C 455.688 -1.35191 1.03235 0
M  V30 4982 O 456.873 -1.43389 1.3097 0
M  V30 4983 C 454.003 -2.26548 2.63236 0
M  V30 4984 C 452.957 -2.03175 3.76701 0
M  V30 4985 C 452.283 -3.38138 4.14206 0
M  V30 4986 C 453.583 -1.38625 5.03568 0
M  V30 4987 H 455.277 -0.523145 2.94794 0
M  V30 4988 H 452.823 -0.250195 1.4181 0
M  V30 4989 H 454.776 -2.95952 2.99984 0
M  V30 4990 H 453.5 -2.74051 1.77661 0
M  V30 4991 H 452.159 -1.36195 3.40362 0
M  V30 4992 H 451.807 -3.83363 3.25641 0
M  V30 4993 H 451.507 -3.23312 4.90656 0
M  V30 4994 H 453.031 -4.08841 4.53521 0
M  V30 4995 H 454.445 -1.98 5.38023 0
M  V30 4996 H 452.842 -1.34256 5.84889 0
M  V30 4997 H 453.912 -0.356722 4.83586 0
M  V30 4998 N 455.255 -1.55392 -0.262866 0
M  V30 4999 C 456.504 -1.75679 -0.990943 0
M  V30 5000 C 456.817 -0.57097 -1.87081 0
M  V30 5001 O 458.023 -0.656486 -2.63444 0
M  V30 5002 C 456.479 -3.10964 -1.81188 0
M  V30 5003 C 456.087 -4.37146 -0.980188 0
M  V30 5004 C 457.831 -3.40597 -2.53365 0
M  V30 5005 C 455.738 -5.63466 -1.7961 0
M  V30 5006 H 454.668 -0.654868 -0.373716 0
M  V30 5007 H 457.319 -1.81841 -0.246203 0
M  V30 5008 H 455.701 -2.98867 -2.59797 0
M  V30 5009 H 456.875 -4.60187 -0.237558 0
M  V30 5010 H 455.19 -4.14731 -0.372497 0
M  V30 5011 H 457.787 -4.32186 -3.14833 0
M  V30 5012 H 458.13 -2.6119 -3.24169 0
M  V30 5013 H 458.663 -3.53838 -1.81779 0
M  V30 5014 H 455.402 -6.4565 -1.13209 0
M  V30 5015 H 454.922 -5.44552 -2.51443 0
M  V30 5016 H 456.601 -6.02139 -2.36723 0
M  V30 5017 N 456.733 0.527833 -1.48498 0
M  V30 5018 C 457.681 1.65313 -1.63628 0
M  V30 5019 C 458.675 1.6177 -0.502676 0
M  V30 5020 O 459.881 1.66601 -0.681469 0
M  V30 5021 H 456.256 0.547518 -0.515488 0
M  V30 5022 H 458.227 1.49696 -2.58135 0
M  V30 5023 C 456.976 3.03576 -1.6952 0
M  V30 5024 H 456.299 3.06997 -2.56111 0
M  V30 5025 H 457.739 3.81923 -1.84149 0
M  V30 5026 C 456.198 3.34089 -0.43432 0
M  V30 5027 O 456.728 3.99151 0.451852 0
M  V30 5028 N 454.934 2.88991 -0.305368 0
M  V30 5029 H 454.481 2.36222 -1.02747 0
M  V30 5030 H 454.439 3.09776 0.537249 0
M  V30 5031 N 458.211 1.37122 0.776871 0
M  V30 5032 C 459.141 1.35164 1.90402 0
M  V30 5033 C 460.122 0.221069 1.68657 0
M  V30 5034 O 461.307 0.420642 1.8959 0
M  V30 5035 C 458.437 1.15274 3.27611 0
M  V30 5036 C 457.391 2.25289 3.63908 0
M  V30 5037 C 456.717 1.90527 4.99603 0
M  V30 5038 C 458.017 3.67446 3.71188 0
M  V30 5039 H 459.711 2.29482 1.92297 0
M  V30 5040 H 457.257 1.10465 0.923773 0
M  V30 5041 H 459.21 1.12536 4.06096 0
M  V30 5042 H 457.934 0.174102 3.26136 0
M  V30 5043 H 456.593 2.27174 2.87728 0
M  V30 5044 H 456.241 0.91206 4.94662 0
M  V30 5045 H 455.941 2.64193 5.24858 0
M  V30 5046 H 457.465 1.89367 5.80493 0
M  V30 5047 H 458.879 3.67719 4.39836 0
M  V30 5048 H 457.276 4.40123 4.07936 0
M  V30 5049 H 458.346 4.01443 2.71977 0
M  V30 5050 N 459.689 -1.00246 1.21608 0
M  V30 5051 C 460.914 -1.78167 1.06167 0
M  V30 5052 C 461.339 -1.84138 -0.384035 0
M  V30 5053 O 460.697 -1.28683 -1.27712 0
M  V30 5054 C 460.745 -3.19786 1.66642 0
M  V30 5055 O 459.849 -4.02153 0.913613 0
M  V30 5056 H 459.19 -0.549 0.37349 0
M  V30 5057 H 461.72 -1.25994 1.61204 0
M  V30 5058 H 461.73 -3.70451 1.70969 0
M  V30 5059 H 460.405 -3.14754 2.7185 0
M  V30 5060 H 458.982 -3.60711 0.945635 0
M  V30 5061 N 461.167 -1.02423 -1.1978 0
M  V30 5062 C 462.114 -0.601023 -2.22837 0
M  V30 5063 C 463.084 0.382801 -1.61629 0
M  V30 5064 O 464.269 0.280514 -1.88727 0
M  V30 5065 C 461.409 0.0467755 -3.45068 0
M  V30 5066 C 460.522 -0.98253 -4.20678 0
M  V30 5067 C 459.657 -0.304982 -5.30324 0
M  V30 5068 C 458.696 -1.32052 -5.97686 0
M  V30 5069 N 457.833 -0.669105 -6.98904 0
M  V30 5070 H 462.673 -1.48444 -2.58396 0
M  V30 5071 H 460.21 -0.742936 -1.2696 0
M  V30 5072 H 462.168 0.439556 -4.14878 0
M  V30 5073 H 460.798 0.893796 -3.10179 0
M  V30 5074 H 459.85 -1.49341 -3.49859 0
M  V30 5075 H 461.162 -1.75455 -4.66923 0
M  V30 5076 H 460.316 0.142893 -6.06532 0
M  V30 5077 H 459.055 0.499283 -4.85138 0
M  V30 5078 H 458.06 -1.7787 -5.20233 0
M  V30 5079 H 459.285 -2.1262 -6.44957 0
M  V30 5080 H 457.231 0.115152 -6.55899 0
M  V30 5081 H 457.148 -1.37908 -7.43315 0
M  V30 5082 H 458.416 -0.245076 -7.79115 0
M  V30 5083 N 462.645 1.35699 -0.801477 0
M  V30 5084 C 463.922 1.9324 -0.302937 0
M  V30 5085 C 464.302 1.73209 1.20672 0
M  V30 5086 O 463.65 1.09809 2.00385 0
M  V30 5087 C 463.86 3.41728 -0.708747 0
M  V30 5088 C 465.208 4.18868 -0.695328 0
M  V30 5089 O 466.232 3.5022 -0.649971 0
M  V30 5090 O 465.091 5.41342 -0.749081 0
M  V30 5091 H 462.185 0.82331 -0.0780367 0
M  V30 5092 H 464.731 1.44806 -0.884832 0
M  V30 5093 H 463.503 3.50015 -1.74944 0
M  V30 5094 H 463.126 3.97471 -0.101384 0
M  V30 5095 N 464.123 0.554532 1.47522 0
M  V30 5096 C 465.4 -0.0360704 1.95567 0
M  V30 5097 C 465.78 -1.48828 1.49711 0
M  V30 5098 O 465.128 -2.16366 0.734717 0
M  V30 5099 C 465.338 0.106631 3.48837 0
M  V30 5100 C 466.686 -0.0400899 4.24581 0
M  V30 5101 O 467.71 0.0340453 3.56184 0
M  V30 5102 O 466.569 -0.199111 5.46137 0
M  V30 5103 H 463.663 -0.0656294 0.824392 0
M  V30 5104 H 466.209 0.620867 1.57935 0
M  V30 5105 H 464.981 1.11727 3.7501 0
M  V30 5106 H 464.604 -0.58804 3.93227 0
M  V30 5107 N 465.601 -1.54893 0.290851 0
M  V30 5108 C 466.847 -2.00949 -0.314784 0
M  V30 5109 C 467.202 -1.1757 -1.52299 0
M  V30 5110 O 466.495 -0.241558 -1.90071 0
M  V30 5111 C 466.689 -3.49815 -0.732397 0
M  V30 5112 C 466.518 -4.47603 0.433799 0
M  V30 5113 C 465.288 -4.96806 0.922599 0
M  V30 5114 C 467.486 -4.98233 1.27546 0
M  V30 5115 N 465.468 -5.78426 2.05662 0
M  V30 5116 C 466.839 -5.77455 2.25712 0
M  V30 5117 C 468.894 -4.80439 1.307 0
M  V30 5118 C 467.597 -6.40778 3.26796 0
M  V30 5119 C 469.623 -5.44574 2.30637 0
M  V30 5120 C 468.985 -6.23619 3.27533 0
M  V30 5121 H 465.084 -0.777905 -0.0799257 0
M  V30 5122 H 467.668 -1.9015 0.418458 0
M  V30 5123 H 465.839 -3.60925 -1.43483 0
M  V30 5124 H 467.571 -3.82681 -1.31671 0
M  V30 5125 H 464.326 -4.70961 0.49926 0
M  V30 5126 H 464.75 -6.23923 2.62772 0
M  V30 5127 H 469.392 -4.18918 0.571622 0
M  V30 5128 H 467.11 -7.01439 4.01258 0
M  V30 5129 H 470.696 -5.32739 2.33838 0
M  V30 5130 H 469.576 -6.72367 4.03599 0
M  V30 5131 N 467.08 -0.0183926 -1.57589 0
M  V30 5132 C 468.496 0.337897 -1.55982 0
M  V30 5133 C 468.696 1.73604 -1.02294 0
M  V30 5134 O 467.752 2.43589 -0.664895 0
M  V30 5135 C 469.065 0.196305 -3.00059 0
M  V30 5136 C 470.613 0.269875 -3.11834 0
M  V30 5137 C 471.088 0.157197 -4.5773 0
M  V30 5138 N 472.579 0.214521 -4.62703 0
M  V30 5139 C 473.314 0.150955 -5.73201 0
M  V30 5140 N 472.81 0.0369212 -6.9279 0
M  V30 5141 N 474.603 0.204162 -5.61729 0
M  V30 5142 H 466.754 -0.93279 -1.90821 0
M  V30 5143 H 469.017 -0.359253 -0.877292 0
M  V30 5144 H 468.723 -0.766383 -3.43248 0
M  V30 5145 H 468.597 0.970908 -3.6449 0
M  V30 5146 H 470.984 1.22302 -2.68563 0
M  V30 5147 H 471.065 -0.534918 -2.50144 0
M  V30 5148 H 470.709 -0.792479 -5.01679 0
M  V30 5149 H 470.639 0.980717 -5.17387 0
M  V30 5150 H 473.13 0.303238 -3.76681 0
M  V30 5151 H 473.443 -0.00518321 -7.728 0
M  V30 5152 H 471.788 0.0022886 -6.95 0
M  V30 5153 H 474.979 0.291575 -4.67191 0
M  V30 5154 H 475.152 0.15116 -6.47824 0
M  V30 5155 N 468.558 1.5553 0.254621 0
M  V30 5156 C 469.835 1.6774 1.00611 0
M  V30 5157 C 470.215 0.555993 2.03647 0
M  V30 5158 O 469.563 -0.441583 2.24193 0
M  V30 5159 C 469.773 3.07725 1.6464 0
M  V30 5160 C 471.121 3.66074 2.15116 0
M  V30 5161 O 472.145 3.10476 1.74595 0
M  V30 5162 O 471.004 4.63526 2.89493 0
M  V30 5163 H 468.098 0.681958 0.467828 0
M  V30 5164 H 470.644 1.67863 0.24902 0
M  V30 5165 H 469.416 3.80792 0.900734 0
M  V30 5166 H 469.039 3.1158 2.46989 0
M  V30 5167 N 470.036 -0.519951 1.48776 0
M  V30 5168 C 470.966 -1.63253 1.66945 0
M  V30 5169 C 471.947 -1.62014 0.518224 0
M  V30 5170 O 473.132 -1.79053 0.751919 0
M  V30 5171 C 470.262 -3.0181 1.71836 0
M  V30 5172 C 469.216 -3.17911 2.8656 0
M  V30 5173 C 468.542 -4.5763 2.76548 0
M  V30 5174 C 469.842 -2.99729 4.27738 0
M  V30 5175 H 471.536 -1.48302 2.6009 0
M  V30 5176 H 469.082 -0.712026 1.25165 0
M  V30 5177 H 471.035 -3.79525 1.83135 0
M  V30 5178 H 469.759 -3.17806 0.752775 0
M  V30 5179 H 468.418 -2.42616 2.74833 0
M  V30 5180 H 468.066 -4.70476 1.77937 0
M  V30 5181 H 467.766 -4.69346 3.53536 0
M  V30 5182 H 469.29 -5.37431 2.89828 0
M  V30 5183 H 470.704 -3.67228 4.40246 0
M  V30 5184 H 469.101 -3.22932 5.05801 0
M  V30 5185 H 470.171 -1.96047 4.43502 0
M  V30 5186 N 471.514 -1.37532 -0.769588 0
M  V30 5187 C 472.93 -1.18379 -1.07045 0
M  V30 5188 C 473.13 -0.0214312 -2.01489 0
M  V30 5189 O 472.186 0.637809 -2.44312 0
M  V30 5190 C 473.499 -2.50338 -1.66588 0
M  V30 5191 C 475.047 -2.56879 -1.78835 0
M  V30 5192 C 475.522 -3.88974 -2.41792 0
M  V30 5193 N 477.013 -3.90428 -2.4924 0
M  V30 5194 C 477.748 -4.89388 -2.98809 0
M  V30 5195 N 477.244 -5.98745 -3.48535 0
M  V30 5196 N 479.037 -4.76791 -2.97703 0
M  V30 5197 H 471.188 -2.11921 -0.142541 0
M  V30 5198 H 473.451 -0.939608 -0.125863 0
M  V30 5199 H 473.157 -3.35767 -1.0466 0
M  V30 5200 H 473.031 -2.67583 -2.65856 0
M  V30 5201 H 475.418 -1.71856 -2.39895 0
M  V30 5202 H 475.499 -2.43516 -0.783166 0
M  V30 5203 H 475.143 -4.74412 -1.81371 0
M  V30 5204 H 475.073 -3.99641 -3.4292 0
M  V30 5205 H 477.564 -3.11433 -2.14052 0
M  V30 5206 H 477.877 -6.70205 -3.84767 0
M  V30 5207 H 476.222 -6.02387 -3.46634 0
M  V30 5208 H 479.413 -3.90478 -2.58157 0
M  V30 5209 H 479.586 -5.54069 -3.36024 0
M  V30 5210 N 472.992 0.995999 -1.22138 0
M  V30 5211 C 473.94 2.10673 -0.985876 0
M  V30 5212 C 474.934 1.69255 0.0699553 0
M  V30 5213 O 476.14 1.79812 -0.0822176 0
M  V30 5214 H 472.515 0.688865 -0.30161 0
M  V30 5215 H 474.486 2.27711 -1.92848 0
M  V30 5216 C 473.235 3.42881 -0.576909 0
M  V30 5217 H 472.558 3.75191 -1.38101 0
M  V30 5218 H 473.998 4.21589 -0.451518 0
M  V30 5219 C 472.457 3.29265 0.713196 0
M  V30 5220 O 472.987 3.60777 1.76643 0
M  V30 5221 N 471.193 2.82456 0.683162 0
M  V30 5222 H 470.74 2.5701 -0.174242 0
M  V30 5223 H 470.698 2.73727 1.54663 0
M  V30 5224 N 474.47 1.03057 1.19235 0
M  V30 5225 C 475.4 0.633497 2.24742 0
M  V30 5226 C 476.381 -0.358335 1.66283 0
M  V30 5227 O 477.566 -0.240676 1.92703 0
M  V30 5228 C 474.696 -0.0147648 3.47297 0
M  V30 5229 C 473.65 0.899527 4.18441 0
M  V30 5230 C 472.976 0.116281 5.34574 0
M  V30 5231 C 474.276 2.21404 4.73051 0
M  V30 5232 H 475.97 1.5155 2.58211 0
M  V30 5233 H 473.516 0.73014 1.24117 0
M  V30 5234 H 475.469 -0.304202 4.20301 0
M  V30 5235 H 474.193 -0.931577 3.13032 0
M  V30 5236 H 472.852 1.17319 3.47321 0
M  V30 5237 H 472.5 -0.802619 4.96555 0
M  V30 5238 H 472.2 0.725293 5.83107 0
M  V30 5239 H 473.724 -0.166376 6.10373 0
M  V30 5240 H 475.138 1.98601 5.37802 0
M  V30 5241 H 473.535 2.77512 5.32078 0
M  V30 5242 H 474.605 2.86752 3.91026 0
M  V30 5243 N 475.948 -1.35272 0.808662 0
M  V30 5244 C 477.194 -1.99003 0.390581 0
M  V30 5245 C 477.527 -1.63999 -1.0401 0
M  V30 5246 O 476.802 -0.904368 -1.72196 0
M  V30 5247 C 477.085 -3.55454 0.576566 0
M  V30 5248 C 476.938 -4.00249 2.05233 0
M  V30 5249 C 478.257 -4.401 0.00354277 0
M  V30 5250 H 475.376 -0.722917 0.143388 0
M  V30 5251 H 478.018 -1.6039 1.01858 0
M  V30 5252 H 476.168 -3.88477 0.0419766 0
M  V30 5253 H 477.84 -3.77626 2.64946 0
M  V30 5254 H 476.083 -3.51082 2.54801 0
M  V30 5255 H 476.754 -5.0911 2.13333 0
M  V30 5256 H 479.23 -4.13548 0.460117 0
M  V30 5257 H 478.106 -5.48656 0.163575 0
M  V30 5258 H 478.367 -4.28444 -1.09032 0
M  V30 5259 N 477.426 -0.562348 -1.47226 0
M  V30 5260 C 478.675 -0.038041 -2.01664 0
M  V30 5261 C 478.988 1.32199 -1.44162 0
M  V30 5262 O 480.194 1.9365 -1.90294 0
M  V30 5263 C 478.65 -0.0174958 -3.59896 0
M  V30 5264 C 478.258 -1.3746 -4.2639 0
M  V30 5265 C 480.002 0.453934 -4.22066 0
M  V30 5266 C 477.909 -1.31289 -5.76643 0
M  V30 5267 H 476.839 -0.0104511 -0.753928 0
M  V30 5268 H 479.49 -0.710966 -1.69167 0
M  V30 5269 H 477.872 0.721182 -3.89378 0
M  V30 5270 H 479.046 -2.1314 -4.08544 0
M  V30 5271 H 477.361 -1.78438 -3.7623 0
M  V30 5272 H 479.958 0.518584 -5.32179 0
M  V30 5273 H 480.301 1.46706 -3.89594 0
M  V30 5274 H 480.834 -0.230044 -3.97134 0
M  V30 5275 H 477.573 -2.30217 -6.13743 0
M  V30 5276 H 477.093 -0.597973 -5.96812 0
M  V30 5277 H 478.772 -1.01713 -6.38955 0
M  V30 5278 N 478.904 1.54736 -0.299062 0
M  V30 5279 C 479.814 2.27127 0.587413 0
M  V30 5280 C 480.83 1.30575 1.15005 0
M  V30 5281 O 482.006 1.63554 1.17525 0
M  V30 5282 C 479.071 2.99645 1.74395 0
M  V30 5283 C 478.132 4.11731 1.21559 0
M  V30 5284 C 477.365 4.80781 2.317 0
M  V30 5285 O 477.588 4.4918 3.51558 0
M  V30 5286 O 476.522 5.68226 1.98501 0
M  V30 5287 H 480.348 3.037 0.000250109 0
M  V30 5288 H 477.933 1.49256 -0.0655919 0
M  V30 5289 H 479.815 3.45138 2.4178 0
M  V30 5290 H 478.49 2.25969 2.31775 0
M  V30 5291 H 477.397 3.70641 0.507514 0
M  V30 5292 H 478.73 4.87379 0.687233 0
M  V30 5293 N 480.382 0.0267497 1.57577 0
M  V30 5294 C 481.315 -0.99059 2.05579 0
M  V30 5295 C 482.293 -1.31884 0.951065 0
M  V30 5296 O 483.477 -1.43592 1.22121 0
M  V30 5297 C 480.604 -2.31125 2.47586 0
M  V30 5298 C 479.65 -2.13777 3.69055 0
M  V30 5299 S 480.483 -1.4388 5.15809 0
M  V30 5300 C 481.639 -2.77321 5.6111 0
M  V30 5301 H 481.872 -0.581976 2.91548 0
M  V30 5302 H 479.405 -0.184876 1.53289 0
M  V30 5303 H 481.363 -3.07049 2.72454 0
M  V30 5304 H 480.024 -2.6912 1.61967 0
M  V30 5305 H 479.217 -3.11405 3.96287 0
M  V30 5306 H 478.819 -1.45996 3.44327 0
M  V30 5307 H 481.111 -3.73565 5.65204 0
M  V30 5308 H 482.054 -2.54756 6.60685 0
M  V30 5309 H 482.462 -2.82459 4.88751 0
M  V30 5310 N 481.861 -1.55662 -0.24637 0
M  V30 5311 C 483.107 -1.77782 -0.975779 0
M  V30 5312 C 483.44 -0.592103 -1.84953 0
M  V30 5313 O 482.715 0.409588 -1.90138 0
M  V30 5314 C 482.998 -3.09788 -1.83584 0
M  V30 5315 C 482.851 -4.38764 -0.990241 0
M  V30 5316 C 484.17 -3.38029 -2.81823 0
M  V30 5317 H 481.289 -0.646789 -0.353317 0
M  V30 5318 H 483.931 -1.88398 -0.246248 0
M  V30 5319 H 482.081 -3.00869 -2.45784 0
M  V30 5320 H 483.753 -4.59675 -0.386897 0
M  V30 5321 H 481.996 -4.32798 -0.294626 0
M  V30 5322 H 482.667 -5.27514 -1.62584 0
M  V30 5323 H 485.143 -3.46915 -2.2976 0
M  V30 5324 H 484.019 -4.3161 -3.39122 0
M  V30 5325 H 484.28 -2.58968 -3.58313 0
M  V30 5326 N 483.339 0.512053 -1.4905 0
M  V30 5327 C 484.269 1.62365 -1.67809 0
M  V30 5328 C 485.25 1.61737 -0.526809 0
M  V30 5329 O 486.435 1.78651 -0.761404 0
M  V30 5330 C 483.565 3.00895 -1.73435 0
M  V30 5331 C 482.519 3.16387 -2.88242 0
M  V30 5332 C 481.845 4.56157 -2.78971 0
M  V30 5333 C 483.145 2.97457 -4.29321 0
M  V30 5334 H 484.839 1.46921 -2.60873 0
M  V30 5335 H 482.385 0.705379 -1.2554 0
M  V30 5336 H 484.338 3.78549 -1.85145 0
M  V30 5337 H 483.062 3.17403 -0.769619 0
M  V30 5338 H 481.721 2.41155 -2.76116 0
M  V30 5339 H 481.369 4.69525 -1.8043 0
M  V30 5340 H 481.069 4.67465 -3.5602 0
M  V30 5341 H 482.593 5.35886 -2.92675 0
M  V30 5342 H 484.007 3.64888 -4.42187 0
M  V30 5343 H 482.404 3.20245 -5.07507 0
M  V30 5344 H 483.474 1.93692 -4.44535 0
M  V30 5345 N 484.817 1.37938 0.762283 0
M  V30 5346 C 486.042 1.37059 1.55659 0
M  V30 5347 C 486.467 -0.0396123 1.88058 0
M  V30 5348 O 485.825 -1.01929 1.49934 0
M  V30 5349 C 485.873 2.22494 2.83776 0
M  V30 5350 O 484.977 1.63607 3.78559 0
M  V30 5351 H 484.318 0.467892 0.47114 0
M  V30 5352 H 486.848 1.81587 0.942725 0
M  V30 5353 H 486.858 2.36045 3.32786 0
M  V30 5354 H 485.533 3.24993 2.59524 0
M  V30 5355 H 484.11 1.5915 3.37233 0
M  V30 5356 N 486.295 -0.989507 1.22664 0
M  V30 5357 C 487.523 -1.76496 1.07967 0
M  V30 5358 C 487.938 -1.85148 -0.369543 0
M  V30 5359 O 487.295 -1.32408 -1.25596 0
M  V30 5360 C 487.346 -3.19642 1.68853 0
M  V30 5361 O 487.067 -3.11453 3.08105 0
M  V30 5362 C 488.568 -4.13621 1.59475 0
M  V30 5363 H 485.788 -0.55418 0.378319 0
M  V30 5364 H 488.332 -1.24378 1.62328 0
M  V30 5365 H 486.487 -3.68816 1.18547 0
M  V30 5366 H 486.901 -4.01499 3.37489 0
M  V30 5367 H 488.375 -5.11801 2.06795 0
M  V30 5368 H 488.852 -4.35718 0.55191 0
M  V30 5369 H 489.458 -3.70346 2.09103 0
M  V30 5370 N 487.773 -1.03688 -1.18687 0
M  V30 5371 C 489.05 -0.652397 -1.84399 0
M  V30 5372 C 489.43 0.868386 -1.92412 0
M  V30 5373 O 488.778 1.76832 -1.44716 0
M  V30 5374 C 488.988 -1.3238 -3.22919 0
M  V30 5375 C 490.336 -1.45216 -3.98996 0
M  V30 5376 O 491.36 -1.2816 -3.32345 0
M  V30 5377 O 490.219 -1.72975 -5.18403 0
M  V30 5378 H 487.313 -0.227793 -0.795009 0
M  V30 5379 H 489.859 -1.13553 -1.2611 0
M  V30 5380 H 488.631 -2.36202 -3.11968 0
M  V30 5381 H 488.254 -0.829039 -3.88861 0
M  V30 5382 N 489.251 1.34841 -0.815825 0
M  V30 5383 C 490.184 2.27504 -0.178062 0
M  V30 5384 C 491.162 1.48542 0.661373 0
M  V30 5385 O 492.346 1.77779 0.626653 0
M  V30 5386 C 489.473 3.30246 0.752002 0
M  V30 5387 C 488.519 4.26499 -0.00899172 0
M  V30 5388 S 489.352 5.18169 -1.35134 0
M  V30 5389 C 490.508 6.24449 -0.42596 0
M  V30 5390 H 490.741 2.81248 -0.963684 0
M  V30 5391 H 488.274 1.41781 -0.611355 0
M  V30 5392 H 490.232 3.89933 1.28308 0
M  V30 5393 H 488.893 2.75363 1.51109 0
M  V30 5394 H 488.086 4.99146 0.697766 0
M  V30 5395 H 487.688 3.7103 -0.470396 0
M  V30 5396 H 489.98 6.76404 0.385234 0
M  V30 5397 H 490.923 6.99156 -1.1219 0
M  V30 5398 H 491.331 5.64497 -0.0175461 0
M  V30 5399 N 490.729 0.570148 1.46925 0
M  V30 5400 C 491.954 0.0542592 2.07329 0
M  V30 5401 C 492.379 -1.23582 1.41806 0
M  V30 5402 O 491.737 -1.74341 0.497479 0
M  V30 5403 C 491.785 -0.111175 3.60429 0
M  V30 5404 O 490.889 -1.17071 3.95434 0
M  V30 5405 H 490.23 0.0571425 0.661537 0
M  V30 5406 H 492.76 0.789516 1.88753 0
M  V30 5407 H 492.77 -0.321315 4.06733 0
M  V30 5408 H 491.445 0.831012 4.07513 0
M  V30 5409 H 490.022 -0.940029 3.60857 0
M  V30 5410 N 492.207 -1.54576 0.307264 0
M  V30 5411 C 493.455 -1.99867 -0.299574 0
M  V30 5412 C 493.776 -1.19714 -1.53927 0
M  V30 5413 O 493.046 -0.29472 -1.9367 0
M  V30 5414 H 491.626 -0.738299 -0.113683 0
M  V30 5415 H 494.288 -1.9032 0.420042 0
M  V30 5416 H 493.384 -3.06901 -0.567283 0
M  V30 5417 N 493.685 -0.035106 -1.57561 0
M  V30 5418 C 494.635 0.954034 -2.0708 0
M  V30 5419 C 495.619 1.2818 -0.972558 0
M  V30 5420 O 496.811 1.26691 -1.23606 0
M  V30 5421 C 493.94 2.23442 -2.60631 0
M  V30 5422 C 493.026 1.93475 -3.77396 0
M  V30 5423 N 493.417 1.33802 -4.87781 0
M  V30 5424 C 491.715 2.23434 -3.85996 0
M  V30 5425 C 492.416 1.21103 -5.68954 0
M  V30 5426 N 491.392 1.70855 -5.16052 0
M  V30 5427 H 495.194 0.487731 -2.89825 0
M  V30 5428 H 492.708 0.169759 -1.6151 0
M  V30 5429 H 494.705 2.95183 -2.94402 0
M  V30 5430 H 493.365 2.70693 -1.79319 0
M  V30 5431 H 494.376 1.01227 -5.07911 0
M  V30 5432 H 491.053 2.73317 -3.15601 0
M  V30 5433 H 492.443 0.749105 -6.67711 0
M  V30 5434 N 495.163 1.55791 0.238111 0
M  V30 5435 C 496.41 1.78033 0.964907 0
M  V30 5436 C 496.738 0.600984 1.84982 0
M  V30 5437 O 495.993 -0.41536 1.91241 0
M  V30 5438 C 496.292 3.05869 1.84875 0
M  V30 5439 C 495.958 4.36808 1.11846 0
M  V30 5440 C 494.62 4.72388 0.916662 0
M  V30 5441 C 496.972 5.17717 0.60151 0
M  V30 5442 C 494.3 5.86406 0.185756 0
M  V30 5443 C 496.652 6.32494 -0.115972 0
M  V30 5444 C 495.316 6.66688 -0.329168 0
M  V30 5445 H 494.586 0.651469 0.353085 0
M  V30 5446 H 497.233 1.90061 0.234318 0
M  V30 5447 H 495.538 2.88891 2.64668 0
M  V30 5448 H 497.235 3.20278 2.41294 0
M  V30 5449 H 493.825 4.08862 1.28569 0
M  V30 5450 H 498.009 4.90678 0.744932 0
M  V30 5451 H 493.265 6.11399 0.0101886 0
M  V30 5452 H 497.439 6.94425 -0.524127 0
M  V30 5453 H 495.066 7.54884 -0.897474 0
M  V30 5454 N 496.642 -0.504142 1.49319 0
M  V30 5455 C 497.574 -1.62265 1.61872 0
M  V30 5456 C 498.587 -1.54881 0.501573 0
M  V30 5457 O 499.776 -1.6087 0.773497 0
M  V30 5458 C 496.876 -3.01042 1.55651 0
M  V30 5459 C 496.049 -3.33642 2.82845 0
M  V30 5460 C 495.108 -4.51816 2.69719 0
M  V30 5461 O 494.134 -4.53755 3.4365 0
M  V30 5462 N 495.336 -5.51543 1.81055 0
M  V30 5463 H 498.101 -1.51924 2.58339 0
M  V30 5464 H 495.662 -0.691954 1.46368 0
M  V30 5465 H 497.654 -3.78013 1.44528 0
M  V30 5466 H 496.224 -3.05323 0.670546 0
M  V30 5467 H 495.444 -2.45598 3.08343 0
M  V30 5468 H 496.732 -3.5222 3.67177 0
M  V30 5469 H 496.13 -5.52774 1.20241 0
M  V30 5470 H 494.687 -6.27629 1.75856 0
M  V30 5471 N 498.12 -1.38341 -0.754957 0
M  V30 5472 C 499.052 -1.31347 -1.87831 0
M  V30 5473 C 500.065 -0.225955 -1.61224 0
M  V30 5474 O 501.254 -0.48341 -1.7183 0
M  V30 5475 C 498.354 -1.01201 -3.23437 0
M  V30 5476 C 497.527 -2.20834 -3.77559 0
M  V30 5477 C 496.586 -1.87454 -4.91678 0
M  V30 5478 O 495.612 -2.59934 -5.06382 0
M  V30 5479 N 496.814 -0.828682 -5.74555 0
M  V30 5480 H 499.579 -2.28147 -1.94342 0
M  V30 5481 H 497.14 -1.32184 -0.934828 0
M  V30 5482 H 499.132 -0.769249 -3.97322 0
M  V30 5483 H 497.702 -0.132011 -3.12321 0
M  V30 5484 H 496.922 -2.61184 -2.95256 0
M  V30 5485 H 498.21 -3.00678 -4.10451 0
M  V30 5486 H 497.608 -0.227591 -5.65242 0
M  V30 5487 H 496.165 -0.645802 -6.48593 0
M  V30 5488 N 499.598 0.982988 -1.23187 0
M  V30 5489 C 500.847 1.71817 -1.05649 0
M  V30 5490 C 501.16 1.91315 0.407176 0
M  V30 5491 O 502.366 2.62256 0.702436 0
M  V30 5492 C 500.822 3.09188 -1.84203 0
M  V30 5493 C 500.43 2.97586 -3.34882 0
M  V30 5494 C 502.174 3.86684 -1.75146 0
M  V30 5495 C 500.081 4.30173 -4.05839 0
M  V30 5496 H 499.011 0.644258 -0.391724 0
M  V30 5497 H 501.662 1.09659 -1.4713 0
M  V30 5498 H 500.044 3.72087 -1.35527 0
M  V30 5499 H 501.218 2.43793 -3.91026 0
M  V30 5500 H 499.533 2.33567 -3.44725 0
M  V30 5501 H 502.13 4.84836 -2.25473 0
M  V30 5502 H 502.473 4.10136 -0.713737 0
M  V30 5503 H 503.006 3.30482 -2.21419 0
M  V30 5504 H 499.745 4.11918 -5.09906 0
M  V30 5505 H 499.265 4.83841 -3.54482 0
M  V30 5506 H 500.944 4.98873 -4.11989 0
M  V30 5507 N 501.076 1.04316 1.18135 0
M  V30 5508 C 502.023 0.636398 2.21853 0
M  V30 5509 C 502.993 -0.357039 1.62217 0
M  V30 5510 O 504.178 -0.250453 1.89149 0
M  V30 5511 C 501.318 0.00812779 3.45099 0
M  V30 5512 C 500.431 1.04933 4.19062 0
M  V30 5513 C 499.566 0.389313 5.29771 0
M  V30 5514 C 498.605 1.41544 5.9551 0
M  V30 5515 N 497.742 0.78021 6.97751 0
M  V30 5516 H 502.582 1.52536 2.56002 0
M  V30 5517 H 500.119 0.76304 1.25762 0
M  V30 5518 H 502.077 -0.373497 4.15525 0
M  V30 5519 H 500.707 -0.844336 3.11562 0
M  V30 5520 H 499.759 1.54888 3.47439 0
M  V30 5521 H 501.071 1.82862 4.64072 0
M  V30 5522 H 500.225 -0.0463805 6.06682 0
M  V30 5523 H 498.964 -0.422038 4.8587 0
M  V30 5524 H 497.969 1.86124 5.17337 0
M  V30 5525 H 499.194 2.22854 6.41493 0
M  V30 5526 H 497.14 -0.0107899 6.55999 0
M  V30 5527 H 497.057 1.49716 7.41027 0
M  V30 5528 H 498.325 0.368996 7.78626 0
M  V30 5529 N 502.554 -1.34406 0.822964 0
M  V30 5530 C 503.502 -2.31428 0.233165 0
M  V30 5531 C 504.496 -1.57404 -0.626118 0
M  V30 5532 O 505.702 -1.72402 -0.517453 0
M  V30 5533 H 502.077 -0.749863 0.0566557 0
M  V30 5534 H 504.048 -2.78699 1.06628 0
M  V30 5535 C 502.797 -3.42653 -0.590264 0
M  V30 5536 H 502.12 -3.99753 0.0616129 0
M  V30 5537 H 503.56 -4.12778 -0.969054 0
M  V30 5538 C 502.019 -2.87112 -1.76262 0
M  V30 5539 O 502.549 -2.81995 -2.8608 0
M  V30 5540 N 500.755 -2.43934 -1.57938 0
M  V30 5541 H 500.302 -2.48296 -0.686078 0
M  V30 5542 H 500.26 -2.07123 -2.36532 0
M  V30 5543 N 504.032 -0.577932 -1.46621 0
M  V30 5544 C 505.281 -0.0594281 -2.01612 0
M  V30 5545 C 505.594 1.30663 -1.45556 0
M  V30 5546 O 506.8 1.91621 -1.92337 0
M  V30 5547 C 505.256 -0.0556666 -3.59857 0
M  V30 5548 C 504.864 -1.41975 -4.24908 0
M  V30 5549 C 506.608 0.409143 -4.22524 0
M  V30 5550 C 504.515 -1.37397 -5.75218 0
M  V30 5551 H 503.445 -0.0184469 -0.753774 0
M  V30 5552 H 506.096 -0.728869 -1.68404 0
M  V30 5553 H 504.478 0.679843 -3.90121 0
M  V30 5554 H 505.652 -2.17461 -4.0626 0
M  V30 5555 H 503.967 -1.82419 -3.74316 0
M  V30 5556 H 506.564 0.46211 -5.32699 0
M  V30 5557 H 506.907 1.42565 -3.91128 0
M  V30 5558 H 507.44 -0.272152 -3.96868 0
M  V30 5559 H 504.179 -2.36714 -6.11267 0
M  V30 5560 H 503.699 -0.661239 -5.96144 0
M  V30 5561 H 505.378 -1.08484 -6.3784 0
M  V30 5562 N 505.51 1.54411 -0.315457 0
M  V30 5563 C 506.926 1.59556 0.037464 0
M  V30 5564 C 507.126 1.33217 1.5118 0
M  V30 5565 O 506.182 1.11264 2.26664 0
M  V30 5566 C 507.495 2.98372 -0.373477 0
M  V30 5567 C 509.043 3.11324 -0.323452 0
M  V30 5568 C 509.518 4.52472 -0.709433 0
M  V30 5569 N 511.009 4.58437 -0.662524 0
M  V30 5570 C 511.744 5.65751 -0.933474 0
M  V30 5571 N 511.24 6.81039 -1.27114 0
M  V30 5572 N 513.033 5.55489 -0.859573 0
M  V30 5573 H 505.184 1.6979 -1.27614 0
M  V30 5574 H 507.447 0.793732 -0.518356 0
M  V30 5575 H 507.153 3.22618 -1.40037 0
M  V30 5576 H 507.027 3.76264 0.265615 0
M  V30 5577 H 509.414 2.86818 0.694223 0
M  V30 5578 H 509.495 2.35555 -0.997367 0
M  V30 5579 H 509.139 4.7771 -1.72498 0
M  V30 5580 H 509.069 5.26598 -0.0132923 0
M  V30 5581 H 511.56 3.75636 -0.413065 0
M  V30 5582 H 511.873 7.58816 -1.46348 0
M  V30 5583 H 510.218 6.82555 -1.30932 0
M  V30 5584 H 513.409 4.64299 -0.595324 0
M  V30 5585 H 513.582 6.39036 -1.0741 0
M  V30 5586 N 506.988 0.0434614 1.5754 0
M  V30 5587 C 507.936 -0.951465 2.1225 0
M  V30 5588 C 508.93 -1.3274 1.05245 0
M  V30 5589 O 510.136 -1.30795 1.23663 0
M  V30 5590 H 506.511 -0.324667 0.678303 0
M  V30 5591 H 508.482 -0.464855 2.94757 0
M  V30 5592 C 507.231 -2.21972 2.67626 0
M  V30 5593 H 506.554 -1.93923 3.4962 0
M  V30 5594 H 507.994 -2.89765 3.09536 0
M  V30 5595 C 506.453 -2.95919 1.61038 0
M  V30 5596 O 506.983 -3.8857 1.01862 0
M  V30 5597 N 505.189 -2.58511 1.32741 0
M  V30 5598 H 504.736 -1.83244 1.81051 0
M  V30 5599 H 504.694 -3.08296 0.616531 0
M  V30 5600 N 508.466 -1.55915 -0.229846 0
M  V30 5601 C 509.691 -1.8296 -0.976743 0
M  V30 5602 C 510.116 -0.622735 -1.77493 0
M  V30 5603 O 509.474 0.428431 -1.76165 0
M  V30 5604 C 509.522 -3.07916 -1.8767 0
M  V30 5605 O 508.626 -2.86028 -2.97088 0
M  V30 5606 H 507.967 -0.603453 -0.277021 0
M  V30 5607 H 510.497 -2.0312 -0.245669 0
M  V30 5608 H 510.507 -3.37802 -2.2881 0
M  V30 5609 H 509.182 -3.95389 -1.28996 0
M  V30 5610 H 507.759 -2.67355 -2.59954 0
M  V30 5611 N 509.944 0.496216 -1.49584 0
M  V30 5612 C 510.874 1.60576 -1.69521 0
M  V30 5613 C 511.855 1.61169 -0.543933 0
M  V30 5614 O 513.04 1.77834 -0.78031 0
M  V30 5615 C 510.17 2.99038 -1.76616 0
M  V30 5616 C 509.124 3.13312 -2.91581 0
M  V30 5617 C 508.45 4.53172 -2.83794 0
M  V30 5618 C 509.75 2.92886 -4.32452 0
M  V30 5619 H 511.444 1.44146 -2.62416 0
M  V30 5620 H 508.99 0.692024 -1.26282 0
M  V30 5621 H 510.943 3.76564 -1.8915 0
M  V30 5622 H 509.667 3.16568 -0.80324 0
M  V30 5623 H 508.326 2.38213 -2.78658 0
M  V30 5624 H 507.974 4.67585 -1.854 0
M  V30 5625 H 507.674 4.63662 -3.60958 0
M  V30 5626 H 509.198 5.32752 -2.98342 0
M  V30 5627 H 510.612 3.60178 -4.46032 0
M  V30 5628 H 509.009 3.14844 -5.10875 0
M  V30 5629 H 510.079 1.88966 -4.46565 0
M  V30 5630 N 511.423 1.38739 0.74761 0
M  V30 5631 C 512.355 1.32341 1.87132 0
M  V30 5632 C 513.368 0.234502 1.61102 0
M  V30 5633 O 514.557 0.492516 1.71571 0
M  V30 5634 C 511.657 1.02915 3.22896 0
M  V30 5635 C 510.83 2.22834 3.76383 0
M  V30 5636 C 509.889 1.90059 4.90677 0
M  V30 5637 O 508.915 2.62615 5.04997 0
M  V30 5638 N 510.117 0.859141 5.74107 0
M  V30 5639 H 512.882 2.29175 1.93129 0
M  V30 5640 H 510.443 1.32678 0.927805 0
M  V30 5641 H 512.435 0.79031 3.96908 0
M  V30 5642 H 511.005 0.148572 3.12247 0
M  V30 5643 H 510.225 2.62747 2.93867 0
M  V30 5644 H 511.513 3.02851 4.08851 0
M  V30 5645 H 510.911 0.257564 5.65113 0
M  V30 5646 H 509.468 0.680189 6.48241 0
M  V30 5647 N 512.901 -0.976442 1.23707 0
M  V30 5648 C 513.833 -2.07212 0.979574 0
M  V30 5649 C 514.846 -1.6273 -0.0478528 0
M  V30 5650 O 516.035 -1.77506 0.18815 0
M  V30 5651 C 513.135 -3.35835 0.45479 0
M  V30 5652 C 512.308 -4.09268 1.54331 0
M  V30 5653 C 511.367 -5.16166 1.02271 0
M  V30 5654 O 510.393 -5.42827 1.71254 0
M  V30 5655 N 511.595 -5.80313 -0.147419 0
M  V30 5656 H 514.36 -2.29878 1.92292 0
M  V30 5657 H 511.921 -1.14343 1.14618 0
M  V30 5658 H 513.913 -4.04597 0.0914631 0
M  V30 5659 H 512.483 -3.10106 -0.394068 0
M  V30 5660 H 511.703 -3.34906 2.07923 0
M  V30 5661 H 512.991 -4.55095 2.27522 0
M  V30 5662 H 512.389 -5.61043 -0.724353 0
M  V30 5663 H 510.946 -6.50231 -0.451972 0
M  V30 5664 N 514.379 -1.04941 -1.1758 0
M  V30 5665 C 515.79 -0.784501 -1.69418 0
M  V30 5666 C 516.141 0.693625 -1.8353 0
M  V30 5667 O 515.266 1.53925 -1.52106 0
M  V30 5668 C 515.861 -1.41746 -3.07723 0
M  V30 5669 C 514.42 -1.20066 -3.56737 0
M  V30 5670 C 513.567 -1.5026 -2.33061 0
M  V30 5671 H 516.518 -1.21469 -1.02133 0
M  V30 5672 H 516.539 -0.825381 -3.7144 0
M  V30 5673 H 516.051 -2.49325 -2.9742 0
M  V30 5674 H 514.152 -0.144006 -3.72322 0
M  V30 5675 H 514.265 -1.90384 -4.39648 0
M  V30 5676 H 512.629 -0.922598 -2.37403 0
M  V30 5677 H 513.412 -2.58967 -2.25368 0
M  V30 5678 N 515.857 1.33968 -0.830081 0
M  V30 5679 C 516.767 2.33164 -0.259207 0
M  V30 5680 C 517.783 1.62951 0.610164 0
M  V30 5681 O 518.959 1.94668 0.516369 0
M  V30 5682 C 516.024 3.42088 0.563598 0
M  V30 5683 C 515.085 4.28037 -0.329014 0
M  V30 5684 C 514.318 5.3176 0.454616 0
M  V30 5685 O 514.541 5.44876 1.6872 0
M  V30 5686 O 513.475 6.01669 -0.166794 0
M  V30 5687 H 517.301 2.83832 -1.08041 0
M  V30 5688 H 514.886 1.37154 -0.59239 0
M  V30 5689 H 516.768 4.08581 1.03147 0
M  V30 5690 H 515.443 2.93651 1.36201 0
M  V30 5691 H 514.35 3.64443 -0.844538 0
M  V30 5692 H 515.683 4.79934 -1.09196 0
M  V30 5693 N 517.335 0.585699 1.46312 0
M  V30 5694 C 518.583 0.072278 2.01971 0
M  V30 5695 C 518.904 -1.29345 1.45928 0
M  V30 5696 O 518.174 -1.84973 0.645109 0
M  V30 5697 H 516.754 0.023729 0.746623 0
M  V30 5698 H 519.416 0.762155 1.7938 0
M  V30 5699 H 518.512 0.00552767 3.121 0
M  V30 5700 N 518.813 -1.54241 0.323641 0
M  V30 5701 C 520.062 -1.9975 -0.279806 0
M  V30 5702 C 520.375 -1.2156 -1.5324 0
M  V30 5703 O 521.581 -1.57447 -2.21185 0
M  V30 5704 C 520.037 -3.55686 -0.549115 0
M  V30 5705 C 519.645 -4.4271 0.686432 0
M  V30 5706 C 521.389 -4.09663 -1.11251 0
M  V30 5707 C 519.296 -5.90119 0.389022 0
M  V30 5708 H 518.226 -0.746177 -0.10833 0
M  V30 5709 H 520.877 -1.78248 0.435877 0
M  V30 5710 H 519.259 -3.73176 -1.32499 0
M  V30 5711 H 520.433 -4.36996 1.46188 0
M  V30 5712 H 518.748 -3.99623 1.17005 0
M  V30 5713 H 521.345 -5.17386 -1.34965 0
M  V30 5714 H 521.688 -3.61651 -2.06191 0
M  V30 5715 H 522.221 -3.95806 -0.39782 0
M  V30 5716 H 518.96 -6.42326 1.30759 0
M  V30 5717 H 518.48 -5.98785 -0.348722 0
M  V30 5718 H 520.159 -6.47 -0.0011164 0
M  V30 5719 N 520.291 -0.0518155 -1.57515 0
M  V30 5720 C 521.568 0.661727 -1.84067 0
M  V30 5721 C 521.948 1.88999 -0.940351 0
M  V30 5722 O 521.296 2.285 -0.00155404 0
M  V30 5723 C 521.506 1.01841 -3.3381 0
M  V30 5724 C 522.854 1.40043 -4.00841 0
M  V30 5725 O 523.878 1.11073 -3.38439 0
M  V30 5726 O 522.737 1.94111 -5.10865 0
M  V30 5727 H 519.831 0.326702 -0.759733 0
M  V30 5728 H 522.377 -0.0812277 -1.69505 0
M  V30 5729 H 521.149 0.145202 -3.91031 0
M  V30 5730 H 520.772 1.81879 -3.53562 0
M  V30 5731 N 521.769 1.56035 0.221574 0
M  V30 5732 C 523.185 1.49026 0.571271 0
M  V30 5733 C 523.385 0.746912 1.87146 0
M  V30 5734 O 522.441 0.286566 2.50869 0
M  V30 5735 C 523.754 2.93579 0.650522 0
M  V30 5736 C 525.302 3.04099 0.741151 0
M  V30 5737 C 525.777 4.5001 0.851747 0
M  V30 5738 N 527.268 4.54053 0.915968 0
M  V30 5739 C 528.003 5.64232 1.02125 0
M  V30 5740 N 527.499 6.84164 1.09049 0
M  V30 5741 N 529.292 5.52084 1.05639 0
M  V30 5742 H 521.443 2.02791 -0.63162 0
M  V30 5743 H 523.706 0.921736 -0.221602 0
M  V30 5744 H 523.412 3.50912 -0.235253 0
M  V30 5745 H 523.286 3.45476 1.51413 0
M  V30 5746 H 525.673 2.4683 1.61737 0
M  V30 5747 H 525.754 2.55371 -0.148128 0
M  V30 5748 H 525.398 5.07896 -0.0200117 0
M  V30 5749 H 525.328 4.96444 1.75644 0
M  V30 5750 H 527.819 3.67683 0.872782 0
M  V30 5751 H 528.132 7.63883 1.1706 0
M  V30 5752 H 526.477 6.86875 1.05962 0
M  V30 5753 H 529.668 4.57317 0.998953 0
M  V30 5754 H 529.841 6.37983 1.13498 0
M  V30 5755 N 523.247 -0.488276 1.49845 0
M  V30 5756 C 524.21 -1.57069 1.66919 0
M  V30 5757 C 525.21 -1.51445 0.540479 0
M  V30 5758 O 526.4 -1.5437 0.807188 0
M  V30 5759 C 523.532 -2.96718 1.67844 0
M  V30 5760 H 524.725 -1.43254 2.63474 0
M  V30 5761 H 522.278 -0.713435 1.39068 0
M  V30 5762 H 523.013 -3.15996 0.7292 0
M  V30 5763 H 522.798 -3.02208 2.49826 0
M  V30 5764 H 524.288 -3.75335 1.83066 0
M  V30 5765 N 524.725 -1.39134 -0.740242 0
M  V30 5766 C 525.672 -1.37434 -1.8542 0
M  V30 5767 C 526.642 -0.234822 -1.64432 0
M  V30 5768 O 527.827 -0.429125 -1.85912 0
M  V30 5769 C 524.967 -1.21844 -3.22875 0
M  V30 5770 C 524.08 -2.45296 -3.55603 0
M  V30 5771 C 523.215 -2.22334 -4.82432 0
M  V30 5772 C 522.254 -3.41488 -5.07988 0
M  V30 5773 N 521.391 -3.17877 -6.26018 0
M  V30 5774 H 526.231 -2.3266 -1.86207 0
M  V30 5775 H 523.768 -1.15578 -0.909946 0
M  V30 5776 H 525.726 -1.10818 -4.02213 0
M  V30 5777 H 524.356 -0.3025 -3.21379 0
M  V30 5778 H 523.408 -2.66945 -2.71006 0
M  V30 5779 H 524.72 -3.34063 -3.7041 0
M  V30 5780 H 523.874 -2.0852 -5.69741 0
M  V30 5781 H 522.613 -1.30954 -4.6979 0
M  V30 5782 H 521.618 -3.55807 -4.19144 0
M  V30 5783 H 522.843 -4.33763 -5.22519 0
M  V30 5784 H 520.789 -2.29156 -6.14673 0
M  V30 5785 H 520.706 -4.00198 -6.41387 0
M  V30 5786 H 521.974 -3.07746 -7.16179 0
M  V30 5787 N 526.204 0.969867 -1.24223 0
M  V30 5788 C 527.432 1.74756 -1.10761 0
M  V30 5789 C 527.847 1.85713 0.340041 0
M  V30 5790 O 527.204 1.34389 1.23474 0
M  V30 5791 C 527.255 3.16915 -1.73917 0
M  V30 5792 O 526.976 3.06511 -3.13021 0
M  V30 5793 C 528.477 4.11032 -1.66036 0
M  V30 5794 H 525.697 0.548092 -0.387087 0
M  V30 5795 H 528.241 1.2178 -1.64286 0
M  V30 5796 H 526.396 3.66884 -1.244 0
M  V30 5797 H 526.81 3.96079 -3.43834 0
M  V30 5798 H 528.284 5.08446 -2.14911 0
M  V30 5799 H 528.761 4.34785 -0.621159 0
M  V30 5800 H 529.367 3.66972 -2.14969 0
M  V30 5801 N 527.682 1.05563 1.17022 0
M  V30 5802 C 528.615 0.604197 2.20056 0
M  V30 5803 C 529.593 -0.369169 1.58354 0
M  V30 5804 O 530.777 -0.279898 1.8641 0
M  V30 5805 C 527.904 -0.115265 3.38504 0
M  V30 5806 C 526.95 0.813698 4.18666 0
M  V30 5807 S 527.783 2.30492 4.83357 0
M  V30 5808 C 528.939 1.59674 6.0519 0
M  V30 5809 H 529.172 1.47713 2.58008 0
M  V30 5810 H 526.705 0.867932 1.27696 0
M  V30 5811 H 528.663 -0.524162 4.0714 0
M  V30 5812 H 527.324 -0.964284 2.98932 0
M  V30 5813 H 526.517 0.256736 5.03346 0
M  V30 5814 H 526.119 1.16213 3.55486 0
M  V30 5815 H 528.411 0.898164 6.7152 0
M  V30 5816 H 529.354 2.42115 6.65422 0
M  V30 5817 H 529.762 1.08252 5.54023 0
M  V30 5818 N 529.16 -1.33526 0.837174 0
M  V30 5819 C 530.385 -2.0258 0.444545 0
M  V30 5820 C 530.81 -1.6258 -0.946006 0
M  V30 5821 O 530.168 -0.817548 -1.6182 0
M  V30 5822 C 530.216 -3.5605 0.571006 0
M  V30 5823 O 529.32 -4.10422 -0.403431 0
M  V30 5824 H 528.661 -0.638866 0.180958 0
M  V30 5825 H 531.191 -1.70462 1.13154 0
M  V30 5826 H 531.201 -4.05488 0.452024 0
M  V30 5827 H 529.876 -3.84509 1.58512 0
M  V30 5828 H 528.453 -3.72113 -0.242147 0
M  V30 5829 N 530.638 -0.59345 -1.46 0
M  V30 5830 C 531.568 0.121192 -2.33185 0
M  V30 5831 C 532.549 0.872977 -1.4599 0
M  V30 5832 O 533.734 0.846321 -1.74789 0
M  V30 5833 C 530.864 1.12844 -3.28456 0
M  V30 5834 C 529.818 0.4908 -4.25177 0
M  V30 5835 C 529.144 1.60529 -5.10034 0
M  V30 5836 C 530.444 -0.578949 -5.19081 0
M  V30 5837 H 532.138 -0.606767 -2.93187 0
M  V30 5838 H 529.684 -0.293242 -1.40983 0
M  V30 5839 H 531.637 1.63684 -3.88311 0
M  V30 5840 H 530.361 1.88681 -2.66584 0
M  V30 5841 H 529.02 0.00339328 -3.666 0
M  V30 5842 H 528.668 2.35359 -4.44539 0
M  V30 5843 H 528.368 1.18422 -5.75543 0
M  V30 5844 H 529.892 2.11623 -5.72755 0
M  V30 5845 H 531.306 -0.155199 -5.7309 0
M  V30 5846 H 529.703 -0.920947 -5.92991 0
M  V30 5847 H 530.773 -1.46109 -4.62364 0
M  V30 5848 N 532.116 1.54067 -0.331816 0
M  V30 5849 C 533.365 1.99895 0.269209 0
M  V30 5850 C 533.678 1.22371 1.52593 0
M  V30 5851 O 534.884 1.58618 2.20347 0
M  V30 5852 C 533.34 3.55972 0.530244 0
M  V30 5853 C 532.948 4.4234 -0.709901 0
M  V30 5854 C 534.692 4.10247 1.09077 0
M  V30 5855 C 532.599 5.89905 -0.420312 0
M  V30 5856 H 531.529 0.746741 0.104371 0
M  V30 5857 H 534.18 1.78014 -0.445324 0
M  V30 5858 H 532.562 3.73873 1.30518 0
M  V30 5859 H 533.736 4.36215 -1.48504 0
M  V30 5860 H 532.051 3.98997 -1.19123 0
M  V30 5861 H 534.648 5.18095 1.32219 0
M  V30 5862 H 534.991 3.62739 2.0427 0
M  V30 5863 H 535.524 3.96011 0.376824 0
M  V30 5864 H 532.263 6.41623 -1.34164 0
M  V30 5865 H 531.783 5.98962 0.316962 0
M  V30 5866 H 533.462 6.46991 -0.0331956 0
M  V30 5867 N 533.594 0.0601682 1.57485 0
M  V30 5868 C 534.524 -0.90889 2.15085 0
M  V30 5869 C 535.505 -1.31838 1.07484 0
M  V30 5870 O 536.69 -1.3915 1.35466 0
M  V30 5871 C 533.82 -2.18059 2.7031 0
M  V30 5872 C 532.774 -1.91088 3.82974 0
M  V30 5873 C 532.1 -3.24789 4.24754 0
M  V30 5874 C 533.4 -1.22535 5.07723 0
M  V30 5875 H 535.094 -0.429093 2.96309 0
M  V30 5876 H 532.64 -0.204952 1.42534 0
M  V30 5877 H 534.593 -2.86258 3.09248 0
M  V30 5878 H 533.317 -2.6826 1.8629 0
M  V30 5879 H 531.976 -1.25297 3.44523 0
M  V30 5880 H 531.624 -3.72809 3.37672 0
M  V30 5881 H 531.324 -3.07538 5.00694 0
M  V30 5882 H 532.848 -3.94205 4.66299 0
M  V30 5883 H 534.262 -1.80783 5.4405 0
M  V30 5884 H 532.659 -1.1558 5.88864 0
M  V30 5885 H 533.729 -0.202692 4.84476 0
M  V30 5886 N 535.072 -1.5615 -0.213296 0
M  V30 5887 C 536.022 -1.89485 -1.26804 0
M  V30 5888 C 537.006 -0.758713 -1.41889 0
M  V30 5889 O 538.198 -1.02127 -1.44565 0
M  V30 5890 C 535.327 -2.22219 -2.61675 0
M  V30 5891 C 534.413 -3.42245 -2.50458 0
M  V30 5892 N 534.804 -4.60645 -2.089 0
M  V30 5893 C 533.102 -3.46023 -2.81397 0
M  V30 5894 C 533.803 -5.42805 -2.09135 0
M  V30 5895 N 532.779 -4.82732 -2.49941 0
M  V30 5896 H 536.581 -2.78537 -0.937771 0
M  V30 5897 H 534.095 -1.56826 -0.421824 0
M  V30 5898 H 536.092 -2.44278 -3.37837 0
M  V30 5899 H 534.752 -1.34484 -2.95541 0
M  V30 5900 H 535.763 -4.85651 -1.79899 0
M  V30 5901 H 532.44 -2.68654 -3.1958 0
M  V30 5902 H 533.83 -6.47601 -1.79059 0
M  V30 5903 N 536.55 0.480323 -1.50102 0
M  V30 5904 C 537.513 1.56181 -1.6775 0
M  V30 5905 C 538.513 1.51156 -0.548503 0
M  V30 5906 O 539.703 1.5394 -0.815363 0
M  V30 5907 C 536.835 2.95823 -1.69415 0
M  V30 5908 H 538.028 1.41855 -2.6423 0
M  V30 5909 H 535.581 0.70605 -1.39444 0
M  V30 5910 H 536.316 3.15604 -0.745948 0
M  V30 5911 H 536.101 3.00878 -2.51425 0
M  V30 5912 H 537.591 3.74359 -1.85054 0
M  V30 5913 N 538.028 1.39524 0.732853 0
M  V30 5914 C 538.991 1.38189 1.82857 0
M  V30 5915 C 539.991 0.278624 1.58368 0
M  V30 5916 O 541.181 0.536639 1.65728 0
M  V30 5917 C 538.313 1.15661 3.2068 0
M  V30 5918 H 539.506 2.35692 1.85444 0
M  V30 5919 H 537.059 1.2512 0.936728 0
M  V30 5920 H 537.794 0.188482 3.23752 0
M  V30 5921 H 537.579 1.95559 3.39852 0
M  V30 5922 H 539.069 1.17472 4.00737 0
M  V30 5923 N 539.506 -0.963266 1.24736 0
M  V30 5924 C 540.783 -1.68248 0.9976 0
M  V30 5925 C 541.163 -2.05599 -0.478776 0
M  V30 5926 O 540.511 -1.7626 -1.45412 0
M  V30 5927 C 540.721 -2.91118 1.92487 0
M  V30 5928 C 542.069 -3.63261 2.19833 0
M  V30 5929 O 543.093 -3.01184 1.90176 0
M  V30 5930 O 541.952 -4.75019 2.7022 0
M  V30 5931 H 539.046 -0.735744 0.377637 0
M  V30 5932 H 541.592 -1.01696 1.35853 0
M  V30 5933 H 540.364 -2.60242 2.92215 0
M  V30 5934 H 539.987 -3.65402 1.56738 0
M  V30 5935 N 540.985 -1.06182 -1.16461 0
M  V30 5936 C 542.234 -0.772927 -1.86303 0
M  V30 5937 C 542.547 0.703187 -1.82523 0
M  V30 5938 O 543.753 1.10641 -2.47933 0
M  V30 5939 C 542.209 -1.33249 -3.34324 0
M  V30 5940 C 541.817 -2.83876 -3.46581 0
M  V30 5941 C 543.561 -1.12108 -4.09429 0
M  V30 5942 C 541.468 -3.33082 -4.88682 0
M  V30 5943 H 540.398 -0.285452 -0.697878 0
M  V30 5944 H 543.049 -1.28039 -1.31447 0
M  V30 5945 H 541.431 -0.7528 -3.88779 0
M  V30 5946 H 542.605 -3.47786 -3.02293 0
M  V30 5947 H 540.92 -3.03671 -2.84909 0
M  V30 5948 H 543.517 -1.46361 -5.14279 0
M  V30 5949 H 543.86 -0.0593832 -4.16258 0
M  V30 5950 H 544.393 -1.6665 -3.6121 0
M  V30 5951 H 541.132 -4.38726 -4.87032 0
M  V30 5952 H 540.652 -2.73919 -5.33599 0
M  V30 5953 H 542.331 -3.28344 -5.57494 0
M  V30 5954 N 542.463 1.3308 -0.844243 0
M  V30 5955 C 543.688 2.02341 -0.455282 0
M  V30 5956 C 544.113 1.6308 0.93737 0
M  V30 5957 O 543.471 0.826118 1.61385 0
M  V30 5958 C 543.519 3.55743 -0.58988 0
M  V30 5959 O 542.623 4.1063 0.38166 0
M  V30 5960 H 541.964 0.637898 -0.184343 0
M  V30 5961 H 544.494 1.6986 -1.14056 0
M  V30 5962 H 544.504 4.05243 -0.473522 0
M  V30 5963 H 543.179 3.83662 -1.60549 0
M  V30 5964 H 541.756 3.72236 0.22241 0
M  V30 5965 N 543.941 0.601185 1.45683 0
M  V30 5966 C 544.891 -0.142686 2.27553 0
M  V30 5967 C 545.875 -0.844598 1.3695 0
M  V30 5968 O 547.067 -0.735644 1.60988 0
M  V30 5969 C 544.196 -1.14364 3.23691 0
M  V30 5970 C 543.282 -0.442894 4.21781 0
M  V30 5971 N 543.673 0.51189 5.03203 0
M  V30 5972 C 541.971 -0.691277 4.4061 0
M  V30 5973 C 542.672 0.92318 5.74328 0
M  V30 5974 N 541.648 0.268308 5.42937 0
M  V30 5975 H 545.45 0.590736 2.87902 0
M  V30 5976 H 542.964 0.424365 1.56757 0
M  V30 5977 H 544.961 -1.6909 3.8107 0
M  V30 5978 H 543.621 -1.87768 2.64902 0
M  V30 5979 H 544.632 0.888329 5.10225 0
M  V30 5980 H 541.309 -1.41049 3.92952 0
M  V30 5981 H 542.699 1.71029 6.49768 0
M  V30 5982 N 545.419 -1.53889 0.339982 0
M  V30 5983 C 546.83 -1.86139 -0.144671 0
M  V30 5984 C 547.181 -1.2613 -1.50285 0
M  V30 5985 O 546.306 -0.573515 -2.08662 0
M  V30 5986 C 546.901 -3.37728 -0.269285 0
M  V30 5987 C 545.46 -3.69868 -0.698168 0
M  V30 5988 C 544.607 -2.76777 0.170249 0
M  V30 5989 H 547.558 -1.48503 0.559704 0
M  V30 5990 H 547.579 -3.64331 -1.0974 0
M  V30 5991 H 547.091 -3.81375 0.719366 0
M  V30 5992 H 545.192 -3.31764 -1.69597 0
M  V30 5993 H 545.305 -4.76582 -0.490533 0
M  V30 5994 H 543.669 -2.52188 -0.356844 0
M  V30 5995 H 544.452 -3.23253 1.15597 0
M  V30 5996 N 546.897 -0.0685191 -1.57451 0
M  V30 5997 C 547.86 0.885173 -2.11417 0
M  V30 5998 C 548.86 1.22853 -1.03748 0
M  V30 5999 O 550.05 1.16235 -1.2975 0
M  V30 6000 C 547.182 2.18964 -2.61281 0
M  V30 6001 H 548.375 0.417034 -2.96986 0
M  V30 6002 H 545.928 0.18014 -1.55258 0
M  V30 6003 H 546.663 2.70321 -1.79156 0
M  V30 6004 H 546.448 1.9534 -3.39977 0
M  V30 6005 H 547.938 2.87242 -3.0312 0
M  V30 6006 N 548.375 1.56261 0.205012 0
M  V30 6007 C 549.322 1.93754 1.25411 0
M  V30 6008 C 550.292 0.796826 1.45739 0
M  V30 6009 O 551.477 1.05414 1.59036 0
M  V30 6010 C 548.617 2.27383 2.59598 0
M  V30 6011 C 547.73 3.5447 2.46931 0
M  V30 6012 C 546.865 3.77468 3.73753 0
M  V30 6013 C 545.904 4.98014 3.55877 0
M  V30 6014 N 545.041 5.17316 4.74688 0
M  V30 6015 H 549.881 2.83203 0.92737 0
M  V30 6016 H 547.418 1.40158 0.446574 0
M  V30 6017 H 549.376 2.44895 3.37761 0
M  V30 6018 H 548.006 1.41088 2.90335 0
M  V30 6019 H 547.058 3.45061 1.60116 0
M  V30 6020 H 548.37 4.42789 2.29651 0
M  V30 6021 H 547.524 3.95165 4.60358 0
M  V30 6022 H 546.263 2.87461 3.93976 0
M  V30 6023 H 545.268 4.80249 2.67657 0
M  V30 6024 H 546.493 5.8952 3.37109 0
M  V30 6025 H 544.439 4.30255 4.95194 0
M  V30 6026 H 544.356 5.99796 4.60197 0
M  V30 6027 H 545.624 5.39463 5.62672 0
M  V30 6028 N 549.853 -0.472356 1.50355 0
M  V30 6029 C 551.078 -1.25251 1.65309 0
M  V30 6030 C 551.503 -1.85081 0.335643 0
M  V30 6031 O 550.861 -1.67227 -0.700335 0
M  V30 6032 C 550.909 -2.3379 2.74544 0
M  V30 6033 O 550.013 -3.38401 2.35709 0
M  V30 6034 H 549.354 -0.368539 0.552336 0
M  V30 6035 H 551.884 -0.562271 1.96722 0
M  V30 6036 H 551.894 -2.79121 2.97583 0
M  V30 6037 H 550.569 -1.89614 3.70161 0
M  V30 6038 H 549.146 -2.9879 2.23112 0
M  V30 6039 N 551.331 -1.39911 -0.725443 0
M  V30 6040 C 552.577 -1.38862 -1.48624 0
M  V30 6041 C 552.932 0.0125913 -1.92396 0
M  V30 6042 O 552.225 0.981046 -1.64578 0
M  V30 6043 C 552.419 -2.30368 -2.7325 0
M  V30 6044 C 552.248 -3.79247 -2.41665 0
M  V30 6045 C 551.018 -4.48119 -2.3349 0
M  V30 6046 C 553.216 -4.70988 -2.06579 0
M  V30 6047 N 551.198 -5.82282 -1.94476 0
M  V30 6048 C 552.569 -5.93873 -1.78087 0
M  V30 6049 C 554.624 -4.58917 -1.9313 0
M  V30 6050 C 553.327 -7.06036 -1.37499 0
M  V30 6051 C 555.353 -5.71012 -1.53946 0
M  V30 6052 C 554.715 -6.92976 -1.26345 0
M  V30 6053 H 550.814 -0.563394 -0.54232 0
M  V30 6054 H 553.398 -1.75542 -0.842213 0
M  V30 6055 H 551.569 -1.95831 -3.35417 0
M  V30 6056 H 553.301 -2.20245 -3.39521 0
M  V30 6057 H 550.056 -4.01677 -2.50904 0
M  V30 6058 H 550.48 -6.53307 -1.77535 0
M  V30 6059 H 555.122 -3.65149 -2.13134 0
M  V30 6060 H 552.84 -7.99697 -1.16237 0
M  V30 6061 H 556.426 -5.63664 -1.44132 0
M  V30 6062 H 555.306 -7.78243 -0.964787 0
M  V30 6063 N 552.809 0.956637 -1.25245 0
M  V30 6064 C 553.756 2.053 -1.05454 0
M  V30 6065 C 554.726 1.66062 0.0356889 0
M  V30 6066 O 555.911 1.90415 -0.121099 0
M  V30 6067 C 553.051 3.38391 -0.677191 0
M  V30 6068 C 552.164 3.90758 -1.84206 0
M  V30 6069 C 551.299 5.12165 -1.40926 0
M  V30 6070 C 550.338 5.56757 -2.54338 0
M  V30 6071 N 549.475 6.69376 -2.11848 0
M  V30 6072 H 554.315 2.21562 -1.99284 0
M  V30 6073 H 551.852 1.08578 -0.992434 0
M  V30 6074 H 553.81 4.1488 -0.43938 0
M  V30 6075 H 552.44 3.22021 0.224127 0
M  V30 6076 H 551.492 3.10808 -2.19323 0
M  V30 6077 H 552.804 4.19802 -2.69383 0
M  V30 6078 H 551.958 5.96065 -1.13098 0
M  V30 6079 H 550.697 4.84832 -0.528175 0
M  V30 6080 H 549.702 4.71423 -2.82913 0
M  V30 6081 H 550.927 5.861 -3.43022 0
M  V30 6082 H 548.873 6.43756 -1.26153 0
M  V30 6083 H 548.79 6.97927 -2.90574 0
M  V30 6084 H 550.058 7.5669 -1.87191 0
M  V30 6085 N 554.287 1.06798 1.15896 0
M  V30 6086 C 555.217 0.704677 2.22613 0
M  V30 6087 C 556.198 -0.305252 1.67339 0
M  V30 6088 O 557.383 -0.179247 1.93371 0
M  V30 6089 C 554.513 0.0957325 3.47168 0
M  V30 6090 C 553.467 1.0322 4.15367 0
M  V30 6091 C 552.793 0.286293 5.33933 0
M  V30 6092 C 554.093 2.36341 4.65768 0
M  V30 6093 H 555.787 1.59688 2.53259 0
M  V30 6094 H 553.333 0.769257 1.21731 0
M  V30 6095 H 555.286 -0.170333 4.21056 0
M  V30 6096 H 554.01 -0.831516 3.15838 0
M  V30 6097 H 552.669 1.28309 3.43413 0
M  V30 6098 H 552.317 -0.644237 4.98857 0
M  V30 6099 H 552.017 0.910436 5.80504 0
M  V30 6100 H 553.541 0.0278938 6.10594 0
M  V30 6101 H 554.955 2.1561 5.31211 0
M  V30 6102 H 553.352 2.94299 5.2298 0
M  V30 6103 H 554.422 2.99047 3.81705 0
M  V30 6104 N 555.766 -1.3263 0.851289 0
M  V30 6105 C 556.716 -2.26451 0.265302 0
M  V30 6106 C 557.7 -1.49814 -0.586899 0
M  V30 6107 O 558.892 -1.71525 -0.436834 0
M  V30 6108 C 556.021 -3.38895 -0.548212 0
M  V30 6109 C 555.107 -4.2292 0.316189 0
M  V30 6110 N 555.498 -4.86014 1.40084 0
M  V30 6111 C 553.796 -4.45876 0.105356 0
M  V30 6112 C 554.497 -5.48667 1.93235 0
M  V30 6113 N 553.473 -5.29455 1.232 0
M  V30 6114 H 557.275 -2.72757 1.09457 0
M  V30 6115 H 554.789 -1.4668 0.697047 0
M  V30 6116 H 556.786 -4.05111 -0.984402 0
M  V30 6117 H 555.446 -2.94135 -1.37531 0
M  V30 6118 H 556.457 -4.86212 1.78377 0
M  V30 6119 H 553.134 -4.11804 -0.687299 0
M  V30 6120 H 554.524 -6.08865 2.84135 0
M  V30 6121 N 557.244 -0.608902 -1.45362 0
M  V30 6122 C 558.474 -0.110852 -2.06302 0
M  V30 6123 C 558.882 1.21062 -1.45398 0
M  V30 6124 O 558.225 1.74861 -0.562976 0
M  V30 6125 C 558.287 0.101793 -3.59356 0
M  V30 6126 C 557.951 -1.13808 -4.42602 0
M  V30 6127 C 558.948 -2.05653 -4.77496 0
M  V30 6128 C 556.633 -1.36727 -4.83333 0
M  V30 6129 C 558.627 -3.18745 -5.51978 0
M  V30 6130 C 556.314 -2.5012 -5.57569 0
M  V30 6131 C 557.312 -3.40957 -5.91809 0
M  V30 6132 O 557 -4.52376 -6.64538 0
M  V30 6133 H 556.732 -0.0666001 -0.672711 0
M  V30 6134 H 559.286 -0.836942 -1.87575 0
M  V30 6135 H 557.516 0.88279 -3.76489 0
M  V30 6136 H 559.205 0.551607 -4.02134 0
M  V30 6137 H 559.971 -1.89172 -4.46586 0
M  V30 6138 H 555.85 -0.669216 -4.56117 0
M  V30 6139 H 559.394 -3.8967 -5.78622 0
M  V30 6140 H 555.291 -2.66553 -5.87894 0
M  V30 6141 H 556.059 -4.51075 -6.82989 0
M  V30 6142 N 558.722 1.53707 -0.348139 0
M  V30 6143 C 560.138 1.596 0.00361134 0
M  V30 6144 C 560.338 1.36394 1.4832 0
M  V30 6145 O 559.394 1.16046 2.24253 0
M  V30 6146 C 560.707 2.97512 -0.436682 0
M  V30 6147 C 562.255 3.10568 -0.389416 0
M  V30 6148 C 562.73 4.50866 -0.805249 0
M  V30 6149 N 564.221 4.56929 -0.759616 0
M  V30 6150 C 564.956 5.63643 -1.05327 0
M  V30 6151 N 564.452 6.78189 -1.41531 0
M  V30 6152 N 566.245 5.5354 -0.977207 0
M  V30 6153 H 558.396 1.67044 -1.31187 0
M  V30 6154 H 560.659 0.782559 -0.535075 0
M  V30 6155 H 560.365 3.19575 -1.46849 0
M  V30 6156 H 560.239 3.76742 0.185744 0
M  V30 6157 H 562.626 2.88226 0.633228 0
M  V30 6158 H 562.707 2.33387 -1.04711 0
M  V30 6159 H 562.351 4.73943 -1.82593 0
M  V30 6160 H 562.281 5.26452 -0.124989 0
M  V30 6161 H 564.772 3.74675 -0.49265 0
M  V30 6162 H 565.085 7.55541 -1.62411 0
M  V30 6163 H 563.43 6.79624 -1.45381 0
M  V30 6164 H 566.621 4.62932 -0.693675 0
M  V30 6165 H 566.794 6.36614 -1.2094 0
M  V30 6166 N 560.2 0.0768682 1.57412 0
M  V30 6167 C 561.446 -0.585926 1.94778 0
M  V30 6168 C 561.801 -1.66912 0.956982 0
M  V30 6169 O 561.094 -1.9159 -0.0199454 0
M  V30 6170 C 561.288 -1.20268 3.36557 0
M  V30 6171 C 561.117 -0.18076 4.49337 0
M  V30 6172 C 559.887 0.236362 5.04747 0
M  V30 6173 C 562.085 0.583978 5.10974 0
M  V30 6174 N 560.067 1.24846 6.01071 0
M  V30 6175 C 561.438 1.44841 6.02844 0
M  V30 6176 C 563.493 0.639492 4.93776 0
M  V30 6177 C 562.196 2.36343 6.79363 0
M  V30 6178 C 564.222 1.54204 5.70942 0
M  V30 6179 C 563.584 2.39414 6.62465 0
M  V30 6180 H 559.683 -0.185281 0.759734 0
M  V30 6181 H 562.267 0.155193 1.9408 0
M  V30 6182 H 560.438 -1.9137 3.37982 0
M  V30 6183 H 562.17 -1.82636 3.61146 0
M  V30 6184 H 558.925 -0.14777 4.73369 0
M  V30 6185 H 559.349 1.75217 6.53933 0
M  V30 6186 H 563.991 -0.00510074 4.228 0
M  V30 6187 H 561.709 3.01836 7.49614 0
M  V30 6188 H 565.295 1.5899 5.59655 0
M  V30 6189 H 564.175 3.0812 7.21132 0
M  V30 6190 N 561.678 -1.56367 -0.196722 0
M  V30 6191 C 562.906 -1.84639 -0.933608 0
M  V30 6192 C 563.321 -0.659164 -1.76919 0
M  V30 6193 O 562.678 0.372142 -1.78665 0
M  V30 6194 C 562.729 -3.11694 -1.83109 0
M  V30 6195 O 562.45 -4.25838 -1.02924 0
M  V30 6196 C 563.951 -3.53132 -2.67979 0
M  V30 6197 H 561.171 -0.613188 -0.272473 0
M  V30 6198 H 563.715 -2.03475 -0.204465 0
M  V30 6199 H 561.87 -2.94759 -2.51387 0
M  V30 6200 H 562.284 -4.98178 -1.64069 0
M  V30 6201 H 563.758 -4.45005 -3.26611 0
M  V30 6202 H 564.235 -2.76045 -3.41608 0
M  V30 6203 H 564.841 -3.72592 -2.05074 0
M  V30 6204 N 563.156 0.464375 -1.50603 0
M  V30 6205 C 564.089 1.58052 -1.64605 0
M  V30 6206 C 565.067 1.54914 -0.494016 0
M  V30 6207 O 566.251 1.74438 -0.714393 0
M  V30 6208 C 563.378 2.96634 -1.63481 0
M  V30 6209 C 562.424 3.17901 -2.84325 0
M  V30 6210 S 563.257 2.97083 -4.45536 0
M  V30 6211 C 564.413 4.37994 -4.47115 0
M  V30 6212 H 564.646 1.45937 -2.59017 0
M  V30 6213 H 562.179 0.652189 -1.39949 0
M  V30 6214 H 564.137 3.76527 -1.63517 0
M  V30 6215 H 562.798 3.06134 -0.702928 0
M  V30 6216 H 561.991 4.19158 -2.79862 0
M  V30 6217 H 561.593 2.45792 -2.81891 0
M  V30 6218 H 563.885 5.30743 -4.21091 0
M  V30 6219 H 564.828 4.47499 -5.48772 0
M  V30 6220 H 565.236 4.20386 -3.76743 0
M  V30 6221 N 564.634 1.40294 0.718013 0
M  V30 6222 C 565.597 1.4012 1.81381 0
M  V30 6223 C 566.597 0.295405 1.58063 0
M  V30 6224 O 567.787 0.554187 1.6515 0
M  V30 6225 C 564.919 1.19056 3.19435 0
M  V30 6226 H 566.112 2.37645 1.82933 0
M  V30 6227 H 563.665 1.26107 0.923405 0
M  V30 6228 H 564.4 0.222809 3.23534 0
M  V30 6229 H 564.185 1.99152 3.37758 0
M  V30 6230 H 565.675 1.21716 3.99468 0
M  V30 6231 N 566.112 -0.949982 1.2575 0
M  V30 6232 C 567.042 -2.06483 1.09028 0
M  V30 6233 C 568.023 -1.701 -0.00201532 0
M  V30 6234 O 569.208 -1.93469 0.168383 0
M  V30 6235 C 566.338 -3.39899 0.71316 0
M  V30 6236 C 565.292 -3.90309 1.75621 0
M  V30 6237 C 564.618 -5.20274 1.23365 0
M  V30 6238 C 565.918 -4.16169 3.15596 0
M  V30 6239 H 567.612 -2.20731 2.02283 0
M  V30 6240 H 565.158 -1.06066 0.973964 0
M  V30 6241 H 567.111 -4.17346 0.58309 0
M  V30 6242 H 565.835 -3.25602 -0.255091 0
M  V30 6243 H 564.494 -3.15035 1.8748 0
M  V30 6244 H 564.142 -5.02351 0.255491 0
M  V30 6245 H 563.842 -5.54971 1.93082 0
M  V30 6246 H 565.366 -6.00314 1.11607 0
M  V30 6247 H 566.78 -4.84259 3.06864 0
M  V30 6248 H 565.177 -4.62131 3.82825 0
M  V30 6249 H 566.247 -3.22273 3.6231 0
M  V30 6250 N 567.59 -1.07411 -1.15328 0
M  V30 6251 C 568.523 -0.63913 -2.19067 0
M  V30 6252 C 569.501 0.343929 -1.58921 0
M  V30 6253 O 570.685 0.250207 -1.86832 0
M  V30 6254 C 567.812 0.0613977 -3.38644 0
M  V30 6255 C 566.858 -0.880201 -4.17318 0
M  V30 6256 S 567.691 -2.38152 -4.79629 0
M  V30 6257 C 568.847 -1.69281 -6.02573 0
M  V30 6258 H 569.08 -1.51799 -2.55626 0
M  V30 6259 H 566.613 -0.888138 -1.26299 0
M  V30 6260 H 568.571 0.459323 -4.07922 0
M  V30 6261 H 567.232 0.916605 -3.00428 0
M  V30 6262 H 566.425 -0.336781 -5.02874 0
M  V30 6263 H 566.027 -1.21854 -3.53592 0
M  V30 6264 H 568.319 -1.00488 -6.70006 0
M  V30 6265 H 569.262 -2.52671 -6.61485 0
M  V30 6266 H 569.67 -1.17053 -5.52231 0
M  V30 6267 N 569.068 1.32177 -0.85831 0
M  V30 6268 C 569.978 2.32561 -0.308606 0
M  V30 6269 C 570.994 1.64209 0.575462 0
M  V30 6270 O 572.17 1.95719 0.474961 0
M  V30 6271 C 569.235 3.43207 0.490909 0
M  V30 6272 C 568.296 4.27243 -0.419733 0
M  V30 6273 C 567.529 5.32605 0.341719 0
M  V30 6274 O 567.752 5.48332 1.57125 0
M  V30 6275 O 566.686 6.0118 -0.294379 0
M  V30 6276 H 570.512 2.81477 -1.14037 0
M  V30 6277 H 568.097 1.35866 -0.621349 0
M  V30 6278 H 569.979 4.10677 0.944574 0
M  V30 6279 H 568.654 2.96474 1.29941 0
M  V30 6280 H 567.561 3.62569 -0.921652 0
M  V30 6281 H 568.894 4.7751 -1.19352 0
M  V30 6282 N 570.547 0.616602 1.45037 0
M  V30 6283 C 571.457 -0.0985401 2.34393 0
M  V30 6284 C 572.473 -0.850971 1.51771 0
M  V30 6285 O 573.649 -0.806521 1.84546 0
M  V30 6286 C 570.714 -1.07748 3.29532 0
M  V30 6287 C 569.775 -0.326022 4.2806 0
M  V30 6288 C 569.008 -1.25833 5.18654 0
M  V30 6289 O 569.231 -2.49652 5.12864 0
M  V30 6290 O 568.165 -0.750512 5.97203 0
M  V30 6291 H 571.991 0.636016 2.96966 0
M  V30 6292 H 569.576 0.376832 1.44569 0
M  V30 6293 H 571.458 -1.64107 3.88133 0
M  V30 6294 H 570.133 -1.79291 2.69512 0
M  V30 6295 H 569.04 0.280253 3.73049 0
M  V30 6296 H 570.373 0.349091 4.9096 0
M  V30 6297 N 572.025 -1.5352 0.356285 0
M  V30 6298 C 573.272 -2.01117 -0.236303 0
M  V30 6299 C 573.6 -1.24381 -1.49531 0
M  V30 6300 O 572.855 -0.323057 -1.93015 0
M  V30 6301 C 573.154 -3.52607 -0.583369 0
M  V30 6302 C 572.82 -4.47151 0.58023 0
M  V30 6303 C 571.482 -4.72718 0.899528 0
M  V30 6304 C 573.834 -5.03137 1.36024 0
M  V30 6305 C 571.162 -5.51523 2.00098 0
M  V30 6306 C 573.514 -5.83145 2.45204 0
M  V30 6307 C 572.178 -6.07001 2.77679 0
M  V30 6308 H 571.448 -0.735938 -0.0864695 0
M  V30 6309 H 574.095 -1.85209 0.48683 0
M  V30 6310 H 572.4 -3.66413 -1.38739 0
M  V30 6311 H 574.097 -3.86901 -1.05397 0
M  V30 6312 H 570.687 -4.27394 0.321322 0
M  V30 6313 H 574.871 -4.83339 1.12682 0
M  V30 6314 H 570.127 -5.68229 2.25668 0
M  V30 6315 H 574.301 -6.25537 3.06067 0
M  V30 6316 H 571.928 -6.67851 3.63151 0
M  V30 6317 N 573.503 -0.0852151 -1.57369 0
M  V30 6318 C 574.75 0.580806 -1.93992 0
M  V30 6319 C 575.078 1.68801 -0.966252 0
M  V30 6320 O 574.333 1.95694 0.0158649 0
M  V30 6321 C 574.632 1.18482 -3.3719 0
M  V30 6322 C 574.298 0.2024 -4.50446 0
M  V30 6323 C 572.96 -0.0678318 -4.81152 0
M  V30 6324 C 575.312 -0.46895 -5.19086 0
M  V30 6325 C 572.64 -1.01627 -5.77831 0
M  V30 6326 C 574.992 -1.4058 -6.16782 0
M  V30 6327 C 573.656 -1.68436 -6.45899 0
M  V30 6328 H 572.926 0.212532 -0.709867 0
M  V30 6329 H 575.573 -0.158947 -1.90839 0
M  V30 6330 H 573.878 2.0006 -3.36873 0
M  V30 6331 H 575.575 1.70767 -3.62822 0
M  V30 6332 H 572.165 0.423208 -4.26505 0
M  V30 6333 H 576.349 -0.273307 -4.95547 0
M  V30 6334 H 571.605 -1.2392 -5.9871 0
M  V30 6335 H 575.779 -1.93188 -6.69068 0
M  V30 6336 H 573.406 -2.42088 -7.20623 0
M  V30 6337 N 574.981 1.5647 0.188427 0
M  V30 6338 C 575.911 1.98101 1.23606 0
M  V30 6339 C 576.892 0.853961 1.47111 0
M  V30 6340 O 578.077 1.11879 1.58735 0
M  V30 6341 C 575.207 2.32624 2.57882 0
M  V30 6342 C 574.161 3.48129 2.48978 0
M  V30 6343 C 573.487 3.68347 3.87588 0
M  V30 6344 C 574.787 4.82112 2.00911 0
M  V30 6345 H 576.481 2.85864 0.890068 0
M  V30 6346 H 574.027 1.37532 0.426714 0
M  V30 6347 H 575.98 2.60343 3.3136 0
M  V30 6348 H 574.704 1.41751 2.94235 0
M  V30 6349 H 573.363 3.20511 1.77956 0
M  V30 6350 H 573.011 2.74793 4.21305 0
M  V30 6351 H 572.711 4.46055 3.82503 0
M  V30 6352 H 574.235 3.98449 4.62678 0
M  V30 6353 H 575.649 5.08819 2.64151 0
M  V30 6354 H 574.046 5.63337 2.06814 0
M  V30 6355 H 575.116 4.75249 0.96262 0
M  V30 6356 N 576.459 -0.456382 1.50847 0
M  V30 6357 C 577.391 -1.57033 1.66953 0
M  V30 6358 C 578.404 -1.53207 0.550593 0
M  V30 6359 O 579.593 -1.58328 0.824285 0
M  V30 6360 C 576.693 -2.95937 1.65149 0
M  V30 6361 C 575.866 -3.24475 2.93317 0
M  V30 6362 C 574.925 -4.43007 2.83957 0
M  V30 6363 O 573.951 -4.42592 3.57912 0
M  V30 6364 N 575.153 -5.45503 1.9851 0
M  V30 6365 H 577.918 -1.43629 2.63042 0
M  V30 6366 H 575.479 -0.645037 1.48495 0
M  V30 6367 H 577.471 -3.73224 1.56481 0
M  V30 6368 H 576.041 -3.03036 0.767343 0
M  V30 6369 H 575.261 -2.35664 3.16 0
M  V30 6370 H 576.549 -3.4036 3.78196 0
M  V30 6371 H 575.947 -5.48668 1.37766 0
M  V30 6372 H 574.504 -6.21716 1.95735 0
M  V30 6373 N 577.937 -1.40673 -0.710563 0
M  V30 6374 C 579.185 -1.38947 -1.46759 0
M  V30 6375 C 579.506 0.00572879 -1.94999 0
M  V30 6376 O 578.776 0.961358 -1.70689 0
M  V30 6377 H 577.356 -0.5114 -0.544499 0
M  V30 6378 H 580.018 -1.75773 -0.842012 0
M  V30 6379 H 579.114 -2.06745 -2.33801 0
M  V30 6380 N 579.415 0.9433 -1.26252 0
M  V30 6381 C 580.692 1.66639 -1.02424 0
M  V30 6382 C 581.072 2.06335 0.446006 0
M  V30 6383 O 580.42 1.78551 1.42589 0
M  V30 6384 C 580.63 2.88019 -1.97094 0
M  V30 6385 C 581.978 3.59718 -2.25584 0
M  V30 6386 O 583.002 2.9812 -1.94943 0
M  V30 6387 O 581.861 4.7066 -2.77743 0
M  V30 6388 H 578.955 0.729643 -0.389294 0
M  V30 6389 H 581.501 0.995218 -1.37454 0
M  V30 6390 H 580.273 2.5556 -2.96319 0
M  V30 6391 H 579.896 3.62863 -1.62532 0
M  V30 6392 N 580.893 1.08022 1.14757 0
M  V30 6393 C 581.84 0.706657 2.19716 0
M  V30 6394 C 582.81 -0.30525 1.63271 0
M  V30 6395 O 583.995 -0.19015 1.8985 0
M  V30 6396 C 581.135 0.117914 3.44898 0
M  V30 6397 C 580.248 1.18212 4.15512 0
M  V30 6398 C 579.383 0.557659 5.28265 0
M  V30 6399 C 578.422 1.60418 5.90705 0
M  V30 6400 N 577.559 1.0018 6.94916 0
M  V30 6401 H 582.399 1.60603 2.51019 0
M  V30 6402 H 579.936 0.802664 1.23271 0
M  V30 6403 H 581.894 -0.241112 4.16503 0
M  V30 6404 H 580.524 -0.744788 3.1409 0
M  V30 6405 H 579.576 1.65863 3.42335 0
M  V30 6406 H 580.888 1.97533 4.5802 0
M  V30 6407 H 580.042 0.146654 6.06523 0
M  V30 6408 H 578.781 -0.267249 4.86967 0
M  V30 6409 H 577.786 2.02489 5.11154 0
M  V30 6410 H 579.011 2.43149 6.34078 0
M  V30 6411 H 576.957 0.197917 6.55701 0
M  V30 6412 H 576.874 1.73216 7.35889 0
M  V30 6413 H 578.142 0.616523 7.77058 0
M  V30 6414 N 582.371 -1.3172 0.865308 0
M  V30 6415 C 583.281 -2.32394 0.320935 0
M  V30 6416 C 584.297 -1.64511 -0.566746 0
M  V30 6417 O 585.473 -1.95969 -0.464575 0
M  V30 6418 C 582.538 -3.43462 -0.472701 0
M  V30 6419 C 581.599 -4.27015 0.442385 0
M  V30 6420 C 580.832 -5.32779 -0.313469 0
M  V30 6421 O 581.055 -5.49158 -1.54214 0
M  V30 6422 O 579.989 -6.01015 0.326257 0
M  V30 6423 H 583.815 -2.80868 1.15528 0
M  V30 6424 H 581.4 -1.35535 0.628545 0
M  V30 6425 H 583.282 -4.11172 -0.922781 0
M  V30 6426 H 581.957 -2.97159 -1.28367 0
M  V30 6427 H 580.864 -3.62075 0.940866 0
M  V30 6428 H 582.197 -4.76871 1.21882 0
M  V30 6429 N 583.85 -0.624285 -1.44708 0
M  V30 6430 C 584.812 0.0749638 -2.29077 0
M  V30 6431 C 585.812 0.778965 -1.40673 0
M  V30 6432 O 587.003 0.624591 -1.62618 0
M  V30 6433 C 584.135 1.11663 -3.22094 0
M  V30 6434 H 585.327 -0.667013 -2.92388 0
M  V30 6435 H 582.88 -0.384098 -1.51507 0
M  V30 6436 H 583.615 1.88881 -2.63618 0
M  V30 6437 H 583.401 0.61583 -3.87234 0
M  V30 6438 H 584.891 1.60585 -3.8549 0
M  V30 6439 N 585.328 1.53329 -0.364422 0
M  V30 6440 C 586.238 2.29414 0.490552 0
M  V30 6441 C 587.254 1.35335 1.09363 0
M  V30 6442 O 588.43 1.68391 1.10483 0
M  V30 6443 C 585.495 3.06772 1.61529 0
M  V30 6444 C 584.556 4.16516 1.03986 0
M  V30 6445 C 583.789 4.90176 2.111 0
M  V30 6446 O 584.012 4.63687 3.32191 0
M  V30 6447 O 582.946 5.76134 1.74222 0
M  V30 6448 H 586.772 3.03428 -0.12856 0
M  V30 6449 H 584.357 1.48843 -0.128837 0
M  V30 6450 H 586.239 3.55082 2.26924 0
M  V30 6451 H 584.914 2.35596 2.21983 0
M  V30 6452 H 583.821 3.7246 0.349856 0
M  V30 6453 H 585.154 4.89855 0.4799 0
M  V30 6454 N 586.806 0.0935595 1.57322 0
M  V30 6455 C 587.736 -0.863062 2.16964 0
M  V30 6456 C 588.717 -1.29528 1.10256 0
M  V30 6457 O 589.902 -1.36245 1.38387 0
M  V30 6458 C 587.032 -2.12276 2.74875 0
M  V30 6459 C 585.986 -1.82921 3.86942 0
M  V30 6460 C 585.312 -3.15707 4.31548 0
M  V30 6461 C 586.612 -1.11737 5.10208 0
M  V30 6462 H 588.306 -0.366145 2.97153 0
M  V30 6463 H 585.852 -0.174673 1.42937 0
M  V30 6464 H 587.805 -2.79634 3.1525 0
M  V30 6465 H 586.529 -2.64248 1.91938 0
M  V30 6466 H 585.188 -1.17961 3.47103 0
M  V30 6467 H 584.836 -3.65563 3.45504 0
M  V30 6468 H 584.536 -2.96849 5.07104 0
M  V30 6469 H 586.06 -3.84226 4.74555 0
M  V30 6470 H 587.474 -1.69203 5.47762 0
M  V30 6471 H 585.871 -1.03064 5.91183 0
M  V30 6472 H 586.941 -0.0998818 4.84797 0
M  V30 6473 N 588.284 -1.56567 -0.180126 0
M  V30 6474 C 589.532 -1.81133 -0.896392 0
M  V30 6475 C 589.853 -0.669114 -1.83161 0
M  V30 6476 O 589.123 0.311616 -1.93406 0
M  V30 6477 H 587.703 -0.668172 -0.333999 0
M  V30 6478 H 590.365 -1.94048 -0.182051 0
M  V30 6479 H 589.461 -2.74854 -1.47857 0
M  V30 6480 N 589.762 0.448376 -1.51087 0
M  V30 6481 C 590.692 1.55102 -1.74544 0
M  V30 6482 C 591.673 1.59357 -0.594932 0
M  V30 6483 O 592.858 1.75261 -0.836491 0
M  V30 6484 C 589.988 2.93268 -1.86041 0
M  V30 6485 C 588.942 3.03877 -3.01402 0
M  V30 6486 C 588.268 4.43914 -2.98068 0
M  V30 6487 C 589.568 2.7898 -4.41551 0
M  V30 6488 H 591.262 1.35724 -2.66869 0
M  V30 6489 H 588.808 0.651498 -1.28419 0
M  V30 6490 H 590.761 3.70356 -2.01034 0
M  V30 6491 H 589.485 3.13853 -0.903548 0
M  V30 6492 H 588.144 2.29227 -2.86096 0
M  V30 6493 H 587.792 4.6145 -2.00182 0
M  V30 6494 H 587.492 4.51944 -3.75527 0
M  V30 6495 H 589.016 5.22991 -3.1514 0
M  V30 6496 H 590.43 3.45805 -4.57265 0
M  V30 6497 H 588.827 2.98431 -5.20633 0
M  V30 6498 H 589.897 1.74663 -4.5235 0
M  V30 6499 N 591.24 1.41047 0.703093 0
M  V30 6500 C 592.651 1.35657 1.28274 0
M  V30 6501 C 593.002 0.0360309 1.96167 0
M  V30 6502 O 592.127 -0.865833 1.98324 0
M  V30 6503 C 592.722 2.45707 2.33267 0
M  V30 6504 C 591.281 2.43738 2.86825 0
M  V30 6505 C 590.428 2.25941 1.60767 0
M  V30 6506 H 593.379 1.50672 0.49836 0
M  V30 6507 H 593.4 2.14333 3.14391 0
M  V30 6508 H 592.912 3.41805 1.83824 0
M  V30 6509 H 591.013 1.51375 3.40465 0
M  V30 6510 H 591.126 3.39779 3.37768 0
M  V30 6511 H 589.49 1.73681 1.86298 0
M  V30 6512 H 590.273 3.24054 1.1333 0
M  V30 6513 N 592.718 -0.936591 1.26751 0
M  V30 6514 C 593.965 -1.68331 1.12566 0
M  V30 6515 C 594.293 -1.91677 -0.330168 0
M  V30 6516 O 593.548 -1.49859 -1.2586 0
M  V30 6517 C 593.847 -3.06099 1.84494 0
M  V30 6518 C 593.513 -3.02493 3.34378 0
M  V30 6519 C 592.175 -3.01217 3.75262 0
M  V30 6520 C 594.527 -2.94453 4.30055 0
M  V30 6521 C 591.855 -2.89672 5.10203 0
M  V30 6522 C 594.207 -2.84449 5.65041 0
M  V30 6523 C 592.871 -2.81518 6.0523 0
M  V30 6524 H 592.141 -0.615965 0.411907 0
M  V30 6525 H 594.788 -1.09292 1.5725 0
M  V30 6526 H 593.093 -3.6879 1.32292 0
M  V30 6527 H 594.79 -3.62733 1.70955 0
M  V30 6528 H 591.38 -3.04269 3.01858 0
M  V30 6529 H 595.564 -2.94544 3.99447 0
M  V30 6530 H 590.82 -2.85783 5.40498 0
M  V30 6531 H 594.994 -2.77192 6.38856 0
M  V30 6532 H 592.621 -2.72329 7.09747 0
M  V30 6533 N 594.196 -1.08629 -1.14182 0
M  V30 6534 C 595.421 -0.83902 -1.89671 0
M  V30 6535 C 595.846 0.603332 -1.78161 0
M  V30 6536 O 595.204 1.42301 -1.12339 0
M  V30 6537 C 595.252 -1.26854 -3.37551 0
M  V30 6538 O 594.356 -0.42188 -4.10236 0
M  V30 6539 H 593.697 -0.304545 -0.590041 0
M  V30 6540 H 596.227 -1.4483 -1.44518 0
M  V30 6541 H 596.237 -1.25038 -3.88368 0
M  V30 6542 H 594.912 -2.31901 -3.45246 0
M  V30 6543 H 593.489 -0.503654 -3.69483 0
M  V30 6544 N 595.674 1.31259 -0.872281 0
M  V30 6545 C 597.085 1.78822 -0.536617 0
M  V30 6546 C 597.436 1.71855 0.946594 0
M  V30 6547 O 596.561 1.28769 1.73918 0
M  V30 6548 C 597.156 3.24698 -0.967294 0
M  V30 6549 C 595.715 3.70147 -0.683251 0
M  V30 6550 C 594.862 2.51994 -1.15733 0
M  V30 6551 H 597.813 1.18308 -1.05777 0
M  V30 6552 H 597.834 3.79386 -0.290929 0
M  V30 6553 H 597.346 3.29737 -2.04683 0
M  V30 6554 H 595.447 3.70607 0.384825 0
M  V30 6555 H 595.56 4.62183 -1.2619 0
M  V30 6556 H 593.924 2.48078 -0.577024 0
M  V30 6557 H 594.707 2.59778 -2.24434 0
M  V30 6558 N 597.152 0.631951 1.44375 0
M  V30 6559 C 598.082 -0.0593243 2.33425 0
M  V30 6560 C 599.063 -0.833964 1.48253 0
M  V30 6561 O 600.248 -0.799682 1.76971 0
M  V30 6562 C 597.378 -1.04096 3.31333 0
M  V30 6563 C 596.332 -0.377899 4.26328 0
M  V30 6564 C 595.658 -1.4695 5.14111 0
M  V30 6565 C 596.958 0.716371 5.17364 0
M  V30 6566 H 598.652 0.684287 2.91475 0
M  V30 6567 H 596.198 0.330518 1.40156 0
M  V30 6568 H 598.151 -1.53331 3.92514 0
M  V30 6569 H 596.875 -1.81547 2.71493 0
M  V30 6570 H 595.534 0.0938054 3.6648 0
M  V30 6571 H 595.182 -2.2349 4.50623 0
M  V30 6572 H 594.882 -1.03121 5.78481 0
M  V30 6573 H 596.406 -1.96363 5.78164 0
M  V30 6574 H 597.82 0.307089 5.72477 0
M  V30 6575 H 596.217 1.07784 5.90341 0
M  V30 6576 H 597.287 1.58316 4.58327 0
M  V30 6577 N 598.631 -1.53133 0.372548 0
M  V30 6578 C 599.871 -2.03267 -0.214943 0
M  V30 6579 C 600.235 -1.25362 -1.45425 0
M  V30 6580 O 601.436 -1.65536 -2.11781 0
M  V30 6581 C 599.707 -3.53985 -0.492897 0
M  V30 6582 S 601.266 -4.25977 -1.05307 0
M  V30 6583 H 598.084 -0.708289 -0.062029 0
M  V30 6584 H 600.686 -1.88539 0.517025 0
M  V30 6585 H 599.39 -4.08282 0.416442 0
M  V30 6586 H 598.921 -3.72887 -1.25375 0
M  V30 6587 H 600.936 -4.37731 -2.33679 0
M  V30 6588 N 600.109 -0.101901 -1.5727 0
M  V30 6589 C 601.386 0.602832 -1.86079 0
M  V30 6590 C 601.766 1.85912 -1 0
M  V30 6591 O 601.114 2.28379 -0.0742488 0
M  V30 6592 C 601.324 0.911694 -3.36881 0
M  V30 6593 C 602.672 1.2722 -4.05093 0
M  V30 6594 O 603.696 1.0025 -3.41802 0
M  V30 6595 O 602.555 1.7776 -5.16782 0
M  V30 6596 H 599.649 0.302366 -0.769743 0
M  V30 6597 H 602.195 -0.135113 -1.69161 0
M  V30 6598 H 600.967 0.0207256 -3.91295 0
M  V30 6599 H 600.59 1.70538 -3.59169 0
M  V30 6600 N 601.587 1.56661 0.17182 0
M  V30 6601 C 603.003 1.50768 0.52357 0
M  V30 6602 C 603.203 0.806072 1.84675 0
M  V30 6603 O 602.259 0.366233 2.4983 0
M  V30 6604 C 603.572 2.955 0.556793 0
M  V30 6605 C 605.12 3.06303 0.644029 0
M  V30 6606 C 605.595 4.52492 0.708148 0
M  V30 6607 N 607.086 4.56737 0.771051 0
M  V30 6608 C 607.821 5.67196 0.841229 0
M  V30 6609 N 607.317 6.87287 0.872272 0
M  V30 6610 N 609.11 5.55165 0.88021 0
M  V30 6611 H 601.261 2.00679 -0.695817 0
M  V30 6612 H 603.524 0.914219 -0.250814 0
M  V30 6613 H 603.23 3.49986 -0.346774 0
M  V30 6614 H 603.104 3.50119 1.40346 0
M  V30 6615 H 605.491 2.51851 1.53802 0
M  V30 6616 H 605.572 2.5477 -0.229297 0
M  V30 6617 H 605.216 5.07575 -0.181585 0
M  V30 6618 H 605.146 5.01781 1.59761 0
M  V30 6619 H 607.637 3.70274 0.755364 0
M  V30 6620 H 607.95 7.6722 0.92698 0
M  V30 6621 H 606.295 6.89898 0.840557 0
M  V30 6622 H 609.486 4.60263 0.852956 0
M  V30 6623 H 609.659 6.41271 0.931439 0
M  V30 6624 N 603.065 -0.440357 1.51323 0
M  V30 6625 C 604.012 -1.53429 1.72419 0
M  V30 6626 C 604.982 -1.56165 0.565826 0
M  V30 6627 O 606.167 -1.73222 0.799917 0
M  V30 6628 C 603.307 -2.91169 1.85242 0
M  V30 6629 C 602.42 -2.97985 3.12777 0
M  V30 6630 C 601.555 -4.26829 3.16212 0
M  V30 6631 C 600.594 -4.27501 4.38074 0
M  V30 6632 N 599.731 -5.47866 4.39076 0
M  V30 6633 H 604.571 -1.34743 2.65797 0
M  V30 6634 H 602.108 -0.654608 1.31732 0
M  V30 6635 H 604.066 -3.71087 1.90658 0
M  V30 6636 H 602.696 -3.0842 0.952744 0
M  V30 6637 H 601.748 -2.10749 3.16685 0
M  V30 6638 H 603.06 -2.94342 4.02696 0
M  V30 6639 H 602.214 -5.15118 3.20527 0
M  V30 6640 H 600.953 -4.33124 2.24176 0
M  V30 6641 H 599.958 -3.37606 4.33938 0
M  V30 6642 H 601.183 -4.22873 5.31371 0
M  V30 6643 H 599.129 -5.54887 3.49909 0
M  V30 6644 H 599.046 -5.46091 5.22801 0
M  V30 6645 H 600.314 -6.38195 4.4758 0
M  V30 6646 N 604.543 -1.41418 -0.695603 0
M  V30 6647 C 605.768 -1.44329 -1.48942 0
M  V30 6648 C 606.193 -0.0501579 -1.88033 0
M  V30 6649 O 605.551 0.946598 -1.54626 0
M  V30 6650 C 605.599 -2.3578 -2.72837 0
M  V30 6651 O 604.703 -1.81482 -3.70322 0
M  V30 6652 H 604.044 -0.489838 -0.44828 0
M  V30 6653 H 606.574 -1.85878 -0.855014 0
M  V30 6654 H 606.584 -2.51654 -3.21145 0
M  V30 6655 H 605.259 -3.37005 -2.43722 0
M  V30 6656 H 603.836 -1.75058 -3.29255 0
M  V30 6657 N 606.021 0.929856 -1.27246 0
M  V30 6658 C 607.249 1.71144 -1.16265 0
M  V30 6659 C 607.664 1.867 0.280786 0
M  V30 6660 O 607.021 1.38249 1.19136 0
M  V30 6661 C 607.072 3.11222 -1.83911 0
M  V30 6662 O 606.793 2.96398 -3.22614 0
M  V30 6663 C 608.294 4.05541 -1.79028 0
M  V30 6664 H 605.514 0.535499 -0.404328 0
M  V30 6665 H 608.058 1.16492 -1.68077 0
M  V30 6666 H 606.213 3.6274 -1.36009 0
M  V30 6667 H 606.627 3.8494 -3.56261 0
M  V30 6668 H 608.101 5.01351 -2.30978 0
M  V30 6669 H 608.578 4.32589 -0.759168 0
M  V30 6670 H 609.184 3.59947 -2.26535 0
M  V30 6671 N 607.499 1.09233 1.13605 0
M  V30 6672 C 608.432 0.6739 2.18023 0
M  V30 6673 C 609.41 -0.318603 1.59448 0
M  V30 6674 O 610.594 -0.220452 1.87206 0
M  V30 6675 C 607.721 -0.00751458 3.38699 0
M  V30 6676 C 606.767 0.946481 4.15865 0
M  V30 6677 S 607.6 2.45753 4.75779 0
M  V30 6678 C 608.756 1.78846 5.99804 0
M  V30 6679 H 608.989 1.55846 2.53178 0
M  V30 6680 H 606.522 0.908118 1.2487 0
M  V30 6681 H 608.48 -0.394368 4.08601 0
M  V30 6682 H 607.141 -0.868693 3.01849 0
M  V30 6683 H 606.334 0.416742 5.02274 0
M  V30 6684 H 605.936 1.27464 3.51609 0
M  V30 6685 H 608.228 1.11135 6.68323 0
M  V30 6686 H 609.171 2.63163 6.57382 0
M  V30 6687 H 609.579 1.25823 5.50299 0
M  V30 6688 N 608.977 -1.30795 0.87923 0
M  V30 6689 C 610.223 -1.96653 0.495519 0
M  V30 6690 C 610.556 -1.69282 -0.951703 0
M  V30 6691 O 609.831 -0.994374 -1.6716 0
M  V30 6692 C 610.114 -3.51898 0.764174 0
M  V30 6693 C 609.967 -3.88808 2.2616 0
M  V30 6694 C 611.286 -4.39462 0.236825 0
M  V30 6695 H 608.405 -0.7143 0.181507 0
M  V30 6696 H 611.047 -1.54765 1.10217 0
M  V30 6697 H 609.197 -3.87709 0.247841 0
M  V30 6698 H 610.869 -3.63051 2.8459 0
M  V30 6699 H 609.112 -3.37082 2.73053 0
M  V30 6700 H 609.783 -4.97086 2.4002 0
M  V30 6701 H 612.259 -4.10528 0.678683 0
M  V30 6702 H 611.135 -5.47018 0.454176 0
M  V30 6703 H 611.396 -4.33621 -0.861683 0
M  V30 6704 N 610.455 -0.639598 -1.44038 0
M  V30 6705 C 611.418 0.0506628 -2.29144 0
M  V30 6706 C 612.418 0.764001 -1.41491 0
M  V30 6707 O 613.608 0.607309 -1.63271 0
M  V30 6708 C 610.74 1.0824 -3.2326 0
M  V30 6709 H 611.933 -0.697987 -2.91664 0
M  V30 6710 H 609.486 -0.400146 -1.51091 0
M  V30 6711 H 610.221 1.86075 -2.65606 0
M  V30 6712 H 610.006 0.574725 -3.87865 0
M  V30 6713 H 611.496 1.56487 -3.87171 0
M  V30 6714 N 611.933 1.52934 -0.380664 0
M  V30 6715 C 612.865 2.23822 0.493581 0
M  V30 6716 C 613.878 1.25761 1.03383 0
M  V30 6717 O 615.067 1.5189 0.937633 0
M  V30 6718 C 612.167 2.9342 1.69582 0
M  V30 6719 C 611.34 4.18115 1.28445 0
M  V30 6720 C 610.399 4.70788 2.35042 0
M  V30 6721 O 609.425 5.34093 1.96807 0
M  V30 6722 N 610.627 4.49899 3.66839 0
M  V30 6723 H 613.392 2.99484 -0.11371 0
M  V30 6724 H 610.953 1.60577 -0.206587 0
M  V30 6725 H 612.945 3.2556 2.40401 0
M  V30 6726 H 611.515 2.21119 2.20965 0
M  V30 6727 H 610.735 3.92109 0.405503 0
M  V30 6728 H 612.023 4.99152 0.986132 0
M  V30 6729 H 611.421 3.99349 4.0067 0
M  V30 6730 H 609.978 4.86551 4.33718 0
M  V30 6731 N 613.412 0.11024 1.57214 0
M  V30 6732 C 614.637 -0.561179 1.99664 0
M  V30 6733 C 615.062 -1.59985 0.989266 0
M  V30 6734 O 614.42 -1.81255 -0.0402399 0
M  V30 6735 C 614.468 -1.17189 3.41027 0
M  V30 6736 O 613.572 -2.28755 3.4314 0
M  V30 6737 H 612.913 -0.14101 0.648855 0
M  V30 6738 H 615.443 0.196128 2.03658 0
M  V30 6739 H 615.453 -1.50954 3.79047 0
M  V30 6740 H 614.128 -0.411041 4.13864 0
M  V30 6741 H 612.705 -1.96495 3.16929 0
M  V30 6742 N 614.89 -1.56749 -0.16351 0
M  V30 6743 C 615.822 -1.93587 -1.22705 0
M  V30 6744 C 616.835 -0.829824 -1.40063 0
M  V30 6745 O 618.024 -1.10826 -1.39928 0
M  V30 6746 C 615.124 -2.1803 -2.59454 0
M  V30 6747 C 614.297 -3.4928 -2.63292 0
M  V30 6748 C 613.356 -3.62457 -3.8146 0
M  V30 6749 O 612.382 -4.35004 -3.67096 0
M  V30 6750 N 613.584 -2.97888 -4.9824 0
M  V30 6751 H 616.349 -2.8542 -0.914081 0
M  V30 6752 H 613.91 -1.58 -0.353214 0
M  V30 6753 H 615.902 -2.24102 -3.36987 0
M  V30 6754 H 614.472 -1.32543 -2.8311 0
M  V30 6755 H 613.692 -3.54795 -1.71796 0
M  V30 6756 H 614.98 -4.35632 -2.62873 0
M  V30 6757 H 614.378 -2.38833 -5.12811 0
M  V30 6758 H 612.935 -3.09545 -5.73607 0
M  V30 6759 N 616.368 0.432326 -1.51554 0
M  V30 6760 C 617.617 1.17831 -1.63703 0
M  V30 6761 C 617.93 1.92229 -0.36156 0
M  V30 6762 O 619.136 2.69069 -0.362495 0
M  V30 6763 C 617.592 2.14318 -2.89129 0
M  V30 6764 C 617.2 1.45544 -4.23699 0
M  V30 6765 C 618.944 2.89319 -3.10636 0
M  V30 6766 C 616.851 2.40545 -5.4027 0
M  V30 6767 H 615.781 0.443533 -0.60975 0
M  V30 6768 H 618.432 0.444878 -1.78026 0
M  V30 6769 H 616.814 2.91117 -2.68452 0
M  V30 6770 H 617.988 0.742693 -4.54775 0
M  V30 6771 H 616.303 0.826772 -4.0811 0
M  V30 6772 H 618.9 3.60495 -3.94902 0
M  V30 6773 H 619.243 3.50951 -2.23918 0
M  V30 6774 H 619.776 2.19625 -3.31677 0
M  V30 6775 H 616.515 1.83594 -6.29264 0
M  V30 6776 H 616.035 3.09859 -5.13563 0
M  V30 6777 H 617.714 3.01569 -5.72421 0
M  V30 6778 N 617.846 1.41785 0.688094 0
M  V30 6779 C 619.094 1.41264 1.4453 0
M  V30 6780 C 619.415 0.0252946 1.94984 0
M  V30 6781 O 618.685 -0.934081 1.72197 0
M  V30 6782 H 617.265 0.519998 0.536294 0
M  V30 6783 H 619.927 1.7709 0.813941 0
M  V30 6784 H 619.023 2.10439 2.30482 0
M  V30 6785 N 619.324 -0.923095 1.27737 0
M  V30 6786 C 620.571 -1.67127 1.14345 0
M  V30 6787 C 620.899 -1.92017 -0.30982 0
M  V30 6788 O 620.154 -1.51185 -1.24264 0
M  V30 6789 C 620.453 -3.04125 1.8773 0
M  V30 6790 C 620.119 -2.98929 3.37568 0
M  V30 6791 C 618.781 -2.9722 3.78436 0
M  V30 6792 C 621.133 -2.89875 4.33154 0
M  V30 6793 C 618.461 -2.84244 5.13247 0
M  V30 6794 C 620.813 -2.7844 5.68026 0
M  V30 6795 C 619.477 -2.75083 6.08182 0
M  V30 6796 H 618.747 -0.611562 0.418417 0
M  V30 6797 H 621.394 -1.07618 1.584 0
M  V30 6798 H 619.699 -3.67366 1.36196 0
M  V30 6799 H 621.396 -3.609 1.74792 0
M  V30 6800 H 617.986 -3.0105 3.05069 0
M  V30 6801 H 622.17 -2.9029 4.02548 0
M  V30 6802 H 617.426 -2.80034 5.43499 0
M  V30 6803 H 621.6 -2.70401 6.4176 0
M  V30 6804 H 619.227 -2.64786 7.12596 0
M  V30 6805 N 620.802 -1.09834 -1.13024 0
M  V30 6806 C 622.051 -0.831806 -1.83749 0
M  V30 6807 C 622.364 0.644763 -1.84668 0
M  V30 6808 O 623.57 1.02697 -2.51327 0
M  V30 6809 C 622.026 -1.43817 -3.29916 0
M  V30 6810 C 621.634 -2.94759 -3.37374 0
M  V30 6811 C 623.378 -1.25077 -4.05655 0
M  V30 6812 C 621.285 -3.48461 -4.77838 0
M  V30 6813 H 620.215 -0.30751 -0.688443 0
M  V30 6814 H 622.866 -1.32156 -1.27307 0
M  V30 6815 H 621.248 -0.876106 -3.86187 0
M  V30 6816 H 622.422 -3.57228 -2.91076 0
M  V30 6817 H 620.737 -3.12581 -2.75103 0
M  V30 6818 H 623.334 -1.62649 -5.09362 0
M  V30 6819 H 623.677 -0.191782 -4.15858 0
M  V30 6820 H 624.21 -1.78057 -3.55725 0
M  V30 6821 H 620.949 -4.53998 -4.72828 0
M  V30 6822 H 620.469 -2.90757 -5.24615 0
M  V30 6823 H 622.148 -3.45914 -5.46766 0
M  V30 6824 N 622.28 1.30327 -0.886154 0
M  V30 6825 C 623.557 1.90922 -0.425217 0
M  V30 6826 C 623.937 1.80533 1.09413 0
M  V30 6827 O 623.285 1.2233 1.92996 0
M  V30 6828 C 623.495 3.36529 -0.924638 0
M  V30 6829 C 624.843 4.13598 -0.960305 0
M  V30 6830 O 625.867 3.45377 -0.871382 0
M  V30 6831 O 624.726 5.35482 -1.09184 0
M  V30 6832 H 621.82 0.81668 -0.130238 0
M  V30 6833 H 624.366 1.38886 -0.975132 0
M  V30 6834 H 623.138 3.38181 -1.96849 0
M  V30 6835 H 622.761 3.96021 -0.353955 0
M  V30 6836 N 623.758 0.647228 1.43697 0
M  V30 6837 C 625.005 0.158188 2.01881 0
M  V30 6838 C 625.333 -1.22573 1.51017 0
M  V30 6839 O 624.588 -1.83086 0.69122 0
M  V30 6840 C 624.887 0.111481 3.57226 0
M  V30 6841 C 624.553 1.43633 4.27411 0
M  V30 6842 C 623.215 1.79915 4.463 0
M  V30 6843 C 625.567 2.31011 4.67208 0
M  V30 6844 C 622.895 3.03251 5.02251 0
M  V30 6845 C 625.247 3.53633 5.24525 0
M  V30 6846 C 623.911 3.90118 5.41631 0
M  V30 6847 H 623.181 0.0578851 0.738736 0
M  V30 6848 H 625.828 0.836746 1.72252 0
M  V30 6849 H 624.133 -0.650507 3.86362 0
M  V30 6850 H 625.83 -0.283682 3.99995 0
M  V30 6851 H 622.42 1.14403 4.1305 0
M  V30 6852 H 626.604 2.04272 4.52313 0
M  V30 6853 H 621.86 3.31575 5.13681 0
M  V30 6854 H 626.034 4.21561 5.5431 0
M  V30 6855 H 623.661 4.85768 5.84751 0
M  V30 6856 N 625.236 -1.5273 0.388769 0
M  V30 6857 C 626.485 -2.00757 -0.194833 0
M  V30 6858 C 626.798 -1.27951 -1.47946 0
M  V30 6859 O 628.004 -1.66686 -2.14308 0
M  V30 6860 C 626.46 -3.57695 -0.397762 0
M  V30 6861 C 626.068 -4.394 0.873583 0
M  V30 6862 C 627.812 -4.14012 -0.937759 0
M  V30 6863 C 625.719 -5.87938 0.638962 0
M  V30 6864 H 624.649 -0.750101 -0.0765845 0
M  V30 6865 H 627.3 -1.76239 0.511086 0
M  V30 6866 H 625.682 -3.7846 -1.16552 0
M  V30 6867 H 626.856 -4.30403 1.64591 0
M  V30 6868 H 625.171 -3.94301 1.33849 0
M  V30 6869 H 627.768 -5.22645 -1.12899 0
M  V30 6870 H 628.111 -3.7007 -1.90666 0
M  V30 6871 H 628.644 -3.97137 -0.229588 0
M  V30 6872 H 625.383 -6.36202 1.57885 0
M  V30 6873 H 624.903 -5.99726 -0.094443 0
M  V30 6874 H 626.582 -6.46423 0.273299 0
M  V30 6875 N 626.714 -0.118576 -1.57153 0
M  V30 6876 C 627.96 0.540326 -1.95469 0
M  V30 6877 C 628.293 1.66356 -1.00196 0
M  V30 6878 O 627.568 1.94461 -0.039104 0
M  V30 6879 C 627.851 1.07342 -3.43729 0
M  V30 6880 C 627.704 -0.0463732 -4.49776 0
M  V30 6881 C 629.023 1.96442 -3.93826 0
M  V30 6882 H 626.142 0.19494 -0.710751 0
M  V30 6883 H 628.784 -0.19405 -1.89006 0
M  V30 6884 H 626.934 1.69925 -3.49368 0
M  V30 6885 H 628.606 -0.681648 -4.56236 0
M  V30 6886 H 626.849 -0.709574 -4.27957 0
M  V30 6887 H 627.52 0.367856 -5.50773 0
M  V30 6888 H 629.996 1.43731 -3.90488 0
M  V30 6889 H 628.872 2.3066 -4.98084 0
M  V30 6890 H 629.133 2.89077 -3.34495 0
M  V30 6891 N 628.193 1.56834 0.155195 0
M  V30 6892 C 629.103 2.009 1.21146 0
M  V30 6893 C 630.119 0.923029 1.475 0
M  V30 6894 O 631.295 1.23189 1.59331 0
M  V30 6895 C 628.36 2.37378 2.52691 0
M  V30 6896 C 627.421 3.59883 2.34057 0
M  V30 6897 C 626.654 3.94612 3.59329 0
M  V30 6898 O 626.877 3.30104 4.65175 0
M  V30 6899 O 625.811 4.87895 3.52479 0
M  V30 6900 H 629.637 2.9105 0.867371 0
M  V30 6901 H 627.222 1.44916 0.363298 0
M  V30 6902 H 629.104 2.61737 3.3026 0
M  V30 6903 H 627.779 1.50385 2.86646 0
M  V30 6904 H 626.686 3.40722 1.54465 0
M  V30 6905 H 628.019 4.47468 2.0502 0
M  V30 6906 N 629.671 -0.424282 1.51781 0
M  V30 6907 C 631.082 -1.00368 1.57427 0
M  V30 6908 C 631.433 -1.91962 0.40558 0
M  V30 6909 O 630.558 -2.111 -0.47601 0
M  V30 6910 C 631.153 -1.82707 2.85313 0
M  V30 6911 C 629.712 -2.35675 2.93487 0
M  V30 6912 C 628.859 -1.1524 2.5222 0
M  V30 6913 H 631.81 -0.205064 1.5737 0
M  V30 6914 H 631.831 -2.68294 2.69812 0
M  V30 6915 H 631.343 -1.16017 3.70353 0
M  V30 6916 H 629.444 -3.05781 2.12906 0
M  V30 6917 H 629.557 -2.67578 3.97415 0
M  V30 6918 H 627.921 -1.50174 2.05718 0
M  V30 6919 H 628.704 -0.5014 3.39619 0
M  V30 6920 N 631.149 -1.42148 -0.680565 0
M  V30 6921 C 632.377 -1.45696 -1.46902 0
M  V30 6922 C 632.792 -0.0665858 -1.88683 0
M  V30 6923 O 632.149 0.917436 -1.57764 0
M  V30 6924 C 632.2 -2.37898 -2.72188 0
M  V30 6925 O 631.921 -3.71526 -2.32163 0
M  V30 6926 C 633.422 -2.50407 -3.65802 0
M  V30 6927 H 630.642 -0.495729 -0.45221 0
M  V30 6928 H 633.186 -1.866 -0.836709 0
M  V30 6929 H 631.341 -2.00263 -3.31622 0
M  V30 6930 H 631.755 -4.20849 -3.13027 0
M  V30 6931 H 633.229 -3.19056 -4.50452 0
M  V30 6932 H 633.706 -1.5401 -4.11312 0
M  V30 6933 H 634.312 -2.8874 -3.12265 0
M  V30 6934 N 632.627 0.916307 -1.28225 0
M  V30 6935 C 633.874 1.66518 -1.1523 0
M  V30 6936 C 634.202 1.92178 0.299632 0
M  V30 6937 O 633.457 1.51842 1.2346 0
M  V30 6938 C 633.756 3.03125 -1.8934 0
M  V30 6939 C 633.422 2.97135 -3.39148 0
M  V30 6940 C 632.084 2.95208 -3.80007 0
M  V30 6941 C 634.436 2.87574 -4.34685 0
M  V30 6942 C 631.764 2.81518 -5.14747 0
M  V30 6943 C 634.116 2.75424 -5.69495 0
M  V30 6944 C 632.78 2.71854 -6.09632 0
M  V30 6945 H 632.05 0.609334 -0.421655 0
M  V30 6946 H 634.697 1.06776 -1.58969 0
M  V30 6947 H 633.002 3.66639 -1.38143 0
M  V30 6948 H 634.699 3.59968 -1.76704 0
M  V30 6949 H 631.289 2.99428 -3.06661 0
M  V30 6950 H 635.473 2.88152 -4.04082 0
M  V30 6951 H 630.729 2.77148 -5.44976 0
M  V30 6952 H 634.903 2.66993 -6.43185 0
M  V30 6953 H 632.53 2.61003 -7.1399 0
M  V30 6954 N 634.105 1.10431 1.1244 0
M  V30 6955 C 635.33 0.869089 1.88313 0
M  V30 6956 C 635.755 -0.574912 1.79099 0
M  V30 6957 O 635.113 -1.40496 1.14589 0
M  V30 6958 C 635.161 1.32208 3.3549 0
M  V30 6959 O 634.265 0.487092 4.09513 0
M  V30 6960 H 633.606 0.313894 0.585121 0
M  V30 6961 H 636.136 1.47111 1.42195 0
M  V30 6962 H 636.146 1.31201 3.86329 0
M  V30 6963 H 634.821 2.37364 3.41513 0
M  V30 6964 H 633.398 0.562372 3.68635 0
M  V30 6965 N 635.583 -1.29855 0.893053 0
M  V30 6966 C 636.513 -2.3035 0.382249 0
M  V30 6967 C 637.494 -1.61328 -0.539203 0
M  V30 6968 O 638.679 -1.88882 -0.451342 0
M  V30 6969 C 635.809 -3.45024 -0.396983 0
M  V30 6970 C 634.763 -4.258 0.433437 0
M  V30 6971 C 634.089 -5.32605 -0.472889 0
M  V30 6972 C 635.389 -4.94549 1.67984 0
M  V30 6973 H 637.083 -2.73325 1.22205 0
M  V30 6974 H 634.629 -1.314 0.589073 0
M  V30 6975 H 636.582 -4.14398 -0.765024 0
M  V30 6976 H 635.306 -3.00875 -1.2705 0
M  V30 6977 H 633.965 -3.58125 0.783723 0
M  V30 6978 H 633.613 -4.84702 -1.34435 0
M  V30 6979 H 633.313 -5.87547 0.0789958 0
M  V30 6980 H 634.837 -6.04832 -0.837269 0
M  V30 6981 H 636.251 -5.56395 1.38192 0
M  V30 6982 H 634.648 -5.59393 2.17254 0
M  V30 6983 H 635.718 -4.20215 2.41965 0
M  V30 6984 N 637.061 -0.65484 -1.43351 0
M  V30 6985 C 637.991 0.0221809 -2.33489 0
M  V30 6986 C 638.972 0.810272 -1.49561 0
M  V30 6987 O 640.157 0.771426 -1.78221 0
M  V30 6988 C 637.287 0.988117 -3.32947 0
M  V30 6989 C 636.241 0.310026 -4.26876 0
M  V30 6990 C 635.567 1.38752 -5.16384 0
M  V30 6991 C 636.867 -0.798589 -5.16159 0
M  V30 6992 H 638.561 -0.730571 -2.9035 0
M  V30 6993 H 636.107 -0.352773 -1.39612 0
M  V30 6994 H 638.06 1.47067 -3.94904 0
M  V30 6995 H 636.784 1.77205 -2.74346 0
M  V30 6996 H 635.443 -0.152097 -3.66284 0
M  V30 6997 H 635.091 2.16293 -4.54121 0
M  V30 6998 H 634.791 0.939051 -5.80048 0
M  V30 6999 H 636.315 1.87141 -5.81215 0
M  V30 7000 H 637.729 -0.398126 -5.71916 0
M  V30 7001 H 636.126 -1.17163 -5.88552 0
M  V30 7002 H 637.196 -1.65588 -4.55751 0
M  V30 7003 N 638.539 1.52521 -0.396863 0
M  V30 7004 C 639.767 2.06091 0.18275 0
M  V30 7005 C 640.182 1.26796 1.39886 0
M  V30 7006 O 639.539 0.316585 1.79733 0
M  V30 7007 C 639.59 3.57362 0.545377 0
M  V30 7008 O 639.311 4.33656 -0.622428 0
M  V30 7009 C 640.812 4.27305 1.18004 0
M  V30 7010 H 638.032 0.670504 0.025789 0
M  V30 7011 H 640.576 1.96561 -0.564276 0
M  V30 7012 H 638.731 3.66941 1.2423 0
M  V30 7013 H 639.145 5.23507 -0.322662 0
M  V30 7014 H 640.619 5.34366 1.38408 0
M  V30 7015 H 641.096 3.83 2.1496 0
M  V30 7016 H 641.702 4.22064 0.523671 0
M  V30 7017 N 640.017 0.126909 1.57088 0
M  V30 7018 C 641.294 -0.573152 1.87014 0
M  V30 7019 C 641.674 -1.84297 1.02945 0
M  V30 7020 O 641.022 -2.28232 0.110573 0
M  V30 7021 C 641.232 -0.857984 3.38289 0
M  V30 7022 C 642.58 -1.20759 4.07066 0
M  V30 7023 O 643.604 -0.947992 3.43353 0
M  V30 7024 O 642.463 -1.69516 5.19545 0
M  V30 7025 H 639.557 -0.290082 0.774456 0
M  V30 7026 H 642.103 0.162008 1.68925 0
M  V30 7027 H 640.875 0.0415286 3.91278 0
M  V30 7028 H 640.498 -1.64803 3.61837 0
M  V30 7029 N 641.495 -1.56914 -0.146875 0
M  V30 7030 C 642.72 -1.87881 -0.878386 0
M  V30 7031 C 643.145 -0.715945 -1.73942 0
M  V30 7032 O 642.503 0.334447 -1.78189 0
M  V30 7033 C 642.551 -3.17431 -1.71084 0
M  V30 7034 O 641.655 -3.01374 -2.81509 0
M  V30 7035 H 640.996 -0.617289 -0.244644 0
M  V30 7036 H 643.526 -2.04136 -0.137654 0
M  V30 7037 H 643.536 -3.49455 -2.10582 0
M  V30 7038 H 642.211 -4.01671 -1.07856 0
M  V30 7039 H 640.788 -2.80758 -2.45416 0
M  V30 7040 N 642.974 0.416227 -1.52004 0
M  V30 7041 C 644.202 1.18573 -1.69553 0
M  V30 7042 C 644.617 1.84472 -0.401919 0
M  V30 7043 O 643.974 1.71593 0.621463 0
M  V30 7044 C 644.025 2.25413 -2.82615 0
M  V30 7045 O 643.746 1.62205 -4.06966 0
M  V30 7046 C 645.247 3.15297 -3.11613 0
M  V30 7047 H 642.467 0.356582 -0.56841 0
M  V30 7048 H 645.011 0.490618 -1.98528 0
M  V30 7049 H 643.166 2.90604 -2.56179 0
M  V30 7050 H 643.58 2.3298 -4.69916 0
M  V30 7051 H 645.054 3.86351 -3.94255 0
M  V30 7052 H 645.531 3.77264 -2.24874 0
M  V30 7053 H 646.137 2.55783 -3.39787 0
M  V30 7054 N 644.452 1.42507 0.673017 0
M  V30 7055 C 645.362 1.4853 1.81593 0
M  V30 7056 C 646.378 0.373907 1.69935 0
M  V30 7057 O 647.554 0.625078 1.91454 0
M  V30 7058 C 644.619 1.387 3.17747 0
M  V30 7059 C 643.68 2.60346 3.41348 0
M  V30 7060 C 642.913 2.50975 4.71007 0
M  V30 7061 O 643.136 1.54659 5.49033 0
M  V30 7062 O 642.07 3.41138 4.95892 0
M  V30 7063 H 645.896 2.45001 1.79467 0
M  V30 7064 H 643.481 1.2429 0.82899 0
M  V30 7065 H 645.363 1.35586 3.98992 0
M  V30 7066 H 644.038 0.453555 3.20507 0
M  V30 7067 H 642.945 2.69034 2.59945 0
M  V30 7068 H 644.278 3.52595 3.43421 0
M  V30 7069 N 645.93 -0.909495 1.28709 0
M  V30 7070 C 646.877 -2.01245 1.13 0
M  V30 7071 C 647.847 -1.6608 0.0259684 0
M  V30 7072 O 649.032 -1.89835 0.191687 0
M  V30 7073 C 646.172 -3.35644 0.802315 0
M  V30 7074 C 645.285 -3.83653 1.98582 0
M  V30 7075 C 644.42 -5.06582 1.59837 0
M  V30 7076 C 643.459 -5.46934 2.74827 0
M  V30 7077 N 642.596 -6.61053 2.36546 0
M  V30 7078 H 647.436 -2.14013 2.0737 0
M  V30 7079 H 644.973 -1.0482 1.03205 0
M  V30 7080 H 646.931 -4.12963 0.593057 0
M  V30 7081 H 645.561 -3.22631 -0.104457 0
M  V30 7082 H 644.613 -3.02454 2.30708 0
M  V30 7083 H 645.925 -4.09515 2.84779 0
M  V30 7084 H 645.079 -5.91457 1.35143 0
M  V30 7085 H 643.818 -4.82537 0.707753 0
M  V30 7086 H 642.823 -4.60599 3.00215 0
M  V30 7087 H 644.048 -5.72965 3.64538 0
M  V30 7088 H 641.994 -6.3863 1.49959 0
M  V30 7089 H 641.911 -6.86662 3.16277 0
M  V30 7090 H 643.179 -7.49221 2.15146 0
M  V30 7091 N 647.408 -1.11026 -1.11852 0
M  V30 7092 C 648.657 -0.851249 -1.82857 0
M  V30 7093 C 648.97 0.62514 -1.85341 0
M  V30 7094 O 650.176 1.00026 -2.52403 0
M  V30 7095 C 648.632 -1.47309 -3.28372 0
M  V30 7096 C 648.24 -2.9832 -3.34229 0
M  V30 7097 C 649.984 -1.29373 -4.04306 0
M  V30 7098 C 647.891 -3.53509 -4.74115 0
M  V30 7099 H 646.821 -0.314794 -0.685143 0
M  V30 7100 H 649.472 -1.33499 -1.25898 0
M  V30 7101 H 647.854 -0.917017 -3.85236 0
M  V30 7102 H 649.028 -3.60295 -2.87271 0
M  V30 7103 H 647.343 -3.15482 -2.71772 0
M  V30 7104 H 649.94 -1.68042 -5.07608 0
M  V30 7105 H 650.283 -0.235879 -4.15631 0
M  V30 7106 H 650.816 -1.8182 -3.53817 0
M  V30 7107 H 647.555 -4.58987 -4.67986 0
M  V30 7108 H 647.075 -2.96305 -5.21501 0
M  V30 7109 H 648.754 -3.51693 -5.43066 0
M  V30 7110 N 648.886 1.2938 -0.899927 0
M  V30 7111 C 650.132 1.9584 -0.526742 0
M  V30 7112 C 650.465 1.70774 0.924651 0
M  V30 7113 O 649.74 1.02084 1.65557 0
M  V30 7114 C 650.023 3.50638 -0.820062 0
M  V30 7115 C 649.876 3.85161 -2.32317 0
M  V30 7116 C 651.195 4.3903 -0.30671 0
M  V30 7117 H 648.314 0.711322 -0.192848 0
M  V30 7118 H 650.956 1.52992 -1.12665 0
M  V30 7119 H 649.106 3.87265 -0.309491 0
M  V30 7120 H 650.778 3.58477 -2.9033 0
M  V30 7121 H 649.021 3.32696 -2.78381 0
M  V30 7122 H 649.692 4.93204 -2.47898 0
M  V30 7123 H 652.168 4.09396 -0.743908 0
M  V30 7124 H 651.044 5.46226 -0.541144 0
M  V30 7125 H 651.305 4.34937 0.792588 0
M  V30 7126 N 650.364 0.662433 1.43002 0
M  V30 7127 C 651.613 0.176873 2.00923 0
M  V30 7128 C 651.926 -1.21954 1.52927 0
M  V30 7129 O 653.132 -1.80081 2.03182 0
M  V30 7130 C 651.588 0.265379 3.5892 0
M  V30 7131 C 651.196 1.66507 4.15908 0
M  V30 7132 C 652.94 -0.162103 4.2419 0
M  V30 7133 C 650.847 1.707 5.66229 0
M  V30 7134 H 649.777 0.0623627 0.751417 0
M  V30 7135 H 652.428 0.825813 1.63868 0
M  V30 7136 H 650.81 -0.451235 3.93421 0
M  V30 7137 H 651.984 2.40777 3.92891 0
M  V30 7138 H 650.299 2.03932 3.63044 0
M  V30 7139 H 652.896 -0.150745 5.34487 0
M  V30 7140 H 653.239 -1.19519 3.98774 0
M  V30 7141 H 653.772 0.503075 3.94606 0
M  V30 7142 H 650.511 2.7195 5.96426 0
M  V30 7143 H 650.031 1.00768 5.91275 0
M  V30 7144 H 651.71 1.45487 6.3043 0
M  V30 7145 N 651.842 -1.52309 0.404946 0
M  V30 7146 C 653.253 -1.86585 -0.0655926 0
M  V30 7147 C 653.604 -1.3239 -1.44801 0
M  V30 7148 O 652.729 -0.6615 -2.06042 0
M  V30 7149 C 653.324 -3.38566 -0.125801 0
M  V30 7150 C 651.883 -3.72497 -0.540666 0
M  V30 7151 C 651.03 -2.75806 0.287487 0
M  V30 7152 H 653.981 -1.45995 0.622185 0
M  V30 7153 H 654.002 -3.68658 -0.941888 0
M  V30 7154 H 653.514 -3.77981 0.880473 0
M  V30 7155 H 651.615 -3.38659 -1.55373 0
M  V30 7156 H 651.728 -4.78234 -0.287956 0
M  V30 7157 H 650.092 -2.53474 -0.249561 0
M  V30 7158 H 650.875 -3.18059 1.29203 0
M  V30 7159 N 653.32 -0.135238 -1.57019 0
M  V30 7160 C 654.25 0.805235 -2.19176 0
M  V30 7161 C 655.231 1.2656 -1.13651 0
M  V30 7162 O 656.416 1.32528 -1.4195 0
M  V30 7163 C 653.546 2.04914 -2.80406 0
M  V30 7164 C 652.5 1.72598 -3.91655 0
M  V30 7165 C 651.826 3.04154 -4.39766 0
M  V30 7166 C 653.126 0.981709 -5.12991 0
M  V30 7167 H 654.82 0.287232 -2.98019 0
M  V30 7168 H 652.366 0.136714 -1.4335 0
M  V30 7169 H 654.319 2.71178 -3.22553 0
M  V30 7170 H 653.043 2.59067 -1.98877 0
M  V30 7171 H 651.702 1.08717 -3.50109 0
M  V30 7172 H 651.35 3.56274 -3.55075 0
M  V30 7173 H 651.05 2.83299 -5.14796 0
M  V30 7174 H 652.574 3.71509 -4.84576 0
M  V30 7175 H 653.988 1.5462 -5.52056 0
M  V30 7176 H 652.385 0.873533 -5.93708 0
M  V30 7177 H 653.455 -0.0286887 -4.84892 0
M  V30 7178 N 654.798 1.5699 0.138552 0
M  V30 7179 C 656.047 1.82998 0.848205 0
M  V30 7180 C 656.36 0.717829 1.81952 0
M  V30 7181 O 657.566 0.863756 2.57394 0
M  V30 7182 C 656.022 3.24379 1.55904 0
M  V30 7183 C 655.63 4.43552 0.62971 0
M  V30 7184 C 657.374 3.59654 2.25498 0
M  V30 7185 C 655.281 5.75957 1.34266 0
M  V30 7186 H 654.211 0.682495 0.320495 0
M  V30 7187 H 656.862 1.83222 0.100924 0
M  V30 7188 H 655.244 3.18567 2.35226 0
M  V30 7189 H 656.418 4.6062 -0.128882 0
M  V30 7190 H 654.733 4.16379 0.0417526 0
M  V30 7191 H 657.33 4.55837 2.79493 0
M  V30 7192 H 657.673 2.86124 3.02388 0
M  V30 7193 H 658.206 3.67164 1.53087 0
M  V30 7194 H 654.945 6.52604 0.615441 0
M  V30 7195 H 654.465 5.62811 2.07375 0
M  V30 7196 H 656.144 6.19046 1.88126 0
M  V30 7197 N 656.276 -0.40816 1.52223 0
M  V30 7198 C 657.186 -1.52202 1.78526 0
M  V30 7199 C 658.202 -1.60546 0.670892 0
M  V30 7200 O 659.378 -1.77242 0.956404 0
M  V30 7201 C 656.443 -2.87928 1.93128 0
M  V30 7202 C 655.504 -2.89463 3.17033 0
M  V30 7203 C 654.737 -4.18715 3.30929 0
M  V30 7204 O 654.96 -5.12662 2.50067 0
M  V30 7205 O 653.894 -4.27125 4.24084 0
M  V30 7206 H 657.72 -1.32911 2.73072 0
M  V30 7207 H 655.305 -0.594112 1.37079 0
M  V30 7208 H 657.187 -3.68426 2.04549 0
M  V30 7209 H 655.862 -3.07285 1.01772 0
M  V30 7210 H 654.769 -2.07815 3.11069 0
M  V30 7211 H 656.102 -2.75055 4.08174 0
M  V30 7212 N 657.755 -1.42862 -0.66545 0
M  V30 7213 C 658.665 -1.49491 -1.80803 0
M  V30 7214 C 659.681 -0.382914 -1.69734 0
M  V30 7215 O 660.857 -0.635223 -1.9112 0
M  V30 7216 C 657.922 -1.40383 -3.17007 0
M  V30 7217 C 656.983 -2.62152 -3.39963 0
M  V30 7218 C 656.216 -2.53469 -4.69669 0
M  V30 7219 O 656.439 -1.57568 -5.48205 0
M  V30 7220 O 655.373 -3.43763 -4.94075 0
M  V30 7221 H 659.199 -2.45949 -1.78165 0
M  V30 7222 H 656.784 -1.24728 -0.822387 0
M  V30 7223 H 658.666 -1.377 -3.98267 0
M  V30 7224 H 657.341 -0.470546 -3.20262 0
M  V30 7225 H 656.248 -2.70409 -2.58515 0
M  V30 7226 H 657.581 -3.54411 -3.41546 0
M  V30 7227 N 659.233 0.902656 -1.29189 0
M  V30 7228 C 660.196 1.98797 -1.14071 0
M  V30 7229 C 661.196 1.60615 -0.0770549 0
M  V30 7230 O 662.386 1.71165 -0.323753 0
M  V30 7231 C 659.518 3.32688 -0.743739 0
M  V30 7232 H 660.711 2.13637 -2.10473 0
M  V30 7233 H 658.264 1.08678 -1.12334 0
M  V30 7234 H 658.999 3.23549 0.220554 0
M  V30 7235 H 658.784 3.61765 -1.51223 0
M  V30 7236 H 660.274 4.12337 -0.660935 0
M  V30 7237 N 660.711 1.11618 1.11262 0
M  V30 7238 C 661.936 0.889013 1.8738 0
M  V30 7239 C 662.361 -0.555884 1.79698 0
M  V30 7240 O 661.719 -1.39272 1.16073 0
M  V30 7241 C 661.767 1.35759 3.34069 0
M  V30 7242 O 660.871 0.530499 4.08974 0
M  V30 7243 H 660.212 0.320082 0.581759 0
M  V30 7244 H 662.742 1.48611 1.40627 0
M  V30 7245 H 662.752 1.35291 3.84916 0
M  V30 7246 H 661.427 2.40973 3.38976 0
M  V30 7247 H 660.004 0.601439 3.68018 0
M  V30 7248 N 662.189 -1.289 0.906776 0
M  V30 7249 C 663.136 -2.2751 0.388313 0
M  V30 7250 C 664.106 -1.57301 -0.533439 0
M  V30 7251 O 665.291 -1.85243 -0.457148 0
M  V30 7252 C 662.431 -3.43091 -0.37181 0
M  V30 7253 C 661.544 -4.28066 0.581647 0
M  V30 7254 C 660.679 -5.30837 -0.19623 0
M  V30 7255 C 659.718 -6.07472 0.751294 0
M  V30 7256 N 658.855 -7.021 0.00737727 0
M  V30 7257 H 663.695 -2.71237 1.23428 0
M  V30 7258 H 661.232 -1.33397 0.619962 0
M  V30 7259 H 663.19 -4.08888 -0.828641 0
M  V30 7260 H 661.82 -3.00374 -1.18218 0
M  V30 7261 H 660.872 -3.62378 1.157 0
M  V30 7262 H 662.184 -4.81382 1.30665 0
M  V30 7263 H 661.338 -6.02485 -0.71394 0
M  V30 7264 H 660.077 -4.78272 -0.954324 0
M  V30 7265 H 659.082 -5.34682 1.28044 0
M  V30 7266 H 660.307 -6.62126 1.50883 0
M  V30 7267 H 658.253 -6.51894 -0.732854 0
M  V30 7268 H 658.17 -7.53004 0.672334 0
M  V30 7269 H 659.438 -7.77956 -0.490365 0
M  V30 7270 N 663.667 -0.670007 -1.42649 0
M  V30 7271 C 664.63 0.00204659 -2.292 0
M  V30 7272 C 665.63 0.733817 -1.4308 0
M  V30 7273 O 666.82 0.57254 -1.64522 0
M  V30 7274 C 663.952 1.01359 -3.25483 0
M  V30 7275 H 665.145 -0.759696 -2.90118 0
M  V30 7276 H 662.698 -0.432105 -1.50208 0
M  V30 7277 H 663.433 1.80399 -2.69493 0
M  V30 7278 H 663.218 0.492323 -3.88997 0
M  V30 7279 H 664.708 1.4824 -3.90403 0
M  V30 7280 N 665.145 1.52092 -0.413018 0
M  V30 7281 C 666.055 2.30858 0.417318 0
M  V30 7282 C 667.071 1.38746 1.05003 0
M  V30 7283 O 668.247 1.71821 1.05069 0
M  V30 7284 C 665.312 3.11756 1.51687 0
M  V30 7285 C 664.373 4.19613 0.906825 0
M  V30 7286 C 663.606 4.96644 1.95399 0
M  V30 7287 O 663.829 4.7402 3.17271 0
M  V30 7288 O 662.763 5.81385 1.55805 0
M  V30 7289 H 666.589 3.02865 -0.225028 0
M  V30 7290 H 664.174 1.48358 -0.176126 0
M  V30 7291 H 666.056 3.62122 2.15512 0
M  V30 7292 H 664.731 2.42539 2.14375 0
M  V30 7293 H 663.638 3.73385 0.231183 0
M  V30 7294 H 664.971 4.91134 0.323814 0
M  V30 7295 N 666.623 0.143563 1.56945 0
M  V30 7296 C 667.851 -0.515447 2.00377 0
M  V30 7297 C 668.266 -1.58643 1.02361 0
M  V30 7298 O 667.623 -1.82489 0.0201039 0
M  V30 7299 C 667.674 -1.11923 3.43737 0
M  V30 7300 O 667.395 -0.0910318 4.38005 0
M  V30 7301 C 668.896 -1.85918 4.02429 0
M  V30 7302 H 666.116 -0.134478 0.657386 0
M  V30 7303 H 668.66 0.237135 2.0312 0
M  V30 7304 H 666.815 -1.82245 3.41856 0
M  V30 7305 H 667.229 -0.532916 5.21786 0
M  V30 7306 H 668.703 -2.2346 5.04747 0
M  V30 7307 H 669.18 -2.7438 3.42947 0
M  V30 7308 H 669.786 -1.20303 4.07931 0
M  V30 7309 N 668.101 -1.57061 -0.130224 0
M  V30 7310 C 669.326 -1.88802 -0.858409 0
M  V30 7311 C 669.751 -0.734353 -1.73173 0
M  V30 7312 O 669.109 0.315529 -1.78533 0
M  V30 7313 C 669.157 -3.19228 -1.67708 0
M  V30 7314 O 668.261 -3.04343 -2.78297 0
M  V30 7315 H 667.602 -0.619849 -0.238083 0
M  V30 7316 H 670.132 -2.04271 -0.115995 0
M  V30 7317 H 670.142 -3.51669 -2.06864 0
M  V30 7318 H 668.817 -4.02793 -1.0359 0
M  V30 7319 H 667.394 -2.83346 -2.42425 0
M  V30 7320 N 669.579 0.400081 -1.52437 0
M  V30 7321 C 670.804 1.17221 -1.71096 0
M  V30 7322 C 671.229 1.83269 -0.423565 0
M  V30 7323 O 670.587 1.70378 0.619751 0
M  V30 7324 C 670.635 2.20425 -2.85386 0
M  V30 7325 O 669.739 3.26769 -2.51586 0
M  V30 7326 H 669.08 0.341766 -0.569291 0
M  V30 7327 H 671.61 0.467772 -1.99181 0
M  V30 7328 H 671.62 2.64605 -3.10561 0
M  V30 7329 H 670.295 1.71737 -3.78786 0
M  V30 7330 H 668.872 2.87804 -2.37114 0
M  V30 7331 N 671.057 1.43213 0.657864 0
M  V30 7332 C 672.287 1.478 1.44356 0
M  V30 7333 C 672.695 0.0930206 1.88971 0
M  V30 7334 O 672.038 -0.906089 1.59799 0
M  V30 7335 C 672.1 2.35745 2.71412 0
M  V30 7336 C 671.764 3.83359 2.48767 0
M  V30 7337 C 672.761 4.74585 2.12285 0
M  V30 7338 C 670.446 4.27799 2.63235 0
M  V30 7339 C 672.44 6.08247 1.90562 0
M  V30 7340 C 670.127 5.61516 2.41128 0
M  V30 7341 C 671.125 6.51557 2.04847 0
M  V30 7342 O 670.813 7.82802 1.82967 0
M  V30 7343 H 670.545 0.504363 0.450104 0
M  V30 7344 H 673.099 1.88572 0.814241 0
M  V30 7345 H 671.329 1.89852 3.36887 0
M  V30 7346 H 673.018 2.31589 3.33348 0
M  V30 7347 H 673.784 4.41531 2.00687 0
M  V30 7348 H 669.663 3.57993 2.90451 0
M  V30 7349 H 673.207 6.78489 1.62168 0
M  V30 7350 H 669.104 5.94139 2.52327 0
M  V30 7351 H 669.872 7.94332 1.97429 0
M  V30 7352 N 672.536 -0.895792 1.29666 0
M  V30 7353 C 673.782 -1.64908 1.18039 0
M  V30 7354 C 674.115 -1.9236 -0.266682 0
M  V30 7355 O 673.39 -1.53682 -1.19214 0
M  V30 7356 C 673.673 -2.99574 1.99819 0
M  V30 7357 C 673.526 -2.79163 3.52687 0
M  V30 7358 C 674.845 -4.00358 1.82761 0
M  V30 7359 H 671.964 -0.598437 0.430165 0
M  V30 7360 H 674.606 -1.03736 1.59182 0
M  V30 7361 H 672.756 -3.51786 1.64859 0
M  V30 7362 H 674.428 -2.33821 3.9765 0
M  V30 7363 H 672.671 -2.13871 3.77414 0
M  V30 7364 H 673.342 -3.74871 4.05186 0
M  V30 7365 H 675.818 -3.57268 2.13304 0
M  V30 7366 H 674.694 -4.92514 2.42325 0
M  V30 7367 H 674.955 -4.35096 0.783839 0
M  V30 7368 N 674.014 -1.12206 -1.10668 0
M  V30 7369 C 674.977 -0.790867 -2.15123 0
M  V30 7370 C 675.977 0.193618 -1.5963 0
M  V30 7371 O 677.167 -0.0318728 -1.74171 0
M  V30 7372 C 674.299 -0.174797 -3.40452 0
M  V30 7373 H 675.492 -1.7163 -2.45933 0
M  V30 7374 H 673.045 -0.924993 -1.2599 0
M  V30 7375 H 673.78 0.760478 -3.15257 0
M  V30 7376 H 673.565 -0.88358 -3.82015 0
M  V30 7377 H 675.055 0.0405162 -4.1758 0
M  V30 7378 N 675.492 1.28418 -0.913599 0
M  V30 7379 C 676.717 1.99643 -0.561899 0
M  V30 7380 C 677.142 1.67819 0.849608 0
M  V30 7381 O 676.5 0.910503 1.56779 0
M  V30 7382 C 676.548 3.52116 -0.777622 0
M  V30 7383 O 675.652 4.12076 0.163457 0
M  V30 7384 H 674.993 0.627229 -0.217898 0
M  V30 7385 H 677.523 1.63575 -1.229 0
M  V30 7386 H 677.533 4.02163 -0.687666 0
M  V30 7387 H 676.208 3.74613 -1.8066 0
M  V30 7388 H 674.785 3.72892 0.0247827 0
M  V30 7389 N 676.97 0.677563 1.42291 0
M  V30 7390 C 678.195 0.207901 2.06355 0
M  V30 7391 C 678.62 -1.12723 1.50583 0
M  V30 7392 O 677.978 -1.70171 0.62543 0
M  V30 7393 C 678.026 0.156489 3.6026 0
M  V30 7394 O 677.13 -0.874162 4.03029 0
M  V30 7395 H 676.471 0.106056 0.655475 0
M  V30 7396 H 679.001 0.927354 1.82377 0
M  V30 7397 H 679.011 -0.0187258 4.07996 0
M  V30 7398 H 677.686 1.13101 4.00226 0
M  V30 7399 H 676.263 -0.669764 3.66836 0
M  V30 7400 N 678.448 -1.51871 0.421078 0
M  V30 7401 C 679.673 -2.0684 -0.152371 0
M  V30 7402 C 680.098 -1.28802 -1.37083 0
M  V30 7403 O 679.456 -0.321482 -1.78427 0
M  V30 7404 C 679.504 -3.57532 -0.469368 0
M  V30 7405 O 678.608 -3.81818 -1.55848 0
M  V30 7406 H 677.949 -0.663939 -0.00898586 0
M  V30 7407 H 680.479 -1.95674 0.597724 0
M  V30 7408 H 680.489 -4.01515 -0.724553 0
M  V30 7409 H 679.164 -4.13761 0.421276 0
M  V30 7410 H 677.741 -3.49709 -1.29453 0
M  V30 7411 N 679.926 -0.151884 -1.56866 0
M  V30 7412 C 681.154 0.504813 -2.00647 0
M  V30 7413 C 681.569 1.58098 -1.03201 0
M  V30 7414 O 680.926 1.82476 -0.0297814 0
M  V30 7415 C 680.977 1.10099 -3.44326 0
M  V30 7416 O 680.698 0.0678021 -4.38048 0
M  V30 7417 C 682.199 1.83782 -4.03409 0
M  V30 7418 H 679.419 0.130989 -0.65809 0
M  V30 7419 H 681.963 -0.247903 -2.02992 0
M  V30 7420 H 680.118 1.8043 -3.42817 0
M  V30 7421 H 680.532 0.505237 -5.22061 0
M  V30 7422 H 682.006 2.2078 -5.05925 0
M  V30 7423 H 682.483 2.72557 -3.44397 0
M  V30 7424 H 683.089 1.18138 -4.08563 0
M  V30 7425 N 681.404 1.57128 0.121893 0
M  V30 7426 C 682.632 1.88883 0.844451 0
M  V30 7427 C 683.047 0.742824 1.73573 0
M  V30 7428 O 682.404 -0.286475 1.80238 0
M  V30 7429 C 682.455 3.20076 1.68029 0
M  V30 7430 O 682.176 4.30264 0.824898 0
M  V30 7431 C 683.677 3.65515 2.50826 0
M  V30 7432 H 680.897 0.62549 0.242907 0
M  V30 7433 H 683.441 2.04219 0.107151 0
M  V30 7434 H 681.596 3.06418 2.37038 0
M  V30 7435 H 682.01 5.05439 1.40113 0
M  V30 7436 H 683.484 4.60081 3.05008 0
M  V30 7437 H 683.961 2.92029 3.28048 0
M  V30 7438 H 684.567 3.81952 1.87064 0
M  V30 7439 N 682.882 -0.391992 1.52647 0
M  V30 7440 C 684.131 -1.13449 1.6677 0
M  V30 7441 C 684.444 -1.91203 0.412399 0
M  V30 7442 O 685.65 -2.68013 0.433707 0
M  V30 7443 C 684.106 -2.06577 2.9471 0
M  V30 7444 C 683.714 -1.3426 4.27409 0
M  V30 7445 C 685.458 -2.80981 3.18198 0
M  V30 7446 C 683.365 -2.26136 5.46458 0
M  V30 7447 H 682.295 -0.427211 0.621295 0
M  V30 7448 H 684.946 -0.397522 1.79142 0
M  V30 7449 H 683.328 -2.83898 2.76076 0
M  V30 7450 H 684.502 -0.621856 4.56585 0
M  V30 7451 H 682.817 -0.718279 4.10158 0
M  V30 7452 H 685.414 -3.49898 4.04321 0
M  V30 7453 H 685.757 -3.44891 2.33144 0
M  V30 7454 H 686.29 -2.10754 3.37383 0
M  V30 7455 H 683.029 -1.66846 6.33911 0
M  V30 7456 H 682.549 -2.96134 5.21598 0
M  V30 7457 H 684.228 -2.86286 5.80215 0
M  V30 7458 N 684.36 -1.4356 -0.65026 0
M  V30 7459 C 685.606 -1.45549 -1.41221 0
M  V30 7460 C 685.939 -0.0805472 -1.94033 0
M  V30 7461 O 685.214 0.899043 -1.72475 0
M  V30 7462 C 685.497 -2.50028 -2.59148 0
M  V30 7463 C 685.35 -3.96808 -2.1181 0
M  V30 7464 C 686.669 -2.51212 -3.61359 0
M  V30 7465 H 683.788 -0.529967 -0.512156 0
M  V30 7466 H 686.43 -1.75127 -0.736933 0
M  V30 7467 H 684.58 -2.24937 -3.16758 0
M  V30 7468 H 686.252 -4.32966 -1.59178 0
M  V30 7469 H 684.495 -4.09498 -1.43156 0
M  V30 7470 H 685.166 -4.6553 -2.96625 0
M  V30 7471 H 687.642 -2.73583 -3.13515 0
M  V30 7472 H 686.518 -3.26252 -4.41419 0
M  V30 7473 H 686.779 -1.54701 -4.1415 0
M  V30 7474 N 685.838 0.888903 -1.30139 0
M  V30 7475 C 687.086 1.63713 -1.18501 0
M  V30 7476 C 687.407 1.9324 0.261399 0
M  V30 7477 O 686.677 1.56608 1.17689 0
M  V30 7478 H 685.257 0.606861 -0.435579 0
M  V30 7479 H 687.919 1.06525 -1.63213 0
M  V30 7480 H 687.015 2.58894 -1.743 0
M  V30 7481 N 687.317 1.12792 1.10072 0
M  V30 7482 C 688.247 0.821688 2.18565 0
M  V30 7483 C 689.228 -0.21612 1.68721 0
M  V30 7484 O 690.413 -0.0764932 1.94049 0
M  V30 7485 C 687.543 0.279624 3.46172 0
M  V30 7486 C 686.497 1.25092 4.09312 0
M  V30 7487 C 685.823 0.568916 5.31665 0
M  V30 7488 C 687.123 2.60699 4.52585 0
M  V30 7489 H 688.817 1.72888 2.44438 0
M  V30 7490 H 686.363 0.832702 1.17482 0
M  V30 7491 H 688.316 0.053099 4.21367 0
M  V30 7492 H 687.04 -0.662929 3.19801 0
M  V30 7493 H 685.699 1.46332 3.36129 0
M  V30 7494 H 685.347 -0.378898 5.01571 0
M  V30 7495 H 685.047 1.21687 5.74862 0
M  V30 7496 H 686.571 0.351517 6.09587 0
M  V30 7497 H 687.985 2.43465 5.19035 0
M  V30 7498 H 686.382 3.21608 5.06644 0
M  V30 7499 H 687.452 3.1886 3.65317 0
M  V30 7500 N 688.795 -1.27931 0.920396 0
M  V30 7501 C 689.745 -2.24727 0.384966 0
M  V30 7502 C 690.729 -1.52715 -0.506661 0
M  V30 7503 O 691.921 -1.73599 -0.345298 0
M  V30 7504 C 689.05 -3.41324 -0.3678 0
M  V30 7505 C 688.136 -4.20649 0.539925 0
M  V30 7506 N 688.527 -4.77906 1.6565 0
M  V30 7507 C 686.825 -4.4469 0.341557 0
M  V30 7508 C 687.526 -5.37652 2.22047 0
M  V30 7509 N 686.502 -5.2218 1.51093 0
M  V30 7510 H 690.304 -2.66572 1.23761 0
M  V30 7511 H 687.818 -1.42779 0.773819 0
M  V30 7512 H 689.815 -4.0976 -0.768277 0
M  V30 7513 H 688.475 -3.01012 -1.21746 0
M  V30 7514 H 689.486 -4.76073 2.03899 0
M  V30 7515 H 686.163 -4.14868 -0.468045 0
M  V30 7516 H 687.553 -5.92948 3.1601 0
M  V30 7517 N 690.273 -0.685099 -1.4193 0
M  V30 7518 C 691.522 -0.208816 -2.00616 0
M  V30 7519 C 691.835 1.19506 -1.54847 0
M  V30 7520 O 693.041 1.76826 -2.06021 0
M  V30 7521 C 691.497 -0.322446 -3.58453 0
M  V30 7522 C 691.105 -1.73102 -4.13206 0
M  V30 7523 C 692.849 0.0945979 -4.24395 0
M  V30 7524 C 690.756 -1.79687 -5.63442 0
M  V30 7525 H 689.686 -0.0743092 -0.750329 0
M  V30 7526 H 692.337 -0.851778 -1.62533 0
M  V30 7527 H 690.719 0.388588 -3.94089 0
M  V30 7528 H 691.893 -2.46997 -3.8901 0
M  V30 7529 H 690.208 -2.09682 -3.59753 0
M  V30 7530 H 692.805 0.0656937 -5.3466 0
M  V30 7531 H 693.148 1.1316 -4.00625 0
M  V30 7532 H 693.681 -0.56579 -3.93756 0
M  V30 7533 H 690.42 -2.81404 -5.92024 0
M  V30 7534 H 689.94 -1.10162 -5.89597 0
M  V30 7535 H 691.619 -1.55498 -6.28036 0
M  V30 7536 N 691.751 1.51645 -0.429126 0
M  V30 7537 C 692.714 2.26116 0.374726 0
M  V30 7538 C 693.714 1.29242 0.956714 0
M  V30 7539 O 694.904 1.53022 0.832452 0
M  V30 7540 C 692.036 3.04669 1.52937 0
M  V30 7541 H 693.229 2.9861 -0.277818 0
M  V30 7542 H 690.782 1.55236 -0.182097 0
M  V30 7543 H 691.517 2.36571 2.21821 0
M  V30 7544 H 691.302 3.75814 1.11833 0
M  V30 7545 H 692.792 3.61102 2.09751 0
M  V30 7546 N 693.229 0.160201 1.56784 0
M  V30 7547 C 694.506 -0.533355 1.88188 0
M  V30 7548 C 694.886 -1.82072 1.06831 0
M  V30 7549 O 694.234 -2.27946 0.158959 0
M  V30 7550 C 694.444 -0.786034 3.40033 0
M  V30 7551 C 695.792 -1.12097 4.09536 0
M  V30 7552 O 696.816 -0.874949 3.45287 0
M  V30 7553 O 695.675 -1.58457 5.23023 0
M  V30 7554 H 692.769 -0.273589 0.780434 0
M  V30 7555 H 695.315 0.197803 1.68543 0
M  V30 7556 H 694.087 0.124515 3.91102 0
M  V30 7557 H 693.71 -1.57091 3.65251 0
M  V30 7558 N 694.707 -1.5719 -0.113559 0
M  V30 7559 C 695.67 -1.99796 -1.12314 0
M  V30 7560 C 696.67 -0.888847 -1.34001 0
M  V30 7561 O 697.86 -1.15476 -1.30426 0
M  V30 7562 C 694.992 -2.34279 -2.47641 0
M  V30 7563 H 696.185 -2.90193 -0.756825 0
M  V30 7564 H 693.738 -1.52144 -0.358029 0
M  V30 7565 H 694.473 -1.46778 -2.89183 0
M  V30 7566 H 694.258 -3.15175 -2.33253 0
M  V30 7567 H 695.748 -2.67963 -3.2029 0
M  V30 7568 N 696.185 0.383891 -1.52853 0
M  V30 7569 C 697.115 1.47559 -1.80965 0
M  V30 7570 C 698.096 1.5669 -0.661986 0
M  V30 7571 O 699.281 1.71556 -0.910072 0
M  V30 7572 C 696.411 2.85114 -1.98312 0
M  V30 7573 C 695.365 2.9082 -3.14019 0
M  V30 7574 C 694.691 4.30873 -3.16627 0
M  V30 7575 C 695.991 2.60001 -4.52986 0
M  V30 7576 H 697.685 1.24283 -2.72386 0
M  V30 7577 H 695.231 0.596445 -1.31067 0
M  V30 7578 H 697.184 3.61496 -2.16561 0
M  V30 7579 H 695.908 3.09738 -1.03585 0
M  V30 7580 H 694.567 2.16886 -2.9556 0
M  V30 7581 H 694.215 4.52545 -2.19573 0
M  V30 7582 H 693.915 4.3561 -3.94357 0
M  V30 7583 H 695.439 5.09154 -3.37038 0
M  V30 7584 H 696.853 3.261 -4.71521 0
M  V30 7585 H 695.25 2.76081 -5.32822 0
M  V30 7586 H 696.32 1.5532 -4.59351 0
M  V30 7587 N 697.663 1.43903 0.642637 0
M  V30 7588 C 699.079 1.27536 0.959519 0
M  V30 7589 C 699.279 0.202751 2.00477 0
M  V30 7590 O 698.335 -0.415256 2.49062 0
M  V30 7591 C 699.648 2.6432 1.43372 0
M  V30 7592 C 701.196 2.71937 1.54981 0
M  V30 7593 C 701.671 4.09164 2.05789 0
M  V30 7594 N 703.162 4.11282 2.13076 0
M  V30 7595 C 703.897 5.14303 2.53534 0
M  V30 7596 N 703.393 6.27693 2.93212 0
M  V30 7597 N 705.186 5.01657 2.53567 0
M  V30 7598 H 697.337 2.12344 -0.0488376 0
M  V30 7599 H 699.6 0.947124 0.0407559 0
M  V30 7600 H 699.306 3.43826 0.740048 0
M  V30 7601 H 699.18 2.90432 2.40685 0
M  V30 7602 H 701.567 1.92757 2.23448 0
M  V30 7603 H 701.648 2.49578 0.560739 0
M  V30 7604 H 701.292 4.88815 1.37921 0
M  V30 7605 H 701.222 4.28893 3.05546 0
M  V30 7606 H 703.713 3.2944 1.85143 0
M  V30 7607 H 704.026 7.02125 3.22863 0
M  V30 7608 H 702.371 6.31149 2.90991 0
M  V30 7609 H 705.562 4.12134 2.21952 0
M  V30 7610 H 705.735 5.82072 2.84774 0
M  V30 7611 N 699.141 -0.881989 1.30609 0
M  V30 7612 C 700.557 -1.16576 1.09005 0
M  V30 7613 C 700.757 -2.00961 -0.14727 0
M  V30 7614 O 699.813 -2.38117 -0.840036 0
M  V30 7615 C 701.126 -1.86954 2.35518 0
M  V30 7616 C 702.674 -1.99706 2.41011 0
M  V30 7617 C 703.149 -2.73497 3.67374 0
M  V30 7618 N 704.64 -2.8104 3.68199 0
M  V30 7619 C 705.375 -3.38718 4.62664 0
M  V30 7620 N 704.871 -3.97421 5.67475 0
M  V30 7621 N 706.664 -3.36561 4.50203 0
M  V30 7622 H 698.815 -0.319398 2.09985 0
M  V30 7623 H 701.078 -0.204058 0.925778 0
M  V30 7624 H 700.784 -1.32393 3.2583 0
M  V30 7625 H 700.658 -2.87317 2.44395 0
M  V30 7626 H 703.045 -2.53436 1.51176 0
M  V30 7627 H 703.126 -0.984218 2.36108 0
M  V30 7628 H 702.77 -2.20438 4.57569 0
M  V30 7629 H 702.7 -3.75163 3.6954 0
M  V30 7630 H 705.191 -2.39365 2.92426 0
M  V30 7631 H 705.504 -4.39507 6.35652 0
M  V30 7632 H 703.849 -3.95832 5.71264 0
M  V30 7633 H 707.04 -2.8993 3.67503 0
M  V30 7634 H 707.213 -3.81215 5.24003 0
M  V30 7635 N 700.619 -1.13374 -1.09472 0
M  V30 7636 C 701.844 -0.918711 -1.85942 0
M  V30 7637 C 702.269 0.527225 -1.8056 0
M  V30 7638 O 701.627 1.37408 -1.18274 0
M  V30 7639 C 701.675 -1.41056 -3.31867 0
M  V30 7640 O 700.779 -0.595496 -4.08078 0
M  V30 7641 H 700.12 -0.329297 -0.576593 0
M  V30 7642 H 702.65 -1.50829 -1.38245 0
M  V30 7643 H 702.66 -1.41398 -3.82715 0
M  V30 7644 H 701.335 -2.46335 -3.35099 0
M  V30 7645 H 699.912 -0.659911 -3.67014 0
M  V30 7646 N 702.098 1.27442 -0.927168 0
M  V30 7647 C 703.046 2.28844 -0.416333 0
M  V30 7648 C 704.04 1.61882 0.499057 0
M  V30 7649 O 705.246 1.75969 0.378817 0
M  V30 7650 H 701.621 0.742989 -0.116065 0
M  V30 7651 H 703.592 2.69344 -1.28438 0
M  V30 7652 C 702.341 3.4626 0.316107 0
M  V30 7653 H 701.664 3.97999 -0.379082 0
M  V30 7654 H 703.104 4.19173 0.637975 0
M  V30 7655 C 701.563 3.00211 1.5289 0
M  V30 7656 O 702.093 3.03837 2.62766 0
M  V30 7657 N 700.299 2.55713 1.38054 0
M  V30 7658 H 699.846 2.52962 0.4866 0
M  V30 7659 H 699.804 2.25264 2.19325 0
M  V30 7660 N 703.576 0.692616 1.41565 0
M  V30 7661 C 704.804 0.231279 2.05603 0
M  V30 7662 C 705.219 -1.11837 1.52111 0
M  V30 7663 O 704.576 -1.6983 0.66813 0
M  V30 7664 C 704.627 0.177125 3.61066 0
M  V30 7665 O 704.348 1.47346 4.12578 0
M  V30 7666 C 705.849 -0.30556 4.42246 0
M  V30 7667 H 703.069 0.108238 0.662213 0
M  V30 7668 H 705.613 0.944369 1.81389 0
M  V30 7669 H 703.768 -0.486769 3.8433 0
M  V30 7670 H 704.182 1.35861 5.06599 0
M  V30 7671 H 705.656 -0.29233 5.51225 0
M  V30 7672 H 706.133 -1.34393 4.18133 0
M  V30 7673 H 706.739 0.327229 4.24039 0
M  V30 7674 N 705.054 -1.51416 0.437162 0
M  V30 7675 C 706.001 -2.27743 -0.374374 0
M  V30 7676 C 706.971 -1.31327 -1.01698 0
M  V30 7677 O 708.156 -1.60229 -1.03592 0
M  V30 7678 C 705.296 -3.12241 -1.46969 0
M  V30 7679 C 704.409 -4.23651 -0.845236 0
M  V30 7680 C 703.544 -4.95458 -1.91559 0
M  V30 7681 C 702.583 -5.98789 -1.26956 0
M  V30 7682 N 701.72 -6.64005 -2.28126 0
M  V30 7683 H 706.56 -2.96654 0.282892 0
M  V30 7684 H 704.097 -1.46319 0.151352 0
M  V30 7685 H 706.055 -3.59556 -2.11602 0
M  V30 7686 H 704.685 -2.45445 -2.09659 0
M  V30 7687 H 703.737 -3.803 -0.0872059 0
M  V30 7688 H 705.049 -4.97683 -0.333582 0
M  V30 7689 H 704.203 -5.46321 -2.63854 0
M  V30 7690 H 702.942 -4.21055 -2.46097 0
M  V30 7691 H 701.947 -5.47219 -0.53207 0
M  V30 7692 H 703.172 -6.75149 -0.731509 0
M  V30 7693 H 701.118 -5.92415 -2.81745 0
M  V30 7694 H 701.035 -7.33802 -1.81852 0
M  V30 7695 H 702.303 -7.19498 -2.99905 0
M  V30 7696 N 706.532 -0.168513 -1.56696 0
M  V30 7697 C 707.78 0.476216 -1.96409 0
M  V30 7698 C 708.101 1.63968 -1.05544 0
M  V30 7699 O 707.371 1.95525 -0.121235 0
M  V30 7700 H 705.951 0.178921 -0.725256 0
M  V30 7701 H 708.613 -0.249042 -1.93302 0
M  V30 7702 H 707.709 0.838094 -3.00637 0
M  V30 7703 N 708.01 1.57248 0.105221 0
M  V30 7704 C 709.235 1.90143 0.828264 0
M  V30 7705 C 709.66 0.761811 1.71983 0
M  V30 7706 O 709.018 -0.287086 1.79013 0
M  V30 7707 C 709.066 3.21856 1.62608 0
M  V30 7708 O 708.17 3.08732 2.7342 0
M  V30 7709 H 707.511 0.623558 0.228192 0
M  V30 7710 H 710.041 2.0443 0.0834826 0
M  V30 7711 H 710.051 3.54916 2.01243 0
M  V30 7712 H 708.726 4.0439 0.971687 0
M  V30 7713 H 707.303 2.87167 2.37886 0
M  V30 7714 N 709.488 -0.375779 1.53054 0
M  V30 7715 C 710.421 -1.48187 1.7354 0
M  V30 7716 C 711.399 -1.5177 0.583495 0
M  V30 7717 O 712.583 -1.69976 0.81488 0
M  V30 7718 C 709.71 -2.86598 1.80497 0
M  V30 7719 C 708.756 -3.00784 3.02376 0
M  V30 7720 S 709.589 -2.70601 4.62099 0
M  V30 7721 C 710.745 -4.11181 4.71891 0
M  V30 7722 H 710.978 -1.30587 2.67085 0
M  V30 7723 H 708.511 -0.569485 1.43514 0
M  V30 7724 H 710.469 -3.66353 1.85192 0
M  V30 7725 H 709.13 -3.01514 0.880217 0
M  V30 7726 H 708.323 -4.02128 3.03824 0
M  V30 7727 H 707.925 -2.28939 2.95742 0
M  V30 7728 H 710.217 -5.0529 4.51319 0
M  V30 7729 H 711.16 -4.14742 5.73929 0
M  V30 7730 H 711.568 -3.97706 4.00612 0
M  V30 7731 N 710.966 -1.44241 -0.634997 0
M  V30 7732 C 712.191 -1.50516 -1.42687 0
M  V30 7733 C 712.616 -0.129864 -1.87651 0
M  V30 7734 O 711.974 0.880164 -1.58502 0
M  V30 7735 C 712.022 -2.4714 -2.62591 0
M  V30 7736 O 711.126 -1.97025 -3.62291 0
M  V30 7737 H 710.467 -0.50841 -0.427101 0
M  V30 7738 H 712.997 -1.89337 -0.775408 0
M  V30 7739 H 713.007 -2.65048 -3.10183 0
M  V30 7740 H 711.682 -3.47039 -2.29209 0
M  V30 7741 H 710.259 -1.88866 -3.21534 0
M  V30 7742 N 712.444 0.87505 -1.31075 0
M  V30 7743 C 713.721 1.60976 -1.11113 0
M  V30 7744 C 714.101 2.08409 0.336006 0
M  V30 7745 O 713.449 1.85858 1.32924 0
M  V30 7746 C 713.659 2.77166 -2.12085 0
M  V30 7747 C 715.007 3.47254 -2.44335 0
M  V30 7748 O 716.031 2.87367 -2.10472 0
M  V30 7749 O 714.89 4.55276 -3.02301 0
M  V30 7750 H 711.984 0.707982 -0.427424 0
M  V30 7751 H 714.53 0.920957 -1.42536 0
M  V30 7752 H 713.302 2.39494 -3.09449 0
M  V30 7753 H 712.925 3.53737 -1.81538 0
M  V30 7754 N 713.922 1.13953 1.08869 0
M  V30 7755 C 715.17 0.903023 1.80803 0
M  V30 7756 C 715.491 -0.572151 1.86417 0
M  V30 7757 O 714.761 -1.41589 1.35386 0
M  V30 7758 H 713.341 0.331099 0.669614 0
M  V30 7759 H 716.003 1.43719 1.31647 0
M  V30 7760 H 715.099 1.29881 2.83791 0
M  V30 7761 N 715.4 -1.26948 0.933913 0
M  V30 7762 C 716.625 -1.98724 0.593589 0
M  V30 7763 C 717.05 -1.6915 -0.822801 0
M  V30 7764 O 716.408 -0.93533 -1.5531 0
M  V30 7765 C 716.456 -3.50834 0.833542 0
M  V30 7766 O 715.56 -4.12284 -0.0978788 0
M  V30 7767 H 714.901 -0.623683 0.227849 0
M  V30 7768 H 717.431 -1.61599 1.25486 0
M  V30 7769 H 717.441 -4.01018 0.75156 0
M  V30 7770 H 716.116 -3.71691 1.86597 0
M  V30 7771 H 714.693 -3.72884 0.0345443 0
M  V30 7772 N 716.879 -0.700114 -1.41195 0
M  V30 7773 C 718.109 -0.241828 -2.0518 0
M  V30 7774 C 718.517 1.1157 -1.52803 0
M  V30 7775 O 717.86 1.70926 -0.673042 0
M  V30 7776 C 717.922 -0.12695 -3.59276 0
M  V30 7777 C 717.586 -1.41725 -4.34469 0
M  V30 7778 C 718.583 -2.35604 -4.63451 0
M  V30 7779 C 716.268 -1.67189 -4.73659 0
M  V30 7780 C 718.262 -3.53204 -5.3059 0
M  V30 7781 C 715.949 -2.85073 -5.40534 0
M  V30 7782 C 716.947 -3.77904 -5.68927 0
M  V30 7783 O 716.635 -4.93723 -6.34424 0
M  V30 7784 H 716.367 -0.109247 -0.667114 0
M  V30 7785 H 718.921 -0.954538 -1.81873 0
M  V30 7786 H 717.151 0.641571 -3.81341 0
M  V30 7787 H 718.84 0.294748 -4.04828 0
M  V30 7788 H 719.606 -2.1719 -4.33651 0
M  V30 7789 H 715.485 -0.957935 -4.50937 0
M  V30 7790 H 719.029 -4.25679 -5.52669 0
M  V30 7791 H 714.926 -3.03402 -5.69752 0
M  V30 7792 H 715.694 -4.93597 -6.5292 0
M  V30 7793 N 718.357 1.51182 -0.445186 0
M  V30 7794 C 719.582 2.07056 0.119445 0
M  V30 7795 C 720.007 1.30966 1.35016 0
M  V30 7796 O 719.365 0.349827 1.77893 0
M  V30 7797 C 719.413 3.58234 0.412428 0
M  V30 7798 O 718.517 3.84249 1.49754 0
M  V30 7799 H 717.858 0.663998 -0.00157797 0
M  V30 7800 H 720.388 1.94699 -0.628779 0
M  V30 7801 H 720.398 4.02617 0.660583 0
M  V30 7802 H 719.073 4.13038 -0.487049 0
M  V30 7803 H 717.65 3.51724 1.23873 0
M  V30 7804 N 719.835 0.176821 1.56605 0
M  V30 7805 C 721.246 -0.338963 1.83597 0
M  V30 7806 C 721.597 -1.62677 1.09684 0
M  V30 7807 O 720.722 -2.13524 0.351661 0
M  V30 7808 C 721.317 -0.62177 3.33046 0
M  V30 7809 C 719.876 -1.08198 3.60514 0
M  V30 7810 C 719.023 -0.120774 2.77037 0
M  V30 7811 H 721.974 0.400978 1.53551 0
M  V30 7812 H 721.995 -1.47321 3.50823 0
M  V30 7813 H 721.507 0.315692 3.86814 0
M  V30 7814 H 719.608 -2.03435 3.12162 0
M  V30 7815 H 719.721 -0.987329 4.68816 0
M  V30 7816 H 718.085 -0.619192 2.47059 0
M  V30 7817 H 718.868 0.810806 3.33588 0
M  V30 7818 N 721.313 -1.57302 -0.09688 0
M  V30 7819 C 722.59 -1.7701 -0.832272 0
M  V30 7820 C 722.97 -0.758025 -1.97021 0
M  V30 7821 O 722.318 0.213824 -2.27497 0
M  V30 7822 C 722.528 -3.22725 -1.32851 0
M  V30 7823 C 723.876 -3.85856 -1.772 0
M  V30 7824 O 724.9 -3.26464 -1.42478 0
M  V30 7825 O 723.759 -4.90295 -2.41398 0
M  V30 7826 H 720.853 -0.725558 -0.396856 0
M  V30 7827 H 723.399 -1.69516 -0.0789005 0
M  V30 7828 H 722.171 -3.87921 -0.51312 0
M  V30 7829 H 721.794 -3.34845 -2.14394 0
M  V30 7830 N 722.791 0.367657 -1.53252 0
M  V30 7831 C 724.021 1.12955 -1.72988 0
M  V30 7832 C 724.429 1.8358 -0.457708 0
M  V30 7833 O 723.772 1.74336 0.579006 0
M  V30 7834 C 723.834 2.20545 -2.83902 0
M  V30 7835 C 723.498 1.69704 -4.24323 0
M  V30 7836 C 724.495 1.16223 -5.06743 0
M  V30 7837 C 722.18 1.7528 -4.70725 0
M  V30 7838 C 724.174 0.689935 -6.33655 0
M  V30 7839 C 721.861 1.27662 -5.97617 0
M  V30 7840 C 722.859 0.746083 -6.78913 0
M  V30 7841 O 722.547 0.276925 -8.03423 0
M  V30 7842 H 722.279 0.343753 -0.582074 0
M  V30 7843 H 724.833 0.433106 -2.00782 0
M  V30 7844 H 723.063 2.93676 -2.51577 0
M  V30 7845 H 724.752 2.82111 -2.91836 0
M  V30 7846 H 725.518 1.11256 -4.72067 0
M  V30 7847 H 721.397 2.15515 -4.07522 0
M  V30 7848 H 724.941 0.275164 -6.97057 0
M  V30 7849 H 720.838 1.32322 -6.31792 0
M  V30 7850 H 721.606 0.396445 -8.17539 0
M  V30 7851 N 724.269 1.44576 0.627338 0
M  V30 7852 C 725.494 1.51271 1.41887 0
M  V30 7853 C 725.919 0.139814 1.8758 0
M  V30 7854 O 725.277 -0.871746 1.58966 0
M  V30 7855 C 725.325 2.48529 2.61277 0
M  V30 7856 O 724.429 1.98944 3.61241 0
M  V30 7857 H 723.77 0.510668 0.424399 0
M  V30 7858 H 726.3 1.89746 0.765356 0
M  V30 7859 H 726.31 2.66689 3.08773 0
M  V30 7860 H 724.985 3.48249 2.27366 0
M  V30 7861 H 723.562 1.90568 3.20528 0
M  V30 7862 N 725.747 -0.868086 1.31537 0
M  V30 7863 C 726.677 -1.99131 1.21939 0
M  V30 7864 C 727.658 -1.69768 0.106166 0
M  V30 7865 O 728.843 -1.92006 0.291081 0
M  V30 7866 C 725.973 -3.34676 0.927879 0
M  V30 7867 C 724.927 -3.7835 2.00088 0
M  V30 7868 C 724.253 -5.11375 1.56203 0
M  V30 7869 C 725.553 -3.95256 3.41424 0
M  V30 7870 H 727.247 -2.07419 2.15911 0
M  V30 7871 H 724.793 -0.996569 1.03945 0
M  V30 7872 H 726.746 -4.12793 0.847327 0
M  V30 7873 H 725.47 -3.26565 -0.0475042 0
M  V30 7874 H 724.129 -3.02474 2.07135 0
M  V30 7875 H 723.777 -4.99709 0.57445 0
M  V30 7876 H 723.477 -5.41568 2.27985 0
M  V30 7877 H 725.001 -5.92001 1.49558 0
M  V30 7878 H 726.415 -4.63764 3.3704 0
M  V30 7879 H 724.812 -4.36849 4.1144 0
M  V30 7880 H 725.882 -2.98579 3.82072 0
M  V30 7881 N 727.225 -1.14528 -1.08264 0
M  V30 7882 C 728.188 -0.83632 -2.13397 0
M  V30 7883 C 729.188 0.159715 -1.60005 0
M  V30 7884 O 730.378 -0.0688098 -1.74064 0
M  V30 7885 C 727.51 -0.246973 -3.40004 0
M  V30 7886 H 728.703 -1.76808 -2.42237 0
M  V30 7887 H 726.256 -0.951509 -1.24 0
M  V30 7888 H 726.991 0.693436 -3.168 0
M  V30 7889 H 726.776 -0.964412 -3.80055 0
M  V30 7890 H 728.266 -0.0480679 -4.17572 0
M  V30 7891 N 728.703 1.26451 -0.940633 0
M  V30 7892 C 729.666 2.24651 -0.454378 0
M  V30 7893 C 730.666 1.54826 0.434222 0
M  V30 7894 O 731.856 1.72628 0.233477 0
M  V30 7895 C 728.988 3.39148 0.345192 0
M  V30 7896 H 730.181 2.69182 -1.32217 0
M  V30 7897 H 727.734 1.38596 -0.722547 0
M  V30 7898 H 728.469 3.00018 1.23125 0
M  V30 7899 H 728.254 3.9101 -0.292107 0
M  V30 7900 H 729.744 4.12103 0.675341 0
M  V30 7901 N 730.181 0.707592 1.40822 0
M  V30 7902 C 731.427 0.244031 2.01326 0
M  V30 7903 C 731.76 -1.15722 1.55955 0
M  V30 7904 O 731.035 -1.78347 0.776044 0
M  V30 7905 C 731.318 0.315128 3.58718 0
M  V30 7906 C 731.171 1.75419 4.14184 0
M  V30 7907 C 732.49 -0.318251 4.38948 0
M  V30 7908 H 729.609 0.0901471 0.731466 0
M  V30 7909 H 732.251 0.898584 1.67408 0
M  V30 7910 H 730.401 -0.242176 3.87744 0
M  V30 7911 H 732.073 2.36626 3.95987 0
M  V30 7912 H 730.316 2.28449 3.68773 0
M  V30 7913 H 730.987 1.75538 5.23345 0
M  V30 7914 H 733.463 0.156514 4.15806 0
M  V30 7915 H 732.339 -0.238019 5.48384 0
M  V30 7916 H 732.6 -1.40067 4.19325 0
M  V30 7917 N 731.66 -1.50943 0.453197 0
M  V30 7918 C 732.937 -1.94872 -0.168633 0
M  V30 7919 C 733.317 -1.39272 -1.5864 0
M  V30 7920 O 732.665 -0.586272 -2.20851 0
M  V30 7921 C 732.875 -3.48757 -0.130217 0
M  V30 7922 C 734.223 -4.23331 -0.327975 0
M  V30 7923 O 735.247 -3.55594 -0.207619 0
M  V30 7924 O 734.106 -5.43529 -0.569077 0
M  V30 7925 H 731.2 -0.818042 -0.121394 0
M  V30 7926 H 733.746 -1.61782 0.512316 0
M  V30 7927 H 732.518 -3.81725 0.860346 0
M  V30 7928 H 732.141 -3.88333 -0.853397 0
M  V30 7929 N 733.138 -0.185124 -1.56509 0
M  V30 7930 C 734.068 0.735098 -2.21627 0
M  V30 7931 C 735.049 1.2288 -1.1762 0
M  V30 7932 O 736.234 1.27945 -1.46095 0
M  V30 7933 C 733.364 1.95889 -2.86783 0
M  V30 7934 C 732.318 1.6005 -3.96948 0
M  V30 7935 C 731.644 2.90009 -4.4922 0
M  V30 7936 C 732.944 0.818008 -5.15855 0
M  V30 7937 H 734.638 0.192274 -2.98782 0
M  V30 7938 H 732.184 0.0910393 -1.43712 0
M  V30 7939 H 734.137 2.60779 -3.31017 0
M  V30 7940 H 732.861 2.52608 -2.07018 0
M  V30 7941 H 731.52 0.975237 -3.5339 0
M  V30 7942 H 731.168 3.44797 -3.6623 0
M  V30 7943 H 730.868 2.66778 -5.23549 0
M  V30 7944 H 732.392 3.55904 -4.9615 0
M  V30 7945 H 733.806 1.36979 -5.56695 0
M  V30 7946 H 732.203 0.684207 -5.96187 0
M  V30 7947 H 733.273 -0.182939 -4.84555 0
M  V30 7948 N 734.616 1.57351 0.0885366 0
M  V30 7949 C 735.563 2.02523 1.10693 0
M  V30 7950 C 736.533 0.902736 1.39427 0
M  V30 7951 O 737.718 1.16921 1.50779 0
M  V30 7952 C 734.858 2.46013 2.42016 0
M  V30 7953 C 733.971 3.7181 2.19957 0
M  V30 7954 C 733.106 4.04152 3.44724 0
M  V30 7955 C 732.145 5.2304 3.17956 0
M  V30 7956 N 731.282 5.51102 4.35007 0
M  V30 7957 H 736.122 2.89302 0.714742 0
M  V30 7958 H 733.659 1.43084 0.341378 0
M  V30 7959 H 735.617 2.69274 3.18665 0
M  V30 7960 H 734.247 1.62235 2.79069 0
M  V30 7961 H 733.299 3.55987 1.34079 0
M  V30 7962 H 734.611 4.58604 1.96173 0
M  V30 7963 H 733.765 4.28225 4.29777 0
M  V30 7964 H 732.504 3.15893 3.71568 0
M  V30 7965 H 731.509 4.98781 2.31296 0
M  V30 7966 H 732.734 6.12902 2.92451 0
M  V30 7967 H 730.68 4.65802 4.61914 0
M  V30 7968 H 730.597 6.3228 4.14437 0
M  V30 7969 H 731.865 5.79714 5.21106 0
M  V30 7970 N 736.094 -0.359525 1.53444 0
M  V30 7971 C 737.319 -1.12644 1.74144 0
M  V30 7972 C 737.744 -1.82082 0.472007 0
M  V30 7973 O 737.102 -1.71962 -0.57436 0
M  V30 7974 C 737.15 -2.12781 2.9113 0
M  V30 7975 O 736.254 -3.19984 2.60162 0
M  V30 7976 H 735.595 -0.326553 0.578152 0
M  V30 7977 H 738.125 -0.414798 2.00351 0
M  V30 7978 H 738.135 -2.56278 3.17467 0
M  V30 7979 H 736.81 -1.61634 3.83207 0
M  V30 7980 H 735.387 -2.81417 2.44661 0
M  V30 7981 N 737.572 -1.44907 -0.619662 0
M  V30 7982 C 738.819 -1.48292 -1.37898 0
M  V30 7983 C 739.147 -0.119933 -1.9413 0
M  V30 7984 O 738.402 0.879834 -1.74807 0
M  V30 7985 C 738.701 -2.50002 -2.55409 0
M  V30 7986 C 738.367 -3.95031 -2.17397 0
M  V30 7987 C 737.029 -4.34524 -2.06743 0
M  V30 7988 C 739.381 -4.86287 -1.87548 0
M  V30 7989 C 736.709 -5.63183 -1.64445 0
M  V30 7990 C 739.061 -6.15346 -1.4674 0
M  V30 7991 C 737.725 -6.53781 -1.34636 0
M  V30 7992 H 736.995 -0.542638 -0.504603 0
M  V30 7993 H 739.642 -1.78186 -0.701581 0
M  V30 7994 H 737.947 -2.13634 -3.28433 0
M  V30 7995 H 739.644 -2.49864 -3.13639 0
M  V30 7996 H 736.234 -3.63793 -2.26611 0
M  V30 7997 H 740.418 -4.56522 -1.94682 0
M  V30 7998 H 735.674 -5.91769 -1.53687 0
M  V30 7999 H 739.848 -6.85508 -1.22685 0
M  V30 8000 H 737.475 -7.53375 -1.01634 0
M  V30 8001 N 739.05 0.861098 -1.31996 0
M  V30 8002 C 739.997 1.96912 -1.20392 0
M  V30 8003 C 740.967 1.65869 -0.0875899 0
M  V30 8004 O 742.152 1.88992 -0.262011 0
M  V30 8005 C 739.292 3.32435 -0.926335 0
M  V30 8006 C 738.405 3.76018 -2.12684 0
M  V30 8007 C 737.54 5.00301 -1.78529 0
M  V30 8008 C 736.579 5.36357 -2.94937 0
M  V30 8009 N 735.716 6.51818 -2.60917 0
M  V30 8010 H 740.556 2.06169 -2.1517 0
M  V30 8011 H 738.093 1.00917 -1.07024 0
M  V30 8012 H 740.051 4.10478 -0.745917 0
M  V30 8013 H 738.681 3.22796 -0.0153578 0
M  V30 8014 H 737.733 2.93683 -2.41774 0
M  V30 8015 H 739.045 3.98664 -2.99781 0
M  V30 8016 H 738.199 5.86034 -1.57001 0
M  V30 8017 H 736.938 4.79578 -0.886356 0
M  V30 8018 H 735.943 4.49139 -3.17103 0
M  V30 8019 H 737.168 5.59041 -3.85552 0
M  V30 8020 H 735.114 6.32624 -1.73558 0
M  V30 8021 H 735.031 6.7445 -3.41544 0
M  V30 8022 H 736.299 7.4072 -2.42804 0
M  V30 8023 N 740.528 1.15101 1.07655 0
M  V30 8024 C 741.476 0.840714 2.16875 0
M  V30 8025 C 742.47 -0.184594 1.68391 0
M  V30 8026 O 743.676 -0.0399315 1.79956 0
M  V30 8027 H 740.051 0.254192 0.707736 0
M  V30 8028 H 742.022 1.76959 2.40266 0
M  V30 8029 C 740.771 0.343018 3.46004 0
M  V30 8030 H 740.094 1.12335 3.83694 0
M  V30 8031 H 741.534 0.16453 4.23681 0
M  V30 8032 C 739.993 -0.934881 3.23669 0
M  V30 8033 O 740.523 -2.00706 3.47965 0
M  V30 8034 N 738.729 -0.873167 2.77172 0
M  V30 8035 H 738.276 -0.000479072 2.576 0
M  V30 8036 H 738.234 -1.72873 2.62607 0
M  V30 8037 N 742.006 -1.2595 0.947325 0
M  V30 8038 C 742.954 -2.28152 0.452687 0
M  V30 8039 C 743.948 -1.62655 -0.473239 0
M  V30 8040 O 745.154 -1.76549 -0.350774 0
M  V30 8041 H 741.529 -0.741049 0.12787 0
M  V30 8042 H 743.5 -2.67267 1.32707 0
M  V30 8043 C 742.249 -3.46719 -0.26098 0
M  V30 8044 H 741.572 -3.97345 0.442352 0
M  V30 8045 H 743.012 -4.20135 -0.571208 0
M  V30 8046 C 741.471 -3.02605 -1.48094 0
M  V30 8047 O 742.001 -3.07979 -2.57899 0
M  V30 8048 N 740.207 -2.57877 -1.33969 0
M  V30 8049 H 739.754 -2.53704 -0.446295 0
M  V30 8050 H 739.712 -2.28725 -2.15713 0
M  V30 8051 N 743.484 -0.715051 -1.40445 0
M  V30 8052 C 744.414 -0.0768699 -2.33373 0
M  V30 8053 C 745.395 0.746109 -1.52863 0
M  V30 8054 O 746.58 0.695142 -1.81332 0
M  V30 8055 C 743.71 0.846014 -3.36838 0
M  V30 8056 C 742.664 0.128694 -4.27806 0
M  V30 8057 C 741.99 1.16726 -5.21804 0
M  V30 8058 C 743.29 -1.01679 -5.12307 0
M  V30 8059 H 744.984 -0.853061 -2.8699 0
M  V30 8060 H 742.53 -0.41167 -1.3799 0
M  V30 8061 H 744.483 1.30185 -4.00786 0
M  V30 8062 H 743.207 1.6541 -2.81615 0
M  V30 8063 H 741.866 -0.307314 -3.6531 0
M  V30 8064 H 741.514 1.96838 -4.62887 0
M  V30 8065 H 741.214 0.692188 -5.83509 0
M  V30 8066 H 742.738 1.62321 -5.88629 0
M  V30 8067 H 744.152 -0.640337 -5.69713 0
M  V30 8068 H 742.549 -1.4202 -5.83053 0
M  V30 8069 H 743.619 -1.84769 -4.48317 0
M  V30 8070 N 744.962 1.50701 -0.461195 0
M  V30 8071 C 746.208 2.02566 0.0973411 0
M  V30 8072 C 746.541 1.3432 1.40257 0
M  V30 8073 O 745.816 0.465692 1.88843 0
M  V30 8074 C 746.099 3.58919 0.291423 0
M  V30 8075 C 745.952 4.37751 -1.03413 0
M  V30 8076 C 747.271 4.27379 1.05048 0
M  V30 8077 H 744.39 0.73622 0.0339026 0
M  V30 8078 H 747.032 1.80115 -0.604855 0
M  V30 8079 H 745.182 3.78179 0.889539 0
M  V30 8080 H 746.854 4.30085 -1.66806 0
M  V30 8081 H 745.097 4.01885 -1.63313 0
M  V30 8082 H 745.768 5.45384 -0.852085 0
M  V30 8083 H 748.244 4.12534 0.543603 0
M  V30 8084 H 747.12 5.36609 1.15506 0
M  V30 8085 H 747.381 3.89868 2.0846 0
M  V30 8086 N 746.441 0.193421 1.56409 0
M  V30 8087 C 747.718 -0.493318 1.89277 0
M  V30 8088 C 748.098 -1.79765 1.10669 0
M  V30 8089 O 747.446 -2.27558 0.207274 0
M  V30 8090 C 747.656 -0.713732 3.41624 0
M  V30 8091 C 749.004 -1.03385 4.11821 0
M  V30 8092 O 750.028 -0.801511 3.47065 0
M  V30 8093 O 748.887 -1.47327 5.26267 0
M  V30 8094 H 745.981 -0.256973 0.786062 0
M  V30 8095 H 748.527 0.23351 1.68086 0
M  V30 8096 H 747.299 0.207446 3.9075 0
M  V30 8097 H 746.922 -1.49308 3.68501 0
M  V30 8098 N 747.919 -1.57396 -0.0801906 0
M  V30 8099 C 749.168 -1.8602 -0.779702 0
M  V30 8100 C 749.481 -0.784864 -1.79163 0
M  V30 8101 O 750.687 -0.958691 -2.54011 0
M  V30 8102 C 749.143 -3.29942 -1.43758 0
M  V30 8103 C 748.751 -4.45584 -0.464654 0
M  V30 8104 C 750.495 -3.67775 -2.11995 0
M  V30 8105 C 748.402 -5.80544 -1.12797 0
M  V30 8106 H 747.332 -0.69392 -0.294943 0
M  V30 8107 H 749.983 -1.83471 -0.0328527 0
M  V30 8108 H 748.365 -3.27078 -2.2324 0
M  V30 8109 H 749.539 -4.59824 0.299749 0
M  V30 8110 H 747.854 -4.16247 0.112813 0
M  V30 8111 H 750.451 -4.65896 -2.62383 0
M  V30 8112 H 750.794 -2.9715 -2.91561 0
M  V30 8113 H 751.327 -3.72593 -1.39354 0
M  V30 8114 H 748.066 -6.54439 -0.372807 0
M  V30 8115 H 747.586 -5.70119 -1.86344 0
M  V30 8116 H 749.265 -6.25602 -1.6502 0
M  V30 8117 N 749.397 0.351382 -1.53633 0
M  V30 8118 C 750.646 1.08988 -1.69719 0
M  V30 8119 C 750.959 1.90043 -0.462948 0
M  V30 8120 O 752.165 2.66769 -0.504613 0
M  V30 8121 C 750.621 1.98691 -3.00083 0
M  V30 8122 C 750.229 1.22881 -4.30818 0
M  V30 8123 C 751.973 2.72446 -3.25536 0
M  V30 8124 C 749.88 2.11568 -5.52262 0
M  V30 8125 H 748.81 0.410588 -0.632403 0
M  V30 8126 H 751.461 0.349886 -1.80133 0
M  V30 8127 H 749.843 2.76478 -2.83506 0
M  V30 8128 H 751.017 0.500582 -4.58073 0
M  V30 8129 H 749.332 0.60928 -4.11918 0
M  V30 8130 H 751.929 3.39055 -4.13456 0
M  V30 8131 H 752.272 3.38588 -2.42206 0
M  V30 8132 H 752.805 2.01735 -3.42852 0
M  V30 8133 H 749.544 1.4998 -6.38111 0
M  V30 8134 H 749.064 2.82201 -5.29266 0
M  V30 8135 H 750.743 2.70802 -5.87601 0
M  V30 8136 N 750.875 1.45233 0.611969 0
M  V30 8137 C 751.807 1.49575 1.73666 0
M  V30 8138 C 752.82 0.386987 1.58134 0
M  V30 8139 O 754.009 0.653804 1.66095 0
M  V30 8140 C 751.109 1.33223 3.11617 0
M  V30 8141 C 750.282 2.57694 3.5343 0
M  V30 8142 C 749.341 2.35962 4.70328 0
M  V30 8143 O 748.367 3.09553 4.77667 0
M  V30 8144 N 749.569 1.40243 5.63305 0
M  V30 8145 H 752.334 2.46539 1.70407 0
M  V30 8146 H 749.895 1.40917 0.79712 0
M  V30 8147 H 751.887 1.16502 3.87569 0
M  V30 8148 H 750.457 0.44551 3.09409 0
M  V30 8149 H 749.677 2.8956 2.67486 0
M  V30 8150 H 750.965 3.40441 3.78124 0
M  V30 8151 H 750.363 0.795023 5.60086 0
M  V30 8152 H 748.92 1.29496 6.38807 0
M  V30 8153 N 752.353 -0.854086 1.3245 0
M  V30 8154 C 753.285 -1.96932 1.17262 0
M  V30 8155 C 754.298 -1.62445 0.107469 0
M  V30 8156 O 755.487 -1.74904 0.356481 0
M  V30 8157 C 752.587 -3.29971 0.772817 0
M  V30 8158 C 751.76 -3.92695 1.92638 0
M  V30 8159 C 750.819 -5.04068 1.51003 0
M  V30 8160 O 749.845 -5.24032 2.22213 0
M  V30 8161 N 751.047 -5.79076 0.406371 0
M  V30 8162 H 753.812 -2.10503 2.13327 0
M  V30 8163 H 751.373 -1.02897 1.24995 0
M  V30 8164 H 753.365 -4.01883 0.476684 0
M  V30 8165 H 751.935 -3.1245 -0.0967 0
M  V30 8166 H 751.155 -3.13563 2.38897 0
M  V30 8167 H 752.443 -4.31337 2.69863 0
M  V30 8168 H 751.841 -5.65393 -0.186302 0
M  V30 8169 H 750.398 -6.51579 0.169846 0
M  V30 8170 N 753.831 -1.1567 -1.07043 0
M  V30 8171 C 754.779 -0.852204 -2.16426 0
M  V30 8172 C 755.773 0.175661 -1.68487 0
M  V30 8173 O 756.979 0.0303874 -1.79974 0
M  V30 8174 H 753.354 -0.257942 -0.706378 0
M  V30 8175 H 755.325 -1.78231 -2.39324 0
M  V30 8176 C 754.074 -0.361362 -3.45817 0
M  V30 8177 H 753.397 -1.14369 -3.83092 0
M  V30 8178 H 754.837 -0.186997 -4.23587 0
M  V30 8179 C 753.296 0.917703 -3.2416 0
M  V30 8180 O 753.826 1.98858 -3.49025 0
M  V30 8181 N 752.032 0.858456 -2.77631 0
M  V30 8182 H 751.579 -0.0131821 -2.57597 0
M  V30 8183 H 751.537 1.71478 -2.6352 0
M  V30 8184 N 755.309 1.25446 -0.953992 0
M  V30 8185 C 756.256 2.25912 -0.472485 0
M  V30 8186 C 757.226 1.59173 0.47469 0
M  V30 8187 O 758.411 1.86812 0.388082 0
M  V30 8188 C 755.551 3.44235 0.244218 0
M  V30 8189 C 754.664 4.25613 -0.740121 0
M  V30 8190 C 753.799 5.312 -0.000922267 0
M  V30 8191 C 752.838 6.04265 -0.976236 0
M  V30 8192 N 751.975 7.01589 -0.267952 0
M  V30 8193 H 756.815 2.66469 -1.3341 0
M  V30 8194 H 754.352 1.31005 -0.669045 0
M  V30 8195 H 756.31 4.11682 0.676314 0
M  V30 8196 H 754.94 3.04554 1.06988 0
M  V30 8197 H 753.992 3.57834 -1.2907 0
M  V30 8198 H 755.304 4.762 -1.48441 0
M  V30 8199 H 754.458 6.04719 0.48984 0
M  V30 8200 H 753.197 4.81484 0.776159 0
M  V30 8201 H 752.202 5.29561 -1.478 0
M  V30 8202 H 753.427 6.5607 -1.75354 0
M  V30 8203 H 751.373 6.54164 0.490403 0
M  V30 8204 H 751.29 7.4999 -0.951344 0
M  V30 8205 H 752.558 7.7924 0.201294 0
M  V30 8206 N 756.787 0.722489 1.40064 0
M  V30 8207 C 757.697 0.0755984 2.34478 0
M  V30 8208 C 758.713 -0.736046 1.57665 0
M  V30 8209 O 759.889 -0.667407 1.9002 0
M  V30 8210 C 756.954 -0.830075 3.36616 0
M  V30 8211 C 756.015 -0.00759884 4.29299 0
M  V30 8212 C 755.248 -0.870139 5.26559 0
M  V30 8213 O 755.471 -2.10921 5.2997 0
M  V30 8214 O 754.405 -0.305454 6.01124 0
M  V30 8215 H 758.231 0.854545 2.9143 0
M  V30 8216 H 755.816 0.483032 1.41376 0
M  V30 8217 H 757.698 -1.34864 3.99236 0
M  V30 8218 H 756.373 -1.58805 2.82069 0
M  V30 8219 H 755.28 0.556199 3.69942 0
M  V30 8220 H 756.613 0.712312 4.87018 0
M  V30 8221 N 758.265 -1.50454 0.469181 0
M  V30 8222 C 759.681 -1.59124 0.123226 0
M  V30 8223 C 759.881 -1.47749 -1.37013 0
M  V30 8224 O 758.937 -1.335 -2.14322 0
M  V30 8225 C 760.25 -2.93101 0.67172 0
M  V30 8226 C 761.798 -3.06491 0.634978 0
M  V30 8227 C 762.273 -4.43041 1.16098 0
M  V30 8228 N 763.764 -4.49448 1.12031 0
M  V30 8229 C 764.499 -5.53491 1.49784 0
M  V30 8230 N 763.995 -6.64798 1.94976 0
M  V30 8231 N 765.788 -5.44025 1.41399 0
M  V30 8232 H 757.939 -1.56091 1.44046 0
M  V30 8233 H 760.202 -0.737564 0.59557 0
M  V30 8234 H 759.908 -3.06895 1.7178 0
M  V30 8235 H 759.782 -3.77027 0.114222 0
M  V30 8236 H 762.169 -2.92346 -0.402187 0
M  V30 8237 H 762.25 -2.24328 1.22926 0
M  V30 8238 H 761.894 -4.57935 2.19677 0
M  V30 8239 H 761.824 -5.23794 0.542939 0
M  V30 8240 H 764.315 -3.69575 0.788828 0
M  V30 8241 H 764.628 -7.40246 2.21936 0
M  V30 8242 H 762.973 -6.65923 1.98927 0
M  V30 8243 H 766.164 -4.55955 1.05935 0
M  V30 8244 H 766.337 -6.2499 1.71147 0
M  V30 8245 N 759.743 -0.201713 -1.56304 0
M  V30 8246 C 760.989 0.429292 -1.98818 0
M  V30 8247 C 761.344 1.58779 -1.08659 0
M  V30 8248 O 760.637 1.91142 -0.132365 0
M  V30 8249 C 760.831 0.931432 -3.45049 0
M  V30 8250 C 760.66 -0.176878 -4.49352 0
M  V30 8251 C 759.43 -0.636712 -5.01272 0
M  V30 8252 C 761.628 -0.988177 -5.04717 0
M  V30 8253 N 759.61 -1.72215 -5.8925 0
M  V30 8254 C 760.981 -1.92288 -5.89428 0
M  V30 8255 C 763.036 -1.02985 -4.87133 0
M  V30 8256 C 761.739 -2.89582 -6.58434 0
M  V30 8257 C 763.765 -1.99087 -5.56883 0
M  V30 8258 C 763.127 -2.913 -6.41345 0
M  V30 8259 H 759.226 0.124322 -0.772054 0
M  V30 8260 H 761.81 -0.308929 -1.92234 0
M  V30 8261 H 759.981 1.63907 -3.52121 0
M  V30 8262 H 761.713 1.5336 -3.74517 0
M  V30 8263 H 758.468 -0.228861 -4.73047 0
M  V30 8264 H 758.892 -2.26627 -6.37941 0
M  V30 8265 H 763.534 -0.330894 -4.21503 0
M  V30 8266 H 761.252 -3.6045 -7.23258 0
M  V30 8267 H 764.838 -2.0296 -5.45251 0
M  V30 8268 H 763.718 -3.6445 -6.94367 0
M  V30 8269 N 761.222 1.57436 0.0718424 0
M  V30 8270 C 762.169 2.03686 1.08539 0
M  V30 8271 C 763.139 0.917474 1.38462 0
M  V30 8272 O 764.324 1.18513 1.4953 0
M  V30 8273 C 761.464 2.48566 2.39393 0
M  V30 8274 C 760.577 3.74122 2.16001 0
M  V30 8275 C 759.712 4.07786 3.40418 0
M  V30 8276 C 758.751 5.26383 3.1239 0
M  V30 8277 N 757.888 5.55685 4.29138 0
M  V30 8278 H 762.728 2.90043 0.684018 0
M  V30 8279 H 760.265 1.43438 0.326183 0
M  V30 8280 H 762.223 2.72639 3.15791 0
M  V30 8281 H 760.853 1.65186 2.77333 0
M  V30 8282 H 759.905 3.57389 1.30296 0
M  V30 8283 H 761.217 4.60659 1.91298 0
M  V30 8284 H 760.371 4.32759 4.25211 0
M  V30 8285 H 759.11 3.19817 3.68197 0
M  V30 8286 H 758.115 5.01206 2.25993 0
M  V30 8287 H 759.34 6.1597 2.85934 0
M  V30 8288 H 757.286 4.70675 4.56948 0
M  V30 8289 H 757.203 6.3664 4.07708 0
M  V30 8290 H 758.471 5.85209 5.14928 0
M  V30 8291 N 762.7 -0.34323 1.53817 0
M  V30 8292 C 763.61 -1.44493 1.84821 0
M  V30 8293 C 764.626 -1.57556 0.738381 0
M  V30 8294 O 765.802 -1.73026 1.03072 0
M  V30 8295 C 762.867 -2.79478 2.05166 0
M  V30 8296 C 761.928 -2.75756 3.29025 0
M  V30 8297 C 761.161 -4.04302 3.4839 0
M  V30 8298 O 761.384 -5.01595 2.71586 0
M  V30 8299 O 760.318 -4.08754 4.41819 0
M  V30 8300 H 764.144 -1.21209 2.78464 0
M  V30 8301 H 761.729 -0.535437 1.39476 0
M  V30 8302 H 763.611 -3.59419 2.19991 0
M  V30 8303 H 762.286 -3.02692 1.14713 0
M  V30 8304 H 761.193 -1.94434 3.19603 0
M  V30 8305 H 762.526 -2.57495 4.19472 0
M  V30 8306 N 764.178 -1.45556 -0.604258 0
M  V30 8307 C 765.108 -1.57327 -1.72541 0
M  V30 8308 C 766.089 -0.424637 -1.64714 0
M  V30 8309 O 767.274 -0.648196 -1.83063 0
M  V30 8310 C 764.404 -1.54279 -3.11152 0
M  V30 8311 C 763.358 -2.67893 -3.33792 0
M  V30 8312 C 762.684 -2.499 -4.72709 0
M  V30 8313 C 763.984 -4.0988 -3.23722 0
M  V30 8314 H 765.678 -2.51175 -1.62947 0
M  V30 8315 H 763.224 -1.20884 -0.782504 0
M  V30 8316 H 765.177 -1.6111 -3.89386 0
M  V30 8317 H 763.901 -0.569627 -3.21594 0
M  V30 8318 H 762.56 -2.60495 -2.57949 0
M  V30 8319 H 762.208 -1.50715 -4.79889 0
M  V30 8320 H 761.908 -3.26091 -4.88813 0
M  V30 8321 H 763.432 -2.5859 -5.5314 0
M  V30 8322 H 764.846 -4.18503 -3.91826 0
M  V30 8323 H 763.243 -4.86487 -3.51355 0
M  V30 8324 H 764.313 -4.31553 -2.21111 0
M  V30 8325 N 765.656 0.84705 -1.32902 0
M  V30 8326 C 766.619 1.9378 -1.224 0
M  V30 8327 C 767.619 1.60144 -0.145108 0
M  V30 8328 O 768.809 1.69638 -0.396058 0
M  V30 8329 C 765.941 3.29234 -0.884174 0
M  V30 8330 H 767.134 2.04518 -2.19345 0
M  V30 8331 H 764.687 1.03816 -1.16842 0
M  V30 8332 H 765.422 3.24193 0.0831277 0
M  V30 8333 H 765.207 3.55026 -1.6643 0
M  V30 8334 H 766.697 4.09162 -0.835226 0
M  V30 8335 N 767.134 1.16236 1.06428 0
M  V30 8336 C 768.097 0.870163 2.1204 0
M  V30 8337 C 769.097 -0.134239 1.60239 0
M  V30 8338 O 770.287 0.0964932 1.73933 0
M  V30 8339 C 767.419 0.301033 3.39568 0
M  V30 8340 H 768.612 1.8064 2.39394 0
M  V30 8341 H 766.165 0.971116 1.2247 0
M  V30 8342 H 766.9 -0.642948 3.17863 0
M  V30 8343 H 766.685 1.02475 3.78472 0
M  V30 8344 H 768.175 0.114494 4.17443 0
M  V30 8345 N 768.612 -1.24939 0.960631 0
M  V30 8346 C 769.544 -2.24879 0.442937 0
M  V30 8347 C 770.557 -1.56615 -0.444464 0
M  V30 8348 O 771.746 -1.76715 -0.251776 0
M  V30 8349 C 768.846 -3.36757 -0.380537 0
M  V30 8350 C 768.019 -4.34587 0.495283 0
M  V30 8351 C 767.078 -5.25502 -0.270995 0
M  V30 8352 O 766.104 -5.68227 0.332661 0
M  V30 8353 N 767.306 -5.59077 -1.56249 0
M  V30 8354 H 770.071 -2.69932 1.30218 0
M  V30 8355 H 767.632 -1.38907 0.83166 0
M  V30 8356 H 769.624 -3.94542 -0.90103 0
M  V30 8357 H 768.194 -2.91045 -1.14067 0
M  V30 8358 H 767.414 -3.75593 1.19682 0
M  V30 8359 H 768.702 -4.96925 1.09285 0
M  V30 8360 H 768.1 -5.2628 -2.07476 0
M  V30 8361 H 766.657 -6.19421 -2.02882 0
M  V30 8362 N 770.09 -0.729906 -1.39679 0
M  V30 8363 C 771 -0.0880322 -2.34435 0
M  V30 8364 C 772.016 0.727674 -1.58053 0
M  V30 8365 O 773.192 0.657321 -1.90371 0
M  V30 8366 C 770.257 0.812211 -3.37052 0
M  V30 8367 C 769.318 -0.0151681 -4.29297 0
M  V30 8368 C 768.551 0.842202 -5.27013 0
M  V30 8369 O 768.774 2.08108 -5.31081 0
M  V30 8370 O 767.708 0.27357 -6.01278 0
M  V30 8371 H 771.534 -0.869989 -2.90972 0
M  V30 8372 H 769.119 -0.490522 -1.41118 0
M  V30 8373 H 771.001 1.32745 -3.99946 0
M  V30 8374 H 769.676 1.57307 -2.82907 0
M  V30 8375 H 768.583 -0.575811 -3.69642 0
M  V30 8376 H 769.916 -0.738129 -4.86634 0
M  V30 8377 N 771.568 1.50203 -0.477153 0
M  V30 8378 C 772.531 2.27194 0.302599 0
M  V30 8379 C 773.531 1.32221 0.915112 0
M  V30 8380 O 774.721 1.55593 0.783348 0
M  V30 8381 C 771.853 3.0938 1.43167 0
M  V30 8382 H 773.046 2.97575 -0.372678 0
M  V30 8383 H 770.599 1.54578 -0.231392 0
M  V30 8384 H 771.334 2.43509 2.14182 0
M  V30 8385 H 771.119 3.79181 0.998197 0
M  V30 8386 H 772.609 3.67592 1.98157 0
M  V30 8387 N 773.046 0.209999 1.56195 0
M  V30 8388 C 774.462 -0.145598 1.58934 0
M  V30 8389 C 774.662 -1.59868 1.22656 0
M  V30 8390 O 773.718 -2.33689 0.956336 0
M  V30 8391 C 775.031 0.170243 3.00218 0
M  V30 8392 C 776.579 0.111548 3.12801 0
M  V30 8393 C 777.054 0.400904 4.56242 0
M  V30 8394 N 778.545 0.350058 4.61875 0
M  V30 8395 C 779.28 0.547598 5.70779 0
M  V30 8396 N 778.776 0.806291 6.88092 0
M  V30 8397 N 780.569 0.480827 5.6004 0
M  V30 8398 H 772.72 1.15804 1.78054 0
M  V30 8399 H 774.983 0.463326 0.827063 0
M  V30 8400 H 774.689 1.17833 3.31373 0
M  V30 8401 H 774.563 -0.520208 3.73596 0
M  V30 8402 H 776.95 -0.887162 2.81449 0
M  V30 8403 H 777.031 0.835302 2.41777 0
M  V30 8404 H 776.675 1.397 4.8831 0
M  V30 8405 H 776.605 -0.34391 5.25476 0
M  V30 8406 H 779.096 0.157334 3.77572 0
M  V30 8407 H 779.409 0.945433 7.66995 0
M  V30 8408 H 777.754 0.843355 6.89864 0
M  V30 8409 H 780.945 0.279037 4.67268 0
M  V30 8410 H 781.118 0.638189 6.4485 0
M  V30 8411 N 774.524 -1.57472 -0.0634922 0
M  V30 8412 C 775.752 -1.91887 -0.773767 0
M  V30 8413 C 776.167 -0.806733 -1.70696 0
M  V30 8414 O 775.524 0.219383 -1.81177 0
M  V30 8415 C 775.575 -3.26092 -1.56034 0
M  V30 8416 O 775.296 -4.33029 -0.66464 0
M  V30 8417 C 776.797 -3.74573 -2.37087 0
M  V30 8418 H 774.017 -0.634074 -0.219525 0
M  V30 8419 H 776.561 -2.04476 -0.0312828 0
M  V30 8420 H 774.716 -3.15004 -2.25502 0
M  V30 8421 H 775.13 -5.10291 -1.21258 0
M  V30 8422 H 776.604 -4.71084 -2.87722 0
M  V30 8423 H 777.081 -3.04003 -3.16984 0
M  V30 8424 H 777.687 -3.88631 -1.72759 0
M  V30 8425 N 776.003 0.335068 -1.53997 0
M  V30 8426 C 777.228 1.09859 -1.75914 0
M  V30 8427 C 777.653 1.81308 -0.500915 0
M  V30 8428 O 777.011 1.72854 0.54693 0
M  V30 8429 C 777.059 2.08122 -2.94478 0
M  V30 8430 O 776.163 3.15805 -2.65219 0
M  V30 8431 H 775.504 0.317313 -0.583274 0
M  V30 8432 H 778.034 0.382872 -2.00986 0
M  V30 8433 H 778.044 2.51195 -3.21504 0
M  V30 8434 H 776.719 1.55517 -3.8573 0
M  V30 8435 H 775.296 2.77489 -2.49107 0
M  V30 8436 N 777.481 1.45874 0.596531 0
M  V30 8437 C 778.706 1.54247 1.38646 0
M  V30 8438 C 779.131 0.179571 1.87241 0
M  V30 8439 O 778.489 -0.837831 1.6078 0
M  V30 8440 C 778.537 2.54015 2.55946 0
M  V30 8441 O 777.641 2.06561 3.5694 0
M  V30 8442 H 776.982 0.519555 0.413471 0
M  V30 8443 H 779.512 1.91327 0.724936 0
M  V30 8444 H 779.522 2.73179 3.03047 0
M  V30 8445 H 778.197 3.52994 2.19928 0
M  V30 8446 H 776.774 1.97324 3.16414 0
M  V30 8447 N 778.959 -0.83999 1.33349 0
M  V30 8448 C 779.891 -1.95678 1.19344 0
M  V30 8449 C 780.904 -1.62322 0.124692 0
M  V30 8450 O 782.093 -1.74516 0.375012 0
M  V30 8451 C 779.193 -3.29133 0.807771 0
M  V30 8452 C 778.366 -3.9063 1.96792 0
M  V30 8453 C 777.425 -5.02438 1.56341 0
M  V30 8454 O 776.451 -5.21646 2.27759 0
M  V30 8455 N 777.653 -5.78612 0.467767 0
M  V30 8456 H 780.418 -2.08229 2.15548 0
M  V30 8457 H 777.979 -1.01566 1.26079 0
M  V30 8458 H 779.971 -4.01355 0.519282 0
M  V30 8459 H 778.541 -3.12535 -0.063555 0
M  V30 8460 H 777.761 -3.11011 2.4221 0
M  V30 8461 H 779.049 -4.2845 2.74422 0
M  V30 8462 H 778.447 -5.65559 -0.126324 0
M  V30 8463 H 777.004 -6.51362 0.238945 0
M  V30 8464 N 780.437 -1.16799 -1.0581 0
M  V30 8465 C 781.384 -0.87902 -2.13405 0
M  V30 8466 C 782.354 0.174541 -1.6518 0
M  V30 8467 O 783.539 0.0386843 -1.90761 0
M  V30 8468 C 780.679 -0.391616 -3.42871 0
M  V30 8469 C 779.792 -1.50857 -4.04804 0
M  V30 8470 C 778.927 -0.975682 -5.22163 0
M  V30 8471 C 777.966 -2.06851 -5.76089 0
M  V30 8472 N 777.103 -1.55085 -6.84758 0
M  V30 8473 H 781.943 -1.80043 -2.37463 0
M  V30 8474 H 779.48 -0.898083 -1.16503 0
M  V30 8475 H 781.438 -0.0906247 -4.17102 0
M  V30 8476 H 780.068 0.49284 -3.19016 0
M  V30 8477 H 779.12 -1.92542 -3.28073 0
M  V30 8478 H 780.432 -2.33305 -4.40874 0
M  V30 8479 H 779.586 -0.628165 -6.03439 0
M  V30 8480 H 778.325 -0.120566 -4.87551 0
M  V30 8481 H 777.33 -2.42467 -4.93447 0
M  V30 8482 H 778.555 -2.92768 -6.12751 0
M  V30 8483 H 776.501 -0.718345 -6.52055 0
M  V30 8484 H 776.418 -2.31145 -7.19797 0
M  V30 8485 H 777.686 -1.23206 -7.69702 0
M  V30 8486 N 781.915 1.24427 -0.967243 0
M  V30 8487 C 783.155 1.9423 -0.636723 0
M  V30 8488 C 783.519 1.73939 0.812971 0
M  V30 8489 O 784.72 2.37773 1.25369 0
M  V30 8490 C 782.991 3.43105 -1.00067 0
M  V30 8491 S 784.55 4.31728 -0.784633 0
M  V30 8492 H 781.368 0.671527 -0.233607 0
M  V30 8493 H 783.97 1.50806 -1.2441 0
M  V30 8494 H 782.674 3.5538 -2.05264 0
M  V30 8495 H 782.205 3.91521 -0.384054 0
M  V30 8496 H 784.22 4.95046 0.338244 0
M  V30 8497 N 783.393 0.737304 1.3929 0
M  V30 8498 C 784.303 0.100464 2.34385 0
M  V30 8499 C 785.319 -0.719282 1.58437 0
M  V30 8500 O 786.495 -0.647216 1.90717 0
M  V30 8501 C 783.56 -0.794325 3.37478 0
M  V30 8502 C 782.621 0.0379345 4.29283 0
M  V30 8503 C 781.854 -0.814241 5.27452 0
M  V30 8504 O 782.077 -2.05288 5.32177 0
M  V30 8505 O 781.011 -0.241679 6.01415 0
M  V30 8506 H 784.837 0.885407 2.90507 0
M  V30 8507 H 782.422 0.497999 1.40856 0
M  V30 8508 H 784.304 -1.30622 4.00644 0
M  V30 8509 H 782.979 -1.55804 2.83737 0
M  V30 8510 H 781.886 0.595405 3.69331 0
M  V30 8511 H 783.219 0.763926 4.86236 0
M  V30 8512 N 784.871 -1.49948 0.485112 0
M  V30 8513 C 786.118 -2.02396 -0.0650059 0
M  V30 8514 C 786.446 -1.36606 -1.38452 0
M  V30 8515 O 785.701 -0.485476 -1.89583 0
M  V30 8516 C 786 -3.56282 -0.282434 0
M  V30 8517 C 785.666 -4.40625 0.957106 0
M  V30 8518 C 784.328 -4.63393 1.29692 0
M  V30 8519 C 786.68 -4.89799 1.78176 0
M  V30 8520 C 784.008 -5.3258 2.4612 0
M  V30 8521 C 786.36 -5.60266 2.93743 0
M  V30 8522 C 785.024 -5.81284 3.28124 0
M  V30 8523 H 784.294 -0.740618 -0.0237873 0
M  V30 8524 H 786.941 -1.80416 0.642044 0
M  V30 8525 H 785.246 -3.76853 -1.07186 0
M  V30 8526 H 786.943 -3.94442 -0.722276 0
M  V30 8527 H 783.533 -4.23133 0.682384 0
M  V30 8528 H 787.717 -4.7205 1.53239 0
M  V30 8529 H 782.973 -5.47059 2.73014 0
M  V30 8530 H 787.147 -5.97347 3.5798 0
M  V30 8531 H 784.774 -6.34671 4.18446 0
M  V30 8532 N 786.349 -0.21828 -1.56081 0
M  V30 8533 C 787.598 0.414644 -1.97392 0
M  V30 8534 C 787.911 1.61132 -1.10887 0
M  V30 8535 O 789.117 2.31355 -1.42082 0
M  V30 8536 C 787.573 0.789099 -3.51143 0
M  V30 8537 C 787.181 -0.384578 -4.46346 0
M  V30 8538 C 788.925 1.38781 -4.01173 0
M  V30 8539 C 786.832 0.0121288 -5.91399 0
M  V30 8540 H 785.762 0.158691 -0.737111 0
M  V30 8541 H 788.413 -0.313974 -1.80794 0
M  V30 8542 H 786.795 1.57505 -3.6333 0
M  V30 8543 H 787.969 -1.16212 -4.45905 0
M  V30 8544 H 786.284 -0.896306 -4.06639 0
M  V30 8545 H 788.881 1.69746 -5.07041 0
M  V30 8546 H 789.224 2.30245 -3.46833 0
M  V30 8547 H 789.757 0.665364 -3.92196 0
M  V30 8548 H 786.496 -0.868917 -6.49715 0
M  V30 8549 H 786.016 0.754053 -5.95041 0
M  V30 8550 H 787.695 0.439949 -6.45502 0
M  V30 8551 N 787.827 1.57504 0.0551401 0
M  V30 8552 C 788.777 2.0128 1.071 0
M  V30 8553 C 789.761 0.897592 1.33537 0
M  V30 8554 O 790.953 1.16151 1.33558 0
M  V30 8555 C 788.082 2.47414 2.37994 0
M  V30 8556 C 787.168 3.65703 2.14761 0
M  V30 8557 N 787.559 4.79323 1.61504 0
M  V30 8558 C 785.857 3.72574 2.45162 0
M  V30 8559 C 786.558 5.61089 1.53472 0
M  V30 8560 N 785.534 5.05426 2.00114 0
M  V30 8561 H 789.336 2.86558 0.652829 0
M  V30 8562 H 786.85 1.60274 0.26193 0
M  V30 8563 H 788.847 2.77023 3.11551 0
M  V30 8564 H 787.507 1.6353 2.80514 0
M  V30 8565 H 788.518 5.01284 1.30134 0
M  V30 8566 H 785.195 2.99439 2.90934 0
M  V30 8567 H 786.585 6.62328 1.13008 0
M  V30 8568 N 789.305 -0.326896 1.54172 0
M  V30 8569 C 790.237 -1.42319 1.79661 0
M  V30 8570 C 791.25 -1.47989 0.678456 0
M  V30 8571 O 792.439 -1.50773 0.955503 0
M  V30 8572 C 789.539 -2.80876 1.89636 0
M  V30 8573 C 788.712 -2.98449 3.19761 0
M  V30 8574 C 787.771 -4.17347 3.2048 0
M  V30 8575 O 786.797 -4.10667 3.94134 0
M  V30 8576 N 787.999 -5.26717 2.44027 0
M  V30 8577 H 790.764 -1.20819 2.74268 0
M  V30 8578 H 788.325 -0.516866 1.53428 0
M  V30 8579 H 790.317 -3.58619 1.87549 0
M  V30 8580 H 788.887 -2.95442 1.02141 0
M  V30 8581 H 788.107 -2.08035 3.34836 0
M  V30 8582 H 789.395 -3.07083 4.05681 0
M  V30 8583 H 788.793 -5.35019 1.8377 0
M  V30 8584 H 787.35 -6.02891 2.47721 0
M  V30 8585 O 790.822 -1.54423 -0.472853 0
M  V30 8586 H 791.513 -1.5752 -1.12726 0
M  V30 END ATOM
M  V30 BEGIN BOND
M  V30 END BOND
M  V30 END CTAB
M  END
$$$$
