drugbank_target|P0C002 Dihydropteroate synthase type-1 (DB00634)
 OpenBabel12092120573D

  0  0  0     0  0            999 V3000
M  V30 BEGIN CTAB
M  V30 COUNTS 4248 4289 0 0 0
M  V30 BEGIN ATOM
M  V30 1 H -0.908 1.98254 -0.117106 0
M  V30 2 N 0 1.576 0 0
M  V30 3 C 0.933 2.03868 1.02534 0
M  V30 4 C 1.911 0.928543 1.3348 0
M  V30 5 O 3.095 1.19667 1.45644 0
M  V30 6 C 0.222 2.43627 2.35294 0
M  V30 7 C -0.732 3.65373 2.2001 0
M  V30 8 S 0.101 5.13292 1.52614 0
M  V30 9 C 1.257 5.56322 2.86805 0
M  V30 10 H 1.49 2.90518 0.631377 0
M  V30 11 H -0.977 1.52953 0.210867 0
M  V30 12 H 0.981 2.67203 3.11629 0
M  V30 13 H -0.358 1.57376 2.7183 0
M  V30 14 H -1.165 3.90944 3.18086 0
M  V30 15 H -1.563 3.418 1.51819 0
M  V30 16 H 0.729 5.58782 3.83104 0
M  V30 17 H 1.672 6.56266 2.65933 0
M  V30 18 H 2.08 4.83886 2.90714 0
M  V30 19 N 1.4781 -0.272755 1.55222 0
M  V30 20 C 2.7241 -1.00581 1.761 0
M  V30 21 C 3.0571 -1.85932 0.560625 0
M  V30 22 O 2.3321 -1.89416 -0.441801 0
M  V30 23 C 2.6151 -1.88816 3.06628 0
M  V30 24 C 2.4681 -1.06457 4.37021 0
M  V30 25 C 3.7871 -2.8752 3.33197 0
M  V30 26 H 0.9061 -0.364244 0.640699 0
M  V30 27 H 3.5481 -0.278189 1.87952 0
M  V30 28 H 1.6981 -2.50856 2.96654 0
M  V30 29 H 3.3701 -0.464863 4.58952 0
M  V30 30 H 1.6131 -0.368043 4.32236 0
M  V30 31 H 2.2841 -1.71514 5.24678 0
M  V30 32 H 4.7601 -2.35615 3.42965 0
M  V30 33 H 3.6361 -3.46399 4.25792 0
M  V30 34 H 3.8971 -3.62657 2.52849 0
M  V30 35 N 2.9562 -1.48159 -0.537278 0
M  V30 36 C 4.1842 -1.59454 -1.31841 0
M  V30 37 C 4.5992 -0.252065 -1.8711 0
M  V30 38 O 3.9562 0.757621 -1.66031 0
M  V30 39 C 4.0072 -2.63546 -2.47439 0
M  V30 40 O 3.7282 -3.92583 -1.94449 0
M  V30 41 C 5.2292 -2.85212 -3.39366 0
M  V30 42 H 2.4492 -0.53785 -0.401196 0
M  V30 43 H 4.9932 -1.93932 -0.648891 0
M  V30 44 H 3.1482 -2.31946 -3.1029 0
M  V30 45 H 3.5622 -4.49629 -2.70063 0
M  V30 46 H 5.0362 -3.61863 -4.16844 0
M  V30 47 H 5.5132 -1.93765 -3.94147 0
M  V30 48 H 6.1192 -3.18086 -2.82314 0
M  V30 49 N 4.4343 0.785586 -1.36625 0
M  V30 50 C 5.6803 1.54591 -1.31261 0
M  V30 51 C 6.0133 1.93906 0.106823 0
M  V30 52 O 5.2883 1.63007 1.06108 0
M  V30 53 C 5.5713 2.82038 -2.23889 0
M  V30 54 C 5.4243 2.49066 -3.74548 0
M  V30 55 C 6.7433 3.83887 -2.15217 0
M  V30 56 H 3.8623 0.560846 -0.478143 0
M  V30 57 H 6.5043 0.902278 -1.67209 0
M  V30 58 H 4.6543 3.36961 -1.93363 0
M  V30 59 H 6.3263 2.00164 -4.15611 0
M  V30 60 H 4.5693 1.81954 -3.93796 0
M  V30 61 H 5.2403 3.40109 -4.34776 0
M  V30 62 H 7.7163 3.38421 -2.42096 0
M  V30 63 H 6.5923 4.70806 -2.82193 0
M  V30 64 H 6.8533 4.27131 -1.14068 0
M  V30 65 N 5.9124 1.20967 1.01018 0
M  V30 66 C 7.1594 1.02374 1.74716 0
M  V30 67 C 7.4874 -0.443375 1.89379 0
M  V30 68 O 6.7424 -1.34535 1.42123 0
M  V30 69 C 7.0414 1.65997 3.16512 0
M  V30 70 C 6.7074 3.15831 3.2181 0
M  V30 71 C 5.3694 3.56719 3.22963 0
M  V30 72 C 7.7214 4.11816 3.19464 0
M  V30 73 C 5.0494 4.92107 3.19449 0
M  V30 74 C 7.4014 5.47158 3.17491 0
M  V30 75 C 6.0654 5.87451 3.16951 0
M  V30 76 H 5.3354 0.374614 0.639332 0
M  V30 77 H 7.9824 1.50485 1.18434 0
M  V30 78 H 6.2874 1.10166 3.75993 0
M  V30 79 H 7.9844 1.49119 3.72242 0
M  V30 80 H 4.5744 2.83263 3.21652 0
M  V30 81 H 8.7584 3.81257 3.17737 0
M  V30 82 H 4.0144 5.22579 3.17366 0
M  V30 83 H 8.1884 6.21274 3.14629 0
M  V30 84 H 5.8154 6.92329 3.13983 0
M  V30 85 N 7.3905 -1.2043 1.01659 0
M  V30 86 C 8.6385 -1.89423 0.704522 0
M  V30 87 C 8.9595 -1.79231 -0.768197 0
M  V30 88 O 8.2295 -1.1947 -1.55254 0
M  V30 89 H 6.8095 -0.701178 0.257602 0
M  V30 90 H 9.4715 -1.4626 1.28818 0
M  V30 91 H 8.5675 -2.96052 0.987916 0
M  V30 92 N 8.8686 -0.792821 -1.36206 0
M  V30 93 C 10.1176 -0.363353 -1.984 0
M  V30 94 C 10.4306 1.07172 -1.63626 0
M  V30 95 O 11.6366 1.60362 -2.19081 0
M  V30 96 C 10.0926 -0.59872 -3.54885 0
M  V30 97 C 9.7006 -2.04543 -3.9858 0
M  V30 98 C 11.4446 -0.233926 -4.23855 0
M  V30 99 C 9.3516 -2.22727 -5.47856 0
M  V30 100 H 8.2816 -0.13212 -0.742334 0
M  V30 101 H 10.9326 -0.974935 -1.55458 0
M  V30 102 H 9.3146 0.0826222 -3.95914 0
M  V30 103 H 10.4886 -2.76345 -3.68741 0
M  V30 104 H 8.8036 -2.36879 -3.42458 0
M  V30 105 H 11.4006 -0.348027 -5.33566 0
M  V30 106 H 11.7436 0.818351 -4.08177 0
M  V30 107 H 12.2766 -0.868639 -3.882 0
M  V30 108 H 9.0156 -3.2635 -5.68486 0
M  V30 109 H 8.5356 -1.55434 -5.7931 0
M  V30 110 H 10.2146 -2.03607 -6.14128 0
M  V30 111 N 10.3467 1.47872 -0.545128 0
M  V30 112 C 11.2767 2.32661 0.197793 0
M  V30 113 C 12.2577 1.43041 0.920504 0
M  V30 114 O 13.4427 1.71912 0.90333 0
M  V30 115 C 10.5727 3.24569 1.23582 0
M  V30 116 C 9.5267 4.23333 0.630323 0
M  V30 117 C 8.8527 5.0448 1.77211 0
M  V30 118 C 10.1527 5.20704 -0.407974 0
M  V30 119 H 11.8467 2.95024 -0.510045 0
M  V30 120 H 9.3927 1.4187 -0.246731 0
M  V30 121 H 11.3457 3.8272 1.76362 0
M  V30 122 H 10.0697 2.60236 1.97344 0
M  V30 123 H 8.7287 3.6639 0.123922 0
M  V30 124 H 8.3767 4.36561 2.49847 0
M  V30 125 H 8.0767 5.71339 1.37281 0
M  V30 126 H 9.6007 5.65487 2.3034 0
M  V30 127 H 11.0147 5.7329 0.033305 0
M  V30 128 H 9.4117 5.95699 -0.725486 0
M  V30 129 H 10.4817 4.66917 -1.30828 0
M  V30 130 N 11.8248 0.280983 1.55075 0
M  V30 131 C 12.7728 -0.619864 2.24188 0
M  V30 132 C 13.7668 -1.15315 1.24092 0
M  V30 133 O 14.9728 -1.1061 1.42005 0
M  V30 134 H 11.3478 -0.218459 0.719569 0
M  V30 135 H 13.3188 -0.0141831 2.98397 0
M  V30 136 C 12.0678 -1.7899 2.98091 0
M  V30 137 H 11.3908 -1.38874 3.74905 0
M  V30 138 H 12.8308 -2.39672 3.49762 0
M  V30 139 C 11.2898 -2.68192 2.03899 0
M  V30 140 O 11.8198 -3.6872 1.594 0
M  V30 141 N 10.0258 -2.35488 1.70275 0
M  V30 142 H 9.5728 -1.53787 2.06658 0
M  V30 143 H 9.5308 -2.95442 1.07524 0
M  V30 144 N 13.3029 -1.57598 0.00835791 0
M  V30 145 C 14.2329 -2.1198 -0.979113 0
M  V30 146 C 15.2139 -1.03091 -1.35301 0
M  V30 147 O 16.3989 -1.30818 -1.43528 0
M  V30 148 C 13.5289 -2.62995 -2.26828 0
M  V30 149 C 12.4829 -3.76485 -2.03576 0
M  V30 150 C 11.8089 -4.13846 -3.38579 0
M  V30 151 C 13.1089 -5.0342 -1.39161 0
M  V30 152 H 14.8029 -2.94738 -0.526281 0
M  V30 153 H 12.3489 -1.41783 -0.251704 0
M  V30 154 H 14.3019 -2.99669 -2.96271 0
M  V30 155 H 13.0259 -1.7737 -2.7424 0
M  V30 156 H 11.6849 -3.40217 -1.36557 0
M  V30 157 H 11.3329 -3.25232 -3.83709 0
M  V30 158 H 11.0329 -4.90312 -3.23834 0
M  V30 159 H 12.5569 -4.53086 -4.09323 0
M  V30 160 H 13.9709 -5.37812 -1.98573 0
M  V30 161 H 12.3679 -5.84746 -1.34878 0
M  V30 162 H 13.4379 -4.83548 -0.361868 0
M  V30 163 N 14.781 0.264519 -1.55364 0
M  V30 164 C 16.009 1.013 -1.80405 0
M  V30 165 C 16.424 1.79618 -0.581622 0
M  V30 166 O 15.781 1.76879 0.449468 0
M  V30 167 C 15.832 1.96487 -3.03439 0
M  V30 168 O 15.553 1.21341 -4.20961 0
M  V30 169 C 17.054 2.83079 -3.41147 0
M  V30 170 H 14.274 0.298875 -0.600762 0
M  V30 171 H 16.818 0.292736 -2.02394 0
M  V30 172 H 14.973 2.63965 -2.83551 0
M  V30 173 H 15.387 1.85573 -4.90574 0
M  V30 174 H 16.861 3.4565 -4.30384 0
M  V30 175 H 17.338 3.53286 -2.60932 0
M  V30 176 H 17.944 2.2108 -3.63323 0
M  V30 177 N 16.2591 1.48442 0.529413 0
M  V30 178 C 17.1691 1.6569 1.66084 0
M  V30 179 C 18.1851 0.539432 1.65427 0
M  V30 180 O 19.3611 0.810572 1.84368 0
M  V30 181 C 16.4261 1.69315 3.02545 0
M  V30 182 C 15.4871 2.92694 3.14052 0
M  V30 183 C 14.7201 2.96137 4.44003 0
M  V30 184 O 14.9431 2.07973 5.31134 0
M  V30 185 O 13.8771 3.88312 4.59888 0
M  V30 186 H 17.7031 2.61483 1.54469 0
M  V30 187 H 15.2881 1.3185 0.702567 0
M  V30 188 H 17.1701 1.74217 3.83701 0
M  V30 189 H 15.8451 0.766966 3.14483 0
M  V30 190 H 14.7521 2.93324 2.32189 0
M  V30 191 H 16.0851 3.84699 3.0703 0
M  V30 192 N 17.7372 -0.778329 1.37039 0
M  V30 193 C 19.0142 -1.52551 1.22424 0
M  V30 194 C 19.3942 -2.10288 -0.184964 0
M  V30 195 O 18.7422 -1.94953 -1.19187 0
M  V30 196 C 18.9522 -2.61164 2.31504 0
M  V30 197 C 20.3002 -3.28746 2.68721 0
M  V30 198 O 21.3242 -2.71455 2.30631 0
M  V30 199 O 20.1832 -4.3231 3.3432 0
M  V30 200 H 17.2772 -0.675343 0.477326 0
M  V30 201 H 19.8232 -0.815859 1.48801 0
M  V30 202 H 18.5952 -2.16574 3.25901 0
M  V30 203 H 18.2182 -3.39737 2.06554 0
M  V30 204 N 19.2153 -1.21501 -1.00376 0
M  V30 205 C 20.4403 -1.05977 -1.78279 0
M  V30 206 C 20.8653 0.385994 -1.84097 0
M  V30 207 O 20.2233 1.27849 -1.28547 0
M  V30 208 C 20.2713 -1.66302 -3.19963 0
M  V30 209 O 19.3753 -0.909333 -4.0225 0
M  V30 210 H 18.7163 -0.372906 -0.549397 0
M  V30 211 H 21.2463 -1.6107 -1.26165 0
M  V30 212 H 21.2563 -1.70574 -3.70632 0
M  V30 213 H 19.9313 -2.71515 -3.15043 0
M  V30 214 H 18.5083 -0.941795 -3.60811 0
M  V30 215 N 20.6934 1.19889 -1.02296 0
M  V30 216 C 21.9404 1.8942 -0.715972 0
M  V30 217 C 22.2684 1.79251 0.754944 0
M  V30 218 O 21.5234 1.17526 1.56481 0
M  V30 219 C 21.8224 3.39883 -1.10518 0
M  V30 220 C 21.4884 3.70254 -2.57337 0
M  V30 221 C 20.1504 3.78254 -2.97452 0
M  V30 222 C 22.5024 3.84052 -3.52354 0
M  V30 223 C 19.8304 3.97514 -4.31509 0
M  V30 224 C 22.1824 4.04824 -4.86108 0
M  V30 225 C 20.8464 4.11054 -5.25919 0
M  V30 226 H 20.1164 0.693138 -0.261993 0
M  V30 227 H 22.7634 1.42012 -1.28472 0
M  V30 228 H 21.0684 3.8915 -0.454953 0
M  V30 229 H 22.7654 3.9199 -0.845261 0
M  V30 230 H 19.3554 3.64632 -2.25258 0
M  V30 231 H 23.5394 3.77221 -3.22518 0
M  V30 232 H 18.7954 4.00574 -4.61898 0
M  V30 233 H 22.9694 4.14442 -5.59653 0
M  V30 234 H 20.5964 4.2573 -6.29808 0
M  V30 235 N 22.1715 0.800033 1.35784 0
M  V30 236 C 23.4185 0.377342 1.98953 0
M  V30 237 C 23.7465 -1.05378 1.6348 0
M  V30 238 O 23.0015 -1.74459 0.886707 0
M  V30 239 C 23.3005 0.500276 3.53881 0
M  V30 240 C 22.9665 1.89375 4.09204 0
M  V30 241 C 21.6285 2.27499 4.24025 0
M  V30 242 C 23.9805 2.8057 4.39238 0
M  V30 243 C 21.3085 3.562 4.66195 0
M  V30 244 C 23.6605 4.0871 4.82844 0
M  V30 245 C 22.3245 4.46843 4.95871 0
M  V30 246 H 21.5945 0.138079 0.728021 0
M  V30 247 H 24.2415 1.01955 1.62103 0
M  V30 248 H 22.5465 -0.225405 3.91151 0
M  V30 249 H 24.2435 0.154097 4.00704 0
M  V30 250 H 20.8335 1.58753 3.98115 0
M  V30 251 H 25.0175 2.52367 4.27346 0
M  V30 252 H 20.2735 3.85602 4.74469 0
M  V30 253 H 24.4475 4.79481 5.05046 0
M  V30 254 H 22.0745 5.46623 5.28306 0
M  V30 255 N 23.6496 -1.47581 0.552962 0
M  V30 256 C 24.9266 -1.95563 -0.0381515 0
M  V30 257 C 25.3066 -1.49552 -1.48988 0
M  V30 258 O 24.6546 -0.732414 -2.16444 0
M  V30 259 C 24.8646 -3.48848 0.102919 0
M  V30 260 C 26.2126 -4.24577 -0.0446082 0
M  V30 261 O 27.2366 -3.56187 0.0302548 0
M  V30 262 O 26.0956 -5.46116 -0.204923 0
M  V30 263 H 23.1896 -0.824321 -0.0665067 0
M  V30 264 H 25.7356 -1.58001 0.619186 0
M  V30 265 H 24.5076 -3.75129 1.11328 0
M  V30 266 H 24.1306 -3.93165 -0.592224 0
M  V30 267 N 25.1277 -0.289203 -1.54924 0
M  V30 268 C 26.0377 0.601863 -2.26748 0
M  V30 269 C 27.0537 1.15834 -1.2984 0
M  V30 270 O 28.2297 1.18564 -1.62802 0
M  V30 271 C 25.2947 1.76299 -2.98529 0
M  V30 272 C 24.3557 1.24178 -4.10948 0
M  V30 273 C 23.5887 2.34757 -4.79296 0
M  V30 274 O 23.8117 3.54411 -4.46933 0
M  V30 275 O 22.7457 2.02115 -5.66951 0
M  V30 276 H 26.5717 0.0195879 -3.03694 0
M  V30 277 H 24.1567 -0.0560868 -1.49295 0
M  V30 278 H 26.0387 2.43973 -3.43592 0
M  V30 279 H 24.7137 2.33209 -2.24488 0
M  V30 280 H 23.6207 0.531104 -3.70311 0
M  V30 281 H 24.9537 0.718252 -4.86931 0
M  V30 282 N 26.6058 1.57591 -0.0167156 0
M  V30 283 C 27.8308 1.9598 0.67872 0
M  V30 284 C 28.2558 0.892546 1.65575 0
M  V30 285 O 27.6138 -0.147772 1.80697 0
M  V30 286 C 27.6618 3.33468 1.37227 0
M  V30 287 O 26.7658 3.28954 2.48722 0
M  V30 288 H 26.1068 0.639339 0.17928 0
M  V30 289 H 28.6368 2.04463 -0.0748802 0
M  V30 290 H 28.6468 3.69417 1.7319 0
M  V30 291 H 27.3218 4.10694 0.656007 0
M  V30 292 H 25.8988 3.04705 2.14963 0
M  V30 293 N 28.0839 -0.256276 1.55502 0
M  V30 294 C 29.4999 -0.604325 1.47716 0
M  V30 295 C 29.6999 -1.88763 0.705039 0
M  V30 296 O 28.7559 -2.51445 0.230613 0
M  V30 297 C 30.0689 -0.715756 2.92057 0
M  V30 298 C 31.6169 -0.808706 3.02372 0
M  V30 299 C 32.0919 -0.951777 4.48001 0
M  V30 300 N 33.5829 -1.01688 4.519 0
M  V30 301 C 34.3179 -1.14668 5.61817 0
M  V30 302 N 33.8139 -1.24261 6.81565 0
M  V30 303 N 35.6069 -1.1791 5.49594 0
M  V30 304 H 27.7579 0.586291 2.04148 0
M  V30 305 H 30.0209 0.201015 0.926443 0
M  V30 306 H 29.7269 0.157027 3.51349 0
M  V30 307 H 29.6009 -1.59071 3.42018 0
M  V30 308 H 31.9879 -1.67195 2.43166 0
M  V30 309 H 32.0689 0.0912063 2.55637 0
M  V30 310 H 31.7129 -0.0931291 5.07815 0
M  V30 311 H 31.6429 -1.86659 4.92408 0
M  V30 312 H 34.1339 -0.954468 3.65648 0
M  V30 313 H 34.4469 -1.34046 7.61086 0
M  V30 314 H 32.7919 -1.21236 6.84344 0
M  V30 315 H 35.9829 -1.10057 4.54978 0
M  V30 316 H 36.1559 -1.27681 6.35296 0
M  V30 317 N 29.562 -1.4872 -0.521534 0
M  V30 318 C 30.978 -1.35028 -0.850855 0
M  V30 319 C 31.178 -0.367712 -1.98116 0
M  V30 320 O 30.234 0.208037 -2.51642 0
M  V30 321 C 31.547 -2.75263 -1.21041 0
M  V30 322 C 33.095 -2.83813 -1.31981 0
M  V30 323 C 33.57 -4.24769 -1.71276 0
M  V30 324 N 35.061 -4.27482 -1.78363 0
M  V30 325 C 35.796 -5.33494 -2.1017 0
M  V30 326 N 35.292 -6.49775 -2.40343 0
M  V30 327 N 37.085 -5.20894 -2.11248 0
M  V30 328 H 29.236 -2.11214 0.22413 0
M  V30 329 H 31.499 -0.947252 0.0376439 0
M  V30 330 H 31.205 -3.48765 -0.453415 0
M  V30 331 H 31.079 -3.09327 -2.15863 0
M  V30 332 H 33.466 -2.10561 -2.06756 0
M  V30 333 H 33.547 -2.53358 -0.352596 0
M  V30 334 H 33.191 -4.9854 -0.970588 0
M  V30 335 H 33.121 -4.52673 -2.69062 0
M  V30 336 H 35.612 -3.43611 -1.57288 0
M  V30 337 H 35.925 -7.26402 -2.63743 0
M  V30 338 H 34.27 -6.53035 -2.37844 0
M  V30 339 H 37.461 -4.29065 -1.87139 0
M  V30 340 H 37.634 -6.03612 -2.35704 0
M  V30 341 N 31.0401 0.771051 -1.3745 0
M  V30 342 C 31.9701 1.89827 -1.3597 0
M  V30 343 C 32.9511 1.68562 -0.228216 0
M  V30 344 O 34.1361 1.8941 -0.428675 0
M  V30 345 C 31.2661 3.2712 -1.16662 0
M  V30 346 C 30.2201 3.6295 -2.2683 0
M  V30 347 C 29.5461 4.98791 -1.92644 0
M  V30 348 C 30.8461 3.69627 -3.69017 0
M  V30 349 H 32.5401 1.91323 -2.30295 0
M  V30 350 H 30.0861 0.919082 -1.10855 0
M  V30 351 H 32.0391 4.05615 -1.14256 0
M  V30 352 H 30.7631 3.26059 -0.187926 0
M  V30 353 H 29.4221 2.86763 -2.28392 0
M  V30 354 H 29.0701 4.94271 -0.933021 0
M  V30 355 H 28.7701 5.23733 -2.66416 0
M  V30 356 H 30.2941 5.79685 -1.91826 0
M  V30 357 H 31.7081 4.38273 -3.69581 0
M  V30 358 H 30.1051 4.06067 -4.41848 0
M  V30 359 H 31.1751 2.70273 -4.02592 0
M  V30 360 N 32.5182 1.22032 0.997298 0
M  V30 361 C 33.7952 0.950823 1.70935 0
M  V30 362 C 34.1752 -0.535292 2.042 0
M  V30 363 O 33.5232 -1.50217 1.72183 0
M  V30 364 C 33.7332 1.84386 2.96315 0
M  V30 365 C 35.0812 2.09732 3.69185 0
M  V30 366 O 36.1052 1.81798 3.06314 0
M  V30 367 O 34.9642 2.57018 4.82291 0
M  V30 368 H 32.0582 0.357204 0.745878 0
M  V30 369 H 34.6042 1.32997 1.05404 0
M  V30 370 H 33.3762 2.84928 2.68201 0
M  V30 371 H 32.9992 1.46602 3.69586 0
M  V30 372 N 33.9963 -1.19345 1.0293 0
M  V30 373 C 35.4073 -1.70725 0.755633 0
M  V30 374 C 35.7583 -1.82326 -0.724676 0
M  V30 375 O 34.8833 -1.49471 -1.56484 0
M  V30 376 C 35.4783 -3.10084 1.36503 0
M  V30 377 C 34.0373 -3.58723 1.13994 0
M  V30 378 C 33.1843 -2.35577 1.46283 0
M  V30 379 H 36.1353 -1.0418 1.19718 0
M  V30 380 H 36.1563 -3.72787 0.762217 0
M  V30 381 H 35.6683 -3.01609 2.44241 0
M  V30 382 H 33.7693 -3.72512 0.0807901 0
M  V30 383 H 33.8823 -4.42816 1.82894 0
M  V30 384 H 32.2463 -2.38935 0.88217 0
M  V30 385 H 33.0293 -2.29731 2.55105 0
M  V30 386 N 35.4744 -0.807222 -1.35358 0
M  V30 387 C 36.4374 -0.223665 -2.28106 0
M  V30 388 C 37.4374 0.589354 -1.4961 0
M  V30 389 O 38.6274 0.407745 -1.69361 0
M  V30 390 C 35.7594 0.688149 -3.33882 0
M  V30 391 H 36.9524 -1.04169 -2.81227 0
M  V30 392 H 34.5054 -0.577921 -1.45223 0
M  V30 393 H 35.2404 1.52984 -2.85948 0
M  V30 394 H 35.0254 0.10687 -3.91954 0
M  V30 395 H 36.5154 1.09075 -4.03104 0
M  V30 396 N 36.9525 1.47285 -0.560781 0
M  V30 397 C 38.2005 2.02064 -0.0379868 0
M  V30 398 C 38.5215 1.43711 1.31803 0
M  V30 399 O 37.7915 0.61362 1.86042 0
M  V30 400 H 36.3715 0.746918 -0.0110531 0
M  V30 401 H 39.0335 1.80648 -0.731598 0
M  V30 402 H 38.1295 3.12064 0.0474463 0
M  V30 403 N 38.4306 0.297415 1.54768 0
M  V30 404 C 39.3936 -0.567375 2.22066 0
M  V30 405 C 40.3936 -1.06409 1.20556 0
M  V30 406 O 41.5836 -0.960691 1.45315 0
M  V30 407 C 38.7156 -1.78517 2.90421 0
M  V30 408 H 39.9086 0.0205534 2.99893 0
M  V30 409 H 37.4616 0.0482163 1.56226 0
M  V30 410 H 38.1966 -2.41303 2.16664 0
M  V30 411 H 37.9816 -1.43669 3.64831 0
M  V30 412 H 39.4716 -2.39964 3.41771 0
M  V30 413 N 39.9087 -1.5758 0.0250728 0
M  V30 414 C 41.1547 -1.91917 -0.655413 0
M  V30 415 C 41.4877 -0.901433 -1.72011 0
M  V30 416 O 40.7627 0.0764069 -1.9435 0
M  V30 417 C 41.0457 -3.36751 -1.27558 0
M  V30 418 C 40.8987 -4.49258 -0.220719 0
M  V30 419 C 42.2177 -3.81469 -2.19475 0
M  V30 420 H 39.3367 -0.697925 -0.23679 0
M  V30 421 H 41.9787 -1.89825 0.0815036 0
M  V30 422 H 40.1287 -3.38664 -1.90365 0
M  V30 423 H 41.8007 -4.59478 0.409601 0
M  V30 424 H 40.0437 -4.31415 0.454264 0
M  V30 425 H 40.7147 -5.47618 -0.694175 0
M  V30 426 H 43.1907 -3.81266 -1.66659 0
M  V30 427 H 42.0667 -4.83512 -2.59822 0
M  V30 428 H 42.3277 -3.16744 -3.08424 0
M  V30 429 N 41.3868 0.248026 -1.55636 0
M  V30 430 C 42.6148 0.993808 -1.81469 0
M  V30 431 C 43.0298 1.78991 -0.60064 0
M  V30 432 O 42.3868 1.77345 0.430682 0
M  V30 433 C 42.4378 1.93258 -3.05506 0
M  V30 434 O 42.1588 1.16869 -4.22224 0
M  V30 435 C 43.6598 2.79444 -3.4413 0
M  V30 436 H 40.8798 0.292486 -0.603898 0
M  V30 437 H 43.4238 0.271253 -2.02693 0
M  V30 438 H 41.5788 2.60943 -2.86335 0
M  V30 439 H 41.9928 1.80359 -4.92515 0
M  V30 440 H 43.4668 3.41066 -4.34026 0
M  V30 441 H 43.9438 3.50499 -2.64665 0
M  V30 442 H 44.5498 2.17214 -3.65648 0
M  V30 443 N 42.8649 1.48995 0.513639 0
M  V30 444 C 43.8279 1.64229 1.59879 0
M  V30 445 C 44.8279 0.514696 1.5234 0
M  V30 446 O 46.0179 0.78087 1.55718 0
M  V30 447 C 43.1499 1.62783 2.99524 0
M  V30 448 H 44.3429 2.61004 1.47705 0
M  V30 449 H 41.8959 1.37837 0.736936 0
M  V30 450 H 42.6309 0.675461 3.17188 0
M  V30 451 H 42.4159 2.4466 3.06404 0
M  V30 452 H 43.9059 1.76669 3.78388 0
M  V30 453 N 44.343 -0.763751 1.37857 0
M  V30 454 C 45.306 -1.85889 1.34081 0
M  V30 455 C 46.306 -1.58949 0.243277 0
M  V30 456 O 47.496 -1.66882 0.499589 0
M  V30 457 C 44.628 -3.23176 1.08489 0
M  V30 458 H 45.821 -1.90648 2.31502 0
M  V30 459 H 43.374 -0.964367 1.23003 0
M  V30 460 H 44.109 -3.24091 0.116318 0
M  V30 461 H 43.894 -3.44124 1.8794 0
M  V30 462 H 45.384 -4.03254 1.08517 0
M  V30 463 N 45.8211 -1.22559 -0.990812 0
M  V30 464 C 47.0701 -1.04553 -1.72486 0
M  V30 465 C 47.3831 0.419349 -1.91052 0
M  V30 466 O 48.5891 0.719121 -2.61803 0
M  V30 467 C 47.0451 -1.82231 -3.10355 0
M  V30 468 C 46.6531 -3.32981 -2.99713 0
M  V30 469 C 48.3971 -1.7268 -3.87791 0
M  V30 470 C 46.3041 -4.03091 -4.32748 0
M  V30 471 H 45.2341 -0.387614 -0.646739 0
M  V30 472 H 47.8851 -1.46429 -1.10593 0
M  V30 473 H 46.2671 -1.33155 -3.72942 0
M  V30 474 H 47.4411 -3.89466 -2.46278 0
M  V30 475 H 45.7561 -3.43231 -2.35758 0
M  V30 476 H 48.3531 -2.22381 -4.86262 0
M  V30 477 H 48.6961 -0.687607 -4.10582 0
M  V30 478 H 49.2291 -2.1931 -3.31885 0
M  V30 479 H 45.9681 -5.07273 -4.15156 0
M  V30 480 H 45.4881 -3.51394 -4.86089 0
M  V30 481 H 47.1671 -4.08804 -5.01486 0
M  V30 482 N 47.2992 1.18797 -1.03562 0
M  V30 483 C 48.2092 2.25913 -0.632505 0
M  V30 484 C 49.2252 1.70668 0.338882 0
M  V30 485 O 50.4012 2.00453 0.195076 0
M  V30 486 C 47.4662 3.467 0.00350942 0
M  V30 487 C 46.5272 4.17098 -1.01624 0
M  V30 488 C 45.7602 5.32119 -0.410478 0
M  V30 489 O 45.9832 5.64976 0.784725 0
M  V30 490 O 44.9172 5.9107 -1.13667 0
M  V30 491 H 48.7432 2.62648 -1.52478 0
M  V30 492 H 46.3282 1.25781 -0.806195 0
M  V30 493 H 48.2102 4.19878 0.35781 0
M  V30 494 H 46.8852 3.11798 0.869686 0
M  V30 495 H 45.7922 3.4601 -1.42224 0
M  V30 496 H 47.1252 4.55987 -1.85301 0
M  V30 497 N 48.7773 0.814389 1.34928 0
M  V30 498 C 49.7103 0.175641 2.27523 0
M  V30 499 C 50.6883 -0.662953 1.48471 0
M  V30 500 O 51.8723 -0.628545 1.77712 0
M  V30 501 C 48.9993 -0.755516 3.30166 0
M  V30 502 C 48.0453 0.00445305 4.265 0
M  V30 503 S 48.8783 1.34582 5.18313 0
M  V30 504 C 50.0343 0.419315 6.24494 0
M  V30 505 H 50.2673 0.960691 2.8135 0
M  V30 506 H 47.8003 0.609846 1.41846 0
M  V30 507 H 49.7583 -1.28723 3.89796 0
M  V30 508 H 48.4193 -1.51402 2.75202 0
M  V30 509 H 47.6123 -0.703077 4.99072 0
M  V30 510 H 47.2143 0.466447 3.7108 0
M  V30 511 H 49.5063 -0.392432 6.76362 0
M  V30 512 H 50.4493 1.11446 6.99275 0
M  V30 513 H 50.8573 0.0115389 5.64499 0
M  V30 514 N 50.2554 -1.46986 0.568584 0
M  V30 515 C 51.1854 -2.32946 -0.160753 0
M  V30 516 C 52.1664 -1.44487 -0.897631 0
M  V30 517 O 53.3514 -1.73327 -0.875867 0
M  V30 518 C 50.4814 -3.26494 -1.18403 0
M  V30 519 C 49.4354 -4.24282 -0.562895 0
M  V30 520 C 48.7614 -5.07236 -1.69163 0
M  V30 521 C 50.0614 -5.19989 0.490761 0
M  V30 522 H 51.7554 -2.94175 0.556916 0
M  V30 523 H 49.3014 -1.4146 0.26927 0
M  V30 524 H 51.2544 -3.85477 -1.70251 0
M  V30 525 H 49.9784 -2.63343 -1.93179 0
M  V30 526 H 48.6374 -3.66541 -0.0656164 0
M  V30 527 H 48.2854 -4.4048 -2.42871 0
M  V30 528 H 47.9854 -5.7345 -1.28174 0
M  V30 529 H 49.5094 -5.6908 -2.21314 0
M  V30 530 H 50.9234 -5.73271 0.0579047 0
M  V30 531 H 49.3204 -5.94469 0.820165 0
M  V30 532 H 50.3904 -4.64777 1.3824 0
M  V30 533 N 51.7335 -0.305618 -1.54608 0
M  V30 534 C 53.1495 0.0476228 -1.59529 0
M  V30 535 C 53.3495 1.52025 -1.32252 0
M  V30 536 O 52.4055 2.27368 -1.09818 0
M  V30 537 C 53.7185 -0.354471 -2.98603 0
M  V30 538 C 55.2665 -0.303622 -3.11524 0
M  V30 539 C 55.7415 -0.680608 -4.52915 0
M  V30 540 N 57.2325 -0.63332 -4.5885 0
M  V30 541 C 57.9675 -0.897432 -5.66334 0
M  V30 542 N 57.4635 -1.22775 -6.81834 0
M  V30 543 N 59.2565 -0.824186 -5.56025 0
M  V30 544 H 51.4075 -1.2653 -1.70599 0
M  V30 545 H 53.6705 -0.513291 -0.797017 0
M  V30 546 H 53.3765 -1.3798 -3.23503 0
M  V30 547 H 53.2505 0.289568 -3.76087 0
M  V30 548 H 55.6375 0.712472 -2.8637 0
M  V30 549 H 55.7185 -0.982348 -2.36185 0
M  V30 550 H 55.3625 -1.69453 -4.78799 0
M  V30 551 H 55.2925 0.0202385 -5.26596 0
M  V30 552 H 57.7835 -0.389138 -3.75891 0
M  V30 553 H 58.0965 -1.41513 -7.59733 0
M  V30 554 H 56.4415 -1.26583 -6.83375 0
M  V30 555 H 59.6325 -0.565748 -4.64669 0
M  V30 556 H 59.8055 -1.03338 -6.39707 0
M  V30 557 N 53.2116 1.57565 -0.0334293 0
M  V30 558 C 54.4576 1.92262 0.645226 0
M  V30 559 C 54.7906 0.910543 1.71531 0
M  V30 560 O 54.0656 -0.066099 1.94388 0
M  V30 561 C 54.3486 3.37422 1.2577 0
M  V30 562 C 54.2016 4.49369 0.196891 0
M  V30 563 C 55.5206 3.82628 2.17449 0
M  V30 564 H 52.6396 0.699171 0.233085 0
M  V30 565 H 55.2816 1.89779 -0.0915694 0
M  V30 566 H 53.4316 3.39669 1.88566 0
M  V30 567 H 55.1036 4.59254 -0.433962 0
M  V30 568 H 53.3466 4.31168 -0.477137 0
M  V30 569 H 54.0176 5.47978 0.665124 0
M  V30 570 H 56.4936 3.82145 1.64634 0
M  V30 571 H 55.3696 4.84883 2.57254 0
M  V30 572 H 55.6306 3.18376 3.0674 0
M  V30 573 N 54.6897 -0.239769 1.55765 0
M  V30 574 C 55.9377 -0.964892 1.77579 0
M  V30 575 C 56.2587 -1.85582 0.598699 0
M  V30 576 O 55.5287 -1.92075 -0.385226 0
M  V30 577 H 54.1087 -0.359265 0.654933 0
M  V30 578 H 56.7707 -0.256001 1.93211 0
M  V30 579 H 55.8667 -1.58243 2.69009 0
M  V30 580 N 56.1678 -1.49265 -0.50573 0
M  V30 581 C 57.3928 -1.62478 -1.28902 0
M  V30 582 C 57.8178 -0.294332 -1.85783 0
M  V30 583 O 57.1758 0.737412 -1.65626 0
M  V30 584 C 57.2238 -2.69268 -2.39848 0
M  V30 585 O 56.3278 -2.28113 -3.43567 0
M  V30 586 H 55.6688 -0.54399 -0.380751 0
M  V30 587 H 58.1988 -1.95421 -0.605952 0
M  V30 588 H 58.2088 -2.91291 -2.85681 0
M  V30 589 H 56.8838 -3.65846 -1.97812 0
M  V30 590 H 55.4608 -2.16401 -3.03685 0
M  V30 591 N 57.6459 0.756429 -1.3826 0
M  V30 592 C 58.9229 1.50584 -1.24835 0
M  V30 593 C 59.3029 2.10556 0.151485 0
M  V30 594 O 58.6509 1.96825 1.1607 0
M  V30 595 C 58.8609 2.57448 -2.3563 0
M  V30 596 C 60.2089 3.24429 -2.73917 0
M  V30 597 O 61.2329 2.67751 -2.34921 0
M  V30 598 O 60.0919 4.26937 -3.41156 0
M  V30 599 H 57.1859 0.667664 -0.48801 0
M  V30 600 H 59.7319 0.792083 -1.5008 0
M  V30 601 H 58.5039 2.11362 -3.29305 0
M  V30 602 H 58.1269 3.36408 -2.11933 0
M  V30 603 N 59.124 1.23083 0.984299 0
M  V30 604 C 60.37 1.06214 1.72761 0
M  V30 605 C 60.703 -0.400584 1.90024 0
M  V30 606 O 59.978 -1.29672 1.44967 0
M  V30 607 C 60.261 1.78375 3.12817 0
M  V30 608 C 60.114 3.32296 3.03149 0
M  V30 609 C 61.433 1.54309 4.12161 0
M  V30 610 H 58.552 0.387251 0.627061 0
M  V30 611 H 61.194 1.51536 1.14616 0
M  V30 612 H 59.344 1.39848 3.62457 0
M  V30 613 H 61.016 3.8032 2.61064 0
M  V30 614 H 59.259 3.6153 2.39747 0
M  V30 615 H 59.93 3.77972 4.02295 0
M  V30 616 H 62.406 1.87791 3.71314 0
M  V30 617 H 61.282 2.07281 5.08258 0
M  V30 618 H 61.543 0.477572 4.39513 0
M  V30 619 N 60.6021 -1.18246 1.0419 0
M  V30 620 C 61.8481 -1.88536 0.747122 0
M  V30 621 C 62.1811 -1.80223 -0.723409 0
M  V30 622 O 61.4561 -1.20337 -1.52804 0
M  V30 623 C 61.7391 -3.38968 1.21544 0
M  V30 624 C 61.5921 -3.56084 2.74816 0
M  V30 625 C 62.9111 -4.32648 0.806482 0
M  V30 626 H 60.0301 -0.684619 0.272883 0
M  V30 627 H 62.6721 -1.39113 1.29413 0
M  V30 628 H 60.8221 -3.8119 0.750081 0
M  V30 629 H 62.4941 -3.22946 3.29399 0
M  V30 630 H 60.7371 -2.98699 3.14582 0
M  V30 631 H 61.4081 -4.61639 3.02644 0
M  V30 632 H 63.8841 -3.98211 1.20695 0
M  V30 633 H 62.7601 -5.36462 1.1619 0
M  V30 634 H 63.0211 -4.41146 -0.29029 0
M  V30 635 N 62.0802 -0.821533 -1.34494 0
M  V30 636 C 63.3572 -0.33159 -1.92769 0
M  V30 637 C 63.7372 1.18088 -1.74981 0
M  V30 638 O 63.0852 1.98733 -1.12772 0
M  V30 639 C 63.2952 -0.759398 -3.40638 0
M  V30 640 C 64.6432 -0.757433 -4.1779 0
M  V30 641 O 65.6672 -0.70189 -3.49216 0
M  V30 642 O 64.5262 -0.829361 -5.4017 0
M  V30 643 H 61.6202 -0.0902502 -0.822061 0
M  V30 644 H 64.1662 -0.906231 -1.43477 0
M  V30 645 H 62.9382 -1.8012 -3.47379 0
M  V30 646 H 62.5612 -0.160378 -3.97276 0
M  V30 647 N 63.5583 1.46682 -0.576371 0
M  V30 648 C 64.8043 2.02712 -0.0596221 0
M  V30 649 C 65.1373 1.44765 1.29448 0
M  V30 650 O 64.4123 0.610355 1.84675 0
M  V30 651 C 64.6953 3.60098 0.0129503 0
M  V30 652 C 64.5483 4.28441 -1.3696 0
M  V30 653 C 65.8673 4.34224 0.71678 0
M  V30 654 H 62.9863 0.736637 -0.0231407 0
M  V30 655 H 65.6283 1.74898 -0.742351 0
M  V30 656 H 63.7783 3.83926 0.594378 0
M  V30 657 H 65.4503 4.15896 -1.9957 0
M  V30 658 H 63.6933 3.8805 -1.93907 0
M  V30 659 H 64.3643 5.3716 -1.27135 0
M  V30 660 H 66.8403 4.15503 0.222908 0
M  V30 661 H 65.7163 5.43936 0.73657 0
M  V30 662 H 65.9773 4.04823 1.77682 0
M  V30 663 N 65.0364 0.313813 1.54444 0
M  V30 664 C 66.2844 -0.291099 1.99993 0
M  V30 665 C 66.6054 -1.53418 1.20366 0
M  V30 666 O 65.8754 -1.93544 0.302927 0
M  V30 667 H 64.4554 -0.110552 0.738774 0
M  V30 668 H 67.1174 0.428106 1.9014 0
M  V30 669 H 66.2134 -0.554268 3.07139 0
M  V30 670 N 66.5145 -1.57545 0.0417849 0
M  V30 671 C 67.9255 -1.80011 -0.495259 0
M  V30 672 C 68.2765 -0.953199 -1.71489 0
M  V30 673 O 67.4015 -0.167138 -2.15754 0
M  V30 674 C 67.9965 -3.26482 -0.905265 0
M  V30 675 C 66.5555 -3.499 -1.38734 0
M  V30 676 C 65.7025 -2.74979 -0.358056 0
M  V30 677 H 68.6535 -1.56425 0.267736 0
M  V30 678 H 68.6745 -3.36887 -1.76882 0
M  V30 679 H 68.1865 -3.88096 -0.017401 0
M  V30 680 H 66.2875 -2.93553 -2.29471 0
M  V30 681 H 66.4005 -4.58615 -1.38598 0
M  V30 682 H 64.7645 -2.40834 -0.828912 0
M  V30 683 H 65.5475 -3.39315 0.521561 0
M  V30 684 N 67.9926 0.231505 -1.5589 0
M  V30 685 C 68.9556 1.27028 -1.90779 0
M  V30 686 C 69.9556 1.40308 -0.785507 0
M  V30 687 O 71.1456 1.38744 -1.05336 0
M  V30 688 C 68.2776 2.64566 -2.14983 0
M  V30 689 H 69.4706 0.973017 -2.83677 0
M  V30 690 H 67.0236 0.471486 -1.49019 0
M  V30 691 H 67.7586 2.99406 -1.24604 0
M  V30 692 H 67.5436 2.56305 -2.96732 0
M  V30 693 H 69.0336 3.39543 -2.43105 0
M  V30 694 N 69.4707 1.49531 0.497807 0
M  V30 695 C 70.4337 1.65916 1.58128 0
M  V30 696 C 71.4337 0.530825 1.51786 0
M  V30 697 O 72.6237 0.797342 1.54881 0
M  V30 698 C 69.7557 1.65951 2.9778 0
M  V30 699 H 70.9487 2.62556 1.44929 0
M  V30 700 H 68.5017 1.38611 0.722275 0
M  V30 701 H 69.2367 0.709065 3.16453 0
M  V30 702 H 69.0217 2.47897 3.03792 0
M  V30 703 H 70.5117 1.80673 3.76493 0
M  V30 704 N 70.9488 -0.749086 1.3866 0
M  V30 705 C 72.1738 -1.54344 1.38538 0
M  V30 706 C 72.5988 -1.88088 -0.0216655 0
M  V30 707 O 71.9568 -1.50899 -1.00494 0
M  V30 708 C 72.0048 -2.8164 2.25192 0
M  V30 709 O 71.1088 -3.7698 1.67212 0
M  V30 710 H 70.4498 -0.466654 0.472367 0
M  V30 711 H 72.9798 -0.925355 1.82478 0
M  V30 712 H 72.9898 -3.30519 2.3921 0
M  V30 713 H 71.6648 -2.56411 3.27454 0
M  V30 714 H 70.2418 -3.35699 1.6236 0
M  V30 715 N 72.4269 -1.23603 -0.977757 0
M  V30 716 C 73.3769 -0.986664 -2.05545 0
M  V30 717 C 74.3609 0.0683009 -1.60755 0
M  V30 718 O 75.5529 -0.144162 -1.76412 0
M  V30 719 C 72.6819 -0.582623 -3.3832 0
M  V30 720 C 71.7679 -1.67313 -3.89701 0
M  V30 721 N 72.1589 -2.90394 -4.14132 0
M  V30 722 C 70.4569 -1.54832 -4.18262 0
M  V30 723 C 71.1579 -3.61017 -4.56116 0
M  V30 724 N 70.1339 -2.8854 -4.60701 0
M  V30 725 H 73.9359 -1.92139 -2.22396 0
M  V30 726 H 71.4499 -1.1358 -1.16074 0
M  V30 727 H 73.4469 -0.38524 -4.15116 0
M  V30 728 H 72.1069 0.34503 -3.22862 0
M  V30 729 H 73.1179 -3.26673 -4.01877 0
M  V30 730 H 69.7949 -0.687969 -4.11793 0
M  V30 731 H 71.1849 -4.66544 -4.83514 0
M  V30 732 N 73.905 1.17692 -1.04816 0
M  V30 733 C 75.316 1.69501 -0.782698 0
M  V30 734 C 75.667 1.83456 0.695577 0
M  V30 735 O 74.792 1.51942 1.54086 0
M  V30 736 C 75.387 3.07874 -1.41419 0
M  V30 737 C 73.946 3.56864 -1.19686 0
M  V30 738 C 73.093 2.3322 -1.50012 0
M  V30 739 H 76.044 1.02262 -1.2136 0
M  V30 740 H 76.065 3.71528 -0.821428 0
M  V30 741 H 75.577 2.97685 -2.49009 0
M  V30 742 H 73.678 3.72337 -0.140043 0
M  V30 743 H 73.791 4.39851 -1.89916 0
M  V30 744 H 72.155 2.37501 -0.920071 0
M  V30 745 H 72.938 2.25644 -2.58727 0
M  V30 746 N 75.3831 0.828654 1.34056 0
M  V30 747 C 76.6601 0.341809 1.9259 0
M  V30 748 C 77.0401 -1.17158 1.75605 0
M  V30 749 O 76.3881 -1.98132 1.13824 0
M  V30 750 C 76.5981 0.777453 3.4023 0
M  V30 751 C 77.9461 0.779579 4.17382 0
M  V30 752 O 78.9701 0.7204 3.48839 0
M  V30 753 O 77.8291 0.857996 5.39723 0
M  V30 754 H 74.9231 0.0946085 0.821571 0
M  V30 755 H 77.4691 0.913827 1.42994 0
M  V30 756 H 76.2411 1.8196 3.46419 0
M  V30 757 H 75.8641 0.181444 3.97186 0
M  V30 758 N 76.8612 -1.46375 0.584142 0
M  V30 759 C 77.8242 -2.28784 -0.138108 0
M  V30 760 C 78.8242 -1.38471 -0.817462 0
M  V30 761 O 80.0142 -1.60833 -0.669199 0
M  V30 762 C 77.1462 -3.18892 -1.20503 0
M  V30 763 H 78.3392 -2.94117 0.586127 0
M  V30 764 H 75.8922 -1.52509 0.342171 0
M  V30 765 H 76.6272 -2.58309 -1.96079 0
M  V30 766 H 76.4122 -3.85388 -0.722384 0
M  V30 767 H 77.9022 -3.80914 -1.71155 0
M  V30 768 N 78.3393 -0.321999 -1.54275 0
M  V30 769 C 79.7553 0.0306999 -1.5957 0
M  V30 770 C 79.9553 1.50614 -1.33857 0
M  V30 771 O 79.0113 2.2619 -1.12223 0
M  V30 772 C 80.3243 -0.386122 -2.98211 0
M  V30 773 C 81.8723 -0.336647 -3.11184 0
M  V30 774 C 82.3473 -0.728607 -4.52167 0
M  V30 775 N 83.8383 -0.681952 -4.58152 0
M  V30 776 C 84.5733 -0.957449 -5.6535 0
M  V30 777 N 84.0693 -1.3 -6.80494 0
M  V30 778 N 85.8623 -0.883113 -5.55119 0
M  V30 779 H 78.0133 -1.28332 -1.69247 0
M  V30 780 H 80.2763 -0.521716 -0.791528 0
M  V30 781 H 79.9823 -1.41404 -3.22022 0
M  V30 782 H 79.8563 0.249662 -3.76373 0
M  V30 783 H 82.2433 0.682058 -2.8711 0
M  V30 784 H 82.3243 -1.00734 -2.3513 0
M  V30 785 H 81.9683 -1.74522 -4.76974 0
M  V30 786 H 81.8983 -0.0356152 -5.26588 0
M  V30 787 H 84.3893 -0.428985 -3.75457 0
M  V30 788 H 84.7023 -1.49563 -7.58189 0
M  V30 789 H 83.0473 -1.33824 -6.81994 0
M  V30 790 H 86.2383 -0.615001 -4.64042 0
M  V30 791 H 86.4113 -1.10118 -6.38575 0
M  V30 792 N 79.8174 1.5752 -0.0501392 0
M  V30 793 C 81.2284 1.80271 0.485705 0
M  V30 794 C 81.5794 0.96228 1.70981 0
M  V30 795 O 80.7044 0.178578 2.15662 0
M  V30 796 C 81.2994 3.26957 0.887938 0
M  V30 797 C 79.8584 3.5063 1.36877 0
M  V30 798 C 79.0054 2.75165 0.343468 0
M  V30 799 H 81.9564 1.56281 -0.276028 0
M  V30 800 H 81.9774 3.37821 1.75093 0
M  V30 801 H 81.4894 3.881 -0.0031809 0
M  V30 802 H 79.5904 2.94766 2.27911 0
M  V30 803 H 79.7034 4.59343 1.36164 0
M  V30 804 H 78.0674 2.4127 0.816128 0
M  V30 805 H 78.8504 3.39034 -0.539548 0
M  V30 806 N 81.2955 -0.223234 1.56011 0
M  V30 807 C 82.5415 -0.949279 1.79211 0
M  V30 808 C 82.8745 -1.84054 0.619494 0
M  V30 809 O 82.1495 -1.90726 -0.381317 0
M  V30 810 C 82.4325 -1.78965 3.12479 0
M  V30 811 C 82.2855 -0.924997 4.40186 0
M  V30 812 C 83.6045 -2.76774 3.42175 0
M  V30 813 H 80.7235 -0.343676 0.651963 0
M  V30 814 H 83.3655 -0.218253 1.88742 0
M  V30 815 H 81.5155 -2.41291 3.04485 0
M  V30 816 H 83.1875 -0.318615 4.60198 0
M  V30 817 H 81.4305 -0.230344 4.33188 0
M  V30 818 H 82.1015 -1.54735 5.29869 0
M  V30 819 H 84.5775 -2.24584 3.50287 0
M  V30 820 H 83.4535 -3.32678 4.36597 0
M  V30 821 H 83.7145 -3.54429 2.64258 0
M  V30 822 N 82.7736 -1.49793 -0.48987 0
M  V30 823 C 83.9986 -1.63836 -1.27172 0
M  V30 824 C 84.4236 -0.31402 -1.8546 0
M  V30 825 O 83.7816 0.719803 -1.66399 0
M  V30 826 C 83.8296 -2.71797 -2.36978 0
M  V30 827 O 82.9336 -2.31744 -3.41128 0
M  V30 828 H 82.2746 -0.547997 -0.37496 0
M  V30 829 H 84.8046 -1.96053 -0.585191 0
M  V30 830 H 84.8146 -2.94305 -2.82575 0
M  V30 831 H 83.4896 -3.67923 -1.93921 0
M  V30 832 H 82.0666 -2.1961 -3.01373 0
M  V30 833 N 84.2517 0.741722 -1.39055 0
M  V30 834 C 85.6627 1.31966 -1.32068 0
M  V30 835 C 86.0137 1.96192 0.0180797 0
M  V30 836 O 85.1387 1.95861 0.920196 0
M  V30 837 C 85.7337 2.39954 -2.39181 0
M  V30 838 C 84.2927 2.93438 -2.35735 0
M  V30 839 C 83.4397 1.66936 -2.21422 0
M  V30 840 H 86.3907 0.539721 -1.4924 0
M  V30 841 H 86.4117 3.20182 -2.05581 0
M  V30 842 H 85.9237 1.9318 -3.36605 0
M  V30 843 H 84.0247 3.4451 -1.41929 0
M  V30 844 H 84.1377 3.4701 -3.30335 0
M  V30 845 H 82.5017 1.91016 -1.68478 0
M  V30 846 H 83.2847 1.22224 -3.20806 0
M  V30 847 N 85.7298 1.2412 0.971189 0
M  V30 848 C 86.6928 1.03156 2.04674 0
M  V30 849 C 87.6928 -0.00990322 1.60797 0
M  V30 850 O 88.8828 0.230729 1.72665 0
M  V30 851 C 86.0148 0.562765 3.36223 0
M  V30 852 H 87.2078 1.98614 2.24705 0
M  V30 853 H 84.7608 1.06293 1.14593 0
M  V30 854 H 85.4958 -0.395176 3.21883 0
M  V30 855 H 85.2808 1.31441 3.69413 0
M  V30 856 H 86.7708 0.437015 4.15307 0
M  V30 857 N 87.2079 -1.17134 1.05439 0
M  V30 858 C 88.4849 -1.83411 0.679699 0
M  V30 859 C 88.8649 -1.9368 -0.839726 0
M  V30 860 O 88.2129 -1.47325 -1.74664 0
M  V30 861 C 88.4229 -3.20918 1.37159 0
M  V30 862 C 89.7709 -3.96796 1.51123 0
M  V30 863 O 90.7949 -3.30406 1.3308 0
M  V30 864 O 89.6539 -5.15778 1.80651 0
M  V30 865 H 86.7479 -0.79154 0.239569 0
M  V30 866 H 89.2939 -1.24411 1.15413 0
M  V30 867 H 88.0659 -3.08428 2.40807 0
M  V30 868 H 87.6889 -3.87587 0.886674 0
M  V30 869 N 88.686 -0.835752 -1.33615 0
M  V30 870 C 89.596 -0.269088 -2.33052 0
M  V30 871 C 90.612 0.603251 -1.63208 0
M  V30 872 O 91.788 0.508112 -1.94885 0
M  V30 873 C 88.853 0.549091 -3.42324 0
M  V30 874 C 87.914 -0.347156 -4.27894 0
M  V30 875 C 87.147 0.43207 -5.31948 0
M  V30 876 O 87.37 1.66409 -5.45586 0
M  V30 877 O 86.304 -0.192298 -6.01593 0
M  V30 878 H 90.13 -1.09243 -2.83372 0
M  V30 879 H 87.715 -0.598198 -1.36901 0
M  V30 880 H 89.597 1.01414 -4.09015 0
M  V30 881 H 88.272 1.34955 -2.94226 0
M  V30 882 H 87.179 -0.859979 -3.64081 0
M  V30 883 H 88.512 -1.1123 -4.79467 0
M  V30 884 N 90.1641 1.46063 -0.591896 0
M  V30 885 C 91.4131 2.01547 -0.0786637 0
M  V30 886 C 91.7261 1.46796 1.29268 0
M  V30 887 O 92.9321 1.94157 1.89777 0
M  V30 888 C 91.3881 3.59787 -0.0900024 0
M  V30 889 C 90.9961 4.23534 -1.46023 0
M  V30 890 C 92.7401 4.22895 0.368806 0
M  V30 891 C 90.6471 5.73881 -1.4288 0
M  V30 892 H 89.5771 0.753564 -0.0256388 0
M  V30 893 H 92.2281 1.677 -0.744905 0
M  V30 894 H 90.6101 3.90752 0.642586 0
M  V30 895 H 91.7841 4.04167 -2.21328 0
M  V30 896 H 90.0991 3.72558 -1.85982 0
M  V30 897 H 92.6961 5.33116 0.411258 0
M  V30 898 H 93.0391 3.9247 1.38827 0
M  V30 899 H 93.5721 3.9659 -0.31001 0
M  V30 900 H 90.3111 6.0898 -2.42536 0
M  V30 901 H 89.8311 5.95486 -0.718095 0
M  V30 902 H 91.5101 6.36776 -1.14565 0
M  V30 903 N 91.6422 0.330177 1.54103 0
M  V30 904 C 93.0582 -0.0222371 1.59585 0
M  V30 905 C 93.2582 -1.49902 1.34654 0
M  V30 906 O 92.3142 -2.25592 1.13421 0
M  V30 907 C 93.6272 0.401932 2.98002 0
M  V30 908 C 95.1752 0.353145 3.11001 0
M  V30 909 C 95.6502 0.752576 4.51775 0
M  V30 910 N 97.1412 0.706239 4.57784 0
M  V30 911 C 97.8762 0.987417 5.64834 0
M  V30 912 N 97.3722 1.33607 6.79795 0
M  V30 913 N 99.1652 0.91254 5.54643 0
M  V30 914 H 91.3162 1.29228 1.68564 0
M  V30 915 H 93.5792 0.525906 0.78875 0
M  V30 916 H 93.2852 1.4311 3.21267 0
M  V30 917 H 93.1592 -0.229699 3.765 0
M  V30 918 H 95.5462 -0.666822 2.87467 0
M  V30 919 H 95.6272 1.0198 2.34593 0
M  V30 920 H 95.2712 1.77049 4.76042 0
M  V30 921 H 95.2012 0.0635409 5.26562 0
M  V30 922 H 97.6922 0.44889 3.75224 0
M  V30 923 H 98.0052 1.53582 7.57385 0
M  V30 924 H 96.3502 1.37439 6.81275 0
M  V30 925 H 99.5412 0.639601 4.6371 0
M  V30 926 H 99.7142 1.13503 6.37982 0
M  V30 927 N 93.1203 -1.57491 0.0584922 0
M  V30 928 C 94.5363 -1.56792 -0.298091 0
M  V30 929 C 94.7363 -1.06679 -1.70944 0
M  V30 930 O 93.7923 -0.726672 -2.41818 0
M  V30 931 C 95.1053 -3.00461 -0.119879 0
M  V30 932 C 96.6533 -3.1242 -0.190428 0
M  V30 933 C 97.1283 -4.57982 -0.0406567 0
M  V30 934 N 98.6193 -4.63099 -0.0966958 0
M  V30 935 C 99.3543 -5.734 -0.00502943 0
M  V30 936 N 98.8503 -6.9266 0.139402 0
M  V30 937 N 100.643 -5.62067 -0.0611391 0
M  V30 938 H 92.7943 -1.88386 0.98105 0
M  V30 939 H 95.0573 -0.867865 0.381463 0
M  V30 940 H 94.7633 -3.41187 0.85349 0
M  V30 941 H 94.6373 -3.66843 -0.877833 0
M  V30 942 H 97.0243 -2.71589 -1.15427 0
M  V30 943 H 97.1053 -2.48702 0.598405 0
M  V30 944 H 96.7493 -4.995 0.919897 0
M  V30 945 H 96.6793 -5.19715 -0.848727 0
M  V30 946 H 99.1703 -3.77331 -0.207277 0
M  V30 947 H 99.4833 -7.72536 0.201855 0
M  V30 948 H 97.8283 -6.94781 0.174586 0
M  V30 949 H 101.019 -4.67782 -0.172583 0
M  V30 950 H 101.192 -6.47999 0.0137562 0
M  V30 951 N 94.5984 0.214957 -1.56127 0
M  V30 952 C 95.8474 0.936451 -1.78643 0
M  V30 953 C 96.1604 1.85237 -0.628229 0
M  V30 954 O 97.3664 2.613 -0.737186 0
M  V30 955 C 95.8224 1.7154 -3.16389 0
M  V30 956 C 95.4304 0.845299 -4.39953 0
M  V30 957 C 97.1744 2.42772 -3.48227 0
M  V30 958 C 95.0814 1.62198 -5.68723 0
M  V30 959 H 94.0114 0.353401 -0.666051 0
M  V30 960 H 96.6624 0.190169 -1.82512 0
M  V30 961 H 95.0444 2.50484 -3.06715 0
M  V30 962 H 96.2184 0.0959353 -4.607 0
M  V30 963 H 94.5334 0.244789 -4.1568 0
M  V30 964 H 97.1304 3.01394 -4.41663 0
M  V30 965 H 97.4734 3.15984 -2.71035 0
M  V30 966 H 98.0064 1.70813 -3.5926 0
M  V30 967 H 94.7454 0.933011 -6.48826 0
M  V30 968 H 94.2654 2.34579 -5.52026 0
M  V30 969 H 95.9444 2.18095 -6.09133 0
M  V30 970 N 96.0765 1.50051 0.48192 0
M  V30 971 C 97.0395 1.67584 1.5636 0
M  V30 972 C 98.0395 0.546894 1.51214 0
M  V30 973 O 99.2295 0.813725 1.54026 0
M  V30 974 C 96.3615 1.691 2.96003 0
M  V30 975 H 97.5545 2.64078 1.42136 0
M  V30 976 H 95.1075 1.39369 0.707533 0
M  V30 977 H 95.8425 0.742589 3.15684 0
M  V30 978 H 95.6275 2.51105 3.01146 0
M  V30 979 H 97.1175 1.84656 3.74556 0
M  V30 980 N 97.5546 -0.734337 1.39446 0
M  V30 981 C 98.9656 -1.31264 1.32766 0
M  V30 982 C 99.3166 -1.96198 -0.00767497 0
M  V30 983 O 98.4416 -1.96346 -0.909796 0
M  V30 984 C 99.0366 -2.38682 2.4045 0
M  V30 985 C 97.5956 -2.92184 2.37288 0
M  V30 986 C 96.7426 -1.6576 2.22304 0
M  V30 987 H 99.6936 -0.531799 1.49525 0
M  V30 988 H 99.7146 -3.19087 2.07276 0
M  V30 989 H 99.2266 -1.91392 3.37625 0
M  V30 990 H 97.3276 -3.43752 1.43754 0
M  V30 991 H 97.4406 -3.45253 3.3217 0
M  V30 992 H 95.8046 -1.9012 1.69489 0
M  V30 993 H 96.5876 -1.20521 3.21449 0
M  V30 994 N 99.0327 -1.24633 -0.964593 0
M  V30 995 C 99.9627 -1.06611 -2.07741 0
M  V30 996 C 100.944 0.0218666 -1.70086 0
M  V30 997 O 102.129 -0.145793 -1.93652 0
M  V30 998 C 99.2587 -0.673444 -3.40708 0
M  V30 999 C 98.2127 -1.71054 -3.92332 0
M  V30 1000 C 97.5387 -1.17285 -5.21678 0
M  V30 1001 C 98.8387 -3.10718 -4.19824 0
M  V30 1002 H 100.533 -1.99693 -2.23076 0
M  V30 1003 H 98.0787 -0.96152 -1.07195 0
M  V30 1004 H 100.032 -0.534345 -4.17998 0
M  V30 1005 H 98.7557 0.293073 -3.25282 0
M  V30 1006 H 97.4147 -1.83791 -3.17201 0
M  V30 1007 H 97.0627 -0.196847 -5.02615 0
M  V30 1008 H 96.7627 -1.86592 -5.57187 0
M  V30 1009 H 98.2867 -1.04593 -6.01575 0
M  V30 1010 H 99.7007 -3.01192 -4.87808 0
M  V30 1011 H 98.0977 -3.77406 -4.66567 0
M  V30 1012 H 99.1677 -3.58524 -3.26479 0
M  V30 1013 N 100.511 1.16574 -1.06058 0
M  V30 1014 C 101.441 2.23057 -0.690488 0
M  V30 1015 C 102.422 1.67141 0.315901 0
M  V30 1016 O 103.607 1.93253 0.191556 0
M  V30 1017 C 100.737 3.47222 -0.073625 0
M  V30 1018 C 99.6908 4.16016 -1.00573 0
M  V30 1019 C 99.0168 5.34104 -0.252289 0
M  V30 1020 C 100.317 4.67264 -2.33371 0
M  V30 1021 H 102.011 2.54271 -1.58072 0
M  V30 1022 H 99.5568 1.22218 -0.76149 0
M  V30 1023 H 101.51 4.20939 0.19714 0
M  V30 1024 H 100.234 3.15302 0.85161 0
M  V30 1025 H 98.8928 3.44223 -1.2612 0
M  V30 1026 H 98.5408 4.98437 0.675988 0
M  V30 1027 H 98.2408 5.81072 -0.873455 0
M  V30 1028 H 99.7648 6.10599 0.0109857 0
M  V30 1029 H 101.179 5.32573 -2.12223 0
M  V30 1030 H 99.5758 5.24843 -2.90963 0
M  V30 1031 H 100.646 3.83602 -2.96611 0
M  V30 1032 N 101.989 0.842826 1.3317 0
M  V30 1033 C 103.266 0.362216 1.92217 0
M  V30 1034 C 103.646 -1.15289 1.76838 0
M  V30 1035 O 102.994 -1.96914 1.15919 0
M  V30 1036 C 103.204 0.813495 3.39387 0
M  V30 1037 C 104.552 0.823804 4.16532 0
M  V30 1038 O 105.576 0.757358 3.48055 0
M  V30 1039 O 104.435 0.915193 5.38782 0
M  V30 1040 H 101.529 0.103317 0.820521 0
M  V30 1041 H 104.075 0.928942 1.42017 0
M  V30 1042 H 102.847 1.85624 3.4447 0
M  V30 1043 H 102.47 0.223561 3.96971 0
M  V30 1044 N 103.467 -1.45747 0.599634 0
M  V30 1045 C 104.43 -2.28917 -0.113835 0
M  V30 1046 C 105.43 -1.3933 -0.802729 0
M  V30 1047 O 106.62 -1.61534 -0.652103 0
M  V30 1048 C 103.752 -3.20152 -1.17114 0
M  V30 1049 H 104.945 -2.93478 0.617289 0
M  V30 1050 H 102.498 -1.52137 0.358327 0
M  V30 1051 H 103.233 -2.60374 -1.93329 0
M  V30 1052 H 103.018 -3.86133 -0.681468 0
M  V30 1053 H 104.508 -3.82708 -1.67105 0
M  V30 1054 N 104.945 -0.338344 -1.53925 0
M  V30 1055 C 105.875 0.51328 -2.27789 0
M  V30 1056 C 106.856 1.107 -1.29149 0
M  V30 1057 O 108.041 1.12937 -1.57984 0
M  V30 1058 C 105.171 1.66697 -3.04679 0
M  V30 1059 C 104.125 1.20183 -4.1078 0
M  V30 1060 C 103.451 2.44363 -4.75595 0
M  V30 1061 C 104.751 0.30605 -5.21403 0
M  V30 1062 H 106.445 -0.102883 -2.99223 0
M  V30 1063 H 103.991 -0.0509219 -1.4391 0
M  V30 1064 H 105.944 2.26915 -3.55088 0
M  V30 1065 H 104.668 2.30995 -2.30887 0
M  V30 1066 H 103.327 0.622499 -3.61276 0
M  V30 1067 H 102.975 3.07057 -3.98403 0
M  V30 1068 H 102.675 2.13925 -5.47275 0
M  V30 1069 H 104.199 3.05317 -5.28786 0
M  V30 1070 H 105.613 0.814929 -5.67478 0
M  V30 1071 H 104.01 0.0937929 -6.00027 0
M  V30 1072 H 105.08 -0.65921 -4.80398 0
M  V30 1073 N 106.423 1.57458 -0.0668435 0
M  V30 1074 C 107.648 1.9804 0.616027 0
M  V30 1075 C 108.073 0.944771 1.62652 0
M  V30 1076 O 107.431 -0.0902094 1.81075 0
M  V30 1077 C 107.479 3.37665 1.26549 0
M  V30 1078 O 106.583 3.36701 2.38131 0
M  V30 1079 H 105.924 0.644719 0.158849 0
M  V30 1080 H 108.454 2.04121 -0.139891 0
M  V30 1081 H 108.464 3.7474 1.6135 0
M  V30 1082 H 107.139 4.12573 0.525016 0
M  V30 1083 H 105.716 3.1139 2.0516 0
M  V30 1084 N 107.901 -0.206675 1.56239 0
M  V30 1085 C 109.178 -0.954051 1.70755 0
M  V30 1086 C 109.558 -2.01841 0.618353 0
M  V30 1087 O 108.906 -2.25444 -0.372434 0
M  V30 1088 C 109.116 -1.551 3.12642 0
M  V30 1089 C 110.464 -2.03757 3.72516 0
M  V30 1090 O 111.488 -1.64965 3.15698 0
M  V30 1091 O 110.347 -2.75103 4.72208 0
M  V30 1092 H 107.441 -0.446636 0.696021 0
M  V30 1093 H 109.987 -0.197283 1.68549 0
M  V30 1094 H 108.759 -0.783212 3.83382 0
M  V30 1095 H 108.382 -2.37291 3.19028 0
M  V30 1096 N 109.379 -1.50304 -0.473955 0
M  V30 1097 C 110.311 -1.65109 -1.58971 0
M  V30 1098 C 111.324 -0.532676 -1.53839 0
M  V30 1099 O 112.513 -0.805751 -1.59279 0
M  V30 1100 C 109.613 -1.61684 -2.97845 0
M  V30 1101 C 108.786 -2.8951 -3.27876 0
M  V30 1102 C 107.845 -2.78768 -4.4629 0
M  V30 1103 O 106.871 -3.52722 -4.46739 0
M  V30 1104 N 108.073 -1.9213 -5.47783 0
M  V30 1105 H 110.838 -2.61347 -1.46689 0
M  V30 1106 H 108.399 -1.47732 -0.662324 0
M  V30 1107 H 110.391 -1.52114 -3.75024 0
M  V30 1108 H 108.961 -0.731925 -3.03911 0
M  V30 1109 H 108.181 -3.13228 -2.39336 0
M  V30 1110 H 109.469 -3.74199 -3.4475 0
M  V30 1111 H 108.867 -1.31353 -5.50239 0
M  V30 1112 H 107.424 -1.88466 -6.23958 0
M  V30 1113 N 110.857 0.726932 -1.39834 0
M  V30 1114 C 111.79 1.8501 -1.33592 0
M  V30 1115 C 112.768 1.61262 -0.208191 0
M  V30 1116 O 113.952 1.84422 -0.389981 0
M  V30 1117 C 111.079 3.21143 -1.07633 0
M  V30 1118 C 110.125 3.63737 -2.22705 0
M  V30 1119 S 110.958 3.72167 -3.85035 0
M  V30 1120 C 112.114 5.11077 -3.61318 0
M  V30 1121 H 112.347 1.90022 -2.28646 0
M  V30 1122 H 109.88 0.892595 -1.25985 0
M  V30 1123 H 111.838 3.99747 -0.933415 0
M  V30 1124 H 110.499 3.13776 -0.142526 0
M  V30 1125 H 109.692 4.62551 -2.00155 0
M  V30 1126 H 109.294 2.9236 -2.33242 0
M  V30 1127 H 111.586 5.97656 -3.19083 0
M  V30 1128 H 112.529 5.38658 -4.59623 0
M  V30 1129 H 112.937 4.81135 -2.95245 0
M  V30 1130 N 112.336 1.25143 0.95797 0
M  V30 1131 C 113.286 1.01924 2.0395 0
M  V30 1132 C 114.27 -0.0427175 1.60843 0
M  V30 1133 O 115.462 0.17221 1.7616 0
M  V30 1134 C 112.591 0.636373 3.3735 0
M  V30 1135 C 111.677 1.73492 3.8699 0
M  V30 1136 N 112.068 2.96945 4.0946 0
M  V30 1137 C 110.366 1.61467 4.15746 0
M  V30 1138 C 111.067 3.68228 4.50315 0
M  V30 1139 N 110.043 2.95833 4.56053 0
M  V30 1140 H 113.845 1.95653 2.19311 0
M  V30 1141 H 111.359 1.15413 1.14253 0
M  V30 1142 H 113.356 0.451233 4.14451 0
M  V30 1143 H 112.016 -0.293621 3.2337 0
M  V30 1144 H 113.027 3.33025 3.96629 0
M  V30 1145 H 109.704 0.753394 4.10646 0
M  V30 1146 H 111.094 4.74178 4.76031 0
M  V30 1147 N 113.814 -1.1601 1.06675 0
M  V30 1148 C 115.23 -1.38622 0.790948 0
M  V30 1149 C 115.43 -1.92109 -0.607965 0
M  V30 1150 O 114.486 -2.12239 -1.36787 0
M  V30 1151 C 115.799 -2.36347 1.85905 0
M  V30 1152 C 117.347 -2.50023 1.88301 0
M  V30 1153 C 117.822 -3.51033 2.94176 0
M  V30 1154 N 119.313 -3.58563 2.93235 0
M  V30 1155 C 120.048 -4.36521 3.71803 0
M  V30 1156 N 119.544 -5.17869 4.602 0
M  V30 1157 N 121.337 -4.31541 3.60178 0
M  V30 1158 H 113.488 -0.796294 1.96908 0
M  V30 1159 H 115.751 -0.412597 0.853503 0
M  V30 1160 H 115.457 -2.04147 2.86386 0
M  V30 1161 H 115.331 -3.36042 1.71334 0
M  V30 1162 H 117.718 -2.81524 0.884769 0
M  V30 1163 H 117.799 -1.5035 2.06951 0
M  V30 1164 H 117.443 -3.20268 3.94196 0
M  V30 1165 H 117.373 -4.50445 2.72776 0
M  V30 1166 H 119.864 -3.00496 2.29152 0
M  V30 1167 H 120.177 -5.74578 5.16797 0
M  V30 1168 H 118.522 -5.17199 4.64253 0
M  V30 1169 H 121.713 -3.67051 2.90502 0
M  V30 1170 H 121.886 -4.9205 4.21653 0
M  V30 1171 N 115.292 -0.849877 -1.32721 0
M  V30 1172 C 116.538 -0.451591 -1.97708 0
M  V30 1173 C 116.871 0.989175 -1.6712 0
M  V30 1174 O 116.146 1.69334 -0.956891 0
M  V30 1175 C 116.429 -0.685598 -3.53513 0
M  V30 1176 C 116.282 -2.17444 -3.93749 0
M  V30 1177 C 117.601 -0.138874 -4.39881 0
M  V30 1178 H 114.72 -0.16555 -0.718166 0
M  V30 1179 H 117.362 -1.06742 -1.57182 0
M  V30 1180 H 115.512 -0.161416 -3.88165 0
M  V30 1181 H 117.184 -2.76433 -3.693 0
M  V30 1182 H 115.427 -2.65476 -3.43081 0
M  V30 1183 H 116.098 -2.28888 -5.02309 0
M  V30 1184 H 118.574 -0.587068 -4.11938 0
M  V30 1185 H 117.45 -0.332213 -5.47894 0
M  V30 1186 H 117.711 0.95806 -4.31594 0
M  V30 1187 N 116.77 1.45427 -0.607355 0
M  V30 1188 C 117.995 2.07124 -0.107006 0
M  V30 1189 C 118.42 1.44906 1.19933 0
M  V30 1190 O 117.778 0.541687 1.73019 0
M  V30 1191 C 117.826 3.60595 0.0194119 0
M  V30 1192 O 116.93 3.98285 1.0697 0
M  V30 1193 H 116.271 0.659868 -0.0739597 0
M  V30 1194 H 118.801 1.86683 -0.837297 0
M  V30 1195 H 118.811 4.07419 0.2177 0
M  V30 1196 H 117.486 4.05266 -0.934453 0
M  V30 1197 H 116.063 3.63133 0.847889 0
M  V30 1198 N 118.248 0.346503 1.53744 0
M  V30 1199 C 119.497 -0.250122 2.00143 0
M  V30 1200 C 119.81 -1.51418 1.23822 0
M  V30 1201 O 121.016 -2.18823 1.60713 0
M  V30 1202 C 119.472 -0.496252 3.56462 0
M  V30 1203 C 119.08 0.752077 4.41642 0
M  V30 1204 C 120.824 -1.05157 4.11269 0
M  V30 1205 C 118.731 0.476583 5.89477 0
M  V30 1206 H 117.661 -0.0972409 0.747703 0
M  V30 1207 H 120.312 0.46229 1.77581 0
M  V30 1208 H 118.694 -1.26944 3.75102 0
M  V30 1209 H 119.868 1.5266 4.34778 0
M  V30 1210 H 118.183 1.22925 3.97842 0
M  V30 1211 H 120.78 -1.27269 5.19333 0
M  V30 1212 H 121.123 -2.00799 3.64672 0
M  V30 1213 H 121.656 -0.339019 3.96353 0
M  V30 1214 H 118.395 1.4028 6.40314 0
M  V30 1215 H 117.915 -0.259794 5.99237 0
M  V30 1216 H 119.594 0.0949315 6.4693 0
M  V30 1217 N 119.726 -1.57421 0.075193 0
M  V30 1218 C 121.003 -1.85029 -0.634329 0
M  V30 1219 C 121.383 -0.968305 -1.87582 0
M  V30 1220 O 120.731 -0.0354749 -2.28472 0
M  V30 1221 C 120.941 -3.35286 -0.968742 0
M  V30 1222 C 122.289 -4.02875 -1.34077 0
M  V30 1223 O 123.313 -3.40051 -1.06037 0
M  V30 1224 O 122.172 -5.13691 -1.86506 0
M  V30 1225 H 119.266 -0.7645 -0.315387 0
M  V30 1226 H 121.812 -1.69366 0.106382 0
M  V30 1227 H 120.584 -3.91203 -0.0871376 0
M  V30 1228 H 120.207 -3.56223 -1.7661 0
M  V30 1229 N 121.204 0.198386 -1.56346 0
M  V30 1230 C 122.429 0.939682 -1.84891 0
M  V30 1231 C 122.854 1.76202 -0.658369 0
M  V30 1232 O 122.212 1.76993 0.392851 0
M  V30 1233 C 122.26 1.81428 -3.11635 0
M  V30 1234 O 121.364 2.91265 -2.91956 0
M  V30 1235 H 120.705 0.264807 -0.608912 0
M  V30 1236 H 123.235 0.204695 -2.03573 0
M  V30 1237 H 123.245 2.21958 -3.42343 0
M  V30 1238 H 121.92 1.21004 -3.97908 0
M  V30 1239 H 120.497 2.54514 -2.72538 0
M  V30 1240 N 122.682 1.50554 0.465978 0
M  V30 1241 C 123.929 1.61798 1.21768 0
M  V30 1242 C 124.257 0.320696 1.91838 0
M  V30 1243 O 123.512 -0.693724 1.82992 0
M  V30 1244 C 123.811 2.75152 2.28093 0
M  V30 1245 C 123.477 4.15454 1.75239 0
M  V30 1246 C 122.139 4.53628 1.60546 0
M  V30 1247 C 124.491 5.03121 1.36083 0
M  V30 1248 C 121.819 5.77204 1.05128 0
M  V30 1249 C 124.171 6.27249 0.821056 0
M  V30 1250 C 122.835 6.64221 0.660795 0
M  V30 1251 H 122.105 0.592063 0.445582 0
M  V30 1252 H 124.752 1.84503 0.512927 0
M  V30 1253 H 123.057 2.46556 3.04496 0
M  V30 1254 H 124.754 2.81055 2.86023 0
M  V30 1255 H 121.344 3.85341 1.87644 0
M  V30 1256 H 125.528 4.74257 1.46267 0
M  V30 1257 H 120.784 6.0452 0.91462 0
M  V30 1258 H 124.958 6.94537 0.509018 0
M  V30 1259 H 122.585 7.59854 0.229226 0
M  V30 1260 N 124.16 -0.719506 1.40217 0
M  V30 1261 C 125.092 -1.84428 1.36084 0
M  V30 1262 C 126.105 -1.60597 0.266913 0
M  V30 1263 O 127.294 -1.70544 0.526983 0
M  V30 1264 C 124.394 -3.20757 1.094 0
M  V30 1265 C 123.567 -3.71817 2.30372 0
M  V30 1266 C 122.626 -4.86748 1.99907 0
M  V30 1267 O 121.652 -4.99603 2.72737 0
M  V30 1268 N 122.854 -5.7226 0.974635 0
M  V30 1269 H 125.619 -1.88473 2.33019 0
M  V30 1270 H 123.18 -0.900885 1.3452 0
M  V30 1271 H 125.172 -3.95235 0.870116 0
M  V30 1272 H 123.742 -3.11884 0.211452 0
M  V30 1273 H 122.962 -2.88514 2.68614 0
M  V30 1274 H 124.25 -4.02666 3.11026 0
M  V30 1275 H 123.648 -5.6448 0.371368 0
M  V30 1276 H 122.205 -6.46739 0.810656 0
M  V30 1277 N 125.638 -1.25649 -0.95132 0
M  V30 1278 C 127.049 -1.09654 -1.51106 0
M  V30 1279 C 127.4 0.326615 -1.93462 0
M  V30 1280 O 126.525 1.21697 -1.78938 0
M  V30 1281 C 127.12 -1.98437 -2.74605 0
M  V30 1282 C 125.679 -1.86618 -3.2688 0
M  V30 1283 C 124.826 -1.9239 -1.99703 0
M  V30 1284 H 127.777 -1.38887 -0.767865 0
M  V30 1285 H 127.798 -1.5263 -3.48546 0
M  V30 1286 H 127.31 -3.02009 -2.43746 0
M  V30 1287 H 125.411 -0.859421 -3.62553 0
M  V30 1288 H 125.524 -2.71607 -3.94673 0
M  V30 1289 H 123.888 -1.36317 -2.15151 0
M  V30 1290 H 124.671 -2.97573 -1.71188 0
M  V30 1291 N 127.117 1.15442 -1.07289 0
M  V30 1292 C 128.027 2.23786 -0.704057 0
M  V30 1293 C 129.043 1.7166 0.284413 0
M  V30 1294 O 130.219 2.00972 0.131205 0
M  V30 1295 C 127.284 3.46535 -0.106792 0
M  V30 1296 C 126.345 4.13654 -1.14842 0
M  V30 1297 C 125.578 5.30544 -0.57956 0
M  V30 1298 O 125.801 5.67187 0.604585 0
M  V30 1299 O 124.735 5.87154 -1.32414 0
M  V30 1300 H 128.561 2.57664 -1.60757 0
M  V30 1301 H 126.146 1.23152 -0.845803 0
M  V30 1302 H 128.028 4.20804 0.224048 0
M  V30 1303 H 126.703 3.14407 0.770049 0
M  V30 1304 H 125.61 3.4131 -1.5316 0
M  V30 1305 H 126.943 4.49861 -1.99714 0
M  V30 1306 N 128.595 0.856903 1.32268 0
M  V30 1307 C 129.823 0.475439 2.01363 0
M  V30 1308 C 130.238 -0.928486 1.64392 0
M  V30 1309 O 129.595 -1.60624 0.866387 0
M  V30 1310 C 129.646 0.607545 3.56358 0
M  V30 1311 O 129.367 1.95617 3.92002 0
M  V30 1312 C 130.868 0.225382 4.42727 0
M  V30 1313 H 128.088 0.186636 0.644521 0
M  V30 1314 H 130.632 1.15446 1.68797 0
M  V30 1315 H 128.787 -0.0237719 3.87393 0
M  V30 1316 H 129.201 1.95455 4.86721 0
M  V30 1317 H 130.675 0.368813 5.50767 0
M  V30 1318 H 131.152 -0.834369 4.31202 0
M  V30 1319 H 131.758 0.831864 4.17085 0
M  V30 1320 N 130.073 -1.45103 0.615059 0
M  V30 1321 C 131.005 -2.28786 -0.13762 0
M  V30 1322 C 132.018 -1.40376 -0.824525 0
M  V30 1323 O 133.207 -1.64681 -0.688662 0
M  V30 1324 C 130.307 -3.16322 -1.21628 0
M  V30 1325 C 129.48 -4.33054 -0.615039 0
M  V30 1326 C 128.539 -5.01743 -1.58556 0
M  V30 1327 O 127.565 -5.58293 -1.10895 0
M  V30 1328 N 128.767 -5.01714 -2.91998 0
M  V30 1329 H 131.532 -2.94025 0.580483 0
M  V30 1330 H 129.093 -1.55373 0.45507 0
M  V30 1331 H 131.085 -3.59139 -1.86552 0
M  V30 1332 H 129.655 -2.52943 -1.83681 0
M  V30 1333 H 128.875 -3.93627 0.21245 0
M  V30 1334 H 130.163 -5.08431 -0.193704 0
M  V30 1335 H 129.561 -4.57075 -3.33316 0
M  V30 1336 H 128.118 -5.48371 -3.52325 0
M  V30 1337 N 131.551 -0.354651 -1.53558 0
M  V30 1338 C 132.967 -0.00315426 -1.596 0
M  V30 1339 C 133.167 1.47741 -1.37021 0
M  V30 1340 O 132.223 2.23759 -1.16996 0
M  V30 1341 C 133.536 -0.44929 -2.97325 0
M  V30 1342 C 135.084 -0.402578 -3.104 0
M  V30 1343 C 135.559 -0.824355 -4.5052 0
M  V30 1344 N 137.05 -0.778979 -4.56603 0
M  V30 1345 C 137.785 -1.07715 -5.63192 0
M  V30 1346 N 137.281 -1.44405 -6.77583 0
M  V30 1347 N 139.074 -1.00066 -5.53121 0
M  V30 1348 H 131.225 -1.31893 -1.66487 0
M  V30 1349 H 133.488 -0.538388 -0.780284 0
M  V30 1350 H 133.194 -1.48202 -3.1895 0
M  V30 1351 H 133.068 0.169772 -3.76818 0
M  V30 1352 H 135.455 0.621004 -2.88492 0
M  V30 1353 H 135.536 -1.05699 -2.32941 0
M  V30 1354 H 135.18 -1.846 -4.73165 0
M  V30 1355 H 135.11 -0.147304 -5.26394 0
M  V30 1356 H 137.601 -0.508528 -3.74463 0
M  V30 1357 H 137.914 -1.65612 -7.54846 0
M  V30 1358 H 136.259 -1.4826 -6.79002 0
M  V30 1359 H 139.45 -0.713293 -4.62633 0
M  V30 1360 H 139.623 -1.23638 -6.36096 0
M  V30 1361 N 133.029 1.57378 -0.0835403 0
M  V30 1362 C 134.259 1.97975 0.590713 0
M  V30 1363 C 134.667 0.961083 1.62972 0
M  V30 1364 O 134.01 -0.0590879 1.83605 0
M  V30 1365 C 134.072 3.34915 1.3066 0
M  V30 1366 C 133.736 4.55069 0.419698 0
M  V30 1367 C 134.733 5.18868 -0.32749 0
M  V30 1368 C 132.418 5.0114 0.341137 0
M  V30 1369 C 134.412 6.27098 -1.14134 0
M  V30 1370 C 132.099 6.0924 -0.476374 0
M  V30 1371 C 133.097 6.72083 -1.21627 0
M  V30 1372 O 132.785 7.781 -2.02028 0
M  V30 1373 H 132.517 0.655818 0.163947 0
M  V30 1374 H 135.071 2.04807 -0.156021 0
M  V30 1375 H 133.301 3.24733 2.09966 0
M  V30 1376 H 134.99 3.60037 1.87424 0
M  V30 1377 H 135.756 4.84211 -0.276459 0
M  V30 1378 H 131.635 4.51996 0.90668 0
M  V30 1379 H 135.179 6.7608 -1.71935 0
M  V30 1380 H 131.076 6.43329 -0.528927 0
M  V30 1381 H 131.844 7.95034 -1.94586 0
M  V30 1382 N 134.507 -0.190092 1.56449 0
M  V30 1383 C 135.47 -1.21925 1.9408 0
M  V30 1384 C 136.47 -1.38176 0.822431 0
M  V30 1385 O 137.66 -1.35903 1.08977 0
M  V30 1386 C 134.792 -2.58773 2.21922 0
M  V30 1387 H 135.985 -0.897464 2.86157 0
M  V30 1388 H 133.538 -0.43181 1.50217 0
M  V30 1389 H 134.273 -2.95998 1.32499 0
M  V30 1390 H 134.058 -2.48348 3.03424 0
M  V30 1391 H 135.548 -3.32978 2.52022 0
M  V30 1392 N 135.985 -1.50799 -0.457987 0
M  V30 1393 C 136.915 -1.73553 -1.5621 0
M  V30 1394 C 137.896 -0.584774 -1.59732 0
M  V30 1395 O 139.081 -0.825314 -1.7579 0
M  V30 1396 C 136.211 -1.84169 -2.94447 0
M  V30 1397 C 135.165 -2.99461 -3.0579 0
M  V30 1398 C 134.491 -2.95235 -4.45803 0
M  V30 1399 C 135.791 -4.39766 -2.81786 0
M  V30 1400 H 137.485 -2.66 -1.37421 0
M  V30 1401 H 135.031 -1.28002 -0.659662 0
M  V30 1402 H 136.984 -1.98672 -3.71628 0
M  V30 1403 H 135.708 -0.883545 -3.14422 0
M  V30 1404 H 134.367 -2.8463 -2.31044 0
M  V30 1405 H 134.015 -1.97239 -4.62715 0
M  V30 1406 H 133.715 -3.72642 -4.54326 0
M  V30 1407 H 135.239 -3.11803 -5.24987 0
M  V30 1408 H 136.653 -4.55054 -3.4871 0
M  V30 1409 H 135.05 -5.18722 -3.0174 0
M  V30 1410 H 136.12 -4.51229 -1.7754 0
M  V30 1411 N 137.463 0.71206 -1.40597 0
M  V30 1412 C 138.41 1.82613 -1.41142 0
M  V30 1413 C 139.38 1.63925 -0.267903 0
M  V30 1414 O 140.565 1.85009 -0.466495 0
M  V30 1415 C 137.705 3.20354 -1.28324 0
M  V30 1416 C 136.818 3.50589 -2.52411 0
M  V30 1417 C 135.953 4.77855 -2.32009 0
M  V30 1418 C 134.992 5.01005 -3.51654 0
M  V30 1419 N 134.129 6.19487 -3.30425 0
M  V30 1420 H 138.969 1.81482 -2.36365 0
M  V30 1421 H 136.506 0.886475 -1.17388 0
M  V30 1422 H 138.464 3.99899 -1.18899 0
M  V30 1423 H 137.094 3.20705 -0.367189 0
M  V30 1424 H 136.146 2.65573 -2.72351 0
M  V30 1425 H 137.458 3.63604 -3.41458 0
M  V30 1426 H 136.612 5.65424 -2.19956 0
M  V30 1427 H 135.351 4.67056 -1.40392 0
M  V30 1428 H 134.356 4.1189 -3.64179 0
M  V30 1429 H 135.581 5.13674 -4.44202 0
M  V30 1430 H 133.527 6.09932 -2.41494 0
M  V30 1431 H 133.444 6.33194 -4.13039 0
M  V30 1432 H 134.712 7.09834 -3.22113 0
M  V30 1433 N 138.941 1.26152 0.944643 0
M  V30 1434 C 140.357 1.03189 1.21754 0
M  V30 1435 C 140.557 -0.245112 2.00004 0
M  V30 1436 O 139.613 -0.955176 2.33736 0
M  V30 1437 C 140.926 2.26119 1.98219 0
M  V30 1438 C 142.474 2.30984 2.11224 0
M  V30 1439 C 142.949 3.53597 2.91089 0
M  V30 1440 N 144.44 3.54053 2.98664 0
M  V30 1441 C 145.175 4.45593 3.60881 0
M  V30 1442 N 144.671 5.47416 4.24626 0
M  V30 1443 N 146.464 4.33252 3.58119 0
M  V30 1444 H 138.615 2.08177 0.421437 0
M  V30 1445 H 140.878 0.914723 0.248969 0
M  V30 1446 H 140.584 3.18984 1.48128 0
M  V30 1447 H 140.458 2.3009 2.98895 0
M  V30 1448 H 142.845 1.38635 2.60508 0
M  V30 1449 H 142.926 2.31026 1.09821 0
M  V30 1450 H 142.57 4.46273 2.42493 0
M  V30 1451 H 142.5 3.50802 3.92741 0
M  V30 1452 H 144.991 2.80403 2.53343 0
M  V30 1453 H 145.304 6.13459 4.69987 0
M  V30 1454 H 143.649 5.51278 4.23223 0
M  V30 1455 H 146.84 3.52924 3.0751 0
M  V30 1456 H 147.013 5.04786 4.06319 0
M  V30 1457 N 140.419 -1.14872 1.07899 0
M  V30 1458 C 141.667 -1.85422 0.803941 0
M  V30 1459 C 141.988 -1.83051 -0.67211 0
M  V30 1460 O 141.258 -1.27532 -1.48703 0
M  V30 1461 H 139.838 -0.686537 0.294408 0
M  V30 1462 H 142.5 -1.39226 1.3639 0
M  V30 1463 H 141.596 -2.90399 1.14346 0
M  V30 1464 N 141.898 -0.863906 -1.31812 0
M  V30 1465 C 143.144 -0.472535 -1.97218 0
M  V30 1466 C 143.477 0.971394 -1.68159 0
M  V30 1467 O 142.752 1.68309 -0.974798 0
M  V30 1468 C 143.035 -0.723054 -3.52766 0
M  V30 1469 C 142.888 -2.21608 -3.91421 0
M  V30 1470 C 144.207 -0.185522 -4.39709 0
M  V30 1471 H 141.326 -0.173158 -0.71637 0
M  V30 1472 H 143.968 -1.08403 -1.56041 0
M  V30 1473 H 142.118 -0.202577 -3.87971 0
M  V30 1474 H 143.79 -2.80334 -3.66347 0
M  V30 1475 H 142.033 -2.691 -3.40246 0
M  V30 1476 H 142.704 -2.34203 -4.99853 0
M  V30 1477 H 145.18 -0.630726 -4.11292 0
M  V30 1478 H 144.056 -0.390306 -5.47511 0
M  V30 1479 H 144.317 0.912229 -4.32586 0
M  V30 1480 N 143.376 1.44774 -0.622745 0
M  V30 1481 C 144.624 2.01721 -0.123655 0
M  V30 1482 C 144.945 1.49172 1.25589 0
M  V30 1483 O 144.215 0.691974 1.83272 0
M  V30 1484 H 142.795 0.745777 -0.0427225 0
M  V30 1485 H 145.457 1.77382 -0.807559 0
M  V30 1486 H 144.553 3.11984 -0.0849534 0
M  V30 1487 N 144.854 0.36279 1.53368 0
M  V30 1488 C 146.084 -0.228281 2.05335 0
M  V30 1489 C 146.492 -1.43226 1.23625 0
M  V30 1490 O 145.835 -1.81717 0.269206 0
M  V30 1491 C 145.897 -0.688549 3.52845 0
M  V30 1492 C 145.561 0.398362 4.5526 0
M  V30 1493 C 146.558 1.24732 5.04716 0
M  V30 1494 C 144.243 0.557805 4.99193 0
M  V30 1495 C 146.237 2.2411 5.96702 0
M  V30 1496 C 143.924 1.55495 5.90986 0
M  V30 1497 C 144.922 2.39503 6.39631 0
M  V30 1498 O 144.61 3.37517 7.29615 0
M  V30 1499 H 144.342 -0.044395 0.674541 0
M  V30 1500 H 146.896 0.518668 1.98744 0
M  V30 1501 H 145.126 -1.48706 3.56964 0
M  V30 1502 H 146.815 -1.20231 3.87685 0
M  V30 1503 H 147.581 1.13532 4.71525 0
M  V30 1504 H 143.46 -0.0862959 4.60919 0
M  V30 1505 H 147.004 2.89718 6.34594 0
M  V30 1506 H 142.901 1.66744 6.23592 0
M  V30 1507 H 143.669 3.33213 7.47604 0
M  V30 1508 N 146.332 -1.57332 0.0918853 0
M  V30 1509 C 147.262 -2.16872 -0.865371 0
M  V30 1510 C 148.243 -1.10118 -1.29646 0
M  V30 1511 O 149.428 -1.38242 -1.36392 0
M  V30 1512 C 146.558 -2.74649 -2.12569 0
M  V30 1513 C 145.512 -3.86747 -1.83333 0
M  V30 1514 C 144.838 -4.31212 -3.16166 0
M  V30 1515 C 146.138 -5.10089 -1.1228 0
M  V30 1516 H 147.832 -2.97114 -0.369307 0
M  V30 1517 H 145.378 -1.42918 -0.176194 0
M  V30 1518 H 147.331 -3.14952 -2.7997 0
M  V30 1519 H 146.055 -1.91657 -2.64452 0
M  V30 1520 H 144.714 -3.46978 -1.18331 0
M  V30 1521 H 144.362 -3.45115 -3.6593 0
M  V30 1522 H 144.062 -5.06788 -2.97388 0
M  V30 1523 H 145.586 -4.74146 -3.84731 0
M  V30 1524 H 147 -5.47582 -1.69785 0
M  V30 1525 H 145.397 -5.91073 -1.03693 0
M  V30 1526 H 146.467 -4.84786 -0.105041 0
M  V30 1527 N 147.81 0.181792 -1.56548 0
M  V30 1528 C 148.758 1.24461 -1.965 0
M  V30 1529 C 149.752 1.464 -0.852261 0
M  V30 1530 O 150.958 1.47103 -1.03733 0
M  V30 1531 H 147.333 0.418138 -0.625031 0
M  V30 1532 H 149.304 0.880714 -2.85107 0
M  V30 1533 C 148.053 2.57891 -2.33212 0
M  V30 1534 H 147.376 2.41829 -3.18369 0
M  V30 1535 H 148.816 3.3097 -2.65019 0
M  V30 1536 C 147.275 3.15871 -1.17163 0
M  V30 1537 O 147.805 3.9913 -0.453708 0
M  V30 1538 N 146.011 2.74808 -0.944936 0
M  V30 1539 H 145.558 2.07205 -1.53049 0
M  V30 1540 H 145.516 3.13939 -0.170286 0
M  V30 1541 N 149.288 1.51039 0.449983 0
M  V30 1542 C 150.565 1.53612 1.21089 0
M  V30 1543 C 150.945 0.292997 2.09057 0
M  V30 1544 O 150.293 -0.72259 2.16774 0
M  V30 1545 C 150.503 2.84337 2.0237 0
M  V30 1546 C 151.851 3.35807 2.59843 0
M  V30 1547 O 152.875 2.85802 2.12593 0
M  V30 1548 O 151.734 4.23029 3.45989 0
M  V30 1549 H 148.828 0.617057 0.550608 0
M  V30 1550 H 151.374 1.63344 0.460082 0
M  V30 1551 H 150.146 3.66278 1.37681 0
M  V30 1552 H 149.769 2.77708 2.84542 0
M  V30 1553 N 150.766 -0.704594 1.40972 0
M  V30 1554 C 152.015 -1.46018 1.39146 0
M  V30 1555 C 152.328 -1.956 0.000589254 0
M  V30 1556 O 153.534 -2.71137 -0.1403 0
M  V30 1557 C 151.99 -2.63996 2.4461 0
M  V30 1558 C 151.598 -2.21238 3.89561 0
M  V30 1559 C 153.342 -3.41677 2.51907 0
M  V30 1560 C 151.249 -3.3612 4.86598 0
M  V30 1561 H 150.179 -0.548444 0.517422 0
M  V30 1562 H 152.83 -0.765784 1.66757 0
M  V30 1563 H 151.212 -3.3566 2.10115 0
M  V30 1564 H 152.386 -1.56923 4.33257 0
M  V30 1565 H 150.701 -1.56574 3.85841 0
M  V30 1566 H 153.298 -4.27182 3.2159 0
M  V30 1567 H 153.641 -3.86247 1.55303 0
M  V30 1568 H 154.174 -2.77064 2.85448 0
M  V30 1569 H 150.913 -2.96572 5.84573 0
M  V30 1570 H 150.433 -3.99315 4.47557 0
M  V30 1571 H 152.112 -4.02029 5.06934 0
M  V30 1572 N 152.244 -1.26651 -0.937939 0
M  V30 1573 C 153.176 -1.04283 -2.04102 0
M  V30 1574 C 154.189 -0.00221014 -1.628 0
M  V30 1575 O 155.378 -0.242645 -1.76843 0
M  V30 1576 C 152.478 -0.557846 -3.34277 0
M  V30 1577 C 151.651 -1.66843 -4.04329 0
M  V30 1578 C 150.71 -1.18095 -5.12777 0
M  V30 1579 O 149.736 -1.87865 -5.37304 0
M  V30 1580 N 150.938 -0.0311006 -5.80492 0
M  V30 1581 H 153.703 -1.9927 -2.23856 0
M  V30 1582 H 151.264 -1.1808 -1.10764 0
M  V30 1583 H 153.256 -0.215836 -4.04124 0
M  V30 1584 H 151.826 0.298523 -3.11171 0
M  V30 1585 H 151.046 -2.18123 -3.28353 0
M  V30 1586 H 152.334 -2.41408 -4.47883 0
M  V30 1587 H 151.732 0.551486 -5.63005 0
M  V30 1588 H 150.289 0.251809 -6.51313 0
M  V30 1589 N 153.722 1.14298 -1.08507 0
M  V30 1590 C 154.97 1.84993 -0.813763 0
M  V30 1591 C 155.291 1.83405 0.662393 0
M  V30 1592 O 154.561 1.28319 1.48024 0
M  V30 1593 H 153.141 0.684966 -0.298045 0
M  V30 1594 H 155.803 1.385 -1.37126 0
M  V30 1595 H 154.899 2.89788 -1.15884 0
M  V30 1596 N 155.201 0.870884 1.31352 0
M  V30 1597 C 156.448 0.482273 1.96673 0
M  V30 1598 C 156.776 -0.965638 1.68836 0
M  V30 1599 O 156.031 -1.69514 0.977937 0
M  V30 1600 C 156.33 0.687157 3.50732 0
M  V30 1601 C 155.996 2.108 3.9859 0
M  V30 1602 C 154.658 2.49656 4.1137 0
M  V30 1603 C 157.01 3.03459 4.23748 0
M  V30 1604 C 154.338 3.80412 4.46659 0
M  V30 1605 C 156.69 4.3373 4.60501 0
M  V30 1606 C 155.354 4.725 4.71487 0
M  V30 1607 H 154.624 0.176476 0.719679 0
M  V30 1608 H 157.271 1.10405 1.56471 0
M  V30 1609 H 155.576 -0.0177476 3.91796 0
M  V30 1610 H 157.273 0.366284 3.99324 0
M  V30 1611 H 153.863 1.79633 3.8914 0
M  V30 1612 H 158.047 2.74665 4.13368 0
M  V30 1613 H 153.303 4.1021 4.53362 0
M  V30 1614 H 157.477 5.05578 4.78919 0
M  V30 1615 H 155.104 5.73859 4.98588 0
M  V30 1616 N 156.679 -1.44442 0.630414 0
M  V30 1617 C 158.09 -1.85434 0.217063 0
M  V30 1618 C 158.441 -1.52748 -1.23136 0
M  V30 1619 O 157.566 -0.965205 -1.93682 0
M  V30 1620 C 158.161 -3.36581 0.387168 0
M  V30 1621 C 156.72 -3.76389 0.0283297 0
M  V30 1622 C 155.867 -2.68296 0.700889 0
M  V30 1623 H 158.818 -1.34919 0.83562 0
M  V30 1624 H 158.839 -3.78657 -0.374086 0
M  V30 1625 H 158.351 -3.60339 1.44144 0
M  V30 1626 H 156.452 -3.58246 -1.02423 0
M  V30 1627 H 156.565 -4.77095 0.437892 0
M  V30 1628 H 154.929 -2.54335 0.136267 0
M  V30 1629 H 155.712 -2.94887 1.75774 0
M  V30 1630 N 158.157 -0.370918 -1.53173 0
M  V30 1631 C 159.434 0.273754 -1.93675 0
M  V30 1632 C 159.814 1.65938 -1.3049 0
M  V30 1633 O 159.162 2.23698 -0.465999 0
M  V30 1634 C 159.372 0.318602 -3.47543 0
M  V30 1635 C 160.72 0.556392 -4.20939 0
M  V30 1636 O 161.744 0.399587 -3.53952 0
M  V30 1637 O 160.603 0.862133 -5.39657 0
M  V30 1638 H 157.697 0.165448 -0.810281 0
M  V30 1639 H 160.243 -0.42409 -1.64315 0
M  V30 1640 H 159.015 -0.652687 -3.85818 0
M  V30 1641 H 158.638 1.06212 -3.83151 0
M  V30 1642 N 159.635 1.57281 -0.100228 0
M  V30 1643 C 161.046 1.81725 0.428107 0
M  V30 1644 C 161.397 1.01619 1.67833 0
M  V30 1645 O 160.522 0.247098 2.14985 0
M  V30 1646 C 161.117 3.29617 0.78347 0
M  V30 1647 C 159.676 3.54808 1.25653 0
M  V30 1648 C 158.823 2.76118 0.255752 0
M  V30 1649 H 161.774 1.55324 -0.325608 0
M  V30 1650 H 161.795 3.4322 1.64256 0
M  V30 1651 H 161.307 3.87893 -0.12665 0
M  V30 1652 H 159.408 3.01868 2.18418 0
M  V30 1653 H 159.521 4.63443 1.21482 0
M  V30 1654 H 157.885 2.43745 0.738956 0
M  V30 1655 H 158.668 3.37145 -0.647136 0
M  V30 1656 N 161.113 -0.173488 1.56642 0
M  V30 1657 C 162.076 -1.19859 1.95362 0
M  V30 1658 C 163.076 -1.37296 0.83704 0
M  V30 1659 O 164.266 -1.34739 1.10413 0
M  V30 1660 C 161.398 -2.56405 2.24654 0
M  V30 1661 H 162.591 -0.867062 2.87092 0
M  V30 1662 H 160.144 -0.415853 1.50666 0
M  V30 1663 H 160.879 -2.94576 1.35631 0
M  V30 1664 H 160.664 -2.45115 3.06041 0
M  V30 1665 H 162.154 -3.30287 2.5554 0
M  V30 1666 N 162.591 -1.51276 -0.441967 0
M  V30 1667 C 163.521 -1.752 -1.54361 0
M  V30 1668 C 164.502 -0.601682 -1.59103 0
M  V30 1669 O 165.687 -0.843913 -1.74905 0
M  V30 1670 C 162.817 -1.87282 -2.92477 0
M  V30 1671 C 161.771 -3.02687 -3.02596 0
M  V30 1672 C 161.097 -2.99947 -4.42647 0
M  V30 1673 C 162.397 -4.4273 -2.77106 0
M  V30 1674 H 164.091 -2.67442 -1.34592 0
M  V30 1675 H 161.637 -1.28694 -0.646048 0
M  V30 1676 H 163.59 -2.02602 -3.695 0
M  V30 1677 H 162.314 -0.916844 -3.13467 0
M  V30 1678 H 160.973 -2.87065 -2.28012 0
M  V30 1679 H 160.621 -2.02136 -4.60597 0
M  V30 1680 H 160.321 -3.77439 -4.50348 0
M  V30 1681 H 161.845 -3.17354 -5.2165 0
M  V30 1682 H 163.259 -4.58727 -3.43864 0
M  V30 1683 H 161.656 -5.21893 -2.96222 0
M  V30 1684 H 162.726 -4.53087 -1.72744 0
M  V30 1685 N 164.069 0.697108 -1.41344 0
M  V30 1686 C 165.299 1.48377 -1.43763 0
M  V30 1687 C 165.707 1.89156 -0.0408726 0
M  V30 1688 O 165.05 1.57239 0.949812 0
M  V30 1689 C 165.112 2.7781 -2.2817 0
M  V30 1690 C 164.776 2.59244 -3.76353 0
M  V30 1691 C 165.773 2.25292 -4.68551 0
M  V30 1692 C 163.458 2.74933 -4.20378 0
M  V30 1693 C 165.452 2.07264 -6.02761 0
M  V30 1694 C 163.139 2.56521 -5.54653 0
M  V30 1695 C 164.137 2.22737 -6.4566 0
M  V30 1696 O 163.825 2.04485 -7.77458 0
M  V30 1697 H 163.557 0.463842 -0.491759 0
M  V30 1698 H 166.111 0.865934 -1.86255 0
M  V30 1699 H 164.341 3.41995 -1.8049 0
M  V30 1700 H 166.03 3.39608 -2.22309 0
M  V30 1701 H 166.796 2.12787 -4.35829 0
M  V30 1702 H 162.675 3.00213 -3.49848 0
M  V30 1703 H 166.219 1.80817 -6.73759 0
M  V30 1704 H 162.116 2.68616 -5.86955 0
M  V30 1705 H 162.884 2.1926 -7.88586 0
M  V30 1706 N 165.547 1.27147 0.931209 0
M  V30 1707 C 166.958 1.12044 1.49342 0
M  V30 1708 C 167.309 -0.295795 1.93957 0
M  V30 1709 O 166.434 -1.18835 1.80852 0
M  V30 1710 C 167.029 2.02781 2.71414 0
M  V30 1711 C 165.588 1.91794 3.2387 0
M  V30 1712 C 164.735 1.95543 1.96617 0
M  V30 1713 H 167.686 1.40091 0.745672 0
M  V30 1714 H 167.707 1.58156 3.46074 0
M  V30 1715 H 167.219 3.05848 2.38911 0
M  V30 1716 H 165.32 0.916992 3.6114 0
M  V30 1717 H 165.433 2.77852 3.90302 0
M  V30 1718 H 163.797 1.39722 2.12955 0
M  V30 1719 H 164.58 3.00259 1.66432 0
M  V30 1720 N 167.025 -1.13721 1.09112 0
M  V30 1721 C 168.302 -1.81155 0.737706 0
M  V30 1722 C 168.682 -1.96253 -0.777683 0
M  V30 1723 O 168.03 -1.52807 -1.69889 0
M  V30 1724 C 168.24 -3.16392 1.47299 0
M  V30 1725 C 169.588 -3.91787 1.63671 0
M  V30 1726 O 170.612 -3.26005 1.43524 0
M  V30 1727 O 169.471 -5.0977 1.96969 0
M  V30 1728 H 166.565 -0.783518 0.26463 0
M  V30 1729 H 169.111 -1.20676 1.19312 0
M  V30 1730 H 167.883 -3.0061 2.50498 0
M  V30 1731 H 167.506 -3.8457 1.00953 0
M  V30 1732 N 168.503 -0.877838 -1.30888 0
M  V30 1733 C 169.752 -0.488793 -1.95688 0
M  V30 1734 C 170.065 0.965485 -1.70111 0
M  V30 1735 O 171.271 1.46104 -2.28836 0
M  V30 1736 C 169.727 -0.823201 -3.50359 0
M  V30 1737 C 169.335 -2.29477 -3.84765 0
M  V30 1738 C 171.079 -0.503009 -4.21509 0
M  V30 1739 C 168.986 -2.57118 -5.32583 0
M  V30 1740 H 167.916 -0.179062 -0.732429 0
M  V30 1741 H 170.567 -1.07183 -1.48943 0
M  V30 1742 H 168.949 -0.169331 -3.95638 0
M  V30 1743 H 170.123 -2.99236 -3.5042 0
M  V30 1744 H 168.438 -2.58178 -3.267 0
M  V30 1745 H 171.035 -0.68665 -5.30273 0
M  V30 1746 H 171.378 0.557109 -4.12555 0
M  V30 1747 H 171.911 -1.11376 -3.8189 0
M  V30 1748 H 168.65 -3.61843 -5.4658 0
M  V30 1749 H 168.17 -1.91961 -5.68253 0
M  V30 1750 H 169.849 -2.42251 -5.99936 0
M  V30 1751 N 169.982 1.44106 -0.638065 0
M  V30 1752 C 170.945 2.29138 0.0531013 0
M  V30 1753 C 171.945 1.41409 0.765506 0
M  V30 1754 O 173.135 1.63206 0.609046 0
M  V30 1755 C 170.267 3.23144 1.08584 0
M  V30 1756 H 171.46 2.91739 -0.694883 0
M  V30 1757 H 169.013 1.51134 -0.398538 0
M  V30 1758 H 169.748 2.65408 1.86357 0
M  V30 1759 H 169.533 3.87804 0.578852 0
M  V30 1760 H 171.023 3.87004 1.56899 0
M  V30 1761 N 171.46 0.379036 1.52974 0
M  V30 1762 C 172.37 -0.468639 2.29872 0
M  V30 1763 C 173.386 -1.08067 1.36373 0
M  V30 1764 O 174.562 -1.08871 1.69438 0
M  V30 1765 C 171.627 -1.58594 3.083 0
M  V30 1766 C 170.688 -1.00007 4.17489 0
M  V30 1767 C 169.921 -2.06413 4.92168 0
M  V30 1768 O 170.144 -3.27751 4.66835 0
M  V30 1769 O 169.078 -1.68717 5.7777 0
M  V30 1770 H 172.904 0.157508 3.03291 0
M  V30 1771 H 170.489 0.143035 1.48714 0
M  V30 1772 H 172.371 -2.23525 3.57232 0
M  V30 1773 H 171.046 -2.19724 2.37703 0
M  V30 1774 H 169.953 -0.314299 3.72777 0
M  V30 1775 H 171.286 -0.433135 4.90291 0
M  V30 1776 N 172.938 -1.57226 0.108567 0
M  V30 1777 C 173.901 -2.13602 -0.831082 0
M  V30 1778 C 174.901 -1.06841 -1.20173 0
M  V30 1779 O 176.091 -1.32666 -1.12895 0
M  V30 1780 C 173.223 -2.66769 -2.12243 0
M  V30 1781 H 174.416 -2.97951 -0.341317 0
M  V30 1782 H 171.969 -1.55667 -0.14057 0
M  V30 1783 H 172.704 -1.85977 -2.65675 0
M  V30 1784 H 172.489 -3.44839 -1.86625 0
M  V30 1785 H 173.979 -3.10332 -2.79435 0
M  V30 1786 N 174.416 0.165178 -1.56732 0
M  V30 1787 C 175.693 0.908443 -1.73224 0
M  V30 1788 C 176.073 2.0013 -0.67165 0
M  V30 1789 O 175.421 2.26353 0.31253 0
M  V30 1790 C 175.631 1.46756 -3.16644 0
M  V30 1791 C 176.979 1.93809 -3.77787 0
M  V30 1792 O 178.003 1.56537 -3.1996 0
M  V30 1793 O 176.862 2.62486 -4.79336 0
M  V30 1794 H 173.956 0.428025 -0.707618 0
M  V30 1795 H 176.502 0.152526 -1.69013 0
M  V30 1796 H 175.274 0.68129 -3.85323 0
M  V30 1797 H 174.897 2.28749 -3.25207 0
M  V30 1798 N 175.894 1.51508 0.433938 0
M  V30 1799 C 177.134 1.66006 1.19253 0
M  V30 1800 C 177.498 0.369868 1.88404 0
M  V30 1801 O 178.699 0.39066 2.65946 0
M  V30 1802 C 176.97 2.83229 2.17981 0
M  V30 1803 S 178.529 3.18075 3.02281 0
M  V30 1804 H 175.347 0.584821 0.404358 0
M  V30 1805 H 177.949 1.89425 0.48357 0
M  V30 1806 H 176.653 3.75407 1.65824 0
M  V30 1807 H 176.184 2.6201 2.93453 0
M  V30 1808 H 178.199 2.64772 4.19655 0
M  V30 1809 N 177.372 -0.689602 1.41712 0
M  V30 1810 C 178.788 -1.00093 1.24312 0
M  V30 1811 C 178.988 -2.01036 0.136729 0
M  V30 1812 O 178.044 -2.47562 -0.496918 0
M  V30 1813 C 179.357 -1.51985 2.59463 0
M  V30 1814 C 180.905 -1.63838 2.66695 0
M  V30 1815 C 181.38 -2.1913 4.02177 0
M  V30 1816 N 182.871 -2.26483 4.04054 0
M  V30 1817 C 183.606 -2.70306 5.0569 0
M  V30 1818 N 183.102 -3.13691 6.17713 0
M  V30 1819 N 184.895 -2.69923 4.9305 0
M  V30 1820 H 177.046 -0.0210029 2.1239 0
M  V30 1821 H 179.309 -0.0718733 0.945272 0
M  V30 1822 H 179.015 -0.85269 3.41207 0
M  V30 1823 H 178.889 -2.50103 2.82362 0
M  V30 1824 H 181.276 -2.29664 1.85306 0
M  V30 1825 H 181.357 -0.642492 2.476 0
M  V30 1826 H 181.001 -1.53918 4.84016 0
M  V30 1827 H 180.931 -3.19482 4.18615 0
M  V30 1828 H 183.422 -1.95874 3.23174 0
M  V30 1829 H 183.735 -3.45773 6.9113 0
M  V30 1830 H 182.08 -3.11585 6.21241 0
M  V30 1831 H 185.271 -2.35382 4.04614 0
M  V30 1832 H 185.444 -3.03758 5.72394 0
M  V30 1833 N 178.85 -1.27639 -0.924453 0
M  V30 1834 C 179.78 -1.13166 -2.04244 0
M  V30 1835 C 180.761 -0.032256 -1.70069 0
M  V30 1836 O 181.946 -0.207328 -1.9309 0
M  V30 1837 C 179.076 -0.781496 -3.38393 0
M  V30 1838 C 178.03 -1.83449 -3.86692 0
M  V30 1839 C 177.356 -1.33822 -5.17683 0
M  V30 1840 C 178.656 -3.23917 -4.09726 0
M  V30 1841 H 180.35 -2.06689 -2.1661 0
M  V30 1842 H 177.896 -0.995136 -1.04082 0
M  V30 1843 H 179.849 -0.667057 -4.16087 0
M  V30 1844 H 178.573 0.189439 -3.2605 0
M  V30 1845 H 177.232 -1.93789 -3.11193 0
M  V30 1846 H 176.88 -0.35665 -5.01734 0
M  V30 1847 H 176.58 -2.04224 -5.50968 0
M  V30 1848 H 178.104 -1.23679 -5.97943 0
M  V30 1849 H 179.518 -3.16559 -4.77978 0
M  V30 1850 H 177.915 -3.92059 -4.54324 0
M  V30 1851 H 178.985 -3.68729 -3.14908 0
M  V30 1852 N 180.328 1.1314 -1.09713 0
M  V30 1853 C 181.574 1.84757 -0.836224 0
M  V30 1854 C 181.907 1.8347 0.636598 0
M  V30 1855 O 181.182 1.27491 1.46889 0
M  V30 1856 C 181.465 3.32782 -1.37578 0
M  V30 1857 C 181.318 3.42567 -2.91493 0
M  V30 1858 C 182.637 4.28307 -1.01198 0
M  V30 1859 H 179.756 0.67082 -0.305236 0
M  V30 1860 H 182.398 1.3278 -1.35903 0
M  V30 1861 H 180.548 3.77177 -0.931097 0
M  V30 1862 H 182.22 3.06862 -3.44432 0
M  V30 1863 H 180.463 2.83349 -3.28475 0
M  V30 1864 H 181.134 4.46674 -3.24324 0
M  V30 1865 H 183.61 3.91999 -1.39556 0
M  V30 1866 H 182.486 5.30307 -1.41653 0
M  V30 1867 H 182.747 4.42029 0.0794833 0
M  V30 1868 N 181.806 0.884767 1.30421 0
M  V30 1869 C 183.052 0.503851 1.96441 0
M  V30 1870 C 183.385 -0.944518 1.69684 0
M  V30 1871 O 182.66 -1.66737 1.00145 0
M  V30 1872 C 182.943 0.779085 3.51571 0
M  V30 1873 C 182.796 2.27807 3.87846 0
M  V30 1874 C 184.115 0.255452 4.39358 0
M  V30 1875 H 181.234 0.184533 0.713524 0
M  V30 1876 H 183.876 1.10872 1.54297 0
M  V30 1877 H 182.026 0.264274 3.876 0
M  V30 1878 H 183.698 2.86127 3.61841 0
M  V30 1879 H 181.941 2.74479 3.35922 0
M  V30 1880 H 182.612 2.42125 4.96064 0
M  V30 1881 H 185.088 0.696079 4.10236 0
M  V30 1882 H 183.964 0.477361 5.4682 0
M  V30 1883 H 184.225 -0.843293 4.33983 0
M  V30 1884 N 183.284 -1.43765 0.645699 0
M  V30 1885 C 184.217 -2.2798 -0.100072 0
M  V30 1886 C 185.195 -1.39391 -0.837194 0
M  V30 1887 O 186.379 -1.68833 -0.838306 0
M  V30 1888 C 183.506 -3.18643 -1.14823 0
M  V30 1889 C 182.552 -4.2344 -0.510009 0
M  V30 1890 S 183.385 -5.30761 0.710824 0
M  V30 1891 C 184.541 -6.24992 -0.33699 0
M  V30 1892 H 184.774 -2.90884 0.614322 0
M  V30 1893 H 182.307 -1.48166 0.434304 0
M  V30 1894 H 184.265 -3.71424 -1.74799 0
M  V30 1895 H 182.926 -2.54932 -1.8349 0
M  V30 1896 H 182.119 -4.86948 -1.29991 0
M  V30 1897 H 181.721 -3.73997 0.0154577 0
M  V30 1898 H 184.013 -6.66691 -1.20537 0
M  V30 1899 H 184.956 -7.07612 0.262879 0
M  V30 1900 H 185.364 -5.60517 -0.669425 0
M  V30 1901 N 184.763 -0.387143 -1.52771 0
M  V30 1902 C 185.713 0.465942 -2.23188 0
M  V30 1903 C 186.697 1.03138 -1.23496 0
M  V30 1904 O 187.889 0.957845 -1.48843 0
M  V30 1905 C 185.018 1.59384 -3.04059 0
M  V30 1906 C 184.104 1.04024 -4.11144 0
M  V30 1907 N 184.495 0.211416 -5.05358 0
M  V30 1908 C 182.793 1.31295 -4.26237 0
M  V30 1909 C 183.494 -0.0941698 -5.81624 0
M  V30 1910 N 182.47 0.509207 -5.4121 0
M  V30 1911 H 186.272 -0.173856 -2.93385 0
M  V30 1912 H 183.786 -0.19633 -1.61209 0
M  V30 1913 H 185.783 2.21738 -3.53041 0
M  V30 1914 H 184.443 2.23648 -2.35397 0
M  V30 1915 H 185.454 -0.151151 -5.17679 0
M  V30 1916 H 182.131 1.95679 -3.68803 0
M  V30 1917 H 183.521 -0.765572 -6.67524 0
M  V30 1918 N 186.241 1.57166 -0.116904 0
M  V30 1919 C 187.466 1.999 0.55271 0
M  V30 1920 C 187.891 0.996039 1.59564 0
M  V30 1921 O 187.249 -0.032556 1.81271 0
M  V30 1922 C 187.297 3.4152 1.15742 0
M  V30 1923 O 186.401 3.44106 2.27299 0
M  V30 1924 H 185.742 0.649447 0.138258 0
M  V30 1925 H 188.272 2.03573 -0.204759 0
M  V30 1926 H 188.282 3.79684 1.49346 0
M  V30 1927 H 186.957 4.14034 0.393493 0
M  V30 1928 H 185.534 3.17759 1.9515 0
M  V30 1929 N 187.719 -0.156864 1.56817 0
M  V30 1930 C 188.682 -1.17781 1.96622 0
M  V30 1931 C 189.682 -1.36401 0.851555 0
M  V30 1932 O 190.872 -1.33561 1.11836 0
M  V30 1933 C 188.004 -2.54008 2.27361 0
M  V30 1934 H 189.197 -0.836564 2.87996 0
M  V30 1935 H 186.75 -0.39985 1.51099 0
M  V30 1936 H 187.485 -2.9312 1.38748 0
M  V30 1937 H 187.27 -2.41856 3.08623 0
M  V30 1938 H 188.76 -3.27558 2.59029 0
M  V30 1939 N 189.197 -1.51736 -0.425897 0
M  V30 1940 C 190.129 -1.70083 -1.53638 0
M  V30 1941 C 191.142 -0.581349 -1.52066 0
M  V30 1942 O 192.331 -0.856017 -1.56635 0
M  V30 1943 C 189.431 -1.71078 -2.9255 0
M  V30 1944 C 188.604 -2.99795 -3.185 0
M  V30 1945 C 187.663 -2.92825 -4.37196 0
M  V30 1946 O 186.689 -3.66756 -4.35291 0
M  V30 1947 N 187.891 -2.0946 -5.41393 0
M  V30 1948 H 190.656 -2.65882 -1.383 0
M  V30 1949 H 188.217 -1.49765 -0.614988 0
M  V30 1950 H 190.209 -1.63969 -3.69995 0
M  V30 1951 H 188.779 -0.828242 -3.01428 0
M  V30 1952 H 187.999 -3.20684 -2.2925 0
M  V30 1953 H 189.287 -3.84977 -3.32671 0
M  V30 1954 H 188.685 -1.48792 -5.45781 0
M  V30 1955 H 187.242 -2.08221 -6.17647 0
M  V30 1956 N 190.675 0.682077 -1.42076 0
M  V30 1957 C 192.091 0.994324 -1.24841 0
M  V30 1958 C 192.291 2.0096 -0.147389 0
M  V30 1959 O 191.347 2.47822 0.483782 0
M  V30 1960 C 192.66 1.50607 -2.60265 0
M  V30 1961 C 194.208 1.62421 -2.6756 0
M  V30 1962 C 194.683 2.16994 -4.03333 0
M  V30 1963 N 196.174 2.24337 -4.0525 0
M  V30 1964 C 196.909 2.67621 -5.07116 0
M  V30 1965 N 196.405 3.1041 -6.19368 0
M  V30 1966 N 198.198 2.67305 -4.94474 0
M  V30 1967 H 190.349 0.00973908 -2.12398 0
M  V30 1968 H 192.612 0.0668593 -0.945639 0
M  V30 1969 H 192.318 0.834583 -3.41654 0
M  V30 1970 H 192.192 2.48602 -2.83684 0
M  V30 1971 H 194.579 2.28678 -1.86521 0
M  V30 1972 H 194.66 0.629352 -2.47937 0
M  V30 1973 H 194.304 1.51349 -4.84826 0
M  V30 1974 H 194.234 3.17258 -4.20304 0
M  V30 1975 H 196.725 1.94158 -3.24209 0
M  V30 1976 H 197.038 3.42103 -6.92954 0
M  V30 1977 H 195.383 3.08286 -6.22884 0
M  V30 1978 H 198.574 2.33233 -4.05857 0
M  V30 1979 H 198.747 3.00718 -5.73997 0
M  V30 1980 N 192.153 1.28127 0.917671 0
M  V30 1981 C 193.43 1.05761 1.64542 0
M  V30 1982 C 193.81 -0.404344 2.07191 0
M  V30 1983 O 193.158 -1.38963 1.81388 0
M  V30 1984 C 193.368 2.02857 2.83989 0
M  V30 1985 C 194.716 2.32786 3.551 0
M  V30 1986 O 195.74 2.0091 2.94132 0
M  V30 1987 O 194.599 2.87169 4.64969 0
M  V30 1988 H 191.693 0.403916 0.721652 0
M  V30 1989 H 194.239 1.39431 0.967322 0
M  V30 1990 H 193.011 3.01407 2.49538 0
M  V30 1991 H 192.634 1.69809 3.59514 0
M  V30 1992 N 193.631 -1.12557 1.10312 0
M  V30 1993 C 194.879 -1.83675 0.843091 0
M  V30 1994 C 195.2 -1.84435 -0.633131 0
M  V30 1995 O 194.47 -1.30657 -1.45964 0
M  V30 1996 H 193.05 -0.680138 0.308904 0
M  V30 1997 H 195.712 -1.36301 1.39313 0
M  V30 1998 H 194.808 -2.87908 1.2048 0
M  V30 1999 N 195.109 -0.891671 -1.2995 0
M  V30 2000 C 196.358 -0.509521 -1.95158 0
M  V30 2001 C 196.671 0.947388 -1.71125 0
M  V30 2002 O 197.877 1.43669 -2.30372 0
M  V30 2003 C 196.333 -0.860315 -3.49466 0
M  V30 2004 C 195.941 -2.33545 -3.8231 0
M  V30 2005 C 197.685 -0.547687 -4.20952 0
M  V30 2006 C 195.592 -2.62752 -5.29826 0
M  V30 2007 H 194.522 -0.18682 -0.730489 0
M  V30 2008 H 197.173 -1.08756 -1.47798 0
M  V30 2009 H 195.555 -0.211285 -3.95436 0
M  V30 2010 H 196.729 -3.02936 -3.47227 0
M  V30 2011 H 195.044 -2.61629 -3.23944 0
M  V30 2012 H 197.641 -0.742854 -5.29515 0
M  V30 2013 H 197.984 0.51332 -4.13123 0
M  V30 2014 H 198.517 -1.1542 -3.80688 0
M  V30 2015 H 195.256 -3.6762 -5.42712 0
M  V30 2016 H 194.776 -1.97977 -5.66185 0
M  V30 2017 H 196.455 -2.48601 -5.97333 0
M  V30 2018 N 196.587 1.43421 -0.653314 0
M  V30 2019 C 197.55 2.29182 0.0287951 0
M  V30 2020 C 198.55 1.42213 0.750465 0
M  V30 2021 O 199.74 1.63843 0.591701 0
M  V30 2022 C 196.872 3.24278 1.05151 0
M  V30 2023 H 198.065 2.90985 -0.725786 0
M  V30 2024 H 195.618 1.50702 -0.414545 0
M  V30 2025 H 196.353 2.6737 1.83532 0
M  V30 2026 H 196.138 3.88396 0.537687 0
M  V30 2027 H 197.628 3.88647 1.52786 0
M  V30 2028 N 198.065 0.39524 1.52563 0
M  V30 2029 C 199.293 -0.184943 2.06072 0
M  V30 2030 C 199.708 -1.40021 1.26647 0
M  V30 2031 O 199.065 -1.79767 0.314672 0
M  V30 2032 C 199.116 -0.549179 3.57304 0
M  V30 2033 O 198.837 0.617813 4.33722 0
M  V30 2034 C 200.338 -1.18459 4.2718 0
M  V30 2035 H 197.558 -0.0265025 0.670476 0
M  V30 2036 H 200.102 0.562184 1.96621 0
M  V30 2037 H 198.257 -1.2462 3.66809 0
M  V30 2038 H 198.671 0.317091 5.23541 0
M  V30 2039 H 200.145 -1.38976 5.34219 0
M  V30 2040 H 200.622 -2.15368 3.82771 0
M  V30 2041 H 201.228 -0.528163 4.22008 0
M  V30 2042 N 199.544 -1.57102 0.125237 0
M  V30 2043 C 200.96 -1.57915 -0.231322 0
M  V30 2044 C 201.16 -1.13833 -1.66266 0
M  V30 2045 O 200.216 -0.828581 -2.38518 0
M  V30 2046 C 201.529 -3.00699 0.00766489 0
M  V30 2047 C 203.077 -3.12947 -0.0577483 0
M  V30 2048 C 203.552 -4.57742 0.153626 0
M  V30 2049 N 205.043 -4.63092 0.0998073 0
M  V30 2050 C 205.778 -5.72905 0.238174 0
M  V30 2051 N 205.274 -6.91445 0.433057 0
M  V30 2052 N 207.067 -5.6182 0.177308 0
M  V30 2053 H 199.218 -1.84055 1.06007 0
M  V30 2054 H 201.481 -0.850905 0.417929 0
M  V30 2055 H 201.187 -3.3726 0.997431 0
M  V30 2056 H 201.061 -3.70236 -0.721452 0
M  V30 2057 H 203.448 -2.7624 -1.03804 0
M  V30 2058 H 203.529 -2.4594 0.70335 0
M  V30 2059 H 203.173 -4.95149 1.13092 0
M  V30 2060 H 203.103 -5.22848 -0.627534 0
M  V30 2061 H 205.594 -3.77871 -0.047051 0
M  V30 2062 H 205.907 -7.70985 0.529332 0
M  V30 2063 H 204.252 -6.93415 0.469109 0
M  V30 2064 H 207.443 -4.68093 0.0259748 0
M  V30 2065 H 207.616 -6.47357 0.288582 0
M  V30 2066 N 201.022 0.148545 -1.56898 0
M  V30 2067 C 202.25 0.876389 -1.87422 0
M  V30 2068 C 202.665 1.74809 -0.713256 0
M  V30 2069 O 202.022 1.79725 0.317025 0
M  V30 2070 C 202.073 1.73438 -3.17178 0
M  V30 2071 O 201.794 0.897809 -4.28802 0
M  V30 2072 C 203.295 2.56993 -3.61205 0
M  V30 2073 H 200.515 0.253489 -0.621277 0
M  V30 2074 H 203.059 0.141798 -2.04008 0
M  V30 2075 H 201.214 2.42205 -3.0235 0
M  V30 2076 H 201.628 1.48672 -5.02988 0
M  V30 2077 H 203.102 3.12773 -4.54838 0
M  V30 2078 H 203.579 3.32958 -2.86419 0
M  V30 2079 H 204.185 1.9352 -3.78722 0
M  V30 2080 N 202.5 1.5196 0.417844 0
M  V30 2081 C 203.748 1.65263 1.16329 0
M  V30 2082 C 204.069 0.380634 1.91249 0
M  V30 2083 O 203.339 -0.604214 1.86349 0
M  V30 2084 H 201.919 0.60912 0.432414 0
M  V30 2085 H 204.581 1.88969 0.477162 0
M  V30 2086 H 203.677 2.4896 1.88217 0
M  V30 2087 N 203.978 -0.674533 1.42435 0
M  V30 2088 C 204.928 -1.7807 1.4239 0
M  V30 2089 C 205.912 -1.58169 0.295202 0
M  V30 2090 O 207.104 -1.68643 0.537449 0
M  V30 2091 C 204.233 -3.16532 1.32901 0
M  V30 2092 C 203.319 -3.42055 2.50717 0
M  V30 2093 N 203.71 -3.38162 3.76139 0
M  V30 2094 C 202.008 -3.72692 2.44983 0
M  V30 2095 C 202.709 -3.63177 4.54398 0
M  V30 2096 N 201.685 -3.83954 3.84812 0
M  V30 2097 H 205.487 -1.73454 2.37257 0
M  V30 2098 H 203.001 -0.875381 1.36788 0
M  V30 2099 H 204.998 -3.958 1.30951 0
M  V30 2100 H 203.658 -3.22345 0.390363 0
M  V30 2101 H 204.669 -3.18057 4.0873 0
M  V30 2102 H 201.346 -3.85749 1.59699 0
M  V30 2103 H 202.736 -3.66125 5.63384 0
M  V30 2104 N 205.456 -1.28612 -0.910864 0
M  V30 2105 C 206.386 -1.15326 -2.03032 0
M  V30 2106 C 207.367 -0.0502924 -1.70026 0
M  V30 2107 O 208.552 -0.227797 -1.92859 0
M  V30 2108 C 205.682 -0.817343 -3.37545 0
M  V30 2109 C 204.636 -1.8754 -3.84724 0
M  V30 2110 C 203.962 -1.39305 -5.16235 0
M  V30 2111 C 205.262 -3.28244 -4.06267 0
M  V30 2112 H 206.956 -2.08975 -2.14406 0
M  V30 2113 H 204.502 -1.00612 -1.03021 0
M  V30 2114 H 206.455 -0.711151 -4.15356 0
M  V30 2115 H 205.179 0.154846 -3.26233 0
M  V30 2116 H 203.838 -1.97079 -3.09121 0
M  V30 2117 H 203.486 -0.409846 -5.01328 0
M  V30 2118 H 203.186 -2.10057 -5.48771 0
M  V30 2119 H 204.71 -1.30014 -5.96598 0
M  V30 2120 H 206.124 -3.21611 -4.74594 0
M  V30 2121 H 204.521 -3.96855 -4.5014 0
M  V30 2122 H 205.591 -3.72048 -3.10979 0
M  V30 2123 N 206.934 1.1197 -1.10907 0
M  V30 2124 C 208.35 1.35591 -0.841852 0
M  V30 2125 C 208.55 1.94233 0.536246 0
M  V30 2126 O 207.606 2.1717 1.28816 0
M  V30 2127 C 208.919 2.29284 -1.94549 0
M  V30 2128 C 210.467 2.42862 -1.97451 0
M  V30 2129 C 210.942 3.39873 -3.07002 0
M  V30 2130 N 212.433 3.47433 -3.06341 0
M  V30 2131 C 213.168 4.22421 -3.87748 0
M  V30 2132 N 212.664 5.00432 -4.79103 0
M  V30 2133 N 214.457 4.17876 -3.75946 0
M  V30 2134 H 206.608 0.722664 -1.99728 0
M  V30 2135 H 208.871 0.380635 -0.868229 0
M  V30 2136 H 208.577 1.93378 -2.93765 0
M  V30 2137 H 208.451 3.29452 -1.83688 0
M  V30 2138 H 210.838 2.78046 -0.988645 0
M  V30 2139 H 210.919 1.42566 -2.12388 0
M  V30 2140 H 210.563 3.05417 -4.05811 0
M  V30 2141 H 210.493 4.40011 -2.89306 0
M  V30 2142 H 212.984 2.91784 -2.40147 0
M  V30 2143 H 213.297 5.55002 -5.37766 0
M  V30 2144 H 211.642 4.99612 -4.83128 0
M  V30 2145 H 214.833 3.56016 -3.03924 0
M  V30 2146 H 215.006 4.76061 -4.39624 0
M  V30 2147 N 208.412 0.89855 1.29475 0
M  V30 2148 C 209.823 0.572537 1.77705 0
M  V30 2149 C 210.174 -0.911778 1.73727 0
M  V30 2150 O 209.299 -1.71288 1.32247 0
M  V30 2151 C 209.894 1.03252 3.22683 0
M  V30 2152 C 208.453 0.757687 3.68695 0
M  V30 2153 C 207.6 1.20787 2.49612 0
M  V30 2154 H 210.551 1.08139 1.16153 0
M  V30 2155 H 210.572 0.367307 3.78723 0
M  V30 2156 H 210.084 2.11285 3.25546 0
M  V30 2157 H 208.185 -0.310079 3.71308 0
M  V30 2158 H 208.298 1.35476 4.59547 0
M  V30 2159 H 206.662 0.626888 2.46865 0
M  V30 2160 H 207.445 2.29622 2.55203 0
M  V30 2161 N 209.89 -1.43072 0.660911 0
M  V30 2162 C 210.8 -2.34585 -0.0264163 0
M  V30 2163 C 211.816 -1.54316 -0.803898 0
M  V30 2164 O 212.992 -1.86939 -0.749391 0
M  V30 2165 C 210.057 -3.32689 -0.975639 0
M  V30 2166 C 209.118 -4.2886 -0.194236 0
M  V30 2167 C 208.351 -5.22278 -1.09825 0
M  V30 2168 O 208.574 -5.20299 -2.33763 0
M  V30 2169 O 207.508 -5.99228 -0.566513 0
M  V30 2170 H 211.334 -2.94869 0.727034 0
M  V30 2171 H 208.919 -1.43342 0.42111 0
M  V30 2172 H 210.801 -3.92995 -1.52094 0
M  V30 2173 H 209.476 -2.74898 -1.70918 0
M  V30 2174 H 208.383 -3.72011 0.394835 0
M  V30 2175 H 209.716 -4.89655 0.499899 0
M  V30 2176 N 211.368 -0.403325 -1.52352 0
M  V30 2177 C 212.645 0.232611 -1.94212 0
M  V30 2178 C 213.025 1.63133 -1.33981 0
M  V30 2179 O 212.373 2.22659 -0.513344 0
M  V30 2180 C 212.583 0.244811 -3.4814 0
M  V30 2181 C 213.931 0.46698 -4.22024 0
M  V30 2182 O 214.955 0.324419 -3.5472 0
M  V30 2183 O 213.814 0.74747 -5.41364 0
M  V30 2184 H 210.908 0.148223 -0.813609 0
M  V30 2185 H 213.454 -0.458848 -1.63379 0
M  V30 2186 H 212.226 -0.734378 -3.84347 0
M  V30 2187 H 211.849 0.980611 -3.85318 0
M  V30 2188 N 212.846 1.57033 -0.133567 0
M  V30 2189 C 213.809 2.14897 0.796995 0
M  V30 2190 C 214.809 1.0874 1.18458 0
M  V30 2191 O 215.999 1.34446 1.1077 0
M  V30 2192 C 213.131 2.70112 2.07973 0
M  V30 2193 H 214.324 2.98457 0.293873 0
M  V30 2194 H 211.877 1.55871 0.115787 0
M  V30 2195 H 212.612 1.9018 2.62682 0
M  V30 2196 H 212.397 3.47764 1.81115 0
M  V30 2197 H 213.887 3.14738 2.74462 0
M  V30 2198 N 214.325 -0.140222 1.56975 0
M  V30 2199 C 215.255 -1.17456 2.01808 0
M  V30 2200 C 216.236 -1.44415 0.898794 0
M  V30 2201 O 217.421 -1.5522 1.16707 0
M  V30 2202 C 214.551 -2.50607 2.40444 0
M  V30 2203 C 213.505 -2.38155 3.55621 0
M  V30 2204 C 212.831 -3.76078 3.80091 0
M  V30 2205 C 214.131 -1.85991 4.88062 0
M  V30 2206 H 215.825 -0.801743 2.88466 0
M  V30 2207 H 213.371 -0.38422 1.38779 0
M  V30 2208 H 215.324 -3.23197 2.7041 0
M  V30 2209 H 214.048 -2.89737 1.50732 0
M  V30 2210 H 212.707 -1.68016 3.25832 0
M  V30 2211 H 212.355 -4.12656 2.87618 0
M  V30 2212 H 212.055 -3.68606 4.57606 0
M  V30 2213 H 213.579 -4.50206 4.12488 0
M  V30 2214 H 214.993 -2.4838 5.16701 0
M  V30 2215 H 213.39 -1.89393 5.6943 0
M  V30 2216 H 214.46 -0.816023 4.77984 0
M  V30 2217 N 215.803 -1.52179 -0.40978 0
M  V30 2218 C 217.08 -1.56769 -1.16974 0
M  V30 2219 C 217.46 -0.348322 -2.08206 0
M  V30 2220 O 216.808 0.664862 -2.18613 0
M  V30 2221 C 217.018 -2.89603 -1.9476 0
M  V30 2222 C 218.366 -3.42579 -2.50849 0
M  V30 2223 O 219.39 -2.91338 -2.04941 0
M  V30 2224 O 218.249 -4.32054 -3.34652 0
M  V30 2225 H 215.343 -0.631439 -0.534054 0
M  V30 2226 H 217.889 -1.64507 -0.416613 0
M  V30 2227 H 216.661 -3.698 -1.27921 0
M  V30 2228 H 216.284 -2.85155 -2.77079 0
M  V30 2229 N 217.281 0.66697 -1.42791 0
M  V30 2230 C 218.191 1.80962 -1.49299 0
M  V30 2231 C 219.207 1.69775 -0.381108 0
M  V30 2232 O 220.383 1.91188 -0.633188 0
M  V30 2233 C 217.448 3.17156 -1.40045 0
M  V30 2234 C 216.509 3.40242 -2.6179 0
M  V30 2235 C 215.742 4.69939 -2.52969 0
M  V30 2236 O 215.965 5.48372 -1.56985 0
M  V30 2237 O 214.899 4.94441 -3.43237 0
M  V30 2238 H 218.725 1.78427 -2.45759 0
M  V30 2239 H 216.31 0.823713 -1.24641 0
M  V30 2240 H 218.192 3.98413 -1.37276 0
M  V30 2241 H 216.867 3.20312 -0.467138 0
M  V30 2242 H 215.774 2.58802 -2.70134 0
M  V30 2243 H 217.107 3.41923 -3.54047 0
M  V30 2244 N 218.759 1.29093 0.90403 0
M  V30 2245 C 220.008 1.16187 1.64874 0
M  V30 2246 C 220.321 -0.286742 1.93487 0
M  V30 2247 O 221.527 -0.537062 2.66135 0
M  V30 2248 C 219.983 2.03177 2.97064 0
M  V30 2249 C 219.591 3.52836 2.76062 0
M  V30 2250 C 221.335 1.98984 3.74974 0
M  V30 2251 C 219.242 4.31945 4.03952 0
M  V30 2252 H 218.172 0.431246 0.618501 0
M  V30 2253 H 220.823 1.53699 1.00243 0
M  V30 2254 H 219.205 1.5853 3.62883 0
M  V30 2255 H 220.379 4.05507 2.18863 0
M  V30 2256 H 218.694 3.58656 2.11553 0
M  V30 2257 H 221.291 2.55351 4.69787 0
M  V30 2258 H 221.634 0.968815 4.0487 0
M  V30 2259 H 222.167 2.41652 3.15989 0
M  V30 2260 H 218.906 5.34667 3.79225 0
M  V30 2261 H 218.426 3.84045 4.60727 0
M  V30 2262 H 220.105 4.42379 4.72133 0
M  V30 2263 N 220.237 -1.11381 1.11499 0
M  V30 2264 C 221.483 -1.83403 0.865512 0
M  V30 2265 C 221.816 -1.84459 -0.607329 0
M  V30 2266 O 221.091 -1.29811 -1.44842 0
M  V30 2267 C 221.374 -3.30552 1.42855 0
M  V30 2268 C 221.227 -3.37886 2.96906 0
M  V30 2269 C 222.546 -4.26643 1.08 0
M  V30 2270 H 219.665 -0.665879 0.31587 0
M  V30 2271 H 222.307 -1.30601 1.37998 0
M  V30 2272 H 220.457 -3.75648 0.990985 0
M  V30 2273 H 222.129 -3.01343 3.49271 0
M  V30 2274 H 220.372 -2.78088 3.32941 0
M  V30 2275 H 221.043 -4.41458 3.31389 0
M  V30 2276 H 223.519 -3.89729 1.45775 0
M  V30 2277 H 222.395 -5.27986 1.50072 0
M  V30 2278 H 222.656 -4.42099 -0.00915037 0
M  V30 2279 N 221.715 -0.905404 -1.28997 0
M  V30 2280 C 223.131 -0.60233 -1.47798 0
M  V30 2281 C 223.331 0.854645 -1.82478 0
M  V30 2282 O 222.387 1.63439 -1.92468 0
M  V30 2283 C 223.7 -1.53306 -2.58685 0
M  V30 2284 C 225.248 -1.53887 -2.72558 0
M  V30 2285 C 225.723 -2.45602 -3.86579 0
M  V30 2286 N 227.214 -2.43681 -3.93921 0
M  V30 2287 C 227.949 -3.11347 -4.81509 0
M  V30 2288 N 227.445 -3.88313 -5.73746 0
M  V30 2289 N 229.238 -3.00476 -4.75048 0
M  V30 2290 H 221.389 -1.84765 -1.04764 0
M  V30 2291 H 223.652 -0.792025 -0.520961 0
M  V30 2292 H 223.358 -2.57141 -2.39941 0
M  V30 2293 H 223.232 -1.25787 -3.55609 0
M  V30 2294 H 225.619 -0.507941 -2.90696 0
M  V30 2295 H 225.7 -1.85447 -1.76191 0
M  V30 2296 H 225.344 -3.48792 -3.69197 0
M  V30 2297 H 225.274 -2.11349 -4.82327 0
M  V30 2298 H 227.765 -1.87767 -3.27951 0
M  V30 2299 H 228.078 -4.36985 -6.37389 0
M  V30 2300 H 226.423 -3.92419 -5.73614 0
M  V30 2301 H 229.614 -2.39858 -4.01977 0
M  V30 2302 H 229.787 -3.53485 -5.43095 0
M  V30 2303 N 223.193 1.4272 -0.668489 0
M  V30 2304 C 224.44 2.01624 -0.18814 0
M  V30 2305 C 224.768 1.5282 1.20317 0
M  V30 2306 O 224.023 0.718323 1.8204 0
M  V30 2307 C 224.322 3.57021 -0.164499 0
M  V30 2308 C 223.988 4.25232 -1.49962 0
M  V30 2309 C 222.65 4.4358 -1.8652 0
M  V30 2310 C 225.002 4.63727 -2.37921 0
M  V30 2311 C 222.33 4.97694 -3.10674 0
M  V30 2312 C 224.682 5.19218 -3.6138 0
M  V30 2313 C 223.346 5.3578 -3.98115 0
M  V30 2314 H 222.616 0.737795 -0.0688454 0
M  V30 2315 H 225.263 1.70991 -0.862225 0
M  V30 2316 H 223.568 3.87285 0.593079 0
M  V30 2317 H 225.265 4.00372 0.224271 0
M  V30 2318 H 221.855 4.11306 -1.20522 0
M  V30 2319 H 226.039 4.4923 -2.10964 0
M  V30 2320 H 221.295 5.08702 -3.39164 0
M  V30 2321 H 225.469 5.4799 -4.29743 0
M  V30 2322 H 223.096 5.77475 -4.94395 0
M  V30 2323 N 224.671 0.411399 1.52136 0
M  V30 2324 C 225.918 -0.163645 2.01838 0
M  V30 2325 C 226.246 -1.4495 1.29691 0
M  V30 2326 O 225.501 -1.91725 0.392431 0
M  V30 2327 C 225.8 -0.455872 3.54481 0
M  V30 2328 C 225.466 0.741055 4.44769 0
M  V30 2329 C 224.128 1.06936 4.69167 0
M  V30 2330 C 226.48 1.54075 4.97906 0
M  V30 2331 C 223.808 2.19851 5.43951 0
M  V30 2332 C 226.16 2.66067 5.73926 0
M  V30 2333 C 224.824 2.99381 5.96596 0
M  V30 2334 H 224.094 -0.0598821 0.738576 0
M  V30 2335 H 226.741 0.553283 1.83333 0
M  V30 2336 H 225.046 -1.2544 3.71177 0
M  V30 2337 H 226.743 -0.913802 3.90449 0
M  V30 2338 H 223.333 0.475192 4.25958 0
M  V30 2339 H 227.517 1.30033 4.78963 0
M  V30 2340 H 222.773 2.46006 5.59724 0
M  V30 2341 H 226.947 3.28419 6.14096 0
M  V30 2342 H 224.574 3.86992 6.54325 0
M  V30 2343 N 226.149 -1.5696 0.141893 0
M  V30 2344 C 227.059 -2.20066 -0.812905 0
M  V30 2345 C 228.075 -1.18344 -1.27557 0
M  V30 2346 O 229.251 -1.50902 -1.33381 0
M  V30 2347 C 226.316 -2.80583 -2.03652 0
M  V30 2348 C 225.377 -3.97414 -1.62359 0
M  V30 2349 C 224.61 -4.55036 -2.78887 0
M  V30 2350 O 224.833 -4.11538 -3.94959 0
M  V30 2351 O 223.767 -5.45376 -2.54653 0
M  V30 2352 H 227.593 -3.02157 -0.305746 0
M  V30 2353 H 225.178 -1.49159 -0.0848799 0
M  V30 2354 H 227.06 -3.19067 -2.75272 0
M  V30 2355 H 225.735 -2.01508 -2.5333 0
M  V30 2356 H 224.642 -3.63656 -0.877775 0
M  V30 2357 H 225.975 -4.77994 -1.17401 0
M  V30 2358 N 227.627 0.131896 -1.57047 0
M  V30 2359 C 228.59 1.14638 -1.98471 0
M  V30 2360 C 229.59 1.35029 -0.873148 0
M  V30 2361 O 230.78 1.31764 -1.13946 0
M  V30 2362 C 227.912 2.50358 -2.31373 0
M  V30 2363 H 229.105 0.79064 -2.8929 0
M  V30 2364 H 226.658 0.375761 -1.51716 0
M  V30 2365 H 227.393 2.90876 -1.43393 0
M  V30 2366 H 227.178 2.36915 -3.12432 0
M  V30 2367 H 228.668 3.23395 -2.64207 0
M  V30 2368 N 229.106 1.52395 0.401703 0
M  V30 2369 C 230.522 1.41363 0.740864 0
M  V30 2370 C 230.722 0.523982 1.94568 0
M  V30 2371 O 229.778 -0.00741204 2.52499 0
M  V30 2372 C 231.091 2.84011 0.987847 0
M  V30 2373 C 232.639 2.93404 1.09011 0
M  V30 2374 C 233.114 4.37036 1.3698 0
M  V30 2375 N 234.605 4.40304 1.43829 0
M  V30 2376 C 235.34 5.48508 1.67112 0
M  V30 2377 N 234.836 6.66819 1.87949 0
M  V30 2378 N 236.629 5.36034 1.69187 0
M  V30 2379 H 228.78 2.08765 -0.391262 0
M  V30 2380 H 231.043 0.941265 -0.112798 0
M  V30 2381 H 230.749 3.51265 0.174835 0
M  V30 2382 H 230.623 3.25502 1.906 0
M  V30 2383 H 233.01 2.26325 1.8937 0
M  V30 2384 H 233.091 2.55359 0.15015 0
M  V30 2385 H 232.735 5.04676 0.571353 0
M  V30 2386 H 232.665 4.72623 2.3224 0
M  V30 2387 H 235.156 3.55024 1.29486 0
M  V30 2388 H 235.469 7.45063 2.05185 0
M  V30 2389 H 233.814 6.6987 1.85199 0
M  V30 2390 H 237.005 4.42579 1.52451 0
M  V30 2391 H 237.178 6.20434 1.86993 0
M  V30 2392 N 230.584 -0.659388 1.43143 0
M  V30 2393 C 231.83 -1.42145 1.44647 0
M  V30 2394 C 232.163 -1.9408 0.0681907 0
M  V30 2395 O 231.438 -1.71899 -0.910007 0
M  V30 2396 C 231.721 -2.60735 2.48373 0
M  V30 2397 C 231.574 -2.14332 3.95451 0
M  V30 2398 C 232.893 -3.62951 2.48906 0
M  V30 2399 H 230.012 -0.51552 0.526696 0
M  V30 2400 H 232.654 -0.748069 1.74654 0
M  V30 2401 H 230.804 -3.18184 2.22916 0
M  V30 2402 H 232.476 -1.61932 4.31944 0
M  V30 2403 H 230.719 -1.4576 4.08578 0
M  V30 2404 H 231.39 -2.99583 4.63631 0
M  V30 2405 H 233.866 -3.1525 2.71582 0
M  V30 2406 H 232.742 -4.43487 3.23435 0
M  V30 2407 H 233.003 -4.15126 1.52061 0
M  V30 2408 N 232.062 -1.29571 -0.897171 0
M  V30 2409 C 233.287 -1.20705 -1.68656 0
M  V30 2410 C 233.712 0.228582 -1.86706 0
M  V30 2411 O 233.07 1.16494 -1.3892 0
M  V30 2412 C 233.118 -1.9282 -3.04717 0
M  V30 2413 O 232.222 -1.24697 -3.93096 0
M  V30 2414 H 231.563 -0.418126 -0.515816 0
M  V30 2415 H 234.093 -1.71183 -1.12061 0
M  V30 2416 H 234.103 -2.01372 -3.54843 0
M  V30 2417 H 232.778 -2.97239 -2.90899 0
M  V30 2418 H 231.355 -1.2442 -3.51531 0
M  V30 2419 N 233.54 1.10788 -1.12088 0
M  V30 2420 C 234.503 2.15207 -0.788577 0
M  V30 2421 C 235.503 1.59609 0.195317 0
M  V30 2422 O 236.693 1.74174 -0.0300193 0
M  V30 2423 C 233.825 3.4047 -0.171174 0
M  V30 2424 H 235.018 2.46116 -1.71368 0
M  V30 2425 H 232.571 1.26089 -0.923652 0
M  V30 2426 H 233.306 3.15176 0.763832 0
M  V30 2427 H 233.091 3.82109 -0.879514 0
M  V30 2428 H 234.581 4.17576 0.04496 0
M  V30 2429 N 235.018 0.912232 1.28515 0
M  V30 2430 C 235.948 0.416403 2.29757 0
M  V30 2431 C 236.929 -0.515194 1.6211 0
M  V30 2432 O 238.114 -0.423253 1.89532 0
M  V30 2433 C 235.244 -0.34572 3.45575 0
M  V30 2434 C 234.198 0.496599 4.25109 0
M  V30 2435 C 233.524 -0.393771 5.33248 0
M  V30 2436 C 234.824 1.75307 4.92001 0
M  V30 2437 H 236.518 1.26249 2.7148 0
M  V30 2438 H 234.064 0.608515 1.30511 0
M  V30 2439 H 236.017 -0.703422 4.15488 0
M  V30 2440 H 234.741 -1.2257 3.02728 0
M  V30 2441 H 233.4 0.8368 3.56922 0
M  V30 2442 H 233.048 -1.27225 4.86644 0
M  V30 2443 H 232.748 0.166209 5.87365 0
M  V30 2444 H 234.272 -0.747389 6.06009 0
M  V30 2445 H 235.686 1.46437 5.54283 0
M  V30 2446 H 234.083 2.25534 5.56106 0
M  V30 2447 H 235.153 2.48176 4.16577 0
M  V30 2448 N 236.496 -1.42363 0.676048 0
M  V30 2449 C 237.912 -1.55811 0.345718 0
M  V30 2450 C 238.112 -1.65544 -1.14879 0
M  V30 2451 O 237.168 -1.62306 -1.93424 0
M  V30 2452 C 238.481 -2.80746 1.07713 0
M  V30 2453 C 240.029 -2.9452 1.05958 0
M  V30 2454 C 240.504 -4.22318 1.77233 0
M  V30 2455 N 241.995 -4.29233 1.74108 0
M  V30 2456 C 242.73 -5.26935 2.26113 0
M  V30 2457 N 242.226 -6.30783 2.86505 0
M  V30 2458 N 244.019 -5.18741 2.1648 0
M  V30 2459 H 236.17 -1.34289 1.6456 0
M  V30 2460 H 238.433 -0.646506 0.69335 0
M  V30 2461 H 238.139 -2.79696 2.13221 0
M  V30 2462 H 238.013 -3.71676 0.64316 0
M  V30 2463 H 240.4 -2.95097 0.0128255 0
M  V30 2464 H 240.481 -2.04817 1.53244 0
M  V30 2465 H 240.125 -4.22502 2.81877 0
M  V30 2466 H 240.055 -5.10958 1.27396 0
M  V30 2467 H 242.546 -3.54814 1.30059 0
M  V30 2468 H 242.859 -7.01691 3.23805 0
M  V30 2469 H 241.204 -6.31341 2.90575 0
M  V30 2470 H 244.395 -4.36533 1.68987 0
M  V30 2471 H 244.568 -5.94721 2.57316 0
M  V30 2472 N 237.974 -0.419461 -1.51915 0
M  V30 2473 C 239.39 -0.0708431 -1.59443 0
M  V30 2474 C 239.59 1.41796 -1.43164 0
M  V30 2475 O 238.646 2.18596 -1.26381 0
M  V30 2476 C 239.959 -0.574991 -2.95151 0
M  V30 2477 C 241.507 -0.533867 -3.08413 0
M  V30 2478 C 241.982 -1.01469 -4.46618 0
M  V30 2479 N 243.473 -0.971939 -4.52888 0
M  V30 2480 C 244.208 -1.31505 -5.58116 0
M  V30 2481 N 243.704 -1.73014 -6.70849 0
M  V30 2482 N 245.497 -1.23436 -5.48379 0
M  V30 2483 H 237.648 -1.38836 -1.60743 0
M  V30 2484 H 239.911 -0.570998 -0.756747 0
M  V30 2485 H 239.617 -1.61597 -3.12377 0
M  V30 2486 H 239.491 0.00979777 -3.77199 0
M  V30 2487 H 241.878 0.498086 -2.90866 0
M  V30 2488 H 241.959 -1.15484 -2.28248 0
M  V30 2489 H 241.603 -2.04502 -4.6491 0
M  V30 2490 H 241.533 -0.370433 -5.25295 0
M  V30 2491 H 244.024 -0.666893 -3.71969 0
M  V30 2492 H 244.337 -1.97479 -7.47143 0
M  V30 2493 H 242.682 -1.76926 -6.72103 0
M  V30 2494 H 245.873 -0.908869 -4.59192 0
M  V30 2495 H 246.046 -1.50506 -6.30279 0
M  V30 2496 N 239.452 1.56882 -0.150215 0
M  V30 2497 C 240.677 2.01027 0.510184 0
M  V30 2498 C 241.102 1.02966 1.57415 0
M  V30 2499 O 240.46 0.00590158 1.81299 0
M  V30 2500 C 240.508 3.43899 1.08472 0
M  V30 2501 O 239.612 3.4885 2.19948 0
M  V30 2502 H 238.953 0.652233 0.124451 0
M  V30 2503 H 241.483 2.03093 -0.247894 0
M  V30 2504 H 241.493 3.82766 1.41259 0
M  V30 2505 H 240.168 4.14776 0.305582 0
M  V30 2506 H 238.745 3.21827 1.88366 0
M  V30 2507 N 240.93 -0.123565 1.57115 0
M  V30 2508 C 242.178 -0.83051 1.84247 0
M  V30 2509 C 242.499 -1.80629 0.73471 0
M  V30 2510 O 241.769 -1.94403 -0.241688 0
M  V30 2511 H 240.349 -0.309694 0.679778 0
M  V30 2512 H 243.011 -0.111976 1.94578 0
M  V30 2513 H 242.107 -1.37852 2.80006 0
M  V30 2514 N 242.408 -1.52605 -0.393616 0
M  V30 2515 C 243.654 -1.67672 -1.14079 0
M  V30 2516 C 243.987 -0.413121 -1.89755 0
M  V30 2517 O 243.262 0.588952 -1.85369 0
M  V30 2518 C 243.545 -2.9088 -2.12276 0
M  V30 2519 C 243.398 -4.27329 -1.40394 0
M  V30 2520 C 244.717 -3.09628 -3.12759 0
M  V30 2521 H 241.836 -0.610168 -0.413356 0
M  V30 2522 H 244.478 -1.85193 -0.424696 0
M  V30 2523 H 242.628 -2.76073 -2.73342 0
M  V30 2524 H 244.3 -4.53894 -0.82327 0
M  V30 2525 H 242.543 -4.2802 -0.705801 0
M  V30 2526 H 243.214 -5.09615 -2.12123 0
M  V30 2527 H 245.69 -3.23436 -2.61779 0
M  V30 2528 H 244.566 -3.97322 -3.78717 0
M  V30 2529 H 244.827 -2.23637 -3.81365 0
M  V30 2530 N 243.887 0.651787 -1.4349 0
M  V30 2531 C 244.85 1.74647 -1.48429 0
M  V30 2532 C 245.85 1.56513 -0.368817 0
M  V30 2533 O 247.04 1.62385 -0.630623 0
M  V30 2534 C 244.172 3.13533 -1.33827 0
M  V30 2535 H 245.365 1.71649 -2.4592 0
M  V30 2536 H 242.918 0.863573 -1.30277 0
M  V30 2537 H 243.653 3.22142 -0.37349 0
M  V30 2538 H 243.438 3.28101 -2.14691 0
M  V30 2539 H 244.928 3.93356 -1.40218 0
M  V30 2540 N 245.365 1.30045 0.890287 0
M  V30 2541 C 246.328 1.15963 1.977 0
M  V30 2542 C 247.328 0.0923777 1.60534 0
M  V30 2543 O 248.518 0.340071 1.70848 0
M  V30 2544 C 245.65 0.775451 3.31963 0
M  V30 2545 H 246.843 2.12502 2.11619 0
M  V30 2546 H 244.396 1.13366 1.07601 0
M  V30 2547 H 245.131 -0.189671 3.23745 0
M  V30 2548 H 244.916 1.54668 3.60306 0
M  V30 2549 H 246.406 0.700251 4.11687 0
M  V30 2550 N 246.843 -1.10192 1.12674 0
M  V30 2551 C 248.12 -1.78717 0.794965 0
M  V30 2552 C 248.5 -1.98628 -0.714853 0
M  V30 2553 O 247.848 -1.58135 -1.64941 0
M  V30 2554 C 248.058 -3.11546 1.5729 0
M  V30 2555 C 249.406 -3.86382 1.76052 0
M  V30 2556 O 250.43 -3.21274 1.53823 0
M  V30 2557 O 249.289 -5.03246 2.13087 0
M  V30 2558 H 246.383 -0.774702 0.289423 0
M  V30 2559 H 248.929 -1.16819 1.23091 0
M  V30 2560 H 247.701 -2.92489 2.59935 0
M  V30 2561 H 247.324 -3.81164 1.13137 0
M  V30 2562 N 248.321 -0.919034 -1.28029 0
M  V30 2563 C 249.737 -0.617972 -1.4715 0
M  V30 2564 C 249.937 0.835242 -1.83374 0
M  V30 2565 O 248.993 1.61388 -1.94191 0
M  V30 2566 C 250.306 -1.56041 -2.57044 0
M  V30 2567 C 251.854 -1.56769 -2.7091 0
M  V30 2568 C 252.329 -2.49688 -3.83953 0
M  V30 2569 N 253.82 -2.47845 -3.91314 0
M  V30 2570 C 254.555 -3.16437 -4.78179 0
M  V30 2571 N 254.051 -3.94376 -5.69596 0
M  V30 2572 N 255.844 -3.05498 -4.71834 0
M  V30 2573 H 247.995 -1.85866 -1.02798 0
M  V30 2574 H 250.258 -0.797506 -0.512531 0
M  V30 2575 H 249.964 -2.59671 -2.372 0
M  V30 2576 H 249.838 -1.29551 -3.54255 0
M  V30 2577 H 252.225 -0.538745 -2.90141 0
M  V30 2578 H 252.306 -1.87305 -1.74214 0
M  V30 2579 H 251.95 -3.52688 -3.65477 0
M  V30 2580 H 251.88 -2.16453 -4.80058 0
M  V30 2581 H 254.371 -1.91234 -3.25941 0
M  V30 2582 H 254.684 -4.43721 -6.32718 0
M  V30 2583 H 253.029 -3.98481 -5.69419 0
M  V30 2584 H 256.22 -2.44108 -3.99411 0
M  V30 2585 H 256.393 -3.59225 -5.39316 0
M  V30 2586 N 249.799 1.42003 -0.683588 0
M  V30 2587 C 250.729 2.33487 -0.024866 0
M  V30 2588 C 251.71 1.51163 0.779975 0
M  V30 2589 O 252.895 1.79739 0.735362 0
M  V30 2590 C 250.025 3.3487 0.920836 0
M  V30 2591 C 248.979 4.27414 0.223958 0
M  V30 2592 C 248.305 5.19074 1.2832 0
M  V30 2593 C 249.605 5.14445 -0.90242 0
M  V30 2594 H 251.299 2.88819 -0.788921 0
M  V30 2595 H 248.845 1.38873 -0.38083 0
M  V30 2596 H 250.798 3.97787 1.39081 0
M  V30 2597 H 249.522 2.77861 1.71642 0
M  V30 2598 H 248.181 3.65904 -0.225864 0
M  V30 2599 H 247.829 4.58387 2.071 0
M  V30 2600 H 247.529 5.81822 0.821995 0
M  V30 2601 H 249.053 5.84867 1.75392 0
M  V30 2602 H 250.467 5.70998 -0.513272 0
M  V30 2603 H 248.864 5.86072 -1.28997 0
M  V30 2604 H 249.934 4.52322 -1.74737 0
M  V30 2605 N 251.277 0.427512 1.51691 0
M  V30 2606 C 252.526 -0.143679 2.01188 0
M  V30 2607 C 252.839 -1.44642 1.31674 0
M  V30 2608 O 254.045 -2.09997 1.72086 0
M  V30 2609 C 252.501 -0.306602 3.58592 0
M  V30 2610 C 252.109 0.985125 4.37035 0
M  V30 2611 C 253.853 -0.832091 4.16265 0
M  V30 2612 C 251.76 0.788382 5.86122 0
M  V30 2613 H 250.69 -0.0574701 0.751807 0
M  V30 2614 H 253.341 0.555772 1.74881 0
M  V30 2615 H 251.723 -1.06882 3.81303 0
M  V30 2616 H 252.897 1.75492 4.26074 0
M  V30 2617 H 251.212 1.4384 3.90767 0
M  V30 2618 H 253.809 -0.995617 5.25349 0
M  V30 2619 H 254.152 -1.81186 3.74803 0
M  V30 2620 H 254.685 -0.128444 3.97593 0
M  V30 2621 H 251.424 1.74025 6.31978 0
M  V30 2622 H 250.944 0.0582143 5.99772 0
M  V30 2623 H 252.623 0.437722 6.45518 0
M  V30 2624 N 252.755 -1.56801 0.158532 0
M  V30 2625 C 253.685 -2.20347 -0.772609 0
M  V30 2626 C 254.666 -1.15518 -1.24859 0
M  V30 2627 O 255.851 -1.43902 -1.30406 0
M  V30 2628 C 252.981 -2.83417 -2.00729 0
M  V30 2629 C 251.935 -3.94174 -1.66765 0
M  V30 2630 C 251.261 -4.44233 -2.97592 0
M  V30 2631 C 252.561 -5.14392 -0.905447 0
M  V30 2632 H 254.255 -2.98413 -0.242959 0
M  V30 2633 H 251.801 -1.43537 -0.115419 0
M  V30 2634 H 253.754 -3.26543 -2.6636 0
M  V30 2635 H 252.478 -2.02701 -2.56086 0
M  V30 2636 H 251.137 -3.51684 -1.03508 0
M  V30 2637 H 250.785 -3.60325 -3.50963 0
M  V30 2638 H 250.485 -5.18945 -2.75626 0
M  V30 2639 H 252.009 -4.90037 -3.64274 0
M  V30 2640 H 253.423 -5.5429 -1.46408 0
M  V30 2641 H 251.82 -5.9494 -0.7853 0
M  V30 2642 H 252.89 -4.84795 0.100668 0
M  V30 2643 N 254.233 0.115231 -1.57178 0
M  V30 2644 C 255.51 0.852873 -1.76027 0
M  V30 2645 C 255.89 1.97892 -0.73498 0
M  V30 2646 O 255.238 2.27232 0.24036 0
M  V30 2647 C 255.448 1.36608 -3.21153 0
M  V30 2648 C 256.796 1.81692 -3.83762 0
M  V30 2649 O 257.82 1.46278 -3.24779 0
M  V30 2650 O 256.679 2.47104 -4.87444 0
M  V30 2651 H 253.773 0.405296 -0.720877 0
M  V30 2652 H 256.319 0.0986785 -1.69413 0
M  V30 2653 H 255.091 0.558357 -3.87296 0
M  V30 2654 H 254.714 2.18287 -3.3232 0
M  V30 2655 N 255.711 1.52812 0.385517 0
M  V30 2656 C 257.122 1.5993 0.963293 0
M  V30 2657 C 257.473 0.454302 1.90868 0
M  V30 2658 O 256.598 -0.422132 2.12243 0
M  V30 2659 C 257.193 2.89871 1.75387 0
M  V30 2660 C 255.752 2.99389 2.28129 0
M  V30 2661 C 254.899 2.55071 1.08783 0
M  V30 2662 H 257.85 1.5784 0.164948 0
M  V30 2663 H 257.871 2.76553 2.61341 0
M  V30 2664 H 257.383 3.73186 1.06554 0
M  V30 2665 H 255.484 2.20619 3.00263 0
M  V30 2666 H 255.597 4.04096 2.57377 0
M  V30 2667 H 253.961 2.09473 1.4489 0
M  V30 2668 H 254.744 3.40785 0.414807 0
M  V30 2669 N 257.189 -0.644168 1.43834 0
M  V30 2670 C 258.437 -1.40117 1.45642 0
M  V30 2671 C 258.758 -1.94814 0.0852413 0
M  V30 2672 O 258.028 -1.74988 -0.880688 0
M  V30 2673 H 256.608 -0.52005 0.536243 0
M  V30 2674 H 259.27 -0.7591 1.7951 0
M  V30 2675 H 258.366 -2.23902 2.17427 0
M  V30 2676 N 258.668 -1.30515 -0.883378 0
M  V30 2677 C 259.601 -1.11359 -1.99184 0
M  V30 2678 C 260.579 -0.0207858 -1.62587 0
M  V30 2679 O 261.763 -0.174646 -1.87689 0
M  V30 2680 C 258.89 -0.69871 -3.31415 0
M  V30 2681 C 257.936 -1.79261 -3.86998 0
M  V30 2682 S 258.769 -3.39536 -4.14096 0
M  V30 2683 C 259.925 -2.99954 -5.49344 0
M  V30 2684 H 260.158 -2.052 -2.15128 0
M  V30 2685 H 257.691 -1.14847 -1.03196 0
M  V30 2686 H 259.649 -0.466075 -4.07846 0
M  V30 2687 H 258.31 0.220368 -3.13326 0
M  V30 2688 H 257.503 -1.45464 -4.82552 0
M  V30 2689 H 257.105 -1.97961 -3.17313 0
M  V30 2690 H 259.397 -2.48013 -6.30473 0
M  V30 2691 H 260.34 -3.9442 -5.8808 0
M  V30 2692 H 260.748 -2.37775 -5.1198 0
M  V30 2693 N 260.146 1.09593 -1.13257 0
M  V30 2694 C 261.394 1.81375 -0.891492 0
M  V30 2695 C 261.715 1.86049 0.584009 0
M  V30 2696 O 260.985 1.34481 1.42449 0
M  V30 2697 H 259.565 0.671708 -0.326828 0
M  V30 2698 H 262.227 1.3256 -1.42877 0
M  V30 2699 H 261.323 2.84612 -1.28071 0
M  V30 2700 N 261.624 0.925811 1.2754 0
M  V30 2701 C 262.871 0.565255 1.94451 0
M  V30 2702 C 263.199 -0.89316 1.7278 0
M  V30 2703 O 262.454 -1.65213 1.04895 0
M  V30 2704 C 262.753 0.835296 3.47502 0
M  V30 2705 C 262.419 2.27515 3.89291 0
M  V30 2706 C 261.081 2.66879 4.00411 0
M  V30 2707 C 263.433 3.21158 4.10496 0
M  V30 2708 C 260.761 3.99014 4.30122 0
M  V30 2709 C 263.113 4.52871 4.4169 0
M  V30 2710 C 261.777 4.92072 4.51023 0
M  V30 2711 H 261.047 0.206841 0.711546 0
M  V30 2712 H 263.694 1.16942 1.51647 0
M  V30 2713 H 261.999 0.148442 3.91519 0
M  V30 2714 H 263.696 0.535322 3.97411 0
M  V30 2715 H 260.286 1.95976 3.81171 0
M  V30 2716 H 264.47 2.9195 4.01346 0
M  V30 2717 H 259.726 4.2907 4.35556 0
M  V30 2718 H 263.9 5.25436 4.57045 0
M  V30 2719 H 261.527 5.9449 4.738 0
M  V30 2720 N 263.102 -1.41638 0.69111 0
M  V30 2721 C 264.349 -2.01299 0.220193 0
M  V30 2722 C 264.677 -1.54715 -1.17871 0
M  V30 2723 O 263.932 -0.747193 -1.80874 0
M  V30 2724 C 264.231 -3.56714 0.221277 0
M  V30 2725 C 263.897 -4.22792 1.56709 0
M  V30 2726 C 262.559 -4.40557 1.93554 0
M  V30 2727 C 264.911 -4.59883 2.45268 0
M  V30 2728 C 262.239 -4.92688 3.18552 0
M  V30 2729 C 264.591 -5.13403 3.69595 0
M  V30 2730 C 263.255 -5.29379 4.06589 0
M  V30 2731 H 262.525 -0.736606 0.0805743 0
M  V30 2732 H 265.172 -1.69598 0.889319 0
M  V30 2733 H 263.477 -3.8818 -0.531391 0
M  V30 2734 H 265.174 -4.00678 -0.160547 0
M  V30 2735 H 261.764 -4.09336 1.2705 0
M  V30 2736 H 265.948 -4.45817 2.18084 0
M  V30 2737 H 261.204 -5.03242 3.47214 0
M  V30 2738 H 265.378 -5.41084 4.38407 0
M  V30 2739 H 263.005 -5.69537 5.03519 0
M  V30 2740 N 264.58 -0.43555 -1.51462 0
M  V30 2741 C 265.51 0.367376 -2.30592 0
M  V30 2742 C 266.491 1.02263 -1.35928 0
M  V30 2743 O 267.676 1.02661 -1.64847 0
M  V30 2744 C 264.806 1.46983 -3.14664 0
M  V30 2745 C 263.76 0.938161 -4.17591 0
M  V30 2746 C 263.086 2.13622 -4.90173 0
M  V30 2747 C 264.386 -0.0261621 -5.22293 0
M  V30 2748 H 266.08 -0.292969 -2.97963 0
M  V30 2749 H 263.626 -0.14234 -1.43295 0
M  V30 2750 H 265.579 2.03873 -3.688 0
M  V30 2751 H 264.303 2.15843 -2.4511 0
M  V30 2752 H 262.962 0.391481 -3.64504 0
M  V30 2753 H 262.61 2.81098 -4.17124 0
M  V30 2754 H 262.31 1.78688 -5.59772 0
M  V30 2755 H 263.834 2.7107 -5.47132 0
M  V30 2756 H 265.248 0.452384 -5.71512 0
M  V30 2757 H 263.645 -0.287992 -5.99409 0
M  V30 2758 H 264.715 -0.963391 -4.75233 0
M  V30 2759 N 266.058 1.56714 -0.166846 0
M  V30 2760 C 267.283 2.01557 0.488833 0
M  V30 2761 C 267.708 1.0463 1.56314 0
M  V30 2762 O 267.066 0.0251304 1.81283 0
M  V30 2763 C 267.114 3.4503 1.04818 0
M  V30 2764 O 266.218 3.51163 2.16236 0
M  V30 2765 H 265.559 0.653516 0.117526 0
M  V30 2766 H 268.089 2.02818 -0.269421 0
M  V30 2767 H 268.099 3.84243 1.37191 0
M  V30 2768 H 266.774 4.15077 0.261572 0
M  V30 2769 H 265.351 3.23807 1.84942 0
M  V30 2770 N 267.536 -0.106894 1.57237 0
M  V30 2771 C 268.947 -0.662723 1.74542 0
M  V30 2772 C 269.298 -1.7971 0.787319 0
M  V30 2773 O 268.423 -2.16368 -0.0369636 0
M  V30 2774 C 269.018 -1.20896 3.16496 0
M  V30 2775 C 267.577 -1.71096 3.35266 0
M  V30 2776 C 266.724 -0.615642 2.7038 0
M  V30 2777 H 269.675 0.119106 1.58252 0
M  V30 2778 H 269.696 -2.07847 3.18716 0
M  V30 2779 H 269.208 -0.383122 3.86204 0
M  V30 2780 H 267.309 -2.56119 2.70618 0
M  V30 2781 H 267.422 -1.81208 4.43509 0
M  V30 2782 H 265.786 -1.05222 2.31949 0
M  V30 2783 H 266.569 0.199419 3.4272 0
M  V30 2784 N 269.014 -1.53014 -0.377408 0
M  V30 2785 C 269.977 -1.77957 -1.44444 0
M  V30 2786 C 270.977 -0.649763 -1.47087 0
M  V30 2787 O 272.167 -0.917897 -1.48055 0
M  V30 2788 C 269.299 -1.89089 -2.83651 0
M  V30 2789 H 270.492 -2.73243 -1.23606 0
M  V30 2790 H 268.045 -1.43912 -0.609844 0
M  V30 2791 H 268.78 -0.958293 -3.09818 0
M  V30 2792 H 268.565 -2.71254 -2.83132 0
M  V30 2793 H 270.055 -2.1002 -3.60945 0
M  V30 2794 N 270.492 0.636531 -1.44174 0
M  V30 2795 C 271.903 1.21806 -1.41493 0
M  V30 2796 C 272.254 1.95785 -0.1275 0
M  V30 2797 O 271.379 2.02147 0.772376 0
M  V30 2798 C 271.974 2.21551 -2.56321 0
M  V30 2799 C 270.533 2.75143 -2.56853 0
M  V30 2800 C 269.68 1.50052 -2.33195 0
M  V30 2801 H 272.631 0.427531 -1.52833 0
M  V30 2802 H 272.652 3.0405 -2.28765 0
M  V30 2803 H 272.164 1.67679 -3.50008 0
M  V30 2804 H 270.265 3.33033 -1.67093 0
M  V30 2805 H 270.378 3.2155 -3.55165 0
M  V30 2806 H 268.742 1.77993 -1.82183 0
M  V30 2807 H 269.525 0.980903 -3.28988 0
M  V30 2808 N 271.97 1.30982 0.876444 0
M  V30 2809 C 272.88 1.2003 2.01569 0
M  V30 2810 C 273.896 0.11838 1.73597 0
M  V30 2811 O 275.072 0.33495 1.98595 0
M  V30 2812 C 272.137 0.901637 3.34771 0
M  V30 2813 C 271.198 2.06979 3.76109 0
M  V30 2814 C 270.431 1.78529 5.02954 0
M  V30 2815 O 270.654 0.717296 5.65872 0
M  V30 2816 O 269.588 2.64019 5.40905 0
M  V30 2817 H 273.414 2.15753 2.13739 0
M  V30 2818 H 270.999 1.10658 1.00375 0
M  V30 2819 H 272.881 0.750645 4.1466 0
M  V30 2820 H 271.556 -0.0256141 3.2369 0
M  V30 2821 H 270.463 2.27616 2.96887 0
M  V30 2822 H 271.796 2.97907 3.91807 0
M  V30 2823 N 273.449 -1.08991 1.13837 0
M  V30 2824 C 274.677 -1.85011 0.926202 0
M  V30 2825 C 275.092 -1.8135 -0.525127 0
M  V30 2826 O 274.449 -1.21287 -1.36366 0
M  V30 2827 C 274.5 -3.32802 1.41155 0
M  V30 2828 O 274.221 -3.36444 2.80601 0
M  V30 2829 C 275.722 -4.25649 1.23847 0
M  V30 2830 H 272.942 -0.584249 0.32999 0
M  V30 2831 H 275.486 -1.37688 1.51202 0
M  V30 2832 H 273.641 -3.77536 0.868631 0
M  V30 2833 H 274.055 -4.28657 3.02248 0
M  V30 2834 H 275.529 -5.27485 1.62675 0
M  V30 2835 H 276.006 -4.38828 0.18065 0
M  V30 2836 H 276.612 -3.86735 1.76964 0
M  V30 2837 N 274.927 -0.932562 -1.27047 0
M  V30 2838 C 276.152 -0.591474 -1.98787 0
M  V30 2839 C 276.577 0.824601 -1.69062 0
M  V30 2840 O 275.935 1.5541 -0.933677 0
M  V30 2841 C 275.983 -0.829808 -3.50922 0
M  V30 2842 O 275.087 0.102266 -4.12273 0
M  V30 2843 H 274.428 -0.227185 -0.623926 0
M  V30 2844 H 276.958 -1.25314 -1.61733 0
M  V30 2845 H 276.968 -0.747292 -4.01098 0
M  V30 2846 H 275.643 -1.86201 -3.7189 0
M  V30 2847 H 274.22 -0.0305761 -3.72887 0
M  V30 2848 N 276.405 1.4127 -0.698611 0
M  V30 2849 C 277.335 2.33447 -0.049629 0
M  V30 2850 C 278.316 1.51982 0.763898 0
M  V30 2851 O 279.501 1.80509 0.716257 0
M  V30 2852 C 276.631 3.35828 0.885267 0
M  V30 2853 C 275.585 4.27627 0.178613 0
M  V30 2854 C 274.911 5.20406 1.22807 0
M  V30 2855 C 276.211 5.13459 -0.956933 0
M  V30 2856 H 277.905 2.87966 -0.81951 0
M  V30 2857 H 275.451 1.38461 -0.395538 0
M  V30 2858 H 277.404 3.9924 1.34854 0
M  V30 2859 H 276.128 2.79666 1.68685 0
M  V30 2860 H 274.787 3.65643 -0.26466 0
M  V30 2861 H 274.435 4.60558 2.02226 0
M  V30 2862 H 274.135 5.82661 0.760239 0
M  V30 2863 H 275.659 5.86695 1.69179 0
M  V30 2864 H 277.073 5.70421 -0.573805 0
M  V30 2865 H 275.47 5.8467 -1.35205 0
M  V30 2866 H 276.54 4.50443 -1.79524 0
M  V30 2867 N 277.883 0.443576 1.51229 0
M  V30 2868 C 278.833 -0.382787 2.24764 0
M  V30 2869 C 279.817 -0.984836 1.27239 0
M  V30 2870 O 281.009 -0.901943 1.52296 0
M  V30 2871 C 278.138 -1.47989 3.09765 0
M  V30 2872 C 277.224 -0.886931 4.14722 0
M  V30 2873 N 277.615 -0.0237103 5.05794 0
M  V30 2874 C 275.913 -1.15385 4.30816 0
M  V30 2875 C 276.614 0.309971 5.80874 0
M  V30 2876 N 275.59 -0.307989 5.42727 0
M  V30 2877 H 279.392 0.282624 2.92538 0
M  V30 2878 H 276.906 0.256027 1.60369 0
M  V30 2879 H 278.903 -2.08482 3.61027 0
M  V30 2880 H 277.563 -2.14758 2.43535 0
M  V30 2881 H 278.574 0.34318 5.16762 0
M  V30 2882 H 275.251 -1.81857 3.75812 0
M  V30 2883 H 276.641 1.01279 6.64223 0
M  V30 2884 N 279.361 -1.56624 0.175154 0
M  V30 2885 C 280.607 -1.9729 -0.469506 0
M  V30 2886 C 280.94 -1.06128 -1.62636 0
M  V30 2887 O 280.215 -0.109183 -1.94193 0
M  V30 2888 C 280.498 -3.47375 -0.948804 0
M  V30 2889 C 280.351 -4.49317 0.208491 0
M  V30 2890 C 281.67 -4.00652 -1.82116 0
M  V30 2891 H 278.789 -0.717317 -0.16919 0
M  V30 2892 H 281.431 -1.88184 0.262062 0
M  V30 2893 H 279.581 -3.55267 -1.57219 0
M  V30 2894 H 281.253 -4.53482 0.845682 0
M  V30 2895 H 279.496 -4.25121 0.863395 0
M  V30 2896 H 280.167 -5.51741 -0.169059 0
M  V30 2897 H 282.643 -3.95416 -1.2956 0
M  V30 2898 H 281.519 -5.06075 -2.12554 0
M  V30 2899 H 281.78 -3.44699 -2.7683 0
M  V30 2900 N 280.839 0.0985539 -1.57292 0
M  V30 2901 C 281.769 1.12064 -2.04851 0
M  V30 2902 C 282.75 1.41981 -0.936767 0
M  V30 2903 O 283.935 1.52071 -1.20781 0
M  V30 2904 C 281.065 2.44144 -2.47004 0
M  V30 2905 C 280.019 2.28643 -3.6181 0
M  V30 2906 C 279.345 3.65869 -3.89929 0
M  V30 2907 C 280.645 1.72986 -4.92822 0
M  V30 2908 H 282.339 0.724979 -2.9049 0
M  V30 2909 H 279.885 0.34729 -1.39749 0
M  V30 2910 H 281.838 3.15914 -2.78884 0
M  V30 2911 H 280.562 2.85639 -1.5836 0
M  V30 2912 H 279.221 1.59318 -3.30172 0
M  V30 2913 H 278.869 4.04885 -2.98458 0
M  V30 2914 H 278.569 3.56344 -4.67218 0
M  V30 2915 H 280.093 4.39112 -4.2428 0
M  V30 2916 H 281.507 2.34593 -5.23105 0
M  V30 2917 H 279.904 1.74229 -5.74251 0
M  V30 2918 H 280.974 0.689007 -4.7998 0
M  V30 2919 N 282.317 1.53212 0.369288 0
M  V30 2920 C 283.542 1.73423 1.1375 0
M  V30 2921 C 283.967 0.460404 1.82378 0
M  V30 2922 O 283.325 -0.585298 1.71592 0
M  V30 2923 C 283.373 2.89769 2.1463 0
M  V30 2924 O 282.477 2.58119 3.21634 0
M  V30 2925 H 281.818 0.576061 0.330227 0
M  V30 2926 H 284.348 2.00083 0.427547 0
M  V30 2927 H 284.358 3.15829 2.58294 0
M  V30 2928 H 283.033 3.8217 1.64071 0
M  V30 2929 H 281.61 2.42864 2.82969 0
M  V30 2930 N 283.795 -0.628877 1.44509 0
M  V30 2931 C 284.743 -1.76193 1.51852 0
M  V30 2932 C 285.737 -1.64849 0.390042 0
M  V30 2933 O 286.943 -1.709 0.565082 0
M  V30 2934 H 283.318 -0.581728 0.476547 0
M  V30 2935 H 285.289 -1.67123 2.47209 0
M  V30 2936 C 284.038 -3.14533 1.48204 0
M  V30 2937 H 283.361 -3.23911 2.34354 0
M  V30 2938 H 284.801 -3.93701 1.57402 0
M  V30 2939 C 283.26 -3.36287 0.203142 0
M  V30 2940 O 283.79 -3.9509 -0.725745 0
M  V30 2941 N 281.996 -2.90408 0.105563 0
M  V30 2942 H 281.543 -2.42739 0.862301 0
M  V30 2943 H 281.501 -3.05339 -0.749371 0
M  V30 2944 N 285.273 -1.31445 -0.869486 0
M  V30 2945 C 286.203 -1.21727 -1.99261 0
M  V30 2946 C 287.184 -0.104359 -1.6978 0
M  V30 2947 O 288.369 -0.289038 -1.92037 0
M  V30 2948 C 285.499 -0.924317 -3.34774 0
M  V30 2949 C 284.453 -1.99685 -3.78563 0
M  V30 2950 C 283.779 -1.55658 -5.11541 0
M  V30 2951 C 285.079 -3.41003 -3.95619 0
M  V30 2952 H 286.773 -2.1569 -2.07649 0
M  V30 2953 H 284.319 -1.03839 -0.997675 0
M  V30 2954 H 286.272 -0.842934 -4.12883 0
M  V30 2955 H 284.996 0.0509793 -3.2656 0
M  V30 2956 H 283.655 -2.06813 -3.02694 0
M  V30 2957 H 283.303 -0.569132 -4.9977 0
M  V30 2958 H 283.003 -2.27409 -5.41811 0
M  V30 2959 H 284.527 -1.48928 -5.92159 0
M  V30 2960 H 285.941 -3.36547 -4.64122 0
M  V30 2961 H 284.338 -4.10975 -4.37286 0
M  V30 2962 H 285.408 -3.81754 -2.98985 0
M  V30 2963 N 286.751 1.08385 -1.14413 0
M  V30 2964 C 287.683 2.1519 -0.789036 0
M  V30 2965 C 288.696 1.61638 0.19417 0
M  V30 2966 O 289.885 1.78479 -0.0275711 0
M  V30 2967 C 286.985 3.38565 -0.15058 0
M  V30 2968 C 286.158 4.21501 -1.16857 0
M  V30 2969 C 285.217 5.23277 -0.553832 0
M  V30 2970 O 284.243 5.56041 -1.21686 0
M  V30 2971 N 285.445 5.76629 0.669296 0
M  V30 2972 H 288.21 2.46257 -1.70814 0
M  V30 2973 H 285.771 1.24198 -1.03858 0
M  V30 2974 H 287.763 4.03777 0.273181 0
M  V30 2975 H 286.333 3.05299 0.671667 0
M  V30 2976 H 285.553 3.52265 -1.76926 0
M  V30 2977 H 286.841 4.73731 -1.85624 0
M  V30 2978 H 286.239 5.52243 1.22654 0
M  V30 2979 H 284.796 6.43521 1.03556 0
M  V30 2980 N 288.23 0.939286 1.26551 0
M  V30 2981 C 289.177 0.446088 2.26448 0
M  V30 2982 C 290.147 -0.493234 1.58608 0
M  V30 2983 O 291.332 -0.409857 1.86346 0
M  V30 2984 C 288.472 -0.284375 3.43926 0
M  V30 2985 C 287.585 0.690399 4.26448 0
M  V30 2986 C 286.72 -0.0610712 5.31165 0
M  V30 2987 C 285.759 0.905649 6.05363 0
M  V30 2988 N 284.896 0.186055 7.01853 0
M  V30 2989 H 289.736 1.30291 2.68008 0
M  V30 2990 H 287.273 0.65371 1.31776 0
M  V30 2991 H 289.231 -0.724313 4.10864 0
M  V30 2992 H 287.861 -1.10535 3.03285 0
M  V30 2993 H 286.913 1.24885 3.59316 0
M  V30 2994 H 288.225 1.42873 4.779 0
M  V30 2995 H 287.379 -0.56038 6.04106 0
M  V30 2996 H 286.118 -0.832297 4.80546 0
M  V30 2997 H 285.123 1.4161 5.3125 0
M  V30 2998 H 286.348 1.67685 6.58072 0
M  V30 2999 H 284.294 -0.566714 6.53548 0
M  V30 3000 H 284.211 0.863752 7.51049 0
M  V30 3001 H 285.479 -0.292221 7.78952 0
M  V30 3002 N 289.708 -1.40897 0.706093 0
M  V30 3003 C 290.638 -2.33418 0.0620085 0
M  V30 3004 C 291.619 -1.52385 -0.755827 0
M  V30 3005 O 292.804 -1.80886 -0.706674 0
M  V30 3006 C 289.934 -3.36293 -0.867445 0
M  V30 3007 C 288.888 -4.27716 -0.155932 0
M  V30 3008 C 288.214 -5.2105 -1.20046 0
M  V30 3009 C 289.514 -5.12944 0.984149 0
M  V30 3010 H 291.208 -2.87527 0.83477 0
M  V30 3011 H 288.754 -1.38249 0.402875 0
M  V30 3012 H 290.707 -3.99949 -1.32735 0
M  V30 3013 H 289.431 -2.80556 -1.67199 0
M  V30 3014 H 288.09 -3.65498 0.284047 0
M  V30 3015 H 287.738 -4.61624 -1.99781 0
M  V30 3016 H 287.438 -5.83056 -0.729328 0
M  V30 3017 H 288.962 -5.87584 -1.66066 0
M  V30 3018 H 290.376 -5.70109 0.604048 0
M  V30 3019 H 288.773 -5.83945 1.38304 0
M  V30 3020 H 289.843 -4.49485 1.81911 0
M  V30 3021 N 291.186 -0.45159 -1.50991 0
M  V30 3022 C 292.133 0.352625 -2.2809 0
M  V30 3023 C 293.103 1.0044 -1.32291 0
M  V30 3024 O 294.288 1.02058 -1.6121 0
M  V30 3025 C 291.428 1.43983 -3.13629 0
M  V30 3026 C 290.541 0.804772 -4.24438 0
M  V30 3027 C 289.676 1.86822 -4.97263 0
M  V30 3028 C 288.715 1.21236 -5.99973 0
M  V30 3029 N 287.852 2.2178 -6.66152 0
M  V30 3030 H 292.692 -0.311186 -2.96371 0
M  V30 3031 H 290.229 -0.165308 -1.46168 0
M  V30 3032 H 292.187 2.08161 -3.61559 0
M  V30 3033 H 290.817 2.07307 -2.47434 0
M  V30 3034 H 289.869 0.0509129 -3.80366 0
M  V30 3035 H 291.181 0.286076 -4.97979 0
M  V30 3036 H 290.335 2.58628 -5.48813 0
M  V30 3037 H 289.074 2.42068 -4.23385 0
M  V30 3038 H 288.079 0.479828 -5.47702 0
M  V30 3039 H 289.304 0.667051 -6.75816 0
M  V30 3040 H 287.25 2.76079 -5.95077 0
M  V30 3041 H 287.167 1.74841 -7.35504 0
M  V30 3042 H 288.435 2.93026 -7.22327 0
M  V30 3043 N 292.664 1.56529 -0.183458 0
M  V30 3044 C 293.889 2.02064 0.467428 0
M  V30 3045 C 294.314 1.06282 1.55196 0
M  V30 3046 O 293.672 0.0443565 1.81246 0
M  V30 3047 C 293.72 3.46122 1.01153 0
M  V30 3048 O 292.824 3.53437 2.12499 0
M  V30 3049 H 292.165 0.654726 0.110588 0
M  V30 3050 H 294.695 2.02521 -0.290917 0
M  V30 3051 H 294.705 3.85676 1.33108 0
M  V30 3052 H 293.38 4.15331 0.217533 0
M  V30 3053 H 291.957 3.2575 1.81497 0
M  V30 3054 N 294.142 -0.090211 1.57342 0
M  V30 3055 C 295.105 -1.09335 2.01441 0
M  V30 3056 C 296.105 -1.32666 0.908641 0
M  V30 3057 O 297.295 -1.28697 1.174 0
M  V30 3058 C 294.427 -2.44136 2.3793 0
M  V30 3059 H 295.62 -0.713662 2.91285 0
M  V30 3060 H 293.173 -0.335404 1.52659 0
M  V30 3061 H 293.908 -2.86972 1.51055 0
M  V30 3062 H 293.693 -2.28548 3.18603 0
M  V30 3063 H 295.183 -3.16277 2.72688 0
M  V30 3064 N 295.62 -1.53406 -0.361157 0
M  V30 3065 C 296.55 -1.83136 -1.44857 0
M  V30 3066 C 297.531 -0.685174 -1.5569 0
M  V30 3067 O 298.716 -0.93544 -1.70186 0
M  V30 3068 C 295.846 -2.02522 -2.82138 0
M  V30 3069 C 294.8 -3.18302 -2.86126 0
M  V30 3070 C 294.126 -3.22989 -4.26125 0
M  V30 3071 C 295.426 -4.56796 -2.53248 0
M  V30 3072 H 297.12 -2.74201 -1.20226 0
M  V30 3073 H 294.666 -1.31938 -0.576922 0
M  V30 3074 H 296.619 -2.21904 -3.58241 0
M  V30 3075 H 295.343 -1.08172 -3.08166 0
M  V30 3076 H 294.002 -2.98747 -2.12475 0
M  V30 3077 H 293.65 -2.26267 -4.49235 0
M  V30 3078 H 293.35 -4.00781 -4.29708 0
M  V30 3079 H 294.874 -3.44559 -5.04094 0
M  V30 3080 H 296.288 -4.7631 -3.19064 0
M  V30 3081 H 294.685 -5.36862 -2.68141 0
M  V30 3082 H 295.755 -4.61606 -1.48484 0
M  V30 3083 N 297.098 0.621204 -1.44841 0
M  V30 3084 C 298.346 1.37783 -1.47852 0
M  V30 3085 C 298.667 1.94653 -0.116224 0
M  V30 3086 O 297.937 1.76367 0.852737 0
M  V30 3087 H 296.517 0.511453 -0.544449 0
M  V30 3088 H 299.179 0.730446 -1.80694 0
M  V30 3089 H 298.275 2.20414 -2.20961 0
M  V30 3090 N 298.576 1.31904 0.862503 0
M  V30 3091 C 299.506 1.22782 1.98612 0
M  V30 3092 C 300.487 0.113362 1.69722 0
M  V30 3093 O 301.672 0.299218 1.91881 0
M  V30 3094 C 298.802 0.942058 3.34279 0
M  V30 3095 C 297.756 2.0169 3.77499 0
M  V30 3096 C 297.082 1.58369 5.10709 0
M  V30 3097 C 298.382 3.43096 3.93805 0
M  V30 3098 H 300.076 2.16788 2.06502 0
M  V30 3099 H 297.622 1.04366 0.992154 0
M  V30 3100 H 299.575 0.864818 4.1243 0
M  V30 3101 H 298.299 -0.0336603 3.26583 0
M  V30 3102 H 296.958 2.08416 3.01593 0
M  V30 3103 H 296.606 0.595628 4.99461 0
M  V30 3104 H 296.306 2.30279 5.40597 0
M  V30 3105 H 297.83 1.52067 5.91361 0
M  V30 3106 H 299.244 3.39003 4.62331 0
M  V30 3107 H 297.641 4.13288 4.35101 0
M  V30 3108 H 298.711 3.83334 2.96957 0
M  V30 3109 N 300.054 -1.07777 1.14986 0
M  V30 3110 C 301.465 -1.61766 0.932127 0
M  V30 3111 C 301.816 -1.88974 -0.527581 0
M  V30 3112 O 300.941 -1.65198 -1.39781 0
M  V30 3113 C 301.536 -2.93891 1.68563 0
M  V30 3114 C 300.095 -3.44639 1.5133 0
M  V30 3115 C 299.242 -2.18767 1.704 0
M  V30 3116 H 302.193 -0.909201 1.30074 0
M  V30 3117 H 302.214 -3.62623 1.15259 0
M  V30 3118 H 301.726 -2.74057 2.74799 0
M  V30 3119 H 299.827 -3.69564 0.474702 0
M  V30 3120 H 299.94 -4.20966 2.28746 0
M  V30 3121 H 298.304 -2.28253 1.13016 0
M  V30 3122 H 299.087 -2.01433 2.77992 0
M  V30 3123 N 301.532 -0.945985 -1.26051 0
M  V30 3124 C 302.462 -0.477172 -2.28572 0
M  V30 3125 C 303.443 0.472032 -1.63419 0
M  V30 3126 O 304.628 0.372853 -1.90587 0
M  V30 3127 C 301.758 0.253975 -3.4637 0
M  V30 3128 C 300.712 -0.609135 -4.23643 0
M  V30 3129 C 300.038 0.252252 -5.34105 0
M  V30 3130 C 301.338 -1.8829 -4.8718 0
M  V30 3131 H 303.032 -1.33402 -2.68038 0
M  V30 3132 H 300.578 -0.642904 -1.28852 0
M  V30 3133 H 302.531 0.593016 -4.17207 0
M  V30 3134 H 301.255 1.145 -3.05871 0
M  V30 3135 H 299.914 -0.931138 -3.54578 0
M  V30 3136 H 299.562 1.14278 -4.89846 0
M  V30 3137 H 299.262 -0.32188 -5.86718 0
M  V30 3138 H 300.786 0.586454 -6.07777 0
M  V30 3139 H 302.2 -1.61081 -5.50205 0
M  V30 3140 H 300.597 -2.40199 -5.49931 0
M  V30 3141 H 301.667 -2.59134 -4.09851 0
M  V30 3142 N 303.011 1.40521 -0.713556 0
M  V30 3143 C 303.941 2.33381 -0.0743864 0
M  V30 3144 C 304.922 1.52784 0.747735 0
M  V30 3145 O 306.107 1.81258 0.697071 0
M  V30 3146 C 303.237 3.36748 0.849598 0
M  V30 3147 C 302.191 4.27793 0.133247 0
M  V30 3148 C 301.517 5.21679 1.17281 0
M  V30 3149 C 302.817 5.12415 -1.01134 0
M  V30 3150 H 304.511 2.87081 -0.850007 0
M  V30 3151 H 302.057 1.38034 -0.410201 0
M  V30 3152 H 304.01 4.00648 1.30612 0
M  V30 3153 H 302.734 2.81439 1.65709 0
M  V30 3154 H 301.393 3.65342 -0.303426 0
M  V30 3155 H 301.041 4.62677 1.9733 0
M  V30 3156 H 300.741 5.83435 0.698397 0
M  V30 3157 H 302.265 5.88456 1.62947 0
M  V30 3158 H 303.679 5.69781 -0.634274 0
M  V30 3159 H 302.076 5.83203 -1.41399 0
M  V30 3160 H 303.146 4.48514 -1.84292 0
M  V30 3161 N 304.489 0.459591 1.5075 0
M  V30 3162 C 305.735 -0.0994966 2.02556 0
M  V30 3163 C 306.068 -1.40399 1.3417 0
M  V30 3164 O 305.343 -1.88892 0.463683 0
M  V30 3165 C 305.626 -0.295242 3.58888 0
M  V30 3166 C 305.479 1.02947 4.37861 0
M  V30 3167 C 306.798 -1.05502 4.27267 0
M  V30 3168 H 303.917 -0.034686 0.736183 0
M  V30 3169 H 306.559 0.602938 1.8018 0
M  V30 3170 H 304.709 -0.893563 3.78084 0
M  V30 3171 H 306.381 1.66348 4.30263 0
M  V30 3172 H 304.624 1.62885 4.02058 0
M  V30 3173 H 305.295 0.846281 5.45474 0
M  V30 3174 H 307.771 -0.547993 4.12476 0
M  V30 3175 H 306.647 -1.16077 5.36486 0
M  V30 3176 H 306.908 -2.08875 3.89645 0
M  V30 3177 N 305.967 -1.56429 0.191757 0
M  V30 3178 C 307.192 -2.02309 -0.456706 0
M  V30 3179 C 307.617 -1.07103 -1.5463 0
M  V30 3180 O 306.975 -0.0539677 -1.8122 0
M  V30 3181 C 307.023 -3.46654 -0.993159 0
M  V30 3182 O 306.127 -3.54559 -2.10622 0
M  V30 3183 H 305.468 -0.655303 -0.107114 0
M  V30 3184 H 307.998 -2.02364 0.301653 0
M  V30 3185 H 308.008 -3.86377 -1.31061 0
M  V30 3186 H 306.683 -4.1544 -0.195504 0
M  V30 3187 H 305.26 -3.26708 -1.79767 0
M  V30 3188 N 307.445 0.0818655 -1.57387 0
M  V30 3189 C 308.691 0.784074 -1.8703 0
M  V30 3190 C 309.024 1.77729 -0.782689 0
M  V30 3191 O 308.299 1.93384 0.208051 0
M  V30 3192 C 308.582 1.50105 -3.27323 0
M  V30 3193 C 308.435 0.524925 -4.46727 0
M  V30 3194 C 309.754 2.44843 -3.65705 0
M  V30 3195 H 306.873 0.283582 -0.680257 0
M  V30 3196 H 309.515 0.0474352 -1.89941 0
M  V30 3197 H 307.665 2.12897 -3.24972 0
M  V30 3198 H 309.337 -0.0970111 -4.61198 0
M  V30 3199 H 307.58 -0.160606 -4.33503 0
M  V30 3200 H 308.251 1.064 -5.41648 0
M  V30 3201 H 310.727 1.92135 -3.69085 0
M  V30 3202 H 309.603 2.92018 -4.64776 0
M  V30 3203 H 309.864 3.29197 -2.95096 0
M  V30 3204 N 308.923 1.53595 0.353017 0
M  V30 3205 C 310.148 1.7462 1.11904 0
M  V30 3206 C 310.573 0.479721 1.8188 0
M  V30 3207 O 309.931 -0.567066 1.72204 0
M  V30 3208 C 309.979 2.92029 2.11545 0
M  V30 3209 O 309.083 2.61516 3.18878 0
M  V30 3210 H 308.424 0.579531 0.324099 0
M  V30 3211 H 310.954 2.00525 0.406301 0
M  V30 3212 H 310.964 3.18551 2.5493 0
M  V30 3213 H 309.639 3.83888 1.60008 0
M  V30 3214 H 308.216 2.45852 2.80377 0
M  V30 3215 N 310.401 -0.613514 1.45168 0
M  V30 3216 C 311.817 -0.933629 1.29443 0
M  V30 3217 C 312.017 -2.00028 0.243101 0
M  V30 3218 O 311.073 -2.49848 -0.364992 0
M  V30 3219 C 312.386 -1.38018 2.67155 0
M  V30 3220 C 313.934 -1.49471 2.75004 0
M  V30 3221 C 314.409 -1.97503 4.13227 0
M  V30 3222 N 315.9 -2.04746 4.15491 0
M  V30 3223 C 316.635 -2.43121 5.19307 0
M  V30 3224 N 316.131 -2.80506 6.33473 0
M  V30 3225 N 317.924 -2.43408 5.06664 0
M  V30 3226 H 310.075 0.0916097 2.12202 0
M  V30 3227 H 312.338 -0.0216655 0.947752 0
M  V30 3228 H 312.044 -0.670625 3.45247 0
M  V30 3229 H 311.918 -2.34784 2.95222 0
M  V30 3230 H 314.305 -2.19519 1.9722 0
M  V30 3231 H 314.386 -0.510342 2.50657 0
M  V30 3232 H 314.03 -1.28045 4.91495 0
M  V30 3233 H 313.96 -2.96843 4.34962 0
M  V30 3234 H 316.451 -1.78468 3.33103 0
M  V30 3235 H 316.764 -3.08652 7.08487 0
M  V30 3236 H 315.109 -2.78216 6.36884 0
M  V30 3237 H 318.3 -2.13604 4.16523 0
M  V30 3238 H 318.473 -2.72989 5.87691 0
M  V30 3239 N 311.879 -1.3236 -0.855495 0
M  V30 3240 C 312.826 -1.21225 -1.964 0
M  V30 3241 C 313.796 -0.0946204 -1.6583 0
M  V30 3242 O 314.981 -0.27002 -1.8888 0
M  V30 3243 C 312.121 -0.940419 -3.32039 0
M  V30 3244 C 311.234 -2.14276 -3.75113 0
M  V30 3245 C 310.369 -1.80648 -4.9954 0
M  V30 3246 C 309.408 -2.97208 -5.35102 0
M  V30 3247 N 308.545 -2.63678 -6.50706 0
M  V30 3248 H 313.385 -2.16042 -2.05255 0
M  V30 3249 H 310.922 -1.07451 -1.00463 0
M  V30 3250 H 312.88 -0.763311 -4.10158 0
M  V30 3251 H 311.51 -0.0290413 -3.22787 0
M  V30 3252 H 310.562 -2.43017 -2.92655 0
M  V30 3253 H 311.874 -3.01468 -3.97389 0
M  V30 3254 H 311.028 -1.59484 -5.85363 0
M  V30 3255 H 309.767 -0.906678 -4.79198 0
M  V30 3256 H 308.772 -3.19004 -4.47791 0
M  V30 3257 H 309.997 -3.87918 -5.57401 0
M  V30 3258 H 307.943 -1.76238 -6.31883 0
M  V30 3259 H 307.86 -3.444 -6.72997 0
M  V30 3260 H 309.128 -2.45942 -7.39684 0
M  V30 3261 N 313.357 1.07166 -1.15556 0
M  V30 3262 C 314.582 1.84053 -0.955988 0
M  V30 3263 C 315.007 1.81586 0.490739 0
M  V30 3264 O 314.365 1.21018 1.34997 0
M  V30 3265 C 314.413 3.28957 -1.47714 0
M  V30 3266 O 313.517 4.06795 -0.677593 0
M  V30 3267 H 312.858 0.569842 -0.340847 0
M  V30 3268 H 315.388 1.35178 -1.53584 0
M  V30 3269 H 315.398 3.79788 -1.4908 0
M  V30 3270 H 314.073 3.30068 -2.53037 0
M  V30 3271 H 312.65 3.6561 -0.733721 0
M  V30 3272 N 314.835 0.952656 1.25548 0
M  V30 3273 C 316.082 0.606373 1.93208 0
M  V30 3274 C 316.41 -0.85631 1.74636 0
M  V30 3275 O 315.665 -1.62951 1.08376 0
M  V30 3276 C 315.964 0.908818 3.45652 0
M  V30 3277 C 315.63 2.35722 3.84378 0
M  V30 3278 C 314.292 2.75312 3.9466 0
M  V30 3279 C 316.644 3.29793 4.03591 0
M  V30 3280 C 313.972 4.08047 4.21562 0
M  V30 3281 C 316.324 4.62138 4.31985 0
M  V30 3282 C 314.988 5.01528 4.40484 0
M  V30 3283 H 314.258 0.221888 0.706998 0
M  V30 3284 H 316.905 1.20132 1.49133 0
M  V30 3285 H 315.21 0.231456 3.91116 0
M  V30 3286 H 316.907 0.619498 3.96186 0
M  V30 3287 H 313.497 2.04017 3.76928 0
M  V30 3288 H 317.681 3.00397 3.95064 0
M  V30 3289 H 312.937 4.38212 4.26357 0
M  V30 3290 H 317.111 5.35012 4.45797 0
M  V30 3291 H 314.738 6.04406 4.61083 0
M  V30 3292 N 316.313 -1.40141 0.720998 0
M  V30 3293 C 317.243 -2.33339 0.0867621 0
M  V30 3294 C 318.224 -1.53178 -0.739622 0
M  V30 3295 O 319.409 -1.81625 -0.687449 0
M  V30 3296 C 316.539 -3.37194 -0.831728 0
M  V30 3297 C 315.493 -4.27857 -0.110558 0
M  V30 3298 C 314.819 -5.22294 -1.14513 0
M  V30 3299 C 316.119 -5.11872 1.0385 0
M  V30 3300 H 317.813 -2.86626 0.865219 0
M  V30 3301 H 315.359 -1.37814 0.417516 0
M  V30 3302 H 317.312 -4.01335 -1.28485 0
M  V30 3303 H 316.036 -2.82314 -1.64214 0
M  V30 3304 H 314.695 -3.65176 0.322797 0
M  V30 3305 H 314.343 -4.63717 -1.94874 0
M  V30 3306 H 314.043 -5.83797 -0.667446 0
M  V30 3307 H 315.567 -5.89312 -1.59824 0
M  V30 3308 H 316.981 -5.69436 0.664482 0
M  V30 3309 H 315.378 -5.82445 1.4449 0
M  V30 3310 H 316.448 -4.4753 1.86668 0
M  V30 3311 N 317.792 -0.46758 -1.50504 0
M  V30 3312 C 319.04 0.0884469 -2.01906 0
M  V30 3313 C 319.361 1.40532 -1.35188 0
M  V30 3314 O 318.631 1.89515 -0.496079 0
M  V30 3315 H 317.211 0.0356765 -0.746148 0
M  V30 3316 H 319.873 -0.6172 -1.84869 0
M  V30 3317 H 318.969 0.2425 -3.11156 0
M  V30 3318 N 319.27 1.56325 -0.20005 0
M  V30 3319 C 320.233 2.18084 0.705132 0
M  V30 3320 C 321.233 1.13666 1.1374 0
M  V30 3321 O 322.423 1.39023 1.04968 0
M  V30 3322 C 319.555 2.78689 1.96329 0
M  V30 3323 H 320.748 2.99435 0.167023 0
M  V30 3324 H 318.301 1.56221 0.0495725 0
M  V30 3325 H 319.036 2.0115 2.5438 0
M  V30 3326 H 318.821 3.55133 1.66202 0
M  V30 3327 H 320.311 3.26096 2.60866 0
M  V30 3328 N 320.748 -0.0735177 1.57428 0
M  V30 3329 C 321.976 -0.785969 1.9139 0
M  V30 3330 C 322.391 -1.71207 0.795847 0
M  V30 3331 O 321.748 -1.81033 -0.230915 0
M  V30 3332 C 321.799 -1.58107 3.25091 0
M  V30 3333 O 321.52 -0.6922 4.32597 0
M  V30 3334 C 323.021 -2.39467 3.73055 0
M  V30 3335 H 320.241 -0.223558 0.632663 0
M  V30 3336 H 322.785 -0.044302 2.04452 0
M  V30 3337 H 320.94 -2.27503 3.13562 0
M  V30 3338 H 321.354 -1.24504 5.09508 0
M  V30 3339 H 322.828 -2.90716 4.69242 0
M  V30 3340 H 323.305 -3.18913 3.01979 0
M  V30 3341 H 323.911 -1.7523 3.87523 0
M  V30 3342 N 322.226 -1.5378 -0.344866 0
M  V30 3343 C 323.472 -1.71216 -1.08687 0
M  V30 3344 C 323.805 -0.473281 -1.88345 0
M  V30 3345 O 323.08 0.52968 -1.87149 0
M  V30 3346 C 323.363 -2.97486 -2.02914 0
M  V30 3347 C 323.216 -4.31579 -1.26727 0
M  V30 3348 C 324.535 -3.19422 -3.0275 0
M  V30 3349 H 321.654 -0.62301 -0.393735 0
M  V30 3350 H 324.296 -1.8645 -0.365563 0
M  V30 3351 H 322.446 -2.84629 -2.64421 0
M  V30 3352 H 324.118 -4.56284 -0.67845 0
M  V30 3353 H 322.361 -4.30049 -0.569273 0
M  V30 3354 H 323.032 -5.16106 -1.95803 0
M  V30 3355 H 325.508 -3.316 -2.51357 0
M  V30 3356 H 324.384 -4.09169 -3.65885 0
M  V30 3357 H 324.645 -2.35656 -3.74057 0
M  V30 3358 N 323.704 0.605807 -1.45491 0
M  V30 3359 C 324.952 1.36207 -1.49305 0
M  V30 3360 C 325.273 1.94519 -0.136863 0
M  V30 3361 O 324.543 1.77261 0.833983 0
M  V30 3362 H 323.123 0.50565 -0.549843 0
M  V30 3363 H 325.785 0.711239 -1.81459 0
M  V30 3364 H 324.881 2.18058 -2.23287 0
M  V30 3365 N 325.182 1.32811 0.848464 0
M  V30 3366 C 326.112 1.24882 1.97299 0
M  V30 3367 C 327.093 0.131357 1.69592 0
M  V30 3368 O 328.278 0.319553 1.91553 0
M  V30 3369 C 325.408 0.97746 3.33261 0
M  V30 3370 C 324.362 2.05682 3.75338 0
M  V30 3371 C 323.688 1.63777 5.09 0
M  V30 3372 C 324.988 3.47254 3.90144 0
M  V30 3373 H 326.682 2.18966 2.04191 0
M  V30 3374 H 324.228 1.05413 0.981029 0
M  V30 3375 H 326.181 0.908513 4.1149 0
M  V30 3376 H 324.905 0.000980011 3.266 0
M  V30 3377 H 323.564 2.11603 2.99366 0
M  V30 3378 H 323.212 0.648569 4.98801 0
M  V30 3379 H 322.912 2.36 5.38124 0
M  V30 3380 H 324.436 1.5833 5.89715 0
M  V30 3381 H 325.85 3.43888 4.58709 0
M  V30 3382 H 324.247 4.1788 4.30693 0
M  V30 3383 H 325.317 3.86462 2.92874 0
M  V30 3384 N 326.66 -1.06551 1.16123 0
M  V30 3385 C 328.071 -1.60768 0.949232 0
M  V30 3386 C 328.422 -1.89523 -0.507508 0
M  V30 3387 O 327.547 -1.66671 -1.38021 0
M  V30 3388 C 328.142 -2.92086 1.71671 0
M  V30 3389 C 326.701 -3.43015 1.54977 0
M  V30 3390 C 325.848 -2.16947 1.72711 0
M  V30 3391 H 328.799 -0.895354 1.31031 0
M  V30 3392 H 328.82 -3.6138 1.19099 0
M  V30 3393 H 328.332 -2.71127 2.7769 0
M  V30 3394 H 326.433 -3.69039 0.513873 0
M  V30 3395 H 326.546 -4.18516 2.33198 0
M  V30 3396 H 324.91 -2.27041 1.15431 0
M  V30 3397 H 325.693 -1.98473 2.80113 0
M  V30 3398 N 328.138 -0.959301 -1.25041 0
M  V30 3399 C 329.384 -0.617525 -1.9317 0
M  V30 3400 C 329.717 0.843981 -1.74902 0
M  V30 3401 O 328.992 1.60615 -1.09696 0
M  V30 3402 C 329.275 -0.982736 -3.46431 0
M  V30 3403 C 329.128 -2.50032 -3.73904 0
M  V30 3404 C 330.447 -0.511176 -4.37121 0
M  V30 3405 H 327.566 -0.22582 -0.701552 0
M  V30 3406 H 330.208 -1.19679 -1.4757 0
M  V30 3407 H 328.358 -0.489806 -3.854 0
M  V30 3408 H 330.03 -3.06737 -3.44544 0
M  V30 3409 H 328.273 -2.93598 -3.19348 0
M  V30 3410 H 328.944 -2.70635 -4.81103 0
M  V30 3411 H 331.42 -0.934075 -4.0548 0
M  V30 3412 H 330.296 -0.795361 -5.43107 0
M  V30 3413 H 330.557 0.588834 -4.38161 0
M  V30 3414 N 329.616 1.39756 -0.72842 0
M  V30 3415 C 330.563 2.30647 -0.0841519 0
M  V30 3416 C 331.533 1.48869 0.7367 0
M  V30 3417 O 332.718 1.77574 0.698015 0
M  V30 3418 C 329.858 3.35165 0.822091 0
M  V30 3419 C 328.971 4.31999 -0.0106663 0
M  V30 3420 C 328.106 5.23585 0.896241 0
M  V30 3421 C 327.145 6.12072 0.0583381 0
M  V30 3422 N 326.282 6.96035 0.920818 0
M  V30 3423 H 331.122 2.85173 -0.864891 0
M  V30 3424 H 328.659 1.40422 -0.438179 0
M  V30 3425 H 330.617 3.94345 1.36189 0
M  V30 3426 H 329.247 2.8211 1.56888 0
M  V30 3427 H 328.299 3.74492 -0.66781 0
M  V30 3428 H 329.611 4.9443 -0.658825 0
M  V30 3429 H 328.765 5.87759 1.50412 0
M  V30 3430 H 327.504 4.61459 1.57819 0
M  V30 3431 H 326.509 5.46916 -0.562389 0
M  V30 3432 H 327.734 6.76261 -0.6203 0
M  V30 3433 H 325.68 6.36485 1.58818 0
M  V30 3434 H 325.597 7.55284 0.32899 0
M  V30 3435 H 326.865 7.64646 1.51447 0
M  V30 3436 N 331.094 0.475555 1.50254 0
M  V30 3437 C 332.371 -0.139685 1.95101 0
M  V30 3438 C 332.751 -1.56555 1.41611 0
M  V30 3439 O 332.099 -2.19956 0.618993 0
M  V30 3440 C 332.309 -0.0784298 3.48912 0
M  V30 3441 C 333.657 -0.265095 4.23772 0
M  V30 3442 O 334.681 -0.154808 3.55863 0
M  V30 3443 O 333.54 -0.488327 5.44314 0
M  V30 3444 H 330.634 -0.109236 0.819754 0
M  V30 3445 H 333.18 0.536276 1.61004 0
M  V30 3446 H 331.952 0.916918 3.80405 0
M  V30 3447 H 331.575 -0.795655 3.89558 0
M  V30 3448 N 332.573 -1.56217 0.208337 0
M  V30 3449 C 333.503 -2.22694 -0.702116 0
M  V30 3450 C 334.484 -1.19432 -1.2112 0
M  V30 3451 O 335.669 -1.47978 -1.25762 0
M  V30 3452 C 332.799 -2.8966 -1.9161 0
M  V30 3453 C 331.753 -3.9928 -1.5414 0
M  V30 3454 C 331.079 -4.53476 -2.83308 0
M  V30 3455 C 332.379 -5.17012 -0.741339 0
M  V30 3456 H 334.073 -2.99034 -0.147898 0
M  V30 3457 H 331.619 -1.43831 -0.0696951 0
M  V30 3458 H 333.572 -3.34852 -2.55836 0
M  V30 3459 H 332.296 -2.10746 -2.49507 0
M  V30 3460 H 330.955 -3.54799 -0.922668 0
M  V30 3461 H 330.603 -3.71308 -3.39322 0
M  V30 3462 H 330.303 -5.27451 -2.58976 0
M  V30 3463 H 331.827 -5.01378 -3.485 0
M  V30 3464 H 333.241 -5.58667 -1.28699 0
M  V30 3465 H 331.638 -5.97137 -0.595627 0
M  V30 3466 H 332.708 -4.8423 0.254851 0
M  V30 3467 N 334.051 0.0651679 -1.57465 0
M  V30 3468 C 335.299 0.761555 -1.87202 0
M  V30 3469 C 335.62 1.77778 -0.801243 0
M  V30 3470 O 334.89 1.95166 0.16937 0
M  V30 3471 H 333.47 0.284251 -0.690804 0
M  V30 3472 H 336.132 0.0396827 -1.9486 0
M  V30 3473 H 335.228 1.27365 -2.84929 0
M  V30 3474 N 335.529 1.53961 0.336706 0
M  V30 3475 C 336.94 1.62914 0.911925 0
M  V30 3476 C 337.291 0.514795 1.89326 0
M  V30 3477 O 336.416 -0.354395 2.13478 0
M  V30 3478 C 337.011 2.95304 1.66076 0
M  V30 3479 C 335.57 3.06496 2.18489 0
M  V30 3480 C 334.717 2.58403 1.00613 0
M  V30 3481 H 337.668 1.58285 0.114649 0
M  V30 3482 H 337.689 2.84727 2.5241 0
M  V30 3483 H 337.201 3.76387 0.946276 0
M  V30 3484 H 335.302 2.3006 2.93092 0
M  V30 3485 H 335.415 4.1208 2.44391 0
M  V30 3486 H 333.779 2.13977 1.38152 0
M  V30 3487 H 334.562 3.41932 0.306179 0
M  V30 3488 N 337.007 -0.598083 1.45811 0
M  V30 3489 C 337.97 -1.69018 1.54808 0
M  V30 3490 C 338.97 -1.55037 0.426652 0
M  V30 3491 O 340.16 -1.59932 0.690456 0
M  V30 3492 C 337.292 -3.0835 1.45371 0
M  V30 3493 H 338.485 -1.62403 2.52121 0
M  V30 3494 H 336.038 -0.814626 1.33392 0
M  V30 3495 H 336.773 -3.20534 0.492793 0
M  V30 3496 H 336.558 -3.19907 2.26721 0
M  V30 3497 H 338.048 -3.8788 1.54721 0
M  V30 3498 N 338.485 -1.33259 -0.841409 0
M  V30 3499 C 339.71 -1.2775 -1.63385 0
M  V30 3500 C 340.135 0.149188 -1.87507 0
M  V30 3501 O 339.493 1.10498 -1.43736 0
M  V30 3502 C 339.541 -2.05571 -2.96265 0
M  V30 3503 O 338.645 -1.41257 -3.87453 0
M  V30 3504 H 337.986 -0.439627 -0.497618 0
M  V30 3505 H 340.516 -1.75782 -1.04699 0
M  V30 3506 H 340.526 -2.16241 -3.45982 0
M  V30 3507 H 339.201 -3.09309 -2.7803 0
M  V30 3508 H 337.778 -1.39217 -3.45938 0
M  V30 3509 N 339.963 1.05934 -1.16686 0
M  V30 3510 C 340.893 2.1546 -0.899949 0
M  V30 3511 C 341.874 1.69391 0.155154 0
M  V30 3512 O 343.059 1.94199 0.00648693 0
M  V30 3513 C 340.189 3.44939 -0.404241 0
M  V30 3514 C 339.143 4.04536 -1.39767 0
M  V30 3515 C 338.469 5.29268 -0.760216 0
M  V30 3516 C 339.769 4.42893 -2.76845 0
M  V30 3517 H 341.463 2.38046 -1.81588 0
M  V30 3518 H 339.009 1.14404 -0.874514 0
M  V30 3519 H 340.962 4.20901 -0.204971 0
M  V30 3520 H 339.686 3.21983 0.547206 0
M  V30 3521 H 338.345 3.30635 -1.58355 0
M  V30 3522 H 337.993 5.02611 0.197831 0
M  V30 3523 H 337.693 5.70101 -1.42332 0
M  V30 3524 H 339.217 6.07924 -0.57105 0
M  V30 3525 H 340.631 5.09921 -2.62019 0
M  V30 3526 H 339.028 4.94721 -3.39663 0
M  V30 3527 H 340.098 3.53584 -3.31823 0
M  V30 3528 N 341.441 0.965919 1.2453 0
M  V30 3529 C 342.404 0.499547 2.2369 0
M  V30 3530 C 343.404 -0.40294 1.5567 0
M  V30 3531 O 344.594 -0.19865 1.73064 0
M  V30 3532 C 341.726 -0.276792 3.39774 0
M  V30 3533 H 342.919 1.37613 2.66463 0
M  V30 3534 H 340.472 0.750324 1.37112 0
M  V30 3535 H 341.207 -1.17055 3.02438 0
M  V30 3536 H 340.992 0.370826 3.90343 0
M  V30 3537 H 342.482 -0.592175 4.1338 0
M  V30 3538 N 342.919 -1.39368 0.735821 0
M  V30 3539 C 343.882 -2.2896 0.104874 0
M  V30 3540 C 344.882 -1.46347 -0.666274 0
M  V30 3541 O 346.072 -1.67014 -0.49517 0
M  V30 3542 C 343.204 -3.29857 -0.860656 0
M  V30 3543 H 344.397 -2.86259 0.894205 0
M  V30 3544 H 341.95 -1.48029 0.501704 0
M  V30 3545 H 342.685 -2.77615 -1.67631 0
M  V30 3546 H 342.47 -3.9087 -0.310327 0
M  V30 3547 H 343.96 -3.96893 -1.29867 0
M  V30 3548 N 344.397 -0.483516 -1.5 0
M  V30 3549 C 345.307 0.309172 -2.32554 0
M  V30 3550 C 346.323 0.984159 -1.43493 0
M  V30 3551 O 347.499 0.969399 -1.76535 0
M  V30 3552 C 344.564 1.36979 -3.18493 0
M  V30 3553 C 343.625 0.710095 -4.23387 0
M  V30 3554 C 342.858 1.72018 -5.05218 0
M  V30 3555 O 343.081 2.94813 -4.88305 0
M  V30 3556 O 342.015 1.28515 -5.8802 0
M  V30 3557 H 345.841 -0.366064 -3.01486 0
M  V30 3558 H 343.426 -0.24514 -1.47375 0
M  V30 3559 H 345.308 1.98385 -3.71781 0
M  V30 3560 H 343.983 2.02828 -2.52275 0
M  V30 3561 H 342.89 0.0567539 -3.74057 0
M  V30 3562 H 344.223 0.0943557 -4.9211 0
M  V30 3563 N 345.875 1.56104 -0.216619 0
M  V30 3564 C 346.805 2.23063 0.690296 0
M  V30 3565 C 347.786 1.20072 1.20485 0
M  V30 3566 O 348.971 1.48643 1.24976 0
M  V30 3567 C 346.101 2.90672 1.90072 0
M  V30 3568 C 345.055 4.00092 1.5202 0
M  V30 3569 C 344.381 4.54972 2.80899 0
M  V30 3570 C 345.681 5.17398 0.71391 0
M  V30 3571 H 347.375 2.99109 0.132038 0
M  V30 3572 H 344.921 1.43866 0.0620664 0
M  V30 3573 H 346.874 3.36204 2.54057 0
M  V30 3574 H 345.598 2.12066 2.48386 0
M  V30 3575 H 344.257 3.55283 0.903839 0
M  V30 3576 H 343.905 3.73102 3.37348 0
M  V30 3577 H 343.605 5.28817 2.56176 0
M  V30 3578 H 345.129 5.0322 3.45836 0
M  V30 3579 H 346.543 5.59342 1.25735 0
M  V30 3580 H 344.94 5.97444 0.563951 0
M  V30 3581 H 346.01 4.84088 -0.280527 0
M  V30 3582 N 347.353 -0.0568162 1.57498 0
M  V30 3583 C 348.303 -1.07315 2.01166 0
M  V30 3584 C 349.287 -1.33632 0.896171 0
M  V30 3585 O 350.479 -1.33682 1.16009 0
M  V30 3586 C 347.608 -2.38257 2.47161 0
M  V30 3587 C 346.694 -2.1515 3.65474 0
M  V30 3588 N 347.085 -1.62014 4.7915 0
M  V30 3589 C 345.383 -2.45559 3.72313 0
M  V30 3590 C 346.084 -1.54069 5.60926 0
M  V30 3591 N 345.06 -2.00652 5.05213 0
M  V30 3592 H 348.862 -0.655878 2.86488 0
M  V30 3593 H 346.376 -0.263635 1.60246 0
M  V30 3594 H 348.373 -3.11845 2.76691 0
M  V30 3595 H 347.033 -2.80687 1.63232 0
M  V30 3596 H 348.044 -1.30667 5.01145 0
M  V30 3597 H 344.721 -2.91253 2.99129 0
M  V30 3598 H 346.111 -1.13712 6.62208 0
M  V30 3599 N 348.832 -1.54138 -0.328536 0
M  V30 3600 C 349.795 -1.82462 -1.38709 0
M  V30 3601 C 350.795 -0.696229 -1.44946 0
M  V30 3602 O 351.985 -0.964535 -1.4506 0
M  V30 3603 C 349.117 -1.98018 -2.77492 0
M  V30 3604 H 350.31 -2.77037 -1.14851 0
M  V30 3605 H 347.863 -1.45779 -0.563751 0
M  V30 3606 H 348.598 -1.05637 -3.06613 0
M  V30 3607 H 348.383 -2.80124 -2.74359 0
M  V30 3608 H 349.873 -2.21396 -3.54081 0
M  V30 3609 N 350.31 0.590341 -1.46126 0
M  V30 3610 C 351.559 1.34499 -1.50309 0
M  V30 3611 C 351.872 1.94977 -0.156021 0
M  V30 3612 O 353.078 2.71395 -0.0756037 0
M  V30 3613 C 351.534 2.43723 -2.64815 0
M  V30 3614 C 351.142 1.89582 -4.0591 0
M  V30 3615 C 352.886 3.20579 -2.78262 0
M  V30 3616 C 350.793 2.9639 -5.11769 0
M  V30 3617 H 349.723 0.505593 -0.559368 0
M  V30 3618 H 352.374 0.630848 -1.72315 0
M  V30 3619 H 350.756 3.17902 -2.36124 0
M  V30 3620 H 351.93 1.21997 -4.44357 0
M  V30 3621 H 350.245 1.25418 -3.97063 0
M  V30 3622 H 352.842 4.00276 -3.54519 0
M  V30 3623 H 353.185 3.72684 -1.85505 0
M  V30 3624 H 353.718 2.53505 -3.06562 0
M  V30 3625 H 350.457 2.49181 -6.06291 0
M  V30 3626 H 349.977 3.62487 -4.77873 0
M  V30 3627 H 351.656 3.60474 -5.37278 0
M  V30 3628 N 351.788 1.33704 0.83433 0
M  V30 3629 C 353.036 1.25169 1.58673 0
M  V30 3630 C 353.357 -0.18127 1.94156 0
M  V30 3631 O 352.627 -1.11113 1.6134 0
M  V30 3632 H 351.207 0.4603 0.58833 0
M  V30 3633 H 353.869 1.67478 0.996847 0
M  V30 3634 H 352.965 1.84856 2.51465 0
M  V30 3635 N 353.266 -1.05314 1.17247 0
M  V30 3636 C 354.214 -2.15137 0.884238 0
M  V30 3637 C 355.208 -1.68729 -0.15063 0
M  V30 3638 O 356.414 -1.8 -0.00366673 0
M  V30 3639 H 352.789 -0.702471 0.2684 0
M  V30 3640 H 354.76 -2.36652 1.81764 0
M  V30 3641 C 353.509 -3.45243 0.412659 0
M  V30 3642 H 352.832 -3.81352 1.20043 0
M  V30 3643 H 354.272 -4.23263 0.249858 0
M  V30 3644 C 352.731 -3.25487 -0.86948 0
M  V30 3645 O 353.261 -3.51938 -1.93655 0
M  V30 3646 N 351.467 -2.78875 -0.817147 0
M  V30 3647 H 351.014 -2.57549 0.0514211 0
M  V30 3648 H 350.972 -2.66036 -1.67547 0
M  V30 3649 N 354.744 -0.972509 -1.24016 0
M  V30 3650 C 355.992 -0.635776 -1.91839 0
M  V30 3651 C 356.313 0.832312 -1.76345 0
M  V30 3652 O 355.583 1.5946 -1.13795 0
M  V30 3653 H 354.163 -0.232157 -0.710009 0
M  V30 3654 H 356.825 -1.23462 -1.50809 0
M  V30 3655 H 355.921 -0.880545 -2.99421 0
M  V30 3656 N 356.222 1.38976 -0.743202 0
M  V30 3657 C 357.185 2.28901 -0.117014 0
M  V30 3658 C 358.185 1.46698 0.658503 0
M  V30 3659 O 359.375 1.67274 0.486305 0
M  V30 3660 C 356.507 3.30309 0.84315 0
M  V30 3661 H 357.7 2.8578 -0.909373 0
M  V30 3662 H 355.253 1.47761 -0.509547 0
M  V30 3663 H 355.988 2.785 1.66157 0
M  V30 3664 H 355.773 3.91029 0.289594 0
M  V30 3665 H 357.263 3.97577 1.2776 0
M  V30 3666 N 357.7 0.491464 1.49741 0
M  V30 3667 C 358.977 -0.118984 1.95238 0
M  V30 3668 C 359.357 -1.55044 1.43264 0
M  V30 3669 O 358.705 -2.19287 0.642287 0
M  V30 3670 C 358.915 -0.0414187 3.48975 0
M  V30 3671 C 360.263 -0.220133 4.24029 0
M  V30 3672 O 361.287 -0.117055 3.56008 0
M  V30 3673 O 360.146 -0.430567 5.44801 0
M  V30 3674 H 357.24 -0.100536 0.820866 0
M  V30 3675 H 359.786 0.553322 1.60426 0
M  V30 3676 H 358.558 0.957214 3.79412 0
M  V30 3677 H 358.181 -0.754292 3.9038 0
M  V30 3678 N 359.178 -1.55987 0.224894 0
M  V30 3679 C 360.408 -2.02489 -0.41007 0
M  V30 3680 C 360.816 -1.10391 -1.53657 0
M  V30 3681 O 360.159 -0.106458 -1.83391 0
M  V30 3682 C 360.221 -3.45319 -0.999757 0
M  V30 3683 C 359.885 -4.56999 -0.00827976 0
M  V30 3684 C 360.882 -5.13812 0.793314 0
M  V30 3685 C 358.567 -5.02176 0.111442 0
M  V30 3686 C 360.561 -6.14276 1.7013 0
M  V30 3687 C 358.248 -6.02477 1.02296 0
M  V30 3688 C 359.246 -6.58403 1.81643 0
M  V30 3689 O 358.934 -7.56751 2.71262 0
M  V30 3690 H 358.666 -0.667915 -0.104235 0
M  V30 3691 H 361.22 -2.0257 0.339782 0
M  V30 3692 H 359.45 -3.42318 -1.79876 0
M  V30 3693 H 361.139 -3.7545 -1.54248 0
M  V30 3694 H 361.905 -4.79756 0.711288 0
M  V30 3695 H 357.784 -4.58323 -0.49605 0
M  V30 3696 H 361.328 -6.57854 2.32107 0
M  V30 3697 H 357.225 -6.35954 1.10599 0
M  V30 3698 H 357.993 -7.74286 2.65375 0
M  V30 3699 N 360.656 0.0484629 -1.57525 0
M  V30 3700 C 361.902 0.744226 -1.88651 0
M  V30 3701 C 362.235 1.76029 -0.820212 0
M  V30 3702 O 361.51 1.93782 0.166985 0
M  V30 3703 C 361.793 1.43128 -3.30434 0
M  V30 3704 C 361.646 0.43005 -4.47739 0
M  V30 3705 C 362.965 2.37031 -3.70816 0
M  V30 3706 H 360.084 0.269089 -0.68612 0
M  V30 3707 H 362.726 0.00713532 -1.89999 0
M  V30 3708 H 360.876 2.05956 -3.29415 0
M  V30 3709 H 362.548 -0.194816 -4.60888 0
M  V30 3710 H 360.791 -0.252522 -4.33064 0
M  V30 3711 H 361.462 0.948874 -5.43783 0
M  V30 3712 H 363.938 1.84263 -3.73077 0
M  V30 3713 H 362.814 2.82094 -4.70865 0
M  V30 3714 H 363.075 3.22864 -3.02012 0
M  V30 3715 N 362.134 1.5431 0.320358 0
M  V30 3716 C 363.55 1.45091 0.664889 0
M  V30 3717 C 363.75 0.626382 1.91517 0
M  V30 3718 O 362.806 0.126443 2.52183 0
M  V30 3719 C 364.119 2.88848 0.83591 0
M  V30 3720 C 365.667 2.9877 0.933046 0
M  V30 3721 C 366.142 4.43683 1.13621 0
M  V30 3722 N 367.633 4.47309 1.20287 0
M  V30 3723 C 368.368 5.56595 1.37801 0
M  V30 3724 N 367.864 6.75844 1.52338 0
M  V30 3725 N 369.657 5.44248 1.40535 0
M  V30 3726 H 361.808 2.06398 -0.501374 0
M  V30 3727 H 364.071 0.933963 -0.162534 0
M  V30 3728 H 363.777 3.51698 -0.0116092 0
M  V30 3729 H 363.651 3.35148 1.73078 0
M  V30 3730 H 366.038 2.36045 1.77107 0
M  V30 3731 H 366.119 2.55796 0.0145782 0
M  V30 3732 H 365.763 5.06995 0.303032 0
M  V30 3733 H 365.693 4.84269 2.0686 0
M  V30 3734 H 368.184 3.61388 1.10485 0
M  V30 3735 H 368.497 7.54892 1.65403 0
M  V30 3736 H 366.842 6.78746 1.4943 0
M  V30 3737 H 370.033 4.50038 1.28777 0
M  V30 3738 H 370.206 6.29473 1.53842 0
M  V30 3739 N 363.613 -0.582584 1.46437 0
M  V30 3740 C 364.841 -1.36682 1.55324 0
M  V30 3741 C 365.256 -1.87796 0.194409 0
M  V30 3742 O 364.613 -1.63623 -0.808318 0
M  V30 3743 C 364.664 -2.55426 2.55812 0
M  V30 3744 O 364.385 -2.0643 3.86417 0
M  V30 3745 C 365.886 -3.47976 2.74641 0
M  V30 3746 H 363.106 -0.417545 0.525259 0
M  V30 3747 H 365.65 -0.708219 1.91845 0
M  V30 3748 H 363.805 -3.17275 2.22295 0
M  V30 3749 H 364.219 -2.83762 4.41111 0
M  V30 3750 H 365.693 -4.27775 3.48874 0
M  V30 3751 H 366.17 -3.99919 1.81553 0
M  V30 3752 H 366.776 -2.91962 3.09255 0
M  V30 3753 N 365.091 -1.34144 -0.827227 0
M  V30 3754 C 366.041 -1.21923 -1.92663 0
M  V30 3755 C 367.025 -0.119294 -1.60457 0
M  V30 3756 O 368.217 -0.348539 -1.73534 0
M  V30 3757 C 365.346 -0.972492 -3.29238 0
M  V30 3758 C 364.432 -2.1154 -3.67576 0
M  V30 3759 N 364.823 -3.36627 -3.77512 0
M  V30 3760 C 363.121 -2.02468 -3.97395 0
M  V30 3761 C 363.822 -4.11658 -4.1099 0
M  V30 3762 N 362.798 -3.40207 -4.23981 0
M  V30 3763 H 366.6 -2.16721 -1.98517 0
M  V30 3764 H 364.114 -1.2632 -1.02064 0
M  V30 3765 H 366.111 -0.865847 -4.0781 0
M  V30 3766 H 364.771 -0.0331509 -3.24683 0
M  V30 3767 H 365.782 -3.71234 -3.61118 0
M  V30 3768 H 362.459 -1.16265 -4.00985 0
M  V30 3769 H 363.849 -5.19657 -4.25918 0
M  V30 3770 N 366.569 1.04691 -1.17803 0
M  V30 3771 C 367.532 2.10724 -0.901545 0
M  V30 3772 C 368.532 1.6042 0.110437 0
M  V30 3773 O 369.722 1.7377 -0.122303 0
M  V30 3774 C 366.854 3.39084 -0.351409 0
M  V30 3775 H 368.047 2.36686 -1.84174 0
M  V30 3776 H 365.6 1.21015 -0.98919 0
M  V30 3777 H 366.335 3.18782 0.59569 0
M  V30 3778 H 366.12 3.76909 -1.08083 0
M  V30 3779 H 367.61 4.17227 -0.176451 0
M  V30 3780 N 368.047 0.979072 1.23499 0
M  V30 3781 C 369.458 0.684391 1.73704 0
M  V30 3782 C 369.809 -0.799448 1.79174 0
M  V30 3783 O 368.934 -1.62531 1.42873 0
M  V30 3784 C 369.529 1.23564 3.15464 0
M  V30 3785 C 368.088 0.99063 3.6313 0
M  V30 3786 C 367.235 1.36416 2.41425 0
M  V30 3787 H 370.186 1.15307 1.09041 0
M  V30 3788 H 370.207 0.607417 3.7562 0
M  V30 3789 H 369.719 2.31561 3.1145 0
M  V30 3790 H 367.82 -0.0733136 3.72528 0
M  V30 3791 H 367.933 1.64427 4.5 0
M  V30 3792 H 366.297 0.782616 2.42378 0
M  V30 3793 H 367.08 2.45387 2.40083 0
M  V30 3794 N 369.525 -1.3858 0.750561 0
M  V30 3795 C 370.773 -1.99789 0.30477 0
M  V30 3796 C 371.094 -1.59874 -1.11649 0
M  V30 3797 O 370.364 -0.85417 -1.76297 0
M  V30 3798 H 368.944 -0.738902 0.109694 0
M  V30 3799 H 371.606 -1.69391 0.963983 0
M  V30 3800 H 370.702 -3.09952 0.365499 0
M  V30 3801 N 371.003 -0.499398 -1.49478 0
M  V30 3802 C 372.28 0.108629 -1.95298 0
M  V30 3803 C 372.66 1.54282 -1.44084 0
M  V30 3804 O 372.008 2.18944 -0.653908 0
M  V30 3805 C 372.218 0.0229111 -3.48992 0
M  V30 3806 C 373.566 0.197643 -4.2414 0
M  V30 3807 O 374.59 0.0981735 -3.56065 0
M  V30 3808 O 373.449 0.401669 -5.45022 0
M  V30 3809 H 370.543 0.096181 -0.821388 0
M  V30 3810 H 373.089 -0.561822 -1.6013 0
M  V30 3811 H 371.861 -0.977321 -3.78899 0
M  V30 3812 H 371.484 0.733579 -3.90774 0
M  V30 3813 N 372.481 1.55866 -0.233164 0
M  V30 3814 C 373.411 2.23783 0.666599 0
M  V30 3815 C 374.392 1.21343 1.19205 0
M  V30 3816 O 375.577 1.4996 1.23392 0
M  V30 3817 C 372.707 2.92671 1.86978 0
M  V30 3818 C 371.661 4.01682 1.47768 0
M  V30 3819 C 370.987 4.57926 2.76058 0
M  V30 3820 C 372.287 5.18126 0.658993 0
M  V30 3821 H 373.981 2.99232 0.100306 0
M  V30 3822 H 371.527 1.43924 0.046804 0
M  V30 3823 H 373.48 3.3888 2.50476 0
M  V30 3824 H 372.204 2.14688 2.46123 0
M  V30 3825 H 370.863 3.56222 0.866106 0
M  V30 3826 H 370.511 3.76659 3.33372 0
M  V30 3827 H 370.211 5.31505 2.50552 0
M  V30 3828 H 371.735 5.06859 3.40479 0
M  V30 3829 H 373.149 5.60644 1.19795 0
M  V30 3830 H 371.546 5.98009 0.500552 0
M  V30 3831 H 372.616 4.83763 -0.331856 0
M  V30 3832 N 373.959 -0.0401083 1.57549 0
M  V30 3833 C 375.375 -0.395556 1.54621 0
M  V30 3834 C 375.575 -1.77281 0.957799 0
M  V30 3835 O 374.631 -2.45888 0.574031 0
M  V30 3836 C 375.944 -0.307535 2.99123 0
M  V30 3837 C 377.492 -0.385425 3.10618 0
M  V30 3838 C 377.967 -0.326973 4.56831 0
M  V30 3839 N 379.458 -0.386102 4.61588 0
M  V30 3840 C 380.193 -0.363591 5.72246 0
M  V30 3841 N 379.689 -0.29402 6.92176 0
M  V30 3842 N 381.482 -0.412503 5.60584 0
M  V30 3843 H 373.633 0.861325 1.94152 0
M  V30 3844 H 375.896 0.326445 0.890021 0
M  V30 3845 H 375.602 0.638461 3.45856 0
M  V30 3846 H 375.476 -1.10552 3.60636 0
M  V30 3847 H 377.863 -1.32185 2.63839 0
M  V30 3848 H 377.944 0.44171 2.51957 0
M  V30 3849 H 377.588 0.605738 5.04275 0
M  V30 3850 H 377.518 -1.17207 5.13391 0
M  V30 3851 H 380.009 -0.442832 3.75296 0
M  V30 3852 H 380.322 -0.28164 7.72287 0
M  V30 3853 H 378.667 -0.260232 6.94513 0
M  V30 3854 H 381.858 -0.464769 4.65787 0
M  V30 3855 H 382.031 -0.391492 6.46816 0
M  V30 3856 N 375.437 -1.54477 -0.31217 0
M  V30 3857 C 376.662 -1.77526 -1.07235 0
M  V30 3858 C 377.087 -0.527775 -1.80544 0
M  V30 3859 O 376.445 0.52121 -1.73646 0
M  V30 3860 C 376.493 -2.97535 -2.03728 0
M  V30 3861 O 375.597 -2.69878 -3.11833 0
M  V30 3862 H 374.938 -0.58792 -0.30862 0
M  V30 3863 H 377.468 -2.01532 -0.352993 0
M  V30 3864 H 377.478 -3.25198 -2.46395 0
M  V30 3865 H 376.153 -3.87996 -1.49774 0
M  V30 3866 H 374.73 -2.53199 -2.7376 0
M  V30 3867 N 376.915 0.57481 -1.46744 0
M  V30 3868 C 377.878 1.66533 -1.57478 0
M  V30 3869 C 378.878 1.54338 -0.451263 0
M  V30 3870 O 380.068 1.58814 -0.715813 0
M  V30 3871 C 377.2 3.05999 -1.50259 0
M  V30 3872 H 378.393 1.58372 -2.54673 0
M  V30 3873 H 375.946 0.793301 -1.34672 0
M  V30 3874 H 376.681 3.19709 -0.543725 0
M  V30 3875 H 376.466 3.16259 -2.31781 0
M  V30 3876 H 377.956 3.8537 -1.60872 0
M  V30 3877 N 378.394 1.34581 0.820102 0
M  V30 3878 C 379.643 1.26437 1.57151 0
M  V30 3879 C 379.956 -0.163111 1.94919 0
M  V30 3880 O 381.162 -0.366722 2.69012 0
M  V30 3881 C 379.618 2.21658 2.83541 0
M  V30 3882 C 379.226 3.69679 2.53065 0
M  V30 3883 C 380.97 2.22428 3.61561 0
M  V30 3884 C 378.877 4.56761 3.75664 0
M  V30 3885 H 377.807 0.469707 0.589823 0
M  V30 3886 H 380.458 1.59763 0.902656 0
M  V30 3887 H 378.84 1.81287 3.52067 0
M  V30 3888 H 380.014 4.18605 1.92631 0
M  V30 3889 H 378.329 3.71384 1.88316 0
M  V30 3890 H 380.926 2.8471 4.52597 0
M  V30 3891 H 381.269 1.22434 3.97889 0
M  V30 3892 H 381.802 2.61259 2.99981 0
M  V30 3893 H 378.541 5.57702 3.44454 0
M  V30 3894 H 378.061 4.12568 4.35371 0
M  V30 3895 H 379.74 4.71509 4.43044 0
M  V30 3896 N 379.872 -1.04064 1.18357 0
M  V30 3897 C 381.1 -1.80916 1.00384 0
M  V30 3898 C 381.515 -1.83414 -0.447738 0
M  V30 3899 O 380.872 -1.26962 -1.31099 0
M  V30 3900 C 380.923 -3.26516 1.55144 0
M  V30 3901 O 380.644 -3.2424 2.94618 0
M  V30 3902 C 382.145 -4.20013 1.41789 0
M  V30 3903 H 379.365 -0.569728 0.354474 0
M  V30 3904 H 381.909 -1.31151 1.56906 0
M  V30 3905 H 380.064 -3.73512 1.02798 0
M  V30 3906 H 380.478 -4.15452 3.20156 0
M  V30 3907 H 381.952 -5.20111 1.84901 0
M  V30 3908 H 382.429 -4.37667 0.36661 0
M  V30 3909 H 383.035 -3.78881 1.93207 0
M  V30 3910 N 381.35 -0.985608 -1.22978 0
M  V30 3911 C 382.597 -0.657386 -1.91532 0
M  V30 3912 C 382.925 0.809707 -1.76845 0
M  V30 3913 O 382.18 1.60021 -1.12658 0
M  V30 3914 C 382.479 -1.00014 -3.43121 0
M  V30 3915 C 382.145 -2.4583 -3.77993 0
M  V30 3916 C 380.807 -2.85679 -3.87222 0
M  V30 3917 C 383.159 -3.40378 -3.94705 0
M  V30 3918 C 380.487 -4.19081 -4.10595 0
M  V30 3919 C 382.839 -4.73429 -4.1958 0
M  V30 3920 C 381.503 -5.1303 -4.27032 0
M  V30 3921 H 380.773 -0.240555 -0.700867 0
M  V30 3922 H 383.42 -1.24044 -1.45895 0
M  V30 3923 H 381.725 -0.335072 -3.90365 0
M  V30 3924 H 383.422 -0.724322 -3.94404 0
M  V30 3925 H 380.012 -2.13939 -3.71387 0
M  V30 3926 H 384.196 -3.10766 -3.8696 0
M  V30 3927 H 379.452 -4.49362 -4.14589 0
M  V30 3928 H 383.626 -5.46644 -4.31455 0
M  V30 3929 H 381.253 -6.16418 -4.44896 0
M  V30 3930 N 382.828 1.3818 -0.7579 0
M  V30 3931 C 384.053 2.04827 -0.325679 0
M  V30 3932 C 384.478 1.56788 1.03919 0
M  V30 3933 O 383.836 0.721811 1.66312 0
M  V30 3934 C 383.884 3.58774 -0.362447 0
M  V30 3935 O 382.988 4.07372 0.642033 0
M  V30 3936 H 382.329 0.64833 -0.143402 0
M  V30 3937 H 384.859 1.7677 -1.03023 0
M  V30 3938 H 384.869 4.07434 -0.214844 0
M  V30 3939 H 383.544 3.93096 -1.35824 0
M  V30 3940 H 382.121 3.70068 0.458688 0
M  V30 3941 N 384.306 0.507319 1.49211 0
M  V30 3942 C 385.216 -0.272136 2.33016 0
M  V30 3943 C 386.232 -0.961206 1.45041 0
M  V30 3944 O 387.408 -0.941191 1.78055 0
M  V30 3945 C 384.473 -1.31895 3.20631 0
M  V30 3946 C 383.534 -0.642648 4.24463 0
M  V30 3947 C 382.767 -1.63959 5.07891 0
M  V30 3948 O 382.99 -2.87007 4.92933 0
M  V30 3949 O 381.924 -1.19143 5.8999 0
M  V30 3950 H 385.75 0.413982 3.00865 0
M  V30 3951 H 383.335 0.268556 1.46966 0
M  V30 3952 H 385.217 -1.92446 3.7489 0
M  V30 3953 H 383.892 -1.98788 2.5547 0
M  V30 3954 H 382.799 0.00276252 3.741 0
M  V30 3955 H 384.132 -0.0160534 4.92197 0
M  V30 3956 N 385.784 -1.5574 0.241426 0
M  V30 3957 C 387.012 -2.03208 -0.389134 0
M  V30 3958 C 387.427 -1.12082 -1.51931 0
M  V30 3959 O 386.784 -0.134183 -1.82006 0
M  V30 3960 C 386.835 -3.50064 -0.902087 0
M  V30 3961 O 386.556 -4.37717 0.18305 0
M  V30 3962 C 388.057 -4.13268 -1.60389 0
M  V30 3963 H 385.277 -0.664509 -0.0931053 0
M  V30 3964 H 387.821 -2.0124 0.36369 0
M  V30 3965 H 385.976 -3.52583 -1.60511 0
M  V30 3966 H 386.39 -5.24097 -0.205579 0
M  V30 3967 H 387.864 -5.17733 -1.91458 0
M  V30 3968 H 388.341 -3.59434 -2.52397 0
M  V30 3969 H 388.947 -4.14655 -0.945576 0
M  V30 3970 N 387.262 0.0317525 -1.57568 0
M  V30 3971 C 388.192 1.03274 -2.0942 0
M  V30 3972 C 389.173 1.3788 -0.996143 0
M  V30 3973 O 390.358 1.46811 -1.27122 0
M  V30 3974 C 387.488 2.33448 -2.57137 0
M  V30 3975 C 386.442 2.13091 -3.71182 0
M  V30 3976 C 385.768 3.49001 -4.05095 0
M  V30 3977 C 387.068 1.51928 -4.99715 0
M  V30 3978 H 388.762 0.60112 -2.93303 0
M  V30 3979 H 386.308 0.287705 -1.41097 0
M  V30 3980 H 388.261 3.03802 -2.92032 0
M  V30 3981 H 386.985 2.78665 -1.70333 0
M  V30 3982 H 385.644 1.45171 -3.36632 0
M  V30 3983 H 385.292 3.91862 -3.15362 0
M  V30 3984 H 384.992 3.36207 -4.81911 0
M  V30 3985 H 386.516 4.20721 -4.42522 0
M  V30 3986 H 387.93 2.12196 -5.32584 0
M  V30 3987 H 386.327 1.49716 -5.81124 0
M  V30 3988 H 387.397 0.484811 -4.8247 0
M  V30 3989 N 388.74 1.54641 0.303973 0
M  V30 3990 C 389.703 1.84646 1.35789 0
M  V30 3991 C 390.703 0.7192 1.4382 0
M  V30 3992 O 391.893 0.987491 1.43507 0
M  V30 3993 C 389.025 2.02407 2.74307 0
M  V30 3994 H 390.218 2.78829 1.10429 0
M  V30 3995 H 387.771 1.46658 0.540487 0
M  V30 3996 H 388.506 1.10502 3.04893 0
M  V30 3997 H 388.291 2.84453 2.69868 0
M  V30 3998 H 389.781 2.27002 3.50514 0
M  V30 3999 N 390.218 -0.567019 1.47046 0
M  V30 4000 C 391.165 -1.67489 1.58796 0
M  V30 4001 C 392.135 -1.60399 0.43144 0
M  V30 4002 O 393.32 -1.79378 0.650233 0
M  V30 4003 C 390.46 -3.05821 1.59899 0
M  V30 4004 C 389.573 -3.2342 2.86397 0
M  V30 4005 C 388.708 -4.52093 2.789 0
M  V30 4006 C 387.747 -4.6309 4.00267 0
M  V30 4007 N 386.884 -5.83106 3.91064 0
M  V30 4008 H 391.724 -1.56785 2.53422 0
M  V30 4009 H 389.261 -0.763896 1.2571 0
M  V30 4010 H 391.219 -3.8591 1.58522 0
M  V30 4011 H 389.849 -3.15384 0.687929 0
M  V30 4012 H 388.901 -2.3683 2.97684 0
M  V30 4013 H 390.213 -3.27412 3.76301 0
M  V30 4014 H 389.367 -5.4043 2.75718 0
M  V30 4015 H 388.106 -4.50565 1.86662 0
M  V30 4016 H 387.111 -3.73168 4.03765 0
M  V30 4017 H 388.336 -4.66386 4.93621 0
M  V30 4018 H 386.282 -5.82546 3.01623 0
M  V30 4019 H 386.199 -5.88434 4.74638 0
M  V30 4020 H 387.467 -6.73831 3.91882 0
M  V30 4021 N 391.696 -1.35014 -0.812953 0
M  V30 4022 C 392.943 -1.27931 -1.56971 0
M  V30 4023 C 393.271 0.148034 -1.93936 0
M  V30 4024 O 392.526 1.11175 -1.61054 0
M  V30 4025 C 392.825 -2.12524 -2.87347 0
M  V30 4026 C 392.491 -3.61401 -2.6963 0
M  V30 4027 C 391.153 -4.01983 -2.64506 0
M  V30 4028 C 393.505 -4.55894 -2.52607 0
M  V30 4029 C 390.833 -5.35235 -2.40293 0
M  V30 4030 C 393.185 -5.89336 -2.29925 0
M  V30 4031 C 391.849 -6.2907 -2.23219 0
M  V30 4032 H 391.119 -0.468131 -0.574399 0
M  V30 4033 H 393.766 -1.66851 -0.939836 0
M  V30 4034 H 392.071 -1.66463 -3.54679 0
M  V30 4035 H 393.768 -2.04383 -3.45005 0
M  V30 4036 H 390.358 -3.29193 -2.74463 0
M  V30 4037 H 394.542 -4.25431 -2.55583 0
M  V30 4038 H 389.798 -5.65028 -2.33566 0
M  V30 4039 H 393.972 -6.62139 -2.15743 0
M  V30 4040 H 391.599 -7.32256 -2.04219 0
M  V30 4041 N 393.175 1.03435 -1.18907 0
M  V30 4042 C 394.591 1.28973 -0.940111 0
M  V30 4043 C 394.791 1.97676 0.390691 0
M  V30 4044 O 393.847 2.26127 1.12352 0
M  V30 4045 C 395.16 2.14221 -2.11021 0
M  V30 4046 C 396.708 2.27547 -2.14922 0
M  V30 4047 C 397.183 3.16164 -3.31367 0
M  V30 4048 N 398.674 3.23752 -3.31269 0
M  V30 4049 C 399.409 3.92495 -4.18014 0
M  V30 4050 N 398.905 4.63515 -5.14904 0
M  V30 4051 N 400.698 3.88838 -4.05908 0
M  V30 4052 H 392.849 0.57252 -2.04538 0
M  V30 4053 H 395.112 0.315184 -0.894071 0
M  V30 4054 H 394.818 1.71054 -3.073 0
M  V30 4055 H 394.692 3.14919 -2.0762 0
M  V30 4056 H 397.079 2.69947 -1.19217 0
M  V30 4057 H 397.16 1.26418 -2.22378 0
M  V30 4058 H 396.804 2.74474 -4.27348 0
M  V30 4059 H 396.734 4.17339 -3.21148 0
M  V30 4060 H 399.225 2.73167 -2.61129 0
M  V30 4061 H 399.538 5.13583 -5.77453 0
M  V30 4062 H 397.883 4.62398 -5.18857 0
M  V30 4063 H 401.074 3.32491 -3.29495 0
M  V30 4064 H 401.247 4.4214 -4.73726 0
M  V30 4065 N 394.653 0.992116 1.22453 0
M  V30 4066 C 395.878 0.685644 1.95739 0
M  V30 4067 C 396.303 -0.743 1.72804 0
M  V30 4068 O 395.661 -1.50778 1.00676 0
M  V30 4069 C 395.709 0.996293 3.46564 0
M  V30 4070 O 394.813 0.0945512 4.12292 0
M  V30 4071 H 394.154 0.256694 0.612376 0
M  V30 4072 H 396.684 1.32888 1.5557 0
M  V30 4073 H 396.694 0.93781 3.97076 0
M  V30 4074 H 395.369 2.03733 3.62582 0
M  V30 4075 H 393.946 0.208451 3.72317 0
M  V30 4076 N 396.131 -1.37776 0.765217 0
M  V30 4077 C 397.547 -1.53297 0.444108 0
M  V30 4078 C 397.747 -1.72515 -1.04119 0
M  V30 4079 O 396.803 -1.74278 -1.82711 0
M  V30 4080 C 398.116 -2.73328 1.25349 0
M  V30 4081 C 399.664 -2.87185 1.24473 0
M  V30 4082 C 400.139 -4.10191 2.03733 0
M  V30 4083 N 401.63 -4.17291 2.01053 0
M  V30 4084 C 402.365 -5.11488 2.59166 0
M  V30 4085 N 401.861 -6.11285 3.26041 0
M  V30 4086 N 403.654 -5.03924 2.49032 0
M  V30 4087 H 395.805 -1.23552 1.72768 0
M  V30 4088 H 398.068 -0.601103 0.733062 0
M  V30 4089 H 397.774 -2.6557 2.30577 0
M  V30 4090 H 397.648 -3.66834 0.87823 0
M  V30 4091 H 400.035 -2.94418 0.20047 0
M  V30 4092 H 400.116 -1.94657 1.65959 0
M  V30 4093 H 399.76 -4.0372 3.08176 0
M  V30 4094 H 399.69 -5.01821 1.59633 0
M  V30 4095 H 402.181 -3.45825 1.5236 0
M  V30 4096 H 402.494 -6.79678 3.67774 0
M  V30 4097 H 400.839 -6.11583 3.30138 0
M  V30 4098 H 404.03 -4.24902 1.96407 0
M  V30 4099 H 404.203 -5.77152 2.94617 0
M  V30 4100 N 397.609 -0.515225 -1.4894 0
M  V30 4101 C 398.886 0.0879088 -1.95402 0
M  V30 4102 C 399.266 1.52745 -1.45712 0
M  V30 4103 O 398.614 2.18238 -0.677093 0
M  V30 4104 C 398.824 -0.0141055 -3.48997 0
M  V30 4105 C 400.172 0.152646 -4.24326 0
M  V30 4106 O 401.196 0.0604025 -3.56149 0
M  V30 4107 O 400.055 0.34384 -5.45417 0
M  V30 4108 H 397.149 0.0874636 -0.822362 0
M  V30 4109 H 399.695 -0.578775 -1.59525 0
M  V30 4110 H 398.467 -1.01745 -3.77841 0
M  V30 4111 H 398.09 0.692091 -3.9153 0
M  V30 4112 N 399.087 1.5561 -0.249682 0
M  V30 4113 C 400.05 2.20217 0.635394 0
M  V30 4114 C 401.05 1.17227 1.10066 0
M  V30 4115 O 402.24 1.42292 1.00492 0
M  V30 4116 C 399.372 2.84794 1.87363 0
M  V30 4117 H 400.565 2.99814 0.0716752 0
M  V30 4118 H 398.118 1.563 -0.000153234 0
M  V30 4119 H 398.853 2.09142 2.47851 0
M  V30 4120 H 398.638 3.60241 1.5482 0
M  V30 4121 H 400.128 3.3423 2.5036 0
M  V30 4122 N 400.565 -0.0233959 1.57583 0
M  V30 4123 C 401.981 -0.379134 1.55031 0
M  V30 4124 C 402.181 -1.76255 0.976548 0
M  V30 4125 O 401.237 -2.45266 0.600078 0
M  V30 4126 C 402.55 -0.275792 2.99433 0
M  V30 4127 C 404.098 -0.352458 3.11009 0
M  V30 4128 C 404.573 -0.278501 4.57152 0
M  V30 4129 N 406.064 -0.337123 4.61972 0
M  V30 4130 C 406.799 -0.302876 5.726 0
M  V30 4131 N 406.295 -0.220589 6.92449 0
M  V30 4132 N 408.088 -0.353023 5.6099 0
M  V30 4133 H 400.239 0.881869 1.93227 0
M  V30 4134 H 402.502 0.335867 0.886509 0
M  V30 4135 H 402.208 0.675108 3.4516 0
M  V30 4136 H 402.082 -1.06721 3.61788 0
M  V30 4137 H 404.469 -1.29379 2.65226 0
M  V30 4138 H 404.55 0.468409 2.51475 0
M  V30 4139 H 404.194 0.659189 5.03604 0
M  V30 4140 H 404.124 -1.11755 5.14605 0
M  V30 4141 H 406.615 -0.403002 3.75745 0
M  V30 4142 H 406.928 -0.199713 7.72542 0
M  V30 4143 H 405.273 -0.186555 6.9475 0
M  V30 4144 H 408.464 -0.415339 4.66254 0
M  V30 4145 H 408.637 -0.322866 6.47195 0
M  V30 4146 N 402.043 -1.548 -0.295768 0
M  V30 4147 C 403.32 -1.65014 -1.05023 0
M  V30 4148 C 403.7 -0.501805 -2.05049 0
M  V30 4149 O 403.048 0.500869 -2.22943 0
M  V30 4150 C 403.258 -3.03252 -1.72741 0
M  V30 4151 C 404.606 -3.60242 -2.24746 0
M  V30 4152 O 405.63 -3.05737 -1.82765 0
M  V30 4153 O 404.489 -4.55687 -3.01681 0
M  V30 4154 H 401.583 -0.669314 -0.485744 0
M  V30 4155 H 404.129 -1.67144 -0.293438 0
M  V30 4156 H 402.901 -3.7827 -1.00138 0
M  V30 4157 H 402.524 -3.04922 -2.55163 0
M  V30 4158 N 403.521 0.559213 -1.47345 0
M  V30 4159 C 404.937 0.884943 -1.32819 0
M  V30 4160 C 405.137 1.98988 -0.317173 0
M  V30 4161 O 404.193 2.51031 0.272011 0
M  V30 4162 C 405.506 1.28007 -2.72093 0
M  V30 4163 C 407.054 1.39161 -2.80363 0
M  V30 4164 C 407.529 1.82031 -4.20272 0
M  V30 4165 N 409.02 1.89185 -4.22804 0
M  V30 4166 C 409.755 2.2368 -5.27973 0
M  V30 4167 N 409.251 2.56802 -6.43447 0
M  V30 4168 N 411.044 2.24436 -5.15349 0
M  V30 4169 H 403.195 -0.170304 -2.11716 0
M  V30 4170 H 405.458 -0.0135247 -0.947904 0
M  V30 4171 H 405.164 0.542027 -3.47498 0
M  V30 4172 H 405.038 2.23665 -3.03733 0
M  V30 4173 H 407.425 2.12048 -2.05231 0
M  V30 4174 H 407.506 0.41696 -2.52379 0
M  V30 4175 H 407.15 1.09715 -4.95908 0
M  V30 4176 H 407.08 2.80495 -4.45679 0
M  V30 4177 H 409.571 1.65982 -3.39497 0
M  V30 4178 H 409.884 2.82144 -7.19454 0
M  V30 4179 H 408.229 2.54387 -6.46771 0
M  V30 4180 H 411.42 1.97998 -4.24163 0
M  V30 4181 H 411.593 2.50989 -5.97418 0
M  V30 4182 N 404.999 1.35443 0.805782 0
M  V30 4183 C 406.247 1.28507 1.55982 0
M  V30 4184 C 406.568 -0.140046 1.94496 0
M  V30 4185 O 405.838 -1.07666 1.63661 0
M  V30 4186 H 404.418 0.472676 0.578434 0
M  V30 4187 H 407.08 1.69555 0.961098 0
M  V30 4188 H 406.176 1.90148 2.47488 0
M  V30 4189 N 406.477 -1.02803 1.19454 0
M  V30 4190 C 407.407 -2.12999 0.956758 0
M  V30 4191 C 408.388 -1.69743 -0.110188 0
M  V30 4192 O 409.573 -1.94148 0.0450038 0
M  V30 4193 C 406.703 -3.43746 0.495553 0
M  V30 4194 C 405.657 -4.00688 1.50443 0
M  V30 4195 C 404.983 -5.27067 0.900275 0
M  V30 4196 C 406.283 -4.35397 2.8849 0
M  V30 4197 H 407.977 -2.33148 1.87836 0
M  V30 4198 H 405.523 -1.12045 0.904539 0
M  V30 4199 H 407.476 -4.2021 0.316493 0
M  V30 4200 H 406.2 -3.23321 -0.461646 0
M  V30 4201 H 404.859 -3.2632 1.67065 0
M  V30 4202 H 404.507 -5.02959 -0.064503 0
M  V30 4203 H 404.207 -5.66127 1.57397 0
M  V30 4204 H 405.731 -6.06196 0.73203 0
M  V30 4205 H 407.145 -5.02795 2.75446 0
M  V30 4206 H 405.542 -4.85541 3.52661 0
M  V30 4207 H 406.612 -3.44662 3.41081 0
M  V30 4208 N 407.956 -0.998596 -1.21925 0
M  V30 4209 C 409.233 -0.593401 -1.86382 0
M  V30 4210 C 409.613 0.92916 -1.89552 0
M  V30 4211 O 408.961 1.81347 -1.39017 0
M  V30 4212 C 409.171 -1.22039 -3.26967 0
M  V30 4213 C 410.519 -1.32449 -4.03413 0
M  V30 4214 O 411.543 -1.17522 -3.36254 0
M  V30 4215 O 410.402 -1.56395 -5.23644 0
M  V30 4216 H 407.496 -0.202385 -0.801854 0
M  V30 4217 H 410.042 -1.09484 -1.29659 0
M  V30 4218 H 408.814 -2.26158 -3.19325 0
M  V30 4219 H 408.437 -0.704906 -3.91301 0
M  V30 4220 N 409.434 1.37368 -0.772513 0
M  V30 4221 C 410.384 2.27613 -0.132823 0
M  V30 4222 C 411.368 1.46138 0.673247 0
M  V30 4223 O 412.56 1.68686 0.536095 0
M  V30 4224 C 409.689 3.35122 0.744864 0
M  V30 4225 C 408.775 4.24044 -0.0690771 0
M  V30 4226 N 409.166 4.93355 -1.1151 0
M  V30 4227 C 407.464 4.45731 0.154782 0
M  V30 4228 C 408.165 5.59 -1.60917 0
M  V30 4229 N 407.141 5.35737 -0.921222 0
M  V30 4230 H 410.943 2.78675 -0.933681 0
M  V30 4231 H 408.457 1.50494 -0.610342 0
M  V30 4232 H 410.454 3.98683 1.21892 0
M  V30 4233 H 409.114 2.85616 1.54446 0
M  V30 4234 H 410.125 4.95785 -1.49726 0
M  V30 4235 H 406.802 4.07096 0.926224 0
M  V30 4236 H 408.192 6.24395 -2.48153 0
M  V30 4237 N 410.912 0.523116 1.48665 0
M  V30 4238 C 411.875 -0.232592 2.28017 0
M  V30 4239 C 412.875 -0.874021 1.34972 0
M  V30 4240 O 414.065 -0.735132 1.57929 0
M  V30 4241 C 411.197 -1.33586 3.13636 0
M  V30 4242 H 412.39 0.464008 2.96289 0
M  V30 4243 H 409.943 0.278816 1.53793 0
M  V30 4244 H 410.678 -2.06593 2.4998 0
M  V30 4245 H 410.463 -0.881125 3.82071 0
M  V30 4246 H 411.953 -1.86759 3.73511 0
M  V30 4247 O 412.429 -1.56474 0.399779 0
M  V30 4248 H 413.12 -1.93172 -0.142934 0
M  V30 END ATOM
M  V30 BEGIN BOND
M  V30 END BOND
M  V30 END CTAB
M  END
$$$$
