drugbank_target|P32418 Sodium/calcium exchanger 1 (DB00132; DB00159; DB04855; DB06231)
 OpenBabel12092119453D

  0  0  0     0  0            999 V3000
M  V30 BEGIN CTAB
M  V30 COUNTS 15218 15380 0 0 0
M  V30 BEGIN ATOM
M  V30 1 H -0.908 1.98254 -0.117106 0
M  V30 2 N 0 1.576 0 0
M  V30 3 C 0.933 2.03868 1.02534 0
M  V30 4 C 1.911 0.928543 1.3348 0
M  V30 5 O 3.095 1.19667 1.45644 0
M  V30 6 C 0.222 2.43627 2.35294 0
M  V30 7 C -0.732 3.65373 2.2001 0
M  V30 8 S 0.101 5.13292 1.52614 0
M  V30 9 C 1.257 5.56322 2.86805 0
M  V30 10 H 1.49 2.90518 0.631377 0
M  V30 11 H -0.977 1.52953 0.210867 0
M  V30 12 H 0.981 2.67203 3.11629 0
M  V30 13 H -0.358 1.57376 2.7183 0
M  V30 14 H -1.165 3.90944 3.18086 0
M  V30 15 H -1.563 3.418 1.51819 0
M  V30 16 H 0.729 5.58782 3.83104 0
M  V30 17 H 1.672 6.56266 2.65933 0
M  V30 18 H 2.08 4.83886 2.90714 0
M  V30 19 N 1.4781 -0.272755 1.55222 0
M  V30 20 C 2.7081 -1.02107 1.79604 0
M  V30 21 C 3.1161 -1.80419 0.569693 0
M  V30 22 O 2.4591 -1.77566 -0.470743 0
M  V30 23 C 2.5211 -2.02675 2.96922 0
M  V30 24 C 2.1851 -1.43299 4.33952 0
M  V30 25 C 3.1821 -0.84853 5.12929 0
M  V30 26 C 0.8671 -1.46012 4.8061 0
M  V30 27 C 2.8611 -0.299109 6.36698 0
M  V30 28 C 0.5481 -0.906833 6.04334 0
M  V30 29 C 1.5461 -0.32733 6.82215 0
M  V30 30 O 1.2341 0.217479 8.03606 0
M  V30 31 H 0.9661 -0.307322 0.602104 0
M  V30 32 H 3.5201 -0.308862 2.03065 0
M  V30 33 H 1.7501 -2.77656 2.69155 0
M  V30 34 H 3.4391 -2.63637 3.08626 0
M  V30 35 H 4.2051 -0.820265 4.78013 0
M  V30 36 H 0.0841 -1.90056 4.2 0
M  V30 37 H 3.6281 0.153852 6.9743 0
M  V30 38 H -0.4749 -0.932339 6.38731 0
M  V30 39 H 0.2931 0.106863 8.1843 0
M  V30 40 N 2.9562 -1.48159 -0.537278 0
M  V30 41 C 3.9042 -1.62573 -1.66352 0
M  V30 42 C 4.8982 -0.492366 -1.62087 0
M  V30 43 O 6.1042 -0.670847 -1.67032 0
M  V30 44 H 2.4792 -0.511992 -0.550789 0
M  V30 45 H 4.4502 -2.57176 -1.51337 0
M  V30 46 C 3.1992 -1.67583 -3.04649 0
M  V30 47 H 2.5222 -2.54151 -3.08622 0
M  V30 48 H 3.9622 -1.81713 -3.83088 0
M  V30 49 C 2.4212 -0.413039 -3.34358 0
M  V30 50 O 2.9512 0.477259 -3.98855 0
M  V30 51 N 1.1572 -0.286961 -2.8918 0
M  V30 52 H 0.7042 -1.01241 -2.36871 0
M  V30 53 H 0.6622 0.556963 -3.09427 0
M  V30 54 N 4.4343 0.785586 -1.36625 0
M  V30 55 C 5.3673 1.90509 -1.25625 0
M  V30 56 C 6.3453 1.62 -0.139607 0
M  V30 57 O 7.5293 1.8591 -0.31141 0
M  V30 58 C 4.6563 3.25419 -0.939158 0
M  V30 59 C 3.7023 3.72856 -2.07077 0
M  V30 60 S 4.5353 3.88162 -3.68904 0
M  V30 61 C 5.6913 5.25942 -3.39317 0
M  V30 62 H 5.9243 1.99549 -2.20381 0
M  V30 63 H 3.4573 0.945226 -1.22085 0
M  V30 64 H 5.4153 4.03346 -0.763029 0
M  V30 65 H 4.0763 3.14099 -0.00931402 0
M  V30 66 H 3.2693 4.70624 -1.80357 0
M  V30 67 H 2.8713 3.01989 -2.20632 0
M  V30 68 H 5.1633 6.10651 -2.93447 0
M  V30 69 H 6.1063 5.57668 -4.36363 0
M  V30 70 H 6.5143 4.93224 -2.74573 0
M  V30 71 N 5.9124 1.20967 1.01018 0
M  V30 72 C 7.3284 0.965905 1.27053 0
M  V30 73 C 7.5284 -0.350785 1.98423 0
M  V30 74 O 6.5844 -1.07773 2.28344 0
M  V30 75 C 7.8974 2.15294 2.09926 0
M  V30 76 C 9.4454 2.19463 2.23171 0
M  V30 77 C 9.9204 3.3767 3.09424 0
M  V30 78 N 11.4114 3.37724 3.17012 0
M  V30 79 C 12.1464 4.25837 3.83993 0
M  V30 80 N 11.6424 5.24138 4.53047 0
M  V30 81 N 13.4354 4.1366 3.80581 0
M  V30 82 H 5.5864 2.0565 0.531194 0
M  V30 83 H 7.8494 0.90024 0.297106 0
M  V30 84 H 7.5554 3.10684 1.64828 0
M  V30 85 H 7.4294 2.13923 3.10672 0
M  V30 86 H 9.8164 1.24632 2.6749 0
M  V30 87 H 9.8974 2.2488 1.21912 0
M  V30 88 H 9.5414 4.32791 2.65808 0
M  V30 89 H 9.4714 3.29491 4.10784 0
M  V30 90 H 11.9624 2.6658 2.6785 0
M  V30 91 H 12.2754 5.87684 5.01844 0
M  V30 92 H 10.6204 5.28068 4.5185 0
M  V30 93 H 13.8114 3.36127 3.25785 0
M  V30 94 H 13.9844 4.82538 4.32505 0
M  V30 95 N 7.3905 -1.2043 1.01659 0
M  V30 96 C 8.8065 -1.41852 0.731442 0
M  V30 97 C 9.0065 -1.89358 -0.688898 0
M  V30 98 O 8.0625 -2.06247 -1.45666 0
M  V30 99 C 9.3755 -2.44019 1.75714 0
M  V30 100 C 10.9235 -2.57785 1.77527 0
M  V30 101 C 11.3985 -3.63194 2.79023 0
M  V30 102 N 12.8895 -3.70678 2.77763 0
M  V30 103 C 13.6245 -4.51897 3.52954 0
M  V30 104 N 13.1205 -5.36921 4.37821 0
M  V30 105 N 14.9135 -4.4643 3.41551 0
M  V30 106 H 7.0645 -0.879093 1.93354 0
M  V30 107 H 9.3275 -0.448425 0.835236 0
M  V30 108 H 9.0335 -2.1611 2.77469 0
M  V30 109 H 8.9075 -3.43007 1.56927 0
M  V30 110 H 11.2945 -2.85023 0.764569 0
M  V30 111 H 11.3755 -1.58992 2.00387 0
M  V30 112 H 11.0195 -3.36699 3.80258 0
M  V30 113 H 10.9495 -4.61609 2.53425 0
M  V30 114 H 13.4405 -3.09944 2.16201 0
M  V30 115 H 13.7535 -5.95981 4.91962 0
M  V30 116 H 12.0985 -5.36424 4.41899 0
M  V30 117 H 15.2895 -3.79042 2.74672 0
M  V30 118 H 15.4625 -5.09491 4.00404 0
M  V30 119 N 8.8686 -0.792821 -1.36206 0
M  V30 120 C 9.7986 -0.207853 -2.32573 0
M  V30 121 C 10.7796 0.659055 -1.56813 0
M  V30 122 O 11.9646 0.592176 -1.84951 0
M  V30 123 C 9.0946 0.655449 -3.41059 0
M  V30 124 C 8.0486 -0.111842 -4.27854 0
M  V30 125 C 7.3746 0.872274 -5.27537 0
M  V30 126 C 8.6746 -1.30299 -5.05786 0
M  V30 127 H 10.3686 -1.01294 -2.81744 0
M  V30 128 H 7.9146 -0.48854 -1.3546 0
M  V30 129 H 9.8676 1.07464 -4.07467 0
M  V30 130 H 8.5916 1.49328 -2.90463 0
M  V30 131 H 7.2506 -0.512053 -3.63006 0
M  V30 132 H 6.8986 1.70523 -4.73214 0
M  V30 133 H 6.5986 0.363291 -5.86476 0
M  V30 134 H 8.1226 1.28996 -5.96818 0
M  V30 135 H 9.5366 -0.959379 -5.65216 0
M  V30 136 H 7.9336 -1.7455 -5.74154 0
M  V30 137 H 9.0036 -2.09663 -4.37229 0
M  V30 138 N 10.3467 1.47872 -0.545128 0
M  V30 139 C 11.5717 2.07391 -0.0190611 0
M  V30 140 C 11.9967 1.39688 1.25971 0
M  V30 141 O 11.3547 0.467816 1.7516 0
M  V30 142 C 11.4027 3.60188 0.172335 0
M  V30 143 O 10.5067 3.9339 1.23766 0
M  V30 144 H 9.8477 0.662411 -0.0459059 0
M  V30 145 H 12.3777 1.90066 -0.757365 0
M  V30 146 H 12.3877 4.06129 0.390305 0
M  V30 147 H 11.0627 4.08865 -0.761725 0
M  V30 148 H 9.6397 3.5921 1.00114 0
M  V30 149 N 11.8248 0.280983 1.55075 0
M  V30 150 C 12.7548 -0.597469 2.25727 0
M  V30 151 C 13.7358 -1.15417 1.24952 0
M  V30 152 O 14.9208 -1.18722 1.53684 0
M  V30 153 C 12.0508 -1.7789 2.98283 0
M  V30 154 C 11.0048 -1.35347 4.06036 0
M  V30 155 C 10.3308 -2.61846 4.66198 0
M  V30 156 C 11.6308 -0.499354 5.19907 0
M  V30 157 H 13.3248 -0.00824265 2.99399 0
M  V30 158 H 10.8708 -0.0025244 1.44 0
M  V30 159 H 12.8238 -2.39937 3.46422 0
M  V30 160 H 11.5478 -2.39405 2.22155 0
M  V30 161 H 10.2068 -0.756156 3.58717 0
M  V30 162 H 9.8548 -3.21632 3.86732 0
M  V30 163 H 9.5548 -2.3409 5.38958 0
M  V30 164 H 11.0788 -3.24732 5.1709 0
M  V30 165 H 12.4928 -1.02498 5.64063 0
M  V30 166 H 10.8898 -0.316424 5.99265 0
M  V30 167 H 11.9598 0.480459 4.82514 0
M  V30 168 N 13.3029 -1.57598 0.00835791 0
M  V30 169 C 14.5279 -1.95617 -0.689103 0
M  V30 170 C 14.9529 -0.883753 -1.66046 0
M  V30 171 O 14.3109 0.157352 -1.80616 0
M  V30 172 C 14.3589 -3.32736 -1.38994 0
M  V30 173 O 13.4629 -3.27631 -2.50463 0
M  V30 174 H 12.8039 -0.638379 -0.182668 0
M  V30 175 H 15.3339 -2.045 0.064036 0
M  V30 176 H 15.3439 -3.68494 -1.75147 0
M  V30 177 H 14.0189 -4.1034 -0.677778 0
M  V30 178 H 12.5959 -3.03561 -2.16576 0
M  V30 179 N 14.781 0.264519 -1.55364 0
M  V30 180 C 16.192 0.834936 -1.6699 0
M  V30 181 C 16.543 1.86718 -0.602552 0
M  V30 182 O 15.668 2.14899 0.254425 0
M  V30 183 C 16.263 1.5212 -3.02729 0
M  V30 184 C 14.822 2.03954 -3.16354 0
M  V30 185 C 13.969 0.884498 -2.62815 0
M  V30 186 H 16.92 0.0406869 -1.58648 0
M  V30 187 H 16.941 2.38853 -2.96191 0
M  V30 188 H 16.453 0.769668 -3.80392 0
M  V30 189 H 14.554 2.82041 -2.43482 0
M  V30 190 H 14.667 2.24902 -4.23032 0
M  V30 191 H 13.031 1.2802 -2.20188 0
M  V30 192 H 13.814 0.14634 -3.42988 0
M  V30 193 N 16.2591 1.48442 0.529413 0
M  V30 194 C 17.4871 1.60151 1.30994 0
M  V30 195 C 17.9021 0.261985 1.86973 0
M  V30 196 O 17.2591 -0.748805 1.66431 0
M  V30 197 C 17.3101 2.64854 2.46038 0
M  V30 198 O 17.0311 3.93608 1.92365 0
M  V30 199 C 18.5321 2.87007 3.37849 0
M  V30 200 H 15.7521 0.539971 0.398338 0
M  V30 201 H 18.2961 1.94273 0.638597 0
M  V30 202 H 16.4511 2.33589 3.09055 0
M  V30 203 H 16.8651 4.51055 2.67675 0
M  V30 204 H 18.3391 3.64068 4.14919 0
M  V30 205 H 18.8161 1.95852 3.93114 0
M  V30 206 H 19.4221 3.19579 2.80623 0
M  V30 207 N 17.7372 -0.778329 1.37039 0
M  V30 208 C 18.9842 -1.53665 1.31884 0
M  V30 209 C 19.3122 -1.9425 -0.0986303 0
M  V30 210 O 18.5672 -1.63832 -1.07041 0
M  V30 211 C 18.8662 -2.81845 2.19768 0
M  V30 212 C 18.5322 -2.60345 3.68146 0
M  V30 213 C 17.1942 -2.5419 4.08584 0
M  V30 214 C 19.5462 -2.40923 4.62175 0
M  V30 215 C 16.8742 -2.26594 5.41177 0
M  V30 216 C 19.2262 -2.14852 5.94997 0
M  V30 217 C 17.8902 -2.07137 6.34547 0
M  V30 218 H 17.1602 -0.562299 0.482598 0
M  V30 219 H 19.8072 -0.897069 1.69189 0
M  V30 220 H 18.1122 -3.50328 1.75436 0
M  V30 221 H 19.8092 -3.39692 2.13097 0
M  V30 222 H 16.3992 -2.65996 3.36072 0
M  V30 223 H 20.5832 -2.44673 4.31797 0
M  V30 224 H 15.8392 -2.19111 5.70789 0
M  V30 225 H 20.0132 -1.98822 6.67415 0
M  V30 226 H 17.6402 -1.85518 7.37216 0
M  V30 227 N 19.2153 -1.21501 -1.00376 0
M  V30 228 C 20.4403 -1.05977 -1.78279 0
M  V30 229 C 20.8653 0.385994 -1.84097 0
M  V30 230 O 20.2233 1.27849 -1.28547 0
M  V30 231 C 20.2713 -1.66302 -3.19963 0
M  V30 232 O 19.3753 -0.909333 -4.0225 0
M  V30 233 H 18.7163 -0.372906 -0.549397 0
M  V30 234 H 21.2463 -1.6107 -1.26165 0
M  V30 235 H 21.2563 -1.70574 -3.70632 0
M  V30 236 H 19.9313 -2.71515 -3.15043 0
M  V30 237 H 18.5083 -0.941795 -3.60811 0
M  V30 238 N 20.6934 1.19889 -1.02296 0
M  V30 239 C 21.6264 2.21639 -0.543282 0
M  V30 240 C 22.6044 1.57275 0.412698 0
M  V30 241 O 23.7884 1.85568 0.331198 0
M  V30 242 C 20.9154 3.38057 0.208571 0
M  V30 243 C 19.9614 4.20751 -0.697933 0
M  V30 244 S 20.7944 4.89529 -2.17075 0
M  V30 245 C 21.9504 6.09363 -1.42923 0
M  V30 246 H 22.1834 2.61984 -1.40541 0
M  V30 247 H 19.7164 1.30041 -0.832387 0
M  V30 248 H 21.6744 4.05539 0.63624 0
M  V30 249 H 20.3354 2.96159 1.04635 0
M  V30 250 H 19.5284 5.03862 -0.117831 0
M  V30 251 H 19.1304 3.58556 -1.06366 0
M  V30 252 H 21.4224 6.73742 -0.712637 0
M  V30 253 H 22.3654 6.71845 -2.23673 0
M  V30 254 H 22.7734 5.56798 -0.929327 0
M  V30 255 N 22.1715 0.800033 1.35784 0
M  V30 256 C 23.4195 0.376597 1.9856 0
M  V30 257 C 23.7405 -1.05812 1.63795 0
M  V30 258 O 23.0105 -1.73103 0.917171 0
M  V30 259 H 21.5905 0.136261 0.734467 0
M  V30 260 H 24.2525 1.02442 1.65806 0
M  V30 261 H 23.3485 0.477002 3.08433 0
M  V30 262 N 23.6496 -1.47581 0.552962 0
M  V30 263 C 24.8966 -2.02482 0.0273243 0
M  V30 264 C 25.2246 -1.42776 -1.32081 0
M  V30 265 O 24.4796 -0.571393 -1.87173 0
M  V30 266 C 24.7786 -3.57199 -0.119728 0
M  V30 267 C 24.4446 -4.35804 1.15697 0
M  V30 268 C 23.1066 -4.57 1.50681 0
M  V30 269 C 25.4586 -4.81167 2.00319 0
M  V30 270 C 22.7866 -5.20807 2.70142 0
M  V30 271 C 25.1386 -5.46293 3.18978 0
M  V30 272 C 23.8026 -5.65722 3.54281 0
M  V30 273 H 23.0726 -0.740933 0.00999866 0
M  V30 274 H 25.7196 -1.77302 0.72362 0
M  V30 275 H 24.0246 -3.81348 -0.89896 0
M  V30 276 H 25.7216 -3.97324 -0.541718 0
M  V30 277 H 22.3116 -4.19582 0.874561 0
M  V30 278 H 26.4956 -4.64574 1.74599 0
M  V30 279 H 21.7516 -5.34045 2.97668 0
M  V30 280 H 25.9256 -5.80407 3.84838 0
M  V30 281 H 23.5526 -6.14936 4.46942 0
M  V30 282 N 25.1277 -0.289203 -1.54924 0
M  V30 283 C 26.0777 0.606939 -2.19773 0
M  V30 284 C 27.0617 1.10783 -1.16687 0
M  V30 285 O 28.2537 1.05057 -1.4245 0
M  V30 286 C 25.3827 1.78398 -2.93307 0
M  V30 287 C 24.4687 1.29961 -4.03697 0
M  V30 288 N 24.8597 0.532377 -5.0299 0
M  V30 289 C 23.1577 1.58136 -4.17024 0
M  V30 290 C 23.8587 0.275912 -5.81045 0
M  V30 291 N 22.8347 0.852365 -5.36876 0
M  V30 292 H 26.6367 0.0130779 -2.93897 0
M  V30 293 H 24.1507 -0.09341 -1.62131 0
M  V30 294 H 26.1477 2.43741 -3.38225 0
M  V30 295 H 24.8077 2.38166 -2.20697 0
M  V30 296 H 25.8187 0.17838 -5.17593 0
M  V30 297 H 22.4957 2.18738 -3.55612 0
M  V30 298 H 23.8857 -0.339502 -6.71042 0
M  V30 299 N 26.6058 1.57591 -0.0167156 0
M  V30 300 C 27.5358 2.12496 0.967858 0
M  V30 301 C 28.5168 1.03807 1.34752 0
M  V30 302 O 29.7018 1.31577 1.42833 0
M  V30 303 C 26.8318 2.64194 2.25431 0
M  V30 304 C 25.7858 3.77559 2.01576 0
M  V30 305 C 25.1118 4.15636 3.36379 0
M  V30 306 C 26.4118 5.04151 1.36489 0
M  V30 307 H 28.1058 2.95013 0.510643 0
M  V30 308 H 25.6518 1.41915 0.244181 0
M  V30 309 H 27.6048 3.01236 2.94678 0
M  V30 310 H 26.3288 1.78821 2.73296 0
M  V30 311 H 24.9878 3.40937 1.34751 0
M  V30 312 H 24.6358 3.27263 3.81979 0
M  V30 313 H 24.3358 4.92022 3.21229 0
M  V30 314 H 25.8598 4.5525 4.06915 0
M  V30 315 H 27.2738 5.38857 1.95718 0
M  V30 316 H 25.6708 5.85453 1.31776 0
M  V30 317 H 26.7408 4.83733 0.336219 0
M  V30 318 N 28.0839 -0.256276 1.55502 0
M  V30 319 C 29.0139 -1.32102 1.92539 0
M  V30 320 C 29.9949 -1.50684 0.789194 0
M  V30 321 O 31.1799 -1.63449 1.04872 0
M  V30 322 C 28.3099 -2.67752 2.21192 0
M  V30 323 C 27.2639 -2.63878 3.36975 0
M  V30 324 C 26.5899 -4.03236 3.51147 0
M  V30 325 C 27.8899 -2.21682 4.72921 0
M  V30 326 H 29.5839 -1.01351 2.81724 0
M  V30 327 H 27.1299 -0.486105 1.35547 0
M  V30 328 H 29.0829 -3.42365 2.45691 0
M  V30 329 H 27.8069 -3.0012 1.28824 0
M  V30 330 H 26.4659 -1.91722 3.12471 0
M  V30 331 H 26.1139 -4.32854 2.56216 0
M  V30 332 H 25.8139 -4.01535 4.29003 0
M  V30 333 H 27.3379 -4.79563 3.77957 0
M  V30 334 H 28.7519 -2.86023 4.96854 0
M  V30 335 H 27.1489 -2.3111 5.53812 0
M  V30 336 H 28.2189 -1.16833 4.70615 0
M  V30 337 N 29.562 -1.4872 -0.521534 0
M  V30 338 C 30.808 -1.574 -1.27879 0
M  V30 339 C 31.141 -0.250817 -1.92573 0
M  V30 340 O 30.416 0.743934 -1.79711 0
M  V30 341 C 30.699 -2.71843 -2.36164 0
M  V30 342 C 30.552 -4.13893 -1.76105 0
M  V30 343 C 31.871 -2.82008 -3.37875 0
M  V30 344 H 28.99 -0.572941 -0.463581 0
M  V30 345 H 31.632 -1.80927 -0.580119 0
M  V30 346 H 29.782 -2.51914 -2.95756 0
M  V30 347 H 31.454 -4.45284 -1.20499 0
M  V30 348 H 29.697 -4.20498 -1.06601 0
M  V30 349 H 30.368 -4.89804 -2.5455 0
M  V30 350 H 32.844 -3.00086 -2.88249 0
M  V30 351 H 31.72 -3.63796 -4.11028 0
M  V30 352 H 31.981 -1.90511 -3.98946 0
M  V30 353 N 31.0401 0.771051 -1.3745 0
M  V30 354 C 32.2681 1.56015 -1.35893 0
M  V30 355 C 32.6831 1.88718 0.0555523 0
M  V30 356 O 32.0401 1.51502 1.01752 0
M  V30 357 C 32.0911 2.87001 -2.19801 0
M  V30 358 O 31.8121 2.557 -3.55738 0
M  V30 359 C 33.3131 3.81228 -2.26231 0
M  V30 360 H 30.5331 0.483317 -0.465453 0
M  V30 361 H 33.0771 0.955611 -1.80799 0
M  V30 362 H 31.2321 3.43877 -1.78402 0
M  V30 363 H 31.6461 3.39584 -3.99729 0
M  V30 364 H 33.1201 4.70139 -2.89263 0
M  V30 365 H 33.5971 4.20409 -1.27093 0
M  V30 366 H 34.2031 3.30281 -2.67945 0
M  V30 367 N 32.5182 1.22032 0.997298 0
M  V30 368 C 33.7642 1.04376 1.73878 0
M  V30 369 C 34.0972 -0.420716 1.89588 0
M  V30 370 O 33.3722 -1.31202 1.43583 0
M  V30 371 C 33.6552 1.75047 3.14691 0
M  V30 372 C 33.5082 3.29062 3.06656 0
M  V30 373 C 34.8272 1.49928 4.13775 0
M  V30 374 H 31.9462 0.380578 0.631133 0
M  V30 375 H 34.5882 1.50312 1.16217 0
M  V30 376 H 32.7382 1.35996 3.63919 0
M  V30 377 H 34.4102 3.7753 2.65083 0
M  V30 378 H 32.6532 3.58967 2.43568 0
M  V30 379 H 33.3242 3.73683 4.06282 0
M  V30 380 H 35.8002 1.83842 3.73285 0
M  V30 381 H 34.6762 2.01878 5.10428 0
M  V30 382 H 34.9372 0.430929 4.39995 0
M  V30 383 N 33.9963 -1.19345 1.0293 0
M  V30 384 C 35.2213 -1.93538 0.745511 0
M  V30 385 C 35.6463 -1.75007 -0.689511 0
M  V30 386 O 35.0043 -1.05265 -1.47611 0
M  V30 387 C 35.0523 -3.43336 1.10239 0
M  V30 388 O 34.1563 -4.11806 0.221289 0
M  V30 389 H 33.4973 -0.604193 0.275404 0
M  V30 390 H 36.0273 -1.5141 1.37609 0
M  V30 391 H 36.0373 -3.94004 1.05947 0
M  V30 392 H 34.7123 -3.56146 2.14786 0
M  V30 393 H 33.2893 -3.715 0.322842 0
M  V30 394 N 35.4744 -0.807222 -1.35358 0
M  V30 395 C 36.4044 -0.232509 -2.3234 0
M  V30 396 C 37.3854 0.642386 -1.57504 0
M  V30 397 O 38.5704 0.572526 -1.85569 0
M  V30 398 C 35.7004 0.619238 -3.41735 0
M  V30 399 C 34.6544 -0.157215 -4.27711 0
M  V30 400 C 33.9804 0.816273 -5.28433 0
M  V30 401 C 35.2804 -1.35656 -5.04376 0
M  V30 402 H 36.9744 -1.04276 -2.80654 0
M  V30 403 H 34.5204 -0.50288 -1.34934 0
M  V30 404 H 36.4734 1.03137 -4.08584 0
M  V30 405 H 35.1974 1.46239 -2.92031 0
M  V30 406 H 33.8564 -0.550525 -3.62443 0
M  V30 407 H 33.5044 1.65494 -4.74996 0
M  V30 408 H 33.2044 0.301067 -5.86828 0
M  V30 409 H 34.7284 1.22659 -5.98153 0
M  V30 410 H 36.1424 -1.01927 -5.64166 0
M  V30 411 H 34.5394 -1.8063 -5.7227 0
M  V30 412 H 35.6094 -2.14288 -4.34981 0
M  V30 413 N 36.9525 1.47285 -0.560781 0
M  V30 414 C 37.8825 2.32857 0.173105 0
M  V30 415 C 38.8635 1.44009 0.905281 0
M  V30 416 O 40.0485 1.7286 0.885046 0
M  V30 417 C 37.1785 3.25861 1.20133 0
M  V30 418 C 36.1325 4.23978 0.585388 0
M  V30 419 C 35.4585 5.06332 1.7185 0
M  V30 420 C 36.7585 5.20242 -0.463178 0
M  V30 421 H 38.4525 2.94466 -0.541307 0
M  V30 422 H 35.9985 1.41601 -0.261764 0
M  V30 423 H 37.9515 3.84569 1.72293 0
M  V30 424 H 36.6755 2.62315 1.94573 0
M  V30 425 H 35.3345 3.66501 0.085054 0
M  V30 426 H 34.9825 4.39186 2.45203 0
M  V30 427 H 34.6825 5.72762 1.31213 0
M  V30 428 H 36.2065 5.67899 2.24329 0
M  V30 429 H 37.6205 5.73293 -0.027502 0
M  V30 430 H 36.0175 5.94896 -0.788627 0
M  V30 431 H 37.0875 4.65504 -1.35773 0
M  V30 432 N 38.4306 0.297415 1.54768 0
M  V30 433 C 39.6776 -0.312913 2.00068 0
M  V30 434 C 40.0056 -1.54171 1.18582 0
M  V30 435 O 39.2606 -1.94108 0.249133 0
M  V30 436 C 39.5596 -0.717561 3.50123 0
M  V30 437 C 39.2256 0.409095 4.4904 0
M  V30 438 C 37.8876 0.718399 4.75807 0
M  V30 439 C 40.2396 1.16717 5.07963 0
M  V30 440 C 37.5676 1.78896 5.5876 0
M  V30 441 C 39.9196 2.22762 5.92081 0
M  V30 442 C 38.5836 2.54303 6.1716 0
M  V30 443 H 37.8536 -0.114503 0.7321 0
M  V30 444 H 40.5006 0.415767 1.86932 0
M  V30 445 H 38.8056 -1.52627 3.60849 0
M  V30 446 H 40.5026 -1.20091 3.82595 0
M  V30 447 H 37.0926 0.157918 4.28309 0
M  V30 448 H 41.2766 0.941466 4.87289 0
M  V30 449 H 36.5326 2.0381 5.7643 0
M  V30 450 H 40.7066 2.81962 6.36765 0
M  V30 451 H 38.3336 3.3739 6.81229 0
M  V30 452 N 39.9087 -1.5758 0.0250728 0
M  V30 453 C 41.1337 -1.96337 -0.668317 0
M  V30 454 C 41.5587 -0.901314 -1.651 0
M  V30 455 O 40.9167 0.138187 -1.80773 0
M  V30 456 C 40.9647 -3.34191 -1.35457 0
M  V30 457 O 40.0687 -3.30269 -2.46974 0
M  V30 458 H 39.4097 -0.640281 -0.175887 0
M  V30 459 H 41.9397 -2.0442 0.0857224 0
M  V30 460 H 41.9497 -3.70331 -1.71228 0
M  V30 461 H 40.6247 -4.11036 -0.634218 0
M  V30 462 H 39.2017 -3.05841 -2.13344 0
M  V30 463 N 41.3868 0.248026 -1.55636 0
M  V30 464 C 42.3368 1.30994 -1.86614 0
M  V30 465 C 43.3208 1.43543 -0.726918 0
M  V30 466 O 44.5128 1.46804 -0.988818 0
M  V30 467 C 41.6418 2.6656 -2.16335 0
M  V30 468 C 40.7278 2.58019 -3.36581 0
M  V30 469 N 41.1188 2.1911 -4.55878 0
M  V30 470 C 39.4168 2.89035 -3.39669 0
M  V30 471 C 40.1178 2.21174 -5.38012 0
M  V30 472 N 39.0938 2.60632 -4.77045 0
M  V30 473 H 42.8958 0.999583 -2.76379 0
M  V30 474 H 40.4098 0.456652 -1.55848 0
M  V30 475 H 42.4068 3.43194 -2.36692 0
M  V30 476 H 41.0668 2.98463 -1.27867 0
M  V30 477 H 42.0778 1.90672 -4.81523 0
M  V30 478 H 38.7548 3.25485 -2.61469 0
M  V30 479 H 40.1448 1.9344 -6.43452 0
M  V30 480 N 42.8649 1.48995 0.513639 0
M  V30 481 C 44.1109 1.58076 1.27042 0
M  V30 482 C 44.4439 0.261026 1.92438 0
M  V30 483 O 43.7189 -0.734393 1.80103 0
M  V30 484 C 44.0019 2.73091 2.34719 0
M  V30 485 C 43.8549 4.14821 1.73907 0
M  V30 486 C 45.1739 2.83796 3.36375 0
M  V30 487 H 42.2929 0.575391 0.460536 0
M  V30 488 H 44.9349 1.81232 0.570516 0
M  V30 489 H 43.0849 2.53479 2.94416 0
M  V30 490 H 44.7569 4.45917 1.18135 0
M  V30 491 H 42.9999 4.21058 1.0437 0
M  V30 492 H 43.6709 4.91147 2.51949 0
M  V30 493 H 46.1469 3.01611 2.86653 0
M  V30 494 H 45.0229 3.65971 4.09093 0
M  V30 495 H 45.2839 1.92624 3.9793 0
M  V30 496 N 44.343 -0.763751 1.37857 0
M  V30 497 C 45.62 -1.51244 1.24035 0
M  V30 498 C 46 -2.10472 -0.162649 0
M  V30 499 O 45.348 -1.96206 -1.17112 0
M  V30 500 C 45.558 -2.58694 2.34261 0
M  V30 501 C 46.906 -3.25878 2.72193 0
M  V30 502 O 47.93 -2.68993 2.33497 0
M  V30 503 O 46.789 -4.2874 3.38887 0
M  V30 504 H 43.883 -0.670243 0.484462 0
M  V30 505 H 46.429 -0.800031 1.49658 0
M  V30 506 H 45.201 -2.13105 3.2818 0
M  V30 507 H 44.824 -3.37527 2.10146 0
M  V30 508 N 45.8211 -1.22559 -0.990812 0
M  V30 509 C 46.7711 -0.964807 -2.0658 0
M  V30 510 C 47.7551 0.0853472 -1.60673 0
M  V30 511 O 48.9471 -0.125443 -1.76555 0
M  V30 512 C 46.0761 -0.546707 -3.38919 0
M  V30 513 C 45.1621 -1.6317 -3.91454 0
M  V30 514 N 45.5531 -2.85985 -4.17189 0
M  V30 515 C 43.8511 -1.50387 -4.19881 0
M  V30 516 C 44.5521 -3.56159 -4.59919 0
M  V30 517 N 43.5281 -2.83637 -4.63736 0
M  V30 518 H 47.3301 -1.89769 -2.24421 0
M  V30 519 H 44.8441 -1.12343 -1.17273 0
M  V30 520 H 46.8411 -0.34119 -4.15502 0
M  V30 521 H 45.5011 0.379254 -3.22478 0
M  V30 522 H 46.5121 -3.22392 -4.05319 0
M  V30 523 H 43.1891 -0.644254 -4.12499 0
M  V30 524 H 44.5791 -4.6139 -4.88435 0
M  V30 525 N 47.2992 1.18797 -1.03562 0
M  V30 526 C 48.5452 1.8893 -0.737113 0
M  V30 527 C 48.8782 1.79837 0.732956 0
M  V30 528 O 48.1532 1.19525 1.5344 0
M  V30 529 C 48.4362 3.39607 -1.19745 0
M  V30 530 C 48.2892 3.57537 -2.72924 0
M  V30 531 C 49.6082 4.33069 -0.783526 0
M  V30 532 H 46.7272 0.686057 -0.269249 0
M  V30 533 H 49.3692 1.39797 -1.28673 0
M  V30 534 H 47.5192 3.81583 -0.729855 0
M  V30 535 H 49.1912 3.24688 -3.27682 0
M  V30 536 H 47.4342 3.00363 -3.12993 0
M  V30 537 H 48.1052 4.63238 -3.00191 0
M  V30 538 H 50.5812 3.98846 -1.18581 0
M  V30 539 H 49.4572 5.3707 -1.13343 0
M  V30 540 H 49.7182 4.40986 0.313681 0
M  V30 541 N 48.7773 0.814389 1.34928 0
M  V30 542 C 50.0263 0.394871 1.97797 0
M  V30 543 C 50.3393 -1.04555 1.65311 0
M  V30 544 O 51.5453 -1.56856 2.21604 0
M  V30 545 C 50.0013 0.655103 3.53888 0
M  V30 546 C 49.6093 2.10858 3.95276 0
M  V30 547 C 51.3533 0.301329 4.23429 0
M  V30 548 C 49.2603 2.31415 5.44244 0
M  V30 549 H 48.1903 0.143913 0.740139 0
M  V30 550 H 50.8413 0.999544 1.53888 0
M  V30 551 H 49.2233 -0.0196253 3.95995 0
M  V30 552 H 50.3973 2.82176 3.64298 0
M  V30 553 H 48.7123 2.42297 3.38646 0
M  V30 554 H 51.3093 0.432869 5.32945 0
M  V30 555 H 51.6523 -0.75331 4.09428 0
M  V30 556 H 52.1853 0.930288 3.86769 0
M  V30 557 H 48.9243 3.35353 5.63222 0
M  V30 558 H 48.4443 1.6463 5.76764 0
M  V30 559 H 50.1233 2.13352 6.10811 0
M  V30 560 N 50.2554 -1.46986 0.568584 0
M  V30 561 C 51.2184 -2.28624 -0.162366 0
M  V30 562 C 52.2184 -1.37596 -0.832103 0
M  V30 563 O 53.4084 -1.60115 -0.68622 0
M  V30 564 C 50.5404 -3.17596 -1.23878 0
M  V30 565 H 51.7334 -2.94722 0.554899 0
M  V30 566 H 49.2864 -1.52863 0.325976 0
M  V30 567 H 50.0214 -2.56214 -1.98808 0
M  V30 568 H 49.8064 -3.846 -0.763219 0
M  V30 569 H 51.2964 -3.79078 -1.75185 0
M  V30 570 N 51.7335 -0.305618 -1.54608 0
M  V30 571 C 52.6435 0.57778 -2.27374 0
M  V30 572 C 53.6595 1.14451 -1.31061 0
M  V30 573 O 54.8355 1.16831 -1.6405 0
M  V30 574 C 51.9005 1.73123 -3.00382 0
M  V30 575 C 50.9615 1.19812 -4.12242 0
M  V30 576 C 50.1945 2.2966 -4.81759 0
M  V30 577 O 50.4175 3.49651 -4.50666 0
M  V30 578 O 49.3515 1.96091 -5.69062 0
M  V30 579 H 53.1775 -0.012624 -3.03697 0
M  V30 580 H 50.7625 -0.0719184 -1.49227 0
M  V30 581 H 52.6445 2.40315 -3.4616 0
M  V30 582 H 51.3195 2.30815 -2.26949 0
M  V30 583 H 50.2265 0.491798 -3.70853 0
M  V30 584 H 51.5595 0.666566 -4.87666 0
M  V30 585 N 53.2116 1.57565 -0.0334293 0
M  V30 586 C 54.4396 1.9628 0.654347 0
M  V30 587 C 54.8546 0.910138 1.65414 0
M  V30 588 O 54.2116 -0.107595 1.82183 0
M  V30 589 C 54.2626 3.35067 1.35693 0
M  V30 590 O 53.9836 4.36296 0.397191 0
M  V30 591 C 55.4846 3.88439 2.13613 0
M  V30 592 H 52.7046 0.646369 0.180132 0
M  V30 593 H 55.2486 2.04282 -0.0944721 0
M  V30 594 H 53.4036 3.2827 2.05712 0
M  V30 595 H 53.8176 5.1678 0.896597 0
M  V30 596 H 55.2916 4.8788 2.58219 0
M  V30 597 H 55.7686 3.22914 2.97696 0
M  V30 598 H 56.3746 3.98516 1.48543 0
M  V30 599 N 54.6897 -0.239769 1.55765 0
M  V30 600 C 55.5997 -1.31831 1.94056 0
M  V30 601 C 56.6157 -1.52275 0.841925 0
M  V30 602 O 57.7917 -1.65759 1.14394 0
M  V30 603 C 54.8567 -2.65156 2.23368 0
M  V30 604 C 53.9177 -2.53173 3.46701 0
M  V30 605 C 53.1507 -3.8014 3.74606 0
M  V30 606 O 53.3737 -4.82343 3.04469 0
M  V30 607 O 52.3077 -3.78344 4.68123 0
M  V30 608 H 56.1337 -1.02347 2.85935 0
M  V30 609 H 53.7187 -0.441123 1.42739 0
M  V30 610 H 55.6007 -3.43929 2.43497 0
M  V30 611 H 54.2757 -2.94358 1.34666 0
M  V30 612 H 53.1827 -1.72662 3.31871 0
M  V30 613 H 54.5157 -2.28915 4.35728 0
M  V30 614 N 56.1678 -1.49265 -0.50573 0
M  V30 615 C 57.1008 -1.60183 -1.62532 0
M  V30 616 C 58.0788 -0.451107 -1.56217 0
M  V30 617 O 59.2628 -0.666016 -1.76342 0
M  V30 618 C 56.3898 -1.55238 -3.01029 0
M  V30 619 C 55.4358 -2.7545 -3.25621 0
M  V30 620 S 56.2688 -4.37174 -3.09256 0
M  V30 621 C 57.4248 -4.34866 -4.50158 0
M  V30 622 H 57.6578 -2.54894 -1.53025 0
M  V30 623 H 55.1908 -1.38098 -0.690535 0
M  V30 624 H 57.1488 -1.53071 -3.80893 0
M  V30 625 H 55.8098 -0.618238 -3.07956 0
M  V30 626 H 55.0028 -2.68197 -4.26716 0
M  V30 627 H 54.6048 -2.75005 -2.53472 0
M  V30 628 H 56.8968 -4.06295 -5.42154 0
M  V30 629 H 57.8398 -5.36223 -4.62462 0
M  V30 630 H 58.2478 -3.65007 -4.30616 0
M  V30 631 N 57.6459 0.756429 -1.3826 0
M  V30 632 C 58.5559 1.9009 -1.37488 0
M  V30 633 C 59.5719 1.71855 -0.272366 0
M  V30 634 O 60.7479 1.94827 -0.510318 0
M  V30 635 C 57.8129 3.25421 -1.19592 0
M  V30 636 C 56.8739 3.56202 -2.39622 0
M  V30 637 C 56.1069 4.85075 -2.2257 0
M  V30 638 O 56.3299 5.57246 -1.21793 0
M  V30 639 O 55.2639 5.15269 -3.11098 0
M  V30 640 H 59.0899 1.93695 -2.33914 0
M  V30 641 H 56.6749 0.901313 -1.1915 0
M  V30 642 H 58.5569 4.06337 -1.11661 0
M  V30 643 H 57.2319 3.22634 -0.262486 0
M  V30 644 H 56.1389 2.75458 -2.53128 0
M  V30 645 H 57.4719 3.63747 -3.31586 0
M  V30 646 N 59.124 1.23083 0.984299 0
M  V30 647 C 60.372 1.05848 1.72165 0
M  V30 648 C 60.693 -0.406049 1.90726 0
M  V30 649 O 59.963 -1.29139 1.47309 0
M  V30 650 H 58.543 0.388685 0.637913 0
M  V30 651 H 61.205 1.54736 1.18503 0
M  V30 652 H 60.301 1.54327 2.71274 0
M  V30 653 N 60.6021 -1.18246 1.0419 0
M  V30 654 C 61.5121 -2.25574 0.644476 0
M  V30 655 C 62.5281 -1.70845 -0.329826 0
M  V30 656 O 63.7041 -2.00554 -0.184443 0
M  V30 657 C 60.7691 -3.46697 0.014877 0
M  V30 658 C 59.8301 -4.16554 1.03834 0
M  V30 659 C 59.0631 -5.31894 0.438692 0
M  V30 660 O 59.2861 -5.65385 -0.754752 0
M  V30 661 O 58.2201 -5.90459 1.168 0
M  V30 662 H 62.0461 -2.61836 1.53869 0
M  V30 663 H 59.6311 -1.25352 0.812854 0
M  V30 664 H 61.5131 -4.20062 -0.335538 0
M  V30 665 H 60.1881 -3.12255 -0.853138 0
M  V30 666 H 59.0951 -3.45251 1.44057 0
M  V30 667 H 60.4281 -4.54998 1.87716 0
M  V30 668 N 62.0802 -0.821533 -1.34494 0
M  V30 669 C 63.3282 -0.408139 -1.97936 0
M  V30 670 C 63.6492 1.03193 -1.65457 0
M  V30 671 O 62.9192 1.71622 -0.944595 0
M  V30 672 H 61.4992 -0.147928 -0.732206 0
M  V30 673 H 64.1612 -1.05067 -1.64155 0
M  V30 674 H 63.2572 -0.52601 -3.07635 0
M  V30 675 N 63.5583 1.46682 -0.576371 0
M  V30 676 C 64.5063 2.31953 0.17335 0
M  V30 677 C 65.5003 1.44098 0.89062 0
M  V30 678 O 66.7063 1.60759 0.809728 0
M  V30 679 H 63.0813 0.748273 0.0747727 0
M  V30 680 H 65.0523 2.93007 -0.564738 0
M  V30 681 C 63.8013 3.27142 1.17786 0
M  V30 682 H 63.1243 3.94719 0.635361 0
M  V30 683 H 64.5643 3.896 1.67296 0
M  V30 684 C 63.0233 2.52036 2.23561 0
M  V30 685 O 63.5533 2.27877 3.3081 0
M  V30 686 N 61.7593 2.12709 1.97998 0
M  V30 687 H 61.3063 2.32557 1.10792 0
M  V30 688 H 61.2643 1.62776 2.68982 0
M  V30 689 N 65.0364 0.313813 1.54444 0
M  V30 690 C 65.9464 -0.565714 2.27677 0
M  V30 691 C 66.9624 -1.13754 1.31666 0
M  V30 692 O 68.1384 -1.15959 1.64668 0
M  V30 693 C 65.2034 -1.71528 3.01296 0
M  V30 694 C 64.2644 -1.17624 4.12872 0
M  V30 695 C 63.4974 -2.27102 4.8297 0
M  V30 696 O 63.7204 -3.47256 4.52514 0
M  V30 697 O 62.6544 -1.9307 5.70094 0
M  V30 698 H 66.4804 0.0287296 3.03686 0
M  V30 699 H 64.0654 0.0798312 1.49187 0
M  V30 700 H 65.9474 -2.38476 3.4743 0
M  V30 701 H 64.6224 -2.29608 2.2817 0
M  V30 702 H 63.5294 -0.472124 3.71109 0
M  V30 703 H 64.8624 -0.640695 4.88012 0
M  V30 704 N 66.5145 -1.57545 0.0417849 0
M  V30 705 C 67.7425 -1.96624 -0.643928 0
M  V30 706 C 68.1575 -0.918897 -1.64929 0
M  V30 707 O 67.5145 0.0979323 -1.82237 0
M  V30 708 C 67.5655 -3.35781 -1.33914 0
M  V30 709 O 67.2865 -4.365 -0.374048 0
M  V30 710 C 68.7875 -3.89566 -2.1155 0
M  V30 711 H 66.0075 -0.647316 -0.176702 0
M  V30 712 H 68.5515 -2.04229 0.105304 0
M  V30 713 H 66.7065 -3.29357 -2.03968 0
M  V30 714 H 67.1205 -5.17248 -0.869179 0
M  V30 715 H 68.5945 -4.89242 -2.55628 0
M  V30 716 H 69.0715 -3.24488 -2.9598 0
M  V30 717 H 69.6775 -3.99298 -1.46427 0
M  V30 718 N 67.9926 0.231505 -1.5589 0
M  V30 719 C 69.2406 0.955461 -1.78088 0
M  V30 720 C 69.5616 1.85262 -0.608533 0
M  V30 721 O 68.8316 1.92277 0.375035 0
M  V30 722 H 67.4116 0.355787 -0.656829 0
M  V30 723 H 70.0736 0.245751 -1.93344 0
M  V30 724 H 69.1696 1.56814 -2.69844 0
M  V30 725 N 69.4707 1.49531 0.497807 0
M  V30 726 C 70.3807 1.69176 1.62532 0
M  V30 727 C 71.3967 0.5744 1.64246 0
M  V30 728 O 72.5727 0.849497 1.82608 0
M  V30 729 C 69.6377 1.75695 2.98885 0
M  V30 730 C 68.6987 2.9929 3.07773 0
M  V30 731 C 67.9317 3.05488 4.37622 0
M  V30 732 O 68.1547 2.19192 5.26603 0
M  V30 733 O 67.0887 3.9798 4.51548 0
M  V30 734 H 70.9147 2.647 1.48887 0
M  V30 735 H 68.4997 1.3331 0.674441 0
M  V30 736 H 70.3817 1.82317 3.79919 0
M  V30 737 H 69.0567 0.8335 3.12785 0
M  V30 738 H 67.9637 2.98183 2.25915 0
M  V30 739 H 69.2967 3.91125 2.98801 0
M  V30 740 N 70.9488 -0.749086 1.3866 0
M  V30 741 C 72.1888 -1.52112 1.36534 0
M  V30 742 C 72.5528 -1.91951 -0.0432316 0
M  V30 743 O 73.7538 -2.68132 -0.189396 0
M  V30 744 C 72.0248 -2.73704 2.29828 0
M  V30 745 S 73.5838 -3.63519 2.45763 0
M  V30 746 H 70.4018 -0.520482 0.484375 0
M  V30 747 H 73.0038 -0.878963 1.74627 0
M  V30 748 H 71.7078 -2.42552 3.31054 0
M  V30 749 H 71.2388 -3.4286 1.929 0
M  V30 750 H 73.2538 -4.66712 1.68505 0
M  V30 751 N 72.4269 -1.23603 -0.977757 0
M  V30 752 C 73.6549 -1.09646 -1.75458 0
M  V30 753 C 74.0699 0.351859 -1.85492 0
M  V30 754 O 73.4269 1.24327 -1.336 0
M  V30 755 C 73.4779 -1.71895 -3.18016 0
M  V30 756 O 73.1989 -3.11063 -3.08498 0
M  V30 757 C 74.6999 -1.63415 -4.12081 0
M  V30 758 H 71.9199 -0.38359 -0.550545 0
M  V30 759 H 74.4639 -1.63507 -1.22824 0
M  V30 760 H 72.6189 -1.22061 -3.67668 0
M  V30 761 H 73.0329 -3.41305 -3.9826 0
M  V30 762 H 74.5069 -2.11669 -5.09804 0
M  V30 763 H 74.9839 -0.593462 -4.35172 0
M  V30 764 H 75.5899 -2.12628 -3.68334 0
M  V30 765 N 73.905 1.17692 -1.04816 0
M  V30 766 C 75.153 1.87488 -0.754497 0
M  V30 767 C 75.474 1.81205 0.720407 0
M  V30 768 O 74.744 1.23544 1.52032 0
M  V30 769 H 73.324 0.694101 -0.276102 0
M  V30 770 H 75.986 1.42793 -1.32651 0
M  V30 771 H 75.082 2.93328 -1.06606 0
M  V30 772 N 75.3831 0.828654 1.34056 0
M  V30 773 C 76.6081 0.431637 2.02859 0
M  V30 774 C 77.0331 -0.956339 1.61975 0
M  V30 775 O 76.3911 -1.62338 0.807228 0
M  V30 776 C 76.4391 0.548323 3.56407 0
M  V30 777 O 75.5431 -0.429556 4.10157 0
M  V30 778 H 74.8841 0.176886 0.640006 0
M  V30 779 H 77.4141 1.12066 1.71179 0
M  V30 780 H 77.4241 0.426196 4.05768 0
M  V30 781 H 76.0991 1.5606 3.8551 0
M  V30 782 H 74.6761 -0.265836 3.71951 0
M  V30 783 N 76.8612 -1.46375 0.584142 0
M  V30 784 C 78.0912 -2.06461 0.0758195 0
M  V30 785 C 78.4992 -1.43322 -1.23512 0
M  V30 786 O 77.8422 -0.533216 -1.75791 0
M  V30 787 C 77.9042 -3.59131 -0.162773 0
M  V30 788 C 77.5682 -4.4447 1.06279 0
M  V30 789 C 78.5652 -4.80918 1.97519 0
M  V30 790 C 76.2502 -4.85584 1.28504 0
M  V30 791 C 78.2442 -5.57309 3.09331 0
M  V30 792 C 75.9312 -5.61734 2.4062 0
M  V30 793 C 76.9292 -5.9751 3.30863 0
M  V30 794 O 76.6172 -6.72121 4.41032 0
M  V30 795 H 76.3492 -0.673745 0.0551725 0
M  V30 796 H 78.9032 -1.88969 0.804984 0
M  V30 797 H 77.1332 -3.74936 -0.946565 0
M  V30 798 H 78.8222 -4.0114 -0.619782 0
M  V30 799 H 79.5882 -4.49732 1.81565 0
M  V30 800 H 75.4672 -4.57187 0.591702 0
M  V30 801 H 79.0112 -5.85152 3.79793 0
M  V30 802 H 74.9082 -5.92334 2.56537 0
M  V30 803 H 75.6762 -6.90547 4.39417 0
M  V30 804 N 78.3393 -0.321999 -1.54275 0
M  V30 805 C 79.5693 0.282642 -2.04658 0
M  V30 806 C 79.9773 1.46453 -1.19784 0
M  V30 807 O 79.3203 1.82367 -0.220932 0
M  V30 808 C 79.3823 0.781857 -3.50895 0
M  V30 809 C 79.0463 -0.277517 -4.56157 0
M  V30 810 C 80.0433 -1.11307 -5.07845 0
M  V30 811 C 77.7283 -0.425256 -5.00497 0
M  V30 812 C 79.7223 -2.08211 -6.02434 0
M  V30 813 C 77.4093 -1.39771 -5.94901 0
M  V30 814 C 78.4073 -2.2246 -6.45756 0
M  V30 815 O 78.0953 -3.18054 -7.38307 0
M  V30 816 H 77.8273 0.0622636 -0.673126 0
M  V30 817 H 80.3813 -0.465792 -2.00049 0
M  V30 818 H 78.6113 1.58118 -3.52896 0
M  V30 819 H 80.3003 1.30467 -3.84361 0
M  V30 820 H 81.0663 -1.00991 -4.74369 0
M  V30 821 H 76.9453 0.20847 -4.60528 0
M  V30 822 H 80.4893 -2.72791 -6.42052 0
M  V30 823 H 76.3863 -1.50152 -6.27794 0
M  V30 824 H 77.1543 -3.13275 -7.56175 0
M  V30 825 N 79.8174 1.5752 -0.0501392 0
M  V30 826 C 81.0574 1.94521 0.627783 0
M  V30 827 C 81.4214 0.928265 1.68069 0
M  V30 828 O 82.6224 1.18517 2.41261 0
M  V30 829 C 80.8934 3.36319 1.20932 0
M  V30 830 S 82.4524 3.95272 1.90539 0
M  V30 831 H 79.2704 0.680456 0.206158 0
M  V30 832 H 81.8724 1.95139 -0.118829 0
M  V30 833 H 80.5764 4.08132 0.430865 0
M  V30 834 H 80.1074 3.39193 1.99277 0
M  V30 835 H 82.1224 3.80415 3.18589 0
M  V30 836 N 81.2955 -0.223234 1.56011 0
M  V30 837 C 82.2425 -1.27664 1.92277 0
M  V30 838 C 83.2125 -1.46659 0.779763 0
M  V30 839 O 84.3975 -1.60256 1.03551 0
M  V30 840 C 81.5375 -2.62234 2.24338 0
M  V30 841 C 80.6505 -2.51051 3.51564 0
M  V30 842 C 79.7855 -3.78133 3.7308 0
M  V30 843 C 78.8245 -3.61665 4.93827 0
M  V30 844 N 77.9615 -4.80693 5.11741 0
M  V30 845 H 82.8015 -0.960358 2.82101 0
M  V30 846 H 80.3385 -0.462901 1.39627 0
M  V30 847 H 82.2965 -3.40596 2.40936 0
M  V30 848 H 80.9265 -2.91961 1.3769 0
M  V30 849 H 79.9785 -1.64132 3.43169 0
M  V30 850 H 81.2905 -2.34803 4.40079 0
M  V30 851 H 80.4445 -4.64938 3.89766 0
M  V30 852 H 79.1835 -3.97304 2.82844 0
M  V30 853 H 78.1885 -2.73244 4.77093 0
M  V30 854 H 79.4135 -3.43966 5.85546 0
M  V30 855 H 77.3595 -5.00181 4.24446 0
M  V30 856 H 77.2765 -4.67165 5.94384 0
M  V30 857 H 78.5445 -5.6893 5.3286 0
M  V30 858 N 82.7736 -1.49793 -0.48987 0
M  V30 859 C 83.7206 -1.67281 -1.59014 0
M  V30 860 C 84.6906 -0.514177 -1.57941 0
M  V30 861 O 85.8756 -0.742533 -1.75759 0
M  V30 862 C 83.0156 -1.75569 -2.97102 0
M  V30 863 C 82.1286 -3.0281 -3.08107 0
M  V30 864 C 81.2636 -3.02008 -4.36995 0
M  V30 865 C 80.3026 -4.23782 -4.41673 0
M  V30 866 N 79.4396 -4.20826 -5.62005 0
M  V30 867 H 84.2796 -2.61224 -1.43409 0
M  V30 868 H 81.8166 -1.29508 -0.697565 0
M  V30 869 H 83.7746 -1.78354 -3.77155 0
M  V30 870 H 82.4046 -0.850827 -3.11385 0
M  V30 871 H 81.4566 -3.09584 -2.21047 0
M  V30 872 H 82.7686 -3.92801 -3.07423 0
M  V30 873 H 81.9226 -3.03418 -5.25378 0
M  V30 874 H 80.6616 -2.09815 -4.4026 0
M  V30 875 H 79.6666 -4.22604 -3.5169 0
M  V30 876 H 80.8916 -5.17181 -4.40115 0
M  V30 877 H 78.8376 -3.31476 -5.66091 0
M  V30 878 H 78.7546 -5.04564 -5.62984 0
M  V30 879 H 80.0226 -4.26355 -6.52565 0
M  V30 880 N 84.2517 0.741722 -1.39055 0
M  V30 881 C 85.4997 1.49818 -1.35643 0
M  V30 882 C 85.8207 1.94938 0.0491642 0
M  V30 883 O 85.0907 1.68505 0.999141 0
M  V30 884 H 83.6707 0.555755 -0.499144 0
M  V30 885 H 86.3327 0.880957 -1.73854 0
M  V30 886 H 85.4287 2.38348 -2.01486 0
M  V30 887 N 85.7298 1.2412 0.971189 0
M  V30 888 C 86.9758 1.08041 1.71625 0
M  V30 889 C 87.3088 -0.380407 1.90438 0
M  V30 890 O 86.5838 -1.28127 1.46334 0
M  V30 891 C 86.8668 1.81682 3.10908 0
M  V30 892 C 86.7198 3.35493 2.99608 0
M  V30 893 C 88.0388 1.58671 4.10501 0
M  V30 894 H 85.1578 0.39388 0.622919 0
M  V30 895 H 87.7998 1.52743 1.13003 0
M  V30 896 H 85.9498 1.43684 3.60953 0
M  V30 897 H 87.6218 3.83068 2.57015 0
M  V30 898 H 85.8648 3.64052 2.35899 0
M  V30 899 H 86.5358 3.82217 3.98264 0
M  V30 900 H 89.0118 1.91719 3.69301 0
M  V30 901 H 87.8878 2.1266 5.06031 0
M  V30 902 H 88.1488 0.524161 4.38982 0
M  V30 903 N 87.2079 -1.17134 1.05439 0
M  V30 904 C 88.4569 -1.86791 0.761049 0
M  V30 905 C 88.7699 -1.82072 -0.714795 0
M  V30 906 O 89.9759 -2.47223 -1.12218 0
M  V30 907 C 88.4319 -3.35166 1.31117 0
M  V30 908 C 88.0399 -3.48381 2.81664 0
M  V30 909 C 89.7839 -4.10134 1.09499 0
M  V30 910 C 87.6909 -4.90793 3.29964 0
M  V30 911 H 86.6209 -0.699681 0.281002 0
M  V30 912 H 89.2719 -1.3226 1.27199 0
M  V30 913 H 87.6539 -3.8925 0.72803 0
M  V30 914 H 88.8279 -3.04502 3.45855 0
M  V30 915 H 87.1429 -2.86836 3.01851 0
M  V30 916 H 89.7399 -5.152 1.43084 0
M  V30 917 H 90.0829 -4.16287 0.0328772 0
M  V30 918 H 90.6159 -3.62264 1.64346 0
M  V30 919 H 87.3549 -4.89816 4.35616 0
M  V30 920 H 86.8749 -5.35333 2.70516 0
M  V30 921 H 88.5539 -5.59573 3.24787 0
M  V30 922 N 88.686 -0.835752 -1.33615 0
M  V30 923 C 89.616 -0.281739 -2.31794 0
M  V30 924 C 90.597 0.608833 -1.58831 0
M  V30 925 O 91.782 0.533035 -1.86741 0
M  V30 926 C 88.912 0.546612 -3.42971 0
M  V30 927 C 87.866 -0.247904 -4.27281 0
M  V30 928 C 87.192 0.704001 -5.30045 0
M  V30 929 C 88.492 -1.46324 -5.01385 0
M  V30 930 H 90.186 -1.10206 -2.78379 0
M  V30 931 H 87.732 -0.531388 -1.33837 0
M  V30 932 H 89.685 0.944467 -4.1068 0
M  V30 933 H 88.409 1.40011 -2.95067 0
M  V30 934 H 87.068 -0.627281 -3.61194 0
M  V30 935 H 86.716 1.55381 -4.78399 0
M  V30 936 H 86.416 0.176524 -5.87335 0
M  V30 937 H 87.94 1.09944 -6.0062 0
M  V30 938 H 89.354 -1.13871 -5.61877 0
M  V30 939 H 87.751 -1.92728 -5.6831 0
M  V30 940 H 88.821 -2.23467 -4.30338 0
M  V30 941 N 90.1641 1.46063 -0.591896 0
M  V30 942 C 91.5751 1.85944 -0.167822 0
M  V30 943 C 91.9261 1.49429 1.27143 0
M  V30 944 O 91.0511 0.913515 1.96173 0
M  V30 945 C 91.6461 3.37489 -0.297794 0
M  V30 946 C 90.2051 3.76332 0.0714732 0
M  V30 947 C 89.3521 2.7006 -0.629509 0
M  V30 948 H 92.3031 1.37087 -0.799555 0
M  V30 949 H 92.3241 3.77532 0.474349 0
M  V30 950 H 91.8361 3.64034 -1.3454 0
M  V30 951 H 89.9371 3.55405 1.11886 0
M  V30 952 H 90.0501 4.78088 -0.311245 0
M  V30 953 H 88.4141 2.54607 -0.0687867 0
M  V30 954 H 89.1971 2.99444 -1.67894 0
M  V30 955 N 91.6422 0.330177 1.54103 0
M  V30 956 C 92.8912 -0.271336 1.99867 0
M  V30 957 C 93.2042 -1.52723 1.22209 0
M  V30 958 O 94.4102 -2.20515 1.58383 0
M  V30 959 C 92.8662 -0.534032 3.55916 0
M  V30 960 C 92.4742 0.705193 4.42415 0
M  V30 961 C 94.2182 -1.09514 4.1013 0
M  V30 962 C 92.1252 0.414035 5.89949 0
M  V30 963 H 91.0552 -0.105166 0.74663 0
M  V30 964 H 93.7062 0.443429 1.78062 0
M  V30 965 H 92.0882 -1.30915 3.73734 0
M  V30 966 H 93.2622 1.4804 4.36372 0
M  V30 967 H 91.5772 1.18698 3.99124 0
M  V30 968 H 94.1742 -1.3277 5.17954 0
M  V30 969 H 94.5172 -2.04656 3.62521 0
M  V30 970 H 95.0502 -0.381038 3.95971 0
M  V30 971 H 91.7892 1.33481 6.41766 0
M  V30 972 H 91.3092 -0.323336 5.98928 0
M  V30 973 H 92.9882 0.0263105 6.46995 0
M  V30 974 N 93.1203 -1.57491 0.0584922 0
M  V30 975 C 94.3663 -1.94081 -0.608617 0
M  V30 976 C 94.7213 -0.937438 -1.68017 0
M  V30 977 O 94.0143 0.0423034 -1.91553 0
M  V30 978 C 94.2083 -3.3513 -1.24188 0
M  V30 979 C 94.0373 -4.49095 -0.233187 0
M  V30 980 C 92.8073 -5.04988 0.177439 0
M  V30 981 C 95.0053 -5.1162 0.524306 0
M  V30 982 N 92.9873 -6.02487 1.17823 0
M  V30 983 C 94.3583 -6.04493 1.37796 0
M  V30 984 C 96.4133 -4.94489 0.581822 0
M  V30 985 C 95.1163 -6.82075 2.28399 0
M  V30 986 C 97.1423 -5.72703 1.47531 0
M  V30 987 C 96.5043 -6.65214 2.31667 0
M  V30 988 H 92.6033 -0.75752 -0.194134 0
M  V30 989 H 95.1873 -1.94248 0.132533 0
M  V30 990 H 93.3583 -3.35726 -1.95302 0
M  V30 991 H 95.0903 -3.5899 -1.86838 0
M  V30 992 H 91.8453 -4.73165 -0.203004 0
M  V30 993 H 92.2693 -6.55933 1.67573 0
M  V30 994 H 96.9113 -4.22765 -0.054443 0
M  V30 995 H 94.6293 -7.53085 2.93067 0
M  V30 996 H 98.2153 -5.61472 1.52448 0
M  V30 997 H 97.0953 -7.24679 2.99683 0
M  V30 998 N 94.5984 0.214957 -1.56127 0
M  V30 999 C 95.5084 1.28727 -1.96129 0
M  V30 1000 C 96.5244 1.50916 -0.866044 0
M  V30 1001 O 97.7004 1.63918 -1.17016 0
M  V30 1002 C 94.7654 2.61569 -2.27558 0
M  V30 1003 C 93.8264 2.47625 -3.50685 0
M  V30 1004 C 93.0594 3.74132 -3.80606 0
M  V30 1005 O 93.2824 4.77438 -3.12104 0
M  V30 1006 O 92.2164 3.70849 -4.74083 0
M  V30 1007 H 96.0424 0.977855 -2.87527 0
M  V30 1008 H 93.6274 0.418358 -1.43423 0
M  V30 1009 H 95.5094 3.40012 -2.48938 0
M  V30 1010 H 94.1844 2.92178 -1.39332 0
M  V30 1011 H 93.0914 1.67361 -3.34576 0
M  V30 1012 H 94.4244 2.21954 -4.39315 0
M  V30 1013 N 96.0765 1.50051 0.48192 0
M  V30 1014 C 97.4875 1.5348 1.06305 0
M  V30 1015 C 97.8385 0.331997 1.93371 0
M  V30 1016 O 96.9635 -0.556256 2.09129 0
M  V30 1017 C 97.5585 2.7813 1.93466 0
M  V30 1018 C 96.1175 2.84275 2.46707 0
M  V30 1019 C 95.2645 2.47637 1.24785 0
M  V30 1020 H 98.2155 1.56472 0.264995 0
M  V30 1021 H 98.2365 2.59372 2.78399 0
M  V30 1022 H 97.7485 3.65654 1.30072 0
M  V30 1023 H 95.8495 2.01077 3.13686 0
M  V30 1024 H 95.9625 3.8691 2.82555 0
M  V30 1025 H 94.3265 1.99835 1.57918 0
M  V30 1026 H 95.1095 3.37457 0.630694 0
M  V30 1027 N 97.5546 -0.734337 1.39446 0
M  V30 1028 C 98.4866 -1.85861 1.34121 0
M  V30 1029 C 99.4996 -1.60871 0.249864 0
M  V30 1030 O 100.689 -1.71093 0.508865 0
M  V30 1031 C 97.7886 -3.21899 1.05991 0
M  V30 1032 C 96.9616 -3.74239 2.26415 0
M  V30 1033 C 96.0206 -4.88841 1.94733 0
M  V30 1034 O 95.0466 -5.02468 2.67422 0
M  V30 1035 N 96.2486 -5.73261 0.913884 0
M  V30 1036 H 99.0136 -1.90934 2.31007 0
M  V30 1037 H 96.5746 -0.915102 1.33557 0
M  V30 1038 H 98.5666 -3.96136 0.828147 0
M  V30 1039 H 97.1366 -3.12091 0.178361 0
M  V30 1040 H 96.3566 -2.91347 2.65539 0
M  V30 1041 H 97.6446 -4.05942 3.06738 0
M  V30 1042 H 97.0426 -5.64842 0.311476 0
M  V30 1043 H 95.5996 -6.47563 0.742015 0
M  V30 1044 N 99.0327 -1.24633 -0.964593 0
M  V30 1045 C 100.31 -0.995809 -1.68354 0
M  V30 1046 C 100.69 0.480964 -2.05548 0
M  V30 1047 O 100.038 1.45599 -1.76105 0
M  V30 1048 C 100.248 -1.92177 -2.91323 0
M  V30 1049 C 101.596 -2.19446 -3.63495 0
M  V30 1050 O 102.62 -1.89855 -3.01386 0
M  V30 1051 O 101.479 -2.69714 -4.75307 0
M  V30 1052 H 98.5727 -0.376854 -0.736146 0
M  V30 1053 H 101.119 -1.35745 -1.0184 0
M  V30 1054 H 99.8907 -2.91938 -2.60553 0
M  V30 1055 H 99.5137 -1.56349 -3.65569 0
M  V30 1056 N 100.511 1.16574 -1.06058 0
M  V30 1057 C 101.922 1.68662 -0.800632 0
M  V30 1058 C 102.273 1.84184 0.67608 0
M  V30 1059 O 101.398 1.53568 1.52466 0
M  V30 1060 C 101.993 3.06356 -1.44676 0
M  V30 1061 C 100.552 3.55575 -1.23465 0
M  V30 1062 C 99.6988 2.31616 -1.52477 0
M  V30 1063 H 102.65 1.00969 -1.22438 0
M  V30 1064 H 102.671 3.70636 -0.860788 0
M  V30 1065 H 102.183 2.95027 -2.52152 0
M  V30 1066 H 100.284 3.72167 -0.179527 0
M  V30 1067 H 100.397 4.37812 -1.94571 0
M  V30 1068 H 98.7608 2.36512 -0.945209 0
M  V30 1069 H 99.5438 2.22887 -2.61106 0
M  V30 1070 N 101.989 0.842826 1.3317 0
M  V30 1071 C 103.214 0.453129 2.02389 0
M  V30 1072 C 103.639 -0.939105 1.6298 0
M  V30 1073 O 102.997 -1.61472 0.8244 0
M  V30 1074 C 103.045 0.586094 3.55805 0
M  V30 1075 O 102.149 -0.386029 4.10589 0
M  V30 1076 H 101.49 0.183664 0.638094 0
M  V30 1077 H 104.02 1.13875 1.69981 0
M  V30 1078 H 104.03 0.469209 4.05293 0
M  V30 1079 H 102.705 1.6014 3.83833 0
M  V30 1080 H 101.282 -0.226371 3.72212 0
M  V30 1081 N 103.467 -1.45747 0.599634 0
M  V30 1082 C 104.714 -2.02292 0.0917284 0
M  V30 1083 C 105.042 -1.46906 -1.27472 0
M  V30 1084 O 104.297 -0.630652 -1.8526 0
M  V30 1085 C 104.596 -3.57399 -0.00602758 0
M  V30 1086 C 104.262 -4.31902 1.29503 0
M  V30 1087 C 102.924 -4.51974 1.65144 0
M  V30 1088 C 105.276 -4.74551 2.15525 0
M  V30 1089 C 102.604 -5.11949 2.86574 0
M  V30 1090 C 104.956 -5.35868 3.36196 0
M  V30 1091 C 103.62 -5.54165 3.72099 0
M  V30 1092 H 102.89 -0.740239 0.0335658 0
M  V30 1093 H 105.537 -1.7491 0.779661 0
M  V30 1094 H 103.842 -3.84014 -0.777183 0
M  V30 1095 H 105.539 -3.98846 -0.415038 0
M  V30 1096 H 102.129 -4.16588 1.00761 0
M  V30 1097 H 106.313 -4.58784 1.8929 0
M  V30 1098 H 101.569 -5.24305 3.14507 0
M  V30 1099 H 105.743 -5.6787 4.03109 0
M  V30 1100 H 103.37 -6.00406 4.6628 0
M  V30 1101 N 104.945 -0.338344 -1.53925 0
M  V30 1102 C 106.193 0.259245 -2.0043 0
M  V30 1103 C 106.514 1.51484 -1.22791 0
M  V30 1104 O 105.784 1.93037 -0.33368 0
M  V30 1105 H 104.364 0.0987845 -0.740439 0
M  V30 1106 H 107.026 -0.458302 -1.89435 0
M  V30 1107 H 106.122 0.505334 -3.07982 0
M  V30 1108 N 106.423 1.57458 -0.0668435 0
M  V30 1109 C 107.7 1.8469 0.644132 0
M  V30 1110 C 108.08 0.958343 1.88093 0
M  V30 1111 O 107.428 0.0233579 2.28488 0
M  V30 1112 C 107.638 3.34767 0.986509 0
M  V30 1113 C 108.986 4.02159 1.36212 0
M  V30 1114 O 110.01 3.39484 1.07839 0
M  V30 1115 O 108.869 5.12694 1.89227 0
M  V30 1116 H 105.963 0.762816 0.319437 0
M  V30 1117 H 108.509 1.6942 -0.0973986 0
M  V30 1118 H 107.281 3.91151 0.107883 0
M  V30 1119 H 106.904 3.55281 1.78497 0
M  V30 1120 N 107.901 -0.206675 1.56239 0
M  V30 1121 C 108.848 -1.25617 1.93621 0
M  V30 1122 C 109.818 -1.45824 0.795274 0
M  V30 1123 O 111.003 -1.59148 1.05245 0
M  V30 1124 C 108.143 -2.59839 2.27107 0
M  V30 1125 C 107.256 -2.47308 3.54207 0
M  V30 1126 C 106.391 -3.74155 3.7707 0
M  V30 1127 C 105.43 -3.56407 4.97635 0
M  V30 1128 N 104.567 -4.75238 5.1681 0
M  V30 1129 H 109.407 -0.930383 2.83104 0
M  V30 1130 H 106.944 -0.448065 1.4011 0
M  V30 1131 H 108.902 -3.38021 2.44535 0
M  V30 1132 H 107.532 -2.90485 1.40778 0
M  V30 1133 H 106.584 -1.60483 3.4489 0
M  V30 1134 H 107.896 -2.30122 4.42544 0
M  V30 1135 H 107.05 -4.60778 3.94675 0
M  V30 1136 H 105.789 -3.94282 2.87042 0
M  V30 1137 H 104.794 -2.68168 4.79964 0
M  V30 1138 H 106.019 -3.37736 5.89161 0
M  V30 1139 H 103.965 -4.95651 4.29728 0
M  V30 1140 H 103.882 -4.60835 5.99306 0
M  V30 1141 H 105.15 -5.63246 5.38864 0
M  V30 1142 N 109.379 -1.50304 -0.473955 0
M  V30 1143 C 110.628 -1.60392 -1.22301 0
M  V30 1144 C 110.941 -0.308411 -1.93153 0
M  V30 1145 O 112.147 -0.288156 -2.69966 0
M  V30 1146 C 110.603 -2.83109 -2.2221 0
M  V30 1147 C 110.211 -4.19524 -1.57173 0
M  V30 1148 C 111.955 -3.0254 -2.97775 0
M  V30 1149 C 109.862 -5.33431 -2.55353 0
M  V30 1150 H 108.792 -0.597286 -0.460179 0
M  V30 1151 H 111.443 -1.76731 -0.493803 0
M  V30 1152 H 109.825 -2.60322 -2.9841 0
M  V30 1153 H 110.999 -4.52554 -0.867824 0
M  V30 1154 H 109.314 -4.05674 -0.939002 0
M  V30 1155 H 111.911 -3.84811 -3.71248 0
M  V30 1156 H 112.254 -2.14154 -3.56992 0
M  V30 1157 H 112.787 -3.25494 -2.28688 0
M  V30 1158 H 109.526 -6.23962 -2.00878 0
M  V30 1159 H 109.046 -5.04823 -3.23904 0
M  V30 1160 H 110.725 -5.63887 -3.17239 0
M  V30 1161 N 110.857 0.726932 -1.39834 0
M  V30 1162 C 111.82 1.82269 -1.38962 0
M  V30 1163 C 112.82 1.58248 -0.285334 0
M  V30 1164 O 114.01 1.65499 -0.54366 0
M  V30 1165 C 111.142 3.20186 -1.17019 0
M  V30 1166 H 112.335 1.84443 -2.36476 0
M  V30 1167 H 109.888 0.931416 -1.25516 0
M  V30 1168 H 110.623 3.23669 -0.202204 0
M  V30 1169 H 110.408 3.3902 -1.96998 0
M  V30 1170 H 111.898 4.00235 -1.1917 0
M  V30 1171 N 112.336 1.25143 0.95797 0
M  V30 1172 C 113.752 1.01892 1.22842 0
M  V30 1173 C 113.952 -0.266311 1.99732 0
M  V30 1174 O 113.008 -0.979913 2.3271 0
M  V30 1175 C 114.321 2.24004 2.00606 0
M  V30 1176 C 115.869 2.28731 2.13662 0
M  V30 1177 C 116.344 3.5049 2.94823 0
M  V30 1178 N 117.835 3.50866 3.02403 0
M  V30 1179 C 118.57 4.4174 3.65586 0
M  V30 1180 N 118.066 5.42882 4.30408 0
M  V30 1181 N 119.859 4.29429 3.62694 0
M  V30 1182 H 112.01 2.07718 0.443493 0
M  V30 1183 H 114.273 0.912031 0.258657 0
M  V30 1184 H 113.979 3.17395 1.51503 0
M  V30 1185 H 113.853 2.26907 3.01319 0
M  V30 1186 H 116.24 1.35865 2.61963 0
M  V30 1187 H 116.321 2.29848 1.12265 0
M  V30 1188 H 115.965 4.43676 2.47213 0
M  V30 1189 H 115.895 3.46617 3.96439 0
M  V30 1190 H 118.386 2.777 2.56302 0
M  V30 1191 H 118.699 6.0844 4.76467 0
M  V30 1192 H 117.044 5.46758 4.29047 0
M  V30 1193 H 120.235 3.49643 3.11236 0
M  V30 1194 H 120.408 5.00448 4.1165 0
M  V30 1195 N 113.814 -1.1601 1.06675 0
M  V30 1196 C 114.777 -2.18724 0.685001 0
M  V30 1197 C 115.777 -1.58496 -0.271246 0
M  V30 1198 O 116.967 -1.74119 -0.0531156 0
M  V30 1199 C 114.099 -3.40899 0.00853648 0
M  V30 1200 H 115.292 -2.54011 1.59431 0
M  V30 1201 H 112.845 -1.30352 0.862441 0
M  V30 1202 H 113.58 -3.11173 -0.913337 0
M  V30 1203 H 113.365 -3.8587 0.696204 0
M  V30 1204 H 114.855 -4.16886 -0.24414 0
M  V30 1205 N 115.292 -0.849877 -1.32721 0
M  V30 1206 C 116.52 -0.464754 -2.01613 0
M  V30 1207 C 116.935 0.937191 -1.63897 0
M  V30 1208 O 116.292 1.61081 -0.857856 0
M  V30 1209 C 116.343 -0.588638 -3.56675 0
M  V30 1210 O 116.064 -1.93535 -3.93034 0
M  V30 1211 C 117.565 -0.2019 -4.4284 0
M  V30 1212 H 114.785 -0.183215 -0.645502 0
M  V30 1213 H 117.329 -1.1455 -1.69407 0
M  V30 1214 H 115.484 0.0443159 -3.87375 0
M  V30 1215 H 115.898 -1.92871 -4.87751 0
M  V30 1216 H 117.372 -0.339599 -5.50954 0
M  V30 1217 H 117.849 0.857224 -4.30753 0
M  V30 1218 H 118.455 -0.809733 -4.17521 0
M  V30 1219 N 116.77 1.45427 -0.607355 0
M  V30 1220 C 118.016 2.0254 -0.102607 0
M  V30 1221 C 118.349 1.47478 1.26348 0
M  V30 1222 O 117.624 0.64939 1.83339 0
M  V30 1223 C 117.907 3.60044 -0.0634347 0
M  V30 1224 C 117.76 4.2544 -1.46017 0
M  V30 1225 C 119.079 4.35646 0.624514 0
M  V30 1226 H 116.198 0.73598 -0.0387607 0
M  V30 1227 H 118.84 1.73284 -0.779282 0
M  V30 1228 H 116.99 3.85101 0.512808 0
M  V30 1229 H 118.662 4.11569 -2.08347 0
M  V30 1230 H 116.905 3.83849 -2.02094 0
M  V30 1231 H 117.576 5.34342 -1.385 0
M  V30 1232 H 120.052 4.15882 0.134723 0
M  V30 1233 H 118.928 5.45376 0.621028 0
M  V30 1234 H 119.189 4.08501 1.69055 0
M  V30 1235 N 118.248 0.346503 1.53744 0
M  V30 1236 C 119.478 -0.250047 2.05081 0
M  V30 1237 C 119.886 -1.44529 1.22098 0
M  V30 1238 O 119.229 -1.81992 0.249917 0
M  V30 1239 C 119.291 -0.725934 3.52094 0
M  V30 1240 C 118.955 0.350053 4.55657 0
M  V30 1241 C 119.952 1.19372 5.0601 0
M  V30 1242 C 117.637 0.504827 4.99757 0
M  V30 1243 C 119.631 2.17768 5.99046 0
M  V30 1244 C 117.318 1.49218 5.92602 0
M  V30 1245 C 118.316 2.32706 6.42135 0
M  V30 1246 O 118.004 3.2976 7.33153 0
M  V30 1247 H 117.736 -0.0515469 0.674032 0
M  V30 1248 H 120.29 0.497559 1.99282 0
M  V30 1249 H 118.52 -1.52483 3.55367 0
M  V30 1250 H 120.209 -1.24336 3.86388 0
M  V30 1251 H 120.975 1.08525 4.72702 0
M  V30 1252 H 116.854 -0.135178 4.60802 0
M  V30 1253 H 120.398 2.82971 6.37631 0
M  V30 1254 H 116.295 1.6012 6.25325 0
M  V30 1255 H 117.063 3.25265 7.51096 0
M  V30 1256 N 119.726 -1.57421 0.075193 0
M  V30 1257 C 120.973 -1.93618 -0.593146 0
M  V30 1258 C 121.301 -0.955484 -1.69413 0
M  V30 1259 O 120.556 0.0283251 -1.9568 0
M  V30 1260 C 120.855 -3.36428 -1.20626 0
M  V30 1261 C 120.521 -4.50307 -0.231078 0
M  V30 1262 C 119.183 -4.81186 0.0371936 0
M  V30 1263 C 121.535 -5.19374 0.435888 0
M  V30 1264 C 118.863 -5.78466 0.979461 0
M  V30 1265 C 121.215 -6.17665 1.3665 0
M  V30 1266 C 119.879 -6.46958 1.6432 0
M  V30 1267 H 119.149 -0.708499 -0.217047 0
M  V30 1268 H 121.796 -1.90937 0.146793 0
M  V30 1269 H 120.101 -3.35592 -2.02201 0
M  V30 1270 H 121.798 -3.61727 -1.73073 0
M  V30 1271 H 118.388 -4.26227 -0.450357 0
M  V30 1272 H 122.572 -4.95711 0.241748 0
M  V30 1273 H 117.828 -5.99487 1.20106 0
M  V30 1274 H 122.002 -6.70284 1.88924 0
M  V30 1275 H 119.629 -7.2215 2.37494 0
M  V30 1276 N 121.204 0.198386 -1.56346 0
M  V30 1277 C 122.45 0.920648 -1.80698 0
M  V30 1278 C 122.783 1.83045 -0.648697 0
M  V30 1279 O 122.058 1.91308 0.350925 0
M  V30 1280 C 122.341 1.73971 -3.15287 0
M  V30 1281 C 122.194 0.85485 -4.41602 0
M  V30 1282 C 123.513 2.71296 -3.46535 0
M  V30 1283 H 120.632 0.333261 -0.657348 0
M  V30 1284 H 123.274 0.188198 -1.89066 0
M  V30 1285 H 121.424 2.36416 -3.08285 0
M  V30 1286 H 123.096 0.245362 -4.60647 0
M  V30 1287 H 121.339 0.161398 -4.335 0
M  V30 1288 H 122.01 1.46286 -5.32264 0
M  V30 1289 H 124.486 2.18983 -3.53816 0
M  V30 1290 H 123.362 3.2569 -4.41834 0
M  V30 1291 H 123.623 3.5018 -2.69864 0
M  V30 1292 N 122.682 1.50554 0.465978 0
M  V30 1293 C 123.645 1.69233 1.54574 0
M  V30 1294 C 124.645 0.562901 1.50626 0
M  V30 1295 O 125.835 0.830016 1.53155 0
M  V30 1296 C 122.967 1.7223 2.94193 0
M  V30 1297 H 124.16 2.65571 1.39327 0
M  V30 1298 H 121.713 1.40111 0.692711 0
M  V30 1299 H 122.448 0.77603 3.14878 0
M  V30 1300 H 122.233 2.54285 2.98466 0
M  V30 1301 H 123.723 1.88618 3.72576 0
M  V30 1302 N 124.16 -0.719506 1.40217 0
M  V30 1303 C 125.093 -1.84298 1.34571 0
M  V30 1304 C 126.071 -1.61149 0.216741 0
M  V30 1305 O 127.255 -1.84212 0.399756 0
M  V30 1306 C 124.382 -3.20568 1.09335 0
M  V30 1307 C 123.428 -3.62551 2.24631 0
M  V30 1308 S 124.261 -3.7012 3.87004 0
M  V30 1309 C 125.417 -5.09154 3.64024 0
M  V30 1310 H 125.65 -1.88807 2.2965 0
M  V30 1311 H 123.183 -0.885901 1.26456 0
M  V30 1312 H 125.141 -3.99246 0.954602 0
M  V30 1313 H 123.802 -3.13696 0.159164 0
M  V30 1314 H 122.995 -4.61483 2.02606 0
M  V30 1315 H 122.597 -2.91119 2.34789 0
M  V30 1316 H 124.889 -5.95955 3.22248 0
M  V30 1317 H 125.832 -5.36213 4.62473 0
M  V30 1318 H 126.24 -4.79562 2.97793 0
M  V30 1319 N 125.638 -1.25649 -0.95132 0
M  V30 1320 C 126.884 -1.10757 -1.69884 0
M  V30 1321 C 127.217 0.350061 -1.91019 0
M  V30 1322 O 126.492 1.25783 -1.48354 0
M  V30 1323 C 126.775 -1.86606 -3.07978 0
M  V30 1324 C 126.628 -3.40217 -2.94232 0
M  V30 1325 C 127.947 -1.65182 -4.07925 0
M  V30 1326 H 125.066 -0.40374 -0.616574 0
M  V30 1327 H 127.708 -1.54521 -1.10558 0
M  V30 1328 H 125.858 -1.49409 -3.58621 0
M  V30 1329 H 127.53 -3.87108 -2.50889 0
M  V30 1330 H 125.773 -3.67759 -2.30078 0
M  V30 1331 H 126.444 -3.88505 -3.92133 0
M  V30 1332 H 128.92 -1.9757 -3.66204 0
M  V30 1333 H 127.796 -2.20683 -5.02583 0
M  V30 1334 H 128.057 -0.593933 -4.38092 0
M  V30 1335 N 127.117 1.15442 -1.07289 0
M  V30 1336 C 128.347 1.89821 -0.815576 0
M  V30 1337 C 128.755 1.7823 0.634867 0
M  V30 1338 O 128.098 1.13152 1.44715 0
M  V30 1339 C 128.16 3.40817 -1.14385 0
M  V30 1340 C 127.824 3.76193 -2.59476 0
M  V30 1341 C 128.821 3.77269 -3.57721 0
M  V30 1342 C 126.506 4.0652 -2.95037 0
M  V30 1343 C 128.5 4.08176 -4.89562 0
M  V30 1344 C 126.187 4.37092 -4.27076 0
M  V30 1345 C 127.185 4.37902 -5.24148 0
M  V30 1346 O 126.873 4.67741 -6.53815 0
M  V30 1347 H 126.605 0.608465 -0.294528 0
M  V30 1348 H 129.159 1.472 -1.43252 0
M  V30 1349 H 127.389 3.83835 -0.469865 0
M  V30 1350 H 129.078 3.96485 -0.869179 0
M  V30 1351 H 129.844 3.5394 -3.3159 0
M  V30 1352 H 125.723 4.05049 -2.20128 0
M  V30 1353 H 129.267 4.08723 -5.65324 0
M  V30 1354 H 125.164 4.59889 -4.5296 0
M  V30 1355 H 125.932 4.85509 -6.58957 0
M  V30 1356 N 128.595 0.856903 1.32268 0
M  V30 1357 C 129.528 0.247937 2.26849 0
M  V30 1358 C 130.506 -0.615382 1.50505 0
M  V30 1359 O 131.69 -0.571689 1.79622 0
M  V30 1360 C 128.817 -0.650093 3.32403 0
M  V30 1361 C 127.863 0.140138 4.2627 0
M  V30 1362 S 128.696 1.51004 5.13769 0
M  V30 1363 C 129.852 0.61778 6.22844 0
M  V30 1364 H 130.085 1.04971 2.78152 0
M  V30 1365 H 127.618 0.654665 1.39834 0
M  V30 1366 H 129.576 -1.16256 3.93694 0
M  V30 1367 H 128.237 -1.4257 2.7988 0
M  V30 1368 H 127.43 -0.543945 5.01056 0
M  V30 1369 H 127.032 0.584267 3.69408 0
M  V30 1370 H 129.324 -0.177053 6.77269 0
M  V30 1371 H 130.267 1.33636 6.95375 0
M  V30 1372 H 130.675 0.191124 5.64176 0
M  V30 1373 N 130.073 -1.45103 0.615059 0
M  V30 1374 C 131.32 -2.02183 0.113179 0
M  V30 1375 C 131.648 -1.48249 -1.25906 0
M  V30 1376 O 130.903 -0.650265 -1.84581 0
M  V30 1377 C 131.202 -3.57386 0.0318797 0
M  V30 1378 C 130.868 -4.30505 1.34077 0
M  V30 1379 C 129.53 -4.50197 1.69929 0
M  V30 1380 C 131.882 -4.72238 2.20546 0
M  V30 1381 C 129.21 -5.08881 2.91988 0
M  V30 1382 C 131.562 -5.32272 3.41861 0
M  V30 1383 C 130.226 -5.50187 3.77956 0
M  V30 1384 H 129.496 -0.739842 0.0414151 0
M  V30 1385 H 132.143 -1.74073 0.798168 0
M  V30 1386 H 130.448 -3.84817 -0.736409 0
M  V30 1387 H 132.145 -3.99264 -0.372712 0
M  V30 1388 H 128.735 -4.15496 1.05173 0
M  V30 1389 H 132.919 -4.56751 1.94146 0
M  V30 1390 H 128.175 -5.20939 3.2005 0
M  V30 1391 H 132.349 -5.63563 4.09109 0
M  V30 1392 H 129.976 -5.95427 4.72622 0
M  V30 1393 N 131.551 -0.354651 -1.53558 0
M  V30 1394 C 132.481 0.489091 -2.2832 0
M  V30 1395 C 133.462 1.09324 -1.30316 0
M  V30 1396 O 134.647 1.11255 -1.59173 0
M  V30 1397 C 131.777 1.63456 -3.0643 0
M  V30 1398 C 130.731 1.1582 -4.12031 0
M  V30 1399 C 130.057 2.39305 -4.7816 0
M  V30 1400 C 131.357 0.250731 -5.21698 0
M  V30 1401 H 133.051 -0.134614 -2.99097 0
M  V30 1402 H 130.597 -0.0661826 -1.43848 0
M  V30 1403 H 132.55 2.23136 -3.57475 0
M  V30 1404 H 131.274 2.28533 -2.33325 0
M  V30 1405 H 129.933 0.584146 -3.61916 0
M  V30 1406 H 129.581 3.02814 -4.01637 0
M  V30 1407 H 129.281 2.08109 -5.49513 0
M  V30 1408 H 130.805 2.99691 -5.31994 0
M  V30 1409 H 132.219 0.754695 -5.68311 0
M  V30 1410 H 130.616 0.0301468 -6.00092 0
M  V30 1411 H 131.686 -0.710125 -4.79672 0
M  V30 1412 N 133.029 1.57378 -0.0835403 0
M  V30 1413 C 134.277 1.93547 0.581718 0
M  V30 1414 C 134.598 0.96524 1.69435 0
M  V30 1415 O 133.868 0.0153369 1.95894 0
M  V30 1416 H 132.448 0.714521 0.217874 0
M  V30 1417 H 135.11 1.94366 -0.144158 0
M  V30 1418 H 134.206 2.95665 0.999423 0
M  V30 1419 N 134.507 -0.190092 1.56449 0
M  V30 1420 C 135.753 -0.911052 1.81184 0
M  V30 1421 C 136.086 -1.82699 0.658396 0
M  V30 1422 O 135.361 -1.91491 -0.340775 0
M  V30 1423 C 135.644 -1.72297 3.16205 0
M  V30 1424 C 135.497 -0.831419 4.42049 0
M  V30 1425 C 136.816 -2.69454 3.47969 0
M  V30 1426 H 133.935 -0.32977 0.659106 0
M  V30 1427 H 136.577 -0.178169 1.89163 0
M  V30 1428 H 134.727 -2.34778 3.09534 0
M  V30 1429 H 136.399 -0.220929 4.60771 0
M  V30 1430 H 134.642 -0.138406 4.33579 0
M  V30 1431 H 135.313 -1.43461 5.33032 0
M  V30 1432 H 137.789 -2.17104 3.54972 0
M  V30 1433 H 136.665 -3.23342 4.43555 0
M  V30 1434 H 136.926 -3.48744 2.71717 0
M  V30 1435 N 135.985 -1.50799 -0.457987 0
M  V30 1436 C 137.21 -1.66496 -1.23668 0
M  V30 1437 C 137.635 -0.353288 -1.84752 0
M  V30 1438 O 136.993 0.684346 -1.67888 0
M  V30 1439 C 137.041 -2.76763 -2.3116 0
M  V30 1440 O 136.145 -2.38928 -3.36136 0
M  V30 1441 H 135.486 -0.555828 -0.363252 0
M  V30 1442 H 138.016 -1.9725 -0.543474 0
M  V30 1443 H 138.026 -3.00232 -2.76269 0
M  V30 1444 H 136.701 -3.71954 -1.86073 0
M  V30 1445 H 135.278 -2.25953 -2.96647 0
M  V30 1446 N 137.463 0.71206 -1.40597 0
M  V30 1447 C 138.712 1.46754 -1.38369 0
M  V30 1448 C 139.025 1.95598 0.0097839 0
M  V30 1449 O 140.231 2.71059 0.154677 0
M  V30 1450 C 138.687 2.65289 -2.43207 0
M  V30 1451 C 138.295 2.23301 -3.88382 0
M  V30 1452 C 140.039 3.43008 -2.50091 0
M  V30 1453 C 137.946 3.38696 -4.84808 0
M  V30 1454 H 136.876 0.55118 -0.514506 0
M  V30 1455 H 139.527 0.774616 -1.66349 0
M  V30 1456 H 137.909 3.36769 -2.08332 0
M  V30 1457 H 139.083 1.59218 -4.32419 0
M  V30 1458 H 137.398 1.58618 -3.85006 0
M  V30 1459 H 139.995 4.28881 -3.1932 0
M  V30 1460 H 140.338 3.87065 -1.53253 0
M  V30 1461 H 140.871 2.78574 -2.83974 0
M  V30 1462 H 137.61 2.99668 -5.82992 0
M  V30 1463 H 137.13 4.01683 -4.45433 0
M  V30 1464 H 138.809 4.04712 -5.04794 0
M  V30 1465 N 138.941 1.26152 0.944643 0
M  V30 1466 C 140.19 1.10883 1.68487 0
M  V30 1467 C 140.503 -0.348153 1.92477 0
M  V30 1468 O 141.709 -0.621459 2.64292 0
M  V30 1469 C 140.165 1.93624 3.03377 0
M  V30 1470 C 139.773 3.43875 2.87148 0
M  V30 1471 C 141.517 1.86954 3.81115 0
M  V30 1472 C 139.424 4.18875 4.1749 0
M  V30 1473 H 138.354 0.41135 0.631907 0
M  V30 1474 H 141.005 1.50433 1.05082 0
M  V30 1475 H 139.387 1.46904 3.67743 0
M  V30 1476 H 140.561 3.98338 2.31653 0
M  V30 1477 H 138.876 3.51744 2.22856 0
M  V30 1478 H 141.473 2.40275 4.77673 0
M  V30 1479 H 141.816 0.839518 4.07747 0
M  V30 1480 H 142.349 2.31477 3.23517 0
M  V30 1481 H 139.088 5.22332 3.96043 0
M  V30 1482 H 138.608 3.69193 4.72712 0
M  V30 1483 H 140.287 4.27134 4.85968 0
M  V30 1484 N 140.419 -1.14872 1.07899 0
M  V30 1485 C 141.382 -2.17986 0.708161 0
M  V30 1486 C 142.382 -1.58775 -0.25442 0
M  V30 1487 O 143.572 -1.74166 -0.034645 0
M  V30 1488 C 140.704 -3.40871 0.0446929 0
M  V30 1489 H 141.897 -2.52306 1.62116 0
M  V30 1490 H 139.45 -1.2943 0.876218 0
M  V30 1491 H 140.185 -3.12124 -0.880281 0
M  V30 1492 H 139.97 -3.8511 0.737091 0
M  V30 1493 H 141.46 -4.17121 -0.19991 0
M  V30 1494 N 141.898 -0.863906 -1.31812 0
M  V30 1495 C 143.175 -0.39275 -1.91616 0
M  V30 1496 C 143.555 1.12461 -1.7865 0
M  V30 1497 O 142.903 1.95045 -1.19037 0
M  V30 1498 C 143.113 -0.867385 -3.38049 0
M  V30 1499 C 144.461 -0.889966 -4.15168 0
M  V30 1500 O 145.485 -0.812635 -3.46806 0
M  V30 1501 O 144.344 -1.00079 -5.37258 0
M  V30 1502 H 141.438 -0.116358 -0.818773 0
M  V30 1503 H 143.984 -0.951418 -1.40521 0
M  V30 1504 H 142.756 -1.91081 -3.41473 0
M  V30 1505 H 142.379 -0.286687 -3.96565 0
M  V30 1506 N 143.376 1.44774 -0.622745 0
M  V30 1507 C 144.792 1.56986 -0.287652 0
M  V30 1508 C 144.992 1.61167 1.20944 0
M  V30 1509 O 144.048 1.55015 1.99315 0
M  V30 1510 C 145.361 2.84551 -0.972188 0
M  V30 1511 C 146.909 2.9825 -0.949536 0
M  V30 1512 C 147.384 4.28605 -1.61437 0
M  V30 1513 N 148.875 4.35399 -1.58057 0
M  V30 1514 C 149.61 5.34964 -2.064 0
M  V30 1515 N 149.106 6.40981 -2.62897 0
M  V30 1516 N 150.899 5.26419 -1.97078 0
M  V30 1517 H 143.05 1.40304 -1.59463 0
M  V30 1518 H 145.313 0.671794 -0.668878 0
M  V30 1519 H 145.019 2.87417 -2.02693 0
M  V30 1520 H 144.893 3.73807 -0.504771 0
M  V30 1521 H 147.28 2.94941 0.0967067 0
M  V30 1522 H 147.361 2.10364 -1.45536 0
M  V30 1523 H 147.005 4.32672 -2.66002 0
M  V30 1524 H 146.935 5.15334 -1.08344 0
M  V30 1525 H 149.426 3.59397 -1.16801 0
M  V30 1526 H 149.739 7.13225 -2.97539 0
M  V30 1527 H 148.084 6.4169 -2.66943 0
M  V30 1528 H 151.275 4.42504 -1.52669 0
M  V30 1529 H 151.448 6.03861 -2.35066 0
M  V30 1530 N 144.854 0.36279 1.53368 0
M  V30 1531 C 146.101 -0.227776 2.01215 0
M  V30 1532 C 146.429 -1.49003 1.25014 0
M  V30 1533 O 145.684 -1.92876 0.331236 0
M  V30 1534 C 145.983 -0.568417 3.52851 0
M  V30 1535 C 145.649 0.59918 4.46901 0
M  V30 1536 C 144.311 0.919559 4.72332 0
M  V30 1537 C 146.663 1.38156 5.02556 0
M  V30 1538 C 143.991 2.02434 5.5067 0
M  V30 1539 C 146.343 2.47674 5.821 0
M  V30 1540 C 145.007 2.8025 6.05819 0
M  V30 1541 H 144.277 -0.083349 0.736297 0
M  V30 1542 H 146.924 0.494677 1.85001 0
M  V30 1543 H 145.229 -1.37185 3.66998 0
M  V30 1544 H 146.926 -1.03756 3.87344 0
M  V30 1545 H 143.516 0.339437 4.27254 0
M  V30 1546 H 147.7 1.14729 4.82857 0
M  V30 1547 H 142.956 2.28075 5.67267 0
M  V30 1548 H 147.13 3.08716 6.24234 0
M  V30 1549 H 144.757 3.65979 6.66306 0
M  V30 1550 N 146.332 -1.57332 0.0918853 0
M  V30 1551 C 147.265 -2.09499 -0.904735 0
M  V30 1552 C 148.243 -1.00479 -1.27839 0
M  V30 1553 O 149.427 -1.27954 -1.38419 0
M  V30 1554 C 146.554 -2.56931 -2.2069 0
M  V30 1555 C 145.6 -3.77579 -1.98334 0
M  V30 1556 S 146.433 -5.21317 -1.22428 0
M  V30 1557 C 147.589 -5.72097 -2.53882 0
M  V30 1558 H 147.822 -2.93705 -0.460922 0
M  V30 1559 H 145.355 -1.53923 -0.121332 0
M  V30 1560 H 147.313 -2.84917 -2.95521 0
M  V30 1561 H 145.974 -1.72956 -2.62192 0
M  V30 1562 H 145.167 -4.08824 -2.94752 0
M  V30 1563 H 144.769 -3.5007 -1.31633 0
M  V30 1564 H 147.061 -5.80168 -3.49874 0
M  V30 1565 H 148.004 -6.70654 -2.27219 0
M  V30 1566 H 148.412 -5.00012 -2.62007 0
M  V30 1567 N 147.81 0.181792 -1.56548 0
M  V30 1568 C 149.035 0.920019 -1.85877 0
M  V30 1569 C 149.46 1.75494 -0.677021 0
M  V30 1570 O 148.818 1.77399 0.374056 0
M  V30 1571 C 148.866 1.78112 -3.13542 0
M  V30 1572 O 147.97 2.88152 -2.95029 0
M  V30 1573 H 147.311 0.258334 -0.611686 0
M  V30 1574 H 149.841 0.183092 -2.03779 0
M  V30 1575 H 149.851 2.18314 -3.44678 0
M  V30 1576 H 148.526 1.16777 -3.99169 0
M  V30 1577 H 147.103 2.51609 -2.75222 0
M  V30 1578 N 149.288 1.51039 0.449983 0
M  V30 1579 C 150.513 1.6715 1.22783 0
M  V30 1580 C 150.938 0.363081 1.84563 0
M  V30 1581 O 150.296 -0.675433 1.68249 0
M  V30 1582 C 150.344 2.77985 2.29689 0
M  V30 1583 O 149.448 2.40707 3.34864 0
M  V30 1584 H 148.789 0.557746 0.360299 0
M  V30 1585 H 151.319 1.97535 0.533005 0
M  V30 1586 H 151.329 3.01693 2.74673 0
M  V30 1587 H 150.004 3.72935 1.84098 0
M  V30 1588 H 148.581 2.27523 2.95445 0
M  V30 1589 N 150.766 -0.704594 1.40972 0
M  V30 1590 C 152.015 -1.46018 1.39146 0
M  V30 1591 C 152.328 -1.956 0.000589254 0
M  V30 1592 O 153.534 -2.71137 -0.1403 0
M  V30 1593 C 151.99 -2.63996 2.4461 0
M  V30 1594 C 151.598 -2.21238 3.89561 0
M  V30 1595 C 153.342 -3.41677 2.51907 0
M  V30 1596 C 151.249 -3.3612 4.86598 0
M  V30 1597 H 150.179 -0.548444 0.517422 0
M  V30 1598 H 152.83 -0.765784 1.66757 0
M  V30 1599 H 151.212 -3.3566 2.10115 0
M  V30 1600 H 152.386 -1.56923 4.33257 0
M  V30 1601 H 150.701 -1.56574 3.85841 0
M  V30 1602 H 153.298 -4.27182 3.2159 0
M  V30 1603 H 153.641 -3.86247 1.55303 0
M  V30 1604 H 154.174 -2.77064 2.85448 0
M  V30 1605 H 150.913 -2.96572 5.84573 0
M  V30 1606 H 150.433 -3.99315 4.47557 0
M  V30 1607 H 152.112 -4.02029 5.06934 0
M  V30 1608 N 152.244 -1.26651 -0.937939 0
M  V30 1609 C 153.154 -1.10276 -2.07066 0
M  V30 1610 C 154.17 -0.0354197 -1.73964 0
M  V30 1611 O 155.346 -0.239816 -1.99967 0
M  V30 1612 C 152.411 -0.740887 -3.38691 0
M  V30 1613 C 151.472 -1.88799 -3.85556 0
M  V30 1614 C 150.705 -1.54329 -5.10899 0
M  V30 1615 O 150.928 -0.446494 -5.6865 0
M  V30 1616 O 149.862 -2.37911 -5.52885 0
M  V30 1617 H 153.688 -2.05309 -2.23789 0
M  V30 1618 H 151.273 -1.05743 -1.0554 0
M  V30 1619 H 153.155 -0.55195 -4.1777 0
M  V30 1620 H 151.83 0.180022 -3.23199 0
M  V30 1621 H 150.737 -2.13191 -3.07409 0
M  V30 1622 H 152.07 -2.78874 -4.05574 0
M  V30 1623 N 153.722 1.14298 -1.08507 0
M  V30 1624 C 154.968 1.85633 -0.816581 0
M  V30 1625 C 155.301 1.82784 0.656021 0
M  V30 1626 O 154.576 1.25926 1.48233 0
M  V30 1627 C 154.859 3.34223 -1.34041 0
M  V30 1628 C 154.712 3.45639 -2.87843 0
M  V30 1629 C 156.031 4.29356 -0.9665 0
M  V30 1630 H 153.15 0.67402 -0.298104 0
M  V30 1631 H 155.792 1.34214 -1.34487 0
M  V30 1632 H 153.942 3.78144 -0.89104 0
M  V30 1633 H 155.614 3.10498 -3.41158 0
M  V30 1634 H 153.857 2.86817 -3.25451 0
M  V30 1635 H 154.528 4.50089 -3.19569 0
M  V30 1636 H 157.004 3.93457 -1.35391 0
M  V30 1637 H 155.88 5.3178 -1.3602 0
M  V30 1638 H 156.141 4.41919 0.126362 0
M  V30 1639 N 155.201 0.870884 1.31352 0
M  V30 1640 C 156.45 0.478408 1.95944 0
M  V30 1641 C 156.763 -0.974493 1.69597 0
M  V30 1642 O 157.969 -1.47316 2.28058 0
M  V30 1643 C 156.425 0.804609 3.50791 0
M  V30 1644 C 156.033 2.27433 3.85977 0
M  V30 1645 C 157.777 0.480648 4.2177 0
M  V30 1646 C 155.684 2.5429 5.33939 0
M  V30 1647 H 154.614 0.175175 0.733369 0
M  V30 1648 H 157.265 1.06391 1.4951 0
M  V30 1649 H 155.647 0.148347 3.95722 0
M  V30 1650 H 156.821 2.97373 3.52002 0
M  V30 1651 H 155.136 2.56442 3.28065 0
M  V30 1652 H 157.733 0.658519 5.30629 0
M  V30 1653 H 158.076 -0.578979 4.12254 0
M  V30 1654 H 158.609 1.09349 3.82476 0
M  V30 1655 H 155.348 3.58939 5.48491 0
M  V30 1656 H 154.868 1.88945 5.69263 0
M  V30 1657 H 156.547 2.39066 6.01212 0
M  V30 1658 N 156.679 -1.44442 0.630414 0
M  V30 1659 C 157.907 -2.06414 0.141671 0
M  V30 1660 C 158.322 -1.47105 -1.18345 0
M  V30 1661 O 157.679 -0.593662 -1.72574 0
M  V30 1662 C 157.73 -3.61494 0.0199784 0
M  V30 1663 O 157.451 -4.18594 1.29269 0
M  V30 1664 C 158.952 -4.40499 -0.497544 0
M  V30 1665 H 156.172 -0.666292 0.0793452 0
M  V30 1666 H 158.716 -1.85323 0.864614 0
M  V30 1667 H 156.871 -3.8185 -0.653402 0
M  V30 1668 H 157.285 -5.12026 1.13707 0
M  V30 1669 H 158.759 -5.49433 -0.531708 0
M  V30 1670 H 159.236 -4.11895 -1.52445 0
M  V30 1671 H 159.842 -4.25061 0.142562 0
M  V30 1672 N 158.157 -0.370918 -1.53173 0
M  V30 1673 C 159.382 0.220293 -2.06227 0
M  V30 1674 C 159.807 1.41243 -1.24225 0
M  V30 1675 O 159.165 1.79387 -0.262645 0
M  V30 1676 C 159.213 0.586663 -3.55796 0
M  V30 1677 O 158.317 1.68317 -3.76488 0
M  V30 1678 H 157.658 0.0308099 -0.663285 0
M  V30 1679 H 160.188 -0.533068 -1.97534 0
M  V30 1680 H 160.198 0.85617 -3.98916 0
M  V30 1681 H 158.873 -0.285013 -4.14922 0
M  V30 1682 H 157.45 1.40881 -3.45264 0
M  V30 1683 N 159.635 1.57281 -0.100228 0
M  V30 1684 C 160.567 2.11342 0.886972 0
M  V30 1685 C 161.58 1.05182 1.24261 0
M  V30 1686 O 162.769 1.32613 1.19483 0
M  V30 1687 C 159.869 2.5825 2.19454 0
M  V30 1688 C 159.042 3.88302 2.01346 0
M  V30 1689 C 158.101 4.21004 3.15661 0
M  V30 1690 O 157.127 4.9014 2.89398 0
M  V30 1691 N 158.329 3.76818 4.41575 0
M  V30 1692 H 161.094 2.96668 0.425216 0
M  V30 1693 H 158.655 1.61678 0.0847334 0
M  V30 1694 H 160.647 2.7717 2.94888 0
M  V30 1695 H 159.217 1.77907 2.57037 0
M  V30 1696 H 158.437 3.7848 1.10212 0
M  V30 1697 H 159.725 4.73375 1.8653 0
M  V30 1698 H 159.123 3.2102 4.65792 0
M  V30 1699 H 157.68 4.00882 5.13942 0
M  V30 1700 N 161.113 -0.173488 1.56642 0
M  V30 1701 C 162.023 -1.23482 1.99473 0
M  V30 1702 C 163.039 -1.48567 0.905752 0
M  V30 1703 O 164.215 -1.60758 1.21321 0
M  V30 1704 C 161.28 -2.55444 2.34413 0
M  V30 1705 C 160.341 -2.38241 3.57127 0
M  V30 1706 C 159.574 -3.63909 3.90392 0
M  V30 1707 O 159.797 -4.68996 3.24653 0
M  V30 1708 O 158.731 -3.58149 4.83749 0
M  V30 1709 H 162.557 -0.901279 2.90018 0
M  V30 1710 H 160.142 -0.380185 1.44482 0
M  V30 1711 H 162.024 -3.33292 2.57865 0
M  V30 1712 H 160.699 -2.88382 1.4703 0
M  V30 1713 H 159.606 -1.58431 3.38896 0
M  V30 1714 H 160.939 -2.10228 4.45045 0
M  V30 1715 N 162.591 -1.51276 -0.441967 0
M  V30 1716 C 163.538 -1.72256 -1.53612 0
M  V30 1717 C 164.508 -0.564164 -1.56225 0
M  V30 1718 O 165.693 -0.798074 -1.73307 0
M  V30 1719 C 162.833 -1.84932 -2.91366 0
M  V30 1720 C 161.946 -3.12459 -2.98317 0
M  V30 1721 C 161.081 -3.15758 -4.27166 0
M  V30 1722 C 160.12 -4.37619 -4.27967 0
M  V30 1723 N 159.257 -4.38493 -5.48333 0
M  V30 1724 H 164.097 -2.65654 -1.35026 0
M  V30 1725 H 161.634 -1.31662 -0.656009 0
M  V30 1726 H 163.592 -1.90263 -3.7129 0
M  V30 1727 H 162.222 -0.949461 -3.08521 0
M  V30 1728 H 161.274 -3.1646 -2.11086 0
M  V30 1729 H 162.586 -4.02382 -2.94771 0
M  V30 1730 H 161.74 -3.19979 -5.15459 0
M  V30 1731 H 160.479 -2.23715 -4.33362 0
M  V30 1732 H 159.484 -4.33579 -3.38067 0
M  V30 1733 H 160.709 -5.30921 -4.23438 0
M  V30 1734 H 158.655 -3.49318 -5.55259 0
M  V30 1735 H 158.572 -5.22219 -5.46647 0
M  V30 1736 H 159.84 -4.469 -6.38671 0
M  V30 1737 N 164.069 0.697108 -1.41344 0
M  V30 1738 C 164.979 1.84088 -1.45427 0
M  V30 1739 C 165.995 1.70545 -0.34501 0
M  V30 1740 O 167.171 1.92488 -0.592492 0
M  V30 1741 C 164.236 3.20056 -1.33286 0
M  V30 1742 C 163.297 3.45718 -2.54514 0
M  V30 1743 C 162.53 4.75199 -2.42944 0
M  V30 1744 O 162.753 5.51579 -1.45318 0
M  V30 1745 O 161.687 5.0161 -3.32672 0
M  V30 1746 H 165.513 1.836 -2.41919 0
M  V30 1747 H 163.098 0.849966 -1.22866 0
M  V30 1748 H 164.98 4.01236 -1.28794 0
M  V30 1749 H 163.655 3.2123 -0.39909 0
M  V30 1750 H 162.562 2.64474 -2.64583 0
M  V30 1751 H 163.895 3.49356 -3.46715 0
M  V30 1752 N 165.547 1.27147 0.931209 0
M  V30 1753 C 166.796 1.12664 1.67302 0
M  V30 1754 C 167.109 -0.327718 1.92835 0
M  V30 1755 O 168.315 -0.593392 2.64936 0
M  V30 1756 C 166.771 1.9683 3.01307 0
M  V30 1757 C 166.379 3.46901 2.83485 0
M  V30 1758 C 168.123 1.90985 3.79111 0
M  V30 1759 C 166.03 4.23279 4.13024 0
M  V30 1760 H 164.96 0.41803 0.627509 0
M  V30 1761 H 167.611 1.51539 1.03481 0
M  V30 1762 H 165.993 1.50797 3.66164 0
M  V30 1763 H 167.167 4.00773 2.27415 0
M  V30 1764 H 165.482 3.54088 2.19113 0
M  V30 1765 H 168.079 2.45328 4.75098 0
M  V30 1766 H 168.422 0.882718 4.06834 0
M  V30 1767 H 168.955 2.34895 3.21044 0
M  V30 1768 H 165.694 5.26503 3.90481 0
M  V30 1769 H 165.214 3.74186 4.6877 0
M  V30 1770 H 166.893 4.32265 4.81411 0
M  V30 1771 N 167.025 -1.13721 1.09112 0
M  V30 1772 C 168.253 -1.88773 0.846899 0
M  V30 1773 C 168.668 -1.7896 -0.601572 0
M  V30 1774 O 168.025 -1.15394 -1.41388 0
M  V30 1775 C 168.076 -3.3849 1.26913 0
M  V30 1776 O 167.797 -3.48043 2.66079 0
M  V30 1777 C 169.298 -4.30518 1.05682 0
M  V30 1778 H 166.518 -0.59772 0.304914 0
M  V30 1779 H 169.062 -1.43977 1.45227 0
M  V30 1780 H 167.217 -3.80881 0.707723 0
M  V30 1781 H 167.631 -4.4109 2.83795 0
M  V30 1782 H 169.105 -5.3391 1.40156 0
M  V30 1783 H 169.582 -4.392 -0.00563416 0
M  V30 1784 H 170.188 -3.93893 1.60402 0
M  V30 1785 N 168.503 -0.877838 -1.30888 0
M  V30 1786 C 169.752 -0.488793 -1.95688 0
M  V30 1787 C 170.065 0.965485 -1.70111 0
M  V30 1788 O 171.271 1.46104 -2.28836 0
M  V30 1789 C 169.727 -0.823201 -3.50359 0
M  V30 1790 C 169.335 -2.29477 -3.84765 0
M  V30 1791 C 171.079 -0.503009 -4.21509 0
M  V30 1792 C 168.986 -2.57118 -5.32583 0
M  V30 1793 H 167.916 -0.179062 -0.732429 0
M  V30 1794 H 170.567 -1.07183 -1.48943 0
M  V30 1795 H 168.949 -0.169331 -3.95638 0
M  V30 1796 H 170.123 -2.99236 -3.5042 0
M  V30 1797 H 168.438 -2.58178 -3.267 0
M  V30 1798 H 171.035 -0.68665 -5.30273 0
M  V30 1799 H 171.378 0.557109 -4.12555 0
M  V30 1800 H 171.911 -1.11376 -3.8189 0
M  V30 1801 H 168.65 -3.61843 -5.4658 0
M  V30 1802 H 168.17 -1.91961 -5.68253 0
M  V30 1803 H 169.849 -2.42251 -5.99936 0
M  V30 1804 N 169.982 1.44106 -0.638065 0
M  V30 1805 C 170.929 2.30715 0.062701 0
M  V30 1806 C 171.899 1.43882 0.829883 0
M  V30 1807 O 173.084 1.72775 0.809532 0
M  V30 1808 C 170.224 3.29258 1.03358 0
M  V30 1809 C 169.337 4.31192 0.26409 0
M  V30 1810 C 168.472 5.16825 1.22741 0
M  V30 1811 C 167.511 6.10462 0.447475 0
M  V30 1812 N 166.648 6.8877 1.36161 0
M  V30 1813 H 171.488 2.90096 -0.681781 0
M  V30 1814 H 169.025 1.42925 -0.347988 0
M  V30 1815 H 170.983 3.84886 1.60992 0
M  V30 1816 H 169.613 2.71562 1.74511 0
M  V30 1817 H 168.665 3.77981 -0.428295 0
M  V30 1818 H 169.977 4.97619 -0.343052 0
M  V30 1819 H 169.131 5.77004 1.87487 0
M  V30 1820 H 167.87 4.50488 1.86847 0
M  V30 1821 H 166.875 5.49386 -0.213433 0
M  V30 1822 H 168.1 6.78837 -0.188968 0
M  V30 1823 H 166.046 6.25096 1.98975 0
M  V30 1824 H 165.963 7.51663 0.808656 0
M  V30 1825 H 167.231 7.53467 1.99769 0
M  V30 1826 N 171.46 0.379036 1.52974 0
M  V30 1827 C 172.407 -0.461048 2.26148 0
M  V30 1828 C 173.377 -1.06637 1.27349 0
M  V30 1829 O 174.562 -1.09633 1.56157 0
M  V30 1830 C 171.702 -1.58782 3.06402 0
M  V30 1831 C 170.815 -1.00636 4.20115 0
M  V30 1832 C 169.95 -2.10334 4.87784 0
M  V30 1833 C 168.989 -1.49724 5.93506 0
M  V30 1834 N 168.126 -2.5331 6.54812 0
M  V30 1835 H 172.966 0.169429 2.97518 0
M  V30 1836 H 170.503 0.0953806 1.4679 0
M  V30 1837 H 172.461 -2.25174 3.51215 0
M  V30 1838 H 171.091 -2.18876 2.37261 0
M  V30 1839 H 170.143 -0.232332 3.7969 0
M  V30 1840 H 171.455 -0.523343 4.96047 0
M  V30 1841 H 170.609 -2.84519 5.35849 0
M  V30 1842 H 169.348 -2.61992 4.11353 0
M  V30 1843 H 168.353 -0.740598 5.44789 0
M  V30 1844 H 169.578 -0.988732 6.71864 0
M  V30 1845 H 167.524 -3.04156 5.81227 0
M  V30 1846 H 167.441 -2.09734 7.26325 0
M  V30 1847 H 168.709 -3.27155 7.07524 0
M  V30 1848 N 172.938 -1.57226 0.108567 0
M  V30 1849 C 174.349 -1.8195 -0.418464 0
M  V30 1850 C 174.7 -1.02508 -1.67292 0
M  V30 1851 O 173.825 -0.258496 -2.14851 0
M  V30 1852 C 174.42 -3.30028 -0.765979 0
M  V30 1853 C 172.979 -3.55469 -1.23769 0
M  V30 1854 C 172.126 -2.7625 -0.241106 0
M  V30 1855 H 175.077 -1.55149 0.33384 0
M  V30 1856 H 175.098 -3.44086 -1.62434 0
M  V30 1857 H 174.61 -3.87821 0.147219 0
M  V30 1858 H 172.711 -3.03022 -2.16814 0
M  V30 1859 H 172.824 -4.6408 -1.19022 0
M  V30 1860 H 171.188 -2.44133 -0.72602 0
M  V30 1861 H 171.971 -3.36797 0.665007 0
M  V30 1862 N 174.416 0.165178 -1.56732 0
M  V30 1863 C 175.364 1.22369 -1.97809 0
M  V30 1864 C 176.358 1.45488 -0.867741 0
M  V30 1865 O 177.564 1.45995 -1.05288 0
M  V30 1866 H 173.939 0.411486 -0.629431 0
M  V30 1867 H 175.91 0.850425 -2.86025 0
M  V30 1868 C 174.659 2.55403 -2.35934 0
M  V30 1869 H 173.982 2.38438 -3.20916 0
M  V30 1870 H 175.422 3.2814 -2.68514 0
M  V30 1871 C 173.881 3.14611 -1.20506 0
M  V30 1872 O 174.411 3.98626 -0.496016 0
M  V30 1873 N 172.617 2.7379 -0.97403 0
M  V30 1874 H 172.164 2.0557 -1.55238 0
M  V30 1875 H 172.122 3.1374 -0.203573 0
M  V30 1876 N 175.894 1.51508 0.433938 0
M  V30 1877 C 177.142 1.6402 1.18075 0
M  V30 1878 C 177.463 0.360328 1.91642 0
M  V30 1879 O 176.733 -0.623945 1.85698 0
M  V30 1880 H 175.313 0.6045 0.43885 0
M  V30 1881 H 177.975 1.88452 0.497178 0
M  V30 1882 H 177.071 2.46949 1.90847 0
M  V30 1883 N 177.372 -0.689602 1.41712 0
M  V30 1884 C 178.282 -1.83314 1.46401 0
M  V30 1885 C 179.298 -1.7036 0.35405 0
M  V30 1886 O 180.474 -1.92171 0.602692 0
M  V30 1887 C 177.539 -3.19344 1.34982 0
M  V30 1888 C 176.6 -3.44363 2.56344 0
M  V30 1889 C 175.833 -4.73904 2.45461 0
M  V30 1890 O 176.056 -5.508 1.48241 0
M  V30 1891 O 174.99 -4.99839 3.35328 0
M  V30 1892 H 178.816 -1.82314 2.42889 0
M  V30 1893 H 176.401 -0.843438 1.23315 0
M  V30 1894 H 178.283 -4.00547 1.3092 0
M  V30 1895 H 176.958 -3.21014 0.41612 0
M  V30 1896 H 175.865 -2.63067 2.65982 0
M  V30 1897 H 177.198 -3.47512 3.48563 0
M  V30 1898 N 178.85 -1.27639 -0.924453 0
M  V30 1899 C 180.078 -1.16989 -1.70649 0
M  V30 1900 C 180.493 0.272869 -1.86818 0
M  V30 1901 O 179.85 1.18549 -1.38753 0
M  V30 1902 C 179.901 -1.85229 -3.10439 0
M  V30 1903 O 179.622 -3.23868 -2.95028 0
M  V30 1904 C 181.123 -1.80746 -4.04779 0
M  V30 1905 H 178.343 -0.406595 -0.53378 0
M  V30 1906 H 180.887 -1.68569 -1.15778 0
M  V30 1907 H 179.042 -1.37545 -3.6216 0
M  V30 1908 H 179.456 -3.57889 -3.83426 0
M  V30 1909 H 180.93 -2.33101 -5.00368 0
M  V30 1910 H 181.407 -0.777499 -4.32263 0
M  V30 1911 H 182.013 -2.28059 -3.58984 0
M  V30 1912 N 180.328 1.1314 -1.09713 0
M  V30 1913 C 181.556 1.88321 -0.856898 0
M  V30 1914 C 181.971 1.79276 0.592073 0
M  V30 1915 O 181.328 1.16142 1.40774 0
M  V30 1916 C 181.379 3.37812 -1.28706 0
M  V30 1917 O 181.1 3.46627 -2.67921 0
M  V30 1918 C 182.601 4.29952 -1.07964 0
M  V30 1919 H 179.821 0.596094 -0.308079 0
M  V30 1920 H 182.365 1.43205 -1.45988 0
M  V30 1921 H 180.52 3.805 -0.727912 0
M  V30 1922 H 180.934 4.39579 -2.8613 0
M  V30 1923 H 182.408 5.33159 -1.42986 0
M  V30 1924 H 182.885 4.39196 -0.0176577 0
M  V30 1925 H 183.491 3.93036 -1.62489 0
M  V30 1926 N 181.806 0.884767 1.30421 0
M  V30 1927 C 182.753 0.349642 2.28136 0
M  V30 1928 C 183.723 -0.560061 1.56373 0
M  V30 1929 O 184.908 -0.488524 1.8444 0
M  V30 1930 C 182.048 -0.42999 3.42411 0
M  V30 1931 C 181.161 0.508907 4.28992 0
M  V30 1932 C 180.296 -0.286301 5.30428 0
M  V30 1933 C 179.335 0.648079 6.08659 0
M  V30 1934 N 178.472 -0.111792 7.02011 0
M  V30 1935 H 183.312 1.18807 2.73293 0
M  V30 1936 H 180.849 0.597231 1.3443 0
M  V30 1937 H 182.807 -0.897923 4.07423 0
M  V30 1938 H 181.437 -1.23299 2.98324 0
M  V30 1939 H 180.489 1.09533 3.64289 0
M  V30 1940 H 181.801 1.22475 4.8353 0
M  V30 1941 H 180.955 -0.816098 6.01186 0
M  V30 1942 H 179.694 -1.03536 4.76583 0
M  V30 1943 H 178.699 1.18951 5.36778 0
M  V30 1944 H 179.924 1.39623 6.64592 0
M  V30 1945 H 177.87 -0.843395 6.50556 0
M  V30 1946 H 177.787 0.544429 7.54037 0
M  V30 1947 H 179.055 -0.622339 7.77012 0
M  V30 1948 N 183.284 -1.43765 0.645699 0
M  V30 1949 C 184.512 -2.06253 0.163556 0
M  V30 1950 C 184.927 -1.48352 -1.16778 0
M  V30 1951 O 184.284 -0.611932 -1.71935 0
M  V30 1952 C 184.335 -3.61453 0.0583186 0
M  V30 1953 O 184.056 -4.172 1.33702 0
M  V30 1954 C 185.557 -4.41002 -0.450795 0
M  V30 1955 H 182.777 -0.665413 0.0864077 0
M  V30 1956 H 185.321 -1.84396 0.884222 0
M  V30 1957 H 183.476 -3.82522 -0.612865 0
M  V30 1958 H 183.89 -5.10791 1.19131 0
M  V30 1959 H 185.364 -5.49966 -0.473403 0
M  V30 1960 H 185.841 -4.13488 -1.48068 0
M  V30 1961 H 186.447 -4.24886 0.187637 0
M  V30 1962 N 184.763 -0.387143 -1.52771 0
M  V30 1963 C 185.991 0.195869 -2.05971 0
M  V30 1964 C 186.406 1.40691 -1.25903 0
M  V30 1965 O 185.763 1.79931 -0.305134 0
M  V30 1966 C 185.814 0.56812 -3.57008 0
M  V30 1967 O 185.535 -0.594803 -4.34043 0
M  V30 1968 C 187.036 1.20723 -4.26545 0
M  V30 1969 H 184.256 0.0300578 -0.670326 0
M  V30 1970 H 186.8 -0.551749 -1.96916 0
M  V30 1971 H 184.955 1.26564 -3.66143 0
M  V30 1972 H 185.369 -0.289322 -5.23701 0
M  V30 1973 H 186.843 1.41807 -5.33474 0
M  V30 1974 H 187.32 2.17395 -3.81623 0
M  V30 1975 H 187.926 0.550535 -4.21722 0
M  V30 1976 N 186.241 1.57166 -0.116904 0
M  V30 1977 C 187.487 1.95412 0.542405 0
M  V30 1978 C 187.82 1.00019 1.66463 0
M  V30 1979 O 187.095 0.0370346 1.94465 0
M  V30 1980 C 187.378 3.43615 1.07708 0
M  V30 1981 C 187.231 4.49781 -0.0415868 0
M  V30 1982 C 188.55 3.93616 1.96861 0
M  V30 1983 H 185.669 0.710543 0.195696 0
M  V30 1984 H 188.311 1.89027 -0.192038 0
M  V30 1985 H 186.461 3.49187 1.70296 0
M  V30 1986 H 188.133 4.56308 -0.676793 0
M  V30 1987 H 186.376 4.28033 -0.705019 0
M  V30 1988 H 187.047 5.50733 0.373717 0
M  V30 1989 H 189.523 3.90335 1.44146 0
M  V30 1990 H 188.399 4.97838 2.3119 0
M  V30 1991 H 188.66 3.34188 2.89432 0
M  V30 1992 N 187.719 -0.156864 1.56817 0
M  V30 1993 C 189.135 -0.50916 1.5126 0
M  V30 1994 C 189.335 -1.83897 0.823658 0
M  V30 1995 O 188.391 -2.49469 0.390055 0
M  V30 1996 C 189.704 -0.52857 2.96018 0
M  V30 1997 C 191.252 -0.614771 3.06903 0
M  V30 1998 C 191.727 -0.664938 4.53147 0
M  V30 1999 N 193.218 -0.727433 4.57452 0
M  V30 2000 C 193.953 -0.787067 5.67973 0
M  V30 2001 N 193.449 -0.806649 6.88088 0
M  V30 2002 N 195.242 -0.827195 5.5598 0
M  V30 2003 H 187.393 0.714935 2.00006 0
M  V30 2004 H 189.656 0.259526 0.911784 0
M  V30 2005 H 189.362 0.380154 3.49639 0
M  V30 2006 H 189.236 -1.36998 3.51442 0
M  V30 2007 H 191.623 -1.51392 2.53307 0
M  V30 2008 H 191.704 0.253597 2.5454 0
M  V30 2009 H 191.348 0.230011 5.07379 0
M  V30 2010 H 191.278 -1.54966 5.03282 0
M  V30 2011 H 193.769 -0.719998 3.70978 0
M  V30 2012 H 194.082 -0.853727 7.6807 0
M  V30 2013 H 192.427 -0.774687 6.90669 0
M  V30 2014 H 195.618 -0.808998 4.61056 0
M  V30 2015 H 195.791 -0.870206 6.4213 0
M  V30 2016 N 189.197 -1.51736 -0.425897 0
M  V30 2017 C 190.446 -1.64201 -1.17136 0
M  V30 2018 C 190.759 -0.369705 -1.92074 0
M  V30 2019 O 191.965 -0.373898 -2.68913 0
M  V30 2020 C 190.421 -2.90035 -2.13091 0
M  V30 2021 C 190.029 -4.24312 -1.43747 0
M  V30 2022 C 191.773 -3.1186 -2.87999 0
M  V30 2023 C 189.68 -5.41285 -2.38253 0
M  V30 2024 H 188.61 -0.611624 -0.440944 0
M  V30 2025 H 191.261 -1.78212 -0.437328 0
M  V30 2026 H 189.643 -2.69684 -2.89977 0
M  V30 2027 H 190.817 -4.55086 -0.723408 0
M  V30 2028 H 189.132 -4.08456 -0.809465 0
M  V30 2029 H 191.729 -3.96427 -3.58817 0
M  V30 2030 H 192.072 -2.25403 -3.49999 0
M  V30 2031 H 192.605 -3.32605 -2.18217 0
M  V30 2032 H 189.344 -6.30037 -1.80925 0
M  V30 2033 H 188.864 -5.14872 -3.0768 0
M  V30 2034 H 190.543 -5.73694 -2.99139 0
M  V30 2035 N 190.675 0.682077 -1.42076 0
M  V30 2036 C 191.921 1.44283 -1.43366 0
M  V30 2037 C 192.276 1.92344 -0.0465775 0
M  V30 2038 O 191.569 1.67517 0.929973 0
M  V30 2039 C 191.763 2.66036 -2.38662 0
M  V30 2040 C 191.592 2.29889 -3.86499 0
M  V30 2041 C 190.362 2.19599 -4.55087 0
M  V30 2042 C 192.56 1.91999 -4.77117 0
M  V30 2043 N 190.542 1.76478 -5.87987 0
M  V30 2044 C 191.913 1.59741 -5.99068 0
M  V30 2045 C 193.968 1.78927 -4.64639 0
M  V30 2046 C 192.671 1.15723 -7.0993 0
M  V30 2047 C 194.697 1.36314 -5.75476 0
M  V30 2048 C 194.059 1.04975 -6.96534 0
M  V30 2049 H 190.158 0.524739 -0.579805 0
M  V30 2050 H 192.742 0.787834 -1.78048 0
M  V30 2051 H 190.913 3.29237 -2.06053 0
M  V30 2052 H 192.645 3.32588 -2.30581 0
M  V30 2053 H 189.4 2.38433 -4.09202 0
M  V30 2054 H 189.824 1.57362 -6.58458 0
M  V30 2055 H 194.466 2.01805 -3.7153 0
M  V30 2056 H 192.184 0.91591 -8.02893 0
M  V30 2057 H 195.77 1.26731 -5.6783 0
M  V30 2058 H 194.65 0.725017 -7.80841 0
M  V30 2059 N 192.153 1.28127 0.917671 0
M  V30 2060 C 193.101 1.11569 2.04096 0
M  V30 2061 C 194.095 0.0360242 1.69362 0
M  V30 2062 O 195.301 0.194501 1.78946 0
M  V30 2063 H 191.676 0.344097 0.668656 0
M  V30 2064 H 193.647 2.06711 2.15205 0
M  V30 2065 C 192.396 0.790197 3.38602 0
M  V30 2066 H 191.719 1.61293 3.6582 0
M  V30 2067 H 193.159 0.714271 4.1794 0
M  V30 2068 C 191.618 -0.505897 3.3308 0
M  V30 2069 O 192.148 -1.53736 3.71117 0
M  V30 2070 N 190.354 -0.505193 2.86175 0
M  V30 2071 H 189.901 0.334621 2.55417 0
M  V30 2072 H 189.859 -1.37243 2.82863 0
M  V30 2073 N 193.631 -1.12557 1.10312 0
M  V30 2074 C 194.541 -2.21841 0.763142 0
M  V30 2075 C 195.557 -1.72354 -0.238801 0
M  V30 2076 O 196.733 -2.01249 -0.0778746 0
M  V30 2077 C 193.798 -3.46131 0.198632 0
M  V30 2078 C 192.859 -4.10464 1.25769 0
M  V30 2079 C 192.092 -5.28821 0.72002 0
M  V30 2080 O 192.315 -5.6859 -0.453993 0
M  V30 2081 O 191.249 -5.83437 1.47935 0
M  V30 2082 H 195.075 -2.53312 1.67532 0
M  V30 2083 H 192.66 -1.20867 0.878157 0
M  V30 2084 H 194.542 -4.2125 -0.112401 0
M  V30 2085 H 193.217 -3.16338 -0.686419 0
M  V30 2086 H 192.124 -3.3713 1.62156 0
M  V30 2087 H 193.457 -4.44408 2.11571 0
M  V30 2088 N 195.109 -0.891671 -1.2995 0
M  V30 2089 C 196.337 -0.52866 -2.00032 0
M  V30 2090 C 196.752 0.884574 -1.66795 0
M  V30 2091 O 196.109 1.5827 -0.908669 0
M  V30 2092 C 196.16 -0.701814 -3.54622 0
M  V30 2093 O 195.881 -2.05942 -3.86678 0
M  V30 2094 C 197.382 -0.342683 -4.41973 0
M  V30 2095 H 194.602 -0.203659 -0.639347 0
M  V30 2096 H 197.146 -1.19881 -1.65677 0
M  V30 2097 H 195.301 -0.0789468 -3.8732 0
M  V30 2098 H 195.715 -2.08291 -4.81368 0
M  V30 2099 H 197.189 -0.514709 -5.49595 0
M  V30 2100 H 197.666 0.71975 -4.33262 0
M  V30 2101 H 198.272 -0.942154 -4.14733 0
M  V30 2102 N 196.587 1.43421 -0.653314 0
M  V30 2103 C 197.833 2.02111 -0.166992 0
M  V30 2104 C 198.166 1.51423 1.21592 0
M  V30 2105 O 197.441 0.707389 1.8118 0
M  V30 2106 C 197.724 3.5966 -0.177948 0
M  V30 2107 C 197.577 4.20579 -1.59478 0
M  V30 2108 C 198.896 4.37413 0.4856 0
M  V30 2109 H 196.015 0.734374 -0.0621557 0
M  V30 2110 H 198.657 1.70717 -0.834016 0
M  V30 2111 H 196.807 3.86537 0.390032 0
M  V30 2112 H 198.479 4.04732 -2.21336 0
M  V30 2113 H 196.722 3.77226 -2.14204 0
M  V30 2114 H 197.393 5.29665 -1.5543 0
M  V30 2115 H 199.869 4.161 0.00234528 0
M  V30 2116 H 198.745 5.47075 0.447207 0
M  V30 2117 H 199.006 4.13672 1.55974 0
M  V30 2118 N 198.065 0.39524 1.52563 0
M  V30 2119 C 199.29 -0.187456 2.06551 0
M  V30 2120 C 199.715 -1.39249 1.26457 0
M  V30 2121 O 199.073 -1.78947 0.291151 0
M  V30 2122 C 199.121 -0.529985 3.56684 0
M  V30 2123 O 198.225 -1.62307 3.79118 0
M  V30 2124 H 197.566 -0.0202537 0.663691 0
M  V30 2125 H 200.096 0.564426 1.96661 0
M  V30 2126 H 200.106 -0.792598 4.00227 0
M  V30 2127 H 198.781 0.350987 4.14416 0
M  V30 2128 H 197.358 -1.3537 3.47461 0
M  V30 2129 N 199.544 -1.57102 0.125237 0
M  V30 2130 C 200.492 -2.16905 -0.839927 0
M  V30 2131 C 201.486 -1.11998 -1.27094 0
M  V30 2132 O 202.692 -1.3029 -1.24195 0
M  V30 2133 H 199.067 -0.694252 -0.288995 0
M  V30 2134 H 201.038 -2.96774 -0.311115 0
M  V30 2135 C 199.787 -2.78795 -2.07771 0
M  V30 2136 H 199.11 -3.59221 -1.755 0
M  V30 2137 H 200.55 -3.2417 -2.73295 0
M  V30 2138 C 199.009 -1.76193 -2.87155 0
M  V30 2139 O 199.539 -1.21909 -3.82755 0
M  V30 2140 N 197.745 -1.45991 -2.51267 0
M  V30 2141 H 197.292 -1.90325 -1.73592 0
M  V30 2142 H 197.25 -0.775844 -3.04677 0
M  V30 2143 N 201.022 0.148545 -1.56898 0
M  V30 2144 C 201.952 1.18524 -2.01182 0
M  V30 2145 C 202.933 1.4489 -0.891123 0
M  V30 2146 O 204.118 1.55836 -1.15882 0
M  V30 2147 C 201.248 2.51879 -2.39112 0
M  V30 2148 C 200.202 2.40038 -3.54353 0
M  V30 2149 C 199.528 3.78089 -3.78091 0
M  V30 2150 C 200.828 1.88577 -4.87069 0
M  V30 2151 H 202.522 0.817029 -2.88036 0
M  V30 2152 H 200.068 0.391575 -1.38574 0
M  V30 2153 H 202.021 3.24627 -2.68692 0
M  V30 2154 H 200.745 2.90532 -1.49193 0
M  V30 2155 H 199.404 1.69742 -3.24936 0
M  V30 2156 H 199.052 4.14175 -2.85426 0
M  V30 2157 H 198.752 3.71028 -4.55645 0
M  V30 2158 H 200.276 4.52387 -4.10095 0
M  V30 2159 H 201.69 2.51117 -5.15377 0
M  V30 2160 H 200.087 1.9241 -5.68417 0
M  V30 2161 H 201.157 0.84136 -4.77545 0
M  V30 2162 N 202.5 1.5196 0.417844 0
M  V30 2163 C 203.728 1.69426 1.18753 0
M  V30 2164 C 204.143 0.399955 1.84515 0
M  V30 2165 O 203.5 -0.623288 1.71527 0
M  V30 2166 C 203.551 2.82375 2.25714 0
M  V30 2167 O 203.272 4.06793 1.62638 0
M  V30 2168 C 204.773 3.11277 3.15628 0
M  V30 2169 H 201.993 0.568031 0.357186 0
M  V30 2170 H 204.537 1.98475 0.49273 0
M  V30 2171 H 202.692 2.5587 2.90877 0
M  V30 2172 H 203.106 4.69667 2.3348 0
M  V30 2173 H 204.58 3.93843 3.86771 0
M  V30 2174 H 205.057 2.24473 3.77503 0
M  V30 2175 H 205.663 3.39515 2.56144 0
M  V30 2176 N 203.978 -0.674533 1.42435 0
M  V30 2177 C 204.908 -1.80009 1.48724 0
M  V30 2178 C 205.889 -1.6659 0.343793 0
M  V30 2179 O 207.074 -1.86007 0.558137 0
M  V30 2180 C 204.204 -3.18306 1.38919 0
M  V30 2181 C 203.158 -3.46461 2.51294 0
M  V30 2182 C 202.484 -4.84335 2.26547 0
M  V30 2183 C 203.784 -3.43328 3.93603 0
M  V30 2184 H 205.478 -1.75004 2.42928 0
M  V30 2185 H 203.024 -0.840533 1.16923 0
M  V30 2186 H 204.977 -3.9678 1.41927 0
M  V30 2187 H 203.701 -3.2399 0.412094 0
M  V30 2188 H 202.36 -2.70348 2.47604 0
M  V30 2189 H 202.008 -4.86669 1.2713 0
M  V30 2190 H 201.708 -5.04136 3.01861 0
M  V30 2191 H 203.232 -5.65094 2.31304 0
M  V30 2192 H 204.646 -4.11772 3.98894 0
M  V30 2193 H 203.043 -3.74664 4.68771 0
M  V30 2194 H 204.113 -2.41897 4.20255 0
M  V30 2195 N 205.456 -1.28612 -0.910864 0
M  V30 2196 C 206.389 -1.07109 -2.01502 0
M  V30 2197 C 207.367 0.013706 -1.62594 0
M  V30 2198 O 208.551 -0.134796 -1.88017 0
M  V30 2199 C 205.678 -0.628255 -3.32822 0
M  V30 2200 C 204.724 -1.71012 -3.90714 0
M  V30 2201 S 205.557 -3.30676 -4.21205 0
M  V30 2202 C 206.713 -2.88234 -5.55583 0
M  V30 2203 H 206.946 -2.00591 -2.19432 0
M  V30 2204 H 204.479 -1.12633 -1.05609 0
M  V30 2205 H 206.437 -0.37946 -4.08742 0
M  V30 2206 H 205.098 0.28678 -3.12788 0
M  V30 2207 H 204.291 -1.35195 -4.85529 0
M  V30 2208 H 203.893 -1.91186 -3.21441 0
M  V30 2209 H 206.185 -2.34584 -6.35591 0
M  V30 2210 H 207.128 -3.81857 -5.96314 0
M  V30 2211 H 207.536 -2.26862 -5.16908 0
M  V30 2212 N 206.934 1.1197 -1.10907 0
M  V30 2213 C 207.897 2.16031 -0.765707 0
M  V30 2214 C 208.897 1.59393 0.212235 0
M  V30 2215 O 210.087 1.74196 -0.0115441 0
M  V30 2216 C 207.219 3.40632 -0.135053 0
M  V30 2217 H 208.412 2.47919 -1.68748 0
M  V30 2218 H 205.965 1.27061 -0.910226 0
M  V30 2219 H 206.7 3.14348 0.797218 0
M  V30 2220 H 206.485 3.8302 -0.838937 0
M  V30 2221 H 207.975 4.17505 0.0892469 0
M  V30 2222 N 208.412 0.89855 1.29475 0
M  V30 2223 C 209.342 0.39201 2.30186 0
M  V30 2224 C 210.323 -0.532359 1.61555 0
M  V30 2225 O 211.508 -0.443331 1.89072 0
M  V30 2226 C 208.638 -0.382353 3.45189 0
M  V30 2227 C 207.592 0.451483 4.25612 0
M  V30 2228 C 206.918 -0.450307 5.328 0
M  V30 2229 C 208.218 1.70079 4.93832 0
M  V30 2230 H 209.912 1.23362 2.72804 0
M  V30 2231 H 207.458 0.594638 1.31149 0
M  V30 2232 H 209.411 -0.747451 4.14718 0
M  V30 2233 H 208.135 -1.25774 3.01411 0
M  V30 2234 H 206.794 0.798897 3.57789 0
M  V30 2235 H 206.442 -1.32379 4.85268 0
M  V30 2236 H 206.142 0.103902 5.87508 0
M  V30 2237 H 207.666 -0.811623 6.05182 0
M  V30 2238 H 209.08 1.40549 5.55805 0
M  V30 2239 H 207.477 2.19623 5.58467 0
M  V30 2240 H 208.547 2.43744 4.19186 0
M  V30 2241 N 209.89 -1.43072 0.660911 0
M  V30 2242 C 211.138 -2.01323 0.177094 0
M  V30 2243 C 211.459 -1.5245 -1.2159 0
M  V30 2244 O 210.729 -0.740322 -1.81373 0
M  V30 2245 H 209.309 -0.744382 0.0624804 0
M  V30 2246 H 211.971 -1.75179 0.854305 0
M  V30 2247 H 211.067 -3.11649 0.167641 0
M  V30 2248 N 211.368 -0.403325 -1.52352 0
M  V30 2249 C 212.593 0.176499 -2.06648 0
M  V30 2250 C 213.018 1.38577 -1.27193 0
M  V30 2251 O 212.376 1.7879 -0.300637 0
M  V30 2252 C 212.424 0.511061 -3.5696 0
M  V30 2253 O 211.528 1.60294 -3.79973 0
M  V30 2254 H 210.869 0.0167337 -0.663789 0
M  V30 2255 H 213.399 -0.574848 -1.96359 0
M  V30 2256 H 213.409 0.771362 -4.00642 0
M  V30 2257 H 212.084 -0.37296 -4.14224 0
M  V30 2258 H 210.661 1.33526 -3.48174 0
M  V30 2259 N 212.846 1.57033 -0.133567 0
M  V30 2260 C 214.071 2.00475 0.531477 0
M  V30 2261 C 214.496 1.01291 1.58499 0
M  V30 2262 O 213.854 -0.0133279 1.81295 0
M  V30 2263 C 213.902 3.42729 1.12113 0
M  V30 2264 O 213.006 3.46498 2.23636 0
M  V30 2265 H 212.347 0.650876 0.131362 0
M  V30 2266 H 214.877 2.03344 -0.22634 0
M  V30 2267 H 214.887 3.81246 1.4531 0
M  V30 2268 H 213.562 4.14428 0.349557 0
M  V30 2269 H 212.139 3.19811 1.91769 0
M  V30 2270 N 214.325 -0.140222 1.56975 0
M  V30 2271 C 215.288 -1.15689 1.97861 0
M  V30 2272 C 216.288 -1.3549 0.865974 0
M  V30 2273 O 217.478 -1.32367 1.13246 0
M  V30 2274 C 214.61 -2.51582 2.30042 0
M  V30 2275 H 215.803 -0.805971 2.88867 0
M  V30 2276 H 213.356 -0.383801 1.51515 0
M  V30 2277 H 214.091 -2.91632 1.41849 0
M  V30 2278 H 213.876 -2.38569 3.11171 0
M  V30 2279 H 215.366 -3.24792 2.62488 0
M  V30 2280 N 215.803 -1.52179 -0.40978 0
M  V30 2281 C 217.214 -1.58377 -0.988615 0
M  V30 2282 C 217.565 -0.423879 -1.91566 0
M  V30 2283 O 216.69 0.455844 -2.11544 0
M  V30 2284 C 217.285 -2.87044 -1.79976 0
M  V30 2285 C 215.844 -2.95722 -2.32863 0
M  V30 2286 C 214.991 -2.53309 -1.12828 0
M  V30 2287 H 217.942 -1.57558 -0.190039 0
M  V30 2288 H 217.963 -2.7236 -2.65707 0
M  V30 2289 H 217.475 -3.71444 -1.12478 0
M  V30 2290 H 215.576 -2.15814 -3.03735 0
M  V30 2291 H 215.689 -3.99951 -2.63773 0
M  V30 2292 H 214.053 -2.07142 -1.48204 0
M  V30 2293 H 214.836 -3.40082 -0.46897 0
M  V30 2294 N 217.281 0.66697 -1.42791 0
M  V30 2295 C 218.191 1.80962 -1.49299 0
M  V30 2296 C 219.207 1.69775 -0.381108 0
M  V30 2297 O 220.383 1.91188 -0.633188 0
M  V30 2298 C 217.448 3.17156 -1.40045 0
M  V30 2299 C 216.509 3.40242 -2.6179 0
M  V30 2300 C 215.742 4.69939 -2.52969 0
M  V30 2301 O 215.965 5.48372 -1.56985 0
M  V30 2302 O 214.899 4.94441 -3.43237 0
M  V30 2303 H 218.725 1.78427 -2.45759 0
M  V30 2304 H 216.31 0.823713 -1.24641 0
M  V30 2305 H 218.192 3.98413 -1.37276 0
M  V30 2306 H 216.867 3.20312 -0.467138 0
M  V30 2307 H 215.774 2.58802 -2.70134 0
M  V30 2308 H 217.107 3.41923 -3.54047 0
M  V30 2309 N 218.759 1.29093 0.90403 0
M  V30 2310 C 220.008 1.16187 1.64874 0
M  V30 2311 C 220.321 -0.286742 1.93487 0
M  V30 2312 O 221.527 -0.537062 2.66135 0
M  V30 2313 C 219.983 2.03177 2.97064 0
M  V30 2314 C 219.591 3.52836 2.76062 0
M  V30 2315 C 221.335 1.98984 3.74974 0
M  V30 2316 C 219.242 4.31945 4.03952 0
M  V30 2317 H 218.172 0.431246 0.618501 0
M  V30 2318 H 220.823 1.53699 1.00243 0
M  V30 2319 H 219.205 1.5853 3.62883 0
M  V30 2320 H 220.379 4.05507 2.18863 0
M  V30 2321 H 218.694 3.58656 2.11553 0
M  V30 2322 H 221.291 2.55351 4.69787 0
M  V30 2323 H 221.634 0.968815 4.0487 0
M  V30 2324 H 222.167 2.41652 3.15989 0
M  V30 2325 H 218.906 5.34667 3.79225 0
M  V30 2326 H 218.426 3.84045 4.60727 0
M  V30 2327 H 220.105 4.42379 4.72133 0
M  V30 2328 N 220.237 -1.11381 1.11499 0
M  V30 2329 C 221.167 -2.19509 0.796125 0
M  V30 2330 C 222.148 -1.68458 -0.235796 0
M  V30 2331 O 223.333 -1.93947 -0.0991344 0
M  V30 2332 C 220.463 -3.46475 0.239205 0
M  V30 2333 C 219.417 -4.10744 1.20307 0
M  V30 2334 C 218.743 -5.32293 0.50683 0
M  V30 2335 C 220.043 -4.55597 2.55399 0
M  V30 2336 H 221.737 -2.46439 1.70024 0
M  V30 2337 H 219.283 -1.18446 0.818935 0
M  V30 2338 H 221.236 -4.214 0.00392006 0
M  V30 2339 H 219.96 -3.19006 -0.700206 0
M  V30 2340 H 218.619 -3.37813 1.42399 0
M  V30 2341 H 218.267 -5.01095 -0.437408 0
M  V30 2342 H 217.967 -5.76243 1.1497 0
M  V30 2343 H 219.491 -6.09956 0.280351 0
M  V30 2344 H 220.905 -5.21841 2.37391 0
M  V30 2345 H 219.302 -5.10363 3.15673 0
M  V30 2346 H 220.372 -3.69013 3.14575 0
M  V30 2347 N 221.715 -0.905404 -1.28997 0
M  V30 2348 C 222.645 -0.404212 -2.29975 0
M  V30 2349 C 223.626 0.523784 -1.61835 0
M  V30 2350 O 224.811 0.433298 -1.89304 0
M  V30 2351 C 221.941 0.364042 -3.45387 0
M  V30 2352 C 220.895 -0.474048 -4.25367 0
M  V30 2353 C 220.221 0.422045 -5.33032 0
M  V30 2354 C 221.521 -1.72696 -4.92923 0
M  V30 2355 H 223.215 -1.24807 -2.72146 0
M  V30 2356 H 220.761 -0.601585 -1.30832 0
M  V30 2357 H 222.714 0.725447 -4.15109 0
M  V30 2358 H 221.438 1.24174 -3.02074 0
M  V30 2359 H 220.097 -0.81786 -3.57361 0
M  V30 2360 H 219.745 1.29804 -4.85963 0
M  V30 2361 H 219.445 -0.135057 -5.87445 0
M  V30 2362 H 220.969 0.779517 -6.05604 0
M  V30 2363 H 222.383 -1.43495 -5.55051 0
M  V30 2364 H 220.78 -2.22582 -5.57295 0
M  V30 2365 H 221.85 -2.45964 -4.17887 0
M  V30 2366 N 223.193 1.4272 -0.668489 0
M  V30 2367 C 224.418 2.06484 -0.194758 0
M  V30 2368 C 224.843 1.49862 1.13679 0
M  V30 2369 O 224.201 0.614582 1.70565 0
M  V30 2370 C 224.249 3.60353 -0.133546 0
M  V30 2371 O 223.353 4.02464 0.899806 0
M  V30 2372 H 222.694 0.656137 -0.10188 0
M  V30 2373 H 225.224 1.82964 -0.915722 0
M  V30 2374 H 225.234 4.07976 0.0447041 0
M  V30 2375 H 223.909 4.00938 -1.1055 0
M  V30 2376 H 222.486 3.66402 0.693109 0
M  V30 2377 N 224.671 0.411399 1.52136 0
M  V30 2378 C 225.917 -0.163888 2.02137 0
M  V30 2379 C 226.25 -1.44597 1.29636 0
M  V30 2380 O 225.525 -1.90272 0.403353 0
M  V30 2381 C 225.808 -0.40927 3.57767 0
M  V30 2382 C 225.661 0.889643 4.40914 0
M  V30 2383 C 226.98 -1.19042 4.23694 0
M  V30 2384 H 224.099 -0.0580896 0.734707 0
M  V30 2385 H 226.741 0.54531 1.82007 0
M  V30 2386 H 224.891 -1.0134 3.7505 0
M  V30 2387 H 226.563 1.52575 4.35337 0
M  V30 2388 H 224.806 1.50011 4.07037 0
M  V30 2389 H 225.477 0.672314 5.4789 0
M  V30 2390 H 227.953 -0.678942 4.10524 0
M  V30 2391 H 226.829 -1.33086 5.32522 0
M  V30 2392 H 227.09 -2.21166 3.82803 0
M  V30 2393 N 226.149 -1.5696 0.141893 0
M  V30 2394 C 227.398 -1.95135 -0.510427 0
M  V30 2395 C 227.711 -1.02896 -1.66348 0
M  V30 2396 O 228.917 -1.30629 -2.38009 0
M  V30 2397 C 227.373 -3.46876 -0.959427 0
M  V30 2398 C 226.981 -4.47691 0.166419 0
M  V30 2399 C 228.725 -3.93927 -1.58183 0
M  V30 2400 C 226.632 -5.90636 -0.300565 0
M  V30 2401 H 225.562 -0.728494 -0.194454 0
M  V30 2402 H 228.213 -1.8211 0.22542 0
M  V30 2403 H 226.595 -3.55215 -1.75038 0
M  V30 2404 H 227.769 -4.51043 0.94325 0
M  V30 2405 H 226.084 -4.10527 0.696905 0
M  V30 2406 H 228.681 -4.98158 -1.94275 0
M  V30 2407 H 229.024 -3.3519 -2.46888 0
M  V30 2408 H 229.557 -3.88484 -0.855863 0
M  V30 2409 H 226.296 -6.5318 0.550989 0
M  V30 2410 H 225.816 -5.90655 -1.04338 0
M  V30 2411 H 227.495 -6.42588 -0.754265 0
M  V30 2412 N 227.627 0.131896 -1.57047 0
M  V30 2413 C 228.537 1.1815 -2.02676 0
M  V30 2414 C 229.553 1.46113 -0.944824 0
M  V30 2415 O 230.729 1.57485 -1.25541 0
M  V30 2416 C 227.794 2.49139 -2.41103 0
M  V30 2417 C 226.855 2.28688 -3.63318 0
M  V30 2418 C 226.088 3.53431 -3.99903 0
M  V30 2419 O 226.311 4.60223 -3.36973 0
M  V30 2420 O 225.245 3.45198 -4.93074 0
M  V30 2421 H 229.071 0.824069 -2.92306 0
M  V30 2422 H 226.656 0.341745 -1.45439 0
M  V30 2423 H 228.538 3.26338 -2.66611 0
M  V30 2424 H 227.213 2.84382 -1.54624 0
M  V30 2425 H 226.12 1.4939 -3.42977 0
M  V30 2426 H 227.453 1.98355 -4.50462 0
M  V30 2427 N 229.106 1.52395 0.401703 0
M  V30 2428 C 230.352 1.67065 1.14966 0
M  V30 2429 C 230.685 0.403052 1.89971 0
M  V30 2430 O 229.96 -0.598774 1.85054 0
M  V30 2431 C 230.243 2.8975 2.13815 0
M  V30 2432 C 230.096 4.26578 1.42658 0
M  V30 2433 C 231.415 3.07965 3.14397 0
M  V30 2434 H 228.534 0.607968 0.416587 0
M  V30 2435 H 231.176 1.84965 0.434511 0
M  V30 2436 H 229.326 2.74619 2.74803 0
M  V30 2437 H 230.998 4.53451 0.847329 0
M  V30 2438 H 229.241 4.27639 0.72849 0
M  V30 2439 H 229.912 5.08483 2.14823 0
M  V30 2440 H 232.388 3.22043 2.63491 0
M  V30 2441 H 231.264 3.95308 3.80819 0
M  V30 2442 H 231.525 2.21611 3.82545 0
M  V30 2443 N 230.584 -0.659388 1.43143 0
M  V30 2444 C 231.824 -1.43121 1.45931 0
M  V30 2445 C 232.188 -1.91838 0.0789298 0
M  V30 2446 O 233.389 -2.68794 -0.018491 0
M  V30 2447 C 231.66 -2.58534 2.46769 0
M  V30 2448 S 233.219 -3.47154 2.68384 0
M  V30 2449 H 230.037 -0.488624 0.516496 0
M  V30 2450 H 232.639 -0.766128 1.79863 0
M  V30 2451 H 231.343 -2.21007 3.45809 0
M  V30 2452 H 230.874 -3.29898 2.14315 0
M  V30 2453 H 232.889 -4.55051 1.97845 0
M  V30 2454 N 232.062 -1.29571 -0.897171 0
M  V30 2455 C 233.31 -1.17456 -1.64464 0
M  V30 2456 C 233.631 0.273698 -1.9307 0
M  V30 2457 O 232.901 1.18684 -1.55855 0
M  V30 2458 H 231.481 -0.431706 -0.609622 0
M  V30 2459 H 234.143 -1.62531 -1.07562 0
M  V30 2460 H 233.239 -1.72648 -2.59998 0
M  V30 2461 N 233.54 1.10788 -1.12088 0
M  V30 2462 C 234.49 2.15158 -0.754401 0
M  V30 2463 C 235.474 1.59026 0.244846 0
M  V30 2464 O 236.666 1.76927 0.0509097 0
M  V30 2465 C 233.795 3.42677 -0.206657 0
M  V30 2466 C 232.881 4.05751 -1.23398 0
M  V30 2467 N 233.272 4.43582 -2.43041 0
M  V30 2468 C 231.57 4.32764 -1.07848 0
M  V30 2469 C 232.271 4.93085 -3.08613 0
M  V30 2470 N 231.247 4.89664 -2.36072 0
M  V30 2471 H 235.049 2.42195 -1.6649 0
M  V30 2472 H 232.563 1.27872 -1.00112 0
M  V30 2473 H 234.56 4.16834 0.0740646 0
M  V30 2474 H 233.22 3.17101 0.698342 0
M  V30 2475 H 234.231 4.35395 -2.80449 0
M  V30 2476 H 230.908 4.16863 -0.230483 0
M  V30 2477 H 232.298 5.31933 -4.10483 0
M  V30 2478 N 235.018 0.912232 1.28515 0
M  V30 2479 C 235.966 0.389597 2.29314 0
M  V30 2480 C 236.96 -0.517915 1.61289 0
M  V30 2481 O 238.166 -0.399328 1.75515 0
M  V30 2482 H 234.541 0.107386 0.744293 0
M  V30 2483 H 236.512 1.25286 2.70825 0
M  V30 2484 C 235.261 -0.356496 3.45868 0
M  V30 2485 H 234.584 0.332608 3.98414 0
M  V30 2486 H 236.024 -0.686851 4.184 0
M  V30 2487 C 234.483 -1.56383 2.98406 0
M  V30 2488 O 235.013 -2.66294 3.00749 0
M  V30 2489 N 233.219 -1.41029 2.54085 0
M  V30 2490 H 232.766 -0.516089 2.52377 0
M  V30 2491 H 232.724 -2.21939 2.22689 0
M  V30 2492 N 236.496 -1.42363 0.676048 0
M  V30 2493 C 237.743 -2.01522 0.19883 0
M  V30 2494 C 238.071 -1.53456 -1.19505 0
M  V30 2495 O 237.326 -0.727967 -1.81657 0
M  V30 2496 C 237.625 -3.56929 0.183431 0
M  V30 2497 C 237.291 -4.24431 1.52215 0
M  V30 2498 C 235.953 -4.42585 1.8887 0
M  V30 2499 C 238.305 -4.62459 2.40377 0
M  V30 2500 C 235.633 -4.96039 3.13309 0
M  V30 2501 C 237.985 -5.17294 3.64129 0
M  V30 2502 C 236.649 -5.33661 4.00951 0
M  V30 2503 H 235.919 -0.737419 0.0727571 0
M  V30 2504 H 238.566 -1.70531 0.871281 0
M  V30 2505 H 236.871 -3.87594 -0.572532 0
M  V30 2506 H 238.568 -4.00486 -0.203035 0
M  V30 2507 H 235.158 -4.10661 1.22701 0
M  V30 2508 H 239.342 -4.48105 2.13343 0
M  V30 2509 H 234.598 -5.06896 3.41857 0
M  V30 2510 H 238.772 -5.45704 4.32644 0
M  V30 2511 H 236.399 -5.74845 4.9745 0
M  V30 2512 N 237.974 -0.419461 -1.51915 0
M  V30 2513 C 239.202 0.152136 -2.0634 0
M  V30 2514 C 239.617 1.37988 -1.28859 0
M  V30 2515 O 238.974 1.79243 -0.343232 0
M  V30 2516 C 239.025 0.492266 -3.58133 0
M  V30 2517 O 238.746 -0.686736 -4.32684 0
M  V30 2518 C 240.247 1.11648 -4.2901 0
M  V30 2519 H 237.467 0.0158325 -0.670813 0
M  V30 2520 H 240.011 -0.593394 -1.95702 0
M  V30 2521 H 238.166 1.18769 -3.68745 0
M  V30 2522 H 238.58 -0.400341 -5.2297 0
M  V30 2523 H 240.054 1.3046 -5.36362 0
M  V30 2524 H 240.531 2.09251 -3.86148 0
M  V30 2525 H 241.137 0.460958 -4.22795 0
M  V30 2526 N 239.452 1.56882 -0.150215 0
M  V30 2527 C 240.415 2.1573 0.774157 0
M  V30 2528 C 241.415 1.0999 1.17298 0
M  V30 2529 O 242.605 1.35613 1.09338 0
M  V30 2530 C 239.737 2.72302 2.05096 0
M  V30 2531 H 240.93 2.98752 0.262201 0
M  V30 2532 H 238.483 1.55985 0.099248 0
M  V30 2533 H 239.218 1.92956 2.6065 0
M  V30 2534 H 239.003 3.49665 1.77416 0
M  V30 2535 H 240.493 3.17632 2.71109 0
M  V30 2536 N 240.93 -0.123565 1.57115 0
M  V30 2537 C 242.178 -0.83051 1.84247 0
M  V30 2538 C 242.499 -1.80629 0.73471 0
M  V30 2539 O 241.769 -1.94403 -0.241688 0
M  V30 2540 H 240.349 -0.309694 0.679778 0
M  V30 2541 H 243.011 -0.111976 1.94578 0
M  V30 2542 H 242.107 -1.37852 2.80006 0
M  V30 2543 N 242.408 -1.52605 -0.393616 0
M  V30 2544 C 243.685 -1.58001 -1.15304 0
M  V30 2545 C 244.065 -0.370385 -2.07825 0
M  V30 2546 O 243.413 0.641638 -2.19306 0
M  V30 2547 C 243.623 -2.91652 -1.91677 0
M  V30 2548 C 244.971 -3.4522 -2.47201 0
M  V30 2549 O 245.995 -2.93495 -2.01839 0
M  V30 2550 O 244.854 -4.35579 -3.3005 0
M  V30 2551 H 241.948 -0.637068 -0.527327 0
M  V30 2552 H 244.494 -1.64939 -0.399141 0
M  V30 2553 H 243.266 -3.71136 -1.23992 0
M  V30 2554 H 242.889 -2.88077 -2.74039 0
M  V30 2555 N 243.887 0.651787 -1.4349 0
M  V30 2556 C 244.817 1.77621 -1.51569 0
M  V30 2557 C 245.798 1.66022 -0.370253 0
M  V30 2558 O 246.983 1.85095 -0.587658 0
M  V30 2559 C 244.113 3.16056 -1.43966 0
M  V30 2560 C 243.067 3.4242 -2.56774 0
M  V30 2561 C 242.393 4.8067 -2.34223 0
M  V30 2562 C 243.693 3.37023 -3.99015 0
M  V30 2563 H 245.387 1.71117 -2.45681 0
M  V30 2564 H 242.933 0.821825 -1.18246 0
M  V30 2565 H 244.886 3.94472 -1.48221 0
M  V30 2566 H 243.61 3.23293 -0.463586 0
M  V30 2567 H 242.269 2.66375 -2.51873 0
M  V30 2568 H 241.917 4.84585 -1.34856 0
M  V30 2569 H 241.617 4.9927 -3.09844 0
M  V30 2570 H 243.141 5.61342 -2.40265 0
M  V30 2571 H 244.555 4.05374 -4.05395 0
M  V30 2572 H 242.952 3.67159 -4.74673 0
M  V30 2573 H 244.022 2.3518 -4.2405 0
M  V30 2574 N 245.365 1.30045 0.890287 0
M  V30 2575 C 246.613 1.18327 1.63839 0
M  V30 2576 C 246.934 -0.263455 1.93212 0
M  V30 2577 O 246.204 -1.17856 1.56482 0
M  V30 2578 H 244.784 0.434933 0.607324 0
M  V30 2579 H 247.446 1.631 1.06698 0
M  V30 2580 H 246.542 1.74024 2.59079 0
M  V30 2581 N 246.843 -1.10192 1.12674 0
M  V30 2582 C 248.254 -1.63707 0.897604 0
M  V30 2583 C 248.605 -1.87812 -0.567546 0
M  V30 2584 O 247.73 -1.62196 -1.43253 0
M  V30 2585 C 248.325 -2.974 1.62292 0
M  V30 2586 C 246.884 -3.47772 1.43986 0
M  V30 2587 C 246.031 -2.22332 1.65722 0
M  V30 2588 H 248.982 -0.936587 1.28116 0
M  V30 2589 H 249.003 -3.64986 1.07541 0
M  V30 2590 H 248.515 -2.79824 2.68924 0
M  V30 2591 H 246.616 -3.70487 0.396206 0
M  V30 2592 H 246.729 -4.25723 2.19765 0
M  V30 2593 H 245.093 -2.30599 1.08149 0
M  V30 2594 H 245.876 -2.07285 2.73657 0
M  V30 2595 N 248.321 -0.919034 -1.28029 0
M  V30 2596 C 249.546 -0.570357 -1.99403 0
M  V30 2597 C 249.971 0.842486 -1.68178 0
M  V30 2598 O 249.329 1.56391 -0.917141 0
M  V30 2599 C 249.377 -0.792541 -3.51783 0
M  V30 2600 O 248.481 0.145988 -4.12142 0
M  V30 2601 H 247.822 -0.220555 -0.6263 0
M  V30 2602 H 250.352 -1.23592 -1.63053 0
M  V30 2603 H 250.362 -0.704708 -4.01868 0
M  V30 2604 H 249.037 -1.82247 -3.73844 0
M  V30 2605 H 247.614 0.00897528 -3.72899 0
M  V30 2606 N 249.799 1.42003 -0.683588 0
M  V30 2607 C 251.027 2.05746 -0.218182 0
M  V30 2608 C 251.442 1.51396 1.12804 0
M  V30 2609 O 250.799 0.657303 1.70252 0
M  V30 2610 C 250.85 3.61171 -0.154131 0
M  V30 2611 O 250.571 4.13508 -1.44716 0
M  V30 2612 C 252.072 4.42042 0.333713 0
M  V30 2613 H 249.292 0.662888 -0.10402 0
M  V30 2614 H 251.836 1.81987 -0.9328 0
M  V30 2615 H 249.991 3.84012 0.511231 0
M  V30 2616 H 250.405 5.07453 -1.32632 0
M  V30 2617 H 251.879 5.51028 0.327423 0
M  V30 2618 H 252.356 4.17269 1.37053 0
M  V30 2619 H 252.962 4.24239 -0.300222 0
M  V30 2620 N 251.277 0.427512 1.51691 0
M  V30 2621 C 252.526 -0.143679 2.01188 0
M  V30 2622 C 252.839 -1.44642 1.31674 0
M  V30 2623 O 254.045 -2.09997 1.72086 0
M  V30 2624 C 252.501 -0.306602 3.58592 0
M  V30 2625 C 252.109 0.985125 4.37035 0
M  V30 2626 C 253.853 -0.832091 4.16265 0
M  V30 2627 C 251.76 0.788382 5.86122 0
M  V30 2628 H 250.69 -0.0574701 0.751807 0
M  V30 2629 H 253.341 0.555772 1.74881 0
M  V30 2630 H 251.723 -1.06882 3.81303 0
M  V30 2631 H 252.897 1.75492 4.26074 0
M  V30 2632 H 251.212 1.4384 3.90767 0
M  V30 2633 H 253.809 -0.995617 5.25349 0
M  V30 2634 H 254.152 -1.81186 3.74803 0
M  V30 2635 H 254.685 -0.128444 3.97593 0
M  V30 2636 H 251.424 1.74025 6.31978 0
M  V30 2637 H 250.944 0.0582143 5.99772 0
M  V30 2638 H 252.623 0.437722 6.45518 0
M  V30 2639 N 252.755 -1.56801 0.158532 0
M  V30 2640 C 254.001 -1.96781 -0.490405 0
M  V30 2641 C 254.334 -1.04397 -1.63753 0
M  V30 2642 O 253.609 -0.0885805 -1.94298 0
M  V30 2643 C 253.892 -3.4635 -0.985594 0
M  V30 2644 C 253.745 -4.49512 0.160824 0
M  V30 2645 C 255.064 -3.98697 -1.86355 0
M  V30 2646 H 252.183 -0.715482 -0.176788 0
M  V30 2647 H 254.825 -1.88451 0.242088 0
M  V30 2648 H 252.975 -3.53579 -1.60978 0
M  V30 2649 H 254.647 -4.54353 0.797537 0
M  V30 2650 H 252.89 -4.26013 0.818256 0
M  V30 2651 H 253.561 -5.51531 -0.227569 0
M  V30 2652 H 256.037 -3.94019 -1.33746 0
M  V30 2653 H 254.913 -5.03792 -2.17909 0
M  V30 2654 H 255.174 -3.41744 -2.8047 0
M  V30 2655 N 254.233 0.115231 -1.57178 0
M  V30 2656 C 255.481 0.820727 -1.84685 0
M  V30 2657 C 255.802 1.80237 -0.744279 0
M  V30 2658 O 255.072 1.94529 0.231375 0
M  V30 2659 H 253.652 0.306084 -0.681411 0
M  V30 2660 H 256.314 0.101656 -1.94635 0
M  V30 2661 H 255.41 1.36366 -2.80733 0
M  V30 2662 N 255.711 1.52812 0.385517 0
M  V30 2663 C 256.936 1.72207 1.15583 0
M  V30 2664 C 257.361 0.441034 1.82857 0
M  V30 2665 O 256.719 -0.603465 1.70962 0
M  V30 2666 C 256.767 2.87476 2.17692 0
M  V30 2667 O 255.871 2.54693 3.24354 0
M  V30 2668 H 255.212 0.572526 0.336319 0
M  V30 2669 H 257.742 1.99618 0.448744 0
M  V30 2670 H 257.752 3.13072 2.6163 0
M  V30 2671 H 256.427 3.80408 1.68115 0
M  V30 2672 H 255.004 2.3985 2.85529 0
M  V30 2673 N 257.189 -0.644168 1.43834 0
M  V30 2674 C 258.152 -1.73857 1.49353 0
M  V30 2675 C 259.152 -1.56315 0.377112 0
M  V30 2676 O 260.342 -1.62048 0.639226 0
M  V30 2677 C 257.474 -3.12819 1.35488 0
M  V30 2678 H 258.667 -1.70342 2.46827 0
M  V30 2679 H 256.22 -0.856652 1.30733 0
M  V30 2680 H 256.955 -3.2194 0.390569 0
M  V30 2681 H 256.74 -3.26958 2.16428 0
M  V30 2682 H 258.23 -3.92606 1.42302 0
M  V30 2683 N 258.668 -1.30515 -0.883378 0
M  V30 2684 C 259.631 -1.1701 -1.97082 0
M  V30 2685 C 260.631 -0.10089 -1.60483 0
M  V30 2686 O 261.821 -0.349127 -1.70666 0
M  V30 2687 C 258.953 -0.793045 -3.31547 0
M  V30 2688 H 260.146 -2.13622 -2.10489 0
M  V30 2689 H 257.699 -1.13935 -1.06998 0
M  V30 2690 H 258.434 0.172499 -3.23841 0
M  V30 2691 H 258.219 -1.56576 -3.5948 0
M  V30 2692 H 259.709 -0.722073 -4.1131 0
M  V30 2693 N 260.146 1.09593 -1.13257 0
M  V30 2694 C 261.393 1.81734 -0.893257 0
M  V30 2695 C 261.721 1.8563 0.580656 0
M  V30 2696 O 260.976 1.31906 1.44566 0
M  V30 2697 C 261.275 3.27802 -1.42411 0
M  V30 2698 C 260.941 3.44041 -2.91456 0
M  V30 2699 C 259.603 3.48181 -3.3215 0
M  V30 2700 C 261.955 3.48719 -3.87356 0
M  V30 2701 C 259.283 3.54575 -4.67433 0
M  V30 2702 C 261.635 3.56648 -5.2248 0
M  V30 2703 C 260.299 3.59055 -5.62704 0
M  V30 2704 H 259.569 0.665011 -0.326866 0
M  V30 2705 H 262.216 1.2912 -1.41422 0
M  V30 2706 H 260.521 3.83042 -0.823795 0
M  V30 2707 H 262.218 3.82149 -1.21503 0
M  V30 2708 H 258.808 3.41502 -2.58987 0
M  V30 2709 H 262.992 3.44763 -3.57004 0
M  V30 2710 H 258.248 3.54725 -4.97976 0
M  V30 2711 H 262.422 3.59212 -5.96607 0
M  V30 2712 H 260.049 3.63763 -6.67518 0
M  V30 2713 N 261.624 0.925811 1.2754 0
M  V30 2714 C 262.572 0.413897 2.28888 0
M  V30 2715 C 263.566 -0.500779 1.61829 0
M  V30 2716 O 264.772 -0.38069 1.75928 0
M  V30 2717 H 261.147 0.115274 0.743112 0
M  V30 2718 H 263.118 1.28151 2.69481 0
M  V30 2719 C 261.867 -0.319792 3.46226 0
M  V30 2720 H 261.19 0.374846 3.98039 0
M  V30 2721 H 262.63 -0.642435 4.19105 0
M  V30 2722 C 261.089 -1.53209 3.00048 0
M  V30 2723 O 261.619 -2.6309 3.03557 0
M  V30 2724 N 259.825 -1.38326 2.55566 0
M  V30 2725 H 259.372 -0.489292 2.5291 0
M  V30 2726 H 259.33 -2.19564 2.25031 0
M  V30 2727 N 263.102 -1.41638 0.69111 0
M  V30 2728 C 264.035 -2.28183 -0.0274913 0
M  V30 2729 C 265.013 -1.41984 -0.792424 0
M  V30 2730 O 266.197 -1.71415 -0.784169 0
M  V30 2731 C 263.324 -3.22135 -1.04628 0
M  V30 2732 C 262.37 -4.24848 -0.375037 0
M  V30 2733 S 263.203 -5.28231 0.879321 0
M  V30 2734 C 264.359 -6.25748 -0.137983 0
M  V30 2735 H 264.592 -2.88782 0.706553 0
M  V30 2736 H 262.125 -1.46709 0.481222 0
M  V30 2737 H 264.083 -3.76797 -1.62894 0
M  V30 2738 H 262.744 -2.6064 -1.75287 0
M  V30 2739 H 261.937 -4.90837 -1.14433 0
M  V30 2740 H 261.539 -3.73758 0.134434 0
M  V30 2741 H 263.831 -6.70188 -0.992659 0
M  V30 2742 H 264.774 -7.06417 0.487867 0
M  V30 2743 H 265.182 -5.62363 -0.490762 0
M  V30 2744 N 264.58 -0.43555 -1.51462 0
M  V30 2745 C 265.827 0.131514 -2.02072 0
M  V30 2746 C 266.155 1.42868 -1.31981 0
M  V30 2747 O 265.41 1.91076 -0.422883 0
M  V30 2748 C 265.709 0.39942 -3.55161 0
M  V30 2749 C 265.375 -0.81172 -4.43533 0
M  V30 2750 C 264.037 -1.14387 -4.67407 0
M  V30 2751 C 266.389 -1.61976 -4.95392 0
M  V30 2752 C 263.717 -2.28477 -5.40384 0
M  V30 2753 C 266.069 -2.75164 -5.6962 0
M  V30 2754 C 264.733 -3.08835 -5.91758 0
M  V30 2755 H 264.003 0.0481244 -0.739436 0
M  V30 2756 H 266.65 -0.58238 -1.8243 0
M  V30 2757 H 264.955 1.19519 -3.73125 0
M  V30 2758 H 266.652 0.85157 -3.91854 0
M  V30 2759 H 263.242 -0.542898 -4.25148 0
M  V30 2760 H 267.426 -1.37637 -4.76833 0
M  V30 2761 H 262.682 -2.5488 -5.55739 0
M  V30 2762 H 266.856 -3.38147 -6.08793 0
M  V30 2763 H 264.483 -3.97353 -6.48086 0
M  V30 2764 N 266.058 1.56714 -0.166846 0
M  V30 2765 C 267.307 1.95922 0.479318 0
M  V30 2766 C 267.62 1.05529 1.6469 0
M  V30 2767 O 268.826 1.34399 2.35901 0
M  V30 2768 C 267.282 3.48359 0.90412 0
M  V30 2769 C 266.89 4.47369 -0.237621 0
M  V30 2770 C 268.634 3.96394 1.51896 0
M  V30 2771 C 266.541 5.91039 0.206561 0
M  V30 2772 H 265.471 0.731495 0.18284 0
M  V30 2773 H 268.122 1.81728 -0.254363 0
M  V30 2774 H 266.504 3.57955 1.69365 0
M  V30 2775 H 267.678 4.49485 -1.01489 0
M  V30 2776 H 265.993 4.09366 -0.762128 0
M  V30 2777 H 268.59 5.01186 1.86325 0
M  V30 2778 H 268.933 3.39075 2.41524 0
M  V30 2779 H 269.466 3.89796 0.79395 0
M  V30 2780 H 266.205 6.52221 -0.654834 0
M  V30 2781 H 265.725 5.9224 0.949282 0
M  V30 2782 H 267.404 6.43707 0.651939 0
M  V30 2783 N 267.536 -0.106894 1.57237 0
M  V30 2784 C 268.785 -0.811163 1.8467 0
M  V30 2785 C 269.098 -1.80469 0.754342 0
M  V30 2786 O 270.304 -2.55601 0.915439 0
M  V30 2787 C 268.76 -1.49337 3.27454 0
M  V30 2788 C 268.368 -0.540217 4.44731 0
M  V30 2789 C 270.112 -2.18206 3.64124 0
M  V30 2790 C 268.019 -1.22634 5.78545 0
M  V30 2791 H 266.949 -0.306679 0.688813 0
M  V30 2792 H 269.6 -0.0639887 1.83388 0
M  V30 2793 H 267.982 -2.2876 3.23241 0
M  V30 2794 H 269.156 0.221659 4.60267 0
M  V30 2795 H 267.471 0.042146 4.16379 0
M  V30 2796 H 270.068 -2.70253 4.61376 0
M  V30 2797 H 270.411 -2.96562 2.92158 0
M  V30 2798 H 270.944 -1.45658 3.70174 0
M  V30 2799 H 267.683 -0.483832 6.53712 0
M  V30 2800 H 267.203 -1.95993 5.66874 0
M  V30 2801 H 268.882 -1.75615 6.2271 0
M  V30 2802 N 269.014 -1.53014 -0.377408 0
M  V30 2803 C 270.263 -1.67845 -1.11853 0
M  V30 2804 C 270.576 -0.430625 -1.90801 0
M  V30 2805 O 271.782 -0.459261 -2.67587 0
M  V30 2806 C 270.238 -2.96668 -2.03756 0
M  V30 2807 C 269.846 -4.28671 -1.30175 0
M  V30 2808 C 271.59 -3.20865 -2.77932 0
M  V30 2809 C 269.497 -5.48591 -2.20911 0
M  V30 2810 H 268.427 -0.625343 -0.421263 0
M  V30 2811 H 271.078 -1.79514 -0.380409 0
M  V30 2812 H 269.46 -2.78773 -2.8125 0
M  V30 2813 H 270.634 -4.57157 -0.578259 0
M  V30 2814 H 268.949 -4.10825 -0.679108 0
M  V30 2815 H 271.546 -4.07642 -3.46024 0
M  V30 2816 H 271.889 -2.36424 -3.4265 0
M  V30 2817 H 272.422 -3.39379 -2.07525 0
M  V30 2818 H 269.161 -6.35474 -1.6079 0
M  V30 2819 H 268.681 -5.244 -2.91144 0
M  V30 2820 H 270.36 -5.8292 -2.80736 0
M  V30 2821 N 270.492 0.636531 -1.44174 0
M  V30 2822 C 271.455 1.73063 -1.50273 0
M  V30 2823 C 272.455 1.56113 -0.385397 0
M  V30 2824 O 273.645 1.61707 -0.64781 0
M  V30 2825 C 270.777 3.12096 -1.37145 0
M  V30 2826 H 271.97 1.69031 -2.47727 0
M  V30 2827 H 269.523 0.849706 -1.31186 0
M  V30 2828 H 270.258 3.21728 -0.407636 0
M  V30 2829 H 270.043 3.25805 -2.18159 0
M  V30 2830 H 271.533 3.91846 -1.44382 0
M  V30 2831 N 271.97 1.30982 0.876444 0
M  V30 2832 C 272.9 1.20668 1.99903 0
M  V30 2833 C 273.881 0.095354 1.69833 0
M  V30 2834 O 275.066 0.27885 1.92188 0
M  V30 2835 C 272.196 0.90655 3.3526 0
M  V30 2836 C 271.15 1.97675 3.79617 0
M  V30 2837 C 270.476 1.52943 5.1236 0
M  V30 2838 C 271.776 3.389 3.97422 0
M  V30 2839 H 273.47 2.14586 2.0879 0
M  V30 2840 H 271.016 1.03308 1.00317 0
M  V30 2841 H 272.969 0.821025 4.13324 0
M  V30 2842 H 271.693 -0.0682969 3.26529 0
M  V30 2843 H 270.352 2.05205 3.03787 0
M  V30 2844 H 270 0.54262 5.00065 0
M  V30 2845 H 269.7 2.24532 5.43009 0
M  V30 2846 H 271.224 1.45786 5.92941 0
M  V30 2847 H 272.638 3.34081 4.659 0
M  V30 2848 H 271.035 4.0865 4.3946 0
M  V30 2849 H 272.105 3.80163 3.01006 0
M  V30 2850 N 273.449 -1.08991 1.13837 0
M  V30 2851 C 274.689 -1.82867 0.913183 0
M  V30 2852 C 275.053 -1.83936 -0.550604 0
M  V30 2853 O 276.254 -2.53515 -0.893515 0
M  V30 2854 C 274.525 -3.24843 1.49036 0
M  V30 2855 S 276.084 -4.15669 1.40588 0
M  V30 2856 H 272.902 -0.630278 0.329046 0
M  V30 2857 H 275.504 -1.31049 1.45073 0
M  V30 2858 H 274.208 -3.21644 2.54899 0
M  V30 2859 H 273.739 -3.81734 0.950947 0
M  V30 2860 H 275.754 -4.94686 0.387353 0
M  V30 2861 N 274.927 -0.932562 -1.27047 0
M  V30 2862 C 276.173 -0.576412 -1.94436 0
M  V30 2863 C 276.506 0.880891 -1.73072 0
M  V30 2864 O 275.781 1.62905 -1.06264 0
M  V30 2865 C 276.064 -0.909031 -3.48437 0
M  V30 2866 C 275.917 -2.42044 -3.79123 0
M  V30 2867 C 277.236 -0.418341 -4.38107 0
M  V30 2868 H 274.355 -0.210888 -0.706184 0
M  V30 2869 H 276.997 -1.16522 -1.50075 0
M  V30 2870 H 275.147 -0.407947 -3.86352 0
M  V30 2871 H 276.819 -2.99359 -3.50973 0
M  V30 2872 H 275.062 -2.86758 -3.25503 0
M  V30 2873 H 275.733 -2.6037 -4.86736 0
M  V30 2874 H 278.209 -0.847856 -4.0737 0
M  V30 2875 H 277.085 -0.679981 -5.44672 0
M  V30 2876 H 277.346 0.681642 -4.36814 0
M  V30 2877 N 276.405 1.4127 -0.698611 0
M  V30 2878 C 277.635 2.05205 -0.239644 0
M  V30 2879 C 278.043 1.52684 1.11733 0
M  V30 2880 O 277.386 0.671222 1.70998 0
M  V30 2881 C 277.448 3.59289 -0.123126 0
M  V30 2882 C 277.112 4.34619 -1.41263 0
M  V30 2883 C 278.109 4.63701 -2.35111 0
M  V30 2884 C 275.794 4.73837 -1.66684 0
M  V30 2885 C 277.788 5.30966 -3.52639 0
M  V30 2886 C 275.475 5.40837 -2.84498 0
M  V30 2887 C 276.473 5.69329 -3.77298 0
M  V30 2888 O 276.161 6.34949 -4.93047 0
M  V30 2889 H 275.893 0.66723 -0.108537 0
M  V30 2890 H 278.447 1.81974 -0.952602 0
M  V30 2891 H 276.677 3.81272 0.645628 0
M  V30 2892 H 278.366 4.04797 0.299056 0
M  V30 2893 H 279.132 4.33882 -2.16729 0
M  V30 2894 H 275.011 4.51039 -0.953135 0
M  V30 2895 H 278.555 5.53121 -4.25091 0
M  V30 2896 H 274.452 5.70075 -3.02795 0
M  V30 2897 H 275.22 6.53445 -4.92902 0
M  V30 2898 N 277.883 0.443576 1.51229 0
M  V30 2899 C 279.129 -0.120975 2.02439 0
M  V30 2900 C 279.462 -1.41815 1.32674 0
M  V30 2901 O 278.737 -1.89373 0.443622 0
M  V30 2902 C 279.02 -0.333291 3.58554 0
M  V30 2903 C 278.873 0.982968 4.38928 0
M  V30 2904 C 280.192 -1.10028 4.26124 0
M  V30 2905 H 277.311 -0.0424923 0.735774 0
M  V30 2906 H 279.953 0.583794 1.80809 0
M  V30 2907 H 278.103 -0.933614 3.77115 0
M  V30 2908 H 279.775 1.61775 4.32003 0
M  V30 2909 H 278.018 1.58611 4.03763 0
M  V30 2910 H 278.689 0.788379 5.46341 0
M  V30 2911 H 281.165 -0.591711 4.11871 0
M  V30 2912 H 280.041 -1.21761 5.35225 0
M  V30 2913 H 280.302 -2.12996 3.87408 0
M  V30 2914 N 279.361 -1.56624 0.175154 0
M  V30 2915 C 280.607 -1.9729 -0.469506 0
M  V30 2916 C 280.94 -1.06128 -1.62636 0
M  V30 2917 O 280.215 -0.109183 -1.94193 0
M  V30 2918 C 280.498 -3.47375 -0.948804 0
M  V30 2919 C 280.351 -4.49317 0.208491 0
M  V30 2920 C 281.67 -4.00652 -1.82116 0
M  V30 2921 H 278.789 -0.717317 -0.16919 0
M  V30 2922 H 281.431 -1.88184 0.262062 0
M  V30 2923 H 279.581 -3.55267 -1.57219 0
M  V30 2924 H 281.253 -4.53482 0.845682 0
M  V30 2925 H 279.496 -4.25121 0.863395 0
M  V30 2926 H 280.167 -5.51741 -0.169059 0
M  V30 2927 H 282.643 -3.95416 -1.2956 0
M  V30 2928 H 281.519 -5.06075 -2.12554 0
M  V30 2929 H 281.78 -3.44699 -2.7683 0
M  V30 2930 N 280.839 0.0985539 -1.57292 0
M  V30 2931 C 282.25 0.653457 -1.74891 0
M  V30 2932 C 282.601 1.7929 -0.796838 0
M  V30 2933 O 281.726 2.16385 0.0254886 0
M  V30 2934 C 282.321 1.19216 -3.17133 0
M  V30 2935 C 280.88 1.69316 -3.36168 0
M  V30 2936 C 280.027 0.601294 -2.70702 0
M  V30 2937 H 282.978 -0.127497 -1.58187 0
M  V30 2938 H 282.999 2.06154 -3.19814 0
M  V30 2939 H 282.511 0.362635 -3.86402 0
M  V30 2940 H 280.612 2.5468 -2.71972 0
M  V30 2941 H 280.725 1.78853 -4.44464 0
M  V30 2942 H 279.089 1.0399 -2.32504 0
M  V30 2943 H 279.872 -0.217592 -3.4261 0
M  V30 2944 N 282.317 1.53212 0.369288 0
M  V30 2945 C 283.594 1.59815 1.12776 0
M  V30 2946 C 283.974 0.403402 2.0721 0
M  V30 2947 O 283.322 -0.606667 2.20299 0
M  V30 2948 C 283.532 2.94664 1.87013 0
M  V30 2949 C 284.88 3.49109 2.41677 0
M  V30 2950 O 285.904 2.96669 1.97144 0
M  V30 2951 O 284.763 4.40775 3.23079 0
M  V30 2952 H 281.857 0.645376 0.517125 0
M  V30 2953 H 284.403 1.65553 0.37285 0
M  V30 2954 H 283.175 3.73061 1.18071 0
M  V30 2955 H 282.798 2.92401 2.69421 0
M  V30 2956 N 283.795 -0.628877 1.44509 0
M  V30 2957 C 285.043 -1.38565 1.4712 0
M  V30 2958 C 285.364 -1.94712 0.105899 0
M  V30 2959 O 284.634 -1.75912 -0.862079 0
M  V30 2960 H 283.214 -0.514333 0.541729 0
M  V30 2961 H 285.876 -0.740018 1.80305 0
M  V30 2962 H 284.972 -2.21583 2.19789 0
M  V30 2963 N 285.273 -1.31445 -0.869486 0
M  V30 2964 C 286.183 -1.21097 -2.0093 0
M  V30 2965 C 287.199 -0.127584 -1.73532 0
M  V30 2966 O 288.375 -0.345477 -1.98415 0
M  V30 2967 C 285.44 -0.919378 -3.34288 0
M  V30 2968 C 284.501 -2.08971 -3.75006 0
M  V30 2969 C 283.734 -1.81194 -5.02001 0
M  V30 2970 O 283.957 -0.747296 -5.65484 0
M  V30 2971 O 282.891 -2.66883 -5.39497 0
M  V30 2972 H 286.717 -2.16883 -2.12592 0
M  V30 2973 H 284.302 -1.11189 -0.997868 0
M  V30 2974 H 286.184 -0.772625 -4.14257 0
M  V30 2975 H 284.859 0.00844772 -3.23699 0
M  V30 2976 H 283.766 -2.29187 -2.95676 0
M  V30 2977 H 285.099 -2.9998 -3.90221 0
M  V30 2978 N 286.751 1.08385 -1.14413 0
M  V30 2979 C 287.979 1.84517 -0.936001 0
M  V30 2980 C 288.394 1.81626 0.515503 0
M  V30 2981 O 287.751 1.22008 1.35721 0
M  V30 2982 C 287.802 3.32049 -1.42918 0
M  V30 2983 O 287.523 3.34951 -2.82381 0
M  V30 2984 C 289.024 4.24986 -1.26103 0
M  V30 2985 H 286.244 0.582491 -0.333084 0
M  V30 2986 H 288.788 1.36885 -1.5193 0
M  V30 2987 H 286.943 3.7707 -0.888641 0
M  V30 2988 H 287.357 4.27048 -3.04517 0
M  V30 2989 H 288.831 5.26615 -1.6547 0
M  V30 2990 H 289.308 4.38726 -0.20392 0
M  V30 2991 H 289.914 3.85791 -1.79012 0
M  V30 2992 N 288.23 0.939286 1.26551 0
M  V30 2993 C 289.646 0.641304 1.46149 0
M  V30 2994 C 289.846 -0.805964 1.84679 0
M  V30 2995 O 288.902 -1.58278 1.96734 0
M  V30 2996 C 290.215 1.6011 2.54529 0
M  V30 2997 C 291.763 1.6106 2.68382 0
M  V30 2998 C 292.238 2.55765 3.79932 0
M  V30 2999 N 293.729 2.5404 3.87322 0
M  V30 3000 C 294.464 3.24004 4.73085 0
M  V30 3001 N 293.96 4.03388 5.63249 0
M  V30 3002 N 295.753 3.12965 4.66914 0
M  V30 3003 H 287.904 1.87478 0.998285 0
M  V30 3004 H 290.167 0.805559 0.499779 0
M  V30 3005 H 289.873 2.63412 2.33039 0
M  V30 3006 H 289.747 1.35171 3.52149 0
M  V30 3007 H 292.134 0.584835 2.89247 0
M  V30 3008 H 292.215 1.90053 1.71212 0
M  V30 3009 H 291.859 3.58458 3.5982 0
M  V30 3010 H 291.789 2.24063 4.76554 0
M  V30 3011 H 294.28 1.96396 3.22858 0
M  V30 3012 H 294.593 4.5373 6.25579 0
M  V30 3013 H 292.938 4.07489 5.63008 0
M  V30 3014 H 296.129 2.50432 3.95476 0
M  V30 3015 H 296.302 3.67759 5.33533 0
M  V30 3016 N 289.708 -1.40897 0.706093 0
M  V30 3017 C 290.655 -2.30751 0.0474474 0
M  V30 3018 C 291.625 -1.47678 -0.76029 0
M  V30 3019 O 292.81 -1.76441 -0.726177 0
M  V30 3020 C 289.95 -3.33815 -0.875309 0
M  V30 3021 C 289.063 -4.31961 -0.0580623 0
M  V30 3022 C 288.198 -5.22093 -0.979425 0
M  V30 3023 C 287.237 -6.11902 -0.155706 0
M  V30 3024 N 286.374 -6.94482 -1.03144 0
M  V30 3025 H 291.214 -2.86513 0.819413 0
M  V30 3026 H 288.751 -1.41102 0.415783 0
M  V30 3027 H 290.709 -3.92129 -1.42446 0
M  V30 3028 H 289.339 -2.79579 -1.61356 0
M  V30 3029 H 288.391 -3.75507 0.608147 0
M  V30 3030 H 289.703 -4.95415 0.580082 0
M  V30 3031 H 288.857 -5.85292 -1.59744 0
M  V30 3032 H 287.596 -4.5889 -1.65141 0
M  V30 3033 H 286.601 -5.47742 0.475309 0
M  V30 3034 H 287.826 -6.77162 0.512635 0
M  V30 3035 H 285.772 -6.33877 -1.68924 0
M  V30 3036 H 285.689 -7.54665 -0.449108 0
M  V30 3037 H 286.957 -7.6214 -1.63593 0
M  V30 3038 N 291.186 -0.45159 -1.50991 0
M  V30 3039 C 292.435 0.111653 -2.01391 0
M  V30 3040 C 292.748 1.42529 -1.33959 0
M  V30 3041 O 293.954 2.07232 -1.75405 0
M  V30 3042 C 292.41 0.249514 -3.59034 0
M  V30 3043 C 292.018 -1.05453 -4.35412 0
M  V30 3044 C 293.762 0.765762 -4.17536 0
M  V30 3045 C 291.669 -0.881529 -5.84793 0
M  V30 3046 H 290.599 0.0455022 -0.752626 0
M  V30 3047 H 293.25 -0.583524 -1.73975 0
M  V30 3048 H 291.632 1.00803 -3.82955 0
M  V30 3049 H 292.806 -1.82248 -4.23229 0
M  V30 3050 H 291.121 -1.50039 -3.88429 0
M  V30 3051 H 293.718 0.911913 -5.26866 0
M  V30 3052 H 294.061 1.75201 -3.77638 0
M  V30 3053 H 294.594 0.0651744 -3.97747 0
M  V30 3054 H 291.333 -1.84057 -6.29129 0
M  V30 3055 H 290.853 -0.153625 -5.99603 0
M  V30 3056 H 292.532 -0.540363 -6.4474 0
M  V30 3057 N 292.664 1.56529 -0.183458 0
M  V30 3058 C 293.611 2.18546 0.742055 0
M  V30 3059 C 294.581 1.12912 1.2182 0
M  V30 3060 O 295.766 1.41115 1.28418 0
M  V30 3061 C 292.906 2.83977 1.96089 0
M  V30 3062 C 292.019 4.04105 1.52719 0
M  V30 3063 C 291.154 4.57427 2.70063 0
M  V30 3064 C 290.193 5.69938 2.23243 0
M  V30 3065 N 289.33 6.17717 3.33722 0
M  V30 3066 H 294.17 2.97284 0.206432 0
M  V30 3067 H 291.707 1.46823 0.0901571 0
M  V30 3068 H 293.665 3.20077 2.67594 0
M  V30 3069 H 292.295 2.07822 2.47002 0
M  V30 3070 H 291.347 3.73745 0.708436 0
M  V30 3071 H 292.659 4.85513 1.1436 0
M  V30 3072 H 291.813 4.95772 3.49708 0
M  V30 3073 H 290.552 3.75101 3.11689 0
M  V30 3074 H 289.557 5.31133 1.42048 0
M  V30 3075 H 290.782 6.54073 1.82661 0
M  V30 3076 H 288.728 5.38317 3.74902 0
M  V30 3077 H 288.645 6.94146 2.99495 0
M  V30 3078 H 289.913 6.60713 4.13616 0
M  V30 3079 N 294.142 -0.090211 1.57342 0
M  V30 3080 C 295.092 -1.11557 1.98844 0
M  V30 3081 C 296.076 -1.35503 0.867624 0
M  V30 3082 O 297.268 -1.36113 1.13148 0
M  V30 3083 C 294.397 -2.43446 2.42051 0
M  V30 3084 C 293.483 -2.22853 3.60828 0
M  V30 3085 N 293.874 -1.72141 4.75606 0
M  V30 3086 C 292.172 -2.53401 3.67021 0
M  V30 3087 C 292.873 -1.65932 5.57531 0
M  V30 3088 N 291.849 -2.11323 5.00843 0
M  V30 3089 H 295.651 -0.716499 2.85032 0
M  V30 3090 H 293.165 -0.297567 1.59651 0
M  V30 3091 H 295.162 -3.17644 2.70014 0
M  V30 3092 H 293.822 -2.84087 1.57241 0
M  V30 3093 H 294.833 -1.41268 4.98261 0
M  V30 3094 H 291.51 -2.97532 2.92884 0
M  V30 3095 H 292.9 -1.27733 6.59647 0
M  V30 3096 N 295.62 -1.53406 -0.361157 0
M  V30 3097 C 296.55 -1.83136 -1.44857 0
M  V30 3098 C 297.531 -0.685174 -1.5569 0
M  V30 3099 O 298.716 -0.93544 -1.70186 0
M  V30 3100 C 295.846 -2.02522 -2.82138 0
M  V30 3101 C 294.8 -3.18302 -2.86126 0
M  V30 3102 C 294.126 -3.22989 -4.26125 0
M  V30 3103 C 295.426 -4.56796 -2.53248 0
M  V30 3104 H 297.12 -2.74201 -1.20226 0
M  V30 3105 H 294.666 -1.31938 -0.576922 0
M  V30 3106 H 296.619 -2.21904 -3.58241 0
M  V30 3107 H 295.343 -1.08172 -3.08166 0
M  V30 3108 H 294.002 -2.98747 -2.12475 0
M  V30 3109 H 293.65 -2.26267 -4.49235 0
M  V30 3110 H 293.35 -4.00781 -4.29708 0
M  V30 3111 H 294.874 -3.44559 -5.04094 0
M  V30 3112 H 296.288 -4.7631 -3.19064 0
M  V30 3113 H 294.685 -5.36862 -2.68141 0
M  V30 3114 H 295.755 -4.61606 -1.48484 0
M  V30 3115 N 297.098 0.621204 -1.44841 0
M  V30 3116 C 298.514 0.94048 -1.28946 0
M  V30 3117 C 298.714 2.00154 -0.23249 0
M  V30 3118 O 297.77 2.49651 0.378237 0
M  V30 3119 C 299.083 1.39433 -2.66419 0
M  V30 3120 C 300.631 1.50927 -2.74208 0
M  V30 3121 C 301.106 1.99692 -4.12174 0
M  V30 3122 N 302.597 2.06947 -4.144 0
M  V30 3123 C 303.332 2.45871 -5.1801 0
M  V30 3124 N 302.828 2.83862 -6.31977 0
M  V30 3125 N 304.621 2.46092 -5.05366 0
M  V30 3126 H 296.772 -0.0803548 -2.12248 0
M  V30 3127 H 299.035 0.0266913 -0.947624 0
M  V30 3128 H 298.741 0.688925 -3.44887 0
M  V30 3129 H 298.615 2.36347 -2.93973 0
M  V30 3130 H 301.002 2.20561 -1.96053 0
M  V30 3131 H 301.083 0.523627 -2.50383 0
M  V30 3132 H 300.727 1.30649 -4.90809 0
M  V30 3133 H 300.657 2.99146 -4.33381 0
M  V30 3134 H 303.148 1.80232 -3.32152 0
M  V30 3135 H 303.461 3.12405 -7.0684 0
M  V30 3136 H 301.806 2.8159 -6.35399 0
M  V30 3137 H 304.997 2.1581 -4.15384 0
M  V30 3138 H 305.17 2.76102 -5.86235 0
M  V30 3139 N 298.576 1.31904 0.862503 0
M  V30 3140 C 299.822 1.22197 1.61851 0
M  V30 3141 C 300.155 -0.217641 1.92977 0
M  V30 3142 O 299.43 -1.15264 1.56666 0
M  V30 3143 C 299.713 2.07378 2.94391 0
M  V30 3144 C 299.566 3.59678 2.70096 0
M  V30 3145 C 300.885 1.92891 3.95577 0
M  V30 3146 H 298.004 0.445255 0.587296 0
M  V30 3147 H 300.646 1.6177 0.99651 0
M  V30 3148 H 298.796 1.73758 3.47477 0
M  V30 3149 H 300.468 4.03472 2.23625 0
M  V30 3150 H 298.711 3.82735 2.04197 0
M  V30 3151 H 299.382 4.14595 3.64438 0
M  V30 3152 H 301.858 2.22327 3.51724 0
M  V30 3153 H 300.734 2.54781 4.86187 0
M  V30 3154 H 300.995 0.894315 4.3296 0
M  V30 3155 N 300.054 -1.07777 1.14986 0
M  V30 3156 C 301.301 -1.8029 0.922056 0
M  V30 3157 C 301.629 -1.86531 -0.55105 0
M  V30 3158 O 300.884 -1.34189 -1.42449 0
M  V30 3159 C 301.183 -3.25495 1.47608 0
M  V30 3160 C 300.849 -3.39361 2.96893 0
M  V30 3161 C 299.511 -3.42852 3.37647 0
M  V30 3162 C 301.863 -3.42512 3.92854 0
M  V30 3163 C 299.191 -3.47094 4.73015 0
M  V30 3164 C 301.543 -3.4829 5.28088 0
M  V30 3165 C 300.207 -3.50058 5.68345 0
M  V30 3166 H 299.477 -0.659727 0.337404 0
M  V30 3167 H 302.124 -1.26854 1.43459 0
M  V30 3168 H 300.429 -3.81683 0.88463 0
M  V30 3169 H 302.126 -3.80168 1.27568 0
M  V30 3170 H 298.716 -3.37339 2.64387 0
M  V30 3171 H 302.9 -3.3904 3.62444 0
M  V30 3172 H 298.156 -3.46758 5.03556 0
M  V30 3173 H 302.33 -3.49675 6.02246 0
M  V30 3174 H 299.957 -3.53097 6.73221 0
M  V30 3175 N 301.532 -0.945985 -1.26051 0
M  V30 3176 C 302.779 -0.596118 -1.93527 0
M  V30 3177 C 303.107 0.865559 -1.74179 0
M  V30 3178 O 302.362 1.63524 -1.0751 0
M  V30 3179 C 302.661 -0.890475 -3.46129 0
M  V30 3180 C 302.327 -2.3368 -3.85622 0
M  V30 3181 C 300.989 -2.73216 -3.96114 0
M  V30 3182 C 303.341 -3.27648 -4.05334 0
M  V30 3183 C 300.669 -4.05806 -4.2372 0
M  V30 3184 C 303.021 -4.59841 -4.3443 0
M  V30 3185 C 301.685 -4.99185 -4.43137 0
M  V30 3186 H 300.955 -0.218135 -0.708165 0
M  V30 3187 H 303.602 -1.1934 -1.49768 0
M  V30 3188 H 301.907 -0.210711 -3.91233 0
M  V30 3189 H 303.604 -0.598478 -3.96509 0
M  V30 3190 H 300.194 -2.02015 -3.78005 0
M  V30 3191 H 304.378 -2.98298 -3.96651 0
M  V30 3192 H 299.634 -4.35945 -4.28675 0
M  V30 3193 H 303.808 -5.32641 -4.48628 0
M  V30 3194 H 301.435 -6.01952 -4.64282 0
M  V30 3195 N 303.011 1.40521 -0.713556 0
M  V30 3196 C 304.257 2.01221 -0.252564 0
M  V30 3197 C 304.59 1.56444 1.1506 0
M  V30 3198 O 303.865 0.783597 1.78017 0
M  V30 3199 C 304.148 3.58582 -0.330332 0
M  V30 3200 C 304.001 4.13437 -1.77173 0
M  V30 3201 C 305.32 4.39079 0.299641 0
M  V30 3202 H 302.439 0.731077 -0.0932471 0
M  V30 3203 H 305.081 1.67026 -0.905673 0
M  V30 3204 H 303.231 3.87844 0.225737 0
M  V30 3205 H 304.903 3.9498 -2.38303 0
M  V30 3206 H 303.146 3.67801 -2.3001 0
M  V30 3207 H 303.817 5.22597 -1.77755 0
M  V30 3208 H 306.293 4.15735 -0.174139 0
M  V30 3209 H 305.169 5.4848 0.214771 0
M  V30 3210 H 305.43 4.19915 1.38288 0
M  V30 3211 N 304.489 0.459591 1.5075 0
M  V30 3212 C 305.717 -0.0973749 2.06671 0
M  V30 3213 C 306.132 -1.34524 1.32472 0
M  V30 3214 O 305.489 -1.7827 0.390634 0
M  V30 3215 C 305.54 -0.39714 3.59312 0
M  V30 3216 O 305.261 0.801214 4.30711 0
M  V30 3217 C 306.762 -1.00234 4.31819 0
M  V30 3218 H 303.982 0.00195854 0.670997 0
M  V30 3219 H 306.526 0.645072 1.94059 0
M  V30 3220 H 304.681 -1.08951 3.71764 0
M  V30 3221 H 305.095 0.538857 5.21725 0
M  V30 3222 H 306.569 -1.16193 5.39632 0
M  V30 3223 H 307.046 -1.98939 3.91561 0
M  V30 3224 H 307.652 -0.348699 4.23868 0
M  V30 3225 N 305.967 -1.56429 0.191757 0
M  V30 3226 C 306.93 -2.17707 -0.716688 0
M  V30 3227 C 307.93 -1.13061 -1.14341 0
M  V30 3228 O 309.12 -1.38464 -1.05704 0
M  V30 3229 C 306.252 -2.77644 -1.97804 0
M  V30 3230 H 307.445 -2.99342 -0.1829 0
M  V30 3231 H 304.998 -1.56193 -0.0578566 0
M  V30 3232 H 305.733 -1.99799 -2.55443 0
M  V30 3233 H 305.518 -3.54246 -1.68083 0
M  V30 3234 H 307.008 -3.24708 -2.62592 0
M  V30 3235 N 307.445 0.0818655 -1.57387 0
M  V30 3236 C 308.408 1.08265 -2.02018 0
M  V30 3237 C 309.408 1.32183 -0.915664 0
M  V30 3238 O 310.598 1.28073 -1.18081 0
M  V30 3239 C 307.73 2.42871 -2.39221 0
M  V30 3240 H 308.923 0.698204 -2.91659 0
M  V30 3241 H 306.476 0.327303 -1.52835 0
M  V30 3242 H 307.211 2.86167 -1.52575 0
M  V30 3243 H 306.996 2.26855 -3.19811 0
M  V30 3244 H 308.486 3.14826 -2.74362 0
M  V30 3245 N 308.923 1.53595 0.353017 0
M  V30 3246 C 310.169 1.71581 1.09232 0
M  V30 3247 C 310.524 0.468328 1.86613 0
M  V30 3248 O 309.817 -0.538911 1.83865 0
M  V30 3249 C 310.011 2.91313 2.07054 0
M  V30 3250 C 309.84 4.27585 1.39287 0
M  V30 3251 C 308.61 4.92233 1.1417 0
M  V30 3252 C 310.808 5.07656 0.824005 0
M  V30 3253 N 308.79 6.124 0.428841 0
M  V30 3254 C 310.161 6.19531 0.241195 0
M  V30 3255 C 312.216 4.92609 0.723922 0
M  V30 3256 C 310.919 7.18002 -0.431952 0
M  V30 3257 C 312.945 5.91365 0.0645334 0
M  V30 3258 C 312.307 7.02571 -0.507347 0
M  V30 3259 H 308.406 0.680987 0.384422 0
M  V30 3260 H 310.99 1.91013 0.377096 0
M  V30 3261 H 309.161 2.73398 2.75877 0
M  V30 3262 H 310.893 2.98062 2.73753 0
M  V30 3263 H 307.648 4.51612 1.42631 0
M  V30 3264 H 308.072 6.76944 0.0874131 0
M  V30 3265 H 312.714 4.06808 1.15181 0
M  V30 3266 H 310.432 8.03384 -0.871758 0
M  V30 3267 H 314.018 5.81799 -0.0121469 0
M  V30 3268 H 312.898 7.77675 -1.0095 0
M  V30 3269 N 310.401 -0.613514 1.45168 0
M  V30 3270 C 311.626 -1.40437 1.52618 0
M  V30 3271 C 312.051 -1.87438 0.157707 0
M  V30 3272 O 311.409 -1.59791 -0.856537 0
M  V30 3273 C 311.457 -2.58894 2.51011 0
M  V30 3274 O 310.561 -3.59326 2.02382 0
M  V30 3275 H 309.902 -0.419506 0.514695 0
M  V30 3276 H 312.432 -0.747215 1.90467 0
M  V30 3277 H 312.442 -3.06214 2.69624 0
M  V30 3278 H 311.117 -2.24032 3.50403 0
M  V30 3279 H 309.694 -3.18695 1.93618 0
M  V30 3280 N 311.879 -1.3236 -0.855495 0
M  V30 3281 C 313.128 -1.22226 -1.60448 0
M  V30 3282 C 313.441 0.214733 -1.94418 0
M  V30 3283 O 314.647 0.437917 -2.67945 0
M  V30 3284 C 313.103 -2.14063 -2.89318 0
M  V30 3285 C 312.711 -3.62839 -2.62777 0
M  V30 3286 C 314.455 -2.12764 -3.67331 0
M  V30 3287 C 312.362 -4.4664 -3.87643 0
M  V30 3288 H 311.292 -0.453904 -0.602069 0
M  V30 3289 H 313.943 -1.57314 -0.944698 0
M  V30 3290 H 312.325 -1.71889 -3.5675 0
M  V30 3291 H 313.499 -4.1335 -2.03662 0
M  V30 3292 H 311.814 -3.66261 -1.98096 0
M  V30 3293 H 314.411 -2.72611 -4.59987 0
M  V30 3294 H 314.754 -1.11841 -4.00995 0
M  V30 3295 H 315.287 -2.53214 -3.06802 0
M  V30 3296 H 312.026 -5.48373 -3.5912 0
M  V30 3297 H 311.546 -4.0088 -4.46156 0
M  V30 3298 H 313.225 -4.59597 -4.55389 0
M  V30 3299 N 313.357 1.07166 -1.15556 0
M  V30 3300 C 314.604 1.79798 -0.931604 0
M  V30 3301 C 314.932 1.8682 0.54115 0
M  V30 3302 O 314.187 1.34942 1.41736 0
M  V30 3303 C 314.486 3.24707 -1.49332 0
M  V30 3304 C 314.152 3.37781 -2.98688 0
M  V30 3305 C 312.814 3.41057 -3.39461 0
M  V30 3306 C 315.166 3.40424 -3.94665 0
M  V30 3307 C 312.494 3.4458 -4.74849 0
M  V30 3308 C 314.846 3.45485 -5.29927 0
M  V30 3309 C 313.51 3.47039 -5.70193 0
M  V30 3310 H 312.78 0.657928 -0.340898 0
M  V30 3311 H 315.427 1.26091 -1.44129 0
M  V30 3312 H 313.732 3.81208 -0.904859 0
M  V30 3313 H 315.429 3.79486 -1.29582 0
M  V30 3314 H 312.019 3.35932 -2.66172 0
M  V30 3315 H 316.203 3.37113 -3.64237 0
M  V30 3316 H 311.459 3.44083 -5.05388 0
M  V30 3317 H 315.633 3.46476 -6.04092 0
M  V30 3318 H 313.26 3.49522 -6.75084 0
M  V30 3319 N 314.835 0.952656 1.25548 0
M  V30 3320 C 315.798 0.475794 2.24207 0
M  V30 3321 C 316.798 -0.419428 1.55234 0
M  V30 3322 O 317.988 -0.216994 1.72843 0
M  V30 3323 C 315.12 -0.312814 3.39462 0
M  V30 3324 H 316.313 1.34779 2.67908 0
M  V30 3325 H 313.866 0.735739 1.37901 0
M  V30 3326 H 314.601 -1.20257 3.01179 0
M  V30 3327 H 314.386 0.329404 3.90714 0
M  V30 3328 H 315.876 -0.635986 4.12729 0
M  V30 3329 N 316.313 -1.40141 0.720998 0
M  V30 3330 C 317.543 -2.04798 0.27226 0
M  V30 3331 C 317.951 -1.54442 -1.09289 0
M  V30 3332 O 317.294 -0.698342 -1.69908 0
M  V30 3333 C 317.356 -3.59048 0.18027 0
M  V30 3334 C 317.02 -4.32317 1.48159 0
M  V30 3335 C 318.017 -4.59902 2.42458 0
M  V30 3336 C 315.702 -4.71125 1.74202 0
M  V30 3337 C 317.696 -5.25288 3.61042 0
M  V30 3338 C 315.383 -5.36242 2.93066 0
M  V30 3339 C 316.381 -5.63254 3.86308 0
M  V30 3340 O 316.069 -6.27024 5.03086 0
M  V30 3341 H 315.801 -0.665419 0.119139 0
M  V30 3342 H 318.355 -1.80436 0.981432 0
M  V30 3343 H 316.585 -3.82251 -0.58489 0
M  V30 3344 H 318.274 -4.05221 -0.234618 0
M  V30 3345 H 319.04 -4.30379 2.23604 0
M  V30 3346 H 314.919 -4.49466 1.02477 0
M  V30 3347 H 318.463 -5.46289 4.33837 0
M  V30 3348 H 314.36 -5.65185 3.11826 0
M  V30 3349 H 315.128 -6.4552 5.03235 0
M  V30 3350 N 317.792 -0.46758 -1.50504 0
M  V30 3351 C 319.02 0.0864133 -2.06719 0
M  V30 3352 C 319.435 1.33819 -1.33184 0
M  V30 3353 O 318.792 1.78061 -0.400083 0
M  V30 3354 C 318.843 0.378079 -3.59517 0
M  V30 3355 O 318.564 -0.824044 -4.3028 0
M  V30 3356 C 320.065 0.979426 -4.32345 0
M  V30 3357 H 317.285 -0.00551697 -0.670977 0
M  V30 3358 H 319.829 -0.655354 -1.93715 0
M  V30 3359 H 317.984 1.06977 -3.72337 0
M  V30 3360 H 318.398 -0.566518 -5.21432 0
M  V30 3361 H 319.872 1.1333 -5.40241 0
M  V30 3362 H 320.349 1.9686 -3.9261 0
M  V30 3363 H 320.955 0.326216 -4.24047 0
M  V30 3364 N 319.27 1.56325 -0.20005 0
M  V30 3365 C 320.516 1.98772 0.431408 0
M  V30 3366 C 320.871 1.0849 1.58895 0
M  V30 3367 O 320.164 0.130331 1.91156 0
M  V30 3368 C 320.358 3.4495 0.935103 0
M  V30 3369 C 320.187 4.49371 -0.172096 0
M  V30 3370 C 318.957 5.0134 -0.631377 0
M  V30 3371 C 321.155 5.04822 -0.982806 0
M  V30 3372 N 319.137 5.89433 -1.71588 0
M  V30 3373 C 320.508 5.89632 -1.91661 0
M  V30 3374 C 322.563 4.87242 -1.02467 0
M  V30 3375 C 321.266 6.58741 -2.88881 0
M  V30 3376 C 323.292 5.57094 -1.98494 0
M  V30 3377 C 322.654 6.41655 -2.90617 0
M  V30 3378 H 318.753 0.771922 0.125144 0
M  V30 3379 H 321.337 1.92266 -0.306883 0
M  V30 3380 H 319.508 3.51946 1.64282 0
M  V30 3381 H 321.24 3.74354 1.53758 0
M  V30 3382 H 317.995 4.73071 -0.223827 0
M  V30 3383 H 318.419 6.38182 -2.25948 0
M  V30 3384 H 323.061 4.21538 -0.326408 0
M  V30 3385 H 320.779 7.23641 -3.5968 0
M  V30 3386 H 324.365 5.45466 -2.0238 0
M  V30 3387 H 323.245 6.94755 -3.63711 0
M  V30 3388 N 320.748 -0.0735177 1.57428 0
M  V30 3389 C 321.678 -1.0879 2.06608 0
M  V30 3390 C 322.659 -1.40473 0.959237 0
M  V30 3391 O 323.844 -1.5013 1.23185 0
M  V30 3392 C 320.974 -2.40183 2.50857 0
M  V30 3393 C 319.928 -2.22858 3.65402 0
M  V30 3394 C 319.254 -3.59619 3.957 0
M  V30 3395 C 320.554 -1.65123 4.95511 0
M  V30 3396 H 322.248 -0.678673 2.91607 0
M  V30 3397 H 319.794 -0.325013 1.40284 0
M  V30 3398 H 321.747 -3.11437 2.83874 0
M  V30 3399 H 320.471 -2.83083 1.62885 0
M  V30 3400 H 319.13 -1.54045 3.32664 0
M  V30 3401 H 318.778 -4.00086 3.04861 0
M  V30 3402 H 318.478 -3.48866 4.72828 0
M  V30 3403 H 320.002 -4.32306 4.31212 0
M  V30 3404 H 321.416 -2.26241 5.26771 0
M  V30 3405 H 319.813 -1.65071 5.7695 0
M  V30 3406 H 320.883 -0.612559 4.81015 0
M  V30 3407 N 322.226 -1.5378 -0.344866 0
M  V30 3408 C 323.456 -1.74646 -1.10374 0
M  V30 3409 C 323.864 -0.48491 -1.8288 0
M  V30 3410 O 323.207 0.553062 -1.75177 0
M  V30 3411 C 323.269 -2.87145 -2.16306 0
M  V30 3412 C 322.933 -4.26795 -1.63386 0
M  V30 3413 C 323.93 -5.08412 -1.08688 0
M  V30 3414 C 321.615 -4.73276 -1.68272 0
M  V30 3415 C 323.609 -6.34609 -0.595792 0
M  V30 3416 C 321.296 -5.99446 -1.18776 0
M  V30 3417 C 322.294 -6.79946 -0.645215 0
M  V30 3418 O 321.982 -8.03745 -0.157626 0
M  V30 3419 H 321.714 -0.587112 -0.335075 0
M  V30 3420 H 324.268 -2.01403 -0.403252 0
M  V30 3421 H 322.498 -2.55909 -2.89909 0
M  V30 3422 H 324.187 -2.95992 -2.77747 0
M  V30 3423 H 324.953 -4.73666 -1.04236 0
M  V30 3424 H 320.832 -4.10677 -2.09442 0
M  V30 3425 H 324.376 -6.97389 -0.171654 0
M  V30 3426 H 320.273 -6.33687 -1.22928 0
M  V30 3427 H 321.041 -8.18038 -0.275037 0
M  V30 3428 N 323.704 0.605807 -1.45491 0
M  V30 3429 C 324.953 1.36086 -1.48874 0
M  V30 3430 C 325.266 1.95131 -0.135333 0
M  V30 3431 O 326.472 2.7146 -0.0468144 0
M  V30 3432 C 324.928 2.46518 -2.62215 0
M  V30 3433 C 324.536 1.93877 -4.03876 0
M  V30 3434 C 326.28 3.23512 -2.74846 0
M  V30 3435 C 324.187 3.01801 -5.08596 0
M  V30 3436 H 323.117 0.511497 -0.553974 0
M  V30 3437 H 325.768 0.649089 -1.71636 0
M  V30 3438 H 324.15 3.20388 -2.32739 0
M  V30 3439 H 325.324 1.26704 -4.43038 0
M  V30 3440 H 323.639 1.29622 -3.95711 0
M  V30 3441 H 326.236 4.04013 -3.50253 0
M  V30 3442 H 326.579 3.74631 -1.81542 0
M  V30 3443 H 327.112 2.56742 -3.03856 0
M  V30 3444 H 323.851 2.55597 -6.03614 0
M  V30 3445 H 323.371 3.67535 -4.74002 0
M  V30 3446 H 325.05 3.66152 -5.33424 0
M  V30 3447 N 325.182 1.32811 0.848464 0
M  V30 3448 C 326.431 1.23075 1.59798 0
M  V30 3449 C 326.744 -0.204419 1.94529 0
M  V30 3450 O 327.95 -0.423701 2.68173 0
M  V30 3451 C 326.406 2.15594 2.88179 0
M  V30 3452 C 326.014 3.64228 2.60849 0
M  V30 3453 C 327.758 2.14709 3.66197 0
M  V30 3454 C 325.665 4.48689 3.85269 0
M  V30 3455 H 324.595 0.457091 0.599653 0
M  V30 3456 H 327.246 1.57813 0.936342 0
M  V30 3457 H 325.628 1.73778 3.55833 0
M  V30 3458 H 326.802 4.14424 2.01467 0
M  V30 3459 H 325.117 3.67306 1.96151 0
M  V30 3460 H 327.714 2.75046 4.58534 0
M  V30 3461 H 328.057 1.13966 4.00397 0
M  V30 3462 H 328.59 2.54837 3.05455 0
M  V30 3463 H 325.329 5.5027 3.56207 0
M  V30 3464 H 324.849 4.03241 4.44024 0
M  V30 3465 H 326.528 4.62006 4.52946 0
M  V30 3466 N 326.66 -1.06551 1.16123 0
M  V30 3467 C 327.59 -2.15935 0.88851 0
M  V30 3468 C 328.571 -1.69306 -0.164135 0
M  V30 3469 O 329.756 -1.94193 -0.0167857 0
M  V30 3470 C 326.886 -3.45149 0.385942 0
M  V30 3471 C 325.84 -4.05271 1.3762 0
M  V30 3472 C 325.166 -5.29664 0.732137 0
M  V30 3473 C 326.466 -4.44355 2.74493 0
M  V30 3474 H 328.16 -2.39006 1.80323 0
M  V30 3475 H 325.706 -1.14866 0.868435 0
M  V30 3476 H 327.659 -4.21004 0.182647 0
M  V30 3477 H 326.383 -3.21689 -0.564274 0
M  V30 3478 H 325.042 -3.3147 1.56599 0
M  V30 3479 H 324.69 -5.02499 -0.224483 0
M  V30 3480 H 324.39 -5.70848 1.39307 0
M  V30 3481 H 325.914 -6.08218 0.538802 0
M  V30 3482 H 327.328 -5.11303 2.59311 0
M  V30 3483 H 325.725 -4.96515 3.37035 0
M  V30 3484 H 326.795 -3.55339 3.29943 0
M  V30 3485 N 328.138 -0.959301 -1.25041 0
M  V30 3486 C 329.363 -0.633507 -1.97488 0
M  V30 3487 C 329.788 0.788555 -1.70773 0
M  V30 3488 O 329.146 1.53394 -0.966431 0
M  V30 3489 C 329.194 -0.904057 -3.49083 0
M  V30 3490 O 328.298 0.0147939 -4.12397 0
M  V30 3491 H 327.639 -0.240368 -0.618966 0
M  V30 3492 H 330.169 -1.28717 -1.59038 0
M  V30 3493 H 330.179 -0.832203 -3.99423 0
M  V30 3494 H 328.854 -1.94048 -3.67856 0
M  V30 3495 H 327.431 -0.109664 -3.72739 0
M  V30 3496 N 329.616 1.39756 -0.72842 0
M  V30 3497 C 330.862 2.00942 -0.273892 0
M  V30 3498 C 331.195 1.57656 1.13394 0
M  V30 3499 O 330.47 0.802434 1.77176 0
M  V30 3500 C 330.753 3.58211 -0.368346 0
M  V30 3501 C 330.606 4.11534 -1.81548 0
M  V30 3502 C 331.925 4.39372 0.253054 0
M  V30 3503 H 329.044 0.730047 -0.100996 0
M  V30 3504 H 331.686 1.66056 -0.923337 0
M  V30 3505 H 329.836 3.88061 0.184588 0
M  V30 3506 H 331.508 3.92431 -2.42478 0
M  V30 3507 H 329.751 3.65341 -2.33898 0
M  V30 3508 H 330.422 5.20682 -1.83288 0
M  V30 3509 H 332.898 4.15527 -0.218224 0
M  V30 3510 H 331.774 5.48677 0.156585 0
M  V30 3511 H 332.035 4.21358 1.33826 0
M  V30 3512 N 331.094 0.475555 1.50254 0
M  V30 3513 C 332.343 -0.0795996 2.01543 0
M  V30 3514 C 332.656 -1.4038 1.36209 0
M  V30 3515 O 333.862 -2.04415 1.7868 0
M  V30 3516 C 332.318 -0.192363 3.59386 0
M  V30 3517 C 331.926 1.12367 4.33679 0
M  V30 3518 C 333.67 -0.699238 4.18701 0
M  V30 3519 C 331.577 0.974453 5.83317 0
M  V30 3520 H 330.507 -0.0335228 0.753254 0
M  V30 3521 H 333.158 0.611128 1.73025 0
M  V30 3522 H 331.54 -0.946974 3.84511 0
M  V30 3523 H 332.714 1.88958 4.20276 0
M  V30 3524 H 331.029 1.562 3.85993 0
M  V30 3525 H 333.626 -0.827978 5.28251 0
M  V30 3526 H 333.969 -1.69171 3.80377 0
M  V30 3527 H 334.502 -0.00188807 3.978 0
M  V30 3528 H 331.241 1.94042 6.26121 0
M  V30 3529 H 330.761 0.248998 5.99283 0
M  V30 3530 H 332.44 0.642867 6.43798 0
M  V30 3531 N 332.573 -1.56217 0.208337 0
M  V30 3532 C 333.798 -2.02782 -0.435222 0
M  V30 3533 C 334.223 -1.08738 -1.53485 0
M  V30 3534 O 333.581 -0.0731855 -1.81152 0
M  V30 3535 C 333.629 -3.47687 -0.956335 0
M  V30 3536 O 332.733 -3.56773 -2.06849 0
M  V30 3537 H 332.074 -0.656403 -0.100158 0
M  V30 3538 H 334.604 -2.02033 0.3231 0
M  V30 3539 H 334.614 -3.87745 -1.26955 0
M  V30 3540 H 333.289 -4.15624 -0.15143 0
M  V30 3541 H 331.866 -3.28597 -1.76292 0
M  V30 3542 N 334.051 0.0651679 -1.57465 0
M  V30 3543 C 335.462 0.616213 -1.76238 0
M  V30 3544 C 335.813 1.7756 -0.834689 0
M  V30 3545 O 334.938 2.1639 -0.0204156 0
M  V30 3546 C 335.533 1.12462 -3.1959 0
M  V30 3547 C 334.092 1.62147 -3.39684 0
M  V30 3548 C 333.239 0.543739 -2.71917 0
M  V30 3549 H 336.19 -0.161022 -1.57881 0
M  V30 3550 H 336.211 1.99324 -3.24114 0
M  V30 3551 H 335.723 0.280592 -3.87084 0
M  V30 3552 H 333.824 2.48854 -2.77313 0
M  V30 3553 H 333.937 1.69385 -4.48158 0
M  V30 3554 H 332.301 0.990352 -2.34657 0
M  V30 3555 H 333.084 -0.290216 -3.42071 0
M  V30 3556 N 335.529 1.53961 0.336706 0
M  V30 3557 C 336.777 1.71197 1.07405 0
M  V30 3558 C 337.098 0.481475 1.88962 0
M  V30 3559 O 336.368 -0.504585 1.8929 0
M  V30 3560 H 334.948 0.631185 0.399517 0
M  V30 3561 H 337.61 1.91232 0.376323 0
M  V30 3562 H 336.706 2.58587 1.74755 0
M  V30 3563 N 337.007 -0.598083 1.45811 0
M  V30 3564 C 338.253 -1.35882 1.50545 0
M  V30 3565 C 338.586 -1.93616 0.150445 0
M  V30 3566 O 337.861 -1.75604 -0.83628 0
M  V30 3567 C 338.144 -2.49966 2.59208 0
M  V30 3568 C 337.997 -1.97367 4.04186 0
M  V30 3569 C 339.316 -3.52068 2.64076 0
M  V30 3570 H 336.435 -0.492717 0.548087 0
M  V30 3571 H 339.077 -0.673319 1.77669 0
M  V30 3572 H 337.227 -3.08443 2.3621 0
M  V30 3573 H 338.899 -1.43466 4.38423 0
M  V30 3574 H 337.142 -1.283 4.14393 0
M  V30 3575 H 337.813 -2.79649 4.75921 0
M  V30 3576 H 340.289 -3.03448 2.84708 0
M  V30 3577 H 339.165 -4.2937 3.41954 0
M  V30 3578 H 339.426 -4.08304 1.69531 0
M  V30 3579 N 338.485 -1.33259 -0.841409 0
M  V30 3580 C 339.731 -1.24757 -1.59886 0
M  V30 3581 C 340.064 0.186913 -1.93298 0
M  V30 3582 O 339.339 1.12757 -1.5848 0
M  V30 3583 C 339.622 -2.12036 -2.91055 0
M  V30 3584 C 339.475 -3.63929 -2.6434 0
M  V30 3585 C 340.794 -1.9916 -3.92458 0
M  V30 3586 H 337.913 -0.454542 -0.580138 0
M  V30 3587 H 340.555 -1.63335 -0.970647 0
M  V30 3588 H 338.705 -1.79265 -3.44669 0
M  V30 3589 H 340.377 -4.06978 -2.17178 0
M  V30 3590 H 338.62 -3.85935 -1.98082 0
M  V30 3591 H 339.291 -4.20341 -3.57796 0
M  V30 3592 H 341.767 -2.27895 -3.48143 0
M  V30 3593 H 340.643 -2.62484 -4.82072 0
M  V30 3594 H 340.904 -0.963082 -4.31482 0
M  V30 3595 N 339.963 1.05934 -1.16686 0
M  V30 3596 C 340.873 2.17014 -0.891183 0
M  V30 3597 C 341.889 1.73453 0.137907 0
M  V30 3598 O 343.065 2.01361 -0.039592 0
M  V30 3599 C 340.13 3.44384 -0.400099 0
M  V30 3600 C 339.191 4.02433 -1.49486 0
M  V30 3601 C 338.424 5.23723 -1.02711 0
M  V30 3602 O 338.647 5.7027 0.121716 0
M  V30 3603 O 337.581 5.7382 -1.81699 0
M  V30 3604 H 341.407 2.43113 -1.82015 0
M  V30 3605 H 338.992 1.15541 -0.947132 0
M  V30 3606 H 340.874 4.21189 -0.133392 0
M  V30 3607 H 339.549 3.19802 0.500817 0
M  V30 3608 H 338.456 3.27102 -1.81535 0
M  V30 3609 H 339.789 4.31317 -2.37121 0
M  V30 3610 N 341.441 0.965919 1.2453 0
M  V30 3611 C 342.687 0.62776 1.92839 0
M  V30 3612 C 343.02 -0.834694 1.75347 0
M  V30 3613 O 342.295 -1.60031 1.10546 0
M  V30 3614 C 342.578 1.00109 3.45905 0
M  V30 3615 C 342.431 2.52011 3.72573 0
M  V30 3616 C 343.75 0.53435 4.36844 0
M  V30 3617 H 340.869 0.229537 0.700344 0
M  V30 3618 H 343.511 1.2046 1.46933 0
M  V30 3619 H 341.661 0.510238 3.85135 0
M  V30 3620 H 343.333 3.08559 3.42912 0
M  V30 3621 H 341.576 2.95287 3.17786 0
M  V30 3622 H 342.247 2.73183 4.79661 0
M  V30 3623 H 344.723 0.955565 4.04979 0
M  V30 3624 H 343.599 0.824152 5.42678 0
M  V30 3625 H 343.86 -0.565589 4.38467 0
M  V30 3626 N 342.919 -1.39368 0.735821 0
M  V30 3627 C 344.165 -2.01272 0.293439 0
M  V30 3628 C 344.52 -1.57344 -1.10728 0
M  V30 3629 O 343.813 -0.792744 -1.74431 0
M  V30 3630 C 344.007 -3.5583 0.334651 0
M  V30 3631 C 343.836 -4.14764 1.73784 0
M  V30 3632 C 342.606 -4.47315 2.35026 0
M  V30 3633 C 344.804 -4.38246 2.69157 0
M  V30 3634 N 342.786 -4.91756 3.6749 0
M  V30 3635 C 344.157 -4.849 3.86357 0
M  V30 3636 C 346.212 -4.20315 2.66908 0
M  V30 3637 C 344.915 -5.15505 5.01645 0
M  V30 3638 C 346.941 -4.52033 3.8134 0
M  V30 3639 C 346.303 -4.98895 4.97276 0
M  V30 3640 H 342.402 -0.766756 0.153652 0
M  V30 3641 H 344.986 -1.69276 0.961967 0
M  V30 3642 H 343.157 -3.87212 -0.303527 0
M  V30 3643 H 344.889 -4.04503 -0.126358 0
M  V30 3644 H 341.644 -4.35143 1.86943 0
M  V30 3645 H 342.068 -5.18333 4.35499 0
M  V30 3646 H 346.71 -3.83287 1.78468 0
M  V30 3647 H 344.428 -5.51437 5.90713 0
M  V30 3648 H 348.014 -4.39781 3.80899 0
M  V30 3649 H 346.894 -5.22973 5.84353 0
M  V30 3650 N 344.397 -0.483516 -1.5 0
M  V30 3651 C 345.307 0.309172 -2.32554 0
M  V30 3652 C 346.323 0.984159 -1.43493 0
M  V30 3653 O 347.499 0.969399 -1.76535 0
M  V30 3654 C 344.564 1.36979 -3.18493 0
M  V30 3655 C 343.625 0.710095 -4.23387 0
M  V30 3656 C 342.858 1.72018 -5.05218 0
M  V30 3657 O 343.081 2.94813 -4.88305 0
M  V30 3658 O 342.015 1.28515 -5.8802 0
M  V30 3659 H 345.841 -0.366064 -3.01486 0
M  V30 3660 H 343.426 -0.24514 -1.47375 0
M  V30 3661 H 345.308 1.98385 -3.71781 0
M  V30 3662 H 343.983 2.02828 -2.52275 0
M  V30 3663 H 342.89 0.0567539 -3.74057 0
M  V30 3664 H 344.223 0.0943557 -4.9211 0
M  V30 3665 N 345.875 1.56104 -0.216619 0
M  V30 3666 C 347.123 1.97781 0.415593 0
M  V30 3667 C 347.444 1.10536 1.60645 0
M  V30 3668 O 346.714 0.181303 1.95059 0
M  V30 3669 H 345.294 0.730415 0.156534 0
M  V30 3670 H 347.956 1.92445 -0.308366 0
M  V30 3671 H 347.052 3.03072 0.74525 0
M  V30 3672 N 347.353 -0.0568162 1.57498 0
M  V30 3673 C 348.283 -1.06593 2.0775 0
M  V30 3674 C 349.264 -1.39448 0.974082 0
M  V30 3675 O 350.449 -1.48815 1.24771 0
M  V30 3676 C 347.579 -2.37509 2.5339 0
M  V30 3677 C 346.533 -2.1897 3.67745 0
M  V30 3678 C 345.859 -3.55402 3.99492 0
M  V30 3679 C 347.159 -1.59859 4.97235 0
M  V30 3680 H 348.853 -0.647706 2.9231 0
M  V30 3681 H 346.399 -0.310116 1.40621 0
M  V30 3682 H 348.352 -3.08409 2.87162 0
M  V30 3683 H 347.076 -2.8134 1.65878 0
M  V30 3684 H 345.735 -1.50508 3.3428 0
M  V30 3685 H 345.383 -3.9683 3.09088 0
M  V30 3686 H 345.083 -3.43831 4.76502 0
M  V30 3687 H 346.607 -4.27708 4.35773 0
M  V30 3688 H 348.021 -2.20642 5.29141 0
M  V30 3689 H 346.418 -1.58942 5.78669 0
M  V30 3690 H 347.488 -0.561506 4.81638 0
M  V30 3691 N 348.832 -1.54138 -0.328536 0
M  V30 3692 C 349.762 -1.86167 -1.40939 0
M  V30 3693 C 350.743 -0.718044 -1.54202 0
M  V30 3694 O 351.928 -0.971328 -1.68163 0
M  V30 3695 C 349.058 -2.08461 -2.77779 0
M  V30 3696 C 348.012 -3.24299 -2.7931 0
M  V30 3697 C 347.338 -3.31955 -4.19178 0
M  V30 3698 C 348.638 -4.62065 -2.43502 0
M  V30 3699 H 350.332 -2.76689 -1.14383 0
M  V30 3700 H 347.878 -1.33132 -0.548806 0
M  V30 3701 H 349.831 -2.29453 -3.53454 0
M  V30 3702 H 348.555 -1.14684 -3.05802 0
M  V30 3703 H 347.214 -3.03187 -2.0609 0
M  V30 3704 H 346.862 -2.35745 -4.44335 0
M  V30 3705 H 346.562 -4.09805 -4.2111 0
M  V30 3706 H 348.086 -3.55175 -4.96672 0
M  V30 3707 H 349.5 -4.8297 -3.08889 0
M  V30 3708 H 347.897 -5.42429 -2.56693 0
M  V30 3709 H 348.967 -4.64652 -1.38659 0
M  V30 3710 N 350.31 0.590341 -1.46126 0
M  V30 3711 C 351.538 1.37504 -1.54597 0
M  V30 3712 C 351.953 1.87897 -0.184447 0
M  V30 3713 O 351.31 1.63192 0.816984 0
M  V30 3714 C 351.361 2.56779 -2.54454 0
M  V30 3715 O 351.082 2.08476 -3.85317 0
M  V30 3716 C 352.583 3.49427 -2.72792 0
M  V30 3717 H 349.803 0.420325 -0.523037 0
M  V30 3718 H 352.347 0.718383 -1.91467 0
M  V30 3719 H 350.502 3.1845 -2.20609 0
M  V30 3720 H 350.916 2.86097 -4.396 0
M  V30 3721 H 352.39 4.29619 -3.466 0
M  V30 3722 H 352.867 4.00876 -1.79429 0
M  V30 3723 H 353.473 2.93598 -3.07702 0
M  V30 3724 N 351.788 1.33704 0.83433 0
M  V30 3725 C 353.035 1.25417 1.58987 0
M  V30 3726 C 353.363 -0.178869 1.93676 0
M  V30 3727 O 352.618 -1.13723 1.59265 0
M  V30 3728 C 352.917 2.07926 2.90692 0
M  V30 3729 C 352.583 3.57066 2.75345 0
M  V30 3730 C 351.245 3.97724 2.70867 0
M  V30 3731 C 353.597 4.51817 2.59828 0
M  V30 3732 C 350.925 5.31344 2.48778 0
M  V30 3733 C 353.277 5.85604 2.39272 0
M  V30 3734 C 351.941 6.25439 2.33199 0
M  V30 3735 H 351.211 0.458934 0.581774 0
M  V30 3736 H 353.858 1.65335 0.966261 0
M  V30 3737 H 352.163 1.608 3.57282 0
M  V30 3738 H 353.86 1.98868 3.48213 0
M  V30 3739 H 350.45 3.24785 2.79665 0
M  V30 3740 H 354.634 4.21311 2.62319 0
M  V30 3741 H 349.89 5.61241 2.42526 0
M  V30 3742 H 354.064 6.58623 2.2625 0
M  V30 3743 H 351.691 7.28914 2.15843 0
M  V30 3744 N 353.266 -1.05314 1.17247 0
M  V30 3745 C 354.513 -1.78293 0.960091 0
M  V30 3746 C 354.841 -1.87658 -0.51136 0
M  V30 3747 O 354.096 -1.3718 -1.39571 0
M  V30 3748 C 354.395 -3.2229 1.54479 0
M  V30 3749 C 354.061 -3.32987 3.04024 0
M  V30 3750 C 352.723 -3.35613 3.44844 0
M  V30 3751 C 355.075 -3.34102 4.00031 0
M  V30 3752 C 352.403 -3.36982 4.8027 0
M  V30 3753 C 354.755 -3.3701 5.35357 0
M  V30 3754 C 353.419 -3.37923 5.75642 0
M  V30 3755 H 352.689 -0.652422 0.351322 0
M  V30 3756 H 355.336 -1.23782 1.46117 0
M  V30 3757 H 353.641 -3.7972 0.965391 0
M  V30 3758 H 355.338 -3.77376 1.35603 0
M  V30 3759 H 351.928 -3.31655 2.71483 0
M  V30 3760 H 356.112 -3.31276 3.69554 0
M  V30 3761 H 351.368 -3.35999 5.10798 0
M  V30 3762 H 355.542 -3.36822 6.09528 0
M  V30 3763 H 353.169 -3.38738 6.80559 0
M  V30 3764 N 354.744 -0.972509 -1.24016 0
M  V30 3765 C 355.991 -0.637034 -1.92219 0
M  V30 3766 C 356.319 0.828418 -1.75976 0
M  V30 3767 O 355.574 1.61206 -1.10955 0
M  V30 3768 C 355.873 -0.963694 -3.44162 0
M  V30 3769 C 355.539 -2.41807 -3.80579 0
M  V30 3770 C 354.201 -2.81556 -3.9023 0
M  V30 3771 C 356.553 -3.36172 -3.98293 0
M  V30 3772 C 353.881 -4.14702 -4.15017 0
M  V30 3773 C 356.233 -4.68952 -4.24578 0
M  V30 3774 C 354.897 -5.08472 -4.32449 0
M  V30 3775 H 354.167 -0.233107 -0.703379 0
M  V30 3776 H 356.814 -1.2249 -1.47202 0
M  V30 3777 H 355.119 -0.29365 -3.90698 0
M  V30 3778 H 356.816 -0.682449 -3.9515 0
M  V30 3779 H 353.406 -2.09988 -3.73635 0
M  V30 3780 H 357.59 -3.06644 -3.90234 0
M  V30 3781 H 352.846 -4.4494 -4.19331 0
M  V30 3782 H 357.02 -5.42037 -4.37229 0
M  V30 3783 H 354.647 -6.11665 -4.51409 0
M  V30 3784 N 356.222 1.38976 -0.743202 0
M  V30 3785 C 357.469 2.00343 -0.294752 0
M  V30 3786 C 357.797 1.58983 1.12047 0
M  V30 3787 O 357.052 0.813809 1.77977 0
M  V30 3788 C 357.351 3.55647 -0.353517 0
M  V30 3789 C 357.017 4.16685 -1.72292 0
M  V30 3790 C 355.679 4.3307 -2.09771 0
M  V30 3791 C 358.031 4.50464 -2.62168 0
M  V30 3792 C 355.359 4.80526 -3.36618 0
M  V30 3793 C 357.711 4.99332 -3.88395 0
M  V30 3794 C 356.375 5.13924 -4.25956 0
M  V30 3795 H 355.645 0.733108 -0.107857 0
M  V30 3796 H 358.292 1.6618 -0.951651 0
M  V30 3797 H 356.597 3.89884 0.386954 0
M  V30 3798 H 358.294 4.00998 0.0117269 0
M  V30 3799 H 354.884 4.04339 -1.42155 0
M  V30 3800 H 359.068 4.37416 -2.3448 0
M  V30 3801 H 354.324 4.90008 -3.65653 0
M  V30 3802 H 358.498 5.2444 -4.58187 0
M  V30 3803 H 356.125 5.50457 -5.2431 0
M  V30 3804 N 357.7 0.491464 1.49741 0
M  V30 3805 C 359.111 0.0413169 1.86654 0
M  V30 3806 C 359.462 -1.36985 1.40462 0
M  V30 3807 O 358.587 -2.01917 0.778354 0
M  V30 3808 C 359.182 0.0682023 3.38731 0
M  V30 3809 C 357.741 -0.32656 3.74981 0
M  V30 3810 C 356.888 0.444888 2.73708 0
M  V30 3811 H 359.839 0.704733 1.42194 0
M  V30 3812 H 359.86 -0.729322 3.73445 0
M  V30 3813 H 359.372 1.09539 3.72321 0
M  V30 3814 H 357.473 -1.35734 3.46997 0
M  V30 3815 H 357.586 -0.013741 4.79098 0
M  V30 3816 H 355.95 -0.104062 2.54487 0
M  V30 3817 H 356.733 1.47197 3.10142 0
M  V30 3818 N 359.178 -1.55987 0.224894 0
M  V30 3819 C 360.427 -1.97566 -0.406273 0
M  V30 3820 C 360.74 -1.11569 -1.6066 0
M  V30 3821 O 361.946 -1.43062 -2.3075 0
M  V30 3822 C 360.402 -3.51474 -0.774207 0
M  V30 3823 C 360.01 -4.46179 0.403496 0
M  V30 3824 C 361.754 -4.01758 -1.37079 0
M  V30 3825 C 359.661 -5.91399 0.0129412 0
M  V30 3826 H 358.591 -0.737777 -0.155565 0
M  V30 3827 H 361.242 -1.80659 0.321635 0
M  V30 3828 H 359.624 -3.63994 -1.55963 0
M  V30 3829 H 360.798 -4.45409 1.18101 0
M  V30 3830 H 359.113 -4.06255 0.913536 0
M  V30 3831 H 361.71 -5.07756 -1.67596 0
M  V30 3832 H 362.053 -3.47805 -2.28773 0
M  V30 3833 H 362.586 -3.92475 -0.648733 0
M  V30 3834 H 359.325 -6.49341 0.896451 0
M  V30 3835 H 358.845 -5.95356 -0.728821 0
M  V30 3836 H 360.524 -6.45683 -0.412582 0
M  V30 3837 N 360.656 0.0484629 -1.57525 0
M  V30 3838 C 361.896 0.748196 -1.90214 0
M  V30 3839 C 362.26 1.73545 -0.821347 0
M  V30 3840 O 363.461 2.48201 -1.03198 0
M  V30 3841 C 361.732 1.41727 -3.28098 0
M  V30 3842 S 363.291 2.14884 -3.82584 0
M  V30 3843 H 360.109 0.248307 -0.666232 0
M  V30 3844 H 362.711 0.00343188 -1.955 0
M  V30 3845 H 361.415 0.685244 -4.04639 0
M  V30 3846 H 360.946 2.20099 -3.26068 0
M  V30 3847 H 362.961 3.41755 -3.59747 0
M  V30 3848 N 362.134 1.5431 0.320358 0
M  V30 3849 C 363.38 1.72924 1.05949 0
M  V30 3850 C 363.713 0.503185 1.87568 0
M  V30 3851 O 362.988 -0.499839 1.87968 0
M  V30 3852 C 363.271 3.00676 1.98156 0
M  V30 3853 C 363.124 4.3354 1.19845 0
M  V30 3854 C 364.443 3.24198 2.9763 0
M  V30 3855 H 361.562 0.629195 0.383774 0
M  V30 3856 H 364.204 1.87008 0.335854 0
M  V30 3857 H 362.354 2.888 2.59859 0
M  V30 3858 H 364.026 4.57305 0.605773 0
M  V30 3859 H 362.269 4.309 0.500784 0
M  V30 3860 H 362.94 5.19156 1.87567 0
M  V30 3861 H 365.416 3.35557 2.4605 0
M  V30 3862 H 364.292 4.14938 3.59329 0
M  V30 3863 H 364.553 2.41577 3.7026 0
M  V30 3864 N 363.613 -0.582584 1.46437 0
M  V30 3865 C 364.859 -1.34278 1.51978 0
M  V30 3866 C 365.192 -1.93446 0.170973 0
M  V30 3867 O 364.467 -1.76481 -0.817608 0
M  V30 3868 C 364.75 -2.47203 2.61845 0
M  V30 3869 C 364.603 -1.93069 4.06257 0
M  V30 3870 C 365.922 -3.49247 2.67795 0
M  V30 3871 H 363.041 -0.486876 0.553282 0
M  V30 3872 H 365.683 -0.654437 1.78374 0
M  V30 3873 H 363.833 -3.0592 2.39469 0
M  V30 3874 H 365.505 -1.38808 4.3992 0
M  V30 3875 H 363.748 -1.23898 4.1573 0
M  V30 3876 H 364.419 -2.74586 4.7886 0
M  V30 3877 H 366.895 -3.00411 2.8791 0
M  V30 3878 H 365.771 -4.25719 3.46489 0
M  V30 3879 H 366.032 -4.06482 1.73852 0
M  V30 3880 N 365.091 -1.34144 -0.827227 0
M  V30 3881 C 366.338 -1.26258 -1.58319 0
M  V30 3882 C 366.666 0.168595 -1.93768 0
M  V30 3883 O 365.921 1.12877 -1.59866 0
M  V30 3884 C 366.22 -2.09464 -2.89585 0
M  V30 3885 C 365.886 -3.58521 -2.73448 0
M  V30 3886 C 364.548 -3.99155 -2.68754 0
M  V30 3887 C 366.9 -4.53189 -2.57428 0
M  V30 3888 C 364.228 -5.32656 -2.45957 0
M  V30 3889 C 366.58 -5.86864 -2.36163 0
M  V30 3890 C 365.244 -6.26667 -2.29879 0
M  V30 3891 H 364.514 -0.462013 -0.579332 0
M  V30 3892 H 367.161 -1.65845 -0.95748 0
M  V30 3893 H 365.466 -1.62692 -3.56425 0
M  V30 3894 H 367.163 -2.00712 -3.47154 0
M  V30 3895 H 363.753 -3.26264 -2.77939 0
M  V30 3896 H 367.937 -4.22696 -2.60081 0
M  V30 3897 H 363.193 -5.62519 -2.39546 0
M  V30 3898 H 367.367 -6.59813 -2.22754 0
M  V30 3899 H 364.994 -7.30049 -2.11975 0
M  V30 3900 N 366.569 1.04691 -1.17803 0
M  V30 3901 C 367.532 2.10724 -0.901545 0
M  V30 3902 C 368.532 1.6042 0.110437 0
M  V30 3903 O 369.722 1.7377 -0.122303 0
M  V30 3904 C 366.854 3.39084 -0.351409 0
M  V30 3905 H 368.047 2.36686 -1.84174 0
M  V30 3906 H 365.6 1.21015 -0.98919 0
M  V30 3907 H 366.335 3.18782 0.59569 0
M  V30 3908 H 366.12 3.76909 -1.08083 0
M  V30 3909 H 367.61 4.17227 -0.176451 0
M  V30 3910 N 368.047 0.979072 1.23499 0
M  V30 3911 C 369.293 0.6578 1.9247 0
M  V30 3912 C 369.648 -0.799746 1.74991 0
M  V30 3913 O 368.941 -1.56922 1.09937 0
M  V30 3914 C 369.135 0.981932 3.43646 0
M  V30 3915 C 368.964 2.46944 3.75831 0
M  V30 3916 C 367.734 3.13119 3.96591 0
M  V30 3917 C 369.932 3.45006 3.81412 0
M  V30 3918 N 367.914 4.51489 4.15969 0
M  V30 3919 C 369.285 4.68778 4.05768 0
M  V30 3920 C 371.34 3.39505 3.64198 0
M  V30 3921 C 370.043 5.87723 4.14697 0
M  V30 3922 C 372.069 4.57814 3.7438 0
M  V30 3923 C 371.431 5.80381 3.99171 0
M  V30 3924 H 367.53 0.291746 0.72554 0
M  V30 3925 H 370.114 1.25626 1.48749 0
M  V30 3926 H 368.285 0.412179 3.86207 0
M  V30 3927 H 370.017 0.618068 3.99953 0
M  V30 3928 H 366.772 2.63619 3.93449 0
M  V30 3929 H 367.196 5.23221 4.29615 0
M  V30 3930 H 371.838 2.45773 3.44029 0
M  V30 3931 H 369.556 6.81874 4.33675 0
M  V30 3932 H 373.142 4.55132 3.62417 0
M  V30 3933 H 372.022 6.70398 4.06861 0
M  V30 3934 N 369.525 -1.3858 0.750561 0
M  V30 3935 C 370.771 -2.00481 0.305825 0
M  V30 3936 C 371.104 -1.5944 -1.10872 0
M  V30 3937 O 370.379 -0.83052 -1.75877 0
M  V30 3938 C 370.662 -3.5758 0.425287 0
M  V30 3939 C 370.515 -4.08594 1.88072 0
M  V30 3940 C 371.834 -4.39719 -0.183122 0
M  V30 3941 H 368.953 -0.728348 0.112598 0
M  V30 3942 H 371.595 -1.64566 0.949638 0
M  V30 3943 H 369.745 -3.88306 -0.122828 0
M  V30 3944 H 371.417 -3.88523 2.48691 0
M  V30 3945 H 369.66 -3.61574 2.39681 0
M  V30 3946 H 370.331 -5.177 1.91548 0
M  V30 3947 H 372.807 -4.15128 0.284303 0
M  V30 3948 H 371.683 -5.48856 -0.0692757 0
M  V30 3949 H 371.944 -4.23434 -1.27106 0
M  V30 3950 N 371.003 -0.499398 -1.49478 0
M  V30 3951 C 371.966 0.268838 -2.27618 0
M  V30 3952 C 372.966 0.895383 -1.33565 0
M  V30 3953 O 374.156 0.760164 -1.56739 0
M  V30 3954 C 371.288 1.38559 -3.11471 0
M  V30 3955 H 372.481 -0.416812 -2.96989 0
M  V30 3956 H 370.034 -0.254313 -1.54217 0
M  V30 3957 H 370.769 2.10544 -2.46661 0
M  V30 3958 H 370.554 0.941797 -3.80621 0
M  V30 3959 H 372.044 1.92678 -3.70493 0
M  V30 3960 N 372.481 1.55866 -0.233164 0
M  V30 3961 C 373.758 1.90471 0.444988 0
M  V30 3962 C 374.138 1.15209 1.7689 0
M  V30 3963 O 373.486 0.265119 2.26957 0
M  V30 3964 C 373.696 3.4333 0.626559 0
M  V30 3965 C 375.044 4.14319 0.92871 0
M  V30 3966 O 376.068 3.48993 0.712926 0
M  V30 3967 O 374.927 5.29846 1.33887 0
M  V30 3968 H 372.021 0.792347 0.236885 0
M  V30 3969 H 374.567 1.67437 -0.276211 0
M  V30 3970 H 373.339 3.90095 -0.306822 0
M  V30 3971 H 372.962 3.72181 1.39881 0
M  V30 3972 N 373.959 -0.0401083 1.57549 0
M  V30 3973 C 375.375 -0.395556 1.54621 0
M  V30 3974 C 375.575 -1.77281 0.957799 0
M  V30 3975 O 374.631 -2.45888 0.574031 0
M  V30 3976 C 375.944 -0.307535 2.99123 0
M  V30 3977 C 377.492 -0.385425 3.10618 0
M  V30 3978 C 377.967 -0.326973 4.56831 0
M  V30 3979 N 379.458 -0.386102 4.61588 0
M  V30 3980 C 380.193 -0.363591 5.72246 0
M  V30 3981 N 379.689 -0.29402 6.92176 0
M  V30 3982 N 381.482 -0.412503 5.60584 0
M  V30 3983 H 373.633 0.861325 1.94152 0
M  V30 3984 H 375.896 0.326445 0.890021 0
M  V30 3985 H 375.602 0.638461 3.45856 0
M  V30 3986 H 375.476 -1.10552 3.60636 0
M  V30 3987 H 377.863 -1.32185 2.63839 0
M  V30 3988 H 377.944 0.44171 2.51957 0
M  V30 3989 H 377.588 0.605738 5.04275 0
M  V30 3990 H 377.518 -1.17207 5.13391 0
M  V30 3991 H 380.009 -0.442832 3.75296 0
M  V30 3992 H 380.322 -0.28164 7.72287 0
M  V30 3993 H 378.667 -0.260232 6.94513 0
M  V30 3994 H 381.858 -0.464769 4.65787 0
M  V30 3995 H 382.031 -0.391492 6.46816 0
M  V30 3996 N 375.437 -1.54477 -0.31217 0
M  V30 3997 C 376.853 -1.45442 -0.657185 0
M  V30 3998 C 377.053 -0.63653 -1.91182 0
M  V30 3999 O 376.109 -0.139815 -2.52113 0
M  V30 4000 C 377.422 -2.89287 -0.82058 0
M  V30 4001 C 378.97 -2.9926 -0.917188 0
M  V30 4002 C 379.445 -4.44279 -1.11267 0
M  V30 4003 N 380.936 -4.4794 -1.17914 0
M  V30 4004 C 381.671 -5.57318 -1.34848 0
M  V30 4005 N 381.167 -6.76642 -1.48752 0
M  V30 4006 N 382.96 -5.44986 -1.37647 0
M  V30 4007 H 375.111 -2.06129 0.512313 0
M  V30 4008 H 377.374 -0.933088 0.167485 0
M  V30 4009 H 377.08 -3.51687 0.0302604 0
M  V30 4010 H 376.954 -3.36061 -1.71298 0
M  V30 4011 H 379.341 -2.36981 -1.75852 0
M  V30 4012 H 379.422 -2.558 -0.00101257 0
M  V30 4013 H 379.066 -5.07149 -0.27614 0
M  V30 4014 H 378.996 -4.85359 -2.04289 0
M  V30 4015 H 381.487 -3.61969 -1.08567 0
M  V30 4016 H 381.8 -7.55758 -1.61397 0
M  V30 4017 H 380.145 -6.79529 -1.45828 0
M  V30 4018 H 383.336 -4.50715 -1.26388 0
M  V30 4019 H 383.509 -6.3028 -1.50501 0
M  V30 4020 N 376.915 0.57481 -1.46744 0
M  V30 4021 C 377.845 1.69337 -1.60771 0
M  V30 4022 C 378.826 1.63825 -0.457736 0
M  V30 4023 O 380.011 1.8172 -0.684947 0
M  V30 4024 C 377.141 3.0798 -1.60517 0
M  V30 4025 C 376.095 3.28327 -2.74564 0
M  V30 4026 C 375.421 4.67578 -2.59373 0
M  V30 4027 C 376.721 3.15398 -4.16319 0
M  V30 4028 H 378.415 1.57853 -2.54407 0
M  V30 4029 H 375.961 0.75799 -1.22436 0
M  V30 4030 H 377.914 3.86061 -1.68923 0
M  V30 4031 H 376.638 3.20381 -0.634305 0
M  V30 4032 H 375.297 2.52649 -2.65639 0
M  V30 4033 H 374.945 4.76755 -1.60353 0
M  V30 4034 H 374.645 4.82144 -3.35873 0
M  V30 4035 H 376.169 5.47817 -2.69682 0
M  V30 4036 H 377.583 3.83315 -4.26313 0
M  V30 4037 H 375.98 3.41482 -4.93468 0
M  V30 4038 H 377.05 2.12372 -4.3592 0
M  V30 4039 N 378.394 1.34581 0.820102 0
M  V30 4040 C 379.324 1.29038 1.94606 0
M  V30 4041 C 380.305 0.1673 1.69275 0
M  V30 4042 O 381.49 0.360112 1.90832 0
M  V30 4043 C 378.62 1.04793 3.31113 0
M  V30 4044 C 377.574 2.13597 3.70891 0
M  V30 4045 C 376.9 1.74537 5.05412 0
M  V30 4046 C 378.2 3.55451 3.8269 0
M  V30 4047 H 379.894 2.23248 1.99501 0
M  V30 4048 H 377.44 1.0747 0.958449 0
M  V30 4049 H 379.393 0.995592 4.0947 0
M  V30 4050 H 378.117 0.0702565 3.26524 0
M  V30 4051 H 376.776 2.17905 2.9481 0
M  V30 4052 H 376.424 0.754226 4.97313 0
M  V30 4053 H 376.124 2.47361 5.32997 0
M  V30 4054 H 377.648 1.70803 5.86224 0
M  V30 4055 H 379.062 3.5354 4.51312 0
M  V30 4056 H 377.459 4.26922 4.21732 0
M  V30 4057 H 378.529 3.92587 2.84611 0
M  V30 4058 N 379.872 -1.04064 1.18357 0
M  V30 4059 C 381.119 -1.77265 0.978947 0
M  V30 4060 C 381.447 -1.88189 -0.491428 0
M  V30 4061 O 380.702 -1.38653 -1.38108 0
M  V30 4062 C 381.001 -3.20634 1.57888 0
M  V30 4063 C 380.667 -3.29743 3.07539 0
M  V30 4064 C 379.329 -3.31937 3.48384 0
M  V30 4065 C 381.681 -3.29841 4.03552 0
M  V30 4066 C 379.009 -3.3187 4.83818 0
M  V30 4067 C 381.361 -3.31313 5.38901 0
M  V30 4068 C 380.025 -3.31799 5.79194 0
M  V30 4069 H 379.295 -0.648659 0.358222 0
M  V30 4070 H 381.942 -1.22225 1.47422 0
M  V30 4071 H 380.247 -3.78675 1.00561 0
M  V30 4072 H 381.944 -3.75917 1.39598 0
M  V30 4073 H 378.534 -3.28757 2.74986 0
M  V30 4074 H 382.718 -3.27337 3.73047 0
M  V30 4075 H 377.974 -3.30562 5.14333 0
M  V30 4076 H 382.148 -3.30338 6.13066 0
M  V30 4077 H 379.775 -3.315 6.84114 0
M  V30 4078 N 381.35 -0.985608 -1.22978 0
M  V30 4079 C 382.58 -0.674603 -1.95276 0
M  V30 4080 C 382.988 0.763483 -1.73111 0
M  V30 4081 O 382.331 1.52601 -1.02268 0
M  V30 4082 C 382.393 -0.891597 -3.48268 0
M  V30 4083 C 382.057 -2.31275 -3.94158 0
M  V30 4084 C 383.054 -3.29179 -4.02415 0
M  V30 4085 C 380.739 -2.64524 -4.27004 0
M  V30 4086 C 382.733 -4.58407 -4.42879 0
M  V30 4087 C 380.42 -3.93974 -4.67149 0
M  V30 4088 C 381.418 -4.90727 -4.75053 0
M  V30 4089 O 381.106 -6.17865 -5.14294 0
M  V30 4090 H 380.838 -0.249251 -0.628371 0
M  V30 4091 H 383.392 -1.32106 -1.5728 0
M  V30 4092 H 381.622 -0.187962 -3.86243 0
M  V30 4093 H 383.311 -0.576957 -4.01779 0
M  V30 4094 H 384.077 -3.04823 -3.77237 0
M  V30 4095 H 379.956 -1.89923 -4.2006 0
M  V30 4096 H 383.5 -5.33926 -4.48964 0
M  V30 4097 H 379.397 -4.18122 -4.91777 0
M  V30 4098 H 380.165 -6.21694 -5.32389 0
M  V30 4099 N 382.828 1.3818 -0.7579 0
M  V30 4100 C 383.775 2.30416 -0.133057 0
M  V30 4101 C 384.745 1.50398 0.704957 0
M  V30 4102 O 385.93 1.79014 0.660192 0
M  V30 4103 C 383.07 3.36834 0.750813 0
M  V30 4104 C 382.183 4.31879 -0.102297 0
M  V30 4105 C 381.318 5.25368 0.784979 0
M  V30 4106 C 380.357 6.12058 -0.0715046 0
M  V30 4107 N 379.494 6.97832 0.772972 0
M  V30 4108 H 384.334 2.83274 -0.925186 0
M  V30 4109 H 381.871 1.39461 -0.467866 0
M  V30 4110 H 383.829 3.97145 1.27794 0
M  V30 4111 H 382.459 2.85374 1.50868 0
M  V30 4112 H 381.511 3.72991 -0.747095 0
M  V30 4113 H 382.823 4.92921 -0.763552 0
M  V30 4114 H 381.977 5.90818 1.37911 0
M  V30 4115 H 380.716 4.64703 1.47996 0
M  V30 4116 H 379.721 5.456 -0.678272 0
M  V30 4117 H 380.946 6.74793 -0.763606 0
M  V30 4118 H 378.892 6.3971 1.45282 0
M  V30 4119 H 378.809 7.55812 0.168709 0
M  V30 4120 H 380.077 7.67687 1.35194 0
M  V30 4121 N 384.306 0.507319 1.49211 0
M  V30 4122 C 385.536 -0.0315292 2.06576 0
M  V30 4123 C 385.944 -1.30791 1.36713 0
M  V30 4124 O 385.287 -1.78324 0.441181 0
M  V30 4125 C 385.349 -0.349104 3.57801 0
M  V30 4126 C 385.013 0.830475 4.49391 0
M  V30 4127 C 386.01 1.72271 4.90529 0
M  V30 4128 C 383.695 1.03107 4.91604 0
M  V30 4129 C 385.689 2.79964 5.72625 0
M  V30 4130 C 383.376 2.11116 5.73475 0
M  V30 4131 C 384.374 2.99379 6.1389 0
M  V30 4132 O 384.062 4.05523 6.94123 0
M  V30 4133 H 383.794 0.0201002 0.675701 0
M  V30 4134 H 386.348 0.705737 1.92895 0
M  V30 4135 H 384.578 -1.14005 3.69513 0
M  V30 4136 H 386.267 -0.827319 3.97379 0
M  V30 4137 H 387.033 1.57958 4.58557 0
M  V30 4138 H 382.912 0.353417 4.59643 0
M  V30 4139 H 386.456 3.48884 6.04091 0
M  V30 4140 H 382.353 2.25421 6.0486 0
M  V30 4141 H 383.121 4.02953 7.1244 0
M  V30 4142 N 385.784 -1.5574 0.241426 0
M  V30 4143 C 387.03 -1.99104 -0.385406 0
M  V30 4144 C 387.363 -1.1293 -1.57988 0
M  V30 4145 O 386.638 -0.191449 -1.93555 0
M  V30 4146 C 386.921 -3.51087 -0.800616 0
M  V30 4147 C 386.774 -4.48028 0.398874 0
M  V30 4148 C 388.093 -4.08015 -1.64959 0
M  V30 4149 H 385.212 -0.723848 -0.138614 0
M  V30 4150 H 387.854 -1.86903 0.341642 0
M  V30 4151 H 386.004 -3.61615 -1.4201 0
M  V30 4152 H 387.676 -4.49487 1.03726 0
M  V30 4153 H 385.919 -4.21077 1.04293 0
M  V30 4154 H 386.59 -5.51962 0.0651056 0
M  V30 4155 H 389.066 -4.00555 -1.12672 0
M  V30 4156 H 387.942 -5.14635 -1.90898 0
M  V30 4157 H 388.203 -3.56131 -2.61961 0
M  V30 4158 N 387.262 0.0317525 -1.57568 0
M  V30 4159 C 388.492 0.733884 -1.93126 0
M  V30 4160 C 388.9 1.69563 -0.839352 0
M  V30 4161 O 388.243 1.82681 0.193175 0
M  V30 4162 C 388.305 1.54798 -3.24465 0
M  V30 4163 C 387.969 0.751304 -4.50782 0
M  V30 4164 C 388.966 0.0527632 -5.19873 0
M  V30 4165 C 386.651 0.706639 -4.97305 0
M  V30 4166 C 388.645 -0.679774 -6.33765 0
M  V30 4167 C 386.332 -0.0296449 -6.11093 0
M  V30 4168 C 387.33 -0.721614 -6.79177 0
M  V30 4169 O 387.018 -1.44595 -7.90789 0
M  V30 4170 H 386.75 0.211459 -0.642076 0
M  V30 4171 H 389.304 -0.00585615 -2.05399 0
M  V30 4172 H 387.534 2.33147 -3.08512 0
M  V30 4173 H 389.223 2.13247 -3.4537 0
M  V30 4174 H 389.989 0.0783188 -4.84937 0
M  V30 4175 H 385.868 1.23474 -4.44157 0
M  V30 4176 H 389.412 -1.22042 -6.86842 0
M  V30 4177 H 385.309 -0.0571331 -6.45475 0
M  V30 4178 H 386.077 -1.35935 -8.07133 0
M  V30 4179 N 388.74 1.54641 0.303973 0
M  V30 4180 C 389.687 1.85386 1.37479 0
M  V30 4181 C 390.657 0.702528 1.50512 0
M  V30 4182 O 391.842 0.950867 1.65418 0
M  V30 4183 C 388.982 2.10413 2.73533 0
M  V30 4184 C 388.095 3.38049 2.68974 0
M  V30 4185 C 387.23 3.52934 3.97002 0
M  V30 4186 C 386.269 4.74373 3.86829 0
M  V30 4187 N 385.406 4.8608 5.06627 0
M  V30 4188 H 390.246 2.76732 1.1056 0
M  V30 4189 H 387.783 1.37034 0.534805 0
M  V30 4190 H 389.741 2.22919 3.52652 0
M  V30 4191 H 388.371 1.22338 2.98719 0
M  V30 4192 H 387.423 3.3418 1.81736 0
M  V30 4193 H 388.735 4.27288 2.57346 0
M  V30 4194 H 387.889 3.65088 4.84557 0
M  V30 4195 H 386.628 2.61824 4.1146 0
M  V30 4196 H 385.633 4.62255 2.97658 0
M  V30 4197 H 386.858 5.66888 3.73918 0
M  V30 4198 H 384.804 3.97891 5.21554 0
M  V30 4199 H 384.721 5.69315 4.9741 0
M  V30 4200 H 385.989 5.02587 5.95841 0
M  V30 4201 N 390.218 -0.567019 1.47046 0
M  V30 4202 C 391.634 -0.891975 1.32348 0
M  V30 4203 C 391.834 -1.99154 0.306616 0
M  V30 4204 O 390.89 -2.50883 -0.28532 0
M  V30 4205 C 392.203 -1.29449 2.7141 0
M  V30 4206 C 393.751 -1.40646 2.79621 0
M  V30 4207 C 394.226 -1.84257 4.19301 0
M  V30 4208 N 395.717 -1.91424 4.21795 0
M  V30 4209 C 396.452 -2.26476 5.26779 0
M  V30 4210 N 395.948 -2.60211 6.42077 0
M  V30 4211 N 397.741 -2.27166 5.14152 0
M  V30 4212 H 389.892 0.159074 2.11803 0
M  V30 4213 H 392.155 0.00849752 0.947962 0
M  V30 4214 H 391.861 -0.560448 3.47206 0
M  V30 4215 H 391.735 -2.25273 3.02542 0
M  V30 4216 H 394.122 -2.13133 2.04104 0
M  V30 4217 H 394.203 -0.430339 2.52154 0
M  V30 4218 H 393.847 -1.12343 4.95319 0
M  V30 4219 H 393.777 -2.82855 4.44185 0
M  V30 4220 H 396.268 -1.6778 3.38612 0
M  V30 4221 H 396.581 -2.85956 7.17948 0
M  V30 4222 H 394.926 -2.57813 6.45413 0
M  V30 4223 H 398.117 -2.00244 4.23107 0
M  V30 4224 H 398.29 -2.54154 5.96079 0
M  V30 4225 N 391.696 -1.35014 -0.812953 0
M  V30 4226 C 392.926 -1.30841 -1.59888 0
M  V30 4227 C 393.334 0.117576 -1.88834 0
M  V30 4228 O 392.677 1.07807 -1.48739 0
M  V30 4229 C 392.739 -2.0412 -2.95931 0
M  V30 4230 C 392.403 -3.53336 -2.89832 0
M  V30 4231 C 393.4 -4.48052 -2.63714 0
M  V30 4232 C 391.085 -3.95894 -3.0915 0
M  V30 4233 C 393.079 -5.833 -2.56982 0
M  V30 4234 C 390.766 -5.31239 -3.0204 0
M  V30 4235 C 391.764 -6.24754 -2.75991 0
M  V30 4236 O 391.452 -7.57617 -2.68833 0
M  V30 4237 H 391.184 -0.451215 -0.50337 0
M  V30 4238 H 393.738 -1.78354 -1.01877 0
M  V30 4239 H 391.968 -1.51235 -3.559 0
M  V30 4240 H 393.657 -1.93107 -3.57022 0
M  V30 4241 H 394.423 -4.16492 -2.48515 0
M  V30 4242 H 390.302 -3.23495 -3.28438 0
M  V30 4243 H 393.846 -6.56263 -2.36569 0
M  V30 4244 H 389.743 -5.62415 -3.16796 0
M  V30 4245 H 390.511 -7.67469 -2.84487 0
M  V30 4246 N 393.175 1.03435 -1.18907 0
M  V30 4247 C 394.591 1.28973 -0.940111 0
M  V30 4248 C 394.791 1.97676 0.390691 0
M  V30 4249 O 393.847 2.26127 1.12352 0
M  V30 4250 C 395.16 2.14221 -2.11021 0
M  V30 4251 C 396.708 2.27547 -2.14922 0
M  V30 4252 C 397.183 3.16164 -3.31367 0
M  V30 4253 N 398.674 3.23752 -3.31269 0
M  V30 4254 C 399.409 3.92495 -4.18014 0
M  V30 4255 N 398.905 4.63515 -5.14904 0
M  V30 4256 N 400.698 3.88838 -4.05908 0
M  V30 4257 H 392.849 0.57252 -2.04538 0
M  V30 4258 H 395.112 0.315184 -0.894071 0
M  V30 4259 H 394.818 1.71054 -3.073 0
M  V30 4260 H 394.692 3.14919 -2.0762 0
M  V30 4261 H 397.079 2.69947 -1.19217 0
M  V30 4262 H 397.16 1.26418 -2.22378 0
M  V30 4263 H 396.804 2.74474 -4.27348 0
M  V30 4264 H 396.734 4.17339 -3.21148 0
M  V30 4265 H 399.225 2.73167 -2.61129 0
M  V30 4266 H 399.538 5.13583 -5.77453 0
M  V30 4267 H 397.883 4.62398 -5.18857 0
M  V30 4268 H 401.074 3.32491 -3.29495 0
M  V30 4269 H 401.247 4.4214 -4.73726 0
M  V30 4270 N 394.653 0.992116 1.22453 0
M  V30 4271 C 395.616 0.546883 2.2258 0
M  V30 4272 C 396.616 -0.369829 1.56489 0
M  V30 4273 O 397.806 -0.161896 1.73446 0
M  V30 4274 C 394.938 -0.204659 3.40285 0
M  V30 4275 H 396.131 1.43234 2.63484 0
M  V30 4276 H 393.684 0.779239 1.3549 0
M  V30 4277 H 394.419 -1.10614 3.04853 0
M  V30 4278 H 394.204 0.45354 3.89468 0
M  V30 4279 H 395.694 -0.504358 4.14543 0
M  V30 4280 N 396.131 -1.37776 0.765217 0
M  V30 4281 C 397.379 -1.99454 0.325943 0
M  V30 4282 C 397.7 -1.61049 -1.09947 0
M  V30 4283 O 396.97 -0.872821 -1.75381 0
M  V30 4284 H 395.55 -0.737697 0.117525 0
M  V30 4285 H 398.212 -1.68359 0.981895 0
M  V30 4286 H 397.308 -3.09547 0.398353 0
M  V30 4287 N 397.609 -0.515225 -1.4894 0
M  V30 4288 C 398.556 0.255567 -2.29381 0
M  V30 4289 C 399.526 0.947387 -1.36432 0
M  V30 4290 O 400.711 0.951288 -1.65394 0
M  V30 4291 C 397.851 1.30551 -3.19453 0
M  V30 4292 C 396.964 0.624029 -4.27469 0
M  V30 4293 C 396.099 1.65563 -5.0474 0
M  V30 4294 C 395.138 0.956802 -6.04576 0
M  V30 4295 N 394.275 1.93326 -6.74959 0
M  V30 4296 H 399.115 -0.436607 -2.94784 0
M  V30 4297 H 396.652 -0.227154 -1.45336 0
M  V30 4298 H 398.61 1.92639 -3.70062 0
M  V30 4299 H 397.24 1.96626 -2.56004 0
M  V30 4300 H 396.292 -0.110459 -3.8024 0
M  V30 4301 H 397.604 0.0746092 -4.98744 0
M  V30 4302 H 396.758 2.35119 -5.59289 0
M  V30 4303 H 395.497 2.23893 -4.3327 0
M  V30 4304 H 394.502 0.247097 -5.49244 0
M  V30 4305 H 395.727 0.379814 -6.78037 0
M  V30 4306 H 393.673 2.50591 -6.06251 0
M  V30 4307 H 393.59 1.43489 -7.42258 0
M  V30 4308 H 394.858 2.62126 -7.34105 0
M  V30 4309 N 399.087 1.5561 -0.249682 0
M  V30 4310 C 400.019 2.18834 0.681496 0
M  V30 4311 C 401.032 1.16546 1.1367 0
M  V30 4312 O 402.221 1.43397 1.06299 0
M  V30 4313 C 399.321 2.77992 1.9384 0
M  V30 4314 C 398.494 4.05725 1.63419 0
M  V30 4315 C 397.553 4.49174 2.74096 0
M  V30 4316 O 396.579 5.15492 2.41364 0
M  V30 4317 N 397.781 4.17191 4.03649 0
M  V30 4318 H 400.546 2.9937 0.140514 0
M  V30 4319 H 398.107 1.6175 -0.0697541 0
M  V30 4320 H 400.099 3.04015 2.67127 0
M  V30 4321 H 398.669 2.01596 2.38909 0
M  V30 4322 H 397.889 3.87261 0.736358 0
M  V30 4323 H 399.177 4.88999 1.40562 0
M  V30 4324 H 398.575 3.63955 4.33074 0
M  V30 4325 H 397.132 4.48043 4.73393 0
M  V30 4326 N 400.565 -0.0233959 1.57583 0
M  V30 4327 C 401.981 -0.379134 1.55031 0
M  V30 4328 C 402.181 -1.76255 0.976548 0
M  V30 4329 O 401.237 -2.45266 0.600078 0
M  V30 4330 C 402.55 -0.275792 2.99433 0
M  V30 4331 C 404.098 -0.352458 3.11009 0
M  V30 4332 C 404.573 -0.278501 4.57152 0
M  V30 4333 N 406.064 -0.337123 4.61972 0
M  V30 4334 C 406.799 -0.302876 5.726 0
M  V30 4335 N 406.295 -0.220589 6.92449 0
M  V30 4336 N 408.088 -0.353023 5.6099 0
M  V30 4337 H 400.239 0.881869 1.93227 0
M  V30 4338 H 402.502 0.335867 0.886509 0
M  V30 4339 H 402.208 0.675108 3.4516 0
M  V30 4340 H 402.082 -1.06721 3.61788 0
M  V30 4341 H 404.469 -1.29379 2.65226 0
M  V30 4342 H 404.55 0.468409 2.51475 0
M  V30 4343 H 404.194 0.659189 5.03604 0
M  V30 4344 H 404.124 -1.11755 5.14605 0
M  V30 4345 H 406.615 -0.403002 3.75745 0
M  V30 4346 H 406.928 -0.199713 7.72542 0
M  V30 4347 H 405.273 -0.186555 6.9475 0
M  V30 4348 H 408.464 -0.415339 4.66254 0
M  V30 4349 H 408.637 -0.322866 6.47195 0
M  V30 4350 N 402.043 -1.548 -0.295768 0
M  V30 4351 C 403.291 -1.73985 -1.02828 0
M  V30 4352 C 403.612 -0.531406 -1.87619 0
M  V30 4353 O 402.882 0.454221 -1.90561 0
M  V30 4354 H 401.462 -0.641556 -0.382642 0
M  V30 4355 H 404.124 -1.92163 -0.325489 0
M  V30 4356 H 403.22 -2.63129 -1.67838 0
M  V30 4357 N 403.521 0.559213 -1.47345 0
M  V30 4358 C 404.454 1.68201 -1.5422 0
M  V30 4359 C 405.432 1.57742 -0.394497 0
M  V30 4360 O 406.616 1.78628 -0.60201 0
M  V30 4361 C 403.743 3.0643 -1.44285 0
M  V30 4362 C 402.789 3.3534 -2.63532 0
M  V30 4363 S 403.622 3.24816 -4.25741 0
M  V30 4364 C 404.778 4.65542 -4.18355 0
M  V30 4365 H 405.011 1.62114 -2.49211 0
M  V30 4366 H 402.544 0.739871 -1.35519 0
M  V30 4367 H 404.502 3.86164 -1.3924 0
M  V30 4368 H 403.163 3.09984 -0.506816 0
M  V30 4369 H 402.356 4.36107 -2.52639 0
M  V30 4370 H 401.958 2.63221 -2.65689 0
M  V30 4371 H 404.25 5.56449 -3.86485 0
M  V30 4372 H 405.193 4.81493 -5.19202 0
M  V30 4373 H 405.601 4.43495 -3.49246 0
M  V30 4374 N 404.999 1.35443 0.805782 0
M  V30 4375 C 406.248 1.28097 1.55801 0
M  V30 4376 C 406.561 -0.142428 1.95081 0
M  V30 4377 O 407.767 -0.33817 2.69386 0
M  V30 4378 C 406.223 2.24653 2.81174 0
M  V30 4379 C 405.831 3.72342 2.49129 0
M  V30 4380 C 407.575 2.2625 3.59181 0
M  V30 4381 C 405.482 4.60719 3.70799 0
M  V30 4382 H 404.412 0.475937 0.584808 0
M  V30 4383 H 407.063 1.60712 0.885661 0
M  V30 4384 H 405.445 1.85011 3.50124 0
M  V30 4385 H 406.619 4.20624 1.88181 0
M  V30 4386 H 404.934 3.73361 1.84366 0
M  V30 4387 H 407.531 2.89495 4.49552 0
M  V30 4388 H 407.874 1.26647 3.96568 0
M  V30 4389 H 408.407 2.64426 2.97193 0
M  V30 4390 H 405.146 5.61324 3.3852 0
M  V30 4391 H 404.666 4.17163 4.3097 0
M  V30 4392 H 406.345 4.76182 4.38018 0
M  V30 4393 N 406.477 -1.02803 1.19454 0
M  V30 4394 C 407.726 -1.7562 0.991996 0
M  V30 4395 C 408.039 -1.89672 -0.477901 0
M  V30 4396 O 409.245 -2.59468 -0.799287 0
M  V30 4397 C 407.701 -3.15812 1.72601 0
M  V30 4398 C 407.309 -3.0981 3.23607 0
M  V30 4399 C 409.053 -3.92918 1.60674 0
M  V30 4400 C 406.96 -4.44939 3.89594 0
M  V30 4401 H 405.89 -0.658352 0.367543 0
M  V30 4402 H 408.541 -1.15044 1.42959 0
M  V30 4403 H 406.923 -3.7686 1.21624 0
M  V30 4404 H 408.097 -2.58138 3.81709 0
M  V30 4405 H 406.412 -2.46201 3.35819 0
M  V30 4406 H 409.009 -4.9287 2.07323 0
M  V30 4407 H 409.352 -4.12502 0.561025 0
M  V30 4408 H 409.885 -3.38472 2.09001 0
M  V30 4409 H 406.624 -4.30559 4.94267 0
M  V30 4410 H 406.144 -4.96664 3.36281 0
M  V30 4411 H 407.823 -5.1382 3.93189 0
M  V30 4412 N 407.956 -0.998596 -1.21925 0
M  V30 4413 C 408.866 -0.562736 -2.27751 0
M  V30 4414 C 409.882 0.391203 -1.69545 0
M  V30 4415 O 411.058 0.256625 -1.99758 0
M  V30 4416 C 408.123 0.11012 -3.46525 0
M  V30 4417 C 407.184 -0.887495 -4.20026 0
M  V30 4418 C 406.417 -0.246654 -5.3313 0
M  V30 4419 O 406.64 0.958088 -5.62296 0
M  V30 4420 O 405.574 -0.954374 -5.94286 0
M  V30 4421 H 409.4 -1.44329 -2.67213 0
M  V30 4422 H 406.985 -0.767135 -1.28201 0
M  V30 4423 H 408.867 0.486756 -4.18579 0
M  V30 4424 H 407.542 0.965154 -3.08976 0
M  V30 4425 H 406.449 -1.31517 -3.5022 0
M  V30 4426 H 407.782 -1.71191 -4.6147 0
M  V30 4427 N 409.434 1.37368 -0.772513 0
M  V30 4428 C 410.384 2.27613 -0.132823 0
M  V30 4429 C 411.368 1.46138 0.673247 0
M  V30 4430 O 412.56 1.68686 0.536095 0
M  V30 4431 C 409.689 3.35122 0.744864 0
M  V30 4432 C 408.775 4.24044 -0.0690771 0
M  V30 4433 N 409.166 4.93355 -1.1151 0
M  V30 4434 C 407.464 4.45731 0.154782 0
M  V30 4435 C 408.165 5.59 -1.60917 0
M  V30 4436 N 407.141 5.35737 -0.921222 0
M  V30 4437 H 410.943 2.78675 -0.933681 0
M  V30 4438 H 408.457 1.50494 -0.610342 0
M  V30 4439 H 410.454 3.98683 1.21892 0
M  V30 4440 H 409.114 2.85616 1.54446 0
M  V30 4441 H 410.125 4.95785 -1.49726 0
M  V30 4442 H 406.802 4.07096 0.926224 0
M  V30 4443 H 408.192 6.24395 -2.48153 0
M  V30 4444 N 410.912 0.523116 1.48665 0
M  V30 4445 C 411.822 -0.247406 2.33292 0
M  V30 4446 C 412.838 -0.945769 1.46052 0
M  V30 4447 O 414.014 -0.922253 1.79043 0
M  V30 4448 C 411.079 -1.28487 3.22012 0
M  V30 4449 C 410.14 -0.597592 4.2512 0
M  V30 4450 C 409.373 -1.58563 5.09601 0
M  V30 4451 O 409.596 -2.81763 4.95949 0
M  V30 4452 O 408.53 -1.12879 5.91221 0
M  V30 4453 H 412.356 0.445869 3.00409 0
M  V30 4454 H 409.941 0.284128 1.46673 0
M  V30 4455 H 411.823 -1.88459 3.7691 0
M  V30 4456 H 410.498 -1.96068 2.57564 0
M  V30 4457 H 409.405 0.0424407 3.74076 0
M  V30 4458 H 410.738 0.0361517 4.92187 0
M  V30 4459 N 412.39 -1.55475 0.257931 0
M  V30 4460 C 413.638 -1.98813 -0.363009 0
M  V30 4461 C 413.959 -1.14757 -1.57657 0
M  V30 4462 O 413.229 -0.232956 -1.9451 0
M  V30 4463 H 411.809 -0.734308 -0.137113 0
M  V30 4464 H 414.471 -1.9156 0.359281 0
M  V30 4465 H 413.567 -3.04941 -0.664634 0
M  V30 4466 N 413.868 0.0150385 -1.57593 0
M  V30 4467 C 415.145 0.7392 -1.81094 0
M  V30 4468 C 415.525 1.92817 -0.859344 0
M  V30 4469 O 414.873 2.28301 0.095362 0
M  V30 4470 C 415.083 1.15907 -3.29191 0
M  V30 4471 C 416.431 1.56918 -3.9454 0
M  V30 4472 O 417.455 1.25328 -3.33424 0
M  V30 4473 O 416.314 2.15604 -5.02173 0
M  V30 4474 H 413.408 0.358631 -0.745193 0
M  V30 4475 H 415.954 -0.00926156 -1.69697 0
M  V30 4476 H 414.726 0.310921 -3.90063 0
M  V30 4477 H 414.349 1.96711 -3.45529 0
M  V30 4478 N 415.346 1.54954 0.287554 0
M  V30 4479 C 416.762 1.46469 0.633964 0
M  V30 4480 C 416.962 0.666865 1.90145 0
M  V30 4481 O 416.018 0.179906 2.51858 0
M  V30 4482 C 417.331 2.90556 0.774454 0
M  V30 4483 C 418.879 3.00681 0.869462 0
M  V30 4484 C 419.354 4.45993 1.04184 0
M  V30 4485 N 420.845 4.4976 1.10772 0
M  V30 4486 C 421.58 5.59393 1.25964 0
M  V30 4487 N 421.076 6.78923 1.37968 0
M  V30 4488 N 422.869 5.47107 1.28959 0
M  V30 4489 H 415.02 2.05288 -0.545041 0
M  V30 4490 H 417.283 0.930305 -0.182308 0
M  V30 4491 H 416.989 3.51594 -0.086207 0
M  V30 4492 H 416.863 3.38743 1.6593 0
M  V30 4493 H 419.25 2.39749 1.7206 0
M  V30 4494 H 419.331 2.55769 -0.0396831 0
M  V30 4495 H 418.975 5.07524 0.195422 0
M  V30 4496 H 418.905 4.88548 1.96542 0
M  V30 4497 H 421.396 3.63651 1.02794 0
M  V30 4498 H 421.709 7.58231 1.49353 0
M  V30 4499 H 420.054 6.81763 1.34999 0
M  V30 4500 H 423.245 4.52668 1.19202 0
M  V30 4501 H 423.418 6.32595 1.40455 0
M  V30 4502 N 416.824 -0.551391 1.4764 0
M  V30 4503 C 418.235 -1.13349 1.48354 0
M  V30 4504 C 418.586 -1.94709 0.241432 0
M  V30 4505 O 417.711 -2.06306 -0.653205 0
M  V30 4506 C 418.306 -2.0623 2.68802 0
M  V30 4507 C 416.865 -2.597 2.72457 0
M  V30 4508 C 416.012 -1.36201 2.41546 0
M  V30 4509 H 418.963 -0.337698 1.55065 0
M  V30 4510 H 418.984 -2.90196 2.46103 0
M  V30 4511 H 418.496 -1.46987 3.59188 0
M  V30 4512 H 416.597 -3.22724 1.86225 0
M  V30 4513 H 416.71 -3.00296 3.73308 0
M  V30 4514 H 415.074 -1.67068 1.9225 0
M  V30 4515 H 415.857 -0.787425 3.34147 0
M  V30 4516 N 418.302 -1.35869 -0.798587 0
M  V30 4517 C 419.527 -1.32883 -1.59238 0
M  V30 4518 C 419.952 0.0894587 -1.87887 0
M  V30 4519 O 419.31 1.05869 -1.47178 0
M  V30 4520 C 419.358 -2.14892 -2.89575 0
M  V30 4521 O 418.462 -1.53512 -3.82763 0
M  V30 4522 H 417.803 -0.455236 -0.48338 0
M  V30 4523 H 420.333 -1.79024 -0.990539 0
M  V30 4524 H 420.343 -2.27139 -3.38928 0
M  V30 4525 H 419.018 -3.17998 -2.68049 0
M  V30 4526 H 417.595 -1.50153 -3.41334 0
M  V30 4527 N 419.78 1.02168 -1.19998 0
M  V30 4528 C 421.005 1.79833 -1.03319 0
M  V30 4529 C 421.43 1.83504 0.413281 0
M  V30 4530 O 420.788 1.26635 1.29743 0
M  V30 4531 C 420.836 3.22396 -1.61533 0
M  V30 4532 O 419.94 4.03555 -0.849519 0
M  V30 4533 H 419.281 0.554872 -0.364709 0
M  V30 4534 H 421.811 1.28542 -1.59179 0
M  V30 4535 H 421.821 3.73124 -1.65054 0
M  V30 4536 H 420.496 3.19039 -2.66809 0
M  V30 4537 H 419.073 3.62169 -0.888129 0
M  V30 4538 N 421.258 1.00505 1.21394 0
M  V30 4539 C 422.205 0.565496 2.23765 0
M  V30 4540 C 423.175 -0.408466 1.60999 0
M  V30 4541 O 424.36 -0.310503 1.88257 0
M  V30 4542 C 421.5 -0.101667 3.4495 0
M  V30 4543 C 420.613 0.915479 4.22188 0
M  V30 4544 C 419.748 0.220574 5.30742 0
M  V30 4545 C 418.787 1.22527 5.99711 0
M  V30 4546 N 417.924 0.557831 6.9988 0
M  V30 4547 H 422.764 1.44314 2.60725 0
M  V30 4548 H 420.301 0.722643 1.28126 0
M  V30 4549 H 422.259 -0.505504 4.14126 0
M  V30 4550 H 420.889 -0.94303 3.08718 0
M  V30 4551 H 419.941 1.43756 3.52191 0
M  V30 4552 H 421.253 1.68005 4.69655 0
M  V30 4553 H 420.407 -0.239368 6.06228 0
M  V30 4554 H 419.146 -0.576401 4.84282 0
M  V30 4555 H 418.151 1.69571 5.22997 0
M  V30 4556 H 419.376 2.02332 6.48258 0
M  V30 4557 H 417.322 -0.219486 6.55633 0
M  V30 4558 H 417.239 1.26065 7.45415 0
M  V30 4559 H 418.507 0.121095 7.79406 0
M  V30 4560 N 422.737 -1.36956 0.779787 0
M  V30 4561 C 423.965 -2.03755 0.359398 0
M  V30 4562 C 424.38 -1.58807 -1.02106 0
M  V30 4563 O 423.737 -0.773024 -1.6532 0
M  V30 4564 C 423.788 -3.59251 0.402568 0
M  V30 4565 O 423.509 -4.02557 1.72858 0
M  V30 4566 C 425.01 -4.43291 -0.0284068 0
M  V30 4567 H 422.23 -0.654148 0.149437 0
M  V30 4568 H 424.774 -1.75128 1.05595 0
M  V30 4569 H 422.929 -3.86621 -0.245478 0
M  V30 4570 H 423.343 -4.97111 1.67275 0
M  V30 4571 H 424.817 -5.51975 0.0529466 0
M  V30 4572 H 425.294 -4.25719 -1.07982 0
M  V30 4573 H 425.9 -4.21163 0.591758 0
M  V30 4574 N 424.215 -0.530993 -1.48385 0
M  V30 4575 C 425.125 0.23503 -2.3342 0
M  V30 4576 C 426.141 0.93801 -1.46552 0
M  V30 4577 O 427.317 0.912745 -1.7953 0
M  V30 4578 C 424.382 1.26778 -3.22689 0
M  V30 4579 C 423.443 0.575038 -4.25431 0
M  V30 4580 C 422.676 1.55858 -5.10435 0
M  V30 4581 O 422.899 2.79129 -4.97437 0
M  V30 4582 O 421.833 1.09742 -5.91811 0
M  V30 4583 H 425.659 -0.461794 -3.00169 0
M  V30 4584 H 423.244 -0.291903 -1.46521 0
M  V30 4585 H 425.126 1.86457 -3.77904 0
M  V30 4586 H 423.801 1.94699 -2.586 0
M  V30 4587 H 422.708 -0.0622782 -3.74048 0
M  V30 4588 H 424.041 -0.062253 -4.92161 0
M  V30 4589 N 425.693 1.55336 -0.266172 0
M  V30 4590 C 426.942 1.98574 0.353749 0
M  V30 4591 C 427.255 1.15789 1.57646 0
M  V30 4592 O 428.461 1.49129 2.26876 0
M  V30 4593 C 426.917 3.53403 0.680747 0
M  V30 4594 C 426.525 4.44953 -0.52165 0
M  V30 4595 C 428.269 4.05251 1.26379 0
M  V30 4596 C 426.176 5.91156 -0.169736 0
M  V30 4597 H 425.106 0.741643 0.135949 0
M  V30 4598 H 427.757 1.79743 -0.369421 0
M  V30 4599 H 426.139 3.68001 1.46257 0
M  V30 4600 H 427.313 4.42121 -1.29869 0
M  V30 4601 H 425.628 4.03691 -1.02093 0
M  V30 4602 H 428.225 5.12021 1.54074 0
M  V30 4603 H 428.568 3.53749 2.19471 0
M  V30 4604 H 429.101 3.94057 0.544447 0
M  V30 4605 H 425.84 6.46736 -1.0683 0
M  V30 4606 H 425.36 5.97079 0.570717 0
M  V30 4607 H 427.039 6.4655 0.241245 0
M  V30 4608 N 427.171 -0.0066808 1.57599 0
M  V30 4609 C 428.081 -1.01671 2.11424 0
M  V30 4610 C 429.097 -1.38143 1.05795 0
M  V30 4611 O 430.273 -1.47011 1.37658 0
M  V30 4612 C 427.338 -2.29192 2.60139 0
M  V30 4613 C 426.399 -1.99094 3.80342 0
M  V30 4614 C 425.632 -3.20535 4.26724 0
M  V30 4615 O 425.855 -4.3199 3.72479 0
M  V30 4616 O 424.789 -3.04924 5.18946 0
M  V30 4617 H 428.615 -0.589181 2.9793 0
M  V30 4618 H 426.2 -0.225091 1.47695 0
M  V30 4619 H 428.082 -3.0412 2.917 0
M  V30 4620 H 426.757 -2.71195 1.76733 0
M  V30 4621 H 425.664 -1.21663 3.53764 0
M  V30 4622 H 426.997 -1.61931 4.648 0
M  V30 4623 N 428.649 -1.55105 -0.279332 0
M  V30 4624 C 429.582 -1.82467 -1.37044 0
M  V30 4625 C 430.56 -0.677261 -1.47824 0
M  V30 4626 O 431.744 -0.919578 -1.64548 0
M  V30 4627 C 428.871 -1.98066 -2.7475 0
M  V30 4628 C 427.917 -3.20594 -2.81286 0
M  V30 4629 S 428.75 -4.78116 -2.41175 0
M  V30 4630 C 429.906 -4.9668 -3.80867 0
M  V30 4631 H 430.139 -2.74728 -1.1363 0
M  V30 4632 H 427.672 -1.46794 -0.478625 0
M  V30 4633 H 429.63 -2.07739 -3.54055 0
M  V30 4634 H 428.291 -1.06704 -2.9542 0
M  V30 4635 H 427.484 -3.28376 -3.82341 0
M  V30 4636 H 427.086 -3.09479 -2.09996 0
M  V30 4637 H 429.378 -4.82033 -4.76078 0
M  V30 4638 H 430.321 -5.98741 -3.78041 0
M  V30 4639 H 430.729 -4.24698 -3.71876 0
M  V30 4640 N 430.127 0.543554 -1.4793 0
M  V30 4641 C 431.404 1.30458 -1.4574 0
M  V30 4642 C 431.784 2.1048 -0.161692 0
M  V30 4643 O 431.132 2.11831 0.856734 0
M  V30 4644 C 431.342 2.19754 -2.71126 0
M  V30 4645 C 432.69 2.80334 -3.18901 0
M  V30 4646 O 433.714 2.30049 -2.71948 0
M  V30 4647 O 432.573 3.71766 -4.00565 0
M  V30 4648 H 429.667 0.588117 -0.581418 0
M  V30 4649 H 432.213 0.561328 -1.60147 0
M  V30 4650 H 430.985 1.60316 -3.56952 0
M  V30 4651 H 430.608 3.01351 -2.59371 0
M  V30 4652 N 431.605 1.3629 0.791371 0
M  V30 4653 C 432.853 1.30154 1.5461 0
M  V30 4654 C 433.174 -0.119409 1.94634 0
M  V30 4655 O 432.444 -1.05924 1.64794 0
M  V30 4656 H 431.024 0.478784 0.573389 0
M  V30 4657 H 433.686 1.70565 0.94306 0
M  V30 4658 H 432.782 1.92762 2.45457 0
M  V30 4659 N 433.083 -1.0153 1.20538 0
M  V30 4660 C 434.03 -2.10098 0.955383 0
M  V30 4661 C 435 -1.65702 -0.114878 0
M  V30 4662 O 436.185 -1.90776 0.0301118 0
M  V30 4663 C 433.325 -3.41236 0.514969 0
M  V30 4664 C 432.438 -3.99102 1.65353 0
M  V30 4665 C 431.573 -5.18306 1.16329 0
M  V30 4666 C 430.612 -5.68258 2.27485 0
M  V30 4667 N 429.749 -6.78722 1.7967 0
M  V30 4668 H 434.589 -2.30818 1.88486 0
M  V30 4669 H 432.126 -1.13189 0.939499 0
M  V30 4670 H 434.084 -4.16504 0.240935 0
M  V30 4671 H 432.714 -3.20585 -0.377512 0
M  V30 4672 H 431.766 -3.20918 2.04245 0
M  V30 4673 H 433.078 -4.32177 2.49047 0
M  V30 4674 H 432.232 -6.00782 0.845302 0
M  V30 4675 H 430.971 -4.86799 0.296254 0
M  V30 4676 H 429.976 -4.84385 2.60099 0
M  V30 4677 H 431.201 -6.01798 3.14667 0
M  V30 4678 H 429.147 -6.49042 0.95295 0
M  V30 4679 H 429.064 -7.10996 2.56944 0
M  V30 4680 H 430.332 -7.64759 1.50875 0
M  V30 4681 N 434.561 -1.01147 -1.20859 0
M  V30 4682 C 435.807 -0.698899 -1.90377 0
M  V30 4683 C 436.14 0.76904 -1.78324 0
M  V30 4684 O 435.415 1.55817 -1.16409 0
M  V30 4685 C 435.698 -1.12878 -3.41951 0
M  V30 4686 C 435.551 -2.65665 -3.62963 0
M  V30 4687 C 436.87 -0.696114 -4.3456 0
M  V30 4688 H 433.989 -0.255372 -0.691342 0
M  V30 4689 H 436.631 -1.25831 -1.42361 0
M  V30 4690 H 434.781 -0.652827 -3.82976 0
M  V30 4691 H 436.453 -3.21074 -3.31224 0
M  V30 4692 H 434.696 -3.06878 -3.06608 0
M  V30 4693 H 435.367 -2.90797 -4.69192 0
M  V30 4694 H 437.843 -1.10521 -4.01154 0
M  V30 4695 H 436.719 -1.025 -5.39245 0
M  V30 4696 H 436.98 0.402465 -4.40264 0
M  V30 4697 N 436.039 1.36541 -0.78704 0
M  V30 4698 C 437.285 1.99599 -0.358872 0
M  V30 4699 C 437.618 1.62323 1.06606 0
M  V30 4700 O 436.893 0.876858 1.73613 0
M  V30 4701 C 437.176 3.56327 -0.519944 0
M  V30 4702 C 437.029 4.03464 -1.98839 0
M  V30 4703 C 438.348 4.4005 0.0664737 0
M  V30 4704 H 435.467 0.725107 -0.131869 0
M  V30 4705 H 438.109 1.6199 -0.992936 0
M  V30 4706 H 436.259 3.88495 0.0198321 0
M  V30 4707 H 437.931 3.81793 -2.58905 0
M  V30 4708 H 436.174 3.55092 -2.49183 0
M  V30 4709 H 436.845 5.12439 -2.05207 0
M  V30 4710 H 439.321 4.14228 -0.394267 0
M  V30 4711 H 438.197 5.48847 -0.0762682 0
M  V30 4712 H 438.458 4.26655 1.15835 0
M  V30 4713 N 437.518 0.538854 1.48102 0
M  V30 4714 C 438.466 -0.232325 2.31437 0
M  V30 4715 C 439.46 -0.927004 1.41785 0
M  V30 4716 O 440.666 -0.850378 1.58646 0
M  V30 4717 H 437.041 -0.0937916 0.746128 0
M  V30 4718 H 439.012 0.489986 2.9435 0
M  V30 4719 C 437.761 -1.26074 3.24038 0
M  V30 4720 H 437.084 -0.735609 3.92974 0
M  V30 4721 H 438.524 -1.77157 3.85216 0
M  V30 4722 C 436.983 -2.29902 2.46265 0
M  V30 4723 O 437.513 -3.36502 2.19384 0
M  V30 4724 N 435.719 -2.03348 2.07601 0
M  V30 4725 H 435.266 -1.16675 2.29662 0
M  V30 4726 H 435.224 -2.73038 1.55877 0
M  V30 4727 N 438.996 -1.55193 0.274407 0
M  V30 4728 C 440.221 -2.04446 -0.348824 0
M  V30 4729 C 440.646 -1.15149 -1.48735 0
M  V30 4730 O 440.004 -0.149952 -1.80679 0
M  V30 4731 C 440.052 -3.51431 -0.808009 0
M  V30 4732 O 439.156 -3.65225 -1.91531 0
M  V30 4733 H 438.497 -0.66006 -0.0722276 0
M  V30 4734 H 441.027 -2.00481 0.408498 0
M  V30 4735 H 441.037 -3.92781 -1.10395 0
M  V30 4736 H 439.712 -4.15892 0.0249865 0
M  V30 4737 H 438.289 -3.35778 -1.62196 0
M  V30 4738 N 440.474 -0.00167713 -1.576 0
M  V30 4739 C 441.424 0.997744 -2.0501 0
M  V30 4740 C 442.408 1.30214 -0.94515 0
M  V30 4741 O 443.6 1.29284 -1.20891 0
M  V30 4742 C 440.729 2.2892 -2.55833 0
M  V30 4743 C 439.815 2.01437 -3.73208 0
M  V30 4744 N 440.206 1.44119 -4.84833 0
M  V30 4745 C 438.504 2.31571 -3.8117 0
M  V30 4746 C 439.205 1.33145 -5.66257 0
M  V30 4747 N 438.181 1.81763 -5.12312 0
M  V30 4748 H 441.983 0.549098 -2.88725 0
M  V30 4749 H 439.497 0.20398 -1.61114 0
M  V30 4750 H 441.494 3.01361 -2.88075 0
M  V30 4751 H 440.154 2.74436 -1.73537 0
M  V30 4752 H 441.165 1.11978 -5.0565 0
M  V30 4753 H 437.842 2.7995 -3.09732 0
M  V30 4754 H 439.232 0.890567 -6.65972 0
M  V30 4755 N 441.952 1.55251 0.271103 0
M  V30 4756 C 443.198 1.76207 1.00394 0
M  V30 4757 C 443.531 0.562604 1.85872 0
M  V30 4758 O 442.806 -0.439785 1.89463 0
M  V30 4759 C 443.089 3.06828 1.8849 0
M  V30 4760 C 442.942 4.37134 1.05992 0
M  V30 4761 C 444.261 3.33503 2.87165 0
M  V30 4762 H 441.38 0.641086 0.363562 0
M  V30 4763 H 444.022 1.87982 0.276189 0
M  V30 4764 H 442.172 2.96921 2.5054 0
M  V30 4765 H 443.844 4.59001 0.459978 0
M  V30 4766 H 442.087 4.32275 0.363443 0
M  V30 4767 H 442.758 5.2486 1.70955 0
M  V30 4768 H 445.234 3.43215 2.3525 0
M  V30 4769 H 444.11 4.2616 3.45946 0
M  V30 4770 H 444.371 2.53235 3.62387 0
M  V30 4771 N 443.43 -0.535701 1.48216 0
M  V30 4772 C 444.34 -1.66785 1.64985 0
M  V30 4773 C 445.356 -1.65654 0.532414 0
M  V30 4774 O 446.532 -1.8471 0.80275 0
M  V30 4775 C 443.597 -3.0326 1.68031 0
M  V30 4776 C 442.658 -3.1529 2.9136 0
M  V30 4777 C 441.891 -4.45255 2.94252 0
M  V30 4778 O 442.114 -5.32011 2.05719 0
M  V30 4779 O 441.048 -4.6153 3.86359 0
M  V30 4780 H 444.874 -1.55576 2.60825 0
M  V30 4781 H 442.459 -0.70815 1.31551 0
M  V30 4782 H 444.341 -3.84436 1.72589 0
M  V30 4783 H 443.016 -3.14805 0.753628 0
M  V30 4784 H 441.923 -2.3343 2.92337 0
M  V30 4785 H 443.256 -3.08658 3.83394 0
M  V30 4786 N 444.908 -1.36708 -0.784132 0
M  V30 4787 C 445.856 -1.31533 -1.91838 0
M  V30 4788 C 446.85 -0.206205 -1.6814 0
M  V30 4789 O 448.056 -0.373519 -1.76082 0
M  V30 4790 H 444.431 -0.409613 -0.630651 0
M  V30 4791 H 446.402 -2.2731 -1.9332 0
M  V30 4792 C 445.151 -1.12679 -3.28936 0
M  V30 4793 H 444.474 -1.97274 -3.4774 0
M  V30 4794 H 445.914 -1.13106 -4.08636 0
M  V30 4795 C 444.373 0.168281 -3.36479 0
M  V30 4796 O 444.903 1.15625 -3.84699 0
M  V30 4797 N 443.109 0.214762 -2.89805 0
M  V30 4798 H 442.656 -0.589852 -2.50756 0
M  V30 4799 H 442.614 1.08094 -2.95234 0
M  V30 4800 N 446.386 1.0089 -1.21074 0
M  V30 4801 C 447.633 1.74607 -1.0256 0
M  V30 4802 C 447.961 1.89426 0.44136 0
M  V30 4803 O 447.216 1.42266 1.34384 0
M  V30 4804 C 447.515 3.16335 -1.66334 0
M  V30 4805 C 447.181 3.21474 -3.16173 0
M  V30 4806 C 445.843 3.22583 -3.57062 0
M  V30 4807 C 448.195 3.19025 -4.12156 0
M  V30 4808 C 445.523 3.18925 -4.92446 0
M  V30 4809 C 447.875 3.16909 -5.47496 0
M  V30 4810 C 446.539 3.16326 -5.87787 0
M  V30 4811 H 445.809 0.638933 -0.375294 0
M  V30 4812 H 448.456 1.18274 -1.50611 0
M  V30 4813 H 446.761 3.75876 -1.10566 0
M  V30 4814 H 448.458 3.72083 -1.49516 0
M  V30 4815 H 445.048 3.2135 -2.83605 0
M  V30 4816 H 449.232 3.17332 -3.81595 0
M  V30 4817 H 444.488 3.16809 -5.22917 0
M  V30 4818 H 448.662 3.13968 -6.21609 0
M  V30 4819 H 446.289 3.13246 -6.92662 0
M  V30 4820 N 447.864 1.01787 1.20321 0
M  V30 4821 C 448.794 0.609625 2.25401 0
M  V30 4822 C 449.775 -0.375951 1.65893 0
M  V30 4823 O 450.96 -0.261101 1.92437 0
M  V30 4824 C 448.09 -0.0515995 3.47262 0
M  V30 4825 C 447.044 0.855095 4.19371 0
M  V30 4826 C 446.37 0.0595757 5.34667 0
M  V30 4827 C 447.67 2.16374 4.75373 0
M  V30 4828 H 449.364 1.48803 2.59804 0
M  V30 4829 H 446.91 0.716934 1.24884 0
M  V30 4830 H 448.863 -0.348764 4.19954 0
M  V30 4831 H 447.587 -0.964726 3.12027 0
M  V30 4832 H 446.246 1.13628 3.48546 0
M  V30 4833 H 445.894 -0.85524 4.95676 0
M  V30 4834 H 445.594 0.663406 5.83843 0
M  V30 4835 H 447.118 -0.231105 6.10162 0
M  V30 4836 H 448.532 1.92885 5.39878 0
M  V30 4837 H 446.929 2.71853 5.34991 0
M  V30 4838 H 447.999 2.82589 3.94045 0
M  V30 4839 N 449.342 -1.36122 0.79427 0
M  V30 4840 C 450.619 -1.93398 0.292685 0
M  V30 4841 C 450.999 -1.72567 -1.21589 0
M  V30 4842 O 450.347 -1.08745 -2.00965 0
M  V30 4843 C 450.557 -3.42099 0.690614 0
M  V30 4844 C 451.905 -4.19231 0.673105 0
M  V30 4845 O 452.929 -3.50559 0.631389 0
M  V30 4846 O 451.788 -5.41732 0.720362 0
M  V30 4847 H 448.882 -0.823712 0.0736693 0
M  V30 4848 H 451.428 -1.45273 0.87714 0
M  V30 4849 H 450.2 -3.50938 1.73085 0
M  V30 4850 H 449.823 -3.97519 0.0803036 0
M  V30 4851 N 450.82 -0.546701 -1.47814 0
M  V30 4852 C 452.068 -0.0187037 -2.02091 0
M  V30 4853 C 452.389 1.33168 -1.42447 0
M  V30 4854 O 451.659 1.86619 -0.595839 0
M  V30 4855 H 450.239 -0.00392531 -0.74699 0
M  V30 4856 H 452.901 -0.714327 -1.81338 0
M  V30 4857 H 451.997 0.0772219 -3.12004 0
M  V30 4858 N 452.299 1.55045 -0.282633 0
M  V30 4859 C 453.262 2.21515 0.588539 0
M  V30 4860 C 454.262 1.19535 1.07554 0
M  V30 4861 O 455.452 1.44391 0.974514 0
M  V30 4862 C 452.584 2.88704 1.8128 0
M  V30 4863 H 453.777 2.99899 0.00806397 0
M  V30 4864 H 451.33 1.56265 -0.0333067 0
M  V30 4865 H 452.065 2.14352 2.43359 0
M  V30 4866 H 451.85 3.63443 1.47144 0
M  V30 4867 H 453.34 3.39465 2.43214 0
M  V30 4868 N 453.777 0.010035 1.57597 0
M  V30 4869 C 454.707 -0.976857 2.12084 0
M  V30 4870 C 455.688 -1.35191 1.03235 0
M  V30 4871 O 456.873 -1.43389 1.3097 0
M  V30 4872 C 454.003 -2.26548 2.63236 0
M  V30 4873 C 452.957 -2.03175 3.76701 0
M  V30 4874 C 452.283 -3.38138 4.14206 0
M  V30 4875 C 453.583 -1.38625 5.03568 0
M  V30 4876 H 455.277 -0.523145 2.94794 0
M  V30 4877 H 452.823 -0.250195 1.4181 0
M  V30 4878 H 454.776 -2.95952 2.99984 0
M  V30 4879 H 453.5 -2.74051 1.77661 0
M  V30 4880 H 452.159 -1.36195 3.40362 0
M  V30 4881 H 451.807 -3.83363 3.25641 0
M  V30 4882 H 451.507 -3.23312 4.90656 0
M  V30 4883 H 453.031 -4.08841 4.53521 0
M  V30 4884 H 454.445 -1.98 5.38023 0
M  V30 4885 H 452.842 -1.34256 5.84889 0
M  V30 4886 H 453.912 -0.356722 4.83586 0
M  V30 4887 N 455.255 -1.55392 -0.262866 0
M  V30 4888 C 456.501 -1.76737 -0.99458 0
M  V30 4889 C 456.834 -0.572453 -1.85571 0
M  V30 4890 O 456.109 0.429732 -1.89693 0
M  V30 4891 C 456.392 -3.07824 -1.8686 0
M  V30 4892 C 456.245 -4.3769 -1.03672 0
M  V30 4893 C 457.564 -3.35021 -2.85393 0
M  V30 4894 H 454.683 -0.643005 -0.360157 0
M  V30 4895 H 457.325 -1.88126 -0.266216 0
M  V30 4896 H 455.475 -2.98245 -2.48962 0
M  V30 4897 H 457.147 -4.59238 -0.43563 0
M  V30 4898 H 455.39 -4.32461 -0.340513 0
M  V30 4899 H 456.061 -5.25759 -1.6817 0
M  V30 4900 H 458.537 -3.44458 -2.33426 0
M  V30 4901 H 457.413 -4.27989 -3.43681 0
M  V30 4902 H 457.674 -2.55153 -3.61039 0
M  V30 4903 N 456.733 0.527833 -1.48498 0
M  V30 4904 C 457.663 1.64136 -1.66077 0
M  V30 4905 C 458.644 1.62286 -0.509625 0
M  V30 4906 O 459.829 1.79449 -0.742413 0
M  V30 4907 C 456.959 3.02717 -1.70234 0
M  V30 4908 C 455.913 3.19426 -2.8487 0
M  V30 4909 C 455.239 4.5909 -2.74118 0
M  V30 4910 C 456.539 3.01993 -4.26142 0
M  V30 4911 H 458.233 1.4968 -2.593 0
M  V30 4912 H 455.779 0.718654 -1.24785 0
M  V30 4913 H 457.732 3.80491 -1.8112 0
M  V30 4914 H 456.456 3.18201 -0.735911 0
M  V30 4915 H 455.115 2.4407 -2.73542 0
M  V30 4916 H 454.763 4.71413 -1.7544 0
M  V30 4917 H 454.463 4.71214 -3.51042 0
M  V30 4918 H 455.987 5.3896 -2.86974 0
M  V30 4919 H 457.401 3.69558 -4.38292 0
M  V30 4920 H 455.798 3.2561 -5.04082 0
M  V30 4921 H 456.868 1.98396 -4.42456 0
M  V30 4922 N 458.211 1.37122 0.776871 0
M  V30 4923 C 459.121 1.34651 1.9211 0
M  V30 4924 C 460.137 0.246824 1.7224 0
M  V30 4925 O 461.313 0.48134 1.95563 0
M  V30 4926 C 458.378 1.14748 3.2716 0
M  V30 4927 C 457.439 2.34308 3.5972 0
M  V30 4928 C 456.672 2.15345 4.88326 0
M  V30 4929 O 456.895 1.13507 5.58992 0
M  V30 4930 O 455.829 3.03414 5.1983 0
M  V30 4931 H 459.655 2.31013 1.97146 0
M  V30 4932 H 457.24 1.17799 0.918901 0
M  V30 4933 H 459.122 1.05616 4.0795 0
M  V30 4934 H 457.797 0.214562 3.22988 0
M  V30 4935 H 456.704 2.49011 2.79185 0
M  V30 4936 H 458.037 3.26149 3.68629 0
M  V30 4937 N 459.689 -1.00246 1.21608 0
M  V30 4938 C 460.935 -1.74319 1.03638 0
M  V30 4939 C 461.268 -1.89408 -0.428749 0
M  V30 4940 O 460.543 -1.43026 -1.3181 0
M  V30 4941 C 460.826 -3.15431 1.73711 0
M  V30 4942 C 460.679 -3.08049 3.27759 0
M  V30 4943 C 461.998 -4.14407 1.48173 0
M  V30 4944 H 459.117 -0.632741 0.377899 0
M  V30 4945 H 461.759 -1.16853 1.49818 0
M  V30 4946 H 459.909 -3.64493 1.34452 0
M  V30 4947 H 461.581 -2.66681 3.76403 0
M  V30 4948 H 459.824 -2.45088 3.57931 0
M  V30 4949 H 460.495 -4.07862 3.71958 0
M  V30 4950 H 462.971 -3.74061 1.82258 0
M  V30 4951 H 461.847 -5.11279 1.99713 0
M  V30 4952 H 462.108 -4.40174 0.412273 0
M  V30 4953 N 461.167 -1.02423 -1.1978 0
M  V30 4954 C 462.444 -0.632802 -1.85081 0
M  V30 4955 C 462.824 0.888745 -1.9148 0
M  V30 4956 O 462.172 1.78357 -1.42832 0
M  V30 4957 C 462.382 -1.28947 -3.24305 0
M  V30 4958 C 463.73 -1.40976 -4.00513 0
M  V30 4959 O 464.754 -1.24628 -3.33686 0
M  V30 4960 O 463.613 -1.67467 -5.20209 0
M  V30 4961 H 460.707 -0.219348 -0.79738 0
M  V30 4962 H 463.253 -1.12209 -1.27307 0
M  V30 4963 H 462.025 -2.3288 -3.14456 0
M  V30 4964 H 461.648 -0.787748 -3.89718 0
M  V30 4965 N 462.645 1.35699 -0.801477 0
M  V30 4966 C 463.555 2.33661 -0.209691 0
M  V30 4967 C 464.571 1.6162 0.644591 0
M  V30 4968 O 465.747 1.93529 0.557545 0
M  V30 4969 C 462.812 3.40816 0.636033 0
M  V30 4970 C 461.873 4.28639 -0.238147 0
M  V30 4971 C 461.106 5.30676 0.567307 0
M  V30 4972 O 461.329 5.41174 1.8024 0
M  V30 4973 O 460.263 6.01887 -0.0391336 0
M  V30 4974 H 464.089 2.8606 -1.01996 0
M  V30 4975 H 461.674 1.38379 -0.563164 0
M  V30 4976 H 463.556 4.06301 1.11791 0
M  V30 4977 H 462.231 2.90696 1.42399 0
M  V30 4978 H 461.138 3.66152 -0.767044 0
M  V30 4979 H 462.471 4.82143 -0.989915 0
M  V30 4980 N 464.123 0.554532 1.47522 0
M  V30 4981 C 465.539 0.214107 1.58157 0
M  V30 4982 C 465.739 -1.28331 1.55349 0
M  V30 4983 O 464.795 -2.06329 1.45549 0
M  V30 4984 C 466.108 0.838391 2.88776 0
M  V30 4985 C 467.656 0.809374 3.02354 0
M  V30 4986 C 468.131 1.41268 4.35669 0
M  V30 4987 N 469.622 1.37574 4.42298 0
M  V30 4988 C 470.357 1.8122 5.4401 0
M  V30 4989 N 469.853 2.3271 6.52547 0
M  V30 4990 N 471.646 1.72307 5.35039 0
M  V30 4991 H 463.797 1.52744 1.4759 0
M  V30 4992 H 466.06 0.636812 0.702264 0
M  V30 4993 H 465.766 1.89065 2.96559 0
M  V30 4994 H 465.64 0.329847 3.75755 0
M  V30 4995 H 468.027 -0.234187 2.94169 0
M  V30 4996 H 468.108 1.35565 2.16924 0
M  V30 4997 H 467.752 2.45529 4.4461 0
M  V30 4998 H 467.682 0.841871 5.19827 0
M  V30 4999 H 470.173 0.999081 3.64454 0
M  V30 5000 H 470.486 2.63944 7.26329 0
M  V30 5001 H 468.831 2.36719 6.53444 0
M  V30 5002 H 472.022 1.3186 4.49144 0
M  V30 5003 H 472.195 2.06641 6.14169 0
M  V30 5004 N 465.601 -1.54893 0.290851 0
M  V30 5005 C 466.878 -1.91991 -0.373989 0
M  V30 5006 C 467.258 -1.21694 -1.72493 0
M  V30 5007 O 466.606 -0.34917 -2.25816 0
M  V30 5008 C 466.816 -3.45419 -0.498703 0
M  V30 5009 C 468.164 -4.1748 -0.774298 0
M  V30 5010 O 469.188 -3.51398 -0.582908 0
M  V30 5011 O 468.047 -5.3445 -1.14129 0
M  V30 5012 H 465.141 -0.800593 -0.207315 0
M  V30 5013 H 467.687 -1.66297 0.338164 0
M  V30 5014 H 466.459 -3.88688 0.451392 0
M  V30 5015 H 466.082 -3.77117 -1.25972 0
M  V30 5016 N 467.08 -0.0183926 -1.57589 0
M  V30 5017 C 468.012 0.995557 -2.06449 0
M  V30 5018 C 469.025 1.29556 -0.985849 0
M  V30 5019 O 470.214 1.2621 -1.26227 0
M  V30 5020 C 467.314 2.32572 -2.46502 0
M  V30 5021 C 466.487 2.21245 -3.77319 0
M  V30 5022 C 465.546 3.37104 -4.04039 0
M  V30 5023 O 464.572 3.14468 -4.74445 0
M  V30 5024 N 465.774 4.60553 -3.53372 0
M  V30 5025 H 468.539 0.578746 -2.94059 0
M  V30 5026 H 466.1 0.168603 -1.6102 0
M  V30 5027 H 468.092 3.08887 -2.61478 0
M  V30 5028 H 466.662 2.65931 -1.64315 0
M  V30 5029 H 465.882 1.29723 -3.72244 0
M  V30 5030 H 467.17 2.10868 -4.63047 0
M  V30 5031 H 466.568 4.81839 -2.96391 0
M  V30 5032 H 465.125 5.34072 -3.73644 0
M  V30 5033 N 468.558 1.5553 0.254621 0
M  V30 5034 C 469.835 1.6774 1.00611 0
M  V30 5035 C 470.215 0.555993 2.03647 0
M  V30 5036 O 469.563 -0.441583 2.24193 0
M  V30 5037 C 469.773 3.07725 1.6464 0
M  V30 5038 C 471.121 3.66074 2.15116 0
M  V30 5039 O 472.145 3.10476 1.74595 0
M  V30 5040 O 471.004 4.63526 2.89493 0
M  V30 5041 H 468.098 0.681958 0.467828 0
M  V30 5042 H 470.644 1.67863 0.24902 0
M  V30 5043 H 469.416 3.80792 0.900734 0
M  V30 5044 H 469.039 3.1158 2.46989 0
M  V30 5045 N 470.036 -0.519951 1.48776 0
M  V30 5046 C 471.313 -1.28123 1.47797 0
M  V30 5047 C 471.693 -2.10196 0.195157 0
M  V30 5048 O 471.041 -2.13167 -0.822925 0
M  V30 5049 C 471.251 -2.15413 2.74587 0
M  V30 5050 C 472.599 -2.75225 3.23321 0
M  V30 5051 O 473.623 -2.25694 2.75574 0
M  V30 5052 O 472.482 -3.65346 4.06429 0
M  V30 5053 H 469.576 -0.578793 0.590701 0
M  V30 5054 H 472.122 -0.535779 1.6102 0
M  V30 5055 H 470.894 -1.54617 3.59457 0
M  V30 5056 H 470.517 -2.97186 2.64132 0
M  V30 5057 N 471.514 -1.37532 -0.769588 0
M  V30 5058 C 472.424 -1.35668 -1.91393 0
M  V30 5059 C 473.44 -0.255954 -1.72107 0
M  V30 5060 O 474.616 -0.491704 -1.95305 0
M  V30 5061 C 471.681 -1.16481 -3.26547 0
M  V30 5062 C 470.742 -2.36212 -3.58472 0
M  V30 5063 C 469.975 -2.17932 -4.87177 0
M  V30 5064 O 470.198 -1.1647 -5.58382 0
M  V30 5065 O 469.132 -3.06167 -5.18214 0
M  V30 5066 H 472.958 -2.32055 -1.95918 0
M  V30 5067 H 470.543 -1.18284 -0.912641 0
M  V30 5068 H 472.425 -1.07778 -4.07384 0
M  V30 5069 H 471.1 -0.231687 -3.2287 0
M  V30 5070 H 470.007 -2.50488 -2.77861 0
M  V30 5071 H 471.34 -3.281 -3.66894 0
M  V30 5072 N 472.992 0.995999 -1.22138 0
M  V30 5073 C 473.902 2.11985 -1.00496 0
M  V30 5074 C 474.918 1.7394 0.0457701 0
M  V30 5075 O 476.094 2.00868 -0.146273 0
M  V30 5076 C 473.159 3.41779 -0.582086 0
M  V30 5077 C 472.22 3.93943 -1.70608 0
M  V30 5078 C 471.453 5.17542 -1.30328 0
M  V30 5079 O 471.676 5.70114 -0.180743 0
M  V30 5080 O 470.61 5.63382 -2.11861 0
M  V30 5081 H 474.436 2.33123 -1.94647 0
M  V30 5082 H 472.021 1.10358 -1.00705 0
M  V30 5083 H 473.903 4.1989 -0.356467 0
M  V30 5084 H 472.578 3.22007 0.330592 0
M  V30 5085 H 471.485 3.17019 -1.98619 0
M  V30 5086 H 472.818 4.18141 -2.59651 0
M  V30 5087 N 474.47 1.03057 1.19235 0
M  V30 5088 C 475.433 0.617418 2.20727 0
M  V30 5089 C 476.433 -0.319856 1.57587 0
M  V30 5090 O 477.623 -0.106633 1.73873 0
M  V30 5091 C 474.755 -0.096296 3.40764 0
M  V30 5092 H 475.948 1.51544 2.58794 0
M  V30 5093 H 473.501 0.821949 1.32942 0
M  V30 5094 H 474.236 -1.00859 3.08217 0
M  V30 5095 H 474.021 0.577217 3.87828 0
M  V30 5096 H 475.511 -0.372219 4.15938 0
M  V30 5097 N 475.948 -1.35272 0.808662 0
M  V30 5098 C 477.364 -1.51806 0.492653 0
M  V30 5099 C 477.564 -1.7574 -0.985778 0
M  V30 5100 O 476.62 -1.80003 -1.77074 0
M  V30 5101 C 477.933 -2.69202 1.33981 0
M  V30 5102 C 479.481 -2.8308 1.33547 0
M  V30 5103 C 479.956 -4.03502 2.16679 0
M  V30 5104 N 481.447 -4.10684 2.14227 0
M  V30 5105 C 482.182 -5.02984 2.75308 0
M  V30 5106 N 481.678 -6.00603 3.45323 0
M  V30 5107 N 483.471 -4.95746 2.64938 0
M  V30 5108 H 475.622 -1.17993 1.76611 0
M  V30 5109 H 477.885 -0.577476 0.751814 0
M  V30 5110 H 477.591 -2.581 2.38909 0
M  V30 5111 H 477.465 -3.63854 0.994491 0
M  V30 5112 H 479.852 -2.93631 0.294036 0
M  V30 5113 H 479.933 -1.89278 1.72068 0
M  V30 5114 H 479.577 -3.93711 3.20864 0
M  V30 5115 H 479.507 -4.96489 1.75517 0
M  V30 5116 H 481.998 -3.40802 1.63285 0
M  V30 5117 H 482.311 -6.67633 3.89212 0
M  V30 5118 H 480.656 -6.0077 3.49428 0
M  V30 5119 H 483.847 -4.18439 2.09825 0
M  V30 5120 H 484.02 -5.67487 3.12829 0
M  V30 5121 N 477.426 -0.562348 -1.47226 0
M  V30 5122 C 478.842 -0.222492 -1.58042 0
M  V30 5123 C 479.042 1.27505 -1.56028 0
M  V30 5124 O 478.098 2.05555 -1.46641 0
M  V30 5125 C 479.411 -0.853694 -2.88327 0
M  V30 5126 C 480.959 -0.825397 -3.01921 0
M  V30 5127 C 481.434 -1.43576 -4.34914 0
M  V30 5128 N 482.925 -1.39918 -4.41562 0
M  V30 5129 C 483.66 -1.84103 -5.43041 0
M  V30 5130 N 483.156 -2.36167 -6.51304 0
M  V30 5131 N 484.949 -1.75142 -5.34118 0
M  V30 5132 H 477.1 -1.53525 -1.46778 0
M  V30 5133 H 479.363 -0.640527 -0.698877 0
M  V30 5134 H 479.069 -1.90635 -2.95552 0
M  V30 5135 H 478.943 -0.34977 -3.75575 0
M  V30 5136 H 481.33 0.218583 -2.94289 0
M  V30 5137 H 481.411 -1.36713 -2.16202 0
M  V30 5138 H 481.055 -2.47884 -4.43301 0
M  V30 5139 H 480.985 -0.869427 -5.19373 0
M  V30 5140 H 483.476 -1.0184 -3.63919 0
M  V30 5141 H 483.789 -2.67793 -7.24919 0
M  V30 5142 H 482.134 -2.40181 -6.52179 0
M  V30 5143 H 485.325 -1.34241 -4.48439 0
M  V30 5144 H 485.498 -2.09895 -6.13065 0
M  V30 5145 N 478.904 1.54736 -0.299062 0
M  V30 5146 C 479.814 2.27127 0.587413 0
M  V30 5147 C 480.83 1.30575 1.15005 0
M  V30 5148 O 482.006 1.63554 1.17525 0
M  V30 5149 C 479.071 2.99645 1.74395 0
M  V30 5150 C 478.132 4.11731 1.21559 0
M  V30 5151 C 477.365 4.80781 2.317 0
M  V30 5152 O 477.588 4.4918 3.51558 0
M  V30 5153 O 476.522 5.68226 1.98501 0
M  V30 5154 H 480.348 3.037 0.000250109 0
M  V30 5155 H 477.933 1.49256 -0.0655919 0
M  V30 5156 H 479.815 3.45138 2.4178 0
M  V30 5157 H 478.49 2.25969 2.31775 0
M  V30 5158 H 477.397 3.70641 0.507514 0
M  V30 5159 H 478.73 4.87379 0.687233 0
M  V30 5160 N 480.382 0.0267497 1.57577 0
M  V30 5161 C 481.315 -0.99059 2.05579 0
M  V30 5162 C 482.293 -1.31884 0.951065 0
M  V30 5163 O 483.477 -1.43592 1.22121 0
M  V30 5164 C 480.604 -2.31125 2.47586 0
M  V30 5165 C 479.65 -2.13777 3.69055 0
M  V30 5166 S 480.483 -1.4388 5.15809 0
M  V30 5167 C 481.639 -2.77321 5.6111 0
M  V30 5168 H 481.872 -0.581976 2.91548 0
M  V30 5169 H 479.405 -0.184876 1.53289 0
M  V30 5170 H 481.363 -3.07049 2.72454 0
M  V30 5171 H 480.024 -2.6912 1.61967 0
M  V30 5172 H 479.217 -3.11405 3.96287 0
M  V30 5173 H 478.819 -1.45996 3.44327 0
M  V30 5174 H 481.111 -3.73565 5.65204 0
M  V30 5175 H 482.054 -2.54756 6.60685 0
M  V30 5176 H 482.462 -2.82459 4.88751 0
M  V30 5177 N 481.861 -1.55662 -0.24637 0
M  V30 5178 C 482.824 -1.89558 -1.28842 0
M  V30 5179 C 483.824 -0.772082 -1.41052 0
M  V30 5180 O 485.014 -1.04007 -1.39743 0
M  V30 5181 C 482.146 -2.12449 -2.66605 0
M  V30 5182 H 483.339 -2.82735 -1.00004 0
M  V30 5183 H 480.892 -1.48562 -0.485684 0
M  V30 5184 H 481.627 -1.21742 -3.00582 0
M  V30 5185 H 481.412 -2.94273 -2.59125 0
M  V30 5186 H 482.902 -2.39854 -3.41847 0
M  V30 5187 N 483.339 0.512053 -1.4905 0
M  V30 5188 C 484.755 0.84224 -1.35567 0
M  V30 5189 C 484.955 1.97878 -0.380319 0
M  V30 5190 O 484.011 2.51769 0.19201 0
M  V30 5191 C 485.324 1.19286 -2.76028 0
M  V30 5192 C 486.872 1.30171 -2.84648 0
M  V30 5193 C 487.347 1.68568 -4.25851 0
M  V30 5194 N 488.838 1.75638 -4.28609 0
M  V30 5195 C 489.573 2.06769 -5.34821 0
M  V30 5196 N 489.069 2.36201 -6.51292 0
M  V30 5197 N 490.862 2.07927 -5.22229 0
M  V30 5198 H 483.013 -0.237574 -2.11067 0
M  V30 5199 H 485.276 -0.0436747 -0.946993 0
M  V30 5200 H 484.982 0.431199 -3.49047 0
M  V30 5201 H 484.856 2.13889 -3.10695 0
M  V30 5202 H 487.243 2.05411 -2.11873 0
M  V30 5203 H 487.324 0.336457 -2.53578 0
M  V30 5204 H 486.968 0.938824 -4.99148 0
M  V30 5205 H 486.898 2.66174 -4.54377 0
M  V30 5206 H 489.389 1.55097 -3.44606 0
M  V30 5207 H 489.702 2.59112 -7.28066 0
M  V30 5208 H 488.047 2.33681 -6.54536 0
M  V30 5209 H 491.238 1.84403 -4.30248 0
M  V30 5210 H 491.411 2.31856 -6.05101 0
M  V30 5211 N 484.817 1.37938 0.762283 0
M  V30 5212 C 486.066 1.32989 1.51647 0
M  V30 5213 C 486.379 -0.0802922 1.95435 0
M  V30 5214 O 487.585 -0.252295 2.70325 0
M  V30 5215 C 486.041 2.33485 2.73885 0
M  V30 5216 C 485.649 3.80079 2.37157 0
M  V30 5217 C 487.393 2.37563 3.51801 0
M  V30 5218 C 485.3 4.72283 3.55954 0
M  V30 5219 H 484.23 0.494301 0.56937 0
M  V30 5220 H 486.881 1.63448 0.834083 0
M  V30 5221 H 485.263 1.96056 3.44061 0
M  V30 5222 H 486.437 4.26398 1.74704 0
M  V30 5223 H 484.752 3.79037 1.72395 0
M  V30 5224 H 487.349 3.0365 4.40114 0
M  V30 5225 H 487.692 1.39199 3.92338 0
M  V30 5226 H 488.225 2.73747 2.8863 0
M  V30 5227 H 484.964 5.7181 3.2049 0
M  V30 5228 H 484.484 4.30663 4.1748 0
M  V30 5229 H 486.163 4.89876 4.22647 0
M  V30 5230 N 486.295 -0.989507 1.22664 0
M  V30 5231 C 487.225 -2.09847 1.02404 0
M  V30 5232 C 488.206 -1.70007 -0.0561303 0
M  V30 5233 O 489.391 -1.93906 0.106748 0
M  V30 5234 C 486.521 -3.41996 0.604663 0
M  V30 5235 C 485.475 -3.95699 1.63115 0
M  V30 5236 C 484.801 -5.23936 1.0675 0
M  V30 5237 C 486.101 -4.25999 3.02196 0
M  V30 5238 H 487.795 -2.27054 1.95158 0
M  V30 5239 H 485.341 -1.09111 0.939727 0
M  V30 5240 H 487.294 -4.1899 0.45002 0
M  V30 5241 H 486.018 -3.24626 -0.35855 0
M  V30 5242 H 484.677 -3.2084 1.77362 0
M  V30 5243 H 484.325 -5.02909 0.0955422 0
M  V30 5244 H 484.025 -5.60833 1.75328 0
M  V30 5245 H 485.549 -6.0356 0.924516 0
M  V30 5246 H 486.963 -4.93777 2.91303 0
M  V30 5247 H 485.36 -4.74076 3.67929 0
M  V30 5248 H 486.43 -3.33636 3.51873 0
M  V30 5249 N 487.773 -1.03688 -1.18687 0
M  V30 5250 C 488.72 -0.624624 -2.22187 0
M  V30 5251 C 489.69 0.365636 -1.62026 0
M  V30 5252 O 490.875 0.260481 -1.89014 0
M  V30 5253 C 488.015 0.0101738 -3.45099 0
M  V30 5254 C 487.128 -1.02709 -4.19613 0
M  V30 5255 C 486.263 -0.361213 -5.2997 0
M  V30 5256 C 485.302 -1.38384 -5.96252 0
M  V30 5257 N 484.439 -0.743196 -6.98155 0
M  V30 5258 H 489.279 -1.51176 -2.56807 0
M  V30 5259 H 486.816 -0.75636 -1.26165 0
M  V30 5260 H 488.774 0.395528 -4.15321 0
M  V30 5261 H 487.404 0.860848 -3.1111 0
M  V30 5262 H 486.456 -1.53043 -3.48256 0
M  V30 5263 H 487.768 -1.80398 -4.65036 0
M  V30 5264 H 486.922 0.0785537 -6.06649 0
M  V30 5265 H 485.661 0.447799 -4.8564 0
M  V30 5266 H 484.666 -1.83378 -5.18317 0
M  V30 5267 H 485.891 -2.19448 -6.42666 0
M  V30 5268 H 483.837 0.0455789 -6.55984 0
M  V30 5269 H 483.754 -1.45784 -7.41811 0
M  V30 5270 H 485.022 -0.327698 -7.78811 0
M  V30 5271 N 489.251 1.34841 -0.815825 0
M  V30 5272 C 490.161 2.33425 -0.234462 0
M  V30 5273 C 491.177 1.62295 0.627413 0
M  V30 5274 O 492.353 1.94109 0.536987 0
M  V30 5275 C 489.418 3.41471 0.599849 0
M  V30 5276 C 488.479 4.28362 -0.283596 0
M  V30 5277 C 487.712 5.31248 0.51099 0
M  V30 5278 O 487.935 5.43056 1.7449 0
M  V30 5279 O 486.869 6.01812 -0.10297 0
M  V30 5280 H 490.695 2.84962 -1.05024 0
M  V30 5281 H 488.28 1.37774 -0.577809 0
M  V30 5282 H 490.162 4.07464 1.07475 0
M  V30 5283 H 488.837 2.9219 1.39308 0
M  V30 5284 H 487.744 3.65318 -0.805836 0
M  V30 5285 H 489.077 4.81066 -1.041 0
M  V30 5286 N 490.729 0.570148 1.46925 0
M  V30 5287 C 491.659 -0.158274 2.32963 0
M  V30 5288 C 492.64 -0.896093 1.44583 0
M  V30 5289 O 493.825 -0.874022 1.7342 0
M  V30 5290 C 490.955 -1.18055 3.26619 0
M  V30 5291 C 489.909 -0.558379 4.24342 0
M  V30 5292 C 489.235 -1.68623 5.07415 0
M  V30 5293 C 490.535 0.496295 5.19937 0
M  V30 5294 H 492.229 0.560046 2.94115 0
M  V30 5295 H 489.775 0.270775 1.41431 0
M  V30 5296 H 491.728 -1.69841 3.85658 0
M  V30 5297 H 490.452 -1.92899 2.63548 0
M  V30 5298 H 489.111 -0.0617157 3.66548 0
M  V30 5299 H 488.759 -2.42402 4.40738 0
M  V30 5300 H 488.459 -1.27564 5.73586 0
M  V30 5301 H 489.983 -2.20709 5.69315 0
M  V30 5302 H 491.397 0.0640052 5.73264 0
M  V30 5303 H 489.794 0.82649 5.94381 0
M  V30 5304 H 490.864 1.38735 4.6463 0
M  V30 5305 N 492.207 -1.54576 0.307264 0
M  V30 5306 C 493.154 -2.23751 -0.56604 0
M  V30 5307 C 494.124 -1.22235 -1.12462 0
M  V30 5308 O 495.309 -1.50873 -1.16799 0
M  V30 5309 C 492.449 -2.98661 -1.72903 0
M  V30 5310 C 491.562 -4.14963 -1.20124 0
M  V30 5311 C 490.697 -4.77441 -2.3286 0
M  V30 5312 C 489.736 -5.85875 -1.77247 0
M  V30 5313 N 488.873 -6.42282 -2.8358 0
M  V30 5314 H 493.713 -2.97984 0.0304578 0
M  V30 5315 H 491.25 -1.47076 0.0268015 0
M  V30 5316 H 493.208 -3.40329 -2.41313 0
M  V30 5317 H 491.838 -2.26793 -2.29706 0
M  V30 5318 H 490.89 -3.78193 -0.409198 0
M  V30 5319 H 492.202 -4.93066 -0.754171 0
M  V30 5320 H 491.356 -5.21993 -3.09205 0
M  V30 5321 H 490.095 -3.98684 -2.80896 0
M  V30 5322 H 489.1 -5.40741 -0.993926 0
M  V30 5323 H 490.325 -6.6652 -1.30107 0
M  V30 5324 H 488.271 -5.66406 -3.30939 0
M  V30 5325 H 488.188 -7.1575 -2.43388 0
M  V30 5326 H 489.456 -6.91492 -3.59804 0
M  V30 5327 N 493.685 -0.035106 -1.57561 0
M  V30 5328 C 494.617 0.973604 -2.07494 0
M  V30 5329 C 495.63 1.28504 -0.999534 0
M  V30 5330 O 496.819 1.24864 -1.27559 0
M  V30 5331 C 493.919 2.29945 -2.48955 0
M  V30 5332 C 493.092 2.1723 -3.79644 0
M  V30 5333 C 492.151 3.328 -4.07592 0
M  V30 5334 O 491.177 3.09418 -4.77754 0
M  V30 5335 N 492.379 4.56779 -3.58236 0
M  V30 5336 H 495.144 0.547525 -2.94656 0
M  V30 5337 H 492.705 0.151515 -1.61189 0
M  V30 5338 H 494.697 3.06097 -2.64739 0
M  V30 5339 H 493.267 2.64173 -1.67126 0
M  V30 5340 H 492.487 1.25768 -3.73599 0
M  V30 5341 H 493.775 2.05945 -4.65257 0
M  V30 5342 H 493.173 4.78668 -3.01485 0
M  V30 5343 H 491.73 5.30079 -3.79288 0
M  V30 5344 N 495.163 1.55791 0.238111 0
M  V30 5345 C 496.11 1.9105 1.29493 0
M  V30 5346 C 497.08 0.765733 1.47397 0
M  V30 5347 O 498.265 1.02017 1.61236 0
M  V30 5348 C 495.405 2.21826 2.64362 0
M  V30 5349 C 494.518 3.49153 2.54394 0
M  V30 5350 C 493.653 3.69455 3.81676 0
M  V30 5351 C 492.692 4.90353 3.66361 0
M  V30 5352 N 491.829 5.07131 4.85554 0
M  V30 5353 H 496.669 2.81172 0.987233 0
M  V30 5354 H 494.206 1.39179 0.476203 0
M  V30 5355 H 496.164 2.37675 3.4288 0
M  V30 5356 H 494.794 1.34897 2.93262 0
M  V30 5357 H 493.846 3.41587 1.67399 0
M  V30 5358 H 495.158 4.37818 2.38991 0
M  V30 5359 H 494.312 3.85311 4.68636 0
M  V30 5360 H 493.051 2.7904 3.99985 0
M  V30 5361 H 492.056 4.74464 2.77784 0
M  V30 5362 H 493.281 5.82237 3.49538 0
M  V30 5363 H 491.227 4.19654 5.04209 0
M  V30 5364 H 491.144 5.89899 4.72816 0
M  V30 5365 H 492.412 5.27407 5.73988 0
M  V30 5366 N 496.642 -0.504142 1.49319 0
M  V30 5367 C 497.592 -1.60284 1.62151 0
M  V30 5368 C 498.576 -1.53657 0.477315 0
M  V30 5369 O 499.768 -1.6124 0.730108 0
M  V30 5370 C 496.897 -2.98909 1.68844 0
M  V30 5371 C 495.983 -3.10544 2.8883 0
M  V30 5372 N 496.374 -2.92078 4.12946 0
M  V30 5373 C 494.672 -3.4164 2.86702 0
M  V30 5374 C 495.373 -3.07812 4.93585 0
M  V30 5375 N 494.349 -3.36549 4.26891 0
M  V30 5376 H 498.151 -1.44656 2.55835 0
M  V30 5377 H 495.665 -0.710198 1.46048 0
M  V30 5378 H 497.662 -3.77865 1.76134 0
M  V30 5379 H 496.322 -3.15609 0.762943 0
M  V30 5380 H 497.333 -2.68316 4.42975 0
M  V30 5381 H 494.01 -3.64537 2.03517 0
M  V30 5382 H 495.4 -2.98054 6.02174 0
M  V30 5383 N 498.12 -1.38341 -0.754957 0
M  V30 5384 C 499.531 -1.30803 -1.3322 0
M  V30 5385 C 499.882 0.0368 -1.96165 0
M  V30 5386 O 499.007 0.938844 -1.94974 0
M  V30 5387 C 499.602 -2.3688 -2.42225 0
M  V30 5388 C 498.161 -2.32925 -2.95674 0
M  V30 5389 C 497.308 -2.19819 -1.69042 0
M  V30 5390 H 500.259 -1.48719 -0.553937 0
M  V30 5391 H 500.28 -2.02517 -3.22129 0
M  V30 5392 H 499.792 -3.34747 -1.96383 0
M  V30 5393 H 497.893 -1.38635 -3.45848 0
M  V30 5394 H 498.006 -3.27008 -3.50146 0
M  V30 5395 H 496.37 -1.66648 -1.92615 0
M  V30 5396 H 497.153 -3.19625 -1.25279 0
M  V30 5397 N 499.598 0.982988 -1.23187 0
M  V30 5398 C 500.875 1.69814 -0.970707 0
M  V30 5399 C 501.255 2.04811 0.511424 0
M  V30 5400 O 500.603 1.73924 1.48198 0
M  V30 5401 C 500.813 2.94143 -1.87831 0
M  V30 5402 C 502.161 3.66712 -2.14026 0
M  V30 5403 O 503.185 3.04171 -1.8536 0
M  V30 5404 O 502.044 4.79258 -2.62629 0
M  V30 5405 H 499.138 0.741659 -0.365884 0
M  V30 5406 H 501.684 1.03844 -1.34218 0
M  V30 5407 H 500.456 2.64858 -2.88038 0
M  V30 5408 H 500.079 3.6785 -1.50905 0
M  V30 5409 N 501.076 1.04316 1.18135 0
M  V30 5410 C 502.023 0.636398 2.21853 0
M  V30 5411 C 502.993 -0.357039 1.62217 0
M  V30 5412 O 504.178 -0.250453 1.89149 0
M  V30 5413 C 501.318 0.00812779 3.45099 0
M  V30 5414 C 500.431 1.04933 4.19062 0
M  V30 5415 C 499.566 0.389313 5.29771 0
M  V30 5416 C 498.605 1.41544 5.9551 0
M  V30 5417 N 497.742 0.78021 6.97751 0
M  V30 5418 H 502.582 1.52536 2.56002 0
M  V30 5419 H 500.119 0.76304 1.25762 0
M  V30 5420 H 502.077 -0.373497 4.15525 0
M  V30 5421 H 500.707 -0.844336 3.11562 0
M  V30 5422 H 499.759 1.54888 3.47439 0
M  V30 5423 H 501.071 1.82862 4.64072 0
M  V30 5424 H 500.225 -0.0463805 6.06682 0
M  V30 5425 H 498.964 -0.422038 4.8587 0
M  V30 5426 H 497.969 1.86124 5.17337 0
M  V30 5427 H 499.194 2.22854 6.41493 0
M  V30 5428 H 497.14 -0.0107899 6.55999 0
M  V30 5429 H 497.057 1.49716 7.41027 0
M  V30 5430 H 498.325 0.368996 7.78626 0
M  V30 5431 N 502.554 -1.34406 0.822964 0
M  V30 5432 C 503.464 -2.33298 0.246838 0
M  V30 5433 C 504.48 -1.62625 -0.618797 0
M  V30 5434 O 505.656 -1.94391 -0.526685 0
M  V30 5435 C 502.721 -3.41785 -0.581731 0
M  V30 5436 C 501.782 -4.28206 0.306309 0
M  V30 5437 C 501.015 -5.31512 -0.48281 0
M  V30 5438 O 501.238 -5.43973 -1.71607 0
M  V30 5439 O 500.172 -6.01749 0.134884 0
M  V30 5440 H 503.998 -2.84401 1.06534 0
M  V30 5441 H 501.583 -1.37466 0.585108 0
M  V30 5442 H 503.465 -4.08028 -1.05313 0
M  V30 5443 H 502.14 -2.92925 -1.37756 0
M  V30 5444 H 501.047 -3.64885 0.825199 0
M  V30 5445 H 502.38 -4.80507 1.06649 0
M  V30 5446 N 504.032 -0.577932 -1.46621 0
M  V30 5447 C 505.281 -0.0594281 -2.01612 0
M  V30 5448 C 505.594 1.30663 -1.45556 0
M  V30 5449 O 506.8 1.91621 -1.92337 0
M  V30 5450 C 505.256 -0.0556666 -3.59857 0
M  V30 5451 C 504.864 -1.41975 -4.24908 0
M  V30 5452 C 506.608 0.409143 -4.22524 0
M  V30 5453 C 504.515 -1.37397 -5.75218 0
M  V30 5454 H 503.445 -0.0184469 -0.753774 0
M  V30 5455 H 506.096 -0.728869 -1.68404 0
M  V30 5456 H 504.478 0.679843 -3.90121 0
M  V30 5457 H 505.652 -2.17461 -4.0626 0
M  V30 5458 H 503.967 -1.82419 -3.74316 0
M  V30 5459 H 506.564 0.46211 -5.32699 0
M  V30 5460 H 506.907 1.42565 -3.91128 0
M  V30 5461 H 507.44 -0.272152 -3.96868 0
M  V30 5462 H 504.179 -2.36714 -6.11267 0
M  V30 5463 H 503.699 -0.661239 -5.96144 0
M  V30 5464 H 505.378 -1.08484 -6.3784 0
M  V30 5465 N 505.51 1.54411 -0.315457 0
M  V30 5466 C 506.42 2.27737 0.56329 0
M  V30 5467 C 507.436 1.31787 1.13614 0
M  V30 5468 O 508.612 1.64791 1.15784 0
M  V30 5469 C 505.677 3.01478 1.71207 0
M  V30 5470 C 504.738 4.12997 1.17185 0
M  V30 5471 C 503.971 4.83212 2.26588 0
M  V30 5472 O 504.194 4.52884 3.46775 0
M  V30 5473 O 503.128 5.70299 1.92463 0
M  V30 5474 H 506.954 3.03683 -0.0319614 0
M  V30 5475 H 504.539 1.49178 -0.0814188 0
M  V30 5476 H 506.421 3.47683 2.38106 0
M  V30 5477 H 505.096 2.28414 2.29366 0
M  V30 5478 H 504.003 3.71159 0.468174 0
M  V30 5479 H 505.336 4.8808 0.635501 0
M  V30 5480 N 506.988 0.0434614 1.5754 0
M  V30 5481 C 507.92 -0.962586 2.08007 0
M  V30 5482 C 508.933 -1.27972 1.00634 0
M  V30 5483 O 510.122 -1.24186 1.28219 0
M  V30 5484 C 507.222 -2.28621 2.50171 0
M  V30 5485 C 506.395 -2.15214 3.80791 0
M  V30 5486 C 505.454 -3.30633 4.09351 0
M  V30 5487 O 504.48 -3.0688 4.79388 0
M  V30 5488 N 505.682 -4.54873 3.60654 0
M  V30 5489 H 508.447 -0.531891 2.94942 0
M  V30 5490 H 506.008 -0.142965 1.61268 0
M  V30 5491 H 508 -3.04689 2.66359 0
M  V30 5492 H 506.57 -2.63283 1.68525 0
M  V30 5493 H 505.79 -1.23785 3.74261 0
M  V30 5494 H 507.078 -2.03475 4.66343 0
M  V30 5495 H 506.476 -4.77063 3.04019 0
M  V30 5496 H 505.033 -5.2806 3.82094 0
M  V30 5497 N 508.466 -1.55915 -0.229846 0
M  V30 5498 C 509.396 -1.94754 -1.28815 0
M  V30 5499 C 510.377 -0.814657 -1.49323 0
M  V30 5500 O 511.562 -1.07631 -1.61645 0
M  V30 5501 C 508.692 -2.25705 -2.63959 0
M  V30 5502 C 507.646 -3.41406 -2.5812 0
M  V30 5503 C 506.972 -3.57941 -3.97218 0
M  V30 5504 C 508.272 -4.76616 -2.13623 0
M  V30 5505 H 509.966 -2.83404 -0.965547 0
M  V30 5506 H 507.512 -1.36353 -0.463028 0
M  V30 5507 H 509.465 -2.51467 -3.38146 0
M  V30 5508 H 508.189 -1.339 -2.9789 0
M  V30 5509 H 506.848 -3.1568 -1.86391 0
M  V30 5510 H 506.496 -2.63526 -4.28443 0
M  V30 5511 H 506.196 -4.35757 -3.94195 0
M  V30 5512 H 507.72 -3.86042 -4.73079 0
M  V30 5513 H 509.134 -5.01637 -2.77549 0
M  V30 5514 H 507.531 -5.57655 -2.21677 0
M  V30 5515 H 508.601 -4.7253 -1.08829 0
M  V30 5516 N 509.944 0.496216 -1.49584 0
M  V30 5517 C 511.193 1.24668 -1.58558 0
M  V30 5518 C 511.506 1.9359 -0.279703 0
M  V30 5519 O 512.712 2.70365 -0.248048 0
M  V30 5520 C 511.168 2.26388 -2.79779 0
M  V30 5521 C 510.776 1.63384 -4.17145 0
M  V30 5522 C 512.52 3.02233 -2.98086 0
M  V30 5523 C 510.427 2.63243 -5.29582 0
M  V30 5524 H 509.357 0.468995 -0.590389 0
M  V30 5525 H 512.008 0.519985 -1.75978 0
M  V30 5526 H 510.39 3.02241 -2.55863 0
M  V30 5527 H 511.564 0.93491 -4.51216 0
M  V30 5528 H 509.879 0.999121 -4.04236 0
M  V30 5529 H 512.476 3.76919 -3.79257 0
M  V30 5530 H 512.819 3.60132 -2.08831 0
M  V30 5531 H 513.352 2.33495 -3.22063 0
M  V30 5532 H 510.091 2.10119 -6.20911 0
M  V30 5533 H 509.611 3.31363 -4.99959 0
M  V30 5534 H 511.29 3.25575 -5.59115 0
M  V30 5535 N 511.423 1.38739 0.74761 0
M  V30 5536 C 512.333 1.38696 1.89211 0
M  V30 5537 C 513.349 0.283303 1.71678 0
M  V30 5538 O 514.525 0.522713 1.94498 0
M  V30 5539 C 511.59 1.21662 3.24653 0
M  V30 5540 C 510.651 2.41886 3.54669 0
M  V30 5541 C 509.884 2.25655 4.83648 0
M  V30 5542 O 510.107 1.25339 5.56459 0
M  V30 5543 O 509.041 3.14372 5.13277 0
M  V30 5544 H 512.867 2.35143 1.92202 0
M  V30 5545 H 510.452 1.19721 0.893708 0
M  V30 5546 H 512.334 1.14246 4.05618 0
M  V30 5547 H 511.009 0.283024 3.2246 0
M  V30 5548 H 509.916 2.54877 2.73841 0
M  V30 5549 H 511.249 3.33895 3.61628 0
M  V30 5550 N 512.901 -0.976442 1.23707 0
M  V30 5551 C 513.831 -2.08749 1.04624 0
M  V30 5552 C 514.812 -1.70057 -0.0380956 0
M  V30 5553 O 515.997 -1.93782 0.127308 0
M  V30 5554 C 513.127 -3.41335 0.640902 0
M  V30 5555 C 512.081 -3.93947 1.67302 0
M  V30 5556 C 511.407 -5.22774 1.12301 0
M  V30 5557 C 512.707 -4.22769 3.06697 0
M  V30 5558 H 514.401 -2.24972 1.97555 0
M  V30 5559 H 511.947 -1.08108 0.951247 0
M  V30 5560 H 513.9 -4.18489 0.494434 0
M  V30 5561 H 512.624 -3.24988 -0.324099 0
M  V30 5562 H 511.283 -3.18941 1.80755 0
M  V30 5563 H 510.931 -5.0278 0.148877 0
M  V30 5564 H 510.631 -5.58942 1.81267 0
M  V30 5565 H 512.155 -6.02546 0.988479 0
M  V30 5566 H 513.569 -4.90659 2.96524 0
M  V30 5567 H 511.966 -4.70147 3.72937 0
M  V30 5568 H 513.036 -3.29885 3.55392 0
M  V30 5569 N 514.379 -1.04941 -1.1758 0
M  V30 5570 C 515.342 -0.652456 -2.19717 0
M  V30 5571 C 516.342 0.294745 -1.58076 0
M  V30 5572 O 517.532 0.0789579 -1.74021 0
M  V30 5573 C 514.664 0.0420712 -3.40874 0
M  V30 5574 H 515.857 -1.55642 -2.5635 0
M  V30 5575 H 513.41 -0.842995 -1.31618 0
M  V30 5576 H 514.145 0.95943 -3.09783 0
M  V30 5577 H 513.93 -0.638844 -3.86861 0
M  V30 5578 H 515.42 0.306 -4.16477 0
M  V30 5579 N 515.857 1.33968 -0.830081 0
M  V30 5580 C 516.805 2.31301 -0.245435 0
M  V30 5581 C 517.799 1.57734 0.617762 0
M  V30 5582 O 519.005 1.72674 0.508303 0
M  V30 5583 H 515.38 0.749552 -0.0606316 0
M  V30 5584 H 517.351 2.78129 -1.08105 0
M  V30 5585 C 516.1 3.42961 0.572084 0
M  V30 5586 H 515.423 3.99714 -0.0828118 0
M  V30 5587 H 516.863 4.13286 0.94715 0
M  V30 5588 C 515.322 2.88043 1.74737 0
M  V30 5589 O 515.852 2.83508 2.8458 0
M  V30 5590 N 514.058 2.44768 1.56642 0
M  V30 5591 H 513.605 2.48656 0.672901 0
M  V30 5592 H 513.563 2.08375 2.3543 0
M  V30 5593 N 517.335 0.585699 1.46312 0
M  V30 5594 C 518.565 0.0780166 2.06453 0
M  V30 5595 C 518.973 -1.2336 1.43454 0
M  V30 5596 O 518.316 -1.75734 0.535086 0
M  V30 5597 C 518.378 -0.158951 3.59148 0
M  V30 5598 C 518.042 1.06752 4.44357 0
M  V30 5599 C 519.039 1.98031 4.80708 0
M  V30 5600 C 516.724 1.2902 4.85447 0
M  V30 5601 C 518.718 3.09924 5.5698 0
M  V30 5602 C 516.405 2.41218 5.61478 0
M  V30 5603 C 517.403 3.31499 5.97158 0
M  V30 5604 O 517.091 4.41747 6.71651 0
M  V30 5605 H 516.823 0.0558894 0.673686 0
M  V30 5606 H 519.377 0.806994 1.88883 0
M  V30 5607 H 517.607 -0.942575 3.75037 0
M  V30 5608 H 519.296 -0.615513 4.01206 0
M  V30 5609 H 520.062 1.82043 4.49539 0
M  V30 5610 H 515.941 0.596567 4.57124 0
M  V30 5611 H 519.485 3.80415 5.84748 0
M  V30 5612 H 515.382 2.57167 5.9206 0
M  V30 5613 H 516.15 4.40152 6.90079 0
M  V30 5614 N 518.813 -1.54241 0.323641 0
M  V30 5615 C 519.745 -2.21836 -0.576311 0
M  V30 5616 C 520.758 -1.21837 -1.07979 0
M  V30 5617 O 521.947 -1.48306 -0.99336 0
M  V30 5618 C 519.047 -2.86923 -1.80356 0
M  V30 5619 C 518.22 -4.1306 -1.43875 0
M  V30 5620 C 517.279 -4.6174 -2.52353 0
M  V30 5621 O 516.305 -5.26421 -2.16494 0
M  V30 5622 N 517.507 -4.35974 -3.83284 0
M  V30 5623 H 520.272 -2.997 0.00247987 0
M  V30 5624 H 517.833 -1.61233 0.146848 0
M  V30 5625 H 519.825 -3.16414 -2.52318 0
M  V30 5626 H 518.395 -2.12765 -2.29019 0
M  V30 5627 H 517.615 -3.90334 -0.550752 0
M  V30 5628 H 518.903 -4.95148 -1.17071 0
M  V30 5629 H 518.301 -3.84203 -4.15216 0
M  V30 5630 H 516.858 -4.70119 -4.51477 0
M  V30 5631 N 520.291 -0.0518155 -1.57515 0
M  V30 5632 C 521.537 0.622745 -1.93002 0
M  V30 5633 C 521.87 1.70456 -0.930499 0
M  V30 5634 O 521.145 1.94452 0.0434086 0
M  V30 5635 C 521.428 1.21824 -3.38867 0
M  V30 5636 C 521.281 0.144434 -4.49568 0
M  V30 5637 C 522.6 2.12968 -3.8514 0
M  V30 5638 H 519.719 0.22491 -0.701844 0
M  V30 5639 H 522.361 -0.113711 -1.89659 0
M  V30 5640 H 520.511 1.8459 -3.41846 0
M  V30 5641 H 522.183 -0.48753 -4.58717 0
M  V30 5642 H 520.426 -0.527424 -4.30582 0
M  V30 5643 H 521.097 0.601127 -5.48717 0
M  V30 5644 H 523.573 1.60163 -3.8404 0
M  V30 5645 H 522.449 2.51578 -4.87852 0
M  V30 5646 H 522.71 3.03004 -3.21934 0
M  V30 5647 N 521.769 1.56035 0.221574 0
M  V30 5648 C 522.699 1.95434 1.2778 0
M  V30 5649 C 523.68 0.822564 1.48889 0
M  V30 5650 O 524.865 1.08486 1.61072 0
M  V30 5651 C 521.995 2.27102 2.62759 0
M  V30 5652 C 520.949 3.4277 2.56306 0
M  V30 5653 C 520.275 3.60043 3.95314 0
M  V30 5654 C 521.575 4.77742 2.11093 0
M  V30 5655 H 523.269 2.83912 0.950504 0
M  V30 5656 H 520.815 1.36596 0.455791 0
M  V30 5657 H 522.768 2.53256 3.36807 0
M  V30 5658 H 521.492 1.35478 2.97176 0
M  V30 5659 H 520.151 3.16664 1.84715 0
M  V30 5660 H 519.799 2.65794 4.27039 0
M  V30 5661 H 519.499 4.37841 3.91879 0
M  V30 5662 H 521.023 3.88545 4.71025 0
M  V30 5663 H 522.437 5.03102 2.74885 0
M  V30 5664 H 520.834 5.58823 2.18716 0
M  V30 5665 H 521.904 4.731 1.06321 0
M  V30 5666 N 523.247 -0.488276 1.49845 0
M  V30 5667 C 524.472 -1.26997 1.63971 0
M  V30 5668 C 524.897 -1.85427 0.315994 0
M  V30 5669 O 524.255 -1.66475 -0.718032 0
M  V30 5670 C 524.303 -2.36689 2.72049 0
M  V30 5671 O 523.407 -3.40882 2.32107 0
M  V30 5672 H 522.748 -0.374376 0.548396 0
M  V30 5673 H 525.278 -0.583104 1.96115 0
M  V30 5674 H 525.288 -2.82262 2.94605 0
M  V30 5675 H 523.963 -1.93529 3.68129 0
M  V30 5676 H 522.54 -3.01139 2.19931 0
M  V30 5677 N 524.725 -1.39134 -0.740242 0
M  V30 5678 C 525.657 -1.33332 -1.86428 0
M  V30 5679 C 526.67 -0.243042 -1.60976 0
M  V30 5680 O 527.859 -0.501608 -1.71307 0
M  V30 5681 C 524.959 -1.04626 -3.22346 0
M  V30 5682 C 524.132 -2.24826 -3.75196 0
M  V30 5683 C 523.191 -1.92659 -4.89662 0
M  V30 5684 O 522.217 -2.6529 -5.03597 0
M  V30 5685 N 523.419 -0.889575 -5.73643 0
M  V30 5686 H 526.184 -2.30196 -1.91911 0
M  V30 5687 H 523.745 -1.33168 -0.920756 0
M  V30 5688 H 525.737 -0.811347 -3.96484 0
M  V30 5689 H 524.307 -0.165129 -3.12164 0
M  V30 5690 H 523.527 -2.64301 -2.9247 0
M  V30 5691 H 524.815 -3.05015 -4.07239 0
M  V30 5692 H 524.213 -0.287529 -5.64969 0
M  V30 5693 H 522.77 -0.714557 -6.47871 0
M  V30 5694 N 526.204 0.969867 -1.24223 0
M  V30 5695 C 527.136 2.0669 -0.99055 0
M  V30 5696 C 528.149 1.62753 0.0392222 0
M  V30 5697 O 529.338 1.77403 -0.197561 0
M  V30 5698 C 526.438 3.35589 -0.472594 0
M  V30 5699 C 525.611 4.08444 -1.56499 0
M  V30 5700 C 524.67 5.15616 -1.05007 0
M  V30 5701 O 523.696 5.41911 -1.7413 0
M  V30 5702 N 524.898 5.80383 0.116641 0
M  V30 5703 H 527.663 2.28855 -1.93508 0
M  V30 5704 H 525.224 1.13733 -1.15223 0
M  V30 5705 H 527.216 4.04542 -0.112919 0
M  V30 5706 H 525.786 3.10311 0.377617 0
M  V30 5707 H 525.006 3.33798 -2.09696 0
M  V30 5708 H 526.294 4.53882 -2.29932 0
M  V30 5709 H 525.692 5.6142 0.694589 0
M  V30 5710 H 524.249 6.50462 0.417483 0
M  V30 5711 N 527.682 1.05563 1.17022 0
M  V30 5712 C 528.614 0.617888 2.20714 0
M  V30 5713 C 529.627 -0.320303 1.59618 0
M  V30 5714 O 530.816 -0.112449 1.78145 0
M  V30 5715 C 527.916 -0.115333 3.38704 0
M  V30 5716 C 527.089 0.834493 4.29366 0
M  V30 5717 C 526.148 0.141855 5.26009 0
M  V30 5718 O 525.174 0.777151 5.6387 0
M  V30 5719 N 526.376 -1.11934 5.69606 0
M  V30 5720 H 529.141 1.50981 2.58892 0
M  V30 5721 H 526.702 0.938008 1.31958 0
M  V30 5722 H 528.694 -0.588918 4.00392 0
M  V30 5723 H 527.264 -0.908967 2.99093 0
M  V30 5724 H 526.484 1.48762 3.65053 0
M  V30 5725 H 527.772 1.4791 4.86827 0
M  V30 5726 H 527.17 -1.65574 5.40927 0
M  V30 5727 H 525.727 -1.53692 6.33421 0
M  V30 5728 N 529.16 -1.33526 0.837174 0
M  V30 5729 C 530.107 -2.29248 0.267169 0
M  V30 5730 C 531.077 -1.54252 -0.616071 0
M  V30 5731 O 532.262 -1.82559 -0.554699 0
M  V30 5732 C 529.402 -3.40638 -0.553152 0
M  V30 5733 C 528.515 -4.30548 0.353921 0
M  V30 5734 C 527.65 -5.29051 -0.477339 0
M  V30 5735 C 526.689 -6.106 0.42823 0
M  V30 5736 N 525.826 -7.01152 -0.364801 0
M  V30 5737 H 530.666 -2.77398 1.08877 0
M  V30 5738 H 528.203 -1.36496 0.54838 0
M  V30 5739 H 530.161 -4.03921 -1.04422 0
M  V30 5740 H 528.791 -2.93685 -1.33973 0
M  V30 5741 H 527.843 -3.68001 0.963289 0
M  V30 5742 H 529.155 -4.87631 1.04964 0
M  V30 5743 H 528.309 -5.97853 -1.0323 0
M  V30 5744 H 527.048 -4.72541 -1.2065 0
M  V30 5745 H 526.053 -5.40718 0.995219 0
M  V30 5746 H 527.278 -6.69193 1.15573 0
M  V30 5747 H 525.224 -6.47092 -1.07738 0
M  V30 5748 H 525.141 -7.5551 0.272238 0
M  V30 5749 H 526.409 -7.74263 -0.902054 0
M  V30 5750 N 530.638 -0.59345 -1.46 0
M  V30 5751 C 531.863 -0.0872365 -2.07216 0
M  V30 5752 C 532.288 1.2131 -1.43755 0
M  V30 5753 O 531.646 1.73528 -0.525152 0
M  V30 5754 C 531.694 0.0538197 -3.6056 0
M  V30 5755 O 530.798 1.10765 -3.97247 0
M  V30 5756 H 530.139 -0.0676598 -0.660544 0
M  V30 5757 H 532.669 -0.819445 -1.87473 0
M  V30 5758 H 532.679 0.256567 -4.07193 0
M  V30 5759 H 531.354 -0.895739 -4.0614 0
M  V30 5760 H 529.931 0.882501 -3.62307 0
M  V30 5761 N 532.116 1.54067 -0.331816 0
M  V30 5762 C 533.532 1.59587 0.0205388 0
M  V30 5763 C 533.732 1.34813 1.49759 0
M  V30 5764 O 532.788 1.13661 2.25471 0
M  V30 5765 C 534.101 2.97959 -0.405103 0
M  V30 5766 C 535.649 3.10964 -0.356454 0
M  V30 5767 C 536.124 4.51694 -0.757384 0
M  V30 5768 N 537.615 4.57709 -0.71111 0
M  V30 5769 C 538.35 5.64729 -0.993427 0
M  V30 5770 N 537.846 6.79652 -1.3433 0
M  V30 5771 N 539.639 5.54546 -0.918442 0
M  V30 5772 H 531.79 1.68426 -1.29407 0
M  V30 5773 H 534.053 0.78819 -0.526745 0
M  V30 5774 H 533.759 3.21115 -1.43451 0
M  V30 5775 H 533.633 3.76524 0.225692 0
M  V30 5776 H 536.02 2.87538 0.663763 0
M  V30 5777 H 536.101 2.34484 -1.02229 0
M  V30 5778 H 535.745 4.75853 -1.77555 0
M  V30 5779 H 535.675 5.26555 -0.0691444 0
M  V30 5780 H 538.166 3.75176 -0.452883 0
M  V30 5781 H 538.479 7.57221 -1.54388 0
M  V30 5782 H 536.824 6.81128 -1.38164 0
M  V30 5783 H 540.015 4.63641 -0.644536 0
M  V30 5784 H 540.188 6.37861 -1.14181 0
M  V30 5785 N 533.594 0.0601682 1.57485 0
M  V30 5786 C 534.557 -0.896373 2.10945 0
M  V30 5787 C 535.557 -1.23402 1.03095 0
M  V30 5788 O 536.747 -1.16921 1.29132 0
M  V30 5789 C 533.879 -2.20346 2.60116 0
M  V30 5790 H 535.072 -0.432778 2.96761 0
M  V30 5791 H 532.625 -0.188372 1.55161 0
M  V30 5792 H 533.36 -2.71268 1.7772 0
M  V30 5793 H 533.145 -1.9714 3.38937 0
M  V30 5794 H 534.635 -2.88846 3.01592 0
M  V30 5795 N 535.072 -1.5615 -0.213296 0
M  V30 5796 C 536.319 -1.79546 -0.936462 0
M  V30 5797 C 536.647 -0.630337 -1.84003 0
M  V30 5798 O 535.902 0.384883 -1.91878 0
M  V30 5799 C 536.201 -3.08772 -1.79985 0
M  V30 5800 C 535.867 -4.38532 -1.04882 0
M  V30 5801 C 534.529 -4.73787 -0.841393 0
M  V30 5802 C 536.881 -5.18609 -0.51907 0
M  V30 5803 C 534.209 -5.86627 -0.0924403 0
M  V30 5804 C 536.561 -6.32229 0.216581 0
M  V30 5805 C 535.225 -6.6608 0.435191 0
M  V30 5806 H 534.495 -0.657004 -0.342676 0
M  V30 5807 H 537.142 -1.9041 -0.204051 0
M  V30 5808 H 535.447 -2.93065 -2.60038 0
M  V30 5809 H 537.144 -3.24077 -2.36168 0
M  V30 5810 H 533.734 -4.10855 -1.22048 0
M  V30 5811 H 537.918 -4.91801 -0.666775 0
M  V30 5812 H 533.174 -6.11338 0.087081 0
M  V30 5813 H 537.348 -6.93503 0.634538 0
M  V30 5814 H 534.975 -7.5336 1.01746 0
M  V30 5815 N 536.55 0.480323 -1.50102 0
M  V30 5816 C 537.78 1.25475 -1.64133 0
M  V30 5817 C 538.188 1.8647 -0.320272 0
M  V30 5818 O 537.531 1.69561 0.70673 0
M  V30 5819 C 537.593 2.40996 -2.6676 0
M  V30 5820 C 537.257 2.00711 -4.10565 0
M  V30 5821 C 538.254 1.53492 -4.96725 0
M  V30 5822 C 535.939 2.09714 -4.56427 0
M  V30 5823 C 537.933 1.15806 -6.26792 0
M  V30 5824 C 535.62 1.7164 -5.86501 0
M  V30 5825 C 536.618 1.24763 -6.71508 0
M  V30 5826 O 536.306 0.872122 -7.99155 0
M  V30 5827 H 536.038 0.385983 -0.554971 0
M  V30 5828 H 538.592 0.580848 -1.97016 0
M  V30 5829 H 536.822 3.11528 -2.291 0
M  V30 5830 H 538.511 3.02981 -2.70106 0
M  V30 5831 H 539.277 1.45966 -4.62514 0
M  V30 5832 H 535.156 2.4515 -3.90413 0
M  V30 5833 H 538.7 0.791465 -6.93096 0
M  V30 5834 H 534.597 1.78822 -6.20236 0
M  V30 5835 H 535.365 1.00178 -8.12346 0
M  V30 5836 N 538.028 1.39524 0.732853 0
M  V30 5837 C 539.444 1.21176 1.03868 0
M  V30 5838 C 539.644 0.0748448 2.01361 0
M  V30 5839 O 538.7 -0.57281 2.45917 0
M  V30 5840 C 540.013 2.54667 1.59892 0
M  V30 5841 C 541.561 2.6153 1.71962 0
M  V30 5842 C 542.036 3.95248 2.31394 0
M  V30 5843 N 543.527 3.96899 2.38801 0
M  V30 5844 C 544.262 4.97138 2.85729 0
M  V30 5845 N 543.758 6.07775 3.32537 0
M  V30 5846 N 545.551 4.84516 2.84957 0
M  V30 5847 H 537.702 2.12225 0.086304 0
M  V30 5848 H 539.965 0.942614 0.100907 0
M  V30 5849 H 539.671 3.38423 0.95721 0
M  V30 5850 H 539.545 2.74538 2.58668 0
M  V30 5851 H 541.932 1.78156 2.35254 0
M  V30 5852 H 542.013 2.45507 0.718327 0
M  V30 5853 H 541.657 4.79054 1.68729 0
M  V30 5854 H 541.587 4.08593 3.32204 0
M  V30 5855 H 544.078 3.16998 2.05719 0
M  V30 5856 H 544.391 6.8017 3.66862 0
M  V30 5857 H 542.736 6.11366 3.30541 0
M  V30 5858 H 545.927 3.97185 2.47713 0
M  V30 5859 H 546.1 5.62783 3.21215 0
M  V30 5860 N 539.506 -0.963266 1.24736 0
M  V30 5861 C 540.755 -1.70115 1.08369 0
M  V30 5862 C 541.068 -1.91939 -0.376688 0
M  V30 5863 O 542.274 -2.6334 -0.660624 0
M  V30 5864 C 540.73 -3.06218 1.89099 0
M  V30 5865 C 540.338 -2.92221 3.39574 0
M  V30 5866 C 542.082 -3.83848 1.81275 0
M  V30 5867 C 539.989 -4.23662 4.12631 0
M  V30 5868 H 538.919 -0.637944 0.401924 0
M  V30 5869 H 541.57 -1.07304 1.48856 0
M  V30 5870 H 539.952 -3.69884 1.41429 0
M  V30 5871 H 541.126 -2.37541 3.94856 0
M  V30 5872 H 539.441 -2.28054 3.48397 0
M  V30 5873 H 542.038 -4.81188 2.33158 0
M  V30 5874 H 542.381 -4.08949 0.778895 0
M  V30 5875 H 542.914 -3.26918 2.26649 0
M  V30 5876 H 539.653 -4.03753 5.16395 0
M  V30 5877 H 539.173 -4.78141 3.62135 0
M  V30 5878 H 540.852 -4.92256 4.19873 0
M  V30 5879 N 540.985 -1.06182 -1.16461 0
M  V30 5880 C 541.917 -0.629584 -2.20383 0
M  V30 5881 C 542.93 0.311834 -1.59786 0
M  V30 5882 O 544.119 0.103 -1.78203 0
M  V30 5883 C 541.219 0.0973695 -3.3876 0
M  V30 5884 C 540.392 -0.857252 -4.28917 0
M  V30 5885 C 539.451 -0.169749 -5.25926 0
M  V30 5886 O 538.477 -0.807044 -5.6345 0
M  V30 5887 N 539.679 1.08911 -5.70192 0
M  V30 5888 H 542.444 -1.52352 -2.58087 0
M  V30 5889 H 540.005 -0.944993 -1.31459 0
M  V30 5890 H 541.997 0.567676 -4.00699 0
M  V30 5891 H 540.567 0.893093 -2.99571 0
M  V30 5892 H 539.787 -1.50696 -3.64259 0
M  V30 5893 H 541.075 -1.50489 -4.86035 0
M  V30 5894 H 540.473 1.62703 -5.41797 0
M  V30 5895 H 539.03 1.50331 -6.34227 0
M  V30 5896 N 542.463 1.3308 -0.844243 0
M  V30 5897 C 543.426 2.27403 -0.286485 0
M  V30 5898 C 544.426 1.51179 0.547872 0
M  V30 5899 O 545.616 1.70421 0.360886 0
M  V30 5900 C 542.748 3.35653 0.595813 0
M  V30 5901 H 543.941 2.78248 -1.11885 0
M  V30 5902 H 541.494 1.43574 -0.617749 0
M  V30 5903 H 542.229 2.90058 1.4504 0
M  V30 5904 H 542.014 3.921 -0.00125994 0
M  V30 5905 H 543.504 4.05958 0.979168 0
M  V30 5906 N 543.941 0.601185 1.45683 0
M  V30 5907 C 545.169 0.100054 2.06658 0
M  V30 5908 C 545.584 -1.21285 1.44691 0
M  V30 5909 O 544.941 -1.73735 0.558772 0
M  V30 5910 C 544.992 -0.0528579 3.61461 0
M  V30 5911 O 544.713 1.20809 4.21114 0
M  V30 5912 C 546.214 -0.586193 4.39407 0
M  V30 5913 H 543.434 0.065905 0.667756 0
M  V30 5914 H 545.978 0.827101 1.87028 0
M  V30 5915 H 544.133 -0.730203 3.80456 0
M  V30 5916 H 544.547 1.03368 5.14213 0
M  V30 5917 H 546.021 -0.642297 5.4825 0
M  V30 5918 H 546.498 -1.60713 4.0874 0
M  V30 5919 H 547.104 0.0568935 4.25262 0
M  V30 5920 N 545.419 -1.53889 0.339982 0
M  V30 5921 C 546.835 -1.59595 -0.0120752 0
M  V30 5922 C 547.035 -1.35605 -1.49042 0
M  V30 5923 O 546.091 -1.14856 -2.24865 0
M  V30 5924 C 547.404 -2.9774 0.420898 0
M  V30 5925 C 548.952 -3.1077 0.37294 0
M  V30 5926 C 549.427 -4.51286 0.781327 0
M  V30 5927 N 550.918 -4.57325 0.735374 0
M  V30 5928 C 551.653 -5.64194 1.02336 0
M  V30 5929 N 551.149 -6.7893 1.37933 0
M  V30 5930 N 552.942 -5.54051 0.947838 0
M  V30 5931 H 545.093 -1.67738 1.30299 0
M  V30 5932 H 547.356 -0.785385 0.530918 0
M  V30 5933 H 547.062 -3.20349 1.45152 0
M  V30 5934 H 546.936 -3.76639 -0.205721 0
M  V30 5935 H 549.323 -2.87886 -0.648505 0
M  V30 5936 H 549.404 -2.33939 1.03472 0
M  V30 5937 H 549.048 -4.74905 1.80077 0
M  V30 5938 H 548.978 -5.26511 0.0970679 0
M  V30 5939 H 551.469 -3.74931 0.472773 0
M  V30 5940 H 551.782 -7.56392 1.58402 0
M  V30 5941 H 550.127 -6.80386 1.41774 0
M  V30 5942 H 553.318 -4.63293 0.669115 0
M  V30 5943 H 553.491 -6.37246 1.17563 0
M  V30 5944 N 546.897 -0.0685191 -1.57451 0
M  V30 5945 C 547.827 0.89747 -2.15564 0
M  V30 5946 C 548.808 1.31266 -1.08181 0
M  V30 5947 O 549.993 1.38429 -1.36202 0
M  V30 5948 C 547.123 2.16623 -2.71463 0
M  V30 5949 C 546.077 1.89054 -3.83982 0
M  V30 5950 C 545.403 3.22532 -4.26471 0
M  V30 5951 C 546.703 1.1984 -5.08366 0
M  V30 5952 H 548.397 0.413373 -2.96533 0
M  V30 5953 H 545.943 0.197391 -1.42641 0
M  V30 5954 H 547.896 2.84614 -3.10761 0
M  V30 5955 H 546.62 2.67269 -1.8771 0
M  V30 5956 H 545.279 1.23469 -3.45183 0
M  V30 5957 H 544.927 3.71013 -3.39644 0
M  V30 5958 H 544.627 3.04879 -5.02317 0
M  V30 5959 H 546.151 3.91727 -4.68383 0
M  V30 5960 H 547.565 1.77896 -5.45001 0
M  V30 5961 H 545.962 1.12456 -5.89469 0
M  V30 5962 H 547.032 0.176996 -4.84577 0
M  V30 5963 N 548.375 1.56261 0.205012 0
M  V30 5964 C 549.308 1.88797 1.28183 0
M  V30 5965 C 550.286 0.747018 1.44424 0
M  V30 5966 O 551.47 0.997039 1.59973 0
M  V30 5967 C 548.597 2.10949 2.64987 0
M  V30 5968 C 547.643 3.33649 2.6567 0
M  V30 5969 S 548.476 4.89078 2.18088 0
M  V30 5970 C 549.632 5.14286 3.56736 0
M  V30 5971 H 549.865 2.79837 1.00393 0
M  V30 5972 H 547.398 1.48911 0.408042 0
M  V30 5973 H 549.356 2.24395 3.4374 0
M  V30 5974 H 548.017 1.20678 2.89993 0
M  V30 5975 H 547.21 3.46245 3.66239 0
M  V30 5976 H 546.812 3.19146 1.94992 0
M  V30 5977 H 549.104 5.04198 4.52537 0
M  V30 5978 H 550.047 6.16096 3.49043 0
M  V30 5979 H 550.455 4.41957 3.51189 0
M  V30 5980 N 549.853 -0.472356 1.50355 0
M  V30 5981 C 551.081 -1.24784 1.65035 0
M  V30 5982 C 551.496 -1.85837 0.333176 0
M  V30 5983 O 550.853 -1.69168 -0.68472 0
M  V30 5984 C 550.904 -2.35747 2.74054 0
M  V30 5985 O 550.625 -1.77197 4.00665 0
M  V30 5986 C 552.126 -3.26645 2.99696 0
M  V30 5987 H 549.346 -0.377432 0.554785 0
M  V30 5988 H 551.89 -0.563962 1.9657 0
M  V30 5989 H 550.045 -2.99912 2.45217 0
M  V30 5990 H 550.459 -2.5026 4.60945 0
M  V30 5991 H 551.933 -4.00718 3.79644 0
M  V30 5992 H 552.41 -3.8535 2.10718 0
M  V30 5993 H 553.016 -2.68218 3.3006 0
M  V30 5994 N 551.331 -1.39911 -0.725443 0
M  V30 5995 C 552.579 -1.37382 -1.48224 0
M  V30 5996 C 552.9 0.0264107 -1.94982 0
M  V30 5997 O 552.17 0.979408 -1.6966 0
M  V30 5998 H 550.75 -0.505596 -0.549892 0
M  V30 5999 H 553.412 -1.7487 -0.860608 0
M  V30 6000 H 552.508 -2.04254 -2.3598 0
M  V30 6001 N 552.809 0.956637 -1.25245 0
M  V30 6002 C 553.772 2.03457 -1.05537 0
M  V30 6003 C 554.772 1.60798 -0.00886317 0
M  V30 6004 O 555.962 1.72384 -0.250865 0
M  V30 6005 C 553.094 3.35543 -0.601965 0
M  V30 6006 H 554.287 2.22372 -2.01223 0
M  V30 6007 H 551.84 1.13344 -1.07623 0
M  V30 6008 H 552.575 3.22323 0.357584 0
M  V30 6009 H 552.36 3.67854 -1.35743 0
M  V30 6010 H 553.85 4.14769 -0.485454 0
M  V30 6011 N 554.287 1.06798 1.15896 0
M  V30 6012 C 555.535 0.786211 1.8618 0
M  V30 6013 C 555.856 -0.689547 1.82401 0
M  V30 6014 O 555.126 -1.49913 1.26107 0
M  V30 6015 H 553.706 0.287843 0.689315 0
M  V30 6016 H 556.368 1.35055 1.40521 0
M  V30 6017 H 555.464 1.1157 2.91477 0
M  V30 6018 N 555.766 -1.3263 0.851289 0
M  V30 6019 C 556.714 -2.30882 0.282202 0
M  V30 6020 C 557.708 -1.58697 -0.592589 0
M  V30 6021 O 558.914 -1.73461 -0.480768 0
M  V30 6022 H 555.289 -0.748492 0.0725487 0
M  V30 6023 H 557.26 -2.76374 1.12516 0
M  V30 6024 C 556.009 -3.43828 -0.517449 0
M  V30 6025 H 555.332 -3.99532 0.146392 0
M  V30 6026 H 556.772 -4.1474 -0.88128 0
M  V30 6027 C 555.231 -2.90786 -1.70133 0
M  V30 6028 O 555.761 -2.88 -2.80034 0
M  V30 6029 N 553.967 -2.4723 -1.52728 0
M  V30 6030 H 553.514 -2.49695 -0.633257 0
M  V30 6031 H 553.472 -2.12094 -2.32085 0
M  V30 6032 N 557.244 -0.608902 -1.45362 0
M  V30 6033 C 558.493 -0.10218 -2.01441 0
M  V30 6034 C 558.806 1.27546 -1.48295 0
M  V30 6035 O 560.012 1.87498 -1.96359 0
M  V30 6036 C 558.468 -0.131985 -3.59658 0
M  V30 6037 C 558.076 -1.50956 -4.21801 0
M  V30 6038 C 559.82 0.319427 -4.23296 0
M  V30 6039 C 557.727 -1.49568 -5.72174 0
M  V30 6040 H 556.657 -0.0344314 -0.753213 0
M  V30 6041 H 559.308 -0.764426 -1.6682 0
M  V30 6042 H 557.69 0.596939 -3.91475 0
M  V30 6043 H 558.864 -2.26029 -4.01556 0
M  V30 6044 H 557.179 -1.90318 -3.70362 0
M  V30 6045 H 559.776 0.349013 -5.3356 0
M  V30 6046 H 560.119 1.34237 -3.94064 0
M  V30 6047 H 560.652 -0.356273 -3.96201 0
M  V30 6048 H 557.391 -2.49626 -6.06108 0
M  V30 6049 H 556.911 -0.787542 -5.94607 0
M  V30 6050 H 558.59 -1.21989 -6.35396 0
M  V30 6051 N 558.722 1.53707 -0.348139 0
M  V30 6052 C 559.652 2.28111 0.498766 0
M  V30 6053 C 560.633 1.29851 1.09876 0
M  V30 6054 O 561.818 1.587 1.11928 0
M  V30 6055 C 558.948 3.05735 1.64753 0
M  V30 6056 C 557.902 4.11537 1.17565 0
M  V30 6057 C 557.228 4.77142 2.4133 0
M  V30 6058 C 558.528 5.21587 0.272844 0
M  V30 6059 H 560.222 2.99152 -0.121934 0
M  V30 6060 H 557.768 1.43875 -0.0600842 0
M  V30 6061 H 559.721 3.56526 2.24649 0
M  V30 6062 H 558.445 2.32354 2.2952 0
M  V30 6063 H 557.104 3.61665 0.599483 0
M  V30 6064 H 556.752 4.0035 3.04514 0
M  V30 6065 H 556.452 5.48626 2.10436 0
M  V30 6066 H 557.976 5.30719 3.01943 0
M  V30 6067 H 559.39 5.67986 0.778779 0
M  V30 6068 H 557.787 6.00074 0.0555849 0
M  V30 6069 H 558.857 4.79969 -0.689785 0
M  V30 6070 N 560.2 0.0768682 1.57412 0
M  V30 6071 C 561.147 -0.888577 2.13009 0
M  V30 6072 C 562.117 -1.29198 1.0439 0
M  V30 6073 O 563.302 -1.37694 1.3208 0
M  V30 6074 C 560.442 -2.14899 2.70023 0
M  V30 6075 C 559.555 -1.79777 3.92816 0
M  V30 6076 C 558.69 -3.00467 4.38056 0
M  V30 6077 C 557.729 -2.61385 5.53484 0
M  V30 6078 N 556.866 -3.74851 5.93659 0
M  V30 6079 H 561.706 -0.407593 2.95199 0
M  V30 6080 H 559.243 -0.189534 1.45874 0
M  V30 6081 H 561.201 -2.88688 3.0119 0
M  V30 6082 H 559.831 -2.60529 1.9059 0
M  V30 6083 H 558.883 -0.960301 3.68079 0
M  V30 6084 H 560.195 -1.47027 4.76639 0
M  V30 6085 H 559.349 -3.82529 4.7091 0
M  V30 6086 H 558.088 -3.36413 3.53097 0
M  V30 6087 H 557.093 -1.77746 5.20275 0
M  V30 6088 H 558.318 -2.26603 6.40178 0
M  V30 6089 H 556.264 -4.1055 5.11649 0
M  V30 6090 H 556.181 -3.45887 6.72234 0
M  V30 6091 H 557.449 -4.57477 6.31138 0
M  V30 6092 N 561.678 -1.56367 -0.196722 0
M  V30 6093 C 563.094 -1.49916 -0.54749 0
M  V30 6094 C 563.294 -0.77659 -1.85934 0
M  V30 6095 O 562.35 -0.32644 -2.50381 0
M  V30 6096 C 563.663 -2.94577 -0.603734 0
M  V30 6097 C 565.211 -3.05239 -0.692677 0
M  V30 6098 C 565.686 -4.51308 -0.780046 0
M  V30 6099 N 567.177 -4.55453 -0.843616 0
M  V30 6100 C 567.912 -5.65786 -0.931358 0
M  V30 6101 N 567.408 -6.85812 -0.981503 0
M  V30 6102 N 569.201 -5.53695 -0.968421 0
M  V30 6103 H 561.352 -2.01761 0.663803 0
M  V30 6104 H 563.615 -0.918094 0.236238 0
M  V30 6105 H 563.321 -3.50494 0.29105 0
M  V30 6106 H 563.195 -3.47841 -1.45898 0
M  V30 6107 H 565.582 -2.49372 -1.57789 0
M  V30 6108 H 565.663 -2.55103 0.188736 0
M  V30 6109 H 565.307 -5.078 0.100811 0
M  V30 6110 H 565.237 -4.99176 -1.67724 0
M  V30 6111 H 567.728 -3.69025 -0.814176 0
M  V30 6112 H 568.041 -7.65648 -1.04892 0
M  V30 6113 H 566.386 -6.88474 -0.950208 0
M  V30 6114 H 569.577 -4.58848 -0.926072 0
M  V30 6115 H 569.75 -6.39708 -1.03334 0
M  V30 6116 N 563.156 0.464375 -1.50603 0
M  V30 6117 C 564.106 1.55929 -1.66343 0
M  V30 6118 C 565.09 1.52338 -0.517887 0
M  V30 6119 O 566.282 1.59248 -0.772601 0
M  V30 6120 C 563.411 2.94327 -1.7671 0
M  V30 6121 C 562.497 3.02777 -2.96962 0
M  V30 6122 N 562.888 2.81026 -4.20545 0
M  V30 6123 C 561.186 3.33919 -2.95659 0
M  V30 6124 C 561.887 2.94618 -5.01573 0
M  V30 6125 N 560.863 3.25112 -4.35664 0
M  V30 6126 H 564.665 1.37822 -2.59581 0
M  V30 6127 H 562.179 0.671227 -1.47879 0
M  V30 6128 H 564.176 3.73063 -1.86091 0
M  V30 6129 H 562.836 3.13476 -0.846353 0
M  V30 6130 H 563.847 2.56477 -4.49933 0
M  V30 6131 H 560.524 3.59013 -2.13111 0
M  V30 6132 H 561.914 2.81984 -6.09865 0
M  V30 6133 N 564.634 1.40294 0.718013 0
M  V30 6134 C 565.597 1.4012 1.81381 0
M  V30 6135 C 566.597 0.295405 1.58063 0
M  V30 6136 O 567.787 0.554187 1.6515 0
M  V30 6137 C 564.919 1.19056 3.19435 0
M  V30 6138 H 566.112 2.37645 1.82933 0
M  V30 6139 H 563.665 1.26107 0.923405 0
M  V30 6140 H 564.4 0.222809 3.23534 0
M  V30 6141 H 564.185 1.99152 3.37758 0
M  V30 6142 H 565.675 1.21716 3.99468 0
M  V30 6143 N 566.112 -0.949982 1.2575 0
M  V30 6144 C 567.075 -2.02894 1.06615 0
M  V30 6145 C 568.075 -1.60791 0.0173905 0
M  V30 6146 O 569.265 -1.72249 0.260003 0
M  V30 6147 C 566.397 -3.35219 0.619751 0
M  V30 6148 H 567.59 -2.21302 2.02399 0
M  V30 6149 H 565.143 -1.12772 1.08223 0
M  V30 6150 H 565.878 -3.22508 -0.340486 0
M  V30 6151 H 565.663 -3.67129 1.37692 0
M  V30 6152 H 567.153 -4.14505 0.507443 0
M  V30 6153 N 567.59 -1.07411 -1.15328 0
M  V30 6154 C 568.867 -0.710732 -1.82231 0
M  V30 6155 C 569.247 0.806732 -1.95077 0
M  V30 6156 O 568.595 1.72139 -1.50268 0
M  V30 6157 C 568.805 -1.42586 -3.18544 0
M  V30 6158 C 570.153 -1.57836 -3.94174 0
M  V30 6159 O 571.177 -1.38669 -3.281 0
M  V30 6160 O 570.036 -1.8938 -5.12638 0
M  V30 6161 H 567.13 -0.25297 -0.78736 0
M  V30 6162 H 569.676 -1.17508 -1.22434 0
M  V30 6163 H 568.448 -2.46008 -3.04296 0
M  V30 6164 H 568.071 -0.952332 -3.86026 0
M  V30 6165 N 569.068 1.32177 -0.85831 0
M  V30 6166 C 570 2.27688 -0.262835 0
M  V30 6167 C 571.013 1.52588 0.567513 0
M  V30 6168 O 572.202 1.74156 0.391407 0
M  V30 6169 C 569.302 3.32668 0.646937 0
M  V30 6170 C 568.475 4.37148 -0.148372 0
M  V30 6171 C 567.534 5.21686 0.687728 0
M  V30 6172 O 566.56 5.69074 0.119934 0
M  V30 6173 N 567.762 5.44892 2.00182 0
M  V30 6174 H 570.527 2.79426 -1.08356 0
M  V30 6175 H 568.088 1.45076 -0.718647 0
M  V30 6176 H 570.08 3.86134 1.2117 0
M  V30 6177 H 568.65 2.81061 1.36834 0
M  V30 6178 H 567.87 3.83915 -0.894572 0
M  V30 6179 H 569.158 5.04038 -0.694514 0
M  V30 6180 H 568.556 5.08128 2.4864 0
M  V30 6181 H 567.113 6.0134 2.51463 0
M  V30 6182 N 570.547 0.616602 1.45037 0
M  V30 6183 C 571.51 -0.0871112 2.29034 0
M  V30 6184 C 572.51 -0.786414 1.40258 0
M  V30 6185 O 573.7 -0.633207 1.62284 0
M  V30 6186 C 570.832 -1.13369 3.21497 0
M  V30 6187 H 572.025 0.651497 2.92738 0
M  V30 6188 H 569.578 0.376058 1.51709 0
M  V30 6189 H 570.313 -1.90277 2.62612 0
M  V30 6190 H 570.098 -0.636358 3.86902 0
M  V30 6191 H 571.588 -1.62627 3.84633 0
M  V30 6192 N 572.025 -1.5352 0.356285 0
M  V30 6193 C 573.441 -1.59599 0.00485267 0
M  V30 6194 C 573.641 -1.37179 -1.47595 0
M  V30 6195 O 572.697 -1.17234 -2.23635 0
M  V30 6196 C 574.01 -2.97277 0.452454 0
M  V30 6197 C 575.558 -3.10357 0.405881 0
M  V30 6198 C 576.033 -4.50432 0.829148 0
M  V30 6199 N 577.524 -4.5652 0.783838 0
M  V30 6200 C 578.259 -5.63077 1.08315 0
M  V30 6201 N 577.755 -6.77429 1.45126 0
M  V30 6202 N 579.548 -5.53014 1.00655 0
M  V30 6203 H 571.699 -1.66346 1.32071 0
M  V30 6204 H 573.962 -0.77971 0.539218 0
M  V30 6205 H 573.668 -3.18792 1.48542 0
M  V30 6206 H 573.542 -3.76836 -0.165762 0
M  V30 6207 H 575.929 -2.88558 -0.617934 0
M  V30 6208 H 576.01 -2.32828 1.05947 0
M  V30 6209 H 575.654 -4.72968 1.85103 0
M  V30 6210 H 575.584 -5.26378 0.152906 0
M  V30 6211 H 578.075 -3.74408 0.512513 0
M  V30 6212 H 578.388 -7.54669 1.66415 0
M  V30 6213 H 576.733 -6.78844 1.48983 0
M  V30 6214 H 579.924 -4.62557 0.718215 0
M  V30 6215 H 580.097 -6.35964 1.24315 0
M  V30 6216 N 573.503 -0.0852151 -1.57369 0
M  V30 6217 C 574.45 0.877268 -2.13478 0
M  V30 6218 C 575.42 1.28642 -1.05073 0
M  V30 6219 O 576.605 1.36992 -1.32808 0
M  V30 6220 C 573.745 2.13464 -2.71159 0
M  V30 6221 C 572.858 1.77691 -3.93764 0
M  V30 6222 C 571.993 2.98139 -4.39643 0
M  V30 6223 C 571.032 2.58447 -5.54862 0
M  V30 6224 N 570.169 3.71698 -5.95639 0
M  V30 6225 H 575.009 0.391933 -2.95411 0
M  V30 6226 H 572.546 0.181796 -1.45972 0
M  V30 6227 H 574.504 2.87086 -3.02717 0
M  V30 6228 H 573.134 2.59514 -1.91969 0
M  V30 6229 H 572.186 0.940768 -3.68583 0
M  V30 6230 H 573.498 1.44497 -4.77412 0
M  V30 6231 H 572.652 3.80026 -4.72933 0
M  V30 6232 H 571.391 3.34536 -3.54876 0
M  V30 6233 H 570.396 1.74984 -5.21211 0
M  V30 6234 H 571.621 2.23205 -6.41371 0
M  V30 6235 H 569.567 4.07831 -5.13819 0
M  V30 6236 H 569.484 3.42317 -6.74059 0
M  V30 6237 H 570.752 4.54123 -6.33555 0
M  V30 6238 N 574.981 1.5647 0.188427 0
M  V30 6239 C 575.944 1.9421 1.21718 0
M  V30 6240 C 576.944 0.823901 1.38089 0
M  V30 6241 O 578.134 1.09122 1.35787 0
M  V30 6242 C 575.266 2.22197 2.58537 0
M  V30 6243 H 576.459 2.86252 0.894418 0
M  V30 6244 H 574.012 1.50263 0.430211 0
M  V30 6245 H 574.747 1.32814 2.95856 0
M  V30 6246 H 574.532 3.03688 2.48025 0
M  V30 6247 H 576.022 2.52376 3.3271 0
M  V30 6248 N 576.459 -0.456382 1.50847 0
M  V30 6249 C 577.705 -1.20914 1.62811 0
M  V30 6250 C 578.038 -1.91301 0.334304 0
M  V30 6251 O 577.313 -1.82775 -0.665098 0
M  V30 6252 C 577.596 -2.24122 2.81853 0
M  V30 6253 C 577.449 -1.57944 4.21158 0
M  V30 6254 C 578.768 -3.25295 2.96431 0
M  V30 6255 H 575.887 -0.438233 0.592554 0
M  V30 6256 H 578.529 -0.50091 1.83278 0
M  V30 6257 H 576.679 -2.84524 2.64534 0
M  V30 6258 H 578.351 -1.01025 4.50102 0
M  V30 6259 H 576.594 -0.882185 4.24735 0
M  V30 6260 H 577.265 -2.33014 5.00408 0
M  V30 6261 H 579.741 -2.7493 3.12335 0
M  V30 6262 H 578.617 -3.94822 3.81322 0
M  V30 6263 H 578.878 -3.90286 2.07676 0
M  V30 6264 N 577.937 -1.40673 -0.710563 0
M  V30 6265 C 579.162 -1.42741 -1.50465 0
M  V30 6266 C 579.587 -0.0302116 -1.88076 0
M  V30 6267 O 578.945 0.962945 -1.53613 0
M  V30 6268 C 578.993 -2.32873 -2.75322 0
M  V30 6269 O 578.097 -1.77544 -3.72226 0
M  V30 6270 H 577.438 -0.485056 -0.45345 0
M  V30 6271 H 579.968 -1.84961 -0.874681 0
M  V30 6272 H 579.978 -2.48233 -3.23797 0
M  V30 6273 H 578.653 -3.34401 -2.47283 0
M  V30 6274 H 577.23 -1.71556 -3.31093 0
M  V30 6275 N 579.415 0.9433 -1.26252 0
M  V30 6276 C 580.348 2.04162 -1.01946 0
M  V30 6277 C 581.326 1.62507 0.0550808 0
M  V30 6278 O 582.51 1.883 -0.0869025 0
M  V30 6279 C 579.637 3.34313 -0.54335 0
M  V30 6280 C 578.683 3.94939 -1.61013 0
M  V30 6281 S 579.516 4.29484 -3.19849 0
M  V30 6282 C 580.672 5.62738 -2.74001 0
M  V30 6283 H 580.905 2.24466 -1.94942 0
M  V30 6284 H 578.438 1.08441 -1.09909 0
M  V30 6285 H 580.396 4.09576 -0.275315 0
M  V30 6286 H 579.057 3.11957 0.36629 0
M  V30 6287 H 578.25 4.88812 -1.22795 0
M  V30 6288 H 577.852 3.26202 -1.82943 0
M  V30 6289 H 580.144 6.41356 -2.18333 0
M  V30 6290 H 581.087 6.05839 -3.66558 0
M  V30 6291 H 581.495 5.22514 -2.13634 0
M  V30 6292 N 580.893 1.08022 1.14757 0
M  V30 6293 C 581.843 0.676345 2.17737 0
M  V30 6294 C 582.827 -0.302018 1.5804 0
M  V30 6295 O 584.019 -0.11466 1.76628 0
M  V30 6296 C 581.148 0.082984 3.432 0
M  V30 6297 C 580.234 1.0869 4.09936 0
M  V30 6298 N 580.625 2.26891 4.52055 0
M  V30 6299 C 578.923 0.921768 4.36371 0
M  V30 6300 C 579.624 2.90636 5.0389 0
M  V30 6301 N 578.6 2.18266 4.97856 0
M  V30 6302 H 582.402 1.5765 2.4804 0
M  V30 6303 H 579.916 0.954374 1.31398 0
M  V30 6304 H 581.913 -0.224289 4.16296 0
M  V30 6305 H 580.573 -0.812206 3.14378 0
M  V30 6306 H 581.584 2.6457 4.45223 0
M  V30 6307 H 578.261 0.0800499 4.17423 0
M  V30 6308 H 579.651 3.9104 5.46386 0
M  V30 6309 N 582.371 -1.3172 0.865308 0
M  V30 6310 C 583.281 -2.32394 0.320935 0
M  V30 6311 C 584.297 -1.64511 -0.566746 0
M  V30 6312 O 585.473 -1.95969 -0.464575 0
M  V30 6313 C 582.538 -3.43462 -0.472701 0
M  V30 6314 C 581.599 -4.27015 0.442385 0
M  V30 6315 C 580.832 -5.32779 -0.313469 0
M  V30 6316 O 581.055 -5.49158 -1.54214 0
M  V30 6317 O 579.989 -6.01015 0.326257 0
M  V30 6318 H 583.815 -2.80868 1.15528 0
M  V30 6319 H 581.4 -1.35535 0.628545 0
M  V30 6320 H 583.282 -4.11172 -0.922781 0
M  V30 6321 H 581.957 -2.97159 -1.28367 0
M  V30 6322 H 580.864 -3.62075 0.940866 0
M  V30 6323 H 582.197 -4.76871 1.21882 0
M  V30 6324 N 583.85 -0.624285 -1.44708 0
M  V30 6325 C 585.096 -0.126237 -2.02407 0
M  V30 6326 C 585.428 1.24618 -1.48943 0
M  V30 6327 O 584.704 1.82569 -0.670742 0
M  V30 6328 C 584.986 -0.105449 -3.59946 0
M  V30 6329 C 584.84 -1.50972 -4.23707 0
M  V30 6330 C 586.159 0.573629 -4.36346 0
M  V30 6331 H 583.278 -0.0473472 -0.735478 0
M  V30 6332 H 585.92 -0.799452 -1.72362 0
M  V30 6333 H 584.07 0.46783 -3.85673 0
M  V30 6334 H 585.742 -2.13136 -4.0911 0
M  V30 6335 H 583.985 -2.0656 -3.81465 0
M  V30 6336 H 584.656 -1.44727 -5.32689 0
M  V30 6337 H 587.132 0.0861787 -4.16011 0
M  V30 6338 H 586.008 0.557338 -5.46063 0
M  V30 6339 H 586.269 1.64276 -4.10446 0
M  V30 6340 N 585.328 1.53329 -0.364422 0
M  V30 6341 C 586.276 2.27212 0.497737 0
M  V30 6342 C 587.27 1.30146 1.08437 0
M  V30 6343 O 588.476 1.47778 1.0277 0
M  V30 6344 H 584.851 0.730329 0.179232 0
M  V30 6345 H 586.822 2.98037 -0.147182 0
M  V30 6346 C 585.571 3.07333 1.6261 0
M  V30 6347 H 584.894 3.81866 1.184 0
M  V30 6348 H 586.334 3.62209 2.20409 0
M  V30 6349 C 584.793 2.18102 2.56775 0
M  V30 6350 O 585.323 1.79104 3.59562 0
M  V30 6351 N 583.529 1.82759 2.25937 0
M  V30 6352 H 583.076 2.14671 1.42387 0
M  V30 6353 H 583.034 1.23342 2.89196 0
M  V30 6354 N 586.806 0.0935595 1.57322 0
M  V30 6355 C 588.034 -0.578934 1.98635 0
M  V30 6356 C 588.449 -1.61819 0.972626 0
M  V30 6357 O 587.806 -1.82461 -0.0379638 0
M  V30 6358 C 587.857 -1.22802 3.40003 0
M  V30 6359 O 587.578 -0.230334 4.37494 0
M  V30 6360 C 589.079 -1.98627 3.96311 0
M  V30 6361 H 586.299 -0.155324 0.652775 0
M  V30 6362 H 588.843 0.172393 2.03772 0
M  V30 6363 H 586.998 -1.93029 3.35885 0
M  V30 6364 H 587.412 -0.698649 5.19826 0
M  V30 6365 H 588.886 -2.39405 4.97382 0
M  V30 6366 H 589.363 -2.85151 3.34044 0
M  V30 6367 H 589.969 -1.3322 4.03897 0
M  V30 6368 N 588.284 -1.56567 -0.180126 0
M  V30 6369 C 589.194 -1.98947 -1.24327 0
M  V30 6370 C 590.21 -0.899446 -1.4895 0
M  V30 6371 O 591.386 -1.20639 -1.61271 0
M  V30 6372 C 588.451 -2.33328 -2.56435 0
M  V30 6373 C 587.512 -3.56114 -2.39752 0
M  V30 6374 C 586.745 -3.88845 -3.65561 0
M  V30 6375 O 586.968 -3.22662 -4.70368 0
M  V30 6376 O 585.902 -4.82226 -3.60197 0
M  V30 6377 H 589.728 -2.89634 -0.913565 0
M  V30 6378 H 587.313 -1.44319 -0.386306 0
M  V30 6379 H 589.195 -2.5645 -3.34382 0
M  V30 6380 H 587.87 -1.45806 -2.89002 0
M  V30 6381 H 586.777 -3.38221 -1.59866 0
M  V30 6382 H 588.11 -4.4415 -2.12113 0
M  V30 6383 N 589.762 0.448376 -1.51087 0
M  V30 6384 C 591.008 1.20049 -1.6345 0
M  V30 6385 C 591.341 1.91121 -0.344444 0
M  V30 6386 O 590.616 1.83125 0.655396 0
M  V30 6387 C 590.899 2.22624 -2.83038 0
M  V30 6388 C 590.752 1.55708 -4.21989 0
M  V30 6389 C 592.071 3.23718 -2.98152 0
M  V30 6390 H 589.19 0.435085 -0.59487 0
M  V30 6391 H 591.832 0.491183 -1.83541 0
M  V30 6392 H 589.982 2.83117 -2.66039 0
M  V30 6393 H 591.654 0.986367 -4.50631 0
M  V30 6394 H 589.897 0.859647 -4.25197 0
M  V30 6395 H 590.568 2.30357 -5.01637 0
M  V30 6396 H 593.044 2.73269 -3.13788 0
M  V30 6397 H 591.92 3.92795 -3.83411 0
M  V30 6398 H 592.181 3.89179 -2.09743 0
M  V30 6399 N 591.24 1.41047 0.703093 0
M  V30 6400 C 592.468 1.4334 1.49202 0
M  V30 6401 C 592.883 0.0365596 1.88765 0
M  V30 6402 O 592.24 -0.942419 1.56284 0
M  V30 6403 C 592.291 2.33538 2.75939 0
M  V30 6404 O 592.012 3.67786 2.38045 0
M  V30 6405 C 593.513 2.44555 3.6974 0
M  V30 6406 H 590.733 0.488472 0.460039 0
M  V30 6407 H 593.277 1.85245 0.86629 0
M  V30 6408 H 591.432 1.94962 3.34766 0
M  V30 6409 H 591.846 4.15816 3.19683 0
M  V30 6410 H 593.32 3.11849 4.55471 0
M  V30 6411 H 593.797 1.47447 4.1371 0
M  V30 6412 H 594.403 2.83735 3.16819 0
M  V30 6413 N 592.718 -0.936591 1.26751 0
M  V30 6414 C 593.628 -2.06949 1.10496 0
M  V30 6415 C 594.644 -1.7396 0.037271 0
M  V30 6416 O 595.82 -1.99941 0.241944 0
M  V30 6417 C 592.885 -3.38612 0.744491 0
M  V30 6418 C 591.946 -3.85355 1.89209 0
M  V30 6419 C 591.179 -5.10735 1.54873 0
M  V30 6420 O 591.402 -5.68602 0.452546 0
M  V30 6421 O 590.336 -5.52632 2.38499 0
M  V30 6422 H 594.162 -2.23571 2.05547 0
M  V30 6423 H 591.747 -1.05428 1.05855 0
M  V30 6424 H 593.629 -4.17711 0.556396 0
M  V30 6425 H 592.304 -3.23218 -0.176582 0
M  V30 6426 H 591.211 -3.07182 2.13518 0
M  V30 6427 H 592.544 -4.05277 2.79305 0
M  V30 6428 N 594.196 -1.08629 -1.14182 0
M  V30 6429 C 595.144 -0.71284 -2.21408 0
M  V30 6430 C 596.138 0.282457 -1.67029 0
M  V30 6431 O 597.344 0.144783 -1.79417 0
M  V30 6432 H 593.719 -0.212497 -0.721352 0
M  V30 6433 H 595.69 -1.6265 -2.50175 0
M  V30 6434 C 594.439 -0.140704 -3.47415 0
M  V30 6435 H 593.762 -0.897739 -3.8959 0
M  V30 6436 H 595.202 0.0827677 -4.23919 0
M  V30 6437 C 593.661 1.122 -3.17668 0
M  V30 6438 O 594.191 2.20652 -3.35672 0
M  V30 6439 N 592.397 1.03328 -2.71609 0
M  V30 6440 H 591.944 0.150666 -2.57159 0
M  V30 6441 H 591.902 1.8789 -2.52081 0
M  V30 6442 N 595.674 1.31259 -0.872281 0
M  V30 6443 C 596.951 1.91362 -0.404943 0
M  V30 6444 C 597.331 1.79362 1.11321 0
M  V30 6445 O 596.679 1.20277 1.94283 0
M  V30 6446 C 596.889 3.3749 -0.888893 0
M  V30 6447 C 598.237 4.14593 -0.916384 0
M  V30 6448 O 599.261 3.46282 -0.834701 0
M  V30 6449 O 598.12 5.3661 -1.03498 0
M  V30 6450 H 595.214 0.818016 -0.121569 0
M  V30 6451 H 597.76 1.39912 -0.960346 0
M  V30 6452 H 596.532 3.40249 -1.93251 0
M  V30 6453 H 596.155 3.96375 -0.311932 0
M  V30 6454 N 597.152 0.631951 1.44375 0
M  V30 6455 C 598.563 0.219036 1.85411 0
M  V30 6456 C 598.914 -1.22974 1.52879 0
M  V30 6457 O 598.039 -1.93579 0.967266 0
M  V30 6458 C 598.634 0.39075 3.36539 0
M  V30 6459 C 597.193 0.0323351 3.76386 0
M  V30 6460 C 596.34 0.703744 2.68221 0
M  V30 6461 H 599.291 0.837056 1.3483 0
M  V30 6462 H 599.312 -0.370056 3.78696 0
M  V30 6463 H 598.824 1.44527 3.60185 0
M  V30 6464 H 596.925 -1.02042 3.58355 0
M  V30 6465 H 597.038 0.442969 4.77048 0
M  V30 6466 H 595.402 0.138974 2.54321 0
M  V30 6467 H 596.185 1.76088 2.947 0
M  V30 6468 N 598.631 -1.53133 0.372548 0
M  V30 6469 C 599.877 -2.01654 -0.215277 0
M  V30 6470 C 600.21 -1.25914 -1.47849 0
M  V30 6471 O 599.485 -0.3548 -1.91237 0
M  V30 6472 C 599.768 -3.56609 -0.500187 0
M  V30 6473 C 599.621 -4.43036 0.777145 0
M  V30 6474 C 600.94 -4.20528 -1.29786 0
M  V30 6475 H 598.059 -0.732991 -0.0767686 0
M  V30 6476 H 600.701 -1.83335 0.498814 0
M  V30 6477 H 598.851 -3.7235 -1.10852 0
M  V30 6478 H 600.523 -4.39079 1.41447 0
M  V30 6479 H 598.766 -4.10723 1.39604 0
M  V30 6480 H 599.437 -5.49424 0.532662 0
M  V30 6481 H 601.913 -4.08663 -0.783198 0
M  V30 6482 H 600.789 -5.28962 -1.46596 0
M  V30 6483 H 601.05 -3.77051 -2.30836 0
M  V30 6484 N 600.109 -0.101901 -1.5727 0
M  V30 6485 C 601.334 0.571759 -1.99363 0
M  V30 6486 C 601.759 1.60507 -0.980768 0
M  V30 6487 O 601.117 1.81231 0.0498517 0
M  V30 6488 C 601.165 1.18996 -3.404 0
M  V30 6489 O 600.269 2.30572 -3.41922 0
M  V30 6490 H 599.61 0.144449 -0.648098 0
M  V30 6491 H 602.14 -0.185325 -2.03759 0
M  V30 6492 H 602.15 1.52962 -3.78241 0
M  V30 6493 H 600.825 0.432984 -4.1364 0
M  V30 6494 H 599.402 1.98173 -3.15883 0
M  V30 6495 N 601.587 1.56661 0.17182 0
M  V30 6496 C 602.534 1.96371 1.21273 0
M  V30 6497 C 603.504 0.82756 1.44016 0
M  V30 6498 O 604.689 1.08764 1.56764 0
M  V30 6499 C 601.829 2.32838 2.54716 0
M  V30 6500 C 600.942 3.59628 2.39356 0
M  V30 6501 C 600.077 3.85311 3.65662 0
M  V30 6502 C 599.116 5.0545 3.45234 0
M  V30 6503 N 598.253 5.27268 4.63608 0
M  V30 6504 H 603.093 2.85106 0.86709 0
M  V30 6505 H 600.63 1.41073 0.416744 0
M  V30 6506 H 602.588 2.52004 3.3249 0
M  V30 6507 H 601.218 1.47214 2.87277 0
M  V30 6508 H 600.27 3.4838 1.52761 0
M  V30 6509 H 601.582 4.4756 2.20207 0
M  V30 6510 H 600.736 4.04841 4.51872 0
M  V30 6511 H 599.475 2.95753 3.8779 0
M  V30 6512 H 598.48 4.85819 2.5741 0
M  V30 6513 H 599.705 5.96538 3.24529 0
M  V30 6514 H 597.651 4.40662 4.85956 0
M  V30 6515 H 597.568 6.09422 4.4737 0
M  V30 6516 H 598.836 5.51277 5.51103 0
M  V30 6517 N 603.065 -0.440357 1.51323 0
M  V30 6518 C 604.314 -1.18697 1.63076 0
M  V30 6519 C 604.627 -1.92418 0.35136 0
M  V30 6520 O 605.833 -2.69258 0.348221 0
M  V30 6521 C 604.289 -2.15849 2.87988 0
M  V30 6522 C 603.897 -1.47789 4.22921 0
M  V30 6523 C 605.641 -2.90962 3.09098 0
M  V30 6524 C 603.548 -2.43407 5.38987 0
M  V30 6525 H 602.478 -0.44676 0.607389 0
M  V30 6526 H 605.129 -0.454313 1.77787 0
M  V30 6527 H 603.511 -2.92537 2.66905 0
M  V30 6528 H 604.685 -0.7668 4.54375 0
M  V30 6529 H 603 -0.848404 4.07665 0
M  V30 6530 H 605.597 -3.62584 3.92985 0
M  V30 6531 H 605.94 -3.52133 2.22053 0
M  V30 6532 H 606.473 -2.21381 3.30507 0
M  V30 6533 H 603.212 -1.86929 6.28282 0
M  V30 6534 H 602.732 -3.12579 5.11913 0
M  V30 6535 H 604.411 -3.046 5.70813 0
M  V30 6536 N 604.543 -1.41418 -0.695603 0
M  V30 6537 C 605.79 -1.40774 -1.45564 0
M  V30 6538 C 606.118 -0.0168604 -1.94493 0
M  V30 6539 O 605.373 0.971259 -1.69897 0
M  V30 6540 C 605.672 -2.36112 -2.68302 0
M  V30 6541 C 605.338 -3.82952 -2.38031 0
M  V30 6542 C 604 -4.22954 -2.29486 0
M  V30 6543 C 606.352 -4.75662 -2.13061 0
M  V30 6544 C 603.68 -5.53674 -1.94067 0
M  V30 6545 C 606.032 -6.06702 -1.79151 0
M  V30 6546 C 604.696 -6.45725 -1.69102 0
M  V30 6547 H 603.966 -0.515128 -0.532658 0
M  V30 6548 H 606.613 -1.74216 -0.795047 0
M  V30 6549 H 604.918 -1.95924 -3.39295 0
M  V30 6550 H 606.615 -2.32887 -3.26442 0
M  V30 6551 H 603.205 -3.5127 -2.45576 0
M  V30 6552 H 607.389 -4.45561 -2.18608 0
M  V30 6553 H 602.645 -5.8279 -1.8484 0
M  V30 6554 H 606.819 -6.78041 -1.5885 0
M  V30 6555 H 604.446 -7.46929 -1.41426 0
M  V30 6556 N 606.021 0.929856 -1.27246 0
M  V30 6557 C 607.268 1.67731 -1.13457 0
M  V30 6558 C 607.596 1.9185 0.319998 0
M  V30 6559 O 606.851 1.50524 1.25064 0
M  V30 6560 C 607.15 3.05116 -1.86115 0
M  V30 6561 C 606.816 3.00715 -3.35978 0
M  V30 6562 C 605.478 2.99222 -3.76855 0
M  V30 6563 C 607.83 2.92168 -4.3161 0
M  V30 6564 C 605.158 2.86962 -5.11732 0
M  V30 6565 C 607.51 2.81449 -5.66542 0
M  V30 6566 C 606.174 2.78305 -6.06715 0
M  V30 6567 H 605.444 0.613772 -0.415168 0
M  V30 6568 H 608.091 1.08456 -1.57827 0
M  V30 6569 H 606.396 3.68083 -1.34246 0
M  V30 6570 H 608.093 3.61822 -1.72876 0
M  V30 6571 H 604.683 3.02664 -3.03468 0
M  V30 6572 H 608.867 2.92421 -4.01003 0
M  V30 6573 H 604.123 2.82913 -5.42006 0
M  V30 6574 H 608.297 2.738 -6.40317 0
M  V30 6575 H 605.924 2.68561 -7.11181 0
M  V30 6576 N 607.499 1.09233 1.13605 0
M  V30 6577 C 608.409 0.741939 2.22559 0
M  V30 6578 C 609.425 -0.255236 1.72118 0
M  V30 6579 O 610.601 -0.0970747 2.01166 0
M  V30 6580 C 607.666 0.165595 3.46304 0
M  V30 6581 C 606.727 1.21846 4.11645 0
M  V30 6582 C 605.96 0.669526 5.29484 0
M  V30 6583 O 606.183 -0.508228 5.68131 0
M  V30 6584 O 605.117 1.42361 5.84822 0
M  V30 6585 H 608.943 1.65107 2.54899 0
M  V30 6586 H 606.528 0.866584 1.21699 0
M  V30 6587 H 608.41 -0.152592 4.21124 0
M  V30 6588 H 607.085 -0.716573 3.15669 0
M  V30 6589 H 605.992 1.58931 3.38662 0
M  V30 6590 H 607.325 2.07321 4.46407 0
M  V30 6591 N 608.977 -1.30795 0.87923 0
M  V30 6592 C 609.909 -2.27241 0.299025 0
M  V30 6593 C 610.922 -1.53472 -0.543166 0
M  V30 6594 O 612.111 -1.74756 -0.363651 0
M  V30 6595 C 609.211 -3.33655 -0.593931 0
M  V30 6596 C 608.384 -4.36857 0.2179 0
M  V30 6597 C 607.443 -5.22715 -0.604646 0
M  V30 6598 O 606.469 -5.69192 -0.0293838 0
M  V30 6599 N 607.671 -5.48008 -1.91488 0
M  V30 6600 H 610.436 -2.77667 1.12788 0
M  V30 6601 H 607.997 -1.43914 0.741637 0
M  V30 6602 H 609.989 -3.88013 -1.15012 0
M  V30 6603 H 608.559 -2.83202 -1.32346 0
M  V30 6604 H 607.779 -3.82444 0.955536 0
M  V30 6605 H 609.067 -5.02869 0.774614 0
M  V30 6606 H 608.465 -5.1202 -2.40525 0
M  V30 6607 H 607.022 -6.05264 -2.41864 0
M  V30 6608 N 610.455 -0.639598 -1.44038 0
M  V30 6609 C 611.703 -0.147188 -2.01563 0
M  V30 6610 C 612.024 1.2384 -1.50628 0
M  V30 6611 O 611.294 1.82452 -0.713316 0
M  V30 6612 H 609.874 -0.0514231 -0.745228 0
M  V30 6613 H 612.536 -0.828205 -1.76428 0
M  V30 6614 H 611.632 -0.121358 -3.11864 0
M  V30 6615 N 611.933 1.52934 -0.380664 0
M  V30 6616 C 613.161 2.05886 0.204599 0
M  V30 6617 C 613.576 1.25305 1.41223 0
M  V30 6618 O 612.933 0.297504 1.80059 0
M  V30 6619 C 612.984 3.56764 0.583249 0
M  V30 6620 O 612.705 4.34292 -0.576398 0
M  V30 6621 C 614.206 4.2603 1.2253 0
M  V30 6622 H 611.426 0.670193 0.0328991 0
M  V30 6623 H 613.97 1.97148 -0.543397 0
M  V30 6624 H 612.125 3.65603 1.28115 0
M  V30 6625 H 612.539 5.23819 -0.267119 0
M  V30 6626 H 614.013 5.32868 1.44068 0
M  V30 6627 H 614.49 3.80698 2.19011 0
M  V30 6628 H 615.096 4.21485 0.568407 0
M  V30 6629 N 613.412 0.11024 1.57214 0
M  V30 6630 C 614.642 -0.557025 1.98949 0
M  V30 6631 C 615.05 -1.61317 0.988606 0
M  V30 6632 O 614.393 -1.83679 -0.0279159 0
M  V30 6633 C 614.455 -1.24956 3.37085 0
M  V30 6634 C 614.119 -0.342398 4.55716 0
M  V30 6635 C 615.116 0.415511 5.18237 0
M  V30 6636 C 612.801 -0.256029 5.01647 0
M  V30 6637 C 614.795 1.24761 6.25071 0
M  V30 6638 C 612.482 0.579713 6.08344 0
M  V30 6639 C 613.48 1.33017 6.69922 0
M  V30 6640 O 613.168 2.15205 7.74559 0
M  V30 6641 H 612.9 -0.152792 0.658506 0
M  V30 6642 H 615.454 0.19076 2.04512 0
M  V30 6643 H 613.684 -2.04424 3.2825 0
M  V30 6644 H 615.373 -1.81286 3.63167 0
M  V30 6645 H 616.139 0.358605 4.83672 0
M  V30 6646 H 612.018 -0.829831 4.5347 0
M  V30 6647 H 615.562 1.83386 6.73064 0
M  V30 6648 H 611.459 0.638044 6.42339 0
M  V30 6649 H 612.227 2.08052 7.91617 0
M  V30 6650 N 614.89 -1.56749 -0.16351 0
M  V30 6651 C 615.822 -1.93587 -1.22705 0
M  V30 6652 C 616.835 -0.829824 -1.40063 0
M  V30 6653 O 618.024 -1.10826 -1.39928 0
M  V30 6654 C 615.124 -2.1803 -2.59454 0
M  V30 6655 C 614.297 -3.4928 -2.63292 0
M  V30 6656 C 613.356 -3.62457 -3.8146 0
M  V30 6657 O 612.382 -4.35004 -3.67096 0
M  V30 6658 N 613.584 -2.97888 -4.9824 0
M  V30 6659 H 616.349 -2.8542 -0.914081 0
M  V30 6660 H 613.91 -1.58 -0.353214 0
M  V30 6661 H 615.902 -2.24102 -3.36987 0
M  V30 6662 H 614.472 -1.32543 -2.8311 0
M  V30 6663 H 613.692 -3.54795 -1.71796 0
M  V30 6664 H 614.98 -4.35632 -2.62873 0
M  V30 6665 H 614.378 -2.38833 -5.12811 0
M  V30 6666 H 612.935 -3.09545 -5.73607 0
M  V30 6667 N 616.368 0.432326 -1.51554 0
M  V30 6668 C 617.608 1.19076 -1.66133 0
M  V30 6669 C 617.972 1.88364 -0.371873 0
M  V30 6670 O 619.173 2.65904 -0.39349 0
M  V30 6671 C 617.444 2.1768 -2.83461 0
M  V30 6672 S 619.003 3.01943 -3.18396 0
M  V30 6673 H 615.821 0.403735 -0.585251 0
M  V30 6674 H 618.423 0.481554 -1.89476 0
M  V30 6675 H 617.127 1.65424 -3.75583 0
M  V30 6676 H 616.658 2.93174 -2.62322 0
M  V30 6677 H 618.673 4.19373 -2.65219 0
M  V30 6678 N 617.846 1.41785 0.688094 0
M  V30 6679 C 618.776 1.47 1.8142 0
M  V30 6680 C 619.757 0.327881 1.6691 0
M  V30 6681 O 620.942 0.540362 1.86531 0
M  V30 6682 C 618.072 1.35876 3.19617 0
M  V30 6683 C 617.026 2.47976 3.48844 0
M  V30 6684 C 616.352 2.21915 4.86475 0
M  V30 6685 C 617.652 3.90309 3.47068 0
M  V30 6686 H 619.346 2.41247 1.77314 0
M  V30 6687 H 616.892 1.16116 0.851651 0
M  V30 6688 H 618.845 1.38134 3.98117 0
M  V30 6689 H 617.569 0.38116 3.24368 0
M  V30 6690 H 616.228 2.45013 2.72698 0
M  V30 6691 H 615.876 1.2248 4.8786 0
M  V30 6692 H 615.576 2.97037 5.06994 0
M  V30 6693 H 617.1 2.25901 5.67275 0
M  V30 6694 H 618.514 3.94947 4.1556 0
M  V30 6695 H 616.911 4.65175 3.7912 0
M  V30 6696 H 617.981 4.17927 2.45896 0
M  V30 6697 N 619.324 -0.923095 1.27737 0
M  V30 6698 C 620.234 -2.05765 1.12685 0
M  V30 6699 C 621.25 -1.73911 0.0557197 0
M  V30 6700 O 622.426 -1.99674 0.263137 0
M  V30 6701 C 619.491 -3.37804 0.780363 0
M  V30 6702 C 618.552 -3.83326 1.93286 0
M  V30 6703 C 617.785 -5.09064 1.60281 0
M  V30 6704 O 618.008 -5.6809 0.512828 0
M  V30 6705 O 616.942 -5.50071 2.44347 0
M  V30 6706 H 620.768 -2.21378 2.07907 0
M  V30 6707 H 618.353 -1.04299 1.06968 0
M  V30 6708 H 620.235 -4.17097 0.600668 0
M  V30 6709 H 618.91 -3.23387 -0.142291 0
M  V30 6710 H 617.817 -3.049 2.16764 0
M  V30 6711 H 619.15 -4.02292 2.83588 0
M  V30 6712 N 620.802 -1.09834 -1.13024 0
M  V30 6713 C 621.75 -0.736283 -2.20639 0
M  V30 6714 C 622.744 0.264725 -1.67319 0
M  V30 6715 O 623.95 0.125745 -1.7956 0
M  V30 6716 H 620.325 -0.220136 -0.719058 0
M  V30 6717 H 622.296 -1.65295 -2.48436 0
M  V30 6718 C 621.045 -0.177544 -3.47246 0
M  V30 6719 H 620.368 -0.939009 -3.88616 0
M  V30 6720 H 621.808 0.0378007 -4.23983 0
M  V30 6721 C 620.267 1.08824 -3.1884 0
M  V30 6722 O 620.797 2.1708 -3.37993 0
M  V30 6723 N 619.003 1.00442 -2.7269 0
M  V30 6724 H 618.55 0.123383 -2.57304 0
M  V30 6725 H 618.508 1.85206 -2.5406 0
M  V30 6726 N 622.28 1.30327 -0.886154 0
M  V30 6727 C 623.52 1.97886 -0.511912 0
M  V30 6728 C 623.884 1.68417 0.921944 0
M  V30 6729 O 625.085 2.29319 1.40237 0
M  V30 6730 C 623.356 3.48775 -0.780444 0
M  V30 6731 S 624.915 4.35844 -0.508482 0
M  V30 6732 H 621.733 0.685024 -0.190428 0
M  V30 6733 H 624.335 1.58413 -1.14567 0
M  V30 6734 H 623.039 3.67714 -1.82248 0
M  V30 6735 H 622.57 3.93171 -0.134284 0
M  V30 6736 H 624.585 4.91893 0.65239 0
M  V30 6737 N 623.758 0.647228 1.43697 0
M  V30 6738 C 625.006 0.157876 2.01482 0
M  V30 6739 C 625.327 -1.23039 1.51282 0
M  V30 6740 O 624.597 -1.82071 0.722982 0
M  V30 6741 H 623.177 0.0553745 0.744945 0
M  V30 6742 H 625.839 0.83755 1.75986 0
M  V30 6743 H 624.935 0.137895 3.11795 0
M  V30 6744 N 625.236 -1.5273 0.388769 0
M  V30 6745 C 626.464 -2.05992 -0.193677 0
M  V30 6746 C 626.879 -1.26053 -1.40557 0
M  V30 6747 O 626.236 -0.307049 -1.79898 0
M  V30 6748 C 626.287 -3.57068 -0.564321 0
M  V30 6749 O 626.008 -4.3398 0.599422 0
M  V30 6750 C 627.509 -4.26674 -1.20269 0
M  V30 6751 H 624.729 -0.670358 -0.0293445 0
M  V30 6752 H 627.273 -1.96857 0.553844 0
M  V30 6753 H 625.428 -3.66277 -1.26174 0
M  V30 6754 H 625.842 -5.2367 0.294895 0
M  V30 6755 H 627.316 -5.33625 -1.4124 0
M  V30 6756 H 627.793 -3.81854 -2.16989 0
M  V30 6757 H 628.399 -4.2178 -0.546047 0
M  V30 6758 N 626.714 -0.118576 -1.57153 0
M  V30 6759 C 627.96 0.540326 -1.95469 0
M  V30 6760 C 628.293 1.66356 -1.00196 0
M  V30 6761 O 627.568 1.94461 -0.039104 0
M  V30 6762 C 627.851 1.07342 -3.43729 0
M  V30 6763 C 627.704 -0.0463732 -4.49776 0
M  V30 6764 C 629.023 1.96442 -3.93826 0
M  V30 6765 H 626.142 0.19494 -0.710751 0
M  V30 6766 H 628.784 -0.19405 -1.89006 0
M  V30 6767 H 626.934 1.69925 -3.49368 0
M  V30 6768 H 628.606 -0.681648 -4.56236 0
M  V30 6769 H 626.849 -0.709574 -4.27957 0
M  V30 6770 H 627.52 0.367856 -5.50773 0
M  V30 6771 H 629.996 1.43731 -3.90488 0
M  V30 6772 H 628.872 2.3066 -4.98084 0
M  V30 6773 H 629.133 2.89077 -3.34495 0
M  V30 6774 N 628.193 1.56834 0.155195 0
M  V30 6775 C 629.156 1.96748 1.17571 0
M  V30 6776 C 630.156 0.853006 1.3631 0
M  V30 6777 O 631.346 1.11978 1.33441 0
M  V30 6778 C 628.478 2.27631 2.53765 0
M  V30 6779 H 629.671 2.88085 0.833498 0
M  V30 6780 H 627.224 1.51141 0.398242 0
M  V30 6781 H 627.959 1.39059 2.92973 0
M  V30 6782 H 627.744 3.0888 2.41527 0
M  V30 6783 H 629.234 2.59377 3.27282 0
M  V30 6784 N 629.671 -0.424282 1.51781 0
M  V30 6785 C 630.601 -1.52305 1.7699 0
M  V30 6786 C 631.582 -1.5839 0.620209 0
M  V30 6787 O 632.767 -1.73908 0.864268 0
M  V30 6788 C 629.897 -2.90271 1.90683 0
M  V30 6789 C 628.851 -2.99043 3.06198 0
M  V30 6790 C 628.177 -4.39116 3.05092 0
M  V30 6791 C 629.477 -2.7192 4.45934 0
M  V30 6792 H 631.171 -1.31461 2.68995 0
M  V30 6793 H 628.717 -0.630985 1.29439 0
M  V30 6794 H 630.67 -3.6711 2.06901 0
M  V30 6795 H 629.394 -3.12376 0.953365 0
M  V30 6796 H 628.053 -2.24646 2.89706 0
M  V30 6797 H 627.701 -4.58207 2.07498 0
M  V30 6798 H 627.401 -4.45912 3.82669 0
M  V30 6799 H 628.925 -5.17911 3.2342 0
M  V30 6800 H 630.339 -3.38487 4.62709 0
M  V30 6801 H 628.736 -2.90111 5.25315 0
M  V30 6802 H 629.806 -1.67445 4.55072 0
M  V30 6803 N 631.149 -1.42148 -0.680565 0
M  V30 6804 C 632.377 -1.45696 -1.46902 0
M  V30 6805 C 632.792 -0.0665858 -1.88683 0
M  V30 6806 O 632.149 0.917436 -1.57764 0
M  V30 6807 C 632.2 -2.37898 -2.72188 0
M  V30 6808 O 631.921 -3.71526 -2.32163 0
M  V30 6809 C 633.422 -2.50407 -3.65802 0
M  V30 6810 H 630.642 -0.495729 -0.45221 0
M  V30 6811 H 633.186 -1.866 -0.836709 0
M  V30 6812 H 631.341 -2.00263 -3.31622 0
M  V30 6813 H 631.755 -4.20849 -3.13027 0
M  V30 6814 H 633.229 -3.19056 -4.50452 0
M  V30 6815 H 633.706 -1.5401 -4.11312 0
M  V30 6816 H 634.312 -2.8874 -3.12265 0
M  V30 6817 N 632.627 0.916307 -1.28225 0
M  V30 6818 C 633.876 1.65975 -1.14608 0
M  V30 6819 C 634.189 1.93204 0.305191 0
M  V30 6820 O 635.395 2.65611 0.562432 0
M  V30 6821 C 633.851 2.98989 -2.00333 0
M  V30 6822 C 633.459 2.79417 -3.50186 0
M  V30 6823 C 635.203 3.76856 -1.95397 0
M  V30 6824 C 633.11 4.08056 -4.28071 0
M  V30 6825 H 632.04 0.622587 -0.425324 0
M  V30 6826 H 634.691 1.01705 -1.52736 0
M  V30 6827 H 633.073 3.6438 -1.5506 0
M  V30 6828 H 634.247 2.22723 -4.034 0
M  V30 6829 H 632.562 2.14966 -3.56621 0
M  V30 6830 H 635.159 4.72203 -2.50856 0
M  V30 6831 H 635.502 4.05776 -0.930137 0
M  V30 6832 H 636.035 3.1828 -2.38626 0
M  V30 6833 H 632.774 3.8431 -5.31024 0
M  V30 6834 H 632.294 4.64371 -3.79631 0
M  V30 6835 H 633.973 4.76333 -4.37854 0
M  V30 6836 N 634.105 1.10431 1.1244 0
M  V30 6837 C 635.354 0.841539 1.83306 0
M  V30 6838 C 635.667 -0.634961 1.85007 0
M  V30 6839 O 636.873 -1.01363 2.51869 0
M  V30 6840 C 635.329 1.45565 3.29149 0
M  V30 6841 C 634.937 2.96544 3.35806 0
M  V30 6842 C 636.681 1.27227 4.04986 0
M  V30 6843 C 634.588 3.5099 4.75983 0
M  V30 6844 H 633.518 0.311156 0.686803 0
M  V30 6845 H 636.169 1.32829 1.26604 0
M  V30 6846 H 634.551 0.896574 3.85717 0
M  V30 6847 H 635.725 3.58766 2.89177 0
M  V30 6848 H 634.04 3.14036 2.73442 0
M  V30 6849 H 636.637 1.65348 5.08492 0
M  V30 6850 H 636.98 0.213834 4.1575 0
M  V30 6851 H 637.513 1.79941 3.54776 0
M  V30 6852 H 634.252 4.56499 4.70413 0
M  V30 6853 H 633.772 2.93535 5.23065 0
M  V30 6854 H 635.451 3.48808 5.44924 0
M  V30 6855 N 635.583 -1.29855 0.893053 0
M  V30 6856 C 636.999 -1.48366 0.588199 0
M  V30 6857 C 637.199 -1.81654 -0.872018 0
M  V30 6858 O 636.255 -1.909 -1.65268 0
M  V30 6859 C 637.568 -2.60136 1.5083 0
M  V30 6860 C 639.116 -2.74014 1.51279 0
M  V30 6861 C 639.591 -3.88905 2.41902 0
M  V30 6862 N 641.082 -3.96228 2.39911 0
M  V30 6863 C 641.817 -4.84458 3.06738 0
M  V30 6864 N 641.313 -5.77426 3.8282 0
M  V30 6865 N 643.106 -4.77894 2.95929 0
M  V30 6866 H 635.257 -1.06522 1.83757 0
M  V30 6867 H 637.52 -0.528495 0.787018 0
M  V30 6868 H 637.226 -2.42383 2.54839 0
M  V30 6869 H 637.1 -3.56793 1.22388 0
M  V30 6870 H 639.487 -2.91167 0.480179 0
M  V30 6871 H 639.568 -1.77952 1.83757 0
M  V30 6872 H 639.212 -3.72508 3.45253 0
M  V30 6873 H 639.142 -4.84322 2.06737 0
M  V30 6874 H 641.633 -3.29728 1.84629 0
M  V30 6875 H 641.946 -6.41529 4.30883 0
M  V30 6876 H 640.291 -5.77332 3.86927 0
M  V30 6877 H 643.482 -4.04248 2.36012 0
M  V30 6878 H 643.655 -5.46444 3.48286 0
M  V30 6879 N 637.061 -0.65484 -1.43351 0
M  V30 6880 C 638.477 -0.32255 -1.56307 0
M  V30 6881 C 638.677 1.17324 -1.63821 0
M  V30 6882 O 637.733 1.95813 -1.59417 0
M  V30 6883 C 639.046 -1.03533 -2.82314 0
M  V30 6884 C 640.594 -1.01574 -2.9606 0
M  V30 6885 C 641.069 -1.70945 -4.24902 0
M  V30 6886 N 642.56 -1.67716 -4.3177 0
M  V30 6887 C 643.295 -2.18265 -5.30234 0
M  V30 6888 N 642.791 -2.7711 -6.34966 0
M  V30 6889 N 644.584 -2.08756 -5.21898 0
M  V30 6890 H 636.735 -1.62549 -1.36717 0
M  V30 6891 H 638.998 -0.683676 -0.656727 0
M  V30 6892 H 638.704 -2.09045 -2.8283 0
M  V30 6893 H 638.578 -0.587913 -3.7259 0
M  V30 6894 H 640.965 0.0309834 -2.95084 0
M  V30 6895 H 641.046 -1.50186 -2.07069 0
M  V30 6896 H 640.69 -2.75574 -4.26639 0
M  V30 6897 H 640.62 -1.19797 -5.12793 0
M  V30 6898 H 643.111 -1.24777 -3.56706 0
M  V30 6899 H 643.424 -3.13353 -7.06421 0
M  V30 6900 H 641.769 -2.81171 -6.35585 0
M  V30 6901 H 644.96 -1.62488 -4.38994 0
M  V30 6902 H 645.133 -2.48459 -5.98475 0
M  V30 6903 N 638.539 1.52521 -0.396863 0
M  V30 6904 C 639.787 2.01274 0.182536 0
M  V30 6905 C 640.108 1.28485 1.46685 0
M  V30 6906 O 639.378 0.407134 1.91623 0
M  V30 6907 H 637.958 0.743671 0.0704442 0
M  V30 6908 H 640.62 1.87547 -0.530289 0
M  V30 6909 H 639.716 3.09687 0.387385 0
M  V30 6910 N 640.017 0.126909 1.57088 0
M  V30 6911 C 641.265 -0.528123 1.95078 0
M  V30 6912 C 641.586 -1.66708 1.0116 0
M  V30 6913 O 640.856 -1.95777 0.0693527 0
M  V30 6914 H 639.436 -0.198087 0.720257 0
M  V30 6915 H 642.098 0.197703 1.93895 0
M  V30 6916 H 641.194 -0.917507 2.98309 0
M  V30 6917 N 641.495 -1.56914 -0.146875 0
M  V30 6918 C 642.772 -1.74273 -0.888165 0
M  V30 6919 C 643.152 -0.69496 -1.99333 0
M  V30 6920 O 642.5 0.286093 -2.26702 0
M  V30 6921 C 642.71 -3.18336 -1.43051 0
M  V30 6922 C 644.058 -3.80024 -1.89387 0
M  V30 6923 O 645.082 -3.21765 -1.52792 0
M  V30 6924 O 643.941 -4.82367 -2.56874 0
M  V30 6925 H 641.035 -0.712565 -0.419738 0
M  V30 6926 H 643.581 -1.6918 -0.132791 0
M  V30 6927 H 642.353 -3.86092 -0.636274 0
M  V30 6928 H 641.976 -3.27854 -2.24938 0
M  V30 6929 N 642.974 0.416227 -1.52004 0
M  V30 6930 C 643.904 1.51365 -1.77795 0
M  V30 6931 C 644.885 1.58059 -0.628601 0
M  V30 6932 O 646.07 1.73447 -0.873478 0
M  V30 6933 C 643.2 2.89256 -1.92219 0
M  V30 6934 C 642.154 2.97415 -3.0778 0
M  V30 6935 C 641.48 4.37492 -3.07417 0
M  V30 6936 C 642.78 2.69551 -4.47369 0
M  V30 6937 H 644.474 1.30033 -2.69688 0
M  V30 6938 H 642.02 0.624112 -1.29772 0
M  V30 6939 H 643.973 3.66008 -2.08845 0
M  V30 6940 H 642.697 3.11866 -0.969917 0
M  V30 6941 H 641.356 2.23107 -2.90893 0
M  V30 6942 H 641.004 4.571 -2.09925 0
M  V30 6943 H 640.704 4.43877 -3.85029 0
M  V30 6944 H 642.228 5.16188 -3.26162 0
M  V30 6945 H 643.642 3.36028 -4.64497 0
M  V30 6946 H 642.039 2.87321 -5.26846 0
M  V30 6947 H 643.109 1.65029 -4.55953 0
M  V30 6948 N 644.452 1.42507 0.673017 0
M  V30 6949 C 645.68 1.46473 1.46128 0
M  V30 6950 C 646.095 0.0765912 1.88645 0
M  V30 6951 O 645.452 -0.909057 1.58248 0
M  V30 6952 C 645.503 2.39339 2.70923 0
M  V30 6953 O 645.224 3.72752 2.3019 0
M  V30 6954 C 646.725 2.52343 3.64469 0
M  V30 6955 H 643.945 0.49812 0.449575 0
M  V30 6956 H 646.489 1.87041 0.826802 0
M  V30 6957 H 644.644 2.02019 3.30556 0
M  V30 6958 H 645.058 4.22503 3.10791 0
M  V30 6959 H 646.532 3.2144 4.48754 0
M  V30 6960 H 647.009 1.56189 4.1049 0
M  V30 6961 H 647.615 2.90392 3.10729 0
M  V30 6962 N 645.93 -0.909495 1.28709 0
M  V30 6963 C 646.878 -2.03381 1.12866 0
M  V30 6964 C 647.872 -1.69335 0.0468074 0
M  V30 6965 O 649.078 -1.78819 0.205891 0
M  V30 6966 H 645.453 -0.666452 0.348348 0
M  V30 6967 H 647.424 -2.13885 2.08077 0
M  V30 6968 C 646.173 -3.38092 0.811742 0
M  V30 6969 H 645.496 -3.64786 1.63619 0
M  V30 6970 H 646.936 -4.17477 0.740869 0
M  V30 6971 C 645.395 -3.33395 -0.484679 0
M  V30 6972 O 645.925 -3.72089 -1.5137 0
M  V30 6973 N 644.131 -2.86491 -0.486961 0
M  V30 6974 H 643.678 -2.55199 0.350877 0
M  V30 6975 H 643.636 -2.83731 -1.3544 0
M  V30 6976 N 647.408 -1.11026 -1.11852 0
M  V30 6977 C 648.636 -0.878818 -1.87308 0
M  V30 6978 C 649.051 0.57111 -1.79955 0
M  V30 6979 O 648.408 1.39409 -1.17777 0
M  V30 6980 C 648.459 -1.3264 -3.36287 0
M  V30 6981 O 648.18 -2.71948 -3.43476 0
M  V30 6982 C 649.681 -1.12974 -4.28663 0
M  V30 6983 H 646.901 -0.315015 -0.592458 0
M  V30 6984 H 649.445 -1.47649 -1.41492 0
M  V30 6985 H 647.6 -0.772269 -3.79625 0
M  V30 6986 H 648.014 -2.91241 -4.3621 0
M  V30 6987 H 649.488 -1.49198 -5.31454 0
M  V30 6988 H 649.965 -0.0689127 -4.39146 0
M  V30 6989 H 650.571 -1.67064 -3.91113 0
M  V30 6990 N 648.886 1.2938 -0.899927 0
M  V30 6991 C 650.132 1.9584 -0.526742 0
M  V30 6992 C 650.465 1.70774 0.924651 0
M  V30 6993 O 649.74 1.02084 1.65557 0
M  V30 6994 C 650.023 3.50638 -0.820062 0
M  V30 6995 C 649.876 3.85161 -2.32317 0
M  V30 6996 C 651.195 4.3903 -0.30671 0
M  V30 6997 H 648.314 0.711322 -0.192848 0
M  V30 6998 H 650.956 1.52992 -1.12665 0
M  V30 6999 H 649.106 3.87265 -0.309491 0
M  V30 7000 H 650.778 3.58477 -2.9033 0
M  V30 7001 H 649.021 3.32696 -2.78381 0
M  V30 7002 H 649.692 4.93204 -2.47898 0
M  V30 7003 H 652.168 4.09396 -0.743908 0
M  V30 7004 H 651.044 5.46226 -0.541144 0
M  V30 7005 H 651.305 4.34937 0.792588 0
M  V30 7006 N 650.364 0.662433 1.43002 0
M  V30 7007 C 651.611 0.179591 2.01702 0
M  V30 7008 C 651.939 -1.20964 1.52309 0
M  V30 7009 O 651.194 -1.82343 0.7106 0
M  V30 7010 C 651.493 0.149363 3.57088 0
M  V30 7011 C 651.159 1.48158 4.25864 0
M  V30 7012 C 649.821 1.84638 4.44367 0
M  V30 7013 C 652.173 2.35953 4.64732 0
M  V30 7014 C 649.501 3.08561 4.99006 0
M  V30 7015 C 651.853 3.59176 5.20745 0
M  V30 7016 C 650.517 3.95841 5.37463 0
M  V30 7017 H 649.787 0.0657172 0.73808 0
M  V30 7018 H 652.434 0.854968 1.71355 0
M  V30 7019 H 650.739 -0.609491 3.8703 0
M  V30 7020 H 652.436 -0.241241 4.00274 0
M  V30 7021 H 649.026 1.18777 4.11813 0
M  V30 7022 H 653.21 2.09058 4.50121 0
M  V30 7023 H 648.466 3.37005 5.10135 0
M  V30 7024 H 652.64 4.27417 5.49807 0
M  V30 7025 H 650.267 4.91942 5.79566 0
M  V30 7026 N 651.842 -1.52309 0.404946 0
M  V30 7027 C 653.088 -2.02065 -0.172455 0
M  V30 7028 C 653.421 -1.29022 -1.45145 0
M  V30 7029 O 652.696 -0.395284 -1.90441 0
M  V30 7030 C 652.979 -3.5759 -0.424433 0
M  V30 7031 C 652.832 -4.41287 0.870945 0
M  V30 7032 C 654.151 -4.23186 -1.20837 0
M  V30 7033 H 651.27 -0.734454 -0.0612035 0
M  V30 7034 H 653.912 -1.82236 0.53759 0
M  V30 7035 H 652.062 -3.74617 -1.02929 0
M  V30 7036 H 653.734 -4.3598 1.50729 0
M  V30 7037 H 651.977 -4.07669 1.48284 0
M  V30 7038 H 652.648 -5.48171 0.649083 0
M  V30 7039 H 655.124 -4.10232 -0.696338 0
M  V30 7040 H 654 -5.31953 -1.35343 0
M  V30 7041 H 654.261 -3.81862 -2.22786 0
M  V30 7042 N 653.32 -0.135238 -1.57019 0
M  V30 7043 C 654.597 0.563227 -1.87316 0
M  V30 7044 C 654.977 1.83749 -1.03921 0
M  V30 7045 O 654.325 2.2817 -0.122675 0
M  V30 7046 C 654.535 0.840031 -3.3874 0
M  V30 7047 C 655.883 1.18598 -4.077 0
M  V30 7048 O 656.907 0.92977 -3.43851 0
M  V30 7049 O 655.766 1.66758 -5.20436 0
M  V30 7050 H 652.86 0.285971 -0.775983 0
M  V30 7051 H 655.406 -0.170965 -1.68837 0
M  V30 7052 H 654.178 -0.0622785 -3.9125 0
M  V30 7053 H 653.801 1.62882 -3.62706 0
M  V30 7054 N 654.798 1.5699 0.138552 0
M  V30 7055 C 656.045 1.83809 0.849732 0
M  V30 7056 C 656.373 0.717409 1.80786 0
M  V30 7057 O 655.628 -0.292897 1.93496 0
M  V30 7058 C 655.927 3.17007 1.65049 0
M  V30 7059 C 655.593 4.43037 0.838398 0
M  V30 7060 C 654.255 4.77262 0.614385 0
M  V30 7061 C 656.607 5.20495 0.271044 0
M  V30 7062 C 653.935 5.864 -0.187552 0
M  V30 7063 C 656.287 6.30476 -0.517979 0
M  V30 7064 C 654.951 6.63245 -0.75249 0
M  V30 7065 H 654.221 0.672605 0.310939 0
M  V30 7066 H 656.868 1.91166 0.112971 0
M  V30 7067 H 655.173 3.05138 2.4576 0
M  V30 7068 H 656.87 3.34975 2.20437 0
M  V30 7069 H 653.46 4.16211 1.02307 0
M  V30 7070 H 657.644 4.94422 0.431371 0
M  V30 7071 H 652.9 6.10226 -0.378659 0
M  V30 7072 H 657.074 6.89686 -0.964694 0
M  V30 7073 H 654.701 7.47648 -1.37573 0
M  V30 7074 N 656.276 -0.40816 1.52223 0
M  V30 7075 C 657.692 -0.74685 1.41047 0
M  V30 7076 C 657.892 -1.94788 0.51573 0
M  V30 7077 O 656.948 -2.52494 -0.0181156 0
M  V30 7078 C 658.261 -0.999878 2.83589 0
M  V30 7079 C 659.809 -1.10253 2.92939 0
M  V30 7080 C 660.284 -1.38832 4.36451 0
M  V30 7081 N 661.775 -1.45694 4.3969 0
M  V30 7082 C 662.51 -1.69435 5.47795 0
M  V30 7083 N 662.006 -1.90774 6.66016 0
M  V30 7084 N 663.799 -1.71458 5.35312 0
M  V30 7085 H 655.95 0.382409 2.08929 0
M  V30 7086 H 658.213 0.108807 0.941735 0
M  V30 7087 H 657.919 -0.189723 3.51188 0
M  V30 7088 H 657.793 -1.91978 3.24691 0
M  V30 7089 H 660.18 -1.90328 2.2552 0
M  V30 7090 H 660.261 -0.160973 2.55293 0
M  V30 7091 H 659.905 -0.592741 5.04429 0
M  V30 7092 H 659.835 -2.34241 4.71634 0
M  V30 7093 H 662.326 -1.3099 3.54472 0
M  V30 7094 H 662.639 -2.08342 7.44186 0
M  V30 7095 H 660.984 -1.88037 6.69079 0
M  V30 7096 H 664.175 -1.54326 4.41929 0
M  V30 7097 H 664.348 -1.89621 6.19635 0
M  V30 7098 N 657.755 -1.42862 -0.66545 0
M  V30 7099 C 658.983 -1.47246 -1.45349 0
M  V30 7100 C 659.398 -0.0865944 -1.88601 0
M  V30 7101 O 658.755 0.900652 -1.58728 0
M  V30 7102 C 658.806 -2.40772 -2.6965 0
M  V30 7103 O 658.527 -3.73968 -2.2821 0
M  V30 7104 C 660.028 -2.54272 -3.63126 0
M  V30 7105 H 657.248 -0.500497 -0.446927 0
M  V30 7106 H 659.792 -1.87477 -0.816871 0
M  V30 7107 H 657.947 -2.0377 -3.29479 0
M  V30 7108 H 658.361 -4.24146 -3.08546 0
M  V30 7109 H 659.835 -3.23815 -4.47043 0
M  V30 7110 H 660.312 -1.58364 -4.09656 0
M  V30 7111 H 660.918 -2.92036 -3.09185 0
M  V30 7112 N 659.233 0.902656 -1.29189 0
M  V30 7113 C 660.143 2.03946 -1.15944 0
M  V30 7114 C 661.159 1.738 -0.0833803 0
M  V30 7115 O 662.335 1.9923 -0.29487 0
M  V30 7116 C 659.4 3.36519 -0.834006 0
M  V30 7117 C 658.461 3.80203 -1.9936 0
M  V30 7118 C 657.694 5.06449 -1.68359 0
M  V30 7119 O 657.917 5.67202 -0.603141 0
M  V30 7120 O 656.851 5.46114 -2.53067 0
M  V30 7121 H 660.677 2.18043 -2.11403 0
M  V30 7122 H 658.262 1.02584 -1.08613 0
M  V30 7123 H 660.144 4.16089 -0.666949 0
M  V30 7124 H 658.819 3.23573 0.0908245 0
M  V30 7125 H 657.726 3.01413 -2.21588 0
M  V30 7126 H 659.059 3.97729 -2.89952 0
M  V30 7127 N 660.711 1.11618 1.11262 0
M  V30 7128 C 661.988 0.777876 1.79467 0
M  V30 7129 C 662.368 -0.733774 1.97937 0
M  V30 7130 O 661.716 -1.66443 1.56554 0
M  V30 7131 C 661.926 1.5431 3.13032 0
M  V30 7132 C 663.274 1.72357 3.88044 0
M  V30 7133 O 664.298 1.5075 3.22727 0
M  V30 7134 O 663.157 2.08276 5.05256 0
M  V30 7135 H 660.251 0.282018 0.777428 0
M  V30 7136 H 662.797 1.21971 1.17988 0
M  V30 7137 H 661.569 2.57132 2.94956 0
M  V30 7138 H 661.192 1.09495 3.82226 0
M  V30 7139 N 662.189 -1.289 0.906776 0
M  V30 7140 C 663.437 -1.94883 0.535266 0
M  V30 7141 C 663.758 -1.71784 -0.922791 0
M  V30 7142 O 663.028 -1.05359 -1.65156 0
M  V30 7143 H 661.608 -0.721109 0.194962 0
M  V30 7144 H 664.27 -1.57018 1.15461 0
M  V30 7145 H 663.366 -3.03591 0.723821 0
M  V30 7146 N 663.667 -0.670007 -1.42649 0
M  V30 7147 C 664.895 -0.19854 -2.05945 0
M  V30 7148 C 665.31 1.14243 -1.50313 0
M  V30 7149 O 664.667 1.70872 -0.641027 0
M  V30 7150 C 664.718 -0.11966 -3.61302 0
M  V30 7151 O 664.439 -1.40764 -4.1487 0
M  V30 7152 C 665.94 0.375878 -4.41704 0
M  V30 7153 H 663.16 -0.0976894 -0.663851 0
M  V30 7154 H 665.704 -0.915392 -1.82868 0
M  V30 7155 H 663.859 0.547851 -3.83507 0
M  V30 7156 H 664.273 -1.27784 -5.08696 0
M  V30 7157 H 665.747 0.379988 -5.50691 0
M  V30 7158 H 666.224 1.41028 -4.15942 0
M  V30 7159 H 666.83 -0.259727 -4.24506 0
M  V30 7160 N 665.145 1.52092 -0.413018 0
M  V30 7161 C 666.108 2.25706 0.398687 0
M  V30 7162 C 667.108 1.28221 0.970368 0
M  V30 7163 O 668.298 1.52131 0.848635 0
M  V30 7164 C 665.43 3.03029 1.5616 0
M  V30 7165 H 666.623 2.98888 -0.246131 0
M  V30 7166 H 664.176 1.5542 -0.165622 0
M  V30 7167 H 664.911 2.34205 2.24317 0
M  V30 7168 H 664.696 3.74606 1.15812 0
M  V30 7169 H 666.186 3.58857 2.13569 0
M  V30 7170 N 666.623 0.143563 1.56945 0
M  V30 7171 C 667.571 -0.814556 2.17871 0
M  V30 7172 C 668.565 -1.25778 1.13474 0
M  V30 7173 O 669.771 -1.22666 1.31731 0
M  V30 7174 H 666.146 -0.280873 0.697578 0
M  V30 7175 H 668.117 -0.276459 2.97117 0
M  V30 7176 C 666.866 -2.04503 2.81201 0
M  V30 7177 H 666.189 -1.71296 3.61245 0
M  V30 7178 H 667.629 -2.69493 3.27337 0
M  V30 7179 C 666.088 -2.85079 1.79532 0
M  V30 7180 O 666.618 -3.81306 1.26368 0
M  V30 7181 N 664.824 -2.49546 1.48913 0
M  V30 7182 H 664.371 -1.71359 1.92338 0
M  V30 7183 H 664.329 -3.03751 0.811348 0
M  V30 7184 N 668.101 -1.57061 -0.130224 0
M  V30 7185 C 669.064 -1.98593 -1.14426 0
M  V30 7186 C 670.064 -0.874584 -1.34936 0
M  V30 7187 O 671.254 -1.14086 -1.31643 0
M  V30 7188 C 668.386 -2.31639 -2.50112 0
M  V30 7189 H 669.579 -2.89374 -0.787561 0
M  V30 7190 H 667.132 -1.51756 -0.374146 0
M  V30 7191 H 667.867 -1.43703 -2.90723 0
M  V30 7192 H 667.652 -3.12684 -2.36583 0
M  V30 7193 H 669.142 -2.64551 -3.23114 0
M  V30 7194 N 669.579 0.400081 -1.52437 0
M  V30 7195 C 670.827 1.14392 -1.6661 0
M  V30 7196 C 671.148 1.90792 -0.402927 0
M  V30 7197 O 670.418 1.87042 0.582425 0
M  V30 7198 H 668.998 0.425275 -0.614125 0
M  V30 7199 H 671.66 0.455076 -1.89513 0
M  V30 7200 H 670.756 1.85298 -2.51139 0
M  V30 7201 N 671.057 1.43213 0.657864 0
M  V30 7202 C 672.282 1.48227 1.45064 0
M  V30 7203 C 672.707 0.0999939 1.87834 0
M  V30 7204 O 672.065 -0.905269 1.57081 0
M  V30 7205 C 672.113 2.42931 2.6649 0
M  V30 7206 O 671.217 1.91237 3.6538 0
M  V30 7207 H 670.558 0.501551 0.435135 0
M  V30 7208 H 673.088 1.8808 0.805431 0
M  V30 7209 H 673.098 2.6008 3.1436 0
M  V30 7210 H 671.773 3.43348 2.34701 0
M  V30 7211 H 670.35 1.83726 3.24498 0
M  V30 7212 N 672.536 -0.895792 1.29666 0
M  V30 7213 C 673.813 -1.62723 1.08538 0
M  V30 7214 C 674.193 -2.07848 -0.369119 0
M  V30 7215 O 673.541 -1.8372 -1.35864 0
M  V30 7216 C 673.751 -2.80505 2.07648 0
M  V30 7217 C 675.099 -3.51098 2.3878 0
M  V30 7218 O 676.123 -2.90679 2.05874 0
M  V30 7219 O 674.982 -4.60028 2.9502 0
M  V30 7220 H 672.076 -0.714692 0.416106 0
M  V30 7221 H 674.622 -0.943517 1.41053 0
M  V30 7222 H 673.394 -2.44386 3.05599 0
M  V30 7223 H 673.017 -3.5658 1.75887 0
M  V30 7224 N 674.014 -1.12206 -1.10668 0
M  V30 7225 C 675.244 -0.897332 -1.86095 0
M  V30 7226 C 675.652 0.556778 -1.80822 0
M  V30 7227 O 674.995 1.39658 -1.19337 0
M  V30 7228 C 675.057 -1.29095 -3.35522 0
M  V30 7229 C 674.721 -2.75586 -3.64556 0
M  V30 7230 C 675.718 -3.73785 -3.6136 0
M  V30 7231 C 673.403 -3.12432 -3.93309 0
M  V30 7232 C 675.397 -5.06845 -3.86506 0
M  V30 7233 C 673.084 -4.45675 -4.18111 0
M  V30 7234 C 674.082 -5.42691 -4.147 0
M  V30 7235 O 673.77 -6.73532 -4.38873 0
M  V30 7236 H 673.502 -0.320704 -0.595084 0
M  V30 7237 H 676.056 -1.49517 -1.40833 0
M  V30 7238 H 674.286 -0.636299 -3.81429 0
M  V30 7239 H 675.975 -1.04073 -3.92331 0
M  V30 7240 H 676.741 -3.46664 -3.39189 0
M  V30 7241 H 672.62 -2.3753 -3.95096 0
M  V30 7242 H 676.164 -5.82559 -3.83758 0
M  V30 7243 H 672.061 -4.72526 -4.39761 0
M  V30 7244 H 672.829 -6.79442 -4.564 0
M  V30 7245 N 675.492 1.28418 -0.913599 0
M  V30 7246 C 676.402 2.31043 -0.406965 0
M  V30 7247 C 677.418 1.66501 0.505298 0
M  V30 7248 O 678.594 1.97558 0.391522 0
M  V30 7249 C 675.659 3.4498 0.344901 0
M  V30 7250 C 674.72 4.25078 -0.600563 0
M  V30 7251 C 673.953 5.33575 0.115516 0
M  V30 7252 O 674.176 5.54503 1.33727 0
M  V30 7253 O 673.11 5.9939 -0.549095 0
M  V30 7254 H 676.936 2.76387 -1.25873 0
M  V30 7255 H 674.521 1.33109 -0.678415 0
M  V30 7256 H 676.403 4.14314 0.769542 0
M  V30 7257 H 675.078 3.01719 1.1725 0
M  V30 7258 H 673.985 3.58334 -1.0746 0
M  V30 7259 H 675.318 4.72018 -1.39497 0
M  V30 7260 N 676.97 0.677563 1.42291 0
M  V30 7261 C 678.217 0.200975 2.015 0
M  V30 7262 C 678.545 -1.19342 1.53583 0
M  V30 7263 O 677.8 -1.81579 0.7299 0
M  V30 7264 C 678.099 0.187229 3.56909 0
M  V30 7265 C 677.765 1.52667 4.24268 0
M  V30 7266 C 676.427 1.89341 4.42384 0
M  V30 7267 C 678.779 2.40869 4.62203 0
M  V30 7268 C 676.107 3.13836 4.95705 0
M  V30 7269 C 678.459 3.64679 5.16906 0
M  V30 7270 C 677.123 4.01519 5.33234 0
M  V30 7271 H 676.393 0.0735418 0.737342 0
M  V30 7272 H 679.04 0.873095 1.70439 0
M  V30 7273 H 677.345 -0.568407 3.87655 0
M  V30 7274 H 679.042 -0.198773 4.00507 0
M  V30 7275 H 675.632 1.23138 4.1053 0
M  V30 7276 H 679.816 2.1382 4.47878 0
M  V30 7277 H 675.072 3.42396 5.06532 0
M  V30 7278 H 679.246 4.33224 5.45243 0
M  V30 7279 H 676.873 4.98062 5.74316 0
M  V30 7280 N 678.448 -1.51871 0.421078 0
M  V30 7281 C 679.676 -2.06356 -0.14994 0
M  V30 7282 C 680.091 -1.29006 -1.37851 0
M  V30 7283 O 679.448 -0.345139 -1.79207 0
M  V30 7284 C 679.499 -3.58185 -0.488454 0
M  V30 7285 O 679.22 -4.32611 0.691341 0
M  V30 7286 C 680.721 -4.29129 -1.11191 0
M  V30 7287 H 677.941 -0.67083 -0.0151186 0
M  V30 7288 H 680.485 -1.95638 0.595476 0
M  V30 7289 H 678.64 -3.68871 -1.18376 0
M  V30 7290 H 679.054 -5.22927 0.405906 0
M  V30 7291 H 680.528 -5.36501 -1.29889 0
M  V30 7292 H 681.005 -3.86371 -2.0884 0
M  V30 7293 H 681.611 -4.22843 -0.456458 0
M  V30 7294 N 679.926 -0.151884 -1.56866 0
M  V30 7295 C 680.836 0.798876 -2.20579 0
M  V30 7296 C 681.852 1.268 -1.19154 0
M  V30 7297 O 683.028 1.32418 -1.51748 0
M  V30 7298 C 680.093 2.01861 -2.81874 0
M  V30 7299 C 679.154 1.59825 -3.9844 0
M  V30 7300 C 678.387 2.75984 -4.56802 0
M  V30 7301 O 678.61 3.92331 -4.14044 0
M  V30 7302 O 677.544 2.51175 -5.46987 0
M  V30 7303 H 681.37 0.2865 -3.02346 0
M  V30 7304 H 678.955 0.0753806 -1.4921 0
M  V30 7305 H 680.837 2.73235 -3.20813 0
M  V30 7306 H 679.512 2.52042 -2.03117 0
M  V30 7307 H 678.419 0.854601 -3.64208 0
M  V30 7308 H 679.752 1.14355 -4.78731 0
M  V30 7309 N 681.404 1.57128 0.121893 0
M  V30 7310 C 682.652 1.84335 0.828548 0
M  V30 7311 C 682.973 0.736632 1.80551 0
M  V30 7312 O 682.243 -0.23962 1.94429 0
M  V30 7313 H 680.823 0.680108 0.30897 0
M  V30 7314 H 683.485 1.9459 0.109906 0
M  V30 7315 H 682.581 2.80152 1.37554 0
M  V30 7316 N 682.882 -0.391992 1.52647 0
M  V30 7317 C 684.11 -1.1586 1.71418 0
M  V30 7318 C 684.525 -1.8381 0.431216 0
M  V30 7319 O 683.882 -1.7256 -0.594085 0
M  V30 7320 C 683.933 -2.20888 2.86165 0
M  V30 7321 O 683.654 -1.5571 4.09495 0
M  V30 7322 C 685.155 -3.103 3.1659 0
M  V30 7323 H 682.375 -0.347494 0.574011 0
M  V30 7324 H 684.919 -0.458972 1.99283 0
M  V30 7325 H 683.074 -2.86492 2.6077 0
M  V30 7326 H 683.488 -2.25474 4.73563 0
M  V30 7327 H 684.962 -3.8003 4.00351 0
M  V30 7328 H 685.439 -3.73639 2.30848 0
M  V30 7329 H 686.045 -2.50345 3.43813 0
M  V30 7330 N 684.36 -1.4356 -0.65026 0
M  V30 7331 C 685.606 -1.45549 -1.41221 0
M  V30 7332 C 685.939 -0.0805472 -1.94033 0
M  V30 7333 O 685.214 0.899043 -1.72475 0
M  V30 7334 C 685.497 -2.50028 -2.59148 0
M  V30 7335 C 685.35 -3.96808 -2.1181 0
M  V30 7336 C 686.669 -2.51212 -3.61359 0
M  V30 7337 H 683.788 -0.529967 -0.512156 0
M  V30 7338 H 686.43 -1.75127 -0.736933 0
M  V30 7339 H 684.58 -2.24937 -3.16758 0
M  V30 7340 H 686.252 -4.32966 -1.59178 0
M  V30 7341 H 684.495 -4.09498 -1.43156 0
M  V30 7342 H 685.166 -4.6553 -2.96625 0
M  V30 7343 H 687.642 -2.73583 -3.13515 0
M  V30 7344 H 686.518 -3.26252 -4.41419 0
M  V30 7345 H 686.779 -1.54701 -4.1415 0
M  V30 7346 N 685.838 0.888903 -1.30139 0
M  V30 7347 C 687.084 1.6428 -1.18912 0
M  V30 7348 C 687.417 1.92499 0.256477 0
M  V30 7349 O 686.692 1.54312 1.18397 0
M  V30 7350 C 686.975 2.9851 -2.01405 0
M  V30 7351 C 686.828 2.77288 -3.54163 0
M  V30 7352 C 688.147 3.99383 -1.84882 0
M  V30 7353 H 685.266 0.596148 -0.433333 0
M  V30 7354 H 687.908 1.0289 -1.5973 0
M  V30 7355 H 686.058 3.50907 -1.66722 0
M  V30 7356 H 687.73 2.31709 -3.98884 0
M  V30 7357 H 685.973 2.11867 -3.78543 0
M  V30 7358 H 686.644 3.72717 -4.07168 0
M  V30 7359 H 689.12 3.56132 -2.15196 0
M  V30 7360 H 687.996 4.91222 -2.44934 0
M  V30 7361 H 688.257 4.34674 -0.806902 0
M  V30 7362 N 687.317 1.12792 1.10072 0
M  V30 7363 C 688.564 0.885545 1.82111 0
M  V30 7364 C 688.892 -0.588519 1.85383 0
M  V30 7365 O 688.147 -1.45124 1.31292 0
M  V30 7366 C 688.446 1.4102 3.28403 0
M  V30 7367 C 688.112 2.89995 3.45273 0
M  V30 7368 C 686.774 3.30671 3.49585 0
M  V30 7369 C 689.126 3.85874 3.50358 0
M  V30 7370 C 686.454 4.65925 3.56553 0
M  V30 7371 C 688.806 5.20963 3.58859 0
M  V30 7372 C 687.47 5.61177 3.61437 0
M  V30 7373 H 686.74 0.324044 0.666391 0
M  V30 7374 H 689.387 1.40874 1.29718 0
M  V30 7375 H 687.692 0.807551 3.83387 0
M  V30 7376 H 689.389 1.19882 3.82661 0
M  V30 7377 H 685.979 2.57537 3.42597 0
M  V30 7378 H 690.163 3.5554 3.46273 0
M  V30 7379 H 685.419 4.96468 3.56833 0
M  V30 7380 H 689.593 5.95079 3.61738 0
M  V30 7381 H 687.22 6.6597 3.66589 0
M  V30 7382 N 688.795 -1.27931 0.920396 0
M  V30 7383 C 689.742 -2.27085 0.412422 0
M  V30 7384 C 690.712 -1.57858 -0.516725 0
M  V30 7385 O 691.897 -1.85717 -0.437475 0
M  V30 7386 C 689.037 -3.43466 -0.335399 0
M  V30 7387 C 688.15 -4.27425 0.627017 0
M  V30 7388 C 687.285 -5.31016 -0.139916 0
M  V30 7389 C 686.324 -6.06641 0.815683 0
M  V30 7390 N 685.461 -7.02052 0.0818439 0
M  V30 7391 H 690.301 -2.69913 1.26298 0
M  V30 7392 H 687.838 -1.32732 0.634076 0
M  V30 7393 H 689.796 -4.09744 -0.785226 0
M  V30 7394 H 688.426 -3.01611 -1.15025 0
M  V30 7395 H 687.478 -3.6113 1.19537 0
M  V30 7396 H 688.79 -4.79969 1.35763 0
M  V30 7397 H 687.944 -6.03208 -0.649998 0
M  V30 7398 H 686.683 -4.79257 -0.903543 0
M  V30 7399 H 685.688 -5.33294 1.33708 0
M  V30 7400 H 686.913 -6.60489 1.57897 0
M  V30 7401 H 684.859 -6.52634 -0.663671 0
M  V30 7402 H 684.776 -7.52249 0.752163 0
M  V30 7403 H 686.044 -7.78432 -0.407825 0
M  V30 7404 N 690.273 -0.685099 -1.4193 0
M  V30 7405 C 691.684 -0.287699 -1.8447 0
M  V30 7406 C 692.035 1.17215 -1.57338 0
M  V30 7407 O 691.16 1.89856 -1.03845 0
M  V30 7408 C 691.755 -0.515385 -3.34857 0
M  V30 7409 C 690.314 -0.172006 -3.76007 0
M  V30 7410 C 689.461 -0.802808 -2.65425 0
M  V30 7411 H 692.412 -0.88652 -1.3163 0
M  V30 7412 H 692.433 0.229251 -3.79809 0
M  V30 7413 H 691.945 -1.57796 -3.54573 0
M  V30 7414 H 690.046 0.886716 -3.61895 0
M  V30 7415 H 690.159 -0.619717 -4.75075 0
M  V30 7416 H 688.523 -0.233267 -2.5363 0
M  V30 7417 H 689.306 -1.86904 -2.87961 0
M  V30 7418 N 691.751 1.51645 -0.429126 0
M  V30 7419 C 692.999 2.01616 0.139802 0
M  V30 7420 C 693.32 1.31568 1.43927 0
M  V30 7421 O 692.59 0.447688 1.90716 0
M  V30 7422 H 691.17 0.744998 0.054654 0
M  V30 7423 H 693.832 1.8638 -0.569952 0
M  V30 7424 H 692.928 3.10439 0.321609 0
M  V30 7425 N 693.229 0.160201 1.56784 0
M  V30 7426 C 694.506 -0.533355 1.88188 0
M  V30 7427 C 694.886 -1.82072 1.06831 0
M  V30 7428 O 694.234 -2.27946 0.158959 0
M  V30 7429 C 694.444 -0.786034 3.40033 0
M  V30 7430 C 695.792 -1.12097 4.09536 0
M  V30 7431 O 696.816 -0.874949 3.45287 0
M  V30 7432 O 695.675 -1.58457 5.23023 0
M  V30 7433 H 692.769 -0.273589 0.780434 0
M  V30 7434 H 695.315 0.197803 1.68543 0
M  V30 7435 H 694.087 0.124515 3.91102 0
M  V30 7436 H 693.71 -1.57091 3.65251 0
M  V30 7437 N 694.707 -1.5719 -0.113559 0
M  V30 7438 C 695.935 -1.89328 -0.834422 0
M  V30 7439 C 696.35 -0.752018 -1.73177 0
M  V30 7440 O 695.707 0.276912 -1.80387 0
M  V30 7441 C 695.758 -3.20962 -1.66329 0
M  V30 7442 O 695.479 -4.30695 -0.802069 0
M  V30 7443 C 696.98 -3.6684 -2.48884 0
M  V30 7444 H 694.2 -0.626769 -0.239587 0
M  V30 7445 H 696.744 -2.04273 -0.0963195 0
M  V30 7446 H 694.899 -3.0767 -2.35409 0
M  V30 7447 H 695.313 -5.06175 -1.37431 0
M  V30 7448 H 696.787 -4.61692 -3.02563 0
M  V30 7449 H 697.264 -2.93765 -3.26495 0
M  V30 7450 H 697.87 -3.82938 -1.85036 0
M  V30 7451 N 696.185 0.383891 -1.52853 0
M  V30 7452 C 697.117 1.48889 -1.74255 0
M  V30 7453 C 698.13 1.50405 -0.623063 0
M  V30 7454 O 699.319 1.54215 -0.898887 0
M  V30 7455 C 696.419 2.87721 -1.79081 0
M  V30 7456 C 695.592 3.10111 -3.08464 0
M  V30 7457 C 694.651 4.28954 -3.0477 0
M  V30 7458 O 693.677 4.25012 -3.78621 0
M  V30 7459 N 694.879 5.35411 -2.24311 0
M  V30 7460 H 697.644 1.30915 -2.69595 0
M  V30 7461 H 695.205 0.573454 -1.51404 0
M  V30 7462 H 697.197 3.65333 -1.7411 0
M  V30 7463 H 695.767 2.99029 -0.911052 0
M  V30 7464 H 694.987 2.20319 -3.26884 0
M  V30 7465 H 696.275 3.21928 -3.94005 0
M  V30 7466 H 695.673 5.41471 -1.63787 0
M  V30 7467 H 694.23 6.1167 -2.25175 0
M  V30 7468 N 697.663 1.43903 0.642637 0
M  V30 7469 C 698.61 1.49881 1.75512 0
M  V30 7470 C 699.58 0.347538 1.62423 0
M  V30 7471 O 700.765 0.556177 1.82514 0
M  V30 7472 C 697.905 1.43797 3.13714 0
M  V30 7473 C 697.018 2.6921 3.37861 0
M  V30 7474 C 696.153 2.5504 4.6597 0
M  V30 7475 C 695.192 3.75671 4.83257 0
M  V30 7476 N 694.329 3.60247 6.02633 0
M  V30 7477 H 699.169 2.44935 1.69737 0
M  V30 7478 H 696.706 1.21572 0.828165 0
M  V30 7479 H 698.664 1.38262 3.93624 0
M  V30 7480 H 697.294 0.523173 3.18532 0
M  V30 7481 H 696.346 2.8498 2.51973 0
M  V30 7482 H 697.658 3.58786 3.46517 0
M  V30 7483 H 696.812 2.47273 5.54023 0
M  V30 7484 H 695.551 1.63006 4.59653 0
M  V30 7485 H 694.556 3.83836 3.93637 0
M  V30 7486 H 695.781 4.68728 4.91397 0
M  V30 7487 H 693.727 2.70955 5.97427 0
M  V30 7488 H 693.644 4.43431 6.12295 0
M  V30 7489 H 694.912 3.56351 6.93278 0
M  V30 7490 N 699.141 -0.881989 1.30609 0
M  V30 7491 C 700.051 -2.02076 1.19174 0
M  V30 7492 C 701.067 -1.73645 0.11102 0
M  V30 7493 O 702.243 -1.98735 0.326528 0
M  V30 7494 C 699.308 -3.3515 0.887438 0
M  V30 7495 C 698.369 -3.76983 2.05383 0
M  V30 7496 C 697.602 -5.03707 1.76395 0
M  V30 7497 O 697.825 -5.66171 0.693302 0
M  V30 7498 O 696.759 -5.42019 2.61723 0
M  V30 7499 H 700.585 -2.14652 2.14845 0
M  V30 7500 H 698.17 -1.00843 1.10232 0
M  V30 7501 H 700.052 -4.14975 0.73306 0
M  V30 7502 H 698.727 -3.23676 -0.0393354 0
M  V30 7503 H 697.634 -2.97849 2.26355 0
M  V30 7504 H 698.967 -3.93066 2.96243 0
M  V30 7505 N 700.619 -1.13374 -1.09472 0
M  V30 7506 C 701.868 -0.889844 -1.8101 0
M  V30 7507 C 702.181 0.585686 -1.86625 0
M  V30 7508 O 703.387 0.946497 -2.54467 0
M  V30 7509 C 701.843 -1.54241 -3.25174 0
M  V30 7510 C 701.451 -3.05343 -3.27826 0
M  V30 7511 C 703.195 -1.37919 -4.0147 0
M  V30 7512 C 701.102 -3.63486 -4.6651 0
M  V30 7513 H 700.032 -0.329256 -0.678311 0
M  V30 7514 H 702.683 -1.36139 -1.23038 0
M  V30 7515 H 701.065 -0.998525 -3.83204 0
M  V30 7516 H 702.239 -3.66307 -2.79563 0
M  V30 7517 H 700.554 -3.21175 -2.65019 0
M  V30 7518 H 703.151 -1.78771 -5.03929 0
M  V30 7519 H 703.494 -0.323987 -4.15037 0
M  V30 7520 H 704.027 -1.89284 -3.49881 0
M  V30 7521 H 700.766 -4.68811 -4.58145 0
M  V30 7522 H 700.286 -3.073 -5.15099 0
M  V30 7523 H 701.965 -3.63134 -5.35484 0
M  V30 7524 N 702.098 1.27442 -0.927168 0
M  V30 7525 C 703.514 1.46754 -0.627329 0
M  V30 7526 C 703.714 1.83902 0.823549 0
M  V30 7527 O 702.77 1.95215 1.60148 0
M  V30 7528 C 704.083 2.56045 -1.57674 0
M  V30 7529 C 705.631 2.69906 -1.58491 0
M  V30 7530 C 706.106 3.82355 -2.52128 0
M  V30 7531 N 707.597 3.89728 -2.50332 0
M  V30 7532 C 708.332 4.76155 -3.19475 0
M  V30 7533 N 707.828 5.67073 -3.97995 0
M  V30 7534 N 709.621 4.6988 -3.08496 0
M  V30 7535 H 701.772 1.01613 -1.86517 0
M  V30 7536 H 704.035 0.507443 -0.800753 0
M  V30 7537 H 703.741 2.35542 -2.61176 0
M  V30 7538 H 703.615 3.53423 -1.31804 0
M  V30 7539 H 706.002 2.89792 -0.557208 0
M  V30 7540 H 706.083 1.73018 -1.8841 0
M  V30 7541 H 705.727 3.63224 -3.55008 0
M  V30 7542 H 705.657 4.7867 -2.19505 0
M  V30 7543 H 708.148 3.24717 -1.93306 0
M  V30 7544 H 708.461 6.2988 -4.4774 0
M  V30 7545 H 706.806 5.6687 -4.02098 0
M  V30 7546 H 709.997 3.97848 -2.46646 0
M  V30 7547 H 710.17 5.37017 -3.62652 0
M  V30 7548 N 703.576 0.692616 1.41565 0
M  V30 7549 C 704.822 0.222664 2.01574 0
M  V30 7550 C 705.155 -1.1737 1.54719 0
M  V30 7551 O 704.43 -1.79161 0.757084 0
M  V30 7552 C 704.713 0.277064 3.59033 0
M  V30 7553 C 704.566 1.71016 4.16021 0
M  V30 7554 C 705.885 -0.36479 4.38586 0
M  V30 7555 H 703.004 0.0823839 0.732381 0
M  V30 7556 H 705.646 0.880778 1.68352 0
M  V30 7557 H 703.796 -0.283288 3.87466 0
M  V30 7558 H 705.468 2.32413 3.98475 0
M  V30 7559 H 703.711 2.24525 3.71175 0
M  V30 7560 H 704.382 1.69978 5.25178 0
M  V30 7561 H 706.858 0.112404 4.15948 0
M  V30 7562 H 705.734 -0.296169 5.481 0
M  V30 7563 H 705.995 -1.44506 4.17816 0
M  V30 7564 N 705.054 -1.51416 0.437162 0
M  V30 7565 C 706.302 -2.01687 -0.129108 0
M  V30 7566 C 706.623 -1.32329 -1.43227 0
M  V30 7567 O 705.893 -0.457796 -1.90476 0
M  V30 7568 H 704.473 -0.745277 -0.0507023 0
M  V30 7569 H 707.135 -1.86075 0.579828 0
M  V30 7570 H 706.231 -3.10605 -0.305141 0
M  V30 7571 N 706.532 -0.168513 -1.56696 0
M  V30 7572 C 707.781 0.477233 -1.95973 0
M  V30 7573 C 708.094 1.64578 -1.05704 0
M  V30 7574 O 709.3 2.35758 -1.3465 0
M  V30 7575 C 707.756 0.900413 -3.48455 0
M  V30 7576 C 707.364 -0.242382 -4.47344 0
M  V30 7577 C 709.108 1.51474 -3.96555 0
M  V30 7578 C 707.015 0.200272 -5.91061 0
M  V30 7579 H 705.945 0.182061 -0.73169 0
M  V30 7580 H 708.596 -0.256297 -1.81701 0
M  V30 7581 H 706.978 1.68984 -3.58135 0
M  V30 7582 H 708.152 -1.01967 -4.49377 0
M  V30 7583 H 706.467 -0.766484 -4.09285 0
M  V30 7584 H 709.064 1.85792 -5.01384 0
M  V30 7585 H 709.407 2.41163 -3.39332 0
M  V30 7586 H 709.94 0.789802 -3.89881 0
M  V30 7587 H 706.679 -0.661775 -6.52151 0
M  V30 7588 H 706.199 0.942979 -5.92341 0
M  V30 7589 H 707.878 0.645088 -6.43776 0
M  V30 7590 N 708.01 1.57248 0.105221 0
M  V30 7591 C 709.259 1.84756 0.809198 0
M  V30 7592 C 709.572 0.756262 1.80389 0
M  V30 7593 O 710.778 0.918158 2.55504 0
M  V30 7594 C 709.234 3.27613 1.48989 0
M  V30 7595 C 708.842 4.44788 0.535484 0
M  V30 7596 C 710.586 3.64356 2.17819 0
M  V30 7597 C 708.493 5.78676 1.22019 0
M  V30 7598 H 707.423 0.689139 0.305946 0
M  V30 7599 H 710.074 1.83395 0.0620371 0
M  V30 7600 H 708.456 3.23485 2.28415 0
M  V30 7601 H 709.63 4.60243 -0.226557 0
M  V30 7602 H 707.945 4.16374 -0.0465769 0
M  V30 7603 H 710.542 4.61663 2.69761 0
M  V30 7604 H 710.885 2.92474 2.96251 0
M  V30 7605 H 711.418 3.70328 1.45264 0
M  V30 7606 H 708.157 6.53763 0.476875 0
M  V30 7607 H 707.677 5.67083 1.9539 0
M  V30 7608 H 709.356 6.22897 1.74952 0
M  V30 7609 N 709.488 -0.375779 1.53054 0
M  V30 7610 C 710.765 -1.13453 1.59336 0
M  V30 7611 C 711.145 -2.07379 0.394614 0
M  V30 7612 O 710.493 -2.2004 -0.616 0
M  V30 7613 C 710.703 -1.8826 2.93869 0
M  V30 7614 C 712.051 -2.43155 3.48081 0
M  V30 7615 O 713.075 -1.984 2.95831 0
M  V30 7616 O 711.934 -3.24944 4.39401 0
M  V30 7617 H 709.028 -0.519856 0.643179 0
M  V30 7618 H 711.574 -0.379865 1.65394 0
M  V30 7619 H 710.346 -1.19652 3.72558 0
M  V30 7620 H 709.969 -2.70658 2.91256 0
M  V30 7621 N 710.966 -1.44241 -0.634997 0
M  V30 7622 C 712.243 -1.37296 -1.39317 0
M  V30 7623 C 712.623 -0.0297532 -2.11079 0
M  V30 7624 O 711.971 0.987524 -2.06059 0
M  V30 7625 C 712.181 -2.56853 -2.36279 0
M  V30 7626 C 713.529 -3.00747 -2.99728 0
M  V30 7627 O 714.553 -2.5703 -2.46605 0
M  V30 7628 O 713.412 -3.76533 -3.96087 0
M  V30 7629 H 710.506 -0.543503 -0.623325 0
M  V30 7630 H 713.052 -1.56324 -0.660376 0
M  V30 7631 H 711.824 -3.46228 -1.82324 0
M  V30 7632 H 711.447 -2.40019 -3.16981 0
M  V30 7633 N 712.444 0.87505 -1.31075 0
M  V30 7634 C 713.721 1.60976 -1.11113 0
M  V30 7635 C 714.101 2.08409 0.336006 0
M  V30 7636 O 713.449 1.85858 1.32924 0
M  V30 7637 C 713.659 2.77166 -2.12085 0
M  V30 7638 C 715.007 3.47254 -2.44335 0
M  V30 7639 O 716.031 2.87367 -2.10472 0
M  V30 7640 O 714.89 4.55276 -3.02301 0
M  V30 7641 H 711.984 0.707982 -0.427424 0
M  V30 7642 H 714.53 0.920957 -1.42536 0
M  V30 7643 H 713.302 2.39494 -3.09449 0
M  V30 7644 H 712.925 3.53737 -1.81538 0
M  V30 7645 N 713.922 1.13953 1.08869 0
M  V30 7646 C 715.171 0.899431 1.80536 0
M  V30 7647 C 715.484 -0.575781 1.86933 0
M  V30 7648 O 716.69 -0.932988 2.54966 0
M  V30 7649 C 715.146 1.55963 3.24351 0
M  V30 7650 C 714.754 3.07077 3.26202 0
M  V30 7651 C 716.498 1.40046 4.00733 0
M  V30 7652 C 714.405 3.65955 4.64576 0
M  V30 7653 H 713.335 0.332849 0.676556 0
M  V30 7654 H 715.986 1.3679 1.22314 0
M  V30 7655 H 714.368 1.01883 3.82669 0
M  V30 7656 H 715.542 3.67785 2.77617 0
M  V30 7657 H 713.857 3.22576 2.63312 0
M  V30 7658 H 716.454 1.81441 5.02974 0
M  V30 7659 H 716.797 0.345993 4.1486 0
M  V30 7660 H 717.33 1.91137 3.48872 0
M  V30 7661 H 714.069 4.71234 4.55652 0
M  V30 7662 H 713.589 3.10027 5.13462 0
M  V30 7663 H 715.268 3.65968 5.33551 0
M  V30 7664 N 715.4 -1.26948 0.933913 0
M  V30 7665 C 716.647 -1.94087 0.577625 0
M  V30 7666 C 716.975 -1.73345 -0.88214 0
M  V30 7667 O 716.23 -1.05945 -1.64542 0
M  V30 7668 C 716.529 -3.46963 0.857406 0
M  V30 7669 C 716.195 -3.87834 2.2999 0
M  V30 7670 C 714.857 -3.98704 2.69423 0
M  V30 7671 C 717.209 -4.08442 3.23766 0
M  V30 7672 C 714.537 -4.27573 4.01744 0
M  V30 7673 C 716.889 -4.38798 4.55675 0
M  V30 7674 C 715.553 -4.47881 4.94934 0
M  V30 7675 H 714.823 -0.710215 0.211368 0
M  V30 7676 H 717.47 -1.50899 1.17905 0
M  V30 7677 H 715.775 -3.91416 0.173369 0
M  V30 7678 H 717.472 -3.97062 0.560615 0
M  V30 7679 H 714.062 -3.79916 1.98399 0
M  V30 7680 H 718.246 -3.99479 2.94499 0
M  V30 7681 H 713.502 -4.32815 4.31834 0
M  V30 7682 H 717.676 -4.5369 5.28335 0
M  V30 7683 H 715.303 -4.70005 5.97495 0
M  V30 7684 N 716.879 -0.700114 -1.41195 0
M  V30 7685 C 717.789 -0.0382854 -2.34569 0
M  V30 7686 C 718.805 0.761036 -1.56474 0
M  V30 7687 O 719.981 0.697553 -1.88934 0
M  V30 7688 C 717.046 0.883522 -3.35253 0
M  V30 7689 C 716.107 0.0758957 -4.29233 0
M  V30 7690 C 715.34 0.9538 -5.25108 0
M  V30 7691 O 715.563 2.19326 -5.26547 0
M  V30 7692 O 714.497 0.401049 -6.00562 0
M  V30 7693 H 718.323 -0.808073 -2.92752 0
M  V30 7694 H 715.908 -0.460479 -1.42127 0
M  V30 7695 H 717.79 1.41199 -3.9704 0
M  V30 7696 H 716.465 1.63272 -2.79506 0
M  V30 7697 H 715.372 -0.497274 -3.7078 0
M  V30 7698 H 716.705 -0.634741 -4.8809 0
M  V30 7699 N 718.357 1.51182 -0.445186 0
M  V30 7700 C 719.267 2.31692 0.368255 0
M  V30 7701 C 720.283 1.40942 1.02036 0
M  V30 7702 O 721.459 1.74011 1.01401 0
M  V30 7703 C 718.524 3.14903 1.45041 0
M  V30 7704 C 717.585 4.21442 0.817615 0
M  V30 7705 C 716.818 5.00677 1.8482 0
M  V30 7706 O 717.041 4.80644 3.07145 0
M  V30 7707 O 715.975 5.84559 1.43438 0
M  V30 7708 H 719.801 3.0232 -0.289219 0
M  V30 7709 H 717.386 1.47951 -0.207555 0
M  V30 7710 H 719.268 3.66612 2.07783 0
M  V30 7711 H 717.943 2.47031 2.09182 0
M  V30 7712 H 716.85 3.73791 0.151931 0
M  V30 7713 H 718.183 4.9171 0.219564 0
M  V30 7714 N 719.835 0.176821 1.56605 0
M  V30 7715 C 721.112 -0.513365 1.88743 0
M  V30 7716 C 721.492 -1.80929 1.08757 0
M  V30 7717 O 720.84 -2.27765 0.183127 0
M  V30 7718 C 721.05 -0.749925 3.40848 0
M  V30 7719 C 722.398 -1.07747 4.10701 0
M  V30 7720 O 723.422 -0.838277 3.46196 0
M  V30 7721 O 722.281 -1.52901 5.24675 0
M  V30 7722 H 719.375 -0.265296 0.783292 0
M  V30 7723 H 721.921 0.215669 1.68324 0
M  V30 7724 H 720.693 0.16599 3.90948 0
M  V30 7725 H 720.316 -1.53208 3.66897 0
M  V30 7726 N 721.313 -1.57302 -0.09688 0
M  V30 7727 C 722.223 -2.05258 -1.13606 0
M  V30 7728 C 723.239 -0.977137 -1.43972 0
M  V30 7729 O 724.415 -1.29018 -1.54649 0
M  V30 7730 C 721.48 -2.46593 -2.43706 0
M  V30 7731 C 720.541 -3.68322 -2.20538 0
M  V30 7732 C 719.774 -4.07676 -3.44435 0
M  V30 7733 O 719.997 -3.47141 -4.52603 0
M  V30 7734 O 718.931 -5.00641 -3.34129 0
M  V30 7735 H 722.757 -2.94069 -0.758752 0
M  V30 7736 H 720.342 -1.46164 -0.309263 0
M  V30 7737 H 722.224 -2.73814 -3.20318 0
M  V30 7738 H 720.899 -1.6092 -2.80867 0
M  V30 7739 H 719.806 -3.4622 -1.41713 0
M  V30 7740 H 721.139 -4.54769 -1.88271 0
M  V30 7741 N 722.791 0.367657 -1.53252 0
M  V30 7742 C 723.739 1.47061 -1.8021 0
M  V30 7743 C 724.733 1.55539 -0.671112 0
M  V30 7744 O 725.939 1.58451 -0.854014 0
M  V30 7745 H 722.314 0.489868 -0.570555 0
M  V30 7746 H 724.285 1.21527 -2.72532 0
M  V30 7747 C 723.034 2.83924 -2.00706 0
M  V30 7748 H 722.357 2.78158 -2.87172 0
M  V30 7749 H 723.797 3.60281 -2.23547 0
M  V30 7750 C 722.256 3.27613 -0.785568 0
M  V30 7751 O 722.786 4.01691 0.0267459 0
M  V30 7752 N 720.992 2.84134 -0.609597 0
M  V30 7753 H 720.539 2.24017 -1.27178 0
M  V30 7754 H 720.497 3.13723 0.206281 0
M  V30 7755 N 724.269 1.44576 0.627338 0
M  V30 7756 C 725.516 1.47558 1.38682 0
M  V30 7757 C 725.844 0.109636 1.94191 0
M  V30 7758 O 725.099 -0.889092 1.74338 0
M  V30 7759 C 725.398 2.48644 2.56731 0
M  V30 7760 C 725.064 3.93873 2.19489 0
M  V30 7761 C 723.726 4.33421 2.09045 0
M  V30 7762 C 726.078 4.85286 1.90124 0
M  V30 7763 C 723.406 5.62303 1.6743 0
M  V30 7764 C 725.758 6.14559 1.50001 0
M  V30 7765 C 724.422 6.53058 1.38101 0
M  V30 7766 H 723.692 0.539955 0.507474 0
M  V30 7767 H 726.339 1.77811 0.711021 0
M  V30 7768 H 724.644 2.11889 3.29561 0
M  V30 7769 H 726.341 2.48197 3.14959 0
M  V30 7770 H 722.931 3.62587 2.28537 0
M  V30 7771 H 727.115 4.55483 1.971 0
M  V30 7772 H 722.371 5.90945 1.56823 0
M  V30 7773 H 726.545 6.84848 1.26319 0
M  V30 7774 H 724.172 7.52826 1.05628 0
M  V30 7775 N 725.747 -0.868086 1.31537 0
M  V30 7776 C 726.677 -1.99131 1.21939 0
M  V30 7777 C 727.658 -1.69768 0.106166 0
M  V30 7778 O 728.843 -1.92006 0.291081 0
M  V30 7779 C 725.973 -3.34676 0.927879 0
M  V30 7780 C 724.927 -3.7835 2.00088 0
M  V30 7781 C 724.253 -5.11375 1.56203 0
M  V30 7782 C 725.553 -3.95256 3.41424 0
M  V30 7783 H 727.247 -2.07419 2.15911 0
M  V30 7784 H 724.793 -0.996569 1.03945 0
M  V30 7785 H 726.746 -4.12793 0.847327 0
M  V30 7786 H 725.47 -3.26565 -0.0475042 0
M  V30 7787 H 724.129 -3.02474 2.07135 0
M  V30 7788 H 723.777 -4.99709 0.57445 0
M  V30 7789 H 723.477 -5.41568 2.27985 0
M  V30 7790 H 725.001 -5.92001 1.49558 0
M  V30 7791 H 726.415 -4.63764 3.3704 0
M  V30 7792 H 724.812 -4.36849 4.1144 0
M  V30 7793 H 725.882 -2.98579 3.82072 0
M  V30 7794 N 727.225 -1.14528 -1.08264 0
M  V30 7795 C 728.471 -0.91576 -1.80947 0
M  V30 7796 C 728.804 0.55623 -1.86064 0
M  V30 7797 O 728.079 1.41207 -1.33756 0
M  V30 7798 C 728.362 -1.51917 -3.26486 0
M  V30 7799 C 728.215 -3.06111 -3.2957 0
M  V30 7800 C 729.534 -1.19724 -4.23502 0
M  V30 7801 H 726.653 -0.334113 -0.656915 0
M  V30 7802 H 729.295 -1.41547 -1.26746 0
M  V30 7803 H 727.445 -1.0942 -3.72773 0
M  V30 7804 H 729.117 -3.57448 -2.91597 0
M  V30 7805 H 727.36 -3.40483 -2.688 0
M  V30 7806 H 728.031 -3.43438 -4.32151 0
M  V30 7807 H 730.507 -1.56467 -3.85561 0
M  V30 7808 H 729.383 -1.64575 -5.23647 0
M  V30 7809 H 729.644 -0.112771 -4.41956 0
M  V30 7810 N 728.703 1.26451 -0.940633 0
M  V30 7811 C 729.653 2.24086 -0.420669 0
M  V30 7812 C 730.637 1.53501 0.482301 0
M  V30 7813 O 731.829 1.74127 0.317636 0
M  V30 7814 C 728.958 3.41866 0.313452 0
M  V30 7815 C 728.044 4.19737 -0.606779 0
M  V30 7816 N 728.435 4.7521 -1.73232 0
M  V30 7817 C 726.733 4.44091 -0.41226 0
M  V30 7818 C 727.434 5.34052 -2.30572 0
M  V30 7819 N 726.41 5.1971 -1.59381 0
M  V30 7820 H 730.212 2.64569 -1.27986 0
M  V30 7821 H 727.726 1.4153 -0.796436 0
M  V30 7822 H 729.723 4.1093 0.702991 0
M  V30 7823 H 728.383 3.0291 1.16942 0
M  V30 7824 H 729.394 4.72769 -2.11447 0
M  V30 7825 H 726.071 4.1556 0.401984 0
M  V30 7826 H 727.461 5.87845 -3.25404 0
M  V30 7827 N 730.181 0.707592 1.40822 0
M  V30 7828 C 731.111 0.0644925 2.33411 0
M  V30 7829 C 732.092 -0.754205 1.52466 0
M  V30 7830 O 733.277 -0.704749 1.80961 0
M  V30 7831 C 730.407 -0.863865 3.36385 0
M  V30 7832 C 729.361 -0.15138 4.27732 0
M  V30 7833 C 728.687 -1.19491 5.21177 0
M  V30 7834 C 729.987 0.989607 5.12839 0
M  V30 7835 H 731.681 0.837829 2.87438 0
M  V30 7836 H 729.227 0.404346 1.38207 0
M  V30 7837 H 731.18 -1.32309 4.0009 0
M  V30 7838 H 729.904 -1.66901 2.80734 0
M  V30 7839 H 728.563 0.287937 3.65467 0
M  V30 7840 H 728.211 -1.9929 4.61836 0
M  V30 7841 H 727.911 -0.723123 5.83134 0
M  V30 7842 H 729.435 -1.6544 5.8776 0
M  V30 7843 H 730.849 0.610114 5.70044 0
M  V30 7844 H 729.246 1.38926 5.83798 0
M  V30 7845 H 730.316 1.82389 4.49291 0
M  V30 7846 N 731.66 -1.50943 0.453197 0
M  V30 7847 C 732.885 -2.07116 -0.108463 0
M  V30 7848 C 733.31 -1.31681 -1.3432 0
M  V30 7849 O 732.668 -0.359256 -1.77705 0
M  V30 7850 C 732.716 -3.58447 -0.393424 0
M  V30 7851 O 731.82 -3.85038 -1.47714 0
M  V30 7852 H 731.161 -0.66398 0.0050993 0
M  V30 7853 H 733.691 -1.94362 0.639095 0
M  V30 7854 H 733.701 -4.02961 -0.639222 0
M  V30 7855 H 732.376 -4.12774 0.508946 0
M  V30 7856 H 730.953 -3.52376 -1.22006 0
M  V30 7857 N 733.138 -0.185124 -1.56509 0
M  V30 7858 C 734.086 0.756505 -2.19954 0
M  V30 7859 C 735.08 1.22725 -1.16769 0
M  V30 7860 O 736.286 1.1913 -1.34937 0
M  V30 7861 H 732.661 0.262279 -0.704779 0
M  V30 7862 H 734.632 0.197587 -2.97745 0
M  V30 7863 C 733.381 1.96975 -2.86524 0
M  V30 7864 H 732.704 1.61658 -3.65659 0
M  V30 7865 H 734.144 2.60719 -3.34367 0
M  V30 7866 C 732.603 2.80219 -1.87027 0
M  V30 7867 O 733.133 3.77821 -1.36433 0
M  V30 7868 N 731.339 2.4551 -1.55477 0
M  V30 7869 H 730.886 1.66199 -1.96813 0
M  V30 7870 H 730.844 3.01493 -0.891597 0
M  V30 7871 N 734.616 1.57351 0.0885366 0
M  V30 7872 C 735.862 1.86696 0.791996 0
M  V30 7873 C 736.195 0.775148 1.78059 0
M  V30 7874 O 735.47 -0.216247 1.93294 0
M  V30 7875 C 735.753 3.26684 1.51491 0
M  V30 7876 C 735.606 4.465 0.543858 0
M  V30 7877 C 736.925 3.64664 2.46391 0
M  V30 7878 H 734.044 0.679049 0.286463 0
M  V30 7879 H 736.686 1.89919 0.0554866 0
M  V30 7880 H 734.836 3.24067 2.14273 0
M  V30 7881 H 736.508 4.61235 -0.0774597 0
M  V30 7882 H 734.751 4.33567 -0.142228 0
M  V30 7883 H 735.422 5.41192 1.08696 0
M  V30 7884 H 737.898 3.68267 1.93698 0
M  V30 7885 H 736.774 4.63534 2.93986 0
M  V30 7886 H 737.035 2.93698 3.30445 0
M  V30 7887 N 736.094 -0.359525 1.53444 0
M  V30 7888 C 737.041 -1.44073 1.8031 0
M  V30 7889 C 738.011 -1.52946 0.647811 0
M  V30 7890 O 739.196 -1.68739 0.890614 0
M  V30 7891 C 736.336 -2.80941 2.00416 0
M  V30 7892 C 735.449 -2.80986 3.28132 0
M  V30 7893 C 734.584 -4.09468 3.38393 0
M  V30 7894 C 733.623 -4.03679 4.60119 0
M  V30 7895 N 732.76 -5.23821 4.675 0
M  V30 7896 H 737.6 -1.20464 2.72566 0
M  V30 7897 H 735.137 -0.583859 1.35017 0
M  V30 7898 H 737.095 -3.60459 2.1006 0
M  V30 7899 H 735.725 -3.02936 1.11489 0
M  V30 7900 H 734.777 -1.93666 3.27411 0
M  V30 7901 H 736.089 -2.72583 4.17732 0
M  V30 7902 H 735.243 -4.97404 3.47382 0
M  V30 7903 H 733.982 -4.20632 2.4682 0
M  V30 7904 H 732.987 -3.14129 4.51224 0
M  V30 7905 H 734.212 -3.94112 5.5304 0
M  V30 7906 H 732.158 -5.35559 3.7883 0
M  V30 7907 H 732.075 -5.17611 5.51013 0
M  V30 7908 H 733.343 -6.13572 4.8078 0
M  V30 7909 N 737.572 -1.44907 -0.619662 0
M  V30 7910 C 738.818 -1.48512 -1.38102 0
M  V30 7911 C 739.151 -0.121686 -1.93818 0
M  V30 7912 O 738.426 0.862256 -1.74343 0
M  V30 7913 C 738.709 -2.55469 -2.53787 0
M  V30 7914 C 738.562 -4.01212 -2.03345 0
M  V30 7915 C 739.881 -2.58821 -3.55949 0
M  V30 7916 H 737 -0.540712 -0.500799 0
M  V30 7917 H 739.642 -1.7665 -0.69962 0
M  V30 7918 H 737.792 -2.31606 -3.11915 0
M  V30 7919 H 739.464 -4.36245 -1.49959 0
M  V30 7920 H 737.707 -4.12443 -1.34438 0
M  V30 7921 H 738.378 -4.71717 -2.86683 0
M  V30 7922 H 740.854 -2.80172 -3.07641 0
M  V30 7923 H 739.73 -3.35542 -4.34399 0
M  V30 7924 H 739.991 -1.63451 -4.10775 0
M  V30 7925 N 739.05 0.861098 -1.31996 0
M  V30 7926 C 740.275 1.65264 -1.2531 0
M  V30 7927 C 740.7 1.87265 0.177007 0
M  V30 7928 O 740.058 1.4208 1.12619 0
M  V30 7929 C 740.106 2.99284 -2.0115 0
M  V30 7930 O 739.21 3.89508 -1.3549 0
M  V30 7931 H 738.551 0.50409 -0.432192 0
M  V30 7932 H 741.081 1.07297 -1.74208 0
M  V30 7933 H 741.091 3.49154 -2.11081 0
M  V30 7934 H 739.766 2.82591 -3.05148 0
M  V30 7935 H 738.343 3.47966 -1.34066 0
M  V30 7936 N 740.528 1.15101 1.07655 0
M  V30 7937 C 741.753 0.948177 1.84457 0
M  V30 7938 C 742.178 -0.498432 1.81376 0
M  V30 7939 O 741.536 -1.35509 1.20445 0
M  V30 7940 C 741.584 1.46318 3.29581 0
M  V30 7941 O 740.688 0.660342 4.07079 0
M  V30 7942 H 740.029 0.338428 0.571281 0
M  V30 7943 H 742.559 1.5301 1.35828 0
M  V30 7944 H 742.569 1.47468 3.80417 0
M  V30 7945 H 741.244 2.51635 3.31138 0
M  V30 7946 H 739.821 0.718216 3.65918 0
M  V30 7947 N 742.006 -1.2595 0.947325 0
M  V30 7948 C 742.916 -2.29883 0.468079 0
M  V30 7949 C 743.932 -1.67783 -0.460975 0
M  V30 7950 O 745.108 -1.98526 -0.339006 0
M  V30 7951 C 742.173 -3.45773 -0.253315 0
M  V30 7952 C 741.234 -4.23337 0.713054 0
M  V30 7953 C 740.467 -5.33694 0.025993 0
M  V30 7954 O 740.69 -5.57853 -1.18978 0
M  V30 7955 O 739.624 -5.97724 0.70782 0
M  V30 7956 H 743.45 -2.72952 1.33156 0
M  V30 7957 H 741.035 -1.31263 0.713468 0
M  V30 7958 H 742.917 -4.16209 -0.659423 0
M  V30 7959 H 741.592 -3.04721 -1.09209 0
M  V30 7960 H 740.499 -3.55359 1.16923 0
M  V30 7961 H 741.832 -4.68154 1.51963 0
M  V30 7962 N 743.484 -0.715051 -1.40445 0
M  V30 7963 C 744.447 -0.0708726 -2.2909 0
M  V30 7964 C 745.447 0.687926 -1.45342 0
M  V30 7965 O 746.637 0.519908 -1.66261 0
M  V30 7966 C 743.769 0.909528 -3.28543 0
M  V30 7967 H 744.962 -0.851611 -2.87555 0
M  V30 7968 H 742.515 -0.479674 -1.48758 0
M  V30 7969 H 743.25 1.71734 -2.75096 0
M  V30 7970 H 743.035 0.368318 -3.90366 0
M  V30 7971 H 744.525 1.35744 -3.94922 0
M  V30 7972 N 744.962 1.50701 -0.461195 0
M  V30 7973 C 746.187 2.07171 0.0974773 0
M  V30 7974 C 746.612 1.32391 1.3362 0
M  V30 7975 O 745.97 0.368676 1.77512 0
M  V30 7976 C 746.018 3.58651 0.374409 0
M  V30 7977 O 745.122 3.85816 1.4567 0
M  V30 7978 H 744.463 0.663944 -0.00862047 0
M  V30 7979 H 746.993 1.94021 -0.649394 0
M  V30 7980 H 747.003 4.03295 0.617843 0
M  V30 7981 H 745.678 4.12498 -0.530829 0
M  V30 7982 H 744.255 3.53018 1.20136 0
M  V30 7983 N 746.441 0.193421 1.56409 0
M  V30 7984 C 747.351 -0.740112 2.2262 0
M  V30 7985 C 748.367 -1.23597 1.22474 0
M  V30 7986 O 749.543 -1.28348 1.55206 0
M  V30 7987 C 746.608 -1.94317 2.87127 0
M  V30 7988 C 745.669 -1.49205 4.02538 0
M  V30 7989 C 744.902 -2.63776 4.63959 0
M  V30 7990 O 745.125 -3.81215 4.24301 0
M  V30 7991 O 744.059 -2.36585 5.53454 0
M  V30 7992 H 747.885 -0.206238 3.02999 0
M  V30 7993 H 745.47 -0.0357938 1.49357 0
M  V30 7994 H 747.352 -2.64633 3.27944 0
M  V30 7995 H 746.027 -2.46568 2.09728 0
M  V30 7996 H 744.934 -0.757738 3.66346 0
M  V30 7997 H 746.267 -1.01622 4.81595 0
M  V30 7998 N 747.919 -1.57396 -0.0801906 0
M  V30 7999 C 749.196 -1.77883 -0.813451 0
M  V30 8000 C 749.576 -0.778879 -1.96206 0
M  V30 8001 O 748.924 0.189683 -2.27711 0
M  V30 8002 C 749.134 -3.24116 -1.2942 0
M  V30 8003 C 750.482 -3.87714 -1.73098 0
M  V30 8004 O 751.506 -3.27956 -1.39007 0
M  V30 8005 O 750.365 -4.92828 -2.36184 0
M  V30 8006 H 747.459 -0.729727 -0.389138 0
M  V30 8007 H 750.005 -1.69591 -0.0609166 0
M  V30 8008 H 748.777 -3.88443 -0.471947 0
M  V30 8009 H 748.4 -3.371 -2.1083 0
M  V30 8010 N 749.397 0.351382 -1.53633 0
M  V30 8011 C 750.645 1.09034 -1.70165 0
M  V30 8012 C 750.966 1.89413 -0.463422 0
M  V30 8013 O 750.236 1.888 0.522624 0
M  V30 8014 H 748.816 0.405522 -0.627344 0
M  V30 8015 H 751.478 0.394554 -1.90865 0
M  V30 8016 H 750.574 1.77215 -2.56907 0
M  V30 8017 N 750.875 1.45233 0.611969 0
M  V30 8018 C 752.124 1.48296 1.36716 0
M  V30 8019 C 752.437 0.12706 1.95187 0
M  V30 8020 O 753.643 0.0353066 2.71477 0
M  V30 8021 C 752.099 2.61168 2.47627 0
M  V30 8022 C 751.707 4.03051 1.95587 0
M  V30 8023 C 753.451 2.73472 3.24674 0
M  V30 8024 C 751.358 5.07312 3.03954 0
M  V30 8025 H 750.288 0.5518 0.513841 0
M  V30 8026 H 752.939 1.7136 0.656359 0
M  V30 8027 H 751.321 2.31379 3.21372 0
M  V30 8028 H 752.495 4.42497 1.2858 0
M  V30 8029 H 750.81 3.95158 1.31298 0
M  V30 8030 H 753.407 3.48537 4.05494 0
M  V30 8031 H 753.75 1.79953 3.75397 0
M  V30 8032 H 754.283 3.02765 2.58028 0
M  V30 8033 H 751.022 6.02525 2.58154 0
M  V30 8034 H 750.542 4.7244 3.69541 0
M  V30 8035 H 752.221 5.31867 3.6841 0
M  V30 8036 N 752.353 -0.854086 1.3245 0
M  V30 8037 C 753.283 -1.97827 1.24044 0
M  V30 8038 C 754.264 -1.69646 0.124166 0
M  V30 8039 O 755.449 -1.91687 0.31143 0
M  V30 8040 C 752.579 -3.33673 0.963324 0
M  V30 8041 C 751.533 -3.76207 2.04089 0
M  V30 8042 C 750.859 -5.0969 1.61618 0
M  V30 8043 C 752.159 -3.91612 3.45597 0
M  V30 8044 H 753.853 -2.05118 2.18099 0
M  V30 8045 H 751.399 -0.985489 1.04996 0
M  V30 8046 H 753.352 -4.11871 0.891061 0
M  V30 8047 H 752.076 -3.26597 -0.0128649 0
M  V30 8048 H 750.735 -3.0026 2.10332 0
M  V30 8049 H 750.383 -4.99072 0.627418 0
M  V30 8050 H 750.083 -5.3912 2.33717 0
M  V30 8051 H 751.607 -5.90381 1.55829 0
M  V30 8052 H 753.021 -4.60163 3.4194 0
M  V30 8053 H 751.418 -4.3246 4.16051 0
M  V30 8054 H 752.488 -2.9451 3.85217 0
M  V30 8055 N 753.831 -1.1567 -1.07043 0
M  V30 8056 C 754.741 -0.870435 -2.17855 0
M  V30 8057 C 755.757 0.154452 -1.73313 0
M  V30 8058 O 756.933 -0.0203759 -2.0139 0
M  V30 8059 C 753.998 -0.367219 -3.4475 0
M  V30 8060 C 753.059 -1.45639 -4.03841 0
M  V30 8061 C 752.292 -0.977092 -5.2468 0
M  V30 8062 O 752.515 0.176127 -5.70128 0
M  V30 8063 O 751.449 -1.76215 -5.75527 0
M  V30 8064 H 755.275 -1.79687 -2.44839 0
M  V30 8065 H 752.86 -0.936064 -1.1644 0
M  V30 8066 H 754.742 -0.0931947 -4.21297 0
M  V30 8067 H 753.417 0.53131 -3.1931 0
M  V30 8068 H 752.324 -1.78406 -3.28819 0
M  V30 8069 H 753.657 -2.32995 -4.3356 0
M  V30 8070 N 755.309 1.25446 -0.953992 0
M  V30 8071 C 756.272 2.24156 -0.478179 0
M  V30 8072 C 757.272 1.55278 0.417776 0
M  V30 8073 O 758.462 1.72866 0.215155 0
M  V30 8074 C 755.594 3.39495 0.309202 0
M  V30 8075 H 756.787 2.67764 -1.35064 0
M  V30 8076 H 754.34 1.37822 -0.737206 0
M  V30 8077 H 755.075 3.01307 1.19936 0
M  V30 8078 H 754.86 3.90679 -0.333562 0
M  V30 8079 H 756.35 4.12796 0.631594 0
M  V30 8080 N 756.787 0.722489 1.40064 0
M  V30 8081 C 757.735 0.063329 2.32514 0
M  V30 8082 C 758.729 -0.73953 1.52405 0
M  V30 8083 O 759.935 -0.642122 1.68157 0
M  V30 8084 H 756.31 0.00167692 0.751998 0
M  V30 8085 H 758.281 0.859656 2.85749 0
M  V30 8086 C 757.03 -0.839219 3.3742 0
M  V30 8087 H 756.353 -0.230836 3.99133 0
M  V30 8088 H 757.793 -1.26827 4.04587 0
M  V30 8089 C 756.252 -1.96783 2.73456 0
M  V30 8090 O 756.782 -3.05933 2.60323 0
M  V30 8091 N 754.988 -1.75351 2.31734 0
M  V30 8092 H 754.535 -0.865787 2.42615 0
M  V30 8093 H 754.493 -2.51043 1.89275 0
M  V30 8094 N 758.265 -1.50454 0.469181 0
M  V30 8095 C 759.215 -2.25381 -0.344582 0
M  V30 8096 C 760.199 -1.28892 -0.963098 0
M  V30 8097 O 761.391 -1.53805 -0.875964 0
M  V30 8098 C 758.52 -3.12232 -1.4271 0
M  V30 8099 C 757.606 -4.16168 -0.816411 0
M  V30 8100 N 757.997 -5.05762 0.0621424 0
M  V30 8101 C 756.295 -4.32712 -1.08056 0
M  V30 8102 C 756.996 -5.80264 0.408519 0
M  V30 8103 N 755.972 -5.43171 -0.215827 0
M  V30 8104 H 759.774 -2.92016 0.332237 0
M  V30 8105 H 757.288 -1.59911 0.283209 0
M  V30 8106 H 759.285 -3.64514 -2.02324 0
M  V30 8107 H 757.945 -2.47145 -2.10593 0
M  V30 8108 H 758.956 -5.16105 0.430841 0
M  V30 8109 H 755.633 -3.78844 -1.75452 0
M  V30 8110 H 757.023 -6.62408 1.12539 0
M  V30 8111 N 759.743 -0.201713 -1.56304 0
M  V30 8112 C 760.989 0.435952 -1.98059 0
M  V30 8113 C 761.322 1.60811 -1.08873 0
M  V30 8114 O 760.597 1.9398 -0.142128 0
M  V30 8115 C 760.88 0.889706 -3.48936 0
M  V30 8116 C 760.733 -0.284725 -4.48898 0
M  V30 8117 C 762.052 1.7529 -4.03685 0
M  V30 8118 H 759.171 0.15699 -0.720085 0
M  V30 8119 H 761.813 -0.293965 -1.87712 0
M  V30 8120 H 759.963 1.51166 -3.57884 0
M  V30 8121 H 761.635 -0.922531 -4.51981 0
M  V30 8122 H 759.878 -0.935427 -4.23594 0
M  V30 8123 H 760.549 0.0753865 -5.51949 0
M  V30 8124 H 763.025 1.2283 -3.97558 0
M  V30 8125 H 761.901 2.03933 -5.0961 0
M  V30 8126 H 762.162 2.70939 -3.49348 0
M  V30 8127 N 761.222 1.57436 0.0718424 0
M  V30 8128 C 762.447 1.91858 0.787745 0
M  V30 8129 C 762.872 0.798119 1.70328 0
M  V30 8130 O 762.23 -0.24905 1.79581 0
M  V30 8131 C 762.278 3.25232 1.55744 0
M  V30 8132 O 761.382 3.14462 2.6681 0
M  V30 8133 H 760.723 0.628258 0.214914 0
M  V30 8134 H 763.253 2.04561 0.0401012 0
M  V30 8135 H 763.263 3.59105 1.9367 0
M  V30 8136 H 761.938 4.0636 0.885691 0
M  V30 8137 H 760.515 2.92148 2.31741 0
M  V30 8138 N 762.7 -0.34323 1.53817 0
M  V30 8139 C 763.928 -1.10348 1.75017 0
M  V30 8140 C 764.343 -1.82345 0.489475 0
M  V30 8141 O 763.7 -1.74362 -0.538886 0
M  V30 8142 C 763.751 -2.11672 2.93048 0
M  V30 8143 O 763.472 -1.42603 4.14241 0
M  V30 8144 C 764.973 -3.0007 3.26301 0
M  V30 8145 H 762.193 -0.329056 0.584776 0
M  V30 8146 H 764.737 -0.395339 2.00642 0
M  V30 8147 H 762.892 -2.78051 2.69753 0
M  V30 8148 H 763.306 -2.10294 4.80496 0
M  V30 8149 H 764.78 -3.67101 4.12239 0
M  V30 8150 H 765.257 -3.66105 2.42618 0
M  V30 8151 H 765.863 -2.3928 3.51604 0
M  V30 8152 N 764.178 -1.45556 -0.604258 0
M  V30 8153 C 765.108 -1.57327 -1.72541 0
M  V30 8154 C 766.089 -0.424637 -1.64714 0
M  V30 8155 O 767.274 -0.648196 -1.83063 0
M  V30 8156 C 764.404 -1.54279 -3.11152 0
M  V30 8157 C 763.358 -2.67893 -3.33792 0
M  V30 8158 C 762.684 -2.499 -4.72709 0
M  V30 8159 C 763.984 -4.0988 -3.23722 0
M  V30 8160 H 765.678 -2.51175 -1.62947 0
M  V30 8161 H 763.224 -1.20884 -0.782504 0
M  V30 8162 H 765.177 -1.6111 -3.89386 0
M  V30 8163 H 763.901 -0.569627 -3.21594 0
M  V30 8164 H 762.56 -2.60495 -2.57949 0
M  V30 8165 H 762.208 -1.50715 -4.79889 0
M  V30 8166 H 761.908 -3.26091 -4.88813 0
M  V30 8167 H 763.432 -2.5859 -5.5314 0
M  V30 8168 H 764.846 -4.18503 -3.91826 0
M  V30 8169 H 763.243 -4.86487 -3.51355 0
M  V30 8170 H 764.313 -4.31553 -2.21111 0
M  V30 8171 N 765.656 0.84705 -1.32902 0
M  V30 8172 C 766.619 1.9378 -1.224 0
M  V30 8173 C 767.619 1.60144 -0.145108 0
M  V30 8174 O 768.809 1.69638 -0.396058 0
M  V30 8175 C 765.941 3.29234 -0.884174 0
M  V30 8176 H 767.134 2.04518 -2.19345 0
M  V30 8177 H 764.687 1.03816 -1.16842 0
M  V30 8178 H 765.422 3.24193 0.0831277 0
M  V30 8179 H 765.207 3.55026 -1.6643 0
M  V30 8180 H 766.697 4.09162 -0.835226 0
M  V30 8181 N 767.134 1.16236 1.06428 0
M  V30 8182 C 768.374 0.95369 1.80787 0
M  V30 8183 C 768.738 -0.509495 1.85117 0
M  V30 8184 O 769.939 -0.836822 2.55442 0
M  V30 8185 C 768.21 1.56235 3.21443 0
M  V30 8186 S 769.769 1.49812 4.12434 0
M  V30 8187 H 766.587 0.343004 0.622792 0
M  V30 8188 H 769.189 1.47957 1.27785 0
M  V30 8189 H 767.893 2.62 3.15886 0
M  V30 8190 H 767.424 1.03574 3.79521 0
M  V30 8191 H 769.439 0.49745 4.937 0
M  V30 8192 N 768.612 -1.24939 0.960631 0
M  V30 8193 C 769.542 -2.28 0.503815 0
M  V30 8194 C 770.523 -1.63959 -0.452928 0
M  V30 8195 O 771.708 -1.91009 -0.350585 0
M  V30 8196 C 768.838 -3.46643 -0.213535 0
M  V30 8197 C 767.792 -4.22903 0.658535 0
M  V30 8198 C 767.118 -5.34363 -0.189902 0
M  V30 8199 C 768.418 -4.84949 1.93963 0
M  V30 8200 H 770.112 -2.66462 1.36521 0
M  V30 8201 H 767.658 -1.28093 0.657897 0
M  V30 8202 H 769.611 -4.1787 -0.544286 0
M  V30 8203 H 768.335 -3.07187 -1.10923 0
M  V30 8204 H 766.994 -3.53467 0.972455 0
M  V30 8205 H 766.642 -4.91147 -1.08553 0
M  V30 8206 H 766.342 -5.86302 0.390331 0
M  V30 8207 H 767.866 -6.0842 -0.515484 0
M  V30 8208 H 769.28 -5.48288 1.67491 0
M  V30 8209 H 767.677 -5.47091 2.46601 0
M  V30 8210 H 768.747 -4.06799 2.639 0
M  V30 8211 N 770.09 -0.729906 -1.39679 0
M  V30 8212 C 771.338 -0.275077 -2.00219 0
M  V30 8213 C 771.659 1.1401 -1.58199 0
M  V30 8214 O 770.929 1.77546 -0.827904 0
M  V30 8215 H 769.509 -0.0987127 -0.740449 0
M  V30 8216 H 772.171 -0.93873 -1.70804 0
M  V30 8217 H 771.267 -0.319446 -3.10461 0
M  V30 8218 N 771.568 1.50203 -0.477153 0
M  V30 8219 C 772.793 2.07263 0.0754986 0
M  V30 8220 C 773.218 1.33801 1.32208 0
M  V30 8221 O 772.576 0.387482 1.77111 0
M  V30 8222 C 772.624 3.59028 0.336348 0
M  V30 8223 O 771.728 3.87339 1.4157 0
M  V30 8224 H 771.069 0.663815 -0.015662 0
M  V30 8225 H 773.599 1.93321 -0.669936 0
M  V30 8226 H 773.609 4.03927 0.575034 0
M  V30 8227 H 772.284 4.11912 -0.574551 0
M  V30 8228 H 770.861 3.54272 1.16385 0
M  V30 8229 N 773.046 0.209999 1.56195 0
M  V30 8230 C 774.457 -0.299943 1.84275 0
M  V30 8231 C 774.808 -1.60314 1.1311 0
M  V30 8232 O 773.933 -2.1273 0.396874 0
M  V30 8233 C 774.528 -0.550986 3.3429 0
M  V30 8234 C 773.087 -1.00526 3.62728 0
M  V30 8235 C 772.234 -0.0619828 2.77231 0
M  V30 8236 H 775.185 0.433458 1.52666 0
M  V30 8237 H 775.206 -1.39846 3.53869 0
M  V30 8238 H 774.718 0.397669 3.86057 0
M  V30 8239 H 772.819 -1.96768 3.16407 0
M  V30 8240 H 772.932 -0.887664 4.70805 0
M  V30 8241 H 771.296 -0.566648 2.48317 0
M  V30 8242 H 772.079 0.881383 3.31793 0
M  V30 8243 N 774.524 -1.57472 -0.0634922 0
M  V30 8244 C 775.749 -1.92273 -0.77756 0
M  V30 8245 C 776.174 -0.807141 -1.69902 0
M  V30 8246 O 775.532 0.239523 -1.79711 0
M  V30 8247 C 775.58 -3.26054 -1.54017 0
M  V30 8248 O 774.684 -3.15873 -2.65138 0
M  V30 8249 H 774.025 -0.629389 -0.211579 0
M  V30 8250 H 776.555 -2.04579 -0.0292523 0
M  V30 8251 H 776.565 -3.60127 -1.91763 0
M  V30 8252 H 775.24 -4.06824 -0.864128 0
M  V30 8253 H 773.817 -2.93373 -2.30189 0
M  V30 8254 N 776.003 0.335068 -1.53997 0
M  V30 8255 C 777.231 1.09418 -1.756 0
M  V30 8256 C 777.646 1.82083 -0.499138 0
M  V30 8257 O 777.003 1.74646 0.529631 0
M  V30 8258 C 777.054 2.10115 -2.94166 0
M  V30 8259 O 776.775 1.40404 -4.14992 0
M  V30 8260 C 778.276 2.98336 -3.27888 0
M  V30 8261 H 775.496 0.32595 -0.586513 0
M  V30 8262 H 778.04 0.384693 -2.00849 0
M  V30 8263 H 776.195 2.76616 -2.71224 0
M  V30 8264 H 776.609 2.07743 -4.81605 0
M  V30 8265 H 778.083 3.6491 -4.1418 0
M  V30 8266 H 778.56 3.64814 -2.44556 0
M  V30 8267 H 779.166 2.37412 -3.52868 0
M  V30 8268 N 777.481 1.45874 0.596531 0
M  V30 8269 C 778.444 1.54988 1.68853 0
M  V30 8270 C 779.444 0.428302 1.54991 0
M  V30 8271 O 780.634 0.692158 1.59859 0
M  V30 8272 C 777.766 1.457 3.08195 0
M  V30 8273 H 778.959 2.52294 1.62135 0
M  V30 8274 H 776.512 1.33479 0.813206 0
M  V30 8275 H 777.247 0.496204 3.20481 0
M  V30 8276 H 777.032 2.27061 3.19665 0
M  V30 8277 H 778.522 1.55133 3.87716 0
M  V30 8278 N 778.959 -0.83999 1.33349 0
M  V30 8279 C 780.187 -1.62728 1.27778 0
M  V30 8280 C 780.602 -1.88191 -0.151505 0
M  V30 8281 O 779.959 -1.46128 -1.09329 0
M  V30 8282 C 780.01 -2.97813 2.04913 0
M  V30 8283 O 779.731 -2.73469 3.42266 0
M  V30 8284 C 781.232 -3.92245 2.0654 0
M  V30 8285 H 778.452 -0.506374 0.440257 0
M  V30 8286 H 780.996 -1.04637 1.75703 0
M  V30 8287 H 779.151 -3.52509 1.60674 0
M  V30 8288 H 779.565 -3.59483 3.81932 0
M  V30 8289 H 781.039 -4.84249 2.64966 0
M  V30 8290 H 781.516 -4.26332 1.05537 0
M  V30 8291 H 782.122 -3.43487 2.50793 0
M  V30 8292 N 780.437 -1.16799 -1.0581 0
M  V30 8293 C 781.683 -0.953935 -1.78963 0
M  V30 8294 C 782.016 0.516638 -1.87202 0
M  V30 8295 O 781.291 1.38338 -1.36721 0
M  V30 8296 C 781.574 -1.58808 -3.23191 0
M  V30 8297 C 781.427 -3.13032 -3.23003 0
M  V30 8298 C 782.746 -1.2868 -4.20867 0
M  V30 8299 H 779.865 -0.347972 -0.64968 0
M  V30 8300 H 782.507 -1.44204 -1.23715 0
M  V30 8301 H 780.657 -1.17303 -3.70368 0
M  V30 8302 H 782.329 -3.63553 -2.83949 0
M  V30 8303 H 780.572 -3.46108 -2.61518 0
M  V30 8304 H 781.243 -3.52527 -4.24769 0
M  V30 8305 H 783.719 -1.6461 -3.82155 0
M  V30 8306 H 782.595 -1.75645 -5.20038 0
M  V30 8307 H 782.856 -0.206491 -4.41618 0
M  V30 8308 N 781.915 1.24427 -0.967243 0
M  V30 8309 C 783.143 1.96541 -0.646477 0
M  V30 8310 C 783.558 1.71753 0.783996 0
M  V30 8311 O 782.915 1.00102 1.52597 0
M  V30 8312 C 782.966 3.4983 -0.911098 0
M  V30 8313 O 782.687 3.7377 -2.28534 0
M  V30 8314 C 784.188 4.3916 -0.604458 0
M  V30 8315 H 781.408 0.626129 -0.241255 0
M  V30 8316 H 783.952 1.58268 -1.29505 0
M  V30 8317 H 782.107 3.86168 -0.308741 0
M  V30 8318 H 782.521 4.68154 -2.365 0
M  V30 8319 H 783.995 5.4557 -0.840069 0
M  V30 8320 H 784.472 4.36771 0.461273 0
M  V30 8321 H 785.078 4.08409 -1.1867 0
M  V30 8322 N 783.393 0.737304 1.3929 0
M  V30 8323 C 784.642 0.283129 1.99703 0
M  V30 8324 C 784.955 -1.13677 1.59176 0
M  V30 8325 O 786.161 -1.69058 2.12442 0
M  V30 8326 C 784.617 0.455262 3.57009 0
M  V30 8327 C 784.225 1.88319 4.06497 0
M  V30 8328 C 785.969 0.0629786 4.24453 0
M  V30 8329 C 783.876 2.00475 5.56385 0
M  V30 8330 H 782.806 0.102106 0.747054 0
M  V30 8331 H 785.457 0.911515 1.5926 0
M  V30 8332 H 783.839 -0.242057 3.9526 0
M  V30 8333 H 785.013 2.61265 3.79575 0
M  V30 8334 H 783.328 2.2289 3.51723 0
M  V30 8335 H 785.925 0.132787 5.34535 0
M  V30 8336 H 786.268 -0.982128 4.04549 0
M  V30 8337 H 786.801 0.71154 3.91385 0
M  V30 8338 H 783.54 3.03182 5.81172 0
M  V30 8339 H 783.06 1.31969 5.85102 0
M  V30 8340 H 784.739 1.787 6.21832 0
M  V30 8341 N 784.871 -1.49948 0.485112 0
M  V30 8342 C 786.118 -2.02396 -0.0650059 0
M  V30 8343 C 786.446 -1.36606 -1.38452 0
M  V30 8344 O 785.701 -0.485476 -1.89583 0
M  V30 8345 C 786 -3.56282 -0.282434 0
M  V30 8346 C 785.666 -4.40625 0.957106 0
M  V30 8347 C 784.328 -4.63393 1.29692 0
M  V30 8348 C 786.68 -4.89799 1.78176 0
M  V30 8349 C 784.008 -5.3258 2.4612 0
M  V30 8350 C 786.36 -5.60266 2.93743 0
M  V30 8351 C 785.024 -5.81284 3.28124 0
M  V30 8352 H 784.294 -0.740618 -0.0237873 0
M  V30 8353 H 786.941 -1.80416 0.642044 0
M  V30 8354 H 785.246 -3.76853 -1.07186 0
M  V30 8355 H 786.943 -3.94442 -0.722276 0
M  V30 8356 H 783.533 -4.23133 0.682384 0
M  V30 8357 H 787.717 -4.7205 1.53239 0
M  V30 8358 H 782.973 -5.47059 2.73014 0
M  V30 8359 H 787.147 -5.97347 3.5798 0
M  V30 8360 H 784.774 -6.34671 4.18446 0
M  V30 8361 N 786.349 -0.21828 -1.56081 0
M  V30 8362 C 787.626 0.463143 -1.90038 0
M  V30 8363 C 788.006 1.77982 -1.13515 0
M  V30 8364 O 787.354 2.27199 -0.24345 0
M  V30 8365 C 787.564 0.659292 -3.42716 0
M  V30 8366 C 788.912 0.968203 -4.13414 0
M  V30 8367 O 789.936 0.746195 -3.48296 0
M  V30 8368 O 788.795 1.38936 -5.28544 0
M  V30 8369 H 785.889 0.244435 -0.790051 0
M  V30 8370 H 788.435 -0.260221 -1.67693 0
M  V30 8371 H 787.207 -0.269584 -3.9037 0
M  V30 8372 H 786.83 1.43426 -3.7083 0
M  V30 8373 N 787.827 1.57504 0.0551401 0
M  V30 8374 C 789.104 1.79155 0.785048 0
M  V30 8375 C 789.484 0.809995 1.94942 0
M  V30 8376 O 788.832 -0.153432 2.27984 0
M  V30 8377 C 789.042 3.26134 1.24247 0
M  V30 8378 C 790.39 3.90419 1.66908 0
M  V30 8379 O 791.414 3.30126 1.33772 0
M  V30 8380 O 790.273 4.96523 2.28314 0
M  V30 8381 H 787.367 0.735825 0.377479 0
M  V30 8382 H 789.913 1.69666 0.0339285 0
M  V30 8383 H 788.685 3.89145 0.410089 0
M  V30 8384 H 788.308 3.40411 2.05441 0
M  V30 8385 N 789.305 -0.326896 1.54172 0
M  V30 8386 C 790.582 -1.08326 1.62864 0
M  V30 8387 C 790.962 -2.06018 0.46039 0
M  V30 8388 O 790.31 -2.21889 -0.545685 0
M  V30 8389 C 790.52 -1.78816 2.9971 0
M  V30 8390 C 791.868 -2.31958 3.55641 0
M  V30 8391 O 792.892 -1.88888 3.01993 0
M  V30 8392 O 791.751 -3.10801 4.49517 0
M  V30 8393 H 788.845 -0.499131 0.659392 0
M  V30 8394 H 791.391 -0.327054 1.66519 0
M  V30 8395 H 790.163 -1.07739 3.76176 0
M  V30 8396 H 789.786 -2.61255 2.99719 0
M  V30 8397 N 790.784 -1.46188 -0.588786 0
M  V30 8398 C 791.734 -1.5271 -1.69303 0
M  V30 8399 C 792.718 -0.388578 -1.56137 0
M  V30 8400 O 793.91 -0.636616 -1.65155 0
M  V30 8401 C 791.039 -1.51457 -3.08084 0
M  V30 8402 C 790.125 -2.70581 -3.26568 0
M  V30 8403 N 790.516 -3.9555 -3.15236 0
M  V30 8404 C 788.814 -2.66676 -3.57491 0
M  V30 8405 C 789.515 -4.75157 -3.35561 0
M  V30 8406 N 788.491 -4.06927 -3.60432 0
M  V30 8407 H 792.293 -2.47136 -1.59063 0
M  V30 8408 H 789.807 -1.41743 -0.792632 0
M  V30 8409 H 791.804 -1.54216 -3.87328 0
M  V30 8410 H 790.464 -0.581036 -3.19459 0
M  V30 8411 H 791.475 -4.2689 -2.93232 0
M  V30 8412 H 788.152 -1.82317 -3.75588 0
M  V30 8413 H 789.542 -5.84126 -3.32034 0
M  V30 8414 N 792.262 0.832906 -1.33792 0
M  V30 8415 C 793.225 1.92471 -1.24449 0
M  V30 8416 C 794.225 1.59981 -0.162085 0
M  V30 8417 O 795.415 1.69208 -0.414029 0
M  V30 8418 C 792.547 3.28278 -0.919044 0
M  V30 8419 H 793.74 2.0218 -2.21502 0
M  V30 8420 H 791.293 1.0257 -1.17936 0
M  V30 8421 H 792.028 3.24263 0.048738 0
M  V30 8422 H 791.813 3.53241 -1.70187 0
M  V30 8423 H 793.303 4.08253 -0.878576 0
M  V30 8424 N 793.74 1.17359 1.05189 0
M  V30 8425 C 794.988 0.960087 1.77839 0
M  V30 8426 C 795.309 -0.512554 1.88143 0
M  V30 8427 O 794.579 -1.3721 1.39822 0
M  V30 8428 H 793.159 0.352234 0.658741 0
M  V30 8429 H 795.821 1.47834 1.27008 0
M  V30 8430 H 794.917 1.38843 2.79516 0
M  V30 8431 N 795.218 -1.23913 0.973828 0
M  V30 8432 C 796.467 -1.91455 0.63464 0
M  V30 8433 C 796.78 -1.76893 -0.834759 0
M  V30 8434 O 797.986 -2.3918 -1.28473 0
M  V30 8435 C 796.442 -3.43172 1.08447 0
M  V30 8436 C 796.05 -3.66409 2.57776 0
M  V30 8437 C 797.794 -4.1653 0.818721 0
M  V30 8438 C 795.701 -5.11728 2.9646 0
M  V30 8439 H 794.631 -0.716881 0.233661 0
M  V30 8440 H 797.282 -1.40457 1.18085 0
M  V30 8441 H 795.664 -3.93242 0.466524 0
M  V30 8442 H 796.838 -3.26913 3.24753 0
M  V30 8443 H 795.153 -3.06349 2.82027 0
M  V30 8444 H 797.75 -5.23603 1.08367 0
M  V30 8445 H 798.093 -4.15578 -0.245128 0
M  V30 8446 H 798.626 -3.72428 1.39793 0
M  V30 8447 H 795.365 -5.17806 4.01941 0
M  V30 8448 H 794.885 -5.52199 2.34172 0
M  V30 8449 H 796.564 -5.80009 2.86703 0
M  V30 8450 N 796.696 -0.74468 -1.38897 0
M  V30 8451 C 797.943 -0.296884 -2.00312 0
M  V30 8452 C 798.271 1.11878 -1.59102 0
M  V30 8453 O 797.526 1.7789 -0.815702 0
M  V30 8454 C 797.825 -0.357302 -3.55609 0
M  V30 8455 C 797.491 -1.72736 -4.16501 0
M  V30 8456 C 796.153 -2.10232 -4.32846 0
M  V30 8457 C 798.505 -2.62647 -4.50184 0
M  V30 8458 C 795.833 -3.3713 -4.80167 0
M  V30 8459 C 798.185 -3.88926 -4.98918 0
M  V30 8460 C 796.849 -4.26503 -5.1347 0
M  V30 8461 H 796.119 -0.108638 -0.732993 0
M  V30 8462 H 798.766 -0.953419 -1.66079 0
M  V30 8463 H 797.071 0.382805 -3.89925 0
M  V30 8464 H 798.768 0.0074596 -4.00999 0
M  V30 8465 H 795.358 -1.42585 -4.04187 0
M  V30 8466 H 799.542 -2.34945 -4.37166 0
M  V30 8467 H 794.798 -3.66174 -4.89619 0
M  V30 8468 H 798.972 -4.58745 -5.23952 0
M  V30 8469 H 796.599 -5.24896 -5.49898 0
M  V30 8470 N 798.174 1.49689 -0.493057 0
M  V30 8471 C 799.402 2.06836 0.0513141 0
M  V30 8472 C 799.817 1.35436 1.31539 0
M  V30 8473 O 799.174 0.430248 1.77356 0
M  V30 8474 C 799.225 3.60107 0.317003 0
M  V30 8475 O 798.946 4.2882 -0.896957 0
M  V30 8476 C 800.447 4.33945 0.905902 0
M  V30 8477 H 797.667 0.670787 -0.0169048 0
M  V30 8478 H 800.211 1.92574 -0.688139 0
M  V30 8479 H 798.366 3.74099 1.00642 0
M  V30 8480 H 798.78 5.20395 -0.654939 0
M  V30 8481 H 800.254 5.42087 1.04144 0
M  V30 8482 H 800.731 3.95895 1.90168 0
M  V30 8483 H 801.337 4.2454 0.254195 0
M  V30 8484 N 799.652 0.226554 1.55963 0
M  V30 8485 C 800.899 -0.403789 1.98433 0
M  V30 8486 C 801.227 -1.59416 1.1143 0
M  V30 8487 O 800.482 -1.95042 0.160389 0
M  V30 8488 C 800.781 -0.87642 3.46488 0
M  V30 8489 C 800.447 0.203973 4.50438 0
M  V30 8490 C 799.109 0.500754 4.78587 0
M  V30 8491 C 801.461 0.934396 5.12756 0
M  V30 8492 C 798.789 1.53239 5.66334 0
M  V30 8493 C 801.141 1.9554 6.0162 0
M  V30 8494 C 799.805 2.25905 6.28111 0
M  V30 8495 H 799.075 -0.147757 0.726119 0
M  V30 8496 H 801.722 0.330121 1.88633 0
M  V30 8497 H 800.027 -1.68918 3.53517 0
M  V30 8498 H 801.724 -1.37407 3.76723 0
M  V30 8499 H 798.314 -0.0374917 4.28584 0
M  V30 8500 H 802.498 0.718355 4.91074 0
M  V30 8501 H 797.754 1.77321 5.85122 0
M  V30 8502 H 801.928 2.52642 6.48957 0
M  V30 8503 H 799.555 3.05985 6.959 0
M  V30 8504 N 801.13 -1.57531 -0.0467866 0
M  V30 8505 C 802.04 -2.08768 -1.07018 0
M  V30 8506 C 803.056 -1.02245 -1.40791 0
M  V30 8507 O 804.232 -1.33873 -1.50466 0
M  V30 8508 C 801.297 -2.54221 -2.35738 0
M  V30 8509 C 800.358 -3.75152 -2.08709 0
M  V30 8510 C 799.591 -4.18428 -3.31291 0
M  V30 8511 O 799.814 -3.61365 -4.4133 0
M  V30 8512 O 798.748 -5.11018 -3.18032 0
M  V30 8513 H 802.574 -2.96334 -0.664812 0
M  V30 8514 H 800.159 -1.47074 -0.262605 0
M  V30 8515 H 802.041 -2.83866 -3.11445 0
M  V30 8516 H 800.716 -1.69774 -2.75605 0
M  V30 8517 H 799.623 -3.50553 -1.30627 0
M  V30 8518 H 800.956 -4.60528 -1.73708 0
M  V30 8519 N 802.608 0.318715 -1.54344 0
M  V30 8520 C 803.518 1.41535 -1.87097 0
M  V30 8521 C 804.534 1.56361 -0.763353 0
M  V30 8522 O 805.71 1.71365 -1.05811 0
M  V30 8523 C 802.775 2.76178 -2.09587 0
M  V30 8524 C 801.836 2.70486 -3.3337 0
M  V30 8525 C 801.069 3.98708 -3.54778 0
M  V30 8526 O 801.292 4.9721 -2.79532 0
M  V30 8527 O 800.226 4.01674 -4.48266 0
M  V30 8528 H 804.052 1.16764 -2.80357 0
M  V30 8529 H 801.637 0.51318 -1.4031 0
M  V30 8530 H 803.519 3.55873 -2.25682 0
M  V30 8531 H 802.194 3.00829 -1.19514 0
M  V30 8532 H 801.101 1.89325 -3.22656 0
M  V30 8533 H 802.434 2.50789 -4.23516 0
M  V30 8534 N 804.086 1.46499 0.581025 0
M  V30 8535 C 805.497 1.4604 1.16315 0
M  V30 8536 C 805.848 0.202154 1.95156 0
M  V30 8537 O 804.973 -0.694638 2.04948 0
M  V30 8538 C 805.568 2.64593 2.11604 0
M  V30 8539 C 804.127 2.6717 2.65136 0
M  V30 8540 C 803.274 2.38753 1.4104 0
M  V30 8541 H 806.225 1.54354 0.368871 0
M  V30 8542 H 806.246 2.40207 2.95095 0
M  V30 8543 H 805.758 3.56154 1.54194 0
M  V30 8544 H 803.859 1.79685 3.26411 0
M  V30 8545 H 803.972 3.67182 3.07757 0
M  V30 8546 H 802.336 1.88845 1.70908 0
M  V30 8547 H 803.119 3.32493 0.854588 0
M  V30 8548 N 805.565 -0.825799 1.34232 0
M  V30 8549 C 806.811 -1.58419 1.26614 0
M  V30 8550 C 807.144 -1.93503 -0.164341 0
M  V30 8551 O 806.419 -1.59785 -1.109 0
M  V30 8552 C 806.702 -2.8856 2.15418 0
M  V30 8553 C 806.555 -2.60075 3.66989 0
M  V30 8554 C 807.874 -3.90107 2.03726 0
M  V30 8555 H 804.993 -0.574794 0.461282 0
M  V30 8556 H 807.635 -0.951519 1.64457 0
M  V30 8557 H 805.785 -3.42553 1.83275 0
M  V30 8558 H 807.457 -2.12414 4.09485 0
M  V30 8559 H 805.7 -1.93565 3.88221 0
M  V30 8560 H 806.371 -3.52866 4.24488 0
M  V30 8561 H 808.847 -3.45459 2.31942 0
M  V30 8562 H 807.723 -4.78976 2.68092 0
M  V30 8563 H 807.984 -4.30329 1.01337 0
M  V30 8564 N 807.043 -1.17915 -1.04565 0
M  V30 8565 C 808.271 -0.99616 -1.8134 0
M  V30 8566 C 808.686 0.455509 -1.83223 0
M  V30 8567 O 808.043 1.31636 -1.26405 0
M  V30 8568 C 808.094 -1.53758 -3.27171 0
M  V30 8569 O 807.815 -2.93241 -3.25486 0
M  V30 8570 C 809.316 -1.40007 -4.2061 0
M  V30 8571 H 806.536 -0.352055 -0.571225 0
M  V30 8572 H 809.08 -1.56349 -1.31815 0
M  V30 8573 H 807.235 -1.01213 -3.73945 0
M  V30 8574 H 807.649 -3.18392 -4.16805 0
M  V30 8575 H 809.123 -1.82695 -5.2089 0
M  V30 8576 H 809.6 -0.348054 -4.37819 0
M  V30 8577 H 810.206 -1.916 -3.79697 0
M  V30 8578 N 808.521 1.23394 -0.980386 0
M  V30 8579 C 809.471 2.22634 -0.491747 0
M  V30 8580 C 810.455 1.54958 0.433222 0
M  V30 8581 O 811.647 1.75049 0.262078 0
M  V30 8582 C 808.776 3.4269 0.204531 0
M  V30 8583 C 807.862 4.17594 -0.740007 0
M  V30 8584 N 808.253 4.69458 -1.88263 0
M  V30 8585 C 806.551 4.42554 -0.553335 0
M  V30 8586 C 807.252 5.26446 -2.47446 0
M  V30 8587 N 806.228 5.14377 -1.75834 0
M  V30 8588 H 810.03 2.60363 -1.36339 0
M  V30 8589 H 807.544 1.38924 -0.841059 0
M  V30 8590 H 809.541 4.12959 0.571901 0
M  V30 8591 H 808.201 3.06477 1.07246 0
M  V30 8592 H 809.212 4.65803 -2.26381 0
M  V30 8593 H 805.889 4.16629 0.269573 0
M  V30 8594 H 807.279 5.77195 -3.43941 0
M  V30 8595 N 809.999 0.752036 1.385 0
M  V30 8596 C 811.245 0.307958 2.00448 0
M  V30 8597 C 811.578 -1.10702 1.59558 0
M  V30 8598 O 810.853 -1.75788 0.832391 0
M  V30 8599 C 811.136 0.429092 3.57534 0
M  V30 8600 C 810.989 1.88507 4.08393 0
M  V30 8601 C 812.308 -0.178442 4.39738 0
M  V30 8602 H 809.427 0.113373 0.728228 0
M  V30 8603 H 812.069 0.951389 1.64465 0
M  V30 8604 H 810.219 -0.118695 3.88319 0
M  V30 8605 H 811.891 2.49104 3.88259 0
M  V30 8606 H 810.134 2.40066 3.61318 0
M  V30 8607 H 810.805 1.92099 5.17496 0
M  V30 8608 H 813.281 0.28872 4.15097 0
M  V30 8609 H 812.157 -0.0634349 5.48863 0
M  V30 8610 H 812.418 -1.26655 4.23569 0
M  V30 8611 N 811.477 -1.49425 0.500989 0
M  V30 8612 C 812.702 -2.07356 -0.0425154 0
M  V30 8613 C 813.127 -1.35887 -1.30063 0
M  V30 8614 O 812.485 -0.41561 -1.76472 0
M  V30 8615 C 812.533 -3.59518 -0.279188 0
M  V30 8616 O 811.637 -3.89542 -1.3539 0
M  V30 8617 H 810.978 -0.663482 0.0262207 0
M  V30 8618 H 813.508 -1.92231 0.700607 0
M  V30 8619 H 813.518 -4.04791 -0.5107 0
M  V30 8620 H 812.193 -4.10946 0.640009 0
M  V30 8621 H 810.77 -3.56079 -1.10734 0
M  V30 8622 N 812.955 -0.234822 -1.55841 0
M  V30 8623 C 813.865 0.680828 -2.24504 0
M  V30 8624 C 814.881 1.20306 -1.25708 0
M  V30 8625 O 816.057 1.24188 -1.58554 0
M  V30 8626 C 813.122 1.86636 -2.92178 0
M  V30 8627 C 812.183 1.3848 -4.06352 0
M  V30 8628 C 811.416 2.51382 -4.70789 0
M  V30 8629 O 811.639 3.69831 -4.34259 0
M  V30 8630 O 810.573 2.21828 -5.59532 0
M  V30 8631 H 814.399 0.12583 -3.03439 0
M  V30 8632 H 811.984 -0.00381817 -1.494 0
M  V30 8633 H 813.866 2.55845 -3.34845 0
M  V30 8634 H 812.541 2.40921 -2.16192 0
M  V30 8635 H 811.448 0.660341 -3.68226 0
M  V30 8636 H 812.781 0.888177 -4.8412 0
M  V30 8637 N 814.433 1.57553 0.0384317 0
M  V30 8638 C 815.658 1.93485 0.746872 0
M  V30 8639 C 816.083 0.834069 1.68597 0
M  V30 8640 O 815.441 -0.210902 1.80069 0
M  V30 8641 C 815.489 3.28463 1.4881 0
M  V30 8642 O 814.593 3.20051 2.60079 0
M  V30 8643 H 813.934 0.632675 0.201539 0
M  V30 8644 H 816.464 2.046 -0.00329815 0
M  V30 8645 H 816.474 3.63132 1.86009 0
M  V30 8646 H 815.149 4.08147 0.799297 0
M  V30 8647 H 813.726 2.96998 2.25492 0
M  V30 8648 N 815.911 -0.310526 1.54511 0
M  V30 8649 C 817.16 -1.0445 1.72549 0
M  V30 8650 C 817.473 -1.88748 0.513172 0
M  V30 8651 O 818.679 -2.65338 0.575165 0
M  V30 8652 C 817.135 -1.90665 3.05246 0
M  V30 8653 C 816.743 -1.11415 4.33925 0
M  V30 8654 C 818.487 -2.63719 3.32645 0
M  V30 8655 C 816.394 -1.96852 5.57677 0
M  V30 8656 H 815.324 -0.393676 0.643067 0
M  V30 8657 H 817.975 -0.302003 1.80998 0
M  V30 8658 H 816.357 -2.68864 2.90737 0
M  V30 8659 H 817.531 -0.378956 4.59239 0
M  V30 8660 H 815.846 -0.499853 4.13389 0
M  V30 8661 H 818.443 -3.27974 4.223 0
M  V30 8662 H 818.786 -3.32047 2.51098 0
M  V30 8663 H 819.319 -1.92574 3.48081 0
M  V30 8664 H 816.058 -1.33009 6.41864 0
M  V30 8665 H 815.578 -2.68069 5.36562 0
M  V30 8666 H 817.257 -2.55127 5.94575 0
M  V30 8667 N 817.389 -1.46805 -0.573248 0
M  V30 8668 C 818.637 -1.52302 -1.32847 0
M  V30 8669 C 818.958 -0.180159 -1.94166 0
M  V30 8670 O 818.228 0.794291 -1.79075 0
M  V30 8671 H 816.808 -0.56097 -0.493276 0
M  V30 8672 H 819.47 -1.82998 -0.670642 0
M  V30 8673 H 818.566 -2.28089 -2.13031 0
M  V30 8674 N 818.867 0.818669 -1.34668 0
M  V30 8675 C 820.116 1.57017 -1.26604 0
M  V30 8676 C 820.429 1.94936 0.161036 0
M  V30 8677 O 821.635 2.69051 0.36386 0
M  V30 8678 C 820.091 2.83305 -2.2196 0
M  V30 8679 C 819.699 2.52671 -3.69948 0
M  V30 8680 C 821.443 3.61324 -2.22813 0
M  V30 8681 C 819.35 3.75178 -4.5716 0
M  V30 8682 H 818.28 0.589323 -0.470335 0
M  V30 8683 H 820.931 0.900956 -1.59859 0
M  V30 8684 H 819.313 3.51874 -1.81661 0
M  V30 8685 H 820.487 1.92186 -4.18809 0
M  V30 8686 H 818.802 1.8792 -3.71584 0
M  V30 8687 H 821.399 4.52294 -2.85192 0
M  V30 8688 H 821.742 3.97759 -1.22857 0
M  V30 8689 H 822.275 2.99703 -2.61578 0
M  V30 8690 H 819.014 3.43861 -5.58068 0
M  V30 8691 H 818.534 4.34931 -4.13031 0
M  V30 8692 H 820.213 4.42542 -4.71981 0
M  V30 8693 N 820.346 1.18468 1.03938 0
M  V30 8694 C 821.279 0.856251 2.11527 0
M  V30 8695 C 822.257 -0.182323 1.61575 0
M  V30 8696 O 823.441 -0.061 1.88401 0
M  V30 8697 C 820.568 0.279562 3.37544 0
M  V30 8698 C 819.614 1.29552 4.06348 0
M  V30 8699 S 820.447 2.85191 4.5324 0
M  V30 8700 C 821.603 2.29037 5.82489 0
M  V30 8701 H 821.836 1.76742 2.39059 0
M  V30 8702 H 819.369 1.01068 1.16725 0
M  V30 8703 H 821.327 -0.0466579 4.10473 0
M  V30 8704 H 819.988 -0.60975 3.08125 0
M  V30 8705 H 819.181 0.840922 4.96935 0
M  V30 8706 H 818.783 1.56804 3.39541 0
M  V30 8707 H 821.075 1.67376 6.565 0
M  V30 8708 H 822.018 3.17929 6.32714 0
M  V30 8709 H 822.426 1.72009 5.37655 0
M  V30 8710 N 821.824 -1.22873 0.986916 0
M  V30 8711 C 822.734 -2.28277 0.540978 0
M  V30 8712 C 823.75 -1.69164 -0.407363 0
M  V30 8713 O 824.926 -1.99504 -0.275674 0
M  V30 8714 C 821.991 -3.46404 -0.143181 0
M  V30 8715 C 821.052 -4.20854 0.847375 0
M  V30 8716 C 820.285 -5.33341 0.19577 0
M  V30 8717 O 820.508 -5.61356 -1.0117 0
M  V30 8718 O 819.442 -5.95169 0.897623 0
M  V30 8719 H 823.268 -2.68578 1.41773 0
M  V30 8720 H 820.853 -1.28927 0.754867 0
M  V30 8721 H 822.735 -4.18096 -0.526676 0
M  V30 8722 H 821.41 -3.08041 -0.994593 0
M  V30 8723 H 820.317 -3.51459 1.28169 0
M  V30 8724 H 821.65 -4.63082 1.6678 0
M  V30 8725 N 823.302 -0.75937 -1.38099 0
M  V30 8726 C 824.548 -0.318584 -2.00282 0
M  V30 8727 C 824.881 1.09854 -1.60143 0
M  V30 8728 O 824.156 1.75344 -0.841702 0
M  V30 8729 C 824.439 -0.448047 -3.57302 0
M  V30 8730 C 824.292 -1.9067 -4.07388 0
M  V30 8731 C 825.611 0.155119 -4.39827 0
M  V30 8732 H 822.73 -0.117233 -0.727616 0
M  V30 8733 H 825.372 -0.960097 -1.63958 0
M  V30 8734 H 823.522 0.0981003 -3.88376 0
M  V30 8735 H 825.194 -2.5116 -3.86932 0
M  V30 8736 H 823.437 -2.41979 -3.6004 0
M  V30 8737 H 824.108 -1.94841 -5.1647 0
M  V30 8738 H 826.584 -0.31073 -4.14938 0
M  V30 8739 H 825.46 0.0343264 -5.48889 0
M  V30 8740 H 825.721 1.24407 -4.24235 0
M  V30 8741 N 824.78 1.49157 -0.508906 0
M  V30 8742 C 825.727 2.2927 0.265288 0
M  V30 8743 C 826.697 1.3603 0.953162 0
M  V30 8744 O 827.882 1.64989 0.958291 0
M  V30 8745 C 825.022 3.18897 1.31904 0
M  V30 8746 C 824.135 4.27201 0.642144 0
M  V30 8747 C 823.27 5.04033 1.67701 0
M  V30 8748 C 822.309 6.04165 0.982422 0
M  V30 8749 N 821.446 6.74133 1.96186 0
M  V30 8750 H 826.286 2.94967 -0.424107 0
M  V30 8751 H 823.823 1.45431 -0.220991 0
M  V30 8752 H 825.781 3.69242 1.94206 0
M  V30 8753 H 824.411 2.55168 1.97709 0
M  V30 8754 H 823.463 3.80283 -0.0943395 0
M  V30 8755 H 824.775 4.98708 0.0957507 0
M  V30 8756 H 823.929 5.58287 2.37487 0
M  V30 8757 H 822.668 4.32317 2.25728 0
M  V30 8758 H 821.673 5.49135 0.270378 0
M  V30 8759 H 822.898 6.7787 0.408554 0
M  V30 8760 H 820.844 6.05183 2.53159 0
M  V30 8761 H 820.761 7.41643 1.46634 0
M  V30 8762 H 822.029 7.32987 2.65236 0
M  V30 8763 N 826.258 0.243083 1.55714 0
M  V30 8764 C 827.504 -0.383287 1.99145 0
M  V30 8765 C 827.837 -1.57868 1.13098 0
M  V30 8766 O 827.112 -1.93535 0.193509 0
M  V30 8767 C 827.395 -0.796879 3.51172 0
M  V30 8768 C 827.248 0.403642 4.47985 0
M  V30 8769 C 828.567 -1.64525 4.08191 0
M  V30 8770 H 825.686 -0.137843 0.723995 0
M  V30 8771 H 828.328 0.343631 1.86867 0
M  V30 8772 H 826.478 -1.41625 3.61766 0
M  V30 8773 H 828.15 1.04204 4.49376 0
M  V30 8774 H 826.393 1.04741 4.20965 0
M  V30 8775 H 827.064 0.0709794 5.51954 0
M  V30 8776 H 829.54 -1.12246 4.00674 0
M  V30 8777 H 828.416 -1.9035 5.14838 0
M  V30 8778 H 828.677 -2.61582 3.56409 0
M  V30 8779 N 827.736 -1.57571 -0.0300757 0
M  V30 8780 C 828.666 -2.0953 -1.03051 0
M  V30 8781 C 829.647 -0.99761 -1.37774 0
M  V30 8782 O 830.832 -1.27279 -1.46676 0
M  V30 8783 C 827.962 -2.57385 -2.33174 0
M  V30 8784 C 826.916 -3.71409 -2.12696 0
M  V30 8785 C 826.242 -4.05467 -3.4857 0
M  V30 8786 C 827.542 -4.99877 -1.51396 0
M  V30 8787 H 829.236 -2.93367 -0.597999 0
M  V30 8788 H 826.782 -1.41127 -0.286203 0
M  V30 8789 H 828.735 -2.92355 -3.03491 0
M  V30 8790 H 827.459 -1.70629 -2.78484 0
M  V30 8791 H 826.118 -3.36786 -1.44813 0
M  V30 8792 H 825.766 -3.15779 -3.91526 0
M  V30 8793 H 825.466 -4.82269 -3.35694 0
M  V30 8794 H 826.99 -4.4297 -4.2025 0
M  V30 8795 H 828.404 -5.3281 -2.11629 0
M  V30 8796 H 826.801 -5.81283 -1.49098 0
M  V30 8797 H 827.871 -4.82522 -0.479676 0
M  V30 8798 N 829.214 0.302327 -1.54673 0
M  V30 8799 C 830.63 0.647911 -1.45857 0
M  V30 8800 C 830.83 1.90773 -0.64869 0
M  V30 8801 O 829.886 2.52018 -0.155865 0
M  V30 8802 C 831.199 0.802144 -2.89804 0
M  V30 8803 C 832.747 0.898114 -2.99838 0
M  V30 8804 C 833.222 1.08436 -4.44978 0
M  V30 8805 N 834.713 1.15059 -4.48682 0
M  V30 8806 C 835.448 1.31296 -5.58166 0
M  V30 8807 N 834.944 1.4444 -6.77576 0
M  V30 8808 N 836.737 1.34174 -5.45851 0
M  V30 8809 H 828.888 -0.525428 -2.05798 0
M  V30 8810 H 831.151 -0.173423 -0.932002 0
M  V30 8811 H 830.857 -0.0526531 -3.51661 0
M  V30 8812 H 830.731 1.69155 -3.37145 0
M  V30 8813 H 833.118 1.7434 -2.38096 0
M  V30 8814 H 833.199 -0.0152752 -2.55795 0
M  V30 8815 H 832.843 0.243843 -5.07314 0
M  V30 8816 H 832.773 2.01195 -4.8665 0
M  V30 8817 H 835.264 1.0626 -3.62653 0
M  V30 8818 H 835.577 1.56582 -7.56771 0
M  V30 8819 H 833.922 1.41499 -6.80443 0
M  V30 8820 H 837.113 1.23516 -4.5151 0
M  V30 8821 H 837.286 1.46485 -6.31226 0
M  V30 8822 N 830.692 1.47107 0.565454 0
M  V30 8823 C 831.92 1.56909 1.3486 0
M  V30 8824 C 832.335 0.216312 1.87557 0
M  V30 8825 O 831.692 -0.789168 1.64555 0
M  V30 8826 C 831.743 2.58776 2.52423 0
M  V30 8827 O 831.464 3.888 2.01906 0
M  V30 8828 C 832.965 2.78683 3.44747 0
M  V30 8829 H 830.185 0.530096 0.411387 0
M  V30 8830 H 832.729 1.92658 0.685782 0
M  V30 8831 H 830.884 2.25983 3.1466 0
M  V30 8832 H 831.298 4.44393 2.78595 0
M  V30 8833 H 832.772 3.53842 4.23674 0
M  V30 8834 H 833.249 1.86208 3.97773 0
M  V30 8835 H 833.855 3.12641 2.88333 0
M  V30 8836 N 832.17 -0.811516 1.35101 0
M  V30 8837 C 833.395 -1.60499 1.31358 0
M  V30 8838 C 833.82 -1.87793 -0.107383 0
M  V30 8839 O 833.178 -1.46161 -1.07268 0
M  V30 8840 C 833.226 -2.91612 2.12119 0
M  V30 8841 O 832.33 -3.84211 1.49853 0
M  V30 8842 H 831.671 -0.487702 0.450603 0
M  V30 8843 H 834.201 -1.00758 1.7807 0
M  V30 8844 H 834.211 -3.4108 2.23894 0
M  V30 8845 H 832.886 -2.71071 3.15426 0
M  V30 8846 H 831.463 -3.42751 1.46889 0
M  V30 8847 N 833.648 -1.19017 -1.03309 0
M  V30 8848 C 834.896 -0.988258 -1.76289 0
M  V30 8849 C 835.217 0.482557 -1.88935 0
M  V30 8850 O 834.487 1.34969 -1.41987 0
M  V30 8851 H 833.067 -0.36267 -0.653054 0
M  V30 8852 H 835.729 -1.49836 -1.2464 0
M  V30 8853 H 834.825 -1.43273 -2.77271 0
M  V30 8854 N 835.127 1.22348 -0.993418 0
M  V30 8855 C 836.09 2.22522 -0.549251 0
M  V30 8856 C 837.09 1.56529 0.368164 0
M  V30 8857 O 838.28 1.73463 0.16005 0
M  V30 8858 C 835.412 3.40307 0.201037 0
M  V30 8859 H 836.605 2.63332 -1.43515 0
M  V30 8860 H 834.158 1.35407 -0.78068 0
M  V30 8861 H 834.893 3.0497 1.10289 0
M  V30 8862 H 834.678 3.8942 -0.457685 0
M  V30 8863 H 836.168 4.14597 0.499946 0
M  V30 8864 N 836.605 0.766683 1.37694 0
M  V30 8865 C 838.021 0.445739 1.53249 0
M  V30 8866 C 838.221 -1.03935 1.72626 0
M  V30 8867 O 837.277 -1.82525 1.74473 0
M  V30 8868 C 838.59 1.2564 2.73194 0
M  V30 8869 C 840.138 1.24779 2.87053 0
M  V30 8870 C 840.613 2.04169 4.09974 0
M  V30 8871 N 842.104 2.01497 4.17077 0
M  V30 8872 C 842.839 2.5971 5.11212 0
M  V30 8873 N 842.335 3.26691 6.10938 0
M  V30 8874 N 844.128 2.49568 5.03659 0
M  V30 8875 H 836.279 1.72899 1.23368 0
M  V30 8876 H 838.542 0.733701 0.600322 0
M  V30 8877 H 838.248 2.30859 2.65324 0
M  V30 8878 H 838.122 0.882133 3.6674 0
M  V30 8879 H 840.509 0.203603 2.94397 0
M  V30 8880 H 840.59 1.66166 1.9448 0
M  V30 8881 H 840.234 3.08606 4.03392 0
M  V30 8882 H 840.164 1.60167 5.01651 0
M  V30 8883 H 842.655 1.52728 3.45662 0
M  V30 8884 H 842.968 3.68497 6.79286 0
M  V30 8885 H 841.313 3.30789 6.11231 0
M  V30 8886 H 844.504 1.96859 4.24693 0
M  V30 8887 H 844.677 2.95231 5.76839 0
M  V30 8888 N 838.083 -1.48885 0.516809 0
M  V30 8889 C 839.331 -2.02088 -0.0220166 0
M  V30 8890 C 839.652 -1.39735 -1.36011 0
M  V30 8891 O 838.922 -0.558119 -1.87781 0
M  V30 8892 H 837.502 -0.746917 -0.0111255 0
M  V30 8893 H 840.164 -1.8274 0.677647 0
M  V30 8894 H 839.26 -3.11786 -0.140067 0
M  V30 8895 N 839.561 -0.251338 -1.55583 0
M  V30 8896 C 840.509 0.662534 -2.22965 0
M  V30 8897 C 841.503 1.17662 -1.21869 0
M  V30 8898 O 842.709 1.133 -1.39868 0
M  V30 8899 H 839.084 0.232151 -0.715269 0
M  V30 8900 H 841.055 0.0711252 -2.98315 0
M  V30 8901 C 839.804 1.84646 -2.94621 0
M  V30 8902 H 839.127 1.46003 -3.72187 0
M  V30 8903 H 840.567 2.46303 -3.45124 0
M  V30 8904 C 839.026 2.72034 -1.98744 0
M  V30 8905 O 839.556 3.71695 -1.52335 0
M  V30 8906 N 837.762 2.38695 -1.6575 0
M  V30 8907 H 837.309 1.57702 -2.03685 0
M  V30 8908 H 837.267 2.9744 -1.01867 0
M  V30 8909 N 841.039 1.57585 0.0217189 0
M  V30 8910 C 842.285 1.89887 0.712099 0
M  V30 8911 C 842.618 0.849971 1.74611 0
M  V30 8912 O 841.893 -0.13407 1.94037 0
M  V30 8913 C 842.176 3.32815 1.37499 0
M  V30 8914 C 842.029 4.48405 0.353993 0
M  V30 8915 C 843.348 3.74786 2.30703 0
M  V30 8916 H 840.467 0.690588 0.257405 0
M  V30 8917 H 843.109 1.89983 -0.0251145 0
M  V30 8918 H 841.259 3.32863 2.00335 0
M  V30 8919 H 842.931 4.60491 -0.273015 0
M  V30 8920 H 841.174 4.32573 -0.32599 0
M  V30 8921 H 841.845 5.45316 0.85644 0
M  V30 8922 H 844.321 3.76151 1.77904 0
M  V30 8923 H 843.197 4.75585 2.74061 0
M  V30 8924 H 843.458 3.07449 3.17691 0
M  V30 8925 N 842.517 -0.29412 1.54831 0
M  V30 8926 C 843.766 -1.02614 1.73647 0
M  V30 8927 C 844.079 -1.88193 0.533162 0
M  V30 8928 O 845.285 -2.64713 0.603275 0
M  V30 8929 C 843.741 -1.87417 3.07251 0
M  V30 8930 C 843.349 -1.06806 4.35082 0
M  V30 8931 C 845.093 -2.60176 3.35423 0
M  V30 8932 C 843 -1.90926 5.59733 0
M  V30 8933 H 841.93 -0.386834 0.647206 0
M  V30 8934 H 844.581 -0.282789 1.81308 0
M  V30 8935 H 842.963 -2.65765 2.93572 0
M  V30 8936 H 844.137 -0.330226 4.59615 0
M  V30 8937 H 842.452 -0.455979 4.13896 0
M  V30 8938 H 845.049 -3.23476 4.25755 0
M  V30 8939 H 845.392 -3.29365 2.54606 0
M  V30 8940 H 845.925 -1.88871 3.50103 0
M  V30 8941 H 842.664 -1.26194 6.43238 0
M  V30 8942 H 842.184 -2.62363 5.39375 0
M  V30 8943 H 843.863 -2.48807 5.97247 0
M  V30 8944 N 843.995 -1.47404 -0.557645 0
M  V30 8945 C 845.241 -1.54235 -1.31679 0
M  V30 8946 C 845.574 -0.203782 -1.93128 0
M  V30 8947 O 844.849 0.787536 -1.77843 0
M  V30 8948 C 845.132 -2.66003 -2.42723 0
M  V30 8949 C 844.985 -4.09475 -1.86145 0
M  V30 8950 C 846.304 -2.73685 -3.44652 0
M  V30 8951 H 843.423 -0.561466 -0.477415 0
M  V30 8952 H 846.065 -1.79459 -0.624067 0
M  V30 8953 H 844.215 -2.44627 -3.01811 0
M  V30 8954 H 845.887 -4.42213 -1.31321 0
M  V30 8955 H 844.13 -4.17774 -1.16823 0
M  V30 8956 H 844.801 -4.83451 -2.66418 0
M  V30 8957 H 847.277 -2.92968 -2.95481 0
M  V30 8958 H 846.153 -3.53665 -4.19777 0
M  V30 8959 H 846.414 -1.80726 -4.03473 0
M  V30 8960 N 845.473 0.80434 -1.35529 0
M  V30 8961 C 846.884 1.37849 -1.25915 0
M  V30 8962 C 847.235 1.95905 0.107495 0
M  V30 8963 O 846.36 1.91462 1.00852 0
M  V30 8964 C 846.955 2.50608 -2.27994 0
M  V30 8965 C 845.514 3.03879 -2.22114 0
M  V30 8966 C 844.661 1.76856 -2.13582 0
M  V30 8967 H 847.612 0.607192 -1.46625 0
M  V30 8968 H 847.633 3.29221 -1.90772 0
M  V30 8969 H 847.145 2.08323 -3.27449 0
M  V30 8970 H 845.246 3.50622 -1.26077 0
M  V30 8971 H 845.359 3.61707 -3.14173 0
M  V30 8972 H 843.723 1.98498 -1.59595 0
M  V30 8973 H 844.506 1.36721 -3.14901 0
M  V30 8974 N 846.951 1.19563 1.02676 0
M  V30 8975 C 848.181 1.0234 1.79472 0
M  V30 8976 C 848.589 -0.430891 1.84228 0
M  V30 8977 O 847.932 -1.31106 1.28674 0
M  V30 8978 C 847.994 1.51901 3.25832 0
M  V30 8979 C 847.658 3.00045 3.44706 0
M  V30 8980 C 848.655 3.9779 3.34752 0
M  V30 8981 C 846.34 3.38784 3.70851 0
M  V30 8982 C 848.334 5.32267 3.50672 0
M  V30 8983 C 846.021 4.73419 3.86416 0
M  V30 8984 C 847.019 5.69969 3.7633 0
M  V30 8985 O 846.707 7.02165 3.91432 0
M  V30 8986 H 846.439 0.360936 0.571578 0
M  V30 8987 H 848.993 1.58863 1.30198 0
M  V30 8988 H 847.223 0.897546 3.7614 0
M  V30 8989 H 848.912 1.30853 3.84229 0
M  V30 8990 H 849.678 3.69207 3.14502 0
M  V30 8991 H 845.557 2.64183 3.77794 0
M  V30 8992 H 849.101 6.07612 3.42715 0
M  V30 8993 H 844.998 5.01697 4.06165 0
M  V30 8994 H 845.766 7.09268 4.08511 0
M  V30 8995 N 848.429 -1.21819 0.999893 0
M  V30 8996 C 849.376 -2.24003 0.556005 0
M  V30 8997 C 850.346 -1.60825 -0.415287 0
M  V30 8998 O 851.531 -1.88123 -0.318481 0
M  V30 8999 C 848.671 -3.44904 -0.116289 0
M  V30 9000 C 847.784 -4.22573 0.897574 0
M  V30 9001 C 846.919 -5.30831 0.198073 0
M  V30 9002 C 845.958 -6.00225 1.19983 0
M  V30 9003 N 845.095 -7.00111 0.528157 0
M  V30 9004 H 849.935 -2.61334 1.43208 0
M  V30 9005 H 847.472 -1.28431 0.717205 0
M  V30 9006 H 849.43 -4.13908 -0.523055 0
M  V30 9007 H 848.06 -3.08315 -0.956108 0
M  V30 9008 H 847.112 -3.52797 1.42262 0
M  V30 9009 H 848.424 -4.70363 1.66013 0
M  V30 9010 H 847.578 -6.06121 -0.265065 0
M  V30 9011 H 846.317 -4.84033 -0.596924 0
M  V30 9012 H 845.322 -5.23711 1.67353 0
M  V30 9013 H 846.547 -6.4911 1.99582 0
M  V30 9014 H 844.493 -6.55534 -0.247276 0
M  V30 9015 H 844.41 -7.45943 1.22904 0
M  V30 9016 H 845.678 -7.7945 0.0880543 0
M  V30 9017 N 849.908 -0.773975 -1.37286 0
M  V30 9018 C 851.136 -0.350758 -2.03905 0
M  V30 9019 C 851.551 1.02779 -1.58373 0
M  V30 9020 O 850.908 1.65646 -0.766009 0
M  V30 9021 C 850.959 -0.387335 -3.59419 0
M  V30 9022 O 850.68 -1.7115 -4.03286 0
M  V30 9023 C 852.181 0.047198 -4.43275 0
M  V30 9024 H 849.401 -0.146663 -0.654775 0
M  V30 9025 H 851.945 -1.04852 -1.75574 0
M  V30 9026 H 850.1 0.261865 -3.86514 0
M  V30 9027 H 850.514 -1.65166 -4.97816 0
M  V30 9028 H 851.988 -0.0295474 -5.51992 0
M  V30 9029 H 852.465 1.09786 -4.25257 0
M  V30 9030 H 853.071 -0.573899 -4.2141 0
M  V30 9031 N 851.386 1.48609 -0.524698 0
M  V30 9032 C 852.635 2.01696 0.0132937 0
M  V30 9033 C 852.948 1.40751 1.35825 0
M  V30 9034 O 854.154 1.85304 1.9843 0
M  V30 9035 C 852.61 3.59824 0.0741012 0
M  V30 9036 C 852.218 4.2975 -1.26564 0
M  V30 9037 C 853.962 4.20774 0.5612 0
M  V30 9038 C 851.869 5.79798 -1.16571 0
M  V30 9039 H 850.799 0.753949 0.00873931 0
M  V30 9040 H 853.45 1.70922 -0.667684 0
M  V30 9041 H 851.832 3.87416 0.820043 0
M  V30 9042 H 853.006 4.13836 -2.02674 0
M  V30 9043 H 851.321 3.80649 -1.68806 0
M  V30 9044 H 853.918 5.30687 0.653853 0
M  V30 9045 H 854.261 3.85734 1.56573 0
M  V30 9046 H 854.794 3.97591 -0.128901 0
M  V30 9047 H 851.533 6.19403 -2.14523 0
M  V30 9048 H 851.053 5.9814 -0.445894 0
M  V30 9049 H 852.732 6.41337 -0.854186 0
M  V30 9050 N 852.864 0.259585 1.55447 0
M  V30 9051 C 853.774 -0.645026 2.25558 0
M  V30 9052 C 854.79 -1.18291 1.27606 0
M  V30 9053 O 855.966 -1.21649 1.6051 0
M  V30 9054 C 853.031 -1.81964 2.9511 0
M  V30 9055 C 852.092 -1.31997 4.08504 0
M  V30 9056 C 851.325 -2.43861 4.74729 0
M  V30 9057 O 851.548 -3.62876 4.40088 0
M  V30 9058 O 850.482 -2.12898 5.6299 0
M  V30 9059 H 854.308 -0.0775399 3.03601 0
M  V30 9060 H 851.893 0.0275859 1.49375 0
M  V30 9061 H 853.775 -2.50485 3.38873 0
M  V30 9062 H 852.45 -2.37451 2.19997 0
M  V30 9063 H 851.357 -0.601676 3.6923 0
M  V30 9064 H 852.69 -0.811045 4.85472 0
M  V30 9065 N 854.342 -1.57594 -0.0133615 0
M  V30 9066 C 855.59 -1.89605 -0.699596 0
M  V30 9067 C 855.911 -0.85926 -1.75048 0
M  V30 9068 O 855.181 0.105112 -1.95618 0
M  V30 9069 H 853.761 -0.699776 -0.261385 0
M  V30 9070 H 856.423 -1.94885 0.0244044 0
M  V30 9071 H 855.519 -2.88962 -1.17928 0
M  V30 9072 N 855.82 0.285905 -1.54985 0
M  V30 9073 C 857.048 1.03776 -1.78992 0
M  V30 9074 C 857.463 1.80402 -0.556814 0
M  V30 9075 O 856.82 1.76242 0.473801 0
M  V30 9076 C 856.871 2.0065 -3.00702 0
M  V30 9077 O 856.592 1.27131 -4.19249 0
M  V30 9078 C 858.093 2.87753 -3.37214 0
M  V30 9079 H 855.313 0.307126 -0.596586 0
M  V30 9080 H 857.857 0.3206 -2.01971 0
M  V30 9081 H 856.012 2.67847 -2.79887 0
M  V30 9082 H 856.426 1.92316 -4.8797 0
M  V30 9083 H 857.9 3.51548 -4.2558 0
M  V30 9084 H 858.377 3.56848 -2.56039 0
M  V30 9085 H 858.983 2.26065 -3.60242 0
M  V30 9086 N 857.298 1.47698 0.54982 0
M  V30 9087 C 858.261 1.60282 1.63837 0
M  V30 9088 C 859.261 0.477394 1.5355 0
M  V30 9089 O 860.451 0.742665 1.57576 0
M  V30 9090 C 857.583 1.55431 3.03404 0
M  V30 9091 H 858.776 2.57325 1.54026 0
M  V30 9092 H 856.329 1.35999 0.770329 0
M  V30 9093 H 857.064 0.597912 3.1874 0
M  V30 9094 H 856.849 2.37116 3.12279 0
M  V30 9095 H 858.339 1.6739 3.82584 0
M  V30 9096 N 858.776 -0.797141 1.35954 0
M  V30 9097 C 860.192 -1.09408 1.16198 0
M  V30 9098 C 860.392 -2.01491 -0.0191682 0
M  V30 9099 O 859.448 -2.42977 -0.686902 0
M  V30 9100 C 860.761 -1.71597 2.46931 0
M  V30 9101 C 862.309 -1.83974 2.53224 0
M  V30 9102 C 862.784 -2.49579 3.84024 0
M  V30 9103 N 864.275 -2.57055 3.85327 0
M  V30 9104 C 865.01 -3.08608 4.83268 0
M  V30 9105 N 864.506 -3.60527 5.91601 0
M  V30 9106 N 866.299 -3.07249 4.70696 0
M  V30 9107 H 858.45 -0.185209 2.11591 0
M  V30 9108 H 860.713 -0.144768 0.936881 0
M  V30 9109 H 860.419 -1.11404 3.3359 0
M  V30 9110 H 860.293 -2.71193 2.62172 0
M  V30 9111 H 862.68 -2.43308 1.66988 0
M  V30 9112 H 862.761 -0.83207 2.41889 0
M  V30 9113 H 862.405 -1.90892 4.70662 0
M  V30 9114 H 862.335 -3.50902 3.92651 0
M  V30 9115 H 864.826 -2.20283 3.07057 0
M  V30 9116 H 865.139 -3.98192 6.62317 0
M  V30 9117 H 863.484 -3.587 5.95281 0
M  V30 9118 H 866.675 -2.65972 3.85197 0
M  V30 9119 H 866.848 -3.47119 5.47186 0
M  V30 9120 N 860.254 -1.20106 -1.0204 0
M  V30 9121 C 861.502 -1.0069 -1.75231 0
M  V30 9122 C 861.823 0.462491 -1.89436 0
M  V30 9123 O 861.093 1.33455 -1.4341 0
M  V30 9124 H 859.673 -0.369576 -0.649171 0
M  V30 9125 H 862.335 -1.51149 -1.23044 0
M  V30 9126 H 861.431 -1.46205 -2.75736 0
M  V30 9127 N 861.732 1.21287 -1.00634 0
M  V30 9128 C 862.98 1.90013 -0.688438 0
M  V30 9129 C 863.301 1.78573 0.783365 0
M  V30 9130 O 862.571 1.1815 1.56261 0
M  V30 9131 H 861.151 0.703336 -0.251648 0
M  V30 9132 H 863.813 1.47346 -1.27574 0
M  V30 9133 H 862.909 2.96879 -0.962781 0
M  V30 9134 N 863.21 0.781244 1.36873 0
M  V30 9135 C 864.458 0.349198 1.9906 0
M  V30 9136 C 864.779 -1.0806 1.62321 0
M  V30 9137 O 864.049 -1.74351 0.893229 0
M  V30 9138 H 862.629 0.126126 0.736275 0
M  V30 9139 H 865.291 1.00148 1.67202 0
M  V30 9140 H 864.387 0.434451 3.09061 0
M  V30 9141 N 864.689 -1.48329 0.532571 0
M  V30 9142 C 865.599 -2.33445 -0.232546 0
M  V30 9143 C 866.615 -1.46651 -0.93645 0
M  V30 9144 O 867.791 -1.79627 -0.910834 0
M  V30 9145 C 864.856 -3.22824 -1.26434 0
M  V30 9146 C 863.917 -4.25492 -0.570511 0
M  V30 9147 C 863.15 -5.10601 -1.55315 0
M  V30 9148 O 863.373 -4.97733 -2.78599 0
M  V30 9149 O 862.307 -5.91927 -1.09112 0
M  V30 9150 H 866.133 -3.00119 0.464988 0
M  V30 9151 H 863.718 -1.46489 0.293462 0
M  V30 9152 H 865.6 -3.78103 -1.86055 0
M  V30 9153 H 864.275 -2.58807 -1.94424 0
M  V30 9154 H 863.182 -3.74041 0.0662587 0
M  V30 9155 H 864.515 -4.92154 0.0674904 0
M  V30 9156 N 866.167 -0.267825 -1.55308 0
M  V30 9157 C 867.444 0.402449 -1.91415 0
M  V30 9158 C 867.824 1.7428 -1.1912 0
M  V30 9159 O 867.172 2.2631 -0.315609 0
M  V30 9160 C 867.382 0.549926 -3.4464 0
M  V30 9161 C 868.73 0.836188 -4.16285 0
M  V30 9162 O 869.754 0.635009 -3.50494 0
M  V30 9163 O 868.613 1.22051 -5.32697 0
M  V30 9164 H 865.707 0.219177 -0.797427 0
M  V30 9165 H 868.253 -0.313439 -1.6678 0
M  V30 9166 H 867.025 -0.393641 -3.89315 0
M  V30 9167 H 866.648 1.31556 -3.75205 0
M  V30 9168 N 867.645 1.57599 0.00500368 0
M  V30 9169 C 868.892 1.90349 0.690895 0
M  V30 9170 C 869.22 0.868045 1.74055 0
M  V30 9171 O 868.475 -0.127855 1.95282 0
M  V30 9172 C 868.774 3.29855 1.37588 0
M  V30 9173 C 868.44 4.48548 0.459906 0
M  V30 9174 C 867.102 4.80752 0.207693 0
M  V30 9175 C 869.454 5.20919 -0.171054 0
M  V30 9176 C 866.782 5.82701 -0.683855 0
M  V30 9177 C 869.134 6.23818 -1.05045 0
M  V30 9178 C 867.798 6.54481 -1.31189 0
M  V30 9179 H 867.068 0.696538 0.252816 0
M  V30 9180 H 869.715 1.91436 -0.0494495 0
M  V30 9181 H 868.02 3.24869 2.19015 0
M  V30 9182 H 869.717 3.52452 1.91255 0
M  V30 9183 H 866.307 4.23384 0.666648 0
M  V30 9184 H 870.491 4.96299 0.0107942 0
M  V30 9185 H 865.747 6.04822 -0.894467 0
M  V30 9186 H 869.921 6.79029 -1.54574 0
M  V30 9187 H 867.548 7.33299 -2.00442 0
M  V30 9188 N 869.123 -0.277682 1.55134 0
M  V30 9189 C 870.033 -1.36524 1.90783 0
M  V30 9190 C 871.049 -1.54283 0.804542 0
M  V30 9191 O 872.225 -1.68499 1.10318 0
M  V30 9192 C 869.29 -2.70524 2.16835 0
M  V30 9193 C 868.351 -2.61552 3.40424 0
M  V30 9194 C 867.584 -3.89162 3.65224 0
M  V30 9195 O 867.807 -4.89624 2.92616 0
M  V30 9196 O 866.741 -3.89647 4.58758 0
M  V30 9197 H 870.567 -1.0929 2.83354 0
M  V30 9198 H 868.152 -0.475799 1.41621 0
M  V30 9199 H 870.034 -3.49765 2.35038 0
M  V30 9200 H 868.709 -2.97555 1.27448 0
M  V30 9201 H 867.616 -1.80704 3.27562 0
M  V30 9202 H 868.949 -2.39472 4.30016 0
M  V30 9203 N 870.601 -1.47988 -0.541979 0
M  V30 9204 C 871.878 -1.45878 -1.30303 0
M  V30 9205 C 872.258 -0.163931 -2.10463 0
M  V30 9206 O 871.606 0.854479 -2.11922 0
M  V30 9207 C 871.816 -2.71359 -2.19466 0
M  V30 9208 C 873.164 -3.19199 -2.79995 0
M  V30 9209 O 874.188 -2.72193 -2.2976 0
M  V30 9210 O 873.047 -4.00961 -3.71339 0
M  V30 9211 H 870.141 -0.582043 -0.587498 0
M  V30 9212 H 872.687 -1.60207 -0.559623 0
M  V30 9213 H 871.459 -3.57122 -1.59936 0
M  V30 9214 H 871.082 -2.59692 -3.01075 0
M  V30 9215 N 872.079 0.78992 -1.36375 0
M  V30 9216 C 873.307 1.57873 -1.3373 0
M  V30 9217 C 873.722 1.88624 0.0815544 0
M  V30 9218 O 873.079 1.50085 1.03831 0
M  V30 9219 C 873.13 2.90003 -2.15825 0
M  V30 9220 O 872.851 2.60578 -3.5218 0
M  V30 9221 C 874.352 3.84309 -2.20955 0
M  V30 9222 H 871.572 0.489685 -0.458748 0
M  V30 9223 H 874.116 0.980436 -1.79465 0
M  V30 9224 H 872.271 3.46303 -1.73646 0
M  V30 9225 H 872.685 3.4506 -3.95011 0
M  V30 9226 H 874.159 4.74081 -2.82756 0
M  V30 9227 H 874.636 4.22121 -1.21287 0
M  V30 9228 H 875.242 3.33942 -2.63368 0
M  V30 9229 N 873.557 1.20646 1.01402 0
M  V30 9230 C 874.797 1.02951 1.7658 0
M  V30 9231 C 875.161 -0.430522 1.87111 0
M  V30 9232 O 876.362 -0.727727 2.58762 0
M  V30 9233 C 874.633 1.69728 3.14527 0
M  V30 9234 S 876.192 1.6717 4.05709 0
M  V30 9235 H 873.01 0.36911 0.607683 0
M  V30 9236 H 875.612 1.53243 1.21395 0
M  V30 9237 H 874.316 2.75162 3.0449 0
M  V30 9238 H 873.847 1.19578 3.74786 0
M  V30 9239 H 875.862 0.706397 4.91146 0
M  V30 9240 N 875.035 -1.20752 1.01276 0
M  V30 9241 C 876.283 -1.89645 0.698505 0
M  V30 9242 C 876.604 -1.78986 -0.773883 0
M  V30 9243 O 875.874 -1.18977 -1.55632 0
M  V30 9244 H 874.454 -0.701992 0.255375 0
M  V30 9245 H 877.116 -1.46668 1.28353 0
M  V30 9246 H 876.212 -2.96364 0.978512 0
M  V30 9247 N 876.513 -0.788492 -1.36457 0
M  V30 9248 C 877.423 -0.187385 -2.3385 0
M  V30 9249 C 878.439 0.659984 -1.60998 0
M  V30 9250 O 879.615 0.575986 -1.92988 0
M  V30 9251 C 876.68 0.668525 -3.40194 0
M  V30 9252 C 875.741 -0.197234 -4.28847 0
M  V30 9253 C 874.974 0.61792 -5.30111 0
M  V30 9254 O 875.197 1.85396 -5.3943 0
M  V30 9255 O 874.131 0.0183016 -6.01897 0
M  V30 9256 H 877.957 -0.992617 -2.87021 0
M  V30 9257 H 875.542 -0.549934 -1.3891 0
M  V30 9258 H 877.424 1.15663 -4.05216 0
M  V30 9259 H 876.099 1.45166 -2.89324 0
M  V30 9260 H 875.006 -0.73207 -3.66867 0
M  V30 9261 H 876.339 -0.943863 -4.83065 0
M  V30 9262 N 877.991 1.48044 -0.54043 0
M  V30 9263 C 878.921 2.32597 0.205178 0
M  V30 9264 C 879.902 1.42748 0.925041 0
M  V30 9265 O 881.087 1.71624 0.908784 0
M  V30 9266 C 878.217 3.24175 1.24612 0
M  V30 9267 C 877.171 4.23131 0.64376 0
M  V30 9268 C 876.497 5.03915 1.78812 0
M  V30 9269 C 877.797 5.20831 -0.39144 0
M  V30 9270 H 879.491 2.95184 -0.500676 0
M  V30 9271 H 877.037 1.41948 -0.242225 0
M  V30 9272 H 878.99 3.82158 1.77576 0
M  V30 9273 H 877.714 2.59608 1.98169 0
M  V30 9274 H 876.373 3.66349 0.135554 0
M  V30 9275 H 876.021 4.35765 2.51232 0
M  V30 9276 H 875.721 5.709 1.39094 0
M  V30 9277 H 877.245 5.64753 2.32134 0
M  V30 9278 H 878.659 5.73277 0.0515064 0
M  V30 9279 H 877.056 5.95926 -0.706569 0
M  V30 9280 H 878.126 4.6733 -1.29345 0
M  V30 9281 N 879.47 0.276058 1.55163 0
M  V30 9282 C 880.38 -0.621066 2.2623 0
M  V30 9283 C 881.396 -1.16931 1.28853 0
M  V30 9284 O 882.572 -1.1994 1.61791 0
M  V30 9285 C 879.637 -1.78824 2.97023 0
M  V30 9286 C 878.698 -1.27657 4.09881 0
M  V30 9287 C 877.931 -2.38812 4.77289 0
M  V30 9288 O 878.154 -3.58188 4.43912 0
M  V30 9289 O 877.088 -2.06915 5.65217 0
M  V30 9290 H 880.914 -0.0453346 3.03666 0
M  V30 9291 H 878.499 0.0434275 1.49337 0
M  V30 9292 H 880.381 -2.46877 3.41511 0
M  V30 9293 H 879.056 -2.35104 2.22503 0
M  V30 9294 H 877.963 -0.56248 3.69847 0
M  V30 9295 H 879.296 -0.759509 4.86305 0
M  V30 9296 N 880.948 -1.576 0.00335426 0
M  V30 9297 C 882.195 -1.90713 -0.680791 0
M  V30 9298 C 882.523 -0.877263 -1.73592 0
M  V30 9299 O 881.778 0.117497 -1.95347 0
M  V30 9300 C 882.077 -3.3058 -1.35837 0
M  V30 9301 C 881.743 -4.48786 -0.436111 0
M  V30 9302 C 880.405 -4.80855 -0.182195 0
M  V30 9303 C 882.757 -5.20821 0.198677 0
M  V30 9304 C 880.085 -5.8233 0.714747 0
M  V30 9305 C 882.437 -6.23252 1.08351 0
M  V30 9306 C 881.101 -6.53776 1.34658 0
M  V30 9307 H 880.371 -0.697869 -0.249119 0
M  V30 9308 H 883.018 -1.91407 0.0596011 0
M  V30 9309 H 881.323 -3.26026 -2.17289 0
M  V30 9310 H 883.02 -3.53462 -1.89383 0
M  V30 9311 H 879.61 -4.23731 -0.644186 0
M  V30 9312 H 883.794 -4.96298 0.0155259 0
M  V30 9313 H 879.05 -6.04339 0.926529 0
M  V30 9314 H 883.224 -6.78199 1.58172 0
M  V30 9315 H 880.851 -7.32225 2.04328 0
M  V30 9316 N 882.426 0.269451 -1.5528 0
M  V30 9317 C 883.358 1.35553 -1.84819 0
M  V30 9318 C 884.371 1.45369 -0.732914 0
M  V30 9319 O 885.56 1.47122 -1.0108 0
M  V30 9320 C 882.66 2.73645 -1.9993 0
M  V30 9321 C 881.833 2.86376 -3.30617 0
M  V30 9322 C 880.892 4.05165 -3.35749 0
M  V30 9323 O 879.918 3.95756 -4.09104 0
M  V30 9324 N 881.12 5.17297 -2.63408 0
M  V30 9325 H 883.885 1.10557 -2.78563 0
M  V30 9326 H 881.446 0.459566 -1.5524 0
M  V30 9327 H 883.438 3.51411 -2.00729 0
M  V30 9328 H 882.008 2.91448 -1.13035 0
M  V30 9329 H 881.228 1.95465 -3.42326 0
M  V30 9330 H 882.516 2.91815 -4.16799 0
M  V30 9331 H 881.914 5.2783 -2.03501 0
M  V30 9332 H 880.471 5.93281 -2.69927 0
M  V30 9333 N 883.904 1.48273 0.534124 0
M  V30 9334 C 884.852 1.62926 1.66005 0
M  V30 9335 C 885.846 0.495814 1.61982 0
M  V30 9336 O 887.052 0.6744 1.66889 0
M  V30 9337 H 883.427 0.513163 0.549698 0
M  V30 9338 H 885.398 2.57498 1.50789 0
M  V30 9339 C 884.147 1.68231 3.04292 0
M  V30 9340 H 883.47 2.54807 3.0808 0
M  V30 9341 H 884.91 1.82528 3.827 0
M  V30 9342 C 883.369 0.420154 3.3427 0
M  V30 9343 O 883.899 -0.468769 3.98955 0
M  V30 9344 N 882.105 0.293115 2.89118 0
M  V30 9345 H 881.652 1.01745 2.36655 0
M  V30 9346 H 881.61 -0.550376 3.09545 0
M  V30 9347 N 885.382 -0.782676 1.36792 0
M  V30 9348 C 886.659 -1.52939 1.21939 0
M  V30 9349 C 887.039 -2.10228 -0.191639 0
M  V30 9350 O 886.387 -1.94574 -1.19805 0
M  V30 9351 C 886.597 -2.61898 2.30674 0
M  V30 9352 C 887.945 -3.29598 2.67676 0
M  V30 9353 O 888.969 -2.72186 2.29768 0
M  V30 9354 O 887.828 -4.3337 3.32946 0
M  V30 9355 H 884.922 -0.676856 0.47518 0
M  V30 9356 H 887.468 -0.82058 1.48542 0
M  V30 9357 H 886.24 -2.17607 3.25212 0
M  V30 9358 H 885.863 -3.40391 2.05475 0
M  V30 9359 N 886.86 -1.21182 -1.00761 0
M  V30 9360 C 887.77 -0.984691 -2.12934 0
M  V30 9361 C 888.786 0.0623657 -1.73888 0
M  V30 9362 O 889.962 -0.1271 -2.00999 0
M  V30 9363 C 887.027 -0.549447 -3.42319 0
M  V30 9364 C 886.088 -1.66841 -3.95553 0
M  V30 9365 C 885.321 -1.25384 -5.18763 0
M  V30 9366 O 885.544 -0.126333 -5.7026 0
M  V30 9367 O 884.478 -2.06475 -5.65377 0
M  V30 9368 H 888.304 -1.92413 -2.3497 0
M  V30 9369 H 885.889 -0.99647 -1.11314 0
M  V30 9370 H 887.771 -0.316384 -4.20211 0
M  V30 9371 H 886.446 0.361304 -3.21677 0
M  V30 9372 H 885.353 -1.95585 -3.189 0
M  V30 9373 H 886.686 -2.55649 -4.206 0
M  V30 9374 N 888.338 1.20213 -1.01915 0
M  V30 9375 C 889.587 1.88968 -0.705261 0
M  V30 9376 C 889.9 1.79869 0.768531 0
M  V30 9377 O 891.106 2.43783 1.19508 0
M  V30 9378 C 889.562 3.38911 -1.21109 0
M  V30 9379 C 889.17 3.5659 -2.71197 0
M  V30 9380 C 890.914 4.13204 -0.97275 0
M  V30 9381 C 888.821 5.00372 -3.15248 0
M  V30 9382 H 887.751 0.707715 -0.260107 0
M  V30 9383 H 890.402 1.35977 -1.23217 0
M  V30 9384 H 888.784 3.9124 -0.612152 0
M  V30 9385 H 889.958 3.14635 -3.36662 0
M  V30 9386 H 888.273 2.95671 -2.93202 0
M  V30 9387 H 890.87 5.19221 -1.27726 0
M  V30 9388 H 891.213 4.16201 0.09072 0
M  V30 9389 H 891.746 3.66983 -1.5352 0
M  V30 9390 H 888.485 5.02532 -4.20882 0
M  V30 9391 H 888.005 5.43127 -2.54505 0
M  V30 9392 H 889.684 5.68969 -3.08032 0
M  V30 9393 N 889.816 0.795718 1.36037 0
M  V30 9394 C 891.062 0.371574 1.99367 0
M  V30 9395 C 891.395 -1.0557 1.62999 0
M  V30 9396 O 890.67 -1.73051 0.887895 0
M  V30 9397 C 890.953 0.542622 3.55988 0
M  V30 9398 C 890.806 2.01404 4.0219 0
M  V30 9399 C 892.125 -0.0384527 4.40083 0
M  V30 9400 H 889.244 0.136483 0.724252 0
M  V30 9401 H 891.886 1.00323 1.61355 0
M  V30 9402 H 890.036 0.0049053 3.885 0
M  V30 9403 H 891.708 2.6133 3.80137 0
M  V30 9404 H 889.951 2.51439 3.53498 0
M  V30 9405 H 890.622 2.08466 5.11122 0
M  V30 9406 H 893.098 0.420634 4.13968 0
M  V30 9407 H 891.974 0.111214 5.48787 0
M  V30 9408 H 892.235 -1.13116 4.27384 0
M  V30 9409 N 891.294 -1.47756 0.548274 0
M  V30 9410 C 892.241 -2.29893 -0.204408 0
M  V30 9411 C 893.211 -1.38509 -0.916761 0
M  V30 9412 O 894.396 -1.67472 -0.91421 0
M  V30 9413 C 891.536 -3.22282 -1.23403 0
M  V30 9414 C 890.649 -4.28753 -0.528654 0
M  V30 9415 C 889.784 -5.08303 -1.54279 0
M  V30 9416 C 888.823 -6.06557 -0.821893 0
M  V30 9417 N 887.96 -6.79098 -1.78243 0
M  V30 9418 H 892.8 -2.93739 0.502163 0
M  V30 9419 H 890.337 -1.44793 0.259471 0
M  V30 9420 H 892.295 -3.74262 -1.84348 0
M  V30 9421 H 890.925 -2.6032 -1.90875 0
M  V30 9422 H 889.977 -3.79899 0.195132 0
M  V30 9423 H 891.289 -4.98787 0.0365066 0
M  V30 9424 H 890.443 -5.64388 -2.22602 0
M  V30 9425 H 889.182 -4.3815 -2.14186 0
M  V30 9426 H 888.187 -5.49659 -0.12469 0
M  V30 9427 H 889.412 -6.78715 -0.228685 0
M  V30 9428 H 887.358 -6.11682 -2.37025 0
M  V30 9429 H 887.275 -7.4527 -1.26919 0
M  V30 9430 H 888.543 -7.39762 -2.45709 0
M  V30 9431 N 892.772 -0.284283 -1.55015 0
M  V30 9432 C 894 0.332948 -2.04203 0
M  V30 9433 C 894.415 1.48783 -1.16229 0
M  V30 9434 O 893.772 1.81567 -0.184323 0
M  V30 9435 C 893.823 0.805207 -3.52418 0
M  V30 9436 O 893.544 -0.303689 -4.37046 0
M  V30 9437 C 895.045 1.48931 -4.17534 0
M  V30 9438 H 892.265 0.0747447 -0.666824 0
M  V30 9439 H 894.809 -0.419048 -2.00161 0
M  V30 9440 H 892.964 1.50727 -3.56876 0
M  V30 9441 H 893.378 0.0609703 -5.24465 0
M  V30 9442 H 894.852 1.77108 -5.22816 0
M  V30 9443 H 895.329 2.42389 -3.66257 0
M  V30 9444 H 895.935 0.830867 -4.17105 0
M  V30 9445 N 894.251 1.57596 -0.0117121 0
M  V30 9446 C 895.5 1.9025 0.669921 0
M  V30 9447 C 895.813 0.887986 1.74282 0
M  V30 9448 O 897.019 1.10516 2.47989 0
M  V30 9449 C 895.475 3.37762 1.24277 0
M  V30 9450 C 895.083 4.47535 0.204076 0
M  V30 9451 C 896.827 3.79509 1.90192 0
M  V30 9452 C 894.734 5.86132 0.787577 0
M  V30 9453 H 893.664 0.709935 0.253984 0
M  V30 9454 H 896.315 1.8335 -0.0741718 0
M  V30 9455 H 894.697 3.39537 2.03791 0
M  V30 9456 H 895.871 4.57294 -0.56733 0
M  V30 9457 H 894.186 4.14881 -0.355305 0
M  V30 9458 H 896.783 4.80402 2.34773 0
M  V30 9459 H 897.126 3.13643 2.7374 0
M  V30 9460 H 897.659 3.80084 1.17394 0
M  V30 9461 H 894.398 6.55499 -0.00938418 0
M  V30 9462 H 893.918 5.80014 1.52787 0
M  V30 9463 H 895.597 6.34158 1.28265 0
M  V30 9464 N 895.729 -0.261212 1.5542 0
M  V30 9465 C 896.954 -1.01341 1.80955 0
M  V30 9466 C 897.379 -1.78711 0.586849 0
M  V30 9467 O 896.737 -1.75266 -0.463837 0
M  V30 9468 C 896.785 -1.93835 3.04073 0
M  V30 9469 O 895.889 -3.02791 2.79985 0
M  V30 9470 H 895.23 -0.289123 0.597749 0
M  V30 9471 H 897.76 -0.286543 2.02584 0
M  V30 9472 H 897.77 -2.3557 3.33123 0
M  V30 9473 H 896.445 -1.36936 3.9271 0
M  V30 9474 H 895.022 -2.65287 2.62063 0
M  V30 9475 N 897.207 -1.48554 -0.526253 0
M  V30 9476 C 898.453 -1.56994 -1.28378 0
M  V30 9477 C 898.786 -0.244701 -1.92652 0
M  V30 9478 O 898.061 0.749636 -1.79473 0
M  V30 9479 C 898.344 -2.71092 -2.37026 0
M  V30 9480 C 898.197 -4.13331 -1.77418 0
M  V30 9481 C 899.516 -2.80934 -3.38769 0
M  V30 9482 H 896.635 -0.571466 -0.465398 0
M  V30 9483 H 899.277 -1.80742 -0.585861 0
M  V30 9484 H 897.427 -2.50973 -2.96555 0
M  V30 9485 H 899.099 -4.44899 -1.21912 0
M  V30 9486 H 897.342 -4.20158 -1.07936 0
M  V30 9487 H 898.013 -4.88994 -2.56104 0
M  V30 9488 H 900.489 -2.9917 -2.892 0
M  V30 9489 H 899.365 -3.62489 -4.12181 0
M  V30 9490 H 899.626 -1.89244 -3.99549 0
M  V30 9491 N 898.685 0.775411 -1.37205 0
M  V30 9492 C 899.632 1.88857 -1.32671 0
M  V30 9493 C 900.602 1.64976 -0.192899 0
M  V30 9494 O 901.787 1.86944 -0.381673 0
M  V30 9495 C 898.927 3.25871 -1.13588 0
M  V30 9496 C 898.04 3.61731 -2.36167 0
M  V30 9497 C 897.175 4.87934 -2.09985 0
M  V30 9498 C 896.214 5.16514 -3.2845 0
M  V30 9499 N 895.351 6.33905 -3.01842 0
M  V30 9500 H 900.191 1.92068 -2.27846 0
M  V30 9501 H 897.728 0.939066 -1.13225 0
M  V30 9502 H 899.686 4.04903 -1.00546 0
M  V30 9503 H 898.316 3.22045 -0.220613 0
M  V30 9504 H 897.368 2.77712 -2.59962 0
M  V30 9505 H 898.68 3.78792 -3.24528 0
M  V30 9506 H 897.834 5.74863 -1.93953 0
M  V30 9507 H 896.573 4.7297 -1.18956 0
M  V30 9508 H 895.578 4.28063 -3.45025 0
M  V30 9509 H 896.803 5.33389 -4.20325 0
M  V30 9510 H 894.749 6.20306 -2.13439 0
M  V30 9511 H 894.666 6.51364 -3.83746 0
M  V30 9512 H 895.934 7.23779 -2.8942 0
M  V30 9513 N 900.163 1.21714 1.00117 0
M  V30 9514 C 901.409 1.03823 1.74208 0
M  V30 9515 C 901.742 -0.426733 1.89454 0
M  V30 9516 O 901.017 -1.31658 1.43166 0
M  V30 9517 C 901.3 1.74047 3.15246 0
M  V30 9518 C 901.153 3.28087 3.077 0
M  V30 9519 C 902.472 1.48614 4.14249 0
M  V30 9520 H 899.591 0.378573 0.632338 0
M  V30 9521 H 902.233 1.49942 1.16694 0
M  V30 9522 H 900.383 1.3484 3.64349 0
M  V30 9523 H 902.055 3.76686 2.6628 0
M  V30 9524 H 900.298 3.58191 2.44707 0
M  V30 9525 H 900.969 3.72392 4.07466 0
M  V30 9526 H 903.445 1.82656 3.73866 0
M  V30 9527 H 902.321 2.00257 5.11066 0
M  V30 9528 H 902.582 0.416957 4.40129 0
M  V30 9529 N 901.641 -1.19671 1.02551 0
M  V30 9530 C 902.89 -1.88591 0.715272 0
M  V30 9531 C 903.203 -1.80274 -0.758982 0
M  V30 9532 O 904.409 -2.44413 -1.18213 0
M  V30 9533 C 902.865 -3.38264 1.22905 0
M  V30 9534 C 902.473 -3.55146 2.73084 0
M  V30 9535 C 904.217 -4.12683 0.994649 0
M  V30 9536 C 902.124 -4.98693 3.17897 0
M  V30 9537 H 901.054 -0.706326 0.263857 0
M  V30 9538 H 903.705 -1.35322 1.23936 0
M  V30 9539 H 902.087 -3.9091 0.632892 0
M  V30 9540 H 903.261 -3.12845 3.38326 0
M  V30 9541 H 901.576 -2.94112 2.94766 0
M  V30 9542 H 904.173 -5.18536 1.30478 0
M  V30 9543 H 904.516 -4.16243 -0.0686466 0
M  V30 9544 H 905.049 -3.66164 1.55464 0
M  V30 9545 H 901.788 -5.00293 4.23542 0
M  V30 9546 H 901.308 -5.4177 2.57381 0
M  V30 9547 H 902.987 -5.67327 3.11045 0
M  V30 9548 N 903.119 -0.802921 -1.35613 0
M  V30 9549 C 904.396 -0.304993 -1.93208 0
M  V30 9550 C 904.776 1.20488 -1.73337 0
M  V30 9551 O 904.124 2.00268 -1.10022 0
M  V30 9552 C 904.334 -0.712383 -3.41652 0
M  V30 9553 C 905.682 -0.699785 -4.18794 0
M  V30 9554 O 906.706 -0.653698 -3.5015 0
M  V30 9555 O 905.565 -0.754842 -5.41262 0
M  V30 9556 H 902.659 -0.0789127 -0.823226 0
M  V30 9557 H 905.205 -0.886372 -1.44712 0
M  V30 9558 H 903.977 -1.75316 -3.49829 0
M  V30 9559 H 903.6 -0.105614 -3.9746 0
M  V30 9560 N 904.597 1.47463 -0.556102 0
M  V30 9561 C 905.874 1.9557 0.0339892 0
M  V30 9562 C 906.254 1.49869 1.48669 0
M  V30 9563 O 905.602 0.737019 2.16288 0
M  V30 9564 C 905.812 3.48826 -0.110343 0
M  V30 9565 C 907.16 4.24585 0.0355716 0
M  V30 9566 O 908.184 3.5618 -0.0378356 0
M  V30 9567 O 907.043 5.46158 0.193299 0
M  V30 9568 H 904.137 0.824461 0.0647521 0
M  V30 9569 H 906.683 1.57868 -0.622547 0
M  V30 9570 H 905.455 3.74891 -1.12126 0
M  V30 9571 H 905.078 3.9329 0.583855 0
M  V30 9572 N 906.075 0.2925 1.54862 0
M  V30 9573 C 906.985 -0.597036 2.26876 0
M  V30 9574 C 908.001 -1.15558 1.30086 0
M  V30 9575 O 909.177 -1.18217 1.63054 0
M  V30 9576 C 906.242 -1.75664 2.98903 0
M  V30 9577 C 905.303 -1.23303 4.11212 0
M  V30 9578 C 904.536 -2.33736 4.79795 0
M  V30 9579 O 904.759 -3.53459 4.47686 0
M  V30 9580 O 903.693 -2.00908 5.67379 0
M  V30 9581 H 907.519 -0.0131242 3.03697 0
M  V30 9582 H 905.104 0.0592642 1.49282 0
M  V30 9583 H 906.986 -2.43241 3.4411 0
M  V30 9584 H 905.661 -2.32731 2.24984 0
M  V30 9585 H 904.568 -0.523222 3.70423 0
M  V30 9586 H 905.901 -0.707887 4.87083 0
M  V30 9587 N 907.553 -1.57587 0.0200696 0
M  V30 9588 C 908.463 -2.13119 -0.980676 0
M  V30 9589 C 909.479 -1.08124 -1.36328 0
M  V30 9590 O 910.655 -1.40134 -1.44653 0
M  V30 9591 C 907.72 -2.63991 -2.24743 0
M  V30 9592 C 906.781 -3.83667 -1.9261 0
M  V30 9593 C 906.014 -4.32103 -3.13246 0
M  V30 9594 O 906.237 -3.79758 -4.25606 0
M  V30 9595 O 905.171 -5.24047 -2.96072 0
M  V30 9596 H 908.997 -2.98887 -0.538528 0
M  V30 9597 H 906.582 -1.48055 -0.19999 0
M  V30 9598 H 908.464 -2.9682 -2.99125 0
M  V30 9599 H 907.139 -1.81311 -2.68157 0
M  V30 9600 H 906.046 -3.55778 -1.15641 0
M  V30 9601 H 907.379 -4.67482 -1.54019 0
M  V30 9602 N 909.032 0.252966 -1.55557 0
M  V30 9603 C 910.262 0.998115 -1.8089 0
M  V30 9604 C 910.67 1.79679 -0.592623 0
M  V30 9605 O 910.013 1.78151 0.448093 0
M  V30 9606 C 910.075 1.98878 -2.99479 0
M  V30 9607 C 909.739 1.37761 -4.35742 0
M  V30 9608 C 910.736 0.783142 -5.13968 0
M  V30 9609 C 908.421 1.39879 -4.8243 0
M  V30 9610 C 910.415 0.218004 -6.37027 0
M  V30 9611 C 908.102 0.829801 -6.0544 0
M  V30 9612 C 909.1 0.240426 -6.82577 0
M  V30 9613 O 908.788 -0.319797 -8.03264 0
M  V30 9614 H 908.52 0.29963 -0.605969 0
M  V30 9615 H 911.074 0.282978 -2.03441 0
M  V30 9616 H 909.304 2.74206 -2.72669 0
M  V30 9617 H 910.993 2.59686 -3.11959 0
M  V30 9618 H 911.759 0.759326 -4.79019 0
M  V30 9619 H 907.638 1.84692 -4.22386 0
M  V30 9620 H 911.182 -0.242654 -6.97178 0
M  V30 9621 H 907.079 0.850924 -6.39867 0
M  V30 9622 H 907.847 -0.211078 -8.18228 0
M  V30 9623 N 910.51 1.48831 0.518367 0
M  V30 9624 C 911.42 1.6692 1.64848 0
M  V30 9625 C 912.436 0.551711 1.65022 0
M  V30 9626 O 913.612 0.824251 1.83761 0
M  V30 9627 C 910.677 1.71559 3.01278 0
M  V30 9628 C 909.738 2.9502 3.11868 0
M  V30 9629 C 908.971 2.99428 4.4179 0
M  V30 9630 O 909.194 2.11914 5.29574 0
M  V30 9631 O 908.128 3.91719 4.5699 0
M  V30 9632 H 911.954 2.62623 1.52521 0
M  V30 9633 H 909.539 1.32368 0.692749 0
M  V30 9634 H 911.421 1.77064 3.82396 0
M  V30 9635 H 910.096 0.790316 3.13904 0
M  V30 9636 H 909.003 2.95042 2.30003 0
M  V30 9637 H 910.336 3.8697 3.04163 0
M  V30 9638 N 911.988 -0.768124 1.37614 0
M  V30 9639 C 912.935 -1.88151 1.33671 0
M  V30 9640 C 913.905 -1.64871 0.201645 0
M  V30 9641 O 915.09 -1.86739 0.391582 0
M  V30 9642 C 912.23 -3.25264 1.15314 0
M  V30 9643 C 911.343 -3.60473 2.38082 0
M  V30 9644 C 910.478 -4.86814 2.12569 0
M  V30 9645 C 909.517 -5.14765 3.31184 0
M  V30 9646 N 908.654 -6.32295 3.052 0
M  V30 9647 H 913.494 -1.90857 2.28862 0
M  V30 9648 H 911.031 -0.933048 1.13722 0
M  V30 9649 H 912.989 -4.04364 1.02691 0
M  V30 9650 H 911.619 -3.21924 0.237689 0
M  V30 9651 H 910.671 -2.7633 2.61431 0
M  V30 9652 H 911.983 -3.77065 3.26532 0
M  V30 9653 H 911.137 -5.73826 1.96999 0
M  V30 9654 H 909.876 -4.72333 1.21462 0
M  V30 9655 H 908.881 -4.26227 3.4729 0
M  V30 9656 H 910.106 -5.31153 4.23147 0
M  V30 9657 H 908.052 -6.19166 2.16726 0
M  V30 9658 H 907.969 -6.4932 3.87195 0
M  V30 9659 H 909.237 -7.22234 2.93254 0
M  V30 9660 N 913.466 -1.22244 -0.994698 0
M  V30 9661 C 914.414 -0.988118 -2.10568 0
M  V30 9662 C 915.408 0.0681541 -1.69263 0
M  V30 9663 O 916.614 -0.0841311 -1.79803 0
M  V30 9664 H 912.989 -0.302343 -0.688544 0
M  V30 9665 H 914.96 -1.93091 -2.27505 0
M  V30 9666 C 913.709 -0.580557 -3.42819 0
M  V30 9667 H 913.032 -1.385 -3.75044 0
M  V30 9668 H 914.472 -0.456004 -4.21541 0
M  V30 9669 C 912.931 0.709692 -3.2934 0
M  V30 9670 O 913.461 1.76259 -3.60965 0
M  V30 9671 N 911.667 0.680155 -2.82528 0
M  V30 9672 H 911.214 -0.176977 -2.56991 0
M  V30 9673 H 911.172 1.54372 -2.73892 0
M  V30 9674 N 914.944 1.19125 -1.03184 0
M  V30 9675 C 915.891 2.2245 -0.6152 0
M  V30 9676 C 916.861 1.61869 0.372502 0
M  V30 9677 O 918.046 1.88901 0.268491 0
M  V30 9678 C 915.186 3.45091 0.0248027 0
M  V30 9679 C 914.299 4.20044 -1.0093 0
M  V30 9680 C 913.434 5.30119 -0.338744 0
M  V30 9681 C 912.473 5.96833 -1.35855 0
M  V30 9682 N 911.61 6.98464 -0.713594 0
M  V30 9683 H 916.45 2.57445 -1.50086 0
M  V30 9684 H 913.987 1.26485 -0.751005 0
M  V30 9685 H 915.945 4.15149 0.413131 0
M  V30 9686 H 914.575 3.10742 0.874028 0
M  V30 9687 H 913.627 3.48901 -1.51566 0
M  V30 9688 H 914.939 4.65796 -1.78425 0
M  V30 9689 H 914.093 6.0661 0.104269 0
M  V30 9690 H 912.832 4.85446 0.468382 0
M  V30 9691 H 911.837 5.1909 -1.81179 0
M  V30 9692 H 913.062 6.4359 -2.16722 0
M  V30 9693 H 911.008 6.55959 0.0733863 0
M  V30 9694 H 910.925 7.42422 -1.42638 0
M  V30 9695 H 912.193 7.78943 -0.294681 0
M  V30 9696 N 916.422 0.810101 1.35185 0
M  V30 9697 C 917.65 0.404696 2.02903 0
M  V30 9698 C 918.065 -0.985434 1.61042 0
M  V30 9699 O 917.422 -1.63557 0.809658 0
M  V30 9700 C 917.473 0.482493 3.58266 0
M  V30 9701 O 917.194 1.81782 3.98606 0
M  V30 9702 C 918.695 0.070345 4.43244 0
M  V30 9703 H 915.915 0.163972 0.650657 0
M  V30 9704 H 918.459 1.0947 1.72733 0
M  V30 9705 H 916.614 -0.159296 3.87072 0
M  V30 9706 H 917.028 1.78306 4.93262 0
M  V30 9707 H 918.502 0.175888 5.5172 0
M  V30 9708 H 918.979 -0.984724 4.28018 0
M  V30 9709 H 919.585 0.685427 4.1974 0
M  V30 9710 N 917.9 -1.47166 0.563914 0
M  V30 9711 C 919.147 -2.02456 0.042371 0
M  V30 9712 C 919.475 -1.43753 -1.31016 0
M  V30 9713 O 918.73 -0.585287 -1.86743 0
M  V30 9714 C 919.029 -3.57279 -0.0931797 0
M  V30 9715 C 918.695 -4.34932 1.18933 0
M  V30 9716 C 917.357 -4.55867 1.54073 0
M  V30 9717 C 919.709 -4.79665 2.03889 0
M  V30 9718 C 917.037 -5.18785 2.74005 0
M  V30 9719 C 919.389 -5.43907 3.23029 0
M  V30 9720 C 918.053 -5.63074 3.58475 0
M  V30 9721 H 917.323 -0.740838 0.0155047 0
M  V30 9722 H 919.97 -1.76759 0.736776 0
M  V30 9723 H 918.275 -3.82005 -0.870596 0
M  V30 9724 H 919.972 -3.97716 -0.512176 0
M  V30 9725 H 916.562 -4.18921 0.905718 0
M  V30 9726 H 920.746 -4.63264 1.78046 0
M  V30 9727 H 916.002 -5.31818 3.01628 0
M  V30 9728 H 920.176 -5.77531 3.89141 0
M  V30 9729 H 917.803 -6.11598 4.515 0
M  V30 9730 N 919.378 -0.300708 -1.54705 0
M  V30 9731 C 920.625 0.308654 -2.00134 0
M  V30 9732 C 920.953 1.53918 -1.1891 0
M  V30 9733 O 920.208 1.94054 -0.253263 0
M  V30 9734 C 920.507 0.710108 -3.50275 0
M  V30 9735 C 920.173 -0.418651 -4.48952 0
M  V30 9736 C 918.835 -0.728524 -4.75653 0
M  V30 9737 C 921.187 -1.17797 -5.07714 0
M  V30 9738 C 918.515 -1.80085 -5.58378 0
M  V30 9739 C 920.867 -2.24022 -5.91606 0
M  V30 9740 C 919.531 -2.55616 -6.16617 0
M  V30 9741 H 918.801 0.112945 -0.732342 0
M  V30 9742 H 921.448 -0.419744 -1.86843 0
M  V30 9743 H 919.753 1.51859 -3.61173 0
M  V30 9744 H 921.45 1.19277 -3.8285 0
M  V30 9745 H 918.04 -0.167034 -4.28274 0
M  V30 9746 H 922.224 -0.951835 -4.87087 0
M  V30 9747 H 917.48 -2.05036 -5.75995 0
M  V30 9748 H 921.654 -2.83317 -6.36164 0
M  V30 9749 H 919.281 -3.38839 -6.80509 0
M  V30 9750 N 920.856 1.57574 -0.0284266 0
M  V30 9751 C 921.786 2.1321 0.952039 0
M  V30 9752 C 922.767 1.04806 1.33977 0
M  V30 9753 O 923.952 1.32635 1.41851 0
M  V30 9754 C 921.082 2.65862 2.23461 0
M  V30 9755 C 920.036 3.79047 1.98765 0
M  V30 9756 C 919.362 4.18124 3.33281 0
M  V30 9757 C 920.662 5.05151 1.32739 0
M  V30 9758 H 922.356 2.95385 0.488705 0
M  V30 9759 H 919.902 1.42092 0.233628 0
M  V30 9760 H 921.855 3.03417 2.92431 0
M  V30 9761 H 920.579 1.80848 2.71959 0
M  V30 9762 H 919.238 3.41929 1.32213 0
M  V30 9763 H 918.886 3.30092 3.79537 0
M  V30 9764 H 918.586 4.94396 3.17563 0
M  V30 9765 H 920.11 4.58262 4.0352 0
M  V30 9766 H 921.524 5.40297 1.91708 0
M  V30 9767 H 919.921 5.86416 1.27421 0
M  V30 9768 H 920.991 4.83969 0.300261 0
M  V30 9769 N 922.334 -0.244713 1.55689 0
M  V30 9770 C 923.244 -1.32447 1.93636 0
M  V30 9771 C 924.26 -1.52541 0.837086 0
M  V30 9772 O 925.436 -1.66121 1.13867 0
M  V30 9773 C 922.501 -2.65864 2.22525 0
M  V30 9774 C 921.562 -2.54273 3.45896 0
M  V30 9775 C 920.795 -3.81327 3.73397 0
M  V30 9776 O 921.018 -4.83307 3.02936 0
M  V30 9777 O 919.952 -3.79829 4.66919 0
M  V30 9778 H 923.778 -1.03255 2.85608 0
M  V30 9779 H 921.363 -0.445652 1.42598 0
M  V30 9780 H 923.245 -3.447 2.42404 0
M  V30 9781 H 921.92 -2.94784 1.33731 0
M  V30 9782 H 920.827 -1.73715 3.31321 0
M  V30 9783 H 922.16 -2.30297 4.34999 0
M  V30 9784 N 923.813 -1.49104 -0.510467 0
M  V30 9785 C 925.062 -1.57362 -1.26175 0
M  V30 9786 C 925.375 -0.261218 -1.93848 0
M  V30 9787 O 926.581 -0.222238 -2.70589 0
M  V30 9788 C 925.037 -2.77606 -2.29048 0
M  V30 9789 C 924.645 -4.15567 -1.67357 0
M  V30 9790 C 926.389 -2.95188 -3.05064 0
M  V30 9791 C 924.296 -5.27046 -2.68285 0
M  V30 9792 H 923.226 -0.585887 -0.474608 0
M  V30 9793 H 925.877 -1.75474 -0.536753 0
M  V30 9794 H 924.259 -2.52968 -3.04669 0
M  V30 9795 H 925.433 -4.50304 -0.977924 0
M  V30 9796 H 923.748 -4.03264 -1.03765 0
M  V30 9797 H 926.345 -3.75643 -3.80521 0
M  V30 9798 H 926.688 -2.05385 -3.62108 0
M  V30 9799 H 927.221 -3.19821 -2.36558 0
M  V30 9800 H 923.96 -6.18878 -2.16034 0
M  V30 9801 H 923.48 -4.96774 -3.36118 0
M  V30 9802 H 925.159 -5.55983 -3.30896 0
M  V30 9803 N 925.291 0.760815 -1.38019 0
M  V30 9804 C 926.539 1.51673 -1.33566 0
M  V30 9805 C 926.86 1.94852 0.076024 0
M  V30 9806 O 926.13 1.67112 1.02227 0
M  V30 9807 H 924.71 0.562581 -0.491438 0
M  V30 9808 H 927.372 0.904832 -1.72623 0
M  V30 9809 H 926.468 2.41102 -1.98182 0
M  V30 9810 N 926.769 1.22769 0.988202 0
M  V30 9811 C 927.679 1.01844 2.11341 0
M  V30 9812 C 928.695 -0.0346937 1.73965 0
M  V30 9813 O 929.871 0.159061 2.00771 0
M  V30 9814 C 926.936 0.603837 3.41401 0
M  V30 9815 C 925.997 1.73113 3.92849 0
M  V30 9816 C 925.23 1.33621 5.16702 0
M  V30 9817 O 925.453 0.217041 5.69987 0
M  V30 9818 O 924.387 2.15444 5.62021 0
M  V30 9819 H 928.213 1.96127 2.31879 0
M  V30 9820 H 925.798 1.01405 1.09715 0
M  V30 9821 H 927.68 0.383196 4.19654 0
M  V30 9822 H 926.355 -0.310082 3.22211 0
M  V30 9823 H 925.262 2.00634 3.15748 0
M  V30 9824 H 926.595 2.62308 4.1648 0
M  V30 9825 N 928.247 -1.18576 1.03814 0
M  V30 9826 C 929.658 -1.70159 0.768299 0
M  V30 9827 C 930.009 -1.8286 -0.711106 0
M  V30 9828 O 929.134 -1.5063 -1.55369 0
M  V30 9829 C 929.729 -3.09062 1.38804 0
M  V30 9830 C 928.288 -3.57866 1.16656 0
M  V30 9831 C 927.435 -2.34484 1.48029 0
M  V30 9832 H 930.386 -1.03287 1.20488 0
M  V30 9833 H 930.407 -3.72211 0.7899 0
M  V30 9834 H 929.919 -2.99785 2.46476 0
M  V30 9835 H 928.02 -3.72442 0.108471 0
M  V30 9836 H 928.133 -4.41445 1.8618 0
M  V30 9837 H 926.497 -2.38273 0.899902 0
M  V30 9838 H 927.28 -2.27829 2.56805 0
M  V30 9839 N 929.725 -0.817259 -1.34754 0
M  V30 9840 C 931.141 -0.502309 -1.51489 0
M  V30 9841 C 931.341 0.974568 -1.76364 0
M  V30 9842 O 930.397 1.75924 -1.81127 0
M  V30 9843 C 931.71 -1.35693 -2.68343 0
M  V30 9844 C 933.258 -1.35347 -2.82224 0
M  V30 9845 C 933.733 -2.19244 -4.02114 0
M  V30 9846 N 935.224 -2.16837 -4.09311 0
M  V30 9847 C 935.959 -2.78505 -5.01221 0
M  V30 9848 N 935.455 -3.4914 -5.98392 0
M  V30 9849 N 937.248 -2.68089 -4.94049 0
M  V30 9850 H 929.399 -1.77359 -1.16866 0
M  V30 9851 H 931.662 -0.755476 -0.572678 0
M  V30 9852 H 931.368 -2.40548 -2.56573 0
M  V30 9853 H 931.242 -1.01764 -3.63213 0
M  V30 9854 H 933.629 -0.312727 -2.93438 0
M  V30 9855 H 933.71 -1.7327 -1.88179 0
M  V30 9856 H 933.354 -3.23365 -3.9166 0
M  V30 9857 H 933.284 -1.78675 -4.95361 0
M  V30 9858 H 935.775 -1.65452 -3.39756 0
M  V30 9859 H 936.088 -3.93455 -6.65141 0
M  V30 9860 H 934.433 -3.53246 -5.98533 0
M  V30 9861 H 937.624 -2.12485 -4.17094 0
M  V30 9862 H 937.797 -3.16436 -5.65484 0
M  V30 9863 N 931.203 1.46865 -0.571711 0
M  V30 9864 C 932.133 2.3298 0.155795 0
M  V30 9865 C 933.114 1.44678 0.894553 0
M  V30 9866 O 934.299 1.73513 0.872176 0
M  V30 9867 C 931.429 3.26745 1.17708 0
M  V30 9868 C 930.383 4.24401 0.553863 0
M  V30 9869 C 929.709 5.07595 1.68083 0
M  V30 9870 C 931.009 5.19884 -0.501827 0
M  V30 9871 H 932.703 2.94056 -0.563176 0
M  V30 9872 H 930.249 1.41402 -0.27228 0
M  V30 9873 H 932.202 3.85838 1.6943 0
M  V30 9874 H 930.926 2.63753 1.92618 0
M  V30 9875 H 929.585 3.66554 0.057815 0
M  V30 9876 H 929.233 4.40996 2.41933 0
M  V30 9877 H 928.933 5.73722 1.26953 0
M  V30 9878 H 930.457 5.6955 2.20103 0
M  V30 9879 H 931.871 5.73257 -0.0701057 0
M  V30 9880 H 930.268 5.94293 -0.832815 0
M  V30 9881 H 931.338 4.64482 -1.39229 0
M  V30 9882 N 932.681 0.308908 1.54543 0
M  V30 9883 C 933.927 -0.298478 2.00592 0
M  V30 9884 C 934.26 -1.52929 1.19692 0
M  V30 9885 O 933.535 -1.9254 0.27542 0
M  V30 9886 C 933.818 -0.647218 3.54236 0
M  V30 9887 C 933.671 0.593284 4.4587 0
M  V30 9888 C 934.99 -1.47064 4.14801 0
M  V30 9889 H 932.109 -0.107012 0.72919 0
M  V30 9890 H 934.751 0.422578 1.85241 0
M  V30 9891 H 932.901 -1.26153 3.67447 0
M  V30 9892 H 934.573 1.2317 4.44552 0
M  V30 9893 H 932.816 1.22501 4.16144 0
M  V30 9894 H 933.487 0.305018 5.51157 0
M  V30 9895 H 935.963 -0.951511 4.05075 0
M  V30 9896 H 934.839 -1.68343 5.22448 0
M  V30 9897 H 935.1 -2.4623 3.67183 0
M  V30 9898 N 934.159 -1.57557 0.0367827 0
M  V30 9899 C 935.069 -2.14148 -0.958017 0
M  V30 9900 C 936.085 -1.09564 -1.35173 0
M  V30 9901 O 937.261 -1.4166 -1.43158 0
M  V30 9902 C 934.326 -2.6636 -2.21931 0
M  V30 9903 C 933.387 -3.85688 -1.8853 0
M  V30 9904 C 932.62 -4.35401 -3.08645 0
M  V30 9905 O 932.843 -3.8425 -4.21554 0
M  V30 9906 O 931.777 -5.27158 -2.90497 0
M  V30 9907 H 935.603 -2.99442 -0.506797 0
M  V30 9908 H 933.188 -1.48259 -0.184275 0
M  V30 9909 H 935.07 -2.99976 -2.9596 0
M  V30 9910 H 933.745 -1.84145 -2.66219 0
M  V30 9911 H 932.652 -3.56985 -1.11861 0
M  V30 9912 H 933.985 -4.69089 -1.49052 0
M  V30 9913 N 935.637 0.236453 -1.55816 0
M  V30 9914 C 936.57 1.3196 -1.86177 0
M  V30 9915 C 937.548 1.459 -0.717769 0
M  V30 9916 O 938.732 1.61949 -0.964606 0
M  V30 9917 C 935.859 2.69183 -2.05568 0
M  V30 9918 C 934.905 2.72338 -3.28229 0
M  V30 9919 S 935.738 2.27898 -4.84585 0
M  V30 9920 C 936.894 3.67025 -5.06994 0
M  V30 9921 H 937.127 1.06011 -2.77757 0
M  V30 9922 H 934.66 0.437961 -1.48058 0
M  V30 9923 H 936.618 3.48191 -2.17423 0
M  V30 9924 H 935.279 2.92365 -1.14811 0
M  V30 9925 H 934.472 3.7314 -3.38795 0
M  V30 9926 H 934.074 2.01382 -3.15153 0
M  V30 9927 H 936.366 4.62604 -4.94979 0
M  V30 9928 H 937.309 3.61385 -6.08939 0
M  V30 9929 H 937.717 3.60022 -4.34792 0
M  V30 9930 N 937.115 1.49373 0.502552 0
M  V30 9931 C 938.34 1.62752 1.28556 0
M  V30 9932 C 938.765 0.298285 1.8572 0
M  V30 9933 O 938.123 -0.733885 1.65782 0
M  V30 9934 C 938.171 2.69778 2.39274 0
M  V30 9935 O 937.275 2.28843 3.43081 0
M  V30 9936 H 936.616 0.544799 0.379592 0
M  V30 9937 H 939.146 1.9555 0.601792 0
M  V30 9938 H 939.156 2.91899 2.8506 0
M  V30 9939 H 937.831 3.66266 1.97033 0
M  V30 9940 H 936.408 2.17047 3.03224 0
M  V30 9941 N 938.594 -0.753485 1.38421 0
M  V30 9942 C 939.504 -1.89797 1.37892 0
M  V30 9943 C 940.52 -1.71797 0.276023 0
M  V30 9944 O 941.696 -1.94718 0.514464 0
M  V30 9945 C 938.761 -3.25166 1.20284 0
M  V30 9946 C 937.822 -3.55691 2.4038 0
M  V30 9947 C 937.055 -4.84601 2.23602 0
M  V30 9948 O 937.278 -5.56985 1.22979 0
M  V30 9949 O 936.212 -5.14605 3.12194 0
M  V30 9950 H 940.038 -1.93197 2.34326 0
M  V30 9951 H 937.623 -0.898775 1.19342 0
M  V30 9952 H 939.505 -4.06099 1.12525 0
M  V30 9953 H 938.18 -3.22577 0.269352 0
M  V30 9954 H 937.087 -2.74919 2.53714 0
M  V30 9955 H 938.42 -3.6304 3.32359 0
M  V30 9956 N 940.072 -1.23292 -0.981677 0
M  V30 9957 C 941.019 -1.01296 -2.07383 0
M  V30 9958 C 941.989 0.069139 -1.65956 0
M  V30 9959 O 943.174 -0.0827108 -1.90621 0
M  V30 9960 C 940.314 -0.608876 -3.39686 0
M  V30 9961 C 939.427 -1.76296 -3.9439 0
M  V30 9962 C 938.562 -1.30578 -5.14901 0
M  V30 9963 C 937.601 -2.4307 -5.61768 0
M  V30 9964 N 936.738 -1.98319 -6.73509 0
M  V30 9965 H 941.578 -1.9478 -2.25532 0
M  V30 9966 H 939.115 -0.970356 -1.10555 0
M  V30 9967 H 941.073 -0.355702 -4.15681 0
M  V30 9968 H 939.703 0.288961 -3.21504 0
M  V30 9969 H 938.755 -2.13017 -3.15163 0
M  V30 9970 H 940.067 -2.60871 -4.25145 0
M  V30 9971 H 939.221 -1.01066 -5.98223 0
M  V30 9972 H 937.96 -0.430386 -4.85797 0
M  V30 9973 H 936.965 -2.73358 -4.77028 0
M  V30 9974 H 938.19 -3.31144 -5.92892 0
M  V30 9975 H 936.136 -1.13157 -6.46167 0
M  V30 9976 H 936.053 -2.76454 -7.0364 0
M  V30 9977 H 937.321 -1.71907 -7.60308 0
M  V30 9978 N 941.55 1.18024 -1.04442 0
M  V30 9979 C 942.497 2.21785 -0.638759 0
M  V30 9980 C 943.467 1.62255 0.355312 0
M  V30 9981 O 944.652 1.89176 0.24844 0
M  V30 9982 C 941.792 3.45098 -0.0118002 0
M  V30 9983 C 940.905 4.1895 -1.05379 0
M  V30 9984 C 940.04 5.2973 -0.394951 0
M  V30 9985 C 939.079 5.95359 -1.42178 0
M  V30 9986 N 938.216 6.97668 -0.787635 0
M  V30 9987 H 943.056 2.55839 -1.52808 0
M  V30 9988 H 940.593 1.25681 -0.764378 0
M  V30 9989 H 942.551 4.15564 0.369075 0
M  V30 9990 H 941.181 3.11652 0.84102 0
M  V30 9991 H 940.233 3.47274 -1.55258 0
M  V30 9992 H 941.545 4.63877 -1.83355 0
M  V30 9993 H 940.699 6.06687 0.0399244 0
M  V30 9994 H 939.438 4.85915 0.416867 0
M  V30 9995 H 938.443 5.17139 -1.86675 0
M  V30 9996 H 939.668 6.41255 -2.23536 0
M  V30 9997 H 937.614 6.56 0.00380893 0
M  V30 9998 H 937.531 7.40867 -1.50505 0
M  V30 9999 H 938.799 7.78586 -0.377282 0
M  V30 10000 N 943.028 0.824394 1.34319 0
M  V30 10001 C 943.991 0.252696 2.27803 0
M  V30 10002 C 944.991 -0.570254 1.50349 0
M  V30 10003 O 946.181 -0.386145 1.69866 0
M  V30 10004 C 943.313 -0.645575 3.34731 0
M  V30 10005 H 944.506 1.07742 2.79878 0
M  V30 10006 H 942.059 0.596367 1.44475 0
M  V30 10007 H 942.794 -1.4933 2.87873 0
M  V30 10008 H 942.579 -0.0569478 3.92059 0
M  V30 10009 H 944.069 -1.03933 4.0446 0
M  V30 10010 N 944.506 -1.46559 0.579492 0
M  V30 10011 C 945.436 -2.33059 -0.143437 0
M  V30 10012 C 946.417 -1.4515 -0.886868 0
M  V30 10013 O 947.602 -1.73973 -0.862961 0
M  V30 10014 C 944.732 -3.27364 -1.15973 0
M  V30 10015 C 943.686 -4.24689 -0.531348 0
M  V30 10016 C 943.012 -5.08479 -1.65388 0
M  V30 10017 C 944.312 -5.1961 0.529391 0
M  V30 10018 H 946.006 -2.93753 0.578762 0
M  V30 10019 H 943.552 -1.41256 0.279775 0
M  V30 10020 H 945.505 -3.86732 -1.67382 0
M  V30 10021 H 944.229 -2.64771 -1.91217 0
M  V30 10022 H 942.888 -3.6658 -0.0383749 0
M  V30 10023 H 942.536 -4.42273 -2.3959 0
M  V30 10024 H 942.236 -5.74387 -1.23909 0
M  V30 10025 H 943.76 -5.70709 -2.17079 0
M  V30 10026 H 945.174 -5.73212 0.100506 0
M  V30 10027 H 943.571 -5.93843 0.86432 0
M  V30 10028 H 944.641 -4.63737 1.4169 0
M  V30 10029 N 945.984 -0.3171 -1.54377 0
M  V30 10030 C 946.914 0.544623 -2.2706 0
M  V30 10031 C 947.895 1.12469 -1.27611 0
M  V30 10032 O 949.08 1.15103 -1.56413 0
M  V30 10033 C 946.21 1.70879 -3.02353 0
M  V30 10034 C 945.164 1.25833 -4.09084 0
M  V30 10035 C 944.49 2.50894 -4.72182 0
M  V30 10036 C 945.79 0.377876 -5.20931 0
M  V30 10037 H 947.484 -0.0616372 -2.99337 0
M  V30 10038 H 945.03 -0.0310848 -1.43966 0
M  V30 10039 H 946.983 2.31787 -3.51927 0
M  V30 10040 H 945.707 2.34155 -2.27682 0
M  V30 10041 H 944.366 0.672228 -3.60384 0
M  V30 10042 H 944.014 3.12518 -3.94134 0
M  V30 10043 H 943.714 2.21447 -5.44275 0
M  V30 10044 H 945.238 3.12575 -5.24528 0
M  V30 10045 H 946.652 0.893056 -5.66302 0
M  V30 10046 H 945.049 0.176474 -5.9984 0
M  V30 10047 H 946.119 -0.592943 -4.81261 0
M  V30 10048 N 947.462 1.57535 -0.0451378 0
M  V30 10049 C 948.392 2.14208 0.929372 0
M  V30 10050 C 949.373 1.06221 1.32858 0
M  V30 10051 O 950.558 1.34132 1.40436 0
M  V30 10052 C 947.688 2.68217 2.20629 0
M  V30 10053 C 946.642 3.81134 1.94734 0
M  V30 10054 C 945.968 4.21636 3.28828 0
M  V30 10055 C 947.268 5.06531 1.27374 0
M  V30 10056 H 948.962 2.95886 0.457348 0
M  V30 10057 H 946.508 1.42332 0.218544 0
M  V30 10058 H 948.461 3.06502 2.89196 0
M  V30 10059 H 947.185 1.83722 2.70026 0
M  V30 10060 H 945.844 3.43312 1.28579 0
M  V30 10061 H 945.492 3.34099 3.76014 0
M  V30 10062 H 945.192 4.97736 3.12302 0
M  V30 10063 H 946.716 4.62516 3.98637 0
M  V30 10064 H 948.13 5.423 1.85967 0
M  V30 10065 H 946.527 5.87735 1.21194 0
M  V30 10066 H 947.597 4.84261 0.248913 0
M  V30 10067 N 948.94 -0.228186 1.55939 0
M  V30 10068 C 949.888 -1.30239 1.92719 0
M  V30 10069 C 950.882 -1.48865 0.808424 0
M  V30 10070 O 952.088 -1.50118 0.993204 0
M  V30 10071 H 948.463 -0.436509 0.612343 0
M  V30 10072 H 950.434 -0.964965 2.82367 0
M  V30 10073 C 949.183 -2.647 2.25453 0
M  V30 10074 H 948.506 -2.51173 3.1105 0
M  V30 10075 H 949.946 -3.38691 2.55077 0
M  V30 10076 C 948.405 -3.1921 1.07734 0
M  V30 10077 O 948.935 -4.00301 0.335019 0
M  V30 10078 N 947.141 -2.77492 0.862938 0
M  V30 10079 H 946.688 -2.11657 1.4683 0
M  V30 10080 H 946.646 -3.14306 0.0770119 0
M  V30 10081 N 950.418 -1.49637 -0.494624 0
M  V30 10082 C 951.328 -1.69522 -1.62172 0
M  V30 10083 C 952.344 -0.577894 -1.64123 0
M  V30 10084 O 953.52 -0.853382 -1.82426 0
M  V30 10085 C 950.585 -1.7633 -2.9851 0
M  V30 10086 C 949.646 -2.99944 -3.07135 0
M  V30 10087 C 948.879 -3.06419 -4.36971 0
M  V30 10088 O 949.102 -2.20312 -5.26136 0
M  V30 10089 O 948.036 -3.9894 -4.507 0
M  V30 10090 H 951.862 -2.65017 -1.48324 0
M  V30 10091 H 949.447 -1.33454 -0.671603 0
M  V30 10092 H 951.329 -1.83125 -3.7953 0
M  V30 10093 H 950.004 -0.840155 -3.12607 0
M  V30 10094 H 948.911 -2.98664 -2.2528 0
M  V30 10095 H 950.244 -3.9176 -2.97968 0
M  V30 10096 N 951.896 0.746133 -1.38819 0
M  V30 10097 C 952.826 1.87344 -1.39372 0
M  V30 10098 C 953.807 1.68123 -0.258583 0
M  V30 10099 O 954.992 1.88606 -0.462769 0
M  V30 10100 C 952.122 3.24962 -1.22543 0
M  V30 10101 C 951.076 3.58799 -2.33339 0
M  V30 10102 C 950.402 4.95235 -2.01609 0
M  V30 10103 C 951.702 3.62911 -3.75624 0
M  V30 10104 H 953.396 1.87138 -2.33709 0
M  V30 10105 H 950.942 0.898937 -1.12495 0
M  V30 10106 H 952.895 4.03488 -1.21554 0
M  V30 10107 H 951.619 3.25667 -0.246707 0
M  V30 10108 H 950.278 2.82596 -2.33527 0
M  V30 10109 H 949.926 4.92508 -1.02202 0
M  V30 10110 H 949.626 5.18843 -2.75819 0
M  V30 10111 H 951.15 5.76131 -2.02251 0
M  V30 10112 H 952.564 4.31535 -3.77426 0
M  V30 10113 H 950.961 3.98031 -4.491 0
M  V30 10114 H 952.031 2.62967 -4.07402 0
M  V30 10115 N 953.375 1.23811 0.975125 0
M  V30 10116 C 954.623 1.07124 1.71373 0
M  V30 10117 C 954.944 -0.391864 1.91022 0
M  V30 10118 O 954.214 -1.28041 1.48265 0
M  V30 10119 H 952.794 0.393415 0.635007 0
M  V30 10120 H 955.456 1.55612 1.17349 0
M  V30 10121 H 954.552 1.56338 2.7012 0
M  V30 10122 N 954.853 -1.17469 1.05066 0
M  V30 10123 C 956.101 -1.87327 0.758485 0
M  V30 10124 C 956.422 -1.81358 -0.716549 0
M  V30 10125 O 955.692 -1.23868 -1.51768 0
M  V30 10126 H 954.272 -0.693512 0.277579 0
M  V30 10127 H 956.934 -1.4251 1.32954 0
M  V30 10128 H 956.03 -2.93101 1.0723 0
M  V30 10129 N 956.331 -0.831506 -1.3388 0
M  V30 10130 C 957.578 -0.423674 -1.98018 0
M  V30 10131 C 957.906 1.01533 -1.65895 0
M  V30 10132 O 957.161 1.72342 -0.927183 0
M  V30 10133 C 957.46 -0.582733 -3.52617 0
M  V30 10134 C 957.126 -1.98874 -4.04673 0
M  V30 10135 C 955.788 -2.37334 -4.186 0
M  V30 10136 C 958.14 -2.90745 -4.3257 0
M  V30 10137 C 955.468 -3.66984 -4.57755 0
M  V30 10138 C 957.82 -4.19868 -4.73174 0
M  V30 10139 C 956.484 -4.58294 -4.85307 0
M  V30 10140 H 955.754 -0.155033 -0.7246 0
M  V30 10141 H 958.401 -1.05711 -1.59679 0
M  V30 10142 H 956.706 0.134052 -3.91571 0
M  V30 10143 H 958.403 -0.247576 -4.00235 0
M  V30 10144 H 954.993 -1.68001 -3.94301 0
M  V30 10145 H 959.177 -2.62272 -4.2134 0
M  V30 10146 H 954.433 -3.9657 -4.65341 0
M  V30 10147 H 958.607 -4.91138 -4.93717 0
M  V30 10148 H 956.234 -5.58805 -5.15404 0
M  V30 10149 N 957.809 1.4625 -0.587256 0
M  V30 10150 C 959.037 2.06744 -0.08033 0
M  V30 10151 C 959.452 1.43527 1.2266 0
M  V30 10152 O 958.809 0.542168 1.74261 0
M  V30 10153 C 958.86 3.61394 0.0873469 0
M  V30 10154 O 958.581 4.22247 -1.16785 0
M  V30 10155 C 960.082 4.38828 0.628095 0
M  V30 10156 H 957.302 0.668354 -0.0595301 0
M  V30 10157 H 959.846 1.87808 -0.809217 0
M  V30 10158 H 958.001 3.79742 0.766473 0
M  V30 10159 H 958.415 5.15176 -0.984565 0
M  V30 10160 H 959.889 5.47613 0.694583 0
M  V30 10161 H 960.366 4.07188 1.64606 0
M  V30 10162 H 960.972 4.25297 -0.0163115 0
M  V30 10163 N 959.287 0.325282 1.54207 0
M  V30 10164 C 960.536 -0.27768 1.99779 0
M  V30 10165 C 960.849 -1.5311 1.21723 0
M  V30 10166 O 962.055 -2.21017 1.57682 0
M  V30 10167 C 960.511 -0.545329 3.55745 0
M  V30 10168 C 960.119 0.691143 4.42637 0
M  V30 10169 C 961.863 -1.10815 4.09781 0
M  V30 10170 C 959.77 0.395302 5.90077 0
M  V30 10171 H 958.7 -0.107536 0.746292 0
M  V30 10172 H 961.351 0.437773 1.78202 0
M  V30 10173 H 959.733 -1.32101 3.73317 0
M  V30 10174 H 960.907 1.46653 4.3684 0
M  V30 10175 H 959.222 1.1743 3.99499 0
M  V30 10176 H 961.819 -1.34414 5.1753 0
M  V30 10177 H 962.162 -2.05806 3.6187 0
M  V30 10178 H 962.695 -0.393608 3.95848 0
M  V30 10179 H 959.434 1.31443 6.42186 0
M  V30 10180 H 958.954 -0.34235 5.98822 0
M  V30 10181 H 960.633 0.00576877 6.47 0
M  V30 10182 N 960.765 -1.57509 0.0534917 0
M  V30 10183 C 961.993 -1.97098 -0.629298 0
M  V30 10184 C 962.408 -0.931128 -1.64242 0
M  V30 10185 O 961.765 0.0843866 -1.82305 0
M  V30 10186 C 961.816 -3.36767 -1.31415 0
M  V30 10187 O 961.537 -4.36766 -0.341599 0
M  V30 10188 C 963.038 -3.91127 -2.08649 0
M  V30 10189 H 960.258 -0.648611 -0.171886 0
M  V30 10190 H 962.802 -2.04145 0.120479 0
M  V30 10191 H 960.957 -3.30863 -2.01515 0
M  V30 10192 H 961.371 -5.1788 -0.830715 0
M  V30 10193 H 962.845 -4.91129 -2.51985 0
M  V30 10194 H 963.322 -3.26679 -2.9356 0
M  V30 10195 H 963.928 -4.00376 -1.43456 0
M  V30 10196 N 962.243 0.219913 -1.56058 0
M  V30 10197 C 963.491 0.942199 -1.78793 0
M  V30 10198 C 963.812 1.84804 -0.622284 0
M  V30 10199 O 963.082 1.9255 0.360735 0
M  V30 10200 H 961.662 0.350895 -0.659455 0
M  V30 10201 H 964.324 0.231376 -1.93522 0
M  V30 10202 H 963.42 1.54804 -2.71002 0
M  V30 10203 N 963.721 1.49897 0.486681 0
M  V30 10204 C 964.668 1.67619 1.58658 0
M  V30 10205 C 965.638 0.517537 1.57831 0
M  V30 10206 O 966.823 0.746272 1.756 0
M  V30 10207 C 963.963 1.762 2.96728 0
M  V30 10208 C 963.076 3.03465 3.07462 0
M  V30 10209 C 962.211 3.02937 4.36351 0
M  V30 10210 C 961.25 4.24721 4.4077 0
M  V30 10211 N 960.387 4.22021 5.61108 0
M  V30 10212 H 965.227 2.61528 1.42853 0
M  V30 10213 H 962.764 1.29657 0.694807 0
M  V30 10214 H 964.722 1.79156 3.76774 0
M  V30 10215 H 963.352 0.857452 3.11203 0
M  V30 10216 H 962.404 3.10054 2.20387 0
M  V30 10217 H 963.716 3.93454 3.06586 0
M  V30 10218 H 962.87 3.04536 5.24731 0
M  V30 10219 H 961.609 2.10751 4.39813 0
M  V30 10220 H 960.614 4.23352 3.5079 0
M  V30 10221 H 961.839 5.18116 4.39013 0
M  V30 10222 H 959.785 3.3268 5.65385 0
M  V30 10223 H 959.702 5.05761 5.61909 0
M  V30 10224 H 960.97 4.27743 6.51656 0
M  V30 10225 N 965.199 -0.738761 1.39212 0
M  V30 10226 C 966.429 -1.5258 1.39295 0
M  V30 10227 C 966.837 -1.89194 -0.0153 0
M  V30 10228 O 966.18 -1.5435 -0.996073 0
M  V30 10229 C 966.242 -2.84462 2.19822 0
M  V30 10230 C 965.906 -2.70303 3.68491 0
M  V30 10231 C 966.903 -2.39102 4.61656 0
M  V30 10232 C 964.588 -2.87291 4.1203 0
M  V30 10233 C 966.582 -2.25066 5.96342 0
M  V30 10234 C 964.269 -2.72874 5.46793 0
M  V30 10235 C 965.267 -2.41807 6.38763 0
M  V30 10236 O 964.955 -2.27475 7.71045 0
M  V30 10237 H 964.687 -0.478236 0.477772 0
M  V30 10238 H 967.241 -0.920846 1.83602 0
M  V30 10239 H 965.471 -3.47202 1.70257 0
M  V30 10240 H 967.16 -3.46058 2.12129 0
M  V30 10241 H 967.926 -2.25632 4.2932 0
M  V30 10242 H 963.805 -3.10466 3.40781 0
M  V30 10243 H 967.349 -2.00739 6.68094 0
M  V30 10244 H 963.246 -2.85922 5.78722 0
M  V30 10245 H 964.014 -2.42574 7.81729 0
M  V30 10246 N 966.677 -1.24326 -0.968545 0
M  V30 10247 C 967.607 -1.05951 -2.08079 0
M  V30 10248 C 968.588 0.0272666 -1.70078 0
M  V30 10249 O 969.773 -0.139644 -1.93697 0
M  V30 10250 C 966.903 -0.662623 -3.4092 0
M  V30 10251 C 965.857 -1.69807 -3.92873 0
M  V30 10252 C 965.183 -1.15628 -5.22048 0
M  V30 10253 C 966.483 -3.09383 -4.20808 0
M  V30 10254 H 968.177 -1.98984 -2.23709 0
M  V30 10255 H 965.723 -0.958112 -1.075 0
M  V30 10256 H 967.676 -0.521071 -4.18166 0
M  V30 10257 H 966.4 0.303399 -3.25188 0
M  V30 10258 H 965.059 -1.82783 -3.17783 0
M  V30 10259 H 964.707 -0.180888 -5.02675 0
M  V30 10260 H 964.407 -1.84822 -5.57776 0
M  V30 10261 H 965.931 -1.02683 -6.01904 0
M  V30 10262 H 967.345 -2.99642 -4.88761 0
M  V30 10263 H 965.742 -3.75923 -4.67763 0
M  V30 10264 H 966.812 -3.57486 -3.27616 0
M  V30 10265 N 968.156 1.1691 -1.05688 0
M  V30 10266 C 969.403 1.87292 -0.76993 0
M  V30 10267 C 969.731 1.81339 0.703295 0
M  V30 10268 O 968.986 1.21959 1.5305 0
M  V30 10269 C 969.285 3.36578 -1.20207 0
M  V30 10270 C 968.951 3.62732 -2.67836 0
M  V30 10271 C 967.613 3.69579 -3.08163 0
M  V30 10272 C 969.965 3.73803 -3.63209 0
M  V30 10273 C 967.293 3.84992 -4.42717 0
M  V30 10274 C 969.645 3.90735 -4.97503 0
M  V30 10275 C 968.309 3.95823 -5.37476 0
M  V30 10276 H 967.579 0.68535 -0.281737 0
M  V30 10277 H 970.226 1.38274 -1.32486 0
M  V30 10278 H 968.531 3.87687 -0.566222 0
M  V30 10279 H 970.228 3.89409 -0.957183 0
M  V30 10280 H 966.818 3.58031 -2.35609 0
M  V30 10281 H 971.002 3.67829 -3.3319 0
M  V30 10282 H 966.258 3.87181 -4.73182 0
M  V30 10283 H 970.432 3.98243 -5.71293 0
M  V30 10284 H 968.059 4.07518 -6.41742 0
M  V30 10285 N 969.634 0.838594 1.33437 0
M  V30 10286 C 970.882 0.433312 1.974 0
M  V30 10287 C 971.203 -1.01078 1.66758 0
M  V30 10288 O 970.473 -1.70406 0.966373 0
M  V30 10289 H 969.053 0.15724 0.730263 0
M  V30 10290 H 971.715 1.07149 1.62804 0
M  V30 10291 H 970.811 0.565144 3.06941 0
M  V30 10292 N 971.112 -1.45937 0.595003 0
M  V30 10293 C 972.044 -2.28575 -0.169137 0
M  V30 10294 C 973.057 -1.39226 -0.843792 0
M  V30 10295 O 974.246 -1.63716 -0.711291 0
M  V30 10296 C 971.346 -3.14616 -1.25976 0
M  V30 10297 C 970.519 -4.32166 -0.67466 0
M  V30 10298 C 969.578 -4.99511 -1.65456 0
M  V30 10299 O 968.604 -5.56712 -1.18578 0
M  V30 10300 N 969.806 -4.97643 -2.98885 0
M  V30 10301 H 972.571 -2.94797 0.539908 0
M  V30 10302 H 970.132 -1.55985 0.433614 0
M  V30 10303 H 972.124 -3.56534 -1.91483 0
M  V30 10304 H 970.694 -2.50387 -1.8715 0
M  V30 10305 H 969.914 -3.93882 0.158184 0
M  V30 10306 H 971.202 -5.08116 -0.263753 0
M  V30 10307 H 970.6 -4.52438 -3.39583 0
M  V30 10308 H 969.157 -5.43463 -3.59848 0
M  V30 10309 N 972.59 -0.333456 -1.54032 0
M  V30 10310 C 974.001 0.15256 -1.86076 0
M  V30 10311 C 974.352 1.50819 -1.25492 0
M  V30 10312 O 973.477 2.08903 -0.564665 0
M  V30 10313 C 974.072 0.283599 -3.37611 0
M  V30 10314 C 972.631 0.713841 -3.69569 0
M  V30 10315 C 971.778 -0.158515 -2.76847 0
M  V30 10316 H 974.729 -0.553404 -1.48738 0
M  V30 10317 H 974.75 1.11284 -3.63863 0
M  V30 10318 H 974.262 -0.703193 -3.81676 0
M  V30 10319 H 972.363 1.71002 -3.31042 0
M  V30 10320 H 972.476 0.510731 -4.7637 0
M  V30 10321 H 970.84 0.367531 -2.52034 0
M  V30 10322 H 971.623 -1.14226 -3.2374 0
M  V30 10323 N 974.068 1.57479 -0.061844 0
M  V30 10324 C 975.314 1.93395 0.610443 0
M  V30 10325 C 975.647 0.941334 1.6986 0
M  V30 10326 O 974.922 -0.0310262 1.94475 0
M  V30 10327 C 975.205 3.39636 1.19664 0
M  V30 10328 C 975.058 4.49651 0.115805 0
M  V30 10329 C 976.377 3.86488 2.10512 0
M  V30 10330 H 973.496 0.703262 0.220436 0
M  V30 10331 H 976.138 1.89583 -0.125785 0
M  V30 10332 H 974.288 3.43015 1.82409 0
M  V30 10333 H 975.96 4.58397 -0.516728 0
M  V30 10334 H 974.203 4.30237 -0.55483 0
M  V30 10335 H 974.874 5.49089 0.566176 0
M  V30 10336 H 977.35 3.85052 1.57715 0
M  V30 10337 H 976.226 4.89444 2.48466 0
M  V30 10338 H 976.487 3.23856 3.00948 0
M  V30 10339 N 975.546 -0.211634 1.56173 0
M  V30 10340 C 976.793 -0.93455 1.79645 0
M  V30 10341 C 977.121 -1.83936 0.632294 0
M  V30 10342 O 976.376 -1.91919 -0.382841 0
M  V30 10343 C 976.675 -1.79657 3.08963 0
M  V30 10344 C 976.341 -1.04415 4.38644 0
M  V30 10345 C 975.003 -0.836351 4.73876 0
M  V30 10346 C 977.355 -0.51355 5.18664 0
M  V30 10347 C 974.683 -0.0861976 5.86637 0
M  V30 10348 C 977.035 0.223309 6.32206 0
M  V30 10349 C 975.699 0.442279 6.66033 0
M  V30 10350 H 974.969 -0.341976 0.657368 0
M  V30 10351 H 977.616 -0.202024 1.90431 0
M  V30 10352 H 975.921 -2.59726 2.93342 0
M  V30 10353 H 977.618 -2.35823 3.24328 0
M  V30 10354 H 974.208 -1.21611 4.10985 0
M  V30 10355 H 978.392 -0.661541 4.91871 0
M  V30 10356 H 973.648 0.0935866 6.11328 0
M  V30 10357 H 977.822 0.641917 6.93435 0
M  V30 10358 H 975.449 1.02547 7.53252 0
M  V30 10359 N 977.024 -1.50153 -0.478725 0
M  V30 10360 C 978.44 -1.3741 -0.811833 0
M  V30 10361 C 978.64 -0.424303 -1.96982 0
M  V30 10362 O 977.696 0.13588 -2.52134 0
M  V30 10363 C 979.009 -2.78616 -1.13108 0
M  V30 10364 C 980.557 -2.87477 -1.23798 0
M  V30 10365 C 981.032 -4.295 -1.5904 0
M  V30 10366 N 982.523 -4.32415 -1.66047 0
M  V30 10367 C 983.258 -5.39295 -1.94805 0
M  V30 10368 N 982.754 -6.56392 -2.21635 0
M  V30 10369 N 984.547 -5.26731 -1.96243 0
M  V30 10370 H 976.698 -2.10486 0.284531 0
M  V30 10371 H 978.961 -0.945786 0.0647585 0
M  V30 10372 H 978.667 -3.49921 -0.35334 0
M  V30 10373 H 978.541 -3.15382 -2.06915 0
M  V30 10374 H 980.928 -2.16396 -2.00641 0
M  V30 10375 H 981.009 -2.54264 -0.279888 0
M  V30 10376 H 980.653 -5.01115 -0.827404 0
M  V30 10377 H 980.583 -4.60194 -2.55987 0
M  V30 10378 H 983.074 -3.47975 -1.47383 0
M  V30 10379 H 983.387 -7.33658 -2.4283 0
M  V30 10380 H 981.732 -6.59579 -2.19043 0
M  V30 10381 H 984.923 -4.34249 -1.74773 0
M  V30 10382 H 985.096 -6.10115 -2.1832 0
M  V30 10383 N 978.502 0.731368 -1.39602 0
M  V30 10384 C 979.449 1.84541 -1.38612 0
M  V30 10385 C 980.419 1.64279 -0.245287 0
M  V30 10386 O 981.604 1.85635 -0.440954 0
M  V30 10387 C 978.744 3.22092 -1.23897 0
M  V30 10388 C 977.857 3.54034 -2.47555 0
M  V30 10389 C 976.992 4.81007 -2.25402 0
M  V30 10390 C 976.031 5.05804 -3.44716 0
M  V30 10391 N 975.168 6.23981 -3.21857 0
M  V30 10392 H 980.008 1.84722 -2.33841 0
M  V30 10393 H 977.545 0.902569 -1.16156 0
M  V30 10394 H 979.503 4.01499 -1.13376 0
M  V30 10395 H 978.133 3.2118 -0.322958 0
M  V30 10396 H 977.185 2.69301 -2.68665 0
M  V30 10397 H 978.497 3.68275 -3.36415 0
M  V30 10398 H 977.651 5.68401 -2.12143 0
M  V30 10399 H 976.39 4.68946 -1.33943 0
M  V30 10400 H 975.395 4.1687 -3.58468 0
M  V30 10401 H 976.62 5.19747 -4.37081 0
M  V30 10402 H 974.566 6.13202 -2.33065 0
M  V30 10403 H 974.483 6.38826 -4.04274 0
M  V30 10404 H 975.751 7.14205 -3.123 0
M  V30 10405 N 979.98 1.24838 0.961938 0
M  V30 10406 C 981.226 1.09313 1.70817 0
M  V30 10407 C 981.559 -0.366244 1.90715 0
M  V30 10408 O 980.834 -1.27036 1.47282 0
M  V30 10409 C 981.117 1.83988 3.09549 0
M  V30 10410 C 980.97 3.3771 2.97106 0
M  V30 10411 C 982.289 1.61718 4.09311 0
M  V30 10412 H 979.408 0.398498 0.619974 0
M  V30 10413 H 982.05 1.53579 1.11864 0
M  V30 10414 H 980.2 1.46363 3.59875 0
M  V30 10415 H 981.872 3.84967 2.54161 0
M  V30 10416 H 980.115 3.65795 2.33187 0
M  V30 10417 H 980.786 3.85166 3.95412 0
M  V30 10418 H 983.262 1.94458 3.67866 0
M  V30 10419 H 982.138 2.16415 5.04436 0
M  V30 10420 H 982.399 0.55677 4.3858 0
M  V30 10421 N 981.458 -1.16348 1.06306 0
M  V30 10422 C 982.408 -2.18717 0.643947 0
M  V30 10423 C 983.392 -1.57574 -0.325445 0
M  V30 10424 O 984.584 -1.76439 -0.140868 0
M  V30 10425 C 981.713 -3.43285 0.0320266 0
M  V30 10426 C 980.799 -4.11504 1.02592 0
M  V30 10427 N 981.19 -4.55374 2.20155 0
M  V30 10428 C 979.488 -4.37691 0.856887 0
M  V30 10429 C 980.189 -5.08149 2.83124 0
M  V30 10430 N 979.165 -5.01042 2.10851 0
M  V30 10431 H 982.967 -2.50353 1.53951 0
M  V30 10432 H 980.481 -1.328 0.934763 0
M  V30 10433 H 982.478 -4.15917 -0.286064 0
M  V30 10434 H 981.138 -3.13137 -0.858786 0
M  V30 10435 H 982.149 -4.49101 2.57931 0
M  V30 10436 H 978.826 -4.17496 0.0180742 0
M  V30 10437 H 980.216 -5.52131 3.82885 0
M  V30 10438 N 982.937 -0.845659 -1.3299 0
M  V30 10439 C 983.9 -0.288905 -2.27372 0
M  V30 10440 C 984.9 0.546263 -1.51237 0
M  V30 10441 O 986.09 0.359072 -1.70459 0
M  V30 10442 C 983.222 0.59224 -3.35716 0
M  V30 10443 H 984.415 -1.12181 -2.78128 0
M  V30 10444 H 981.968 -0.619276 -1.43508 0
M  V30 10445 H 982.703 1.44732 -2.90212 0
M  V30 10446 H 982.488 -0.00543255 -3.921 0
M  V30 10447 H 983.978 0.974848 -4.06062 0
M  V30 10448 N 984.415 1.45619 -0.602734 0
M  V30 10449 C 985.831 1.57368 -0.26599 0
M  V30 10450 C 986.031 1.59485 1.23154 0
M  V30 10451 O 985.087 1.52254 2.01432 0
M  V30 10452 C 986.4 2.85863 -0.932881 0
M  V30 10453 C 987.948 2.9953 -0.908344 0
M  V30 10454 C 988.423 4.30789 -1.55515 0
M  V30 10455 N 989.914 4.37536 -1.52042 0
M  V30 10456 C 990.649 5.37758 -1.99008 0
M  V30 10457 N 990.145 6.44544 -2.54038 0
M  V30 10458 N 991.938 5.29085 -1.89805 0
M  V30 10459 H 984.089 1.42489 -1.57514 0
M  V30 10460 H 986.352 0.680948 -0.659556 0
M  V30 10461 H 986.058 2.90183 -1.98713 0
M  V30 10462 H 985.932 3.74467 -0.453209 0
M  V30 10463 H 988.319 2.9478 0.137344 0
M  V30 10464 H 988.4 2.12349 -1.42623 0
M  V30 10465 H 988.044 4.36297 -2.60014 0
M  V30 10466 H 987.974 5.16778 -1.01232 0
M  V30 10467 H 990.465 3.60972 -1.11837 0
M  V30 10468 H 990.778 7.17258 -2.87682 0
M  V30 10469 H 989.123 6.45308 -2.58075 0
M  V30 10470 H 992.314 4.44566 -1.46556 0
M  V30 10471 H 992.487 6.07043 -2.26722 0
M  V30 10472 N 985.893 0.34162 1.53853 0
M  V30 10473 C 986.803 -0.524555 2.2866 0
M  V30 10474 C 987.819 -1.1136 1.33697 0
M  V30 10475 O 988.995 -1.1297 1.66732 0
M  V30 10476 C 986.06 -1.66065 3.04341 0
M  V30 10477 C 985.121 -1.10158 4.14926 0
M  V30 10478 C 984.354 -2.18353 4.86988 0
M  V30 10479 O 984.577 -3.39038 4.58704 0
M  V30 10480 O 983.511 -1.82756 5.73484 0
M  V30 10481 H 987.337 0.0835014 3.03585 0
M  V30 10482 H 984.922 0.106727 1.49018 0
M  V30 10483 H 986.804 -2.3217 3.51674 0
M  V30 10484 H 985.479 -2.25456 2.32275 0
M  V30 10485 H 984.386 -0.405109 3.719 0
M  V30 10486 H 985.719 -0.552567 4.89088 0
M  V30 10487 N 987.371 -1.57444 0.0701946 0
M  V30 10488 C 988.321 -2.09154 -0.90767 0
M  V30 10489 C 989.305 -1.00087 -1.25982 0
M  V30 10490 O 990.497 -1.26397 -1.23906 0
M  V30 10491 C 987.626 -2.65544 -2.17581 0
M  V30 10492 C 986.712 -3.81613 -1.85021 0
M  V30 10493 N 987.103 -4.90641 -1.22904 0
M  V30 10494 C 985.401 -3.90878 -2.1478 0
M  V30 10495 C 986.102 -5.71511 -1.084 0
M  V30 10496 N 985.078 -5.1973 -1.59318 0
M  V30 10497 H 988.88 -2.90839 -0.423051 0
M  V30 10498 H 986.394 -1.61848 -0.13374 0
M  V30 10499 H 988.391 -3.00904 -2.88552 0
M  V30 10500 H 987.051 -1.85304 -2.66632 0
M  V30 10501 H 988.062 -5.1004 -0.898878 0
M  V30 10502 H 984.739 -3.21611 -2.66219 0
M  V30 10503 H 986.129 -6.69214 -0.600183 0
M  V30 10504 N 988.849 0.203349 -1.56283 0
M  V30 10505 C 990.26 0.768764 -1.70138 0
M  V30 10506 C 990.611 1.8421 -0.675358 0
M  V30 10507 O 989.736 2.15732 0.1699 0
M  V30 10508 C 990.331 1.40123 -3.08466 0
M  V30 10509 C 988.89 1.91382 -3.24114 0
M  V30 10510 C 988.037 0.780685 -2.66084 0
M  V30 10511 H 990.988 -0.0215997 -1.58685 0
M  V30 10512 H 991.009 2.27046 -3.05336 0
M  V30 10513 H 990.521 0.619805 -3.83119 0
M  V30 10514 H 988.622 2.7227 -2.54362 0
M  V30 10515 H 988.735 2.08128 -4.31531 0
M  V30 10516 H 987.099 1.19281 -2.25042 0
M  V30 10517 H 987.882 0.0116351 -3.43298 0
M  V30 10518 N 990.327 1.50405 0.470755 0
M  V30 10519 C 991.576 1.60652 1.21959 0
M  V30 10520 C 991.889 0.312521 1.93087 0
M  V30 10521 O 993.095 0.293901 2.69905 0
M  V30 10522 C 991.551 2.83581 2.21607 0
M  V30 10523 C 991.159 4.19858 1.5628 0
M  V30 10524 C 992.903 3.03173 2.9713 0
M  V30 10525 C 990.81 5.33974 2.54217 0
M  V30 10526 H 989.74 0.598264 0.458907 0
M  V30 10527 H 992.391 1.76836 0.490041 0
M  V30 10528 H 990.773 2.60957 2.97855 0
M  V30 10529 H 991.947 4.52738 0.85819 0
M  V30 10530 H 990.262 4.05873 0.930366 0
M  V30 10531 H 992.859 3.856 3.70428 0
M  V30 10532 H 993.202 2.14914 3.56536 0
M  V30 10533 H 993.735 3.2598 2.27995 0
M  V30 10534 H 990.474 6.24388 1.99549 0
M  V30 10535 H 989.994 5.05511 3.22829 0
M  V30 10536 H 991.673 5.64561 3.16039 0
M  V30 10537 N 991.805 -0.723954 1.39988 0
M  V30 10538 C 992.735 -1.85103 1.42335 0
M  V30 10539 C 993.716 -1.6769 0.285297 0
M  V30 10540 O 994.901 -1.87846 0.492716 0
M  V30 10541 C 992.031 -3.22972 1.27697 0
M  V30 10542 C 990.985 -3.55041 2.39018 0
M  V30 10543 C 990.311 -4.91965 2.09462 0
M  V30 10544 C 991.611 -3.56889 3.8135 0
M  V30 10545 H 993.305 -1.83396 2.36656 0
M  V30 10546 H 990.851 -0.880926 1.13911 0
M  V30 10547 H 992.804 -4.01503 1.27958 0
M  V30 10548 H 991.528 -3.25233 0.298487 0
M  V30 10549 H 990.187 -2.78845 2.37993 0
M  V30 10550 H 989.835 -4.90819 1.10025 0
M  V30 10551 H 989.535 -5.14389 2.84038 0
M  V30 10552 H 991.059 -5.7284 2.11391 0
M  V30 10553 H 992.473 -4.25476 3.84243 0
M  V30 10554 H 990.87 -3.90836 4.55376 0
M  V30 10555 H 991.94 -2.56452 4.11534 0
M  V30 10556 N 993.283 -1.25346 -0.955304 0
M  V30 10557 C 994.508 -1.12892 -1.73983 0
M  V30 10558 C 994.933 0.313455 -1.8547 0
M  V30 10559 O 994.291 1.22706 -1.33465 0
M  V30 10560 C 994.339 -1.78729 -3.1319 0
M  V30 10561 O 993.443 -1.06648 -3.98372 0
M  V30 10562 H 992.784 -0.394178 -0.534341 0
M  V30 10563 H 995.314 -1.65897 -1.19747 0
M  V30 10564 H 995.324 -1.84987 -3.63653 0
M  V30 10565 H 993.999 -2.83669 -3.04146 0
M  V30 10566 H 992.576 -1.08266 -3.56837 0
M  V30 10567 N 994.761 1.15782 -1.06922 0
M  V30 10568 C 995.989 1.90355 -0.81072 0
M  V30 10569 C 996.404 1.77779 0.635614 0
M  V30 10570 O 995.761 1.12675 1.43564 0
M  V30 10571 C 995.812 3.4085 -1.2043 0
M  V30 10572 O 995.533 3.53057 -2.59388 0
M  V30 10573 C 997.034 4.32457 -0.974473 0
M  V30 10574 H 994.254 0.60343 -0.293451 0
M  V30 10575 H 996.798 1.46723 -1.42452 0
M  V30 10576 H 994.953 3.82162 -0.634909 0
M  V30 10577 H 995.367 4.46426 -2.75326 0
M  V30 10578 H 996.841 5.36488 -1.29942 0
M  V30 10579 H 997.318 4.39109 0.0894481 0
M  V30 10580 H 997.924 3.96882 -1.52856 0
M  V30 10581 N 996.239 0.8527 1.3254 0
M  V30 10582 C 997.485 0.455798 1.97612 0
M  V30 10583 C 997.818 -0.985616 1.6733 0
M  V30 10584 O 997.093 -1.69129 0.960493 0
M  V30 10585 C 997.376 0.69312 3.53366 0
M  V30 10586 C 997.229 2.18281 3.93285 0
M  V30 10587 C 998.548 0.148236 4.3985 0
M  V30 10588 H 995.667 0.167078 0.717812 0
M  V30 10589 H 998.309 1.07076 1.56954 0
M  V30 10590 H 996.459 0.169677 3.88129 0
M  V30 10591 H 998.131 2.77218 3.68711 0
M  V30 10592 H 996.374 2.66206 3.42515 0
M  V30 10593 H 997.045 2.29957 5.01821 0
M  V30 10594 H 999.521 0.595834 4.11812 0
M  V30 10595 H 998.397 0.343873 5.47822 0
M  V30 10596 H 998.658 -0.948872 4.31797 0
M  V30 10597 N 997.718 -1.45297 0.610449 0
M  V30 10598 C 998.967 -2.0143 0.104323 0
M  V30 10599 C 999.28 -1.48431 -1.27388 0
M  V30 10600 O 1000.49 -1.96558 -1.87289 0
M  V30 10601 C 998.942 -3.59644 0.135812 0
M  V30 10602 C 998.55 -4.2164 1.51405 0
M  V30 10603 C 1000.29 -4.2333 -0.314922 0
M  V30 10604 C 998.201 -5.72015 1.50176 0
M  V30 10605 H 997.131 -0.753176 0.035233 0
M  V30 10606 H 999.782 -1.66738 0.7662 0
M  V30 10607 H 998.164 -3.91538 -0.592773 0
M  V30 10608 H 999.338 -4.01315 2.26457 0
M  V30 10609 H 997.653 -3.70159 1.90712 0
M  V30 10610 H 1000.25 -5.33597 -0.343335 0
M  V30 10611 H 1000.59 -3.94206 -1.33817 0
M  V30 10612 H 1001.13 -3.96163 0.360489 0
M  V30 10613 H 997.865 -6.05842 2.50271 0
M  V30 10614 H 997.385 -5.94523 0.793869 0
M  V30 10615 H 999.064 -6.35266 1.22665 0
M  V30 10616 N 999.196 -0.349774 -1.5367 0
M  V30 10617 C 1000.42 0.246038 -2.05432 0
M  V30 10618 C 1000.84 1.43719 -1.22435 0
M  V30 10619 O 1000.2 1.80622 -0.261166 0
M  V30 10620 C 1000.25 0.65501 -3.55516 0
M  V30 10621 O 999.968 -0.488782 -4.35365 0
M  V30 10622 C 1001.47 1.31088 -4.23475 0
M  V30 10623 H 998.689 0.0463952 -0.669394 0
M  V30 10624 H 1001.23 -0.503566 -1.98203 0
M  V30 10625 H 999.388 1.35455 -3.62947 0
M  V30 10626 H 999.802 -0.161528 -5.24251 0
M  V30 10627 H 1001.28 1.54774 -5.29857 0
M  V30 10628 H 1001.75 2.26636 -3.76208 0
M  V30 10629 H 1002.36 0.653211 -4.20254 0
M  V30 10630 N 1000.67 1.57404 -0.0785433 0
M  V30 10631 C 1001.92 1.9292 0.588626 0
M  V30 10632 C 1002.24 0.961106 1.70359 0
M  V30 10633 O 1003.44 1.20934 2.43079 0
M  V30 10634 C 1001.9 3.42729 1.09839 0
M  V30 10635 C 1001.51 4.47998 0.0140773 0
M  V30 10636 C 1003.25 3.87235 1.73924 0
M  V30 10637 C 1001.16 5.88945 0.538269 0
M  V30 10638 H 1000.09 0.720069 0.223645 0
M  V30 10639 H 1002.74 1.8287 -0.15187 0
M  V30 10640 H 1001.12 3.47875 1.89207 0
M  V30 10641 H 1002.29 4.54476 -0.760773 0
M  V30 10642 H 1000.61 4.13001 -0.53095 0
M  V30 10643 H 1003.21 4.89927 2.14186 0
M  V30 10644 H 1003.55 3.24971 2.60191 0
M  V30 10645 H 1004.08 3.84721 1.01168 0
M  V30 10646 H 1000.82 6.5487 -0.287395 0
M  V30 10647 H 1000.34 5.85972 1.28049 0
M  V30 10648 H 1002.02 6.39028 1.01253 0
M  V30 10649 N 1002.15 -0.195058 1.56388 0
M  V30 10650 C 1003.11 -1.2254 1.93692 0
M  V30 10651 C 1004.11 -1.38437 0.81804 0
M  V30 10652 O 1005.3 -1.36248 1.08545 0
M  V30 10653 C 1002.44 -2.59476 2.21099 0
M  V30 10654 H 1003.63 -0.906544 2.8587 0
M  V30 10655 H 1001.18 -0.436577 1.50079 0
M  V30 10656 H 1001.92 -2.96417 1.31558 0
M  V30 10657 H 1001.7 -2.4931 3.02634 0
M  V30 10658 H 1003.19 -3.33777 2.50964 0
M  V30 10659 N 1003.63 -1.50653 -0.462772 0
M  V30 10660 C 1004.91 -1.5258 -1.22387 0
M  V30 10661 C 1005.29 -0.275263 -2.09298 0
M  V30 10662 O 1004.63 0.740943 -2.16153 0
M  V30 10663 C 1004.84 -2.82611 -2.04773 0
M  V30 10664 C 1006.19 -3.33592 -2.62681 0
M  V30 10665 O 1007.22 -2.83989 -2.15008 0
M  V30 10666 O 1006.08 -4.20081 -3.49563 0
M  V30 10667 H 1003.17 -0.612367 -0.55582 0
M  V30 10668 H 1005.72 -1.62948 -0.473914 0
M  V30 10669 H 1004.49 -3.65098 -1.40781 0
M  V30 10670 H 1004.11 -2.75286 -2.86886 0
M  V30 10671 N 1005.11 0.71652 -1.4037 0
M  V30 10672 C 1006.02 1.86074 -1.42876 0
M  V30 10673 C 1007.03 1.71005 -0.321475 0
M  V30 10674 O 1008.21 1.93286 -0.565909 0
M  V30 10675 C 1005.28 3.21862 -1.28863 0
M  V30 10676 C 1004.34 3.49193 -2.49726 0
M  V30 10677 C 1003.57 4.78502 -2.36372 0
M  V30 10678 O 1003.79 5.53529 -1.37703 0
M  V30 10679 O 1002.73 5.06147 -3.25728 0
M  V30 10680 H 1006.55 1.86916 -2.39366 0
M  V30 10681 H 1004.14 0.866818 -1.21683 0
M  V30 10682 H 1006.02 4.02972 -1.23253 0
M  V30 10683 H 1004.69 3.2175 -0.354783 0
M  V30 10684 H 1003.6 2.68095 -2.60913 0
M  V30 10685 H 1004.93 3.54101 -3.41868 0
M  V30 10686 N 1006.59 1.25851 0.948643 0
M  V30 10687 C 1007.82 1.13546 1.726 0
M  V30 10688 C 1008.22 -0.312857 1.86595 0
M  V30 10689 O 1007.57 -1.22657 1.36751 0
M  V30 10690 C 1007.63 1.72315 3.15512 0
M  V30 10691 C 1007.29 3.2136 3.24926 0
M  V30 10692 C 1008.29 4.18274 3.08777 0
M  V30 10693 C 1005.98 3.61683 3.48555 0
M  V30 10694 C 1007.97 5.53491 3.16112 0
M  V30 10695 C 1005.66 4.97035 3.55526 0
M  V30 10696 C 1006.65 5.92749 3.3932 0
M  V30 10697 O 1006.34 7.25637 3.45985 0
M  V30 10698 H 1006.07 0.396555 0.547467 0
M  V30 10699 H 1008.63 1.66822 1.19832 0
M  V30 10700 H 1006.86 1.13494 3.6967 0
M  V30 10701 H 1008.55 1.55024 3.7513 0
M  V30 10702 H 1009.31 3.88461 2.90385 0
M  V30 10703 H 1005.19 2.87674 3.60229 0
M  V30 10704 H 1008.74 6.28177 3.0338 0
M  V30 10705 H 1004.63 5.26512 3.73437 0
M  V30 10706 H 1005.4 7.33812 3.62577 0
M  V30 10707 N 1008.06 -1.15214 1.07534 0
M  V30 10708 C 1009.34 -1.82155 0.71267 0
M  V30 10709 C 1009.72 -1.95163 -0.804655 0
M  V30 10710 O 1009.07 -1.50451 -1.71979 0
M  V30 10711 C 1009.28 -3.18392 1.42925 0
M  V30 10712 C 1010.63 -3.94005 1.58256 0
M  V30 10713 O 1011.65 -3.27952 1.39018 0
M  V30 10714 O 1010.51 -5.12436 1.89925 0
M  V30 10715 H 1007.6 -0.78709 0.253808 0
M  V30 10716 H 1010.15 -1.22309 1.17638 0
M  V30 10717 H 1008.92 -3.04034 2.46331 0
M  V30 10718 H 1008.55 -3.85925 0.956439 0
M  V30 10719 N 1009.54 -0.859717 -1.32086 0
M  V30 10720 C 1010.82 -0.386665 -1.9174 0
M  V30 10721 C 1011.2 1.13028 -1.78292 0
M  V30 10722 O 1010.55 1.95422 -1.18417 0
M  V30 10723 C 1010.76 -0.856648 -3.38323 0
M  V30 10724 C 1012.11 -0.87678 -4.15449 0
M  V30 10725 O 1013.13 -0.80162 -3.47063 0
M  V30 10726 O 1011.99 -0.98373 -5.37573 0
M  V30 10727 H 1009.08 -0.113758 -0.819139 0
M  V30 10728 H 1011.63 -0.946952 -1.40822 0
M  V30 10729 H 1010.4 -1.89996 -3.42078 0
M  V30 10730 H 1010.02 -0.274095 -3.96654 0
M  V30 10731 N 1011.02 1.44971 -0.618145 0
M  V30 10732 C 1011.97 2.30606 0.09449 0
M  V30 10733 C 1012.94 1.42725 0.849633 0
M  V30 10734 O 1014.12 1.71643 0.833266 0
M  V30 10735 C 1011.26 3.27803 1.07886 0
M  V30 10736 C 1010.38 4.30787 0.323488 0
M  V30 10737 C 1009.51 5.15085 1.29851 0
M  V30 10738 C 1008.55 6.09788 0.531561 0
M  V30 10739 N 1007.69 6.86829 1.4564 0
M  V30 10740 H 1012.53 2.91008 -0.641738 0
M  V30 10741 H 1010.06 1.43391 -0.328259 0
M  V30 10742 H 1012.02 3.82631 1.66281 0
M  V30 10743 H 1010.65 2.69131 1.78237 0
M  V30 10744 H 1009.7 3.78536 -0.376164 0
M  V30 10745 H 1011.02 4.98044 -0.274443 0
M  V30 10746 H 1010.17 5.74365 1.95421 0
M  V30 10747 H 1008.91 4.4787 1.93037 0
M  V30 10748 H 1007.91 5.49628 -0.137702 0
M  V30 10749 H 1009.14 6.79033 -0.0953993 0
M  V30 10750 H 1007.08 6.22295 2.07571 0
M  V30 10751 H 1007 7.50477 0.912167 0
M  V30 10752 H 1008.27 7.50642 2.10134 0
M  V30 10753 N 1012.5 0.357919 1.53482 0
M  V30 10754 C 1013.43 -0.526753 2.23065 0
M  V30 10755 C 1014.44 -1.05239 1.24212 0
M  V30 10756 O 1015.63 -0.960078 1.50482 0
M  V30 10757 C 1012.73 -1.73919 2.9087 0
M  V30 10758 C 1011.91 -1.34638 4.16163 0
M  V30 10759 C 1010.96 -2.42005 4.67247 0
M  V30 10760 O 1009.99 -2.04714 5.31113 0
M  V30 10761 N 1011.19 -3.73478 4.44404 0
M  V30 10762 H 1013.96 0.0692386 2.9962 0
M  V30 10763 H 1011.52 0.182726 1.60866 0
M  V30 10764 H 1013.51 -2.45207 3.21956 0
M  V30 10765 H 1012.08 -2.24223 2.17814 0
M  V30 10766 H 1011.3 -0.463667 3.91464 0
M  V30 10767 H 1012.59 -1.06012 4.97633 0
M  V30 10768 H 1011.99 -4.06555 3.93357 0
M  V30 10769 H 1010.54 -4.40893 4.80059 0
M  V30 10770 N 1013.98 -1.5736 0.0868897 0
M  V30 10771 C 1015.39 -1.81356 -0.443499 0
M  V30 10772 C 1015.74 -1.00192 -1.68689 0
M  V30 10773 O 1014.86 -0.228863 -2.15186 0
M  V30 10774 C 1015.46 -3.28941 -0.811387 0
M  V30 10775 C 1014.02 -3.53729 -1.28656 0
M  V30 10776 C 1013.16 -2.75891 -0.279153 0
M  V30 10777 H 1016.12 -1.55594 0.312427 0
M  V30 10778 H 1016.14 -3.41815 -1.6716 0
M  V30 10779 H 1015.65 -3.87987 0.0937598 0
M  V30 10780 H 1013.75 -3.00005 -2.2097 0
M  V30 10781 H 1013.86 -4.62396 -1.25406 0
M  V30 10782 H 1012.23 -2.4311 -0.759595 0
M  V30 10783 H 1013.01 -3.37682 0.618529 0
M  V30 10784 N 1015.45 0.186762 -1.56489 0
M  V30 10785 C 1016.38 1.23395 -1.98232 0
M  V30 10786 C 1017.37 1.4702 -0.855526 0
M  V30 10787 O 1018.55 1.58616 -1.12048 0
M  V30 10788 C 1015.68 2.57635 -2.32898 0
M  V30 10789 C 1014.63 2.48607 -3.48394 0
M  V30 10790 C 1013.96 3.87196 -3.68759 0
M  V30 10791 C 1015.26 2.00398 -4.82325 0
M  V30 10792 H 1016.95 0.887026 -2.85958 0
M  V30 10793 H 1014.5 0.42525 -1.37578 0
M  V30 10794 H 1016.45 3.31082 -2.60696 0
M  V30 10795 H 1015.18 2.94084 -1.42064 0
M  V30 10796 H 1013.84 1.77615 -3.207 0
M  V30 10797 H 1013.48 4.21012 -2.75241 0
M  V30 10798 H 1013.18 3.82029 -4.46462 0
M  V30 10799 H 1014.71 4.62253 -3.98941 0
M  V30 10800 H 1016.12 2.6361 -5.091 0
M  V30 10801 H 1014.52 2.06214 -5.63556 0
M  V30 10802 H 1015.59 0.957562 -4.75351 0
M  V30 10803 N 1016.93 1.50896 0.454776 0
M  V30 10804 C 1018.16 1.6648 1.22849 0
M  V30 10805 C 1018.58 0.354841 1.85435 0
M  V30 10806 O 1017.93 -0.664931 1.69956 0
M  V30 10807 C 1017.98 2.76787 2.32532 0
M  V30 10808 O 1017.7 4.02706 1.72509 0
M  V30 10809 C 1019.21 3.03488 3.23125 0
M  V30 10810 H 1016.43 0.559152 0.370932 0
M  V30 10811 H 1018.97 1.97215 0.540983 0
M  V30 10812 H 1017.12 2.48701 2.9703 0
M  V30 10813 H 1017.54 4.63834 2.44863 0
M  V30 10814 H 1019.01 3.84294 3.9626 0
M  V30 10815 H 1019.49 2.152 3.82865 0
M  V30 10816 H 1020.1 3.33167 2.64347 0
M  V30 10817 N 1018.41 -0.709066 1.40748 0
M  V30 10818 C 1019.64 -1.50313 1.42901 0
M  V30 10819 C 1020.06 -1.88072 0.032213 0
M  V30 10820 O 1019.42 -1.53716 -0.96131 0
M  V30 10821 C 1019.47 -2.75074 2.33166 0
M  V30 10822 O 1018.57 -3.72036 1.7794 0
M  V30 10823 H 1017.91 -0.452934 0.485538 0
M  V30 10824 H 1020.44 -0.872712 1.85054 0
M  V30 10825 H 1020.45 -3.23532 2.48578 0
M  V30 10826 H 1019.13 -2.46927 3.34664 0
M  V30 10827 H 1017.7 -3.30911 1.71908 0
M  V30 10828 N 1019.89 -1.26353 -0.941956 0
M  V30 10829 C 1020.84 -1.07842 -2.04056 0
M  V30 10830 C 1021.81 0.0163064 -1.66092 0
M  V30 10831 O 1022.99 -0.143313 -1.90261 0
M  V30 10832 C 1020.13 -0.716636 -3.37577 0
M  V30 10833 C 1019.24 -1.88754 -3.88582 0
M  V30 10834 C 1018.38 -1.46893 -5.10486 0
M  V30 10835 C 1017.42 -2.60819 -5.53751 0
M  V30 10836 N 1016.56 -2.19646 -6.66858 0
M  V30 10837 H 1021.4 -2.01856 -2.19221 0
M  V30 10838 H 1018.93 -1.00504 -1.07412 0
M  V30 10839 H 1020.89 -0.487768 -4.14339 0
M  V30 10840 H 1019.52 0.18653 -3.22261 0
M  V30 10841 H 1018.57 -2.22936 -3.08227 0
M  V30 10842 H 1019.88 -2.74264 -4.1663 0
M  V30 10843 H 1019.04 -1.20047 -5.94705 0
M  V30 10844 H 1017.78 -0.584721 -4.84182 0
M  V30 10845 H 1016.78 -2.88396 -4.6809 0
M  V30 10846 H 1018.01 -3.49838 -5.82057 0
M  V30 10847 H 1015.95 -1.33657 -6.4224 0
M  V30 10848 H 1015.87 -2.987 -6.94489 0
M  V30 10849 H 1017.14 -1.96009 -7.54454 0
M  V30 10850 N 1021.37 1.14642 -1.08144 0
M  V30 10851 C 1022.28 2.23257 -0.720668 0
M  V30 10852 C 1023.29 1.71866 0.271648 0
M  V30 10853 O 1024.47 2.01064 0.116266 0
M  V30 10854 C 1021.53 3.46447 -0.132542 0
M  V30 10855 C 1020.6 4.12789 -1.17913 0
M  V30 10856 C 1019.83 5.30099 -0.618971 0
M  V30 10857 O 1020.05 5.6762 0.562418 0
M  V30 10858 O 1018.99 5.86154 -1.36774 0
M  V30 10859 H 1022.81 2.56463 -1.62667 0
M  V30 10860 H 1020.4 1.22521 -0.854932 0
M  V30 10861 H 1022.28 4.20959 0.19277 0
M  V30 10862 H 1020.95 3.14971 0.746662 0
M  V30 10863 H 1019.86 3.40163 -1.55693 0
M  V30 10864 H 1021.19 4.48365 -2.03051 0
M  V30 10865 N 1022.85 0.866709 1.31628 0
M  V30 10866 C 1023.76 0.323408 2.3236 0
M  V30 10867 C 1024.77 -0.564995 1.64572 0
M  V30 10868 O 1025.95 -0.462489 1.96018 0
M  V30 10869 C 1023.01 -0.469045 3.43513 0
M  V30 10870 C 1022.07 0.446928 4.26967 0
M  V30 10871 C 1021.31 -0.307799 5.32812 0
M  V30 10872 O 1021.53 -1.5363 5.49321 0
M  V30 10873 O 1020.46 0.332653 6.0098 0
M  V30 10874 H 1024.29 1.15827 2.80745 0
M  V30 10875 H 1021.87 0.629987 1.35468 0
M  V30 10876 H 1023.76 -0.918405 4.1127 0
M  V30 10877 H 1022.43 -1.28051 2.97296 0
M  V30 10878 H 1021.34 0.944719 3.61975 0
M  V30 10879 H 1022.67 1.2239 4.76741 0
M  V30 10880 N 1024.32 -1.44642 0.625825 0
M  V30 10881 C 1025.23 -2.34451 -0.0836134 0
M  V30 10882 C 1026.25 -1.5231 -0.841289 0
M  V30 10883 O 1027.43 -1.85056 -0.794754 0
M  V30 10884 C 1024.49 -3.30211 -1.05648 0
M  V30 10885 C 1023.55 -4.28259 -0.298759 0
M  V30 10886 C 1022.78 -5.19444 -1.22528 0
M  V30 10887 O 1023.01 -5.14444 -2.46382 0
M  V30 10888 O 1021.94 -5.97668 -0.71247 0
M  V30 10889 H 1025.77 -2.96555 0.654912 0
M  V30 10890 H 1023.35 -1.44327 0.386029 0
M  V30 10891 H 1025.23 -3.8917 -1.61632 0
M  V30 10892 H 1023.91 -2.70648 -1.77571 0
M  V30 10893 H 1022.82 -3.72863 0.304001 0
M  V30 10894 H 1024.15 -4.90728 0.380345 0
M  V30 10895 N 1025.8 -0.366053 -1.5329 0
M  V30 10896 C 1026.71 0.488111 -2.29466 0
M  V30 10897 C 1027.73 1.09219 -1.35452 0
M  V30 10898 O 1028.9 1.10303 -1.68509 0
M  V30 10899 C 1025.97 1.61202 -3.06944 0
M  V30 10900 C 1025.03 1.03543 -4.16626 0
M  V30 10901 C 1024.26 2.10578 -4.904 0
M  V30 10902 O 1024.49 3.31697 -4.6404 0
M  V30 10903 O 1023.42 1.73609 -5.76319 0
M  V30 10904 H 1027.25 -0.131789 -3.03414 0
M  V30 10905 H 1024.83 -0.130421 -1.4883 0
M  V30 10906 H 1026.71 2.26546 -3.55324 0
M  V30 10907 H 1025.39 2.21732 -2.35832 0
M  V30 10908 H 1024.29 0.345892 -3.72498 0
M  V30 10909 H 1025.63 0.474687 -4.89906 0
M  V30 10910 N 1027.28 1.57312 -0.0952337 0
M  V30 10911 C 1028.7 1.57445 0.261416 0
M  V30 10912 C 1028.9 1.10639 1.68408 0
M  V30 10913 O 1027.95 0.782912 2.40056 0
M  V30 10914 C 1029.26 3.00659 0.0497206 0
M  V30 10915 C 1030.81 3.1278 0.117459 0
M  V30 10916 C 1031.29 4.57952 -0.0662441 0
M  V30 10917 N 1032.78 4.63199 -0.0114146 0
M  V30 10918 C 1033.51 5.73255 -0.128799 0
M  V30 10919 N 1033.01 6.92146 -0.301026 0
M  V30 10920 N 1034.8 5.62056 -0.0700599 0
M  V30 10921 H 1026.95 1.86045 -1.02475 0
M  V30 10922 H 1029.22 0.858726 -0.401614 0
M  V30 10923 H 1028.92 3.39102 -0.932888 0
M  V30 10924 H 1028.8 3.68792 0.791975 0
M  V30 10925 H 1031.18 2.74209 1.09057 0
M  V30 10926 H 1031.26 2.47238 -0.656288 0
M  V30 10927 H 1030.91 4.97217 -1.03623 0
M  V30 10928 H 1030.84 5.21555 0.727198 0
M  V30 10929 H 1033.33 3.77712 0.119154 0
M  V30 10930 H 1033.64 7.71855 -0.382104 0
M  V30 10931 H 1031.99 6.94184 -0.336695 0
M  V30 10932 H 1035.18 4.68057 0.0633587 0
M  V30 10933 H 1035.35 6.4779 -0.164991 0
M  V30 10934 N 1028.76 -0.17846 1.56586 0
M  V30 10935 C 1030.17 -0.529957 1.50544 0
M  V30 10936 C 1030.37 -1.85015 0.798237 0
M  V30 10937 O 1029.43 -2.49983 0.355639 0
M  V30 10938 C 1030.74 -0.569314 2.95261 0
M  V30 10939 C 1032.29 -0.657008 3.06027 0
M  V30 10940 C 1032.77 -0.727323 4.52188 0
M  V30 10941 N 1034.26 -0.790406 4.56406 0
M  V30 10942 C 1034.99 -0.865265 5.66834 0
M  V30 10943 N 1034.49 -0.901398 6.86911 0
M  V30 10944 N 1036.28 -0.903736 5.54787 0
M  V30 10945 H 1028.43 0.687304 2.00972 0
M  V30 10946 H 1030.69 0.246936 0.915274 0
M  V30 10947 H 1030.4 0.331934 3.5013 0
M  V30 10948 H 1030.27 -1.41828 3.4952 0
M  V30 10949 H 1032.66 -1.54868 2.51197 0
M  V30 10950 H 1032.74 0.218495 2.54865 0
M  V30 10951 H 1032.39 0.160067 5.07648 0
M  V30 10952 H 1032.32 -1.61887 5.01099 0
M  V30 10953 H 1034.81 -0.771054 3.6995 0
M  V30 10954 H 1035.12 -0.959494 7.6682 0
M  V30 10955 H 1033.47 -0.869795 6.89536 0
M  V30 10956 H 1036.66 -0.872459 4.59898 0
M  V30 10957 H 1036.83 -0.958615 6.4087 0
M  V30 10958 N 1030.24 -1.51135 -0.446768 0
M  V30 10959 C 1031.48 -1.62571 -1.19388 0
M  V30 10960 C 1031.8 -0.3432 -1.92566 0
M  V30 10961 O 1033 -0.336804 -2.69403 0
M  V30 10962 C 1031.46 -2.87071 -2.17068 0
M  V30 10963 C 1031.07 -4.22291 -1.49581 0
M  V30 10964 C 1032.81 -3.07862 -2.9227 0
M  V30 10965 C 1030.72 -5.3795 -2.45689 0
M  V30 10966 H 1029.65 -0.60549 -0.449331 0
M  V30 10967 H 1032.3 -1.77593 -0.461846 0
M  V30 10968 H 1030.68 -2.65662 -2.93666 0
M  V30 10969 H 1031.86 -4.54046 -0.786054 0
M  V30 10970 H 1030.17 -4.07302 -0.865677 0
M  V30 10971 H 1032.77 -3.91444 -3.64246 0
M  V30 10972 H 1033.11 -2.20559 -3.53072 0
M  V30 10973 H 1033.64 -3.29566 -2.2278 0
M  V30 10974 H 1030.38 -6.27484 -1.89591 0
M  V30 10975 H 1029.9 -5.10583 -3.14746 0
M  V30 10976 H 1031.58 -5.69517 -3.07017 0
M  V30 10977 N 1031.71 0.701592 -1.41122 0
M  V30 10978 C 1032.68 1.79733 -1.42227 0
M  V30 10979 C 1033.68 1.57708 -0.313831 0
M  V30 10980 O 1034.87 1.64492 -0.573423 0
M  V30 10981 C 1032 3.18024 -1.22775 0
M  V30 10982 H 1033.19 1.80148 -2.39764 0
M  V30 10983 H 1030.74 0.908624 -1.27176 0
M  V30 10984 H 1031.48 3.23252 -0.260552 0
M  V30 10985 H 1031.26 3.35411 -2.0308 0
M  V30 10986 H 1032.75 3.98021 -1.2637 0
M  V30 10987 N 1033.19 1.2685 0.935242 0
M  V30 10988 C 1034.1 1.10716 2.06831 0
M  V30 10989 C 1035.12 0.0391222 1.73956 0
M  V30 10990 O 1036.29 0.244071 1.99916 0
M  V30 10991 C 1033.36 0.748093 3.38533 0
M  V30 10992 C 1032.42 1.89619 3.85153 0
M  V30 10993 C 1031.65 1.55416 5.1057 0
M  V30 10994 O 1031.88 0.458596 5.68553 0
M  V30 10995 O 1030.81 2.39087 5.52378 0
M  V30 10996 H 1034.64 2.05785 2.23352 0
M  V30 10997 H 1032.22 1.05967 1.05315 0
M  V30 10998 H 1034.1 0.560841 4.17651 0
M  V30 10999 H 1032.78 -0.173142 3.23237 0
M  V30 11000 H 1031.68 2.13845 3.06954 0
M  V30 11001 H 1033.02 2.79737 4.04979 0
M  V30 11002 N 1034.67 -1.14067 1.0875 0
M  V30 11003 C 1035.6 -2.18306 0.664652 0
M  V30 11004 C 1036.58 -1.59312 -0.325359 0
M  V30 11005 O 1037.77 -1.87111 -0.228385 0
M  V30 11006 C 1034.89 -3.38693 -0.0218723 0
M  V30 11007 C 1033.94 -4.16263 0.928844 0
M  V30 11008 S 1034.77 -4.76817 2.43734 0
M  V30 11009 C 1035.93 -6.00557 1.76302 0
M  V30 11010 H 1036.16 -2.53837 1.54772 0
M  V30 11011 H 1033.69 -1.25254 0.902817 0
M  V30 11012 H 1035.65 -4.0843 -0.411686 0
M  V30 11013 H 1034.31 -3.01478 -0.881481 0
M  V30 11014 H 1033.51 -5.02446 0.395446 0
M  V30 11015 H 1033.11 -3.52146 1.25972 0
M  V30 11016 H 1035.4 -6.68788 1.08301 0
M  V30 11017 H 1036.34 -6.58492 2.60373 0
M  V30 11018 H 1036.75 -5.50827 1.23489 0
M  V30 11019 N 1036.15 -0.873678 -1.31166 0
M  V30 11020 C 1037.4 -0.485497 -1.96182 0
M  V30 11021 C 1037.72 0.96621 -1.69379 0
M  V30 11022 O 1036.99 1.67783 -1.01121 0
M  V30 11023 H 1035.57 -0.176547 -0.725838 0
M  V30 11024 H 1038.23 -1.11428 -1.59906 0
M  V30 11025 H 1037.33 -0.646325 -3.05334 0
M  V30 11026 N 1037.63 1.44308 -0.633487 0
M  V30 11027 C 1039.04 1.56768 -0.29931 0
M  V30 11028 C 1039.24 1.62061 1.19743 0
M  V30 11029 O 1038.3 1.56492 1.98158 0
M  V30 11030 C 1039.61 2.8382 -0.993307 0
M  V30 11031 C 1041.16 2.97536 -0.971674 0
M  V30 11032 C 1041.63 4.27393 -1.64618 0
M  V30 11033 N 1043.13 4.34212 -1.61288 0
M  V30 11034 C 1043.86 5.33415 -2.1037 0
M  V30 11035 N 1043.36 6.3901 -2.67653 0
M  V30 11036 N 1045.15 5.24939 -2.00985 0
M  V30 11037 H 1037.3 1.39115 -1.60501 0
M  V30 11038 H 1039.56 0.666804 -0.673852 0
M  V30 11039 H 1039.27 2.85902 -2.04823 0
M  V30 11040 H 1039.14 3.73422 -0.532537 0
M  V30 11041 H 1041.53 2.95005 0.0747854 0
M  V30 11042 H 1041.61 2.09276 -1.47096 0
M  V30 11043 H 1041.26 4.30683 -2.6921 0
M  V30 11044 H 1041.19 5.14515 -1.12171 0
M  V30 11045 H 1043.68 3.58519 -1.19468 0
M  V30 11046 H 1043.99 7.10994 -3.02831 0
M  V30 11047 H 1042.33 6.39689 -2.71705 0
M  V30 11048 H 1045.53 4.41357 -1.55953 0
M  V30 11049 H 1045.7 6.02097 -2.39547 0
M  V30 11050 N 1039.1 0.374177 1.53094 0
M  V30 11051 C 1040.52 -0.103172 1.86415 0
M  V30 11052 C 1040.87 -1.47439 1.29446 0
M  V30 11053 O 1039.99 -2.07333 0.619853 0
M  V30 11054 C 1040.59 -0.193988 3.38244 0
M  V30 11055 C 1039.15 -0.615605 3.71332 0
M  V30 11056 C 1038.29 0.23186 2.76329 0
M  V30 11057 H 1041.24 0.592644 1.47219 0
M  V30 11058 H 1041.26 -1.01597 3.66686 0
M  V30 11059 H 1040.78 0.80414 3.79678 0
M  V30 11060 H 1038.88 -1.62165 3.3546 0
M  V30 11061 H 1038.99 -0.38425 4.77557 0
M  V30 11062 H 1037.35 -0.300579 2.5292 0
M  V30 11063 H 1038.14 1.22769 3.20597 0
M  V30 11064 N 1040.58 -1.57259 0.103575 0
M  V30 11065 C 1041.83 -1.93832 -0.55786 0
M  V30 11066 C 1042.14 -0.988087 -1.68808 0
M  V30 11067 O 1043.35 -1.24786 -2.41124 0
M  V30 11068 C 1041.81 -3.44433 -1.04373 0
M  V30 11069 C 1041.41 -4.47963 0.0571971 0
M  V30 11070 C 1043.16 -3.89953 -1.67742 0
M  V30 11071 C 1041.07 -5.89727 -0.444505 0
M  V30 11072 H 1040 -0.723536 -0.212161 0
M  V30 11073 H 1042.65 -1.82606 0.180944 0
M  V30 11074 H 1041.03 -3.50841 -1.83648 0
M  V30 11075 H 1042.2 -4.53209 0.83298 0
M  V30 11076 H 1040.52 -4.12104 0.596588 0
M  V30 11077 H 1043.11 -4.93272 -2.06365 0
M  V30 11078 H 1043.46 -3.2907 -2.54988 0
M  V30 11079 H 1043.99 -3.86281 -0.950342 0
M  V30 11080 H 1040.73 -6.5433 0.391543 0
M  V30 11081 H 1040.25 -5.87935 -1.18711 0
M  V30 11082 H 1041.93 -6.40558 -0.910739 0
M  V30 11083 N 1042.06 0.170153 -1.56679 0
M  V30 11084 C 1042.99 1.21285 -1.9953 0
M  V30 11085 C 1043.97 1.46104 -0.871071 0
M  V30 11086 O 1045.16 1.57419 -1.13724 0
M  V30 11087 C 1042.29 2.5515 -2.35618 0
M  V30 11088 C 1041.24 2.44898 -3.51011 0
M  V30 11089 C 1040.57 3.83263 -3.72845 0
M  V30 11090 C 1041.87 1.95271 -4.84424 0
M  V30 11091 H 1043.56 0.856646 -2.86883 0
M  V30 11092 H 1041.11 0.410634 -1.38021 0
M  V30 11093 H 1043.06 3.28299 -2.64193 0
M  V30 11094 H 1041.78 2.92561 -1.45175 0
M  V30 11095 H 1040.44 1.74203 -3.22566 0
M  V30 11096 H 1040.09 4.18069 -2.79691 0
M  V30 11097 H 1039.79 3.77272 -4.50488 0
M  V30 11098 H 1041.31 4.57996 -4.03822 0
M  V30 11099 H 1042.73 2.58195 -5.11867 0
M  V30 11100 H 1041.13 2.00225 -5.65712 0
M  V30 11101 H 1042.2 0.90709 -4.7634 0
M  V30 11102 N 1043.54 1.5137 0.438746 0
M  V30 11103 C 1044.79 1.63645 1.18595 0
M  V30 11104 C 1045.11 0.354241 1.91755 0
M  V30 11105 O 1044.38 -0.629838 1.85499 0
M  V30 11106 H 1042.96 0.603103 0.440767 0
M  V30 11107 H 1045.62 1.88293 0.503159 0
M  V30 11108 H 1044.72 2.46342 1.9163 0
M  V30 11109 N 1045.02 -0.694098 1.41492 0
M  V30 11110 C 1045.93 -1.83778 1.45818 0
M  V30 11111 C 1046.94 -1.70471 0.348639 0
M  V30 11112 O 1048.12 -1.92361 0.596588 0
M  V30 11113 C 1045.18 -3.19771 1.33967 0
M  V30 11114 C 1044.24 -3.45175 2.5525 0
M  V30 11115 C 1043.48 -4.74681 2.43955 0
M  V30 11116 O 1043.7 -5.51268 1.46491 0
M  V30 11117 O 1042.63 -5.00901 3.33739 0
M  V30 11118 H 1046.46 -1.83084 2.42309 0
M  V30 11119 H 1044.05 -0.847349 1.23046 0
M  V30 11120 H 1045.93 -4.00961 1.29648 0
M  V30 11121 H 1044.6 -3.21145 0.405926 0
M  V30 11122 H 1043.51 -2.6391 2.65146 0
M  V30 11123 H 1044.84 -3.48617 3.47458 0
M  V30 11124 N 1046.49 -1.27344 -0.928501 0
M  V30 11125 C 1047.44 -1.06656 -2.01515 0
M  V30 11126 C 1048.43 0.00516619 -1.60899 0
M  V30 11127 O 1049.62 -0.213277 -1.7571 0
M  V30 11128 C 1046.75 -0.714935 -3.35773 0
M  V30 11129 C 1045.84 -1.82476 -3.82836 0
M  V30 11130 N 1046.23 -3.06421 -4.02417 0
M  V30 11131 C 1044.52 -1.71126 -4.11864 0
M  V30 11132 C 1045.23 -3.78637 -4.41598 0
M  V30 11133 N 1044.2 -3.06396 -4.49024 0
M  V30 11134 H 1048 -2.00718 -2.14685 0
M  V30 11135 H 1045.52 -1.18048 -1.11528 0
M  V30 11136 H 1047.51 -0.54784 -4.13285 0
M  V30 11137 H 1046.17 0.218069 -3.23967 0
M  V30 11138 H 1047.19 -3.42191 -3.88749 0
M  V30 11139 H 1043.86 -0.849031 -4.08776 0
M  V30 11140 H 1045.25 -4.85159 -4.64834 0
M  V30 11141 N 1047.97 1.13488 -1.09353 0
M  V30 11142 C 1049.2 1.88592 -0.850915 0
M  V30 11143 C 1049.62 1.79087 0.597761 0
M  V30 11144 O 1048.97 1.15695 1.41142 0
M  V30 11145 C 1049.02 3.38219 -1.27633 0
M  V30 11146 O 1048.74 3.47476 -2.66819 0
M  V30 11147 C 1050.25 4.30293 -1.06598 0
M  V30 11148 H 1047.47 0.597069 -0.306185 0
M  V30 11149 H 1050.01 1.43668 -1.45533 0
M  V30 11150 H 1048.16 3.80729 -0.715828 0
M  V30 11151 H 1048.58 4.40485 -2.84733 0
M  V30 11152 H 1050.05 5.33611 -1.41293 0
M  V30 11153 H 1050.53 4.392 -0.0037135 0
M  V30 11154 H 1051.14 3.9355 -1.6124 0
M  V30 11155 N 1049.45 0.880621 1.30701 0
M  V30 11156 C 1050.4 0.342397 2.28246 0
M  V30 11157 C 1051.37 -0.565023 1.56194 0
M  V30 11158 O 1052.55 -0.494377 1.84284 0
M  V30 11159 C 1049.69 -0.440859 3.42272 0
M  V30 11160 C 1048.81 0.495284 4.29151 0
M  V30 11161 C 1047.94 -0.303141 5.30334 0
M  V30 11162 C 1046.98 0.628751 6.08862 0
M  V30 11163 N 1046.12 -0.13408 7.01972 0
M  V30 11164 H 1050.96 1.17938 2.73669 0
M  V30 11165 H 1048.49 0.59296 1.34619 0
M  V30 11166 H 1050.45 -0.910854 4.07135 0
M  V30 11167 H 1049.08 -1.24245 2.97931 0
M  V30 11168 H 1048.13 1.08376 3.64635 0
M  V30 11169 H 1049.45 1.2094 4.83916 0
M  V30 11170 H 1048.6 -0.835181 6.00924 0
M  V30 11171 H 1047.34 -1.05049 4.76252 0
M  V30 11172 H 1046.34 1.17246 5.37153 0
M  V30 11173 H 1047.57 1.37512 6.65032 0
M  V30 11174 H 1045.52 -0.864046 6.50285 0
M  V30 11175 H 1045.43 0.520486 7.54206 0
M  V30 11176 H 1046.7 -0.647005 7.7681 0
M  V30 11177 N 1050.93 -1.4397 0.641131 0
M  V30 11178 C 1051.86 -2.33458 -0.04446 0
M  V30 11179 C 1052.84 -1.48781 -0.824507 0
M  V30 11180 O 1054.03 -1.77477 -0.788397 0
M  V30 11181 C 1051.16 -3.31989 -1.01984 0
M  V30 11182 C 1050.11 -4.2656 -0.350745 0
M  V30 11183 C 1049.44 -5.15036 -1.43673 0
M  V30 11184 C 1050.74 -5.16897 0.749299 0
M  V30 11185 H 1052.43 -2.91034 0.702832 0
M  V30 11186 H 1049.98 -1.39942 0.339435 0
M  V30 11187 H 1051.93 -3.93483 -1.50828 0
M  V30 11188 H 1050.65 -2.72643 -1.79815 0
M  V30 11189 H 1049.31 -3.66413 0.117139 0
M  V30 11190 H 1048.96 -4.52037 -2.20617 0
M  V30 11191 H 1048.66 -5.79125 -0.994358 0
M  V30 11192 H 1050.18 -5.79403 -1.92678 0
M  V30 11193 H 1051.6 -5.7227 0.343534 0
M  V30 11194 H 1049.99 -5.89643 1.11541 0
M  V30 11195 H 1051.06 -4.5731 1.61232 0
M  V30 11196 N 1052.41 -0.382291 -1.52893 0
M  V30 11197 C 1053.32 0.463745 -2.29971 0
M  V30 11198 C 1054.33 1.07777 -1.36602 0
M  V30 11199 O 1055.51 1.0851 -1.69669 0
M  V30 11200 C 1052.57 1.57938 -3.08637 0
M  V30 11201 C 1051.64 0.991182 -4.17701 0
M  V30 11202 C 1050.87 2.05365 -4.92606 0
M  V30 11203 O 1051.09 3.26757 -4.67532 0
M  V30 11204 O 1050.03 1.67487 -5.78128 0
M  V30 11205 H 1053.85 -0.163962 -3.03257 0
M  V30 11206 H 1051.44 -0.146199 -1.48683 0
M  V30 11207 H 1053.32 2.22765 -3.57706 0
M  V30 11208 H 1051.99 2.19218 -2.3817 0
M  V30 11209 H 1050.9 0.306364 -3.72843 0
M  V30 11210 H 1052.23 0.422699 -4.90382 0
M  V30 11211 N 1053.89 1.57202 -0.111913 0
M  V30 11212 C 1055.13 1.95239 0.548607 0
M  V30 11213 C 1055.46 0.994897 1.6678 0
M  V30 11214 O 1054.74 0.0308603 1.94476 0
M  V30 11215 C 1055.02 3.43271 1.08798 0
M  V30 11216 C 1054.88 4.49792 -0.0273064 0
M  V30 11217 C 1056.19 3.92989 1.98109 0
M  V30 11218 H 1053.31 0.709919 0.197951 0
M  V30 11219 H 1055.96 1.89087 -0.186036 0
M  V30 11220 H 1054.11 3.48644 1.71404 0
M  V30 11221 H 1055.78 4.56521 -0.662302 0
M  V30 11222 H 1054.02 4.28254 -0.691426 0
M  V30 11223 H 1054.69 5.50612 0.391201 0
M  V30 11224 H 1057.17 3.89875 1.45385 0
M  V30 11225 H 1056.04 4.97101 2.32769 0
M  V30 11226 H 1056.3 3.33267 2.90492 0
M  V30 11227 N 1055.36 -0.161842 1.56767 0
M  V30 11228 C 1056.61 -0.875278 1.81719 0
M  V30 11229 C 1056.93 -1.82998 0.690739 0
M  V30 11230 O 1058.13 -2.58648 0.82545 0
M  V30 11231 C 1056.59 -1.60703 3.22029 0
M  V30 11232 C 1056.2 -0.695486 4.42569 0
M  V30 11233 C 1057.94 -2.30813 3.56266 0
M  V30 11234 C 1055.85 -1.42801 5.73901 0
M  V30 11235 H 1054.78 -0.330591 0.677662 0
M  V30 11236 H 1057.43 -0.128112 1.83052 0
M  V30 11237 H 1055.81 -2.39929 3.1504 0
M  V30 11238 H 1056.98 0.0604882 4.6076 0
M  V30 11239 H 1055.3 -0.10356 4.16271 0
M  V30 11240 H 1057.9 -2.86229 4.51638 0
M  V30 11241 H 1058.24 -3.06603 2.81604 0
M  V30 11242 H 1058.77 -1.5852 3.64851 0
M  V30 11243 H 1055.51 -0.712253 6.51619 0
M  V30 11244 H 1055.03 -2.15707 5.5967 0
M  V30 11245 H 1056.71 -1.97295 6.16185 0
M  V30 11246 N 1056.84 -1.516 -0.430713 0
M  V30 11247 C 1058.09 -1.63829 -1.17657 0
M  V30 11248 C 1058.4 -0.363605 -1.92191 0
M  V30 11249 O 1059.61 -0.365358 -2.6903 0
M  V30 11250 C 1058.07 -2.89357 -2.14011 0
M  V30 11251 C 1057.67 -4.23854 -1.45094 0
M  V30 11252 C 1059.42 -3.10944 -2.88988 0
M  V30 11253 C 1057.32 -5.40526 -2.3997 0
M  V30 11254 H 1056.25 -0.610221 -0.442884 0
M  V30 11255 H 1058.91 -1.78073 -0.442984 0
M  V30 11256 H 1057.29 -2.68762 -2.90832 0
M  V30 11257 H 1058.46 -4.54854 -0.737853 0
M  V30 11258 H 1056.78 -4.08197 -0.822429 0
M  V30 11259 H 1059.37 -3.95286 -3.60074 0
M  V30 11260 H 1059.72 -2.24291 -3.50712 0
M  V30 11261 H 1060.25 -3.3191 -2.19272 0
M  V30 11262 H 1056.99 -6.29459 -1.82925 0
M  V30 11263 H 1056.51 -5.13893 -3.09313 0
M  V30 11264 H 1058.19 -5.72741 -3.00959 0
M  V30 11265 N 1058.32 0.686584 -1.41858 0
M  V30 11266 C 1059.23 1.83002 -1.46791 0
M  V30 11267 C 1060.25 1.70284 -0.357675 0
M  V30 11268 O 1061.42 1.92042 -0.606781 0
M  V30 11269 C 1058.49 3.19056 -1.35661 0
M  V30 11270 C 1057.55 3.43817 -2.57077 0
M  V30 11271 C 1056.78 4.7338 -2.46469 0
M  V30 11272 O 1057 5.50483 -1.49413 0
M  V30 11273 O 1055.94 4.99124 -3.36391 0
M  V30 11274 H 1059.76 1.81797 -2.43277 0
M  V30 11275 H 1057.35 0.840812 -1.23494 0
M  V30 11276 H 1059.23 4.00267 -1.31773 0
M  V30 11277 H 1057.91 3.20925 -0.422951 0
M  V30 11278 H 1056.81 2.625 -2.66541 0
M  V30 11279 H 1058.15 3.4677 -3.49302 0
M  V30 11280 N 1059.8 1.27835 0.921735 0
M  V30 11281 C 1060.71 1.12904 2.05645 0
M  V30 11282 C 1061.72 0.0575704 1.73905 0
M  V30 11283 O 1062.9 0.265261 1.99645 0
M  V30 11284 C 1059.96 0.783957 3.3772 0
M  V30 11285 C 1059.03 1.93694 3.8312 0
M  V30 11286 C 1058.26 1.60823 5.08893 0
M  V30 11287 O 1058.48 0.518873 5.68035 0
M  V30 11288 O 1057.42 2.44932 5.49811 0
M  V30 11289 H 1061.24 2.08143 2.21157 0
M  V30 11290 H 1058.83 1.07078 1.04185 0
M  V30 11291 H 1060.71 0.605107 4.17033 0
M  V30 11292 H 1059.38 -0.138849 3.23402 0
M  V30 11293 H 1058.29 2.17089 3.04669 0
M  V30 11294 H 1059.62 2.84016 4.0199 0
M  V30 11295 N 1061.28 -1.12907 1.09954 0
M  V30 11296 C 1062.5 -1.88679 0.861099 0
M  V30 11297 C 1062.93 -1.78853 -0.582499 0
M  V30 11298 O 1062.28 -1.13992 -1.4098 0
M  V30 11299 C 1062.33 -3.36047 1.30785 0
M  V30 11300 O 1061.44 -4.09716 0.469728 0
M  V30 11301 H 1060.78 -0.586447 0.31141 0
M  V30 11302 H 1063.31 -1.42818 1.46507 0
M  V30 11303 H 1063.32 -3.86882 1.29562 0
M  V30 11304 H 1061.99 -3.42516 2.35914 0
M  V30 11305 H 1060.57 -3.6887 0.54674 0
M  V30 11306 N 1062.75 -0.88754 -1.30232 0
M  V30 11307 C 1063.98 -0.521549 -1.99909 0
M  V30 11308 C 1064.39 0.895086 -1.66688 0
M  V30 11309 O 1063.73 1.60053 -0.90159 0
M  V30 11310 C 1063.8 -0.619564 -3.54121 0
M  V30 11311 C 1063.46 -2.00097 -4.10865 0
M  V30 11312 C 1064.46 -2.97068 -4.26669 0
M  V30 11313 C 1062.14 -2.30706 -4.46184 0
M  V30 11314 C 1064.14 -4.2278 -4.77007 0
M  V30 11315 C 1061.82 -3.56663 -4.96221 0
M  V30 11316 C 1062.82 -4.52515 -5.11585 0
M  V30 11317 O 1062.51 -5.76237 -5.60541 0
M  V30 11318 H 1062.24 -0.199904 -0.645766 0
M  V30 11319 H 1064.8 -1.19546 -1.67027 0
M  V30 11320 H 1063.03 0.111334 -3.8654 0
M  V30 11321 H 1064.71 -0.26448 -4.05037 0
M  V30 11322 H 1065.48 -2.74734 -3.99683 0
M  V30 11323 H 1061.36 -1.56865 -4.33491 0
M  V30 11324 H 1064.9 -4.97603 -4.88914 0
M  V30 11325 H 1060.8 -3.78834 -5.22643 0
M  V30 11326 H 1061.57 -5.78655 -5.78879 0
M  V30 11327 N 1064.23 1.43628 -0.648757 0
M  V30 11328 C 1065.14 2.34554 0.0463037 0
M  V30 11329 C 1066.16 1.53629 0.816952 0
M  V30 11330 O 1067.33 1.86297 0.765212 0
M  V30 11331 C 1064.4 3.3185 1.00381 0
M  V30 11332 C 1063.46 4.2868 0.230589 0
M  V30 11333 C 1062.69 5.21328 1.14249 0
M  V30 11334 O 1062.92 5.18298 2.38166 0
M  V30 11335 O 1061.85 5.98726 0.617296 0
M  V30 11336 H 1065.68 2.95475 -0.702008 0
M  V30 11337 H 1063.26 1.43694 -0.408942 0
M  V30 11338 H 1065.14 3.91692 1.5542 0
M  V30 11339 H 1063.82 2.73439 1.73243 0
M  V30 11340 H 1062.73 3.72332 -0.363282 0
M  V30 11341 H 1064.06 4.90061 -0.458368 0
M  V30 11342 N 1065.71 0.390394 1.52688 0
M  V30 11343 C 1066.96 -0.191445 2.01593 0
M  V30 11344 C 1067.29 -1.46723 1.27681 0
M  V30 11345 O 1066.54 -1.92248 0.365972 0
M  V30 11346 C 1066.84 -0.50468 3.53819 0
M  V30 11347 C 1066.51 0.679691 4.45748 0
M  V30 11348 C 1065.17 1.0046 4.70597 0
M  V30 11349 C 1067.52 1.47198 4.99982 0
M  V30 11350 C 1064.85 2.12334 5.46929 0
M  V30 11351 C 1067.2 2.58133 5.77538 0
M  V30 11352 C 1065.86 2.91131 6.00665 0
M  V30 11353 H 1065.13 -0.0700548 0.737681 0
M  V30 11354 H 1067.78 0.527965 1.84078 0
M  V30 11355 H 1066.09 -1.30543 3.69413 0
M  V30 11356 H 1067.78 -0.967524 3.89153 0
M  V30 11357 H 1064.37 0.416446 4.26572 0
M  V30 11358 H 1068.56 1.2342 4.80709 0
M  V30 11359 H 1063.81 2.38269 5.63061 0
M  V30 11360 H 1067.99 3.19925 6.18564 0
M  V30 11361 H 1065.61 3.77938 6.59596 0
M  V30 11362 N 1067.19 -1.57141 0.120249 0
M  V30 11363 C 1068.14 -2.15379 -0.829497 0
M  V30 11364 C 1069.11 -1.07913 -1.2627 0
M  V30 11365 O 1070.29 -1.35827 -1.33999 0
M  V30 11366 C 1067.43 -2.75847 -2.0737 0
M  V30 11367 C 1066.54 -3.97624 -1.68875 0
M  V30 11368 C 1065.68 -4.46175 -2.88272 0
M  V30 11369 C 1064.72 -5.60481 -2.46023 0
M  V30 11370 N 1063.85 -6.0377 -3.58337 0
M  V30 11371 H 1068.69 -2.96211 -0.326031 0
M  V30 11372 H 1066.23 -1.46341 -0.149235 0
M  V30 11373 H 1068.19 -3.09037 -2.80272 0
M  V30 11374 H 1066.82 -1.97703 -2.55174 0
M  V30 11375 H 1065.87 -3.70588 -0.858431 0
M  V30 11376 H 1067.18 -4.80512 -1.33827 0
M  V30 11377 H 1066.34 -4.8128 -3.69397 0
M  V30 11378 H 1065.08 -3.6224 -3.26548 0
M  V30 11379 H 1064.08 -5.24979 -1.63331 0
M  V30 11380 H 1065.31 -6.46184 -2.08863 0
M  V30 11381 H 1063.25 -5.22776 -3.96284 0
M  V30 11382 H 1063.17 -6.81517 -3.27217 0
M  V30 11383 H 1064.44 -6.43514 -4.39898 0
M  V30 11384 N 1068.67 0.153526 -1.5685 0
M  V30 11385 C 1069.89 0.886343 -1.87507 0
M  V30 11386 C 1070.32 1.74244 -0.708565 0
M  V30 11387 O 1069.67 1.78045 0.341997 0
M  V30 11388 C 1069.72 1.72428 -3.16703 0
M  V30 11389 O 1068.83 2.82784 -3.00178 0
M  V30 11390 H 1068.17 0.247259 -0.616246 0
M  V30 11391 H 1070.7 0.146306 -2.04076 0
M  V30 11392 H 1070.71 2.12062 -3.4856 0
M  V30 11393 H 1069.38 1.09558 -4.01211 0
M  V30 11394 H 1067.96 2.46604 -2.79716 0
M  V30 11395 N 1070.14 1.51827 0.422667 0
M  V30 11396 C 1071.37 1.69049 1.1929 0
M  V30 11397 C 1071.79 0.394095 1.84641 0
M  V30 11398 O 1071.14 -0.628731 1.71328 0
M  V30 11399 C 1071.2 2.81657 2.26609 0
M  V30 11400 O 1070.92 4.06275 1.63929 0
M  V30 11401 C 1072.42 3.10274 3.16615 0
M  V30 11402 H 1069.64 0.566894 0.358988 0
M  V30 11403 H 1072.18 1.98318 0.499029 0
M  V30 11404 H 1070.34 2.54945 2.91688 0
M  V30 11405 H 1070.75 4.68924 2.3497 0
M  V30 11406 H 1072.22 3.92613 3.88019 0
M  V30 11407 H 1072.7 2.23273 3.78214 0
M  V30 11408 H 1073.31 3.387 2.57221 0
M  V30 11409 N 1071.62 -0.679052 1.4222 0
M  V30 11410 C 1072.87 -1.44125 1.42674 0
M  V30 11411 C 1073.2 -1.94156 0.041438 0
M  V30 11412 O 1072.48 -1.70628 -0.93361 0
M  V30 11413 C 1072.76 -2.64133 2.44756 0
M  V30 11414 C 1072.61 -2.19761 3.9246 0
M  V30 11415 C 1073.93 -3.66347 2.43881 0
M  V30 11416 H 1071.05 -0.522729 0.519541 0
M  V30 11417 H 1073.69 -0.772067 1.73606 0
M  V30 11418 H 1071.84 -3.21225 2.1851 0
M  V30 11419 H 1073.51 -1.67869 4.29671 0
M  V30 11420 H 1071.76 -1.51377 4.06531 0
M  V30 11421 H 1072.43 -3.05944 4.59459 0
M  V30 11422 H 1074.9 -3.18963 2.67211 0
M  V30 11423 H 1073.78 -4.47902 3.17293 0
M  V30 11424 H 1074.04 -4.17183 1.46325 0
M  V30 11425 N 1073.1 -1.28322 -0.914942 0
M  V30 11426 C 1074.38 -1.06111 -1.64316 0
M  V30 11427 C 1074.76 0.399934 -2.07277 0
M  V30 11428 O 1074.11 1.38577 -1.81683 0
M  V30 11429 C 1074.32 -2.03461 -2.83557 0
M  V30 11430 C 1075.66 -2.33541 -3.54604 0
M  V30 11431 O 1076.69 -2.01536 -2.93704 0
M  V30 11432 O 1075.55 -2.88158 -4.64357 0
M  V30 11433 H 1072.64 -0.405451 -0.72079 0
M  V30 11434 H 1075.19 -1.39636 -0.964352 0
M  V30 11435 H 1073.96 -3.01938 -2.48896 0
M  V30 11436 H 1073.58 -1.70574 -3.59152 0
M  V30 11437 N 1074.58 1.12322 -1.10551 0
M  V30 11438 C 1075.53 2.18087 -0.755424 0
M  V30 11439 C 1076.5 1.6391 0.268805 0
M  V30 11440 O 1077.68 1.90227 0.147813 0
M  V30 11441 C 1074.82 3.4455 -0.194713 0
M  V30 11442 C 1073.93 4.12775 -1.27439 0
M  V30 11443 C 1073.07 5.26891 -0.675194 0
M  V30 11444 C 1072.11 5.86985 -1.73536 0
M  V30 11445 N 1071.24 6.92512 -1.15635 0
M  V30 11446 H 1076.08 2.47379 -1.66155 0
M  V30 11447 H 1073.62 1.21452 -0.829924 0
M  V30 11448 H 1075.58 4.16936 0.148275 0
M  V30 11449 H 1074.21 3.15671 0.674638 0
M  V30 11450 H 1073.26 3.38556 -1.73448 0
M  V30 11451 H 1074.57 4.53506 -2.07687 0
M  V30 11452 H 1073.73 6.06046 -0.281723 0
M  V30 11453 H 1072.47 4.87442 0.158708 0
M  V30 11454 H 1071.47 5.06517 -2.13825 0
M  V30 11455 H 1072.7 6.28505 -2.57213 0
M  V30 11456 H 1070.64 6.55098 -0.343928 0
M  V30 11457 H 1070.56 7.31848 -1.89565 0
M  V30 11458 H 1071.83 7.75492 -0.789463 0
M  V30 11459 N 1076.06 0.894434 1.2976 0
M  V30 11460 C 1076.99 0.3847 2.30309 0
M  V30 11461 C 1077.97 -0.537486 1.61385 0
M  V30 11462 O 1079.15 -0.449332 1.8893 0
M  V30 11463 C 1076.28 -0.393311 3.45066 0
M  V30 11464 C 1075.24 0.437968 4.25753 0
M  V30 11465 C 1074.56 -0.467221 5.32655 0
M  V30 11466 C 1075.86 1.6851 4.9437 0
M  V30 11467 H 1077.56 1.22496 2.73194 0
M  V30 11468 H 1075.1 0.590471 1.31337 0
M  V30 11469 H 1077.06 -0.760614 4.14479 0
M  V30 11470 H 1075.78 -1.2673 3.0101 0
M  V30 11471 H 1074.44 0.787533 3.58041 0
M  V30 11472 H 1074.09 -1.33919 4.84845 0
M  V30 11473 H 1073.79 0.0852482 5.87538 0
M  V30 11474 H 1075.31 -0.830833 6.04921 0
M  V30 11475 H 1076.72 1.38784 5.56248 0
M  V30 11476 H 1075.12 2.17849 5.59162 0
M  V30 11477 H 1076.19 2.42412 4.19958 0
M  V30 11478 N 1077.53 -1.43282 0.656365 0
M  V30 11479 C 1078.78 -2.00996 0.168354 0
M  V30 11480 C 1079.1 -1.52408 -1.22601 0
M  V30 11481 O 1080.3 -2.02417 -1.80941 0
M  V30 11482 C 1078.76 -3.5903 0.250161 0
M  V30 11483 C 1078.37 -4.1661 1.64742 0
M  V30 11484 C 1080.11 -4.24118 -0.180084 0
M  V30 11485 C 1078.02 -5.66948 1.68299 0
M  V30 11486 H 1076.95 -0.751674 0.0591769 0
M  V30 11487 H 1079.6 -1.64216 0.818859 0
M  V30 11488 H 1077.98 -3.93226 -0.467908 0
M  V30 11489 H 1079.15 -3.93908 2.3911 0
M  V30 11490 H 1077.47 -3.63905 2.02391 0
M  V30 11491 H 1080.07 -5.34419 -0.173401 0
M  V30 11492 H 1080.41 -3.98264 -1.21208 0
M  V30 11493 H 1080.94 -3.94816 0.486343 0
M  V30 11494 H 1077.68 -5.97573 2.69419 0
M  V30 11495 H 1077.2 -5.91697 0.98261 0
M  V30 11496 H 1078.88 -6.31041 1.42813 0
M  V30 11497 N 1079.01 -0.398486 -1.52479 0
M  V30 11498 C 1079.96 0.432212 -2.26717 0
M  V30 11499 C 1080.93 1.05007 -1.28696 0
M  V30 11500 O 1082.12 1.07636 -1.57541 0
M  V30 11501 C 1079.26 1.54868 -3.08399 0
M  V30 11502 C 1078.37 0.952779 -4.21362 0
M  V30 11503 C 1077.5 2.04106 -4.90423 0
M  V30 11504 C 1076.54 1.42153 -5.95364 0
M  V30 11505 N 1075.68 2.44951 -6.57984 0
M  V30 11506 H 1080.52 -0.207303 -2.97278 0
M  V30 11507 H 1078.06 -0.114066 -1.46657 0
M  V30 11508 H 1080.01 2.20684 -3.54054 0
M  V30 11509 H 1078.64 2.15837 -2.4003 0
M  V30 11510 H 1077.7 0.183962 -3.79955 0
M  V30 11511 H 1079.01 0.460131 -4.96673 0
M  V30 11512 H 1078.16 2.77672 -5.39429 0
M  V30 11513 H 1076.9 2.56733 -4.14656 0
M  V30 11514 H 1075.91 0.671161 -5.45688 0
M  V30 11515 H 1077.13 0.903093 -6.73068 0
M  V30 11516 H 1075.08 2.9673 -5.85053 0
M  V30 11517 H 1074.99 2.00468 -7.28937 0
M  V30 11518 H 1076.26 3.18119 -7.11632 0
M  V30 11519 N 1080.49 1.57075 -0.12858 0
M  V30 11520 C 1081.44 2.15816 0.818064 0
M  V30 11521 C 1082.41 1.08581 1.25696 0
M  V30 11522 O 1083.59 1.36535 1.33277 0
M  V30 11523 C 1080.73 2.76943 2.05905 0
M  V30 11524 C 1079.85 3.98514 1.66764 0
M  V30 11525 C 1078.98 4.47698 2.85902 0
M  V30 11526 C 1078.02 5.61778 2.43047 0
M  V30 11527 N 1077.16 6.05662 3.5513 0
M  V30 11528 H 1082 2.9638 0.310318 0
M  V30 11529 H 1079.53 1.46418 0.141472 0
M  V30 11530 H 1081.49 3.10519 2.78629 0
M  V30 11531 H 1080.12 1.99053 2.54122 0
M  V30 11532 H 1079.17 3.71038 0.838766 0
M  V30 11533 H 1080.49 4.81215 1.31277 0
M  V30 11534 H 1079.64 4.83233 3.66839 0
M  V30 11535 H 1078.38 3.63967 3.24622 0
M  V30 11536 H 1077.38 5.25838 1.60544 0
M  V30 11537 H 1078.61 6.47282 2.05433 0
M  V30 11538 H 1076.56 5.2487 3.93506 0
M  V30 11539 H 1076.47 6.83242 3.23598 0
M  V30 11540 H 1077.74 6.45838 4.36479 0
M  V30 11541 N 1081.97 -0.145205 1.5693 0
M  V30 11542 C 1083.2 -0.872398 1.87608 0
M  V30 11543 C 1083.61 -1.74657 0.716975 0
M  V30 11544 O 1082.97 -1.79792 -0.3132 0
M  V30 11545 C 1083.02 -1.72762 3.17546 0
M  V30 11546 O 1082.74 -0.888681 4.28992 0
M  V30 11547 C 1084.24 -2.56224 3.61751 0
M  V30 11548 H 1081.46 -0.252166 0.621815 0
M  V30 11549 H 1084.01 -0.137456 2.04038 0
M  V30 11550 H 1082.16 -2.41561 3.02865 0
M  V30 11551 H 1082.58 -1.47601 5.03303 0
M  V30 11552 H 1084.05 -3.11804 4.55502 0
M  V30 11553 H 1084.53 -3.32347 2.87127 0
M  V30 11554 H 1085.13 -1.92714 3.79133 0
M  V30 11555 N 1083.45 -1.52049 -0.414609 0
M  V30 11556 C 1084.4 -1.75603 -1.52533 0
M  V30 11557 C 1085.39 -0.622965 -1.57529 0
M  V30 11558 O 1086.6 -0.804886 -1.61002 0
M  V30 11559 H 1082.97 -0.555222 -0.507181 0
M  V30 11560 H 1084.94 -2.68666 -1.2985 0
M  V30 11561 C 1083.69 -1.9188 -2.89961 0
M  V30 11562 H 1083.01 -2.78483 -2.86857 0
M  V30 11563 H 1084.45 -2.12363 -3.66985 0
M  V30 11564 C 1082.91 -0.684453 -3.29874 0
M  V30 11565 O 1083.44 0.150256 -4.01419 0
M  V30 11566 N 1081.65 -0.521936 -2.85874 0
M  V30 11567 H 1081.2 -1.20229 -2.27822 0
M  V30 11568 H 1081.15 0.302655 -3.1294 0
M  V30 11569 N 1084.93 0.6715 -1.42579 0
M  V30 11570 C 1085.86 1.79693 -1.49107 0
M  V30 11571 C 1086.84 1.66516 -0.347338 0
M  V30 11572 O 1088.02 1.85887 -0.562094 0
M  V30 11573 C 1085.15 3.1801 -1.39596 0
M  V30 11574 C 1084.11 3.45926 -2.5203 0
M  V30 11575 C 1083.43 4.83852 -2.27577 0
M  V30 11576 C 1084.73 3.4249 -3.94333 0
M  V30 11577 H 1086.43 1.74486 -2.433 0
M  V30 11578 H 1083.97 0.838042 -1.17102 0
M  V30 11579 H 1085.92 3.96478 -1.42771 0
M  V30 11580 H 1084.65 3.23901 -0.418989 0
M  V30 11581 H 1083.31 2.6982 -2.48178 0
M  V30 11582 H 1082.96 4.86398 -1.28165 0
M  V30 11583 H 1082.66 5.03493 -3.02934 0
M  V30 11584 H 1084.18 5.646 -2.32506 0
M  V30 11585 H 1085.59 4.10922 -3.9977 0
M  V30 11586 H 1083.99 3.73666 -4.69568 0
M  V30 11587 H 1085.06 2.41002 -4.20768 0
M  V30 11588 N 1086.4 1.28806 0.908124 0
M  V30 11589 C 1087.37 1.13228 1.99279 0
M  V30 11590 C 1088.37 0.0702456 1.60646 0
M  V30 11591 O 1089.56 0.316494 1.71301 0
M  V30 11592 C 1086.69 0.729629 3.33 0
M  V30 11593 H 1087.88 2.09566 2.14528 0
M  V30 11594 H 1085.43 1.11872 1.09153 0
M  V30 11595 H 1086.17 -0.234268 3.23453 0
M  V30 11596 H 1085.95 1.49688 3.62403 0
M  V30 11597 H 1087.44 0.643449 4.12613 0
M  V30 11598 N 1087.88 -1.11734 1.11145 0
M  V30 11599 C 1088.81 -2.1976 0.789152 0
M  V30 11600 C 1089.79 -1.68382 -0.241143 0
M  V30 11601 O 1090.98 -1.93914 -0.105292 0
M  V30 11602 C 1088.11 -3.46549 0.228204 0
M  V30 11603 C 1087.06 -4.11123 1.19002 0
M  V30 11604 C 1086.39 -5.32451 0.489928 0
M  V30 11605 C 1087.69 -4.56406 2.53951 0
M  V30 11606 H 1089.38 -2.46978 1.69241 0
M  V30 11607 H 1086.93 -1.18705 0.81517 0
M  V30 11608 H 1088.88 -4.21399 -0.00945908 0
M  V30 11609 H 1087.6 -3.18782 -0.71033 0
M  V30 11610 H 1086.26 -3.38264 1.41326 0
M  V30 11611 H 1085.91 -5.00953 -0.453315 0
M  V30 11612 H 1085.61 -5.76605 1.1314 0
M  V30 11613 H 1087.14 -6.10042 0.260984 0
M  V30 11614 H 1088.55 -5.22592 2.35733 0
M  V30 11615 H 1086.95 -5.11363 3.14051 0
M  V30 11616 H 1088.02 -3.7001 3.13402 0
M  V30 11617 N 1089.36 -0.901303 -1.29284 0
M  V30 11618 C 1090.61 -0.528826 -1.95784 0
M  V30 11619 C 1090.94 0.922833 -1.70873 0
M  V30 11620 O 1090.21 1.65448 -1.0226 0
M  V30 11621 C 1090.5 -0.823793 -3.50551 0
M  V30 11622 C 1090.35 -2.32727 -3.84913 0
M  V30 11623 C 1091.67 -0.311382 -4.38997 0
M  V30 11624 H 1088.79 -0.193604 -0.711116 0
M  V30 11625 H 1091.43 -1.12828 -1.52872 0
M  V30 11626 H 1089.58 -0.313612 -3.87232 0
M  V30 11627 H 1091.25 -2.90712 -3.58168 0
M  V30 11628 H 1089.49 -2.78735 -3.32399 0
M  V30 11629 H 1090.17 -2.48423 -4.9294 0
M  V30 11630 H 1092.64 -0.748265 -4.09317 0
M  V30 11631 H 1091.52 -0.546957 -5.46168 0
M  V30 11632 H 1091.78 0.787959 -4.35021 0
M  V30 11633 N 1090.84 1.42931 -0.663954 0
M  V30 11634 C 1092.08 2.01982 -0.182007 0
M  V30 11635 C 1092.42 1.52323 1.20463 0
M  V30 11636 O 1091.69 0.720834 1.80649 0
M  V30 11637 C 1091.97 3.59518 -0.204671 0
M  V30 11638 C 1091.83 4.19382 -1.62599 0
M  V30 11639 C 1093.15 4.37762 0.45308 0
M  V30 11640 H 1090.27 0.733892 -0.0676115 0
M  V30 11641 H 1092.91 1.70092 -0.84668 0
M  V30 11642 H 1091.06 3.86816 0.361295 0
M  V30 11643 H 1092.73 4.03076 -2.24337 0
M  V30 11644 H 1090.97 3.75623 -2.17001 0
M  V30 11645 H 1091.64 5.28496 -1.59362 0
M  V30 11646 H 1094.12 4.1609 -0.0285774 0
M  V30 11647 H 1093 5.47392 0.406538 0
M  V30 11648 H 1093.26 4.1482 1.52895 0
M  V30 11649 N 1092.32 0.406567 1.52266 0
M  V30 11650 C 1093.56 -0.169717 2.01386 0
M  V30 11651 C 1093.88 -1.45864 1.29417 0
M  V30 11652 O 1093.15 -1.9136 0.419327 0
M  V30 11653 H 1091.73 -0.0657075 0.744105 0
M  V30 11654 H 1094.4 0.542221 1.87206 0
M  V30 11655 H 1093.49 -0.367659 3.09927 0
M  V30 11656 N 1093.79 -1.57004 0.136909 0
M  V30 11657 C 1095.02 -2.00156 -0.523936 0
M  V30 11658 C 1095.44 -1.01688 -1.59075 0
M  V30 11659 O 1094.79 -0.0123678 -1.82496 0
M  V30 11660 C 1094.85 -3.4326 -1.13379 0
M  V30 11661 O 1094.57 -4.37963 -0.109598 0
M  V30 11662 C 1096.07 -4.01637 -1.87623 0
M  V30 11663 H 1093.29 -0.65681 -0.137263 0
M  V30 11664 H 1095.83 -2.03219 0.228522 0
M  V30 11665 H 1093.99 -3.4108 -1.83693 0
M  V30 11666 H 1094.4 -5.21555 -0.55503 0
M  V30 11667 H 1095.87 -5.03795 -2.25597 0
M  V30 11668 H 1096.35 -3.41781 -2.75831 0
M  V30 11669 H 1096.96 -4.07417 -1.22031 0
M  V30 11670 N 1095.27 0.136881 -1.57004 0
M  V30 11671 C 1096.22 1.18782 -1.99984 0
M  V30 11672 C 1097.21 1.43899 -0.893841 0
M  V30 11673 O 1098.42 1.44072 -1.07904 0
M  V30 11674 H 1094.8 0.400065 -0.636751 0
M  V30 11675 H 1096.77 0.798696 -2.87512 0
M  V30 11676 C 1095.52 2.51105 -2.40502 0
M  V30 11677 H 1094.84 2.32611 -3.25165 0
M  V30 11678 H 1096.28 3.23244 -2.74389 0
M  V30 11679 C 1094.74 3.12386 -1.26161 0
M  V30 11680 O 1095.27 3.97666 -0.567836 0
M  V30 11681 N 1093.47 2.71989 -1.02326 0
M  V30 11682 H 1093.02 2.02736 -1.58921 0
M  V30 11683 H 1092.98 3.13322 -0.26013 0
M  V30 11684 N 1096.75 1.52266 0.40654 0
M  V30 11685 C 1097.98 1.70598 1.17945 0
M  V30 11686 C 1098.4 0.415793 1.83447 0
M  V30 11687 O 1097.76 -0.626968 1.70114 0
M  V30 11688 C 1097.81 2.84449 2.21633 0
M  V30 11689 O 1096.91 2.50199 3.27833 0
M  V30 11690 H 1096.25 0.567837 0.344177 0
M  V30 11691 H 1098.78 1.98981 0.476211 0
M  V30 11692 H 1098.79 3.09436 2.65919 0
M  V30 11693 H 1097.47 3.78055 1.73341 0
M  V30 11694 H 1096.04 2.35892 2.88807 0
M  V30 11695 N 1098.23 -0.663929 1.42933 0
M  V30 11696 C 1099.47 -1.42446 1.45192 0
M  V30 11697 C 1099.83 -1.92269 0.0710678 0
M  V30 11698 O 1099.12 -1.68688 -0.908565 0
M  V30 11699 C 1099.32 -2.62976 2.4203 0
M  V30 11700 C 1099.15 -2.24948 3.89395 0
M  V30 11701 C 1097.92 -2.13786 4.57847 0
M  V30 11702 C 1100.11 -1.85907 4.79524 0
M  V30 11703 N 1098.1 -1.68976 5.90187 0
M  V30 11704 C 1099.47 -1.52099 6.01054 0
M  V30 11705 C 1101.52 -1.72995 4.6688 0
M  V30 11706 C 1100.22 -1.06673 7.11346 0
M  V30 11707 C 1102.25 -1.28975 5.77165 0
M  V30 11708 C 1101.61 -0.960968 6.97814 0
M  V30 11709 H 1097.71 -0.517312 0.58644 0
M  V30 11710 H 1100.3 -0.765097 1.79037 0
M  V30 11711 H 1098.47 -3.26586 2.10229 0
M  V30 11712 H 1100.2 -3.29624 2.34798 0
M  V30 11713 H 1096.95 -2.33203 4.12206 0
M  V30 11714 H 1097.38 -1.48964 6.60408 0
M  V30 11715 H 1102.02 -1.97057 3.7407 0
M  V30 11716 H 1099.74 -0.813591 8.03994 0
M  V30 11717 H 1103.32 -1.19489 5.69398 0
M  V30 11718 H 1102.2 -0.625522 7.81701 0
M  V30 11719 N 1099.71 -1.29285 -0.901281 0
M  V30 11720 C 1101.12 -1.07263 -1.18182 0
M  V30 11721 C 1101.32 0.177087 -2.0072 0
M  V30 11722 O 1100.38 0.875292 -2.36844 0
M  V30 11723 C 1101.69 -2.32717 -1.9043 0
M  V30 11724 C 1103.24 -2.3802 -2.03262 0
M  V30 11725 C 1103.71 -3.63273 -2.7892 0
M  V30 11726 N 1105.21 -3.63986 -2.86475 0
M  V30 11727 C 1105.94 -4.57585 -3.45549 0
M  V30 11728 N 1105.44 -5.61513 -4.05801 0
M  V30 11729 N 1107.23 -4.45157 -3.43208 0
M  V30 11730 H 1099.38 -2.09487 -0.350536 0
M  V30 11731 H 1101.64 -0.922647 -0.217778 0
M  V30 11732 H 1101.35 -3.23828 -1.37216 0
M  V30 11733 H 1101.22 -2.40102 -2.90913 0
M  V30 11734 H 1103.61 -1.47398 -2.55652 0
M  V30 11735 H 1103.69 -2.3462 -1.01916 0
M  V30 11736 H 1103.34 -4.54246 -2.27206 0
M  V30 11737 H 1103.27 -3.6393 -3.80608 0
M  V30 11738 H 1105.76 -2.8884 -2.43679 0
M  V30 11739 H 1106.07 -6.29058 -4.48894 0
M  V30 11740 H 1104.41 -5.65325 -4.04268 0
M  V30 11741 H 1107.61 -3.63158 -2.95354 0
M  V30 11742 H 1107.78 -5.18286 -3.88952 0
M  V30 11743 N 1101.18 1.11143 -1.11736 0
M  V30 11744 C 1102.09 2.20851 -0.791331 0
M  V30 11745 C 1103.11 1.72644 0.216833 0
M  V30 11746 O 1104.29 2.01332 0.0522401 0
M  V30 11747 C 1101.35 3.4585 -0.242694 0
M  V30 11748 C 1100.41 4.08829 -1.30986 0
M  V30 11749 C 1099.65 5.27861 -0.787305 0
M  V30 11750 O 1099.87 5.69122 0.381549 0
M  V30 11751 O 1098.8 5.81506 -1.55352 0
M  V30 11752 H 1102.63 2.51158 -1.70744 0
M  V30 11753 H 1100.21 1.19739 -0.893478 0
M  V30 11754 H 1102.1 4.21359 0.0587472 0
M  V30 11755 H 1100.77 3.17187 0.646079 0
M  V30 11756 H 1099.68 3.35037 -1.66436 0
M  V30 11757 H 1101.01 4.41678 -2.17213 0
M  V30 11758 N 1102.66 0.908147 1.28804 0
M  V30 11759 C 1103.59 0.34957 2.26519 0
M  V30 11760 C 1104.61 -0.508845 1.54643 0
M  V30 11761 O 1105.8 -0.324633 1.75523 0
M  V30 11762 C 1102.9 -0.519461 3.34895 0
M  V30 11763 C 1102.07 0.315157 4.36263 0
M  V30 11764 C 1101.13 -0.488059 5.23932 0
M  V30 11765 O 1100.15 0.0974133 5.69117 0
M  V30 11766 N 1101.36 -1.79233 5.52137 0
M  V30 11767 H 1104.12 1.18945 2.75086 0
M  V30 11768 H 1101.68 0.77351 1.42227 0
M  V30 11769 H 1103.67 -1.0634 3.90479 0
M  V30 11770 H 1102.24 -1.26004 2.8608 0
M  V30 11771 H 1101.46 1.04049 3.8022 0
M  V30 11772 H 1102.75 0.886438 5.01019 0
M  V30 11773 H 1102.15 -2.2906 5.1725 0
M  V30 11774 H 1100.71 -2.28322 6.10502 0
M  V30 11775 N 1104.14 -1.42577 0.671525 0
M  V30 11776 C 1105.39 -2.01584 0.192431 0
M  V30 11777 C 1105.72 -1.53076 -1.19992 0
M  V30 11778 O 1104.97 -0.722196 -1.81887 0
M  V30 11779 C 1105.27 -3.56985 0.172097 0
M  V30 11780 C 1104.94 -4.24912 1.50867 0
M  V30 11781 C 1103.6 -4.43182 1.87464 0
M  V30 11782 C 1105.95 -4.6322 2.38908 0
M  V30 11783 C 1103.28 -4.97031 3.11732 0
M  V30 11784 C 1105.63 -5.18447 3.62485 0
M  V30 11785 C 1104.29 -5.34932 3.99255 0
M  V30 11786 H 1103.56 -0.737647 0.0704155 0
M  V30 11787 H 1106.21 -1.70807 0.865862 0
M  V30 11788 H 1104.52 -3.87411 -0.584835 0
M  V30 11789 H 1106.21 -4.00419 -0.215749 0
M  V30 11790 H 1102.8 -4.11048 1.21397 0
M  V30 11791 H 1106.99 -4.4878 2.1192 0
M  V30 11792 H 1102.24 -5.07979 3.40246 0
M  V30 11793 H 1106.42 -5.47075 4.30909 0
M  V30 11794 H 1104.04 -5.76422 4.95623 0
M  V30 11795 N 1105.62 -0.414636 -1.52048 0
M  V30 11796 C 1106.87 0.16073 -2.01059 0
M  V30 11797 C 1107.18 1.45753 -1.30443 0
M  V30 11798 O 1108.39 2.11448 -1.703 0
M  V30 11799 C 1106.84 0.336993 -3.58319 0
M  V30 11800 C 1106.45 -0.948037 -4.37854 0
M  V30 11801 C 1108.19 0.867353 -4.15545 0
M  V30 11802 C 1106.1 -0.738662 -5.86769 0
M  V30 11803 H 1105.03 0.0638419 -0.751292 0
M  V30 11804 H 1107.68 -0.540925 -1.75346 0
M  V30 11805 H 1106.06 1.10111 -3.80383 0
M  V30 11806 H 1107.24 -1.71873 -4.27547 0
M  V30 11807 H 1105.55 -1.40522 -3.91972 0
M  V30 11808 H 1108.15 1.04012 -5.24486 0
M  V30 11809 H 1108.49 1.84358 -3.73253 0
M  V30 11810 H 1109.03 0.162148 -3.97469 0
M  V30 11811 H 1105.77 -1.6866 -6.3343 0
M  V30 11812 H 1105.29 -0.00736294 -5.998 0
M  V30 11813 H 1106.96 -0.382978 -6.45866 0
M  V30 11814 N 1107.1 1.56929 -0.145233 0
M  V30 11815 C 1108.01 2.20238 0.808219 0
M  V30 11816 C 1109.02 1.18615 1.27304 0
M  V30 11817 O 1110.2 1.51186 1.3306 0
M  V30 11818 C 1107.26 2.81016 2.03055 0
M  V30 11819 C 1106.32 3.97759 1.61512 0
M  V30 11820 C 1105.56 4.55628 2.77918 0
M  V30 11821 O 1105.78 4.12378 3.94082 0
M  V30 11822 O 1104.71 5.45917 2.53492 0
M  V30 11823 H 1108.54 3.02221 0.299314 0
M  V30 11824 H 1106.13 1.49176 0.0817051 0
M  V30 11825 H 1108.01 3.19652 2.74592 0
M  V30 11826 H 1106.68 2.02047 2.52901 0
M  V30 11827 H 1105.59 3.63842 0.870033 0
M  V30 11828 H 1106.92 4.78242 1.16383 0
M  V30 11829 N 1108.58 -0.128553 1.57075 0
M  V30 11830 C 1109.54 -1.14215 1.98715 0
M  V30 11831 C 1110.54 -1.34843 0.876019 0
M  V30 11832 O 1111.73 -1.31522 1.14227 0
M  V30 11833 C 1108.86 -2.49865 2.31905 0
M  V30 11834 H 1110.05 -0.784481 2.89458 0
M  V30 11835 H 1107.61 -0.372531 1.51796 0
M  V30 11836 H 1108.34 -2.9057 1.44012 0
M  V30 11837 H 1108.13 -2.3625 3.12935 0
M  V30 11838 H 1109.62 -3.22832 2.64895 0
M  V30 11839 N 1110.05 -1.5248 -0.398459 0
M  V30 11840 C 1111.3 -1.66287 -1.14155 0
M  V30 11841 C 1111.62 -0.40429 -1.91376 0
M  V30 11842 O 1112.82 -0.422341 -2.68195 0
M  V30 11843 C 1111.28 -2.93831 -2.07825 0
M  V30 11844 C 1110.89 -4.26836 -1.3607 0
M  V30 11845 C 1112.63 -3.17004 -2.82327 0
M  V30 11846 C 1110.54 -5.45495 -2.28451 0
M  V30 11847 H 1109.47 -0.619478 -0.42984 0
M  V30 11848 H 1112.12 -1.78972 -0.405112 0
M  V30 11849 H 1110.5 -2.7487 -2.85065 0
M  V30 11850 H 1111.67 -4.56317 -0.641205 0
M  V30 11851 H 1109.99 -4.0985 -0.735659 0
M  V30 11852 H 1112.59 -4.02834 -3.51609 0
M  V30 11853 H 1112.93 -2.3168 -3.45876 0
M  V30 11854 H 1113.46 -3.36487 -2.12183 0
M  V30 11855 H 1110.2 -6.33198 -1.69532 0
M  V30 11856 H 1109.72 -5.20338 -2.98343 0
M  V30 11857 H 1111.4 -5.78996 -2.88743 0
M  V30 11858 N 1111.53 0.65634 -1.43283 0
M  V30 11859 C 1112.76 1.44408 -1.48168 0
M  V30 11860 C 1113.17 1.88542 -0.0986016 0
M  V30 11861 O 1112.53 1.59298 0.890527 0
M  V30 11862 C 1112.58 2.68111 -2.42484 0
M  V30 11863 O 1112.3 2.25824 -3.75413 0
M  V30 11864 C 1113.8 3.61499 -2.56579 0
M  V30 11865 H 1111.02 0.443731 -0.503333 0
M  V30 11866 H 1113.57 0.804917 -1.87993 0
M  V30 11867 H 1111.72 3.28175 -2.05863 0
M  V30 11868 H 1112.14 3.05839 -4.26102 0
M  V30 11869 H 1113.61 4.44972 -3.26655 0
M  V30 11870 H 1114.09 4.08639 -1.60969 0
M  V30 11871 H 1114.69 3.07319 -2.93998 0
M  V30 11872 N 1113.01 1.29761 0.894412 0
M  V30 11873 C 1114.26 1.18214 1.64782 0
M  V30 11874 C 1114.59 -0.264635 1.92388 0
M  V30 11875 O 1113.86 -1.19051 1.53809 0
M  V30 11876 C 1114.15 2.00138 2.99361 0
M  V30 11877 C 1114 3.52984 2.78787 0
M  V30 11878 C 1115.32 1.83187 4.00163 0
M  V30 11879 H 1112.44 0.430802 0.597979 0
M  V30 11880 H 1115.08 1.59292 1.03566 0
M  V30 11881 H 1113.23 1.65233 3.51611 0
M  V30 11882 H 1114.9 3.97898 2.33398 0
M  V30 11883 H 1113.14 3.77642 2.13469 0
M  V30 11884 H 1113.82 4.05585 3.7444 0
M  V30 11885 H 1116.29 2.13684 3.57041 0
M  V30 11886 H 1115.17 2.42849 4.92255 0
M  V30 11887 H 1115.43 0.788469 4.35012 0
M  V30 11888 N 1114.49 -1.10549 1.12324 0
M  V30 11889 C 1115.71 -1.8681 0.900927 0
M  V30 11890 C 1116.14 -1.80049 -0.54443 0
M  V30 11891 O 1115.5 -1.16957 -1.38531 0
M  V30 11892 C 1115.54 -3.33197 1.37883 0
M  V30 11893 O 1114.65 -4.08628 0.556529 0
M  V30 11894 H 1113.99 -0.579709 0.32378 0
M  V30 11895 H 1116.52 -1.39678 1.49503 0
M  V30 11896 H 1116.53 -3.84047 1.37739 0
M  V30 11897 H 1115.2 -3.37435 2.43127 0
M  V30 11898 H 1113.78 -3.67627 0.62486 0
M  V30 11899 N 1115.97 -0.914965 -1.28321 0
M  V30 11900 C 1116.93 -0.409024 -2.25521 0
M  V30 11901 C 1117.93 0.465327 -1.5392 0
M  V30 11902 O 1119.12 0.26821 -1.72123 0
M  V30 11903 C 1116.25 0.413452 -3.38383 0
M  V30 11904 H 1117.44 -1.26767 -2.71791 0
M  V30 11905 H 1115 -0.694477 -1.40024 0
M  V30 11906 H 1115.73 1.29145 -2.97476 0
M  V30 11907 H 1115.52 -0.213268 -3.9152 0
M  V30 11908 H 1117.01 0.758232 -4.10659 0
M  V30 11909 N 1117.44 1.42219 -0.679077 0
M  V30 11910 C 1118.69 2.01081 -0.202718 0
M  V30 11911 C 1119.01 1.53986 1.19639 0
M  V30 11912 O 1118.28 0.763359 1.80415 0
M  V30 11913 H 1116.86 0.743526 -0.0719547 0
M  V30 11914 H 1119.52 1.74077 -0.876544 0
M  V30 11915 H 1118.62 3.11411 -0.207314 0
M  V30 11916 N 1118.92 0.422693 1.51826 0
M  V30 11917 C 1119.83 -0.40261 2.31119 0
M  V30 11918 C 1120.85 -1.04117 1.39412 0
M  V30 11919 O 1122.02 -1.03973 1.72486 0
M  V30 11920 C 1119.09 -1.49699 3.12716 0
M  V30 11921 C 1118.15 -0.880088 4.20182 0
M  V30 11922 C 1117.38 -1.92232 4.97878 0
M  V30 11923 O 1117.61 -3.14246 4.76031 0
M  V30 11924 O 1116.54 -1.521 5.82365 0
M  V30 11925 H 1120.37 0.244308 3.02716 0
M  V30 11926 H 1117.95 0.185569 1.48243 0
M  V30 11927 H 1119.83 -2.13202 3.63487 0
M  V30 11928 H 1118.51 -2.12826 2.43899 0
M  V30 11929 H 1117.41 -0.207404 3.73525 0
M  V30 11930 H 1118.75 -0.292535 4.9133 0
M  V30 11931 N 1120.4 -1.5685 0.153553 0
M  V30 11932 C 1121.68 -1.8796 -0.541328 0
M  V30 11933 C 1122.06 -1.06059 -1.82523 0
M  V30 11934 O 1121.4 -0.149295 -2.28012 0
M  V30 11935 C 1121.61 -3.39697 -0.800442 0
M  V30 11936 C 1122.96 -4.09057 -1.13832 0
M  V30 11937 O 1123.99 -3.44913 -0.889578 0
M  V30 11938 O 1122.85 -5.22347 -1.60673 0
M  V30 11939 H 1119.94 -0.779268 -0.276895 0
M  V30 11940 H 1122.49 -1.68626 0.190657 0
M  V30 11941 H 1121.26 -3.91151 0.107935 0
M  V30 11942 H 1120.88 -3.64582 -1.58638 0
M  V30 11943 N 1121.88 0.120221 -1.57141 0
M  V30 11944 C 1123.15 0.858458 -1.75755 0
M  V30 11945 C 1123.53 1.98124 -0.728693 0
M  V30 11946 O 1122.88 2.27155 0.247573 0
M  V30 11947 C 1123.09 1.37627 -3.20718 0
M  V30 11948 C 1124.44 1.82909 -3.83183 0
M  V30 11949 O 1125.46 1.47309 -3.24312 0
M  V30 11950 O 1124.32 2.4865 -4.86657 0
M  V30 11951 H 1121.42 0.407583 -0.719587 0
M  V30 11952 H 1123.96 0.104057 -1.69381 0
M  V30 11953 H 1122.74 0.570651 -3.87117 0
M  V30 11954 H 1122.36 2.19341 -3.31625 0
M  V30 11955 N 1123.36 1.52689 0.390367 0
M  V30 11956 C 1124.63 1.58246 1.14968 0
M  V30 11957 C 1125.01 0.374808 2.07746 0
M  V30 11958 O 1124.36 -0.636969 2.19442 0
M  V30 11959 C 1124.57 2.92059 1.91056 0
M  V30 11960 C 1125.92 3.45745 2.46466 0
M  V30 11961 O 1126.94 2.93924 2.01214 0
M  V30 11962 O 1125.8 4.3628 3.29122 0
M  V30 11963 H 1122.9 0.638189 0.52597 0
M  V30 11964 H 1125.44 1.65024 0.39563 0
M  V30 11965 H 1124.21 3.71399 1.23201 0
M  V30 11966 H 1123.84 2.8866 2.73425 0
M  V30 11967 N 1124.83 -0.648732 1.43629 0
M  V30 11968 C 1126.11 -1.4062 1.35961 0
M  V30 11969 C 1126.49 -2.11098 0.00961023 0
M  V30 11970 O 1125.84 -2.05107 -1.00714 0
M  V30 11971 C 1126.05 -2.38719 2.54586 0
M  V30 11972 C 1127.4 -3.02584 2.97873 0
M  V30 11973 O 1128.42 -2.49046 2.54665 0
M  V30 11974 O 1127.28 -3.99662 3.72736 0
M  V30 11975 H 1124.37 -0.628483 0.53753 0
M  V30 11976 H 1126.92 -0.675263 1.55687 0
M  V30 11977 H 1125.69 -1.85619 3.44472 0
M  V30 11978 H 1125.32 -3.19257 2.36983 0
M  V30 11979 N 1126.31 -1.30234 -0.887518 0
M  V30 11980 C 1127.59 -1.09572 -1.62029 0
M  V30 11981 C 1127.97 0.355877 -2.08079 0
M  V30 11982 O 1127.32 1.34692 -1.84582 0
M  V30 11983 C 1127.53 -2.0943 -2.79177 0
M  V30 11984 C 1128.88 -2.4101 -3.4957 0
M  V30 11985 O 1129.9 -2.0772 -2.89363 0
M  V30 11986 O 1128.76 -2.97943 -4.5814 0
M  V30 11987 H 1125.85 -0.420648 -0.712028 0
M  V30 11988 H 1128.4 -1.41651 -0.934517 0
M  V30 11989 H 1127.17 -3.07149 -2.42436 0
M  V30 11990 H 1126.79 -1.78154 -3.55453 0
M  V30 11991 N 1127.79 1.09952 -1.12909 0
M  V30 11992 C 1128.7 2.19999 -0.81471 0
M  V30 11993 C 1129.72 1.72864 0.19851 0
M  V30 11994 O 1130.89 2.01376 0.0308832 0
M  V30 11995 C 1127.96 3.45573 -0.279363 0
M  V30 11996 C 1127.02 4.07417 -1.35314 0
M  V30 11997 C 1126.25 5.26996 -0.843247 0
M  V30 11998 O 1126.47 5.69495 0.321164 0
M  V30 11999 O 1125.41 5.79826 -1.61511 0
M  V30 12000 H 1129.23 2.49333 -1.73398 0
M  V30 12001 H 1126.82 1.18784 -0.906128 0
M  V30 12002 H 1128.7 4.21398 0.0140531 0
M  V30 12003 H 1127.38 3.17854 0.612401 0
M  V30 12004 H 1126.28 3.33253 -1.6998 0
M  V30 12005 H 1127.62 4.39349 -2.21885 0
M  V30 12006 N 1129.27 0.921757 1.27833 0
M  V30 12007 C 1130.51 0.566288 1.96399 0
M  V30 12008 C 1130.87 -0.875149 1.70895 0
M  V30 12009 O 1132.07 -1.3386 2.33099 0
M  V30 12010 C 1130.34 0.876329 3.4649 0
M  V30 12011 S 1131.9 0.628481 4.34276 0
M  V30 12012 H 1128.72 0.209246 0.679512 0
M  V30 12013 H 1131.32 1.18892 1.55193 0
M  V30 12014 H 1130.03 1.92319 3.62549 0
M  V30 12015 H 1129.56 0.242658 3.92651 0
M  V30 12016 H 1131.57 -0.516493 4.93505 0
M  V30 12017 N 1130.75 -1.41857 0.686609 0
M  V30 12018 C 1131.99 -2.0097 0.213378 0
M  V30 12019 C 1132.32 -1.54618 -1.1882 0
M  V30 12020 O 1131.59 -0.772916 -1.80008 0
M  V30 12021 H 1130.17 -0.743134 0.0758968 0
M  V30 12022 H 1132.83 -1.73609 0.885763 0
M  V30 12023 H 1131.92 -3.11296 0.223826 0
M  V30 12024 N 1132.22 -0.430739 -1.51599 0
M  V30 12025 C 1133.13 0.390347 -2.3133 0
M  V30 12026 C 1134.15 1.03376 -1.39962 0
M  V30 12027 O 1135.33 1.03057 -1.73035 0
M  V30 12028 C 1132.39 1.48039 -3.13505 0
M  V30 12029 C 1131.45 0.857792 -4.20643 0
M  V30 12030 C 1130.69 1.89589 -4.9889 0
M  V30 12031 O 1130.91 3.11717 -4.77691 0
M  V30 12032 O 1129.84 1.49009 -5.83164 0
M  V30 12033 H 1133.67 -0.260358 -3.02582 0
M  V30 12034 H 1131.25 -0.193428 -1.48143 0
M  V30 12035 H 1133.14 2.11272 -3.64612 0
M  V30 12036 H 1131.81 2.1153 -2.45024 0
M  V30 12037 H 1130.72 0.187592 -3.73629 0
M  V30 12038 H 1132.05 0.266474 -4.91478 0
M  V30 12039 N 1133.7 1.56767 -0.161869 0
M  V30 12040 C 1134.61 2.21083 0.784814 0
M  V30 12041 C 1135.63 1.19959 1.26039 0
M  V30 12042 O 1136.8 1.52588 1.31449 0
M  V30 12043 C 1133.87 2.83153 2.00063 0
M  V30 12044 C 1132.93 3.9945 1.57285 0
M  V30 12045 C 1132.16 4.5855 2.7307 0
M  V30 12046 O 1132.39 4.16534 3.89686 0
M  V30 12047 O 1131.32 5.48575 2.47688 0
M  V30 12048 H 1135.15 3.02522 0.267243 0
M  V30 12049 H 1132.73 1.49255 0.0658783 0
M  V30 12050 H 1134.61 3.22546 2.71186 0
M  V30 12051 H 1133.29 2.04718 2.50744 0
M  V30 12052 H 1132.2 3.64745 0.831393 0
M  V30 12053 H 1133.53 4.7945 1.11304 0
M  V30 12054 N 1135.18 -0.111886 1.57202 0
M  V30 12055 C 1136.13 -1.13688 2.00858 0
M  V30 12056 C 1137.1 -1.40752 0.881939 0
M  V30 12057 O 1138.28 -1.52498 1.14669 0
M  V30 12058 C 1135.42 -2.45641 2.42393 0
M  V30 12059 C 1134.54 -2.25452 3.68504 0
M  V30 12060 C 1133.67 -3.50686 3.9899 0
M  V30 12061 C 1132.71 -3.25685 5.18262 0
M  V30 12062 N 1131.85 -4.4314 5.44583 0
M  V30 12063 H 1136.69 -0.757611 2.88209 0
M  V30 12064 H 1134.22 -0.362582 1.42561 0
M  V30 12065 H 1136.18 -3.22627 2.64514 0
M  V30 12066 H 1134.81 -2.81447 1.58074 0
M  V30 12067 H 1133.86 -1.39349 3.53958 0
M  V30 12068 H 1135.18 -2.0296 4.55641 0
M  V30 12069 H 1134.33 -4.36087 4.21797 0
M  V30 12070 H 1133.07 -3.76216 3.10343 0
M  V30 12071 H 1132.07 -2.38675 4.95292 0
M  V30 12072 H 1133.3 -3.01518 6.08493 0
M  V30 12073 H 1131.24 -4.68778 4.58893 0
M  V30 12074 H 1131.16 -4.23778 6.26058 0
M  V30 12075 H 1132.43 -5.29654 5.71915 0
M  V30 12076 N 1136.66 -1.52894 -0.382264 0
M  V30 12077 C 1137.59 -1.81122 -1.47367 0
M  V30 12078 C 1138.57 -0.663653 -1.56619 0
M  V30 12079 O 1139.75 -0.911898 -1.71459 0
M  V30 12080 C 1136.88 -1.98615 -2.84902 0
M  V30 12081 C 1135.84 -3.14328 -2.90485 0
M  V30 12082 C 1135.16 -3.17086 -4.30535 0
M  V30 12083 C 1136.46 -4.53263 -2.59519 0
M  V30 12084 H 1138.16 -2.72518 -1.23993 0
M  V30 12085 H 1135.7 -1.3113 -0.595049 0
M  V30 12086 H 1137.66 -2.16946 -3.61265 0
M  V30 12087 H 1136.38 -1.03915 -3.09628 0
M  V30 12088 H 1135.04 -2.95791 -2.16572 0
M  V30 12089 H 1134.69 -2.20055 -4.52311 0
M  V30 12090 H 1134.39 -3.94821 -4.3519 0
M  V30 12091 H 1135.91 -3.3758 -5.08795 0
M  V30 12092 H 1137.33 -4.71867 -3.25598 0
M  V30 12093 H 1135.72 -5.33115 -2.75514 0
M  V30 12094 H 1136.79 -4.59516 -1.54831 0
M  V30 12095 N 1138.14 0.641106 -1.43971 0
M  V30 12096 C 1139.55 1.22254 -1.41106 0
M  V30 12097 C 1139.9 1.95825 -0.121284 0
M  V30 12098 O 1139.02 2.01901 0.77879 0
M  V30 12099 C 1139.62 2.22364 -2.55617 0
M  V30 12100 C 1138.18 2.75957 -2.55978 0
M  V30 12101 C 1137.33 1.50792 -2.32717 0
M  V30 12102 H 1140.28 0.432381 -1.52696 0
M  V30 12103 H 1140.3 3.04775 -2.27799 0
M  V30 12104 H 1139.81 1.68789 -3.49474 0
M  V30 12105 H 1137.91 3.33562 -1.66034 0
M  V30 12106 H 1138.02 3.22676 -3.54142 0
M  V30 12107 H 1136.39 1.7857 -1.81617 0
M  V30 12108 H 1137.17 0.991343 -3.28675 0
M  V30 12109 N 1139.62 1.30703 0.880598 0
M  V30 12110 C 1140.84 1.22843 1.67106 0
M  V30 12111 C 1141.27 -0.204788 1.86982 0
M  V30 12112 O 1140.62 -1.14716 1.40392 0
M  V30 12113 C 1140.67 1.96685 3.02237 0
M  V30 12114 O 1139.78 1.29693 3.91476 0
M  V30 12115 H 1139.12 0.424661 0.51045 0
M  V30 12116 H 1141.65 1.72596 1.09871 0
M  V30 12117 H 1141.66 2.05874 3.52249 0
M  V30 12118 H 1140.33 3.00919 2.8709 0
M  V30 12119 H 1138.91 1.28886 3.49918 0
M  V30 12120 N 1141.09 -1.09351 1.1349 0
M  V30 12121 C 1142.33 -1.83156 0.907372 0
M  V30 12122 C 1142.7 -1.8376 -0.556441 0
M  V30 12123 O 1143.9 -2.5323 -0.90156 0
M  V30 12124 C 1142.17 -3.25315 1.48004 0
M  V30 12125 S 1143.73 -4.16113 1.39268 0
M  V30 12126 H 1140.55 -0.631319 0.327043 0
M  V30 12127 H 1143.15 -1.31509 1.44657 0
M  V30 12128 H 1141.85 -3.22452 2.53876 0
M  V30 12129 H 1141.38 -3.82034 0.938822 0
M  V30 12130 H 1143.4 -4.94806 0.371645 0
M  V30 12131 N 1142.57 -0.928524 -1.27343 0
M  V30 12132 C 1143.82 -0.569392 -1.9433 0
M  V30 12133 C 1144.15 0.889481 -1.7297 0
M  V30 12134 O 1143.4 1.6499 -1.05247 0
M  V30 12135 C 1143.7 -0.84269 -3.47323 0
M  V30 12136 C 1143.37 -2.28344 -3.88806 0
M  V30 12137 C 1142.03 -2.67731 -3.99842 0
M  V30 12138 C 1144.38 -3.22031 -4.09811 0
M  V30 12139 C 1141.71 -3.99928 -4.29272 0
M  V30 12140 C 1144.06 -4.5381 -4.40725 0
M  V30 12141 C 1142.72 -4.93031 -4.49975 0
M  V30 12142 H 1141.99 -0.208355 -0.711104 0
M  V30 12143 H 1144.64 -1.17264 -1.51398 0
M  V30 12144 H 1142.95 -0.156775 -3.91486 0
M  V30 12145 H 1144.64 -0.543779 -3.97296 0
M  V30 12146 H 1141.23 -1.96787 -3.80753 0
M  V30 12147 H 1145.42 -2.92803 -4.00724 0
M  V30 12148 H 1140.67 -4.29996 -4.34642 0
M  V30 12149 H 1144.85 -5.26407 -4.55926 0
M  V30 12150 H 1142.47 -5.95497 -4.72533 0
M  V30 12151 N 1144.05 1.41491 -0.694123 0
M  V30 12152 C 1145.33 1.95004 -0.152571 0
M  V30 12153 C 1145.71 1.63357 1.33707 0
M  V30 12154 O 1145.05 0.939815 2.08278 0
M  V30 12155 C 1145.26 3.46186 -0.44232 0
M  V30 12156 C 1146.61 4.22991 -0.369279 0
M  V30 12157 O 1147.64 3.54198 -0.377152 0
M  V30 12158 O 1146.5 5.45514 -0.328145 0
M  V30 12159 H 1143.59 0.826879 -0.0141253 0
M  V30 12160 H 1146.14 1.51216 -0.770183 0
M  V30 12161 H 1144.91 3.62497 -1.47348 0
M  V30 12162 H 1144.53 3.97064 0.206337 0
M  V30 12163 N 1145.53 0.438773 1.51369 0
M  V30 12164 C 1146.76 -0.125665 2.06217 0
M  V30 12165 C 1147.17 -1.36887 1.30609 0
M  V30 12166 O 1146.51 -1.80149 0.359433 0
M  V30 12167 C 1146.57 -0.511846 3.55838 0
M  V30 12168 C 1146.23 0.624755 4.52709 0
M  V30 12169 C 1147.23 1.49731 4.97872 0
M  V30 12170 C 1144.92 0.805895 4.95793 0
M  V30 12171 C 1146.91 2.53569 5.84792 0
M  V30 12172 C 1144.6 1.84755 5.82502 0
M  V30 12173 C 1145.6 2.71083 6.269 0
M  V30 12174 O 1145.28 3.7346 7.11887 0
M  V30 12175 H 1145.02 -0.0107227 0.675915 0
M  V30 12176 H 1147.57 0.617071 1.95912 0
M  V30 12177 H 1145.8 -1.30731 3.63932 0
M  V30 12178 H 1147.49 -1.0076 3.93195 0
M  V30 12179 H 1148.25 1.36891 4.65281 0
M  V30 12180 H 1144.13 0.14352 4.60777 0
M  V30 12181 H 1147.68 3.20984 6.19367 0
M  V30 12182 H 1143.57 1.97614 6.14507 0
M  V30 12183 H 1144.34 3.70058 7.30068 0
M  V30 12184 N 1147.01 -1.56678 0.170181 0
M  V30 12185 C 1148.25 -1.9714 -0.475767 0
M  V30 12186 C 1148.58 -1.05611 -1.62972 0
M  V30 12187 O 1147.86 -0.103017 -1.94227 0
M  V30 12188 C 1148.14 -3.47072 -0.959828 0
M  V30 12189 C 1148 -4.4938 0.194225 0
M  V30 12190 C 1149.31 -4.00071 -1.83387 0
M  V30 12191 H 1146.43 -0.716776 -0.171466 0
M  V30 12192 H 1149.08 -1.88266 0.256086 0
M  V30 12193 H 1147.23 -3.54766 -1.58346 0
M  V30 12194 H 1148.9 -4.53748 0.83128 0
M  V30 12195 H 1147.14 -4.25393 0.849893 0
M  V30 12196 H 1147.81 -5.51685 -0.186575 0
M  V30 12197 H 1150.29 -3.95002 -1.30815 0
M  V30 12198 H 1149.16 -5.05398 -2.14159 0
M  V30 12199 H 1149.42 -3.43819 -2.77923 0
M  V30 12200 N 1148.48 0.103547 -1.57259 0
M  V30 12201 C 1149.42 1.15707 -1.9669 0
M  V30 12202 C 1150.39 1.39292 -0.838837 0
M  V30 12203 O 1151.58 1.53192 -1.09839 0
M  V30 12204 C 1148.71 2.50793 -2.27642 0
M  V30 12205 C 1147.75 2.43541 -3.50129 0
M  V30 12206 S 1148.58 1.86009 -5.02156 0
M  V30 12207 C 1149.74 3.22737 -5.36276 0
M  V30 12208 H 1149.97 0.820891 -2.85742 0
M  V30 12209 H 1147.51 0.310906 -1.51237 0
M  V30 12210 H 1149.46 3.28512 -2.46151 0
M  V30 12211 H 1148.13 2.81583 -1.39176 0
M  V30 12212 H 1147.32 3.43085 -3.692 0
M  V30 12213 H 1146.92 1.73948 -3.31086 0
M  V30 12214 H 1149.21 4.1899 -5.32404 0
M  V30 12215 H 1150.16 3.08477 -6.37375 0
M  V30 12216 H 1150.56 3.21878 -4.6374 0
M  V30 12217 N 1149.96 1.53094 0.37415 0
M  V30 12218 C 1150.91 1.75307 1.45779 0
M  V30 12219 C 1151.9 0.607409 1.48994 0
M  V30 12220 O 1153.09 0.865777 1.5438 0
M  V30 12221 C 1150.22 1.93871 2.83318 0
M  V30 12222 C 1149.3 3.14413 2.84614 0
M  V30 12223 N 1149.69 4.36486 2.55565 0
M  V30 12224 C 1147.99 3.14961 3.15778 0
M  V30 12225 C 1148.69 5.18178 2.64322 0
M  V30 12226 N 1147.67 4.54196 2.98675 0
M  V30 12227 H 1151.47 2.67305 1.22169 0
M  V30 12228 H 1148.98 1.51603 0.582254 0
M  V30 12229 H 1150.98 2.0791 3.61357 0
M  V30 12230 H 1149.64 1.03096 3.07898 0
M  V30 12231 H 1150.65 4.64366 2.29314 0
M  V30 12232 H 1147.33 2.34048 3.45728 0
M  V30 12233 H 1148.72 6.25529 2.45282 0
M  V30 12234 N 1151.44 -0.633461 1.44309 0
M  V30 12235 C 1152.69 -1.39306 1.46969 0
M  V30 12236 C 1153.01 -1.94235 0.101403 0
M  V30 12237 O 1152.27 -1.73959 -0.896475 0
M  V30 12238 C 1152.57 -2.57783 2.47554 0
M  V30 12239 C 1152.23 -2.21156 3.92939 0
M  V30 12240 C 1150.9 -2.1088 4.32531 0
M  V30 12241 C 1153.25 -1.9218 4.84475 0
M  V30 12242 C 1150.58 -1.69812 5.61588 0
M  V30 12243 C 1152.93 -1.52605 6.13917 0
M  V30 12244 C 1151.59 -1.40868 6.52466 0
M  V30 12245 H 1150.86 -0.509758 0.537799 0
M  V30 12246 H 1153.51 -0.718552 1.77508 0
M  V30 12247 H 1151.81 -3.30456 2.1049 0
M  V30 12248 H 1153.51 -3.16009 2.46859 0
M  V30 12249 H 1150.1 -2.30072 3.61614 0
M  V30 12250 H 1154.29 -1.9903 4.54644 0
M  V30 12251 H 1149.54 -1.59327 5.90275 0
M  V30 12252 H 1153.72 -1.29221 6.84306 0
M  V30 12253 H 1151.34 -1.08818 7.52371 0
M  V30 12254 N 1152.92 -1.31168 -0.873655 0
M  V30 12255 C 1153.85 -1.21094 -1.99646 0
M  V30 12256 C 1154.83 -0.0989684 -1.69812 0
M  V30 12257 O 1156.01 -0.282939 -1.92128 0
M  V30 12258 C 1153.14 -0.913684 -3.35066 0
M  V30 12259 C 1152.1 -1.98482 -3.79195 0
M  V30 12260 C 1151.42 -1.54033 -5.12033 0
M  V30 12261 C 1152.72 -3.39745 -3.96699 0
M  V30 12262 H 1154.42 -2.1503 -2.08333 0
M  V30 12263 H 1151.96 -1.03521 -1.00097 0
M  V30 12264 H 1153.92 -0.829821 -4.13149 0
M  V30 12265 H 1152.64 0.0613471 -3.26542 0
M  V30 12266 H 1151.3 -2.05851 -3.03349 0
M  V30 12267 H 1150.95 -0.553261 -4.99948 0
M  V30 12268 H 1150.65 -2.25688 -5.4253 0
M  V30 12269 H 1152.17 -1.47047 -5.92629 0
M  V30 12270 H 1153.59 -3.35071 -4.65188 0
M  V30 12271 H 1151.98 -4.09585 -4.38589 0
M  V30 12272 H 1153.05 -3.80802 -3.00196 0
M  V30 12273 N 1154.4 1.08748 -1.14068 0
M  V30 12274 C 1155.62 1.84814 -0.930138 0
M  V30 12275 C 1156.04 1.81461 0.521267 0
M  V30 12276 O 1155.4 1.21577 1.36108 0
M  V30 12277 C 1155.45 3.32501 -1.41863 0
M  V30 12278 O 1155.17 3.35846 -2.81317 0
M  V30 12279 C 1156.67 4.25384 -1.24753 0
M  V30 12280 H 1153.89 0.583546 -0.331233 0
M  V30 12281 H 1156.43 1.37366 -1.51495 0
M  V30 12282 H 1154.59 3.7735 -0.876664 0
M  V30 12283 H 1155 4.28013 -3.03159 0
M  V30 12284 H 1156.48 5.27138 -1.63798 0
M  V30 12285 H 1156.95 4.38789 -0.18999 0
M  V30 12286 H 1157.56 3.86357 -1.77787 0
M  V30 12287 N 1155.87 0.935264 1.26849 0
M  V30 12288 C 1157.12 0.580548 1.94313 0
M  V30 12289 C 1157.45 -0.877205 1.73259 0
M  V30 12290 O 1156.73 -1.62679 1.06611 0
M  V30 12291 C 1157.01 0.916445 3.48243 0
M  V30 12292 C 1156.86 2.42851 3.78607 0
M  V30 12293 C 1158.18 0.427665 4.38017 0
M  V30 12294 H 1155.3 0.21239 0.705733 0
M  V30 12295 H 1157.94 1.16841 1.49827 0
M  V30 12296 H 1156.09 0.416169 3.86265 0
M  V30 12297 H 1157.77 3.00106 3.50335 0
M  V30 12298 H 1156.01 2.8745 3.24892 0
M  V30 12299 H 1156.68 2.61405 4.8618 0
M  V30 12300 H 1159.16 0.856525 4.07189 0
M  V30 12301 H 1158.03 0.691571 5.44526 0
M  V30 12302 H 1158.29 -0.672344 4.36958 0
M  V30 12303 N 1157.35 -1.41121 0.701616 0
M  V30 12304 C 1158.6 -2.0113 0.235147 0
M  V30 12305 C 1158.93 -1.55587 -1.16718 0
M  V30 12306 O 1158.18 -0.760615 -1.80314 0
M  V30 12307 C 1158.48 -3.5654 0.247781 0
M  V30 12308 C 1158.15 -4.21616 1.59846 0
M  V30 12309 C 1156.81 -4.39106 1.96822 0
M  V30 12310 C 1159.16 -4.58048 2.48679 0
M  V30 12311 C 1156.49 -4.90307 3.22205 0
M  V30 12312 C 1158.84 -5.10642 3.734 0
M  V30 12313 C 1157.51 -5.26343 4.10512 0
M  V30 12314 H 1156.78 -0.735987 0.0860462 0
M  V30 12315 H 1159.42 -1.68932 0.901898 0
M  V30 12316 H 1157.73 -3.88564 -0.502528 0
M  V30 12317 H 1159.42 -4.00787 -0.130766 0
M  V30 12318 H 1156.01 -4.08381 1.30088 0
M  V30 12319 H 1160.2 -4.44184 2.21391 0
M  V30 12320 H 1155.45 -5.00647 3.50945 0
M  V30 12321 H 1159.63 -5.37811 4.42416 0
M  V30 12322 H 1157.26 -5.65779 5.07738 0
M  V30 12323 N 1158.83 -0.446794 -1.51134 0
M  V30 12324 C 1160.08 0.108888 -2.03108 0
M  V30 12325 C 1160.43 1.3956 -1.32442 0
M  V30 12326 O 1159.72 1.86631 -0.433515 0
M  V30 12327 C 1159.92 0.373015 -3.55448 0
M  V30 12328 C 1159.75 -0.886542 -4.40875 0
M  V30 12329 C 1158.52 -1.42283 -4.84854 0
M  V30 12330 C 1160.72 -1.77531 -4.82688 0
M  V30 12331 N 1158.7 -2.63394 -5.54524 0
M  V30 12332 C 1160.07 -2.83241 -5.5152 0
M  V30 12333 C 1162.12 -1.7886 -4.64665 0
M  V30 12334 C 1160.83 -3.90239 -6.0424 0
M  V30 12335 C 1162.85 -2.84798 -5.18309 0
M  V30 12336 C 1162.21 -3.89228 -5.87095 0
M  V30 12337 H 1158.31 0.000437421 -0.782 0
M  V30 12338 H 1160.9 -0.609578 -1.84911 0
M  V30 12339 H 1159.07 1.06052 -3.73641 0
M  V30 12340 H 1160.8 0.920889 -3.94083 0
M  V30 12341 H 1157.56 -0.975408 -4.63447 0
M  V30 12342 H 1157.98 -3.24833 -5.9398 0
M  V30 12343 H 1162.62 -0.994493 -4.10938 0
M  V30 12344 H 1160.34 -4.70482 -6.57018 0
M  V30 12345 H 1163.93 -2.8678 -5.0621 0
M  V30 12346 H 1162.81 -4.69854 -6.27859 0
M  V30 12347 N 1160.31 1.56586 -0.178487 0
M  V30 12348 C 1161.26 2.18309 0.74899 0
M  V30 12349 C 1162.23 1.12525 1.22178 0
M  V30 12350 O 1163.41 1.40706 1.28866 0
M  V30 12351 C 1160.55 2.83353 1.9699 0
M  V30 12352 C 1159.66 4.03618 1.54002 0
M  V30 12353 C 1158.8 4.56567 2.71514 0
M  V30 12354 C 1157.84 5.69226 2.25051 0
M  V30 12355 N 1156.97 6.16654 3.35682 0
M  V30 12356 H 1161.81 2.97217 0.21587 0
M  V30 12357 H 1159.35 1.46794 0.0948182 0
M  V30 12358 H 1161.31 3.19226 2.68609 0
M  V30 12359 H 1159.94 2.07037 2.4766 0
M  V30 12360 H 1158.99 3.73518 0.720298 0
M  V30 12361 H 1160.3 4.85148 1.15901 0
M  V30 12362 H 1159.46 4.94659 3.5128 0
M  V30 12363 H 1158.2 3.7411 3.12879 0
M  V30 12364 H 1157.2 5.30679 1.43734 0
M  V30 12365 H 1158.43 6.5349 1.84736 0
M  V30 12366 H 1156.37 5.37124 3.76609 0
M  V30 12367 H 1156.29 6.93192 3.01697 0
M  V30 12368 H 1157.56 6.59397 4.15711 0
M  V30 12369 N 1161.79 -0.095206 1.57312 0
M  V30 12370 C 1163.03 -0.799903 1.86358 0
M  V30 12371 C 1163.37 -1.78386 0.767593 0
M  V30 12372 O 1162.64 -1.93201 -0.224439 0
M  V30 12373 C 1162.92 -1.52875 3.26039 0
M  V30 12374 C 1162.78 -0.562781 4.46265 0
M  V30 12375 C 1164.1 -2.47935 3.63616 0
M  V30 12376 H 1161.21 -0.289339 0.677829 0
M  V30 12377 H 1163.86 -0.0635369 1.89894 0
M  V30 12378 H 1162.01 -2.15645 3.23156 0
M  V30 12379 H 1163.68 0.0579068 4.61264 0
M  V30 12380 H 1161.92 0.123847 4.33623 0
M  V30 12381 H 1162.59 -1.10989 5.40727 0
M  V30 12382 H 1165.07 -1.95257 3.67442 0
M  V30 12383 H 1163.94 -2.95948 4.62283 0
M  V30 12384 H 1164.21 -3.31687 2.92294 0
M  V30 12385 N 1163.26 -1.53291 -0.366026 0
M  V30 12386 C 1164.19 -1.82675 -1.45437 0
M  V30 12387 C 1165.18 -0.680227 -1.55907 0
M  V30 12388 O 1166.36 -0.930032 -1.70482 0
M  V30 12389 C 1163.49 -2.01626 -2.8278 0
M  V30 12390 C 1162.44 -3.17391 -2.87135 0
M  V30 12391 C 1161.77 -3.21634 -4.27148 0
M  V30 12392 C 1163.07 -4.5599 -2.54697 0
M  V30 12393 H 1164.76 -2.73818 -1.21096 0
M  V30 12394 H 1162.31 -1.31754 -0.581108 0
M  V30 12395 H 1164.26 -2.20765 -3.58944 0
M  V30 12396 H 1162.99 -1.07193 -3.08508 0
M  V30 12397 H 1161.65 -2.98071 -2.13422 0
M  V30 12398 H 1161.29 -2.2484 -4.49951 0
M  V30 12399 H 1160.99 -3.99414 -4.30978 0
M  V30 12400 H 1162.52 -3.42957 -5.05186 0
M  V30 12401 H 1163.93 -4.75294 -3.20575 0
M  V30 12402 H 1162.33 -5.36008 -2.69844 0
M  V30 12403 H 1163.4 -4.61133 -1.49949 0
M  V30 12404 N 1164.74 0.6258 -1.44643 0
M  V30 12405 C 1165.99 1.38525 -1.47706 0
M  V30 12406 C 1166.32 1.94179 -0.111703 0
M  V30 12407 O 1165.57 1.74432 0.887237 0
M  V30 12408 C 1165.87 2.56466 -2.48917 0
M  V30 12409 C 1165.54 2.19069 -3.94106 0
M  V30 12410 C 1164.2 2.08583 -4.33643 0
M  V30 12411 C 1166.55 1.89608 -4.85488 0
M  V30 12412 C 1163.88 1.66831 -5.6248 0
M  V30 12413 C 1166.23 1.49347 -6.14718 0
M  V30 12414 C 1164.9 1.37406 -6.53204 0
M  V30 12415 H 1164.17 0.506899 -0.540494 0
M  V30 12416 H 1166.81 0.709128 -1.77887 0
M  V30 12417 H 1165.12 3.29335 -2.12239 0
M  V30 12418 H 1166.81 3.14695 -2.48532 0
M  V30 12419 H 1163.4 2.28151 -3.62829 0
M  V30 12420 H 1167.59 1.96616 -4.55693 0
M  V30 12421 H 1162.84 1.56195 -5.91112 0
M  V30 12422 H 1167.02 1.2559 -6.84982 0
M  V30 12423 H 1164.65 1.04826 -7.52938 0
M  V30 12424 N 1166.22 1.31629 0.866686 0
M  V30 12425 C 1167.18 1.1951 1.95576 0
M  V30 12426 C 1168.18 0.121319 1.60342 0
M  V30 12427 O 1169.37 0.370832 1.70207 0
M  V30 12428 C 1166.51 0.835201 3.30511 0
M  V30 12429 H 1167.7 2.16285 2.07752 0
M  V30 12430 H 1165.25 1.15288 1.05539 0
M  V30 12431 H 1165.99 -0.131245 3.24034 0
M  V30 12432 H 1165.77 1.61142 3.57457 0
M  V30 12433 H 1167.26 0.774393 4.10357 0
M  V30 12434 N 1167.7 -1.08142 1.14644 0
M  V30 12435 C 1168.95 -1.80582 0.916327 0
M  V30 12436 C 1169.27 -1.86355 -0.556969 0
M  V30 12437 O 1168.53 -1.33736 -1.42875 0
M  V30 12438 C 1168.83 -3.25962 1.46573 0
M  V30 12439 C 1168.49 -3.40302 2.95814 0
M  V30 12440 C 1167.16 -3.43922 3.36557 0
M  V30 12441 C 1169.51 -3.43758 3.91765 0
M  V30 12442 C 1166.84 -3.48594 4.7191 0
M  V30 12443 C 1169.19 -3.49965 5.26979 0
M  V30 12444 C 1167.85 -3.5186 5.67231 0
M  V30 12445 H 1167.12 -0.660795 0.335308 0
M  V30 12446 H 1169.77 -1.27309 1.43055 0
M  V30 12447 H 1168.07 -3.81961 0.872507 0
M  V30 12448 H 1169.77 -3.80571 1.2636 0
M  V30 12449 H 1166.36 -3.38176 2.63315 0
M  V30 12450 H 1170.55 -3.40189 3.61366 0
M  V30 12451 H 1165.8 -3.48355 5.02453 0
M  V30 12452 H 1169.98 -3.51585 6.01133 0
M  V30 12453 H 1167.6 -3.55233 6.72097 0
M  V30 12454 N 1169.18 -0.941978 -1.26351 0
M  V30 12455 C 1170.42 -0.590845 -1.94002 0
M  V30 12456 C 1170.76 0.868004 -1.73722 0
M  V30 12457 O 1170.03 1.62111 -1.07472 0
M  V30 12458 C 1170.31 -0.934901 -3.47752 0
M  V30 12459 C 1170.17 -2.44855 -3.77314 0
M  V30 12460 C 1171.49 -0.450888 -4.37784 0
M  V30 12461 H 1168.61 -0.21613 -0.704597 0
M  V30 12462 H 1171.25 -1.17634 -1.49205 0
M  V30 12463 H 1169.4 -0.436648 -3.86038 0
M  V30 12464 H 1171.07 -3.01959 -3.48738 0
M  V30 12465 H 1169.31 -2.89169 -3.23363 0
M  V30 12466 H 1169.98 -2.6398 -4.84787 0
M  V30 12467 H 1172.46 -0.878107 -4.06729 0
M  V30 12468 H 1171.34 -0.720439 -5.44152 0
M  V30 12469 H 1171.6 0.649162 -4.37308 0
M  V30 12470 N 1170.66 1.40747 -0.709091 0
M  V30 12471 C 1172.07 1.83955 -0.318968 0
M  V30 12472 C 1172.42 1.59304 1.14527 0
M  V30 12473 O 1171.54 1.07052 1.88066 0
M  V30 12474 C 1172.14 3.33934 -0.572147 0
M  V30 12475 C 1170.7 3.75661 -0.235802 0
M  V30 12476 C 1169.84 2.64024 -0.847743 0
M  V30 12477 H 1172.79 1.30107 -0.908734 0
M  V30 12478 H 1172.82 3.80143 0.164752 0
M  V30 12479 H 1172.33 3.51844 -1.63791 0
M  V30 12480 H 1170.43 3.63348 0.825164 0
M  V30 12481 H 1170.54 4.73955 -0.700263 0
M  V30 12482 H 1168.91 2.53197 -0.276283 0
M  V30 12483 H 1169.69 2.84748 -1.91765 0
M  V30 12484 N 1172.13 0.454803 1.50895 0
M  V30 12485 C 1173.54 -0.00421212 1.867 0
M  V30 12486 C 1173.9 -1.4037 1.3708 0
M  V30 12487 O 1173.02 -2.03755 0.728884 0
M  V30 12488 C 1173.62 -0.0144196 3.38797 0
M  V30 12489 C 1172.17 -0.417905 3.74073 0
M  V30 12490 C 1171.32 0.37801 2.74711 0
M  V30 12491 H 1174.27 0.669849 1.4387 0
M  V30 12492 H 1174.29 -0.820172 3.71555 0
M  V30 12493 H 1173.81 1.00427 3.74881 0
M  V30 12494 H 1171.91 -1.44155 3.43584 0
M  V30 12495 H 1172.02 -0.130568 4.78922 0
M  V30 12496 H 1170.38 -0.166089 2.54158 0
M  V30 12497 H 1171.17 1.3959 3.13639 0
M  V30 12498 N 1173.61 -1.56489 0.186789 0
M  V30 12499 C 1174.84 -2.01722 -0.459993 0
M  V30 12500 C 1175.25 -1.06697 -1.5576 0
M  V30 12501 O 1174.61 -0.0704212 -1.82364 0
M  V30 12502 C 1174.66 -3.46693 -1.02401 0
M  V30 12503 O 1174.38 -4.3809 0.0297916 0
M  V30 12504 C 1175.88 -4.07403 -1.7475 0
M  V30 12505 H 1173.1 -0.660845 -0.116298 0
M  V30 12506 H 1175.65 -2.02389 0.293059 0
M  V30 12507 H 1173.8 -3.46752 -1.72749 0
M  V30 12508 H 1174.22 -5.23057 -0.388821 0
M  V30 12509 H 1175.69 -5.10718 -2.09455 0
M  V30 12510 H 1176.17 -3.50383 -2.64818 0
M  V30 12511 H 1176.77 -4.11093 -1.09007 0
M  V30 12512 N 1175.09 0.086862 -1.5736 0
M  V30 12513 C 1176 1.12297 -2.05977 0
M  V30 12514 C 1177.02 1.43347 -0.986284 0
M  V30 12515 O 1178.19 1.53825 -1.3 0
M  V30 12516 C 1175.26 2.42131 -2.4814 0
M  V30 12517 C 1174.32 2.18189 -3.69719 0
M  V30 12518 C 1173.55 3.41833 -4.09861 0
M  V30 12519 O 1173.77 4.50383 -3.50016 0
M  V30 12520 O 1172.71 3.30934 -5.02759 0
M  V30 12521 H 1176.53 0.740012 -2.94546 0
M  V30 12522 H 1174.12 0.29995 -1.46358 0
M  V30 12523 H 1176 3.18568 -2.75848 0
M  V30 12524 H 1174.68 2.79837 -1.62705 0
M  V30 12525 H 1173.58 1.39506 -3.47115 0
M  V30 12526 H 1174.92 1.85372 -4.55959 0
M  V30 12527 N 1176.57 1.53483 0.357892 0
M  V30 12528 C 1177.8 1.73704 1.11851 0
M  V30 12529 C 1178.21 0.469388 1.83285 0
M  V30 12530 O 1177.55 -0.567894 1.74702 0
M  V30 12531 C 1177.61 2.85301 2.18732 0
M  V30 12532 C 1177.27 4.25395 1.66998 0
M  V30 12533 C 1178.27 5.07472 1.12994 0
M  V30 12534 C 1175.96 4.71832 1.72279 0
M  V30 12535 C 1177.95 6.34081 0.649574 0
M  V30 12536 C 1175.64 5.98417 1.23854 0
M  V30 12537 C 1176.64 6.79374 0.702839 0
M  V30 12538 O 1176.32 8.03583 0.225763 0
M  V30 12539 H 1176.06 0.584251 0.34004 0
M  V30 12540 H 1178.61 2.01054 0.420313 0
M  V30 12541 H 1176.84 2.53442 2.92068 0
M  V30 12542 H 1178.53 2.93627 2.80247 0
M  V30 12543 H 1179.29 4.72766 1.08248 0
M  V30 12544 H 1175.17 4.08886 2.12916 0
M  V30 12545 H 1178.72 6.97218 0.230774 0
M  V30 12546 H 1174.61 6.32622 1.28296 0
M  V30 12547 H 1175.38 8.17775 0.344381 0
M  V30 12548 N 1178.05 -0.61812 1.44973 0
M  V30 12549 C 1179.29 -1.37754 1.4965 0
M  V30 12550 C 1179.65 -1.91945 0.132201 0
M  V30 12551 O 1178.94 -1.71493 -0.854439 0
M  V30 12552 C 1179.13 -2.55143 2.50274 0
M  V30 12553 C 1178.96 -2.12446 3.96354 0
M  V30 12554 C 1177.73 -1.99112 4.64416 0
M  V30 12555 C 1179.93 -1.70557 4.85196 0
M  V30 12556 N 1177.91 -1.50114 5.95264 0
M  V30 12557 C 1179.28 -1.329 6.05589 0
M  V30 12558 C 1181.34 -1.58054 4.72147 0
M  V30 12559 C 1180.04 -0.839882 7.1438 0
M  V30 12560 C 1182.07 -1.10547 5.80976 0
M  V30 12561 C 1181.43 -0.738477 7.00518 0
M  V30 12562 H 1177.53 -0.498393 0.602601 0
M  V30 12563 H 1180.11 -0.70775 1.81381 0
M  V30 12564 H 1178.28 -3.19732 2.20513 0
M  V30 12565 H 1180.02 -3.21988 2.45166 0
M  V30 12566 H 1176.77 -2.19971 4.19416 0
M  V30 12567 H 1177.19 -1.27878 6.64813 0
M  V30 12568 H 1181.84 -1.85056 3.8015 0
M  V30 12569 H 1179.55 -0.557395 8.06175 0
M  V30 12570 H 1183.14 -1.01314 5.72911 0
M  V30 12571 H 1182.02 -0.376513 7.83296 0
M  V30 12572 N 1179.52 -1.32087 -0.859693 0
M  V30 12573 C 1180.47 -1.20549 -1.98924 0
M  V30 12574 C 1181.47 -0.111422 -1.69033 0
M  V30 12575 O 1182.67 -0.27401 -1.77902 0
M  V30 12576 H 1179.05 -0.373538 -0.652667 0
M  V30 12577 H 1181.02 -2.16091 -2.05785 0
M  V30 12578 C 1179.77 -0.940226 -3.34746 0
M  V30 12579 H 1179.09 -1.77427 -3.58273 0
M  V30 12580 H 1180.53 -0.899712 -4.14344 0
M  V30 12581 C 1178.99 0.357042 -3.35003 0
M  V30 12582 O 1179.52 1.37054 -3.77596 0
M  V30 12583 N 1177.72 0.37723 -2.88141 0
M  V30 12584 H 1177.27 -0.448051 -2.53674 0
M  V30 12585 H 1177.23 1.24509 -2.88695 0
M  V30 12586 N 1181 1.07532 -1.15215 0
M  V30 12587 C 1182.25 1.79737 -0.924062 0
M  V30 12588 C 1182.57 1.87072 0.550356 0
M  V30 12589 O 1181.84 1.37029 1.4 0
M  V30 12590 H 1180.42 0.665704 -0.338891 0
M  V30 12591 H 1183.08 1.29961 -1.45245 0
M  V30 12592 H 1182.18 2.82256 -1.33184 0
M  V30 12593 N 1182.48 0.948665 1.2585 0
M  V30 12594 C 1183.73 0.610669 1.94016 0
M  V30 12595 C 1184.08 -0.842181 1.72989 0
M  V30 12596 O 1183.37 -1.59556 1.06078 0
M  V30 12597 C 1183.57 0.89784 3.45939 0
M  V30 12598 C 1183.4 2.37705 3.81741 0
M  V30 12599 C 1182.17 3.03355 4.04109 0
M  V30 12600 C 1184.37 3.35602 3.89712 0
M  V30 12601 N 1182.35 4.41211 4.26856 0
M  V30 12602 C 1183.72 4.58743 4.17079 0
M  V30 12603 C 1185.77 3.30523 3.72369 0
M  V30 12604 C 1184.48 5.77436 4.28906 0
M  V30 12605 C 1186.5 4.48548 3.85433 0
M  V30 12606 C 1185.86 5.70474 4.13205 0
M  V30 12607 H 1181.96 0.273966 0.732439 0
M  V30 12608 H 1184.55 1.21961 1.51768 0
M  V30 12609 H 1182.72 0.317878 3.87097 0
M  V30 12610 H 1184.45 0.520353 4.01341 0
M  V30 12611 H 1181.21 2.53947 3.9976 0
M  V30 12612 H 1181.63 5.12589 4.42247 0
M  V30 12613 H 1186.27 2.3731 3.4992 0
M  V30 12614 H 1183.99 6.71095 4.50174 0
M  V30 12615 H 1187.58 4.46159 3.73408 0
M  V30 12616 H 1186.46 6.60277 4.23088 0
M  V30 12617 N 1183.96 -1.40369 0.716545 0
M  V30 12618 C 1184.92 -2.29083 0.0733105 0
M  V30 12619 C 1185.92 -1.45415 -0.686378 0
M  V30 12620 O 1187.11 -1.66316 -0.518139 0
M  V30 12621 C 1184.24 -3.28639 -0.906032 0
M  V30 12622 H 1185.44 -2.87464 0.85467 0
M  V30 12623 H 1182.99 -1.48706 0.481256 0
M  V30 12624 H 1183.72 -2.75279 -1.71441 0
M  V30 12625 H 1183.51 -3.90405 -0.364163 0
M  V30 12626 H 1185 -3.95066 -1.35324 0
M  V30 12627 N 1185.44 -0.462799 -1.50652 0
M  V30 12628 C 1186.68 0.0938945 -2.04184 0
M  V30 12629 C 1187.04 1.37726 -1.33774 0
M  V30 12630 O 1188.24 2.01581 -1.77817 0
M  V30 12631 C 1186.51 0.281884 -3.56287 0
M  V30 12632 S 1188.07 0.798326 -4.31477 0
M  V30 12633 H 1184.89 0.0198719 -0.710722 0
M  V30 12634 H 1187.49 -0.62804 -1.85138 0
M  V30 12635 H 1186.2 -0.658084 -4.05089 0
M  V30 12636 H 1185.73 1.03017 -3.79672 0
M  V30 12637 H 1187.74 2.07281 -4.50832 0
M  V30 12638 N 1186.91 1.56388 -0.195085 0
M  V30 12639 C 1188.16 1.9758 0.443686 0
M  V30 12640 C 1188.49 1.08196 1.61629 0
M  V30 12641 O 1187.74 0.121061 1.95325 0
M  V30 12642 C 1188.04 3.44651 0.946051 0
M  V30 12643 C 1187.71 4.50758 -0.11318 0
M  V30 12644 C 1186.37 4.79499 -0.404229 0
M  V30 12645 C 1188.72 5.14534 -0.830899 0
M  V30 12646 C 1186.05 5.69307 -1.41797 0
M  V30 12647 C 1188.4 6.05438 -1.83379 0
M  V30 12648 C 1187.07 6.32535 -2.13204 0
M  V30 12649 H 1186.34 0.722995 0.162356 0
M  V30 12650 H 1188.98 1.8926 -0.292049 0
M  V30 12651 H 1187.29 3.50042 1.76006 0
M  V30 12652 H 1188.99 3.73878 1.44969 0
M  V30 12653 H 1185.58 4.28421 0.123833 0
M  V30 12654 H 1189.76 4.92421 -0.61927 0
M  V30 12655 H 1185.02 5.88575 -1.65496 0
M  V30 12656 H 1189.19 6.53915 -2.39516 0
M  V30 12657 H 1186.82 7.01924 -2.91902 0
M  V30 12658 N 1188.39 -0.0785156 1.57404 0
M  V30 12659 C 1189.64 -0.777722 1.86103 0
M  V30 12660 C 1189.95 -1.79079 0.786771 0
M  V30 12661 O 1191.16 -2.53908 0.961393 0
M  V30 12662 C 1189.62 -1.43407 3.30095 0
M  V30 12663 C 1189.22 -0.459912 4.45633 0
M  V30 12664 C 1190.97 -2.11603 3.68 0
M  V30 12665 C 1188.88 -1.12179 5.80663 0
M  V30 12666 H 1187.81 -0.294205 0.694233 0
M  V30 12667 H 1190.46 -0.0309003 1.83474 0
M  V30 12668 H 1188.84 -2.22892 3.27315 0
M  V30 12669 H 1190.01 0.304642 4.59792 0
M  V30 12670 H 1188.33 0.117242 4.16235 0
M  V30 12671 H 1190.92 -2.61887 4.66175 0
M  V30 12672 H 1191.27 -2.91244 2.9746 0
M  V30 12673 H 1191.8 -1.38958 3.72741 0
M  V30 12674 H 1188.54 -0.365842 6.54478 0
M  V30 12675 H 1188.06 -1.85737 5.70317 0
M  V30 12676 H 1189.74 -1.64355 6.25777 0
M  V30 12677 N 1189.87 -1.5367 -0.349747 0
M  V30 12678 C 1191.12 -1.7087 -1.0923 0
M  V30 12679 C 1191.45 -0.467299 -1.88494 0
M  V30 12680 O 1190.72 0.535619 -1.8698 0
M  V30 12681 C 1191.01 -2.9684 -2.03858 0
M  V30 12682 C 1190.86 -4.31174 -1.28097 0
M  V30 12683 C 1192.18 -3.18459 -3.03763 0
M  V30 12684 H 1189.3 -0.621757 -0.395711 0
M  V30 12685 H 1191.94 -1.86333 -0.371481 0
M  V30 12686 H 1190.09 -2.83788 -2.65323 0
M  V30 12687 H 1191.76 -4.56066 -0.692933 0
M  V30 12688 H 1190.01 -4.29866 -0.582924 0
M  V30 12689 H 1190.68 -5.15482 -1.9744 0
M  V30 12690 H 1193.15 -3.30801 -2.52409 0
M  V30 12691 H 1192.03 -4.08006 -3.67182 0
M  V30 12692 H 1192.29 -2.34467 -3.74803 0
M  V30 12693 N 1191.35 0.610423 -1.45298 0
M  V30 12694 C 1192.57 1.40112 -1.52917 0
M  V30 12695 C 1193 1.87404 -0.161696 0
M  V30 12696 O 1192.36 1.59973 0.853135 0
M  V30 12697 C 1192.4 2.58359 -2.51561 0
M  V30 12698 O 1191.51 3.58895 -2.03146 0
M  V30 12699 H 1190.85 0.41841 -0.515586 0
M  V30 12700 H 1193.38 0.743159 -1.90626 0
M  V30 12701 H 1193.39 3.0564 -2.70275 0
M  V30 12702 H 1192.06 2.23286 -3.50879 0
M  V30 12703 H 1190.64 3.18282 -1.94296 0
M  V30 12704 N 1192.83 1.32541 0.852676 0
M  V30 12705 C 1194.08 1.22567 1.60188 0
M  V30 12706 C 1194.39 -0.210594 1.94463 0
M  V30 12707 O 1195.59 -0.432214 2.68038 0
M  V30 12708 C 1194.05 2.14678 2.88862 0
M  V30 12709 C 1193.66 3.63398 2.62004 0
M  V30 12710 C 1195.4 2.13545 3.66877 0
M  V30 12711 C 1193.31 4.47464 3.86691 0
M  V30 12712 H 1192.24 0.455184 0.601102 0
M  V30 12713 H 1194.89 1.57515 0.941347 0
M  V30 12714 H 1193.27 1.72647 3.56383 0
M  V30 12715 H 1194.45 4.13783 2.02782 0
M  V30 12716 H 1192.76 3.66681 1.97316 0
M  V30 12717 H 1195.36 2.73589 4.59405 0
M  V30 12718 H 1195.7 1.12694 4.00756 0
M  V30 12719 H 1196.23 2.53866 3.06263 0
M  V30 12720 H 1192.97 5.49136 3.57952 0
M  V30 12721 H 1192.49 4.01829 4.45302 0
M  V30 12722 H 1194.17 4.60565 4.5441 0
M  V30 12723 N 1194.3 -1.0692 1.15784 0
M  V30 12724 C 1195.23 -2.16216 0.881649 0
M  V30 12725 C 1196.22 -1.69253 -0.16951 0
M  V30 12726 O 1197.4 -1.94186 -0.0229511 0
M  V30 12727 C 1194.53 -3.4527 0.374982 0
M  V30 12728 C 1193.48 -4.05706 1.36332 0
M  V30 12729 C 1192.81 -5.29894 0.715317 0
M  V30 12730 C 1194.11 -4.45224 2.7308 0
M  V30 12731 H 1195.8 -2.39577 1.79563 0
M  V30 12732 H 1193.35 -1.15141 0.864784 0
M  V30 12733 H 1195.3 -4.2106 0.169279 0
M  V30 12734 H 1194.03 -3.21508 -0.574485 0
M  V30 12735 H 1192.69 -3.31965 1.55546 0
M  V30 12736 H 1192.33 -5.02425 -0.240436 0
M  V30 12737 H 1192.03 -5.71287 1.37494 0
M  V30 12738 H 1193.56 -6.08386 0.519489 0
M  V30 12739 H 1194.97 -5.12124 2.57686 0
M  V30 12740 H 1193.37 -4.97583 3.35457 0
M  V30 12741 H 1194.44 -3.56384 3.28813 0
M  V30 12742 N 1195.78 -0.955326 -1.25345 0
M  V30 12743 C 1196.72 -0.420299 -2.24296 0
M  V30 12744 C 1197.69 0.498753 -1.54762 0
M  V30 12745 O 1198.88 0.432971 -1.8346 0
M  V30 12746 C 1196 0.394576 -3.36394 0
M  V30 12747 C 1195.05 -0.464973 -4.23958 0
M  V30 12748 S 1195.88 -1.89764 -5.00749 0
M  V30 12749 C 1197.04 -1.09121 -6.16314 0
M  V30 12750 H 1197.27 -1.25888 -2.69331 0
M  V30 12751 H 1194.81 -0.759449 -1.34431 0
M  V30 12752 H 1196.76 0.858788 -4.01416 0
M  V30 12753 H 1195.42 1.20799 -2.89942 0
M  V30 12754 H 1194.62 0.160055 -5.03746 0
M  V30 12755 H 1194.22 -0.864422 -3.63873 0
M  V30 12756 H 1196.51 -0.340218 -6.76645 0
M  V30 12757 H 1197.45 -1.86304 -6.83152 0
M  V30 12758 H 1197.86 -0.621033 -5.61073 0
M  V30 12759 N 1197.26 1.39987 -0.723979 0
M  V30 12760 C 1198.51 1.99964 -0.26406 0
M  V30 12761 C 1198.82 1.58084 1.1519 0
M  V30 12762 O 1200.03 2.10819 1.71077 0
M  V30 12763 C 1198.49 3.57427 -0.421174 0
M  V30 12764 C 1198.09 4.08276 -1.84432 0
M  V30 12765 C 1199.84 4.24494 -0.0224734 0
M  V30 12766 C 1197.74 5.58272 -1.95157 0
M  V30 12767 H 1196.67 0.747995 -0.0949728 0
M  V30 12768 H 1199.33 1.60122 -0.896276 0
M  V30 12769 H 1197.71 3.95011 0.279762 0
M  V30 12770 H 1198.88 3.82051 -2.57631 0
M  V30 12771 H 1197.2 3.53834 -2.19523 0
M  V30 12772 H 1199.79 5.34637 -0.0817744 0
M  V30 12773 H 1200.14 4.03593 1.02069 0
M  V30 12774 H 1200.67 3.92046 -0.67416 0
M  V30 12775 H 1197.41 5.84038 -2.97623 0
M  V30 12776 H 1196.93 5.86335 -1.2638 0
M  V30 12777 H 1198.61 6.23509 -1.72759 0
M  V30 12778 N 1198.74 0.470782 1.50404 0
M  V30 12779 C 1199.99 -0.0841494 2.01925 0
M  V30 12780 C 1200.31 -1.40244 1.35487 0
M  V30 12781 O 1199.58 -1.89409 0.500111 0
M  V30 12782 H 1198.16 -0.0340884 0.746222 0
M  V30 12783 H 1200.82 0.621133 1.84738 0
M  V30 12784 H 1199.92 -0.235877 3.11207 0
M  V30 12785 N 1200.22 -1.56282 0.203376 0
M  V30 12786 C 1201.15 -2.2247 -0.709183 0
M  V30 12787 C 1202.13 -1.19046 -1.21499 0
M  V30 12788 O 1203.31 -1.47578 -1.26231 0
M  V30 12789 C 1200.44 -2.8905 -1.92529 0
M  V30 12790 C 1199.4 -3.98789 -1.55407 0
M  V30 12791 C 1198.72 -4.52574 -2.84747 0
M  V30 12792 C 1200.02 -5.16774 -0.75775 0
M  V30 12793 H 1201.72 -2.98986 -0.157392 0
M  V30 12794 H 1199.26 -1.43808 -0.0742613 0
M  V30 12795 H 1201.22 -3.34038 -2.56898 0
M  V30 12796 H 1199.94 -2.09952 -2.50175 0
M  V30 12797 H 1198.6 -3.54504 -0.933928 0
M  V30 12798 H 1198.25 -3.70229 -3.40499 0
M  V30 12799 H 1197.95 -5.26627 -2.6065 0
M  V30 12800 H 1199.47 -5.00269 -3.5009 0
M  V30 12801 H 1200.89 -5.58256 -1.30472 0
M  V30 12802 H 1199.28 -5.96945 -0.614583 0
M  V30 12803 H 1200.35 -4.84308 0.239476 0
M  V30 12804 N 1201.7 0.070167 -1.57444 0
M  V30 12805 C 1202.63 1.08351 -2.06839 0
M  V30 12806 C 1203.61 1.40269 -0.962224 0
M  V30 12807 O 1204.79 1.49867 -1.23505 0
M  V30 12808 C 1201.92 2.39649 -2.51368 0
M  V30 12809 C 1200.88 2.22079 -3.65875 0
M  V30 12810 C 1200.2 3.58776 -3.96464 0
M  V30 12811 C 1201.5 1.64069 -4.95862 0
M  V30 12812 H 1203.2 0.672465 -2.9175 0
M  V30 12813 H 1200.74 0.322027 -1.40353 0
M  V30 12814 H 1202.69 3.10833 -2.84537 0
M  V30 12815 H 1201.42 2.82736 -1.63487 0
M  V30 12816 H 1200.08 1.53337 -3.32992 0
M  V30 12817 H 1199.73 3.99436 -3.05712 0
M  V30 12818 H 1199.43 3.47859 -4.7357 0
M  V30 12819 H 1200.95 4.31387 -4.32131 0
M  V30 12820 H 1202.36 2.2512 -5.27251 0
M  V30 12821 H 1200.76 1.63843 -5.773 0
M  V30 12822 H 1201.83 0.60232 -4.81145 0
M  V30 12823 N 1203.17 1.53854 0.341593 0
M  V30 12824 C 1204.4 1.75134 1.10162 0
M  V30 12825 C 1204.82 0.491415 1.82292 0
M  V30 12826 O 1204.17 -0.53703 1.7442 0
M  V30 12827 C 1204.22 2.93273 2.1136 0
M  V30 12828 O 1203.95 4.14393 1.42162 0
M  V30 12829 C 1205.45 3.26621 2.99723 0
M  V30 12830 H 1202.67 0.585126 0.328434 0
M  V30 12831 H 1205.21 2.00684 0.393204 0
M  V30 12832 H 1203.37 2.70048 2.77764 0
M  V30 12833 H 1203.78 4.8072 2.09783 0
M  V30 12834 H 1205.25 4.12629 3.66662 0
M  V30 12835 H 1205.73 2.43008 3.65847 0
M  V30 12836 H 1206.34 3.51858 2.38906 0
M  V30 12837 N 1204.65 -0.602709 1.4562 0
M  V30 12838 C 1205.61 -1.69508 1.54271 0
M  V30 12839 C 1206.61 -1.55171 0.421727 0
M  V30 12840 O 1207.8 -1.60151 0.685375 0
M  V30 12841 C 1204.94 -3.0881 1.44392 0
M  V30 12842 H 1206.13 -1.63203 2.51605 0
M  V30 12843 H 1203.68 -0.818857 1.33133 0
M  V30 12844 H 1204.42 -3.20689 0.482614 0
M  V30 12845 H 1204.2 -3.20625 2.25704 0
M  V30 12846 H 1205.69 -3.8837 1.53488 0
M  V30 12847 N 1206.13 -1.32992 -0.845635 0
M  V30 12848 C 1207.38 -1.24065 -1.60044 0
M  V30 12849 C 1207.7 0.195282 -1.93517 0
M  V30 12850 O 1206.96 1.1507 -1.58296 0
M  V30 12851 C 1207.26 -2.05454 -2.92444 0
M  V30 12852 C 1206.92 -3.54718 -2.78362 0
M  V30 12853 C 1205.59 -3.95413 -2.74229 0
M  V30 12854 C 1207.94 -4.49598 -2.63649 0
M  V30 12855 C 1205.27 -5.29216 -2.53274 0
M  V30 12856 C 1207.62 -5.83554 -2.44228 0
M  V30 12857 C 1206.28 -6.2344 -2.38493 0
M  V30 12858 H 1205.55 -0.453985 -0.585644 0
M  V30 12859 H 1208.2 -1.6451 -0.980244 0
M  V30 12860 H 1206.5 -1.57765 -3.58633 0
M  V30 12861 H 1208.2 -1.95909 -3.49887 0
M  V30 12862 H 1204.79 -3.22403 -2.82409 0
M  V30 12863 H 1208.98 -4.19072 -2.65881 0
M  V30 12864 H 1204.23 -5.59164 -2.47275 0
M  V30 12865 H 1208.41 -6.56681 -2.31825 0
M  V30 12866 H 1206.03 -7.27058 -2.22015 0
M  V30 12867 N 1207.61 1.06304 -1.1635 0
M  V30 12868 C 1208.86 1.78487 -0.939423 0
M  V30 12869 C 1209.17 1.8817 0.533998 0
M  V30 12870 O 1210.38 2.56981 0.875962 0
M  V30 12871 C 1208.83 3.20796 -1.63149 0
M  V30 12872 C 1208.44 3.19281 -3.14267 0
M  V30 12873 C 1210.18 3.97514 -1.48938 0
M  V30 12874 C 1208.09 4.56309 -3.76213 0
M  V30 12875 H 1207.02 0.668973 -0.347837 0
M  V30 12876 H 1209.67 1.19237 -1.3948 0
M  V30 12877 H 1208.05 3.80305 -1.10382 0
M  V30 12878 H 1209.23 2.69356 -3.73877 0
M  V30 12879 H 1207.54 2.56062 -3.28362 0
M  V30 12880 H 1210.14 4.98808 -1.926 0
M  V30 12881 H 1210.48 4.13986 -0.438319 0
M  V30 12882 H 1211.02 3.44528 -1.98861 0
M  V30 12883 H 1207.75 4.45042 -4.81267 0
M  V30 12884 H 1207.27 5.06429 -3.21388 0
M  V30 12885 H 1208.95 5.25266 -3.77762 0
M  V30 12886 N 1209.09 0.96196 1.24836 0
M  V30 12887 C 1210.33 0.619489 1.92371 0
M  V30 12888 C 1210.65 -0.847233 1.75633 0
M  V30 12889 O 1209.92 -1.60419 1.12439 0
M  V30 12890 H 1208.5 0.226129 0.711951 0
M  V30 12891 H 1211.17 1.22179 1.5185 0
M  V30 12892 H 1210.26 0.855128 3.00157 0
M  V30 12893 N 1210.56 -1.39601 0.731392 0
M  V30 12894 C 1211.84 -1.94531 0.20422 0
M  V30 12895 C 1212.22 -1.66845 -1.29329 0
M  V30 12896 O 1211.57 -0.994706 -2.05713 0
M  V30 12897 C 1211.78 -3.44891 0.53395 0
M  V30 12898 C 1213.13 -4.21863 0.481298 0
M  V30 12899 O 1214.15 -3.53073 0.470929 0
M  V30 12900 O 1213.01 -5.44452 0.472663 0
M  V30 12901 H 1210.1 -0.826214 0.0360436 0
M  V30 12902 H 1212.65 -1.49121 0.810005 0
M  V30 12903 H 1211.42 -3.58463 1.56907 0
M  V30 12904 H 1211.04 -3.97472 -0.10099 0
M  V30 12905 N 1212.04 -0.478751 -1.50152 0
M  V30 12906 C 1212.97 0.301182 -2.31549 0
M  V30 12907 C 1213.95 0.983276 -1.38801 0
M  V30 12908 O 1215.14 0.978973 -1.67719 0
M  V30 12909 C 1212.27 1.3791 -3.18745 0
M  V30 12910 C 1211.22 0.818175 -4.20107 0
M  V30 12911 C 1210.55 1.99496 -4.9609 0
M  V30 12912 C 1211.85 -0.17574 -5.22004 0
M  V30 12913 H 1213.54 -0.378188 -2.97002 0
M  V30 12914 H 1211.09 -0.183323 -1.42828 0
M  V30 12915 H 1213.04 1.93227 -3.74488 0
M  V30 12916 H 1211.77 2.08735 -2.51192 0
M  V30 12917 H 1210.42 0.286924 -3.65475 0
M  V30 12918 H 1210.07 2.69036 -4.25004 0
M  V30 12919 H 1209.77 1.62582 -5.6466 0
M  V30 12920 H 1211.3 2.55288 -5.54671 0
M  V30 12921 H 1212.71 0.288513 -5.72574 0
M  V30 12922 H 1211.11 -0.459549 -5.98338 0
M  V30 12923 H 1212.18 -1.09911 -4.72279 0
M  V30 12924 N 1213.52 1.56172 -0.211661 0
M  V30 12925 C 1214.48 2.18602 0.688906 0
M  V30 12926 C 1215.48 1.14508 1.12892 0
M  V30 12927 O 1216.67 1.39799 1.03932 0
M  V30 12928 C 1213.81 2.80141 1.94253 0
M  V30 12929 H 1215 2.9955 0.144765 0
M  V30 12930 H 1212.55 1.56254 0.0379615 0
M  V30 12931 H 1213.29 2.03035 2.52878 0
M  V30 12932 H 1213.07 3.56358 1.63558 0
M  V30 12933 H 1214.56 3.28026 2.58436 0
M  V30 12934 N 1215 -0.0618163 1.57479 0
M  V30 12935 C 1216.22 -0.775513 1.92355 0
M  V30 12936 C 1216.65 -1.69816 0.808949 0
M  V30 12937 O 1216.01 -1.79736 -0.23761 0
M  V30 12938 C 1216.05 -1.5367 3.26218 0
M  V30 12939 O 1215.16 -2.64802 3.16155 0
M  V30 12940 H 1214.5 -0.210909 0.629614 0
M  V30 12941 H 1217.03 -0.0270752 2.04582 0
M  V30 12942 H 1217.04 -1.91379 3.6033 0
M  V30 12943 H 1215.71 -0.859798 4.06916 0
M  V30 12944 H 1214.29 -2.29876 2.93618 0
M  V30 12945 N 1216.48 -1.54033 -0.333429 0
M  V30 12946 C 1217.43 -1.7911 -1.4108 0
M  V30 12947 C 1218.41 -0.646699 -1.47332 0
M  V30 12948 O 1219.6 -0.906403 -1.52031 0
M  V30 12949 C 1216.73 -2.01314 -2.78078 0
M  V30 12950 C 1215.82 -3.21849 -2.76178 0
M  V30 12951 N 1216.21 -4.43109 -2.43903 0
M  V30 12952 C 1214.51 -3.23222 -3.07316 0
M  V30 12953 C 1215.21 -5.25004 -2.5049 0
M  V30 12954 N 1214.18 -4.61955 -2.86528 0
M  V30 12955 H 1217.99 -2.7045 -1.15039 0
M  V30 12956 H 1215.5 -1.53094 -0.541854 0
M  V30 12957 H 1217.5 -2.17417 -3.55718 0
M  V30 12958 H 1216.16 -1.11223 -3.05057 0
M  V30 12959 H 1217.17 -4.70282 -2.16922 0
M  V30 12960 H 1213.84 -2.43132 -3.39401 0
M  V30 12961 H 1215.23 -6.31812 -2.28611 0
M  V30 12962 N 1217.95 0.594978 -1.45938 0
M  V30 12963 C 1219.2 1.35361 -1.50611 0
M  V30 12964 C 1219.53 1.93898 -0.152866 0
M  V30 12965 O 1218.78 1.76275 0.850037 0
M  V30 12966 C 1219.08 2.51129 -2.54301 0
M  V30 12967 C 1218.75 2.1066 -3.98664 0
M  V30 12968 C 1217.41 1.99338 -4.3797 0
M  V30 12969 C 1219.76 1.79267 -4.894 0
M  V30 12970 C 1217.09 1.54863 -5.65893 0
M  V30 12971 C 1219.44 1.36274 -6.17748 0
M  V30 12972 C 1218.11 1.2352 -6.55972 0
M  V30 12973 H 1217.38 0.49532 -0.551125 0
M  V30 12974 H 1220.02 0.671236 -1.79351 0
M  V30 12975 H 1218.33 3.24759 -2.19177 0
M  V30 12976 H 1220.03 3.09353 -2.55151 0
M  V30 12977 H 1216.62 2.20403 -3.67587 0
M  V30 12978 H 1220.8 1.86906 -4.59761 0
M  V30 12979 H 1216.06 1.43621 -5.94292 0
M  V30 12980 H 1220.23 1.11032 -6.87492 0
M  V30 12981 H 1217.86 0.88832 -7.54992 0
M  V30 12982 N 1219.43 1.33438 0.838571 0
M  V30 12983 C 1220.68 1.24665 1.59069 0
M  V30 12984 C 1221 -0.187433 1.94097 0
M  V30 12985 O 1220.27 -1.11625 1.60987 0
M  V30 12986 H 1218.85 0.45843 0.589789 0
M  V30 12987 H 1221.51 1.67161 1.00216 0
M  V30 12988 H 1220.61 1.84057 2.52051 0
M  V30 12989 N 1220.91 -1.05686 1.16912 0
M  V30 12990 C 1222.15 -1.80177 0.965182 0
M  V30 12991 C 1222.51 -1.85437 -0.497698 0
M  V30 12992 O 1223.72 -2.5597 -0.82054 0
M  V30 12993 C 1221.99 -3.20441 1.58279 0
M  V30 12994 S 1223.55 -4.11472 1.52435 0
M  V30 12995 H 1220.36 -0.620595 0.346962 0
M  V30 12996 H 1222.97 -1.26841 1.48767 0
M  V30 12997 H 1221.67 -3.14211 2.64006 0
M  V30 12998 H 1221.2 -3.78853 1.05989 0
M  V30 12999 H 1223.22 -4.93373 0.528876 0
M  V30 13000 N 1222.39 -0.968567 -1.24324 0
M  V30 13001 C 1223.62 -0.648568 -1.96472 0
M  V30 13002 C 1224.03 0.782168 -1.71836 0
M  V30 13003 O 1223.39 1.5249 -1.00265 0
M  V30 13004 C 1223.44 -0.91482 -3.49733 0
M  V30 13005 O 1223.16 -2.28931 -3.73527 0
M  V30 13006 C 1224.66 -0.609131 -4.39095 0
M  V30 13007 H 1221.88 -0.241921 -0.625872 0
M  V30 13008 H 1224.43 -1.29673 -1.5813 0
M  V30 13009 H 1222.58 -0.31285 -3.86135 0
M  V30 13010 H 1222.99 -2.36998 -4.67902 0
M  V30 13011 H 1224.47 -0.845875 -5.4548 0
M  V30 13012 H 1224.95 0.456625 -4.3682 0
M  V30 13013 H 1225.55 -1.19105 -4.08282 0
M  V30 13014 N 1223.87 1.39211 -0.738786 0
M  V30 13015 C 1225.12 1.99673 -0.285254 0
M  V30 13016 C 1225.43 1.59297 1.13507 0
M  V30 13017 O 1226.63 2.12622 1.68832 0
M  V30 13018 C 1225.09 3.5696 -0.45906 0
M  V30 13019 C 1224.7 4.06297 -1.88751 0
M  V30 13020 C 1226.44 4.24446 -0.0674954 0
M  V30 13021 C 1224.35 5.56171 -2.01067 0
M  V30 13022 H 1223.28 0.746945 -0.102901 0
M  V30 13023 H 1225.93 1.59163 -0.913209 0
M  V30 13024 H 1224.31 3.95285 0.23785 0
M  V30 13025 H 1225.49 3.79297 -2.61669 0
M  V30 13026 H 1223.8 3.51486 -2.23264 0
M  V30 13027 H 1226.4 5.34521 -0.138475 0
M  V30 13028 H 1226.74 4.04653 0.977823 0
M  V30 13029 H 1227.27 3.91309 -0.715704 0
M  V30 13030 H 1224.01 5.80849 -3.03801 0
M  V30 13031 H 1223.53 5.84961 -1.32591 0
M  V30 13032 H 1225.21 6.21642 -1.79362 0
M  V30 13033 N 1225.34 0.486708 1.49896 0
M  V30 13034 C 1226.59 -0.0627279 2.02003 0
M  V30 13035 C 1226.91 -1.38799 1.36967 0
M  V30 13036 O 1226.18 -1.88868 0.520173 0
M  V30 13037 H 1224.76 -0.0261718 0.746541 0
M  V30 13038 H 1227.43 0.640692 1.84068 0
M  V30 13039 H 1226.52 -0.202856 3.1144 0
M  V30 13040 N 1226.82 -1.56058 0.219941 0
M  V30 13041 C 1227.75 -2.2321 -0.685547 0
M  V30 13042 C 1228.73 -1.20328 -1.20229 0
M  V30 13043 O 1229.92 -1.48909 -1.24659 0
M  V30 13044 C 1227.05 -2.91076 -1.89452 0
M  V30 13045 C 1226 -4.00415 -1.51169 0
M  V30 13046 C 1225.33 -4.55569 -2.79931 0
M  V30 13047 C 1226.63 -5.17549 -0.702896 0
M  V30 13048 H 1228.32 -2.99136 -0.125671 0
M  V30 13049 H 1225.87 -1.43879 -0.0590043 0
M  V30 13050 H 1227.82 -3.36744 -2.53341 0
M  V30 13051 H 1226.55 -2.12594 -2.47934 0
M  V30 13052 H 1225.21 -3.55475 -0.896275 0
M  V30 13053 H 1224.85 -3.73819 -3.36553 0
M  V30 13054 H 1224.55 -5.29361 -2.55049 0
M  V30 13055 H 1226.08 -5.03955 -3.44764 0
M  V30 13056 H 1227.49 -5.59608 -1.24544 0
M  V30 13057 H 1225.89 -5.97563 -0.551234 0
M  V30 13058 H 1226.96 -4.84027 0.29083 0
M  V30 13059 N 1228.3 0.053464 -1.57509 0
M  V30 13060 C 1229.25 1.06155 -2.04939 0
M  V30 13061 C 1230.22 1.37382 -0.93357 0
M  V30 13062 O 1231.4 1.48137 -1.2025 0
M  V30 13063 C 1228.54 2.36476 -2.51343 0
M  V30 13064 C 1227.66 2.1162 -3.76618 0
M  V30 13065 C 1226.79 3.35636 -4.11731 0
M  V30 13066 C 1225.83 3.06226 -5.29993 0
M  V30 13067 N 1224.97 4.22623 -5.60655 0
M  V30 13068 H 1229.81 0.650122 -2.90822 0
M  V30 13069 H 1227.34 0.309421 -1.43809 0
M  V30 13070 H 1229.3 3.12588 -2.76306 0
M  V30 13071 H 1227.93 2.75386 -1.68411 0
M  V30 13072 H 1226.98 1.26116 -3.58886 0
M  V30 13073 H 1228.3 1.85909 -4.6286 0
M  V30 13074 H 1227.45 4.20132 -4.37692 0
M  V30 13075 H 1226.19 3.64439 -3.24092 0
M  V30 13076 H 1225.19 2.20128 -5.03809 0
M  V30 13077 H 1226.42 2.78726 -6.19265 0
M  V30 13078 H 1224.37 4.51424 -4.75976 0
M  V30 13079 H 1224.28 4.0025 -6.41355 0
M  V30 13080 H 1225.55 5.08063 -5.91178 0
M  V30 13081 N 1229.78 1.54207 0.325255 0
M  V30 13082 C 1231.06 1.6298 1.08153 0
M  V30 13083 C 1231.44 0.462583 2.05969 0
M  V30 13084 O 1230.78 -0.543323 2.21947 0
M  V30 13085 C 1230.99 2.999 1.78497 0
M  V30 13086 C 1232.34 3.55888 2.3158 0
M  V30 13087 O 1233.37 3.02194 1.88566 0
M  V30 13088 O 1232.23 4.49847 3.10322 0
M  V30 13089 H 1229.32 0.659923 0.498429 0
M  V30 13090 H 1231.87 1.66553 0.325282 0
M  V30 13091 H 1230.64 3.7629 1.07338 0
M  V30 13092 H 1230.26 2.99997 2.60936 0
M  V30 13093 N 1231.26 -0.58723 1.46251 0
M  V30 13094 C 1232.48 -1.37661 1.55126 0
M  V30 13095 C 1232.91 -1.87123 0.191489 0
M  V30 13096 O 1232.27 -1.6131 -0.827576 0
M  V30 13097 C 1232.31 -2.54324 2.5564 0
M  V30 13098 O 1231.42 -3.55617 2.0883 0
M  V30 13099 H 1230.76 -0.410154 0.522178 0
M  V30 13100 H 1233.29 -0.712738 1.91784 0
M  V30 13101 H 1233.3 -3.01301 2.75103 0
M  V30 13102 H 1231.97 -2.17675 3.54387 0
M  V30 13103 H 1230.55 -3.15151 1.99335 0
M  V30 13104 N 1232.74 -1.33881 -0.831482 0
M  V30 13105 C 1233.98 -1.25942 -1.58955 0
M  V30 13106 C 1234.31 0.172542 -1.93432 0
M  V30 13107 O 1233.59 1.11577 -1.59314 0
M  V30 13108 C 1233.87 -2.14193 -2.89471 0
M  V30 13109 C 1233.73 -3.65883 -2.61628 0
M  V30 13110 C 1235.04 -2.02071 -3.90967 0
M  V30 13111 H 1232.16 -0.458841 -0.576744 0
M  V30 13112 H 1234.81 -1.64052 -0.958482 0
M  V30 13113 H 1232.96 -1.81821 -3.43327 0
M  V30 13114 H 1234.63 -4.08581 -2.14148 0
M  V30 13115 H 1232.87 -3.87397 -1.95208 0
M  V30 13116 H 1233.54 -4.22988 -3.54662 0
M  V30 13117 H 1236.02 -2.30476 -3.46439 0
M  V30 13118 H 1234.89 -2.66059 -4.80108 0
M  V30 13119 H 1235.15 -0.995121 -4.30755 0
M  V30 13120 N 1234.21 1.05064 -1.1747 0
M  V30 13121 C 1235.44 1.81761 -0.988464 0
M  V30 13122 C 1235.86 1.83028 0.463272 0
M  V30 13123 O 1235.21 1.25846 1.32171 0
M  V30 13124 C 1235.26 3.2782 -1.5237 0
M  V30 13125 O 1234.99 3.26726 -2.91859 0
M  V30 13126 C 1236.49 4.212 -1.38223 0
M  V30 13127 H 1233.71 0.572712 -0.349631 0
M  V30 13128 H 1236.25 1.32477 -1.55789 0
M  V30 13129 H 1234.41 3.7437 -0.996272 0
M  V30 13130 H 1234.82 4.18151 -3.16623 0
M  V30 13131 H 1236.29 5.2166 -1.80485 0
M  V30 13132 H 1236.77 4.37962 -0.329491 0
M  V30 13133 H 1237.38 3.80506 -1.89988 0
M  V30 13134 N 1235.69 0.975146 1.23809 0
M  V30 13135 C 1236.65 0.516157 2.23312 0
M  V30 13136 C 1237.65 -0.39136 1.55965 0
M  V30 13137 O 1238.84 -0.185783 1.73206 0
M  V30 13138 C 1235.98 -0.251534 3.39971 0
M  V30 13139 H 1237.17 1.3959 2.65433 0
M  V30 13140 H 1234.72 0.760493 1.36551 0
M  V30 13141 H 1235.46 -1.14805 3.03299 0
M  V30 13142 H 1235.24 0.399825 3.90056 0
M  V30 13143 H 1236.73 -0.561438 4.13809 0
M  V30 13144 N 1237.17 -1.38817 0.746158 0
M  V30 13145 C 1238.42 -2.00577 0.299458 0
M  V30 13146 C 1238.75 -1.59087 -1.11378 0
M  V30 13147 O 1238.02 -0.824932 -1.7614 0
M  V30 13148 C 1238.31 -3.57713 0.413932 0
M  V30 13149 C 1238.16 -4.09189 1.86774 0
M  V30 13150 C 1239.48 -4.39659 -0.197082 0
M  V30 13151 H 1236.6 -0.728702 0.110285 0
M  V30 13152 H 1239.24 -1.64866 0.944408 0
M  V30 13153 H 1237.39 -3.88265 -0.135155 0
M  V30 13154 H 1239.06 -3.89311 2.47456 0
M  V30 13155 H 1237.3 -3.62333 2.38532 0
M  V30 13156 H 1237.98 -5.18305 1.89904 0
M  V30 13157 H 1240.45 -4.15216 0.271121 0
M  V30 13158 H 1239.33 -5.48832 -0.0867011 0
M  V30 13159 H 1239.59 -4.23028 -1.2845 0
M  V30 13160 N 1238.65 -0.49465 -1.49636 0
M  V30 13161 C 1239.89 0.0521945 -2.02733 0
M  V30 13162 C 1240.23 1.3723 -1.37411 0
M  V30 13163 O 1239.5 1.87758 -0.507642 0
M  V30 13164 C 1239.78 0.2114 -3.59479 0
M  V30 13165 C 1239.64 -1.13138 -4.35339 0
M  V30 13166 C 1240.96 0.955015 -4.29613 0
M  V30 13167 H 1238.08 0.0174946 -0.736792 0
M  V30 13168 H 1240.72 -0.644827 -1.78723 0
M  V30 13169 H 1238.87 0.805078 -3.80067 0
M  V30 13170 H 1240.54 -1.76345 -4.26263 0
M  V30 13171 H 1238.78 -1.72224 -3.98147 0
M  V30 13172 H 1239.45 -0.97336 -5.4335 0
M  V30 13173 H 1241.93 0.451575 -4.13642 0
M  V30 13174 H 1240.81 1.03524 -5.39049 0
M  V30 13175 H 1241.07 1.99724 -3.94414 0
M  V30 13176 N 1240.13 1.55939 -0.228214 0
M  V30 13177 C 1241.37 1.98476 0.401677 0
M  V30 13178 C 1241.7 1.116 1.59297 0
M  V30 13179 O 1240.96 0.162465 1.95024 0
M  V30 13180 C 1241.25 3.46581 0.872732 0
M  V30 13181 C 1240.92 4.50416 -0.208767 0
M  V30 13182 C 1239.58 4.78534 -0.505847 0
M  V30 13183 C 1241.93 5.12656 -0.939852 0
M  V30 13184 C 1239.26 5.66171 -1.53841 0
M  V30 13185 C 1241.61 6.01412 -1.9618 0
M  V30 13186 C 1240.28 6.2787 -2.26573 0
M  V30 13187 H 1239.55 0.726276 0.146984 0
M  V30 13188 H 1242.2 1.88598 -0.332128 0
M  V30 13189 H 1240.5 3.53696 1.68541 0
M  V30 13190 H 1242.2 3.76869 1.37006 0
M  V30 13191 H 1238.79 4.28587 0.0329308 0
M  V30 13192 H 1242.97 4.90997 -0.723581 0
M  V30 13193 H 1238.23 5.84933 -1.77944 0
M  V30 13194 H 1242.4 6.48688 -2.53332 0
M  V30 13195 H 1240.03 6.95574 -3.06725 0
M  V30 13196 N 1241.6 -0.0451101 1.57535 0
M  V30 13197 C 1242.85 -0.740209 1.88809 0
M  V30 13198 C 1243.18 -1.75854 0.823956 0
M  V30 13199 O 1242.46 -1.93817 -0.16286 0
M  V30 13200 C 1242.74 -1.42424 3.30737 0
M  V30 13201 C 1242.59 -0.42052 4.4783 0
M  V30 13202 C 1243.91 -2.36241 3.7132 0
M  V30 13203 H 1241.03 -0.267628 0.686691 0
M  V30 13204 H 1243.67 -0.00309149 1.9 0
M  V30 13205 H 1241.82 -2.05254 3.29853 0
M  V30 13206 H 1243.5 0.204625 4.60846 0
M  V30 13207 H 1241.74 0.261739 4.3301 0
M  V30 13208 H 1242.41 -0.937298 5.43984 0
M  V30 13209 H 1244.89 -1.83468 3.73468 0
M  V30 13210 H 1243.76 -2.81091 4.71465 0
M  V30 13211 H 1244.02 -3.2222 3.02699 0
M  V30 13212 N 1243.08 -1.54377 -0.317073 0
M  V30 13213 C 1244.05 -1.83488 -1.37349 0
M  V30 13214 C 1245.05 -0.706981 -1.44424 0
M  V30 13215 O 1246.24 -0.975289 -1.44339 0
M  V30 13216 C 1243.37 -2.00074 -2.76013 0
M  V30 13217 H 1244.56 -2.77883 -1.12789 0
M  V30 13218 H 1242.11 -1.46194 -0.552902 0
M  V30 13219 H 1242.85 -1.07913 -3.05819 0
M  V30 13220 H 1242.63 -2.82155 -2.7227 0
M  V30 13221 H 1244.12 -2.24022 -3.52426 0
M  V30 13222 N 1244.56 0.579466 -1.4656 0
M  V30 13223 C 1245.49 1.69846 -1.60233 0
M  V30 13224 C 1246.47 1.6397 -0.452533 0
M  V30 13225 O 1247.66 1.81936 -0.679174 0
M  V30 13226 C 1244.79 3.08488 -1.59538 0
M  V30 13227 C 1243.74 3.29197 -2.7352 0
M  V30 13228 C 1243.07 4.684 -2.57887 0
M  V30 13229 C 1244.37 3.16718 -4.15315 0
M  V30 13230 H 1246.06 1.5866 -2.53904 0
M  V30 13231 H 1243.61 0.761873 -1.22194 0
M  V30 13232 H 1245.56 3.86595 -1.67696 0
M  V30 13233 H 1244.28 3.20581 -0.62413 0
M  V30 13234 H 1242.94 2.53491 -2.64836 0
M  V30 13235 H 1242.59 4.77262 -1.58839 0
M  V30 13236 H 1242.29 4.83208 -3.34341 0
M  V30 13237 H 1243.81 5.48671 -2.67942 0
M  V30 13238 H 1245.23 3.84666 -4.25094 0
M  V30 13239 H 1243.63 3.43047 -4.92381 0
M  V30 13240 H 1244.7 2.13755 -4.35244 0
M  V30 13241 N 1246.04 1.3432 0.824371 0
M  V30 13242 C 1247.29 1.26345 1.57738 0
M  V30 13243 C 1247.61 -0.166836 1.94285 0
M  V30 13244 O 1246.88 -1.09911 1.62162 0
M  V30 13245 H 1245.46 0.46466 0.584893 0
M  V30 13246 H 1248.12 1.68214 0.984373 0
M  V30 13247 H 1247.22 1.8672 2.50084 0
M  V30 13248 N 1247.52 -1.0444 1.18026 0
M  V30 13249 C 1248.74 -1.81234 0.998089 0
M  V30 13250 C 1249.16 -1.83271 -0.453559 0
M  V30 13251 O 1248.52 -1.26545 -1.31502 0
M  V30 13252 C 1248.57 -3.27007 1.54106 0
M  V30 13253 O 1248.29 -3.25174 2.93587 0
M  V30 13254 C 1249.79 -4.20461 1.40455 0
M  V30 13255 H 1247.01 -0.57085 0.352663 0
M  V30 13256 H 1249.55 -1.31649 1.56489 0
M  V30 13257 H 1247.71 -3.73837 1.01611 0
M  V30 13258 H 1248.12 -4.16466 3.18836 0
M  V30 13259 H 1249.6 -5.20695 1.83249 0
M  V30 13260 H 1250.07 -4.37781 0.352713 0
M  V30 13261 H 1250.68 -3.79493 1.92004 0
M  V30 13262 N 1248.99 -0.981699 -1.2329 0
M  V30 13263 C 1250.22 -0.669025 -1.96313 0
M  V30 13264 C 1250.64 0.757624 -1.72168 0
M  V30 13265 O 1250 1.51626 -0.993942 0
M  V30 13266 C 1250.05 -0.966875 -3.47396 0
M  V30 13267 O 1249.15 -0.0595933 -4.12357 0
M  V30 13268 H 1248.5 -0.251493 -0.61453 0
M  V30 13269 H 1251.03 -1.31564 -1.56691 0
M  V30 13270 H 1251.04 -0.904112 -3.97857 0
M  V30 13271 H 1249.71 -2.00651 -3.64296 0
M  V30 13272 H 1248.29 -0.176878 -3.7248 0
M  V30 13273 N 1250.47 1.3842 -0.753509 0
M  V30 13274 C 1251.72 2.00415 -0.310091 0
M  V30 13275 C 1252.05 1.59675 1.10532 0
M  V30 13276 O 1251.33 0.834261 1.757 0
M  V30 13277 C 1251.61 3.57488 -0.432897 0
M  V30 13278 C 1251.46 4.08193 -1.88941 0
M  V30 13279 C 1252.78 4.39757 0.173763 0
M  V30 13280 H 1249.9 0.728107 -0.114147 0
M  V30 13281 H 1252.54 1.64363 -0.953138 0
M  V30 13282 H 1250.69 3.88331 0.114563 0
M  V30 13283 H 1252.36 3.87993 -2.49517 0
M  V30 13284 H 1250.61 3.61063 -2.4045 0
M  V30 13285 H 1251.28 5.17291 -1.9265 0
M  V30 13286 H 1253.75 4.15066 -0.293137 0
M  V30 13287 H 1252.63 5.4887 0.057594 0
M  V30 13288 H 1252.89 4.23704 1.26205 0
M  V30 13289 N 1251.95 0.502579 1.49372 0
M  V30 13290 C 1253.36 0.055187 1.86618 0
M  V30 13291 C 1253.71 -1.35938 1.41476 0
M  V30 13292 O 1252.84 -2.01333 0.793338 0
M  V30 13293 C 1253.43 0.0933734 3.38671 0
M  V30 13294 C 1251.99 -0.298685 3.75213 0
M  V30 13295 C 1251.14 0.465216 2.7337 0
M  V30 13296 H 1254.09 0.715281 1.41667 0
M  V30 13297 H 1254.11 -0.701549 3.73977 0
M  V30 13298 H 1253.62 1.12303 3.71497 0
M  V30 13299 H 1251.72 -1.33151 3.47996 0
M  V30 13300 H 1251.84 0.0218637 4.79095 0
M  V30 13301 H 1250.2 -0.0851469 2.54558 0
M  V30 13302 H 1250.98 1.49498 3.09039 0
M  V30 13303 N 1253.43 -1.55816 0.23648 0
M  V30 13304 C 1254.71 -1.90565 -0.440933 0
M  V30 13305 C 1255.09 -1.15585 -1.76645 0
M  V30 13306 O 1254.43 -0.269949 -2.269 0
M  V30 13307 C 1254.64 -3.43462 -0.61925 0
M  V30 13308 C 1255.99 -4.14516 -0.91989 0
M  V30 13309 O 1257.02 -3.49144 -0.705496 0
M  V30 13310 O 1255.87 -5.3013 -1.32759 0
M  V30 13311 H 1252.97 -0.79285 -0.235199 0
M  V30 13312 H 1255.51 -1.67378 0.279774 0
M  V30 13313 H 1254.29 -3.90029 0.315124 0
M  V30 13314 H 1253.91 -3.72478 -1.39089 0
M  V30 13315 N 1254.91 0.036755 -1.57557 0
M  V30 13316 C 1256.13 0.741086 -1.93172 0
M  V30 13317 C 1256.55 1.69303 -0.835589 0
M  V30 13318 O 1255.91 1.81523 0.1886 0
M  V30 13319 C 1255.96 1.50477 -3.28693 0
M  V30 13320 O 1255.68 0.591046 -4.34095 0
M  V30 13321 C 1257.18 2.30695 -3.78543 0
M  V30 13322 H 1254.4 0.208731 -0.637709 0
M  V30 13323 H 1256.94 -0.00342776 -2.045 0
M  V30 13324 H 1255.1 2.20123 -3.18786 0
M  V30 13325 H 1255.51 1.12579 -5.12276 0
M  V30 13326 H 1256.99 2.79685 -4.759 0
M  V30 13327 H 1257.46 3.11778 -3.0934 0
M  V30 13328 H 1258.07 1.66138 -3.91508 0
M  V30 13329 N 1256.39 1.54543 0.308881 0
M  V30 13330 C 1257.63 1.73449 1.04506 0
M  V30 13331 C 1257.96 0.516034 1.8753 0
M  V30 13332 O 1257.22 -0.502106 1.89149 0
M  V30 13333 C 1257.51 2.97124 1.98626 0
M  V30 13334 C 1257.18 4.31256 1.31641 0
M  V30 13335 C 1255.84 4.67719 1.13105 0
M  V30 13336 C 1258.19 5.14437 0.836888 0
M  V30 13337 C 1255.52 5.84949 0.452878 0
M  V30 13338 C 1257.87 6.32365 0.172473 0
M  V30 13339 C 1256.54 6.67495 -0.0249143 0
M  V30 13340 H 1255.81 0.634697 0.382415 0
M  V30 13341 H 1258.46 1.88795 0.320714 0
M  V30 13342 H 1256.76 2.76526 2.77562 0
M  V30 13343 H 1258.46 3.08946 2.55643 0
M  V30 13344 H 1255.05 4.02576 1.47074 0
M  V30 13345 H 1259.23 4.86772 0.967834 0
M  V30 13346 H 1254.49 6.10717 0.288886 0
M  V30 13347 H 1258.66 6.96092 -0.207027 0
M  V30 13348 H 1256.29 7.5819 -0.552425 0
M  V30 13349 N 1257.86 -0.571685 1.46866 0
M  V30 13350 C 1258.83 -1.66198 1.57832 0
M  V30 13351 C 1259.83 -1.54242 0.454547 0
M  V30 13352 O 1261.02 -1.58661 0.719191 0
M  V30 13353 C 1258.15 -3.05678 1.5091 0
M  V30 13354 H 1259.34 -1.57829 2.5501 0
M  V30 13355 H 1256.89 -0.790433 1.3484 0
M  V30 13356 H 1257.63 -3.19593 0.550529 0
M  V30 13357 H 1257.41 -3.15765 2.32454 0
M  V30 13358 H 1258.9 -3.85027 1.61692 0
M  V30 13359 N 1259.34 -1.34755 -0.817236 0
M  V30 13360 C 1260.57 -1.30676 -1.61054 0
M  V30 13361 C 1260.99 0.115343 -1.87746 0
M  V30 13362 O 1260.35 1.07887 -1.45705 0
M  V30 13363 C 1260.4 -2.10881 -2.92509 0
M  V30 13364 O 1259.5 -1.48223 -3.84842 0
M  V30 13365 H 1258.84 -0.448531 -0.489608 0
M  V30 13366 H 1261.37 -1.77642 -1.01512 0
M  V30 13367 H 1261.38 -2.22446 -3.42026 0
M  V30 13368 H 1260.06 -3.14274 -2.72406 0
M  V30 13369 H 1258.63 -1.45434 -3.4337 0
M  V30 13370 N 1260.82 1.03812 -1.18578 0
M  V30 13371 C 1261.77 2.11883 -0.915115 0
M  V30 13372 C 1262.74 1.65453 0.146479 0
M  V30 13373 O 1263.92 1.90799 0.00630058 0
M  V30 13374 C 1261.06 3.42157 -0.449755 0
M  V30 13375 C 1260.17 4.02185 -1.57706 0
M  V30 13376 C 1259.31 5.20431 -1.06417 0
M  V30 13377 C 1258.35 5.72496 -2.16599 0
M  V30 13378 N 1257.49 6.82027 -1.66685 0
M  V30 13379 H 1262.33 2.34373 -1.84047 0
M  V30 13380 H 1259.86 1.14962 -0.917728 0
M  V30 13381 H 1261.82 4.16888 -0.161407 0
M  V30 13382 H 1260.45 3.19806 0.438622 0
M  V30 13383 H 1259.5 3.24757 -1.98083 0
M  V30 13384 H 1260.81 4.36851 -2.40754 0
M  V30 13385 H 1259.97 6.02286 -0.730497 0
M  V30 13386 H 1258.71 4.87276 -0.203301 0
M  V30 13387 H 1257.71 4.8926 -2.50808 0
M  V30 13388 H 1258.94 6.07694 -3.03126 0
M  V30 13389 H 1256.88 6.50742 -0.828916 0
M  V30 13390 H 1256.8 7.1577 -2.43329 0
M  V30 13391 H 1258.07 7.67499 -1.36253 0
M  V30 13392 N 1262.3 0.988223 1.22768 0
M  V30 13393 C 1263.54 0.662441 1.91676 0
M  V30 13394 C 1263.88 -0.802931 1.76824 0
M  V30 13395 O 1263.15 -1.58011 1.13415 0
M  V30 13396 C 1263.43 1.06332 3.44043 0
M  V30 13397 C 1263.29 2.5869 3.67967 0
M  V30 13398 C 1264.61 0.613058 4.35809 0
M  V30 13399 H 1261.73 0.242132 0.69609 0
M  V30 13400 H 1264.37 1.23091 1.44736 0
M  V30 13401 H 1262.52 0.579623 3.84152 0
M  V30 13402 H 1264.19 3.14694 3.37291 0
M  V30 13403 H 1262.43 3.00971 3.12408 0
M  V30 13404 H 1263.1 2.8179 4.74656 0
M  V30 13405 H 1265.58 1.02846 4.0319 0
M  V30 13406 H 1264.46 0.921901 5.41103 0
M  V30 13407 H 1264.72 -0.48641 4.39416 0
M  V30 13408 N 1263.78 -1.38018 0.760839 0
M  V30 13409 C 1264.74 -2.28734 0.146154 0
M  V30 13410 C 1265.74 -1.47525 -0.639768 0
M  V30 13411 O 1266.93 -1.6788 -0.464964 0
M  V30 13412 C 1264.06 -3.31356 -0.801019 0
M  V30 13413 H 1265.25 -2.84599 0.945692 0
M  V30 13414 H 1262.81 -1.471 0.528323 0
M  V30 13415 H 1263.54 -2.80594 -1.62597 0
M  V30 13416 H 1263.33 -3.91366 -0.239775 0
M  V30 13417 H 1264.82 -3.99171 -1.22687 0
M  V30 13418 N 1265.25 -0.510493 -1.49103 0
M  V30 13419 C 1266.22 0.251915 -2.27811 0
M  V30 13420 C 1267.22 0.885432 -1.34226 0
M  V30 13421 O 1268.41 0.748494 -1.573 0
M  V30 13422 C 1265.54 1.3624 -3.12492 0
M  V30 13423 H 1266.73 -0.438872 -2.96671 0
M  V30 13424 H 1264.28 -0.265767 -1.54024 0
M  V30 13425 H 1265.02 2.08705 -2.48219 0
M  V30 13426 H 1264.8 0.913485 -3.81311 0
M  V30 13427 H 1266.29 1.89919 -3.71915 0
M  V30 13428 N 1266.73 1.55688 -0.24474 0
M  V30 13429 C 1267.96 2.0329 0.384808 0
M  V30 13430 C 1268.37 1.12405 1.51692 0
M  V30 13431 O 1267.73 0.138056 1.81977 0
M  V30 13432 C 1267.78 3.50255 0.894635 0
M  V30 13433 O 1267.5 4.37677 -0.192365 0
M  V30 13434 C 1269 4.13608 1.59509 0
M  V30 13435 H 1266.22 0.664706 0.0916908 0
M  V30 13436 H 1268.77 2.01162 -0.367973 0
M  V30 13437 H 1266.92 3.52924 1.5976 0
M  V30 13438 H 1267.34 5.2414 0.194424 0
M  V30 13439 H 1268.81 5.1814 1.90356 0
M  V30 13440 H 1269.29 3.5997 2.51631 0
M  V30 13441 H 1269.89 4.14856 0.936749 0
M  V30 13442 N 1268.21 -0.0283989 1.57574 0
M  V30 13443 C 1269.14 -1.05641 2.03403 0
M  V30 13444 C 1270.15 -1.32426 0.946953 0
M  V30 13445 O 1271.34 -1.29902 1.22425 0
M  V30 13446 C 1268.44 -2.39788 2.39489 0
M  V30 13447 C 1267.62 -2.32348 3.70585 0
M  V30 13448 C 1266.68 -3.4895 3.93853 0
M  V30 13449 O 1265.7 -3.28414 4.64901 0
M  V30 13450 N 1266.9 -4.7084 3.39543 0
M  V30 13451 H 1269.67 -0.665788 2.92211 0
M  V30 13452 H 1267.23 -0.21633 1.60448 0
M  V30 13453 H 1269.22 -3.16514 2.52193 0
M  V30 13454 H 1267.79 -2.70692 1.56348 0
M  V30 13455 H 1267.01 -1.40717 3.68229 0
M  V30 13456 H 1268.3 -2.24521 4.56582 0
M  V30 13457 H 1267.7 -4.90425 2.81956 0
M  V30 13458 H 1266.25 -5.44929 3.57625 0
M  V30 13459 N 1269.69 -1.54705 -0.300681 0
M  V30 13460 C 1270.96 -1.6468 -1.05546 0
M  V30 13461 C 1271.34 -0.495292 -2.05207 0
M  V30 13462 O 1270.69 0.507944 -2.22783 0
M  V30 13463 C 1270.9 -3.02702 -1.73703 0
M  V30 13464 C 1272.25 -3.59527 -2.25888 0
M  V30 13465 O 1273.27 -3.05156 -1.83735 0
M  V30 13466 O 1272.13 -4.54727 -3.03126 0
M  V30 13467 H 1269.23 -0.667769 -0.487867 0
M  V30 13468 H 1271.77 -1.6705 -0.298743 0
M  V30 13469 H 1270.55 -3.7795 -1.01338 0
M  V30 13470 H 1270.17 -3.0411 -2.5613 0
M  V30 13471 N 1271.17 0.563888 -1.47167 0
M  V30 13472 C 1272.1 1.68655 -1.55204 0
M  V30 13473 C 1273.11 1.56776 -0.438769 0
M  V30 13474 O 1274.3 1.63856 -0.708059 0
M  V30 13475 C 1271.4 3.07068 -1.43396 0
M  V30 13476 C 1270.57 3.44767 -2.69174 0
M  V30 13477 C 1269.63 4.62316 -2.51298 0
M  V30 13478 O 1268.66 4.67231 -3.2509 0
M  V30 13479 N 1269.86 5.58389 -1.58688 0
M  V30 13480 H 1272.63 1.62209 -2.52009 0
M  V30 13481 H 1270.19 0.750359 -1.43462 0
M  V30 13482 H 1272.18 3.83529 -1.29181 0
M  V30 13483 H 1270.75 3.07777 -0.546997 0
M  V30 13484 H 1269.97 2.57821 -2.98198 0
M  V30 13485 H 1271.26 3.66726 -3.52689 0
M  V30 13486 H 1270.65 5.57169 -0.978737 0
M  V30 13487 H 1269.21 6.34204 -1.50428 0
M  V30 13488 N 1272.64 1.35187 0.810078 0
M  V30 13489 C 1273.87 1.31181 1.59609 0
M  V30 13490 C 1274.28 -0.113556 1.88859 0
M  V30 13491 O 1273.63 -1.07491 1.48968 0
M  V30 13492 C 1273.69 2.04749 2.95496 0
M  V30 13493 C 1273.35 3.53952 2.89079 0
M  V30 13494 C 1274.35 4.48612 2.6276 0
M  V30 13495 C 1272.03 3.96551 3.08306 0
M  V30 13496 C 1274.03 5.83846 2.5574 0
M  V30 13497 C 1271.71 5.31881 3.00909 0
M  V30 13498 C 1272.71 6.2534 2.74661 0
M  V30 13499 O 1272.4 7.58188 2.6722 0
M  V30 13500 H 1272.13 0.452285 0.502408 0
M  V30 13501 H 1274.69 1.78571 1.01497 0
M  V30 13502 H 1272.92 1.51992 3.55577 0
M  V30 13503 H 1274.61 1.93866 3.5661 0
M  V30 13504 H 1275.37 4.1702 2.47628 0
M  V30 13505 H 1271.25 3.24194 3.27749 0
M  V30 13506 H 1274.79 6.56765 2.35172 0
M  V30 13507 H 1270.69 5.63088 3.15598 0
M  V30 13508 H 1271.46 7.68073 2.82853 0
M  V30 13509 N 1274.12 -1.03182 1.19127 0
M  V30 13510 C 1275.09 -2.09559 0.928307 0
M  V30 13511 C 1276.09 -1.60548 -0.0899992 0
M  V30 13512 O 1277.28 -1.736 0.144422 0
M  V30 13513 C 1274.41 -3.38609 0.394561 0
M  V30 13514 H 1275.6 -2.34321 1.87173 0
M  V30 13515 H 1273.15 -1.19746 1.00452 0
M  V30 13516 H 1273.89 -3.19515 -0.555046 0
M  V30 13517 H 1273.67 -3.75502 1.12873 0
M  V30 13518 H 1275.16 -4.16969 0.229569 0
M  V30 13519 N 1275.6 -0.99472 -1.22242 0
M  V30 13520 C 1276.88 -0.587481 -1.86569 0
M  V30 13521 C 1277.26 0.935174 -1.89256 0
M  V30 13522 O 1276.61 1.81787 -1.3844 0
M  V30 13523 C 1276.82 -1.21001 -3.27353 0
M  V30 13524 C 1278.16 -1.31167 -4.03832 0
M  V30 13525 O 1279.19 -1.16454 -3.36626 0
M  V30 13526 O 1278.05 -1.54731 -5.24138 0
M  V30 13527 H 1275.14 -0.199838 -0.802492 0
M  V30 13528 H 1277.69 -1.09071 -1.30006 0
M  V30 13529 H 1276.46 -2.25143 -3.20041 0
M  V30 13530 H 1276.08 -0.692479 -3.91523 0
M  V30 13531 N 1277.08 1.37613 -0.768148 0
M  V30 13532 C 1278.04 2.28653 -0.158283 0
M  V30 13533 C 1279.04 1.47862 0.631936 0
M  V30 13534 O 1280.23 1.68124 0.456055 0
M  V30 13535 C 1277.36 3.31776 0.783435 0
M  V30 13536 H 1278.56 2.84094 -0.960772 0
M  V30 13537 H 1276.11 1.46818 -0.536116 0
M  V30 13538 H 1276.84 2.81452 1.61106 0
M  V30 13539 H 1276.63 3.91488 0.219016 0
M  V30 13540 H 1278.12 3.99816 1.20568 0
M  V30 13541 N 1278.56 0.518393 1.4883 0
M  V30 13542 C 1279.78 -0.0183131 2.07392 0
M  V30 13543 C 1280.21 -1.28468 1.37396 0
M  V30 13544 O 1279.56 -1.75975 0.436177 0
M  V30 13545 C 1279.61 -0.237211 3.59819 0
M  V30 13546 O 1278.72 -1.30835 3.91096 0
M  V30 13547 H 1278.06 0.0339621 0.663131 0
M  V30 13548 H 1280.59 0.722993 1.914 0
M  V30 13549 H 1280.6 -0.463424 4.0536 0
M  V30 13550 H 1279.27 0.687925 4.10171 0
M  V30 13551 H 1277.85 -1.06571 3.57347 0
M  V30 13552 N 1280.03 -1.55556 0.252993 0
M  V30 13553 C 1281.28 -1.98267 -0.370571 0
M  V30 13554 C 1281.6 -1.14449 -1.58622 0
M  V30 13555 O 1282.8 -1.472 -2.28132 0
M  V30 13556 C 1281.26 -3.52813 -0.710685 0
M  V30 13557 C 1280.87 -4.45379 0.483908 0
M  V30 13558 C 1282.61 -4.04165 -1.2981 0
M  V30 13559 C 1280.52 -5.91279 0.119611 0
M  V30 13560 H 1279.45 -0.740463 -0.142232 0
M  V30 13561 H 1282.1 -1.8005 0.354169 0
M  V30 13562 H 1280.48 -3.66748 -1.49372 0
M  V30 13563 H 1281.65 -4.43206 1.26116 0
M  V30 13564 H 1279.97 -4.04542 0.986664 0
M  V30 13565 H 1282.57 -5.10696 -1.5841 0
M  V30 13566 H 1282.91 -3.51875 -2.22462 0
M  V30 13567 H 1283.44 -3.93581 -0.577836 0
M  V30 13568 H 1280.18 -6.47619 1.01343 0
M  V30 13569 H 1279.7 -5.96573 -0.621318 0
M  V30 13570 H 1281.38 -6.46322 -0.296052 0
M  V30 13571 N 1281.51 0.0200419 -1.57587 0
M  V30 13572 C 1282.76 0.707627 -1.89307 0
M  V30 13573 C 1283.08 1.7541 -0.851831 0
M  V30 13574 O 1282.35 1.95571 0.113404 0
M  V30 13575 H 1280.93 0.264349 -0.698662 0
M  V30 13576 H 1283.59 -0.0161428 -1.94893 0
M  V30 13577 H 1282.69 1.19152 -2.8846 0
M  V30 13578 N 1282.99 1.54862 0.292472 0
M  V30 13579 C 1283.94 1.87168 1.38097 0
M  V30 13580 C 1284.93 0.746176 1.52081 0
M  V30 13581 O 1286.14 0.930281 1.54097 0
M  V30 13582 H 1282.51 0.593769 0.461456 0
M  V30 13583 H 1284.48 2.78135 1.0809 0
M  V30 13584 C 1283.23 2.14315 2.73796 0
M  V30 13585 H 1282.56 3.00398 2.63821 0
M  V30 13586 H 1284 2.40853 3.48949 0
M  V30 13587 C 1282.46 0.944424 3.23392 0
M  V30 13588 O 1282.99 0.169208 4.01343 0
M  V30 13589 N 1281.19 0.747456 2.80823 0
M  V30 13590 H 1280.74 1.37953 2.17547 0
M  V30 13591 H 1280.7 -0.0530199 3.14355 0
M  V30 13592 N 1284.47 -0.556076 1.47464 0
M  V30 13593 C 1285.71 -1.31515 1.54375 0
M  V30 13594 C 1286.05 -1.93106 0.205837 0
M  V30 13595 O 1285.32 -1.77927 -0.785643 0
M  V30 13596 C 1285.61 -2.4244 2.66261 0
M  V30 13597 C 1285.46 -1.8571 4.09673 0
M  V30 13598 C 1286.78 -3.4436 2.74051 0
M  V30 13599 H 1283.9 -0.476817 0.561974 0
M  V30 13600 H 1286.54 -0.622157 1.79525 0
M  V30 13601 H 1284.69 -3.01551 2.44948 0
M  V30 13602 H 1286.36 -1.30851 4.42353 0
M  V30 13603 H 1284.6 -1.16379 4.17898 0
M  V30 13604 H 1285.27 -2.65904 4.83735 0
M  V30 13605 H 1287.75 -2.95169 2.93282 0
M  V30 13606 H 1286.63 -4.194 3.54111 0
M  V30 13607 H 1286.89 -4.03281 1.81155 0
M  V30 13608 N 1285.95 -1.35615 -0.802897 0
M  V30 13609 C 1287.18 -1.32217 -1.59142 0
M  V30 13610 C 1287.59 0.0995496 -1.88537 0
M  V30 13611 O 1286.95 1.05258 -1.49087 0
M  V30 13612 C 1287 -2.13048 -2.92049 0
M  V30 13613 O 1286.72 -3.49677 -2.63927 0
M  V30 13614 C 1288.22 -2.17278 -3.864 0
M  V30 13615 H 1285.44 -0.454054 -0.49404 0
M  V30 13616 H 1287.98 -1.78521 -0.997516 0
M  V30 13617 H 1286.14 -1.70334 -3.47944 0
M  V30 13618 H 1286.55 -3.917 -3.48814 0
M  V30 13619 H 1288.03 -2.7822 -4.76758 0
M  V30 13620 H 1288.5 -1.17253 -4.23259 0
M  V30 13621 H 1289.11 -2.6017 -3.3644 0
M  V30 13622 N 1287.43 1.02549 -1.19673 0
M  V30 13623 C 1288.67 1.75656 -0.999463 0
M  V30 13624 C 1288.99 1.89238 0.470517 0
M  V30 13625 O 1288.26 1.42843 1.34062 0
M  V30 13626 H 1286.84 0.650732 -0.366821 0
M  V30 13627 H 1289.51 1.23684 -1.50627 0
M  V30 13628 H 1288.6 2.76353 -1.45035 0
M  V30 13629 N 1288.9 1.00119 1.21713 0
M  V30 13630 C 1290.13 0.700172 1.95224 0
M  V30 13631 C 1290.55 -0.730138 1.73351 0
M  V30 13632 O 1289.91 -1.50026 1.01794 0
M  V30 13633 C 1289.96 1.02202 3.45814 0
M  V30 13634 O 1289.06 0.125188 4.1221 0
M  V30 13635 H 1288.4 0.261238 0.610451 0
M  V30 13636 H 1290.93 1.34041 1.54578 0
M  V30 13637 H 1290.94 0.967293 3.96368 0
M  V30 13638 H 1289.62 2.06422 3.61058 0
M  V30 13639 H 1288.2 0.236114 3.72152 0
M  V30 13640 N 1290.38 -1.37203 0.775435 0
M  V30 13641 C 1291.33 -2.32102 0.152051 0
M  V30 13642 C 1292.32 -1.55117 -0.680806 0
M  V30 13643 O 1293.53 -1.70486 -0.577455 0
M  V30 13644 H 1289.9 -0.751386 0.0303853 0
M  V30 13645 H 1291.88 -2.82259 0.968121 0
M  V30 13646 C 1290.62 -3.40378 -0.709788 0
M  V30 13647 H 1289.95 -3.99723 -0.0782879 0
M  V30 13648 H 1291.39 -4.09134 -1.11288 0
M  V30 13649 C 1289.85 -2.80769 -1.862 0
M  V30 13650 O 1290.38 -2.71813 -2.95771 0
M  V30 13651 N 1288.58 -2.38259 -1.66376 0
M  V30 13652 H 1288.13 -2.45743 -0.772531 0
M  V30 13653 H 1288.09 -1.98721 -2.43634 0
M  V30 13654 N 1291.86 -0.526279 -1.48553 0
M  V30 13655 C 1292.82 0.227739 -2.28066 0
M  V30 13656 C 1293.82 0.871146 -1.35158 0
M  V30 13657 O 1295.01 0.731769 -1.58085 0
M  V30 13658 C 1292.14 1.32918 -3.1392 0
M  V30 13659 H 1293.34 -0.470313 -2.96189 0
M  V30 13660 H 1290.89 -0.282089 -1.53733 0
M  V30 13661 H 1291.63 2.0606 -2.50419 0
M  V30 13662 H 1291.41 0.872991 -3.82258 0
M  V30 13663 H 1292.9 1.85964 -3.73908 0
M  V30 13664 N 1293.34 1.5542 -0.261239 0
M  V30 13665 C 1294.58 1.99579 0.36002 0
M  V30 13666 C 1294.92 1.14933 1.56538 0
M  V30 13667 O 1294.19 0.216082 1.93296 0
M  V30 13668 C 1294.47 3.52078 0.755842 0
M  V30 13669 C 1294.33 4.47484 -0.455896 0
M  V30 13670 C 1295.65 4.10083 1.5975 0
M  V30 13671 H 1292.77 0.725554 0.129385 0
M  V30 13672 H 1295.41 1.86453 -0.365415 0
M  V30 13673 H 1293.56 3.63394 1.37393 0
M  V30 13674 H 1295.23 4.4813 -1.09441 0
M  V30 13675 H 1293.47 4.19714 -1.09646 0
M  V30 13676 H 1294.14 5.51834 -0.13539 0
M  V30 13677 H 1296.62 4.01957 1.07562 0
M  V30 13678 H 1295.5 5.17024 1.84329 0
M  V30 13679 H 1295.76 3.59438 2.57404 0
M  V30 13680 N 1294.82 -0.0116844 1.57596 0
M  V30 13681 C 1295.76 -1.02514 2.08791 0
M  V30 13682 C 1296.76 -1.36341 1.00536 0
M  V30 13683 O 1297.96 -1.35042 1.19011 0
M  V30 13684 H 1294.34 -0.348201 0.666528 0
M  V30 13685 H 1296.31 -0.567698 2.9295 0
M  V30 13686 C 1295.06 -2.312 2.59696 0
M  V30 13687 H 1294.38 -2.06036 3.42621 0
M  V30 13688 H 1295.82 -3.00417 2.99208 0
M  V30 13689 C 1294.28 -3.01372 1.50586 0
M  V30 13690 O 1294.81 -3.91896 0.882046 0
M  V30 13691 N 1293.02 -2.62997 1.23616 0
M  V30 13692 H 1292.56 -1.89466 1.74529 0
M  V30 13693 H 1292.52 -3.10264 0.508289 0
M  V30 13694 N 1296.29 -1.55015 -0.284256 0
M  V30 13695 C 1297.54 -1.7535 -1.01884 0
M  V30 13696 C 1297.87 -0.546825 -1.86342 0
M  V30 13697 O 1297.15 0.455832 -1.89083 0
M  V30 13698 C 1297.43 -3.05219 -1.91084 0
M  V30 13699 C 1297.28 -4.36219 -1.09694 0
M  V30 13700 C 1298.6 -3.31056 -2.89983 0
M  V30 13701 H 1295.72 -0.637981 -0.368984 0
M  V30 13702 H 1298.36 -1.87741 -0.292116 0
M  V30 13703 H 1296.51 -2.94786 -2.53048 0
M  V30 13704 H 1298.19 -4.58594 -0.498876 0
M  V30 13705 H 1296.43 -4.31951 -0.400078 0
M  V30 13706 H 1297.1 -5.23392 -1.75399 0
M  V30 13707 H 1299.58 -3.41209 -2.38151 0
M  V30 13708 H 1298.45 -4.23212 -3.49547 0
M  V30 13709 H 1298.71 -2.50153 -3.64521 0
M  V30 13710 N 1297.77 0.548248 -1.47757 0
M  V30 13711 C 1299.02 1.30501 -1.54841 0
M  V30 13712 C 1299.35 1.93314 -0.214476 0
M  V30 13713 O 1298.6 1.7889 0.793526 0
M  V30 13714 C 1298.9 2.42911 -2.62162 0
M  V30 13715 C 1298.57 1.97871 -4.05164 0
M  V30 13716 C 1297.23 1.85304 -4.4409 0
M  V30 13717 C 1299.58 1.63606 -4.94856 0
M  V30 13718 C 1296.91 1.36781 -5.70533 0
M  V30 13719 C 1299.26 1.16552 -6.2177 0
M  V30 13720 C 1297.92 1.02588 -6.5957 0
M  V30 13721 H 1297.19 0.477536 -0.566604 0
M  V30 13722 H 1299.84 0.613837 -1.81395 0
M  V30 13723 H 1298.15 3.17622 -2.29398 0
M  V30 13724 H 1299.84 3.01078 -2.64864 0
M  V30 13725 H 1296.43 2.08597 -3.74413 0
M  V30 13726 H 1300.62 1.72184 -4.65474 0
M  V30 13727 H 1295.87 1.24641 -5.9856 0
M  V30 13728 H 1300.05 0.891041 -6.90676 0
M  V30 13729 H 1297.67 0.647675 -7.57436 0
M  V30 13730 N 1299.25 1.36039 0.795694 0
M  V30 13731 C 1300.18 1.32528 1.92246 0
M  V30 13732 C 1301.16 0.197805 1.68946 0
M  V30 13733 O 1302.35 0.394474 1.90151 0
M  V30 13734 C 1299.48 1.10748 3.29169 0
M  V30 13735 C 1298.43 2.20253 3.66978 0
M  V30 13736 C 1297.76 1.83624 5.02181 0
M  V30 13737 C 1299.06 3.62296 3.76216 0
M  V30 13738 H 1300.75 2.2681 1.95442 0
M  V30 13739 H 1298.3 1.09181 0.938908 0
M  V30 13740 H 1300.25 1.06929 4.07608 0
M  V30 13741 H 1298.97 0.129141 3.26345 0
M  V30 13742 H 1297.63 2.23187 2.90832 0
M  V30 13743 H 1297.28 0.843804 4.95872 0
M  V30 13744 H 1296.98 2.56935 5.28449 0
M  V30 13745 H 1298.5 1.81349 5.83048 0
M  V30 13746 H 1299.92 3.61623 4.44861 0
M  V30 13747 H 1298.31 4.34459 4.13963 0
M  V30 13748 H 1299.38 3.97657 2.77483 0
M  V30 13749 N 1300.73 -1.01913 1.20215 0
M  V30 13750 C 1301.98 -1.75124 1.00876 0
M  V30 13751 C 1302.3 -1.89485 -0.460475 0
M  V30 13752 O 1301.57 -1.43552 -1.33302 0
M  V30 13753 H 1300.15 -0.648777 0.370266 0
M  V30 13754 H 1302.81 -1.22883 1.5128 0
M  V30 13755 H 1301.91 -2.7558 1.46499 0
M  V30 13756 N 1302.21 -1.00763 -1.2118 0
M  V30 13757 C 1303.46 -0.687197 -1.89633 0
M  V30 13758 C 1303.77 0.78566 -1.79128 0
M  V30 13759 O 1304.97 1.21828 -2.42632 0
M  V30 13760 C 1303.43 -1.1787 -3.40051 0
M  V30 13761 C 1303.04 -2.67782 -3.59161 0
M  V30 13762 C 1304.78 -0.933277 -4.14114 0
M  V30 13763 C 1302.69 -3.10459 -5.03358 0
M  V30 13764 H 1301.62 -0.253342 -0.710165 0
M  V30 13765 H 1304.27 -1.21914 -1.37147 0
M  V30 13766 H 1302.65 -0.574791 -3.91806 0
M  V30 13767 H 1303.83 -3.33645 -3.17833 0
M  V30 13768 H 1302.14 -2.90368 -2.98455 0
M  V30 13769 H 1304.74 -1.22766 -5.20416 0
M  V30 13770 H 1305.08 0.130431 -4.16096 0
M  V30 13771 H 1305.61 -1.50011 -3.68431 0
M  V30 13772 H 1302.35 -4.16068 -5.06525 0
M  V30 13773 H 1301.87 -2.4931 -5.45531 0
M  V30 13774 H 1303.55 -3.02589 -5.71882 0
M  V30 13775 N 1303.68 1.3679 -0.7827 0
M  V30 13776 C 1304.93 1.99023 -0.351316 0
M  V30 13777 C 1305.25 1.62436 1.07887 0
M  V30 13778 O 1304.52 0.895084 1.74256 0
M  V30 13779 H 1303.1 0.736141 -0.126909 0
M  V30 13780 H 1305.77 1.67095 -1.00325 0
M  V30 13781 H 1304.86 3.09015 -0.43774 0
M  V30 13782 N 1305.16 0.53415 1.48272 0
M  V30 13783 C 1306.41 0.00157492 2.028 0
M  V30 13784 C 1306.74 -1.33538 1.41001 0
M  V30 13785 O 1306.02 -1.86347 0.557245 0
M  V30 13786 C 1306.3 -0.116016 3.59913 0
M  V30 13787 C 1306.15 1.2464 4.32186 0
M  V30 13788 C 1307.47 -0.840775 4.31994 0
M  V30 13789 H 1304.59 0.00204634 0.736997 0
M  V30 13790 H 1307.23 0.691985 1.76951 0
M  V30 13791 H 1305.38 -0.704027 3.82068 0
M  V30 13792 H 1307.05 1.87584 4.21438 0
M  V30 13793 H 1305.3 1.8272 3.93441 0
M  V30 13794 H 1305.97 1.11708 5.40579 0
M  V30 13795 H 1308.44 -0.341746 4.14694 0
M  V30 13796 H 1307.32 -0.89196 5.41604 0
M  V30 13797 H 1307.58 -1.89197 3.99571 0
M  V30 13798 N 1306.64 -1.55279 0.269478 0
M  V30 13799 C 1307.6 -2.21008 -0.607299 0
M  V30 13800 C 1308.6 -1.18619 -1.08564 0
M  V30 13801 O 1309.79 -1.4356 -0.986721 0
M  V30 13802 C 1306.93 -2.87157 -1.83721 0
M  V30 13803 H 1308.12 -2.99881 -0.0334894 0
M  V30 13804 H 1305.67 -1.56287 0.0200573 0
M  V30 13805 H 1306.41 -2.12281 -2.45168 0
M  V30 13806 H 1306.19 -3.62183 -1.5022 0
M  V30 13807 H 1307.68 -3.37391 -2.46083 0
M  V30 13808 N 1308.12 0.00332656 -1.576 0
M  V30 13809 C 1309.36 0.684275 -1.91544 0
M  V30 13810 C 1309.72 1.71565 -0.870814 0
M  V30 13811 O 1309.01 1.9124 0.117405 0
M  V30 13812 C 1309.21 1.37237 -3.30001 0
M  V30 13813 C 1309.04 0.409158 -4.47835 0
M  V30 13814 C 1307.81 0.0207716 -5.05296 0
M  V30 13815 C 1310 -0.323226 -5.13283 0
M  V30 13816 N 1307.99 -0.941002 -6.06645 0
M  V30 13817 C 1309.36 -1.13979 -6.09433 0
M  V30 13818 C 1311.41 -0.387419 -4.9639 0
M  V30 13819 C 1310.11 -2.0147 -6.90509 0
M  V30 13820 C 1312.14 -1.24954 -5.78049 0
M  V30 13821 C 1311.5 -2.05396 -6.73789 0
M  V30 13822 H 1307.6 0.223698 -0.749322 0
M  V30 13823 H 1310.19 -0.0562395 -1.94619 0
M  V30 13824 H 1308.36 2.0832 -3.27807 0
M  V30 13825 H 1310.09 2.00775 -3.51385 0
M  V30 13826 H 1306.84 0.38844 -4.72004 0
M  V30 13827 H 1307.27 -1.41716 -6.62001 0
M  V30 13828 H 1311.91 0.220225 -4.22226 0
M  V30 13829 H 1309.63 -2.63303 -7.64001 0
M  V30 13830 H 1313.21 -1.30308 -5.6702 0
M  V30 13831 H 1312.09 -2.71028 -7.35876 0
M  V30 13832 N 1309.6 1.55164 0.276031 0
M  V30 13833 C 1310.82 1.7998 1.03063 0
M  V30 13834 C 1311.25 0.569769 1.79263 0
M  V30 13835 O 1310.6 -0.48054 1.74816 0
M  V30 13836 C 1310.65 3.02209 1.96728 0
M  V30 13837 O 1309.76 2.77083 3.05449 0
M  V30 13838 H 1309.1 0.594963 0.294814 0
M  V30 13839 H 1311.63 2.02301 0.305861 0
M  V30 13840 H 1311.64 3.3086 2.38738 0
M  V30 13841 H 1310.31 3.91386 1.40677 0
M  V30 13842 H 1308.89 2.5952 2.67776 0
M  V30 13843 N 1311.07 -0.540404 1.48045 0
M  V30 13844 C 1312.32 -1.2932 1.54787 0
M  V30 13845 C 1312.64 -1.94335 0.222109 0
M  V30 13846 O 1313.84 -2.70982 0.167675 0
M  V30 13847 C 1312.3 -2.34594 2.72935 0
M  V30 13848 C 1311.91 -1.75696 4.1211 0
M  V30 13849 C 1313.65 -3.10949 2.88982 0
M  V30 13850 C 1311.56 -2.78849 5.21534 0
M  V30 13851 H 1310.49 -0.486315 0.576206 0
M  V30 13852 H 1313.14 -0.571998 1.74357 0
M  V30 13853 H 1311.52 -3.09704 2.46778 0
M  V30 13854 H 1312.69 -1.06845 4.48242 0
M  V30 13855 H 1311.01 -1.11869 4.01091 0
M  V30 13856 H 1313.61 -3.88012 3.679 0
M  V30 13857 H 1313.95 -3.66173 1.98048 0
M  V30 13858 H 1314.48 -2.42953 3.1499 0
M  V30 13859 H 1311.22 -2.28459 6.144 0
M  V30 13860 H 1310.74 -3.46059 4.89901 0
M  V30 13861 H 1312.42 -3.4203 5.49203 0
M  V30 13862 N 1312.55 -1.36459 -0.788468 0
M  V30 13863 C 1313.52 -1.3071 -1.88275 0
M  V30 13864 C 1314.52 -0.214596 -1.59362 0
M  V30 13865 O 1315.71 -0.469437 -1.67756 0
M  V30 13866 C 1312.84 -1.02648 -3.25079 0
M  V30 13867 H 1314.03 -2.28029 -1.94788 0
M  V30 13868 H 1311.58 -1.21245 -0.986375 0
M  V30 13869 H 1312.32 -0.0578992 -3.24248 0
M  V30 13870 H 1312.1 -1.81708 -3.47454 0
M  V30 13871 H 1313.59 -1.01233 -4.05144 0
M  V30 13872 N 1314.03 1.01274 -1.20754 0
M  V30 13873 C 1314.99 2.08056 -0.961528 0
M  V30 13874 C 1315.99 1.60671 0.0644461 0
M  V30 13875 O 1317.18 1.73349 -0.172022 0
M  V30 13876 C 1314.32 3.37938 -0.448381 0
M  V30 13877 H 1315.51 2.31314 -1.90877 0
M  V30 13878 H 1313.06 1.18133 -1.02344 0
M  V30 13879 H 1313.8 3.20357 0.504144 0
M  V30 13880 H 1313.58 3.73659 -1.18833 0
M  V30 13881 H 1315.07 4.16551 -0.295876 0
M  V30 13882 N 1315.51 1.01404 1.20644 0
M  V30 13883 C 1316.76 0.697244 1.89265 0
M  V30 13884 C 1317.07 -0.776149 1.79542 0
M  V30 13885 O 1318.28 -1.2054 2.43274 0
M  V30 13886 C 1316.73 1.19672 3.39421 0
M  V30 13887 C 1316.34 2.69683 3.57736 0
M  V30 13888 C 1318.09 0.955225 4.13613 0
M  V30 13889 C 1315.99 3.13124 5.01704 0
M  V30 13890 H 1314.92 0.257105 0.708811 0
M  V30 13891 H 1317.57 1.22639 1.36499 0
M  V30 13892 H 1315.96 0.595562 3.91496 0
M  V30 13893 H 1317.13 3.35326 3.16059 0
M  V30 13894 H 1315.44 2.91946 2.96911 0
M  V30 13895 H 1318.04 1.25524 5.19757 0
M  V30 13896 H 1318.38 -0.108362 4.16159 0
M  V30 13897 H 1318.92 1.51962 3.67631 0
M  V30 13898 H 1315.66 4.18748 5.04311 0
M  V30 13899 H 1315.18 2.522 5.44201 0
M  V30 13900 H 1316.86 3.05617 5.70269 0
M  V30 13901 N 1316.99 -1.36373 0.789944 0
M  V30 13902 C 1318.22 -2.03187 0.373987 0
M  V30 13903 C 1318.63 -1.59697 -1.01457 0
M  V30 13904 O 1317.97 -0.782151 -1.66217 0
M  V30 13905 C 1318.03 -3.57703 0.358985 0
M  V30 13906 C 1317.69 -4.24396 1.69521 0
M  V30 13907 C 1318.69 -4.47247 2.65077 0
M  V30 13908 C 1316.38 -4.61858 1.97465 0
M  V30 13909 C 1318.37 -5.06642 3.86772 0
M  V30 13910 C 1316.06 -5.2097 3.19426 0
M  V30 13911 C 1317.06 -5.43302 4.13899 0
M  V30 13912 O 1316.74 -6.01173 5.3371 0
M  V30 13913 H 1316.48 -0.658654 0.152153 0
M  V30 13914 H 1319.03 -1.7532 1.07014 0
M  V30 13915 H 1317.26 -3.84691 -0.39366 0
M  V30 13916 H 1318.95 -4.05887 -0.0323762 0
M  V30 13917 H 1319.71 -4.18701 2.44775 0
M  V30 13918 H 1315.59 -4.438 1.2475 0
M  V30 13919 H 1319.14 -5.23989 4.60523 0
M  V30 13920 H 1315.03 -5.48943 3.39606 0
M  V30 13921 H 1315.8 -6.19638 5.34781 0
M  V30 13922 N 1318.47 -0.542005 -1.47987 0
M  V30 13923 C 1319.42 0.234244 -2.26794 0
M  V30 13924 C 1320.4 0.899085 -1.33436 0
M  V30 13925 O 1321.59 0.799904 -1.57894 0
M  V30 13926 C 1318.72 1.27312 -3.18821 0
M  V30 13927 C 1317.81 0.612457 -4.19654 0
M  V30 13928 N 1318.2 -0.30875 -5.04857 0
M  V30 13929 C 1316.5 0.868224 -4.37468 0
M  V30 13930 C 1317.2 -0.691052 -5.77581 0
M  V30 13931 N 1316.17 -0.0493574 -5.43578 0
M  V30 13932 H 1319.97 -0.47427 -2.90048 0
M  V30 13933 H 1317.49 -0.360868 -1.5834 0
M  V30 13934 H 1319.49 1.84305 -3.73948 0
M  V30 13935 H 1318.15 1.98288 -2.57122 0
M  V30 13936 H 1319.16 -0.682054 -5.13389 0
M  V30 13937 H 1315.83 1.56765 -3.86951 0
M  V30 13938 H 1317.22 -1.44713 -6.56131 0
M  V30 13939 N 1319.94 1.55134 -0.277709 0
M  V30 13940 C 1320.91 2.21327 0.595569 0
M  V30 13941 C 1321.91 1.19193 1.07933 0
M  V30 13942 O 1323.1 1.44081 0.979093 0
M  V30 13943 C 1320.23 2.88127 1.82196 0
M  V30 13944 H 1321.42 2.99895 0.0175855 0
M  V30 13945 H 1318.97 1.56274 -0.0283453 0
M  V30 13946 H 1319.71 2.13578 2.44039 0
M  V30 13947 H 1319.49 3.62974 1.48297 0
M  V30 13948 H 1320.98 3.38691 2.44291 0
M  V30 13949 N 1321.42 0.00503138 1.57599 0
M  V30 13950 C 1322.38 -0.969628 2.0768 0
M  V30 13951 C 1323.38 -1.26933 0.987148 0
M  V30 13952 O 1324.57 -1.21368 1.24962 0
M  V30 13953 C 1321.71 -2.29312 2.52247 0
M  V30 13954 H 1322.9 -0.536342 2.95065 0
M  V30 13955 H 1320.45 -0.242543 1.54407 0
M  V30 13956 H 1321.19 -2.7732 1.6812 0
M  V30 13957 H 1320.97 -2.08878 3.31832 0
M  V30 13958 H 1322.46 -2.99221 2.91302 0
M  V30 13959 N 1322.9 -1.55308 -0.267798 0
M  V30 13960 C 1323.85 -1.89342 -1.35102 0
M  V30 13961 C 1324.84 -0.770277 -1.50874 0
M  V30 13962 O 1326.05 -0.954679 -1.52597 0
M  V30 13963 H 1322.42 -0.601036 -0.451952 0
M  V30 13964 H 1324.39 -2.7982 -1.03651 0
M  V30 13965 C 1323.14 -2.18644 -2.70352 0
M  V30 13966 H 1322.47 -3.04557 -2.59008 0
M  V30 13967 H 1323.91 -2.46374 -3.45073 0
M  V30 13968 C 1322.36 -0.995753 -3.21848 0
M  V30 13969 O 1322.89 -0.233037 -4.01023 0
M  V30 13970 N 1321.1 -0.792038 -2.79598 0
M  V30 13971 H 1320.65 -1.41396 -2.15325 0
M  V30 13972 H 1320.61 0.00300201 -3.144 0
M  V30 13973 N 1324.38 0.532545 -1.4833 0
M  V30 13974 C 1325.63 1.28597 -1.55908 0
M  V30 13975 C 1325.95 1.93595 -0.233635 0
M  V30 13976 O 1325.22 1.81197 0.744605 0
M  V30 13977 H 1323.8 0.477619 -0.57436 0
M  V30 13978 H 1326.46 0.619922 -1.84778 0
M  V30 13979 H 1325.55 2.0666 -2.33877 0
M  V30 13980 N 1325.86 1.36875 0.78122 0
M  V30 13981 C 1326.77 1.3404 1.92537 0
M  V30 13982 C 1327.78 0.241354 1.72318 0
M  V30 13983 O 1328.96 0.475128 1.95715 0
M  V30 13984 C 1326.02 1.13708 3.27523 0
M  V30 13985 C 1325.08 2.33165 3.60462 0
M  V30 13986 C 1324.32 2.13793 4.89007 0
M  V30 13987 O 1324.54 1.11732 5.5935 0
M  V30 13988 O 1323.47 3.01762 5.20791 0
M  V30 13989 H 1327.3 2.30386 1.97879 0
M  V30 13990 H 1324.88 1.17506 0.922637 0
M  V30 13991 H 1326.77 1.0432 4.08283 0
M  V30 13992 H 1325.44 0.204306 3.23055 0
M  V30 13993 H 1324.35 2.48123 2.79974 0
M  V30 13994 H 1325.68 3.24977 3.69663 0
M  V30 13995 N 1327.33 -1.00632 1.21289 0
M  V30 13996 C 1328.27 -2.0954 0.928753 0
M  V30 13997 C 1329.28 -1.62565 -0.0875212 0
M  V30 13998 O 1330.47 -1.77912 0.144808 0
M  V30 13999 C 1327.57 -3.36844 0.37276 0
M  V30 14000 C 1326.74 -4.1291 1.44305 0
M  V30 14001 C 1325.8 -5.18506 0.896534 0
M  V30 14002 O 1324.83 -5.46841 1.57966 0
M  V30 14003 N 1326.03 -5.79781 -0.288888 0
M  V30 14004 H 1328.79 -2.34499 1.86629 0
M  V30 14005 H 1326.35 -1.17104 1.11796 0
M  V30 14006 H 1328.35 -4.04699 -0.00722737 0
M  V30 14007 H 1326.92 -3.09053 -0.469572 0
M  V30 14008 H 1326.14 -3.39876 1.99694 0
M  V30 14009 H 1327.42 -4.60508 2.16356 0
M  V30 14010 H 1326.82 -5.5911 -0.860951 0
M  V30 14011 H 1325.38 -6.48936 -0.6104 0
M  V30 14012 N 1328.81 -1.02043 -1.20104 0
M  V30 14013 C 1330.06 -0.711973 -1.89571 0
M  V30 14014 C 1330.39 0.758725 -1.79091 0
M  V30 14015 O 1329.64 1.56728 -1.17195 0
M  V30 14016 C 1329.94 -1.098 -3.40116 0
M  V30 14017 C 1329.61 -2.56555 -3.70797 0
M  V30 14018 C 1328.27 -2.96653 -3.78881 0
M  V30 14019 C 1330.62 -3.51543 -3.84795 0
M  V30 14020 C 1327.95 -4.30669 -3.98424 0
M  V30 14021 C 1330.3 -4.85252 -4.05849 0
M  V30 14022 C 1328.96 -5.2505 -4.12163 0
M  V30 14023 H 1328.23 -0.260529 -0.69369 0
M  V30 14024 H 1330.88 -1.28172 -1.42282 0
M  V30 14025 H 1329.19 -0.446738 -3.89245 0
M  V30 14026 H 1330.88 -0.836985 -3.92168 0
M  V30 14027 H 1327.47 -2.24488 -3.65107 0
M  V30 14028 H 1331.66 -3.21721 -3.77901 0
M  V30 14029 H 1326.91 -4.61052 -4.01548 0
M  V30 14030 H 1331.09 -5.58777 -4.15622 0
M  V30 14031 H 1328.71 -6.28908 -4.27059 0
M  V30 14032 N 1330.29 1.35952 -0.797165 0
M  V30 14033 C 1331.24 2.29941 -0.198995 0
M  V30 14034 C 1332.21 1.52355 0.661592 0
M  V30 14035 O 1333.39 1.80832 0.60865 0
M  V30 14036 C 1330.53 3.38846 0.654033 0
M  V30 14037 C 1329.65 4.31409 -0.225949 0
M  V30 14038 C 1328.78 5.27401 0.634188 0
M  V30 14039 C 1327.82 6.11602 -0.246773 0
M  V30 14040 N 1326.96 6.9976 0.57279 0
M  V30 14041 H 1331.8 2.80508 -1.00594 0
M  V30 14042 H 1329.33 1.38064 -0.507617 0
M  V30 14043 H 1331.29 4.00643 1.16367 0
M  V30 14044 H 1329.92 2.89578 1.42633 0
M  V30 14045 H 1328.97 3.70699 -0.853616 0
M  V30 14046 H 1330.29 4.90532 -0.904416 0
M  V30 14047 H 1329.44 5.94525 1.20933 0
M  V30 14048 H 1328.18 4.68751 1.34625 0
M  V30 14049 H 1327.18 5.43434 -0.834258 0
M  V30 14050 H 1328.41 6.72329 -0.956559 0
M  V30 14051 H 1326.35 6.43609 1.26901 0
M  V30 14052 H 1326.27 7.55985 -0.0478303 0
M  V30 14053 H 1327.54 7.71244 1.13151 0
M  V30 14054 N 1331.77 0.549846 1.47697 0
M  V30 14055 C 1333.01 0.0230845 2.02787 0
M  V30 14056 C 1333.35 -1.32035 1.42409 0
M  V30 14057 O 1332.62 -1.85745 0.576978 0
M  V30 14058 C 1332.91 -0.0778363 3.60016 0
M  V30 14059 C 1332.76 1.29217 4.3084 0
M  V30 14060 C 1334.08 -0.794909 4.32862 0
M  V30 14061 H 1331.2 0.00986307 0.736934 0
M  V30 14062 H 1333.84 0.710714 1.76207 0
M  V30 14063 H 1331.99 -0.663464 3.82793 0
M  V30 14064 H 1333.66 1.92044 4.19424 0
M  V30 14065 H 1331.9 1.86883 3.91481 0
M  V30 14066 H 1332.57 1.17435 5.39364 0
M  V30 14067 H 1335.05 -0.297743 4.15033 0
M  V30 14068 H 1333.93 -0.834466 5.4252 0
M  V30 14069 H 1334.19 -1.84948 4.01555 0
M  V30 14070 N 1333.25 -1.54984 0.285932 0
M  V30 14071 C 1334.47 -2.04699 -0.333621 0
M  V30 14072 C 1334.9 -1.16252 -1.47875 0
M  V30 14073 O 1334.25 -0.163376 -1.80562 0
M  V30 14074 C 1334.3 -3.52022 -0.78187 0
M  V30 14075 O 1333.41 -3.66639 -1.88812 0
M  V30 14076 H 1332.75 -0.660579 -0.0673203 0
M  V30 14077 H 1335.28 -2.00171 0.423386 0
M  V30 14078 H 1335.29 -3.93591 -1.07473 0
M  V30 14079 H 1333.96 -4.15862 0.055893 0
M  V30 14080 H 1332.54 -3.36974 -1.59696 0
M  V30 14081 N 1334.72 -0.0133892 -1.57594 0
M  V30 14082 C 1336.14 0.527615 -1.7909 0
M  V30 14083 C 1336.49 1.73179 -0.922142 0
M  V30 14084 O 1335.61 2.1602 -0.128233 0
M  V30 14085 C 1336.21 0.963949 -3.24798 0
M  V30 14086 C 1334.77 1.45017 -3.47343 0
M  V30 14087 C 1333.91 0.407548 -2.74289 0
M  V30 14088 H 1336.86 -0.239505 -1.56882 0
M  V30 14089 H 1336.88 1.82924 -3.33645 0
M  V30 14090 H 1336.4 0.0873315 -3.88002 0
M  V30 14091 H 1334.5 2.34724 -2.89371 0
M  V30 14092 H 1334.61 1.4684 -4.56043 0
M  V30 14093 H 1332.97 0.872174 -2.39301 0
M  V30 14094 H 1333.76 -0.460333 -3.402 0
M  V30 14095 N 1336.2 1.55448 0.259558 0
M  V30 14096 C 1337.45 1.76337 0.987396 0
M  V30 14097 C 1337.77 0.57505 1.86328 0
M  V30 14098 O 1337.04 -0.409621 1.9157 0
M  V30 14099 H 1335.62 0.650312 0.367565 0
M  V30 14100 H 1338.28 1.9287 0.280551 0
M  V30 14101 H 1337.38 2.66975 1.61651 0
M  V30 14102 N 1337.68 -0.524672 1.4861 0
M  V30 14103 C 1338.91 -1.30482 1.60568 0
M  V30 14104 C 1339.32 -1.86889 0.267952 0
M  V30 14105 O 1338.68 -1.66669 -0.743488 0
M  V30 14106 C 1338.73 -2.45191 2.65638 0
M  V30 14107 O 1338.45 -1.91107 3.9422 0
M  V30 14108 C 1339.95 -3.36931 2.88084 0
M  V30 14109 H 1337.17 -0.396612 0.541239 0
M  V30 14110 H 1339.72 -0.632392 1.94476 0
M  V30 14111 H 1337.87 -3.08308 2.34574 0
M  V30 14112 H 1338.29 -2.66234 4.51907 0
M  V30 14113 H 1339.76 -4.13755 3.65391 0
M  V30 14114 H 1340.24 -3.92487 1.97106 0
M  V30 14115 H 1340.84 -2.79601 3.20473 0
M  V30 14116 N 1339.16 -1.37287 -0.77395 0
M  V30 14117 C 1340.09 -1.35569 -1.90114 0
M  V30 14118 C 1341.07 -0.224658 -1.6861 0
M  V30 14119 O 1342.25 -0.424676 -1.895 0
M  V30 14120 C 1339.38 -1.15971 -3.27365 0
M  V30 14121 C 1338.34 -2.26063 -3.63427 0
M  V30 14122 C 1337.66 -1.9159 -4.99197 0
M  V30 14123 C 1338.96 -3.68236 -3.70405 0
M  V30 14124 H 1340.66 -2.29891 -1.91808 0
M  V30 14125 H 1338.2 -1.10661 -0.92142 0
M  V30 14126 H 1340.16 -1.134 -4.05855 0
M  V30 14127 H 1338.88 -0.181043 -3.26098 0
M  V30 14128 H 1337.54 -2.27786 -2.87244 0
M  V30 14129 H 1337.19 -0.922586 -4.94467 0
M  V30 14130 H 1336.89 -2.65309 -5.24294 0
M  V30 14131 H 1338.41 -1.90602 -5.80089 0
M  V30 14132 H 1339.83 -3.68655 -4.39052 0
M  V30 14133 H 1338.22 -4.4099 -4.06999 0
M  V30 14134 H 1339.29 -4.02021 -2.71122 0
M  V30 14135 N 1340.64 0.999871 -1.21821 0
M  V30 14136 C 1341.6 2.07024 -0.983541 0
M  V30 14137 C 1342.6 1.6073 0.0474011 0
M  V30 14138 O 1343.79 1.73156 -0.190398 0
M  V30 14139 C 1340.92 3.37444 -0.484199 0
M  V30 14140 H 1342.11 2.29276 -1.9332 0
M  V30 14141 H 1339.67 1.1704 -1.03592 0
M  V30 14142 H 1340.4 3.20874 0.470138 0
M  V30 14143 H 1340.19 3.72378 -1.2279 0
M  V30 14144 H 1341.68 4.16213 -0.34004 0
M  V30 14145 N 1342.11 1.02678 1.19562 0
M  V30 14146 C 1343.36 0.722016 1.89191 0
M  V30 14147 C 1343.69 -0.749217 1.79491 0
M  V30 14148 O 1342.94 -1.56105 1.18025 0
M  V30 14149 C 1343.24 1.11603 3.39529 0
M  V30 14150 C 1342.91 2.58518 3.69431 0
M  V30 14151 C 1341.57 2.98658 3.77302 0
M  V30 14152 C 1343.92 3.53579 3.82925 0
M  V30 14153 C 1341.25 4.32776 3.96134 0
M  V30 14154 C 1343.6 4.87398 4.0327 0
M  V30 14155 C 1342.27 5.27229 4.09373 0
M  V30 14156 H 1341.54 0.264204 0.692298 0
M  V30 14157 H 1344.18 1.28924 1.41601 0
M  V30 14158 H 1342.49 0.467374 3.89002 0
M  V30 14159 H 1344.19 0.857771 3.91718 0
M  V30 14160 H 1340.78 2.26421 3.63911 0
M  V30 14161 H 1344.96 3.23721 3.76189 0
M  V30 14162 H 1340.22 4.63175 3.99098 0
M  V30 14163 H 1344.39 5.60973 4.12653 0
M  V30 14164 H 1342.02 6.31164 4.23718 0
M  V30 14165 N 1343.59 -1.35528 0.804364 0
M  V30 14166 C 1344.82 -2.03604 0.395013 0
M  V30 14167 C 1345.24 -1.60225 -0.985371 0
M  V30 14168 O 1344.6 -0.777844 -1.63766 0
M  V30 14169 C 1344.65 -3.57337 0.484011 0
M  V30 14170 O 1343.75 -4.09316 -0.503395 0
M  V30 14171 H 1343.09 -0.643089 0.165325 0
M  V30 14172 H 1345.62 -1.73171 1.08963 0
M  V30 14173 H 1345.63 -4.0647 0.353009 0
M  V30 14174 H 1344.31 -3.8826 1.49088 0
M  V30 14175 H 1342.89 -3.71412 -0.332817 0
M  V30 14176 N 1345.07 -0.557671 -1.47404 0
M  V30 14177 C 1346.32 -0.0338384 -2.02772 0
M  V30 14178 C 1346.65 1.31278 -1.43107 0
M  V30 14179 O 1345.93 1.85436 -0.58682 0
M  V30 14180 C 1346.21 0.0587427 -3.60052 0
M  V30 14181 C 1346.06 -1.315 -4.30148 0
M  V30 14182 C 1347.38 0.771942 -4.33277 0
M  V30 14183 H 1344.5 -0.0137711 -0.736871 0
M  V30 14184 H 1347.14 -0.720049 -1.75827 0
M  V30 14185 H 1345.29 0.643154 -3.83139 0
M  V30 14186 H 1346.96 -1.94265 -4.184 0
M  V30 14187 H 1345.21 -1.88956 -3.90484 0
M  V30 14188 H 1345.88 -1.20294 -5.38733 0
M  V30 14189 H 1348.35 0.275729 -4.15185 0
M  V30 14190 H 1347.23 0.805683 -5.42955 0
M  V30 14191 H 1347.49 1.82816 -4.0253 0
M  V30 14192 N 1346.55 1.54831 -0.294147 0
M  V30 14193 C 1347.78 2.04411 0.319938 0
M  V30 14194 C 1348.19 1.17174 1.4804 0
M  V30 14195 O 1347.55 0.195881 1.81446 0
M  V30 14196 C 1347.6 3.52924 0.782751 0
M  V30 14197 O 1347.32 4.36844 -0.331512 0
M  V30 14198 C 1348.82 4.18474 1.4627 0
M  V30 14199 H 1346.04 0.667286 0.0704973 0
M  V30 14200 H 1348.59 1.9989 -0.431785 0
M  V30 14201 H 1346.74 3.57828 1.48451 0
M  V30 14202 H 1347.16 5.24493 0.0275743 0
M  V30 14203 H 1348.63 5.23933 1.73776 0
M  V30 14204 H 1349.11 3.67793 2.40052 0
M  V30 14205 H 1349.71 4.17626 0.804291 0
M  V30 14206 N 1348.03 0.0217466 1.57585 0
M  V30 14207 C 1348.96 -0.961069 2.12804 0
M  V30 14208 C 1349.94 -1.3442 1.04237 0
M  V30 14209 O 1351.12 -1.42412 1.32032 0
M  V30 14210 C 1348.25 -2.24586 2.64912 0
M  V30 14211 C 1347.21 -2.0037 3.78201 0
M  V30 14212 C 1346.53 -3.35051 4.16708 0
M  V30 14213 C 1347.83 -1.34879 5.04584 0
M  V30 14214 H 1349.53 -0.501222 2.95175 0
M  V30 14215 H 1347.07 -0.239649 1.41992 0
M  V30 14216 H 1349.03 -2.93715 3.02175 0
M  V30 14217 H 1347.75 -2.72723 1.79693 0
M  V30 14218 H 1346.41 -1.33662 3.41365 0
M  V30 14219 H 1346.06 -3.80932 3.28481 0
M  V30 14220 H 1345.76 -3.19656 4.93045 0
M  V30 14221 H 1347.28 -4.05459 4.56547 0
M  V30 14222 H 1348.7 -1.93997 5.3948 0
M  V30 14223 H 1347.09 -1.29906 5.85871 0
M  V30 14224 H 1348.16 -0.320774 4.83838 0
M  V30 14225 N 1349.51 -1.55583 -0.251311 0
M  V30 14226 C 1350.75 -1.77209 -0.979966 0
M  V30 14227 C 1351.08 -0.585279 -1.85485 0
M  V30 14228 O 1350.34 0.431559 -1.90882 0
M  V30 14229 C 1350.63 -3.04291 -1.87461 0
M  V30 14230 C 1350.3 -4.35844 -1.15545 0
M  V30 14231 C 1348.96 -4.71594 -0.956679 0
M  V30 14232 C 1351.31 -5.17189 -0.645381 0
M  V30 14233 C 1348.64 -5.86227 -0.235465 0
M  V30 14234 C 1350.99 -6.32569 0.0623441 0
M  V30 14235 C 1349.66 -6.66943 0.272634 0
M  V30 14236 H 1348.93 -0.648452 -0.358595 0
M  V30 14237 H 1351.58 -1.89856 -0.250423 0
M  V30 14238 H 1349.88 -2.86637 -2.67108 0
M  V30 14239 H 1351.58 -3.18221 -2.44001 0
M  V30 14240 H 1348.17 -4.07757 -1.32031 0
M  V30 14241 H 1352.35 -4.90028 -0.786505 0
M  V30 14242 H 1347.61 -6.11369 -0.0620232 0
M  V30 14243 H 1351.78 -6.94844 0.465234 0
M  V30 14244 H 1349.41 -7.55617 0.833442 0
M  V30 14245 N 1350.98 0.516783 -1.48886 0
M  V30 14246 C 1352.21 1.29628 -1.61258 0
M  V30 14247 C 1352.63 1.86744 -0.27786 0
M  V30 14248 O 1351.98 1.67061 0.734639 0
M  V30 14249 C 1352.03 2.43779 -2.66935 0
M  V30 14250 O 1351.76 1.89014 -3.95228 0
M  V30 14251 C 1353.26 3.35398 -2.89867 0
M  V30 14252 H 1350.48 0.393736 -0.543335 0
M  V30 14253 H 1353.02 0.622069 -1.94809 0
M  V30 14254 H 1351.18 3.0706 -2.36206 0
M  V30 14255 H 1351.59 2.63833 -4.53312 0
M  V30 14256 H 1353.06 4.11812 -3.6758 0
M  V30 14257 H 1353.54 3.91436 -1.99185 0
M  V30 14258 H 1354.15 2.77898 -3.21952 0
M  V30 14259 N 1352.46 1.37696 0.766659 0
M  V30 14260 C 1353.71 1.32507 1.52069 0
M  V30 14261 C 1354.02 -0.0864967 1.95409 0
M  V30 14262 O 1355.23 -0.260877 2.70244 0
M  V30 14263 C 1353.69 2.32614 2.74625 0
M  V30 14264 C 1353.29 3.79325 2.38363 0
M  V30 14265 C 1355.04 2.36445 3.52554 0
M  V30 14266 C 1352.94 4.7115 3.57451 0
M  V30 14267 H 1351.87 0.492491 0.570937 0
M  V30 14268 H 1354.53 1.63183 0.839268 0
M  V30 14269 H 1352.91 1.94963 3.44682 0
M  V30 14270 H 1354.08 4.25841 1.76056 0
M  V30 14271 H 1352.4 3.78488 1.73597 0
M  V30 14272 H 1354.99 3.02252 4.41076 0
M  V30 14273 H 1355.34 1.37953 3.92778 0
M  V30 14274 H 1355.87 2.72829 2.89498 0
M  V30 14275 H 1352.61 5.70789 3.22304 0
M  V30 14276 H 1352.13 4.29335 4.18846 0
M  V30 14277 H 1353.81 4.88532 4.242 0
M  V30 14278 N 1353.94 -0.993397 1.22349 0
M  V30 14279 C 1355.19 -1.73287 1.04775 0
M  V30 14280 C 1355.51 -1.89973 -0.417201 0
M  V30 14281 O 1354.77 -1.43966 -1.32561 0
M  V30 14282 C 1355.07 -3.14191 1.70349 0
M  V30 14283 C 1354.73 -3.17421 3.20241 0
M  V30 14284 C 1353.4 -3.1801 3.61141 0
M  V30 14285 C 1355.75 -3.13751 4.16185 0
M  V30 14286 C 1353.08 -3.12628 4.96468 0
M  V30 14287 C 1355.43 -3.09911 5.51487 0
M  V30 14288 C 1354.09 -3.08815 5.91768 0
M  V30 14289 H 1353.36 -0.634102 0.3834 0
M  V30 14290 H 1356.01 -1.16346 1.52105 0
M  V30 14291 H 1354.31 -3.74437 1.15343 0
M  V30 14292 H 1356.01 -3.70149 1.54242 0
M  V30 14293 H 1352.6 -3.17713 2.87674 0
M  V30 14294 H 1356.79 -3.12446 3.85605 0
M  V30 14295 H 1352.04 -3.10125 5.26909 0
M  V30 14296 H 1356.22 -3.06026 6.25556 0
M  V30 14297 H 1353.84 -3.044 6.96595 0
M  V30 14298 N 1355.42 -1.03311 -1.19015 0
M  V30 14299 C 1356.38 -0.622114 -2.20596 0
M  V30 14300 C 1357.38 0.316502 -1.57654 0
M  V30 14301 O 1358.57 0.102932 -1.73896 0
M  V30 14302 C 1355.7 0.0890432 -3.40784 0
M  V30 14303 H 1356.9 -1.52095 -2.58471 0
M  V30 14304 H 1354.45 -0.824777 -1.32767 0
M  V30 14305 H 1355.18 1.00203 -3.08431 0
M  V30 14306 H 1354.97 -0.58547 -3.87704 0
M  V30 14307 H 1356.46 0.363366 -4.16016 0
M  V30 14308 N 1356.9 1.35099 -0.81154 0
M  V30 14309 C 1358.14 1.98625 -0.394231 0
M  V30 14310 C 1358.47 1.6437 1.03985 0
M  V30 14311 O 1357.73 0.901496 1.737 0
M  V30 14312 C 1358.02 3.53444 -0.530322 0
M  V30 14313 C 1357.69 4.0758 -1.92844 0
M  V30 14314 C 1356.35 4.22077 -2.31094 0
M  V30 14315 C 1358.7 4.36838 -2.84292 0
M  V30 14316 C 1356.03 4.63153 -3.60148 0
M  V30 14317 C 1358.38 4.79355 -4.12798 0
M  V30 14318 C 1357.05 4.92057 -4.51039 0
M  V30 14319 H 1356.32 0.726822 -0.144259 0
M  V30 14320 H 1358.97 1.61231 -1.03329 0
M  V30 14321 H 1357.27 3.91328 0.192166 0
M  V30 14322 H 1358.97 4.00558 -0.188134 0
M  V30 14323 H 1355.56 3.96752 -1.62129 0
M  V30 14324 H 1359.74 4.25187 -2.55988 0
M  V30 14325 H 1355 4.71176 -3.89619 0
M  V30 14326 H 1359.17 5.00954 -4.83754 0
M  V30 14327 H 1356.8 5.23643 -5.51092 0
M  V30 14328 N 1358.37 0.56548 1.47106 0
M  V30 14329 C 1359.62 0.042333 2.01656 0
M  V30 14330 C 1359.94 -1.31892 1.44443 0
M  V30 14331 O 1361.14 -1.93245 1.90706 0
M  V30 14332 C 1359.6 0.0251556 3.59891 0
M  V30 14333 C 1359.21 1.38367 4.26097 0
M  V30 14334 C 1360.95 -0.44495 4.22162 0
M  V30 14335 C 1358.86 1.32516 5.76362 0
M  V30 14336 H 1357.79 0.0120557 0.753904 0
M  V30 14337 H 1360.44 0.714565 1.69015 0
M  V30 14338 H 1358.82 -0.712893 3.8953 0
M  V30 14339 H 1359.99 2.14009 4.08089 0
M  V30 14340 H 1358.31 1.79239 3.75849 0
M  V30 14341 H 1360.91 -0.507256 5.32288 0
M  V30 14342 H 1361.25 -1.45876 3.89905 0
M  V30 14343 H 1361.78 0.238496 3.97084 0
M  V30 14344 H 1358.52 2.31523 6.13252 0
M  V30 14345 H 1358.04 0.610674 5.96683 0
M  V30 14346 H 1359.72 1.03072 6.38737 0
M  V30 14347 N 1359.85 -1.54672 0.302354 0
M  V30 14348 C 1360.8 -2.25022 -0.58887 0
M  V30 14349 C 1361.79 -1.25671 -1.13592 0
M  V30 14350 O 1363 -1.43518 -1.0864 0
M  V30 14351 H 1359.38 -0.722515 -0.208509 0
M  V30 14352 H 1361.35 -2.98388 0.0269928 0
M  V30 14353 C 1360.1 -3.00532 -1.74859 0
M  V30 14354 H 1359.42 -3.76786 -1.33688 0
M  V30 14355 H 1360.86 -3.53036 -2.34823 0
M  V30 14356 C 1359.32 -2.0758 -2.65353 0
M  V30 14357 O 1359.85 -1.64473 -3.66485 0
M  V30 14358 N 1358.05 -1.73508 -2.33116 0
M  V30 14359 H 1357.6 -2.0876 -1.5092 0
M  V30 14360 H 1357.56 -1.11591 -2.9393 0
M  V30 14361 N 1361.33 -0.0301034 -1.57571 0
M  V30 14362 C 1362.58 0.649283 -1.92125 0
M  V30 14363 C 1362.91 1.71722 -0.90692 0
M  V30 14364 O 1362.18 1.94373 0.0702019 0
M  V30 14365 C 1362.47 1.26482 -3.37156 0
M  V30 14366 C 1362.32 0.206375 -4.49326 0
M  V30 14367 C 1363.64 2.18256 -3.82168 0
M  V30 14368 H 1360.76 0.234561 -0.698678 0
M  V30 14369 H 1363.4 -0.0875634 -1.89798 0
M  V30 14370 H 1361.55 1.89283 -3.3927 0
M  V30 14371 H 1363.22 -0.424268 -4.59345 0
M  V30 14372 H 1361.47 -0.468035 -4.31268 0
M  V30 14373 H 1362.14 0.676689 -5.47837 0
M  V30 14374 H 1364.61 1.65441 -3.81797 0
M  V30 14375 H 1363.49 2.58277 -4.84339 0
M  V30 14376 H 1363.75 3.07411 -3.17727 0
M  V30 14377 N 1362.81 1.55714 0.243056 0
M  V30 14378 C 1364.06 1.77375 0.968638 0
M  V30 14379 C 1364.38 0.594781 1.85708 0
M  V30 14380 O 1363.65 -0.38928 1.91993 0
M  V30 14381 H 1362.23 0.654174 0.360646 0
M  V30 14382 H 1364.89 1.93157 0.260079 0
M  V30 14383 H 1363.99 2.68674 1.5881 0
M  V30 14384 N 1364.29 -0.50888 1.49158 0
M  V30 14385 C 1365.53 -1.26537 1.58481 0
M  V30 14386 C 1365.87 -1.92353 0.267168 0
M  V30 14387 O 1365.14 -1.80336 -0.728639 0
M  V30 14388 C 1365.42 -2.33846 2.73839 0
M  V30 14389 C 1365.28 -1.72582 4.15374 0
M  V30 14390 C 1366.6 -3.35467 2.84868 0
M  V30 14391 H 1363.71 -0.458697 0.576859 0
M  V30 14392 H 1366.36 -0.564728 1.81413 0
M  V30 14393 H 1364.51 -2.93605 2.54417 0
M  V30 14394 H 1366.18 -1.16711 4.46292 0
M  V30 14395 H 1364.42 -1.03025 4.21389 0
M  V30 14396 H 1365.09 -2.5038 4.91949 0
M  V30 14397 H 1367.57 -2.85689 3.02524 0
M  V30 14398 H 1366.44 -4.07922 3.67275 0
M  V30 14399 H 1366.71 -3.97313 1.93894 0
M  V30 14400 N 1365.76 -1.381 -0.759346 0
M  V30 14401 C 1366.69 -1.37578 -1.88665 0
M  V30 14402 C 1367.68 -0.242529 -1.68362 0
M  V30 14403 O 1368.86 -0.444751 -1.89039 0
M  V30 14404 C 1365.99 -1.19437 -3.26117 0
M  V30 14405 C 1364.94 -2.29905 -3.61009 0
M  V30 14406 C 1364.27 -1.96874 -4.97136 0
M  V30 14407 C 1365.57 -3.72143 -3.66479 0
M  V30 14408 H 1367.26 -2.31912 -1.89359 0
M  V30 14409 H 1364.81 -1.11632 -0.909631 0
M  V30 14410 H 1366.76 -1.17698 -4.0463 0
M  V30 14411 H 1365.49 -0.21562 -3.25887 0
M  V30 14412 H 1364.15 -2.3082 -2.84812 0
M  V30 14413 H 1363.79 -0.974979 -4.9346 0
M  V30 14414 H 1363.49 -2.70855 -5.21451 0
M  V30 14415 H 1365.02 -1.96744 -5.78035 0
M  V30 14416 H 1366.43 -3.73291 -4.35117 0
M  V30 14417 H 1364.83 -4.45282 -4.02299 0
M  V30 14418 H 1365.9 -4.04874 -2.66843 0
M  V30 14419 N 1367.24 0.986894 -1.22875 0
M  V30 14420 C 1368.17 2.09628 -1.0285 0
M  V30 14421 C 1369.15 1.70019 0.0525118 0
M  V30 14422 O 1370.34 1.93883 -0.110874 0
M  V30 14423 C 1367.47 3.41866 -0.61194 0
M  V30 14424 C 1366.42 3.95351 -1.63956 0
M  V30 14425 C 1365.75 5.23707 -1.07865 0
M  V30 14426 C 1367.05 4.25354 -3.03102 0
M  V30 14427 H 1368.74 2.26639 -1.95641 0
M  V30 14428 H 1366.29 1.0891 -0.942048 0
M  V30 14429 H 1368.24 4.18893 -0.458936 0
M  V30 14430 H 1366.97 3.24701 0.35164 0
M  V30 14431 H 1365.62 3.20462 -1.78045 0
M  V30 14432 H 1365.27 5.02888 -0.106246 0
M  V30 14433 H 1364.97 5.60459 -1.76522 0
M  V30 14434 H 1366.5 6.03362 -0.937359 0
M  V30 14435 H 1367.91 4.93156 -2.92353 0
M  V30 14436 H 1366.31 4.73292 -3.68938 0
M  V30 14437 H 1367.38 3.32887 -3.52583 0
M  V30 14438 N 1368.72 1.0394 1.18466 0
M  V30 14439 C 1369.95 0.760909 1.92077 0
M  V30 14440 C 1370.36 -0.685622 1.7634 0
M  V30 14441 O 1369.7 -1.47894 1.08963 0
M  V30 14442 C 1369.76 1.04583 3.43952 0
M  V30 14443 C 1369.43 2.48602 3.83466 0
M  V30 14444 C 1370.42 3.46775 3.87354 0
M  V30 14445 C 1368.11 2.8328 4.14798 0
M  V30 14446 C 1370.1 4.77678 4.22022 0
M  V30 14447 C 1367.79 4.1439 4.49138 0
M  V30 14448 C 1368.79 5.11399 4.52725 0
M  V30 14449 O 1368.48 6.40159 4.86264 0
M  V30 14450 H 1368.21 0.276991 0.616646 0
M  V30 14451 H 1370.76 1.3898 1.5124 0
M  V30 14452 H 1368.99 0.359807 3.85022 0
M  V30 14453 H 1370.68 0.755336 3.9881 0
M  V30 14454 H 1371.45 3.21323 3.63286 0
M  V30 14455 H 1367.33 2.08444 4.11184 0
M  V30 14456 H 1370.87 5.53393 4.24737 0
M  V30 14457 H 1366.77 4.39611 4.72666 0
M  V30 14458 H 1367.54 6.4479 5.04171 0
M  V30 14459 N 1370.2 -1.34667 0.818693 0
M  V30 14460 C 1371.61 -1.51436 0.503921 0
M  V30 14461 C 1371.81 -1.76468 -0.972691 0
M  V30 14462 O 1370.87 -1.81314 -1.75731 0
M  V30 14463 C 1372.18 -2.68198 1.35978 0
M  V30 14464 C 1373.73 -2.8208 1.35647 0
M  V30 14465 C 1374.21 -4.01881 2.19672 0
M  V30 14466 N 1375.7 -4.0908 2.17273 0
M  V30 14467 C 1376.43 -5.00925 2.79038 0
M  V30 14468 N 1375.93 -5.9802 3.49777 0
M  V30 14469 N 1377.72 -4.93764 2.68615 0
M  V30 14470 H 1369.87 -1.16677 1.77483 0
M  V30 14471 H 1372.14 -0.571873 0.756085 0
M  V30 14472 H 1371.84 -2.56317 2.4082 0
M  V30 14473 H 1371.72 -3.63105 1.0215 0
M  V30 14474 H 1374.1 -2.93405 0.315849 0
M  V30 14475 H 1374.18 -1.87994 1.7347 0
M  V30 14476 H 1373.83 -3.91316 3.23781 0
M  V30 14477 H 1373.76 -4.95171 1.79202 0
M  V30 14478 H 1376.25 -3.3958 1.65814 0
M  V30 14479 H 1376.56 -6.64722 3.94162 0
M  V30 14480 H 1374.91 -5.98157 3.53883 0
M  V30 14481 H 1378.1 -4.16868 2.12929 0
M  V30 14482 H 1378.27 -5.65147 3.17038 0
M  V30 14483 N 1371.68 -0.573274 -1.46804 0
M  V30 14484 C 1373.09 -0.23423 -1.57872 0
M  V30 14485 C 1373.29 1.26342 -1.56971 0
M  V30 14486 O 1372.35 2.04459 -1.48165 0
M  V30 14487 C 1373.66 -0.875097 -2.87685 0
M  V30 14488 C 1375.21 -0.847812 -3.01299 0
M  V30 14489 C 1375.68 -1.46804 -4.33835 0
M  V30 14490 N 1377.18 -1.43196 -4.4051 0
M  V30 14491 C 1377.91 -1.88133 -5.41658 0
M  V30 14492 N 1377.41 -2.41001 -6.49531 0
M  V30 14493 N 1379.2 -1.79107 -5.32801 0
M  V30 14494 H 1371.35 -1.54612 -1.45633 0
M  V30 14495 H 1373.61 -0.645703 -0.694098 0
M  V30 14496 H 1373.32 -1.92826 -2.94127 0
M  V30 14497 H 1373.19 -0.377671 -3.75305 0
M  V30 14498 H 1375.58 0.196707 -2.94444 0
M  V30 14499 H 1375.66 -1.38316 -2.1518 0
M  V30 14500 H 1375.31 -2.51171 -4.41447 0
M  V30 14501 H 1375.24 -0.908 -5.18713 0
M  V30 14502 H 1377.73 -1.04541 -3.63152 0
M  V30 14503 H 1378.04 -2.73172 -7.22908 0
M  V30 14504 H 1376.38 -2.45021 -6.50377 0
M  V30 14505 H 1379.58 -1.37569 -4.47429 0
M  V30 14506 H 1379.75 -2.14445 -6.11488 0
M  V30 14507 N 1373.15 1.5451 -0.310553 0
M  V30 14508 C 1374.57 1.59543 0.0425296 0
M  V30 14509 C 1374.77 1.32737 1.51602 0
M  V30 14510 O 1373.83 1.10543 2.27016 0
M  V30 14511 C 1375.14 2.98489 -0.364002 0
M  V30 14512 C 1376.69 3.11425 -0.313566 0
M  V30 14513 C 1377.16 4.52695 -0.695064 0
M  V30 14514 N 1378.65 4.58645 -0.647966 0
M  V30 14515 C 1379.39 5.66044 -0.915508 0
M  V30 14516 N 1378.88 6.81439 -1.24951 0
M  V30 14517 N 1380.68 5.55759 -0.841933 0
M  V30 14518 H 1372.83 1.70194 -1.27074 0
M  V30 14519 H 1375.09 0.795374 -0.515833 0
M  V30 14520 H 1374.8 3.23061 -1.39012 0
M  V30 14521 H 1374.67 3.76177 0.27756 0
M  V30 14522 H 1377.06 2.86596 0.703326 0
M  V30 14523 H 1377.14 2.35871 -0.989883 0
M  V30 14524 H 1376.78 4.78255 -1.70981 0
M  V30 14525 H 1376.71 5.266 0.00342684 0
M  V30 14526 H 1379.2 3.75765 -0.401137 0
M  V30 14527 H 1379.52 7.59277 -1.43938 0
M  V30 14528 H 1377.86 6.82968 -1.28764 0
M  V30 14529 H 1381.05 4.64486 -0.58058 0
M  V30 14530 H 1381.23 6.39374 -1.0538 0
M  V30 14531 N 1374.63 0.0384594 1.57553 0
M  V30 14532 C 1376.04 -0.499057 1.79906 0
M  V30 14533 C 1376.4 -1.7169 0.949577 0
M  V30 14534 O 1375.52 -2.15788 0.162584 0
M  V30 14535 C 1376.12 -0.912155 3.2629 0
M  V30 14536 C 1374.67 -1.39473 3.49606 0
M  V30 14537 C 1373.82 -0.363859 2.74902 0
M  V30 14538 H 1376.77 0.264433 1.56481 0
M  V30 14539 H 1376.79 -1.77592 3.36513 0
M  V30 14540 H 1376.31 -0.0255928 3.88092 0
M  V30 14541 H 1374.41 -2.3009 2.93068 0
M  V30 14542 H 1374.52 -1.39566 4.58321 0
M  V30 14543 H 1372.88 -0.833993 2.40659 0
M  V30 14544 H 1373.67 0.514398 3.39424 0
M  V30 14545 N 1376.11 -1.55841 -0.234795 0
M  V30 14546 C 1377.02 -1.94476 -1.31211 0
M  V30 14547 C 1378.04 -0.846782 -1.52005 0
M  V30 14548 O 1379.21 -1.14922 -1.65393 0
M  V30 14549 C 1376.28 -2.24213 -2.64442 0
M  V30 14550 C 1375.34 -3.47508 -2.52065 0
M  V30 14551 C 1374.57 -3.75817 -3.78942 0
M  V30 14552 O 1374.8 -3.06007 -4.81369 0
M  V30 14553 O 1373.73 -4.69328 -3.76848 0
M  V30 14554 H 1377.56 -2.8626 -1.01434 0
M  V30 14555 H 1375.14 -1.42879 -0.436563 0
M  V30 14556 H 1377.02 -2.44594 -3.4315 0
M  V30 14557 H 1375.7 -1.35605 -2.93927 0
M  V30 14558 H 1374.6 -3.32421 -1.71602 0
M  V30 14559 H 1375.94 -4.36457 -2.27523 0
M  V30 14560 N 1377.59 0.500963 -1.49426 0
M  V30 14561 C 1378.84 1.25171 -1.58162 0
M  V30 14562 C 1379.15 1.93678 -0.273556 0
M  V30 14563 O 1380.36 2.70442 -0.239462 0
M  V30 14564 C 1378.81 2.27276 -2.79059 0
M  V30 14565 C 1378.42 1.64708 -4.16624 0
M  V30 14566 C 1380.17 3.03178 -2.97125 0
M  V30 14567 C 1378.07 2.64923 -5.28743 0
M  V30 14568 H 1377 0.470867 -0.588897 0
M  V30 14569 H 1379.65 0.525569 -1.75812 0
M  V30 14570 H 1378.04 3.03052 -2.54903 0
M  V30 14571 H 1379.21 0.949231 -4.50917 0
M  V30 14572 H 1377.52 1.01195 -4.03916 0
M  V30 14573 H 1380.12 3.78122 -3.78058 0
M  V30 14574 H 1380.46 3.60793 -2.07687 0
M  V30 14575 H 1381 2.34517 -3.2132 0
M  V30 14576 H 1377.74 2.12089 -6.20241 0
M  V30 14577 H 1377.26 3.32948 -4.98904 0
M  V30 14578 H 1378.94 3.27349 -5.58079 0
M  V30 14579 N 1379.07 1.38501 0.752011 0
M  V30 14580 C 1380.32 1.34529 1.50819 0
M  V30 14581 C 1380.64 -0.0636155 1.94896 0
M  V30 14582 O 1379.91 -1.01161 1.6776 0
M  V30 14583 H 1378.49 0.49501 0.559441 0
M  V30 14584 H 1381.15 1.73196 0.893822 0
M  V30 14585 H 1380.24 1.99713 2.39835 0
M  V30 14586 N 1380.55 -0.980364 1.23396 0
M  V30 14587 C 1381.79 -1.71826 1.06397 0
M  V30 14588 C 1382.11 -1.90854 -0.399958 0
M  V30 14589 O 1381.38 -1.47721 -1.28668 0
M  V30 14590 H 1379.96 -0.636669 0.390719 0
M  V30 14591 H 1382.63 -1.18008 1.55113 0
M  V30 14592 H 1381.72 -2.7078 1.55192 0
M  V30 14593 N 1382.02 -1.04567 -1.17913 0
M  V30 14594 C 1382.93 -0.651674 -2.25367 0
M  V30 14595 C 1383.95 0.32437 -1.7095 0
M  V30 14596 O 1385.13 0.178039 -2.00612 0
M  V30 14597 C 1382.19 -0.0259452 -3.4669 0
M  V30 14598 C 1381.25 -1.05163 -4.1622 0
M  V30 14599 C 1380.48 -0.45567 -5.31751 0
M  V30 14600 O 1380.71 0.736698 -5.65623 0
M  V30 14601 O 1379.64 -1.18684 -5.90083 0
M  V30 14602 H 1383.47 -1.54704 -2.61344 0
M  V30 14603 H 1381.05 -0.816852 -1.25092 0
M  V30 14604 H 1382.93 0.322126 -4.20167 0
M  V30 14605 H 1381.61 0.843165 -3.12526 0
M  V30 14606 H 1380.52 -1.45159 -3.44789 0
M  V30 14607 H 1381.85 -1.89168 -4.54397 0
M  V30 14608 N 1383.5 1.34231 -0.825823 0
M  V30 14609 C 1384.43 2.31997 -0.264546 0
M  V30 14610 C 1385.41 1.58375 0.620592 0
M  V30 14611 O 1386.6 1.86341 0.546865 0
M  V30 14612 C 1383.73 3.42557 0.572025 0
M  V30 14613 C 1382.68 4.27454 -0.216219 0
M  V30 14614 C 1382.01 5.29509 0.743279 0
M  V30 14615 C 1383.31 5.02456 -1.42603 0
M  V30 14616 H 1385 2.79189 -1.08139 0
M  V30 14617 H 1382.55 1.34227 -0.521451 0
M  V30 14618 H 1384.5 4.09968 0.974889 0
M  V30 14619 H 1383.22 2.94021 1.42195 0
M  V30 14620 H 1381.88 3.61649 -0.600485 0
M  V30 14621 H 1381.53 4.77234 1.58924 0
M  V30 14622 H 1381.23 5.87188 0.220064 0
M  V30 14623 H 1382.76 5.99789 1.14394 0
M  V30 14624 H 1384.17 5.62706 -1.09702 0
M  V30 14625 H 1382.57 5.69723 -1.88509 0
M  V30 14626 H 1383.64 4.31983 -2.2027 0
M  V30 14627 N 1384.98 0.581051 1.46498 0
M  V30 14628 C 1386.23 0.0658652 2.01993 0
M  V30 14629 C 1386.55 -1.29807 1.45516 0
M  V30 14630 O 1385.82 -1.85177 0.639233 0
M  V30 14631 H 1384.4 0.0213584 0.746695 0
M  V30 14632 H 1387.06 0.756456 1.79621 0
M  V30 14633 H 1386.16 -0.00438128 3.121 0
M  V30 14634 N 1386.46 -1.54343 0.318742 0
M  V30 14635 C 1387.71 -2.00084 -0.284713 0
M  V30 14636 C 1388.03 -1.20855 -1.53033 0
M  V30 14637 O 1387.3 -0.309104 -1.93446 0
M  V30 14638 H 1385.88 -0.739123 -0.108193 0
M  V30 14639 H 1388.54 -1.90002 0.434174 0
M  V30 14640 H 1387.63 -3.07314 -0.544459 0
M  V30 14641 N 1387.94 -0.0468143 -1.5753 0
M  V30 14642 C 1389.35 0.489509 -1.80169 0
M  V30 14643 C 1389.7 1.71184 -0.958669 0
M  V30 14644 O 1388.82 2.15699 -0.174025 0
M  V30 14645 C 1389.42 0.894838 -3.26769 0
M  V30 14646 C 1387.98 1.37617 -3.50341 0
M  V30 14647 C 1387.12 0.349275 -2.75092 0
M  V30 14648 H 1390.07 -0.272728 -1.56339 0
M  V30 14649 H 1390.1 1.75805 -3.3745 0
M  V30 14650 H 1389.61 0.00501096 -3.881 0
M  V30 14651 H 1387.71 2.28533 -2.94285 0
M  V30 14652 H 1387.82 1.37133 -4.59055 0
M  V30 14653 H 1386.19 0.821219 -2.41098 0
M  V30 14654 H 1386.97 -0.532391 -3.39147 0
M  V30 14655 N 1389.41 1.55964 0.226527 0
M  V30 14656 C 1390.83 1.48844 0.575999 0
M  V30 14657 C 1391.03 0.740966 1.87382 0
M  V30 14658 O 1390.09 0.278599 2.50958 0
M  V30 14659 C 1391.4 2.93371 0.65984 0
M  V30 14660 C 1392.95 3.03862 0.750802 0
M  V30 14661 C 1393.42 4.49738 0.86603 0
M  V30 14662 N 1394.91 4.5376 0.930379 0
M  V30 14663 C 1395.65 5.63905 1.03916 0
M  V30 14664 N 1395.14 6.83814 1.1122 0
M  V30 14665 N 1396.94 5.51746 1.07391 0
M  V30 14666 H 1389.09 2.02991 -0.625179 0
M  V30 14667 H 1391.35 0.922435 -0.218674 0
M  V30 14668 H 1391.06 3.50985 -0.22411 0
M  V30 14669 H 1390.93 3.44994 1.52509 0
M  V30 14670 H 1393.32 2.46316 1.6252 0
M  V30 14671 H 1393.4 2.55416 -0.140019 0
M  V30 14672 H 1393.04 5.079 -0.00388632 0
M  V30 14673 H 1392.97 4.95884 1.77219 0
M  V30 14674 H 1395.46 3.67404 0.884451 0
M  V30 14675 H 1395.78 7.63507 1.19484 0
M  V30 14676 H 1394.12 6.86535 1.08142 0
M  V30 14677 H 1397.31 4.56997 1.01347 0
M  V30 14678 H 1397.49 6.37619 1.15523 0
M  V30 14679 N 1390.89 -0.493031 1.4969 0
M  V30 14680 C 1392.12 -1.27046 1.633 0
M  V30 14681 C 1392.54 -1.86278 0.307534 0
M  V30 14682 O 1391.89 -1.68208 -0.707968 0
M  V30 14683 C 1391.94 -2.39501 2.70779 0
M  V30 14684 O 1391.66 -1.82702 3.98185 0
M  V30 14685 C 1393.17 -3.30744 2.95166 0
M  V30 14686 H 1390.39 -0.385042 0.54953 0
M  V30 14687 H 1392.93 -0.590998 1.95774 0
M  V30 14688 H 1391.08 -3.03263 2.41061 0
M  V30 14689 H 1391.5 -2.56588 4.57452 0
M  V30 14690 H 1392.97 -4.05912 3.74085 0
M  V30 14691 H 1393.45 -3.88217 2.05387 0
M  V30 14692 H 1394.06 -2.72741 3.26332 0
M  V30 14693 N 1392.37 -1.38898 -0.744656 0
M  V30 14694 C 1393.33 -1.36633 -1.84022 0
M  V30 14695 C 1394.33 -0.265187 -1.58598 0
M  V30 14696 O 1395.52 -0.522569 -1.66177 0
M  V30 14697 C 1392.66 -1.12938 -3.21649 0
M  V30 14698 H 1393.85 -2.34111 -1.87435 0
M  V30 14699 H 1391.4 -1.24322 -0.947302 0
M  V30 14700 H 1392.14 -0.161027 -3.239 0
M  V30 14701 H 1391.92 -1.9267 -3.41498 0
M  V30 14702 H 1393.41 -1.14071 -4.01718 0
M  V30 14703 N 1393.85 0.973806 -1.23914 0
M  V30 14704 C 1394.8 2.06734 -1.02614 0
M  V30 14705 C 1395.77 1.65997 0.0585705 0
M  V30 14706 O 1396.95 1.90564 -0.0948467 0
M  V30 14707 C 1394.09 3.39292 -0.630493 0
M  V30 14708 C 1393.2 3.9326 -1.78803 0
M  V30 14709 C 1392.34 5.14059 -1.33854 0
M  V30 14710 C 1391.38 5.60209 -2.46642 0
M  V30 14711 N 1390.51 6.72232 -2.02603 0
M  V30 14712 H 1395.35 2.24287 -1.96212 0
M  V30 14713 H 1392.89 1.09935 -0.977376 0
M  V30 14714 H 1394.85 4.15446 -0.382163 0
M  V30 14715 H 1393.48 3.21682 0.268483 0
M  V30 14716 H 1392.53 3.13801 -2.15019 0
M  V30 14717 H 1393.84 4.23475 -2.63573 0
M  V30 14718 H 1393 5.97567 -1.04873 0
M  V30 14719 H 1391.74 4.85513 -0.46131 0
M  V30 14720 H 1390.74 4.75278 -2.7639 0
M  V30 14721 H 1391.97 5.90771 -3.34912 0
M  V30 14722 H 1389.91 6.45433 -1.17269 0
M  V30 14723 H 1389.83 7.01865 -2.80929 0
M  V30 14724 H 1391.1 7.59198 -1.76745 0
M  V30 14725 N 1395.33 1.05191 1.17357 0
M  V30 14726 C 1396.26 0.673931 2.23563 0
M  V30 14727 C 1397.24 -0.328284 1.66902 0
M  V30 14728 O 1398.42 -0.205878 1.93106 0
M  V30 14729 C 1395.55 0.0478801 3.47267 0
M  V30 14730 C 1394.51 0.974855 4.1675 0
M  V30 14731 C 1393.83 0.212684 5.34277 0
M  V30 14732 C 1395.13 2.299 4.68981 0
M  V30 14733 H 1396.83 1.56183 2.55436 0
M  V30 14734 H 1394.37 0.752408 1.2278 0
M  V30 14735 H 1396.33 -0.228343 4.20781 0
M  V30 14736 H 1395.05 -0.874963 3.14662 0
M  V30 14737 H 1393.71 1.23564 3.45148 0
M  V30 14738 H 1393.36 -0.712924 4.97922 0
M  V30 14739 H 1393.06 0.830351 5.81703 0
M  V30 14740 H 1394.58 -0.056255 6.10574 0
M  V30 14741 H 1395.99 2.08269 5.34132 0
M  V30 14742 H 1394.39 2.87064 5.26986 0
M  V30 14743 H 1395.46 2.93759 3.8579 0
M  V30 14744 N 1396.8 -1.33791 0.83293 0
M  V30 14745 C 1397.73 -2.31853 0.276846 0
M  V30 14746 C 1398.72 -1.58702 -0.612184 0
M  V30 14747 O 1399.9 -1.86629 -0.536975 0
M  V30 14748 C 1397.03 -3.42855 -0.55385 0
M  V30 14749 C 1395.98 -4.27333 0.238884 0
M  V30 14750 C 1395.31 -5.29895 -0.715187 0
M  V30 14751 C 1396.61 -5.01692 1.45265 0
M  V30 14752 H 1398.3 -2.78611 1.09618 0
M  V30 14753 H 1395.85 -1.33949 0.528562 0
M  V30 14754 H 1397.8 -4.10479 -0.953133 0
M  V30 14755 H 1396.53 -2.94771 -1.40634 0
M  V30 14756 H 1395.19 -3.61325 0.619656 0
M  V30 14757 H 1394.83 -4.7807 -1.56391 0
M  V30 14758 H 1394.53 -5.87296 -0.188921 0
M  V30 14759 H 1396.06 -6.00387 -1.11211 0
M  V30 14760 H 1397.47 -5.62117 1.12685 0
M  V30 14761 H 1395.87 -5.68715 1.91528 0
M  V30 14762 H 1396.94 -4.30809 2.22558 0
M  V30 14763 N 1398.28 -0.588812 -1.46187 0
M  V30 14764 C 1399.51 -0.0825301 -2.06735 0
M  V30 14765 C 1399.93 1.22507 -1.43658 0
M  V30 14766 O 1399.28 1.74203 -0.544022 0
M  V30 14767 C 1399.33 0.083501 -3.61404 0
M  V30 14768 O 1399.05 -1.17235 -4.22123 0
M  V30 14769 C 1400.56 0.623425 -4.38894 0
M  V30 14770 H 1397.78 -0.0602413 -0.66829 0
M  V30 14771 H 1400.32 -0.811215 -1.87722 0
M  V30 14772 H 1398.47 0.762432 -3.79823 0
M  V30 14773 H 1398.89 -0.990047 -5.15071 0
M  V30 14774 H 1400.36 0.688755 -5.47686 0
M  V30 14775 H 1400.84 1.64172 -4.07362 0
M  V30 14776 H 1401.45 -0.0208373 -4.25295 0
M  V30 14777 N 1399.76 1.54172 -0.326923 0
M  V30 14778 C 1400.99 2.05512 0.279231 0
M  V30 14779 C 1401.41 1.20131 1.44741 0
M  V30 14780 O 1400.77 0.211191 1.80066 0
M  V30 14781 C 1400.82 3.53971 0.688263 0
M  V30 14782 O 1399.92 3.71516 1.79025 0
M  V30 14783 H 1399.26 0.662131 0.0497826 0
M  V30 14784 H 1401.79 1.98979 -0.476309 0
M  V30 14785 H 1401.8 3.96302 0.970002 0
M  V30 14786 H 1400.48 4.15568 -0.166132 0
M  V30 14787 H 1399.05 3.4109 1.50706 0
M  V30 14788 N 1401.24 0.0551678 1.57503 0
M  V30 14789 C 1402.48 -0.621569 1.9472 0
M  V30 14790 C 1402.84 -1.67772 0.933626 0
M  V30 14791 O 1404.04 -2.40882 1.19287 0
M  V30 14792 C 1402.31 -1.19858 3.36703 0
M  V30 14793 S 1403.87 -1.89276 3.95879 0
M  V30 14794 H 1400.69 -0.203985 0.68111 0
M  V30 14795 H 1403.29 0.125058 1.951 0
M  V30 14796 H 1402 -0.417833 4.08267 0
M  V30 14797 H 1401.53 -1.98193 3.39828 0
M  V30 14798 H 1403.54 -3.17373 3.8143 0
M  V30 14799 N 1402.72 -1.56081 -0.218252 0
M  V30 14800 C 1403.65 -1.95706 -1.27364 0
M  V30 14801 C 1404.63 -0.825731 -1.48713 0
M  V30 14802 O 1405.81 -1.08829 -1.60841 0
M  V30 14803 C 1402.94 -2.2766 -2.62275 0
M  V30 14804 C 1401.9 -3.43314 -2.55576 0
M  V30 14805 C 1401.22 -3.60883 -3.94547 0
M  V30 14806 C 1402.52 -4.7819 -2.10075 0
M  V30 14807 H 1404.22 -2.84113 -0.944459 0
M  V30 14808 H 1401.76 -1.36693 -0.452882 0
M  V30 14809 H 1403.72 -2.53973 -3.36268 0
M  V30 14810 H 1402.44 -1.3611 -2.96887 0
M  V30 14811 H 1401.1 -3.17056 -1.8404 0
M  V30 14812 H 1400.75 -2.66703 -4.26472 0
M  V30 14813 H 1400.45 -4.38674 -3.90946 0
M  V30 14814 H 1401.97 -3.89547 -4.70197 0
M  V30 14815 H 1403.38 -5.03686 -2.73813 0
M  V30 14816 H 1401.78 -5.59287 -2.17527 0
M  V30 14817 H 1402.85 -4.73325 -1.05314 0
M  V30 14818 N 1404.2 0.485086 -1.49949 0
M  V30 14819 C 1405.44 1.23816 -1.60237 0
M  V30 14820 C 1405.77 1.9223 -0.296274 0
M  V30 14821 O 1405.03 1.82095 0.716939 0
M  V30 14822 C 1405.32 2.31573 -2.72229 0
M  V30 14823 C 1404.99 1.80508 -4.13192 0
M  V30 14824 C 1403.65 1.66301 -4.5155 0
M  V30 14825 C 1406 1.42471 -5.0135 0
M  V30 14826 C 1403.33 1.1246 -5.75821 0
M  V30 14827 C 1405.68 0.900757 -6.26154 0
M  V30 14828 C 1404.35 0.74521 -6.63327 0
M  V30 14829 H 1403.62 0.453075 -0.586348 0
M  V30 14830 H 1406.27 0.536349 -1.83836 0
M  V30 14831 H 1404.57 3.07606 -2.42663 0
M  V30 14832 H 1406.27 2.89574 -2.77395 0
M  V30 14833 H 1402.86 1.92529 -3.82924 0
M  V30 14834 H 1407.04 1.52287 -4.72358 0
M  V30 14835 H 1402.3 0.991422 -6.03308 0
M  V30 14836 H 1406.47 0.5973 -6.93834 0
M  V30 14837 H 1404.1 0.325838 -7.59501 0
M  V30 14838 N 1405.67 1.39291 0.737279 0
M  V30 14839 C 1406.92 1.36592 1.49901 0
M  V30 14840 C 1407.25 -0.0388812 1.94161 0
M  V30 14841 O 1406.53 -1.00337 1.66622 0
M  V30 14842 C 1406.81 2.33625 2.74028 0
M  V30 14843 C 1406.66 3.83037 2.35802 0
M  V30 14844 C 1407.98 2.28524 3.76118 0
M  V30 14845 H 1405.1 0.497482 0.543765 0
M  V30 14846 H 1407.74 1.70265 0.843193 0
M  V30 14847 H 1405.89 2.0504 3.29986 0
M  V30 14848 H 1407.57 4.22363 1.85493 0
M  V30 14849 H 1405.81 3.99924 1.68058 0
M  V30 14850 H 1406.48 4.46415 3.24681 0
M  V30 14851 H 1408.96 2.53794 3.29739 0
M  V30 14852 H 1407.83 2.98501 4.60639 0
M  V30 14853 H 1408.09 1.28949 4.22876 0
M  V30 14854 N 1407.15 -0.967221 1.24429 0
M  V30 14855 C 1408.08 -2.07966 1.06172 0
M  V30 14856 C 1409.06 -1.70081 -0.0254566 0
M  V30 14857 O 1410.25 -1.93682 0.141705 0
M  V30 14858 C 1407.38 -3.4085 0.666251 0
M  V30 14859 C 1406.33 -3.92692 1.70225 0
M  V30 14860 C 1405.66 -5.21925 1.16183 0
M  V30 14861 C 1406.96 -4.20478 3.09831 0
M  V30 14862 H 1408.65 -2.23497 1.99222 0
M  V30 14863 H 1406.2 -1.07398 0.959255 0
M  V30 14864 H 1408.15 -4.1811 0.52552 0
M  V30 14865 H 1406.87 -3.2522 -0.299939 0
M  V30 14866 H 1405.53 -3.17588 1.83121 0
M  V30 14867 H 1405.18 -5.02655 0.186237 0
M  V30 14868 H 1404.88 -5.57579 1.85416 0
M  V30 14869 H 1406.41 -6.01795 1.03323 0
M  V30 14870 H 1407.82 -4.88442 3.00162 0
M  V30 14871 H 1406.22 -4.67362 3.7642 0
M  V30 14872 H 1407.29 -3.27235 3.57834 0
M  V30 14873 N 1408.63 -1.05812 -1.16797 0
M  V30 14874 C 1409.56 -0.685778 -2.23202 0
M  V30 14875 C 1410.54 0.319428 -1.67074 0
M  V30 14876 O 1411.73 0.195635 -1.93212 0
M  V30 14877 C 1408.86 -0.0662958 -3.47237 0
M  V30 14878 C 1407.81 -0.996943 -4.16227 0
M  V30 14879 C 1407.14 -0.241015 -5.34157 0
M  V30 14880 C 1408.44 -2.32384 -4.67755 0
M  V30 14881 H 1410.13 -1.57535 -2.54604 0
M  V30 14882 H 1407.68 -0.758909 -1.22379 0
M  V30 14883 H 1409.63 0.206024 -4.20896 0
M  V30 14884 H 1408.35 0.858263 -3.15121 0
M  V30 14885 H 1407.01 -1.25393 -3.44488 0
M  V30 14886 H 1406.66 0.686508 -4.98293 0
M  V30 14887 H 1406.36 -0.861188 -5.81255 0
M  V30 14888 H 1407.88 0.0238739 -6.10595 0
M  V30 14889 H 1409.3 -2.11099 -5.3302 0
M  V30 14890 H 1407.69 -2.89855 -5.25456 0
M  V30 14891 H 1408.76 -2.958 -3.84227 0
M  V30 14892 N 1410.11 1.33347 -0.840014 0
M  V30 14893 C 1411.35 1.98447 -0.446154 0
M  V30 14894 C 1411.71 1.65334 0.984 0
M  V30 14895 O 1411 0.923523 1.67874 0
M  V30 14896 C 1411.2 3.52239 -0.605173 0
M  V30 14897 C 1411.02 4.00295 -2.04923 0
M  V30 14898 C 1409.79 4.28079 -2.68471 0
M  V30 14899 C 1411.99 4.16431 -3.0181 0
M  V30 14900 N 1409.97 4.62283 -4.0394 0
M  V30 14901 C 1411.35 4.54008 -4.22229 0
M  V30 14902 C 1413.4 3.98724 -2.982 0
M  V30 14903 C 1412.1 4.75727 -5.39515 0
M  V30 14904 C 1414.13 4.21619 -4.14718 0
M  V30 14905 C 1413.49 4.59499 -5.33892 0
M  V30 14906 H 1409.59 0.752797 -0.211707 0
M  V30 14907 H 1412.17 1.61443 -1.08832 0
M  V30 14908 H 1410.35 3.88399 0.00719937 0
M  V30 14909 H 1412.08 4.04288 -0.182645 0
M  V30 14910 H 1408.83 4.1961 -2.196 0
M  V30 14911 H 1409.26 4.83594 -4.73779 0
M  V30 14912 H 1413.9 3.68553 -2.07193 0
M  V30 14913 H 1411.62 5.04759 -6.31066 0
M  V30 14914 H 1415.2 4.09437 -4.13343 0
M  V30 14915 H 1414.08 4.76863 -6.22553 0
M  V30 14916 N 1411.59 0.596556 1.45873 0
M  V30 14917 C 1412.52 -0.116229 2.33211 0
M  V30 14918 C 1413.5 -0.869868 1.46176 0
M  V30 14919 O 1414.68 -0.842599 1.74968 0
M  V30 14920 C 1411.81 -1.12145 3.28696 0
M  V30 14921 C 1410.77 -0.481749 4.2528 0
M  V30 14922 C 1410.09 -1.59443 5.10374 0
M  V30 14923 C 1411.39 0.589996 5.18957 0
M  V30 14924 H 1413.09 0.613005 2.93057 0
M  V30 14925 H 1410.63 0.296242 1.4092 0
M  V30 14926 H 1412.58 -1.62857 3.88659 0
M  V30 14927 H 1411.31 -1.88114 2.66985 0
M  V30 14928 H 1409.97 0.0044092 3.666 0
M  V30 14929 H 1409.62 -2.34413 4.45039 0
M  V30 14930 H 1409.32 -1.17197 5.75794 0
M  V30 14931 H 1410.84 -2.10404 5.73204 0
M  V30 14932 H 1412.25 0.167395 5.73056 0
M  V30 14933 H 1410.65 0.933565 5.92794 0
M  V30 14934 H 1411.72 1.47093 4.62052 0
M  V30 14935 N 1413.06 -1.53996 0.335095 0
M  V30 14936 C 1413.99 -2.2768 -0.518087 0
M  V30 14937 C 1414.97 -1.28915 -1.10972 0
M  V30 14938 O 1416.16 -1.57745 -1.1327 0
M  V30 14939 C 1413.29 -3.04327 -1.67339 0
M  V30 14940 C 1412.24 -4.10525 -1.2105 0
M  V30 14941 C 1411.57 -4.75078 -2.45366 0
M  V30 14942 C 1412.87 -5.21337 -0.317055 0
M  V30 14943 H 1414.56 -2.99244 0.0965669 0
M  V30 14944 H 1412.11 -1.4392 0.0478842 0
M  V30 14945 H 1414.06 -3.54608 -2.27664 0
M  V30 14946 H 1412.79 -2.30399 -2.31481 0
M  V30 14947 H 1411.45 -3.61144 -0.630124 0
M  V30 14948 H 1411.09 -3.97754 -3.07897 0
M  V30 14949 H 1410.79 -5.46822 -2.1508 0
M  V30 14950 H 1412.32 -5.2814 -3.06432 0
M  V30 14951 H 1413.73 -5.67305 -0.826905 0
M  V30 14952 H 1412.13 -6.00006 -0.106458 0
M  V30 14953 H 1413.2 -4.80536 0.649068 0
M  V30 14954 N 1414.54 -0.0635198 -1.57472 0
M  V30 14955 C 1415.77 0.615841 -1.97208 0
M  V30 14956 C 1416.18 1.64181 -0.940281 0
M  V30 14957 O 1415.52 1.83515 0.0824321 0
M  V30 14958 C 1415.58 1.34908 -3.33227 0
M  V30 14959 C 1415.25 0.477535 -4.54498 0
M  V30 14960 C 1416.25 -0.261479 -5.19242 0
M  V30 14961 C 1413.93 0.404839 -5.00666 0
M  V30 14962 C 1415.92 -1.0615 -6.28499 0
M  V30 14963 C 1413.61 -0.398859 -6.09797 0
M  V30 14964 C 1414.61 -1.1307 -6.73576 0
M  V30 14965 O 1414.3 -1.92116 -7.80607 0
M  V30 14966 H 1414.03 0.172273 -0.65368 0
M  V30 14967 H 1416.58 -0.129963 -2.04988 0
M  V30 14968 H 1414.81 2.14078 -3.22036 0
M  V30 14969 H 1416.5 1.91988 -3.57625 0
M  V30 14970 H 1417.27 -0.214859 -4.84524 0
M  V30 14971 H 1413.15 0.964087 -4.50806 0
M  V30 14972 H 1416.69 -1.63324 -6.78212 0
M  V30 14973 H 1412.59 -0.447073 -6.4395 0
M  V30 14974 H 1413.36 -1.84459 -7.97444 0
M  V30 14975 N 1416.02 1.56195 0.209972 0
M  V30 14976 C 1417.27 1.78941 0.930744 0
M  V30 14977 C 1417.58 0.634139 1.85035 0
M  V30 14978 O 1418.79 0.745524 2.61064 0
M  V30 14979 C 1417.24 3.16935 1.70529 0
M  V30 14980 C 1416.85 4.40221 0.83125 0
M  V30 14981 C 1418.6 3.49 2.41659 0
M  V30 14982 C 1416.5 5.69238 1.60381 0
M  V30 14983 H 1415.43 0.667176 0.351273 0
M  V30 14984 H 1418.08 1.82572 0.184341 0
M  V30 14985 H 1416.47 3.07513 2.49503 0
M  V30 14986 H 1417.64 4.60728 0.081227 0
M  V30 14987 H 1415.95 4.15756 0.231517 0
M  V30 14988 H 1418.55 4.42623 2.99982 0
M  V30 14989 H 1418.89 2.72042 3.15117 0
M  V30 14990 H 1419.43 3.59804 1.69665 0
M  V30 14991 H 1416.17 6.49121 0.912292 0
M  V30 14992 H 1415.69 5.52772 2.32815 0
M  V30 14993 H 1417.37 6.09827 2.16149 0
M  V30 14994 N 1417.5 -0.477127 1.50204 0
M  V30 14995 C 1418.74 -1.22964 1.60891 0
M  V30 14996 C 1419.07 -1.9207 0.306464 0
M  V30 14997 O 1418.33 -1.82472 -0.707272 0
M  V30 14998 C 1418.63 -2.30126 2.73453 0
M  V30 14999 C 1418.29 -1.78314 4.14143 0
M  V30 15000 C 1416.95 -1.63904 4.52425 0
M  V30 15001 C 1419.31 -1.3981 5.02098 0
M  V30 15002 C 1416.63 -1.09404 5.76409 0
M  V30 15003 C 1418.99 -0.867538 6.26623 0
M  V30 15004 C 1417.65 -0.710022 6.63713 0
M  V30 15005 H 1416.92 -0.449959 0.588743 0
M  V30 15006 H 1419.57 -0.526592 1.84118 0
M  V30 15007 H 1417.87 -3.06315 2.44291 0
M  V30 15008 H 1419.57 -2.88099 2.78927 0
M  V30 15009 H 1416.16 -1.90496 3.83939 0
M  V30 15010 H 1420.34 -1.49779 4.73159 0
M  V30 15011 H 1415.6 -0.959413 6.03825 0
M  V30 15012 H 1419.77 -0.560496 6.94141 0
M  V30 15013 H 1417.4 -0.285555 7.59663 0
M  V30 15014 N 1418.98 -1.3968 -0.729882 0
M  V30 15015 C 1420.22 -1.37182 -1.48954 0
M  V30 15016 C 1420.55 0.0305728 -1.94476 0
M  V30 15017 O 1419.81 1.0124 -1.67478 0
M  V30 15018 C 1420.11 -2.29499 -2.7398 0
M  V30 15019 C 1419.77 -3.77034 -2.47298 0
M  V30 15020 C 1418.43 -4.17232 -2.39731 0
M  V30 15021 C 1420.79 -4.70325 -2.24597 0
M  V30 15022 C 1418.11 -5.48777 -2.07511 0
M  V30 15023 C 1420.47 -6.02153 -1.93893 0
M  V30 15024 C 1419.13 -6.41409 -1.84798 0
M  V30 15025 H 1418.4 -0.501985 -0.545061 0
M  V30 15026 H 1421.05 -1.72226 -0.837294 0
M  V30 15027 H 1419.35 -1.87592 -3.43972 0
M  V30 15028 H 1421.05 -2.24857 -3.32024 0
M  V30 15029 H 1417.64 -3.45177 -2.54069 0
M  V30 15030 H 1421.82 -4.40097 -2.29408 0
M  V30 15031 H 1417.08 -5.78109 -1.98996 0
M  V30 15032 H 1421.25 -6.73966 -1.75337 0
M  V30 15033 H 1418.88 -7.43258 -1.59598 0
M  V30 15034 N 1420.45 0.960609 -1.2494 0
M  V30 15035 C 1421.68 1.7446 -1.12153 0
M  V30 15036 C 1422.1 1.85335 0.321315 0
M  V30 15037 O 1421.46 1.32944 1.23271 0
M  V30 15038 C 1421.51 3.13945 -1.774 0
M  V30 15039 O 1420.61 3.9882 -1.04958 0
M  V30 15040 H 1419.96 0.536007 -0.391909 0
M  V30 15041 H 1422.49 1.2045 -1.65388 0
M  V30 15042 H 1422.5 3.64434 -1.83444 0
M  V30 15043 H 1421.17 3.05346 -2.82377 0
M  V30 15044 H 1419.75 3.57293 -1.06752 0
M  V30 15045 N 1421.93 1.0643 1.16234 0
M  V30 15046 C 1423.16 0.802671 1.91238 0
M  V30 15047 C 1423.58 -0.637222 1.76978 0
M  V30 15048 O 1422.94 -1.44419 1.09603 0
M  V30 15049 C 1422.99 1.20389 3.3991 0
M  V30 15050 O 1422.09 0.343516 4.10967 0
M  V30 15051 H 1421.43 0.29323 0.595745 0
M  V30 15052 H 1423.96 1.42046 1.47255 0
M  V30 15053 H 1423.97 1.17604 3.90683 0
M  V30 15054 H 1422.65 2.2527 3.49608 0
M  V30 15055 H 1421.23 0.433051 3.70377 0
M  V30 15056 N 1423.41 -1.329 0.847073 0
M  V30 15057 C 1424.34 -2.31546 0.301422 0
M  V30 15058 C 1425.32 -1.59342 -0.595317 0
M  V30 15059 O 1426.51 -1.87188 -0.517151 0
M  V30 15060 C 1423.64 -3.43423 -0.517454 0
M  V30 15061 C 1422.59 -4.27055 0.284195 0
M  V30 15062 C 1421.92 -5.30624 -0.658944 0
M  V30 15063 C 1423.22 -5.00123 1.50578 0
M  V30 15064 H 1424.91 -2.77433 1.12567 0
M  V30 15065 H 1422.46 -1.3338 0.542739 0
M  V30 15066 H 1424.41 -4.11467 -0.909543 0
M  V30 15067 H 1423.13 -2.96246 -1.37499 0
M  V30 15068 H 1421.79 -3.60648 0.657944 0
M  V30 15069 H 1421.44 -4.79702 -1.51311 0
M  V30 15070 H 1421.14 -5.87464 -0.12662 0
M  V30 15071 H 1422.66 -6.01533 -1.04837 0
M  V30 15072 H 1424.08 -5.6089 1.18641 0
M  V30 15073 H 1422.48 -5.66652 1.97549 0
M  V30 15074 H 1423.55 -4.28424 2.27115 0
M  V30 15075 N 1424.89 -0.604284 -1.45555 0
M  V30 15076 C 1425.8 0.118409 -2.34301 0
M  V30 15077 C 1426.81 0.863807 -1.51044 0
M  V30 15078 O 1427.99 0.822138 -1.83856 0
M  V30 15079 C 1425.06 1.10538 -3.28606 0
M  V30 15080 C 1424.12 0.362301 -4.27768 0
M  V30 15081 C 1423.35 1.30226 -5.17568 0
M  V30 15082 O 1423.57 2.53991 -5.10729 0
M  V30 15083 O 1422.51 0.801116 -5.96545 0
M  V30 15084 H 1426.33 -0.610816 -2.97494 0
M  V30 15085 H 1423.92 -0.364562 -1.44884 0
M  V30 15086 H 1425.8 1.67392 -3.86727 0
M  V30 15087 H 1424.47 1.81569 -2.67982 0
M  V30 15088 H 1423.38 -0.248616 -3.73273 0
M  V30 15089 H 1424.71 -0.307454 -4.91239 0
M  V30 15090 N 1426.37 1.53816 -0.343257 0
M  V30 15091 C 1427.33 2.23654 0.501161 0
M  V30 15092 C 1428.33 1.23664 1.02781 0
M  V30 15093 O 1429.52 1.48104 0.917103 0
M  V30 15094 C 1426.65 2.95596 1.69812 0
M  V30 15095 H 1427.84 2.997 -0.109626 0
M  V30 15096 H 1425.4 1.56013 -0.0946011 0
M  V30 15097 H 1426.13 2.23736 2.34761 0
M  V30 15098 H 1425.92 3.68938 1.32768 0
M  V30 15099 H 1427.41 3.48748 2.29706 0
M  V30 15100 N 1427.84 0.0718701 1.57436 0
M  V30 15101 C 1429.07 -0.605374 1.97532 0
M  V30 15102 C 1429.48 -1.6368 0.948974 0
M  V30 15103 O 1428.83 -1.83556 -0.0726987 0
M  V30 15104 C 1428.89 -1.33139 3.33937 0
M  V30 15105 C 1428.55 -0.453426 4.54745 0
M  V30 15106 C 1429.55 0.289012 5.19096 0
M  V30 15107 C 1427.23 -0.378282 5.00874 0
M  V30 15108 C 1429.23 1.09482 6.27927 0
M  V30 15109 C 1426.91 0.431192 6.09577 0
M  V30 15110 C 1427.91 1.16641 6.72966 0
M  V30 15111 O 1427.6 1.96253 7.79577 0
M  V30 15112 H 1427.33 -0.168804 0.654585 0
M  V30 15113 H 1429.89 0.140832 2.04917 0
M  V30 15114 H 1428.12 -2.12367 3.23167 0
M  V30 15115 H 1429.81 -1.90089 3.58638 0
M  V30 15116 H 1430.57 0.240552 4.84403 0
M  V30 15117 H 1426.45 -0.940166 4.51311 0
M  V30 15118 H 1429.99 1.66918 6.77336 0
M  V30 15119 H 1425.89 0.481217 6.43704 0
M  V30 15120 H 1426.66 1.88686 7.96455 0
M  V30 15121 N 1429.32 -1.56304 -0.201686 0
M  V30 15122 C 1430.56 -1.82021 -0.929934 0
M  V30 15123 C 1430.93 -0.648382 -1.80721 0
M  V30 15124 O 1432.13 -0.785292 -2.57073 0
M  V30 15125 C 1430.4 -3.12731 -1.73014 0
M  V30 15126 S 1431.96 -3.59831 -2.51131 0
M  V30 15127 H 1428.78 -0.638874 -0.312027 0
M  V30 15128 H 1431.38 -1.94536 -0.193861 0
M  V30 15129 H 1430.08 -3.96039 -1.07616 0
M  V30 15130 H 1429.61 -3.03076 -2.50816 0
M  V30 15131 H 1431.63 -3.24744 -3.75174 0
M  V30 15132 N 1430.8 0.469154 -1.50455 0
M  V30 15133 C 1431.75 1.56456 -1.65848 0
M  V30 15134 C 1432.73 1.52501 -0.513048 0
M  V30 15135 O 1433.93 1.59492 -0.767542 0
M  V30 15136 C 1431.06 2.94887 -1.75774 0
M  V30 15137 C 1430.14 3.03719 -2.96 0
M  V30 15138 N 1430.53 2.8236 -4.1965 0
M  V30 15139 C 1428.83 3.34856 -2.94597 0
M  V30 15140 C 1429.53 2.96208 -5.00635 0
M  V30 15141 N 1428.51 3.26494 -4.3463 0
M  V30 15142 H 1432.31 1.38646 -2.59142 0
M  V30 15143 H 1429.82 0.675918 -1.47666 0
M  V30 15144 H 1431.82 3.73652 -1.84905 0
M  V30 15145 H 1430.48 3.13743 -0.836396 0
M  V30 15146 H 1431.49 2.57904 -4.49117 0
M  V30 15147 H 1428.17 3.59687 -2.1197 0
M  V30 15148 H 1429.56 2.83918 -6.08966 0
M  V30 15149 N 1432.28 1.40065 0.722464 0
M  V30 15150 C 1433.53 1.37277 1.47776 0
M  V30 15151 C 1433.84 -0.0242852 1.95585 0
M  V30 15152 O 1435.05 -0.174769 2.70937 0
M  V30 15153 C 1433.5 2.41233 2.67085 0
M  V30 15154 C 1433.11 3.86716 2.26174 0
M  V30 15155 C 1434.85 2.47541 3.44853 0
M  V30 15156 C 1432.76 4.82284 3.42281 0
M  V30 15157 H 1431.69 0.510405 0.55498 0
M  V30 15158 H 1434.34 1.6577 0.786928 0
M  V30 15159 H 1432.72 2.0583 3.38305 0
M  V30 15160 H 1433.9 4.31227 1.6242 0
M  V30 15161 H 1432.21 3.83819 1.61468 0
M  V30 15162 H 1434.81 3.16131 4.31237 0
M  V30 15163 H 1435.15 1.50379 3.8819 0
M  V30 15164 H 1435.69 2.81901 2.80672 0
M  V30 15165 H 1432.43 5.80754 3.03982 0
M  V30 15166 H 1431.95 4.42443 4.04975 0
M  V30 15167 H 1433.62 5.0178 4.08443 0
M  V30 15168 N 1433.76 -0.95397 1.25448 0
M  V30 15169 C 1434.7 -2.05075 1.0589 0
M  V30 15170 C 1435.67 -1.66069 -0.0321545 0
M  V30 15171 O 1436.86 -1.90389 0.125152 0
M  V30 15172 C 1434 -3.38246 0.684391 0
M  V30 15173 C 1433.11 -3.90366 1.85037 0
M  V30 15174 C 1432.25 -5.11864 1.42016 0
M  V30 15175 C 1431.29 -5.56214 2.55523 0
M  V30 15176 N 1430.42 -6.68924 2.13272 0
M  V30 15177 H 1435.26 -2.21137 1.99755 0
M  V30 15178 H 1432.8 -1.08366 0.994742 0
M  V30 15179 H 1434.76 -4.14785 0.448209 0
M  V30 15180 H 1433.39 -3.22068 -0.217273 0
M  V30 15181 H 1432.44 -3.1034 2.19984 0
M  V30 15182 H 1433.75 -4.19228 2.70276 0
M  V30 15183 H 1432.91 -5.95823 1.14366 0
M  V30 15184 H 1431.65 -4.84718 0.538492 0
M  V30 15185 H 1430.65 -4.7082 2.83916 0
M  V30 15186 H 1431.88 -5.85368 3.44268 0
M  V30 15187 H 1429.82 -6.43486 1.27523 0
M  V30 15188 H 1429.74 -6.97307 2.92059 0
M  V30 15189 H 1431.01 -7.5629 1.88801 0
M  V30 15190 N 1435.24 -1.07045 -1.15668 0
M  V30 15191 C 1436.48 -0.790172 -1.86013 0
M  V30 15192 C 1436.8 0.685663 -1.82548 0
M  V30 15193 O 1436.07 1.49644 -1.26426 0
M  V30 15194 H 1434.65 -0.28931 -0.688701 0
M  V30 15195 H 1437.32 -1.35354 -1.40233 0
M  V30 15196 H 1436.41 -1.1219 -2.91239 0
M  V30 15197 N 1436.71 1.32449 -0.85411 0
M  V30 15198 C 1437.96 1.97271 -0.457223 0
M  V30 15199 C 1438.29 1.67595 0.987031 0
M  V30 15200 O 1437.54 0.956301 1.70744 0
M  V30 15201 C 1437.84 3.51577 -0.642499 0
M  V30 15202 C 1437.51 4.01239 -2.05714 0
M  V30 15203 C 1436.17 4.14512 -2.44405 0
M  V30 15204 C 1438.52 4.27573 -2.98046 0
M  V30 15205 C 1435.85 4.5146 -3.74701 0
M  V30 15206 C 1438.2 4.65979 -4.27839 0
M  V30 15207 C 1436.87 4.77458 -4.66465 0
M  V30 15208 H 1436.14 0.721865 -0.16731 0
M  V30 15209 H 1438.78 1.57862 -1.08406 0
M  V30 15210 H 1437.09 3.91742 0.0675706 0
M  V30 15211 H 1438.79 3.99757 -0.315473 0
M  V30 15212 H 1435.38 3.91393 -1.74669 0
M  V30 15213 H 1439.56 4.16827 -2.69386 0
M  V30 15214 H 1434.82 4.58542 -4.04412 0
M  V30 15215 H 1438.99 4.8531 -4.99447 0
M  V30 15216 H 1436.62 5.05845 -5.67472 0
M  V30 15217 O 1438.23 0.752282 1.42909 0
M  V30 15218 H 1438.92 0.30965 1.91209 0
M  V30 END ATOM
M  V30 BEGIN BOND
M  V30 END BOND
M  V30 END CTAB
M  END
$$$$
