drugbank_target|Q9UKM7 Endoplasmic reticulum mannosyl-oligosaccharide 1,2-alpha-mannosidase (DB01955; DB02422; DB02742; DB03206)
 OpenBabel12092119533D

  0  0  0     0  0            999 V3000
M  V30 BEGIN CTAB
M  V30 COUNTS 11182 11348 0 0 0
M  V30 BEGIN ATOM
M  V30 1 H -0.908 1.98254 -0.117106 0
M  V30 2 N 0 1.576 0 0
M  V30 3 C 0.933 2.03868 1.02534 0
M  V30 4 C 1.911 0.928543 1.3348 0
M  V30 5 O 3.095 1.19667 1.45644 0
M  V30 6 C 0.222 2.43627 2.35294 0
M  V30 7 C -0.732 3.65373 2.2001 0
M  V30 8 S 0.101 5.13292 1.52614 0
M  V30 9 C 1.257 5.56322 2.86805 0
M  V30 10 H 1.49 2.90518 0.631377 0
M  V30 11 H -0.977 1.52953 0.210867 0
M  V30 12 H 0.981 2.67203 3.11629 0
M  V30 13 H -0.358 1.57376 2.7183 0
M  V30 14 H -1.165 3.90944 3.18086 0
M  V30 15 H -1.563 3.418 1.51819 0
M  V30 16 H 0.729 5.58782 3.83104 0
M  V30 17 H 1.672 6.56266 2.65933 0
M  V30 18 H 2.08 4.83886 2.90714 0
M  V30 19 N 1.4781 -0.272755 1.55222 0
M  V30 20 C 2.4411 -1.32041 1.87344 0
M  V30 21 C 3.4411 -1.42342 0.74803 0
M  V30 22 O 4.6311 -1.41488 1.0162 0
M  V30 23 C 1.7631 -2.70173 2.07893 0
M  V30 24 H 2.9561 -1.04789 2.80997 0
M  V30 25 H 0.5091 -0.51083 1.47717 0
M  V30 26 H 1.2441 -3.02605 1.16622 0
M  V30 27 H 1.0291 -2.64082 2.89833 0
M  V30 28 H 2.5191 -3.45869 2.34017 0
M  V30 29 N 2.9562 -1.48159 -0.537278 0
M  V30 30 C 3.9192 -1.61665 -1.62472 0
M  V30 31 C 4.9192 -0.490395 -1.5314 0
M  V30 32 O 6.1092 -0.755998 -1.5694 0
M  V30 33 C 3.2412 -1.57997 -3.02076 0
M  V30 34 H 4.4342 -2.58621 -1.51839 0
M  V30 35 H 1.9872 -1.36647 -0.758771 0
M  V30 36 H 2.7222 -0.624913 -3.18222 0
M  V30 37 H 2.5072 -2.39755 -3.10258 0
M  V30 38 H 3.9972 -1.70627 -3.81151 0
M  V30 39 N 4.4343 0.785586 -1.36625 0
M  V30 40 C 5.6743 1.55678 -1.32453 0
M  V30 41 C 6.0383 1.91769 0.0941089 0
M  V30 42 O 7.2393 2.67536 0.26042 0
M  V30 43 C 5.5103 2.79701 -2.22491 0
M  V30 44 S 7.0693 3.69907 -2.36038 0
M  V30 45 H 3.8873 0.533141 -0.470405 0
M  V30 46 H 6.4893 0.924953 -1.72235 0
M  V30 47 H 5.1933 2.51244 -3.24507 0
M  V30 48 H 4.7243 3.47854 -1.83742 0
M  V30 49 H 6.7393 4.71016 -1.56072 0
M  V30 50 N 5.9124 1.20967 1.01018 0
M  V30 51 C 6.8224 0.980157 2.13143 0
M  V30 52 C 7.8384 -0.0660665 1.73875 0
M  V30 53 O 9.0144 0.122821 2.01025 0
M  V30 54 C 6.0794 0.54216 3.42435 0
M  V30 55 C 5.1404 1.65999 3.95908 0
M  V30 56 C 4.3734 1.2428 5.19028 0
M  V30 57 O 4.5964 0.114196 5.70286 0
M  V30 58 O 3.5304 2.05271 5.65816 0
M  V30 59 H 7.3564 1.91913 2.35379 0
M  V30 60 H 4.9414 0.994099 1.11526 0
M  V30 61 H 6.8234 0.30744 4.20277 0
M  V30 62 H 5.4984 -0.36815 3.216 0
M  V30 63 H 4.4054 1.94906 3.19316 0
M  V30 64 H 5.7384 2.54753 4.21143 0
M  V30 65 N 7.3905 -1.2043 1.01659 0
M  V30 66 C 8.6385 -1.89423 0.704522 0
M  V30 67 C 8.9595 -1.79231 -0.768197 0
M  V30 68 O 8.2295 -1.1947 -1.55254 0
M  V30 69 H 6.8095 -0.701178 0.257602 0
M  V30 70 H 9.4715 -1.4626 1.28818 0
M  V30 71 H 8.5675 -2.96052 0.987916 0
M  V30 72 N 8.8686 -0.792821 -1.36206 0
M  V30 73 C 10.2846 -0.474903 -1.52371 0
M  V30 74 C 10.4846 1.00622 -1.74578 0
M  V30 75 O 9.5406 1.79162 -1.77924 0
M  V30 76 C 10.8536 -1.3083 -2.70747 0
M  V30 77 C 12.4016 -1.30234 -2.84619 0
M  V30 78 C 12.8766 -2.11956 -4.06004 0
M  V30 79 N 14.3676 -2.09419 -4.13156 0
M  V30 80 C 15.1026 -2.69419 -5.06163 0
M  V30 81 N 14.5986 -3.3829 -6.04592 0
M  V30 82 N 16.3916 -2.59134 -4.98804 0
M  V30 83 H 8.5426 -1.75222 -1.20046 0
M  V30 84 H 10.8056 -0.745024 -0.586211 0
M  V30 85 H 10.5116 -2.35881 -2.6087 0
M  V30 86 H 10.3856 -0.95196 -3.6499 0
M  V30 87 H 12.7726 -0.259748 -2.93955 0
M  V30 88 H 12.8536 -1.69847 -1.91274 0
M  V30 89 H 12.4976 -3.16248 -3.97429 0
M  V30 90 H 12.4276 -1.69711 -4.98503 0
M  V30 91 H 14.9186 -1.59297 -3.42685 0
M  V30 92 H 15.2316 -3.81394 -6.7213 0
M  V30 93 H 13.5766 -3.42393 -6.04807 0
M  V30 94 H 16.7676 -2.04927 -4.20859 0
M  V30 95 H 16.9406 -3.06185 -5.711 0
M  V30 96 N 10.3467 1.47872 -0.545128 0
M  V30 97 C 11.7627 1.5829 -0.204032 0
M  V30 98 C 11.9627 1.54529 1.29317 0
M  V30 99 O 11.0187 1.44232 2.07252 0
M  V30 100 C 12.3317 2.89304 -0.819987 0
M  V30 101 C 13.8797 3.02864 -0.790105 0
M  V30 102 C 14.3547 4.3656 -1.38491 0
M  V30 103 N 15.8457 4.43165 -1.34755 0
M  V30 104 C 16.5807 5.45153 -1.77753 0
M  V30 105 N 16.0767 6.54016 -2.2855 0
M  V30 106 N 17.8697 5.36125 -1.68897 0
M  V30 107 H 10.0207 1.4856 -1.51802 0
M  V30 108 H 12.2837 0.706305 -0.632327 0
M  V30 109 H 11.9897 2.97757 -1.87173 0
M  V30 110 H 11.8637 3.75957 -0.305915 0
M  V30 111 H 14.2507 2.94014 0.252913 0
M  V30 112 H 14.3317 2.17782 -1.34181 0
M  V30 113 H 13.9757 4.46164 -2.42693 0
M  V30 114 H 13.9057 5.20353 -0.808754 0
M  V30 115 H 16.3967 3.65083 -0.975855 0
M  V30 116 H 16.7097 7.27994 -2.59314 0
M  V30 117 H 15.0547 6.54938 -2.32553 0
M  V30 118 H 18.2457 4.49975 -1.28998 0
M  V30 119 H 18.4187 6.15472 -2.02726 0
M  V30 120 N 11.8248 0.280983 1.55075 0
M  V30 121 C 13.0498 -0.340154 2.04592 0
M  V30 122 C 13.4748 -1.48246 1.15779 0
M  V30 123 O 12.8328 -1.80614 0.15761 0
M  V30 124 C 12.8808 -0.793104 3.5177 0
M  V30 125 O 11.9848 -1.89981 3.66034 0
M  V30 126 H 11.3258 -0.0694289 0.66036 0
M  V30 127 H 13.8558 0.416993 2.00306 0
M  V30 128 H 13.8658 -1.08729 3.93245 0
M  V30 129 H 12.5408 0.0426163 4.15878 0
M  V30 130 H 11.1178 -1.60771 3.36463 0
M  V30 131 N 13.3029 -1.57598 0.00835791 0
M  V30 132 C 14.5509 -1.90551 -0.6734 0
M  V30 133 C 14.8719 -0.883301 -1.73847 0
M  V30 134 O 14.1419 0.0781442 -1.95744 0
M  V30 135 H 12.7219 -0.703312 -0.251717 0
M  V30 136 H 15.3839 -1.94833 0.0512592 0
M  V30 137 H 14.4799 -2.9056 -1.13935 0
M  V30 138 N 14.781 0.264519 -1.55364 0
M  V30 139 C 15.744 1.31046 -1.88042 0
M  V30 140 C 16.744 1.41943 -0.755569 0
M  V30 141 O 17.934 1.40947 -1.02369 0
M  V30 142 C 15.066 2.69067 -2.09323 0
M  V30 143 H 16.259 1.03297 -2.81549 0
M  V30 144 H 13.812 0.502989 -1.47986 0
M  V30 145 H 14.547 3.01982 -1.18226 0
M  V30 146 H 14.332 2.62542 -2.91229 0
M  V30 147 H 15.822 3.44623 -2.35848 0
M  V30 148 N 16.2591 1.48442 0.529413 0
M  V30 149 C 17.1891 1.65902 1.64313 0
M  V30 150 C 18.1701 0.507897 1.6234 0
M  V30 151 O 19.3551 0.740503 1.79528 0
M  V30 152 C 16.4851 1.69911 3.02898 0
M  V30 153 C 15.4391 2.8453 3.19729 0
M  V30 154 C 14.7651 2.73629 4.59381 0
M  V30 155 C 16.0651 4.25821 3.02447 0
M  V30 156 H 17.7591 2.5914 1.49955 0
M  V30 157 H 15.3051 1.24709 0.719982 0
M  V30 158 H 17.2581 1.80715 3.80684 0
M  V30 159 H 15.9821 0.732524 3.18279 0
M  V30 160 H 14.6411 2.73283 2.44361 0
M  V30 161 H 14.2891 1.74938 4.71599 0
M  V30 162 H 13.9891 3.50541 4.71588 0
M  V30 163 H 15.5131 2.86401 5.39265 0
M  V30 164 H 16.9271 4.37898 3.70024 0
M  V30 165 H 15.3241 5.03735 3.26146 0
M  V30 166 H 16.3941 4.42244 1.98867 0
M  V30 167 N 17.7372 -0.778329 1.37039 0
M  V30 168 C 18.9852 -1.53361 1.31623 0
M  V30 169 C 19.3062 -1.94739 -0.100831 0
M  V30 170 O 18.5762 -1.65797 -1.04347 0
M  V30 171 H 17.1562 -0.568794 0.484234 0
M  V30 172 H 19.8182 -0.926742 1.71457 0
M  V30 173 H 18.9142 -2.43606 1.95096 0
M  V30 174 N 19.2153 -1.21501 -1.00376 0
M  V30 175 C 20.4403 -1.05977 -1.78279 0
M  V30 176 C 20.8653 0.385994 -1.84097 0
M  V30 177 O 20.2233 1.27849 -1.28547 0
M  V30 178 C 20.2713 -1.66302 -3.19963 0
M  V30 179 O 19.3753 -0.909333 -4.0225 0
M  V30 180 H 18.7163 -0.372906 -0.549397 0
M  V30 181 H 21.2463 -1.6107 -1.26165 0
M  V30 182 H 21.2563 -1.70574 -3.70632 0
M  V30 183 H 19.9313 -2.71515 -3.15043 0
M  V30 184 H 18.5083 -0.941795 -3.60811 0
M  V30 185 N 20.6934 1.19889 -1.02296 0
M  V30 186 C 21.9184 1.9393 -0.735237 0
M  V30 187 C 22.3434 1.74639 0.698782 0
M  V30 188 O 21.7014 1.04481 1.48167 0
M  V30 189 C 21.7494 3.43916 -1.08417 0
M  V30 190 O 20.8534 4.11917 -0.199446 0
M  V30 191 H 20.1944 0.605645 -0.272196 0
M  V30 192 H 22.7244 1.52137 -1.36804 0
M  V30 193 H 22.7344 3.9456 -1.03856 0
M  V30 194 H 21.4094 3.5728 -2.12894 0
M  V30 195 H 19.9864 3.71666 -0.303136 0
M  V30 196 N 22.1715 0.800033 1.35784 0
M  V30 197 C 23.1035 0.163596 2.28615 0
M  V30 198 C 24.1165 -0.633317 1.49976 0
M  V30 199 O 25.3055 -0.466754 1.72289 0
M  V30 200 C 22.4055 -0.790958 3.29541 0
M  V30 201 C 21.5785 -0.0418255 4.3738 0
M  V30 202 C 20.6375 -0.91389 5.18203 0
M  V30 203 O 19.6635 -0.367234 5.68014 0
M  V30 204 N 20.8655 -2.23682 5.35674 0
M  V30 205 H 23.6305 0.96105 2.83873 0
M  V30 206 H 21.1915 0.654894 1.48063 0
M  V30 207 H 23.1835 -1.37844 3.80501 0
M  V30 208 H 21.7535 -1.48925 2.74846 0
M  V30 209 H 20.9735 0.726813 3.87442 0
M  V30 210 H 22.2615 0.474719 5.06581 0
M  V30 211 H 21.6595 -2.70497 4.96838 0
M  V30 212 H 20.2165 -2.77369 5.89839 0
M  V30 213 N 23.6496 -1.47581 0.552962 0
M  V30 214 C 24.8746 -2.07378 0.0300593 0
M  V30 215 C 25.2996 -1.40355 -1.25229 0
M  V30 216 O 24.6576 -0.477099 -1.7491 0
M  V30 217 C 24.7056 -3.60274 -0.153231 0
M  V30 218 O 23.8096 -3.94041 -1.21678 0
M  V30 219 H 23.1506 -0.662158 0.0494182 0
M  V30 220 H 25.6806 -1.89662 0.767434 0
M  V30 221 H 25.6906 -4.0633 -0.368761 0
M  V30 222 H 24.3656 -4.08455 0.783397 0
M  V30 223 H 22.9426 -3.59735 -0.982079 0
M  V30 224 N 25.1277 -0.289203 -1.54924 0
M  V30 225 C 26.4047 0.376032 -1.91951 0
M  V30 226 C 26.7847 1.72622 -1.21511 0
M  V30 227 O 26.1327 2.25853 -0.346767 0
M  V30 228 C 26.3427 0.502378 -3.45365 0
M  V30 229 C 27.6907 0.778741 -4.17398 0
M  V30 230 O 28.7147 0.586647 -3.51336 0
M  V30 231 O 27.5737 1.14698 -5.34328 0
M  V30 232 H 24.6677 0.208167 -0.800372 0
M  V30 233 H 27.2137 -0.336394 -1.66332 0
M  V30 234 H 25.9857 -0.447255 -3.88736 0
M  V30 235 H 25.6087 1.26373 -3.76982 0
M  V30 236 N 26.6058 1.57591 -0.0167156 0
M  V30 237 C 27.8528 1.91283 0.664597 0
M  V30 238 C 28.1808 0.891949 1.72842 0
M  V30 239 O 27.4358 -0.100931 1.9544 0
M  V30 240 C 27.7348 3.3172 1.33029 0
M  V30 241 C 27.4008 4.4914 0.398047 0
M  V30 242 C 26.0628 4.80992 0.141421 0
M  V30 243 C 28.4148 5.20634 -0.242825 0
M  V30 244 C 25.7428 5.81703 -0.764092 0
M  V30 245 C 28.0948 6.22311 -1.13632 0
M  V30 246 C 26.7588 6.52611 -1.40196 0
M  V30 247 H 26.0288 0.699956 0.243193 0
M  V30 248 H 28.6758 1.9135 -0.0758267 0
M  V30 249 H 26.9808 3.27856 2.14517 0
M  V30 250 H 28.6778 3.55055 1.86379 0
M  V30 251 H 25.2678 4.24262 0.608238 0
M  V30 252 H 29.4518 4.96267 -0.0576019 0
M  V30 253 H 24.7078 6.03532 -0.977732 0
M  V30 254 H 28.8818 6.76834 -1.63917 0
M  V30 255 H 26.5088 7.30467 -2.10529 0
M  V30 256 N 28.0839 -0.256276 1.55502 0
M  V30 257 C 29.0139 -1.32102 1.92539 0
M  V30 258 C 29.9949 -1.50684 0.789194 0
M  V30 259 O 31.1799 -1.63449 1.04872 0
M  V30 260 C 28.3099 -2.67752 2.21192 0
M  V30 261 C 27.2639 -2.63878 3.36975 0
M  V30 262 C 26.5899 -4.03236 3.51147 0
M  V30 263 C 27.8899 -2.21682 4.72921 0
M  V30 264 H 29.5839 -1.01351 2.81724 0
M  V30 265 H 27.1299 -0.486105 1.35547 0
M  V30 266 H 29.0829 -3.42365 2.45691 0
M  V30 267 H 27.8069 -3.0012 1.28824 0
M  V30 268 H 26.4659 -1.91722 3.12471 0
M  V30 269 H 26.1139 -4.32854 2.56216 0
M  V30 270 H 25.8139 -4.01535 4.29003 0
M  V30 271 H 27.3379 -4.79563 3.77957 0
M  V30 272 H 28.7519 -2.86023 4.96854 0
M  V30 273 H 27.1489 -2.3111 5.53812 0
M  V30 274 H 28.2189 -1.16833 4.70615 0
M  V30 275 N 29.562 -1.4872 -0.521534 0
M  V30 276 C 30.79 -1.60843 -1.30142 0
M  V30 277 C 31.205 -0.271897 -1.86832 0
M  V30 278 O 30.562 0.739969 -1.66825 0
M  V30 279 C 30.613 -2.66155 -2.4463 0
M  V30 280 O 30.334 -3.94623 -1.90275 0
M  V30 281 C 31.835 -2.88795 -3.36322 0
M  V30 282 H 29.055 -0.542075 -0.395468 0
M  V30 283 H 31.599 -1.94609 -0.628285 0
M  V30 284 H 29.754 -2.35224 -3.07812 0
M  V30 285 H 30.168 -4.52468 -2.65279 0
M  V30 286 H 31.642 -3.66264 -4.12983 0
M  V30 287 H 32.119 -1.97934 -3.9207 0
M  V30 288 H 32.725 -3.21063 -2.78924 0
M  V30 289 N 31.0401 0.771051 -1.3745 0
M  V30 290 C 32.4511 1.34737 -1.29239 0
M  V30 291 C 32.8021 1.96109 0.0596908 0
M  V30 292 O 31.9271 1.93865 0.961534 0
M  V30 293 C 32.5221 2.44973 -2.34037 0
M  V30 294 C 31.0811 2.98372 -2.29458 0
M  V30 295 C 30.2281 1.71595 -2.17831 0
M  V30 296 H 33.1791 0.571256 -1.48062 0
M  V30 297 H 33.2001 3.24471 -1.98744 0
M  V30 298 H 32.7121 2.00276 -3.32432 0
M  V30 299 H 30.8131 3.47443 -1.34589 0
M  V30 300 H 30.9261 3.53939 -3.229 0
M  V30 301 H 29.2901 1.94547 -1.64388 0
M  V30 302 H 30.0731 1.29001 -3.18141 0
M  V30 303 N 32.5182 1.22032 0.997298 0
M  V30 304 C 33.9292 1.0397 1.55071 0
M  V30 305 C 34.2802 -0.398192 1.92117 0
M  V30 306 O 33.4052 -1.28254 1.74298 0
M  V30 307 C 34.0002 1.88109 2.81781 0
M  V30 308 C 32.5592 1.74357 3.33581 0
M  V30 309 C 31.7062 1.84846 2.06706 0
M  V30 310 H 34.6572 1.35941 0.818883 0
M  V30 311 H 34.6782 1.39589 3.53971 0
M  V30 312 H 34.1902 2.92754 2.54787 0
M  V30 313 H 32.2912 0.72427 3.65493 0
M  V30 314 H 32.4042 2.56772 4.04481 0
M  V30 315 H 30.7682 1.28238 2.20062 0
M  V30 316 H 31.5512 2.91014 1.82114 0
M  V30 317 N 33.9963 -1.19345 1.0293 0
M  V30 318 C 35.2423 -1.89318 0.727083 0
M  V30 319 C 35.5753 -1.79446 -0.742483 0
M  V30 320 O 34.8503 -1.1871 -1.54072 0
M  V30 321 C 35.1333 -3.40238 1.17942 0
M  V30 322 C 34.9863 -3.58979 2.71024 0
M  V30 323 C 36.3053 -4.33479 0.760548 0
M  V30 324 H 33.4243 -0.687475 0.265606 0
M  V30 325 H 36.0663 -1.40477 1.2793 0
M  V30 326 H 34.2163 -3.81964 0.709608 0
M  V30 327 H 35.8883 -3.26421 3.25955 0
M  V30 328 H 34.1313 -3.02018 3.11396 0
M  V30 329 H 34.8023 -4.64823 2.9773 0
M  V30 330 H 37.2783 -3.99469 1.16464 0
M  V30 331 H 36.1543 -5.37664 1.10493 0
M  V30 332 H 36.4153 -4.40813 -0.337063 0
M  V30 333 N 35.4744 -0.807222 -1.35358 0
M  V30 334 C 36.7224 -0.387122 -1.98358 0
M  V30 335 C 37.0434 1.04942 -1.64354 0
M  V30 336 O 36.3134 1.72615 -0.926339 0
M  V30 337 H 34.8934 -0.140154 -0.733734 0
M  V30 338 H 37.5554 -1.0332 -1.6526 0
M  V30 339 H 36.6514 -0.493352 -3.08176 0
M  V30 340 N 36.9525 1.47285 -0.560781 0
M  V30 341 C 38.2005 2.02064 -0.0379868 0
M  V30 342 C 38.5215 1.43711 1.31803 0
M  V30 343 O 37.7915 0.61362 1.86042 0
M  V30 344 H 36.3715 0.746918 -0.0110531 0
M  V30 345 H 39.0335 1.80648 -0.731598 0
M  V30 346 H 38.1295 3.12064 0.0474463 0
M  V30 347 N 38.4306 0.297415 1.54768 0
M  V30 348 C 39.3936 -0.567375 2.22066 0
M  V30 349 C 40.3936 -1.06409 1.20556 0
M  V30 350 O 41.5836 -0.960691 1.45315 0
M  V30 351 C 38.7156 -1.78517 2.90421 0
M  V30 352 H 39.9086 0.0205534 2.99893 0
M  V30 353 H 37.4616 0.0482163 1.56226 0
M  V30 354 H 38.1966 -2.41303 2.16664 0
M  V30 355 H 37.9816 -1.43669 3.64831 0
M  V30 356 H 39.4716 -2.39964 3.41771 0
M  V30 357 N 39.9087 -1.5758 0.0250728 0
M  V30 358 C 41.3197 -1.79476 -0.514323 0
M  V30 359 C 41.6707 -0.934956 -1.72491 0
M  V30 360 O 40.7957 -0.144245 -2.15919 0
M  V30 361 C 41.3907 -3.25503 -0.939842 0
M  V30 362 C 39.9497 -3.48408 -1.42438 0
M  V30 363 C 39.0967 -2.74583 -0.387201 0
M  V30 364 H 42.0477 -1.567 0.25113 0
M  V30 365 H 42.0687 -3.34992 -1.80445 0
M  V30 366 H 41.5807 -3.88056 -0.0585628 0
M  V30 367 H 39.6817 -2.91103 -2.32572 0
M  V30 368 H 39.7947 -4.57119 -1.43455 0
M  V30 369 H 38.1587 -2.39942 -0.854409 0
M  V30 370 H 38.9417 -3.39849 0.485543 0
M  V30 371 N 41.3868 0.248026 -1.55636 0
M  V30 372 C 42.6328 0.973427 -1.78594 0
M  V30 373 C 42.9878 1.83007 -0.593823 0
M  V30 374 O 42.2808 1.87097 0.412961 0
M  V30 375 C 42.4748 1.86819 -3.04686 0
M  V30 376 C 42.3038 1.09965 -4.36048 0
M  V30 377 C 41.0738 0.805204 -4.98843 0
M  V30 378 C 43.2718 0.477783 -5.12076 0
M  V30 379 N 41.2538 0.0124859 -6.13899 0
M  V30 380 C 42.6248 -0.179565 -6.1974 0
M  V30 381 C 44.6798 0.388136 -4.96385 0
M  V30 382 C 43.3828 -0.91795 -7.13419 0
M  V30 383 C 45.4088 -0.336716 -5.90441 0
M  V30 384 C 44.7708 -0.982705 -6.97511 0
M  V30 385 H 40.8698 0.337348 -0.705493 0
M  V30 386 H 43.4538 0.24667 -1.93131 0
M  V30 387 H 41.6248 2.56698 -2.9148 0
M  V30 388 H 43.3568 2.52907 -3.15944 0
M  V30 389 H 40.1118 1.11671 -4.60246 0
M  V30 390 H 40.5358 -0.371933 -6.75978 0
M  V30 391 H 45.1778 0.873237 -4.13684 0
M  V30 392 H 42.8958 -1.41466 -7.95621 0
M  V30 393 H 46.4818 -0.406731 -5.80377 0
M  V30 394 H 45.3618 -1.53464 -7.69037 0
M  V30 395 N 42.8649 1.48995 0.513639 0
M  V30 396 C 43.8279 1.64229 1.59879 0
M  V30 397 C 44.8279 0.514696 1.5234 0
M  V30 398 O 46.0179 0.78087 1.55718 0
M  V30 399 C 43.1499 1.62783 2.99524 0
M  V30 400 H 44.3429 2.61004 1.47705 0
M  V30 401 H 41.8959 1.37837 0.736936 0
M  V30 402 H 42.6309 0.675461 3.17188 0
M  V30 403 H 42.4159 2.4466 3.06404 0
M  V30 404 H 43.9059 1.76669 3.78388 0
M  V30 405 N 44.343 -0.763751 1.37857 0
M  V30 406 C 45.589 -1.52483 1.33704 0
M  V30 407 C 45.922 -1.94051 -0.0759612 0
M  V30 408 O 45.197 -1.64675 -1.03501 0
M  V30 409 C 45.48 -2.78441 2.28348 0
M  V30 410 C 45.333 -2.43075 3.78463 0
M  V30 411 C 46.652 -3.80415 2.21298 0
M  V30 412 H 43.771 -0.553169 0.487005 0
M  V30 413 H 46.413 -0.875562 1.68624 0
M  V30 414 H 44.563 -3.33842 1.987 0
M  V30 415 H 46.235 -1.93527 4.18742 0
M  V30 416 H 44.478 -1.75666 3.96641 0
M  V30 417 H 45.149 -3.33149 4.40132 0
M  V30 418 H 47.625 -3.34527 2.47449 0
M  V30 419 H 46.501 -4.66257 2.89647 0
M  V30 420 H 46.762 -4.25262 1.20849 0
M  V30 421 N 45.8211 -1.22559 -0.990812 0
M  V30 422 C 46.7841 -0.998863 -2.0629 0
M  V30 423 C 47.7841 0.0354834 -1.60761 0
M  V30 424 O 48.9741 -0.203231 -1.7301 0
M  V30 425 C 46.1061 -0.509203 -3.37076 0
M  V30 426 H 47.2991 -1.95014 -2.27837 0
M  V30 427 H 44.8521 -1.04456 -1.16269 0
M  V30 428 H 45.5871 0.446335 -3.21214 0
M  V30 429 H 45.3721 -1.25547 -3.71457 0
M  V30 430 H 46.8621 -0.370888 -4.1595 0
M  V30 431 N 47.2992 1.18797 -1.03562 0
M  V30 432 C 48.5272 1.92599 -0.755869 0
M  V30 433 C 48.9422 1.75886 0.686271 0
M  V30 434 O 48.2992 1.08517 1.46732 0
M  V30 435 C 48.3502 3.44159 -1.10619 0
M  V30 436 O 48.0712 3.60341 -2.4917 0
M  V30 437 C 49.5722 4.3507 -0.850214 0
M  V30 438 H 46.7922 0.611587 -0.276048 0
M  V30 439 H 49.3362 1.50742 -1.38192 0
M  V30 440 H 47.4912 3.83823 -0.525194 0
M  V30 441 H 47.9052 4.54128 -2.62427 0
M  V30 442 H 49.3792 5.39989 -1.14523 0
M  V30 443 H 49.8562 4.38673 0.215176 0
M  V30 444 H 50.4622 4.01097 -1.41426 0
M  V30 445 N 48.7773 0.814389 1.34928 0
M  V30 446 C 50.0053 0.411136 2.02774 0
M  V30 447 C 50.4203 -0.980316 1.61354 0
M  V30 448 O 49.7773 -1.63299 0.814847 0
M  V30 449 C 49.8283 0.493865 3.58111 0
M  V30 450 O 49.5493 1.83047 3.98027 0
M  V30 451 C 51.0503 0.0844174 4.4322 0
M  V30 452 H 48.2703 0.166037 0.650133 0
M  V30 453 H 50.8143 1.10018 1.72384 0
M  V30 454 H 48.9693 -0.147006 3.87121 0
M  V30 455 H 49.3833 1.79872 4.92693 0
M  V30 456 H 50.8573 0.193404 5.51661 0
M  V30 457 H 51.3343 -0.97113 4.28329 0
M  V30 458 H 51.9403 0.69875 4.19521 0
M  V30 459 N 50.2554 -1.46986 0.568584 0
M  V30 460 C 51.5014 -2.02741 0.0488709 0
M  V30 461 C 51.8344 -1.44077 -1.30214 0
M  V30 462 O 51.1094 -0.600552 -1.84996 0
M  V30 463 C 51.3924 -3.60086 -0.032047 0
M  V30 464 C 51.2454 -4.29162 1.34686 0
M  V30 465 C 52.5644 -4.33838 -0.739798 0
M  V30 466 H 49.6834 -0.736749 0.0192338 0
M  V30 467 H 52.3254 -1.75289 0.733065 0
M  V30 468 H 50.4754 -3.83606 -0.61473 0
M  V30 469 H 52.1474 -4.16948 1.97362 0
M  V30 470 H 50.3904 -3.89073 1.91846 0
M  V30 471 H 51.0614 -5.37826 1.24285 0
M  V30 472 H 53.5374 -4.15378 -0.244939 0
M  V30 473 H 52.4134 -5.43537 -0.765406 0
M  V30 474 H 52.6744 -4.03875 -1.79827 0
M  V30 475 N 51.7335 -0.305618 -1.54608 0
M  V30 476 C 52.9795 0.302746 -2.00528 0
M  V30 477 C 53.3125 1.53184 -1.19367 0
M  V30 478 O 52.5875 1.92598 -0.271321 0
M  V30 479 C 52.8705 0.654756 -3.54097 0
M  V30 480 C 52.7235 -0.583793 -4.45995 0
M  V30 481 C 54.0425 1.47947 -4.14487 0
M  V30 482 H 51.1615 0.108564 -0.72896 0
M  V30 483 H 53.8035 -0.418634 -1.85331 0
M  V30 484 H 51.9535 1.26935 -3.67178 0
M  V30 485 H 53.6255 -1.22224 -4.44814 0
M  V30 486 H 51.8685 -1.21615 -4.16404 0
M  V30 487 H 52.5395 -0.293287 -5.5122 0
M  V30 488 H 55.0155 0.96013 -4.04871 0
M  V30 489 H 53.8915 1.69454 -5.22088 0
M  V30 490 H 54.1525 2.47011 -3.66658 0
M  V30 491 N 53.2116 1.57565 -0.0334293 0
M  V30 492 C 54.1446 2.05997 0.981866 0
M  V30 493 C 55.1226 0.956647 1.3148 0
M  V30 494 O 56.3066 1.22729 1.43073 0
M  V30 495 C 53.4336 2.48564 2.30074 0
M  V30 496 C 52.4796 3.69958 2.12211 0
M  V30 497 S 53.3126 5.16414 1.41692 0
M  V30 498 C 54.4686 5.6228 2.7494 0
M  V30 499 H 54.7016 2.91792 0.569612 0
M  V30 500 H 52.2346 1.53366 0.178376 0
M  V30 501 H 54.1926 2.73753 3.05892 0
M  V30 502 H 52.8536 1.63106 2.68431 0
M  V30 503 H 52.0466 3.97603 3.09722 0
M  V30 504 H 51.6486 3.44943 1.44535 0
M  V30 505 H 53.9406 5.66783 3.71165 0
M  V30 506 H 54.8836 6.61759 2.51953 0
M  V30 507 H 55.2916 4.89944 2.80384 0
M  V30 508 N 54.6897 -0.239769 1.55765 0
M  V30 509 C 55.9197 -0.982743 1.8173 0
M  V30 510 C 56.3277 -1.7917 0.607835 0
M  V30 511 O 55.6707 -1.78525 -0.432973 0
M  V30 512 C 55.7327 -1.96332 3.01155 0
M  V30 513 C 55.3967 -1.34062 4.36894 0
M  V30 514 C 56.3937 -0.739539 5.14613 0
M  V30 515 C 54.0787 -1.35784 4.83599 0
M  V30 516 C 56.0727 -0.163989 6.37189 0
M  V30 517 C 53.7597 -0.778441 6.06122 0
M  V30 518 C 54.7577 -0.182548 6.82756 0
M  V30 519 O 54.4457 0.387887 8.02964 0
M  V30 520 H 54.1777 -0.294481 0.608487 0
M  V30 521 H 56.7317 -0.26572 2.03674 0
M  V30 522 H 54.9617 -2.71884 2.74984 0
M  V30 523 H 56.6507 -2.57032 3.14149 0
M  V30 524 H 57.4167 -0.718687 4.79646 0
M  V30 525 H 53.2957 -1.81105 4.23936 0
M  V30 526 H 56.8397 0.301753 6.96947 0
M  V30 527 H 52.7367 -0.796645 6.40565 0
M  V30 528 H 53.5047 0.28044 8.18019 0
M  V30 529 N 56.1678 -1.49265 -0.50573 0
M  V30 530 C 57.5788 -1.51769 -1.08734 0
M  V30 531 C 57.9298 -0.301192 -1.93874 0
M  V30 532 O 57.0548 0.589456 -2.08217 0
M  V30 533 C 57.6498 -2.75017 -1.97867 0
M  V30 534 C 56.2088 -2.80314 -2.51199 0
M  V30 535 C 55.3558 -2.4562 -1.28709 0
M  V30 536 H 58.3068 -1.56031 -0.289855 0
M  V30 537 H 58.3278 -2.5491 -2.82491 0
M  V30 538 H 57.8398 -3.63539 -1.35873 0
M  V30 539 H 55.9408 -1.96061 -3.16845 0
M  V30 540 H 56.0538 -3.82366 -2.88675 0
M  V30 541 H 54.4178 -1.97297 -1.61078 0
M  V30 542 H 55.2008 -3.36411 -0.6843 0
M  V30 543 N 57.6459 0.756429 -1.3826 0
M  V30 544 C 59.0569 1.33359 -1.30661 0
M  V30 545 C 59.4079 1.96161 0.0388875 0
M  V30 546 O 58.5329 1.94874 0.940918 0
M  V30 547 C 59.1279 2.42477 -2.36622 0
M  V30 548 C 57.6869 2.95922 -2.3261 0
M  V30 549 C 56.8339 1.69275 -2.19639 0
M  V30 550 H 59.7849 0.55552 -1.4866 0
M  V30 551 H 59.8059 3.22345 -2.02174 0
M  V30 552 H 59.3179 1.96739 -3.34538 0
M  V30 553 H 57.4189 3.45996 -1.38267 0
M  V30 554 H 57.5319 3.50494 -3.26636 0
M  V30 555 H 55.8959 1.92793 -1.66442 0
M  V30 556 H 56.6789 1.25619 -3.19491 0
M  V30 557 N 59.124 1.23083 0.984299 0
M  V30 558 C 60.535 1.05609 1.5396 0
M  V30 559 C 60.886 -0.377793 1.92528 0
M  V30 560 O 60.011 -1.26398 1.75649 0
M  V30 561 C 60.606 1.91087 2.7977 0
M  V30 562 C 59.165 1.77885 3.31713 0
M  V30 563 C 58.312 1.87028 2.04733 0
M  V30 564 H 61.263 1.36802 0.804419 0
M  V30 565 H 61.284 1.43336 3.5247 0
M  V30 566 H 60.796 2.9544 2.51668 0
M  V30 567 H 58.897 0.762995 3.64704 0
M  V30 568 H 59.01 2.61047 4.01735 0
M  V30 569 H 57.374 1.30565 2.18689 0
M  V30 570 H 58.157 2.92929 1.79017 0
M  V30 571 N 60.6021 -1.18246 1.0419 0
M  V30 572 C 62.0131 -1.69914 0.773698 0
M  V30 573 C 62.3641 -1.83085 -0.705297 0
M  V30 574 O 61.4891 -1.51123 -1.5489 0
M  V30 575 C 62.0841 -3.08619 1.39784 0
M  V30 576 C 60.6431 -3.57494 1.17792 0
M  V30 577 C 59.7901 -2.34013 1.48773 0
M  V30 578 H 62.7411 -1.02904 1.20816 0
M  V30 579 H 62.7621 -3.71958 0.801714 0
M  V30 580 H 62.2741 -2.99001 2.47426 0
M  V30 581 H 60.3751 -3.72406 0.120295 0
M  V30 582 H 60.4881 -4.40852 1.87581 0
M  V30 583 H 58.8521 -2.37986 0.907463 0
M  V30 584 H 59.6351 -2.27013 2.57527 0
M  V30 585 N 62.0802 -0.821533 -1.34494 0
M  V30 586 C 63.4912 -0.467956 -1.8074 0
M  V30 587 C 63.8422 1.01151 -1.68116 0
M  V30 588 O 62.9672 1.78707 -1.22036 0
M  V30 589 C 63.5622 -0.842627 -3.28154 0
M  V30 590 C 62.1212 -0.541439 -3.72485 0
M  V30 591 C 61.2682 -1.06028 -2.56229 0
M  V30 592 H 64.2192 -1.01183 -1.22261 0
M  V30 593 H 64.2402 -0.145876 -3.8022 0
M  V30 594 H 63.7522 -1.91945 -3.37311 0
M  V30 595 H 61.8532 0.526034 -3.68868 0
M  V30 596 H 61.9662 -1.08453 -4.66663 0
M  V30 597 H 60.3302 -0.481892 -2.501 0
M  V30 598 H 61.1132 -2.14352 -2.68157 0
M  V30 599 N 63.5583 1.46682 -0.576371 0
M  V30 600 C 64.9693 1.86112 -0.148091 0
M  V30 601 C 65.3203 1.48073 1.2872 0
M  V30 602 O 64.4453 0.892656 1.97131 0
M  V30 603 C 65.0403 3.37786 -0.261982 0
M  V30 604 C 63.5993 3.76235 0.111384 0
M  V30 605 C 62.7463 2.70713 -0.60083 0
M  V30 606 H 65.6973 1.37927 -0.78497 0
M  V30 607 H 65.7183 3.77007 0.514364 0
M  V30 608 H 65.2303 3.6544 -1.30671 0
M  V30 609 H 63.3313 3.54198 1.15649 0
M  V30 610 H 63.4443 4.78391 -0.26052 0
M  V30 611 H 61.8083 2.54666 -0.0417783 0
M  V30 612 H 62.5913 3.01208 -1.64708 0
M  V30 613 N 65.0364 0.313813 1.54444 0
M  V30 614 C 66.4474 -0.176243 1.85866 0
M  V30 615 C 66.7984 -1.52405 1.23561 0
M  V30 616 O 65.9234 -2.09605 0.538016 0
M  V30 617 C 66.5184 -0.32657 3.37222 0
M  V30 618 C 65.0774 -0.760846 3.6863 0
M  V30 619 C 64.2244 0.123247 2.77026 0
M  V30 620 H 67.1754 0.534418 1.49431 0
M  V30 621 H 67.1964 -1.15908 3.62416 0
M  V30 622 H 66.7084 0.654531 3.82541 0
M  V30 623 H 64.8094 -1.75204 3.28838 0
M  V30 624 H 64.9224 -0.571353 4.75681 0
M  V30 625 H 63.2864 -0.399597 2.51546 0
M  V30 626 H 64.0694 1.10094 3.25168 0
M  V30 627 N 66.5145 -1.57545 0.0417849 0
M  V30 628 C 67.4645 -2.07483 -0.945247 0
M  V30 629 C 68.4485 -0.977983 -1.27767 0
M  V30 630 O 69.6405 -1.24142 -1.26166 0
M  V30 631 C 66.7695 -2.61576 -2.22335 0
M  V30 632 C 65.8555 -3.78213 -1.91874 0
M  V30 633 N 66.2465 -4.88344 -1.31733 0
M  V30 634 C 64.5445 -3.8694 -2.21796 0
M  V30 635 C 65.2455 -5.69462 -1.1869 0
M  V30 636 N 64.2215 -5.16771 -1.68666 0
M  V30 637 H 68.0235 -2.90029 -0.475441 0
M  V30 638 H 65.5375 -1.61581 -0.162911 0
M  V30 639 H 67.5345 -2.95651 -2.93932 0
M  V30 640 H 66.1945 -1.80465 -2.69931 0
M  V30 641 H 67.2055 -5.08335 -0.990729 0
M  V30 642 H 63.8825 -3.16757 -2.71977 0
M  V30 643 H 65.2725 -6.68023 -0.720793 0
M  V30 644 N 67.9926 0.231505 -1.5589 0
M  V30 645 C 69.4086 0.580748 -1.48659 0
M  V30 646 C 69.6086 1.87617 -0.73498 0
M  V30 647 O 68.6646 2.51046 -0.270586 0
M  V30 648 C 69.9776 0.669202 -2.93159 0
M  V30 649 C 71.5256 0.760499 -3.03621 0
M  V30 650 C 72.0006 0.880383 -4.49459 0
M  V30 651 N 73.4916 0.944861 -4.53461 0
M  V30 652 C 74.2266 1.05716 -5.63571 0
M  V30 653 N 73.7226 1.13403 -6.83456 0
M  V30 654 N 75.5156 1.09152 -5.514 0
M  V30 655 H 67.6666 -0.618695 -2.03189 0
M  V30 656 H 69.9296 -0.215728 -0.923128 0
M  V30 657 H 69.6356 -0.212904 -3.51055 0
M  V30 658 H 69.5096 1.5361 -3.44505 0
M  V30 659 H 71.8966 1.63305 -2.45796 0
M  V30 660 H 71.9776 -0.131864 -2.5546 0
M  V30 661 H 71.6216 0.0123284 -5.07899 0
M  V30 662 H 71.5516 1.78802 -4.95316 0
M  V30 663 H 74.0426 0.896176 -3.6712 0
M  V30 664 H 74.3556 1.21921 -7.63122 0
M  V30 665 H 72.7006 1.10333 -6.86186 0
M  V30 666 H 75.8916 1.02805 -4.56671 0
M  V30 667 H 76.0646 1.17558 -6.37247 0
M  V30 668 N 69.4707 1.49531 0.497807 0
M  V30 669 C 70.7477 1.49682 1.25915 0
M  V30 670 C 71.1277 0.226339 2.09883 0
M  V30 671 O 70.4757 -0.791189 2.14365 0
M  V30 672 C 70.6857 2.77755 2.11313 0
M  V30 673 C 72.0337 3.27371 2.70395 0
M  V30 674 O 73.0577 2.78894 2.21578 0
M  V30 675 O 71.9167 4.11808 3.59272 0
M  V30 676 H 69.0107 0.599228 0.56996 0
M  V30 677 H 71.5567 1.61798 0.511816 0
M  V30 678 H 70.3287 3.61713 1.49264 0
M  V30 679 H 69.9517 2.68515 2.93233 0
M  V30 680 N 70.9488 -0.749086 1.3866 0
M  V30 681 C 72.1958 -1.50833 1.35114 0
M  V30 682 C 72.5238 -1.94415 -0.0574049 0
M  V30 683 O 71.7788 -1.66065 -1.03541 0
M  V30 684 C 72.0778 -2.7712 2.25697 0
M  V30 685 C 71.7438 -2.52477 3.73585 0
M  V30 686 C 70.4058 -2.45466 4.13884 0
M  V30 687 C 72.7578 -2.31066 4.67181 0
M  V30 688 C 70.0858 -2.15064 5.45861 0
M  V30 689 C 72.4378 -2.02183 5.9942 0
M  V30 690 C 71.1018 -1.93631 6.38798 0
M  V30 691 H 70.3718 -0.551936 0.494416 0
M  V30 692 H 73.0188 -0.860979 1.71054 0
M  V30 693 H 71.3238 -3.46528 1.82827 0
M  V30 694 H 73.0208 -3.35096 2.20254 0
M  V30 695 H 69.6108 -2.58807 3.41638 0
M  V30 696 H 73.7948 -2.35459 4.3689 0
M  V30 697 H 69.0508 -2.06954 5.75308 0
M  V30 698 H 73.2248 -1.8462 6.71482 0
M  V30 699 H 70.8518 -1.69839 7.40985 0
M  V30 700 N 72.4269 -1.23603 -0.977757 0
M  V30 701 C 73.6759 -1.06377 -1.71368 0
M  V30 702 C 73.9889 0.399062 -1.91486 0
M  V30 703 O 75.1949 0.691312 -2.62551 0
M  V30 704 C 73.6509 -1.85512 -3.08404 0
M  V30 705 C 73.2589 -3.36141 -2.96164 0
M  V30 706 C 75.0029 -1.76783 -3.85938 0
M  V30 707 C 72.9099 -4.07659 -4.28449 0
M  V30 708 H 71.8399 -0.394452 -0.642591 0
M  V30 709 H 74.4909 -1.47594 -1.09034 0
M  V30 710 H 72.8729 -1.37103 -3.71509 0
M  V30 711 H 74.0469 -3.92056 -2.42133 0
M  V30 712 H 72.3619 -3.45712 -2.32104 0
M  V30 713 H 74.9589 -2.27526 -4.83876 0
M  V30 714 H 75.3019 -0.731116 -4.0983 0
M  V30 715 H 75.8349 -2.22818 -3.2954 0
M  V30 716 H 72.5739 -5.11648 -4.09752 0
M  V30 717 H 72.0939 -3.5653 -4.82334 0
M  V30 718 H 73.7729 -4.141 -4.97122 0
M  V30 719 N 73.905 1.17692 -1.04816 0
M  V30 720 C 75.13 1.92327 -0.776207 0
M  V30 721 C 75.555 1.76082 0.661581 0
M  V30 722 O 74.913 1.076 1.45917 0
M  V30 723 C 74.961 3.41539 -1.15687 0
M  V30 724 O 74.065 4.11402 -0.286775 0
M  V30 725 H 73.406 0.599735 -0.284981 0
M  V30 726 H 75.936 1.49201 -1.4 0
M  V30 727 H 75.946 3.92269 -1.12202 0
M  V30 728 H 74.621 3.52684 -2.20425 0
M  V30 729 H 73.198 3.70939 -0.381903 0
M  V30 730 N 75.3831 0.828654 1.34056 0
M  V30 731 C 76.6291 0.42008 1.98402 0
M  V30 732 C 76.9621 -1.01564 1.65525 0
M  V30 733 O 76.2371 -1.70834 0.929831 0
M  V30 734 C 76.5201 0.62927 3.54559 0
M  V30 735 C 76.3731 2.11152 3.97159 0
M  V30 736 C 77.6921 0.0688756 4.40046 0
M  V30 737 H 74.8111 0.154104 0.720709 0
M  V30 738 H 77.4531 1.04228 1.5886 0
M  V30 739 H 75.6031 0.0996418 3.88372 0
M  V30 740 H 77.2751 2.70522 3.73651 0
M  V30 741 H 75.5181 2.59985 3.47261 0
M  V30 742 H 76.1891 2.20868 5.05887 0
M  V30 743 H 78.6651 0.521458 4.1282 0
M  V30 744 H 77.5411 0.245006 5.48353 0
M  V30 745 H 77.8021 -1.0266 4.30015 0
M  V30 746 N 76.8612 -1.46375 0.584142 0
M  V30 747 C 78.0892 -2.06761 0.0759296 0
M  V30 748 C 78.5042 -1.43266 -1.22965 0
M  V30 749 O 77.8612 -0.538458 -1.74376 0
M  V30 750 C 77.9122 -3.61375 -0.0950384 0
M  V30 751 O 77.6332 -4.22495 1.15887 0
M  V30 752 C 79.1342 -4.38693 -0.637434 0
M  V30 753 H 76.3542 -0.668479 0.0581075 0
M  V30 754 H 78.8982 -1.8798 0.805218 0
M  V30 755 H 77.0532 -3.79578 -0.774554 0
M  V30 756 H 77.4672 -5.15385 0.973598 0
M  V30 757 H 78.9412 -5.47464 -0.706237 0
M  V30 758 H 79.4182 -4.06836 -1.65472 0
M  V30 759 H 80.0242 -4.25299 0.00725967 0
M  V30 760 N 78.3393 -0.321999 -1.54275 0
M  V30 761 C 79.2693 0.537411 -2.27231 0
M  V30 762 C 80.2503 1.12064 -1.27968 0
M  V30 763 O 81.4353 1.14606 -1.56777 0
M  V30 764 C 78.5653 1.69919 -3.02894 0
M  V30 765 C 77.5193 1.24534 -4.09482 0
M  V30 766 C 76.8453 2.49394 -4.72977 0
M  V30 767 C 78.1453 0.361335 -5.21049 0
M  V30 768 H 79.8393 -0.0711406 -2.99315 0
M  V30 769 H 77.3853 -0.0356555 -1.43956 0
M  V30 770 H 79.3383 2.30668 -3.52662 0
M  V30 771 H 78.0623 2.33431 -2.28424 0
M  V30 772 H 76.7213 0.660782 -3.60596 0
M  V30 773 H 76.3693 3.11265 -3.95124 0
M  V30 774 H 76.0693 2.19718 -5.44975 0
M  V30 775 H 77.5933 3.10908 -5.25517 0
M  V30 776 H 79.0073 0.875072 -5.66582 0
M  V30 777 H 77.4043 0.157428 -5.99893 0
M  V30 778 H 78.4743 -0.60822 -4.8107 0
M  V30 779 N 79.8174 1.5752 -0.0501392 0
M  V30 780 C 81.0424 1.97376 0.636997 0
M  V30 781 C 81.4674 0.927466 1.63645 0
M  V30 782 O 80.8254 -0.10941 1.8097 0
M  V30 783 C 80.8734 3.36304 1.30123 0
M  V30 784 O 79.9774 3.34156 2.41689 0
M  V30 785 H 79.3184 0.642998 0.165679 0
M  V30 786 H 81.8484 2.04258 -0.118233 0
M  V30 787 H 81.8584 3.73008 1.65315 0
M  V30 788 H 80.5334 4.11993 0.568746 0
M  V30 789 H 79.1104 3.09196 2.08451 0
M  V30 790 N 81.2955 -0.223234 1.56011 0
M  V30 791 C 82.5425 -0.947875 1.78946 0
M  V30 792 C 82.8705 -1.844 0.618608 0
M  V30 793 O 82.1255 -1.91629 -0.397093 0
M  V30 794 C 82.4245 -1.81948 3.0762 0
M  V30 795 C 82.0905 -1.07672 4.37856 0
M  V30 796 C 80.7525 -0.871544 4.73242 0
M  V30 797 C 83.1045 -0.552081 5.18268 0
M  V30 798 C 80.4325 -0.129791 5.86556 0
M  V30 799 C 82.7845 0.17632 6.32354 0
M  V30 800 C 81.4485 0.39277 6.66343 0
M  V30 801 H 80.7185 -0.346852 0.654809 0
M  V30 802 H 83.3655 -0.216171 1.90276 0
M  V30 803 H 81.6705 -2.61899 2.91404 0
M  V30 804 H 83.3675 -2.38227 3.22566 0
M  V30 805 H 79.9575 -1.24662 4.1007 0
M  V30 806 H 84.1415 -0.698076 4.91366 0
M  V30 807 H 79.3975 0.048153 6.11381 0
M  V30 808 H 83.5715 0.590367 6.93893 0
M  V30 809 H 81.1985 0.969466 7.53993 0
M  V30 810 N 82.7736 -1.49793 -0.48987 0
M  V30 811 C 84.0216 -1.59525 -1.24081 0
M  V30 812 C 84.3426 -0.288953 -1.92847 0
M  V30 813 O 83.6126 0.692436 -1.83254 0
M  V30 814 H 82.1926 -0.587796 -0.460983 0
M  V30 815 H 84.8546 -1.86477 -0.566778 0
M  V30 816 H 83.9506 -2.39696 -1.99881 0
M  V30 817 N 84.2517 0.741722 -1.39055 0
M  V30 818 C 85.1617 1.88621 -1.39496 0
M  V30 819 C 86.1777 1.71557 -0.290578 0
M  V30 820 O 87.3537 1.94275 -0.530954 0
M  V30 821 C 84.4187 3.24134 -1.23037 0
M  V30 822 C 83.4797 3.5364 -2.43387 0
M  V30 823 C 82.7127 4.82687 -2.27703 0
M  V30 824 O 82.9357 5.55922 -1.27696 0
M  V30 825 O 81.8697 5.1194 -3.16545 0
M  V30 826 H 85.6957 1.91203 -2.35956 0
M  V30 827 H 83.2807 0.888625 -1.20099 0
M  V30 828 H 85.1627 4.0513 -1.15964 0
M  V30 829 H 83.8377 3.22337 -0.296691 0
M  V30 830 H 82.7447 2.72758 -2.56035 0
M  V30 831 H 84.0777 3.60209 -3.35425 0
M  V30 832 N 85.7298 1.2412 0.971189 0
M  V30 833 C 86.6778 1.02812 2.08644 0
M  V30 834 C 87.6718 -0.0358403 1.69362 0
M  V30 835 O 88.8778 0.118429 1.7961 0
M  V30 836 H 85.2528 0.315428 0.682649 0
M  V30 837 H 87.2238 1.97397 2.23779 0
M  V30 838 C 85.9728 0.645874 3.41649 0
M  V30 839 H 85.2958 1.45632 3.72332 0
M  V30 840 H 86.7358 0.536366 4.20594 0
M  V30 841 C 85.1948 -0.646713 3.30635 0
M  V30 842 O 85.7248 -1.69338 3.64263 0
M  V30 843 N 83.9308 -0.626115 2.83775 0
M  V30 844 H 83.4778 0.225988 2.56607 0
M  V30 845 H 83.4358 -1.49117 2.76788 0
M  V30 846 N 87.2079 -1.17134 1.05439 0
M  V30 847 C 88.4379 -1.91094 0.785274 0
M  V30 848 C 88.8459 -1.77198 -0.663142 0
M  V30 849 O 88.1889 -1.10835 -1.46497 0
M  V30 850 C 88.2509 -3.42594 1.08949 0
M  V30 851 C 87.9149 -3.80274 2.53458 0
M  V30 852 C 88.9119 -3.82912 3.51673 0
M  V30 853 C 86.5969 -4.11162 2.88532 0
M  V30 854 C 88.5909 -4.15913 4.83006 0
M  V30 855 C 86.2779 -4.43831 4.20068 0
M  V30 856 C 87.2759 -4.46185 5.17115 0
M  V30 857 O 86.9639 -4.78083 6.46291 0
M  V30 858 H 86.6959 -0.613073 0.284811 0
M  V30 859 H 89.2499 -1.49461 1.40893 0
M  V30 860 H 87.4799 -3.84534 0.408741 0
M  V30 861 H 89.1689 -3.97817 0.805991 0
M  V30 862 H 89.9349 -3.5917 3.25917 0
M  V30 863 H 85.8139 -4.085 2.13656 0
M  V30 864 H 89.3579 -4.17665 5.5875 0
M  V30 865 H 85.2549 -4.67037 4.45586 0
M  V30 866 H 86.0229 -4.9593 6.51149 0
M  V30 867 N 88.686 -0.835752 -1.33615 0
M  V30 868 C 89.963 -0.352017 -1.92406 0
M  V30 869 C 90.343 1.16225 -1.76224 0
M  V30 870 O 89.691 1.97526 -1.14873 0
M  V30 871 C 89.901 -0.795485 -3.39813 0
M  V30 872 C 91.249 -0.801703 -4.16963 0
M  V30 873 O 92.273 -0.738889 -3.48452 0
M  V30 874 O 91.132 -0.886607 -5.3926 0
M  V30 875 H 88.226 -0.0989641 -0.821057 0
M  V30 876 H 90.772 -0.921397 -1.42507 0
M  V30 877 H 89.544 -1.83795 -3.45449 0
M  V30 878 H 89.167 -0.202505 -3.97084 0
M  V30 879 N 90.1641 1.46063 -0.591896 0
M  V30 880 C 91.1121 2.32124 0.148739 0
M  V30 881 C 92.1061 1.45035 0.875286 0
M  V30 882 O 93.3121 1.61609 0.792632 0
M  V30 883 H 89.6871 0.749024 0.066832 0
M  V30 884 H 91.6581 2.92392 -0.595783 0
M  V30 885 C 90.4071 3.28373 1.1431 0
M  V30 886 H 89.7301 3.95371 0.59346 0
M  V30 887 H 91.1701 3.91352 1.63155 0
M  V30 888 C 89.6291 2.54393 2.20875 0
M  V30 889 O 90.1591 2.31373 3.28374 0
M  V30 890 N 88.3651 2.14797 1.95731 0
M  V30 891 H 87.9121 2.33719 1.08319 0
M  V30 892 H 87.8701 1.65619 2.67241 0
M  V30 893 N 91.6422 0.330177 1.54103 0
M  V30 894 C 92.8672 -0.274893 2.0557 0
M  V30 895 C 93.2922 -1.44487 1.20437 0
M  V30 896 O 92.6502 -1.80021 0.214991 0
M  V30 897 C 92.6982 -0.68079 3.54115 0
M  V30 898 O 91.8022 -1.7824 3.71893 0
M  V30 899 H 91.1432 -0.0483849 0.662235 0
M  V30 900 H 93.6732 0.480508 1.98878 0
M  V30 901 H 93.6832 -0.961635 3.96505 0
M  V30 902 H 92.3582 0.174903 4.15532 0
M  V30 903 H 90.9352 -1.49985 3.41407 0
M  V30 904 N 93.1203 -1.57491 0.0584922 0
M  V30 905 C 94.0673 -2.11958 -0.913376 0
M  V30 906 C 95.0373 -1.02875 -1.30407 0
M  V30 907 O 96.2223 -1.30464 -1.39226 0
M  V30 908 C 93.3623 -2.67497 -2.18035 0
M  V30 909 C 92.4753 -3.90691 -1.84349 0
M  V30 910 C 91.6103 -4.3452 -3.05559 0
M  V30 911 C 90.6493 -5.50395 -2.67827 0
M  V30 912 N 89.7863 -5.89244 -3.81754 0
M  V30 913 H 94.6263 -2.94704 -0.442017 0
M  V30 914 H 92.1633 -1.45643 -0.206545 0
M  V30 915 H 94.1213 -2.978 -2.92183 0
M  V30 916 H 92.7513 -1.87537 -2.62735 0
M  V30 917 H 91.8033 -3.66934 -1.00319 0
M  V30 918 H 93.1153 -4.7489 -1.5258 0
M  V30 919 H 92.2693 -4.66414 -3.87998 0
M  V30 920 H 91.0083 -3.49147 -3.40511 0
M  V30 921 H 90.0133 -5.18165 -1.83806 0
M  V30 922 H 91.2383 -6.3749 -2.34059 0
M  V30 923 H 89.1843 -5.06823 -4.16493 0
M  V30 924 H 89.1013 -6.68151 -3.53708 0
M  V30 925 H 90.3693 -6.25756 -4.64811 0
M  V30 926 N 94.5984 0.214957 -1.56127 0
M  V30 927 C 95.8234 0.95924 -1.83884 0
M  V30 928 C 96.2484 1.7689 -0.639644 0
M  V30 929 O 95.6064 1.76566 0.411601 0
M  V30 930 C 95.6544 1.84723 -3.09693 0
M  V30 931 O 94.7584 2.94346 -2.8885 0
M  V30 932 H 94.0994 0.27125 -0.606069 0
M  V30 933 H 96.6294 0.226276 -2.03345 0
M  V30 934 H 96.6394 2.25576 -3.39969 0
M  V30 935 H 95.3144 1.25218 -3.96602 0
M  V30 936 H 93.8914 2.57391 -2.69823 0
M  V30 937 N 96.0765 1.50051 0.48192 0
M  V30 938 C 97.3225 1.61706 1.2338 0
M  V30 939 C 97.6775 0.308488 1.89911 0
M  V30 940 O 96.9705 -0.692798 1.78636 0
M  V30 941 C 97.1645 2.72717 2.30998 0
M  V30 942 C 96.9935 4.14242 1.75024 0
M  V30 943 C 95.7635 4.80786 1.55476 0
M  V30 944 C 97.9615 4.98846 1.25128 0
M  V30 945 N 95.9435 6.06563 0.946311 0
M  V30 946 C 97.3145 6.15258 0.765382 0
M  V30 947 C 99.3695 4.84702 1.13881 0
M  V30 948 C 98.0725 7.19079 0.178113 0
M  V30 949 C 100.098 5.8869 0.565486 0
M  V30 950 C 99.4605 7.04343 0.0899105 0
M  V30 951 H 95.5595 0.645958 0.440753 0
M  V30 952 H 98.1435 1.8713 0.537624 0
M  V30 953 H 96.3145 2.49033 2.98055 0
M  V30 954 H 98.0465 2.73789 2.9803 0
M  V30 955 H 94.8015 4.37899 1.80392 0
M  V30 956 H 95.2255 6.73767 0.660812 0
M  V30 957 H 99.8675 3.95583 1.49244 0
M  V30 958 H 97.5855 8.07882 -0.187749 0
M  V30 959 H 101.171 5.79808 0.480974 0
M  V30 960 H 100.051 7.83433 -0.346782 0
M  V30 961 N 97.5546 -0.734337 1.39446 0
M  V30 962 C 98.9706 -1.03997 1.21065 0
M  V30 963 C 99.1706 -2.01369 0.0727019 0
M  V30 964 O 98.2266 -2.45856 -0.575426 0
M  V30 965 C 99.5396 -1.60163 2.54496 0
M  V30 966 C 101.088 -1.7224 2.61347 0
M  V30 967 C 101.563 -2.31814 3.95002 0
M  V30 968 N 103.054 -2.39223 3.96644 0
M  V30 969 C 103.789 -2.86258 4.96834 0
M  V30 970 N 103.285 -3.33184 6.07421 0
M  V30 971 N 105.078 -2.85473 4.84213 0
M  V30 972 H 97.2286 -0.0885624 2.12215 0
M  V30 973 H 99.4916 -0.10191 0.942506 0
M  V30 974 H 99.1976 -0.960811 3.38321 0
M  V30 975 H 99.0716 -2.5896 2.74262 0
M  V30 976 H 101.459 -2.35443 1.77906 0
M  V30 977 H 101.54 -0.720939 2.4543 0
M  V30 978 H 101.184 -1.69238 4.78875 0
M  V30 979 H 101.114 -3.32638 4.08239 0
M  V30 980 H 103.605 -2.06057 3.16779 0
M  V30 981 H 103.918 -3.67586 6.7978 0
M  V30 982 H 102.263 -3.31191 6.11013 0
M  V30 983 H 105.454 -2.48136 3.96921 0
M  V30 984 H 105.627 -3.21814 5.62441 0
M  V30 985 N 99.0327 -1.24633 -0.964593 0
M  V30 986 C 100.449 -1.01239 -1.2338 0
M  V30 987 C 100.649 0.2769 -1.99588 0
M  V30 988 O 99.7047 0.992241 -2.32187 0
M  V30 989 C 101.018 -2.22937 -2.01791 0
M  V30 990 C 102.566 -2.27594 -2.14872 0
M  V30 991 C 103.041 -3.48921 -2.96678 0
M  V30 992 N 104.532 -3.49257 -3.04259 0
M  V30 993 C 105.267 -4.39795 -3.67924 0
M  V30 994 N 104.763 -5.40591 -4.33281 0
M  V30 995 N 106.556 -4.275 -3.64966 0
M  V30 996 H 98.7067 -2.0748 -0.454502 0
M  V30 997 H 100.97 -0.910647 -0.26349 0
M  V30 998 H 100.676 -3.16587 -1.53184 0
M  V30 999 H 100.55 -2.25306 -3.02518 0
M  V30 1000 H 102.937 -1.34473 -2.6268 0
M  V30 1001 H 103.018 -2.2925 -1.13482 0
M  V30 1002 H 102.662 -4.42359 -2.49562 0
M  V30 1003 H 102.592 -3.4451 -3.98272 0
M  V30 1004 H 105.083 -2.76337 -2.57771 0
M  V30 1005 H 105.396 -6.05904 -4.79687 0
M  V30 1006 H 103.741 -5.44475 -4.3194 0
M  V30 1007 H 106.932 -3.47987 -3.13086 0
M  V30 1008 H 107.105 -4.98258 -4.14298 0
M  V30 1009 N 100.511 1.16574 -1.06058 0
M  V30 1010 C 101.927 1.3904 -0.783585 0
M  V30 1011 C 102.127 1.91784 0.618145 0
M  V30 1012 O 101.183 2.11511 1.37911 0
M  V30 1013 C 102.496 2.37329 -1.84649 0
M  V30 1014 C 104.044 2.51018 -1.86973 0
M  V30 1015 C 104.519 3.52588 -2.92311 0
M  V30 1016 N 106.01 3.60113 -2.91329 0
M  V30 1017 C 106.745 4.38486 -3.69482 0
M  V30 1018 N 106.241 5.20302 -4.57447 0
M  V30 1019 N 108.034 4.33446 -3.57885 0
M  V30 1020 H 100.185 0.806725 -1.96483 0
M  V30 1021 H 102.448 0.417117 -0.851303 0
M  V30 1022 H 102.154 2.05663 -2.85299 0
M  V30 1023 H 102.028 3.36946 -1.6955 0
M  V30 1024 H 104.415 2.81989 -0.869827 0
M  V30 1025 H 104.496 1.51445 -2.0615 0
M  V30 1026 H 104.14 3.22354 -3.92492 0
M  V30 1027 H 104.07 4.51886 -2.70383 0
M  V30 1028 H 106.561 3.01707 -2.27555 0
M  V30 1029 H 106.874 5.77311 -5.13743 0
M  V30 1030 H 105.219 5.19653 -4.61503 0
M  V30 1031 H 108.41 3.68586 -2.88551 0
M  V30 1032 H 108.583 4.94279 -4.19037 0
M  V30 1033 N 101.989 0.842826 1.3317 0
M  V30 1034 C 103.214 0.453129 2.02389 0
M  V30 1035 C 103.639 -0.939105 1.6298 0
M  V30 1036 O 102.997 -1.61472 0.8244 0
M  V30 1037 C 103.045 0.586094 3.55805 0
M  V30 1038 O 102.149 -0.386029 4.10589 0
M  V30 1039 H 101.49 0.183664 0.638094 0
M  V30 1040 H 104.02 1.13875 1.69981 0
M  V30 1041 H 104.03 0.469209 4.05293 0
M  V30 1042 H 102.705 1.6014 3.83833 0
M  V30 1043 H 101.282 -0.226371 3.72212 0
M  V30 1044 N 103.467 -1.45747 0.599634 0
M  V30 1045 C 104.707 -2.04181 0.0946309 0
M  V30 1046 C 105.071 -1.45895 -1.24815 0
M  V30 1047 O 106.272 -1.95633 -1.8434 0
M  V30 1048 C 104.543 -3.57368 0.047581 0
M  V30 1049 S 106.102 -4.36997 -0.397387 0
M  V30 1050 H 102.92 -0.70953 0.0456954 0
M  V30 1051 H 105.522 -1.78564 0.795946 0
M  V30 1052 H 104.226 -3.97303 1.02852 0
M  V30 1053 H 103.757 -3.87549 -0.675977 0
M  V30 1054 H 105.772 -4.68012 -1.64862 0
M  V30 1055 N 104.945 -0.338344 -1.53925 0
M  V30 1056 C 106.191 0.252842 -2.01822 0
M  V30 1057 C 106.546 1.48612 -1.22197 0
M  V30 1058 O 105.839 1.89238 -0.299892 0
M  V30 1059 C 106.033 0.62448 -3.51902 0
M  V30 1060 C 105.862 -0.571235 -4.46057 0
M  V30 1061 C 104.632 -1.07493 -4.93734 0
M  V30 1062 C 106.83 -1.42807 -4.94076 0
M  V30 1063 N 104.812 -2.23351 -5.71828 0
M  V30 1064 C 106.183 -2.43362 -5.70241 0
M  V30 1065 C 108.238 -1.45412 -4.76193 0
M  V30 1066 C 106.941 -3.46346 -6.30426 0
M  V30 1067 C 108.967 -2.47274 -5.37224 0
M  V30 1068 C 108.329 -3.46555 -6.13253 0
M  V30 1069 H 104.428 0.0559669 -0.779995 0
M  V30 1070 H 107.012 -0.476732 -1.88773 0
M  V30 1071 H 105.183 1.32317 -3.65167 0
M  V30 1072 H 106.915 1.19841 -3.86549 0
M  V30 1073 H 103.67 -0.643848 -4.69203 0
M  V30 1074 H 104.094 -2.81834 -6.15548 0
M  V30 1075 H 108.736 -0.700171 -4.16962 0
M  V30 1076 H 106.454 -4.22638 -6.88769 0
M  V30 1077 H 110.04 -2.50109 -5.25297 0
M  V30 1078 H 108.92 -4.24083 -6.59638 0
M  V30 1079 N 106.423 1.57458 -0.0668435 0
M  V30 1080 C 107.839 1.56947 0.289772 0
M  V30 1081 C 108.039 1.07584 1.70376 0
M  V30 1082 O 107.095 0.739486 2.41429 0
M  V30 1083 C 108.408 3.0052 0.103943 0
M  V30 1084 C 109.956 3.12517 0.173857 0
M  V30 1085 C 110.431 4.57997 0.0163682 0
M  V30 1086 N 111.922 4.63144 0.0721352 0
M  V30 1087 C 112.657 5.73394 -0.0253794 0
M  V30 1088 N 112.153 6.92576 -0.176133 0
M  V30 1089 N 113.946 5.62091 0.0313305 0
M  V30 1090 H 106.097 1.87863 -0.991027 0
M  V30 1091 H 108.36 0.86583 -0.38606 0
M  V30 1092 H 108.066 3.40729 -0.871572 0
M  V30 1093 H 107.94 3.67304 0.858366 0
M  V30 1094 H 110.327 2.72197 1.13985 0
M  V30 1095 H 110.408 2.48381 -0.611586 0
M  V30 1096 H 110.052 4.99005 -0.946374 0
M  V30 1097 H 109.982 5.20158 0.821153 0
M  V30 1098 H 112.473 3.77436 0.187263 0
M  V30 1099 H 112.786 7.72418 -0.242821 0
M  V30 1100 H 111.131 6.94678 -0.211429 0
M  V30 1101 H 114.322 4.67867 0.147773 0
M  V30 1102 H 114.495 6.47982 -0.048121 0
M  V30 1103 N 107.901 -0.206675 1.56239 0
M  V30 1104 C 108.848 -1.25617 1.93621 0
M  V30 1105 C 109.818 -1.45824 0.795274 0
M  V30 1106 O 111.003 -1.59148 1.05245 0
M  V30 1107 C 108.143 -2.59839 2.27107 0
M  V30 1108 C 107.256 -2.47308 3.54207 0
M  V30 1109 C 106.391 -3.74155 3.7707 0
M  V30 1110 C 105.43 -3.56407 4.97635 0
M  V30 1111 N 104.567 -4.75238 5.1681 0
M  V30 1112 H 109.407 -0.930383 2.83104 0
M  V30 1113 H 106.944 -0.448065 1.4011 0
M  V30 1114 H 108.902 -3.38021 2.44535 0
M  V30 1115 H 107.532 -2.90485 1.40778 0
M  V30 1116 H 106.584 -1.60483 3.4489 0
M  V30 1117 H 107.896 -2.30122 4.42544 0
M  V30 1118 H 107.05 -4.60778 3.94675 0
M  V30 1119 H 105.789 -3.94282 2.87042 0
M  V30 1120 H 104.794 -2.68168 4.79964 0
M  V30 1121 H 106.019 -3.37736 5.89161 0
M  V30 1122 H 103.965 -4.95651 4.29728 0
M  V30 1123 H 103.882 -4.60835 5.99306 0
M  V30 1124 H 105.15 -5.63246 5.38864 0
M  V30 1125 N 109.379 -1.50304 -0.473955 0
M  V30 1126 C 110.625 -1.62358 -1.22521 0
M  V30 1127 C 110.98 -0.318555 -1.89745 0
M  V30 1128 O 110.273 0.683315 -1.79001 0
M  V30 1129 C 110.467 -2.73938 -2.29549 0
M  V30 1130 C 110.296 -4.15165 -1.72825 0
M  V30 1131 C 109.066 -4.81604 -1.52924 0
M  V30 1132 C 111.264 -4.99503 -1.22481 0
M  V30 1133 N 109.246 -6.07056 -0.91413 0
M  V30 1134 C 110.617 -6.15655 -0.732743 0
M  V30 1135 C 112.672 -4.85299 -1.11308 0
M  V30 1136 C 111.375 -7.19164 -0.139976 0
M  V30 1137 C 113.401 -5.88982 -0.534258 0
M  V30 1138 C 112.763 -7.0438 -0.0525562 0
M  V30 1139 H 108.862 -0.648286 -0.437321 0
M  V30 1140 H 111.446 -1.87413 -0.527692 0
M  V30 1141 H 109.617 -2.50611 -2.9673 0
M  V30 1142 H 111.349 -2.75366 -2.96573 0
M  V30 1143 H 108.104 -4.3885 -1.78067 0
M  V30 1144 H 108.528 -6.74108 -0.625071 0
M  V30 1145 H 113.17 -3.96369 -1.47144 0
M  V30 1146 H 110.888 -8.07771 0.230591 0
M  V30 1147 H 114.474 -5.80055 -0.450219 0
M  V30 1148 H 113.354 -7.83238 0.388324 0
M  V30 1149 N 110.857 0.726932 -1.39834 0
M  V30 1150 C 111.804 1.841 -1.39197 0
M  V30 1151 C 112.774 1.642 -0.250502 0
M  V30 1152 O 113.959 1.85494 -0.446846 0
M  V30 1153 C 111.099 3.21697 -1.24919 0
M  V30 1154 C 110.212 3.53247 -2.48678 0
M  V30 1155 C 109.347 4.80289 -2.26928 0
M  V30 1156 C 108.386 5.04707 -3.4632 0
M  V30 1157 N 107.523 6.22956 -3.23836 0
M  V30 1158 H 112.363 1.83979 -2.34427 0
M  V30 1159 H 109.9 0.898876 -1.16442 0
M  V30 1160 H 111.858 4.01137 -1.1465 0
M  V30 1161 H 110.488 3.21076 -0.333153 0
M  V30 1162 H 109.54 2.68447 -2.69519 0
M  V30 1163 H 110.852 3.67205 -3.37582 0
M  V30 1164 H 110.006 5.67725 -2.13947 0
M  V30 1165 H 108.745 4.68519 -1.35431 0
M  V30 1166 H 107.75 4.1573 -3.5979 0
M  V30 1167 H 108.975 5.18357 -4.38729 0
M  V30 1168 H 106.921 6.12459 -2.35011 0
M  V30 1169 H 106.838 6.37539 -4.063 0
M  V30 1170 H 108.106 7.1321 -3.14566 0
M  V30 1171 N 112.336 1.25143 0.95797 0
M  V30 1172 C 113.268 1.01023 2.05735 0
M  V30 1173 C 114.281 -0.0236902 1.62783 0
M  V30 1174 O 115.47 0.21448 1.77207 0
M  V30 1175 C 112.57 0.504595 3.35122 0
M  V30 1176 C 111.743 1.6039 4.06932 0
M  V30 1177 C 110.802 1.09922 5.14591 0
M  V30 1178 O 109.828 1.79293 5.40225 0
M  V30 1179 N 111.03 -0.0612545 5.80468 0
M  V30 1180 H 113.795 1.95683 2.26998 0
M  V30 1181 H 111.356 1.16303 1.12629 0
M  V30 1182 H 113.348 0.151516 4.04416 0
M  V30 1183 H 111.918 -0.347989 3.10657 0
M  V30 1184 H 111.138 2.12872 3.31782 0
M  V30 1185 H 112.426 2.34252 4.51667 0
M  V30 1186 H 111.824 -0.640985 5.62057 0
M  V30 1187 H 110.381 -0.355395 6.5083 0
M  V30 1188 N 113.814 -1.1601 1.06675 0
M  V30 1189 C 114.744 -2.22688 0.702307 0
M  V30 1190 C 115.725 -1.67306 -0.307032 0
M  V30 1191 O 116.91 -1.93352 -0.181305 0
M  V30 1192 C 114.04 -3.47178 0.092038 0
M  V30 1193 C 112.994 -4.15477 1.02777 0
M  V30 1194 C 112.32 -5.33963 0.28061 0
M  V30 1195 C 113.62 -4.66019 2.35846 0
M  V30 1196 H 115.314 -2.53429 1.59419 0
M  V30 1197 H 112.86 -1.21813 0.767961 0
M  V30 1198 H 114.813 -4.21037 -0.174814 0
M  V30 1199 H 113.537 -3.15749 -0.834877 0
M  V30 1200 H 112.196 -3.43549 1.27944 0
M  V30 1201 H 111.844 -4.98788 -0.649545 0
M  V30 1202 H 111.544 -5.806 0.904258 0
M  V30 1203 H 113.068 -6.10596 0.021396 0
M  V30 1204 H 114.482 -5.3144 2.15045 0
M  V30 1205 H 112.879 -5.23293 2.93743 0
M  V30 1206 H 113.949 -3.82023 2.98641 0
M  V30 1207 N 115.292 -0.849877 -1.32721 0
M  V30 1208 C 116.517 -0.463856 -2.02146 0
M  V30 1209 C 116.942 0.930449 -1.63476 0
M  V30 1210 O 116.3 1.61033 -0.832952 0
M  V30 1211 C 116.348 -0.604955 -3.55489 0
M  V30 1212 O 115.452 0.36425 -4.10788 0
M  V30 1213 H 114.793 -0.187046 -0.637111 0
M  V30 1214 H 117.323 -1.14775 -1.69375 0
M  V30 1215 H 117.333 -0.490696 -4.05038 0
M  V30 1216 H 116.008 -1.62174 -3.82978 0
M  V30 1217 H 114.585 0.206628 -3.72327 0
M  V30 1218 N 116.77 1.45427 -0.607355 0
M  V30 1219 C 118.186 1.57283 -0.270985 0
M  V30 1220 C 118.386 1.59875 1.22647 0
M  V30 1221 O 117.442 1.52893 2.00948 0
M  V30 1222 C 118.755 2.85566 -0.941952 0
M  V30 1223 C 120.303 2.9924 -0.917849 0
M  V30 1224 C 120.778 4.30293 -1.56882 0
M  V30 1225 N 122.269 4.37051 -1.5343 0
M  V30 1226 C 123.004 5.37123 -2.00715 0
M  V30 1227 N 122.5 6.43734 -2.56084 0
M  V30 1228 N 124.293 5.28479 -1.91484 0
M  V30 1229 H 116.444 1.41988 -1.57966 0
M  V30 1230 H 118.707 0.67885 -0.661715 0
M  V30 1231 H 118.413 2.8955 -1.99633 0
M  V30 1232 H 118.287 3.74322 -0.465096 0
M  V30 1233 H 120.674 2.94822 0.127984 0
M  V30 1234 H 120.755 2.11895 -1.43297 0
M  V30 1235 H 120.399 4.35469 -2.61398 0
M  V30 1236 H 120.329 5.16454 -1.02873 0
M  V30 1237 H 122.82 3.60615 -1.12982 0
M  V30 1238 H 123.133 7.16341 -2.89958 0
M  V30 1239 H 121.478 6.44485 -2.60122 0
M  V30 1240 H 124.669 4.44098 -1.47967 0
M  V30 1241 H 124.842 6.0632 -2.28648 0
M  V30 1242 N 118.248 0.346503 1.53744 0
M  V30 1243 C 119.178 -0.501193 2.28058 0
M  V30 1244 C 120.159 -1.10014 1.29734 0
M  V30 1245 O 121.344 -1.12097 1.58581 0
M  V30 1246 C 118.474 -1.65078 3.05559 0
M  V30 1247 C 117.428 -1.18003 4.11411 0
M  V30 1248 C 116.754 -2.41837 4.76884 0
M  V30 1249 C 118.054 -0.278394 5.21558 0
M  V30 1250 H 119.748 0.11875 2.99164 0
M  V30 1251 H 117.294 0.0585531 1.43881 0
M  V30 1252 H 119.247 -2.25028 3.56287 0
M  V30 1253 H 117.971 -2.29767 2.32109 0
M  V30 1254 H 116.63 -0.603331 3.61601 0
M  V30 1255 H 116.278 -3.0494 4.00026 0
M  V30 1256 H 115.978 -2.1102 5.48402 0
M  V30 1257 H 117.502 -3.02508 5.30397 0
M  V30 1258 H 118.916 -0.784823 5.67903 0
M  V30 1259 H 117.313 -0.0619707 6.00068 0
M  V30 1260 H 118.383 0.684677 4.80042 0
M  V30 1261 N 119.726 -1.57421 0.075193 0
M  V30 1262 C 120.658 -2.09904 -0.920483 0
M  V30 1263 C 121.671 -1.03191 -1.25918 0
M  V30 1264 O 122.86 -1.30695 -1.21577 0
M  V30 1265 C 119.96 -2.54726 -2.23534 0
M  V30 1266 C 119.133 -3.8505 -2.07498 0
M  V30 1267 C 118.192 -4.15929 -3.22319 0
M  V30 1268 O 117.218 -4.85474 -2.9716 0
M  V30 1269 N 118.42 -3.69745 -4.47514 0
M  V30 1270 H 121.185 -2.95954 -0.472359 0
M  V30 1271 H 118.746 -1.61523 -0.110444 0
M  V30 1272 H 120.738 -2.72443 -2.9926 0
M  V30 1273 H 119.308 -1.73795 -2.59835 0
M  V30 1274 H 118.528 -3.76679 -1.16219 0
M  V30 1275 H 119.816 -4.70348 -1.94038 0
M  V30 1276 H 119.214 -3.13569 -4.7084 0
M  V30 1277 H 117.771 -3.92655 -5.20255 0
M  V30 1278 N 121.204 0.198386 -1.56346 0
M  V30 1279 C 122.62 0.549085 -1.49857 0
M  V30 1280 C 122.82 1.86016 -0.774611 0
M  V30 1281 O 121.876 2.50416 -0.323776 0
M  V30 1282 C 123.189 0.606868 -2.94512 0
M  V30 1283 C 124.737 0.695925 -3.05165 0
M  V30 1284 C 125.212 0.784848 -4.51225 0
M  V30 1285 N 126.703 0.848463 -4.55363 0
M  V30 1286 C 127.438 0.937378 -5.65686 0
M  V30 1287 N 126.934 0.9888 -6.85707 0
M  V30 1288 N 128.727 0.974312 -5.53592 0
M  V30 1289 H 120.878 -0.661655 -2.01831 0
M  V30 1290 H 123.141 -0.235261 -0.918344 0
M  V30 1291 H 122.847 -0.28732 -3.50524 0
M  V30 1292 H 122.721 1.46268 -3.47686 0
M  V30 1293 H 125.108 1.58055 -2.49204 0
M  V30 1294 H 125.189 -0.186022 -2.55123 0
M  V30 1295 H 124.833 -0.0954072 -5.0781 0
M  V30 1296 H 124.763 1.68255 -4.98997 0
M  V30 1297 H 127.254 0.818103 -3.68938 0
M  V30 1298 H 127.567 1.05707 -7.65536 0
M  V30 1299 H 125.912 0.957534 -6.88372 0
M  V30 1300 H 129.103 0.930954 -4.58749 0
M  V30 1301 H 129.276 1.04015 -6.39597 0
M  V30 1302 N 122.682 1.50554 0.465978 0
M  V30 1303 C 123.63 1.70324 1.58406 0
M  V30 1304 C 124.624 0.569139 1.59553 0
M  V30 1305 O 125.83 0.749776 1.63641 0
M  V30 1306 H 122.205 0.537688 0.525734 0
M  V30 1307 H 124.176 2.64104 1.38894 0
M  V30 1308 C 122.925 1.81928 2.96307 0
M  V30 1309 H 122.248 2.68586 2.96144 0
M  V30 1310 H 123.688 1.99784 3.73982 0
M  V30 1311 C 122.147 0.572095 3.32007 0
M  V30 1312 O 122.677 -0.286416 4.00678 0
M  V30 1313 N 120.883 0.424606 2.87481 0
M  V30 1314 H 120.43 1.12427 2.31771 0
M  V30 1315 H 120.388 -0.408697 3.11732 0
M  V30 1316 N 124.16 -0.719506 1.40217 0
M  V30 1317 C 125.093 -1.84298 1.34571 0
M  V30 1318 C 126.071 -1.61149 0.216741 0
M  V30 1319 O 127.255 -1.84212 0.399756 0
M  V30 1320 C 124.382 -3.20568 1.09335 0
M  V30 1321 C 123.428 -3.62551 2.24631 0
M  V30 1322 S 124.261 -3.7012 3.87004 0
M  V30 1323 C 125.417 -5.09154 3.64024 0
M  V30 1324 H 125.65 -1.88807 2.2965 0
M  V30 1325 H 123.183 -0.885901 1.26456 0
M  V30 1326 H 125.141 -3.99246 0.954602 0
M  V30 1327 H 123.802 -3.13696 0.159164 0
M  V30 1328 H 122.995 -4.61483 2.02606 0
M  V30 1329 H 122.597 -2.91119 2.34789 0
M  V30 1330 H 124.889 -5.95955 3.22248 0
M  V30 1331 H 125.832 -5.36213 4.62473 0
M  V30 1332 H 126.24 -4.79562 2.97793 0
M  V30 1333 N 125.638 -1.25649 -0.95132 0
M  V30 1334 C 126.887 -1.09988 -1.69073 0
M  V30 1335 C 127.2 0.358355 -1.92289 0
M  V30 1336 O 128.406 0.635466 -2.63958 0
M  V30 1337 C 126.862 -1.92012 -3.044 0
M  V30 1338 C 126.47 -3.42347 -2.88968 0
M  V30 1339 C 128.214 -1.8493 -3.82101 0
M  V30 1340 C 126.121 -4.16655 -4.19705 0
M  V30 1341 H 125.051 -0.407993 -0.63408 0
M  V30 1342 H 127.702 -1.49873 -1.05879 0
M  V30 1343 H 126.084 -1.44952 -3.68517 0
M  V30 1344 H 127.258 -3.97104 -2.33762 0
M  V30 1345 H 125.573 -3.50557 -2.24719 0
M  V30 1346 H 128.17 -2.37739 -4.78941 0
M  V30 1347 H 128.513 -0.817883 -4.08187 0
M  V30 1348 H 129.046 -2.29758 -3.2474 0
M  V30 1349 H 125.785 -5.20224 -3.98807 0
M  V30 1350 H 125.305 -3.66681 -4.74663 0
M  V30 1351 H 126.984 -4.24551 -4.88227 0
M  V30 1352 N 127.117 1.15442 -1.07289 0
M  V30 1353 C 128.047 2.22312 -0.714107 0
M  V30 1354 C 129.028 1.67467 0.298155 0
M  V30 1355 O 130.213 1.93445 0.171048 0
M  V30 1356 C 127.343 3.47124 -0.110448 0
M  V30 1357 C 126.297 4.14926 -1.04979 0
M  V30 1358 C 125.623 5.33807 -0.308924 0
M  V30 1359 C 126.923 4.64762 -2.38314 0
M  V30 1360 H 128.617 2.5258 -1.6076 0
M  V30 1361 H 126.163 1.21404 -0.77441 0
M  V30 1362 H 128.116 4.21124 0.152482 0
M  V30 1363 H 126.84 3.16187 0.81812 0
M  V30 1364 H 125.499 3.42866 -1.29764 0
M  V30 1365 H 125.147 4.99126 0.623084 0
M  V30 1366 H 124.847 5.80113 -0.935036 0
M  V30 1367 H 126.371 6.10576 -0.0537771 0
M  V30 1368 H 127.785 5.30292 -2.1786 0
M  V30 1369 H 126.182 5.21728 -2.96514 0
M  V30 1370 H 127.252 3.80434 -3.00663 0
M  V30 1371 N 128.595 0.856903 1.32268 0
M  V30 1372 C 129.842 0.461386 1.97174 0
M  V30 1373 C 130.17 -0.983491 1.67803 0
M  V30 1374 O 129.425 -1.70541 0.959903 0
M  V30 1375 C 129.724 0.649919 3.51441 0
M  V30 1376 C 129.39 2.0656 4.00804 0
M  V30 1377 C 128.052 2.45279 4.13995 0
M  V30 1378 C 130.404 2.98947 4.26943 0
M  V30 1379 C 127.732 3.75653 4.50668 0
M  V30 1380 C 130.084 4.28822 4.65075 0
M  V30 1381 C 128.748 4.67472 4.76472 0
M  V30 1382 H 128.018 0.168833 0.72151 0
M  V30 1383 H 130.665 1.08739 1.57633 0
M  V30 1384 H 128.97 -0.0593018 3.91755 0
M  V30 1385 H 130.667 0.32391 3.9969 0
M  V30 1386 H 127.257 1.75495 3.91024 0
M  V30 1387 H 131.441 2.70265 4.16258 0
M  V30 1388 H 126.697 4.05379 4.57688 0
M  V30 1389 H 130.871 5.0047 4.84255 0
M  V30 1390 H 128.498 5.68539 5.04646 0
M  V30 1391 N 130.073 -1.45103 0.615059 0
M  V30 1392 C 131.003 -2.33339 -0.0865619 0
M  V30 1393 C 131.984 -1.4727 -0.851209 0
M  V30 1394 O 133.169 -1.76026 -0.820281 0
M  V30 1395 C 130.299 -3.30095 -1.07956 0
M  V30 1396 C 129.253 -4.25858 -0.427628 0
M  V30 1397 C 128.579 -5.12361 -1.5294 0
M  V30 1398 C 129.879 -5.18165 0.655944 0
M  V30 1399 H 131.573 -2.92254 0.650224 0
M  V30 1400 H 129.119 -1.40532 0.314138 0
M  V30 1401 H 131.072 -3.90698 -1.57901 0
M  V30 1402 H 129.796 -2.69355 -1.84703 0
M  V30 1403 H 128.455 -3.66564 0.0510292 0
M  V30 1404 H 128.103 -4.47984 -2.28734 0
M  V30 1405 H 127.803 -5.77238 -1.09865 0
M  V30 1406 H 129.327 -5.75833 -2.03098 0
M  V30 1407 H 130.741 -5.72796 0.240257 0
M  V30 1408 H 129.138 -5.91559 1.00888 0
M  V30 1409 H 130.208 -4.60144 1.52957 0
M  V30 1410 N 131.551 -0.354651 -1.53558 0
M  V30 1411 C 132.481 0.489091 -2.2832 0
M  V30 1412 C 133.462 1.09324 -1.30316 0
M  V30 1413 O 134.647 1.11255 -1.59173 0
M  V30 1414 C 131.777 1.63456 -3.0643 0
M  V30 1415 C 130.731 1.1582 -4.12031 0
M  V30 1416 C 130.057 2.39305 -4.7816 0
M  V30 1417 C 131.357 0.250731 -5.21698 0
M  V30 1418 H 133.051 -0.134614 -2.99097 0
M  V30 1419 H 130.597 -0.0661826 -1.43848 0
M  V30 1420 H 132.55 2.23136 -3.57475 0
M  V30 1421 H 131.274 2.28533 -2.33325 0
M  V30 1422 H 129.933 0.584146 -3.61916 0
M  V30 1423 H 129.581 3.02814 -4.01637 0
M  V30 1424 H 129.281 2.08109 -5.49513 0
M  V30 1425 H 130.805 2.99691 -5.31994 0
M  V30 1426 H 132.219 0.754695 -5.68311 0
M  V30 1427 H 130.616 0.0301468 -6.00092 0
M  V30 1428 H 131.686 -0.710125 -4.79672 0
M  V30 1429 N 133.029 1.57378 -0.0835403 0
M  V30 1430 C 133.992 2.12252 0.864959 0
M  V30 1431 C 134.992 1.04916 1.21858 0
M  V30 1432 O 136.182 1.30853 1.14991 0
M  V30 1433 C 133.314 2.63358 2.16461 0
M  V30 1434 H 134.507 2.97371 0.388676 0
M  V30 1435 H 132.06 1.55423 0.165317 0
M  V30 1436 H 132.795 1.81727 2.686 0
M  V30 1437 H 132.58 3.41826 1.92087 0
M  V30 1438 H 134.07 3.05847 2.84337 0
M  V30 1439 N 134.507 -0.190092 1.56449 0
M  V30 1440 C 135.754 -0.909705 1.80916 0
M  V30 1441 C 136.082 -1.83047 0.657583 0
M  V30 1442 O 135.337 -1.92428 -0.356356 0
M  V30 1443 C 135.636 -1.75382 3.1141 0
M  V30 1444 C 135.302 -0.983606 4.40041 0
M  V30 1445 C 133.964 -0.770967 4.74984 0
M  V30 1446 C 136.316 -0.442024 5.19322 0
M  V30 1447 C 133.644 -0.0053448 5.867 0
M  V30 1448 C 135.996 0.310412 6.31838 0
M  V30 1449 C 134.66 0.534023 6.6536 0
M  V30 1450 H 133.93 -0.332885 0.662019 0
M  V30 1451 H 136.577 -0.175762 1.90692 0
M  V30 1452 H 134.882 -2.55659 2.96893 0
M  V30 1453 H 136.579 -2.31331 3.27547 0
M  V30 1454 H 133.169 -1.15936 4.12622 0
M  V30 1455 H 137.353 -0.593693 4.92736 0
M  V30 1456 H 132.609 0.177825 6.11141 0
M  V30 1457 H 136.783 0.737419 6.92485 0
M  V30 1458 H 134.41 1.12918 7.51767 0
M  V30 1459 N 135.985 -1.50799 -0.457987 0
M  V30 1460 C 136.915 -1.73553 -1.5621 0
M  V30 1461 C 137.896 -0.584774 -1.59732 0
M  V30 1462 O 139.081 -0.825314 -1.7579 0
M  V30 1463 C 136.211 -1.84169 -2.94447 0
M  V30 1464 C 135.165 -2.99461 -3.0579 0
M  V30 1465 C 134.491 -2.95235 -4.45803 0
M  V30 1466 C 135.791 -4.39766 -2.81786 0
M  V30 1467 H 137.485 -2.66 -1.37421 0
M  V30 1468 H 135.031 -1.28002 -0.659662 0
M  V30 1469 H 136.984 -1.98672 -3.71628 0
M  V30 1470 H 135.708 -0.883545 -3.14422 0
M  V30 1471 H 134.367 -2.8463 -2.31044 0
M  V30 1472 H 134.015 -1.97239 -4.62715 0
M  V30 1473 H 133.715 -3.72642 -4.54326 0
M  V30 1474 H 135.239 -3.11803 -5.24987 0
M  V30 1475 H 136.653 -4.55054 -3.4871 0
M  V30 1476 H 135.05 -5.18722 -3.0174 0
M  V30 1477 H 136.12 -4.51229 -1.7754 0
M  V30 1478 N 137.463 0.71206 -1.40597 0
M  V30 1479 C 138.393 1.83889 -1.43899 0
M  V30 1480 C 139.374 1.67442 -0.299504 0
M  V30 1481 O 140.559 1.87421 -0.508624 0
M  V30 1482 C 137.689 3.21877 -1.30431 0
M  V30 1483 C 136.643 3.53002 -2.42019 0
M  V30 1484 C 135.969 4.90172 -2.13626 0
M  V30 1485 C 137.269 3.53643 -3.84362 0
M  V30 1486 H 138.963 1.81383 -2.38203 0
M  V30 1487 H 136.509 0.871237 -1.14654 0
M  V30 1488 H 138.462 4.00404 -1.31357 0
M  V30 1489 H 137.186 3.24968 -0.326049 0
M  V30 1490 H 135.845 2.76818 -2.40349 0
M  V30 1491 H 135.493 4.89869 -1.14182 0
M  V30 1492 H 135.193 5.11962 -2.88389 0
M  V30 1493 H 136.717 5.71028 -2.1624 0
M  V30 1494 H 138.131 4.22203 -3.87837 0
M  V30 1495 H 136.528 3.86961 -4.58673 0
M  V30 1496 H 137.598 2.52954 -4.13693 0
M  V30 1497 N 138.941 1.26152 0.944643 0
M  V30 1498 C 140.188 1.11492 1.69044 0
M  V30 1499 C 140.516 -0.342366 1.91463 0
M  V30 1500 O 139.771 -1.26812 1.49054 0
M  V30 1501 C 140.07 1.82541 3.07268 0
M  V30 1502 C 139.736 3.32445 3.04616 0
M  V30 1503 C 138.398 3.73337 3.036 0
M  V30 1504 C 140.75 4.28171 2.97185 0
M  V30 1505 C 138.078 5.08348 2.92915 0
M  V30 1506 C 140.43 5.63218 2.88041 0
M  V30 1507 C 139.094 6.03426 2.85366 0
M  V30 1508 H 138.364 0.407977 0.618576 0
M  V30 1509 H 141.011 1.56551 1.10291 0
M  V30 1510 H 139.316 1.29941 3.69625 0
M  V30 1511 H 141.013 1.68642 3.63815 0
M  V30 1512 H 137.603 2.99915 3.06185 0
M  V30 1513 H 141.787 3.97563 2.97081 0
M  V30 1514 H 137.043 5.38667 2.89219 0
M  V30 1515 H 141.217 6.37078 2.81254 0
M  V30 1516 H 138.844 7.07999 2.76842 0
M  V30 1517 N 140.419 -1.14872 1.07899 0
M  V30 1518 C 141.659 -1.8745 0.814965 0
M  V30 1519 C 142.023 -1.80758 -0.64733 0
M  V30 1520 O 143.224 -2.48422 -1.02664 0
M  V30 1521 C 141.495 -3.32286 1.31607 0
M  V30 1522 S 143.054 -4.22537 1.18357 0
M  V30 1523 H 139.872 -0.646833 0.295174 0
M  V30 1524 H 142.474 -1.38555 1.37923 0
M  V30 1525 H 141.178 -3.34703 2.37491 0
M  V30 1526 H 140.709 -3.86238 0.747261 0
M  V30 1527 H 142.724 -4.96044 0.124586 0
M  V30 1528 N 141.898 -0.863906 -1.31812 0
M  V30 1529 C 143.146 -0.470904 -1.96537 0
M  V30 1530 C 143.467 0.978771 -1.68657 0
M  V30 1531 O 142.737 1.6853 -0.998717 0
M  V30 1532 H 141.317 -0.171148 -0.72713 0
M  V30 1533 H 143.979 -1.10236 -1.60729 0
M  V30 1534 H 143.075 -0.623616 -3.05806 0
M  V30 1535 N 143.376 1.44774 -0.622745 0
M  V30 1536 C 144.306 2.33382 0.0741861 0
M  V30 1537 C 145.287 1.47719 0.843387 0
M  V30 1538 O 146.472 1.76458 0.810934 0
M  V30 1539 C 143.602 3.30663 1.06204 0
M  V30 1540 C 142.556 4.26079 0.405037 0
M  V30 1541 C 141.882 5.13165 1.5022 0
M  V30 1542 C 143.182 5.1781 -0.683414 0
M  V30 1543 H 144.876 2.91905 -0.665713 0
M  V30 1544 H 142.422 1.40363 -0.321587 0
M  V30 1545 H 144.375 3.9153 1.55827 0
M  V30 1546 H 143.099 2.70331 1.83272 0
M  V30 1547 H 141.758 3.66532 -0.0704683 0
M  V30 1548 H 141.406 4.49191 2.26355 0
M  V30 1549 H 141.106 5.77812 1.06803 0
M  V30 1550 H 142.63 5.76902 2.00041 0
M  V30 1551 H 144.044 5.72661 -0.270631 0
M  V30 1552 H 142.441 5.91015 -1.04023 0
M  V30 1553 H 143.511 4.59326 -1.55395 0
M  V30 1554 N 144.854 0.36279 1.53368 0
M  V30 1555 C 145.784 -0.476976 2.28576 0
M  V30 1556 C 146.765 -1.08631 1.30894 0
M  V30 1557 O 147.95 -1.10409 1.59761 0
M  V30 1558 C 145.08 -1.61828 3.07293 0
M  V30 1559 C 144.034 -1.13633 4.1264 0
M  V30 1560 C 143.36 -2.36766 4.79423 0
M  V30 1561 C 144.66 -0.223061 5.21823 0
M  V30 1562 H 146.354 0.150474 2.99022 0
M  V30 1563 H 143.9 0.0738103 1.43811 0
M  V30 1564 H 145.853 -2.21237 3.58653 0
M  V30 1565 H 144.577 -2.27292 2.34533 0
M  V30 1566 H 143.236 -0.564945 3.62221 0
M  V30 1567 H 142.884 -3.0068 4.03238 0
M  V30 1568 H 142.584 -2.05192 5.50609 0
M  V30 1569 H 144.108 -2.96865 5.33576 0
M  V30 1570 H 145.522 -0.724545 5.68703 0
M  V30 1571 H 143.919 0.001678 6.001 0
M  V30 1572 H 144.989 0.735553 4.79289 0
M  V30 1573 N 146.332 -1.57332 0.0918853 0
M  V30 1574 C 147.579 -1.94236 -0.572577 0
M  V30 1575 C 147.907 -0.973398 -1.6839 0
M  V30 1576 O 147.162 0.00756912 -1.95699 0
M  V30 1577 C 147.461 -3.37689 -1.17051 0
M  V30 1578 C 147.127 -4.50527 -0.183304 0
M  V30 1579 C 145.789 -4.81119 0.0882276 0
M  V30 1580 C 148.141 -5.18883 0.49095 0
M  V30 1581 C 145.469 -5.77395 1.04076 0
M  V30 1582 C 147.821 -6.1618 1.43193 0
M  V30 1583 C 146.485 -6.45179 1.71173 0
M  V30 1584 H 145.755 -0.710762 -0.209521 0
M  V30 1585 H 148.402 -1.9077 0.167036 0
M  V30 1586 H 146.707 -3.37718 -1.9863 0
M  V30 1587 H 148.404 -3.63543 -1.69227 0
M  V30 1588 H 144.994 -4.26681 -0.405124 0
M  V30 1589 H 149.178 -4.95427 0.294312 0
M  V30 1590 H 144.434 -5.98179 1.26457 0
M  V30 1591 H 148.608 -6.68243 1.96023 0
M  V30 1592 H 146.235 -7.1959 2.4514 0
M  V30 1593 N 147.81 0.181792 -1.56548 0
M  V30 1594 C 149.04 0.914618 -1.85252 0
M  V30 1595 C 149.448 1.76791 -0.673914 0
M  V30 1596 O 148.791 1.80009 0.366416 0
M  V30 1597 C 148.853 1.85019 -3.08234 0
M  V30 1598 C 148.517 1.17754 -4.41569 0
M  V30 1599 C 149.514 0.548035 -5.17003 0
M  V30 1600 C 147.199 1.17742 -4.88305 0
M  V30 1601 C 149.193 -0.0726128 -6.37359 0
M  V30 1602 C 146.88 0.552946 -6.08593 0
M  V30 1603 C 147.878 -0.070978 -6.82963 0
M  V30 1604 O 147.566 -0.685635 -8.00971 0
M  V30 1605 H 147.298 0.271695 -0.618998 0
M  V30 1606 H 149.852 0.189944 -2.0452 0
M  V30 1607 H 148.082 2.61491 -2.84885 0
M  V30 1608 H 149.771 2.45195 -3.23472 0
M  V30 1609 H 150.537 0.540174 -4.81982 0
M  V30 1610 H 146.416 1.65246 -4.30366 0
M  V30 1611 H 149.96 -0.560213 -6.95347 0
M  V30 1612 H 145.857 0.558354 -6.43081 0
M  V30 1613 H 146.625 -0.58385 -8.16415 0
M  V30 1614 N 149.288 1.51039 0.449983 0
M  V30 1615 C 150.537 1.62317 1.19733 0
M  V30 1616 C 150.85 0.339101 1.92638 0
M  V30 1617 O 152.056 0.331069 2.69474 0
M  V30 1618 C 150.512 2.86608 2.17678 0
M  V30 1619 C 150.12 4.21972 1.50479 0
M  V30 1620 C 151.864 3.07239 2.92924 0
M  V30 1621 C 149.771 5.37426 2.46834 0
M  V30 1622 H 148.701 0.604532 0.450619 0
M  V30 1623 H 151.352 1.77494 0.465625 0
M  V30 1624 H 149.734 2.65037 2.94231 0
M  V30 1625 H 150.908 4.53878 0.795716 0
M  V30 1626 H 149.223 4.07117 0.874344 0
M  V30 1627 H 151.82 3.90668 3.65079 0
M  V30 1628 H 152.163 2.19807 3.5354 0
M  V30 1629 H 152.696 3.29091 2.23481 0
M  V30 1630 H 149.435 6.27079 1.90926 0
M  V30 1631 H 148.955 5.09912 3.15832 0
M  V30 1632 H 150.634 5.68862 3.08228 0
M  V30 1633 N 150.766 -0.704594 1.40972 0
M  V30 1634 C 151.714 -1.83994 1.42299 0
M  V30 1635 C 152.708 -1.66684 0.302111 0
M  V30 1636 O 153.914 -1.73655 0.473697 0
M  V30 1637 H 150.289 -0.606171 0.44504 0
M  V30 1638 H 152.26 -1.79992 2.38003 0
M  V30 1639 C 151.009 -3.21946 1.31323 0
M  V30 1640 H 150.332 -3.35878 2.16855 0
M  V30 1641 H 151.772 -4.01491 1.36311 0
M  V30 1642 C 150.231 -3.36891 0.0245977 0
M  V30 1643 O 150.761 -3.90687 -0.934153 0
M  V30 1644 N 148.967 -2.90559 -0.0485243 0
M  V30 1645 H 148.514 -2.46968 0.732419 0
M  V30 1646 H 148.472 -3.00937 -0.910171 0
M  V30 1647 N 152.244 -1.26651 -0.937939 0
M  V30 1648 C 153.174 -1.10993 -2.05433 0
M  V30 1649 C 154.155 -0.0142161 -1.70094 0
M  V30 1650 O 155.34 -0.186837 -1.93299 0
M  V30 1651 C 152.47 -0.745561 -3.39203 0
M  V30 1652 C 151.424 -1.79337 -3.88616 0
M  V30 1653 C 150.75 -1.28324 -5.19073 0
M  V30 1654 C 152.05 -3.19553 -4.13138 0
M  V30 1655 H 153.744 -2.0438 -2.1879 0
M  V30 1656 H 151.29 -0.984041 -1.05131 0
M  V30 1657 H 153.243 -0.622888 -4.16771 0
M  V30 1658 H 151.967 0.22401 -3.25831 0
M  V30 1659 H 150.626 -1.90477 -3.13231 0
M  V30 1660 H 150.274 -0.303414 -5.02084 0
M  V30 1661 H 149.974 -1.98369 -5.53103 0
M  V30 1662 H 151.498 -1.1733 -5.99221 0
M  V30 1663 H 152.912 -3.11471 -4.81309 0
M  V30 1664 H 151.309 -3.87218 -4.58457 0
M  V30 1665 H 152.379 -3.65368 -3.18801 0
M  V30 1666 N 153.722 1.14298 -1.08507 0
M  V30 1667 C 154.685 2.17607 -0.719711 0
M  V30 1668 C 155.685 1.58907 0.245997 0
M  V30 1669 O 156.875 1.74181 0.0254081 0
M  V30 1670 C 154.007 3.40842 -0.0627695 0
M  V30 1671 H 155.2 2.51443 -1.63452 0
M  V30 1672 H 152.753 1.28963 -0.88307 0
M  V30 1673 H 153.488 3.12587 0.863716 0
M  V30 1674 H 153.273 3.84713 -0.757504 0
M  V30 1675 H 154.763 4.17221 0.177786 0
M  V30 1676 N 155.201 0.870884 1.31352 0
M  V30 1677 C 156.478 0.402907 1.91405 0
M  V30 1678 C 156.858 -1.11512 1.79244 0
M  V30 1679 O 156.206 -1.94411 1.2007 0
M  V30 1680 C 156.416 0.885301 3.37585 0
M  V30 1681 C 157.764 0.911971 4.14691 0
M  V30 1682 O 158.788 0.831016 3.46371 0
M  V30 1683 O 157.647 1.02927 5.3672 0
M  V30 1684 H 154.741 0.120698 0.818145 0
M  V30 1685 H 157.287 0.958857 1.40014 0
M  V30 1686 H 156.059 1.92889 3.40455 0
M  V30 1687 H 155.682 0.307714 3.96407 0
M  V30 1688 N 156.679 -1.44442 0.630414 0
M  V30 1689 C 157.629 -2.27794 -0.0968103 0
M  V30 1690 C 158.613 -1.38624 -0.816834 0
M  V30 1691 O 159.805 -1.62438 -0.70306 0
M  V30 1692 C 156.934 -3.25929 -1.07819 0
M  V30 1693 C 156.02 -4.22588 -0.357826 0
M  V30 1694 N 156.411 -5.0207 0.613169 0
M  V30 1695 C 154.709 -4.41914 -0.602365 0
M  V30 1696 C 155.41 -5.72351 1.03871 0
M  V30 1697 N 154.386 -5.42287 0.377642 0
M  V30 1698 H 158.188 -2.86653 0.648621 0
M  V30 1699 H 155.702 -1.55871 0.455862 0
M  V30 1700 H 157.699 -3.84399 -1.61378 0
M  V30 1701 H 156.359 -2.68631 -1.82393 0
M  V30 1702 H 157.37 -5.08331 0.990947 0
M  V30 1703 H 154.047 -3.95714 -1.33103 0
M  V30 1704 H 155.437 -6.4619 1.84086 0
M  V30 1705 N 158.157 -0.370918 -1.53173 0
M  V30 1706 C 159.403 0.209976 -2.02313 0
M  V30 1707 C 159.758 1.45987 -1.25322 0
M  V30 1708 O 159.051 1.8856 -0.339965 0
M  V30 1709 C 159.245 0.549696 -3.53147 0
M  V30 1710 C 159.074 -0.665721 -4.44745 0
M  V30 1711 C 157.844 -1.17942 -4.91343 0
M  V30 1712 C 160.042 -1.53255 -4.90935 0
M  V30 1713 N 158.024 -2.35431 -5.66962 0
M  V30 1714 C 159.395 -2.55403 -5.64951 0
M  V30 1715 C 161.45 -1.5548 -4.73002 0
M  V30 1716 C 160.153 -3.5964 -6.22938 0
M  V30 1717 C 162.179 -2.58613 -5.31858 0
M  V30 1718 C 161.541 -3.59485 -6.05764 0
M  V30 1719 H 157.64 0.0394095 -0.781006 0
M  V30 1720 H 160.224 -0.516666 -1.8772 0
M  V30 1721 H 158.395 1.24541 -3.67891 0
M  V30 1722 H 160.127 1.11614 -3.89004 0
M  V30 1723 H 156.882 -0.743228 -4.67732 0
M  V30 1724 H 157.306 -2.94827 -6.09431 0
M  V30 1725 H 161.948 -0.788457 -4.15383 0
M  V30 1726 H 159.666 -4.37153 -6.79649 0
M  V30 1727 H 163.252 -2.61195 -5.19873 0
M  V30 1728 H 162.132 -4.3798 -6.50495 0
M  V30 1729 N 159.635 1.57281 -0.100228 0
M  V30 1730 C 160.582 2.14305 0.856858 0
M  V30 1731 C 161.552 1.06296 1.27634 0
M  V30 1732 O 162.737 1.34109 1.35718 0
M  V30 1733 C 159.877 2.73184 2.10866 0
M  V30 1734 C 158.99 3.95442 1.73925 0
M  V30 1735 C 158.125 4.42468 2.93931 0
M  V30 1736 C 157.164 5.57303 2.5314 0
M  V30 1737 N 156.301 5.99158 3.65997 0
M  V30 1738 H 161.141 2.95772 0.363726 0
M  V30 1739 H 158.678 1.46139 0.167858 0
M  V30 1740 H 160.636 3.05442 2.84185 0
M  V30 1741 H 159.266 1.94437 2.57671 0
M  V30 1742 H 158.318 3.69464 0.905554 0
M  V30 1743 H 159.63 4.78769 1.39935 0
M  V30 1744 H 158.784 4.76537 3.75496 0
M  V30 1745 H 157.523 3.58052 3.31134 0
M  V30 1746 H 156.528 5.22857 1.70003 0
M  V30 1747 H 157.753 6.43471 2.17075 0
M  V30 1748 H 155.699 5.17687 4.02909 0
M  V30 1749 H 155.616 6.77295 3.35869 0
M  V30 1750 H 156.884 6.3786 4.48057 0
M  V30 1751 N 161.113 -0.173488 1.56642 0
M  V30 1752 C 162.076 -1.19859 1.95362 0
M  V30 1753 C 163.076 -1.37296 0.83704 0
M  V30 1754 O 164.266 -1.34739 1.10413 0
M  V30 1755 C 161.398 -2.56405 2.24654 0
M  V30 1756 H 162.591 -0.867062 2.87092 0
M  V30 1757 H 160.144 -0.415853 1.50666 0
M  V30 1758 H 160.879 -2.94576 1.35631 0
M  V30 1759 H 160.664 -2.45115 3.06041 0
M  V30 1760 H 162.154 -3.30287 2.5554 0
M  V30 1761 N 162.591 -1.51276 -0.441967 0
M  V30 1762 C 163.521 -1.752 -1.54361 0
M  V30 1763 C 164.502 -0.601682 -1.59103 0
M  V30 1764 O 165.687 -0.843913 -1.74905 0
M  V30 1765 C 162.817 -1.87282 -2.92477 0
M  V30 1766 C 161.771 -3.02687 -3.02596 0
M  V30 1767 C 161.097 -2.99947 -4.42647 0
M  V30 1768 C 162.397 -4.4273 -2.77106 0
M  V30 1769 H 164.091 -2.67442 -1.34592 0
M  V30 1770 H 161.637 -1.28694 -0.646048 0
M  V30 1771 H 163.59 -2.02602 -3.695 0
M  V30 1772 H 162.314 -0.916844 -3.13467 0
M  V30 1773 H 160.973 -2.87065 -2.28012 0
M  V30 1774 H 160.621 -2.02136 -4.60597 0
M  V30 1775 H 160.321 -3.77439 -4.50348 0
M  V30 1776 H 161.845 -3.17354 -5.2165 0
M  V30 1777 H 163.259 -4.58727 -3.43864 0
M  V30 1778 H 161.656 -5.21893 -2.96222 0
M  V30 1779 H 162.726 -4.53087 -1.72744 0
M  V30 1780 N 164.069 0.697108 -1.41344 0
M  V30 1781 C 165.032 1.79281 -1.42797 0
M  V30 1782 C 166.032 1.57607 -0.318837 0
M  V30 1783 O 167.222 1.64309 -0.578642 0
M  V30 1784 C 164.354 3.17632 -1.23785 0
M  V30 1785 H 165.547 1.79385 -2.40335 0
M  V30 1786 H 163.1 0.904582 -1.27464 0
M  V30 1787 H 163.835 3.23167 -0.270814 0
M  V30 1788 H 163.62 3.34765 -2.04144 0
M  V30 1789 H 165.11 3.97617 -1.27633 0
M  V30 1790 N 165.547 1.27147 0.931209 0
M  V30 1791 C 166.794 1.13278 1.67852 0
M  V30 1792 C 167.122 -0.32204 1.91815 0
M  V30 1793 O 166.377 -1.25224 1.50391 0
M  V30 1794 C 166.676 1.8579 3.05314 0
M  V30 1795 C 166.342 3.35657 3.01073 0
M  V30 1796 C 165.004 3.76536 2.99623 0
M  V30 1797 C 167.356 4.31299 2.92627 0
M  V30 1798 C 164.684 5.11426 2.87506 0
M  V30 1799 C 167.036 5.66242 2.82051 0
M  V30 1800 C 165.7 6.06418 2.7895 0
M  V30 1801 H 164.97 0.414515 0.614214 0
M  V30 1802 H 167.617 1.57712 1.08624 0
M  V30 1803 H 165.922 1.33854 3.68226 0
M  V30 1804 H 167.619 1.72491 3.62005 0
M  V30 1805 H 164.209 3.03146 3.02986 0
M  V30 1806 H 168.393 4.00692 2.92848 0
M  V30 1807 H 163.649 5.41705 2.83489 0
M  V30 1808 H 167.823 6.40026 2.74481 0
M  V30 1809 H 165.45 7.10895 2.69318 0
M  V30 1810 N 167.025 -1.13721 1.09112 0
M  V30 1811 C 168.441 -1.36914 0.820174 0
M  V30 1812 C 168.641 -1.93356 -0.567079 0
M  V30 1813 O 167.697 -2.15093 -1.32255 0
M  V30 1814 C 169.01 -2.3235 1.90877 0
M  V30 1815 C 170.558 -2.45973 1.93562 0
M  V30 1816 C 171.033 -3.44714 3.01556 0
M  V30 1817 N 172.524 -3.52263 3.00775 0
M  V30 1818 C 173.259 -4.28536 3.80978 0
M  V30 1819 N 172.755 -5.07991 4.71081 0
M  V30 1820 N 174.548 -4.23804 3.69251 0
M  V30 1821 H 166.699 -0.754348 1.98553 0
M  V30 1822 H 168.962 -0.3944 0.862063 0
M  V30 1823 H 168.668 -1.98027 2.90651 0
M  V30 1824 H 168.542 -3.32332 1.78424 0
M  V30 1825 H 170.929 -2.79584 0.944286 0
M  V30 1826 H 171.01 -1.45926 2.10093 0
M  V30 1827 H 170.654 -3.11835 4.00901 0
M  V30 1828 H 170.584 -4.44558 2.82269 0
M  V30 1829 H 173.075 -2.95567 2.35475 0
M  V30 1830 H 173.388 -5.63487 5.28869 0
M  V30 1831 H 171.733 -5.07235 4.75119 0
M  V30 1832 H 174.924 -3.60806 2.98222 0
M  V30 1833 H 175.097 -4.82995 4.31995 0
M  V30 1834 N 168.503 -0.877838 -1.30888 0
M  V30 1835 C 169.433 -0.35534 -2.3078 0
M  V30 1836 C 170.414 0.557994 -1.60687 0
M  V30 1837 O 171.599 0.473355 -1.88343 0
M  V30 1838 C 168.729 0.437221 -3.44537 0
M  V30 1839 C 167.683 -0.383715 -4.26276 0
M  V30 1840 C 167.009 0.535014 -5.32017 0
M  V30 1841 C 168.309 -1.62201 -4.96476 0
M  V30 1842 H 170.003 -1.19007 -2.74732 0
M  V30 1843 H 167.549 -0.573698 -1.32078 0
M  V30 1844 H 169.502 0.813334 -4.13477 0
M  V30 1845 H 168.226 1.30553 -2.99372 0
M  V30 1846 H 166.885 -0.741874 -3.59015 0
M  V30 1847 H 166.533 1.40083 -4.831 0
M  V30 1848 H 166.233 -0.0104211 -5.87599 0
M  V30 1849 H 167.757 0.907799 -6.03814 0
M  V30 1850 H 169.171 -1.31689 -5.5797 0
M  V30 1851 H 167.568 -2.10711 -5.61891 0
M  V30 1852 H 168.638 -2.37044 -4.23011 0
M  V30 1853 N 169.982 1.44106 -0.638065 0
M  V30 1854 C 170.892 2.34513 0.0637334 0
M  V30 1855 C 171.908 1.53018 0.828346 0
M  V30 1856 O 173.084 1.85723 0.779036 0
M  V30 1857 C 170.149 3.31095 1.02844 0
M  V30 1858 C 169.21 4.28497 0.26244 0
M  V30 1859 C 168.443 5.20465 1.1812 0
M  V30 1860 O 168.666 5.16514 2.42011 0
M  V30 1861 O 167.6 5.98251 0.661774 0
M  V30 1862 H 171.426 2.95989 -0.68003 0
M  V30 1863 H 169.011 1.43994 -0.398252 0
M  V30 1864 H 170.893 3.90526 1.58327 0
M  V30 1865 H 169.568 2.72144 1.7527 0
M  V30 1866 H 168.475 3.72592 -0.335602 0
M  V30 1867 H 169.808 4.90388 -0.421936 0
M  V30 1868 N 171.46 0.379036 1.52974 0
M  V30 1869 C 172.37 -0.468639 2.29872 0
M  V30 1870 C 173.386 -1.08067 1.36373 0
M  V30 1871 O 174.562 -1.08871 1.69438 0
M  V30 1872 C 171.627 -1.58594 3.083 0
M  V30 1873 C 170.688 -1.00007 4.17489 0
M  V30 1874 C 169.921 -2.06413 4.92168 0
M  V30 1875 O 170.144 -3.27751 4.66835 0
M  V30 1876 O 169.078 -1.68717 5.7777 0
M  V30 1877 H 172.904 0.157508 3.03291 0
M  V30 1878 H 170.489 0.143035 1.48714 0
M  V30 1879 H 172.371 -2.23525 3.57232 0
M  V30 1880 H 171.046 -2.19724 2.37703 0
M  V30 1881 H 169.953 -0.314299 3.72777 0
M  V30 1882 H 171.286 -0.433135 4.90291 0
M  V30 1883 N 172.938 -1.57226 0.108567 0
M  V30 1884 C 173.848 -2.18292 -0.859401 0
M  V30 1885 C 174.864 -1.15612 -1.30038 0
M  V30 1886 O 176.04 -1.48039 -1.36552 0
M  V30 1887 C 173.105 -2.762 -2.09558 0
M  V30 1888 C 172.166 -3.93881 -1.70752 0
M  V30 1889 C 171.399 -4.49018 -2.88477 0
M  V30 1890 O 171.622 -4.03068 -4.036 0
M  V30 1891 O 170.556 -5.39852 -2.66164 0
M  V30 1892 H 174.382 -3.01441 -0.369769 0
M  V30 1893 H 171.967 -1.48945 -0.1165 0
M  V30 1894 H 173.849 -3.13156 -2.81978 0
M  V30 1895 H 172.524 -1.96089 -2.57548 0
M  V30 1896 H 171.431 -3.61713 -0.954714 0
M  V30 1897 H 172.764 -4.75396 -1.27513 0
M  V30 1898 N 174.416 0.165178 -1.56732 0
M  V30 1899 C 175.348 1.22911 -1.93457 0
M  V30 1900 C 176.361 1.40152 -0.828333 0
M  V30 1901 O 177.55 1.40046 -1.10677 0
M  V30 1902 C 174.65 2.59686 -2.17753 0
M  V30 1903 C 173.823 2.63663 -3.48999 0
M  V30 1904 C 172.882 3.81845 -3.62051 0
M  V30 1905 O 171.908 3.67559 -4.34613 0
M  V30 1906 N 173.11 4.98557 -2.97357 0
M  V30 1907 H 175.875 0.917118 -2.85323 0
M  V30 1908 H 173.436 0.354895 -1.57962 0
M  V30 1909 H 175.428 3.37225 -2.23743 0
M  V30 1910 H 173.998 2.83251 -1.32242 0
M  V30 1911 H 173.218 1.72173 -3.54612 0
M  V30 1912 H 174.506 2.63336 -4.35352 0
M  V30 1913 H 173.904 5.13065 -2.38287 0
M  V30 1914 H 172.461 5.73936 -3.08934 0
M  V30 1915 N 175.894 1.51508 0.433938 0
M  V30 1916 C 176.841 1.73068 1.52696 0
M  V30 1917 C 177.811 0.572441 1.55924 0
M  V30 1918 O 178.996 0.807253 1.72882 0
M  V30 1919 C 176.136 1.86474 2.90381 0
M  V30 1920 C 175.249 3.14037 2.96656 0
M  V30 1921 C 174.384 3.18019 4.25485 0
M  V30 1922 C 173.423 4.39882 4.2564 0
M  V30 1923 N 172.56 4.41394 5.45999 0
M  V30 1924 H 177.4 2.66366 1.33615 0
M  V30 1925 H 174.937 1.32008 0.649018 0
M  V30 1926 H 176.895 1.92229 3.70275 0
M  V30 1927 H 175.525 0.965809 3.08013 0
M  V30 1928 H 174.577 3.17575 2.09404 0
M  V30 1929 H 175.889 4.0394 2.92633 0
M  V30 1930 H 175.043 3.22708 5.13755 0
M  V30 1931 H 173.782 2.2601 4.3217 0
M  V30 1932 H 172.787 4.35366 3.35763 0
M  V30 1933 H 174.012 5.33159 4.20617 0
M  V30 1934 H 171.958 3.52258 5.53399 0
M  V30 1935 H 171.875 5.25111 5.4387 0
M  V30 1936 H 173.143 4.50281 6.36292 0
M  V30 1937 N 177.372 -0.689602 1.41712 0
M  V30 1938 C 178.305 -1.81403 1.3845 0
M  V30 1939 C 179.283 -1.60653 0.250874 0
M  V30 1940 O 180.467 -1.83323 0.43874 0
M  V30 1941 C 177.594 -3.18176 1.1611 0
M  V30 1942 C 176.64 -3.57705 2.3227 0
M  V30 1943 S 177.473 -3.61827 3.94767 0
M  V30 1944 C 178.629 -5.01318 3.74742 0
M  V30 1945 H 178.862 -1.83893 2.33603 0
M  V30 1946 H 176.395 -0.858878 1.28307 0
M  V30 1947 H 178.353 -3.97132 1.03907 0
M  V30 1948 H 177.014 -3.13288 0.225668 0
M  V30 1949 H 176.207 -4.57082 2.12349 0
M  V30 1950 H 175.809 -2.86073 2.40911 0
M  V30 1951 H 178.101 -5.88986 3.34817 0
M  V30 1952 H 179.044 -5.26283 4.73743 0
M  V30 1953 H 179.452 -4.73138 3.07898 0
M  V30 1954 N 178.85 -1.27639 -0.924453 0
M  V30 1955 C 180.266 -1.05113 -1.20097 0
M  V30 1956 C 180.466 0.213262 -2.00368 0
M  V30 1957 O 179.522 0.91787 -2.35226 0
M  V30 1958 C 180.835 -2.29244 -1.94596 0
M  V30 1959 C 182.383 -2.34315 -2.07522 0
M  V30 1960 C 182.858 -3.58183 -2.85427 0
M  V30 1961 N 184.349 -3.5876 -2.92994 0
M  V30 1962 C 185.084 -4.51277 -3.53746 0
M  V30 1963 N 184.58 -5.54102 -4.15863 0
M  V30 1964 N 186.373 -4.38894 -3.51181 0
M  V30 1965 H 178.524 -2.08821 -0.388264 0
M  V30 1966 H 180.787 -0.918568 -0.234385 0
M  V30 1967 H 180.493 -3.21301 -1.43034 0
M  V30 1968 H 180.367 -2.34816 -2.95197 0
M  V30 1969 H 182.754 -1.42762 -2.58269 0
M  V30 1970 H 182.835 -2.32744 -1.06131 0
M  V30 1971 H 182.479 -4.50074 -2.35363 0
M  V30 1972 H 182.409 -3.57006 -3.8711 0
M  V30 1973 H 184.9 -2.84398 -2.4885 0
M  V30 1974 H 185.213 -6.20859 -4.60168 0
M  V30 1975 H 183.558 -5.57941 -4.144 0
M  V30 1976 H 186.749 -3.57772 -3.01856 0
M  V30 1977 H 186.922 -5.11186 -3.98237 0
M  V30 1978 N 180.328 1.1314 -1.09713 0
M  V30 1979 C 181.739 1.66029 -0.853885 0
M  V30 1980 C 182.09 1.86241 0.617142 0
M  V30 1981 O 181.215 1.5834 1.47503 0
M  V30 1982 C 181.81 3.01599 -1.5435 0
M  V30 1983 C 180.369 3.51467 -1.34714 0
M  V30 1984 C 179.516 2.26648 -1.59769 0
M  V30 1985 H 182.467 0.970226 -1.25588 0
M  V30 1986 H 182.488 3.67709 -0.978267 0
M  V30 1987 H 182 2.86856 -2.6141 0
M  V30 1988 H 180.101 3.71408 -0.297838 0
M  V30 1989 H 180.214 4.314 -2.08401 0
M  V30 1990 H 178.578 2.33385 -1.01998 0
M  V30 1991 H 179.361 2.14467 -2.68065 0
M  V30 1992 N 181.806 0.884767 1.30421 0
M  V30 1993 C 182.716 0.355398 2.31892 0
M  V30 1994 C 183.732 -0.542261 1.65335 0
M  V30 1995 O 184.908 -0.435432 1.96637 0
M  V30 1996 C 181.973 -0.421661 3.44126 0
M  V30 1997 C 181.034 0.505727 4.26311 0
M  V30 1998 C 180.267 -0.234343 5.33185 0
M  V30 1999 O 180.49 -1.46045 5.51386 0
M  V30 2000 O 179.424 0.415443 6.00465 0
M  V30 2001 H 183.25 1.19685 2.79122 0
M  V30 2002 H 180.835 0.648596 1.34587 0
M  V30 2003 H 182.717 -0.861641 4.12497 0
M  V30 2004 H 181.392 -1.23942 2.99032 0
M  V30 2005 H 180.299 0.994513 3.60639 0
M  V30 2006 H 181.632 1.28948 4.75009 0
M  V30 2007 N 183.284 -1.43765 0.645699 0
M  V30 2008 C 184.533 -2.01116 0.153412 0
M  V30 2009 C 184.846 -1.51493 -1.23731 0
M  V30 2010 O 186.052 -2.01067 -1.8244 0
M  V30 2011 C 184.508 -3.59206 0.223473 0
M  V30 2012 C 184.116 -4.17823 1.61642 0
M  V30 2013 C 185.86 -4.23972 -0.211597 0
M  V30 2014 C 183.767 -5.68183 1.64081 0
M  V30 2015 H 182.697 -0.752093 0.0535891 0
M  V30 2016 H 185.348 -1.6482 0.806633 0
M  V30 2017 H 183.73 -3.92867 -0.497118 0
M  V30 2018 H 184.904 -3.95674 2.36176 0
M  V30 2019 H 183.219 -3.65399 1.99681 0
M  V30 2020 H 185.816 -5.34275 -0.213112 0
M  V30 2021 H 186.159 -3.97352 -1.24165 0
M  V30 2022 H 186.692 -3.95166 0.456988 0
M  V30 2023 H 183.431 -5.99559 2.64971 0
M  V30 2024 H 182.951 -5.9241 0.938611 0
M  V30 2025 H 184.63 -6.32085 1.3812 0
M  V30 2026 N 184.763 -0.387143 -1.52771 0
M  V30 2027 C 185.726 0.436939 -2.24997 0
M  V30 2028 C 186.726 0.991991 -1.26555 0
M  V30 2029 O 187.916 0.874335 -1.50669 0
M  V30 2030 C 185.048 1.61281 -3.00335 0
M  V30 2031 H 186.241 -0.195365 -2.99263 0
M  V30 2032 H 183.794 -0.139218 -1.55679 0
M  V30 2033 H 184.529 2.2826 -2.30364 0
M  V30 2034 H 184.314 1.22154 -3.72587 0
M  V30 2035 H 185.804 2.19629 -3.5518 0
M  V30 2036 N 186.241 1.57166 -0.116904 0
M  V30 2037 C 187.489 1.94737 0.540533 0
M  V30 2038 C 187.81 1.00096 1.67349 0
M  V30 2039 O 187.08 0.0568854 1.95817 0
M  V30 2040 H 185.66 0.718981 0.202669 0
M  V30 2041 H 188.322 1.94017 -0.185353 0
M  V30 2042 H 187.418 2.97719 0.936483 0
M  V30 2043 N 187.719 -0.156864 1.56817 0
M  V30 2044 C 188.649 -1.19589 2.00551 0
M  V30 2045 C 189.63 -1.4536 0.883426 0
M  V30 2046 O 190.815 -1.56449 1.15054 0
M  V30 2047 C 187.945 -2.53143 2.37773 0
M  V30 2048 C 186.899 -2.41913 3.53075 0
M  V30 2049 C 186.225 -3.80088 3.76081 0
M  V30 2050 C 187.525 -1.91157 4.86062 0
M  V30 2051 H 189.219 -0.832293 2.87599 0
M  V30 2052 H 186.765 -0.398918 1.38364 0
M  V30 2053 H 188.718 -3.26047 2.66967 0
M  V30 2054 H 187.442 -2.91319 1.4765 0
M  V30 2055 H 186.101 -1.71462 3.24031 0
M  V30 2056 H 185.749 -4.15683 2.83225 0
M  V30 2057 H 185.449 -3.73439 4.53671 0
M  V30 2058 H 186.973 -4.54556 4.0769 0
M  V30 2059 H 188.387 -2.53846 5.14038 0
M  V30 2060 H 186.784 -1.95422 5.67389 0
M  V30 2061 H 187.854 -0.866673 4.77092 0
M  V30 2062 N 189.197 -1.51736 -0.425897 0
M  V30 2063 C 190.144 -1.73875 -1.51776 0
M  V30 2064 C 191.114 -0.580702 -1.55618 0
M  V30 2065 O 192.299 -0.81641 -1.72451 0
M  V30 2066 C 189.439 -1.88012 -2.89388 0
M  V30 2067 C 188.552 -3.15606 -2.94986 0
M  V30 2068 C 187.687 -3.20271 -4.23793 0
M  V30 2069 C 186.726 -4.42134 -4.23302 0
M  V30 2070 N 185.863 -4.44284 -5.43651 0
M  V30 2071 H 190.703 -2.67071 -1.32201 0
M  V30 2072 H 188.24 -1.32351 -0.642008 0
M  V30 2073 H 190.198 -1.9419 -3.69251 0
M  V30 2074 H 188.828 -0.98213 -3.07496 0
M  V30 2075 H 187.88 -3.18681 -2.07717 0
M  V30 2076 H 189.192 -4.05486 -2.90486 0
M  V30 2077 H 188.346 -3.25428 -5.12036 0
M  V30 2078 H 187.085 -2.28299 -4.30965 0
M  V30 2079 H 186.09 -4.3714 -3.3345 0
M  V30 2080 H 187.315 -5.35382 -4.17783 0
M  V30 2081 H 185.261 -3.55188 -5.51523 0
M  V30 2082 H 185.178 -5.27988 -5.41078 0
M  V30 2083 H 186.446 -4.53649 -6.33895 0
M  V30 2084 N 190.675 0.682077 -1.42076 0
M  V30 2085 C 192.086 1.26246 -1.37546 0
M  V30 2086 C 192.437 1.96092 -0.0651481 0
M  V30 2087 O 191.562 1.99587 0.836297 0
M  V30 2088 C 192.157 2.29594 -2.49143 0
M  V30 2089 C 190.716 2.83175 -2.47969 0
M  V30 2090 C 189.863 1.57395 -2.28303 0
M  V30 2091 H 192.814 0.475937 -1.51395 0
M  V30 2092 H 192.835 3.11175 -2.18976 0
M  V30 2093 H 192.347 1.78729 -3.44496 0
M  V30 2094 H 190.448 3.3818 -1.56413 0
M  V30 2095 H 190.561 3.32687 -3.44755 0
M  V30 2096 H 188.925 1.83699 -1.76428 0
M  V30 2097 H 189.708 1.08507 -3.25701 0
M  V30 2098 N 192.153 1.28127 0.917671 0
M  V30 2099 C 193.116 1.11744 2.00115 0
M  V30 2100 C 194.116 0.0583052 1.60694 0
M  V30 2101 O 195.306 0.303755 1.71531 0
M  V30 2102 C 192.438 0.704862 3.33533 0
M  V30 2103 H 193.631 2.07966 2.16079 0
M  V30 2104 H 191.184 1.11058 1.09981 0
M  V30 2105 H 191.919 -0.258299 3.2327 0
M  V30 2106 H 191.704 1.4699 3.63505 0
M  V30 2107 H 193.194 0.612768 4.1308 0
M  V30 2108 N 193.631 -1.12557 1.10312 0
M  V30 2109 C 194.579 -2.20325 0.745629 0
M  V30 2110 C 195.573 -1.67429 -0.25763 0
M  V30 2111 O 196.779 -1.79612 -0.118132 0
M  V30 2112 H 193.154 -0.718118 0.223182 0
M  V30 2113 H 195.125 -2.47733 1.66346 0
M  V30 2114 C 193.874 -3.47168 0.192262 0
M  V30 2115 H 193.197 -3.88215 0.955475 0
M  V30 2116 H 194.637 -4.23995 -0.0198274 0
M  V30 2117 C 193.096 -3.19298 -1.07472 0
M  V30 2118 O 193.626 -3.3891 -2.15645 0
M  V30 2119 N 191.832 -2.73113 -0.992847 0
M  V30 2120 H 191.379 -2.57354 -0.112474 0
M  V30 2121 H 191.337 -2.54842 -1.84127 0
M  V30 2122 N 195.109 -0.891671 -1.2995 0
M  V30 2123 C 196.52 -0.563104 -1.78006 0
M  V30 2124 C 196.871 0.920978 -1.73241 0
M  V30 2125 O 195.996 1.71987 -1.31337 0
M  V30 2126 C 196.591 -1.01539 -3.23226 0
M  V30 2127 C 195.15 -0.738124 -3.69092 0
M  V30 2128 C 194.297 -1.19461 -2.50249 0
M  V30 2129 H 197.248 -1.07522 -1.16725 0
M  V30 2130 H 197.269 -0.347217 -3.78912 0
M  V30 2131 H 196.781 -2.09555 -3.26662 0
M  V30 2132 H 194.882 0.329766 -3.71138 0
M  V30 2133 H 194.995 -1.33037 -4.60259 0
M  V30 2134 H 193.359 -0.613787 -2.47194 0
M  V30 2135 H 194.142 -2.28265 -2.56417 0
M  V30 2136 N 196.587 1.43421 -0.653314 0
M  V30 2137 C 197.998 1.85065 -0.246537 0
M  V30 2138 C 198.349 1.54688 1.2069 0
M  V30 2139 O 197.474 0.995896 1.92122 0
M  V30 2140 C 198.069 3.35922 -0.440666 0
M  V30 2141 C 196.628 3.76297 -0.0882064 0
M  V30 2142 C 195.775 2.67147 -0.743484 0
M  V30 2143 H 198.726 1.33572 -0.856979 0
M  V30 2144 H 198.747 3.79204 0.313798 0
M  V30 2145 H 198.259 3.58 -1.49858 0
M  V30 2146 H 196.36 3.5983 0.96711 0
M  V30 2147 H 196.473 4.76338 -0.513738 0
M  V30 2148 H 194.837 2.54086 -0.176712 0
M  V30 2149 H 195.62 2.92053 -1.80443 0
M  V30 2150 N 198.065 0.39524 1.52563 0
M  V30 2151 C 199.311 -0.185318 2.01952 0
M  V30 2152 C 199.644 -1.45964 1.28095 0
M  V30 2153 O 198.919 -1.90689 0.38315 0
M  V30 2154 C 199.202 -0.447193 3.57312 0
M  V30 2155 C 199.055 0.842828 4.41833 0
M  V30 2156 C 200.374 -1.23529 4.22408 0
M  V30 2157 H 197.493 -0.0658788 0.73405 0
M  V30 2158 H 200.135 0.525975 1.82575 0
M  V30 2159 H 198.285 -1.05312 3.73954 0
M  V30 2160 H 199.957 1.4795 4.36931 0
M  V30 2161 H 198.2 1.45686 4.08605 0
M  V30 2162 H 198.871 0.614165 5.48573 0
M  V30 2163 H 201.347 -0.722445 4.0978 0
M  V30 2164 H 200.223 -1.38727 5.3108 0
M  V30 2165 H 200.484 -2.25213 3.80436 0
M  V30 2166 N 199.544 -1.57102 0.125237 0
M  V30 2167 C 200.474 -2.18659 -0.819174 0
M  V30 2168 C 201.455 -1.12843 -1.27281 0
M  V30 2169 O 202.64 -1.41104 -1.33429 0
M  V30 2170 C 199.77 -2.79096 -2.06695 0
M  V30 2171 C 198.724 -3.90548 -1.75088 0
M  V30 2172 C 198.05 -4.37821 -3.06948 0
M  V30 2173 C 199.35 -5.12356 -1.01435 0
M  V30 2174 H 201.044 -2.9783 -0.306202 0
M  V30 2175 H 198.59 -1.4326 -0.145839 0
M  V30 2176 H 200.543 -3.2082 -2.73226 0
M  V30 2177 H 199.267 -1.97223 -2.60328 0
M  V30 2178 H 197.926 -3.49409 -1.10944 0
M  V30 2179 H 197.574 -3.52799 -3.58527 0
M  V30 2180 H 197.274 -5.12982 -2.86571 0
M  V30 2181 H 198.798 -4.822 -3.74587 0
M  V30 2182 H 200.212 -5.5106 -1.58132 0
M  V30 2183 H 198.609 -5.9314 -0.911319 0
M  V30 2184 H 199.679 -4.849 -0.00218681 0
M  V30 2185 N 201.022 0.148545 -1.56898 0
M  V30 2186 C 202.433 0.708766 -1.72723 0
M  V30 2187 C 202.784 1.81734 -0.739395 0
M  V30 2188 O 201.909 2.16194 0.0943169 0
M  V30 2189 C 202.504 1.29245 -3.13179 0
M  V30 2190 C 201.063 1.79925 -3.30611 0
M  V30 2191 C 200.21 0.687111 -2.68652 0
M  V30 2192 H 203.161 -0.0771063 -1.58513 0
M  V30 2193 H 203.182 2.16224 -3.13093 0
M  V30 2194 H 202.694 0.485382 -3.85053 0
M  V30 2195 H 200.795 2.63203 -2.63732 0
M  V30 2196 H 200.908 1.92903 -4.38549 0
M  V30 2197 H 199.272 1.11335 -2.29078 0
M  V30 2198 H 200.055 -0.108483 -3.43129 0
M  V30 2199 N 202.5 1.5196 0.417844 0
M  V30 2200 C 203.463 1.74065 1.49111 0
M  V30 2201 C 204.463 0.610537 1.48758 0
M  V30 2202 O 205.653 0.87832 1.50437 0
M  V30 2203 C 202.785 1.81502 2.88565 0
M  V30 2204 H 203.978 2.69869 1.30807 0
M  V30 2205 H 201.531 1.42244 0.647785 0
M  V30 2206 H 202.266 0.875813 3.1225 0
M  V30 2207 H 202.051 2.63651 2.90225 0
M  V30 2208 H 203.541 2.00376 3.66387 0
M  V30 2209 N 203.978 -0.674533 1.42435 0
M  V30 2210 C 205.389 -1.25514 1.38214 0
M  V30 2211 C 205.74 -1.96055 0.0755464 0
M  V30 2212 O 204.865 -2.00028 -0.8257 0
M  V30 2213 C 205.46 -2.28269 2.50357 0
M  V30 2214 C 204.019 -2.81856 2.49467 0
M  V30 2215 C 203.166 -1.56182 2.29134 0
M  V30 2216 H 206.117 -0.467902 1.51646 0
M  V30 2217 H 206.138 -3.10009 2.20624 0
M  V30 2218 H 205.65 -1.769 3.45439 0
M  V30 2219 H 203.751 -3.37346 1.58204 0
M  V30 2220 H 203.864 -3.30854 3.46515 0
M  V30 2221 H 202.228 -1.82761 1.774 0
M  V30 2222 H 203.011 -1.06778 3.26272 0
M  V30 2223 N 205.456 -1.28612 -0.910864 0
M  V30 2224 C 206.388 -1.08589 -2.01844 0
M  V30 2225 C 207.401 -0.0367419 -1.62759 0
M  V30 2226 O 208.59 -0.280101 -1.76289 0
M  V30 2227 C 205.69 -0.628626 -3.33019 0
M  V30 2228 C 204.863 -1.75382 -4.00699 0
M  V30 2229 C 203.922 -1.28945 -5.10156 0
M  V30 2230 O 202.948 -1.9922 -5.33198 0
M  V30 2231 N 204.15 -0.154224 -5.80295 0
M  V30 2232 H 206.915 -2.03973 -2.19579 0
M  V30 2233 H 204.476 -1.20403 -1.08234 0
M  V30 2234 H 206.468 -0.301508 -4.03575 0
M  V30 2235 H 205.038 0.232451 -3.11735 0
M  V30 2236 H 204.258 -2.25039 -3.23653 0
M  V30 2237 H 205.546 -2.50854 -4.42662 0
M  V30 2238 H 204.944 0.43194 -5.64049 0
M  V30 2239 H 203.501 0.113599 -6.51701 0
M  V30 2240 N 206.934 1.1197 -1.10907 0
M  V30 2241 C 207.881 2.17846 -0.762345 0
M  V30 2242 C 208.851 1.63995 0.263599 0
M  V30 2243 O 210.036 1.90273 0.141773 0
M  V30 2244 C 207.176 3.44487 -0.205651 0
M  V30 2245 C 206.289 4.12369 -1.28748 0
M  V30 2246 C 205.424 5.26674 -0.691919 0
M  V30 2247 C 204.463 5.86431 -1.75399 0
M  V30 2248 N 203.6 6.92142 -1.17833 0
M  V30 2249 H 208.44 2.46851 -1.6694 0
M  V30 2250 H 205.977 1.21188 -0.833776 0
M  V30 2251 H 207.935 4.16981 0.135037 0
M  V30 2252 H 206.565 3.15884 0.664613 0
M  V30 2253 H 205.617 3.38003 -1.74522 0
M  V30 2254 H 206.929 4.52844 -2.09125 0
M  V30 2255 H 206.083 6.05953 -0.300963 0
M  V30 2256 H 204.822 4.8749 0.143232 0
M  V30 2257 H 203.827 5.05835 -2.15432 0
M  V30 2258 H 205.052 6.27685 -2.59208 0
M  V30 2259 H 202.998 6.54985 -0.364725 0
M  V30 2260 H 202.915 7.31242 -1.91887 0
M  V30 2261 H 204.183 7.75237 -0.81408 0
M  V30 2262 N 208.412 0.89855 1.29475 0
M  V30 2263 C 209.375 0.380272 2.26023 0
M  V30 2264 C 210.375 -0.484891 1.53315 0
M  V30 2265 O 211.565 -0.290108 1.71767 0
M  V30 2266 C 208.697 -0.45651 3.3783 0
M  V30 2267 H 209.89 1.23295 2.73383 0
M  V30 2268 H 207.443 0.676589 1.40897 0
M  V30 2269 H 208.178 -1.32922 2.95808 0
M  V30 2270 H 207.963 0.163393 3.91759 0
M  V30 2271 H 209.453 -0.810466 4.0966 0
M  V30 2272 N 209.89 -1.43072 0.660911 0
M  V30 2273 C 211.167 -1.95307 0.107017 0
M  V30 2274 C 211.547 -1.60192 -1.37484 0
M  V30 2275 O 210.895 -0.890949 -2.10415 0
M  V30 2276 C 211.105 -3.47124 0.361402 0
M  V30 2277 C 212.453 -4.23738 0.270455 0
M  V30 2278 O 213.477 -3.54981 0.294382 0
M  V30 2279 O 212.336 -5.46131 0.200737 0
M  V30 2280 H 209.43 -0.826984 -0.00517729 0
M  V30 2281 H 211.976 -1.52972 0.734681 0
M  V30 2282 H 210.748 -3.65837 1.38848 0
M  V30 2283 H 210.371 -3.96475 -0.298953 0
M  V30 2284 N 211.368 -0.403325 -1.52352 0
M  V30 2285 C 212.596 0.174012 -2.06167 0
M  V30 2286 C 213.011 1.39347 -1.27388 0
M  V30 2287 O 212.368 1.79597 -0.324201 0
M  V30 2288 C 212.419 0.530223 -3.5759 0
M  V30 2289 O 212.14 -0.640806 -4.33388 0
M  V30 2290 C 213.641 1.16192 -4.27802 0
M  V30 2291 H 210.861 0.0229464 -0.670608 0
M  V30 2292 H 213.405 -0.572604 -1.9632 0
M  V30 2293 H 211.56 1.22673 -3.67464 0
M  V30 2294 H 211.974 -0.344851 -5.23365 0
M  V30 2295 H 213.448 1.36141 -5.34948 0
M  V30 2296 H 213.925 2.13335 -3.83907 0
M  V30 2297 H 214.531 0.505775 -4.22282 0
M  V30 2298 N 212.846 1.57033 -0.133567 0
M  V30 2299 C 214.123 1.87256 0.56522 0
M  V30 2300 C 214.503 1.03726 1.83859 0
M  V30 2301 O 213.851 0.120247 2.28183 0
M  V30 2302 C 214.061 3.3865 0.843636 0
M  V30 2303 C 215.409 4.07574 1.19032 0
M  V30 2304 O 216.433 3.43752 0.933429 0
M  V30 2305 O 215.292 5.20259 1.67312 0
M  V30 2306 H 212.386 0.775678 0.286796 0
M  V30 2307 H 214.932 1.68855 -0.169168 0
M  V30 2308 H 213.704 3.91257 -0.0581149 0
M  V30 2309 H 213.327 3.62532 1.63268 0
M  V30 2310 N 214.325 -0.140222 1.56975 0
M  V30 2311 C 215.736 -0.699596 1.73097 0
M  V30 2312 C 216.087 -1.8134 0.749022 0
M  V30 2313 O 215.212 -2.16241 -0.0828503 0
M  V30 2314 C 215.807 -1.27582 3.1386 0
M  V30 2315 C 214.366 -1.78169 3.31561 0
M  V30 2316 C 213.513 -0.672855 2.69013 0
M  V30 2317 H 216.464 0.0855115 1.58469 0
M  V30 2318 H 216.485 -2.14561 3.14235 0
M  V30 2319 H 215.997 -0.464955 3.85305 0
M  V30 2320 H 214.098 -2.61801 2.65124 0
M  V30 2321 H 214.211 -1.90574 4.39566 0
M  V30 2322 H 212.575 -1.10118 2.29665 0
M  V30 2323 H 213.358 0.126679 3.43066 0
M  V30 2324 N 215.803 -1.52179 -0.40978 0
M  V30 2325 C 216.713 -1.78364 -1.52392 0
M  V30 2326 C 217.729 -0.669183 -1.60617 0
M  V30 2327 O 218.905 -0.954518 -1.77344 0
M  V30 2328 C 215.97 -1.92822 -2.88133 0
M  V30 2329 C 215.031 -3.16725 -2.898 0
M  V30 2330 C 214.264 -3.30483 -4.19067 0
M  V30 2331 O 214.487 -2.49522 -5.12928 0
M  V30 2332 O 213.421 -4.2363 -4.27576 0
M  V30 2333 H 217.247 -2.72931 -1.33201 0
M  V30 2334 H 214.832 -1.37016 -0.59557 0
M  V30 2335 H 216.714 -2.04157 -3.68643 0
M  V30 2336 H 215.389 -1.01444 -3.07393 0
M  V30 2337 H 214.296 -3.10848 -2.08146 0
M  V30 2338 H 215.629 -4.07881 -2.75489 0
M  V30 2339 N 217.281 0.66697 -1.42791 0
M  V30 2340 C 218.229 1.80157 -1.47127 0
M  V30 2341 C 219.223 1.65825 -0.346199 0
M  V30 2342 O 220.429 1.72338 -0.519572 0
M  V30 2343 H 216.804 0.594158 -0.460956 0
M  V30 2344 H 218.775 1.73619 -2.42692 0
M  V30 2345 C 217.524 3.18351 -1.39813 0
M  V30 2346 H 216.847 3.3001 -2.25684 0
M  V30 2347 H 218.287 3.97736 -1.46908 0
M  V30 2348 C 216.746 3.36707 -0.11391 0
M  V30 2349 O 217.276 3.93027 0.830241 0
M  V30 2350 N 215.482 2.90586 -0.0285295 0
M  V30 2351 H 215.029 2.4494 -0.79764 0
M  V30 2352 H 214.987 3.03245 0.830063 0
M  V30 2353 N 218.759 1.29093 0.90403 0
M  V30 2354 C 219.689 1.16401 2.02418 0
M  V30 2355 C 220.67 0.0593085 1.69997 0
M  V30 2356 O 221.855 0.238021 1.92736 0
M  V30 2357 C 218.985 0.835233 3.37107 0
M  V30 2358 C 217.939 1.89578 3.83724 0
M  V30 2359 C 217.265 1.42041 5.15489 0
M  V30 2360 C 218.565 3.30394 4.04521 0
M  V30 2361 H 220.259 2.10109 2.13295 0
M  V30 2362 H 217.805 1.01157 1.02486 0
M  V30 2363 H 219.758 0.733169 4.14973 0
M  V30 2364 H 218.482 -0.137543 3.2631 0
M  V30 2365 H 217.141 1.98715 3.08071 0
M  V30 2366 H 216.789 0.436426 5.01103 0
M  V30 2367 H 216.489 2.12964 5.4765 0
M  V30 2368 H 218.013 1.33176 5.959 0
M  V30 2369 H 219.427 3.24123 4.72882 0
M  V30 2370 H 217.824 3.99237 4.48029 0
M  V30 2371 H 218.894 3.73692 3.09002 0
M  V30 2372 N 220.237 -1.11381 1.11499 0
M  V30 2373 C 221.648 -1.6465 0.880191 0
M  V30 2374 C 221.999 -1.87199 -0.587434 0
M  V30 2375 O 221.124 -1.60667 -1.44966 0
M  V30 2376 C 221.719 -2.99105 1.59128 0
M  V30 2377 C 220.278 -3.49279 1.40289 0
M  V30 2378 C 219.425 -2.24077 1.63354 0
M  V30 2379 H 222.376 -0.950123 1.27116 0
M  V30 2380 H 222.397 -3.66107 1.03664 0
M  V30 2381 H 221.909 -2.82661 2.65941 0
M  V30 2382 H 220.01 -3.70887 0.356888 0
M  V30 2383 H 220.123 -4.2803 2.15238 0
M  V30 2384 H 218.487 -2.31733 1.05698 0
M  V30 2385 H 219.27 -2.10175 2.71443 0
M  V30 2386 N 221.715 -0.905404 -1.28997 0
M  V30 2387 C 222.625 -0.392246 -2.31298 0
M  V30 2388 C 223.641 0.515889 -1.66176 0
M  V30 2389 O 224.817 0.404093 -1.97304 0
M  V30 2390 C 221.882 0.36686 -3.44754 0
M  V30 2391 C 220.943 -0.573485 -4.25452 0
M  V30 2392 C 220.176 0.149488 -5.33491 0
M  V30 2393 O 220.399 1.37255 -5.5364 0
M  V30 2394 O 219.333 -0.510919 -5.99728 0
M  V30 2395 H 223.159 -1.2411 -2.77183 0
M  V30 2396 H 220.744 -0.669926 -1.33538 0
M  V30 2397 H 222.626 0.795907 -4.13816 0
M  V30 2398 H 221.301 1.19169 -3.00966 0
M  V30 2399 H 220.208 -1.05176 -3.59011 0
M  V30 2400 H 221.541 -1.36489 -4.72897 0
M  V30 2401 N 223.193 1.4272 -0.668489 0
M  V30 2402 C 224.442 2.00846 -0.185389 0
M  V30 2403 C 224.755 1.53442 1.21305 0
M  V30 2404 O 225.961 2.03944 1.79218 0
M  V30 2405 C 224.417 3.58805 -0.280591 0
M  V30 2406 C 224.025 4.15198 -1.68268 0
M  V30 2407 C 225.769 4.24255 0.14412 0
M  V30 2408 C 223.676 5.655 -1.73099 0
M  V30 2409 H 222.606 0.751145 -0.0655475 0
M  V30 2410 H 225.257 1.63516 -0.832752 0
M  V30 2411 H 223.639 3.93608 0.434553 0
M  V30 2412 H 224.813 3.91866 -2.42441 0
M  V30 2413 H 223.128 3.62176 -2.05469 0
M  V30 2414 H 225.725 5.34547 0.128086 0
M  V30 2415 H 226.068 3.99277 1.17827 0
M  V30 2416 H 226.601 3.94389 -0.519798 0
M  V30 2417 H 223.34 5.95268 -2.74475 0
M  V30 2418 H 222.86 5.90842 -1.03274 0
M  V30 2419 H 224.539 6.29808 -1.48158 0
M  V30 2420 N 224.671 0.411399 1.52136 0
M  V30 2421 C 225.896 -0.165538 2.06738 0
M  V30 2422 C 226.321 -1.379 1.27926 0
M  V30 2423 O 225.679 -1.78628 0.310114 0
M  V30 2424 C 225.727 -0.492124 3.57226 0
M  V30 2425 O 224.831 -1.58276 3.80818 0
M  V30 2426 H 224.172 -0.0132132 0.663869 0
M  V30 2427 H 226.702 0.585253 1.96051 0
M  V30 2428 H 226.712 -0.750104 4.01045 0
M  V30 2429 H 225.387 0.394922 4.14021 0
M  V30 2430 H 223.964 -1.31677 3.48877 0
M  V30 2431 N 226.149 -1.5696 0.141893 0
M  V30 2432 C 227.374 -2.00754 -0.520838 0
M  V30 2433 C 227.799 -1.0213 -1.57959 0
M  V30 2434 O 227.157 0.00371324 -1.813 0
M  V30 2435 C 227.205 -3.43318 -1.10294 0
M  V30 2436 O 226.309 -3.47679 -2.21795 0
M  V30 2437 H 225.65 -0.651564 -0.127908 0
M  V30 2438 H 228.18 -2.03221 0.23712 0
M  V30 2439 H 228.19 -3.82012 -1.43287 0
M  V30 2440 H 226.865 -4.14608 -0.327574 0
M  V30 2441 H 225.442 -3.20824 -1.9007 0
M  V30 2442 N 227.627 0.131896 -1.57047 0
M  V30 2443 C 228.559 1.1878 -1.9602 0
M  V30 2444 C 229.572 1.38363 -0.857875 0
M  V30 2445 O 230.761 1.37666 -1.13623 0
M  V30 2446 C 227.861 2.55008 -2.23213 0
M  V30 2447 C 227.034 2.56201 -3.54513 0
M  V30 2448 C 226.093 3.7408 -3.70069 0
M  V30 2449 O 225.119 3.58258 -4.42312 0
M  V30 2450 N 226.321 4.92137 -3.07866 0
M  V30 2451 H 229.086 0.85639 -2.87204 0
M  V30 2452 H 226.647 0.321309 -1.5868 0
M  V30 2453 H 228.639 3.32404 -2.30846 0
M  V30 2454 H 227.209 2.80382 -1.3822 0
M  V30 2455 H 226.429 1.64613 -3.58185 0
M  V30 2456 H 227.717 2.54043 -4.4084 0
M  V30 2457 H 227.115 5.07895 -2.49116 0
M  V30 2458 H 225.672 5.67254 -3.21039 0
M  V30 2459 N 229.106 1.52395 0.401703 0
M  V30 2460 C 230.053 1.76268 1.48991 0
M  V30 2461 C 231.023 0.605386 1.54675 0
M  V30 2462 O 232.208 0.843742 1.7113 0
M  V30 2463 C 229.348 1.92592 2.86361 0
M  V30 2464 C 228.461 3.20259 2.89928 0
M  V30 2465 C 227.596 3.26972 4.18644 0
M  V30 2466 C 226.635 4.48812 4.16214 0
M  V30 2467 N 225.772 4.52877 5.36514 0
M  V30 2468 H 230.612 2.6914 1.27935 0
M  V30 2469 H 228.149 1.33355 0.620871 0
M  V30 2470 H 230.107 2.0004 3.66115 0
M  V30 2471 H 228.737 1.03093 3.05895 0
M  V30 2472 H 227.789 3.21945 2.02621 0
M  V30 2473 H 229.101 4.10056 2.83999 0
M  V30 2474 H 228.255 3.33533 5.06794 0
M  V30 2475 H 226.994 2.35126 4.27278 0
M  V30 2476 H 225.999 4.4239 3.26453 0
M  V30 2477 H 227.224 5.41961 4.09213 0
M  V30 2478 H 225.17 3.63917 5.45802 0
M  V30 2479 H 225.087 5.36529 5.32609 0
M  V30 2480 H 226.355 4.63676 6.26597 0
M  V30 2481 N 230.584 -0.659388 1.43143 0
M  V30 2482 C 231.812 -1.44723 1.47861 0
M  V30 2483 C 232.227 -1.88563 0.0945886 0
M  V30 2484 O 231.584 -1.59108 -0.893915 0
M  V30 2485 C 231.635 -2.68627 2.41913 0
M  V30 2486 O 231.356 -2.26623 3.74932 0
M  V30 2487 C 232.857 -3.62045 2.55809 0
M  V30 2488 H 230.077 -0.444801 0.502387 0
M  V30 2489 H 232.621 -0.808916 1.87821 0
M  V30 2490 H 230.776 -3.28613 2.05164 0
M  V30 2491 H 231.19 -3.06745 4.2545 0
M  V30 2492 H 232.664 -4.45666 3.25708 0
M  V30 2493 H 233.141 -4.08981 1.60099 0
M  V30 2494 H 233.747 -3.07944 2.93344 0
M  V30 2495 N 232.062 -1.29571 -0.897171 0
M  V30 2496 C 232.994 -1.10724 -2.00681 0
M  V30 2497 C 234.007 -0.0540026 -1.6271 0
M  V30 2498 O 235.196 -0.298783 -1.75982 0
M  V30 2499 C 232.296 -0.663912 -3.32333 0
M  V30 2500 C 231.469 -1.79622 -3.98816 0
M  V30 2501 C 230.528 -1.34349 -5.0876 0
M  V30 2502 O 229.554 -2.04864 -5.31055 0
M  V30 2503 N 230.756 -0.215764 -5.80099 0
M  V30 2504 H 233.521 -2.06291 -2.17403 0
M  V30 2505 H 231.082 -1.21544 -1.06951 0
M  V30 2506 H 233.074 -0.344295 -4.03233 0
M  V30 2507 H 231.644 0.199375 -3.11964 0
M  V30 2508 H 230.864 -2.28459 -3.21248 0
M  V30 2509 H 232.152 -2.55535 -4.39976 0
M  V30 2510 H 231.55 0.372091 -5.64475 0
M  V30 2511 H 230.107 0.0444707 -6.51785 0
M  V30 2512 N 233.54 1.10788 -1.12088 0
M  V30 2513 C 234.956 1.34691 -0.856186 0
M  V30 2514 C 235.156 1.94791 0.515615 0
M  V30 2515 O 234.212 2.18524 1.26505 0
M  V30 2516 C 235.525 2.27208 -1.9697 0
M  V30 2517 C 237.073 2.40755 -2.00016 0
M  V30 2518 C 237.548 3.36598 -3.1059 0
M  V30 2519 N 239.039 3.44164 -3.10008 0
M  V30 2520 C 239.774 4.18284 -3.92206 0
M  V30 2521 N 239.27 4.95322 -4.84384 0
M  V30 2522 N 241.063 4.13865 -3.80357 0
M  V30 2523 H 233.214 0.70144 -2.00483 0
M  V30 2524 H 235.477 0.371405 -0.872217 0
M  V30 2525 H 235.183 1.90251 -2.958 0
M  V30 2526 H 235.057 3.27485 -1.87172 0
M  V30 2527 H 237.444 2.76982 -1.01808 0
M  V30 2528 H 237.525 1.40305 -2.13888 0
M  V30 2529 H 237.169 3.01096 -4.09028 0
M  V30 2530 H 237.099 4.36918 -2.93956 0
M  V30 2531 H 239.59 2.8922 -2.43228 0
M  V30 2532 H 239.903 5.49267 -5.43623 0
M  V30 2533 H 238.248 4.94459 -4.884 0
M  V30 2534 H 241.439 3.52773 -3.07683 0
M  V30 2535 H 241.612 4.71372 -4.44649 0
M  V30 2536 N 235.018 0.912232 1.28515 0
M  V30 2537 C 235.968 0.370649 2.24967 0
M  V30 2538 C 236.952 -0.516375 1.52389 0
M  V30 2539 O 238.144 -0.356345 1.73376 0
M  V30 2540 C 235.273 -0.389526 3.41083 0
M  V30 2541 C 234.359 0.51313 4.20984 0
M  V30 2542 N 234.75 1.62604 4.78951 0
M  V30 2543 C 233.048 0.313235 4.44899 0
M  V30 2544 C 233.749 2.18619 5.39055 0
M  V30 2545 N 232.725 1.47765 5.23132 0
M  V30 2546 H 236.527 1.22061 2.67354 0
M  V30 2547 H 234.041 0.764712 1.43269 0
M  V30 2548 H 236.038 -0.794353 4.09262 0
M  V30 2549 H 234.698 -1.2366 3.0023 0
M  V30 2550 H 235.709 2.00864 4.77362 0
M  V30 2551 H 232.386 -0.494452 4.14562 0
M  V30 2552 H 233.776 3.12228 5.94948 0
M  V30 2553 N 236.496 -1.42363 0.676048 0
M  V30 2554 C 237.745 -2.00745 0.196037 0
M  V30 2555 C 238.058 -1.54083 -1.20489 0
M  V30 2556 O 239.264 -2.04891 -1.78134 0
M  V30 2557 C 237.72 -3.58651 0.299616 0
M  V30 2558 C 237.328 -4.143 1.70468 0
M  V30 2559 C 239.072 -4.24326 -0.121619 0
M  V30 2560 C 236.979 -5.64574 1.76096 0
M  V30 2561 H 235.909 -0.750787 0.0695301 0
M  V30 2562 H 238.56 -1.63072 0.841412 0
M  V30 2563 H 236.942 -3.93833 -0.413673 0
M  V30 2564 H 238.116 -3.90575 2.44515 0
M  V30 2565 H 236.431 -3.61081 2.07387 0
M  V30 2566 H 239.028 -5.34607 -0.0997362 0
M  V30 2567 H 239.371 -3.99897 -1.15708 0
M  V30 2568 H 239.904 -3.94108 0.540706 0
M  V30 2569 H 236.643 -5.93804 2.77628 0
M  V30 2570 H 236.163 -5.90286 1.06406 0
M  V30 2571 H 237.842 -6.29013 1.51496 0
M  V30 2572 N 237.974 -0.419461 -1.51915 0
M  V30 2573 C 238.906 0.43646 -2.25006 0
M  V30 2574 C 239.919 1.00149 -1.28351 0
M  V30 2575 O 241.108 0.898674 -1.54227 0
M  V30 2576 C 238.208 1.6206 -2.9764 0
M  V30 2577 C 237.381 1.17763 -4.21249 0
M  V30 2578 C 236.44 2.22985 -4.76617 0
M  V30 2579 O 235.466 1.83151 -5.38929 0
M  V30 2580 N 236.668 3.55271 -4.59089 0
M  V30 2581 H 239.433 -0.18989 -2.99098 0
M  V30 2582 H 236.994 -0.247386 -1.59999 0
M  V30 2583 H 238.986 2.32038 -3.31573 0
M  V30 2584 H 237.556 2.15266 -2.2667 0
M  V30 2585 H 236.776 0.305582 -3.93014 0
M  V30 2586 H 238.064 0.858781 -5.015 0
M  V30 2587 H 237.462 3.90377 -4.09417 0
M  V30 2588 H 236.019 4.21195 -4.97432 0
M  V30 2589 N 239.452 1.56882 -0.150215 0
M  V30 2590 C 240.868 1.58263 0.20617 0
M  V30 2591 C 241.068 1.16464 1.64434 0
M  V30 2592 O 240.124 0.866422 2.3717 0
M  V30 2593 C 241.437 3.00649 -0.0555025 0
M  V30 2594 C 242.985 3.12999 0.00795388 0
M  V30 2595 C 243.46 4.5744 -0.226429 0
M  V30 2596 N 244.951 4.62875 -0.173469 0
M  V30 2597 C 245.686 5.72454 -0.329288 0
M  V30 2598 N 245.182 6.90669 -0.543005 0
M  V30 2599 N 246.975 5.61467 -0.266666 0
M  V30 2600 H 239.126 1.82345 -1.08922 0
M  V30 2601 H 241.389 0.844149 -0.431413 0
M  V30 2602 H 241.095 3.3563 -1.05096 0
M  V30 2603 H 240.969 3.71337 0.66246 0
M  V30 2604 H 243.356 2.77857 0.993966 0
M  V30 2605 H 243.437 2.4479 -0.742388 0
M  V30 2606 H 243.081 4.93287 -1.20956 0
M  V30 2607 H 243.011 5.2378 0.544274 0
M  V30 2608 H 245.502 3.77898 -0.0130709 0
M  V30 2609 H 245.815 7.70045 -0.651922 0
M  V30 2610 H 244.16 6.92581 -0.579366 0
M  V30 2611 H 247.351 4.67992 -0.100441 0
M  V30 2612 H 247.524 6.46816 -0.391535 0
M  V30 2613 N 240.93 -0.123565 1.57115 0
M  V30 2614 C 242.178 -0.83051 1.84247 0
M  V30 2615 C 242.499 -1.80629 0.73471 0
M  V30 2616 O 241.769 -1.94403 -0.241688 0
M  V30 2617 H 240.349 -0.309694 0.679778 0
M  V30 2618 H 243.011 -0.111976 1.94578 0
M  V30 2619 H 242.107 -1.37852 2.80006 0
M  V30 2620 N 242.408 -1.52605 -0.393616 0
M  V30 2621 C 243.819 -1.59417 -0.971761 0
M  V30 2622 C 244.17 -0.444173 -1.91106 0
M  V30 2623 O 243.295 0.433382 -2.12016 0
M  V30 2624 C 243.89 -2.88936 -1.76921 0
M  V30 2625 C 242.449 -2.98175 -2.29714 0
M  V30 2626 C 241.596 -2.54491 -1.10135 0
M  V30 2627 H 244.547 -1.57751 -0.173317 0
M  V30 2628 H 244.568 -2.75163 -2.62804 0
M  V30 2629 H 244.08 -3.72616 -1.08532 0
M  V30 2630 H 242.181 -2.19024 -3.01429 0
M  V30 2631 H 242.294 -4.02726 -2.59517 0
M  V30 2632 H 240.658 -2.08702 -1.45999 0
M  V30 2633 H 241.441 -3.4056 -0.432874 0
M  V30 2634 N 243.887 0.651787 -1.4349 0
M  V30 2635 C 245.298 1.233 -1.40193 0
M  V30 2636 C 245.649 1.9591 -0.106727 0
M  V30 2637 O 244.774 2.01316 0.793773 0
M  V30 2638 C 245.369 2.24257 -2.53957 0
M  V30 2639 C 243.928 2.77852 -2.5392 0
M  V30 2640 C 243.075 1.52517 -2.3159 0
M  V30 2641 H 246.026 0.443717 -1.52371 0
M  V30 2642 H 246.047 3.0646 -2.25528 0
M  V30 2643 H 245.559 1.71382 -3.4821 0
M  V30 2644 H 243.66 3.34786 -1.63551 0
M  V30 2645 H 243.773 3.25299 -3.51735 0
M  V30 2646 H 242.137 1.79915 -1.80285 0
M  V30 2647 H 242.92 1.01574 -3.27929 0
M  V30 2648 N 245.365 1.30045 0.890287 0
M  V30 2649 C 246.315 1.12592 1.9826 0
M  V30 2650 C 247.299 0.0426021 1.60844 0
M  V30 2651 O 248.491 0.265346 1.75 0
M  V30 2652 C 245.62 0.814301 3.33503 0
M  V30 2653 C 244.706 1.93761 3.7725 0
M  V30 2654 N 245.097 3.18232 3.93143 0
M  V30 2655 C 243.395 1.83277 4.06602 0
M  V30 2656 C 244.096 3.9158 4.30163 0
M  V30 2657 N 243.072 3.19591 4.3973 0
M  V30 2658 H 246.874 2.07003 2.08631 0
M  V30 2659 H 244.388 1.21307 1.07974 0
M  V30 2660 H 246.385 0.67029 4.11476 0
M  V30 2661 H 245.045 -0.121797 3.24471 0
M  V30 2662 H 246.056 3.53581 3.78419 0
M  V30 2663 H 242.733 0.97001 4.06075 0
M  V30 2664 H 244.123 4.98744 4.50226 0
M  V30 2665 N 246.843 -1.10192 1.12674 0
M  V30 2666 C 247.773 -2.18652 0.819362 0
M  V30 2667 C 248.754 -1.68698 -0.217915 0
M  V30 2668 O 249.939 -1.94041 -0.0785581 0
M  V30 2669 C 247.069 -3.46202 0.27594 0
M  V30 2670 C 246.023 -4.09444 1.24656 0
M  V30 2671 C 245.349 -5.31725 0.563258 0
M  V30 2672 C 246.649 -4.52863 2.60217 0
M  V30 2673 H 248.343 -2.44622 1.72628 0
M  V30 2674 H 245.889 -1.17571 0.831451 0
M  V30 2675 H 247.842 -4.21372 0.0486149 0
M  V30 2676 H 246.566 -3.1973 -0.666331 0
M  V30 2677 H 245.225 -3.36284 1.45974 0
M  V30 2678 H 244.873 -5.0153 -0.384235 0
M  V30 2679 H 244.573 -5.74991 1.21075 0
M  V30 2680 H 246.097 -6.09624 0.34503 0
M  V30 2681 H 247.511 -5.19294 2.42913 0
M  V30 2682 H 245.908 -5.06986 3.21068 0
M  V30 2683 H 246.978 -3.65656 3.18471 0
M  V30 2684 N 248.321 -0.919034 -1.28029 0
M  V30 2685 C 249.253 -0.368762 -2.26214 0
M  V30 2686 C 250.266 0.495716 -1.55069 0
M  V30 2687 O 251.455 0.30974 -1.75792 0
M  V30 2688 C 248.555 0.491049 -3.35324 0
M  V30 2689 C 247.728 -0.352133 -4.3598 0
M  V30 2690 C 246.787 0.443622 -5.24327 0
M  V30 2691 O 245.813 -0.14566 -5.69014 0
M  V30 2692 N 247.015 1.74545 -5.53637 0
M  V30 2693 H 249.78 -1.21273 -2.74068 0
M  V30 2694 H 247.341 -0.785541 -1.41566 0
M  V30 2695 H 249.333 1.03026 -3.91366 0
M  V30 2696 H 247.903 1.23574 -2.87138 0
M  V30 2697 H 247.123 -1.07269 -3.79324 0
M  V30 2698 H 248.411 -0.928883 -5.00249 0
M  V30 2699 H 247.809 2.24666 -5.19174 0
M  V30 2700 H 246.366 2.23138 -6.12416 0
M  V30 2701 N 249.799 1.42003 -0.683588 0
M  V30 2702 C 251.048 2.00638 -0.206681 0
M  V30 2703 C 251.361 1.5472 1.19671 0
M  V30 2704 O 252.567 2.05833 1.77045 0
M  V30 2705 C 251.023 3.58487 -0.318632 0
M  V30 2706 C 250.631 4.1339 -1.72663 0
M  V30 2707 C 252.375 4.24384 0.0991141 0
M  V30 2708 C 250.282 5.63633 -1.79087 0
M  V30 2709 H 249.212 0.750408 -0.0735107 0
M  V30 2710 H 251.863 1.62624 -0.850048 0
M  V30 2711 H 250.245 3.94047 0.392781 0
M  V30 2712 H 251.419 3.89273 -2.46583 0
M  V30 2713 H 249.734 3.59976 -2.09299 0
M  V30 2714 H 252.331 5.34652 0.0713833 0
M  V30 2715 H 252.674 4.00505 1.13586 0
M  V30 2716 H 253.207 3.93816 -0.561599 0
M  V30 2717 H 249.946 5.92323 -2.80774 0
M  V30 2718 H 249.466 5.89714 -1.09535 0
M  V30 2719 H 251.145 6.28201 -1.5483 0
M  V30 2720 N 251.277 0.427512 1.51691 0
M  V30 2721 C 252.693 0.0792977 1.59403 0
M  V30 2722 C 252.893 -1.41035 1.43914 0
M  V30 2723 O 251.949 -2.17922 1.27539 0
M  V30 2724 C 253.262 0.590636 2.94842 0
M  V30 2725 C 254.81 0.550215 3.08126 0
M  V30 2726 C 255.285 1.03836 4.46074 0
M  V30 2727 N 256.776 0.995943 4.52366 0
M  V30 2728 C 257.511 1.34463 5.57411 0
M  V30 2729 N 257.007 1.76569 6.69922 0
M  V30 2730 N 258.8 1.26343 5.47717 0
M  V30 2731 H 250.951 1.39687 1.60004 0
M  V30 2732 H 253.214 0.575003 0.753708 0
M  V30 2733 H 252.92 1.63251 3.11516 0
M  V30 2734 H 252.794 0.0102061 3.77199 0
M  V30 2735 H 255.181 -0.482654 2.91126 0
M  V30 2736 H 255.262 1.16693 2.27632 0
M  V30 2737 H 254.906 2.06965 4.63819 0
M  V30 2738 H 254.836 0.398286 5.25092 0
M  V30 2739 H 257.327 0.68661 3.7161 0
M  V30 2740 H 257.64 2.01438 7.46085 0
M  V30 2741 H 255.985 1.80488 6.71155 0
M  V30 2742 H 259.176 0.933209 4.58703 0
M  V30 2743 H 259.349 1.53846 6.29472 0
M  V30 2744 N 252.755 -1.56801 0.158532 0
M  V30 2745 C 254.166 -1.83189 -0.360366 0
M  V30 2746 C 254.517 -1.07778 -1.63946 0
M  V30 2747 O 253.642 -0.326718 -2.13919 0
M  V30 2748 C 254.237 -3.32297 -0.660595 0
M  V30 2749 C 252.796 -3.59227 -1.12398 0
M  V30 2750 C 251.943 -2.76877 -0.153097 0
M  V30 2751 H 254.894 -1.54008 0.383031 0
M  V30 2752 H 254.915 -3.4908 -1.51405 0
M  V30 2753 H 254.427 -3.87156 0.270527 0
M  V30 2754 H 252.528 -3.09766 -2.07064 0
M  V30 2755 H 252.641 -4.67632 -1.04197 0
M  V30 2756 H 251.005 -2.46319 -0.647983 0
M  V30 2757 H 251.788 -3.34511 0.77182 0
M  V30 2758 N 254.233 0.115231 -1.57178 0
M  V30 2759 C 255.644 0.67197 -1.74188 0
M  V30 2760 C 255.995 1.80125 -0.777777 0
M  V30 2761 O 255.12 2.16346 0.0484376 0
M  V30 2762 C 255.715 1.22573 -3.1585 0
M  V30 2763 C 254.274 1.72872 -3.34353 0
M  V30 2764 C 253.421 0.629972 -2.70049 0
M  V30 2765 H 256.372 -0.110712 -1.58313 0
M  V30 2766 H 256.393 2.09535 -3.17609 0
M  V30 2767 H 255.905 0.403598 -3.85996 0
M  V30 2768 H 254.006 2.5755 -2.69256 0
M  V30 2769 H 254.119 1.83557 -4.42542 0
M  V30 2770 H 252.483 1.0645 -2.31388 0
M  V30 2771 H 253.266 -0.181241 -3.42821 0
M  V30 2772 N 255.711 1.52812 0.385517 0
M  V30 2773 C 256.936 1.72207 1.15583 0
M  V30 2774 C 257.361 0.441034 1.82857 0
M  V30 2775 O 256.719 -0.603465 1.70962 0
M  V30 2776 C 256.767 2.87476 2.17692 0
M  V30 2777 O 255.871 2.54693 3.24354 0
M  V30 2778 H 255.212 0.572526 0.336319 0
M  V30 2779 H 257.742 1.99618 0.448744 0
M  V30 2780 H 257.752 3.13072 2.6163 0
M  V30 2781 H 256.427 3.80408 1.68115 0
M  V30 2782 H 255.004 2.3985 2.85529 0
M  V30 2783 N 257.189 -0.644168 1.43834 0
M  V30 2784 C 258.121 -1.76955 1.45669 0
M  V30 2785 C 259.134 -1.58956 0.351666 0
M  V30 2786 O 260.323 -1.6751 0.616644 0
M  V30 2787 C 257.423 -3.14507 1.26248 0
M  V30 2788 C 256.596 -3.59083 2.49757 0
M  V30 2789 C 255.655 -4.75467 2.25427 0
M  V30 2790 O 254.681 -4.84444 2.98836 0
M  V30 2791 N 255.883 -5.66289 1.27661 0
M  V30 2792 H 258.648 -1.75856 2.42682 0
M  V30 2793 H 256.209 -0.828312 1.39106 0
M  V30 2794 H 258.201 -3.90067 1.0784 0
M  V30 2795 H 256.771 -3.10325 0.376478 0
M  V30 2796 H 255.991 -2.7387 2.8353 0
M  V30 2797 H 257.279 -3.85613 3.31934 0
M  V30 2798 H 256.677 -5.61718 0.670064 0
M  V30 2799 H 255.234 -6.41533 1.15234 0
M  V30 2800 N 258.668 -1.30515 -0.883378 0
M  V30 2801 C 259.945 -1.10086 -1.6168 0
M  V30 2802 C 260.325 0.349269 -2.08191 0
M  V30 2803 O 259.673 1.34105 -1.85008 0
M  V30 2804 C 259.883 -2.10315 -2.78511 0
M  V30 2805 C 261.231 -2.42119 -3.48803 0
M  V30 2806 O 262.255 -2.08638 -2.88702 0
M  V30 2807 O 261.114 -2.99396 -4.57192 0
M  V30 2808 H 258.208 -0.422907 -0.710689 0
M  V30 2809 H 260.754 -1.41947 -0.930015 0
M  V30 2810 H 259.526 -3.07917 -2.41459 0
M  V30 2811 H 259.149 -1.79282 -3.54886 0
M  V30 2812 N 260.146 1.09593 -1.13257 0
M  V30 2813 C 261.076 2.18214 -0.830946 0
M  V30 2814 C 262.057 1.68812 0.208966 0
M  V30 2815 O 263.242 1.9408 0.0682666 0
M  V30 2816 C 260.372 3.46051 -0.294296 0
M  V30 2817 C 259.326 4.08778 -1.26826 0
M  V30 2818 C 258.652 5.31419 -0.591449 0
M  V30 2819 C 259.952 4.51476 -2.62615 0
M  V30 2820 H 261.646 2.43703 -1.73923 0
M  V30 2821 H 259.192 1.17128 -0.837675 0
M  V30 2822 H 261.145 4.2134 -0.0709606 0
M  V30 2823 H 259.869 3.20079 0.649366 0
M  V30 2824 H 258.528 3.35505 -1.47756 0
M  V30 2825 H 258.176 5.01727 0.357633 0
M  V30 2826 H 257.876 5.74341 -1.24123 0
M  V30 2827 H 259.4 6.09433 -0.377355 0
M  V30 2828 H 260.814 5.17999 -2.45663 0
M  V30 2829 H 259.211 5.05277 -3.23752 0
M  V30 2830 H 260.281 3.63962 -3.20406 0
M  V30 2831 N 261.624 0.925811 1.2754 0
M  V30 2832 C 262.571 0.422045 2.26908 0
M  V30 2833 C 263.541 -0.510029 1.58076 0
M  V30 2834 O 264.726 -0.429599 1.85901 0
M  V30 2835 C 261.866 -0.320837 3.43605 0
M  V30 2836 C 260.979 0.64513 4.27156 0
M  V30 2837 C 260.114 -0.117405 5.3107 0
M  V30 2838 C 259.153 0.841391 6.0629 0
M  V30 2839 N 258.29 0.111604 7.02011 0
M  V30 2840 H 263.13 1.27441 2.69375 0
M  V30 2841 H 260.667 0.639697 1.32462 0
M  V30 2842 H 262.625 -0.76785 4.10073 0
M  V30 2843 H 261.255 -1.13745 3.02096 0
M  V30 2844 H 260.307 1.21067 3.6062 0
M  V30 2845 H 261.619 1.37797 4.79389 0
M  V30 2846 H 260.773 -0.624422 6.03478 0
M  V30 2847 H 259.512 -0.883219 4.79636 0
M  V30 2848 H 258.517 1.35967 5.32722 0
M  V30 2849 H 259.742 1.60696 6.59813 0
M  V30 2850 H 257.688 -0.635999 6.5291 0
M  V30 2851 H 257.605 0.784044 7.51923 0
M  V30 2852 H 258.873 -0.374823 7.78598 0
M  V30 2853 N 263.102 -1.41638 0.69111 0
M  V30 2854 C 264.379 -1.95036 0.148421 0
M  V30 2855 C 264.759 -1.63072 -1.34055 0
M  V30 2856 O 264.107 -0.93538 -2.08478 0
M  V30 2857 C 264.317 -3.46279 0.434951 0
M  V30 2858 C 265.665 -4.23069 0.360275 0
M  V30 2859 O 266.689 -3.54277 0.369613 0
M  V30 2860 O 265.548 -5.45583 0.316534 0
M  V30 2861 H 262.642 -0.826908 0.0123654 0
M  V30 2862 H 265.188 -1.5138 0.766963 0
M  V30 2863 H 263.96 -3.6281 1.46576 0
M  V30 2864 H 263.583 -3.97019 -0.214787 0
M  V30 2865 N 264.58 -0.43555 -1.51462 0
M  V30 2866 C 265.828 0.131254 -2.01673 0
M  V30 2867 C 266.149 1.43368 -1.32177 0
M  V30 2868 O 265.419 1.90524 -0.455769 0
M  V30 2869 H 263.999 0.0514954 -0.745223 0
M  V30 2870 H 266.661 -0.577847 -1.86137 0
M  V30 2871 H 265.757 0.308446 -3.10572 0
M  V30 2872 N 266.058 1.56714 -0.166846 0
M  V30 2873 C 267.286 2.0112 0.485644 0
M  V30 2874 C 267.701 1.04705 1.57106 0
M  V30 2875 O 267.058 0.0471923 1.82439 0
M  V30 2876 C 267.109 3.45361 1.06808 0
M  V30 2877 O 266.83 4.38092 0.0259995 0
M  V30 2878 C 268.331 4.05145 1.79924 0
M  V30 2879 H 265.551 0.65931 0.124704 0
M  V30 2880 H 268.095 2.02746 -0.267262 0
M  V30 2881 H 266.25 3.44524 1.7715 0
M  V30 2882 H 266.664 5.22519 0.455398 0
M  V30 2883 H 268.138 5.08009 2.15942 0
M  V30 2884 H 268.615 3.46982 2.69258 0
M  V30 2885 H 269.221 4.09672 1.14234 0
M  V30 2886 N 267.536 -0.106894 1.57237 0
M  V30 2887 C 268.468 -1.15646 1.97885 0
M  V30 2888 C 269.481 -1.36981 0.879779 0
M  V30 2889 O 270.67 -1.35841 1.15799 0
M  V30 2890 C 267.77 -2.51425 2.27241 0
M  V30 2891 C 266.943 -2.50529 3.58545 0
M  V30 2892 C 266.002 -3.68145 3.75973 0
M  V30 2893 O 265.028 -3.51176 4.47956 0
M  V30 2894 N 266.23 -4.87177 3.15656 0
M  V30 2895 H 268.995 -0.81059 2.8853 0
M  V30 2896 H 266.556 -0.296024 1.59171 0
M  V30 2897 H 268.548 -3.28689 2.36105 0
M  V30 2898 H 267.118 -2.78147 1.42663 0
M  V30 2899 H 266.338 -1.58894 3.60758 0
M  V30 2900 H 267.626 -2.46997 4.44826 0
M  V30 2901 H 267.024 -5.03868 2.57165 0
M  V30 2902 H 265.581 -5.62075 3.30023 0
M  V30 2903 N 269.014 -1.53014 -0.377408 0
M  V30 2904 C 269.924 -1.81557 -1.48574 0
M  V30 2905 C 270.94 -0.703102 -1.59162 0
M  V30 2906 O 272.116 -0.99192 -1.75279 0
M  V30 2907 C 269.181 -1.9889 -2.83978 0
M  V30 2908 C 268.242 -3.22801 -2.83016 0
M  V30 2909 C 267.475 -3.39298 -4.11962 0
M  V30 2910 O 267.698 -2.60345 -5.0752 0
M  V30 2911 O 266.632 -4.32604 -4.18494 0
M  V30 2912 H 270.458 -2.75695 -1.27382 0
M  V30 2913 H 268.043 -1.38248 -0.566373 0
M  V30 2914 H 269.925 -2.11931 -3.6423 0
M  V30 2915 H 268.6 -1.07942 -3.05172 0
M  V30 2916 H 267.507 -3.15193 -2.01505 0
M  V30 2917 H 268.84 -4.13632 -2.66775 0
M  V30 2918 N 270.492 0.636531 -1.44174 0
M  V30 2919 C 271.402 1.77754 -1.53103 0
M  V30 2920 C 272.418 1.68928 -0.417034 0
M  V30 2921 O 273.594 1.89801 -0.6736 0
M  V30 2922 C 270.659 3.14115 -1.46741 0
M  V30 2923 C 269.72 3.34612 -2.68948 0
M  V30 2924 C 268.953 4.64467 -2.6288 0
M  V30 2925 O 269.176 5.44919 -1.68581 0
M  V30 2926 O 268.11 4.87049 -3.53648 0
M  V30 2927 H 271.936 1.73174 -2.49489 0
M  V30 2928 H 269.521 0.79709 -1.2636 0
M  V30 2929 H 271.403 3.95412 -1.45696 0
M  V30 2930 H 270.078 3.19249 -0.534975 0
M  V30 2931 H 268.985 2.53014 -2.75562 0
M  V30 2932 H 270.318 3.34336 -3.61221 0
M  V30 2933 N 271.97 1.30982 0.876444 0
M  V30 2934 C 272.933 1.18054 1.96459 0
M  V30 2935 C 273.933 0.109399 1.60427 0
M  V30 2936 O 275.123 0.358173 1.70478 0
M  V30 2937 C 272.255 0.810616 3.31122 0
M  V30 2938 H 273.448 2.14735 2.09354 0
M  V30 2939 H 271.001 1.145 1.06392 0
M  V30 2940 H 271.736 -0.155322 3.23928 0
M  V30 2941 H 271.521 1.58481 3.58645 0
M  V30 2942 H 273.011 0.743876 4.10921 0
M  V30 2943 N 273.449 -1.08991 1.13837 0
M  V30 2944 C 274.677 -1.85011 0.926202 0
M  V30 2945 C 275.092 -1.8135 -0.525127 0
M  V30 2946 O 274.449 -1.21287 -1.36366 0
M  V30 2947 C 274.5 -3.32802 1.41155 0
M  V30 2948 O 274.221 -3.36444 2.80601 0
M  V30 2949 C 275.722 -4.25649 1.23847 0
M  V30 2950 H 272.942 -0.584249 0.32999 0
M  V30 2951 H 275.486 -1.37688 1.51202 0
M  V30 2952 H 273.641 -3.77536 0.868631 0
M  V30 2953 H 274.055 -4.28657 3.02248 0
M  V30 2954 H 275.529 -5.27485 1.62675 0
M  V30 2955 H 276.006 -4.38828 0.18065 0
M  V30 2956 H 276.612 -3.86735 1.76964 0
M  V30 2957 N 274.927 -0.932562 -1.27047 0
M  V30 2958 C 275.874 -0.434072 -2.26681 0
M  V30 2959 C 276.844 0.501639 -1.58344 0
M  V30 2960 O 278.029 0.419734 -1.86126 0
M  V30 2961 C 275.169 0.30261 -3.43771 0
M  V30 2962 C 274.282 -0.667774 -4.26808 0
M  V30 2963 C 273.417 0.0892393 -5.31125 0
M  V30 2964 C 272.456 -0.873532 -6.05835 0
M  V30 2965 N 271.593 -0.148832 -7.01942 0
M  V30 2966 H 276.433 -1.28868 -2.68695 0
M  V30 2967 H 273.97 -0.646713 -1.32121 0
M  V30 2968 H 275.928 0.746092 -4.10474 0
M  V30 2969 H 274.558 1.12142 -3.02695 0
M  V30 2970 H 273.61 -1.22978 -3.59973 0
M  V30 2971 H 274.922 -1.40337 -4.78651 0
M  V30 2972 H 274.076 0.592409 -6.03801 0
M  V30 2973 H 272.815 0.85777 -4.80097 0
M  V30 2974 H 271.82 -1.38791 -5.31994 0
M  V30 2975 H 273.045 -1.64193 -6.58952 0
M  V30 2976 H 270.991 0.601365 -6.53238 0
M  V30 2977 H 270.908 -0.82391 -7.51497 0
M  V30 2978 H 272.176 0.333527 -7.78786 0
M  V30 2979 N 276.405 1.4127 -0.698611 0
M  V30 2980 C 277.821 1.55241 -0.370462 0
M  V30 2981 C 278.021 1.67351 1.12231 0
M  V30 2982 O 277.077 1.65363 1.90818 0
M  V30 2983 C 278.39 2.78997 -1.12165 0
M  V30 2984 C 279.938 2.92797 -1.1063 0
M  V30 2985 C 280.413 4.19445 -1.8393 0
M  V30 2986 N 281.904 4.26409 -1.80914 0
M  V30 2987 C 282.639 5.23271 -2.34467 0
M  V30 2988 N 282.135 6.26145 -2.96504 0
M  V30 2989 N 283.928 5.15232 -2.24706 0
M  V30 2990 H 276.079 1.31654 -1.66676 0
M  V30 2991 H 278.342 0.635393 -0.703548 0
M  V30 2992 H 278.048 2.76268 -2.17644 0
M  V30 2993 H 277.922 3.70606 -0.702209 0
M  V30 2994 H 280.309 2.95039 -0.0597713 0
M  V30 2995 H 280.39 2.02353 -1.56483 0
M  V30 2996 H 280.034 4.17964 -2.88563 0
M  V30 2997 H 279.964 5.08866 -1.35509 0
M  V30 2998 H 282.455 3.527 -1.35687 0
M  V30 2999 H 282.768 6.96451 -3.34927 0
M  V30 3000 H 281.113 6.26638 -3.00583 0
M  V30 3001 H 284.304 4.33789 -1.7591 0
M  V30 3002 H 284.477 5.90552 -2.66745 0
M  V30 3003 N 277.883 0.443576 1.51229 0
M  V30 3004 C 278.815 -0.400608 2.25672 0
M  V30 3005 C 279.828 -0.980945 1.29928 0
M  V30 3006 O 281.017 -0.874024 1.55638 0
M  V30 3007 C 278.117 -1.57304 3.00181 0
M  V30 3008 C 277.29 -1.11046 4.23069 0
M  V30 3009 C 276.349 -2.15374 4.80105 0
M  V30 3010 O 275.375 -1.74554 5.41774 0
M  V30 3011 N 276.577 -3.47922 4.64683 0
M  V30 3012 H 279.342 0.23745 2.98758 0
M  V30 3013 H 276.903 0.272809 1.59585 0
M  V30 3014 H 278.895 -2.26733 3.35223 0
M  V30 3015 H 277.465 -2.11632 2.30066 0
M  V30 3016 H 276.685 -0.243019 3.9345 0
M  V30 3017 H 277.973 -0.778888 5.02803 0
M  V30 3018 H 277.371 -3.83815 4.15575 0
M  V30 3019 H 275.928 -4.13228 5.0407 0
M  V30 3020 N 279.361 -1.56624 0.175154 0
M  V30 3021 C 280.271 -2.21741 -0.766042 0
M  V30 3022 C 281.287 -1.21023 -1.25018 0
M  V30 3023 O 282.463 -1.53697 -1.3015 0
M  V30 3024 C 279.528 -2.84839 -1.97655 0
M  V30 3025 C 278.589 -4.00769 -1.53892 0
M  V30 3026 C 277.822 -4.60849 -2.69173 0
M  V30 3027 O 278.045 -4.19823 -3.86141 0
M  V30 3028 O 276.979 -5.50655 -2.43028 0
M  V30 3029 H 280.805 -3.02738 -0.241585 0
M  V30 3030 H 278.39 -1.49305 -0.053222 0
M  V30 3031 H 280.272 -3.24834 -2.68442 0
M  V30 3032 H 278.947 -2.06836 -2.48999 0
M  V30 3033 H 277.854 -3.65436 -0.80044 0
M  V30 3034 H 279.187 -4.80376 -1.07236 0
M  V30 3035 N 280.839 0.0985539 -1.57292 0
M  V30 3036 C 281.802 1.10402 -2.00858 0
M  V30 3037 C 282.802 1.33146 -0.901593 0
M  V30 3038 O 283.992 1.29318 -1.16716 0
M  V30 3039 C 281.124 2.45394 -2.36632 0
M  V30 3040 H 282.317 0.729099 -2.90902 0
M  V30 3041 H 279.87 0.343495 -1.52479 0
M  V30 3042 H 280.605 2.87769 -1.49531 0
M  V30 3043 H 280.39 2.30235 -3.17387 0
M  V30 3044 H 281.88 3.17718 -2.71007 0
M  V30 3045 N 282.317 1.53212 0.369288 0
M  V30 3046 C 283.728 1.60943 0.946276 0
M  V30 3047 C 284.079 0.47452 1.90375 0
M  V30 3048 O 283.204 -0.399597 2.12679 0
M  V30 3049 C 283.799 2.91715 1.72302 0
M  V30 3050 C 282.358 3.01792 2.24941 0
M  V30 3051 C 281.505 2.56211 1.06072 0
M  V30 3052 H 284.456 1.58007 0.148198 0
M  V30 3053 H 284.477 2.79309 2.58393 0
M  V30 3054 H 283.989 3.74295 1.0259 0
M  V30 3055 H 282.09 2.23791 2.97906 0
M  V30 3056 H 282.203 4.06803 2.53077 0
M  V30 3057 H 280.567 2.10998 1.4266 0
M  V30 3058 H 281.35 3.41206 0.378639 0
M  V30 3059 N 283.795 -0.628877 1.44509 0
M  V30 3060 C 285.041 -1.39045 1.47629 0
M  V30 3061 C 285.374 -1.93892 0.109343 0
M  V30 3062 O 284.649 -1.7379 -0.87334 0
M  V30 3063 C 284.932 -2.55408 2.53848 0
M  V30 3064 C 284.785 -2.05896 3.99909 0
M  V30 3065 C 286.104 -3.5759 2.56549 0
M  V30 3066 H 283.223 -0.504232 0.537512 0
M  V30 3067 H 285.865 -0.710854 1.76201 0
M  V30 3068 H 284.015 -3.13384 2.29615 0
M  V30 3069 H 285.687 -1.52734 4.35282 0
M  V30 3070 H 283.93 -1.37061 4.11578 0
M  V30 3071 H 284.601 -2.89681 4.69882 0
M  V30 3072 H 287.077 -3.09419 2.78207 0
M  V30 3073 H 285.953 -4.36527 3.32769 0
M  V30 3074 H 286.214 -4.11808 1.60832 0
M  V30 3075 N 285.273 -1.31445 -0.869486 0
M  V30 3076 C 286.55 -1.11795 -1.60503 0
M  V30 3077 C 286.93 0.327168 -2.08549 0
M  V30 3078 O 286.278 1.32135 -1.8642 0
M  V30 3079 C 286.488 -2.13258 -2.76265 0
M  V30 3080 C 287.836 -2.45805 -3.46215 0
M  V30 3081 O 288.86 -2.11688 -2.86473 0
M  V30 3082 O 287.719 -3.04228 -4.5399 0
M  V30 3083 H 284.813 -0.430421 -0.706163 0
M  V30 3084 H 287.359 -1.42925 -0.914907 0
M  V30 3085 H 286.131 -3.10461 -2.3818 0
M  V30 3086 H 285.754 -1.83035 -3.52964 0
M  V30 3087 N 286.751 1.08385 -1.14413 0
M  V30 3088 C 288.162 1.62258 -0.923535 0
M  V30 3089 C 288.513 1.88691 0.537595 0
M  V30 3090 O 287.638 1.64454 1.40655 0
M  V30 3091 C 288.233 2.94781 -1.67002 0
M  V30 3092 C 286.792 3.45437 -1.495 0
M  V30 3093 C 285.939 2.19668 -1.69238 0
M  V30 3094 H 288.89 0.916086 -1.2959 0
M  V30 3095 H 288.911 3.63229 -1.13334 0
M  V30 3096 H 288.423 2.7551 -2.73342 0
M  V30 3097 H 286.524 3.6981 -0.455097 0
M  V30 3098 H 286.637 4.22173 -2.2651 0
M  V30 3099 H 285.001 2.28849 -1.11804 0
M  V30 3100 H 285.784 2.02905 -2.7692 0
M  V30 3101 N 288.23 0.939286 1.26551 0
M  V30 3102 C 289.646 0.641304 1.46149 0
M  V30 3103 C 289.846 -0.805964 1.84679 0
M  V30 3104 O 288.902 -1.58278 1.96734 0
M  V30 3105 C 290.215 1.6011 2.54529 0
M  V30 3106 C 291.763 1.6106 2.68382 0
M  V30 3107 C 292.238 2.55765 3.79932 0
M  V30 3108 N 293.729 2.5404 3.87322 0
M  V30 3109 C 294.464 3.24004 4.73085 0
M  V30 3110 N 293.96 4.03388 5.63249 0
M  V30 3111 N 295.753 3.12965 4.66914 0
M  V30 3112 H 287.904 1.87478 0.998285 0
M  V30 3113 H 290.167 0.805559 0.499779 0
M  V30 3114 H 289.873 2.63412 2.33039 0
M  V30 3115 H 289.747 1.35171 3.52149 0
M  V30 3116 H 292.134 0.584835 2.89247 0
M  V30 3117 H 292.215 1.90053 1.71212 0
M  V30 3118 H 291.859 3.58458 3.5982 0
M  V30 3119 H 291.789 2.24063 4.76554 0
M  V30 3120 H 294.28 1.96396 3.22858 0
M  V30 3121 H 294.593 4.5373 6.25579 0
M  V30 3122 H 292.938 4.07489 5.63008 0
M  V30 3123 H 296.129 2.50432 3.95476 0
M  V30 3124 H 296.302 3.67759 5.33533 0
M  V30 3125 N 289.708 -1.40897 0.706093 0
M  V30 3126 C 291.119 -1.84023 0.315052 0
M  V30 3127 C 291.47 -1.5906 -1.14866 0
M  V30 3128 O 290.595 -1.06651 -1.88293 0
M  V30 3129 C 291.19 -3.34055 0.565038 0
M  V30 3130 C 289.749 -3.7571 0.227806 0
M  V30 3131 C 288.896 -2.64204 0.842122 0
M  V30 3132 H 291.847 -1.303 0.905963 0
M  V30 3133 H 291.868 -3.80107 -0.172843 0
M  V30 3134 H 291.38 -3.52192 1.63042 0
M  V30 3135 H 289.481 -3.63172 -0.832895 0
M  V30 3136 H 289.594 -4.74103 0.690174 0
M  V30 3137 H 287.958 -2.53255 0.270893 0
M  V30 3138 H 288.741 -2.85155 1.91158 0
M  V30 3139 N 291.186 -0.45159 -1.50991 0
M  V30 3140 C 292.096 0.358431 -2.31846 0
M  V30 3141 C 293.112 1.01438 -1.41373 0
M  V30 3142 O 294.288 1.00663 -1.74439 0
M  V30 3143 C 291.353 1.43704 -3.15515 0
M  V30 3144 C 290.414 0.799742 -4.21785 0
M  V30 3145 C 289.647 1.82696 -5.01456 0
M  V30 3146 O 289.87 3.05105 -4.81941 0
M  V30 3147 O 288.804 1.40958 -5.85162 0
M  V30 3148 H 292.63 -0.302032 -3.02194 0
M  V30 3149 H 290.215 -0.213825 -1.47862 0
M  V30 3150 H 292.097 2.06227 -3.67489 0
M  V30 3151 H 290.772 2.08133 -2.47916 0
M  V30 3152 H 289.679 0.136084 -3.73852 0
M  V30 3153 H 291.012 0.198718 -4.91799 0
M  V30 3154 N 292.664 1.56529 -0.183458 0
M  V30 3155 C 293.912 1.96855 0.457452 0
M  V30 3156 C 294.233 1.07104 1.62953 0
M  V30 3157 O 293.503 0.139887 1.954 0
M  V30 3158 H 292.083 0.72693 0.171992 0
M  V30 3159 H 294.745 1.93056 -0.267476 0
M  V30 3160 H 293.841 3.01423 0.809368 0
M  V30 3161 N 294.142 -0.090211 1.57342 0
M  V30 3162 C 295.419 -0.824761 1.77361 0
M  V30 3163 C 295.799 -1.96698 0.76637 0
M  V30 3164 O 295.147 -2.27586 -0.204179 0
M  V30 3165 C 295.357 -1.31481 3.23286 0
M  V30 3166 C 296.705 -1.75563 3.86604 0
M  V30 3167 O 297.729 -1.41093 3.27065 0
M  V30 3168 O 296.588 -2.39317 4.91314 0
M  V30 3169 H 293.682 -0.393776 0.727234 0
M  V30 3170 H 296.228 -0.0717138 1.69548 0
M  V30 3171 H 295 -0.496671 3.88135 0
M  V30 3172 H 294.623 -2.12973 3.35751 0
M  V30 3173 N 295.62 -1.53406 -0.361157 0
M  V30 3174 C 297.031 -1.61442 -0.937728 0
M  V30 3175 C 297.382 -0.48461 -1.90121 0
M  V30 3176 O 296.507 0.388312 -2.12888 0
M  V30 3177 C 297.102 -2.92624 -1.70753 0
M  V30 3178 C 295.661 -3.02981 -2.23337 0
M  V30 3179 C 294.808 -2.5677 -1.04712 0
M  V30 3180 H 297.759 -1.58083 -0.139816 0
M  V30 3181 H 297.78 -2.80675 -2.56908 0
M  V30 3182 H 297.292 -3.74834 -1.00604 0
M  V30 3183 H 295.393 -2.25368 -2.96715 0
M  V30 3184 H 295.506 -4.0814 -2.50916 0
M  V30 3185 H 293.87 -2.11752 -1.41539 0
M  V30 3186 H 294.653 -3.41402 -0.360539 0
M  V30 3187 N 297.098 0.621204 -1.44841 0
M  V30 3188 C 298.03 1.74615 -1.48466 0
M  V30 3189 C 299.043 1.58377 -0.37691 0
M  V30 3190 O 300.232 1.66508 -0.643215 0
M  V30 3191 C 297.332 3.12459 -1.31236 0
M  V30 3192 C 296.505 3.55064 -2.55438 0
M  V30 3193 C 295.564 4.71821 -2.32963 0
M  V30 3194 O 294.59 4.79628 -3.06505 0
M  V30 3195 N 295.792 5.64186 -1.36654 0
M  V30 3196 H 298.557 1.71973 -2.45449 0
M  V30 3197 H 296.118 0.806077 -1.40407 0
M  V30 3198 H 298.11 3.88302 -1.14032 0
M  V30 3199 H 296.68 3.09686 -0.4258 0
M  V30 3200 H 295.9 2.69324 -2.87851 0
M  V30 3201 H 297.188 3.80284 -3.38026 0
M  V30 3202 H 296.586 5.6058 -0.759344 0
M  V30 3203 H 295.143 6.39618 -1.25425 0
M  V30 3204 N 298.576 1.31904 0.862503 0
M  V30 3205 C 299.992 1.10724 1.14945 0
M  V30 3206 C 300.192 -0.117421 2.01158 0
M  V30 3207 O 299.248 -0.804595 2.39338 0
M  V30 3208 C 300.561 2.38267 1.83437 0
M  V30 3209 C 302.109 2.43949 1.96106 0
M  V30 3210 C 302.584 3.71394 2.68013 0
M  V30 3211 N 304.075 3.72331 2.75543 0
M  V30 3212 C 304.81 4.67641 3.31812 0
M  V30 3213 N 304.306 5.73313 3.88953 0
M  V30 3214 N 306.099 4.5515 3.29841 0
M  V30 3215 H 298.25 2.10436 0.288191 0
M  V30 3216 H 300.513 0.928705 0.190292 0
M  V30 3217 H 300.219 3.27759 1.27542 0
M  V30 3218 H 300.093 2.48633 2.83657 0
M  V30 3219 H 302.48 1.54922 2.51164 0
M  V30 3220 H 302.561 2.37543 0.949059 0
M  V30 3221 H 302.205 4.60791 2.13621 0
M  V30 3222 H 302.135 3.75069 3.69636 0
M  V30 3223 H 304.626 2.95947 2.34997 0
M  V30 3224 H 304.939 6.42107 4.30022 0
M  V30 3225 H 303.284 5.77077 3.87308 0
M  V30 3226 H 306.475 3.71766 2.84443 0
M  V30 3227 H 306.648 5.29604 3.73394 0
M  V30 3228 N 300.054 -1.07777 1.14986 0
M  V30 3229 C 301.282 -1.84018 0.945773 0
M  V30 3230 C 301.697 -1.81897 -0.505863 0
M  V30 3231 O 301.054 -1.22726 -1.35072 0
M  V30 3232 C 301.105 -3.31287 1.44677 0
M  V30 3233 O 300.826 -3.33449 2.84154 0
M  V30 3234 C 302.327 -4.24311 1.28355 0
M  V30 3235 H 299.547 -0.580716 0.336169 0
M  V30 3236 H 302.091 -1.36077 1.52654 0
M  V30 3237 H 300.246 -3.76594 0.908625 0
M  V30 3238 H 300.66 -4.25427 3.06777 0
M  V30 3239 H 302.134 -5.2573 1.68261 0
M  V30 3240 H 302.611 -4.38612 0.227184 0
M  V30 3241 H 303.217 -3.84836 1.81056 0
M  V30 3242 N 301.532 -0.945985 -1.26051 0
M  V30 3243 C 302.778 -0.597002 -1.93814 0
M  V30 3244 C 303.111 0.862484 -1.73997 0
M  V30 3245 O 302.386 1.61769 -1.07986 0
M  V30 3246 C 302.669 -0.945937 -3.47454 0
M  V30 3247 C 302.522 -2.46052 -3.76535 0
M  V30 3248 C 303.841 -0.464785 -4.37639 0
M  V30 3249 H 300.96 -0.218366 -0.703907 0
M  V30 3250 H 303.602 -1.18107 -1.48831 0
M  V30 3251 H 301.752 -0.448902 -3.85898 0
M  V30 3252 H 303.424 -3.03065 -3.47778 0
M  V30 3253 H 301.667 -2.90194 -3.22444 0
M  V30 3254 H 302.338 -2.65517 -4.83947 0
M  V30 3255 H 304.814 -0.891016 -4.06448 0
M  V30 3256 H 303.69 -0.737712 -5.4392 0
M  V30 3257 H 303.951 0.635274 -4.37512 0
M  V30 3258 N 303.011 1.40521 -0.713556 0
M  V30 3259 C 304.26 2.00155 -0.249192 0
M  V30 3260 C 304.573 1.57224 1.16362 0
M  V30 3261 O 305.779 2.09542 1.72639 0
M  V30 3262 C 304.235 3.5773 -0.3946 0
M  V30 3263 C 303.843 4.09635 -1.81392 0
M  V30 3264 C 305.587 4.24499 0.00907364 0
M  V30 3265 C 303.494 5.59707 -1.91003 0
M  V30 3266 H 302.424 0.74868 -0.0894114 0
M  V30 3267 H 305.075 1.60784 -0.884352 0
M  V30 3268 H 303.457 3.94792 0.30911 0
M  V30 3269 H 304.631 3.83955 -2.54785 0
M  V30 3270 H 302.946 3.55456 -2.16888 0
M  V30 3271 H 305.543 5.34683 -0.0420404 0
M  V30 3272 H 305.886 4.02824 1.05065 0
M  V30 3273 H 306.419 3.92536 -0.645007 0
M  V30 3274 H 303.158 5.86234 -2.93275 0
M  V30 3275 H 302.678 5.87258 -1.22019 0
M  V30 3276 H 304.357 6.24776 -1.6812 0
M  V30 3277 N 304.489 0.459591 1.5075 0
M  V30 3278 C 305.714 -0.0996819 2.0716 0
M  V30 3279 C 306.139 -1.33761 1.32249 0
M  V30 3280 O 305.497 -1.77551 0.366786 0
M  V30 3281 C 305.545 -0.378226 3.58611 0
M  V30 3282 O 304.649 -1.46081 3.85661 0
M  V30 3283 H 303.99 0.00791392 0.663953 0
M  V30 3284 H 306.52 0.647329 1.9409 0
M  V30 3285 H 306.53 -0.622135 4.03229 0
M  V30 3286 H 305.205 0.526439 4.12555 0
M  V30 3287 H 303.782 -1.20511 3.5289 0
M  V30 3288 N 305.967 -1.56429 0.191757 0
M  V30 3289 C 307.213 -1.98541 -0.441943 0
M  V30 3290 C 307.568 -1.07646 -1.59468 0
M  V30 3291 O 306.861 -0.120191 -1.91223 0
M  V30 3292 C 307.055 -3.44449 -0.953384 0
M  V30 3293 C 306.884 -4.49456 0.148262 0
M  V30 3294 C 305.654 -5.01668 0.604781 0
M  V30 3295 C 307.852 -5.05336 0.95602 0
M  V30 3296 N 305.834 -5.90334 1.6846 0
M  V30 3297 C 307.205 -5.9064 1.88531 0
M  V30 3298 C 309.26 -4.87779 0.998811 0
M  V30 3299 C 307.963 -6.60264 2.85383 0
M  V30 3300 C 309.989 -5.58139 1.95537 0
M  V30 3301 C 309.351 -6.43187 2.8721 0
M  V30 3302 H 305.45 -0.771247 -0.129236 0
M  V30 3303 H 308.034 -1.92426 0.296682 0
M  V30 3304 H 306.205 -3.5107 -1.66146 0
M  V30 3305 H 307.937 -3.73533 -1.55741 0
M  V30 3306 H 304.692 -4.73183 0.198736 0
M  V30 3307 H 305.116 -6.39371 2.22561 0
M  V30 3308 H 309.758 -4.21705 0.304048 0
M  V30 3309 H 307.476 -7.25538 3.55837 0
M  V30 3310 H 311.062 -5.46532 1.99484 0
M  V30 3311 H 309.942 -6.96674 3.60022 0
M  V30 3312 N 307.445 0.0818655 -1.57387 0
M  V30 3313 C 308.861 0.436412 -1.53517 0
M  V30 3314 C 309.061 1.79758 -0.910459 0
M  V30 3315 O 308.117 2.47324 -0.508636 0
M  V30 3316 C 309.43 0.386734 -2.98203 0
M  V30 3317 C 310.978 0.467644 -3.09487 0
M  V30 3318 C 311.453 0.447978 -4.55804 0
M  V30 3319 N 312.944 0.508348 -4.60402 0
M  V30 3320 C 313.679 0.515184 -5.71081 0
M  V30 3321 N 313.175 0.477435 -6.91153 0
M  V30 3322 N 314.968 0.560988 -5.59294 0
M  V30 3323 H 307.119 -0.809546 -1.96367 0
M  V30 3324 H 309.382 -0.302733 -0.898363 0
M  V30 3325 H 309.088 -0.546539 -3.47427 0
M  V30 3326 H 308.962 1.20075 -3.57578 0
M  V30 3327 H 311.349 1.39134 -2.60242 0
M  V30 3328 H 311.43 -0.374753 -2.5304 0
M  V30 3329 H 311.074 -0.471826 -5.05704 0
M  V30 3330 H 311.004 1.30777 -5.10103 0
M  V30 3331 H 313.495 0.54218 -3.7399 0
M  V30 3332 H 313.808 0.486299 -7.71268 0
M  V30 3333 H 312.153 0.444278 -6.93579 0
M  V30 3334 H 315.344 0.5881 -4.64391 0
M  V30 3335 H 315.517 0.562846 -6.45551 0
M  V30 3336 N 308.923 1.53595 0.353017 0
M  V30 3337 C 310.171 1.70049 1.09215 0
M  V30 3338 C 310.492 0.461406 1.89463 0
M  V30 3339 O 309.762 -0.524633 1.88744 0
M  V30 3340 H 308.342 0.626912 0.40619 0
M  V30 3341 H 311.004 1.90822 0.396585 0
M  V30 3342 H 310.1 2.56718 1.77488 0
M  V30 3343 N 310.401 -0.613514 1.45168 0
M  V30 3344 C 311.364 -1.7065 1.53007 0
M  V30 3345 C 312.364 -1.5548 0.410184 0
M  V30 3346 O 313.554 -1.60656 0.673455 0
M  V30 3347 C 310.686 -3.09875 1.42093 0
M  V30 3348 H 311.879 -1.65068 2.50385 0
M  V30 3349 H 309.432 -0.828728 1.32521 0
M  V30 3350 H 310.167 -3.21039 0.458769 0
M  V30 3351 H 309.952 -3.22293 2.23315 0
M  V30 3352 H 311.442 -3.895 1.50598 0
M  V30 3353 N 311.879 -1.3236 -0.855495 0
M  V30 3354 C 313.125 -1.23054 -1.612 0
M  V30 3355 C 313.458 0.207404 -1.93089 0
M  V30 3356 O 312.733 1.14432 -1.57275 0
M  V30 3357 C 313.016 -2.08937 -2.93287 0
M  V30 3358 C 312.869 -3.61105 -2.68185 0
M  V30 3359 C 314.188 -1.94986 -3.94549 0
M  V30 3360 H 311.307 -0.448364 -0.584926 0
M  V30 3361 H 313.949 -1.62297 -0.987917 0
M  V30 3362 H 312.099 -1.75599 -3.46551 0
M  V30 3363 H 313.771 -4.04652 -2.21483 0
M  V30 3364 H 312.014 -3.83813 -2.02164 0
M  V30 3365 H 312.685 -4.16522 -3.62234 0
M  V30 3366 H 315.161 -2.24189 -3.5054 0
M  V30 3367 H 314.037 -2.57356 -4.84829 0
M  V30 3368 H 314.298 -0.917263 -4.3248 0
M  V30 3369 N 313.357 1.07166 -1.15556 0
M  V30 3370 C 314.606 1.79181 -0.926132 0
M  V30 3371 C 314.919 1.87768 0.547967 0
M  V30 3372 O 316.125 2.56323 0.895036 0
M  V30 3373 C 314.581 3.22 -1.60761 0
M  V30 3374 C 314.189 3.21607 -3.11886 0
M  V30 3375 C 315.933 3.9861 -1.4598 0
M  V30 3376 C 313.84 4.59092 -3.72812 0
M  V30 3377 H 312.77 0.67154 -0.342856 0
M  V30 3378 H 315.421 1.2027 -1.3859 0
M  V30 3379 H 313.803 3.81115 -1.07553 0
M  V30 3380 H 314.977 2.72127 -3.71865 0
M  V30 3381 H 313.292 2.58495 -3.2645 0
M  V30 3382 H 315.889 5.00225 -1.88888 0
M  V30 3383 H 316.232 4.143 -0.407541 0
M  V30 3384 H 316.765 3.45996 -1.96295 0
M  V30 3385 H 313.504 4.48606 -4.77946 0
M  V30 3386 H 313.024 5.08803 -3.17616 0
M  V30 3387 H 314.703 5.28059 -3.73848 0
M  V30 3388 N 314.835 0.952656 1.25548 0
M  V30 3389 C 315.745 0.47782 2.29682 0
M  V30 3390 C 316.761 -0.453859 1.67977 0
M  V30 3391 O 317.937 -0.330587 1.98668 0
M  V30 3392 C 315.002 -0.238655 3.45878 0
M  V30 3393 C 314.063 0.730994 4.23031 0
M  V30 3394 C 313.296 0.0486165 5.33678 0
M  V30 3395 O 313.519 -1.16612 5.58353 0
M  V30 3396 O 312.453 0.733152 5.97418 0
M  V30 3397 H 316.279 1.34312 2.72386 0
M  V30 3398 H 313.864 0.719026 1.30959 0
M  V30 3399 H 315.746 -0.641774 4.16484 0
M  V30 3400 H 314.421 -1.07916 3.05181 0
M  V30 3401 H 313.328 1.18428 3.5486 0
M  V30 3402 H 314.661 1.53946 4.67506 0
M  V30 3403 N 316.313 -1.40141 0.720998 0
M  V30 3404 C 317.724 -1.83678 0.334553 0
M  V30 3405 C 318.075 -1.6027 -1.13173 0
M  V30 3406 O 317.2 -1.08643 -1.87152 0
M  V30 3407 C 317.795 -3.33437 0.600437 0
M  V30 3408 C 316.354 -3.75447 0.267642 0
M  V30 3409 C 315.501 -2.63296 0.870097 0
M  V30 3410 H 318.452 -1.29331 0.919732 0
M  V30 3411 H 318.473 -3.80269 -0.132517 0
M  V30 3412 H 317.985 -3.50442 1.66768 0
M  V30 3413 H 316.086 -3.64035 -0.794329 0
M  V30 3414 H 316.199 -4.73344 0.74042 0
M  V30 3415 H 314.563 -2.52954 0.297739 0
M  V30 3416 H 315.346 -2.83112 1.94172 0
M  V30 3417 N 317.792 -0.46758 -1.50504 0
M  V30 3418 C 318.702 0.33382 -2.32213 0
M  V30 3419 C 319.718 0.999323 -1.42441 0
M  V30 3420 O 320.894 0.988068 -1.75497 0
M  V30 3421 C 317.959 1.4035 -3.17022 0
M  V30 3422 C 317.02 0.754961 -4.2261 0
M  V30 3423 C 316.253 1.77367 -5.03365 0
M  V30 3424 O 316.476 2.99976 -4.8515 0
M  V30 3425 O 315.41 1.34744 -5.86624 0
M  V30 3426 H 319.236 -0.334067 -3.01857 0
M  V30 3427 H 316.821 -0.229496 -1.47627 0
M  V30 3428 H 318.703 2.02318 -3.69656 0
M  V30 3429 H 317.378 2.05492 -2.5011 0
M  V30 3430 H 316.285 0.0964244 -3.73976 0
M  V30 3431 H 317.618 0.146545 -4.91982 0
M  V30 3432 N 319.27 1.56325 -0.20005 0
M  V30 3433 C 320.202 2.16555 0.750771 0
M  V30 3434 C 321.215 1.12871 1.1732 0
M  V30 3435 O 322.404 1.39943 1.10807 0
M  V30 3436 C 319.504 2.71684 2.02586 0
M  V30 3437 C 318.677 4.00321 1.76244 0
M  V30 3438 C 317.736 4.40227 2.88248 0
M  V30 3439 O 316.762 5.07552 2.57642 0
M  V30 3440 N 317.964 4.04138 4.16717 0
M  V30 3441 H 320.729 2.98772 0.235685 0
M  V30 3442 H 318.29 1.6189 -0.0182594 0
M  V30 3443 H 320.282 2.95363 2.76664 0
M  V30 3444 H 318.852 1.93893 2.45202 0
M  V30 3445 H 318.072 3.84723 0.85919 0
M  V30 3446 H 319.36 4.84279 1.56048 0
M  V30 3447 H 318.758 3.49993 4.44434 0
M  V30 3448 H 317.315 4.32756 4.87407 0
M  V30 3449 N 320.748 -0.0735177 1.57428 0
M  V30 3450 C 321.996 -0.771472 1.86796 0
M  V30 3451 C 322.317 -1.78201 0.791804 0
M  V30 3452 O 321.587 -1.95074 -0.179718 0
M  V30 3453 H 320.167 -0.28791 0.689287 0
M  V30 3454 H 322.829 -0.0500161 1.94836 0
M  V30 3455 H 321.925 -1.28874 2.8425 0
M  V30 3456 N 322.226 -1.5378 -0.344866 0
M  V30 3457 C 323.454 -1.74899 -1.10534 0
M  V30 3458 C 323.869 -0.487534 -1.82397 0
M  V30 3459 O 323.226 0.540741 -1.74305 0
M  V30 3460 C 323.277 -2.92822 -2.11984 0
M  V30 3461 O 322.998 -4.14089 -1.43044 0
M  V30 3462 C 324.499 -3.25982 -3.00417 0
M  V30 3463 H 321.719 -0.584426 -0.329678 0
M  V30 3464 H 324.263 -2.006 -0.397474 0
M  V30 3465 H 322.418 -2.69457 -2.78338 0
M  V30 3466 H 322.832 -4.80272 -2.10805 0
M  V30 3467 H 324.306 -4.11848 -3.67539 0
M  V30 3468 H 324.783 -2.42228 -3.66363 0
M  V30 3469 H 325.389 -3.51349 -2.39654 0
M  V30 3470 N 323.704 0.605807 -1.45491 0
M  V30 3471 C 324.614 1.74466 -1.56839 0
M  V30 3472 C 325.63 1.68006 -0.452772 0
M  V30 3473 O 326.806 1.8833 -0.713708 0
M  V30 3474 C 323.871 3.10931 -1.53371 0
M  V30 3475 C 322.932 3.28832 -2.75986 0
M  V30 3476 C 322.165 4.58787 -2.72673 0
M  V30 3477 O 322.388 5.4122 -1.80102 0
M  V30 3478 O 321.322 4.79438 -3.63899 0
M  V30 3479 H 325.148 1.67843 -2.53106 0
M  V30 3480 H 322.733 0.770108 -1.28022 0
M  V30 3481 H 324.615 3.92233 -1.54051 0
M  V30 3482 H 323.29 3.18042 -0.602572 0
M  V30 3483 H 322.197 2.47112 -2.80867 0
M  V30 3484 H 323.53 3.26599 -3.68231 0
M  V30 3485 N 325.182 1.32811 0.848464 0
M  V30 3486 C 326.112 1.24882 1.97299 0
M  V30 3487 C 327.093 0.131357 1.69592 0
M  V30 3488 O 328.278 0.319553 1.91553 0
M  V30 3489 C 325.408 0.97746 3.33261 0
M  V30 3490 C 324.362 2.05682 3.75338 0
M  V30 3491 C 323.688 1.63777 5.09 0
M  V30 3492 C 324.988 3.47254 3.90144 0
M  V30 3493 H 326.682 2.18966 2.04191 0
M  V30 3494 H 324.228 1.05413 0.981029 0
M  V30 3495 H 326.181 0.908513 4.1149 0
M  V30 3496 H 324.905 0.000980011 3.266 0
M  V30 3497 H 323.564 2.11603 2.99366 0
M  V30 3498 H 323.212 0.648569 4.98801 0
M  V30 3499 H 322.912 2.36 5.38124 0
M  V30 3500 H 324.436 1.5833 5.89715 0
M  V30 3501 H 325.85 3.43888 4.58709 0
M  V30 3502 H 324.247 4.1788 4.30693 0
M  V30 3503 H 325.317 3.86462 2.92874 0
M  V30 3504 N 326.66 -1.06551 1.16123 0
M  V30 3505 C 328.071 -1.60768 0.949232 0
M  V30 3506 C 328.422 -1.89523 -0.507508 0
M  V30 3507 O 327.547 -1.66671 -1.38021 0
M  V30 3508 C 328.142 -2.92086 1.71671 0
M  V30 3509 C 326.701 -3.43015 1.54977 0
M  V30 3510 C 325.848 -2.16947 1.72711 0
M  V30 3511 H 328.799 -0.895354 1.31031 0
M  V30 3512 H 328.82 -3.6138 1.19099 0
M  V30 3513 H 328.332 -2.71127 2.7769 0
M  V30 3514 H 326.433 -3.69039 0.513873 0
M  V30 3515 H 326.546 -4.18516 2.33198 0
M  V30 3516 H 324.91 -2.27041 1.15431 0
M  V30 3517 H 325.693 -1.98473 2.80113 0
M  V30 3518 N 328.138 -0.959301 -1.25041 0
M  V30 3519 C 329.363 -0.633507 -1.97488 0
M  V30 3520 C 329.788 0.788555 -1.70773 0
M  V30 3521 O 329.146 1.53394 -0.966431 0
M  V30 3522 C 329.194 -0.904057 -3.49083 0
M  V30 3523 O 328.298 0.0147939 -4.12397 0
M  V30 3524 H 327.639 -0.240368 -0.618966 0
M  V30 3525 H 330.169 -1.28717 -1.59038 0
M  V30 3526 H 330.179 -0.832203 -3.99423 0
M  V30 3527 H 328.854 -1.94048 -3.67856 0
M  V30 3528 H 327.431 -0.109664 -3.72739 0
M  V30 3529 N 329.616 1.39756 -0.72842 0
M  V30 3530 C 331.032 1.5442 -0.403308 0
M  V30 3531 C 331.232 1.69694 1.08656 0
M  V30 3532 O 330.288 1.69373 1.87267 0
M  V30 3533 C 331.601 2.76555 -1.18058 0
M  V30 3534 C 333.149 2.90384 -1.16815 0
M  V30 3535 C 333.624 4.15449 -1.92785 0
M  V30 3536 N 335.115 4.22475 -1.89918 0
M  V30 3537 C 335.85 5.1818 -2.45514 0
M  V30 3538 N 335.346 6.19714 -3.09719 0
M  V30 3539 N 337.139 5.1035 -2.35584 0
M  V30 3540 H 329.29 1.28089 -1.69431 0
M  V30 3541 H 331.553 0.620327 -0.716867 0
M  V30 3542 H 331.259 2.7159 -2.23455 0
M  V30 3543 H 331.133 3.69033 -0.780662 0
M  V30 3544 H 333.52 2.94846 -0.12234 0
M  V30 3545 H 333.601 1.98988 -1.6074 0
M  V30 3546 H 333.245 4.11749 -2.97364 0
M  V30 3547 H 333.175 5.05877 -1.46272 0
M  V30 3548 H 335.666 3.49743 -1.43138 0
M  V30 3549 H 335.979 6.8919 -3.49625 0
M  V30 3550 H 334.324 6.20121 -3.13807 0
M  V30 3551 H 337.515 4.2996 -1.85072 0
M  V30 3552 H 337.688 5.84761 -2.79211 0
M  V30 3553 N 331.094 0.475555 1.50254 0
M  V30 3554 C 332.51 0.12997 1.5907 0
M  V30 3555 C 332.71 -1.36385 1.48328 0
M  V30 3556 O 331.766 -2.13754 1.34407 0
M  V30 3557 C 333.079 0.684139 2.92814 0
M  V30 3558 C 334.627 0.647965 3.0622 0
M  V30 3559 C 335.102 1.17975 4.42545 0
M  V30 3560 N 336.593 1.13936 4.48969 0
M  V30 3561 C 337.328 1.52129 5.52851 0
M  V30 3562 N 336.824 1.97793 6.63965 0
M  V30 3563 N 338.617 1.43704 5.4342 0
M  V30 3564 H 330.768 1.44706 1.55479 0
M  V30 3565 H 333.031 0.598691 0.735033 0
M  V30 3566 H 332.737 1.73079 3.06164 0
M  V30 3567 H 332.611 0.130204 3.76975 0
M  V30 3568 H 334.998 -0.38979 2.92514 0
M  V30 3569 H 335.079 1.23876 2.23805 0
M  V30 3570 H 334.723 2.21616 4.57 0
M  V30 3571 H 334.653 0.565138 5.23559 0
M  V30 3572 H 337.144 0.804488 3.69238 0
M  V30 3573 H 337.457 2.25072 7.39299 0
M  V30 3574 H 335.802 2.01749 6.65073 0
M  V30 3575 H 338.993 1.07867 4.55502 0
M  V30 3576 H 339.166 1.73794 6.24259 0
M  V30 3577 N 332.573 -1.56217 0.208337 0
M  V30 3578 C 333.536 -2.18455 -0.693557 0
M  V30 3579 C 334.536 -1.14268 -1.13135 0
M  V30 3580 O 335.726 -1.39577 -1.0423 0
M  V30 3581 C 332.858 -2.79727 -1.94848 0
M  V30 3582 H 334.051 -2.99519 -0.15114 0
M  V30 3583 H 331.604 -1.56245 -0.041287 0
M  V30 3584 H 332.339 -2.02497 -2.53309 0
M  V30 3585 H 332.124 -3.56009 -1.64316 0
M  V30 3586 H 333.614 -3.27475 -2.59133 0
M  V30 3587 N 334.051 0.0651679 -1.57465 0
M  V30 3588 C 334.961 1.09448 -2.07505 0
M  V30 3589 C 335.977 1.41974 -1.00595 0
M  V30 3590 O 337.153 1.52018 -1.32107 0
M  V30 3591 C 334.218 2.38689 -2.51453 0
M  V30 3592 C 333.279 2.13073 -3.72691 0
M  V30 3593 C 332.512 3.36152 -4.14533 0
M  V30 3594 O 332.735 4.45517 -3.56189 0
M  V30 3595 O 331.669 3.23974 -5.07272 0
M  V30 3596 H 335.495 0.69935 -2.95538 0
M  V30 3597 H 333.08 0.279752 -1.46757 0
M  V30 3598 H 334.962 3.14736 -2.80212 0
M  V30 3599 H 333.637 2.77568 -1.66546 0
M  V30 3600 H 332.544 1.34709 -3.49005 0
M  V30 3601 H 333.877 1.79071 -4.5847 0
M  V30 3602 N 335.529 1.53961 0.336706 0
M  V30 3603 C 336.775 1.7179 1.07777 0
M  V30 3604 C 337.108 0.483263 1.88091 0
M  V30 3605 O 336.383 -0.519747 1.87427 0
M  V30 3606 C 336.666 2.98558 2.01334 0
M  V30 3607 C 336.519 4.32245 1.24437 0
M  V30 3608 C 337.838 3.21023 3.01052 0
M  V30 3609 H 334.957 0.625089 0.390426 0
M  V30 3610 H 337.599 1.86641 0.35567 0
M  V30 3611 H 335.749 2.86028 2.62908 0
M  V30 3612 H 337.421 4.56637 0.654243 0
M  V30 3613 H 335.664 4.30344 0.546458 0
M  V30 3614 H 336.335 5.17137 1.93063 0
M  V30 3615 H 338.811 3.32929 2.49595 0
M  V30 3616 H 337.687 4.11104 3.6371 0
M  V30 3617 H 337.948 2.37637 3.72802 0
M  V30 3618 N 337.007 -0.598083 1.45811 0
M  V30 3619 C 338.418 -1.18011 1.44673 0
M  V30 3620 C 338.769 -1.95378 0.179364 0
M  V30 3621 O 337.894 -2.04124 -0.718509 0
M  V30 3622 C 338.489 -2.14677 2.62105 0
M  V30 3623 C 337.048 -2.68236 2.64057 0
M  V30 3624 C 336.195 -1.43816 2.37091 0
M  V30 3625 H 339.146 -0.38686 1.53913 0
M  V30 3626 H 339.167 -2.97878 2.36746 0
M  V30 3627 H 338.679 -1.5834 3.5433 0
M  V30 3628 H 336.78 -3.28486 1.75864 0
M  V30 3629 H 336.893 -3.12021 3.63566 0
M  V30 3630 H 335.257 -1.731 1.86838 0
M  V30 3631 H 336.04 -0.893333 3.31473 0
M  V30 3632 N 338.485 -1.33259 -0.841409 0
M  V30 3633 C 339.713 -1.27605 -1.62864 0
M  V30 3634 C 340.128 0.153507 -1.88175 0
M  V30 3635 O 339.485 1.09485 -1.46011 0
M  V30 3636 C 339.536 -2.04596 -2.98031 0
M  V30 3637 O 339.257 -3.41975 -2.73834 0
M  V30 3638 C 340.758 -2.06122 -3.92465 0
M  V30 3639 H 337.978 -0.439718 -0.506842 0
M  V30 3640 H 340.522 -1.75591 -1.04824 0
M  V30 3641 H 338.677 -1.60299 -3.5268 0
M  V30 3642 H 339.091 -3.81549 -3.59889 0
M  V30 3643 H 340.565 -2.64451 -4.84531 0
M  V30 3644 H 341.042 -1.05083 -4.26444 0
M  V30 3645 H 341.648 -2.50427 -3.43753 0
M  V30 3646 N 339.963 1.05934 -1.16686 0
M  V30 3647 C 340.91 2.13499 -0.876748 0
M  V30 3648 C 341.88 1.65162 0.176299 0
M  V30 3649 O 343.065 1.90757 0.0407143 0
M  V30 3650 C 340.205 3.42912 -0.387967 0
M  V30 3651 C 339.318 4.04964 -1.50426 0
M  V30 3652 C 338.453 5.22266 -0.970125 0
M  V30 3653 C 337.492 5.76309 -2.06238 0
M  V30 3654 N 336.629 6.84922 -1.54356 0
M  V30 3655 H 341.469 2.37654 -1.7979 0
M  V30 3656 H 339.006 1.16598 -0.896843 0
M  V30 3657 H 340.964 4.17111 -0.086186 0
M  V30 3658 H 339.594 3.18963 0.496235 0
M  V30 3659 H 338.646 3.28277 -1.92193 0
M  V30 3660 H 339.958 4.41122 -2.32836 0
M  V30 3661 H 339.112 6.03506 -0.621743 0
M  V30 3662 H 337.851 4.87564 -0.115377 0
M  V30 3663 H 336.856 4.93704 -2.41942 0
M  V30 3664 H 338.081 6.13062 -2.92115 0
M  V30 3665 H 336.027 6.52131 -0.711406 0
M  V30 3666 H 335.944 7.20043 -2.30379 0
M  V30 3667 H 337.212 7.69832 -1.22387 0
M  V30 3668 N 341.441 0.965919 1.2453 0
M  V30 3669 C 342.852 0.665929 1.7442 0
M  V30 3670 C 343.203 -0.818407 1.78316 0
M  V30 3671 O 342.328 -1.64037 1.41141 0
M  V30 3672 C 342.923 1.20211 3.16757 0
M  V30 3673 C 341.482 0.952059 3.6416 0
M  V30 3674 C 340.629 1.33848 2.42858 0
M  V30 3675 H 343.58 1.14144 1.10258 0
M  V30 3676 H 343.601 0.567544 3.76244 0
M  V30 3677 H 343.113 2.28244 3.13889 0
M  V30 3678 H 341.214 -0.112821 3.72429 0
M  V30 3679 H 341.327 1.59645 4.51719 0
M  V30 3680 H 339.691 0.756864 2.43195 0
M  V30 3681 H 340.474 2.42827 2.42673 0
M  V30 3682 N 342.919 -1.39368 0.735821 0
M  V30 3683 C 344.33 -1.83313 0.354015 0
M  V30 3684 C 344.681 -1.61461 -1.11466 0
M  V30 3685 O 343.806 -1.10621 -1.85989 0
M  V30 3686 C 344.401 -3.32781 0.635769 0
M  V30 3687 C 342.96 -3.75142 0.307448 0
M  V30 3688 C 342.107 -2.62358 0.897974 0
M  V30 3689 H 345.058 -1.28349 0.933398 0
M  V30 3690 H 345.079 -3.80388 -0.0921773 0
M  V30 3691 H 344.591 -3.48654 1.70476 0
M  V30 3692 H 342.692 -3.64857 -0.755674 0
M  V30 3693 H 342.805 -4.72532 0.790583 0
M  V30 3694 H 341.169 -2.52624 0.324551 0
M  V30 3695 H 341.952 -2.81036 1.97164 0
M  V30 3696 N 344.397 -0.483516 -1.5 0
M  V30 3697 C 345.327 0.293829 -2.31644 0
M  V30 3698 C 346.308 0.978864 -1.39112 0
M  V30 3699 O 347.493 0.973644 -1.68029 0
M  V30 3700 C 344.623 1.36897 -3.19181 0
M  V30 3701 C 343.577 0.804833 -4.20365 0
M  V30 3702 C 342.903 1.9792 -4.96721 0
M  V30 3703 C 344.203 -0.192313 -5.21946 0
M  V30 3704 H 345.897 -0.387616 -2.9688 0
M  V30 3705 H 343.443 -0.187856 -1.42769 0
M  V30 3706 H 345.396 1.92037 -3.751 0
M  V30 3707 H 344.12 2.07936 -2.51853 0
M  V30 3708 H 342.779 0.275319 -3.65565 0
M  V30 3709 H 342.427 2.67686 -4.25856 0
M  V30 3710 H 342.127 1.60789 -5.65173 0
M  V30 3711 H 343.651 2.53526 -5.55479 0
M  V30 3712 H 345.065 0.270333 -5.72662 0
M  V30 3713 H 343.462 -0.478543 -5.98189 0
M  V30 3714 H 344.532 -1.11409 -4.71928 0
M  V30 3715 N 345.875 1.56104 -0.216619 0
M  V30 3716 C 347.286 1.844 0.292128 0
M  V30 3717 C 347.637 1.13788 1.59833 0
M  V30 3718 O 346.762 0.405888 2.12559 0
M  V30 3719 C 347.357 3.3452 0.53681 0
M  V30 3720 C 345.916 3.63151 0.989876 0
M  V30 3721 C 345.063 2.77255 0.0502302 0
M  V30 3722 H 348.014 1.52481 -0.439926 0
M  V30 3723 H 348.035 3.54459 1.38345 0
M  V30 3724 H 347.547 3.85885 -0.414031 0
M  V30 3725 H 345.648 3.17238 1.95425 0
M  V30 3726 H 345.761 4.71177 0.867698 0
M  V30 3727 H 344.125 2.48555 0.556117 0
M  V30 3728 H 344.908 3.31416 -0.89544 0
M  V30 3729 N 347.353 -0.0568162 1.57498 0
M  V30 3730 C 348.764 -0.606858 1.76562 0
M  V30 3731 C 349.115 -1.77114 0.844094 0
M  V30 3732 O 348.24 -2.16376 0.0318911 0
M  V30 3733 C 348.835 -1.10766 3.20182 0
M  V30 3734 C 347.394 -1.60344 3.40539 0
M  V30 3735 C 346.541 -0.529311 2.72201 0
M  V30 3736 H 349.492 0.169393 1.57793 0
M  V30 3737 H 349.513 -1.97602 3.25167 0
M  V30 3738 H 349.025 -0.26006 3.87228 0
M  V30 3739 H 347.126 -2.47379 2.78629 0
M  V30 3740 H 347.239 -1.67006 4.4905 0
M  V30 3741 H 345.603 -0.977893 2.35179 0
M  V30 3742 H 346.386 0.308352 3.41912 0
M  V30 3743 N 348.832 -1.54138 -0.328536 0
M  V30 3744 C 349.795 -1.82462 -1.38709 0
M  V30 3745 C 350.795 -0.696229 -1.44946 0
M  V30 3746 O 351.985 -0.964535 -1.4506 0
M  V30 3747 C 349.117 -1.98018 -2.77492 0
M  V30 3748 H 350.31 -2.77037 -1.14851 0
M  V30 3749 H 347.863 -1.45779 -0.563751 0
M  V30 3750 H 348.598 -1.05637 -3.06613 0
M  V30 3751 H 348.383 -2.80124 -2.74359 0
M  V30 3752 H 349.873 -2.21396 -3.54081 0
M  V30 3753 N 350.31 0.590341 -1.46126 0
M  V30 3754 C 351.726 0.912917 -1.30912 0
M  V30 3755 C 351.926 1.99616 -0.274893 0
M  V30 3756 O 350.982 2.50397 0.325197 0
M  V30 3757 C 352.295 1.3375 -2.69317 0
M  V30 3758 C 353.843 1.45077 -2.77348 0
M  V30 3759 C 354.318 1.90904 -4.16317 0
M  V30 3760 N 355.809 1.9811 -4.18696 0
M  V30 3761 C 356.544 2.34828 -5.23109 0
M  V30 3762 N 356.04 2.70393 -6.37856 0
M  V30 3763 N 357.833 2.35317 -5.10473 0
M  V30 3764 H 349.984 -0.125358 -2.1203 0
M  V30 3765 H 352.247 0.00658481 -0.947977 0
M  V30 3766 H 351.953 0.615614 -3.4627 0
M  V30 3767 H 351.827 2.30058 -2.9892 0
M  V30 3768 H 354.214 2.16353 -2.00687 0
M  V30 3769 H 354.295 0.4704 -2.51438 0
M  V30 3770 H 353.939 1.20209 -4.9347 0
M  V30 3771 H 353.869 2.89886 -4.39629 0
M  V30 3772 H 356.36 1.73146 -3.359 0
M  V30 3773 H 356.673 2.97341 -7.13308 0
M  V30 3774 H 355.018 2.68048 -6.41229 0
M  V30 3775 H 358.209 2.0695 -4.19868 0
M  V30 3776 H 358.382 2.63605 -5.9196 0
M  V30 3777 N 351.788 1.33704 0.83433 0
M  V30 3778 C 353.016 1.28467 1.62185 0
M  V30 3779 C 353.431 -0.143526 1.88254 0
M  V30 3780 O 352.788 -1.08709 1.4659 0
M  V30 3781 C 352.839 2.06174 2.96942 0
M  V30 3782 O 352.56 3.43422 2.72016 0
M  V30 3783 C 354.061 2.08201 3.91366 0
M  V30 3784 H 351.281 0.4424 0.504503 0
M  V30 3785 H 353.825 1.76145 1.03891 0
M  V30 3786 H 351.98 1.62167 3.51825 0
M  V30 3787 H 352.394 3.83453 3.57861 0
M  V30 3788 H 353.868 2.67017 4.83121 0
M  V30 3789 H 354.345 1.07343 4.2588 0
M  V30 3790 H 354.951 2.52246 3.42421 0
M  V30 3791 N 353.266 -1.05314 1.17247 0
M  V30 3792 C 354.198 -2.13023 0.845812 0
M  V30 3793 C 355.211 -1.62096 -0.151246 0
M  V30 3794 O 356.4 -1.78343 0.0748818 0
M  V30 3795 C 353.5 -3.38047 0.240292 0
M  V30 3796 C 352.673 -4.18255 1.27991 0
M  V30 3797 C 351.732 -5.21625 0.692375 0
M  V30 3798 O 350.758 -5.52619 1.36385 0
M  V30 3799 N 351.96 -5.78201 -0.516178 0
M  V30 3800 H 354.725 -2.41642 1.77283 0
M  V30 3801 H 352.286 -1.21401 1.07115 0
M  V30 3802 H 354.278 -4.04359 -0.16603 0
M  V30 3803 H 352.848 -3.06972 -0.590487 0
M  V30 3804 H 352.068 -3.47451 1.86203 0
M  V30 3805 H 353.356 -4.68643 1.98119 0
M  V30 3806 H 352.754 -5.55301 -1.07969 0
M  V30 3807 H 351.311 -6.4604 -0.86458 0
M  V30 3808 N 354.744 -0.972509 -1.24016 0
M  V30 3809 C 355.992 -0.635776 -1.91839 0
M  V30 3810 C 356.313 0.832312 -1.76345 0
M  V30 3811 O 355.583 1.5946 -1.13795 0
M  V30 3812 H 354.163 -0.232157 -0.710009 0
M  V30 3813 H 356.825 -1.23462 -1.50809 0
M  V30 3814 H 355.921 -0.880545 -2.99421 0
M  V30 3815 N 356.222 1.38976 -0.743202 0
M  V30 3816 C 357.45 2.04636 -0.30525 0
M  V30 3817 C 357.865 1.56044 1.06281 0
M  V30 3818 O 357.222 0.728921 1.67311 0
M  V30 3819 C 357.273 3.60193 -0.307177 0
M  V30 3820 O 356.994 4.06998 -1.62124 0
M  V30 3821 C 358.495 4.4306 0.145928 0
M  V30 3822 H 355.715 0.65788 -0.132041 0
M  V30 3823 H 358.259 1.77866 -1.00915 0
M  V30 3824 H 356.414 3.85835 0.347898 0
M  V30 3825 H 356.828 5.01371 -1.54036 0
M  V30 3826 H 358.302 5.51921 0.0934183 0
M  V30 3827 H 358.779 4.22706 1.19231 0
M  V30 3828 H 359.385 4.22584 -0.479886 0
M  V30 3829 N 357.7 0.491464 1.49741 0
M  V30 3830 C 359.111 0.0413169 1.86654 0
M  V30 3831 C 359.462 -1.36985 1.40462 0
M  V30 3832 O 358.587 -2.01917 0.778354 0
M  V30 3833 C 359.182 0.0682023 3.38731 0
M  V30 3834 C 357.741 -0.32656 3.74981 0
M  V30 3835 C 356.888 0.444888 2.73708 0
M  V30 3836 H 359.839 0.704733 1.42194 0
M  V30 3837 H 359.86 -0.729322 3.73445 0
M  V30 3838 H 359.372 1.09539 3.72321 0
M  V30 3839 H 357.473 -1.35734 3.46997 0
M  V30 3840 H 357.586 -0.013741 4.79098 0
M  V30 3841 H 355.95 -0.104062 2.54487 0
M  V30 3842 H 356.733 1.47197 3.10142 0
M  V30 3843 N 359.178 -1.55987 0.224894 0
M  V30 3844 C 360.424 -1.98684 -0.406502 0
M  V30 3845 C 360.757 -1.11248 -1.59177 0
M  V30 3846 O 360.032 -0.170909 -1.93748 0
M  V30 3847 C 360.315 -3.50218 -0.837808 0
M  V30 3848 C 360.168 -4.48426 0.351332 0
M  V30 3849 C 361.487 -4.06243 -1.69278 0
M  V30 3850 H 358.606 -0.722337 -0.146283 0
M  V30 3851 H 361.248 -1.87255 0.321799 0
M  V30 3852 H 359.398 -3.60089 -1.45837 0
M  V30 3853 H 361.07 -4.50562 0.989526 0
M  V30 3854 H 359.313 -4.22159 0.998207 0
M  V30 3855 H 359.984 -5.52 0.00655905 0
M  V30 3856 H 362.46 -3.99337 -1.16914 0
M  V30 3857 H 361.336 -5.12581 -1.96346 0
M  V30 3858 H 361.597 -3.53332 -2.65723 0
M  V30 3859 N 360.656 0.0484629 -1.57525 0
M  V30 3860 C 361.606 1.06246 -2.01732 0
M  V30 3861 C 362.59 1.33155 -0.903245 0
M  V30 3862 O 363.782 1.33065 -1.16717 0
M  V30 3863 C 360.911 2.36943 -2.48421 0
M  V30 3864 C 359.997 2.13208 -3.6661 0
M  V30 3865 N 360.388 1.5947 -4.80003 0
M  V30 3866 C 358.686 2.43581 -3.7361 0
M  V30 3867 C 359.387 1.51092 -5.61735 0
M  V30 3868 N 358.363 1.9797 -5.0627 0
M  V30 3869 H 362.165 0.640675 -2.86832 0
M  V30 3870 H 359.679 0.255134 -1.60383 0
M  V30 3871 H 361.676 3.10374 -2.78341 0
M  V30 3872 H 360.336 2.79818 -1.64718 0
M  V30 3873 H 361.347 1.28008 -5.01831 0
M  V30 3874 H 358.024 2.89662 -3.00669 0
M  V30 3875 H 359.414 1.10199 -6.62801 0
M  V30 3876 N 362.134 1.5431 0.320358 0
M  V30 3877 C 363.064 1.86912 1.3995 0
M  V30 3878 C 364.045 0.726211 1.53819 0
M  V30 3879 O 365.23 0.980233 1.67646 0
M  V30 3880 C 362.36 2.09932 2.7667 0
M  V30 3881 C 361.314 3.25776 2.77586 0
M  V30 3882 C 360.64 3.34173 4.17412 0
M  V30 3883 C 361.94 4.6335 2.41048 0
M  V30 3884 H 363.634 2.77292 1.12914 0
M  V30 3885 H 361.18 1.33421 0.541738 0
M  V30 3886 H 363.133 2.31324 3.52232 0
M  V30 3887 H 361.857 1.16304 3.0519 0
M  V30 3888 H 360.516 3.04276 2.04479 0
M  V30 3889 H 360.164 2.38098 4.43078 0
M  V30 3890 H 359.864 4.12033 4.18931 0
M  V30 3891 H 361.388 3.57803 4.94782 0
M  V30 3892 H 362.802 4.84602 3.06324 0
M  V30 3893 H 361.199 5.43782 2.53813 0
M  V30 3894 H 362.269 4.65381 1.36193 0
M  V30 3895 N 363.613 -0.582584 1.46437 0
M  V30 3896 C 364.561 -1.71272 1.5738 0
M  V30 3897 C 365.555 -1.63524 0.44229 0
M  V30 3898 O 366.761 -1.69016 0.619166 0
M  V30 3899 H 363.136 -0.566273 0.494813 0
M  V30 3900 H 365.107 -1.59174 2.52401 0
M  V30 3901 C 363.856 -3.09658 1.58136 0
M  V30 3902 H 363.179 -3.16291 2.44541 0
M  V30 3903 H 364.619 -3.88494 1.69847 0
M  V30 3904 C 363.078 -3.3547 0.310026 0
M  V30 3905 O 363.608 -3.97199 -0.599683 0
M  V30 3906 N 361.814 -2.89925 0.197901 0
M  V30 3907 H 361.361 -2.39873 0.93909 0
M  V30 3908 H 361.319 -3.07568 -0.65185 0
M  V30 3909 N 365.091 -1.34144 -0.827227 0
M  V30 3910 C 366.321 -1.29138 -1.61267 0
M  V30 3911 C 366.729 0.137597 -1.88699 0
M  V30 3912 O 366.072 1.09379 -1.47587 0
M  V30 3913 C 366.134 -2.0097 -2.9808 0
M  V30 3914 C 365.798 -3.50242 -2.93563 0
M  V30 3915 C 366.795 -4.4523 -2.68452 0
M  V30 3916 C 364.48 -3.92592 -3.13331 0
M  V30 3917 C 366.474 -5.80542 -2.63154 0
M  V30 3918 C 364.161 -5.28005 -3.07658 0
M  V30 3919 C 365.159 -6.21792 -2.82602 0
M  V30 3920 O 364.847 -7.54723 -2.76853 0
M  V30 3921 H 364.579 -0.445851 -0.508127 0
M  V30 3922 H 367.133 -1.77263 -1.03763 0
M  V30 3923 H 365.363 -1.47451 -3.57484 0
M  V30 3924 H 367.052 -1.89309 -3.5905 0
M  V30 3925 H 367.818 -4.13832 -2.52919 0
M  V30 3926 H 363.697 -3.19994 -3.31851 0
M  V30 3927 H 367.241 -6.53717 -2.43516 0
M  V30 3928 H 363.138 -5.59023 -3.22743 0
M  V30 3929 H 363.906 -7.64409 -2.92611 0
M  V30 3930 N 366.569 1.04691 -1.17803 0
M  V30 3931 C 367.985 1.29963 -0.926379 0
M  V30 3932 C 368.185 1.97251 0.411635 0
M  V30 3933 O 367.241 2.24922 1.14744 0
M  V30 3934 C 368.554 2.16447 -2.08737 0
M  V30 3935 C 370.102 2.29814 -2.12496 0
M  V30 3936 C 370.577 3.19661 -3.27995 0
M  V30 3937 N 372.068 3.27247 -3.27816 0
M  V30 3938 C 372.803 3.96906 -4.13827 0
M  V30 3939 N 372.299 4.6895 -5.09959 0
M  V30 3940 N 374.092 3.93122 -4.01761 0
M  V30 3941 H 366.243 0.594182 -2.0392 0
M  V30 3942 H 368.506 0.324649 -0.890678 0
M  V30 3943 H 368.212 1.74304 -3.05469 0
M  V30 3944 H 368.086 3.17103 -2.04268 0
M  V30 3945 H 370.473 2.71196 -1.16347 0
M  V30 3946 H 370.554 1.2877 -2.21025 0
M  V30 3947 H 370.198 2.78991 -4.24413 0
M  V30 3948 H 370.128 4.20722 -3.16703 0
M  V30 3949 H 372.619 2.75921 -2.58217 0
M  V30 3950 H 372.932 5.19679 -5.71974 0
M  V30 3951 H 371.277 4.67875 -5.13924 0
M  V30 3952 H 374.468 3.35967 -3.2595 0
M  V30 3953 H 374.641 4.47139 -4.6901 0
M  V30 3954 N 368.047 0.979072 1.23499 0
M  V30 3955 C 368.979 0.476271 2.24197 0
M  V30 3956 C 369.992 -0.421166 1.57258 0
M  V30 3957 O 371.181 -0.225515 1.7707 0
M  V30 3958 C 368.281 -0.330503 3.37285 0
M  V30 3959 C 367.454 0.559744 4.33804 0
M  V30 3960 C 366.513 -0.192954 5.25846 0
M  V30 3961 O 365.539 0.416978 5.67671 0
M  V30 3962 N 366.741 -1.47932 5.61334 0
M  V30 3963 H 369.506 1.34211 2.67969 0
M  V30 3964 H 367.067 0.852189 1.37657 0
M  V30 3965 H 369.059 -0.842361 3.95836 0
M  V30 3966 H 367.629 -1.09734 2.92707 0
M  V30 3967 H 366.849 1.25245 3.73775 0
M  V30 3968 H 368.137 1.1665 4.95248 0
M  V30 3969 H 367.535 -1.9964 5.29302 0
M  V30 3970 H 366.092 -1.93664 6.22364 0
M  V30 3971 N 369.525 -1.3858 0.750561 0
M  V30 3972 C 370.472 -2.30483 0.120835 0
M  V30 3973 C 371.442 -1.50022 -0.712923 0
M  V30 3974 O 372.627 -1.78662 -0.669676 0
M  V30 3975 C 369.767 -3.36431 -0.768666 0
M  V30 3976 C 368.88 -4.31927 0.0793922 0
M  V30 3977 C 368.015 -5.24944 -0.81283 0
M  V30 3978 C 367.054 -6.12088 0.0390447 0
M  V30 3979 N 366.191 -6.97412 -0.809969 0
M  V30 3980 H 371.031 -2.83761 0.91015 0
M  V30 3981 H 368.568 -1.39707 0.460463 0
M  V30 3982 H 370.526 -3.96462 -1.29898 0
M  V30 3983 H 369.156 -2.8457 -1.5238 0
M  V30 3984 H 368.208 -3.73382 0.727303 0
M  V30 3985 H 369.52 -4.93319 0.737401 0
M  V30 3986 H 368.674 -5.90078 -1.41042 0
M  V30 3987 H 367.413 -4.63911 -1.50458 0
M  V30 3988 H 366.418 -5.45952 0.649328 0
M  V30 3989 H 367.643 -6.75189 0.727809 0
M  V30 3990 H 365.589 -6.38931 -1.48672 0
M  V30 3991 H 365.506 -7.55712 -0.208789 0
M  V30 3992 H 366.774 -7.66959 -1.39263 0
M  V30 3993 N 371.003 -0.499398 -1.49478 0
M  V30 3994 C 372.251 0.0455996 -2.02049 0
M  V30 3995 C 372.572 1.37633 -1.38138 0
M  V30 3996 O 371.842 1.8842 -0.536166 0
M  V30 3997 H 370.422 0.0198416 -0.746736 0
M  V30 3998 H 373.084 -0.656274 -1.83519 0
M  V30 3999 H 372.18 0.176445 -3.11601 0
M  V30 4000 N 372.481 1.55866 -0.233164 0
M  V30 4001 C 373.727 1.98897 0.395959 0
M  V30 4002 C 374.06 1.12091 1.58585 0
M  V30 4003 O 373.335 0.181182 1.93654 0
M  V30 4004 C 373.618 3.50658 0.819224 0
M  V30 4005 C 373.471 4.48233 -0.375109 0
M  V30 4006 C 374.79 4.07135 1.67121 0
M  V30 4007 H 371.909 0.723102 0.142451 0
M  V30 4008 H 374.551 1.87082 -0.331725 0
M  V30 4009 H 372.701 3.60857 1.43925 0
M  V30 4010 H 374.373 4.50031 -1.01341 0
M  V30 4011 H 372.616 4.21624 -1.02058 0
M  V30 4012 H 373.287 5.51988 -0.0358328 0
M  V30 4013 H 375.763 3.99952 1.14795 0
M  V30 4014 H 374.639 5.13615 1.93625 0
M  V30 4015 H 374.9 3.54736 2.63846 0
M  V30 4016 N 373.959 -0.0401083 1.57549 0
M  V30 4017 C 375.208 -0.732108 1.87944 0
M  V30 4018 C 375.521 -1.77107 0.830206 0
M  V30 4019 O 376.727 -2.51488 1.02302 0
M  V30 4020 C 375.183 -1.35315 3.33494 0
M  V30 4021 C 374.791 -0.351105 4.46622 0
M  V30 4022 C 376.535 -2.02566 3.73051 0
M  V30 4023 C 374.442 -0.979859 5.83226 0
M  V30 4024 H 373.372 -0.277188 0.701201 0
M  V30 4025 H 376.023 0.0138501 1.83495 0
M  V30 4026 H 374.405 -2.14844 3.32653 0
M  V30 4027 H 375.579 0.416674 4.58912 0
M  V30 4028 H 373.894 0.218708 4.15825 0
M  V30 4029 H 376.491 -2.50441 4.72423 0
M  V30 4030 H 376.834 -2.83904 3.04474 0
M  V30 4031 H 377.367 -1.29827 3.76018 0
M  V30 4032 H 374.106 -0.206135 6.55176 0
M  V30 4033 H 373.626 -1.71774 5.74677 0
M  V30 4034 H 375.305 -1.49046 6.29599 0
M  V30 4035 N 375.437 -1.54477 -0.31217 0
M  V30 4036 C 376.714 -1.63891 -1.06767 0
M  V30 4037 C 377.094 -0.480028 -2.0557 0
M  V30 4038 O 376.442 0.524487 -2.22399 0
M  V30 4039 C 376.652 -3.01402 -1.75948 0
M  V30 4040 C 378 -3.57838 -2.28554 0
M  V30 4041 O 379.024 -3.03782 -1.85998 0
M  V30 4042 O 377.883 -4.52462 -3.06497 0
M  V30 4043 H 374.977 -0.664125 -0.492816 0
M  V30 4044 H 377.523 -1.66823 -0.311149 0
M  V30 4045 H 376.295 -3.77187 -1.04144 0
M  V30 4046 H 375.918 -3.02199 -2.58383 0
M  V30 4047 N 376.915 0.57481 -1.46744 0
M  V30 4048 C 378.161 1.3347 -1.52688 0
M  V30 4049 C 378.494 1.93353 -0.181229 0
M  V30 4050 O 377.769 1.76912 0.808237 0
M  V30 4051 C 378.052 2.45811 -2.63152 0
M  V30 4052 C 377.905 1.90912 -4.07275 0
M  V30 4053 C 379.224 3.47822 -2.69644 0
M  V30 4054 H 376.343 0.483935 -0.555856 0
M  V30 4055 H 378.985 0.644968 -1.78718 0
M  V30 4056 H 377.135 3.04646 -2.41088 0
M  V30 4057 H 378.807 1.36473 -4.4065 0
M  V30 4058 H 377.05 1.21691 -4.16382 0
M  V30 4059 H 377.721 2.72042 -4.80309 0
M  V30 4060 H 380.197 2.9888 -2.895 0
M  V30 4061 H 379.073 4.23876 -3.48742 0
M  V30 4062 H 379.334 4.05555 -1.76005 0
M  V30 4063 N 378.394 1.34581 0.820102 0
M  V30 4064 C 379.641 1.27096 1.57648 0
M  V30 4065 C 379.969 -0.158317 1.93855 0
M  V30 4066 O 379.224 -1.12028 1.60463 0
M  V30 4067 C 379.523 2.10997 2.8847 0
M  V30 4068 C 379.189 3.59966 2.71543 0
M  V30 4069 C 377.851 4.00575 2.66634 0
M  V30 4070 C 380.203 4.54548 2.55021 0
M  V30 4071 C 377.531 5.33953 2.43128 0
M  V30 4072 C 379.883 5.88109 2.33047 0
M  V30 4073 C 378.547 6.27878 2.26552 0
M  V30 4074 H 377.817 0.465078 0.576874 0
M  V30 4075 H 380.464 1.6635 0.948671 0
M  V30 4076 H 378.769 1.6458 3.55557 0
M  V30 4077 H 380.466 2.0255 3.46084 0
M  V30 4078 H 377.056 3.27733 2.76205 0
M  V30 4079 H 381.24 4.24069 2.57835 0
M  V30 4080 H 376.496 5.63781 2.3656 0
M  V30 4081 H 380.67 6.60985 2.19251 0
M  V30 4082 H 378.297 7.31162 2.081 0
M  V30 4083 N 379.872 -1.04064 1.18357 0
M  V30 4084 C 380.802 -2.14001 0.934113 0
M  V30 4085 C 381.783 -1.69616 -0.128186 0
M  V30 4086 O 382.968 -1.94185 0.0244093 0
M  V30 4087 C 380.098 -3.44253 0.459066 0
M  V30 4088 C 379.052 -4.02261 1.46185 0
M  V30 4089 C 378.378 -5.27992 0.844322 0
M  V30 4090 C 379.678 -4.38432 2.83856 0
M  V30 4091 H 381.372 -2.35127 1.85352 0
M  V30 4092 H 378.918 -1.12998 0.892604 0
M  V30 4093 H 380.871 -4.20522 0.271907 0
M  V30 4094 H 379.595 -3.22813 -0.495912 0
M  V30 4095 H 378.254 -3.28074 1.63595 0
M  V30 4096 H 377.902 -5.02862 -0.117845 0
M  V30 4097 H 377.602 -5.67765 1.51384 0
M  V30 4098 H 379.126 -6.06938 0.667693 0
M  V30 4099 H 380.54 -5.05688 2.70098 0
M  V30 4100 H 378.937 -4.89254 3.47491 0
M  V30 4101 H 380.007 -3.4826 3.37406 0
M  V30 4102 N 381.35 -0.985608 -1.22978 0
M  V30 4103 C 382.3 -0.50118 -2.22423 0
M  V30 4104 C 383.284 0.426649 -1.5514 0
M  V30 4105 O 384.476 0.254656 -1.75159 0
M  V30 4106 C 381.605 0.190003 -3.42774 0
M  V30 4107 C 380.691 -0.757703 -4.17276 0
M  V30 4108 N 381.082 -1.90251 -4.68656 0
M  V30 4109 C 379.38 -0.57209 -4.42316 0
M  V30 4110 C 380.081 -2.49676 -5.25392 0
M  V30 4111 N 379.057 -1.78013 -5.13627 0
M  V30 4112 H 382.859 -1.37441 -2.59783 0
M  V30 4113 H 380.373 -0.846941 -1.38567 0
M  V30 4114 H 382.37 0.55439 -4.13197 0
M  V30 4115 H 381.03 1.05946 -3.06929 0
M  V30 4116 H 382.041 -2.28354 -4.64839 0
M  V30 4117 H 378.718 0.251909 -4.16739 0
M  V30 4118 H 380.108 -3.46384 -5.75732 0
M  V30 4119 N 382.828 1.3818 -0.7579 0
M  V30 4120 C 383.791 2.28764 -0.141286 0
M  V30 4121 C 384.791 1.47388 0.642907 0
M  V30 4122 O 385.981 1.67781 0.468536 0
M  V30 4123 C 383.113 3.31184 0.808069 0
M  V30 4124 H 384.306 2.848 -0.939633 0
M  V30 4125 H 381.859 1.47212 -0.525191 0
M  V30 4126 H 382.594 2.80247 1.63193 0
M  V30 4127 H 382.379 3.91314 0.248104 0
M  V30 4128 H 383.869 3.98909 1.23536 0
M  V30 4129 N 384.306 0.507319 1.49211 0
M  V30 4130 C 385.552 -0.0269732 2.03382 0
M  V30 4131 C 385.907 -1.34111 1.37957 0
M  V30 4132 O 385.2 -1.84733 0.508351 0
M  V30 4133 C 385.394 -0.229513 3.56662 0
M  V30 4134 C 385.223 1.06344 4.36945 0
M  V30 4135 C 383.993 1.617 4.78729 0
M  V30 4136 C 386.191 1.96833 4.75143 0
M  V30 4137 N 384.173 2.8552 5.43463 0
M  V30 4138 C 385.544 3.0523 5.39661 0
M  V30 4139 C 387.599 1.97434 4.57082 0
M  V30 4140 C 386.302 4.14265 5.88028 0
M  V30 4141 C 388.328 3.05448 5.06414 0
M  V30 4142 C 387.69 4.12564 5.70938 0
M  V30 4143 H 383.789 0.0310673 0.781383 0
M  V30 4144 H 386.373 0.683579 1.82305 0
M  V30 4145 H 384.544 -0.909127 3.7761 0
M  V30 4146 H 386.276 -0.761377 3.97473 0
M  V30 4147 H 383.031 1.16132 4.59141 0
M  V30 4148 H 383.455 3.48499 5.80412 0
M  V30 4149 H 388.097 1.15924 4.06597 0
M  V30 4150 H 385.815 4.96569 6.3753 0
M  V30 4151 H 389.401 3.06941 4.94246 0
M  V30 4152 H 388.281 4.94767 6.0842 0
M  V30 4153 N 385.784 -1.5574 0.241426 0
M  V30 4154 C 386.731 -2.21149 -0.660432 0
M  V30 4155 C 387.701 -1.17356 -1.17545 0
M  V30 4156 O 388.886 -1.45784 -1.23093 0
M  V30 4157 C 386.026 -2.91059 -1.85414 0
M  V30 4158 C 385.139 -4.09495 -1.37616 0
M  V30 4159 C 384.274 -4.67135 -2.529 0
M  V30 4160 C 383.313 -5.77831 -2.01936 0
M  V30 4161 N 382.45 -6.29677 -3.10566 0
M  V30 4162 H 387.29 -2.97845 -0.095955 0
M  V30 4163 H 384.827 -1.47057 -0.0356024 0
M  V30 4164 H 386.785 -3.29788 -2.5553 0
M  V30 4165 H 385.415 -2.16846 -2.39118 0
M  V30 4166 H 384.467 -3.76117 -0.569235 0
M  V30 4167 H 385.779 -4.89423 -0.962618 0
M  V30 4168 H 384.933 -5.08409 -3.31067 0
M  V30 4169 H 383.672 -3.86411 -2.97553 0
M  V30 4170 H 382.677 -5.36039 -1.22238 0
M  V30 4171 H 383.902 -6.60402 -1.58259 0
M  V30 4172 H 381.848 -5.5186 -3.54664 0
M  V30 4173 H 381.765 -7.04783 -2.73526 0
M  V30 4174 H 383.033 -6.75609 -3.88809 0
M  V30 4175 N 387.262 0.0317525 -1.57568 0
M  V30 4176 C 388.51 0.721676 -1.88776 0
M  V30 4177 C 388.831 1.76039 -0.838772 0
M  V30 4178 O 388.101 1.95482 0.127935 0
M  V30 4179 H 386.681 0.269534 -0.696678 0
M  V30 4180 H 389.343 -0.00165879 -1.949 0
M  V30 4181 H 388.439 1.21293 -2.87566 0
M  V30 4182 N 388.74 1.54641 0.303973 0
M  V30 4183 C 389.97 1.77511 1.05705 0
M  V30 4184 C 390.378 0.533228 1.81531 0
M  V30 4185 O 389.721 -0.506423 1.76582 0
M  V30 4186 C 389.783 2.92779 2.08617 0
M  V30 4187 C 389.447 4.30977 1.52013 0
M  V30 4188 C 390.444 5.11115 0.9517 0
M  V30 4189 C 388.129 4.77571 1.55665 0
M  V30 4190 C 390.123 6.35966 0.427327 0
M  V30 4191 C 387.81 6.02384 1.02841 0
M  V30 4192 C 388.808 6.81417 0.464713 0
M  V30 4193 O 388.496 8.03881 -0.0555283 0
M  V30 4194 H 388.228 0.59579 0.319391 0
M  V30 4195 H 390.782 2.02401 0.349712 0
M  V30 4196 H 389.012 2.63506 2.83022 0
M  V30 4197 H 390.701 3.03252 2.69802 0
M  V30 4198 H 391.467 4.76264 0.916407 0
M  V30 4199 H 387.346 4.16085 1.9848 0
M  V30 4200 H 390.89 6.97599 -0.0133062 0
M  V30 4201 H 386.787 6.36723 1.06084 0
M  V30 4202 H 387.555 8.18479 0.0580522 0
M  V30 4203 N 390.218 -0.567019 1.47046 0
M  V30 4204 C 391.634 -0.891975 1.32348 0
M  V30 4205 C 391.834 -1.99154 0.306616 0
M  V30 4206 O 390.89 -2.50883 -0.28532 0
M  V30 4207 C 392.203 -1.29449 2.7141 0
M  V30 4208 C 393.751 -1.40646 2.79621 0
M  V30 4209 C 394.226 -1.84257 4.19301 0
M  V30 4210 N 395.717 -1.91424 4.21795 0
M  V30 4211 C 396.452 -2.26476 5.26779 0
M  V30 4212 N 395.948 -2.60211 6.42077 0
M  V30 4213 N 397.741 -2.27166 5.14152 0
M  V30 4214 H 389.892 0.159074 2.11803 0
M  V30 4215 H 392.155 0.00849752 0.947962 0
M  V30 4216 H 391.861 -0.560448 3.47206 0
M  V30 4217 H 391.735 -2.25273 3.02542 0
M  V30 4218 H 394.122 -2.13133 2.04104 0
M  V30 4219 H 394.203 -0.430339 2.52154 0
M  V30 4220 H 393.847 -1.12343 4.95319 0
M  V30 4221 H 393.777 -2.82855 4.44185 0
M  V30 4222 H 396.268 -1.6778 3.38612 0
M  V30 4223 H 396.581 -2.85956 7.17948 0
M  V30 4224 H 394.926 -2.57813 6.45413 0
M  V30 4225 H 398.117 -2.00244 4.23107 0
M  V30 4226 H 398.29 -2.54154 5.96079 0
M  V30 4227 N 391.696 -1.35014 -0.812953 0
M  V30 4228 C 392.643 -1.27412 -1.92444 0
M  V30 4229 C 393.613 -0.14733 -1.65445 0
M  V30 4230 O 394.798 -0.329974 -1.87925 0
M  V30 4231 C 391.938 -1.04558 -3.28879 0
M  V30 4232 C 391.051 -2.26101 -3.68106 0
M  V30 4233 C 390.186 -1.96449 -4.9354 0
M  V30 4234 C 389.225 -3.14081 -5.25376 0
M  V30 4235 N 388.362 -2.84246 -6.41988 0
M  V30 4236 H 393.202 -2.22463 -1.98278 0
M  V30 4237 H 390.739 -1.10593 -0.969933 0
M  V30 4238 H 392.697 -0.893413 -4.07522 0
M  V30 4239 H 391.327 -0.131719 -3.22531 0
M  V30 4240 H 390.379 -2.52204 -2.84775 0
M  V30 4241 H 391.691 -3.13959 -3.87597 0
M  V30 4242 H 390.845 -1.78026 -5.79993 0
M  V30 4243 H 389.584 -1.05867 -4.76071 0
M  V30 4244 H 388.589 -3.33089 -4.37415 0
M  V30 4245 H 389.814 -4.05455 -5.44778 0
M  V30 4246 H 387.76 -1.96252 -6.25956 0
M  V30 4247 H 387.677 -3.65637 -6.61699 0
M  V30 4248 H 388.945 -2.6935 -7.31485 0
M  V30 4249 N 393.175 1.03435 -1.18907 0
M  V30 4250 C 394.422 1.76743 -0.988334 0
M  V30 4251 C 394.75 1.88447 0.481441 0
M  V30 4252 O 394.005 1.39383 1.37371 0
M  V30 4253 C 394.304 3.19792 -1.59586 0
M  V30 4254 C 393.97 3.28108 -3.09283 0
M  V30 4255 C 392.632 3.30084 -3.5014 0
M  V30 4256 C 394.984 3.27696 -4.05296 0
M  V30 4257 C 392.312 3.29299 -4.85571 0
M  V30 4258 C 394.664 3.28451 -5.4065 0
M  V30 4259 C 393.328 3.28723 -5.80946 0
M  V30 4260 H 392.598 0.64675 -0.361657 0
M  V30 4261 H 395.245 1.21442 -1.48068 0
M  V30 4262 H 393.55 3.78136 -1.02568 0
M  V30 4263 H 395.247 3.75171 -1.41589 0
M  V30 4264 H 391.837 3.27294 -2.76725 0
M  V30 4265 H 396.021 3.25354 -3.74778 0
M  V30 4266 H 391.277 3.2783 -5.16079 0
M  V30 4267 H 395.451 3.27082 -6.14809 0
M  V30 4268 H 393.078 3.27868 -6.85862 0
M  V30 4269 N 394.653 0.992116 1.22453 0
M  V30 4270 C 395.616 0.546883 2.2258 0
M  V30 4271 C 396.616 -0.369829 1.56489 0
M  V30 4272 O 397.806 -0.161896 1.73446 0
M  V30 4273 C 394.938 -0.204659 3.40285 0
M  V30 4274 H 396.131 1.43234 2.63484 0
M  V30 4275 H 393.684 0.779239 1.3549 0
M  V30 4276 H 394.419 -1.10614 3.04853 0
M  V30 4277 H 394.204 0.45354 3.89468 0
M  V30 4278 H 395.694 -0.504358 4.14543 0
M  V30 4279 N 396.131 -1.37776 0.765217 0
M  V30 4280 C 397.377 -2.00604 0.336066 0
M  V30 4281 C 397.732 -1.59657 -1.07366 0
M  V30 4282 O 397.025 -0.829565 -1.7271 0
M  V30 4283 C 397.219 -3.5504 0.410053 0
M  V30 4284 C 397.048 -4.10985 1.82542 0
M  V30 4285 C 395.818 -4.42229 2.44461 0
M  V30 4286 C 398.016 -4.32438 2.78392 0
M  V30 4287 N 395.998 -4.8385 3.77839 0
M  V30 4288 C 397.369 -4.76596 3.96556 0
M  V30 4289 C 399.424 -4.14559 2.75764 0
M  V30 4290 C 398.127 -5.04748 5.12466 0
M  V30 4291 C 400.153 -4.43843 3.90842 0
M  V30 4292 C 399.515 -4.88235 5.07746 0
M  V30 4293 H 395.614 -0.763325 0.169881 0
M  V30 4294 H 398.198 -1.67197 0.997656 0
M  V30 4295 H 396.369 -3.87769 -0.221325 0
M  V30 4296 H 398.101 -4.0468 -0.0405285 0
M  V30 4297 H 394.856 -4.31079 1.96131 0
M  V30 4298 H 395.28 -5.08979 4.46396 0
M  V30 4299 H 399.922 -3.79415 1.86558 0
M  V30 4300 H 397.64 -5.38783 6.02277 0
M  V30 4301 H 401.226 -4.31603 3.90141 0
M  V30 4302 H 400.106 -5.10461 5.95315 0
M  V30 4303 N 397.609 -0.515225 -1.4894 0
M  V30 4304 C 398.857 0.0241671 -2.02086 0
M  V30 4305 C 399.178 1.3616 -1.3959 0
M  V30 4306 O 398.448 1.87841 -0.556121 0
M  V30 4307 H 397.028 0.0119203 -0.746905 0
M  V30 4308 H 399.69 -0.675702 -1.82812 0
M  V30 4309 H 398.786 0.143385 -3.1177 0
M  V30 4310 N 399.087 1.5561 -0.249682 0
M  V30 4311 C 400.037 2.18157 0.662673 0
M  V30 4312 C 401.021 1.1383 1.13717 0
M  V30 4313 O 402.213 1.39731 1.08648 0
M  V30 4314 C 399.342 2.88672 1.85805 0
M  V30 4315 C 398.428 4.00258 1.40193 0
M  V30 4316 N 398.819 5.01473 0.660213 0
M  V30 4317 C 397.117 4.12864 1.68698 0
M  V30 4318 C 397.818 5.80155 0.423695 0
M  V30 4319 N 396.794 5.34533 0.988721 0
M  V30 4320 H 400.596 2.93769 0.0878688 0
M  V30 4321 H 398.11 1.62316 -0.0521183 0
M  V30 4322 H 400.107 3.31912 2.5227 0
M  V30 4323 H 398.767 2.14564 2.43705 0
M  V30 4324 H 399.778 5.16971 0.310047 0
M  V30 4325 H 396.455 3.4993 2.27717 0
M  V30 4326 H 397.845 6.71688 -0.168616 0
M  V30 4327 N 400.565 -0.0233959 1.57583 0
M  V30 4328 C 401.842 -0.748794 1.807 0
M  V30 4329 C 402.222 -1.9327 0.849106 0
M  V30 4330 O 401.57 -2.28247 -0.107468 0
M  V30 4331 C 401.78 -1.17651 3.28571 0
M  V30 4332 C 403.128 -1.59008 3.93702 0
M  V30 4333 O 404.152 -1.27094 3.32755 0
M  V30 4334 O 403.011 -2.18264 5.01022 0
M  V30 4335 H 400.105 -0.362578 0.743281 0
M  V30 4336 H 402.651 0.000261958 1.697 0
M  V30 4337 H 401.423 -0.331603 3.89892 0
M  V30 4338 H 401.046 -1.98541 3.44481 0
M  V30 4339 N 402.043 -1.548 -0.295768 0
M  V30 4340 C 402.953 -1.89177 -1.38742 0
M  V30 4341 C 403.969 -0.786481 -1.55211 0
M  V30 4342 O 405.145 -1.08344 -1.69775 0
M  V30 4343 C 402.21 -2.13663 -2.73036 0
M  V30 4344 C 401.271 -3.37349 -2.65508 0
M  V30 4345 C 400.504 -3.60658 -3.93398 0
M  V30 4346 O 400.727 -2.86882 -4.93006 0
M  V30 4347 O 399.661 -4.54179 -3.94975 0
M  V30 4348 H 403.487 -2.82059 -1.12589 0
M  V30 4349 H 401.072 -1.41056 -0.492295 0
M  V30 4350 H 402.954 -2.3094 -3.52484 0
M  V30 4351 H 401.629 -1.23967 -2.99022 0
M  V30 4352 H 400.536 -3.25431 -1.84514 0
M  V30 4353 H 401.869 -4.27192 -2.44474 0
M  V30 4354 N 403.521 0.559213 -1.47345 0
M  V30 4355 C 404.451 1.67622 -1.62558 0
M  V30 4356 C 405.432 1.63331 -0.475087 0
M  V30 4357 O 406.617 1.80983 -0.704182 0
M  V30 4358 C 403.747 3.0626 -1.63774 0
M  V30 4359 C 402.701 3.25397 -2.7803 0
M  V30 4360 C 402.027 4.64801 -2.64318 0
M  V30 4361 C 403.327 3.10965 -4.19641 0
M  V30 4362 H 405.021 1.55146 -2.56067 0
M  V30 4363 H 402.567 0.744961 -1.23233 0
M  V30 4364 H 404.52 3.84247 -1.73008 0
M  V30 4365 H 403.244 3.1969 -0.66825 0
M  V30 4366 H 401.903 2.49817 -2.68304 0
M  V30 4367 H 401.551 4.75028 -1.65401 0
M  V30 4368 H 401.251 4.78555 -3.40968 0
M  V30 4369 H 402.775 5.44926 -2.75478 0
M  V30 4370 H 404.189 3.78772 -4.30354 0
M  V30 4371 H 402.586 3.36229 -4.97062 0
M  V30 4372 H 403.656 2.07736 -4.38148 0
M  V30 4373 N 404.999 1.35443 0.805782 0
M  V30 4374 C 405.946 1.28431 1.91766 0
M  V30 4375 C 406.916 0.156102 1.65365 0
M  V30 4376 O 408.101 0.339936 1.87747 0
M  V30 4377 C 405.241 1.06301 3.2832 0
M  V30 4378 C 404.354 2.2805 3.66902 0
M  V30 4379 C 403.489 1.99064 4.92491 0
M  V30 4380 C 402.528 3.16863 5.23703 0
M  V30 4381 N 401.665 2.87647 6.40471 0
M  V30 4382 H 406.505 2.23511 1.97096 0
M  V30 4383 H 404.042 1.11105 0.964054 0
M  V30 4384 H 406 0.915012 4.07042 0
M  V30 4385 H 404.63 0.148822 3.22457 0
M  V30 4386 H 403.682 2.53711 2.83434 0
M  V30 4387 H 404.994 3.1601 3.85927 0
M  V30 4388 H 404.148 1.81099 5.7904 0
M  V30 4389 H 402.887 1.0839 4.75503 0
M  V30 4390 H 401.892 3.35404 4.35642 0
M  V30 4391 H 403.117 4.08339 5.4262 0
M  V30 4392 H 401.063 1.99568 6.24907 0
M  V30 4393 H 400.98 3.69141 6.59751 0
M  V30 4394 H 402.248 2.73226 7.30047 0
M  V30 4395 N 406.477 -1.02803 1.19454 0
M  V30 4396 C 407.888 -1.57667 0.999899 0
M  V30 4397 C 408.239 -1.91041 -0.446956 0
M  V30 4398 O 407.364 -1.70978 -1.32648 0
M  V30 4399 C 407.959 -2.86477 1.80877 0
M  V30 4400 C 406.518 -3.37911 1.65811 0
M  V30 4401 C 405.665 -2.11343 1.79526 0
M  V30 4402 H 408.616 -0.853214 1.33813 0
M  V30 4403 H 408.637 -3.57408 1.30536 0
M  V30 4404 H 408.149 -2.62155 2.86175 0
M  V30 4405 H 406.25 -3.67218 0.63102 0
M  V30 4406 H 406.363 -4.10885 2.46395 0
M  V30 4407 H 404.727 -2.23254 1.22596 0
M  V30 4408 H 405.51 -1.89461 2.86285 0
M  V30 4409 N 407.956 -0.998596 -1.21925 0
M  V30 4410 C 409.202 -0.678667 -1.91107 0
M  V30 4411 C 409.535 0.78791 -1.77498 0
M  V30 4412 O 408.81 1.57043 -1.1475 0
M  V30 4413 C 409.093 -1.09245 -3.43129 0
M  V30 4414 C 408.946 -2.61801 -3.6576 0
M  V30 4415 C 410.265 -0.649984 -4.35274 0
M  V30 4416 H 407.384 -0.248025 -0.694012 0
M  V30 4417 H 410.026 -1.24314 -1.43688 0
M  V30 4418 H 408.176 -0.612171 -3.83647 0
M  V30 4419 H 409.848 -3.17543 -3.34611 0
M  V30 4420 H 408.091 -3.03609 -3.09845 0
M  V30 4421 H 408.762 -2.85804 -4.7225 0
M  V30 4422 H 411.238 -1.0626 -4.02303 0
M  V30 4423 H 410.114 -0.967743 -5.40302 0
M  V30 4424 H 410.375 0.449139 -4.39813 0
M  V30 4425 N 409.434 1.37368 -0.772513 0
M  V30 4426 C 410.659 2.0447 -0.347386 0
M  V30 4427 C 411.084 1.57882 1.0225 0
M  V30 4428 O 410.442 0.73941 1.65537 0
M  V30 4429 C 410.49 3.58369 -0.400479 0
M  V30 4430 O 409.594 4.0803 0.598789 0
M  V30 4431 H 408.935 0.646773 -0.15027 0
M  V30 4432 H 411.465 1.75667 -1.04892 0
M  V30 4433 H 411.475 4.07183 -0.258045 0
M  V30 4434 H 410.15 3.91633 -1.39986 0
M  V30 4435 H 408.727 3.70534 0.419411 0
M  V30 4436 N 410.912 0.523116 1.48665 0
M  V30 4437 C 412.328 0.180511 1.58576 0
M  V30 4438 C 412.528 -1.31597 1.52592 0
M  V30 4439 O 411.584 -2.0937 1.4114 0
M  V30 4440 C 412.897 0.776949 2.90489 0
M  V30 4441 C 414.445 0.745058 3.04003 0
M  V30 4442 C 414.92 1.31995 4.38567 0
M  V30 4443 N 416.411 1.28162 4.45117 0
M  V30 4444 C 417.146 1.6964 5.47731 0
M  V30 4445 N 416.642 2.18816 6.57337 0
M  V30 4446 N 418.435 1.6092 5.38573 0
M  V30 4447 H 410.586 1.4958 1.50797 0
M  V30 4448 H 412.849 0.621772 0.715614 0
M  V30 4449 H 412.555 1.82732 3.00503 0
M  V30 4450 H 412.429 0.25007 3.7637 0
M  V30 4451 H 414.816 -0.296532 2.93606 0
M  V30 4452 H 414.897 1.30933 2.1975 0
M  V30 4453 H 414.541 2.36043 4.49718 0
M  V30 4454 H 414.471 0.731418 5.21496 0
M  V30 4455 H 416.962 0.92155 3.66491 0
M  V30 4456 H 417.275 2.48478 7.31764 0
M  V30 4457 H 415.62 2.22805 6.58318 0
M  V30 4458 H 418.811 1.22304 4.5184 0
M  V30 4459 H 418.984 1.93567 6.18414 0
M  V30 4460 N 412.39 -1.55475 0.257931 0
M  V30 4461 C 413.615 -2.04064 -0.370488 0
M  V30 4462 C 414.04 -1.13565 -1.49948 0
M  V30 4463 O 413.398 -0.130781 -1.80828 0
M  V30 4464 C 413.446 -3.50554 -0.845237 0
M  V30 4465 O 412.55 -3.63173 -1.95394 0
M  V30 4466 H 411.891 -0.659257 -0.0792243 0
M  V30 4467 H 414.421 -2.00903 0.387212 0
M  V30 4468 H 414.431 -3.91588 -1.14555 0
M  V30 4469 H 413.106 -4.15896 -0.0191259 0
M  V30 4470 H 411.683 -3.34039 -1.65748 0
M  V30 4471 N 413.868 0.0150385 -1.57593 0
M  V30 4472 C 415.115 0.703001 -1.89906 0
M  V30 4473 C 415.443 1.74604 -0.856944 0
M  V30 4474 O 414.698 1.95197 0.140287 0
M  V30 4475 C 414.997 1.39686 -3.28972 0
M  V30 4476 C 414.663 0.488457 -4.48246 0
M  V30 4477 C 413.325 0.2383 -4.8061 0
M  V30 4478 C 415.677 -0.137881 -5.21018 0
M  V30 4479 C 413.005 -0.646738 -5.83125 0
M  V30 4480 C 415.357 -1.0107 -6.24474 0
M  V30 4481 C 414.021 -1.27019 -6.55303 0
M  V30 4482 H 413.291 0.257246 -0.694914 0
M  V30 4483 H 415.938 -0.037259 -1.91464 0
M  V30 4484 H 414.243 2.21079 -3.23468 0
M  V30 4485 H 415.94 1.93495 -3.51227 0
M  V30 4486 H 412.53 0.693593 -4.22951 0
M  V30 4487 H 416.714 0.0423953 -4.96282 0
M  V30 4488 H 411.97 -0.855937 -6.05379 0
M  V30 4489 H 416.144 -1.50247 -6.79999 0
M  V30 4490 H 413.771 -1.95769 -7.3456 0
M  V30 4491 N 415.346 1.54954 0.287554 0
M  V30 4492 C 416.571 1.79209 1.04397 0
M  V30 4493 C 416.996 0.556431 1.79682 0
M  V30 4494 O 416.354 -0.493518 1.74454 0
M  V30 4495 C 416.402 3.00739 1.98969 0
M  V30 4496 O 415.506 2.74805 3.075 0
M  V30 4497 H 414.847 0.592755 0.299227 0
M  V30 4498 H 417.377 2.02068 0.320886 0
M  V30 4499 H 417.387 3.29077 2.4119 0
M  V30 4500 H 416.062 3.90329 1.43582 0
M  V30 4501 H 414.639 2.57523 2.69697 0
M  V30 4502 N 416.824 -0.551391 1.4764 0
M  V30 4503 C 417.734 -1.68525 1.63207 0
M  V30 4504 C 418.75 -1.6621 0.514815 0
M  V30 4505 O 419.926 -1.85551 0.783113 0
M  V30 4506 C 416.991 -3.05025 1.64805 0
M  V30 4507 C 416.052 -3.18362 2.88 0
M  V30 4508 C 415.285 -4.4835 2.89513 0
M  V30 4509 O 415.508 -5.34163 2.00065 0
M  V30 4510 O 414.442 -4.65602 3.81443 0
M  V30 4511 H 418.268 -1.58333 2.59161 0
M  V30 4512 H 415.853 -0.722063 1.30792 0
M  V30 4513 H 417.735 -3.86245 1.68502 0
M  V30 4514 H 416.41 -3.15587 0.720197 0
M  V30 4515 H 415.317 -2.36518 2.89845 0
M  V30 4516 H 416.65 -3.12707 3.80099 0
M  V30 4517 N 418.302 -1.35869 -0.798587 0
M  V30 4518 C 419.548 -1.30788 -1.55775 0
M  V30 4519 C 419.903 0.114558 -1.92059 0
M  V30 4520 O 419.196 1.06691 -1.59147 0
M  V30 4521 C 419.39 -2.1556 -2.85077 0
M  V30 4522 C 419.219 -3.65904 -2.61428 0
M  V30 4523 C 417.989 -4.35112 -2.56915 0
M  V30 4524 C 420.187 -4.59375 -2.31255 0
M  V30 4525 N 418.169 -5.71155 -2.25068 0
M  V30 4526 C 419.54 -5.83598 -2.09316 0
M  V30 4527 C 421.595 -4.48035 -2.17185 0
M  V30 4528 C 420.298 -6.97755 -1.74731 0
M  V30 4529 C 422.324 -5.62049 -1.83998 0
M  V30 4530 C 421.686 -6.85305 -1.629 0
M  V30 4531 H 417.785 -0.533855 -0.571422 0
M  V30 4532 H 420.369 -1.7083 -0.934079 0
M  V30 4533 H 418.54 -1.77776 -3.45326 0
M  V30 4534 H 420.272 -2.01938 -3.50718 0
M  V30 4535 H 417.027 -3.87812 -2.71843 0
M  V30 4536 H 417.451 -6.42978 -2.11916 0
M  V30 4537 H 422.093 -3.53338 -2.3219 0
M  V30 4538 H 419.811 -7.92411 -1.58464 0
M  V30 4539 H 423.397 -5.55232 -1.73808 0
M  V30 4540 H 422.277 -7.72034 -1.37596 0
M  V30 4541 N 419.78 1.02168 -1.19998 0
M  V30 4542 C 421.027 1.75685 -1.00702 0
M  V30 4543 C 421.355 1.88947 0.461426 0
M  V30 4544 O 420.61 1.40832 1.35885 0
M  V30 4545 C 420.909 3.18081 -1.62969 0
M  V30 4546 C 420.575 3.24809 -3.12746 0
M  V30 4547 C 419.237 3.26352 -3.53621 0
M  V30 4548 C 421.589 3.23379 -4.08749 0
M  V30 4549 C 418.917 3.2413 -4.89036 0
M  V30 4550 C 421.269 3.22698 -5.44104 0
M  V30 4551 C 419.933 3.22542 -5.84399 0
M  V30 4552 H 419.203 0.642877 -0.368496 0
M  V30 4553 H 421.85 1.19865 -1.49348 0
M  V30 4554 H 420.155 3.77027 -1.06573 0
M  V30 4555 H 421.852 3.73648 -1.45561 0
M  V30 4556 H 418.442 3.2434 -2.80181 0
M  V30 4557 H 422.626 3.21361 -3.78207 0
M  V30 4558 H 417.882 3.22338 -5.19527 0
M  V30 4559 H 422.056 3.20543 -6.18244 0
M  V30 4560 H 419.683 3.20575 -6.89301 0
M  V30 4561 N 421.258 1.00505 1.21394 0
M  V30 4562 C 422.506 0.686415 1.90086 0
M  V30 4563 C 422.827 -0.785264 1.7849 0
M  V30 4564 O 422.097 -1.56387 1.17983 0
M  V30 4565 H 420.677 0.2509 0.703604 0
M  V30 4566 H 423.339 1.27417 1.47482 0
M  V30 4567 H 422.435 0.959621 2.96981 0
M  V30 4568 N 422.737 -1.36956 0.779787 0
M  V30 4569 C 423.667 -2.32761 0.185651 0
M  V30 4570 C 424.648 -1.56177 -0.673989 0
M  V30 4571 O 425.833 -1.84378 -0.609797 0
M  V30 4572 C 422.963 -3.40418 -0.687964 0
M  V30 4573 C 421.917 -4.27941 0.0710102 0
M  V30 4574 C 421.243 -5.26681 -0.922573 0
M  V30 4575 C 422.543 -5.07006 1.25467 0
M  V30 4576 H 424.237 -2.82698 0.986008 0
M  V30 4577 H 421.783 -1.3592 0.475592 0
M  V30 4578 H 423.736 -4.06423 -1.11348 0
M  V30 4579 H 422.46 -2.89025 -1.52093 0
M  V30 4580 H 421.119 -3.63478 0.47739 0
M  V30 4581 H 420.767 -4.71565 -1.7503 0
M  V30 4582 H 420.467 -5.86103 -0.419237 0
M  V30 4583 H 421.991 -5.9556 -1.34686 0
M  V30 4584 H 423.405 -5.66105 0.905401 0
M  V30 4585 H 421.802 -5.75793 1.69063 0
M  V30 4586 H 422.872 -4.3921 2.05481 0
M  V30 4587 N 424.215 -0.530993 -1.48385 0
M  V30 4588 C 425.463 0.00273189 -2.021 0
M  V30 4589 C 425.784 1.34672 -1.41027 0
M  V30 4590 O 425.054 1.8724 -0.576012 0
M  V30 4591 H 423.634 0.00399774 -0.746989 0
M  V30 4592 H 426.296 -0.695054 -1.82085 0
M  V30 4593 H 425.392 0.11031 -3.11905 0
M  V30 4594 N 425.693 1.55336 -0.266172 0
M  V30 4595 C 426.623 2.25146 0.618981 0
M  V30 4596 C 427.604 1.23845 1.16604 0
M  V30 4597 O 428.789 1.52544 1.20183 0
M  V30 4598 C 425.919 2.96572 1.80728 0
M  V30 4599 C 424.873 4.04726 1.39215 0
M  V30 4600 C 424.199 4.63678 2.66283 0
M  V30 4601 C 425.499 5.19407 0.548942 0
M  V30 4602 H 427.193 2.99377 0.0368116 0
M  V30 4603 H 424.739 1.43991 0.0162651 0
M  V30 4604 H 426.692 3.44116 2.43232 0
M  V30 4605 H 425.416 2.19861 2.41514 0
M  V30 4606 H 424.075 3.57979 0.790351 0
M  V30 4607 H 423.723 3.83646 3.25308 0
M  V30 4608 H 423.423 5.367 2.39222 0
M  V30 4609 H 424.947 5.13967 3.29651 0
M  V30 4610 H 426.361 5.63059 1.07876 0
M  V30 4611 H 424.758 5.98936 0.373593 0
M  V30 4612 H 425.828 4.8295 -0.434394 0
M  V30 4613 N 427.171 -0.0066808 1.57599 0
M  V30 4614 C 428.399 -0.704087 1.94551 0
M  V30 4615 C 428.814 -1.67677 0.867746 0
M  V30 4616 O 428.171 -1.8185 -0.153925 0
M  V30 4617 C 428.222 -1.44177 3.31505 0
M  V30 4618 O 427.943 -0.508097 4.35144 0
M  V30 4619 C 429.444 -2.23429 3.82876 0
M  V30 4620 H 426.664 -0.196523 0.641576 0
M  V30 4621 H 429.208 0.042453 2.04456 0
M  V30 4622 H 427.363 -2.13999 3.22929 0
M  V30 4623 H 427.777 -1.02782 5.14331 0
M  V30 4624 H 429.251 -2.70552 4.8115 0
M  V30 4625 H 429.728 -3.05818 3.15233 0
M  V30 4626 H 430.334 -1.58636 3.94607 0
M  V30 4627 N 428.649 -1.55105 -0.279332 0
M  V30 4628 C 429.579 -1.90557 -1.34945 0
M  V30 4629 C 430.56 -0.766738 -1.51839 0
M  V30 4630 O 431.745 -1.02434 -1.64988 0
M  V30 4631 C 428.875 -2.17193 -2.71006 0
M  V30 4632 C 427.829 -3.33021 -2.68851 0
M  V30 4633 C 427.155 -3.45123 -4.08405 0
M  V30 4634 C 428.455 -4.69578 -2.28678 0
M  V30 4635 H 430.149 -2.80188 -1.05522 0
M  V30 4636 H 427.695 -1.34811 -0.506173 0
M  V30 4637 H 429.648 -2.40581 -3.45975 0
M  V30 4638 H 428.372 -1.24355 -3.01999 0
M  V30 4639 H 427.031 -3.0959 -1.9634 0
M  V30 4640 H 426.679 -2.49762 -4.3661 0
M  V30 4641 H 426.379 -4.22995 -4.07859 0
M  V30 4642 H 427.903 -3.70796 -4.85121 0
M  V30 4643 H 429.317 -4.92553 -2.93368 0
M  V30 4644 H 427.714 -5.5032 -2.39306 0
M  V30 4645 H 428.784 -4.68828 -1.23807 0
M  V30 4646 N 430.127 0.543554 -1.4793 0
M  V30 4647 C 431.376 1.29649 -1.54512 0
M  V30 4648 C 431.689 1.94382 -0.217973 0
M  V30 4649 O 432.895 2.71017 -0.161908 0
M  V30 4650 C 431.351 2.35175 -2.72435 0
M  V30 4651 C 430.959 1.76572 -4.11736 0
M  V30 4652 C 432.703 3.11564 -2.8832 0
M  V30 4653 C 430.61 2.79958 -5.20939 0
M  V30 4654 H 429.54 0.487541 -0.57517 0
M  V30 4655 H 432.191 0.575708 -1.74235 0
M  V30 4656 H 430.573 3.10229 -2.46118 0
M  V30 4657 H 431.747 1.07799 -4.48013 0
M  V30 4658 H 430.062 1.12722 -4.00852 0
M  V30 4659 H 432.659 3.88794 -3.67074 0
M  V30 4660 H 433.002 3.66594 -1.97268 0
M  V30 4661 H 433.535 2.43623 -3.14472 0
M  V30 4662 H 430.274 2.29766 -6.13912 0
M  V30 4663 H 429.794 3.47101 -4.89164 0
M  V30 4664 H 431.473 3.43198 -5.48474 0
M  V30 4665 N 431.605 1.3629 0.791371 0
M  V30 4666 C 432.882 1.20962 1.53712 0
M  V30 4667 C 433.262 -0.205021 2.10102 0
M  V30 4668 O 432.61 -1.21042 1.93807 0
M  V30 4669 C 432.82 2.29002 2.63361 0
M  V30 4670 C 434.168 2.65572 3.31295 0
M  V30 4671 O 435.192 2.2803 2.73643 0
M  V30 4672 O 434.051 3.3018 4.35481 0
M  V30 4673 H 431.145 0.47086 0.679867 0
M  V30 4674 H 433.691 1.48016 0.830021 0
M  V30 4675 H 432.463 3.2382 2.19674 0
M  V30 4676 H 432.086 2.03303 3.41692 0
M  V30 4677 N 433.083 -1.0153 1.20538 0
M  V30 4678 C 434.046 -2.0826 0.957098 0
M  V30 4679 C 435.046 -1.60657 -0.0678655 0
M  V30 4680 O 436.236 -1.73385 0.168332 0
M  V30 4681 C 433.368 -3.38033 0.441188 0
M  V30 4682 H 434.561 -2.31719 1.90384 0
M  V30 4683 H 432.114 -1.1835 1.02093 0
M  V30 4684 H 432.849 -3.20249 -0.510961 0
M  V30 4685 H 432.634 -3.73911 1.18038 0
M  V30 4686 H 434.124 -4.16613 0.287009 0
M  V30 4687 N 434.561 -1.01147 -1.20859 0
M  V30 4688 C 435.491 -0.597663 -2.25722 0
M  V30 4689 C 436.472 0.384744 -1.65692 0
M  V30 4690 O 437.657 0.271303 -1.92296 0
M  V30 4691 C 434.787 0.0700149 -3.47229 0
M  V30 4692 C 433.741 -0.832843 -4.19819 0
M  V30 4693 C 433.067 -0.0312202 -5.34691 0
M  V30 4694 C 434.367 -2.1385 -4.76514 0
M  V30 4695 H 436.061 -1.47423 -2.60589 0
M  V30 4696 H 433.607 -0.710301 -1.25263 0
M  V30 4697 H 435.56 0.37103 -4.19763 0
M  V30 4698 H 434.284 0.981259 -3.11511 0
M  V30 4699 H 432.943 -1.11778 -3.49144 0
M  V30 4700 H 432.591 0.881515 -4.95215 0
M  V30 4701 H 432.291 -0.632434 -5.84187 0
M  V30 4702 H 433.815 0.26346 -6.10031 0
M  V30 4703 H 435.229 -1.9002 -5.40893 0
M  V30 4704 H 433.626 -2.69012 -5.36426 0
M  V30 4705 H 434.696 -2.80495 -3.95538 0
M  V30 4706 N 436.039 1.36541 -0.78704 0
M  V30 4707 C 437.316 1.9355 -0.282424 0
M  V30 4708 C 437.696 1.71919 1.22503 0
M  V30 4709 O 437.044 1.07677 2.01539 0
M  V30 4710 C 437.254 3.4246 -0.672462 0
M  V30 4711 C 438.602 4.19582 -0.650863 0
M  V30 4712 O 439.626 3.50889 -0.612789 0
M  V30 4713 O 438.485 5.42106 -0.691623 0
M  V30 4714 H 435.579 0.824091 -0.0693 0
M  V30 4715 H 438.125 1.45736 -0.869423 0
M  V30 4716 H 436.897 3.51851 -1.71221 0
M  V30 4717 H 436.52 3.97556 -0.0592211 0
M  V30 4718 N 437.518 0.538854 1.48102 0
M  V30 4719 C 438.746 0.0123136 2.06896 0
M  V30 4720 C 439.161 -1.27312 1.39417 0
M  V30 4721 O 438.518 -1.75949 0.484582 0
M  V30 4722 C 438.569 -0.206118 3.60912 0
M  V30 4723 O 438.29 1.0284 4.25859 0
M  V30 4724 C 439.791 -0.772033 4.36526 0
M  V30 4725 H 437.011 0.0375239 0.66995 0
M  V30 4726 H 439.555 0.747032 1.90367 0
M  V30 4727 H 437.71 -0.89091 3.77017 0
M  V30 4728 H 438.124 0.814654 5.18135 0
M  V30 4729 H 439.598 -0.874251 5.45033 0
M  V30 4730 H 440.075 -1.77904 4.01555 0
M  V30 4731 H 440.681 -0.123526 4.25121 0
M  V30 4732 N 438.996 -1.55193 0.274407 0
M  V30 4733 C 439.929 -2.18606 -0.654712 0
M  V30 4734 C 440.907 -1.14677 -1.15273 0
M  V30 4735 O 442.091 -1.43198 -1.22583 0
M  V30 4736 C 439.218 -2.80875 -1.89281 0
M  V30 4737 C 438.264 -3.981 -1.53032 0
M  V30 4738 S 439.097 -5.32025 -0.609107 0
M  V30 4739 C 440.253 -5.97761 -1.85559 0
M  V30 4740 H 440.486 -2.97074 -0.115894 0
M  V30 4741 H 438.019 -1.54288 0.05867 0
M  V30 4742 H 439.977 -3.17381 -2.60345 0
M  V30 4743 H 438.638 -2.02302 -2.40277 0
M  V30 4744 H 437.831 -4.40356 -2.45158 0
M  V30 4745 H 437.433 -3.63013 -0.899874 0
M  V30 4746 H 439.725 -6.16951 -2.7996 0
M  V30 4747 H 440.668 -6.92545 -1.47605 0
M  V30 4748 H 441.076 -5.27113 -2.02021 0
M  V30 4749 N 440.474 -0.00167713 -1.576 0
M  V30 4750 C 441.72 0.67819 -1.91761 0
M  V30 4751 C 442.075 1.71288 -0.876256 0
M  V30 4752 O 441.368 1.91276 0.111333 0
M  V30 4753 C 441.562 1.36189 -3.30435 0
M  V30 4754 C 441.391 0.394938 -4.47962 0
M  V30 4755 C 440.161 0.00472875 -5.053 0
M  V30 4756 C 442.359 -0.339521 -5.13178 0
M  V30 4757 N 440.341 -0.960257 -6.06343 0
M  V30 4758 C 441.712 -1.15914 -6.09068 0
M  V30 4759 C 443.767 -0.403177 -4.96265 0
M  V30 4760 C 442.47 -2.03661 -6.89866 0
M  V30 4761 C 444.496 -1.26788 -5.77649 0
M  V30 4762 C 443.858 -2.07535 -6.73134 0
M  V30 4763 H 439.957 0.221317 -0.750028 0
M  V30 4764 H 442.541 -0.0624182 -1.946 0
M  V30 4765 H 440.712 2.07278 -3.28467 0
M  V30 4766 H 442.444 1.99658 -3.52021 0
M  V30 4767 H 439.199 0.373452 -4.72125 0
M  V30 4768 H 439.623 -1.43817 -6.61548 0
M  V30 4769 H 444.265 0.206818 -4.22294 0
M  V30 4770 H 441.983 -2.65727 -7.63161 0
M  V30 4771 H 445.569 -1.32107 -5.66603 0
M  V30 4772 H 444.449 -2.73363 -7.35012 0
M  V30 4773 N 441.952 1.55251 0.271103 0
M  V30 4774 C 443.201 1.75151 1.00025 0
M  V30 4775 C 443.514 0.561041 1.87381 0
M  V30 4776 O 444.72 0.642506 2.63788 0
M  V30 4777 C 443.176 3.09999 1.82835 0
M  V30 4778 C 442.784 4.3662 1.00336 0
M  V30 4779 C 444.528 3.39249 2.55168 0
M  V30 4780 C 442.435 5.62506 1.82595 0
M  V30 4781 H 441.365 0.652877 0.377183 0
M  V30 4782 H 444.016 1.81708 0.255843 0
M  V30 4783 H 442.398 2.97485 2.61378 0
M  V30 4784 H 443.572 4.60055 0.261959 0
M  V30 4785 H 441.887 4.14527 0.394486 0
M  V30 4786 H 444.484 4.3051 3.1712 0
M  V30 4787 H 444.827 2.59467 3.2555 0
M  V30 4788 H 445.36 3.52869 1.83653 0
M  V30 4789 H 442.099 6.45041 1.16631 0
M  V30 4790 H 441.619 5.43211 2.54327 0
M  V30 4791 H 443.298 6.00875 2.39913 0
M  V30 4792 N 443.43 -0.535701 1.48216 0
M  V30 4793 C 444.36 -1.65014 1.65204 0
M  V30 4794 C 445.341 -1.62554 0.501011 0
M  V30 4795 O 446.526 -1.7984 0.732886 0
M  V30 4796 C 443.656 -3.03616 1.68626 0
M  V30 4797 C 442.61 -3.20932 2.83172 0
M  V30 4798 C 441.936 -4.60537 2.71679 0
M  V30 4799 C 443.236 -3.04249 4.24535 0
M  V30 4800 H 444.93 -1.51053 2.58502 0
M  V30 4801 H 442.476 -0.725262 1.24402 0
M  V30 4802 H 444.429 -3.81446 1.79099 0
M  V30 4803 H 443.153 -3.18587 0.719026 0
M  V30 4804 H 441.812 -2.45517 2.72244 0
M  V30 4805 H 441.46 -4.72336 1.72937 0
M  V30 4806 H 441.16 -4.73069 3.48538 0
M  V30 4807 H 442.684 -5.40475 2.84112 0
M  V30 4808 H 444.098 -3.71877 4.36326 0
M  V30 4809 H 442.495 -3.28278 5.02348 0
M  V30 4810 H 443.565 -2.00739 4.41397 0
M  V30 4811 N 444.908 -1.36708 -0.784132 0
M  V30 4812 C 446.156 -1.30972 -1.53918 0
M  V30 4813 C 446.477 0.109086 -1.94695 0
M  V30 4814 O 445.747 1.05048 -1.65353 0
M  V30 4815 H 444.327 -0.481819 -0.570841 0
M  V30 4816 H 446.989 -1.71063 -0.934002 0
M  V30 4817 H 446.085 -1.94061 -2.44431 0
M  V30 4818 N 446.386 1.0089 -1.21074 0
M  V30 4819 C 447.316 2.1145 -0.990523 0
M  V30 4820 C 448.297 1.69897 0.0831699 0
M  V30 4821 O 449.482 1.94052 -0.0758853 0
M  V30 4822 C 446.612 3.42914 -0.550177 0
M  V30 4823 C 445.566 3.98244 -1.56799 0
M  V30 4824 C 444.892 5.25568 -0.984013 0
M  V30 4825 C 446.192 4.30752 -2.95381 0
M  V30 4826 H 447.886 2.3013 -1.91521 0
M  V30 4827 H 445.432 1.10592 -0.92225 0
M  V30 4828 H 447.385 4.19653 -0.383305 0
M  V30 4829 H 446.109 3.24014 0.41015 0
M  V30 4830 H 444.768 3.23621 -1.72236 0
M  V30 4831 H 444.416 5.02998 -0.0155216 0
M  V30 4832 H 444.116 5.63551 -1.66384 0
M  V30 4833 H 445.64 6.04955 -0.828378 0
M  V30 4834 H 447.054 4.98349 -2.8341 0
M  V30 4835 H 445.451 4.79869 -3.60341 0
M  V30 4836 H 446.521 3.39192 -3.46521 0
M  V30 4837 N 447.864 1.01787 1.20321 0
M  V30 4838 C 449.28 0.732951 1.41774 0
M  V30 4839 C 449.48 -0.686883 1.89431 0
M  V30 4840 O 448.536 -1.45446 2.06402 0
M  V30 4841 C 449.849 1.75973 2.43832 0
M  V30 4842 C 451.397 1.77802 2.57596 0
M  V30 4843 C 451.872 2.7941 3.62897 0
M  V30 4844 N 453.363 2.78157 3.70382 0
M  V30 4845 C 454.098 3.53434 4.51521 0
M  V30 4846 N 453.594 4.38392 5.36455 0
M  V30 4847 N 455.387 3.42026 4.46066 0
M  V30 4848 H 447.538 1.93447 0.877035 0
M  V30 4849 H 449.801 0.835712 0.447536 0
M  V30 4850 H 449.507 2.77699 2.15815 0
M  V30 4851 H 449.381 1.57292 3.4284 0
M  V30 4852 H 451.768 0.767602 2.84942 0
M  V30 4853 H 451.849 2.00557 1.58779 0
M  V30 4854 H 451.493 3.80616 3.36295 0
M  V30 4855 H 451.423 2.53916 4.61339 0
M  V30 4856 H 453.914 2.16531 3.09714 0
M  V30 4857 H 454.227 4.92596 5.95457 0
M  V30 4858 H 452.572 4.4247 5.35953 0
M  V30 4859 H 455.763 2.75075 3.78749 0
M  V30 4860 H 455.936 4.00946 5.09064 0
M  V30 4861 N 449.342 -1.36122 0.79427 0
M  V30 4862 C 450.289 -2.29982 0.194101 0
M  V30 4863 C 451.259 -1.52214 -0.664833 0
M  V30 4864 O 452.444 -1.80702 -0.612498 0
M  V30 4865 C 449.584 -3.38706 -0.661244 0
M  V30 4866 C 448.697 -4.31456 0.216766 0
M  V30 4867 C 447.832 -5.27265 -0.645411 0
M  V30 4868 C 446.871 -6.11653 0.233756 0
M  V30 4869 N 446.008 -6.99636 -0.587682 0
M  V30 4870 H 450.848 -2.80722 0.999965 0
M  V30 4871 H 448.385 -1.38172 0.504677 0
M  V30 4872 H 450.343 -4.00394 -1.17219 0
M  V30 4873 H 448.973 -2.89274 -1.43249 0
M  V30 4874 H 448.025 -3.7088 0.845724 0
M  V30 4875 H 449.337 -4.90724 0.893973 0
M  V30 4876 H 448.491 -5.94266 -1.22198 0
M  V30 4877 H 447.23 -4.68463 -1.35623 0
M  V30 4878 H 446.235 -5.4361 0.82269 0
M  V30 4879 H 447.46 -6.72531 0.942247 0
M  V30 4880 H 445.406 -6.43337 -1.2827 0
M  V30 4881 H 445.323 -7.55993 0.0317402 0
M  V30 4882 H 446.591 -7.71001 -1.14792 0
M  V30 4883 N 450.82 -0.546701 -1.47814 0
M  V30 4884 C 451.73 0.21026 -2.33656 0
M  V30 4885 C 452.746 0.922413 -1.47538 0
M  V30 4886 O 453.922 0.893652 -1.80488 0
M  V30 4887 C 450.987 1.23348 -3.24016 0
M  V30 4888 C 450.048 0.529883 -4.26017 0
M  V30 4889 C 449.281 1.50435 -5.12059 0
M  V30 4890 O 449.504 2.73837 -5.00369 0
M  V30 4891 O 448.438 1.03459 -5.92942 0
M  V30 4892 H 452.264 -0.493605 -2.99662 0
M  V30 4893 H 449.849 -0.307427 -1.46203 0
M  V30 4894 H 451.731 1.82438 -3.79861 0
M  V30 4895 H 450.406 1.91945 -2.60651 0
M  V30 4896 H 449.313 -0.101948 -3.73961 0
M  V30 4897 H 450.646 -0.11445 -4.92067 0
M  V30 4898 N 452.299 1.55045 -0.282633 0
M  V30 4899 C 453.546 1.9976 0.33199 0
M  V30 4900 C 453.874 1.17105 1.55295 0
M  V30 4901 O 453.129 0.230599 1.94337 0
M  V30 4902 C 453.428 3.49422 0.750938 0
M  V30 4903 C 453.094 4.4941 -0.366228 0
M  V30 4904 C 451.756 4.76471 -0.672964 0
M  V30 4905 C 454.108 5.09054 -1.11864 0
M  V30 4906 C 451.436 5.60442 -1.73556 0
M  V30 4907 C 453.788 5.9418 -2.17102 0
M  V30 4908 C 452.452 6.19558 -2.48402 0
M  V30 4909 H 451.722 0.730974 0.121484 0
M  V30 4910 H 454.369 1.8732 -0.39791 0
M  V30 4911 H 452.674 3.59377 1.56063 0
M  V30 4912 H 454.371 3.81432 1.23736 0
M  V30 4913 H 450.961 4.2844 -0.117041 0
M  V30 4914 H 455.145 4.88165 -0.894925 0
M  V30 4915 H 450.401 5.78349 -1.983 0
M  V30 4916 H 454.575 6.39427 -2.75873 0
M  V30 4917 H 452.202 6.84417 -3.30874 0
M  V30 4918 N 453.777 0.010035 1.57597 0
M  V30 4919 C 454.687 -0.994226 2.12491 0
M  V30 4920 C 455.703 -1.37013 1.07254 0
M  V30 4921 O 456.879 -1.45542 1.3921 0
M  V30 4922 C 453.944 -2.2642 2.62555 0
M  V30 4923 C 453.005 -1.95049 3.82432 0
M  V30 4924 C 452.238 -3.15991 4.30099 0
M  V30 4925 O 452.461 -4.28015 3.7704 0
M  V30 4926 O 451.395 -2.99403 5.22151 0
M  V30 4927 H 455.221 -0.557549 2.98538 0
M  V30 4928 H 452.806 -0.209413 1.47925 0
M  V30 4929 H 454.688 -3.01009 2.9491 0
M  V30 4930 H 453.363 -2.69306 1.796 0
M  V30 4931 H 452.27 -1.17904 3.55034 0
M  V30 4932 H 453.603 -1.56992 4.66491 0
M  V30 4933 N 455.255 -1.55392 -0.262866 0
M  V30 4934 C 456.165 -1.92077 -1.34698 0
M  V30 4935 C 457.181 -0.819227 -1.53508 0
M  V30 4936 O 458.357 -1.11921 -1.67439 0
M  V30 4937 C 455.422 -2.19407 -2.68443 0
M  V30 4938 C 454.483 -3.42905 -2.58292 0
M  V30 4939 C 453.716 -3.68921 -3.85659 0
M  V30 4940 O 453.939 -2.97275 -4.8681 0
M  V30 4941 O 452.873 -4.62455 -3.85252 0
M  V30 4942 H 456.699 -2.84384 -1.06581 0
M  V30 4943 H 454.284 -1.42069 -0.462264 0
M  V30 4944 H 456.166 -2.38365 -3.47506 0
M  V30 4945 H 454.841 -1.30282 -2.96325 0
M  V30 4946 H 453.748 -3.29272 -1.7757 0
M  V30 4947 H 455.081 -4.32282 -2.35358 0
M  V30 4948 N 456.733 0.527833 -1.48498 0
M  V30 4949 C 457.696 1.61439 -1.62696 0
M  V30 4950 C 458.696 1.52824 -0.500136 0
M  V30 4951 O 459.886 1.56456 -0.765976 0
M  V30 4952 C 457.018 3.01063 -1.59918 0
M  V30 4953 H 458.211 1.50189 -2.59583 0
M  V30 4954 H 455.764 0.750055 -1.37127 0
M  V30 4955 H 456.499 3.17818 -0.645163 0
M  V30 4956 H 456.284 3.08725 -2.41726 0
M  V30 4957 H 457.774 3.80057 -1.73051 0
M  V30 4958 N 458.211 1.37122 0.776871 0
M  V30 4959 C 459.627 1.1781 1.07671 0
M  V30 4960 C 459.827 0.0107454 2.01497 0
M  V30 4961 O 458.883 -0.650756 2.4397 0
M  V30 4962 C 460.196 2.49451 1.67913 0
M  V30 4963 C 461.744 2.55927 1.80195 0
M  V30 4964 C 462.219 3.87686 2.43851 0
M  V30 4965 N 463.71 3.891 2.51307 0
M  V30 4966 C 464.445 4.87797 3.014 0
M  V30 4967 N 463.941 5.96888 3.51705 0
M  V30 4968 N 465.734 4.75205 3.00227 0
M  V30 4969 H 457.885 2.11843 0.153778 0
M  V30 4970 H 460.148 0.938927 0.130844 0
M  V30 4971 H 459.854 3.35207 1.06439 0
M  V30 4972 H 459.728 2.66169 2.67271 0
M  V30 4973 H 462.115 1.70582 2.40803 0
M  V30 4974 H 462.196 2.43097 0.796069 0
M  V30 4975 H 461.84 4.73444 1.83884 0
M  V30 4976 H 461.77 3.97817 3.45035 0
M  V30 4977 H 464.261 3.10293 2.157 0
M  V30 4978 H 464.574 6.68155 3.88316 0
M  V30 4979 H 462.919 6.0054 3.49824 0
M  V30 4980 H 466.11 3.89103 2.60224 0
M  V30 4981 H 466.283 5.52279 3.38957 0
M  V30 4982 N 459.689 -1.00246 1.21608 0
M  V30 4983 C 460.636 -2.09073 0.977613 0
M  V30 4984 C 461.606 -1.65815 -0.097297 0
M  V30 4985 O 462.791 -1.90734 0.0503445 0
M  V30 4986 C 459.931 -3.40671 0.551133 0
M  V30 4987 C 459.044 -3.97326 1.69576 0
M  V30 4988 C 458.179 -5.17043 1.2182 0
M  V30 4989 C 457.218 -5.65813 2.335 0
M  V30 4990 N 456.355 -6.76778 1.86859 0
M  V30 4991 H 461.195 -2.28806 1.90924 0
M  V30 4992 H 458.732 -1.12186 0.951452 0
M  V30 4993 H 460.69 -4.16225 0.285097 0
M  V30 4994 H 459.32 -3.20967 -0.343489 0
M  V30 4995 H 458.372 -3.18734 2.07637 0
M  V30 4996 H 459.684 -4.29511 2.53617 0
M  V30 4997 H 458.838 -5.99852 0.908975 0
M  V30 4998 H 457.577 -4.86458 0.347869 0
M  V30 4999 H 456.582 -4.81599 2.65222 0
M  V30 5000 H 457.807 -5.98427 3.21033 0
M  V30 5001 H 455.753 -6.47994 1.02174 0
M  V30 5002 H 455.67 -7.08231 2.64471 0
M  V30 5003 H 456.938 -7.63116 1.58978 0
M  V30 5004 N 461.167 -1.02423 -1.1978 0
M  V30 5005 C 462.413 -0.72878 -1.89896 0
M  V30 5006 C 462.768 0.734248 -1.77839 0
M  V30 5007 O 462.061 1.52733 -1.15685 0
M  V30 5008 C 462.255 -1.1088 -3.39765 0
M  V30 5009 C 462.084 -2.60722 -3.66407 0
M  V30 5010 C 460.854 -3.27623 -3.84696 0
M  V30 5011 C 463.052 -3.58924 -3.68345 0
M  V30 5012 N 461.034 -4.66617 -3.98926 0
M  V30 5013 C 462.405 -4.83514 -3.8809 0
M  V30 5014 C 464.46 -3.52788 -3.51347 0
M  V30 5015 C 463.163 -6.0271 -3.92598 0
M  V30 5016 C 465.189 -4.71394 -3.5713 0
M  V30 5017 C 464.551 -5.94796 -3.77356 0
M  V30 5018 H 460.65 -0.318473 -0.714212 0
M  V30 5019 H 463.234 -1.3106 -1.43984 0
M  V30 5020 H 461.405 -0.555233 -3.84411 0
M  V30 5021 H 463.137 -0.766082 -3.97383 0
M  V30 5022 H 459.892 -2.7804 -3.83393 0
M  V30 5023 H 460.316 -5.38805 -4.099 0
M  V30 5024 H 464.958 -2.58372 -3.3467 0
M  V30 5025 H 462.676 -6.97499 -4.08069 0
M  V30 5026 H 466.262 -4.6827 -3.45275 0
M  V30 5027 H 465.142 -6.85037 -3.81699 0
M  V30 5028 N 462.645 1.35699 -0.801477 0
M  V30 5029 C 463.891 1.99208 -0.380022 0
M  V30 5030 C 464.224 1.63445 1.04878 0
M  V30 5031 O 463.499 0.895223 1.72673 0
M  V30 5032 C 463.782 3.55755 -0.557708 0
M  V30 5033 C 463.635 4.01332 -2.03107 0
M  V30 5034 C 464.954 4.40096 0.0197968 0
M  V30 5035 H 462.073 0.723667 -0.139552 0
M  V30 5036 H 464.715 1.60928 -1.01006 0
M  V30 5037 H 462.865 3.88494 -0.0213741 0
M  V30 5038 H 464.537 3.79026 -2.62939 0
M  V30 5039 H 462.78 3.52429 -2.52936 0
M  V30 5040 H 463.451 5.10234 -2.1063 0
M  V30 5041 H 465.927 4.13786 -0.438179 0
M  V30 5042 H 464.803 5.48735 -0.134477 0
M  V30 5043 H 465.064 4.2786 1.11303 0
M  V30 5044 N 464.123 0.554532 1.47522 0
M  V30 5045 C 465.348 0.0322661 2.07375 0
M  V30 5046 C 465.773 -1.25079 1.40488 0
M  V30 5047 O 465.131 -1.74859 0.47896 0
M  V30 5048 C 465.179 -0.149397 3.6029 0
M  V30 5049 O 464.283 -1.21259 3.9417 0
M  V30 5050 H 463.624 0.0501228 0.662106 0
M  V30 5051 H 466.154 0.769452 1.8958 0
M  V30 5052 H 466.164 -0.364437 4.06369 0
M  V30 5053 H 464.839 0.787743 4.08372 0
M  V30 5054 H 463.416 -0.97825 3.5984 0
M  V30 5055 N 465.601 -1.54893 0.290851 0
M  V30 5056 C 466.548 -2.23138 -0.58974 0
M  V30 5057 C 467.518 -1.21036 -1.13752 0
M  V30 5058 O 468.703 -1.49626 -1.18392 0
M  V30 5059 C 465.843 -2.96811 -1.76061 0
M  V30 5060 C 464.956 -4.13665 -1.24519 0
M  V30 5061 C 464.091 -4.74944 -2.3791 0
M  V30 5062 C 463.13 -5.83963 -1.83451 0
M  V30 5063 N 462.267 -6.39239 -2.90376 0
M  V30 5064 H 467.107 -2.98 -0.00114915 0
M  V30 5065 H 464.644 -1.47096 0.0112006 0
M  V30 5066 H 466.602 -3.37751 -2.44909 0
M  V30 5067 H 465.232 -2.24344 -2.32098 0
M  V30 5068 H 464.284 -3.77737 -0.449288 0
M  V30 5069 H 465.596 -4.92238 -0.806424 0
M  V30 5070 H 464.75 -5.18684 -3.14724 0
M  V30 5071 H 463.489 -3.95682 -2.85109 0
M  V30 5072 H 462.494 -5.39657 -1.05122 0
M  V30 5073 H 463.719 -6.65103 -1.37169 0
M  V30 5074 H 461.665 -5.62864 -3.36927 0
M  V30 5075 H 461.582 -7.13129 -2.50965 0
M  V30 5076 H 462.85 -6.87637 -3.67118 0
M  V30 5077 N 467.08 -0.0183926 -1.57589 0
M  V30 5078 C 468.027 0.967022 -2.09565 0
M  V30 5079 C 468.997 1.32983 -0.995225 0
M  V30 5080 O 470.182 1.42501 -1.26878 0
M  V30 5081 C 467.322 2.24772 -2.61861 0
M  V30 5082 C 466.435 1.94232 -3.85873 0
M  V30 5083 C 465.57 3.16518 -4.26603 0
M  V30 5084 C 464.609 2.81748 -5.43401 0
M  V30 5085 N 463.746 3.96626 -5.79338 0
M  V30 5086 H 468.586 0.516874 -2.93483 0
M  V30 5087 H 466.123 0.243544 -1.4507 0
M  V30 5088 H 468.081 2.99667 -2.90268 0
M  V30 5089 H 466.711 2.67423 -1.8079 0
M  V30 5090 H 465.763 1.09625 -3.64262 0
M  V30 5091 H 467.075 1.64616 -4.70853 0
M  V30 5092 H 466.229 3.99743 -4.56389 0
M  V30 5093 H 464.968 3.49286 -3.40368 0
M  V30 5094 H 463.973 1.96933 -5.1332 0
M  V30 5095 H 465.198 2.50207 -6.31327 0
M  V30 5096 H 463.144 4.29257 -4.96059 0
M  V30 5097 H 463.061 3.70598 -6.58933 0
M  V30 5098 H 464.329 4.80586 -6.13724 0
M  V30 5099 N 468.558 1.5553 0.254621 0
M  V30 5100 C 469.488 1.9268 1.31897 0
M  V30 5101 C 470.469 0.790797 1.506 0
M  V30 5102 O 471.654 1.05045 1.63337 0
M  V30 5103 C 468.784 2.21477 2.67517 0
M  V30 5104 C 467.738 3.37256 2.63519 0
M  V30 5105 C 467.064 3.51576 4.02862 0
M  V30 5106 C 468.364 4.73157 2.21179 0
M  V30 5107 H 470.058 2.81832 1.01051 0
M  V30 5108 H 467.604 1.35599 0.484662 0
M  V30 5109 H 469.557 2.46055 3.42104 0
M  V30 5110 H 468.281 1.29144 2.99982 0
M  V30 5111 H 466.94 3.12675 1.9139 0
M  V30 5112 H 466.588 2.56676 4.32581 0
M  V30 5113 H 466.288 4.2943 4.01078 0
M  V30 5114 H 467.812 3.78467 4.79161 0
M  V30 5115 H 469.226 4.97158 2.85494 0
M  V30 5116 H 467.623 5.54058 2.30521 0
M  V30 5117 H 468.693 4.70739 1.16332 0
M  V30 5118 N 470.036 -0.519951 1.48776 0
M  V30 5119 C 470.986 -1.61995 1.60442 0
M  V30 5120 C 471.97 -1.54155 0.460991 0
M  V30 5121 O 473.162 -1.62006 0.712965 0
M  V30 5122 C 470.291 -3.00683 1.65664 0
M  V30 5123 C 469.377 -3.1359 2.8552 0
M  V30 5124 N 469.768 -2.96441 4.09825 0
M  V30 5125 C 468.066 -3.44662 2.83062 0
M  V30 5126 C 468.767 -3.1303 4.90293 0
M  V30 5127 N 467.743 -3.41058 4.23297 0
M  V30 5128 H 471.545 -1.47362 2.54287 0
M  V30 5129 H 469.059 -0.725649 1.45286 0
M  V30 5130 H 471.056 -3.79712 1.72117 0
M  V30 5131 H 469.716 -3.16401 0.729425 0
M  V30 5132 H 470.727 -2.72999 4.40104 0
M  V30 5133 H 467.404 -3.66675 1.9964 0
M  V30 5134 H 468.794 -3.04424 5.98979 0
M  V30 5135 N 471.514 -1.37532 -0.769588 0
M  V30 5136 C 472.761 -1.3286 -1.52822 0
M  V30 5137 C 473.089 0.0862597 -1.94309 0
M  V30 5138 O 472.344 1.05995 -1.6451 0
M  V30 5139 C 472.643 -2.21558 -2.8044 0
M  V30 5140 C 472.309 -3.69796 -2.57996 0
M  V30 5141 C 470.971 -4.10194 -2.51583 0
M  V30 5142 C 473.323 -4.63699 -2.37976 0
M  V30 5143 C 470.651 -5.42608 -2.23144 0
M  V30 5144 C 473.003 -5.96353 -2.1106 0
M  V30 5145 C 471.667 -6.35853 -2.03093 0
M  V30 5146 H 470.937 -0.486168 -0.559215 0
M  V30 5147 H 473.584 -1.69757 -0.886277 0
M  V30 5148 H 471.889 -1.77663 -3.49204 0
M  V30 5149 H 473.586 -2.15256 -3.38328 0
M  V30 5150 H 470.176 -3.37759 -2.63851 0
M  V30 5151 H 474.36 -4.33346 -2.41919 0
M  V30 5152 H 469.616 -5.72173 -2.15472 0
M  V30 5153 H 473.79 -6.68667 -1.94568 0
M  V30 5154 H 471.417 -7.38382 -1.8082 0
M  V30 5155 N 472.992 0.995999 -1.22138 0
M  V30 5156 C 473.902 2.11985 -1.00496 0
M  V30 5157 C 474.918 1.7394 0.0457701 0
M  V30 5158 O 476.094 2.00868 -0.146273 0
M  V30 5159 C 473.159 3.41779 -0.582086 0
M  V30 5160 C 472.22 3.93943 -1.70608 0
M  V30 5161 C 471.453 5.17542 -1.30328 0
M  V30 5162 O 471.676 5.70114 -0.180743 0
M  V30 5163 O 470.61 5.63382 -2.11861 0
M  V30 5164 H 474.436 2.33123 -1.94647 0
M  V30 5165 H 472.021 1.10358 -1.00705 0
M  V30 5166 H 473.903 4.1989 -0.356467 0
M  V30 5167 H 472.578 3.22007 0.330592 0
M  V30 5168 H 471.485 3.17019 -1.98619 0
M  V30 5169 H 472.818 4.18141 -2.59651 0
M  V30 5170 N 474.47 1.03057 1.19235 0
M  V30 5171 C 475.417 0.612832 2.22515 0
M  V30 5172 C 476.387 -0.374224 1.61829 0
M  V30 5173 O 477.572 -0.270501 1.88873 0
M  V30 5174 C 474.712 -0.028475 3.45088 0
M  V30 5175 C 473.825 1.00483 4.20151 0
M  V30 5176 C 472.96 0.333102 5.30155 0
M  V30 5177 C 471.999 1.3522 5.96977 0
M  V30 5178 N 471.136 0.70616 6.9854 0
M  V30 5179 H 475.976 1.49812 2.57605 0
M  V30 5180 H 473.513 0.749658 1.26564 0
M  V30 5181 H 475.471 -0.417548 4.15105 0
M  V30 5182 H 474.101 -0.877334 3.10649 0
M  V30 5183 H 473.153 1.51194 3.49062 0
M  V30 5184 H 474.465 1.77929 4.65986 0
M  V30 5185 H 473.619 -0.110725 6.06599 0
M  V30 5186 H 472.358 -0.473547 4.85396 0
M  V30 5187 H 471.363 1.80627 5.19282 0
M  V30 5188 H 472.588 2.16037 6.4382 0
M  V30 5189 H 470.534 -0.0803667 6.55951 0
M  V30 5190 H 470.451 1.41848 7.42573 0
M  V30 5191 H 471.719 0.286391 7.78974 0
M  V30 5192 N 475.948 -1.35272 0.808662 0
M  V30 5193 C 477.225 -1.93077 0.313181 0
M  V30 5194 C 477.605 -1.73847 -1.19752 0
M  V30 5195 O 476.953 -1.1087 -1.998 0
M  V30 5196 C 477.163 -3.41347 0.726859 0
M  V30 5197 C 478.511 -4.18493 0.717532 0
M  V30 5198 O 479.535 -3.4987 0.668535 0
M  V30 5199 O 478.394 -5.40937 0.777779 0
M  V30 5200 H 475.488 -0.822885 0.0824018 0
M  V30 5201 H 478.034 -1.44335 0.892499 0
M  V30 5202 H 476.806 -3.49082 1.76797 0
M  V30 5203 H 476.429 -3.97411 0.122461 0
M  V30 5204 N 477.426 -0.562348 -1.47226 0
M  V30 5205 C 478.672 -0.0402761 -2.0276 0
M  V30 5206 C 479.005 1.30823 -1.43523 0
M  V30 5207 O 478.28 1.85249 -0.592705 0
M  V30 5208 C 478.563 0.047311 -3.60069 0
M  V30 5209 C 478.416 -1.32865 -4.29729 0
M  V30 5210 C 479.735 0.758182 -4.3352 0
M  V30 5211 H 476.854 -0.0161105 -0.736824 0
M  V30 5212 H 479.496 -0.725628 -1.75598 0
M  V30 5213 H 477.646 0.630986 -3.83342 0
M  V30 5214 H 479.318 -1.95593 -4.17781 0
M  V30 5215 H 477.561 -1.90195 -3.89882 0
M  V30 5216 H 478.232 -1.22004 -5.38349 0
M  V30 5217 H 480.708 0.262546 -4.15271 0
M  V30 5218 H 479.584 0.78844 -5.43208 0
M  V30 5219 H 479.845 1.81537 -4.03109 0
M  V30 5220 N 478.904 1.54736 -0.299062 0
M  V30 5221 C 480.181 1.92187 0.363802 0
M  V30 5222 C 480.561 1.22607 1.71845 0
M  V30 5223 O 479.909 0.361141 2.25628 0
M  V30 5224 C 480.119 3.45678 0.480377 0
M  V30 5225 C 481.467 4.17885 0.752147 0
M  V30 5226 O 482.491 3.51702 0.564264 0
M  V30 5227 O 481.35 5.35048 1.11294 0
M  V30 5228 H 478.444 0.801681 0.203066 0
M  V30 5229 H 480.99 1.66115 -0.346978 0
M  V30 5230 H 479.762 3.88443 -0.471999 0
M  V30 5231 H 479.385 3.77779 1.2397 0
M  V30 5232 N 480.382 0.0267497 1.57577 0
M  V30 5233 C 481.628 -0.653371 1.91987 0
M  V30 5234 C 481.961 -1.71915 0.903263 0
M  V30 5235 O 481.236 -1.94358 -0.0743387 0
M  V30 5236 C 481.519 -1.272 3.36886 0
M  V30 5237 C 481.372 -0.215938 4.49281 0
M  V30 5238 C 482.691 -2.19069 3.81703 0
M  V30 5239 H 479.81 -0.236047 0.698177 0
M  V30 5240 H 482.452 0.0835236 1.89816 0
M  V30 5241 H 480.602 -1.90005 3.38866 0
M  V30 5242 H 482.274 0.41449 4.59434 0
M  V30 5243 H 480.517 0.458855 4.31366 0
M  V30 5244 H 481.188 -0.688347 5.47691 0
M  V30 5245 H 483.664 -1.66253 3.81444 0
M  V30 5246 H 482.54 -2.59307 4.83788 0
M  V30 5247 H 482.801 -3.08087 3.17072 0
M  V30 5248 N 481.861 -1.55662 -0.24637 0
M  V30 5249 C 482.809 -1.91186 -1.3248 0
M  V30 5250 C 483.803 -0.790996 -1.49799 0
M  V30 5251 O 485.009 -0.975617 -1.51267 0
M  V30 5252 H 481.384 -0.607207 -0.443626 0
M  V30 5253 H 483.355 -2.81221 -0.997853 0
M  V30 5254 C 482.104 -2.22349 -2.67313 0
M  V30 5255 H 481.427 -3.08097 -2.54786 0
M  V30 5256 H 482.867 -2.51107 -3.41645 0
M  V30 5257 C 481.326 -1.04001 -3.20446 0
M  V30 5258 O 481.856 -0.28828 -4.00664 0
M  V30 5259 N 480.062 -0.830494 -2.7848 0
M  V30 5260 H 479.609 -1.4435 -2.13356 0
M  V30 5261 H 479.567 -0.0403258 -3.14374 0
M  V30 5262 N 483.339 0.512053 -1.4905 0
M  V30 5263 C 484.269 1.62365 -1.67809 0
M  V30 5264 C 485.25 1.61737 -0.526809 0
M  V30 5265 O 486.435 1.78651 -0.761404 0
M  V30 5266 C 483.565 3.00895 -1.73435 0
M  V30 5267 C 482.519 3.16387 -2.88242 0
M  V30 5268 C 481.845 4.56157 -2.78971 0
M  V30 5269 C 483.145 2.97457 -4.29321 0
M  V30 5270 H 484.839 1.46921 -2.60873 0
M  V30 5271 H 482.385 0.705379 -1.2554 0
M  V30 5272 H 484.338 3.78549 -1.85145 0
M  V30 5273 H 483.062 3.17403 -0.769619 0
M  V30 5274 H 481.721 2.41155 -2.76116 0
M  V30 5275 H 481.369 4.69525 -1.8043 0
M  V30 5276 H 481.069 4.67465 -3.5602 0
M  V30 5277 H 482.593 5.35886 -2.92675 0
M  V30 5278 H 484.007 3.64888 -4.42187 0
M  V30 5279 H 482.404 3.20245 -5.07507 0
M  V30 5280 H 483.474 1.93692 -4.44535 0
M  V30 5281 N 484.817 1.37938 0.762283 0
M  V30 5282 C 486.064 1.33668 1.52115 0
M  V30 5283 C 486.392 -0.0759538 1.94352 0
M  V30 5284 O 485.647 -1.05121 1.6507 0
M  V30 5285 C 485.946 2.23042 2.79261 0
M  V30 5286 C 485.612 3.71159 2.56031 0
M  V30 5287 C 484.274 4.11523 2.49404 0
M  V30 5288 C 486.626 4.64955 2.35513 0
M  V30 5289 C 483.954 5.43784 2.20263 0
M  V30 5290 C 486.306 5.97464 2.07894 0
M  V30 5291 C 484.97 6.36922 1.99718 0
M  V30 5292 H 484.24 0.489127 0.556629 0
M  V30 5293 H 486.887 1.70224 0.877262 0
M  V30 5294 H 485.192 1.79512 3.48256 0
M  V30 5295 H 486.889 2.17047 3.37182 0
M  V30 5296 H 483.479 3.39153 2.62056 0
M  V30 5297 H 487.663 4.34623 2.39617 0
M  V30 5298 H 482.919 5.73307 2.12435 0
M  V30 5299 H 487.093 6.6969 1.91019 0
M  V30 5300 H 484.72 7.39331 1.76902 0
M  V30 5301 N 486.295 -0.989507 1.22664 0
M  V30 5302 C 487.205 -2.11449 1.01619 0
M  V30 5303 C 488.221 -1.73962 -0.036545 0
M  V30 5304 O 489.397 -2.00788 0.156924 0
M  V30 5305 C 486.462 -3.41465 0.600204 0
M  V30 5306 C 485.523 -3.93033 1.72695 0
M  V30 5307 C 484.756 -5.16844 1.33071 0
M  V30 5308 O 484.979 -5.7001 0.210975 0
M  V30 5309 O 483.913 -5.6225 2.14845 0
M  V30 5310 H 487.739 -2.32088 1.9588 0
M  V30 5311 H 485.324 -1.09823 1.01289 0
M  V30 5312 H 487.206 -4.19695 0.37873 0
M  V30 5313 H 485.881 -3.22178 -0.313511 0
M  V30 5314 H 484.788 -3.15961 2.00298 0
M  V30 5315 H 486.121 -4.16758 2.61865 0
M  V30 5316 N 487.773 -1.03688 -1.18687 0
M  V30 5317 C 488.998 -0.757819 -1.93059 0
M  V30 5318 C 489.423 0.678353 -1.75442 0
M  V30 5319 O 488.781 1.46938 -1.06203 0
M  V30 5320 C 488.829 -1.12423 -3.42627 0
M  V30 5321 O 487.933 -0.247505 -4.11657 0
M  V30 5322 H 487.274 -0.279245 -0.602427 0
M  V30 5323 H 489.804 -1.3857 -1.5053 0
M  V30 5324 H 489.814 -1.08454 -3.93322 0
M  V30 5325 H 488.489 -2.17049 -3.54771 0
M  V30 5326 H 487.066 -0.34649 -3.71287 0
M  V30 5327 N 489.251 1.34841 -0.815825 0
M  V30 5328 C 490.479 2.0273 -0.413294 0
M  V30 5329 C 490.894 1.61459 0.978599 0
M  V30 5330 O 490.251 0.816584 1.63212 0
M  V30 5331 C 490.302 3.58058 -0.497676 0
M  V30 5332 O 490.023 3.97832 -1.8347 0
M  V30 5333 C 491.524 4.4321 -0.0891339 0
M  V30 5334 H 488.744 0.649956 -0.166728 0
M  V30 5335 H 491.288 1.72267 -1.10201 0
M  V30 5336 H 489.443 3.87136 0.142886 0
M  V30 5337 H 489.857 4.92501 -1.80396 0
M  V30 5338 H 491.331 5.5164 -0.199274 0
M  V30 5339 H 491.808 4.28432 0.966571 0
M  V30 5340 H 492.414 4.19446 -0.703214 0
M  V30 5341 N 490.729 0.570148 1.46925 0
M  V30 5342 C 491.978 0.0487352 2.01641 0
M  V30 5343 C 492.291 -1.31433 1.44861 0
M  V30 5344 O 493.497 -1.92638 1.91318 0
M  V30 5345 C 491.953 0.0365817 3.59881 0
M  V30 5346 C 491.561 1.39719 4.25655 0
M  V30 5347 C 493.305 -0.431545 4.22301 0
M  V30 5348 C 491.212 1.34345 5.75939 0
M  V30 5349 H 490.142 0.0144492 0.753862 0
M  V30 5350 H 492.793 0.719928 1.68788 0
M  V30 5351 H 491.175 -0.700522 3.89755 0
M  V30 5352 H 492.349 2.15303 4.07408 0
M  V30 5353 H 490.664 1.80431 3.75278 0
M  V30 5354 H 493.261 -0.490354 5.32447 0
M  V30 5355 H 493.604 -1.44638 3.90366 0
M  V30 5356 H 494.137 0.251102 3.97007 0
M  V30 5357 H 490.876 2.33469 6.12513 0
M  V30 5358 H 490.396 0.629615 5.96486 0
M  V30 5359 H 492.075 1.051 6.38407 0
M  V30 5360 N 492.207 -1.54576 0.307264 0
M  V30 5361 C 493.623 -1.59534 -0.0459251 0
M  V30 5362 C 493.823 -1.32414 -1.51884 0
M  V30 5363 O 492.879 -1.1006 -2.27251 0
M  V30 5364 C 494.192 -2.98566 0.357649 0
M  V30 5365 C 495.74 -3.11491 0.306937 0
M  V30 5366 C 496.215 -4.52842 0.685427 0
M  V30 5367 N 497.706 -4.58782 0.638203 0
M  V30 5368 C 498.441 -5.66238 0.903458 0
M  V30 5369 N 497.937 -6.81703 1.23501 0
M  V30 5370 N 499.73 -5.55937 0.830102 0
M  V30 5371 H 491.881 -1.70464 1.26712 0
M  V30 5372 H 494.144 -0.79647 0.514139 0
M  V30 5373 H 493.85 -3.23356 1.38325 0
M  V30 5374 H 493.724 -3.76117 -0.285565 0
M  V30 5375 H 496.111 -2.86446 -0.709424 0
M  V30 5376 H 496.192 -2.36081 0.984861 0
M  V30 5377 H 495.836 -4.78618 1.69963 0
M  V30 5378 H 495.766 -5.26598 -0.0146346 0
M  V30 5379 H 498.257 -3.75849 0.393138 0
M  V30 5380 H 498.57 -7.59582 1.42322 0
M  V30 5381 H 496.915 -6.8324 1.27311 0
M  V30 5382 H 500.106 -4.64608 0.570693 0
M  V30 5383 H 500.279 -6.39597 1.04019 0
M  V30 5384 N 493.685 -0.035106 -1.57561 0
M  V30 5385 C 494.934 0.641604 -1.91223 0
M  V30 5386 C 495.247 1.72944 -0.913761 0
M  V30 5387 O 496.453 2.46321 -1.14185 0
M  V30 5388 C 494.909 1.19249 -3.3957 0
M  V30 5389 C 494.517 0.137616 -4.47789 0
M  V30 5390 C 496.261 1.84537 -3.82291 0
M  V30 5391 C 494.168 0.700478 -5.87237 0
M  V30 5392 H 493.098 0.243417 -0.713627 0
M  V30 5393 H 495.749 -0.101382 -1.8322 0
M  V30 5394 H 494.131 1.98728 -3.42525 0
M  V30 5395 H 495.305 -0.635153 -4.56402 0
M  V30 5396 H 493.62 -0.416855 -4.14308 0
M  V30 5397 H 496.217 2.27616 -4.83834 0
M  V30 5398 H 496.56 2.69054 -3.17672 0
M  V30 5399 H 497.093 1.11739 -3.81784 0
M  V30 5400 H 493.832 -0.106693 -6.55413 0
M  V30 5401 H 493.352 1.4416 -5.82218 0
M  V30 5402 H 495.031 1.18837 -6.35993 0
M  V30 5403 N 495.163 1.55791 0.238111 0
M  V30 5404 C 496.093 1.94068 1.29846 0
M  V30 5405 C 497.074 0.806726 1.49753 0
M  V30 5406 O 498.259 1.06772 1.62214 0
M  V30 5407 C 495.389 2.24302 2.65153 0
M  V30 5408 C 494.343 3.40032 2.59927 0
M  V30 5409 C 493.669 3.55829 3.99111 0
M  V30 5410 C 494.969 4.75476 2.16148 0
M  V30 5411 H 496.663 2.82887 0.980563 0
M  V30 5412 H 494.209 1.36105 0.470253 0
M  V30 5413 H 496.162 2.4967 3.39475 0
M  V30 5414 H 494.886 1.32318 2.98596 0
M  V30 5415 H 493.545 3.14687 1.88063 0
M  V30 5416 H 493.193 2.6125 4.29834 0
M  V30 5417 H 492.893 4.3366 3.96501 0
M  V30 5418 H 494.417 3.83528 4.7512 0
M  V30 5419 H 495.831 5.00158 2.80205 0
M  V30 5420 H 494.228 5.56472 2.24631 0
M  V30 5421 H 495.298 4.71946 1.11333 0
M  V30 5422 N 496.642 -0.504142 1.49319 0
M  V30 5423 C 497.89 -1.25598 1.58334 0
M  V30 5424 C 498.211 -1.93114 0.270538 0
M  V30 5425 O 497.481 -1.82585 -0.709891 0
M  V30 5426 H 496.061 -0.466571 0.58337 0
M  V30 5427 H 498.723 -0.584547 1.85928 0
M  V30 5428 H 497.819 -2.02159 2.37778 0
M  V30 5429 N 498.12 -1.38341 -0.754957 0
M  V30 5430 C 499.368 -1.34208 -1.51105 0
M  V30 5431 C 499.689 0.0677634 -1.94882 0
M  V30 5432 O 498.959 1.01517 -1.67544 0
M  V30 5433 H 497.539 -0.493819 -0.560493 0
M  V30 5434 H 500.201 -1.73005 -0.897507 0
M  V30 5435 H 499.297 -1.99203 -2.4026 0
M  V30 5436 N 499.598 0.982988 -1.23187 0
M  V30 5437 C 500.528 2.09301 -1.03515 0
M  V30 5438 C 501.509 1.70035 0.0471136 0
M  V30 5439 O 502.694 1.93847 -0.117029 0
M  V30 5440 C 499.824 3.4167 -0.622791 0
M  V30 5441 C 498.778 3.94828 -1.65211 0
M  V30 5442 C 498.104 5.23362 -1.09527 0
M  V30 5443 C 499.404 4.2439 -3.04451 0
M  V30 5444 H 501.098 2.26016 -1.96359 0
M  V30 5445 H 498.644 1.08611 -0.945501 0
M  V30 5446 H 500.597 4.18746 -0.472233 0
M  V30 5447 H 499.321 3.24811 0.341329 0
M  V30 5448 H 497.98 3.19895 -1.79061 0
M  V30 5449 H 497.628 5.02852 -0.122211 0
M  V30 5450 H 497.328 5.59895 -1.783 0
M  V30 5451 H 498.852 6.03062 -0.956511 0
M  V30 5452 H 500.266 4.92225 -2.93917 0
M  V30 5453 H 498.663 4.72118 -3.70438 0
M  V30 5454 H 499.733 3.31765 -3.53638 0
M  V30 5455 N 501.076 1.04316 1.18135 0
M  V30 5456 C 502.006 0.657299 2.24058 0
M  V30 5457 C 502.987 -0.340678 1.66654 0
M  V30 5458 O 504.172 -0.220223 1.92947 0
M  V30 5459 C 501.302 0.0220715 3.47293 0
M  V30 5460 C 500.256 0.943857 4.17463 0
M  V30 5461 C 499.582 0.172973 5.3442 0
M  V30 5462 C 500.882 2.26409 4.70677 0
M  V30 5463 H 502.576 1.5428 2.56589 0
M  V30 5464 H 500.122 0.743263 1.23335 0
M  V30 5465 H 502.075 -0.259607 4.206 0
M  V30 5466 H 500.799 -0.898323 3.14003 0
M  V30 5467 H 499.458 1.20996 3.46057 0
M  V30 5468 H 499.106 -0.749907 4.97379 0
M  V30 5469 H 498.806 0.787098 5.82304 0
M  V30 5470 H 500.33 -0.101628 6.10515 0
M  V30 5471 H 501.744 2.04294 5.35665 0
M  V30 5472 H 500.141 2.8314 5.29105 0
M  V30 5473 H 501.211 2.90883 3.87962 0
M  V30 5474 N 502.554 -1.34406 0.822964 0
M  V30 5475 C 503.779 -2.0304 0.423034 0
M  V30 5476 C 504.204 -1.61568 -0.963196 0
M  V30 5477 O 503.562 -0.800339 -1.62678 0
M  V30 5478 C 503.61 -3.56636 0.53321 0
M  V30 5479 O 502.714 -4.09971 -0.446939 0
M  V30 5480 H 502.055 -0.64075 0.174171 0
M  V30 5481 H 504.585 -1.71653 1.11339 0
M  V30 5482 H 504.595 -4.05945 0.408991 0
M  V30 5483 H 503.27 -3.86168 1.54425 0
M  V30 5484 H 501.847 -3.71835 -0.281601 0
M  V30 5485 N 504.032 -0.577932 -1.46621 0
M  V30 5486 C 504.995 0.147805 -2.28723 0
M  V30 5487 C 505.995 0.823325 -1.38123 0
M  V30 5488 O 507.185 0.676011 -1.60548 0
M  V30 5489 C 504.317 1.21853 -3.18378 0
M  V30 5490 H 505.51 -0.573654 -2.94362 0
M  V30 5491 H 503.063 -0.335703 -1.52652 0
M  V30 5492 H 503.798 1.97173 -2.57475 0
M  V30 5493 H 503.583 0.738714 -3.85078 0
M  V30 5494 H 505.073 1.72768 -3.80186 0
M  V30 5495 N 505.51 1.54411 -0.315457 0
M  V30 5496 C 506.74 2.04536 0.291315 0
M  V30 5497 C 507.148 1.19162 1.4696 0
M  V30 5498 O 506.491 0.213199 1.82459 0
M  V30 5499 C 506.553 3.5056 0.796725 0
M  V30 5500 C 506.217 4.5627 -0.258178 0
M  V30 5501 C 507.214 5.08312 -1.09153 0
M  V30 5502 C 504.899 5.00672 -0.404036 0
M  V30 5503 C 506.893 6.03312 -2.05655 0
M  V30 5504 C 504.58 5.95488 -1.37248 0
M  V30 5505 C 505.578 6.46693 -2.19721 0
M  V30 5506 O 505.266 7.39648 -3.14921 0
M  V30 5507 H 504.998 0.672856 0.0651165 0
M  V30 5508 H 507.552 2.00244 -0.457308 0
M  V30 5509 H 505.782 3.52223 1.59612 0
M  V30 5510 H 507.471 3.83804 1.32096 0
M  V30 5511 H 508.237 4.74793 -0.98979 0
M  V30 5512 H 504.116 4.60436 0.22799 0
M  V30 5513 H 507.66 6.43203 -2.70067 0
M  V30 5514 H 503.557 6.28424 -1.47489 0
M  V30 5515 H 504.325 7.57496 -3.10067 0
M  V30 5516 N 506.988 0.0434614 1.5754 0
M  V30 5517 C 507.938 -0.943039 2.07583 0
M  V30 5518 C 508.922 -1.27662 0.979342 0
M  V30 5519 O 510.114 -1.26034 1.24276 0
M  V30 5520 C 507.243 -2.22056 2.61813 0
M  V30 5521 C 506.329 -1.91471 3.78417 0
M  V30 5522 N 506.72 -1.31214 4.88484 0
M  V30 5523 C 505.018 -2.21384 3.87176 0
M  V30 5524 C 505.719 -1.18084 5.69588 0
M  V30 5525 N 504.695 -1.68116 5.16951 0
M  V30 5526 H 508.497 -0.472354 2.90079 0
M  V30 5527 H 506.011 -0.161191 1.61598 0
M  V30 5528 H 508.008 -2.93618 2.95963 0
M  V30 5529 H 506.668 -2.69738 1.80752 0
M  V30 5530 H 507.679 -0.985318 5.08441 0
M  V30 5531 H 504.356 -2.7164 3.17046 0
M  V30 5532 H 505.746 -0.713684 6.68099 0
M  V30 5533 N 508.466 -1.55915 -0.229846 0
M  V30 5534 C 509.396 -1.94754 -1.28815 0
M  V30 5535 C 510.377 -0.814657 -1.49323 0
M  V30 5536 O 511.562 -1.07631 -1.61645 0
M  V30 5537 C 508.692 -2.25705 -2.63959 0
M  V30 5538 C 507.646 -3.41406 -2.5812 0
M  V30 5539 C 506.972 -3.57941 -3.97218 0
M  V30 5540 C 508.272 -4.76616 -2.13623 0
M  V30 5541 H 509.966 -2.83404 -0.965547 0
M  V30 5542 H 507.512 -1.36353 -0.463028 0
M  V30 5543 H 509.465 -2.51467 -3.38146 0
M  V30 5544 H 508.189 -1.339 -2.9789 0
M  V30 5545 H 506.848 -3.1568 -1.86391 0
M  V30 5546 H 506.496 -2.63526 -4.28443 0
M  V30 5547 H 506.196 -4.35757 -3.94195 0
M  V30 5548 H 507.72 -3.86042 -4.73079 0
M  V30 5549 H 509.134 -5.01637 -2.77549 0
M  V30 5550 H 507.531 -5.57655 -2.21677 0
M  V30 5551 H 508.601 -4.7253 -1.08829 0
M  V30 5552 N 509.944 0.496216 -1.49584 0
M  V30 5553 C 511.169 1.27865 -1.63295 0
M  V30 5554 C 511.594 1.85592 -0.306156 0
M  V30 5555 O 510.952 1.66092 0.726851 0
M  V30 5556 C 511 2.38128 -2.7079 0
M  V30 5557 O 510.104 3.42108 -2.30296 0
M  V30 5558 H 509.445 0.377279 -0.546403 0
M  V30 5559 H 511.975 0.593497 -1.95803 0
M  V30 5560 H 511.985 2.8382 -2.93104 0
M  V30 5561 H 510.66 1.95479 -3.67098 0
M  V30 5562 H 509.237 3.02301 -2.18331 0
M  V30 5563 N 511.423 1.38739 0.74761 0
M  V30 5564 C 512.671 1.35007 1.50391 0
M  V30 5565 C 512.992 -0.0574274 1.94915 0
M  V30 5566 O 512.262 -1.00628 1.6808 0
M  V30 5567 H 510.842 0.496784 0.557866 0
M  V30 5568 H 513.504 1.73479 0.888319 0
M  V30 5569 H 512.6 2.00474 2.392 0
M  V30 5570 N 512.901 -0.976442 1.23707 0
M  V30 5571 C 514.178 -1.69296 0.979699 0
M  V30 5572 C 514.558 -2.0508 -0.500555 0
M  V30 5573 O 513.906 -1.74708 -1.47273 0
M  V30 5574 C 514.116 -2.93143 1.89389 0
M  V30 5575 C 515.464 -3.65572 2.15968 0
M  V30 5576 O 516.488 -3.03184 1.86971 0
M  V30 5577 O 515.347 -4.77859 2.65167 0
M  V30 5578 H 512.441 -0.739708 0.369812 0
M  V30 5579 H 514.987 -1.03131 1.34767 0
M  V30 5580 H 513.759 -2.63327 2.89439 0
M  V30 5581 H 513.382 -3.67044 1.52854 0
M  V30 5582 N 514.379 -1.04941 -1.1758 0
M  V30 5583 C 515.604 -0.778253 -1.92245 0
M  V30 5584 C 516.029 0.659707 -1.76152 0
M  V30 5585 O 515.387 1.45803 -1.07755 0
M  V30 5586 C 515.435 -1.16051 -3.41416 0
M  V30 5587 O 514.539 -0.291153 -4.11371 0
M  V30 5588 H 513.88 -0.285619 -0.599431 0
M  V30 5589 H 516.41 -1.40159 -1.49052 0
M  V30 5590 H 516.42 -1.12619 -3.92149 0
M  V30 5591 H 515.095 -2.208 -3.52449 0
M  V30 5592 H 513.672 -0.385851 -3.70898 0
M  V30 5593 N 515.857 1.33968 -0.830081 0
M  V30 5594 C 516.787 2.31911 -0.271911 0
M  V30 5595 C 517.768 1.58571 0.61556 0
M  V30 5596 O 518.953 1.86514 0.540946 0
M  V30 5597 C 516.083 3.42737 0.561146 0
M  V30 5598 C 515.037 4.27383 -0.229789 0
M  V30 5599 C 514.363 5.29742 0.726463 0
M  V30 5600 C 515.663 5.02 -1.44197 0
M  V30 5601 H 517.357 2.78844 -1.09025 0
M  V30 5602 H 514.903 1.34061 -0.52571 0
M  V30 5603 H 516.856 4.10276 0.961867 0
M  V30 5604 H 515.58 2.94471 1.41261 0
M  V30 5605 H 514.239 3.61456 -0.611964 0
M  V30 5606 H 513.887 4.77736 1.57408 0
M  V30 5607 H 513.587 5.87255 0.20142 0
M  V30 5608 H 515.111 6.00149 1.12489 0
M  V30 5609 H 516.525 5.62355 -1.11488 0
M  V30 5610 H 514.922 5.69122 -1.90317 0
M  V30 5611 H 515.992 4.31281 -2.2164 0
M  V30 5612 N 517.335 0.585699 1.46312 0
M  V30 5613 C 518.582 0.0724211 2.0237 0
M  V30 5614 C 518.91 -1.28868 1.45683 0
M  V30 5615 O 518.165 -1.85853 0.612945 0
M  V30 5616 C 518.464 -0.0401312 3.57377 0
M  V30 5617 C 518.13 1.25376 4.33119 0
M  V30 5618 C 516.792 1.60824 4.5353 0
M  V30 5619 C 519.144 2.10987 4.76586 0
M  V30 5620 C 516.472 2.81676 5.14661 0
M  V30 5621 C 518.824 3.31068 5.39052 0
M  V30 5622 C 517.488 3.66794 5.5769 0
M  V30 5623 H 516.758 0.0265007 0.740526 0
M  V30 5624 H 519.405 0.762935 1.75646 0
M  V30 5625 H 517.71 -0.813791 3.83255 0
M  V30 5626 H 519.407 -0.453078 3.98432 0
M  V30 5627 H 515.997 0.967808 4.1753 0
M  V30 5628 H 520.181 1.84904 4.60569 0
M  V30 5629 H 515.437 3.0949 5.27282 0
M  V30 5630 H 519.611 3.97672 5.71691 0
M  V30 5631 H 517.238 4.60529 6.04828 0
M  V30 5632 N 518.813 -1.54241 0.323641 0
M  V30 5633 C 519.743 -2.27289 -0.534993 0
M  V30 5634 C 520.724 -1.28087 -1.11927 0
M  V30 5635 O 521.909 -1.56899 -1.14439 0
M  V30 5636 C 519.039 -3.03075 -1.69596 0
M  V30 5637 C 517.993 -4.09614 -1.24098 0
M  V30 5638 C 517.319 -4.73242 -2.4889 0
M  V30 5639 C 518.619 -5.21087 -0.355789 0
M  V30 5640 H 520.313 -2.99308 0.0743257 0
M  V30 5641 H 517.859 -1.43952 0.0371874 0
M  V30 5642 H 519.812 -3.52907 -2.30293 0
M  V30 5643 H 518.536 -2.28673 -2.33187 0
M  V30 5644 H 517.195 -3.60666 -0.656945 0
M  V30 5645 H 516.843 -3.95455 -3.10845 0
M  V30 5646 H 516.543 -5.45209 -2.19138 0
M  V30 5647 H 518.067 -5.25848 -3.10348 0
M  V30 5648 H 519.481 -5.66675 -0.869042 0
M  V30 5649 H 517.878 -5.9991 -0.151045 0
M  V30 5650 H 518.948 -4.81005 0.613339 0
M  V30 5651 N 520.291 -0.0518155 -1.57515 0
M  V30 5652 C 521.707 0.304735 -1.56664 0
M  V30 5653 C 521.907 1.71395 -1.05953 0
M  V30 5654 O 520.963 2.42123 -0.716414 0
M  V30 5655 C 522.276 0.132614 -3.00407 0
M  V30 5656 C 523.824 0.20367 -3.12337 0
M  V30 5657 C 524.299 0.0600706 -4.57961 0
M  V30 5658 N 525.79 0.116326 -4.63054 0
M  V30 5659 C 526.525 0.0293363 -5.73392 0
M  V30 5660 N 526.021 -0.110038 -6.92713 0
M  V30 5661 N 527.814 0.0849651 -5.62036 0
M  V30 5662 H 519.965 -0.973056 -1.888 0
M  V30 5663 H 522.228 -0.377781 -0.869474 0
M  V30 5664 H 521.934 -0.839019 -3.41546 0
M  V30 5665 H 521.808 0.893376 -3.66468 0
M  V30 5666 H 524.195 1.16578 -2.71097 0
M  V30 5667 H 524.276 -0.587857 -2.48954 0
M  V30 5668 H 523.92 -0.898715 -4.99886 0
M  V30 5669 H 523.85 0.87075 -5.19351 0
M  V30 5670 H 526.341 0.22327 -3.7724 0
M  V30 5671 H 526.654 -0.169104 -7.72615 0
M  V30 5672 H 524.999 -0.145132 -6.94848 0
M  V30 5673 H 528.19 0.192411 -4.67704 0
M  V30 5674 H 528.363 0.0137131 -6.47999 0
M  V30 5675 N 521.769 1.56035 0.221574 0
M  V30 5676 C 522.716 1.92413 1.27459 0
M  V30 5677 C 523.686 0.781323 1.46576 0
M  V30 5678 O 524.871 1.03721 1.60145 0
M  V30 5679 C 522.011 2.24617 2.61995 0
M  V30 5680 C 521.124 3.51831 2.50677 0
M  V30 5681 C 520.259 3.73482 3.77736 0
M  V30 5682 C 519.298 4.94211 3.6114 0
M  V30 5683 N 518.435 5.12252 4.80148 0
M  V30 5684 H 523.275 2.82203 0.957355 0
M  V30 5685 H 520.812 1.39676 0.461415 0
M  V30 5686 H 522.77 2.41298 3.40339 0
M  V30 5687 H 521.4 1.38 2.91815 0
M  V30 5688 H 520.452 3.43343 1.63767 0
M  V30 5689 H 521.764 4.40328 2.34334 0
M  V30 5690 H 520.918 3.9026 4.64523 0
M  V30 5691 H 519.657 2.83266 3.97003 0
M  V30 5692 H 518.662 4.77384 2.72736 0
M  V30 5693 H 519.887 5.85912 3.43343 0
M  V30 5694 H 517.833 4.24978 4.99729 0
M  V30 5695 H 517.75 5.94881 4.66532 0
M  V30 5696 H 519.018 5.33465 5.68362 0
M  V30 5697 N 523.247 -0.488276 1.49845 0
M  V30 5698 C 524.21 -1.57069 1.66919 0
M  V30 5699 C 525.21 -1.51445 0.540479 0
M  V30 5700 O 526.4 -1.5437 0.807188 0
M  V30 5701 C 523.532 -2.96718 1.67844 0
M  V30 5702 H 524.725 -1.43254 2.63474 0
M  V30 5703 H 522.278 -0.713435 1.39068 0
M  V30 5704 H 523.013 -3.15996 0.7292 0
M  V30 5705 H 522.798 -3.02208 2.49826 0
M  V30 5706 H 524.288 -3.75335 1.83066 0
M  V30 5707 N 524.725 -1.39134 -0.740242 0
M  V30 5708 C 525.635 -1.39697 -1.88473 0
M  V30 5709 C 526.651 -0.292403 -1.71526 0
M  V30 5710 O 527.827 -0.533021 -1.94219 0
M  V30 5711 C 524.892 -1.23382 -3.24003 0
M  V30 5712 C 523.953 -2.43763 -3.53381 0
M  V30 5713 C 523.186 -2.28216 -4.82445 0
M  V30 5714 O 523.409 -1.28288 -5.55786 0
M  V30 5715 O 522.343 -3.1709 -5.11603 0
M  V30 5716 H 526.169 -2.36159 -1.90952 0
M  V30 5717 H 523.754 -1.20194 -0.887346 0
M  V30 5718 H 525.636 -1.16395 -4.05006 0
M  V30 5719 H 524.311 -0.300121 -3.22306 0
M  V30 5720 H 523.218 -2.56325 -2.72485 0
M  V30 5721 H 524.551 -3.35808 -3.59852 0
M  V30 5722 N 526.204 0.969867 -1.24223 0
M  V30 5723 C 527.481 1.68774 -0.988664 0
M  V30 5724 C 527.861 2.05342 0.489673 0
M  V30 5725 O 527.209 1.75486 1.46345 0
M  V30 5726 C 527.419 2.92135 -1.90941 0
M  V30 5727 C 528.767 3.64422 -2.17903 0
M  V30 5728 O 529.791 3.02188 -1.88576 0
M  V30 5729 O 528.65 4.76446 -2.67697 0
M  V30 5730 H 525.744 0.737736 -0.37373 0
M  V30 5731 H 528.29 1.02415 -1.35312 0
M  V30 5732 H 527.062 2.61788 -2.90831 0
M  V30 5733 H 526.685 3.66228 -1.54798 0
M  V30 5734 N 527.682 1.05563 1.17022 0
M  V30 5735 C 528.929 0.767937 1.87374 0
M  V30 5736 C 529.257 -0.705224 1.81265 0
M  V30 5737 O 528.512 -1.5318 1.21796 0
M  V30 5738 C 528.811 1.19849 3.36706 0
M  V30 5739 C 528.477 2.6745 3.63017 0
M  V30 5740 C 527.139 3.0777 3.69907 0
M  V30 5741 C 529.491 3.62811 3.74189 0
M  V30 5742 C 526.819 4.42307 3.85463 0
M  V30 5743 C 529.171 4.97087 3.91264 0
M  V30 5744 C 527.835 5.37055 3.96394 0
M  V30 5745 H 527.105 0.281008 0.68565 0
M  V30 5746 H 529.752 1.32339 1.38415 0
M  V30 5747 H 528.057 0.562096 3.87747 0
M  V30 5748 H 529.754 0.953038 3.8951 0
M  V30 5749 H 526.344 2.35228 3.58282 0
M  V30 5750 H 530.528 3.32798 3.68183 0
M  V30 5751 H 525.784 4.72769 3.87684 0
M  V30 5752 H 529.958 5.70869 3.9885 0
M  V30 5753 H 527.585 6.41308 4.082 0
M  V30 5754 N 529.16 -1.33526 0.837174 0
M  V30 5755 C 530.408 -1.97446 0.431211 0
M  V30 5756 C 530.729 -1.6665 -1.01255 0
M  V30 5757 O 529.999 -0.964559 -1.70508 0
M  V30 5758 H 528.579 -0.73043 0.156463 0
M  V30 5759 H 531.241 -1.62918 1.06976 0
M  V30 5760 H 530.337 -3.07001 0.561877 0
M  V30 5761 N 530.638 -0.59345 -1.46 0
M  V30 5762 C 531.586 0.146268 -2.3214 0
M  V30 5763 C 532.58 0.873743 -1.45128 0
M  V30 5764 O 533.786 0.790912 -1.61693 0
M  V30 5765 H 530.161 0.0660349 -0.749095 0
M  V30 5766 H 532.132 -0.598895 -2.92328 0
M  V30 5767 C 530.881 1.1396 -3.28494 0
M  V30 5768 H 530.204 0.589252 -3.95434 0
M  V30 5769 H 531.644 1.62738 -3.91526 0
M  V30 5770 C 530.103 2.20604 -2.54628 0
M  V30 5771 O 530.633 3.28128 -2.31722 0
M  V30 5772 N 528.839 1.95502 -2.15005 0
M  V30 5773 H 528.386 1.0807 -2.33834 0
M  V30 5774 H 528.344 2.67064 -1.65904 0
M  V30 5775 N 532.116 1.54067 -0.331816 0
M  V30 5776 C 533.532 1.59587 0.0205388 0
M  V30 5777 C 533.732 1.34813 1.49759 0
M  V30 5778 O 532.788 1.13661 2.25471 0
M  V30 5779 C 534.101 2.97959 -0.405103 0
M  V30 5780 C 535.649 3.10964 -0.356454 0
M  V30 5781 C 536.124 4.51694 -0.757384 0
M  V30 5782 N 537.615 4.57709 -0.71111 0
M  V30 5783 C 538.35 5.64729 -0.993427 0
M  V30 5784 N 537.846 6.79652 -1.3433 0
M  V30 5785 N 539.639 5.54546 -0.918442 0
M  V30 5786 H 531.79 1.68426 -1.29407 0
M  V30 5787 H 534.053 0.78819 -0.526745 0
M  V30 5788 H 533.759 3.21115 -1.43451 0
M  V30 5789 H 533.633 3.76524 0.225692 0
M  V30 5790 H 536.02 2.87538 0.663763 0
M  V30 5791 H 536.101 2.34484 -1.02229 0
M  V30 5792 H 535.745 4.75853 -1.77555 0
M  V30 5793 H 535.675 5.26555 -0.0691444 0
M  V30 5794 H 538.166 3.75176 -0.452883 0
M  V30 5795 H 538.479 7.57221 -1.54388 0
M  V30 5796 H 536.824 6.81128 -1.38164 0
M  V30 5797 H 540.015 4.63641 -0.644536 0
M  V30 5798 H 540.188 6.37861 -1.14181 0
M  V30 5799 N 533.594 0.0601682 1.57485 0
M  V30 5800 C 534.524 -0.90889 2.15085 0
M  V30 5801 C 535.505 -1.31838 1.07484 0
M  V30 5802 O 536.69 -1.3915 1.35466 0
M  V30 5803 C 533.82 -2.18059 2.7031 0
M  V30 5804 C 532.774 -1.91088 3.82974 0
M  V30 5805 C 532.1 -3.24789 4.24754 0
M  V30 5806 C 533.4 -1.22535 5.07723 0
M  V30 5807 H 535.094 -0.429093 2.96309 0
M  V30 5808 H 532.64 -0.204952 1.42534 0
M  V30 5809 H 534.593 -2.86258 3.09248 0
M  V30 5810 H 533.317 -2.6826 1.8629 0
M  V30 5811 H 531.976 -1.25297 3.44523 0
M  V30 5812 H 531.624 -3.72809 3.37672 0
M  V30 5813 H 531.324 -3.07538 5.00694 0
M  V30 5814 H 532.848 -3.94205 4.66299 0
M  V30 5815 H 534.262 -1.80783 5.4405 0
M  V30 5816 H 532.659 -1.1558 5.88864 0
M  V30 5817 H 533.729 -0.202692 4.84476 0
M  V30 5818 N 535.072 -1.5615 -0.213296 0
M  V30 5819 C 536.005 -1.88115 -1.29182 0
M  V30 5820 C 536.983 -0.739348 -1.44819 0
M  V30 5821 O 538.167 -0.988541 -1.605 0
M  V30 5822 C 535.294 -2.09541 -2.66102 0
M  V30 5823 C 534.34 -3.32236 -2.67436 0
M  V30 5824 S 535.173 -4.87915 -2.20679 0
M  V30 5825 C 536.329 -5.12387 -3.59458 0
M  V30 5826 H 536.562 -2.793 -1.01876 0
M  V30 5827 H 534.095 -1.48692 -0.415934 0
M  V30 5828 H 536.053 -2.22568 -3.44925 0
M  V30 5829 H 534.714 -1.19138 -2.90628 0
M  V30 5830 H 533.907 -3.44297 -3.6807 0
M  V30 5831 H 533.509 -3.18108 -1.96681 0
M  V30 5832 H 535.801 -5.01791 -4.55205 0
M  V30 5833 H 536.744 -6.14236 -3.52306 0
M  V30 5834 H 537.152 -4.40089 -3.53528 0
M  V30 5835 N 536.55 0.480323 -1.50102 0
M  V30 5836 C 537.961 1.06142 -1.53593 0
M  V30 5837 C 538.312 1.93335 -0.334055 0
M  V30 5838 O 537.437 2.09188 0.55403 0
M  V30 5839 C 538.032 1.9317 -2.78336 0
M  V30 5840 C 536.591 2.46405 -2.84538 0
M  V30 5841 C 535.738 1.24521 -2.4777 0
M  V30 5842 H 538.689 0.26333 -1.565 0
M  V30 5843 H 538.71 2.78123 -2.59669 0
M  V30 5844 H 538.222 1.29683 -3.65792 0
M  V30 5845 H 536.323 3.13472 -2.01411 0
M  V30 5846 H 536.436 2.82143 -3.87211 0
M  V30 5847 H 534.8 1.57706 -2.00003 0
M  V30 5848 H 535.583 0.627102 -3.37524 0
M  V30 5849 N 538.028 1.39524 0.732853 0
M  V30 5850 C 538.991 1.38189 1.82857 0
M  V30 5851 C 539.991 0.278624 1.58368 0
M  V30 5852 O 541.181 0.536639 1.65728 0
M  V30 5853 C 538.313 1.15661 3.2068 0
M  V30 5854 H 539.506 2.35692 1.85444 0
M  V30 5855 H 537.059 1.2512 0.936728 0
M  V30 5856 H 537.794 0.188482 3.23752 0
M  V30 5857 H 537.579 1.95559 3.39852 0
M  V30 5858 H 539.069 1.17472 4.00737 0
M  V30 5859 N 539.506 -0.963266 1.24736 0
M  V30 5860 C 540.753 -1.7068 1.0897 0
M  V30 5861 C 541.081 -1.90934 -0.370751 0
M  V30 5862 O 540.336 -1.47155 -1.29011 0
M  V30 5863 C 540.635 -3.09944 1.7796 0
M  V30 5864 C 540.301 -3.09518 3.27887 0
M  V30 5865 C 538.963 -3.09109 3.68789 0
M  V30 5866 C 541.315 -3.03509 4.23712 0
M  V30 5867 C 538.643 -3.00429 5.03944 0
M  V30 5868 C 540.995 -2.96371 5.5888 0
M  V30 5869 C 539.659 -2.94293 5.99123 0
M  V30 5870 H 538.929 -0.624564 0.398749 0
M  V30 5871 H 541.576 -1.12603 1.54896 0
M  V30 5872 H 539.881 -3.71513 1.2444 0
M  V30 5873 H 541.578 -3.66278 1.63222 0
M  V30 5874 H 538.168 -3.10603 2.95337 0
M  V30 5875 H 542.352 -3.0295 3.93109 0
M  V30 5876 H 537.608 -2.97183 5.34314 0
M  V30 5877 H 541.782 -2.90681 6.32833 0
M  V30 5878 H 539.409 -2.87322 7.03811 0
M  V30 5879 N 540.985 -1.06182 -1.16461 0
M  V30 5880 C 542.401 -0.785065 -1.38956 0
M  V30 5881 C 542.601 0.616103 -1.9185 0
M  V30 5882 O 541.657 1.37686 -2.11657 0
M  V30 5883 C 542.97 -1.84902 -2.37132 0
M  V30 5884 C 544.518 -1.8724 -2.50819 0
M  V30 5885 C 544.993 -2.92686 -3.52277 0
M  V30 5886 N 546.484 -2.91712 -3.59803 0
M  V30 5887 C 547.219 -3.69949 -4.38093 0
M  V30 5888 N 546.715 -4.58 -5.19815 0
M  V30 5889 N 548.508 -3.58346 -4.33064 0
M  V30 5890 H 540.659 -1.96569 -0.804634 0
M  V30 5891 H 542.922 -0.851747 -0.416211 0
M  V30 5892 H 542.628 -2.85518 -2.0536 0
M  V30 5893 H 542.502 -1.69908 -3.36766 0
M  V30 5894 H 544.889 -0.872827 -2.81897 0
M  V30 5895 H 544.97 -2.06311 -1.51226 0
M  V30 5896 H 544.614 -3.92835 -3.21937 0
M  V30 5897 H 544.544 -2.70864 -4.51598 0
M  V30 5898 H 547.035 -2.27876 -3.01464 0
M  V30 5899 H 547.348 -5.14357 -5.76764 0
M  V30 5900 H 545.693 -4.62056 -5.19162 0
M  V30 5901 H 548.884 -2.88943 -3.68279 0
M  V30 5902 H 549.057 -4.19563 -4.93833 0
M  V30 5903 N 542.463 1.3308 -0.844243 0
M  V30 5904 C 543.691 2.01808 -0.456203 0
M  V30 5905 C 544.106 1.63498 0.944131 0
M  V30 5906 O 543.463 0.85102 1.61443 0
M  V30 5907 C 543.514 3.56922 -0.573513 0
M  V30 5908 O 543.235 3.93851 -1.91868 0
M  V30 5909 C 544.736 4.42922 -0.183125 0
M  V30 5910 H 541.956 0.646273 -0.180477 0
M  V30 5911 H 544.5 1.69891 -1.1383 0
M  V30 5912 H 542.655 3.87352 0.0607367 0
M  V30 5913 H 543.069 4.88564 -1.90802 0
M  V30 5914 H 544.543 5.51093 -0.316241 0
M  V30 5915 H 545.02 4.30386 0.875477 0
M  V30 5916 H 545.626 4.1786 -0.792027 0
M  V30 5917 N 543.941 0.601185 1.45683 0
M  V30 5918 C 545.352 0.179659 1.85834 0
M  V30 5919 C 545.703 -1.26189 1.50236 0
M  V30 5920 O 544.828 -1.95587 0.925987 0
M  V30 5921 C 545.423 0.319277 3.37292 0
M  V30 5922 C 543.982 -0.0475092 3.7637 0
M  V30 5923 C 543.129 0.646692 2.69654 0
M  V30 5924 H 546.08 0.808268 1.36575 0
M  V30 5925 H 546.101 -0.4503 3.77826 0
M  V30 5926 H 545.613 1.36855 3.6317 0
M  V30 5927 H 543.714 -1.0962 3.5611 0
M  V30 5928 H 543.827 0.34168 4.7788 0
M  V30 5929 H 542.191 0.0849971 2.54558 0
M  V30 5930 H 542.974 1.69797 2.98369 0
M  V30 5931 N 545.419 -1.53889 0.339982 0
M  V30 5932 C 546.644 -2.05741 -0.261798 0
M  V30 5933 C 547.069 -1.21354 -1.43718 0
M  V30 5934 O 546.427 -0.22645 -1.7988 0
M  V30 5935 C 546.475 -3.54542 -0.658228 0
M  V30 5936 O 545.579 -3.7302 -1.75869 0
M  V30 5937 H 544.92 -0.662529 -0.0441672 0
M  V30 5938 H 547.45 -1.98568 0.493161 0
M  V30 5939 H 547.46 -3.9711 -0.936368 0
M  V30 5940 H 546.135 -4.15412 0.201358 0
M  V30 5941 H 544.712 -3.42355 -1.47809 0
M  V30 5942 N 546.897 -0.0685191 -1.57451 0
M  V30 5943 C 547.844 0.899861 -2.12535 0
M  V30 5944 C 548.814 1.29749 -1.03703 0
M  V30 5945 O 549.999 1.38392 -1.31348 0
M  V30 5946 C 547.139 2.16328 -2.6888 0
M  V30 5947 C 546.252 1.81857 -3.91857 0
M  V30 5948 C 545.387 3.02786 -4.36457 0
M  V30 5949 C 544.426 2.64317 -5.5209 0
M  V30 5950 N 543.563 3.77994 -5.91663 0
M  V30 5951 H 548.403 0.423243 -2.94979 0
M  V30 5952 H 545.94 0.197268 -1.45771 0
M  V30 5953 H 547.898 2.90281 -2.99655 0
M  V30 5954 H 546.528 2.61536 -1.89206 0
M  V30 5955 H 545.58 0.979808 -3.67565 0
M  V30 5956 H 546.892 1.49553 -4.75852 0
M  V30 5957 H 546.046 3.85021 -4.68875 0
M  V30 5958 H 544.785 3.38281 -3.51308 0
M  V30 5959 H 543.79 1.80503 -5.19325 0
M  V30 5960 H 545.015 2.29995 -6.38967 0
M  V30 5961 H 542.961 4.13258 -5.09464 0
M  V30 5962 H 542.878 3.49447 -6.7039 0
M  V30 5963 H 544.146 4.60818 -6.28703 0
M  V30 5964 N 548.375 1.56261 0.205012 0
M  V30 5965 C 549.624 1.79236 0.925058 0
M  V30 5966 C 549.937 0.640011 1.84833 0
M  V30 5967 O 551.143 0.753809 2.60826 0
M  V30 5968 C 549.599 3.17475 1.69522 0
M  V30 5969 C 549.207 4.40482 0.817269 0
M  V30 5970 C 550.951 3.49766 2.4055 0
M  V30 5971 C 548.858 5.69744 1.58573 0
M  V30 5972 H 547.788 0.668287 0.349153 0
M  V30 5973 H 550.439 1.82629 0.178544 0
M  V30 5974 H 548.821 3.08304 2.48526 0
M  V30 5975 H 549.995 4.60752 0.0665988 0
M  V30 5976 H 548.31 4.15827 0.218316 0
M  V30 5977 H 550.907 4.43573 2.98575 0
M  V30 5978 H 551.25 2.73041 3.14252 0
M  V30 5979 H 551.783 3.60341 1.68522 0
M  V30 5980 H 548.522 6.49407 0.891679 0
M  V30 5981 H 548.042 5.53509 2.31059 0
M  V30 5982 H 549.721 6.1051 2.14212 0
M  V30 5983 N 549.853 -0.472356 1.50355 0
M  V30 5984 C 551.264 -1.05326 1.54154 0
M  V30 5985 C 551.615 -1.93155 0.344303 0
M  V30 5986 O 550.74 -2.09479 -0.542928 0
M  V30 5987 C 551.335 -1.91691 2.79356 0
M  V30 5988 C 549.894 -2.44892 2.8584 0
M  V30 5989 C 549.041 -1.23205 2.48426 0
M  V30 5990 H 551.992 -0.255027 1.56637 0
M  V30 5991 H 552.013 -2.76742 2.6114 0
M  V30 5992 H 551.525 -1.27741 3.66475 0
M  V30 5993 H 549.626 -3.12399 2.0307 0
M  V30 5994 H 549.739 -2.80086 3.88701 0
M  V30 5995 H 548.103 -1.56643 2.00836 0
M  V30 5996 H 548.886 -0.609194 3.37852 0
M  V30 5997 N 551.331 -1.39911 -0.725443 0
M  V30 5998 C 552.561 -1.40744 -1.51244 0
M  V30 5999 C 552.969 -0.00275403 -1.892 0
M  V30 6000 O 552.312 0.981299 -1.55294 0
M  V30 6001 C 552.374 -2.22527 -2.82351 0
M  V30 6002 C 552.038 -3.71053 -2.66774 0
M  V30 6003 C 553.035 -4.63916 -2.34686 0
M  V30 6004 C 550.72 -4.14753 -2.83347 0
M  V30 6005 C 552.714 -5.98463 -2.19366 0
M  V30 6006 C 550.401 -5.49372 -2.67644 0
M  V30 6007 C 551.399 -6.41042 -2.357 0
M  V30 6008 O 551.087 -7.73181 -2.20107 0
M  V30 6009 H 550.819 -0.482314 -0.473655 0
M  V30 6010 H 553.373 -1.84472 -0.903284 0
M  V30 6011 H 551.603 -1.73563 -3.45562 0
M  V30 6012 H 553.292 -2.15421 -3.44018 0
M  V30 6013 H 554.058 -4.31453 -2.21525 0
M  V30 6014 H 549.937 -3.43728 -3.072 0
M  V30 6015 H 553.481 -6.69979 -1.94354 0
M  V30 6016 H 549.378 -5.81424 -2.80387 0
M  V30 6017 H 550.146 -7.84008 -2.35103 0
M  V30 6018 N 552.809 0.956637 -1.25245 0
M  V30 6019 C 554.034 1.74104 -1.12706 0
M  V30 6020 C 554.459 1.85436 0.315429 0
M  V30 6021 O 553.817 1.33334 1.22848 0
M  V30 6022 C 553.865 3.1338 -1.78396 0
M  V30 6023 O 552.969 3.98485 -1.06224 0
M  V30 6024 H 552.31 0.53476 -0.393609 0
M  V30 6025 H 554.84 1.19924 -1.65769 0
M  V30 6026 H 554.85 3.6385 -1.846 0
M  V30 6027 H 553.525 3.04448 -2.83345 0
M  V30 6028 H 552.102 3.56952 -1.07886 0
M  V30 6029 N 554.287 1.06798 1.15896 0
M  V30 6030 C 555.564 0.701057 1.82605 0
M  V30 6031 C 555.944 -0.817066 1.94646 0
M  V30 6032 O 555.292 -1.72933 1.49353 0
M  V30 6033 C 555.502 1.40895 3.19296 0
M  V30 6034 C 556.85 1.55744 3.95005 0
M  V30 6035 O 557.874 1.36927 3.28831 0
M  V30 6036 O 556.733 1.86658 5.13635 0
M  V30 6037 H 553.827 0.248791 0.78869 0
M  V30 6038 H 556.373 1.16857 1.23055 0
M  V30 6039 H 555.145 2.4439 3.05596 0
M  V30 6040 H 554.768 0.931847 3.86526 0
M  V30 6041 N 555.766 -1.3263 0.851289 0
M  V30 6042 C 557.012 -1.9766 0.453694 0
M  V30 6043 C 557.345 -1.67225 -0.987396 0
M  V30 6044 O 556.62 -0.958693 -1.69232 0
M  V30 6045 C 556.903 -3.5344 0.68936 0
M  V30 6046 C 556.756 -3.93517 2.17862 0
M  V30 6047 C 558.075 -4.39866 0.143555 0
M  V30 6048 H 555.194 -0.717989 0.166314 0
M  V30 6049 H 557.836 -1.57068 1.06909 0
M  V30 6050 H 555.986 -3.88147 0.165546 0
M  V30 6051 H 557.658 -3.69006 2.76826 0
M  V30 6052 H 555.901 -3.42798 2.65841 0
M  V30 6053 H 556.572 -5.02065 2.29422 0
M  V30 6054 H 559.048 -4.11875 0.591451 0
M  V30 6055 H 557.924 -5.47858 0.338043 0
M  V30 6056 H 558.185 -4.31696 -0.953466 0
M  V30 6057 N 557.244 -0.608902 -1.45362 0
M  V30 6058 C 558.192 0.121639 -2.32282 0
M  V30 6059 C 559.186 0.858301 -1.46046 0
M  V30 6060 O 560.392 0.773718 -1.62523 0
M  V30 6061 H 556.767 0.058086 -0.749753 0
M  V30 6062 H 558.738 -0.629866 -2.91677 0
M  V30 6063 C 557.487 1.1047 -3.29684 0
M  V30 6064 H 556.81 0.547278 -3.96036 0
M  V30 6065 H 558.25 1.58576 -3.9323 0
M  V30 6066 C 556.709 2.17891 -2.56954 0
M  V30 6067 O 557.239 3.25652 -2.35189 0
M  V30 6068 N 555.445 1.93211 -2.17066 0
M  V30 6069 H 554.992 1.05584 -2.34967 0
M  V30 6070 H 554.95 2.6529 -1.68727 0
M  V30 6071 N 558.722 1.53707 -0.348139 0
M  V30 6072 C 559.971 2.0017 0.247992 0
M  V30 6073 C 560.284 1.23983 1.51286 0
M  V30 6074 O 561.49 1.60946 2.18652 0
M  V30 6075 C 559.946 3.56515 0.492459 0
M  V30 6076 C 559.554 4.41562 -0.756777 0
M  V30 6077 C 561.298 4.11381 1.0472 0
M  V30 6078 C 559.205 5.89426 -0.482856 0
M  V30 6079 H 558.135 0.747806 0.0964452 0
M  V30 6080 H 560.786 1.77532 -0.464179 0
M  V30 6081 H 559.168 3.75236 1.26545 0
M  V30 6082 H 560.342 4.34615 -1.53122 0
M  V30 6083 H 558.657 3.97711 -1.23348 0
M  V30 6084 H 561.254 5.19468 1.26717 0
M  V30 6085 H 561.597 3.64885 2.00411 0
M  V30 6086 H 562.13 3.96389 0.334801 0
M  V30 6087 H 558.869 6.40164 -1.40962 0
M  V30 6088 H 558.389 5.99264 0.253416 0
M  V30 6089 H 560.068 6.4692 -0.101816 0
M  V30 6090 N 560.2 0.0768682 1.57412 0
M  V30 6091 C 561.448 -0.589918 1.93299 0
M  V30 6092 C 561.769 -1.69842 0.958049 0
M  V30 6093 O 561.039 -1.95899 0.00703261 0
M  V30 6094 H 559.619 -0.220901 0.713591 0
M  V30 6095 H 562.281 0.135917 1.94425 0
M  V30 6096 H 561.377 -1.01195 2.95239 0
M  V30 6097 N 561.678 -1.56367 -0.196722 0
M  V30 6098 C 562.906 -1.84639 -0.933608 0
M  V30 6099 C 563.321 -0.659164 -1.76919 0
M  V30 6100 O 562.678 0.372142 -1.78665 0
M  V30 6101 C 562.729 -3.11694 -1.83109 0
M  V30 6102 O 562.45 -4.25838 -1.02924 0
M  V30 6103 C 563.951 -3.53132 -2.67979 0
M  V30 6104 H 561.171 -0.613188 -0.272473 0
M  V30 6105 H 563.715 -2.03475 -0.204465 0
M  V30 6106 H 561.87 -2.94759 -2.51387 0
M  V30 6107 H 562.284 -4.98178 -1.64069 0
M  V30 6108 H 563.758 -4.45005 -3.26611 0
M  V30 6109 H 564.235 -2.76045 -3.41608 0
M  V30 6110 H 564.841 -3.72592 -2.05074 0
M  V30 6111 N 563.156 0.464375 -1.50603 0
M  V30 6112 C 564.404 1.21356 -1.61608 0
M  V30 6113 C 564.725 1.92329 -0.321643 0
M  V30 6114 O 563.995 1.84403 0.661232 0
M  V30 6115 H 562.575 0.45094 -0.595535 0
M  V30 6116 H 565.237 0.535046 -1.87412 0
M  V30 6117 H 564.333 1.95783 -2.43054 0
M  V30 6118 N 564.634 1.40294 0.718013 0
M  V30 6119 C 565.88 1.38645 1.48005 0
M  V30 6120 C 566.213 -0.0121202 1.94196 0
M  V30 6121 O 565.488 -0.980309 1.67989 0
M  V30 6122 C 565.771 2.37379 2.70782 0
M  V30 6123 C 565.624 3.8625 2.30501 0
M  V30 6124 C 566.943 2.33685 3.72933 0
M  V30 6125 H 564.062 0.504928 0.536858 0
M  V30 6126 H 566.704 1.71411 0.819649 0
M  V30 6127 H 564.854 2.09568 3.27129 0
M  V30 6128 H 566.526 4.24879 1.79655 0
M  V30 6129 H 564.769 4.02202 1.6253 0
M  V30 6130 H 565.44 4.50847 3.18498 0
M  V30 6131 H 567.916 2.58314 3.2621 0
M  V30 6132 H 566.792 3.0482 4.56482 0
M  V30 6133 H 567.053 1.34765 4.21059 0
M  V30 6134 N 566.112 -0.949982 1.2575 0
M  V30 6135 C 567.075 -2.02894 1.06615 0
M  V30 6136 C 568.075 -1.60791 0.0173905 0
M  V30 6137 O 569.265 -1.72249 0.260003 0
M  V30 6138 C 566.397 -3.35219 0.619751 0
M  V30 6139 H 567.59 -2.21302 2.02399 0
M  V30 6140 H 565.143 -1.12772 1.08223 0
M  V30 6141 H 565.878 -3.22508 -0.340486 0
M  V30 6142 H 565.663 -3.67129 1.37692 0
M  V30 6143 H 567.153 -4.14505 0.507443 0
M  V30 6144 N 567.59 -1.07411 -1.15328 0
M  V30 6145 C 568.54 -0.664788 -2.18093 0
M  V30 6146 C 569.524 0.310395 -1.57878 0
M  V30 6147 O 570.716 0.124026 -1.76565 0
M  V30 6148 C 567.845 -0.0647822 -3.43239 0
M  V30 6149 C 566.931 -1.06514 -4.10506 0
M  V30 6150 N 567.322 -2.24491 -4.53252 0
M  V30 6151 C 565.62 -0.898613 -4.36853 0
M  V30 6152 C 566.321 -2.8796 -5.05424 0
M  V30 6153 N 565.297 -2.15622 -4.99007 0
M  V30 6154 H 569.099 -1.56333 -2.48872 0
M  V30 6155 H 566.613 -0.947393 -1.31902 0
M  V30 6156 H 568.61 0.246363 -4.16171 0
M  V30 6157 H 567.27 0.828866 -3.13943 0
M  V30 6158 H 568.281 -2.62205 -4.46619 0
M  V30 6159 H 564.958 -0.0579118 -4.1746 0
M  V30 6160 H 566.348 -3.88137 -5.48452 0
M  V30 6161 N 569.068 1.32177 -0.85831 0
M  V30 6162 C 570.479 1.79381 -0.517621 0
M  V30 6163 C 570.83 1.70841 0.964769 0
M  V30 6164 O 569.955 1.26917 1.75274 0
M  V30 6165 C 570.55 3.25706 -0.932801 0
M  V30 6166 C 569.109 3.70851 -0.643953 0
M  V30 6167 C 568.256 2.53208 -1.13054 0
M  V30 6168 H 571.207 1.19424 -1.04516 0
M  V30 6169 H 571.228 3.79673 -0.250674 0
M  V30 6170 H 570.74 3.31889 -2.01174 0
M  V30 6171 H 568.841 3.70178 0.424112 0
M  V30 6172 H 568.954 4.63495 -1.21281 0
M  V30 6173 H 567.318 2.48676 -0.550679 0
M  V30 6174 H 568.101 2.62143 -2.21666 0
M  V30 6175 N 570.547 0.616602 1.45037 0
M  V30 6176 C 571.958 0.199359 1.85633 0
M  V30 6177 C 572.309 -1.24588 1.51566 0
M  V30 6178 O 571.434 -1.94594 0.94668 0
M  V30 6179 C 572.029 0.355033 3.36935 0
M  V30 6180 C 570.588 -0.00758748 3.76399 0
M  V30 6181 C 569.735 0.675256 2.68953 0
M  V30 6182 H 572.686 0.822708 1.3571 0
M  V30 6183 H 572.707 -0.410201 3.78282 0
M  V30 6184 H 572.219 1.40699 3.61698 0
M  V30 6185 H 570.32 -1.05837 3.57252 0
M  V30 6186 H 570.433 0.392346 4.77491 0
M  V30 6187 H 568.797 0.111992 2.54454 0
M  V30 6188 H 569.58 1.72952 2.96551 0
M  V30 6189 N 572.025 -1.5352 0.356285 0
M  V30 6190 C 573.441 -1.59599 0.00485267 0
M  V30 6191 C 573.641 -1.37179 -1.47595 0
M  V30 6192 O 572.697 -1.17234 -2.23635 0
M  V30 6193 C 574.01 -2.97277 0.452454 0
M  V30 6194 C 575.558 -3.10357 0.405881 0
M  V30 6195 C 576.033 -4.50432 0.829148 0
M  V30 6196 N 577.524 -4.5652 0.783838 0
M  V30 6197 C 578.259 -5.63077 1.08315 0
M  V30 6198 N 577.755 -6.77429 1.45126 0
M  V30 6199 N 579.548 -5.53014 1.00655 0
M  V30 6200 H 571.699 -1.66346 1.32071 0
M  V30 6201 H 573.962 -0.77971 0.539218 0
M  V30 6202 H 573.668 -3.18792 1.48542 0
M  V30 6203 H 573.542 -3.76836 -0.165762 0
M  V30 6204 H 575.929 -2.88558 -0.617934 0
M  V30 6205 H 576.01 -2.32828 1.05947 0
M  V30 6206 H 575.654 -4.72968 1.85103 0
M  V30 6207 H 575.584 -5.26378 0.152906 0
M  V30 6208 H 578.075 -3.74408 0.512513 0
M  V30 6209 H 578.388 -7.54669 1.66415 0
M  V30 6210 H 576.733 -6.78844 1.48983 0
M  V30 6211 H 579.924 -4.62557 0.718215 0
M  V30 6212 H 580.097 -6.35964 1.24315 0
M  V30 6213 N 573.503 -0.0852151 -1.57369 0
M  V30 6214 C 574.749 0.575588 -1.95086 0
M  V30 6215 C 575.104 1.66402 -0.96582 0
M  V30 6216 O 574.397 1.91598 0.00978463 0
M  V30 6217 C 574.591 1.18482 -3.3719 0
M  V30 6218 C 574.42 0.156928 -4.49426 0
M  V30 6219 C 573.19 -0.263126 -5.04614 0
M  V30 6220 C 575.388 -0.611068 -5.10657 0
M  V30 6221 N 573.37 -1.28032 -6.00401 0
M  V30 6222 C 574.741 -1.48036 -6.02068 0
M  V30 6223 C 576.796 -0.665669 -4.9343 0
M  V30 6224 C 575.499 -2.39943 -6.781 0
M  V30 6225 C 577.525 -1.5723 -5.70116 0
M  V30 6226 C 576.887 -2.42924 -6.61186 0
M  V30 6227 H 572.986 0.181249 -0.760705 0
M  V30 6228 H 575.57 -0.165484 -1.93995 0
M  V30 6229 H 573.741 1.89575 -3.38992 0
M  V30 6230 H 575.473 1.80718 -3.62109 0
M  V30 6231 H 572.228 0.122664 -4.73441 0
M  V30 6232 H 572.652 -1.78682 -6.52994 0
M  V30 6233 H 577.294 -0.0173214 -4.22796 0
M  V30 6234 H 575.012 -3.05807 -7.48002 0
M  V30 6235 H 578.598 -1.61956 -5.58804 0
M  V30 6236 H 577.478 -3.1194 -7.19488 0
M  V30 6237 N 574.981 1.5647 0.188427 0
M  V30 6238 C 576.209 1.85131 0.923803 0
M  V30 6239 C 576.624 0.668537 1.76567 0
M  V30 6240 O 575.981 -0.362662 1.7886 0
M  V30 6241 C 576.032 3.12661 1.81453 0
M  V30 6242 O 575.753 4.26378 1.00665 0
M  V30 6243 C 577.254 3.54548 2.66103 0
M  V30 6244 H 574.474 0.614624 0.269218 0
M  V30 6245 H 577.018 2.03581 0.193671 0
M  V30 6246 H 575.173 2.96088 2.49821 0
M  V30 6247 H 575.587 4.99041 1.61425 0
M  V30 6248 H 577.061 4.4673 3.24247 0
M  V30 6249 H 577.538 2.77853 3.40139 0
M  V30 6250 H 578.144 3.73674 2.03096 0
M  V30 6251 N 576.459 -0.456382 1.50847 0
M  V30 6252 C 577.684 -1.2349 1.66628 0
M  V30 6253 C 578.109 -1.84715 0.355254 0
M  V30 6254 O 577.467 -1.67961 -0.682559 0
M  V30 6255 C 577.515 -2.30865 2.77009 0
M  V30 6256 O 576.619 -3.35882 2.39285 0
M  V30 6257 H 575.96 -0.36266 0.556214 0
M  V30 6258 H 578.49 -0.541374 1.97308 0
M  V30 6259 H 578.5 -2.75949 3.00526 0
M  V30 6260 H 577.175 -1.85677 3.72152 0
M  V30 6261 H 575.752 -2.96406 2.26269 0
M  V30 6262 N 577.937 -1.40673 -0.710563 0
M  V30 6263 C 579.214 -1.29718 -1.46398 0
M  V30 6264 C 579.594 0.082177 -2.1094 0
M  V30 6265 O 578.942 1.09536 -2.00534 0
M  V30 6266 C 579.152 -2.43967 -2.49562 0
M  V30 6267 C 580.5 -2.84436 -3.15248 0
M  V30 6268 O 581.524 -2.43597 -2.59883 0
M  V30 6269 O 580.383 -3.55008 -4.1549 0
M  V30 6270 H 577.477 -0.509697 -0.651258 0
M  V30 6271 H 580.023 -1.52603 -0.742312 0
M  V30 6272 H 578.795 -3.36076 -2.0042 0
M  V30 6273 H 578.418 -2.22879 -3.29258 0
M  V30 6274 N 579.415 0.9433 -1.26252 0
M  V30 6275 C 580.64 1.72898 -1.14547 0
M  V30 6276 C 581.065 1.85761 0.295743 0
M  V30 6277 O 580.423 1.3463 1.21427 0
M  V30 6278 C 580.471 3.11471 -1.8171 0
M  V30 6279 O 579.575 3.97336 -1.10445 0
M  V30 6280 H 578.916 0.530555 -0.399259 0
M  V30 6281 H 581.446 1.18159 -1.67032 0
M  V30 6282 H 581.456 3.61872 -1.88449 0
M  V30 6283 H 580.131 3.01425 -2.86558 0
M  V30 6284 H 578.708 3.55788 -1.11666 0
M  V30 6285 N 580.893 1.08022 1.14757 0
M  V30 6286 C 582.121 0.828847 1.89572 0
M  V30 6287 C 582.536 -0.618621 1.78377 0
M  V30 6288 O 581.893 -1.42482 1.1404 0
M  V30 6289 C 581.944 1.23677 3.39685 0
M  V30 6290 O 581.665 2.62746 3.50566 0
M  V30 6291 C 583.166 1.01569 4.31507 0
M  V30 6292 H 580.386 0.299196 0.600602 0
M  V30 6293 H 582.93 1.43846 1.45357 0
M  V30 6294 H 581.085 0.671347 3.81539 0
M  V30 6295 H 581.499 2.79573 4.43778 0
M  V30 6296 H 582.973 1.35055 5.35223 0
M  V30 6297 H 583.45 -0.0475433 4.39174 0
M  V30 6298 H 584.056 1.56636 3.95405 0
M  V30 6299 N 582.371 -1.3172 0.865308 0
M  V30 6300 C 583.617 -1.97168 0.474633 0
M  V30 6301 C 583.95 -1.68263 -0.969604 0
M  V30 6302 O 583.225 -0.976588 -1.68205 0
M  V30 6303 C 583.508 -3.52689 0.726808 0
M  V30 6304 C 583.361 -3.91185 2.22024 0
M  V30 6305 C 584.68 -4.39689 0.190201 0
M  V30 6306 H 581.799 -0.716185 0.17392 0
M  V30 6307 H 584.441 -1.55925 1.08569 0
M  V30 6308 H 582.591 -3.8795 0.206705 0
M  V30 6309 H 584.263 -3.66049 2.80724 0
M  V30 6310 H 582.506 -3.3996 2.69462 0
M  V30 6311 H 583.177 -4.99604 2.34735 0
M  V30 6312 H 585.653 -4.11225 0.635103 0
M  V30 6313 H 584.529 -5.47469 0.396132 0
M  V30 6314 H 584.79 -4.32683 -0.907625 0
M  V30 6315 N 583.85 -0.624285 -1.44708 0
M  V30 6316 C 584.812 0.0749638 -2.29077 0
M  V30 6317 C 585.812 0.778965 -1.40673 0
M  V30 6318 O 587.003 0.624591 -1.62618 0
M  V30 6319 C 584.135 1.11663 -3.22094 0
M  V30 6320 H 585.327 -0.667013 -2.92388 0
M  V30 6321 H 582.88 -0.384098 -1.51507 0
M  V30 6322 H 583.615 1.88881 -2.63618 0
M  V30 6323 H 583.401 0.61583 -3.87234 0
M  V30 6324 H 584.891 1.60585 -3.8549 0
M  V30 6325 N 585.328 1.53329 -0.364422 0
M  V30 6326 C 586.238 2.29414 0.490552 0
M  V30 6327 C 587.254 1.35335 1.09363 0
M  V30 6328 O 588.43 1.68391 1.10483 0
M  V30 6329 C 585.495 3.06772 1.61529 0
M  V30 6330 C 584.556 4.16516 1.03986 0
M  V30 6331 C 583.789 4.90176 2.111 0
M  V30 6332 O 584.012 4.63687 3.32191 0
M  V30 6333 O 582.946 5.76134 1.74222 0
M  V30 6334 H 586.772 3.03428 -0.12856 0
M  V30 6335 H 584.357 1.48843 -0.128837 0
M  V30 6336 H 586.239 3.55082 2.26924 0
M  V30 6337 H 584.914 2.35596 2.21983 0
M  V30 6338 H 583.821 3.7246 0.349856 0
M  V30 6339 H 585.154 4.89855 0.4799 0
M  V30 6340 N 586.806 0.0935595 1.57322 0
M  V30 6341 C 588.052 -0.571355 1.94585 0
M  V30 6342 C 588.385 -1.67929 0.975366 0
M  V30 6343 O 587.66 -1.94498 0.00816206 0
M  V30 6344 C 587.943 -1.12797 3.41978 0
M  V30 6345 C 587.796 -0.0251881 4.49793 0
M  V30 6346 C 589.115 -2.02682 3.90651 0
M  V30 6347 H 586.234 -0.206223 0.70756 0
M  V30 6348 H 588.876 0.163956 1.89291 0
M  V30 6349 H 587.026 -1.75461 3.4662 0
M  V30 6350 H 588.698 0.608979 4.57263 0
M  V30 6351 H 586.941 0.641399 4.29032 0
M  V30 6352 H 587.612 -0.455433 5.50118 0
M  V30 6353 H 590.088 -1.49925 3.88152 0
M  V30 6354 H 588.964 -2.38555 4.94351 0
M  V30 6355 H 589.225 -2.94362 3.29854 0
M  V30 6356 N 588.284 -1.56567 -0.180126 0
M  V30 6357 C 589.512 -1.85618 -0.913972 0
M  V30 6358 C 589.927 -0.677892 -1.7621 0
M  V30 6359 O 589.284 0.353171 -1.7905 0
M  V30 6360 C 589.335 -3.13619 -1.79793 0
M  V30 6361 O 589.056 -4.26906 -0.98402 0
M  V30 6362 C 590.557 -3.55954 -2.64219 0
M  V30 6363 H 587.777 -0.616043 -0.265954 0
M  V30 6364 H 590.321 -2.03681 -0.182872 0
M  V30 6365 H 588.476 -2.97409 -2.48247 0
M  V30 6366 H 588.89 -4.9989 -1.58776 0
M  V30 6367 H 590.364 -4.48444 -3.21873 0
M  V30 6368 H 590.841 -2.79653 -3.38661 0
M  V30 6369 H 591.447 -3.74746 -2.01111 0
M  V30 6370 N 589.762 0.448376 -1.51087 0
M  V30 6371 C 590.987 1.22605 -1.6728 0
M  V30 6372 C 591.412 1.84524 -0.365045 0
M  V30 6373 O 590.77 1.6832 0.673642 0
M  V30 6374 C 590.818 2.29393 -2.78229 0
M  V30 6375 O 589.922 3.34608 -2.41063 0
M  V30 6376 H 589.263 0.359705 -0.558129 0
M  V30 6377 H 591.793 0.530903 -1.97592 0
M  V30 6378 H 591.803 2.74352 -3.01986 0
M  V30 6379 H 590.478 1.83701 -3.73131 0
M  V30 6380 H 589.055 2.95202 -2.27838 0
M  V30 6381 N 591.24 1.41047 0.703093 0
M  V30 6382 C 592.489 1.39301 1.4587 0
M  V30 6383 C 592.802 0.00267077 1.956 0
M  V30 6384 O 594.008 -0.137414 2.71152 0
M  V30 6385 C 592.464 2.44891 2.63735 0
M  V30 6386 C 592.072 3.89796 2.20824 0
M  V30 6387 C 593.816 2.5227 3.41409 0
M  V30 6388 C 591.723 4.86955 3.35602 0
M  V30 6389 H 590.653 0.518005 0.547893 0
M  V30 6390 H 593.304 1.66839 0.764009 0
M  V30 6391 H 591.686 2.10472 3.35436 0
M  V30 6392 H 592.86 4.33424 1.56461 0
M  V30 6393 H 591.175 3.86008 1.56163 0
M  V30 6394 H 593.772 3.22044 4.26839 0
M  V30 6395 H 594.115 1.55714 3.86081 0
M  V30 6396 H 594.648 2.85742 2.7676 0
M  V30 6397 H 591.387 5.84888 2.9595 0
M  V30 6398 H 590.907 4.47982 3.98839 0
M  V30 6399 H 592.586 5.07361 4.01489 0
M  V30 6400 N 592.718 -0.936591 1.26751 0
M  V30 6401 C 593.65 -2.03991 1.045 0
M  V30 6402 C 594.663 -1.628 0.00394261 0
M  V30 6403 O 595.852 -1.76817 0.244526 0
M  V30 6404 C 592.952 -3.34218 0.561403 0
M  V30 6405 C 592.125 -4.04151 1.67274 0
M  V30 6406 C 591.184 -5.12651 1.1864 0
M  V30 6407 O 590.21 -5.37104 1.88437 0
M  V30 6408 N 591.412 -5.80488 0.037278 0
M  V30 6409 H 594.177 -2.23644 1.99508 0
M  V30 6410 H 591.738 -1.10638 1.18198 0
M  V30 6411 H 593.73 -4.04101 0.220136 0
M  V30 6412 H 592.3 -3.11203 -0.295211 0
M  V30 6413 H 591.52 -3.28121 2.18472 0
M  V30 6414 H 592.808 -4.47626 2.41885 0
M  V30 6415 H 592.206 -5.63064 -0.545494 0
M  V30 6416 H 590.763 -6.5134 -0.244877 0
M  V30 6417 N 594.196 -1.08629 -1.14182 0
M  V30 6418 C 595.126 -0.740003 -2.21464 0
M  V30 6419 C 596.107 0.278591 -1.67803 0
M  V30 6420 O 597.292 0.148461 -1.93632 0
M  V30 6421 C 594.422 -0.150952 -3.46972 0
M  V30 6422 C 593.376 -1.09815 -4.13672 0
M  V30 6423 C 592.702 -0.3712 -5.3341 0
M  V30 6424 C 594.002 -2.43722 -4.61949 0
M  V30 6425 H 595.696 -1.63697 -2.50686 0
M  V30 6426 H 593.242 -0.788526 -1.20492 0
M  V30 6427 H 595.195 0.103325 -4.21273 0
M  V30 6428 H 593.919 0.781164 -3.1712 0
M  V30 6429 H 592.578 -1.33756 -3.41328 0
M  V30 6430 H 592.226 0.564792 -4.99819 0
M  V30 6431 H 591.926 -1.00267 -5.78982 0
M  V30 6432 H 593.45 -0.12503 -6.10472 0
M  V30 6433 H 594.864 -2.24034 -5.27714 0
M  V30 6434 H 593.261 -3.02582 -5.18232 0
M  V30 6435 H 594.331 -3.05082 -3.76899 0
M  V30 6436 N 595.674 1.31259 -0.872281 0
M  V30 6437 C 596.584 2.32221 -0.333255 0
M  V30 6438 C 597.6 1.6481 0.558013 0
M  V30 6439 O 598.776 1.96212 0.454175 0
M  V30 6440 C 595.841 3.43708 0.454479 0
M  V30 6441 C 594.902 4.26774 -0.465024 0
M  V30 6442 C 594.135 5.32937 0.28521 0
M  V30 6443 O 594.358 5.49968 1.513 0
M  V30 6444 O 593.292 6.00834 -0.358126 0
M  V30 6445 H 597.118 2.80252 -1.17016 0
M  V30 6446 H 594.703 1.352 -0.635724 0
M  V30 6447 H 596.585 4.11656 0.900963 0
M  V30 6448 H 595.26 2.97836 1.26789 0
M  V30 6449 H 594.167 3.61571 -0.960055 0
M  V30 6450 H 595.5 4.76217 -1.2441 0
M  V30 6451 N 597.152 0.631951 1.44375 0
M  V30 6452 C 598.399 0.136767 2.02038 0
M  V30 6453 C 598.727 -1.24168 1.49709 0
M  V30 6454 O 597.982 -1.83809 0.671763 0
M  V30 6455 C 598.281 0.0735861 3.57324 0
M  V30 6456 C 597.947 1.39092 4.28911 0
M  V30 6457 C 596.609 1.75171 4.48184 0
M  V30 6458 C 598.961 2.26042 4.69632 0
M  V30 6459 C 596.289 2.97907 5.05439 0
M  V30 6460 C 598.641 3.4805 5.28246 0
M  V30 6461 C 597.305 3.84351 5.45738 0
M  V30 6462 H 596.575 0.0500466 0.739308 0
M  V30 6463 H 599.222 0.818429 1.7313 0
M  V30 6464 H 597.527 -0.691449 3.8565 0
M  V30 6465 H 599.224 -0.326091 3.99672 0
M  V30 6466 H 595.814 1.10015 4.1424 0
M  V30 6467 H 599.998 1.99463 4.54454 0
M  V30 6468 H 595.254 3.26108 5.17169 0
M  V30 6469 H 599.428 4.15658 5.5875 0
M  V30 6470 H 597.055 4.79538 5.8987 0
M  V30 6471 N 598.631 -1.53133 0.372548 0
M  V30 6472 C 600.047 -1.59585 0.02178 0
M  V30 6473 C 600.247 -1.38736 -1.46132 0
M  V30 6474 O 599.303 -1.19599 -2.22379 0
M  V30 6475 C 600.616 -2.9678 0.483959 0
M  V30 6476 C 602.164 -3.09909 0.438775 0
M  V30 6477 C 602.639 -4.49527 0.876876 0
M  V30 6478 N 604.13 -4.55663 0.832214 0
M  V30 6479 C 604.865 -5.61896 1.14281 0
M  V30 6480 N 604.361 -6.75852 1.52303 0
M  V30 6481 N 606.154 -5.51916 1.06515 0
M  V30 6482 H 598.305 -1.64936 1.33827 0
M  V30 6483 H 600.568 -0.773947 0.547458 0
M  V30 6484 H 600.274 -3.17198 1.51915 0
M  V30 6485 H 600.148 -3.7699 -0.125784 0
M  V30 6486 H 602.535 -2.89197 -0.587294 0
M  V30 6487 H 602.616 -2.31691 1.0841 0
M  V30 6488 H 602.26 -4.70979 1.90109 0
M  V30 6489 H 602.19 -5.26186 0.208727 0
M  V30 6490 H 604.681 -3.73844 0.552195 0
M  V30 6491 H 604.994 -7.52862 1.7441 0
M  V30 6492 H 603.339 -6.77226 1.56175 0
M  V30 6493 H 606.53 -4.6177 0.767235 0
M  V30 6494 H 606.703 -6.34609 1.31053 0
M  V30 6495 N 600.109 -0.101901 -1.5727 0
M  V30 6496 C 601.019 0.868647 -2.17926 0
M  V30 6497 C 602.035 1.30527 -1.1506 0
M  V30 6498 O 603.211 1.37178 -1.47459 0
M  V30 6499 C 600.276 2.10727 -2.75309 0
M  V30 6500 C 599.337 1.7242 -3.93154 0
M  V30 6501 C 598.57 2.90377 -4.47791 0
M  V30 6502 O 598.793 4.05305 -4.01353 0
M  V30 6503 O 597.727 2.6845 -5.38719 0
M  V30 6504 H 601.553 0.382544 -3.01281 0
M  V30 6505 H 599.138 0.122812 -1.48894 0
M  V30 6506 H 601.02 2.83303 -3.11958 0
M  V30 6507 H 599.695 2.58376 -1.94996 0
M  V30 6508 H 598.602 0.970039 -3.61305 0
M  V30 6509 H 599.935 1.29528 -4.74851 0
M  V30 6510 N 601.587 1.56661 0.17182 0
M  V30 6511 C 602.517 1.99401 1.21498 0
M  V30 6512 C 603.498 0.869516 1.46197 0
M  V30 6513 O 604.683 1.13556 1.57539 0
M  V30 6514 C 601.813 2.35346 2.55401 0
M  V30 6515 C 600.767 3.5075 2.45272 0
M  V30 6516 C 600.093 3.72437 3.8366 0
M  V30 6517 C 601.393 4.84216 1.95787 0
M  V30 6518 H 603.087 2.86792 0.859699 0
M  V30 6519 H 600.633 1.37977 0.412103 0
M  V30 6520 H 602.586 2.63843 3.2858 0
M  V30 6521 H 601.31 1.44864 2.92715 0
M  V30 6522 H 599.969 3.2238 1.74547 0
M  V30 6523 H 599.617 2.79246 4.18367 0
M  V30 6524 H 599.317 4.50087 3.77751 0
M  V30 6525 H 600.841 4.03334 4.58426 0
M  V30 6526 H 602.255 5.11592 2.5874 0
M  V30 6527 H 600.652 5.65498 2.00827 0
M  V30 6528 H 601.722 4.76243 0.912159 0
M  V30 6529 N 603.065 -0.440357 1.51323 0
M  V30 6530 C 604.29 -1.21716 1.67928 0
M  V30 6531 C 604.715 -1.84328 0.374826 0
M  V30 6532 O 604.073 -1.68675 -0.664706 0
M  V30 6533 C 604.121 -2.27914 2.79442 0
M  V30 6534 O 603.225 -3.33325 2.42834 0
M  V30 6535 H 602.566 -0.35674 0.560029 0
M  V30 6536 H 605.096 -0.520417 1.97871 0
M  V30 6537 H 605.106 -2.72746 3.03436 0
M  V30 6538 H 603.781 -1.8172 3.741 0
M  V30 6539 H 602.358 -2.9399 2.294 0
M  V30 6540 N 604.543 -1.41418 -0.695603 0
M  V30 6541 C 605.959 -1.23887 -1.00619 0
M  V30 6542 C 606.159 -0.128206 -2.01092 0
M  V30 6543 O 605.215 0.507408 -2.47349 0
M  V30 6544 C 606.528 -2.58816 -1.53083 0
M  V30 6545 C 608.076 -2.65998 -1.64967 0
M  V30 6546 C 608.551 -4.01244 -2.20833 0
M  V30 6547 N 610.042 -4.0309 -2.28194 0
M  V30 6548 C 610.777 -5.04539 -2.72448 0
M  V30 6549 N 610.273 -6.16378 -3.16306 0
M  V30 6550 N 612.066 -4.91901 -2.72011 0
M  V30 6551 H 604.217 -2.12379 -0.0300061 0
M  V30 6552 H 606.48 -0.944958 -0.0758797 0
M  V30 6553 H 606.186 -3.40842 -0.867147 0
M  V30 6554 H 606.06 -2.81299 -2.51298 0
M  V30 6555 H 608.447 -1.84331 -2.30448 0
M  V30 6556 H 608.528 -2.47325 -0.652982 0
M  V30 6557 H 608.172 -4.83359 -1.55968 0
M  V30 6558 H 608.102 -4.17257 -3.21254 0
M  V30 6559 H 610.593 -3.22341 -1.97242 0
M  V30 6560 H 610.906 -6.89658 -3.487 0
M  V30 6561 H 609.251 -6.19914 -3.14215 0
M  V30 6562 H 612.442 -4.03613 -2.37095 0
M  V30 6563 H 612.615 -5.71102 -3.06181 0
M  V30 6564 N 606.021 0.929856 -1.27246 0
M  V30 6565 C 606.951 2.04722 -1.12299 0
M  V30 6566 C 607.932 1.70082 -0.0250464 0
M  V30 6567 O 609.117 1.93176 -0.199141 0
M  V30 6568 C 606.247 3.38721 -0.767145 0
M  V30 6569 C 605.201 3.87466 -1.81808 0
M  V30 6570 C 604.527 5.18246 -1.31626 0
M  V30 6571 C 605.827 4.11095 -3.22177 0
M  V30 6572 H 607.521 2.17485 -2.05769 0
M  V30 6573 H 605.067 1.04503 -0.990715 0
M  V30 6574 H 607.02 4.16366 -0.649413 0
M  V30 6575 H 605.744 3.25967 0.203259 0
M  V30 6576 H 604.403 3.12012 -1.92468 0
M  V30 6577 H 604.051 5.01881 -0.335378 0
M  V30 6578 H 603.751 5.51829 -2.01887 0
M  V30 6579 H 605.275 5.98462 -1.21143 0
M  V30 6580 H 606.689 4.79316 -3.1453 0
M  V30 6581 H 605.086 4.55982 -3.90129 0
M  V30 6582 H 606.156 3.16468 -3.67391 0
M  V30 6583 N 607.499 1.09233 1.13605 0
M  V30 6584 C 608.727 0.848908 1.88683 0
M  V30 6585 C 609.142 -0.599667 1.79024 0
M  V30 6586 O 608.499 -1.41265 1.15544 0
M  V30 6587 C 608.55 1.27273 3.38355 0
M  V30 6588 O 608.271 2.66449 3.47759 0
M  V30 6589 C 609.772 1.0614 4.30406 0
M  V30 6590 H 606.992 0.305549 0.597395 0
M  V30 6591 H 609.536 1.4538 1.43823 0
M  V30 6592 H 607.691 0.711776 3.80805 0
M  V30 6593 H 608.105 2.84264 4.40788 0
M  V30 6594 H 609.579 1.40725 5.33761 0
M  V30 6595 H 610.056 -0.000960332 4.392 0
M  V30 6596 H 610.662 1.60821 3.93722 0
M  V30 6597 N 608.977 -1.30795 0.87923 0
M  V30 6598 C 610.225 -1.95974 0.493809 0
M  V30 6599 C 610.546 -1.69787 -0.959021 0
M  V30 6600 O 609.816 -1.01832 -1.67353 0
M  V30 6601 H 608.396 -0.725083 0.179622 0
M  V30 6602 H 611.058 -1.59432 1.12105 0
M  V30 6603 H 610.154 -3.05058 0.659263 0
M  V30 6604 N 610.455 -0.639598 -1.44038 0
M  V30 6605 C 611.732 -0.078012 -1.95444 0
M  V30 6606 C 612.112 1.39847 -1.58133 0
M  V30 6607 O 611.46 2.11714 -0.859614 0
M  V30 6608 C 611.67 -0.309832 -3.47622 0
M  V30 6609 C 613.018 -0.207521 -4.24093 0
M  V30 6610 O 614.042 -0.241653 -3.55379 0
M  V30 6611 O 612.901 -0.119641 -5.46369 0
M  V30 6612 H 609.995 0.0174534 -0.826816 0
M  V30 6613 H 612.541 -0.711891 -1.54046 0
M  V30 6614 H 611.313 -1.33401 -3.67858 0
M  V30 6615 H 610.936 0.357777 -3.95987 0
M  V30 6616 N 611.933 1.52934 -0.380664 0
M  V30 6617 C 612.88 2.26197 0.458641 0
M  V30 6618 C 613.85 1.27462 1.06502 0
M  V30 6619 O 615.035 1.56274 1.09467 0
M  V30 6620 C 612.175 3.06571 1.58456 0
M  V30 6621 C 611.288 4.20222 1.00189 0
M  V30 6622 C 610.423 4.88007 2.09815 0
M  V30 6623 C 609.462 5.93665 1.49092 0
M  V30 6624 N 608.599 6.55081 2.52613 0
M  V30 6625 H 613.439 2.975 -0.172595 0
M  V30 6626 H 610.976 1.4678 -0.0969426 0
M  V30 6627 H 612.934 3.51455 2.24801 0
M  V30 6628 H 611.564 2.37494 2.18624 0
M  V30 6629 H 610.616 3.79714 0.228292 0
M  V30 6630 H 611.928 4.96102 0.518064 0
M  V30 6631 H 611.082 5.36151 2.83948 0
M  V30 6632 H 609.821 4.11632 2.61555 0
M  V30 6633 H 608.826 5.44868 0.7348 0
M  V30 6634 H 610.051 6.71969 0.981582 0
M  V30 6635 H 607.997 5.8155 3.03538 0
M  V30 6636 H 607.914 7.26548 2.08961 0
M  V30 6637 H 609.182 7.07871 3.26402 0
M  V30 6638 N 613.412 0.11024 1.57214 0
M  V30 6639 C 614.359 -0.843195 2.14846 0
M  V30 6640 C 615.329 -1.26954 1.07107 0
M  V30 6641 O 616.514 -1.34861 1.34971 0
M  V30 6642 C 613.654 -2.09123 2.74521 0
M  V30 6643 C 612.767 -1.71404 3.96541 0
M  V30 6644 C 611.902 -2.91107 4.44331 0
M  V30 6645 C 610.941 -2.49586 5.58903 0
M  V30 6646 N 610.078 -3.62175 6.01477 0
M  V30 6647 H 614.918 -0.344886 2.95998 0
M  V30 6648 H 612.455 -0.15855 1.46243 0
M  V30 6649 H 614.413 -2.82234 3.07246 0
M  V30 6650 H 613.043 -2.56427 1.96074 0
M  V30 6651 H 612.095 -0.88201 3.70033 0
M  V30 6652 H 613.407 -1.36884 4.7965 0
M  V30 6653 H 612.561 -3.72454 4.78919 0
M  V30 6654 H 611.3 -3.28848 3.60153 0
M  V30 6655 H 610.305 -1.6667 5.23929 0
M  V30 6656 H 611.53 -2.12973 6.4484 0
M  V30 6657 H 609.476 -3.99605 5.20242 0
M  V30 6658 H 609.393 -3.3155 6.79419 0
M  V30 6659 H 610.661 -4.43987 6.407 0
M  V30 6660 N 614.89 -1.56749 -0.16351 0
M  V30 6661 C 616.137 -1.82434 -0.878866 0
M  V30 6662 C 616.465 -0.688557 -1.81904 0
M  V30 6663 O 615.72 0.323644 -1.93005 0
M  V30 6664 C 616.019 -3.14342 -1.70071 0
M  V30 6665 C 615.685 -4.41647 -0.908775 0
M  V30 6666 C 614.347 -4.76224 -0.690236 0
M  V30 6667 C 616.699 -5.19998 -0.353815 0
M  V30 6668 C 614.027 -5.86624 0.0942374 0
M  V30 6669 C 616.379 -6.3122 0.41761 0
M  V30 6670 C 615.043 -6.64358 0.646879 0
M  V30 6671 H 614.313 -0.667574 -0.3216 0
M  V30 6672 H 616.96 -1.90963 -0.14337 0
M  V30 6673 H 615.265 -3.0119 -2.50583 0
M  V30 6674 H 616.962 -3.31426 -2.25738 0
M  V30 6675 H 613.552 -4.1453 -1.08916 0
M  V30 6676 H 617.736 -4.93673 -0.509975 0
M  V30 6677 H 612.992 -6.10751 0.281529 0
M  V30 6678 H 617.166 -6.91133 0.854849 0
M  V30 6679 H 614.793 -7.49742 1.25662 0
M  V30 6680 N 616.368 0.432326 -1.51554 0
M  V30 6681 C 617.3 1.54357 -1.6943 0
M  V30 6682 C 618.313 1.52311 -0.574897 0
M  V30 6683 O 619.502 1.56997 -0.849369 0
M  V30 6684 C 616.602 2.93273 -1.69836 0
M  V30 6685 C 615.775 3.19768 -2.98442 0
M  V30 6686 C 614.834 4.38433 -2.90969 0
M  V30 6687 O 613.86 4.36842 -3.64908 0
M  V30 6688 N 615.062 5.42276 -2.07163 0
M  V30 6689 H 617.827 1.39426 -2.65293 0
M  V30 6690 H 615.388 0.621331 -1.49503 0
M  V30 6691 H 617.38 3.70687 -1.62399 0
M  V30 6692 H 615.95 3.01777 -0.815456 0
M  V30 6693 H 615.17 2.30607 -3.19709 0
M  V30 6694 H 616.458 3.343 -3.83563 0
M  V30 6695 H 615.856 5.46407 -1.46477 0
M  V30 6696 H 614.413 6.18524 -2.05601 0
M  V30 6697 N 617.846 1.41785 0.688094 0
M  V30 6698 C 618.756 1.46596 1.83158 0
M  V30 6699 C 619.772 0.355862 1.70322 0
M  V30 6700 O 620.948 0.604737 1.92106 0
M  V30 6701 C 618.013 1.35322 3.192 0
M  V30 6702 C 617.074 2.56711 3.4409 0
M  V30 6703 C 616.307 2.45965 4.73642 0
M  V30 6704 O 616.53 1.48827 5.50642 0
M  V30 6705 O 615.464 3.35859 4.99482 0
M  V30 6706 H 619.29 2.43083 1.82056 0
M  V30 6707 H 616.875 1.23404 0.842126 0
M  V30 6708 H 618.757 1.31347 4.00407 0
M  V30 6709 H 617.432 0.419536 3.2097 0
M  V30 6710 H 616.339 2.66262 2.62784 0
M  V30 6711 H 617.672 3.48933 3.47141 0
M  V30 6712 N 619.324 -0.923095 1.27737 0
M  V30 6713 C 620.287 -2.00587 1.10894 0
M  V30 6714 C 621.287 -1.60718 0.0514927 0
M  V30 6715 O 622.477 -1.71658 0.296481 0
M  V30 6716 C 619.609 -3.33829 0.690717 0
M  V30 6717 H 620.802 -2.16959 2.07048 0
M  V30 6718 H 618.355 -1.10451 1.1059 0
M  V30 6719 H 619.09 -3.23157 -0.272 0
M  V30 6720 H 618.875 -3.64125 1.45448 0
M  V30 6721 H 620.365 -4.13336 0.595252 0
M  V30 6722 N 620.802 -1.09834 -1.13024 0
M  V30 6723 C 622.048 -0.83819 -1.84668 0
M  V30 6724 C 622.381 0.634645 -1.83537 0
M  V30 6725 O 621.656 1.46753 -1.27647 0
M  V30 6726 C 621.939 -1.37933 -3.32636 0
M  V30 6727 C 621.792 -2.91857 -3.42257 0
M  V30 6728 C 623.111 -1.01654 -4.28199 0
M  V30 6729 H 620.23 -0.30595 -0.670495 0
M  V30 6730 H 622.872 -1.36044 -1.32635 0
M  V30 6731 H 621.022 -0.935111 -3.77078 0
M  V30 6732 H 622.694 -3.44759 -3.06495 0
M  V30 6733 H 620.937 -3.28776 -2.83 0
M  V30 6734 H 621.608 -3.24799 -4.46329 0
M  V30 6735 H 624.084 -1.39973 -3.9185 0
M  V30 6736 H 622.96 -1.42217 -5.30156 0
M  V30 6737 H 623.221 0.0747794 -4.42037 0
M  V30 6738 N 622.28 1.30327 -0.886154 0
M  V30 6739 C 623.19 2.31854 -0.357866 0
M  V30 6740 C 624.206 1.65392 0.540502 0
M  V30 6741 O 625.382 1.96683 0.433339 0
M  V30 6742 C 622.447 3.44171 0.417999 0
M  V30 6743 C 621.508 4.26257 -0.510263 0
M  V30 6744 C 620.741 5.3321 0.228669 0
M  V30 6745 O 620.964 5.51542 1.45458 0
M  V30 6746 O 619.898 6.0042 -0.421832 0
M  V30 6747 H 623.724 2.78995 -1.19982 0
M  V30 6748 H 621.309 1.34518 -0.650028 0
M  V30 6749 H 623.191 4.12588 0.857251 0
M  V30 6750 H 621.866 2.99164 1.23623 0
M  V30 6751 H 620.773 3.60533 -0.99835 0
M  V30 6752 H 622.106 4.74871 -1.29454 0
M  V30 6753 N 623.758 0.647228 1.43697 0
M  V30 6754 C 624.705 -0.0480092 2.3075 0
M  V30 6755 C 625.675 -0.820705 1.44408 0
M  V30 6756 O 626.86 -0.798515 1.73287 0
M  V30 6757 C 624 -1.01259 3.2991 0
M  V30 6758 C 623.113 -0.236629 4.31351 0
M  V30 6759 C 622.248 -1.19447 5.17596 0
M  V30 6760 C 621.287 -0.408595 6.10735 0
M  V30 6761 N 620.424 -1.31772 6.89623 0
M  V30 6762 H 625.264 0.700238 2.89656 0
M  V30 6763 H 622.801 0.357082 1.427 0
M  V30 6764 H 624.759 -1.58538 3.85903 0
M  V30 6765 H 623.389 -1.72778 2.72667 0
M  V30 6766 H 622.441 0.452353 3.77701 0
M  V30 6767 H 623.753 0.374731 4.9739 0
M  V30 6768 H 622.907 -1.83809 5.78186 0
M  V30 6769 H 621.646 -1.83975 4.51669 0
M  V30 6770 H 620.651 0.24841 5.49239 0
M  V30 6771 H 621.876 0.232188 6.78703 0
M  V30 6772 H 619.822 -1.94991 6.2635 0
M  V30 6773 H 619.739 -0.760779 7.52162 0
M  V30 6774 H 621.007 -1.94967 7.54724 0
M  V30 6775 N 625.236 -1.5273 0.388769 0
M  V30 6776 C 626.482 -2.01871 -0.193877 0
M  V30 6777 C 626.815 -1.27475 -1.46505 0
M  V30 6778 O 626.09 -0.375063 -1.90849 0
M  V30 6779 C 626.373 -3.5712 -0.462336 0
M  V30 6780 C 626.226 -4.42186 0.824091 0
M  V30 6781 C 627.545 -4.21881 -1.25319 0
M  V30 6782 H 624.664 -0.733764 -0.0689899 0
M  V30 6783 H 627.306 -1.82796 0.518231 0
M  V30 6784 H 625.456 -3.73504 -1.06896 0
M  V30 6785 H 627.128 -4.37554 1.46096 0
M  V30 6786 H 625.371 -4.09219 1.43952 0
M  V30 6787 H 626.042 -5.48828 0.590905 0
M  V30 6788 H 628.518 -4.0947 -0.73981 0
M  V30 6789 H 627.394 -5.30487 -1.40977 0
M  V30 6790 H 627.655 -3.79478 -2.26824 0
M  V30 6791 N 626.714 -0.118576 -1.57153 0
M  V30 6792 C 627.942 0.54726 -1.99531 0
M  V30 6793 C 628.357 1.60251 -0.998246 0
M  V30 6794 O 627.714 1.82498 0.00893106 0
M  V30 6795 C 627.765 1.17378 -3.41913 0
M  V30 6796 O 627.486 0.160703 -4.37805 0
M  V30 6797 C 628.987 1.92297 -3.9942 0
M  V30 6798 H 626.207 0.144919 -0.655164 0
M  V30 6799 H 628.751 -0.20479 -2.03472 0
M  V30 6800 H 626.906 1.87661 -3.38913 0
M  V30 6801 H 627.32 0.61586 -5.20872 0
M  V30 6802 H 628.794 2.31462 -5.01128 0
M  V30 6803 H 629.271 2.79801 -3.38538 0
M  V30 6804 H 629.877 1.26777 -4.05965 0
M  V30 6805 N 628.193 1.56834 0.155195 0
M  V30 6806 C 629.125 1.94235 1.21677 0
M  V30 6807 C 630.138 0.83724 1.39621 0
M  V30 6808 O 631.327 1.11567 1.39338 0
M  V30 6809 C 628.427 2.19402 2.58294 0
M  V30 6810 C 627.6 3.50671 2.61436 0
M  V30 6811 C 626.659 3.64475 3.79532 0
M  V30 6812 O 625.685 4.36945 3.64784 0
M  V30 6813 N 626.887 3.00526 4.96653 0
M  V30 6814 H 629.652 2.85901 0.898932 0
M  V30 6815 H 627.213 1.58185 0.34483 0
M  V30 6816 H 629.205 2.25886 3.35794 0
M  V30 6817 H 627.775 1.34042 2.82403 0
M  V30 6818 H 626.995 3.55702 1.69912 0
M  V30 6819 H 628.283 4.3702 2.60559 0
M  V30 6820 H 627.681 2.41549 5.11538 0
M  V30 6821 H 626.238 3.12583 5.71958 0
M  V30 6822 N 629.671 -0.424282 1.51781 0
M  V30 6823 C 630.621 -1.51464 1.70419 0
M  V30 6824 C 631.605 -1.50911 0.558094 0
M  V30 6825 O 632.797 -1.57143 0.814552 0
M  V30 6826 C 629.926 -2.89539 1.84451 0
M  V30 6827 C 629.012 -2.94798 3.04886 0
M  V30 6828 N 629.403 -2.69778 4.27848 0
M  V30 6829 C 627.701 -3.25962 3.04408 0
M  V30 6830 C 628.402 -2.81216 5.09208 0
M  V30 6831 N 627.378 -3.13447 4.44131 0
M  V30 6832 H 631.18 -1.30892 2.63144 0
M  V30 6833 H 628.694 -0.631783 1.49607 0
M  V30 6834 H 630.691 -3.67998 1.95917 0
M  V30 6835 H 629.351 -3.11121 0.929168 0
M  V30 6836 H 630.362 -2.44458 4.56575 0
M  V30 6837 H 627.039 -3.53236 2.22555 0
M  V30 6838 H 628.429 -2.65715 6.17127 0
M  V30 6839 N 631.149 -1.42148 -0.680565 0
M  V30 6840 C 632.398 -1.41604 -1.43636 0
M  V30 6841 C 632.711 -0.0337887 -1.95571 0
M  V30 6842 O 633.917 0.0942588 -2.71336 0
M  V30 6843 C 632.373 -2.49056 -2.59806 0
M  V30 6844 C 631.981 -3.9326 -2.14594 0
M  V30 6845 C 633.725 -2.5767 -3.37352 0
M  V30 6846 C 631.632 -4.92232 -3.27813 0
M  V30 6847 H 630.562 -0.526656 -0.539583 0
M  V30 6848 H 633.213 -1.68033 -0.737369 0
M  V30 6849 H 631.595 -2.15782 -3.32045 0
M  V30 6850 H 632.769 -4.35858 -1.49546 0
M  V30 6851 H 631.084 -3.88443 -1.50002 0
M  V30 6852 H 633.681 -3.28794 -4.21662 0
M  V30 6853 H 634.024 -1.61837 -3.83555 0
M  V30 6854 H 634.557 -2.90109 -2.72179 0
M  V30 6855 H 631.296 -5.89522 -2.86607 0
M  V30 6856 H 630.816 -4.5427 -3.91661 0
M  V30 6857 H 632.495 -5.13684 -3.93367 0
M  V30 6858 N 632.627 0.916307 -1.28225 0
M  V30 6859 C 633.577 2.00488 -1.08574 0
M  V30 6860 C 634.561 1.60897 -0.0101874 0
M  V30 6861 O 635.753 1.75499 -0.230034 0
M  V30 6862 C 632.882 3.35076 -0.746943 0
M  V30 6863 C 631.968 3.81077 -1.86121 0
M  V30 6864 N 632.359 3.99475 -3.10247 0
M  V30 6865 C 630.657 4.10212 -1.75048 0
M  V30 6866 C 631.358 4.37965 -3.82834 0
M  V30 6867 N 630.334 4.4608 -3.10667 0
M  V30 6868 H 634.136 2.1276 -2.02757 0
M  V30 6869 H 631.65 1.10397 -1.19107 0
M  V30 6870 H 633.647 4.12743 -0.587252 0
M  V30 6871 H 632.307 3.2416 0.187146 0
M  V30 6872 H 633.318 3.85466 -3.45885 0
M  V30 6873 H 629.995 4.07947 -0.887999 0
M  V30 6874 H 631.385 4.60183 -4.89572 0
M  V30 6875 N 634.105 1.10431 1.1244 0
M  V30 6876 C 635.353 0.845045 1.83585 0
M  V30 6877 C 635.674 -0.631168 1.84503 0
M  V30 6878 O 634.944 -1.45825 1.30813 0
M  V30 6879 H 633.524 0.309628 0.679809 0
M  V30 6880 H 636.186 1.39458 1.36153 0
M  V30 6881 H 635.282 1.20786 2.8778 0
M  V30 6882 N 635.583 -1.29855 0.893053 0
M  V30 6883 C 636.513 -2.3035 0.382249 0
M  V30 6884 C 637.494 -1.61328 -0.539203 0
M  V30 6885 O 638.679 -1.88882 -0.451342 0
M  V30 6886 C 635.809 -3.45024 -0.396983 0
M  V30 6887 C 634.763 -4.258 0.433437 0
M  V30 6888 C 634.089 -5.32605 -0.472889 0
M  V30 6889 C 635.389 -4.94549 1.67984 0
M  V30 6890 H 637.083 -2.73325 1.22205 0
M  V30 6891 H 634.629 -1.314 0.589073 0
M  V30 6892 H 636.582 -4.14398 -0.765024 0
M  V30 6893 H 635.306 -3.00875 -1.2705 0
M  V30 6894 H 633.965 -3.58125 0.783723 0
M  V30 6895 H 633.613 -4.84702 -1.34435 0
M  V30 6896 H 633.313 -5.87547 0.0789958 0
M  V30 6897 H 634.837 -6.04832 -0.837269 0
M  V30 6898 H 636.251 -5.56395 1.38192 0
M  V30 6899 H 634.648 -5.59393 2.17254 0
M  V30 6900 H 635.718 -4.20215 2.41965 0
M  V30 6901 N 637.061 -0.65484 -1.43351 0
M  V30 6902 C 638.286 -0.175046 -2.0666 0
M  V30 6903 C 638.711 1.15104 -1.4877 0
M  V30 6904 O 638.069 1.71144 -0.598279 0
M  V30 6905 C 638.117 -0.0991544 -3.60464 0
M  V30 6906 O 637.221 0.938169 -4.01587 0
M  V30 6907 H 636.562 -0.0956148 -0.65708 0
M  V30 6908 H 639.092 -0.898222 -1.83829 0
M  V30 6909 H 639.102 0.083632 -4.07914 0
M  V30 6910 H 637.777 -1.06719 -4.01975 0
M  V30 6911 H 636.354 0.72804 -3.65724 0
M  V30 6912 N 638.539 1.52521 -0.396863 0
M  V30 6913 C 639.787 2.01274 0.182536 0
M  V30 6914 C 640.108 1.28485 1.46685 0
M  V30 6915 O 639.378 0.407134 1.91623 0
M  V30 6916 H 637.958 0.743671 0.0704442 0
M  V30 6917 H 640.62 1.87547 -0.530289 0
M  V30 6918 H 639.716 3.09687 0.387385 0
M  V30 6919 N 640.017 0.126909 1.57088 0
M  V30 6920 C 640.964 -0.82036 2.15728 0
M  V30 6921 C 641.934 -1.25811 1.08447 0
M  V30 6922 O 643.119 -1.33422 1.36393 0
M  V30 6923 C 640.259 -2.06199 2.76724 0
M  V30 6924 C 639.372 -1.67188 3.98337 0
M  V30 6925 C 638.507 -2.86378 4.47393 0
M  V30 6926 C 637.546 -2.43644 5.61519 0
M  V30 6927 N 636.683 -3.55775 6.05284 0
M  V30 6928 H 641.523 -0.313472 2.96347 0
M  V30 6929 H 639.06 -0.14303 1.46403 0
M  V30 6930 H 641.018 -2.78959 3.10222 0
M  V30 6931 H 639.648 -2.54333 1.98782 0
M  V30 6932 H 638.7 -0.842714 3.70948 0
M  V30 6933 H 640.012 -1.31789 4.81075 0
M  V30 6934 H 639.166 -3.67353 4.82842 0
M  V30 6935 H 637.905 -3.25009 3.63621 0
M  V30 6936 H 636.91 -1.61104 5.25667 0
M  V30 6937 H 638.135 -2.06122 6.47063 0
M  V30 6938 H 636.081 -3.94065 5.24451 0
M  V30 6939 H 635.998 -3.24325 6.82898 0
M  V30 6940 H 637.266 -4.37166 6.45373 0
M  V30 6941 N 641.495 -1.56914 -0.146875 0
M  V30 6942 C 642.442 -1.98275 -1.18134 0
M  V30 6943 C 643.412 -0.850367 -1.42681 0
M  V30 6944 O 644.597 -1.11244 -1.55014 0
M  V30 6945 C 641.737 -2.36861 -2.5098 0
M  V30 6946 C 640.85 -3.63391 -2.33605 0
M  V30 6947 C 639.985 -3.91079 -3.59486 0
M  V30 6948 C 639.024 -5.10879 -3.37149 0
M  V30 6949 N 638.161 -5.34577 -4.55161 0
M  V30 6950 H 643.001 -2.8645 -0.821622 0
M  V30 6951 H 640.538 -1.41718 -0.394248 0
M  V30 6952 H 642.496 -2.57262 -3.28439 0
M  V30 6953 H 641.126 -1.51766 -2.84898 0
M  V30 6954 H 640.178 -3.50766 -1.47199 0
M  V30 6955 H 641.49 -4.51007 -2.13059 0
M  V30 6956 H 640.644 -4.11979 -4.45374 0
M  V30 6957 H 639.383 -3.01885 -3.83036 0
M  V30 6958 H 638.388 -4.89853 -2.49649 0
M  V30 6959 H 639.613 -6.01626 -3.14997 0
M  V30 6960 H 637.559 -4.48337 -4.78884 0
M  V30 6961 H 637.476 -6.16463 -4.37618 0
M  V30 6962 H 638.744 -5.59975 -5.42263 0
M  V30 6963 N 642.974 0.416227 -1.52004 0
M  V30 6964 C 644.251 1.17637 -1.56272 0
M  V30 6965 C 644.631 2.08352 -0.339493 0
M  V30 6966 O 643.979 2.1833 0.674124 0
M  V30 6967 C 644.189 1.95986 -2.88774 0
M  V30 6968 C 645.537 2.52299 -3.41512 0
M  V30 6969 O 646.561 2.06174 -2.90467 0
M  V30 6970 O 645.42 3.3648 -4.30631 0
M  V30 6971 H 642.514 0.536726 -0.629169 0
M  V30 6972 H 645.06 0.423583 -1.64329 0
M  V30 6973 H 643.832 1.29487 -3.69254 0
M  V30 6974 H 643.455 2.78285 -2.83978 0
M  V30 6975 N 644.452 1.42507 0.673017 0
M  V30 6976 C 645.7 1.42789 1.43023 0
M  V30 6977 C 646.021 0.0459738 1.94946 0
M  V30 6978 O 645.291 -0.915765 1.73178 0
M  V30 6979 H 643.871 0.525657 0.530748 0
M  V30 6980 H 646.533 1.77944 0.795113 0
M  V30 6981 H 645.629 2.12872 2.28237 0
M  V30 6982 N 645.93 -0.909495 1.28709 0
M  V30 6983 C 646.86 -2.0291 1.15542 0
M  V30 6984 C 647.841 -1.7002 0.0521017 0
M  V30 6985 O 649.026 -1.92835 0.229849 0
M  V30 6986 C 646.156 -3.37458 0.820935 0
M  V30 6987 C 645.11 -3.84524 1.87949 0
M  V30 6988 C 644.436 -5.16086 1.39854 0
M  V30 6989 C 645.736 -4.05918 3.28676 0
M  V30 6990 H 647.43 -2.14183 2.09203 0
M  V30 6991 H 644.976 -1.02913 1.00722 0
M  V30 6992 H 646.929 -4.1528 0.715571 0
M  V30 6993 H 645.653 -3.26249 -0.151374 0
M  V30 6994 H 644.312 -3.08911 1.97408 0
M  V30 6995 H 643.96 -5.01284 0.41518 0
M  V30 6996 H 643.66 -5.48547 2.1064 0
M  V30 6997 H 645.184 -5.96459 1.30649 0
M  V30 6998 H 646.598 -4.74252 3.22115 0
M  V30 6999 H 644.995 -4.49717 3.97334 0
M  V30 7000 H 646.065 -3.10583 3.72379 0
M  V30 7001 N 647.408 -1.11026 -1.11852 0
M  V30 7002 C 648.654 -0.857729 -1.83768 0
M  V30 7003 C 648.987 0.615143 -1.842 0
M  V30 7004 O 648.262 1.45391 -1.29196 0
M  V30 7005 C 648.545 -1.41453 -3.31154 0
M  V30 7006 C 648.398 -2.95471 -3.39142 0
M  V30 7007 C 649.717 -1.0619 -4.27097 0
M  V30 7008 H 646.836 -0.313044 -0.667212 0
M  V30 7009 H 649.478 -1.37443 -1.31185 0
M  V30 7010 H 647.628 -0.975052 -3.76065 0
M  V30 7011 H 649.3 -3.4799 -3.02821 0
M  V30 7012 H 647.543 -3.31759 -2.79497 0
M  V30 7013 H 648.214 -3.29515 -4.42859 0
M  V30 7014 H 650.69 -1.44122 -3.90344 0
M  V30 7015 H 649.566 -1.47832 -5.28618 0
M  V30 7016 H 649.827 0.0278912 -4.42091 0
M  V30 7017 N 648.886 1.2938 -0.899927 0
M  V30 7018 C 650.297 1.77644 -0.574427 0
M  V30 7019 C 650.648 1.73824 0.909928 0
M  V30 7020 O 649.773 1.32429 1.71147 0
M  V30 7021 C 650.368 3.22573 -1.03595 0
M  V30 7022 C 648.927 3.68614 -0.76161 0
M  V30 7023 C 648.074 2.49483 -1.21052 0
M  V30 7024 H 651.025 1.16038 -1.08263 0
M  V30 7025 H 651.046 3.78684 -0.371337 0
M  V30 7026 H 650.558 3.25321 -2.11631 0
M  V30 7027 H 648.659 3.7134 0.306127 0
M  V30 7028 H 648.772 4.59402 -1.35965 0
M  V30 7029 H 647.136 2.46798 -0.629515 0
M  V30 7030 H 647.919 2.54959 -2.29893 0
M  V30 7031 N 650.364 0.662433 1.43002 0
M  V30 7032 C 651.297 -0.073459 2.28082 0
M  V30 7033 C 652.275 -0.820869 1.40358 0
M  V30 7034 O 653.459 -0.818545 1.698 0
M  V30 7035 C 650.586 -1.11097 3.19961 0
M  V30 7036 C 649.632 -0.460557 4.24006 0
M  V30 7037 S 650.465 0.772717 5.29896 0
M  V30 7038 C 651.621 -0.264028 6.25343 0
M  V30 7039 H 651.854 0.648227 2.90147 0
M  V30 7040 H 649.387 0.451566 1.47649 0
M  V30 7041 H 651.345 -1.70452 3.73439 0
M  V30 7042 H 650.006 -1.80503 2.57056 0
M  V30 7043 H 649.199 -1.24299 4.88432 0
M  V30 7044 H 648.801 0.0591038 3.73953 0
M  V30 7045 H 651.093 -1.12748 6.68052 0
M  V30 7046 H 652.036 0.345443 7.07257 0
M  V30 7047 H 652.444 -0.603964 5.6126 0
M  V30 7048 N 651.842 -1.52309 0.404946 0
M  V30 7049 C 653.089 -2.01767 -0.1722 0
M  V30 7050 C 653.417 -1.29075 -1.45498 0
M  V30 7051 O 652.672 -0.3843 -1.9189 0
M  V30 7052 C 652.971 -3.54284 -0.470895 0
M  V30 7053 C 652.637 -4.45079 0.722194 0
M  V30 7054 C 651.299 -4.69617 1.04946 0
M  V30 7055 C 653.651 -4.98555 1.51962 0
M  V30 7056 C 650.979 -5.44878 2.17543 0
M  V30 7057 C 653.331 -5.75049 2.63632 0
M  V30 7058 C 651.995 -5.9786 2.9685 0
M  V30 7059 H 651.265 -0.738316 -0.0630125 0
M  V30 7060 H 653.912 -1.83566 0.545506 0
M  V30 7061 H 652.217 -3.70642 -1.27012 0
M  V30 7062 H 653.914 -3.90058 -0.930346 0
M  V30 7063 H 650.504 -4.26155 0.457131 0
M  V30 7064 H 654.688 -4.79509 1.28002 0
M  V30 7065 H 649.944 -5.60762 2.43631 0
M  V30 7066 H 654.118 -6.15483 3.25813 0
M  V30 7067 H 651.745 -6.5596 3.84215 0
M  V30 7068 N 653.32 -0.135238 -1.57019 0
M  V30 7069 C 654.569 0.518694 -1.94917 0
M  V30 7070 C 654.882 1.66783 -1.0219 0
M  V30 7071 O 656.088 2.38561 -1.29619 0
M  V30 7072 C 654.544 0.974123 -3.46466 0
M  V30 7073 C 654.152 -0.147439 -4.47757 0
M  V30 7074 C 655.896 1.59851 -3.93253 0
M  V30 7075 C 653.803 0.325599 -5.90503 0
M  V30 7076 H 652.733 0.19754 -0.727663 0
M  V30 7077 H 655.384 -0.217698 -1.82204 0
M  V30 7078 H 653.766 1.76542 -3.5447 0
M  V30 7079 H 654.94 -0.924122 -4.51438 0
M  V30 7080 H 653.255 -0.679496 -4.10818 0
M  V30 7081 H 655.852 1.96385 -4.9733 0
M  V30 7082 H 656.195 2.48306 -3.3414 0
M  V30 7083 H 656.728 0.872323 -3.88118 0
M  V30 7084 H 653.467 -0.523295 -6.53408 0
M  V30 7085 H 652.987 1.06841 -5.90208 0
M  V30 7086 H 654.666 0.781498 -6.42263 0
M  V30 7087 N 654.798 1.5699 0.138552 0
M  V30 7088 C 655.746 1.99858 1.18994 0
M  V30 7089 C 656.74 0.89231 1.43994 0
M  V30 7090 O 657.946 1.0775 1.44187 0
M  V30 7091 H 654.321 0.636325 0.400743 0
M  V30 7092 H 656.292 2.87427 0.801755 0
M  V30 7093 C 655.041 2.40235 2.51361 0
M  V30 7094 H 654.364 3.24917 2.32957 0
M  V30 7095 H 655.804 2.74045 3.23535 0
M  V30 7096 C 654.263 1.25829 3.1252 0
M  V30 7097 O 654.793 0.563604 3.97727 0
M  V30 7098 N 652.999 1.02036 2.72097 0
M  V30 7099 H 652.546 1.58705 2.02905 0
M  V30 7100 H 652.504 0.256796 3.1335 0
M  V30 7101 N 656.276 -0.40816 1.52223 0
M  V30 7102 C 657.504 -1.17672 1.70179 0
M  V30 7103 C 657.919 -1.84257 0.411696 0
M  V30 7104 O 657.276 -1.7192 -0.612354 0
M  V30 7105 C 657.327 -2.23911 2.83806 0
M  V30 7106 O 657.048 -1.60044 4.0782 0
M  V30 7107 C 658.549 -3.1364 3.13281 0
M  V30 7108 H 655.769 -0.353562 0.570293 0
M  V30 7109 H 658.313 -0.480083 1.98785 0
M  V30 7110 H 656.468 -2.89242 2.57717 0
M  V30 7111 H 656.882 -2.30484 4.71145 0
M  V30 7112 H 658.356 -3.84255 3.96298 0
M  V30 7113 H 658.833 -3.76066 2.26872 0
M  V30 7114 H 659.439 -2.53977 3.41139 0
M  V30 7115 N 657.755 -1.42862 -0.66545 0
M  V30 7116 C 658.705 -1.43521 -1.7716 0
M  V30 7117 C 659.689 -0.305267 -1.57978 0
M  V30 7118 O 660.881 -0.548176 -1.68297 0
M  V30 7119 C 658.01 -1.34914 -3.15679 0
M  V30 7120 C 657.096 -2.5289 -3.40452 0
M  V30 7121 N 657.487 -3.78284 -3.3576 0
M  V30 7122 C 655.785 -2.47351 -3.71124 0
M  V30 7123 C 656.486 -4.56701 -3.60276 0
M  V30 7124 N 655.462 -3.87249 -3.81496 0
M  V30 7125 H 659.264 -2.38357 -1.7194 0
M  V30 7126 H 656.778 -1.37342 -0.866653 0
M  V30 7127 H 658.775 -1.33468 -3.94958 0
M  V30 7128 H 657.435 -0.410881 -3.2209 0
M  V30 7129 H 658.446 -4.10746 -3.15448 0
M  V30 7130 H 655.123 -1.62152 -3.84725 0
M  V30 7131 H 656.513 -5.65704 -3.6253 0
M  V30 7132 N 659.233 0.902656 -1.29189 0
M  V30 7133 C 660.458 1.69167 -1.19989 0
M  V30 7134 C 660.883 1.86607 0.236495 0
M  V30 7135 O 660.241 1.38425 1.17082 0
M  V30 7136 C 660.289 3.05532 -1.91527 0
M  V30 7137 O 659.393 3.93621 -1.2303 0
M  V30 7138 H 658.734 0.517584 -0.415936 0
M  V30 7139 H 661.264 1.12785 -1.70706 0
M  V30 7140 H 661.274 3.55693 -1.99866 0
M  V30 7141 H 659.949 2.92156 -2.96003 0
M  V30 7142 H 658.526 3.52055 -1.22928 0
M  V30 7143 N 660.711 1.11618 1.11262 0
M  V30 7144 C 661.959 0.864469 1.82678 0
M  V30 7145 C 662.28 -0.611564 1.85162 0
M  V30 7146 O 661.55 -1.44429 1.32352 0
M  V30 7147 H 660.13 0.316821 0.676486 0
M  V30 7148 H 662.792 1.40894 1.34666 0
M  V30 7149 H 661.888 1.23832 2.86482 0
M  V30 7150 N 662.189 -1.289 0.906776 0
M  V30 7151 C 663.119 -2.29932 0.406659 0
M  V30 7152 C 664.1 -1.6189 -0.522061 0
M  V30 7153 O 665.285 -1.8935 -0.431283 0
M  V30 7154 C 662.415 -3.45425 -0.360366 0
M  V30 7155 C 661.369 -4.25316 0.478574 0
M  V30 7156 C 660.695 -5.33076 -0.416373 0
M  V30 7157 C 661.995 -4.92739 1.7322 0
M  V30 7158 H 663.689 -2.72013 1.25097 0
M  V30 7159 H 661.235 -1.30768 0.602977 0
M  V30 7160 H 663.188 -4.15186 -0.721029 0
M  V30 7161 H 661.912 -3.02206 -1.23852 0
M  V30 7162 H 660.571 -3.57273 0.821662 0
M  V30 7163 H 660.219 -4.86101 -1.29287 0
M  V30 7164 H 659.919 -5.8743 0.141309 0
M  V30 7165 H 661.443 -6.05686 -0.773072 0
M  V30 7166 H 662.857 -5.54898 1.44086 0
M  V30 7167 H 661.254 -5.57057 2.23175 0
M  V30 7168 H 662.324 -4.17625 2.46408 0
M  V30 7169 N 663.667 -0.670007 -1.42649 0
M  V30 7170 C 664.914 -0.190286 -2.01604 0
M  V30 7171 C 665.242 1.20155 -1.52948 0
M  V30 7172 O 664.497 1.81964 -0.72026 0
M  V30 7173 C 664.796 -0.168298 -3.57004 0
M  V30 7174 C 664.462 -1.50415 -4.25072 0
M  V30 7175 C 663.124 -1.86992 -4.43382 0
M  V30 7176 C 665.476 -2.38414 -4.63474 0
M  V30 7177 C 662.804 -3.11203 -4.97363 0
M  V30 7178 C 665.156 -3.61933 -5.18833 0
M  V30 7179 C 663.82 -3.98685 -5.35356 0
M  V30 7180 H 663.09 -0.0696305 -0.737721 0
M  V30 7181 H 665.737 -0.864044 -1.70899 0
M  V30 7182 H 664.042 0.588958 -3.87348 0
M  V30 7183 H 665.739 0.22001 -4.00396 0
M  V30 7184 H 662.329 -1.20959 -4.11177 0
M  V30 7185 H 666.513 -2.11442 -4.49006 0
M  V30 7186 H 661.769 -3.39705 -5.08341 0
M  V30 7187 H 665.943 -4.30326 -5.47533 0
M  V30 7188 H 663.57 -4.95009 -5.76949 0
M  V30 7189 N 665.145 1.52092 -0.413018 0
M  V30 7190 C 666.373 2.06274 0.160881 0
M  V30 7191 C 666.788 1.28273 1.38533 0
M  V30 7192 O 666.145 0.33563 1.79387 0
M  V30 7193 C 666.196 3.57921 0.507443 0
M  V30 7194 O 665.917 4.32971 -0.668388 0
M  V30 7195 C 667.418 4.28533 1.13465 0
M  V30 7196 H 664.638 0.67074 0.0186759 0
M  V30 7197 H 667.182 1.95951 -0.585092 0
M  V30 7198 H 665.337 3.68238 1.20331 0
M  V30 7199 H 665.751 5.23135 -0.378169 0
M  V30 7200 H 667.225 5.35804 1.32732 0
M  V30 7201 H 667.702 3.85258 2.10886 0
M  V30 7202 H 668.308 4.22595 0.478876 0
M  V30 7203 N 666.623 0.143563 1.56945 0
M  V30 7204 C 667.573 -0.809115 2.1316 0
M  V30 7205 C 668.557 -1.21176 1.05855 0
M  V30 7206 O 669.749 -1.17875 1.3204 0
M  V30 7207 C 666.878 -2.04957 2.75405 0
M  V30 7208 C 665.964 -1.67018 3.89828 0
M  V30 7209 N 666.355 -0.998822 4.9584 0
M  V30 7210 C 664.653 -1.96313 4.00471 0
M  V30 7211 C 665.354 -0.816217 5.75945 0
M  V30 7212 N 664.33 -1.349 5.26596 0
M  V30 7213 H 668.132 -0.286919 2.92496 0
M  V30 7214 H 665.646 -0.0580948 1.62296 0
M  V30 7215 H 667.643 -2.74201 3.14037 0
M  V30 7216 H 666.303 -2.57697 1.97541 0
M  V30 7217 H 667.314 -0.659975 5.13678 0
M  V30 7218 H 663.991 -2.50927 3.33679 0
M  V30 7219 H 665.381 -0.287353 6.71285 0
M  V30 7220 N 668.101 -1.57061 -0.130224 0
M  V30 7221 C 669.031 -2.02552 -1.16168 0
M  V30 7222 C 670.012 -0.907971 -1.4384 0
M  V30 7223 O 671.197 -1.17693 -1.54473 0
M  V30 7224 C 668.327 -2.42035 -2.49071 0
M  V30 7225 C 667.281 -3.5713 -2.35886 0
M  V30 7226 C 666.607 -3.82478 -3.7365 0
M  V30 7227 C 667.907 -4.89236 -1.8288 0
M  V30 7228 H 669.601 -2.8897 -0.783359 0
M  V30 7229 H 667.147 -1.39021 -0.375376 0
M  V30 7230 H 669.1 -2.72462 -3.21469 0
M  V30 7231 H 667.824 -1.52573 -2.88771 0
M  V30 7232 H 666.483 -3.26895 -1.65938 0
M  V30 7233 H 666.131 -2.9024 -4.10816 0
M  V30 7234 H 665.831 -4.59944 -3.65685 0
M  V30 7235 H 667.355 -4.15347 -4.47571 0
M  V30 7236 H 668.769 -5.18272 -2.45085 0
M  V30 7237 H 667.166 -5.70624 -1.85763 0
M  V30 7238 H 668.236 -4.78494 -0.785571 0
M  V30 7239 N 669.579 0.400081 -1.52437 0
M  V30 7240 C 670.827 1.14392 -1.6661 0
M  V30 7241 C 671.148 1.90792 -0.402927 0
M  V30 7242 O 670.418 1.87042 0.582425 0
M  V30 7243 H 668.998 0.425275 -0.614125 0
M  V30 7244 H 671.66 0.455076 -1.89513 0
M  V30 7245 H 670.756 1.85298 -2.51139 0
M  V30 7246 N 671.057 1.43213 0.657864 0
M  V30 7247 C 672.303 1.44798 1.41991 0
M  V30 7248 C 672.636 0.070256 1.94073 0
M  V30 7249 O 671.911 -0.908177 1.71995 0
M  V30 7250 C 672.194 2.4865 2.60471 0
M  V30 7251 C 672.047 3.95679 2.13911 0
M  V30 7252 C 673.366 2.49292 3.62686 0
M  V30 7253 H 670.485 0.527244 0.514959 0
M  V30 7254 H 673.127 1.74733 0.74621 0
M  V30 7255 H 671.277 2.23254 3.17946 0
M  V30 7256 H 672.949 4.32116 1.61472 0
M  V30 7257 H 671.192 4.08733 1.45325 0
M  V30 7258 H 671.863 4.6395 2.99089 0
M  V30 7259 H 674.339 2.71917 3.14961 0
M  V30 7260 H 673.215 3.23907 4.43143 0
M  V30 7261 H 673.476 1.52502 4.14964 0
M  V30 7262 N 672.536 -0.895792 1.29666 0
M  V30 7263 C 673.783 -1.64664 1.17864 0
M  V30 7264 C 674.111 -1.92631 -0.26902 0
M  V30 7265 O 673.366 -1.53787 -1.21029 0
M  V30 7266 C 673.665 -3.00075 1.94139 0
M  V30 7267 C 673.331 -2.91702 3.43833 0
M  V30 7268 C 671.993 -2.89126 3.84656 0
M  V30 7269 C 674.345 -2.80622 4.39205 0
M  V30 7270 C 671.673 -2.73293 5.1916 0
M  V30 7271 C 674.025 -2.66329 5.73805 0
M  V30 7272 C 672.689 -2.62121 6.1388 0
M  V30 7273 H 671.959 -0.602549 0.431295 0
M  V30 7274 H 674.606 -1.04234 1.60648 0
M  V30 7275 H 672.911 -3.64394 1.43958 0
M  V30 7276 H 674.608 -3.57111 1.82408 0
M  V30 7277 H 671.198 -2.94511 3.11386 0
M  V30 7278 H 675.382 -2.81686 4.08615 0
M  V30 7279 H 670.638 -2.68443 5.49316 0
M  V30 7280 H 674.812 -2.56727 6.47352 0
M  V30 7281 H 672.439 -2.49611 7.18052 0
M  V30 7282 N 674.014 -1.12206 -1.10668 0
M  V30 7283 C 675.242 -0.898635 -1.86366 0
M  V30 7284 C 675.657 0.551991 -1.80551 0
M  V30 7285 O 675.014 1.38152 -1.19249 0
M  V30 7286 C 675.065 -1.36199 -3.34861 0
M  V30 7287 O 674.786 -2.75576 -3.40573 0
M  V30 7288 C 676.287 -1.17515 -4.2744 0
M  V30 7289 H 673.507 -0.321281 -0.589084 0
M  V30 7290 H 676.051 -1.49142 -1.39918 0
M  V30 7291 H 674.206 -0.81249 -3.78784 0
M  V30 7292 H 674.62 -2.95851 -4.33096 0
M  V30 7293 H 676.094 -1.54827 -5.29842 0
M  V30 7294 H 676.571 -0.115486 -4.39048 0
M  V30 7295 H 677.177 -1.71203 -3.89319 0
M  V30 7296 N 675.492 1.28418 -0.913599 0
M  V30 7297 C 676.422 2.29713 -0.418847 0
M  V30 7298 C 677.403 1.62165 0.513469 0
M  V30 7299 O 678.588 1.89576 0.421235 0
M  V30 7300 C 675.718 3.45612 0.342042 0
M  V30 7301 C 674.672 4.25056 -0.501123 0
M  V30 7302 C 673.998 5.3329 0.388097 0
M  V30 7303 C 675.298 4.91814 -1.75831 0
M  V30 7304 H 676.992 2.71346 -1.26538 0
M  V30 7305 H 674.538 1.30446 -0.609903 0
M  V30 7306 H 676.491 4.15562 0.699 0
M  V30 7307 H 675.215 3.02858 1.22248 0
M  V30 7308 H 673.874 3.56833 -0.840598 0
M  V30 7309 H 673.522 4.8678 1.26707 0
M  V30 7310 H 673.222 5.87347 -0.172459 0
M  V30 7311 H 674.746 6.06088 0.74094 0
M  V30 7312 H 676.16 5.54126 -1.47026 0
M  V30 7313 H 674.557 5.55866 -2.26126 0
M  V30 7314 H 675.627 4.16313 -2.4862 0
M  V30 7315 N 676.97 0.677563 1.42291 0
M  V30 7316 C 678.218 0.200578 2.01102 0
M  V30 7317 C 678.539 -1.19803 1.53858 0
M  V30 7318 O 677.809 -1.80496 0.761439 0
M  V30 7319 H 676.389 0.0711634 0.743603 0
M  V30 7320 H 679.051 0.874691 1.7417 0
M  V30 7321 H 678.147 0.204 3.11433 0
M  V30 7322 N 678.448 -1.51871 0.421078 0
M  V30 7323 C 679.411 -2.25914 -0.386712 0
M  V30 7324 C 680.411 -1.28733 -0.963555 0
M  V30 7325 O 681.601 -1.52579 -0.840556 0
M  V30 7326 C 678.733 -3.03853 -1.54551 0
M  V30 7327 H 679.926 -2.98754 0.261978 0
M  V30 7328 H 677.479 -1.5533 0.173862 0
M  V30 7329 H 678.214 -2.35392 -2.23072 0
M  V30 7330 H 677.999 -3.75215 -1.13824 0
M  V30 7331 H 679.489 -3.59984 -2.11663 0
M  V30 7332 N 679.926 -0.151884 -1.56866 0
M  V30 7333 C 681.342 0.204486 -1.58285 0
M  V30 7334 C 681.542 1.6431 -1.16639 0
M  V30 7335 O 680.598 2.37077 -0.868946 0
M  V30 7336 C 681.911 -0.0587019 -3.00643 0
M  V30 7337 C 683.459 0.00462303 -3.13 0
M  V30 7338 C 683.934 -0.231297 -4.57416 0
M  V30 7339 N 685.425 -0.178394 -4.62856 0
M  V30 7340 C 686.16 -0.335379 -5.72418 0
M  V30 7341 N 685.656 -0.550355 -6.90611 0
M  V30 7342 N 687.449 -0.272641 -5.61438 0
M  V30 7343 H 679.6 -1.09116 -1.82229 0
M  V30 7344 H 681.863 -0.432311 -0.843689 0
M  V30 7345 H 681.569 -1.05453 -3.35518 0
M  V30 7346 H 681.443 0.658508 -3.71407 0
M  V30 7347 H 683.83 0.991009 -2.77962 0
M  V30 7348 H 683.911 -0.744992 -2.44711 0
M  V30 7349 H 683.555 -1.2148 -4.93158 0
M  V30 7350 H 683.485 0.5387 -5.23837 0
M  V30 7351 H 685.976 -0.0170923 -3.77896 0
M  V30 7352 H 686.289 -0.660116 -7.69976 0
M  V30 7353 H 684.634 -0.586736 -6.92519 0
M  V30 7354 H 687.825 -0.105421 -4.67981 0
M  V30 7355 H 687.998 -0.398418 -6.46774 0
M  V30 7356 N 681.404 1.57128 0.121893 0
M  V30 7357 C 682.367 1.99197 1.13372 0
M  V30 7358 C 683.367 0.881728 1.3447 0
M  V30 7359 O 684.557 1.14783 1.31036 0
M  V30 7360 C 681.689 2.32963 2.4888 0
M  V30 7361 H 682.882 2.89788 0.772204 0
M  V30 7362 H 680.435 1.51952 0.366093 0
M  V30 7363 H 681.17 1.45243 2.89957 0
M  V30 7364 H 680.955 3.13934 2.34921 0
M  V30 7365 H 682.445 2.66261 3.21706 0
M  V30 7366 N 682.882 -0.391992 1.52647 0
M  V30 7367 C 684.159 -1.15136 1.58123 0
M  V30 7368 C 684.539 -2.07786 0.372597 0
M  V30 7369 O 683.887 -2.19374 -0.639304 0
M  V30 7370 C 684.097 -1.91367 2.91856 0
M  V30 7371 C 685.445 -2.46833 3.45483 0
M  V30 7372 O 686.469 -2.01527 2.9371 0
M  V30 7373 O 685.328 -3.29587 4.3593 0
M  V30 7374 H 682.422 -0.526649 0.637629 0
M  V30 7375 H 684.968 -0.397386 1.64982 0
M  V30 7376 H 683.74 -1.23597 3.71268 0
M  V30 7377 H 683.363 -2.73732 2.88369 0
M  V30 7378 N 684.36 -1.4356 -0.65026 0
M  V30 7379 C 685.585 -1.48995 -1.44275 0
M  V30 7380 C 686.01 -0.109954 -1.87778 0
M  V30 7381 O 685.368 0.896926 -1.57559 0
M  V30 7382 C 685.416 -2.44341 -2.65198 0
M  V30 7383 O 684.52 -1.93172 -3.6436 0
M  V30 7384 H 683.861 -0.503852 -0.432469 0
M  V30 7385 H 686.391 -1.88504 -0.795446 0
M  V30 7386 H 686.401 -2.61743 -3.12977 0
M  V30 7387 H 685.076 -3.44588 -2.32877 0
M  V30 7388 H 683.653 -1.85445 -3.23519 0
M  V30 7389 N 685.838 0.888903 -1.30139 0
M  V30 7390 C 687.068 1.67115 -1.21474 0
M  V30 7391 C 687.476 1.87852 0.225472 0
M  V30 7392 O 686.819 1.42324 1.16145 0
M  V30 7393 C 686.881 3.0713 -1.86846 0
M  V30 7394 C 686.545 3.09582 -3.36167 0
M  V30 7395 C 687.542 2.88929 -4.32222 0
M  V30 7396 C 685.227 3.31304 -3.77549 0
M  V30 7397 C 687.221 2.89949 -5.67634 0
M  V30 7398 C 684.908 3.31954 -5.13079 0
M  V30 7399 C 685.906 3.113 -6.07932 0
M  V30 7400 O 685.594 3.11758 -7.40987 0
M  V30 7401 H 685.326 0.528372 -0.421662 0
M  V30 7402 H 687.88 1.11919 -1.7223 0
M  V30 7403 H 686.11 3.63973 -1.30615 0
M  V30 7404 H 687.799 3.6749 -1.72354 0
M  V30 7405 H 688.565 2.71948 -4.01584 0
M  V30 7406 H 684.444 3.46417 -3.04165 0
M  V30 7407 H 687.988 2.73746 -6.41645 0
M  V30 7408 H 683.885 3.48469 -5.43359 0
M  V30 7409 H 684.653 3.27951 -7.49927 0
M  V30 7410 N 687.317 1.12792 1.10072 0
M  V30 7411 C 688.547 0.907189 1.85617 0
M  V30 7412 C 688.955 -0.547181 1.81115 0
M  V30 7413 O 688.298 -1.39024 1.20075 0
M  V30 7414 C 688.36 1.30872 3.34832 0
M  V30 7415 C 688.024 2.77516 3.6309 0
M  V30 7416 C 689.021 3.75696 3.59373 0
M  V30 7417 C 686.706 3.14513 3.91646 0
M  V30 7418 C 688.7 5.08888 3.83812 0
M  V30 7419 C 686.387 4.47886 4.15742 0
M  V30 7420 C 687.385 5.44882 4.11816 0
M  V30 7421 O 687.073 6.7585 4.35295 0
M  V30 7422 H 686.805 0.323855 0.593375 0
M  V30 7423 H 689.359 1.50262 1.40038 0
M  V30 7424 H 687.589 0.656518 3.81086 0
M  V30 7425 H 689.278 1.06153 3.91773 0
M  V30 7426 H 690.044 3.48458 3.37345 0
M  V30 7427 H 685.923 2.39622 3.93831 0
M  V30 7428 H 689.467 5.84586 3.80663 0
M  V30 7429 H 685.364 4.74851 4.37249 0
M  V30 7430 H 686.132 6.81853 4.52791 0
M  V30 7431 N 688.795 -1.27931 0.920396 0
M  V30 7432 C 689.705 -2.30824 0.419212 0
M  V30 7433 C 690.721 -1.66767 -0.496461 0
M  V30 7434 O 691.897 -1.97763 -0.38104 0
M  V30 7435 C 688.962 -3.45158 -0.326601 0
M  V30 7436 C 688.023 -4.24754 0.623098 0
M  V30 7437 C 687.256 -5.33629 -0.0872172 0
M  V30 7438 O 687.479 -5.55204 -1.30784 0
M  V30 7439 O 686.413 -5.99091 0.580875 0
M  V30 7440 H 690.239 -2.75716 1.27337 0
M  V30 7441 H 687.824 -1.32747 0.685465 0
M  V30 7442 H 689.706 -4.14716 -0.747559 0
M  V30 7443 H 688.381 -3.02336 -1.15648 0
M  V30 7444 H 687.288 -3.57759 1.09359 0
M  V30 7445 H 688.621 -4.71272 1.41998 0
M  V30 7446 N 690.273 -0.685099 -1.4193 0
M  V30 7447 C 691.503 -0.220052 -2.05425 0
M  V30 7448 C 691.911 1.13185 -1.51611 0
M  V30 7449 O 691.254 1.71631 -0.654875 0
M  V30 7450 C 691.316 -0.0888364 -3.5939 0
M  V30 7451 C 690.98 -1.37109 -4.35947 0
M  V30 7452 C 691.977 -2.30675 -4.65924 0
M  V30 7453 C 689.662 -1.62155 -4.75406 0
M  V30 7454 C 691.656 -3.47556 -5.34306 0
M  V30 7455 C 689.343 -2.79324 -5.43527 0
M  V30 7456 C 690.341 -3.71848 -5.72903 0
M  V30 7457 O 690.029 -4.86966 -6.39624 0
M  V30 7458 H 689.761 -0.102165 -0.668235 0
M  V30 7459 H 692.315 -0.935194 -1.82875 0
M  V30 7460 H 690.545 0.681981 -3.80639 0
M  V30 7461 H 692.234 0.337669 -4.04493 0
M  V30 7462 H 693 -2.12579 -4.3593 0
M  V30 7463 H 688.879 -0.910053 -4.51928 0
M  V30 7464 H 692.423 -4.19794 -5.57153 0
M  V30 7465 H 688.32 -2.97342 -5.72938 0
M  V30 7466 H 689.088 -4.86644 -6.58118 0
M  V30 7467 N 691.751 1.51645 -0.429126 0
M  V30 7468 C 692.681 2.30434 0.377148 0
M  V30 7469 C 693.662 1.35493 1.02838 0
M  V30 7470 O 694.847 1.6441 1.03359 0
M  V30 7471 C 691.977 3.14038 1.48315 0
M  V30 7472 C 690.931 4.1719 0.955855 0
M  V30 7473 C 690.257 4.89263 2.15698 0
M  V30 7474 C 691.557 5.223 -0.00402136 0
M  V30 7475 H 693.251 2.98085 -0.280336 0
M  V30 7476 H 690.797 1.43354 -0.136265 0
M  V30 7477 H 692.75 3.67933 2.05435 0
M  V30 7478 H 691.474 2.44193 2.16881 0
M  V30 7479 H 690.133 3.64335 0.406929 0
M  V30 7480 H 689.781 4.15929 2.82864 0
M  V30 7481 H 689.481 5.59009 1.81059 0
M  V30 7482 H 691.005 5.45978 2.73387 0
M  V30 7483 H 692.419 5.71315 0.476607 0
M  V30 7484 H 690.816 5.99525 -0.26258 0
M  V30 7485 H 691.886 4.75638 -0.943236 0
M  V30 7486 N 693.229 0.160201 1.56784 0
M  V30 7487 C 694.159 -0.770264 2.2043 0
M  V30 7488 C 695.14 -1.24736 1.15651 0
M  V30 7489 O 696.325 -1.30253 1.44041 0
M  V30 7490 C 693.455 -2.00427 2.83631 0
M  V30 7491 C 692.409 -1.66345 3.94352 0
M  V30 7492 C 691.735 -2.97119 4.4455 0
M  V30 7493 C 693.035 -0.899972 5.14488 0
M  V30 7494 H 694.729 -0.239783 2.98438 0
M  V30 7495 H 692.275 -0.113891 1.43549 0
M  V30 7496 H 694.228 -2.66012 3.26827 0
M  V30 7497 H 692.952 -2.5587 2.02973 0
M  V30 7498 H 691.611 -1.03133 3.51794 0
M  V30 7499 H 691.259 -3.5058 3.60698 0
M  V30 7500 H 690.959 -2.75073 5.19238 0
M  V30 7501 H 692.483 -3.63753 4.90425 0
M  V30 7502 H 693.897 -1.45818 5.54446 0
M  V30 7503 H 692.294 -0.778968 5.95023 0
M  V30 7504 H 693.364 0.105827 4.84785 0
M  V30 7505 N 694.707 -1.5719 -0.113559 0
M  V30 7506 C 695.654 -2.00736 -1.13901 0
M  V30 7507 C 696.624 -0.88044 -1.40846 0
M  V30 7508 O 697.809 -1.14507 -1.5262 0
M  V30 7509 C 694.949 -2.42132 -2.45899 0
M  V30 7510 C 694.062 -3.68264 -2.25844 0
M  V30 7511 C 693.197 -3.98617 -3.5111 0
M  V30 7512 C 692.236 -5.17915 -3.26236 0
M  V30 7513 N 691.373 -5.44111 -4.4372 0
M  V30 7514 H 696.213 -2.88128 -0.760677 0
M  V30 7515 H 693.75 -1.42523 -0.364099 0
M  V30 7516 H 695.708 -2.6417 -3.22908 0
M  V30 7517 H 694.338 -1.57775 -2.81615 0
M  V30 7518 H 693.39 -3.53809 -1.39726 0
M  V30 7519 H 694.702 -4.55425 -2.03444 0
M  V30 7520 H 693.856 -4.21333 -4.36536 0
M  V30 7521 H 692.595 -3.09942 -3.76546 0
M  V30 7522 H 691.6 -4.95038 -2.39202 0
M  V30 7523 H 692.825 -6.08172 -3.02165 0
M  V30 7524 H 690.771 -4.58394 -4.69266 0
M  V30 7525 H 690.688 -6.25606 -4.24444 0
M  V30 7526 H 691.956 -5.71351 -5.30263 0
M  V30 7527 N 696.185 0.383891 -1.52853 0
M  V30 7528 C 697.117 1.48889 -1.74255 0
M  V30 7529 C 698.13 1.50405 -0.623063 0
M  V30 7530 O 699.319 1.54215 -0.898887 0
M  V30 7531 C 696.419 2.87721 -1.79081 0
M  V30 7532 C 695.592 3.10111 -3.08464 0
M  V30 7533 C 694.651 4.28954 -3.0477 0
M  V30 7534 O 693.677 4.25012 -3.78621 0
M  V30 7535 N 694.879 5.35411 -2.24311 0
M  V30 7536 H 697.644 1.30915 -2.69595 0
M  V30 7537 H 695.205 0.573454 -1.51404 0
M  V30 7538 H 697.197 3.65333 -1.7411 0
M  V30 7539 H 695.767 2.99029 -0.911052 0
M  V30 7540 H 694.987 2.20319 -3.26884 0
M  V30 7541 H 696.275 3.21928 -3.94005 0
M  V30 7542 H 695.673 5.41471 -1.63787 0
M  V30 7543 H 694.23 6.1167 -2.25175 0
M  V30 7544 N 697.663 1.43903 0.642637 0
M  V30 7545 C 698.909 1.47291 1.40275 0
M  V30 7546 C 699.264 0.0996024 1.92142 0
M  V30 7547 O 698.557 -0.883423 1.70018 0
M  V30 7548 C 698.751 2.45907 2.59354 0
M  V30 7549 C 698.58 3.92691 2.19143 0
M  V30 7550 C 697.35 4.6097 2.06966 0
M  V30 7551 C 699.548 4.82231 1.78768 0
M  V30 7552 N 697.53 5.9263 1.60196 0
M  V30 7553 C 698.901 6.03246 1.43159 0
M  V30 7554 C 700.956 4.69397 1.66045 0
M  V30 7555 C 699.659 7.12851 0.961014 0
M  V30 7556 C 701.685 5.79016 1.20392 0
M  V30 7557 C 701.047 6.99164 0.857271 0
M  V30 7558 H 697.146 0.594055 0.50855 0
M  V30 7559 H 699.73 1.80153 0.738434 0
M  V30 7560 H 697.901 2.15054 3.23429 0
M  V30 7561 H 699.633 2.39665 3.26102 0
M  V30 7562 H 696.388 4.15622 2.27058 0
M  V30 7563 H 696.812 6.62547 1.39143 0
M  V30 7564 H 701.454 3.76954 1.91482 0
M  V30 7565 H 699.172 8.05113 0.694148 0
M  V30 7566 H 702.758 5.71109 1.11023 0
M  V30 7567 H 701.638 7.82544 0.509408 0
M  V30 7568 N 699.141 -0.881989 1.30609 0
M  V30 7569 C 700.39 -1.62878 1.18969 0
M  V30 7570 C 700.703 -1.93946 -0.253859 0
M  V30 7571 O 701.909 -2.67008 -0.491813 0
M  V30 7572 C 700.365 -2.93573 2.0819 0
M  V30 7573 C 699.973 -2.70034 3.57471 0
M  V30 7574 C 701.717 -3.71543 2.0532 0
M  V30 7575 C 699.624 -3.96563 4.38739 0
M  V30 7576 H 698.554 -0.611092 0.441682 0
M  V30 7577 H 701.205 -0.976201 1.55379 0
M  V30 7578 H 699.587 -3.6014 1.64666 0
M  V30 7579 H 700.761 -2.11949 4.09163 0
M  V30 7580 H 699.076 -2.05435 3.62195 0
M  V30 7581 H 701.673 -4.65386 2.63288 0
M  V30 7582 H 702.016 -4.03167 1.03739 0
M  V30 7583 H 702.549 -3.11842 2.46981 0
M  V30 7584 H 699.288 -3.70095 5.41027 0
M  V30 7585 H 698.808 -4.54142 3.9181 0
M  V30 7586 H 700.487 -4.64557 4.50329 0
M  V30 7587 N 700.619 -1.13374 -1.09472 0
M  V30 7588 C 701.551 -0.768466 -2.15933 0
M  V30 7589 C 702.564 0.209585 -1.61445 0
M  V30 7590 O 703.753 -0.010539 -1.78497 0
M  V30 7591 C 700.853 -0.118266 -3.38694 0
M  V30 7592 C 700.026 -1.12829 -4.22597 0
M  V30 7593 C 699.085 -0.503875 -5.23782 0
M  V30 7594 O 698.111 -1.16374 -5.57177 0
M  V30 7595 N 699.313 0.724288 -5.75964 0
M  V30 7596 H 702.078 -1.68457 -2.47876 0
M  V30 7597 H 699.639 -1.02668 -1.25183 0
M  V30 7598 H 701.631 0.311698 -4.03498 0
M  V30 7599 H 700.201 0.700769 -3.04644 0
M  V30 7600 H 699.421 -1.73556 -3.53938 0
M  V30 7601 H 700.709 -1.81095 -4.75481 0
M  V30 7602 H 700.107 1.27918 -5.51048 0
M  V30 7603 H 698.664 1.09692 -6.42504 0
M  V30 7604 N 702.098 1.27442 -0.927168 0
M  V30 7605 C 703.346 1.94007 -0.566203 0
M  V30 7606 C 703.667 1.7323 0.895345 0
M  V30 7607 O 702.937 1.07973 1.63459 0
M  V30 7608 H 701.517 0.717917 -0.206409 0
M  V30 7609 H 704.179 1.55161 -1.17945 0
M  V30 7610 H 703.275 3.02401 -0.772028 0
M  V30 7611 N 703.576 0.692616 1.41565 0
M  V30 7612 C 704.824 0.221896 2.00878 0
M  V30 7613 C 705.145 -1.18164 1.5512 0
M  V30 7614 O 704.415 -1.79679 0.78054 0
M  V30 7615 H 702.995 0.0790463 0.742806 0
M  V30 7616 H 705.657 0.893115 1.73232 0
M  V30 7617 H 704.753 0.23702 3.11199 0
M  V30 7618 N 705.054 -1.51416 0.437162 0
M  V30 7619 C 706.001 -2.27743 -0.374374 0
M  V30 7620 C 706.971 -1.31327 -1.01698 0
M  V30 7621 O 708.156 -1.60229 -1.03592 0
M  V30 7622 C 705.296 -3.12241 -1.46969 0
M  V30 7623 C 704.409 -4.23651 -0.845236 0
M  V30 7624 C 703.544 -4.95458 -1.91559 0
M  V30 7625 C 702.583 -5.98789 -1.26956 0
M  V30 7626 N 701.72 -6.64005 -2.28126 0
M  V30 7627 H 706.56 -2.96654 0.282892 0
M  V30 7628 H 704.097 -1.46319 0.151352 0
M  V30 7629 H 706.055 -3.59556 -2.11602 0
M  V30 7630 H 704.685 -2.45445 -2.09659 0
M  V30 7631 H 703.737 -3.803 -0.0872059 0
M  V30 7632 H 705.049 -4.97683 -0.333582 0
M  V30 7633 H 704.203 -5.46321 -2.63854 0
M  V30 7634 H 702.942 -4.21055 -2.46097 0
M  V30 7635 H 701.947 -5.47219 -0.53207 0
M  V30 7636 H 703.172 -6.75149 -0.731509 0
M  V30 7637 H 701.118 -5.92415 -2.81745 0
M  V30 7638 H 701.035 -7.33802 -1.81852 0
M  V30 7639 H 702.303 -7.19498 -2.99905 0
M  V30 7640 N 706.532 -0.168513 -1.56696 0
M  V30 7641 C 707.464 0.794249 -2.14998 0
M  V30 7642 C 708.477 1.1957 -1.10485 0
M  V30 7643 O 709.666 1.13604 -1.37682 0
M  V30 7644 C 706.766 2.08018 -2.67547 0
M  V30 7645 C 705.939 1.84274 -3.96689 0
M  V30 7646 C 704.998 2.97059 -4.3433 0
M  V30 7647 O 704.024 2.67815 -5.02259 0
M  V30 7648 N 705.226 4.24775 -3.9566 0
M  V30 7649 H 707.991 0.295832 -2.98236 0
M  V30 7650 H 705.552 0.0143611 -1.61894 0
M  V30 7651 H 707.544 2.82559 -2.89729 0
M  V30 7652 H 706.114 2.49059 -1.88914 0
M  V30 7653 H 705.334 0.936528 -3.82914 0
M  V30 7654 H 706.622 1.65773 -4.81037 0
M  V30 7655 H 706.02 4.51395 -3.40968 0
M  V30 7656 H 704.577 4.96027 -4.22848 0
M  V30 7657 N 708.01 1.57248 0.105221 0
M  V30 7658 C 708.92 2.04653 1.14693 0
M  V30 7659 C 709.936 0.969488 1.44489 0
M  V30 7660 O 711.112 1.28196 1.55331 0
M  V30 7661 C 708.177 2.45297 2.45011 0
M  V30 7662 C 707.238 3.67148 2.22489 0
M  V30 7663 C 706.471 4.05844 3.46592 0
M  V30 7664 O 706.694 3.44736 4.54437 0
M  V30 7665 O 705.628 4.98862 3.36779 0
M  V30 7666 H 709.454 2.93663 0.774336 0
M  V30 7667 H 707.039 1.45998 0.31701 0
M  V30 7668 H 708.921 2.72112 3.21766 0
M  V30 7669 H 707.596 1.59429 2.81717 0
M  V30 7670 H 706.503 3.45463 1.43547 0
M  V30 7671 H 707.836 4.53764 1.9068 0
M  V30 7672 N 709.488 -0.375779 1.53054 0
M  V30 7673 C 710.716 -1.14036 1.72637 0
M  V30 7674 C 711.131 -1.83342 0.450687 0
M  V30 7675 O 710.488 -1.7318 -0.575749 0
M  V30 7676 C 710.539 -2.17841 2.88492 0
M  V30 7677 O 710.26 -1.51358 4.11123 0
M  V30 7678 C 711.761 -3.06924 3.19863 0
M  V30 7679 H 708.981 -0.341386 0.577665 0
M  V30 7680 H 711.525 -0.437809 1.99759 0
M  V30 7681 H 709.68 -2.8371 2.63794 0
M  V30 7682 H 710.094 -2.20439 4.75928 0
M  V30 7683 H 711.568 -3.75763 4.04359 0
M  V30 7684 H 712.045 -3.71169 2.34798 0
M  V30 7685 H 712.651 -2.46684 3.46449 0
M  V30 7686 N 710.966 -1.44241 -0.634997 0
M  V30 7687 C 711.898 -1.46793 -1.76024 0
M  V30 7688 C 712.911 -0.361781 -1.58729 0
M  V30 7689 O 714.1 -0.627297 -1.67114 0
M  V30 7690 C 711.2 -1.28248 -3.13697 0
M  V30 7691 C 710.373 -2.52038 -3.57485 0
M  V30 7692 C 709.432 -2.2845 -4.74022 0
M  V30 7693 O 708.458 -3.01915 -4.82531 0
M  V30 7694 N 709.66 -1.31264 -5.65464 0
M  V30 7695 H 712.425 -2.43797 -1.74307 0
M  V30 7696 H 709.986 -1.39631 -0.819438 0
M  V30 7697 H 711.978 -1.10321 -3.89373 0
M  V30 7698 H 710.548 -0.39623 -3.10079 0
M  V30 7699 H 709.768 -2.85268 -2.72059 0
M  V30 7700 H 711.056 -3.34382 -3.83492 0
M  V30 7701 H 710.454 -0.705817 -5.6128 0
M  V30 7702 H 709.011 -1.19316 -6.40786 0
M  V30 7703 N 712.444 0.87505 -1.31075 0
M  V30 7704 C 713.374 1.99775 -1.20881 0
M  V30 7705 C 714.355 1.69822 -0.0971612 0
M  V30 7706 O 715.54 1.92158 -0.280895 0
M  V30 7707 C 712.67 3.35163 -0.910118 0
M  V30 7708 C 711.624 3.79406 -1.98078 0
M  V30 7709 C 710.95 5.12197 -1.53488 0
M  V30 7710 C 712.25 3.97061 -3.39323 0
M  V30 7711 H 713.944 2.08562 -2.14808 0
M  V30 7712 H 711.49 1.00207 -1.03415 0
M  V30 7713 H 713.443 4.13237 -0.825423 0
M  V30 7714 H 712.167 3.26536 0.064822 0
M  V30 7715 H 710.826 3.03568 -2.05528 0
M  V30 7716 H 710.474 5.00007 -0.547941 0
M  V30 7717 H 710.174 5.4277 -2.2511 0
M  V30 7718 H 711.698 5.92785 -1.46417 0
M  V30 7719 H 713.112 4.65545 -3.34576 0
M  V30 7720 H 711.509 4.39025 -4.09118 0
M  V30 7721 H 712.579 3.00601 -3.80483 0
M  V30 7722 N 713.922 1.13953 1.08869 0
M  V30 7723 C 714.852 0.844824 2.17681 0
M  V30 7724 C 715.833 -0.198213 1.68941 0
M  V30 7725 O 717.018 -0.0559073 1.9412 0
M  V30 7726 C 714.148 0.316325 3.45856 0
M  V30 7727 C 713.102 1.29426 4.07962 0
M  V30 7728 C 712.428 0.625275 5.31031 0
M  V30 7729 C 713.728 2.65484 4.49795 0
M  V30 7730 H 715.422 1.75471 2.42591 0
M  V30 7731 H 712.968 0.845116 1.16592 0
M  V30 7732 H 714.921 0.0977876 4.21287 0
M  V30 7733 H 713.645 -0.628972 3.20486 0
M  V30 7734 H 712.304 1.49889 3.34558 0
M  V30 7735 H 711.952 -0.325678 5.01945 0
M  V30 7736 H 711.652 1.27777 5.73539 0
M  V30 7737 H 713.176 0.416152 6.0918 0
M  V30 7738 H 714.59 2.48957 5.16424 0
M  V30 7739 H 712.987 3.26963 5.03205 0
M  V30 7740 H 714.057 3.22717 3.61914 0
M  V30 7741 N 715.4 -1.26948 0.933913 0
M  V30 7742 C 716.31 -2.30366 0.443671 0
M  V30 7743 C 717.326 -1.67284 -0.478745 0
M  V30 7744 O 718.502 -1.98156 -0.360043 0
M  V30 7745 C 715.567 -3.45485 -0.289974 0
M  V30 7746 C 714.628 -4.24069 0.668114 0
M  V30 7747 C 713.861 -5.33691 -0.0306138 0
M  V30 7748 O 714.084 -5.5656 -1.24888 0
M  V30 7749 O 713.018 -5.98441 0.644384 0
M  V30 7750 H 716.844 -2.74349 1.30254 0
M  V30 7751 H 714.429 -1.32012 0.699506 0
M  V30 7752 H 716.311 -4.15486 -0.70353 0
M  V30 7753 H 714.986 -3.03546 -1.12435 0
M  V30 7754 H 713.893 -3.56579 1.13147 0
M  V30 7755 H 715.226 -4.69739 1.46989 0
M  V30 7756 N 716.879 -0.700114 -1.41195 0
M  V30 7757 C 718.156 -0.160836 -1.94938 0
M  V30 7758 C 718.536 1.33014 -1.63922 0
M  V30 7759 O 717.884 2.07878 -0.948636 0
M  V30 7760 C 718.094 -0.456991 -3.45995 0
M  V30 7761 C 719.442 -0.387207 -4.22831 0
M  V30 7762 O 720.466 -0.392164 -3.54035 0
M  V30 7763 O 719.325 -0.351267 -5.4537 0
M  V30 7764 H 716.419 -0.0176304 -0.826812 0
M  V30 7765 H 718.965 -0.776586 -1.50888 0
M  V30 7766 H 717.737 -1.48884 -3.61869 0
M  V30 7767 H 717.36 0.189503 -3.97148 0
M  V30 7768 N 718.357 1.51182 -0.445186 0
M  V30 7769 C 719.587 2.06269 0.116922 0
M  V30 7770 C 719.995 1.31188 1.36332 0
M  V30 7771 O 719.338 0.367067 1.79995 0
M  V30 7772 C 719.4 3.56051 0.496757 0
M  V30 7773 C 719.064 4.52441 -0.64394 0
M  V30 7774 C 720.061 4.97233 -1.5184 0
M  V30 7775 C 717.746 4.95447 -0.826905 0
M  V30 7776 C 719.74 5.83712 -2.56046 0
M  V30 7777 C 717.427 5.81714 -1.87222 0
M  V30 7778 C 718.425 6.25745 -2.73738 0
M  V30 7779 O 718.113 7.10298 -3.76474 0
M  V30 7780 H 717.845 0.675954 0.00785733 0
M  V30 7781 H 720.399 1.95648 -0.625371 0
M  V30 7782 H 718.629 3.64483 1.29187 0
M  V30 7783 H 720.318 3.93618 0.990928 0
M  V30 7784 H 721.084 4.64696 -1.38862 0
M  V30 7785 H 716.963 4.60712 -0.163052 0
M  V30 7786 H 720.507 6.18 -3.23607 0
M  V30 7787 H 716.404 6.13664 -2.00218 0
M  V30 7788 H 717.172 7.28493 -3.73149 0
M  V30 7789 N 719.835 0.176821 1.56605 0
M  V30 7790 C 721.081 -0.467406 1.9734 0
M  V30 7791 C 721.414 -1.62523 1.06301 0
M  V30 7792 O 720.689 -1.94182 0.11125 0
M  V30 7793 C 720.972 -0.945106 3.47476 0
M  V30 7794 C 720.825 0.213273 4.49294 0
M  V30 7795 C 722.144 -1.8169 4.00845 0
M  V30 7796 H 719.263 -0.168426 0.717497 0
M  V30 7797 H 721.905 0.264065 1.88156 0
M  V30 7798 H 720.055 -1.56841 3.55434 0
M  V30 7799 H 721.727 0.850508 4.53392 0
M  V30 7800 H 719.97 0.867918 4.25029 0
M  V30 7801 H 720.641 -0.163187 5.51759 0
M  V30 7802 H 723.117 -1.29139 3.95553 0
M  V30 7803 H 721.993 -2.12015 5.06301 0
M  V30 7804 H 722.254 -2.76463 3.44994 0
M  V30 7805 N 721.313 -1.57302 -0.09688 0
M  V30 7806 C 722.223 -2.05258 -1.13606 0
M  V30 7807 C 723.239 -0.977137 -1.43972 0
M  V30 7808 O 724.415 -1.29018 -1.54649 0
M  V30 7809 C 721.48 -2.46593 -2.43706 0
M  V30 7810 C 720.541 -3.68322 -2.20538 0
M  V30 7811 C 719.774 -4.07676 -3.44435 0
M  V30 7812 O 719.997 -3.47141 -4.52603 0
M  V30 7813 O 718.931 -5.00641 -3.34129 0
M  V30 7814 H 722.757 -2.94069 -0.758752 0
M  V30 7815 H 720.342 -1.46164 -0.309263 0
M  V30 7816 H 722.224 -2.73814 -3.20318 0
M  V30 7817 H 720.899 -1.6092 -2.80867 0
M  V30 7818 H 719.806 -3.4622 -1.41713 0
M  V30 7819 H 721.139 -4.54769 -1.88271 0
M  V30 7820 N 722.791 0.367657 -1.53252 0
M  V30 7821 C 723.754 1.43308 -1.78873 0
M  V30 7822 C 724.754 1.46671 -0.659115 0
M  V30 7823 O 725.944 1.47468 -0.927306 0
M  V30 7824 C 723.076 2.82442 -1.90892 0
M  V30 7825 H 724.269 1.21864 -2.74024 0
M  V30 7826 H 721.822 0.600668 -1.44297 0
M  V30 7827 H 722.557 3.09202 -0.978 0
M  V30 7828 H 722.342 2.81399 -2.73051 0
M  V30 7829 H 723.832 3.59601 -2.12314 0
M  V30 7830 N 724.269 1.44576 0.627338 0
M  V30 7831 C 725.518 1.46837 1.38281 0
M  V30 7832 C 725.831 0.10635 1.95311 0
M  V30 7833 O 727.037 0.00651084 2.71499 0
M  V30 7834 C 725.493 2.58527 2.50384 0
M  V30 7835 C 725.101 4.00953 1.99851 0
M  V30 7836 C 726.845 2.70013 3.27557 0
M  V30 7837 C 724.752 5.0406 3.09318 0
M  V30 7838 H 723.682 0.546319 0.519664 0
M  V30 7839 H 726.333 1.70654 0.674497 0
M  V30 7840 H 724.715 2.27957 3.23808 0
M  V30 7841 H 725.889 4.41108 1.33267 0
M  V30 7842 H 724.204 3.93743 1.35482 0
M  V30 7843 H 726.801 3.44217 4.09168 0
M  V30 7844 H 727.144 1.75961 3.77284 0
M  V30 7845 H 727.677 3.00011 2.61224 0
M  V30 7846 H 724.416 5.99753 2.6453 0
M  V30 7847 H 723.936 4.68493 3.74532 0
M  V30 7848 H 725.615 5.2793 3.74031 0
M  V30 7849 N 725.747 -0.868086 1.31537 0
M  V30 7850 C 726.657 -2.00801 1.21311 0
M  V30 7851 C 727.673 -1.73518 0.129431 0
M  V30 7852 O 728.849 -1.98378 0.347588 0
M  V30 7853 C 725.914 -3.3419 0.922935 0
M  V30 7854 C 724.975 -3.74783 2.0937 0
M  V30 7855 C 724.208 -5.01807 1.81728 0
M  V30 7856 O 724.431 -5.65404 0.753313 0
M  V30 7857 O 723.365 -5.39213 2.67457 0
M  V30 7858 H 727.191 -2.12361 2.17109 0
M  V30 7859 H 724.776 -0.996684 1.11295 0
M  V30 7860 H 726.658 -4.14174 0.777033 0
M  V30 7861 H 725.333 -3.237 -0.00500301 0
M  V30 7862 H 724.24 -2.95432 2.29501 0
M  V30 7863 H 725.573 -3.89902 3.00396 0
M  V30 7864 N 727.225 -1.14528 -1.08264 0
M  V30 7865 C 728.473 -0.912599 -1.80322 0
M  V30 7866 C 728.794 0.562256 -1.86718 0
M  V30 7867 O 728.064 1.40869 -1.36135 0
M  V30 7868 H 726.644 -0.334645 -0.667849 0
M  V30 7869 H 729.306 -1.44415 -1.30883 0
M  V30 7870 H 728.402 -1.31384 -2.83098 0
M  V30 7871 N 728.703 1.26451 -0.940633 0
M  V30 7872 C 729.949 1.94065 -0.58878 0
M  V30 7873 C 730.282 1.7363 0.869853 0
M  V30 7874 O 729.557 1.073 1.62225 0
M  V30 7875 C 729.84 3.47852 -0.931199 0
M  V30 7876 C 729.693 3.77575 -2.44453 0
M  V30 7877 C 731.012 4.37832 -0.446229 0
M  V30 7878 H 728.131 0.704827 -0.21538 0
M  V30 7879 H 730.773 1.4933 -1.17475 0
M  V30 7880 H 728.923 3.86085 -0.432539 0
M  V30 7881 H 730.595 3.49059 -3.01588 0
M  V30 7882 H 728.838 3.23671 -2.88825 0
M  V30 7883 H 729.509 4.85068 -2.63464 0
M  V30 7884 H 731.985 4.06822 -0.873778 0
M  V30 7885 H 730.861 5.44228 -0.714648 0
M  V30 7886 H 731.122 4.37239 0.653815 0
M  V30 7887 N 730.181 0.707592 1.40822 0
M  V30 7888 C 731.597 0.38034 1.55002 0
M  V30 7889 C 731.797 -1.11163 1.68062 0
M  V30 7890 O 730.853 -1.89761 1.66574 0
M  V30 7891 C 732.166 1.1394 2.78277 0
M  V30 7892 C 733.714 1.12492 2.92087 0
M  V30 7893 C 734.189 1.86597 4.18265 0
M  V30 7894 N 735.68 1.83626 4.25248 0
M  V30 7895 C 736.415 2.37794 5.21768 0
M  V30 7896 N 735.911 3.00485 6.24244 0
M  V30 7897 N 737.704 2.27982 5.13791 0
M  V30 7898 H 729.855 1.67511 1.3059 0
M  V30 7899 H 732.118 0.707579 0.630901 0
M  V30 7900 H 731.824 2.19398 2.74877 0
M  V30 7901 H 731.698 0.725793 3.70151 0
M  V30 7902 H 734.085 0.0785564 2.94995 0
M  V30 7903 H 734.166 1.57768 2.01353 0
M  V30 7904 H 733.81 2.91219 4.16118 0
M  V30 7905 H 733.74 1.38746 5.07993 0
M  V30 7906 H 736.231 1.3793 3.51829 0
M  V30 7907 H 736.544 3.39355 6.94304 0
M  V30 7908 H 734.889 3.04567 6.24711 0
M  V30 7909 H 738.08 1.78669 4.3266 0
M  V30 7910 H 738.253 2.70499 5.88841 0
M  V30 7911 N 731.66 -1.50943 0.453197 0
M  V30 7912 C 732.888 -2.06628 -0.106135 0
M  V30 7913 C 733.303 -1.31901 -1.35084 0
M  V30 7914 O 732.66 -0.383074 -1.78434 0
M  V30 7915 C 732.711 -3.5914 -0.412368 0
M  V30 7916 O 732.432 -4.31047 0.782948 0
M  V30 7917 C 733.933 -4.31391 -1.02064 0
M  V30 7918 H 731.153 -0.670999 -0.000885896 0
M  V30 7919 H 733.697 -1.94331 0.63684 0
M  V30 7920 H 731.852 -3.71299 -1.10526 0
M  V30 7921 H 732.266 -5.21948 0.516736 0
M  V30 7922 H 733.74 -5.39135 -1.1848 0
M  V30 7923 H 734.217 -3.90714 -2.00598 0
M  V30 7924 H 734.823 -4.23716 -0.366664 0
M  V30 7925 N 733.138 -0.185124 -1.56509 0
M  V30 7926 C 734.088 0.752315 -2.15231 0
M  V30 7927 C 735.072 1.18327 -1.0903 0
M  V30 7928 O 736.264 1.14333 -1.35119 0
M  V30 7929 C 733.393 1.97583 -2.80742 0
M  V30 7930 C 732.479 1.56623 -3.94119 0
M  V30 7931 N 732.87 0.867008 -4.98314 0
M  V30 7932 C 731.168 1.85626 -4.05535 0
M  V30 7933 C 731.869 0.663228 -5.77907 0
M  V30 7934 N 730.845 1.20891 -5.29987 0
M  V30 7935 H 734.647 0.209267 -2.93154 0
M  V30 7936 H 732.161 0.0150444 -1.62393 0
M  V30 7937 H 734.158 2.65779 -3.21197 0
M  V30 7938 H 732.818 2.52369 -2.04303 0
M  V30 7939 H 733.829 0.52355 -5.15247 0
M  V30 7940 H 730.506 2.41992 -3.40215 0
M  V30 7941 H 731.896 0.109273 -6.71811 0
M  V30 7942 N 734.616 1.57351 0.0885366 0
M  V30 7943 C 735.546 2.05561 1.10757 0
M  V30 7944 C 736.527 0.945789 1.41382 0
M  V30 7945 O 737.712 1.21747 1.51299 0
M  V30 7946 C 734.842 2.48554 2.42566 0
M  V30 7947 C 733.796 3.63259 2.26334 0
M  V30 7948 C 733.122 3.9225 3.63378 0
M  V30 7949 C 734.422 4.93913 1.69844 0
M  V30 7950 H 736.116 2.90946 0.706468 0
M  V30 7951 H 733.662 1.39968 0.338385 0
M  V30 7952 H 735.615 2.8089 3.14132 0
M  V30 7953 H 734.339 1.60176 2.84625 0
M  V30 7954 H 732.998 3.31179 1.57213 0
M  V30 7955 H 732.646 3.0103 4.02976 0
M  V30 7956 H 732.346 4.69478 3.53362 0
M  V30 7957 H 733.87 4.27067 4.36401 0
M  V30 7958 H 735.284 5.24588 2.31258 0
M  V30 7959 H 733.681 5.75349 1.70569 0
M  V30 7960 H 734.751 4.80409 0.65843 0
M  V30 7961 N 736.094 -0.359525 1.53444 0
M  V30 7962 C 737.024 -1.44662 1.8329 0
M  V30 7963 C 738.005 -1.55617 0.68683 0
M  V30 7964 O 739.19 -1.70086 0.93725 0
M  V30 7965 C 736.32 -2.81923 2.02822 0
M  V30 7966 C 735.274 -2.85787 3.18606 0
M  V30 7967 C 734.6 -4.25781 3.23442 0
M  V30 7968 C 735.9 -2.52762 4.57065 0
M  V30 7969 H 737.594 -1.19934 2.74329 0
M  V30 7970 H 735.14 -0.575517 1.31999 0
M  V30 7971 H 737.093 -3.58005 2.22285 0
M  V30 7972 H 735.817 -3.08051 1.085 0
M  V30 7973 H 734.476 -2.12157 2.98973 0
M  V30 7974 H 734.124 -4.48994 2.26745 0
M  V30 7975 H 733.824 -4.29281 4.01238 0
M  V30 7976 H 735.348 -5.03727 3.45096 0
M  V30 7977 H 736.762 -3.18557 4.76649 0
M  V30 7978 H 735.159 -2.67569 5.37147 0
M  V30 7979 H 736.229 -1.47993 4.61764 0
M  V30 7980 N 737.572 -1.44907 -0.619662 0
M  V30 7981 C 738.988 -1.29046 -0.939107 0
M  V30 7982 C 739.188 -0.23462 -2.00129 0
M  V30 7983 O 738.244 0.37558 -2.49691 0
M  V30 7984 C 739.557 -2.66567 -1.39149 0
M  V30 7985 C 741.105 -2.74368 -1.50635 0
M  V30 7986 C 741.58 -4.12386 -1.99253 0
M  V30 7987 N 743.071 -4.1462 -2.06506 0
M  V30 7988 C 743.806 -5.18272 -2.4532 0
M  V30 7989 N 743.302 -6.32278 -2.83189 0
M  V30 7990 N 745.095 -5.05628 -2.45554 0
M  V30 7991 H 737.246 -2.12239 0.0826135 0
M  V30 7992 H 739.509 -0.947652 -0.0256829 0
M  V30 7993 H 739.215 -3.4496 -0.685254 0
M  V30 7994 H 739.089 -2.94224 -2.36034 0
M  V30 7995 H 741.476 -1.96287 -2.20353 0
M  V30 7996 H 741.557 -2.50439 -0.520963 0
M  V30 7997 H 741.201 -4.90947 -1.30127 0
M  V30 7998 H 741.131 -4.33699 -2.98684 0
M  V30 7999 H 743.622 -3.32343 -1.79878 0
M  V30 8000 H 743.935 -7.07172 -3.11652 0
M  V30 8001 H 742.28 -6.35699 -2.80913 0
M  V30 8002 H 745.471 -4.15613 -2.15367 0
M  V30 8003 H 745.644 -5.86529 -2.75478 0
M  V30 8004 N 739.05 0.861098 -1.31996 0
M  V30 8005 C 740 1.95703 -1.1698 0
M  V30 8006 C 740.984 1.60709 -0.0784201 0
M  V30 8007 O 742.176 1.74365 -0.304262 0
M  V30 8008 C 739.305 3.31606 -0.888388 0
M  V30 8009 C 738.391 3.7284 -2.02117 0
M  V30 8010 N 738.782 3.85957 -3.26911 0
M  V30 8011 C 737.08 4.02419 -1.92289 0
M  V30 8012 C 737.781 4.21333 -4.01065 0
M  V30 8013 N 736.757 4.32502 -3.29307 0
M  V30 8014 H 740.559 2.03968 -2.11599 0
M  V30 8015 H 738.073 1.05245 -1.23682 0
M  V30 8016 H 740.07 4.09881 -0.761782 0
M  V30 8017 H 738.73 3.24662 0.0494898 0
M  V30 8018 H 739.741 3.70449 -3.61923 0
M  V30 8019 H 736.418 4.03814 -1.06022 0
M  V30 8020 H 737.808 4.39005 -5.08649 0
M  V30 8021 N 740.528 1.15101 1.07655 0
M  V30 8022 C 741.753 0.948177 1.84457 0
M  V30 8023 C 742.178 -0.498432 1.81376 0
M  V30 8024 O 741.536 -1.35509 1.20445 0
M  V30 8025 C 741.584 1.46318 3.29581 0
M  V30 8026 O 740.688 0.660342 4.07079 0
M  V30 8027 H 740.029 0.338428 0.571281 0
M  V30 8028 H 742.559 1.5301 1.35828 0
M  V30 8029 H 742.569 1.47468 3.80417 0
M  V30 8030 H 741.244 2.51635 3.31138 0
M  V30 8031 H 739.821 0.718216 3.65918 0
M  V30 8032 N 742.006 -1.2595 0.947325 0
M  V30 8033 C 742.916 -2.29883 0.468079 0
M  V30 8034 C 743.932 -1.67783 -0.460975 0
M  V30 8035 O 745.108 -1.98526 -0.339006 0
M  V30 8036 C 742.173 -3.45773 -0.253315 0
M  V30 8037 C 741.234 -4.23337 0.713054 0
M  V30 8038 C 740.467 -5.33694 0.025993 0
M  V30 8039 O 740.69 -5.57853 -1.18978 0
M  V30 8040 O 739.624 -5.97724 0.70782 0
M  V30 8041 H 743.45 -2.72952 1.33156 0
M  V30 8042 H 741.035 -1.31263 0.713468 0
M  V30 8043 H 742.917 -4.16209 -0.659423 0
M  V30 8044 H 741.592 -3.04721 -1.09209 0
M  V30 8045 H 740.499 -3.55359 1.16923 0
M  V30 8046 H 741.832 -4.68154 1.51963 0
M  V30 8047 N 743.484 -0.715051 -1.40445 0
M  V30 8048 C 744.895 -0.326763 -1.83818 0
M  V30 8049 C 745.246 1.13851 -1.59789 0
M  V30 8050 O 744.371 1.87611 -1.07848 0
M  V30 8051 C 744.966 -0.586297 -3.33688 0
M  V30 8052 C 743.525 -0.251724 -3.75557 0
M  V30 8053 C 742.672 -0.858928 -2.63662 0
M  V30 8054 H 745.623 -0.914241 -1.2972 0
M  V30 8055 H 745.644 0.148636 -3.8021 0
M  V30 8056 H 745.156 -1.65281 -3.51146 0
M  V30 8057 H 743.257 0.809754 -3.63695 0
M  V30 8058 H 743.37 -0.720348 -4.73654 0
M  V30 8059 H 741.734 -0.287013 -2.53078 0
M  V30 8060 H 742.517 -1.9297 -2.83932 0
M  V30 8061 N 744.962 1.50701 -0.461195 0
M  V30 8062 C 746.187 2.07171 0.0974773 0
M  V30 8063 C 746.612 1.32391 1.3362 0
M  V30 8064 O 745.97 0.368676 1.77512 0
M  V30 8065 C 746.018 3.58651 0.374409 0
M  V30 8066 O 745.122 3.85816 1.4567 0
M  V30 8067 H 744.463 0.663944 -0.00862047 0
M  V30 8068 H 746.993 1.94021 -0.649394 0
M  V30 8069 H 747.003 4.03295 0.617843 0
M  V30 8070 H 745.678 4.12498 -0.530829 0
M  V30 8071 H 744.255 3.53018 1.20136 0
M  V30 8072 N 746.441 0.193421 1.56409 0
M  V30 8073 C 747.388 -0.728124 2.19014 0
M  V30 8074 C 748.358 -1.21098 1.13686 0
M  V30 8075 O 749.543 -1.27517 1.4193 0
M  V30 8076 C 746.683 -1.94277 2.8522 0
M  V30 8077 C 745.796 -1.50143 4.05069 0
M  V30 8078 C 744.931 -2.67145 4.59137 0
M  V30 8079 C 743.97 -2.19609 5.71348 0
M  V30 8080 N 743.107 -3.29782 6.19829 0
M  V30 8081 H 747.947 -0.187499 2.9741 0
M  V30 8082 H 745.484 -0.0808064 1.46878 0
M  V30 8083 H 747.442 -2.65551 3.21774 0
M  V30 8084 H 746.072 -2.45673 2.09391 0
M  V30 8085 H 745.124 -0.684624 3.74189 0
M  V30 8086 H 746.436 -1.11266 4.86232 0
M  V30 8087 H 745.59 -3.46544 4.97988 0
M  V30 8088 H 744.329 -3.09295 3.77078 0
M  V30 8089 H 743.334 -1.38664 5.32027 0
M  V30 8090 H 744.559 -1.78492 6.55223 0
M  V30 8091 H 742.505 -3.71466 5.40693 0
M  V30 8092 H 742.422 -2.95069 6.96039 0
M  V30 8093 H 743.69 -4.094 6.63334 0
M  V30 8094 N 747.919 -1.57396 -0.0801906 0
M  V30 8095 C 748.849 -2.06145 -1.09665 0
M  V30 8096 C 749.83 -0.953273 -1.40878 0
M  V30 8097 O 751.015 -1.22548 -1.50651 0
M  V30 8098 C 748.145 -2.49836 -2.41245 0
M  V30 8099 C 747.099 -3.64454 -2.24405 0
M  V30 8100 C 746.425 -3.94172 -3.61293 0
M  V30 8101 C 747.725 -4.94807 -1.67223 0
M  V30 8102 H 749.419 -2.91316 -0.691028 0
M  V30 8103 H 746.965 -1.40145 -0.330957 0
M  V30 8104 H 748.918 -2.82552 -3.12638 0
M  V30 8105 H 747.642 -1.61683 -2.83771 0
M  V30 8106 H 746.301 -3.32008 -1.55454 0
M  V30 8107 H 745.949 -3.03163 -4.01374 0
M  V30 8108 H 745.649 -4.71345 -3.50867 0
M  V30 8109 H 747.173 -4.29376 -4.3413 0
M  V30 8110 H 748.587 -5.25807 -2.28472 0
M  V30 8111 H 746.984 -5.76245 -1.67515 0
M  V30 8112 H 748.054 -4.80751 -0.632944 0
M  V30 8113 N 749.397 0.351382 -1.53633 0
M  V30 8114 C 750.625 1.11275 -1.74429 0
M  V30 8115 C 751.04 1.82602 -0.479798 0
M  V30 8116 O 750.397 1.74074 0.548125 0
M  V30 8117 C 750.448 2.13223 -2.91921 0
M  V30 8118 O 750.169 1.44798 -4.13479 0
M  V30 8119 C 751.67 3.01797 -3.24706 0
M  V30 8120 H 748.89 0.332153 -0.583023 0
M  V30 8121 H 751.434 0.405974 -2.0043 0
M  V30 8122 H 749.589 2.79477 -2.68274 0
M  V30 8123 H 750.003 2.12839 -4.79374 0
M  V30 8124 H 751.477 3.69282 -4.10286 0
M  V30 8125 H 751.954 3.67387 -2.40673 0
M  V30 8126 H 752.56 2.41141 -3.5033 0
M  V30 8127 N 750.875 1.45233 0.611969 0
M  V30 8128 C 752.122 1.49021 1.37109 0
M  V30 8129 C 752.45 0.130227 1.94064 0
M  V30 8130 O 751.705 -0.870551 1.75271 0
M  V30 8131 C 752.004 2.51353 2.54079 0
M  V30 8132 C 751.67 3.96178 2.15299 0
M  V30 8133 C 750.332 4.35614 2.04436 0
M  V30 8134 C 752.684 4.87275 1.84966 0
M  V30 8135 C 750.012 5.64047 1.61456 0
M  V30 8136 C 752.364 6.16115 1.43474 0
M  V30 8137 C 751.028 6.54486 1.31167 0
M  V30 8138 H 750.298 0.545307 0.501719 0
M  V30 8139 H 752.945 1.78555 0.692122 0
M  V30 8140 H 751.25 2.15372 3.27295 0
M  V30 8141 H 752.947 2.51523 3.12309 0
M  V30 8142 H 749.537 3.6499 2.24678 0
M  V30 8143 H 753.721 4.57548 1.92258 0
M  V30 8144 H 748.977 5.92575 1.50547 0
M  V30 8145 H 753.151 6.86149 1.19048 0
M  V30 8146 H 750.778 7.53904 0.97637 0
M  V30 8147 N 752.353 -0.854086 1.3245 0
M  V30 8148 C 753.599 -1.61069 1.23225 0
M  V30 8149 C 753.932 -1.93111 -0.205349 0
M  V30 8150 O 753.207 -1.57397 -1.14265 0
M  V30 8151 C 753.49 -2.93065 2.09249 0
M  V30 8152 C 753.343 -2.67801 3.6139 0
M  V30 8153 C 754.662 -3.94341 1.95406 0
M  V30 8154 H 751.781 -0.584449 0.448986 0
M  V30 8155 H 754.423 -0.986189 1.62402 0
M  V30 8156 H 752.573 -3.46364 1.75967 0
M  V30 8157 H 754.245 -2.21052 4.04887 0
M  V30 8158 H 752.488 -2.01756 3.84027 0
M  V30 8159 H 753.159 -3.6179 4.16907 0
M  V30 8160 H 755.635 -3.50301 2.24562 0
M  V30 8161 H 754.511 -4.84555 2.57872 0
M  V30 8162 H 754.772 -4.32382 0.921865 0
M  V30 8163 N 753.831 -1.1567 -1.07043 0
M  V30 8164 C 755.079 -0.931673 -1.79344 0
M  V30 8165 C 755.4 0.542421 -1.87304 0
M  V30 8166 O 754.67 1.39418 -1.37621 0
M  V30 8167 H 753.25 -0.34171 -0.664262 0
M  V30 8168 H 755.912 -1.45795 -1.29344 0
M  V30 8169 H 755.008 -1.34379 -2.81689 0
M  V30 8170 N 755.309 1.25446 -0.953992 0
M  V30 8171 C 756.219 2.29632 -0.480264 0
M  V30 8172 C 757.235 1.68025 0.452071 0
M  V30 8173 O 758.411 1.98703 0.328472 0
M  V30 8174 C 755.476 3.45903 0.234974 0
M  V30 8175 C 754.537 4.22953 -0.735495 0
M  V30 8176 C 753.77 5.33672 -0.0542957 0
M  V30 8177 O 753.993 5.58477 1.16018 0
M  V30 8178 O 752.927 5.9734 -0.739509 0
M  V30 8179 H 756.753 2.72242 -1.34602 0
M  V30 8180 H 754.338 1.30883 -0.720419 0
M  V30 8181 H 756.22 4.16552 0.637341 0
M  V30 8182 H 754.895 3.05296 1.07592 0
M  V30 8183 H 753.802 3.54734 -1.18806 0
M  V30 8184 H 755.135 4.67341 -1.54444 0
M  V30 8185 N 756.787 0.722489 1.40064 0
M  V30 8186 C 757.717 0.0892452 2.33329 0
M  V30 8187 C 758.698 -0.737992 1.53257 0
M  V30 8188 O 759.883 -0.685516 1.81698 0
M  V30 8189 C 757.013 -0.828139 3.37282 0
M  V30 8190 C 755.967 -0.106005 4.27869 0
M  V30 8191 C 755.293 -1.13957 5.22415 0
M  V30 8192 C 756.593 1.04395 5.11761 0
M  V30 8193 H 758.287 0.868269 2.86534 0
M  V30 8194 H 755.833 0.418982 1.3777 0
M  V30 8195 H 757.786 -1.28058 4.01471 0
M  V30 8196 H 756.51 -1.63914 2.82489 0
M  V30 8197 H 755.169 0.326683 3.65142 0
M  V30 8198 H 754.817 -1.9438 4.63924 0
M  V30 8199 H 754.517 -0.661233 5.83868 0
M  V30 8200 H 756.041 -1.59197 5.89482 0
M  V30 8201 H 757.455 0.670541 5.69365 0
M  V30 8202 H 755.852 1.4511 5.82291 0
M  V30 8203 H 756.922 1.87144 4.47331 0
M  V30 8204 N 758.265 -1.50454 0.469181 0
M  V30 8205 C 759.228 -2.2703 -0.314643 0
M  V30 8206 C 760.228 -1.31734 -0.922111 0
M  V30 8207 O 761.418 -1.55176 -0.791588 0
M  V30 8208 C 758.55 -3.08616 -1.44806 0
M  V30 8209 H 759.743 -2.97769 0.356892 0
M  V30 8210 H 757.296 -1.54698 0.223191 0
M  V30 8211 H 758.031 -2.42369 -2.1547 0
M  V30 8212 H 757.816 -3.78647 -1.01829 0
M  V30 8213 H 759.306 -3.66536 -2.00103 0
M  V30 8214 N 759.743 -0.201713 -1.56304 0
M  V30 8215 C 760.693 0.729444 -2.16016 0
M  V30 8216 C 761.677 1.17164 -1.10279 0
M  V30 8217 O 762.869 1.12893 -1.36324 0
M  V30 8218 C 759.998 1.94594 -2.82822 0
M  V30 8219 C 759.084 1.52434 -3.95758 0
M  V30 8220 N 759.475 0.814106 -4.99205 0
M  V30 8221 C 757.773 1.81314 -4.07481 0
M  V30 8222 C 758.474 0.601896 -5.78578 0
M  V30 8223 N 757.45 1.15263 -5.3124 0
M  V30 8224 H 761.252 0.178163 -2.93359 0
M  V30 8225 H 758.766 -0.00218038 -1.624 0
M  V30 8226 H 760.763 2.62357 -3.23998 0
M  V30 8227 H 759.423 2.50188 -2.06969 0
M  V30 8228 H 760.434 0.468872 -5.15773 0
M  V30 8229 H 757.111 2.3837 -3.42762 0
M  V30 8230 H 758.501 0.0380119 -6.71889 0
M  V30 8231 N 761.222 1.57436 0.0718424 0
M  V30 8232 C 762.47 1.86878 0.769484 0
M  V30 8233 C 762.791 0.7937 1.78116 0
M  V30 8234 O 762.061 -0.177642 1.95093 0
M  V30 8235 H 760.641 0.689593 0.287177 0
M  V30 8236 H 763.303 1.94841 0.0479427 0
M  V30 8237 H 762.399 2.84387 1.28572 0
M  V30 8238 N 762.7 -0.34323 1.53817 0
M  V30 8239 C 764.116 -0.686355 1.44088 0
M  V30 8240 C 764.316 -1.92426 0.597882 0
M  V30 8241 O 763.372 -2.52343 0.0889918 0
M  V30 8242 C 764.685 -0.878698 2.87575 0
M  V30 8243 C 766.233 -0.977296 2.97352 0
M  V30 8244 C 766.708 -1.20195 4.41947 0
M  V30 8245 N 768.199 -1.26915 4.45474 0
M  V30 8246 C 768.934 -1.46049 5.54488 0
M  V30 8247 N 768.43 -1.62354 6.73508 0
M  V30 8248 N 770.223 -1.48599 5.42102 0
M  V30 8249 H 762.374 0.470679 2.07119 0
M  V30 8250 H 764.637 0.148652 0.936273 0
M  V30 8251 H 764.343 -0.040602 3.51677 0
M  V30 8252 H 764.217 -1.78034 3.32541 0
M  V30 8253 H 766.604 -1.80591 2.3339 0
M  V30 8254 H 766.685 -0.0525498 2.55746 0
M  V30 8255 H 766.329 -0.378262 5.06489 0
M  V30 8256 H 766.259 -2.14027 4.81145 0
M  V30 8257 H 768.75 -1.15837 3.59708 0
M  V30 8258 H 769.063 -1.76591 7.52353 0
M  V30 8259 H 767.408 -1.5949 6.76453 0
M  V30 8260 H 770.599 -1.35443 4.48077 0
M  V30 8261 H 770.772 -1.6317 6.2712 0
M  V30 8262 N 764.178 -1.45556 -0.604258 0
M  V30 8263 C 765.425 -1.49746 -1.36317 0
M  V30 8264 C 765.753 -0.140516 -1.93992 0
M  V30 8265 O 765.008 0.861244 -1.7573 0
M  V30 8266 C 765.307 -2.52697 -2.52743 0
M  V30 8267 C 764.973 -3.97315 -2.13195 0
M  V30 8268 C 763.635 -4.36692 -2.02123 0
M  V30 8269 C 765.987 -4.88249 -1.8238 0
M  V30 8270 C 763.315 -5.64895 -1.58463 0
M  V30 8271 C 765.667 -6.16867 -1.40205 0
M  V30 8272 C 764.331 -6.55172 -1.27694 0
M  V30 8273 H 763.601 -0.54796 -0.49882 0
M  V30 8274 H 766.248 -1.7892 -0.682643 0
M  V30 8275 H 764.553 -2.17105 -3.26148 0
M  V30 8276 H 766.25 -2.53176 -3.10971 0
M  V30 8277 H 762.84 -3.66176 -2.22739 0
M  V30 8278 H 767.024 -4.58561 -1.89829 0
M  V30 8279 H 762.28 -5.93365 -1.47402 0
M  V30 8280 H 766.454 -6.86771 -1.15408 0
M  V30 8281 H 764.081 -7.54411 -0.936375 0
M  V30 8282 N 765.656 0.84705 -1.32902 0
M  V30 8283 C 766.881 1.63925 -1.27056 0
M  V30 8284 C 767.306 1.87443 0.157136 0
M  V30 8285 O 766.664 1.43266 1.11106 0
M  V30 8286 C 766.712 2.97134 -2.04313 0
M  V30 8287 O 765.816 3.88049 -1.39614 0
M  V30 8288 H 765.157 0.499477 -0.437514 0
M  V30 8289 H 767.687 1.05443 -1.75336 0
M  V30 8290 H 767.697 3.46896 -2.14772 0
M  V30 8291 H 766.372 2.79339 -3.08128 0
M  V30 8292 H 764.949 3.46525 -1.3775 0
M  V30 8293 N 767.134 1.16236 1.06428 0
M  V30 8294 C 768.097 0.870163 2.1204 0
M  V30 8295 C 769.097 -0.134239 1.60239 0
M  V30 8296 O 770.287 0.0964932 1.73933 0
M  V30 8297 C 767.419 0.301033 3.39568 0
M  V30 8298 H 768.612 1.8064 2.39394 0
M  V30 8299 H 766.165 0.971116 1.2247 0
M  V30 8300 H 766.9 -0.642948 3.17863 0
M  V30 8301 H 766.685 1.02475 3.78472 0
M  V30 8302 H 768.175 0.114494 4.17443 0
M  V30 8303 N 768.612 -1.24939 0.960631 0
M  V30 8304 C 769.559 -2.25658 0.484459 0
M  V30 8305 C 770.529 -1.59422 -0.466242 0
M  V30 8306 O 771.714 -1.87015 -0.378169 0
M  V30 8307 C 768.854 -3.44359 -0.225958 0
M  V30 8308 C 767.967 -4.25214 0.762682 0
M  V30 8309 C 767.102 -5.31192 0.0290931 0
M  V30 8310 C 766.141 -6.03739 1.00827 0
M  V30 8311 N 765.278 -7.01437 0.305155 0
M  V30 8312 H 770.118 -2.65758 1.34821 0
M  V30 8313 H 767.655 -1.30648 0.675983 0
M  V30 8314 H 769.613 -4.12035 -0.654472 0
M  V30 8315 H 768.243 -3.05118 -1.05371 0
M  V30 8316 H 767.295 -3.57144 1.30966 0
M  V30 8317 H 768.607 -4.75406 1.50964 0
M  V30 8318 H 767.761 -6.04971 -0.457763 0
M  V30 8319 H 766.5 -4.81889 -0.750614 0
M  V30 8320 H 765.505 -5.2877 1.50607 0
M  V30 8321 H 766.73 -6.55131 1.7883 0
M  V30 8322 H 764.676 -6.54415 -0.455704 0
M  V30 8323 H 764.593 -7.49475 0.991104 0
M  V30 8324 H 765.861 -7.79336 -0.159966 0
M  V30 8325 N 770.09 -0.729906 -1.39679 0
M  V30 8326 C 771.023 -0.0354454 -2.28172 0
M  V30 8327 C 772.001 0.752968 -1.44115 0
M  V30 8328 O 773.185 0.736599 -1.73512 0
M  V30 8329 C 770.312 0.957047 -3.24897 0
M  V30 8330 C 769.358 0.257734 -4.25721 0
M  V30 8331 S 770.191 -1.02466 -5.25605 0
M  V30 8332 C 771.347 -0.0346322 -6.2589 0
M  V30 8333 H 771.58 -0.785922 -2.86724 0
M  V30 8334 H 769.113 -0.521497 -1.45326 0
M  V30 8335 H 771.071 1.52441 -3.81146 0
M  V30 8336 H 769.732 1.68033 -2.65375 0
M  V30 8337 H 768.925 1.00854 -4.93806 0
M  V30 8338 H 768.527 -0.237454 -3.73245 0
M  V30 8339 H 770.819 0.807464 -6.72671 0
M  V30 8340 H 771.762 -0.682491 -7.04803 0
M  V30 8341 H 772.17 0.335492 -5.63502 0
M  V30 8342 N 771.568 1.50203 -0.477153 0
M  V30 8343 C 772.845 1.95115 0.137609 0
M  V30 8344 C 773.225 1.41778 1.56404 0
M  V30 8345 O 772.573 0.621333 2.1989 0
M  V30 8346 C 772.783 3.4892 0.0747168 0
M  V30 8347 C 774.131 4.238 0.260585 0
M  V30 8348 O 775.155 3.5588 0.151021 0
M  V30 8349 O 774.014 5.44366 0.482534 0
M  V30 8350 H 771.108 0.81987 0.108364 0
M  V30 8351 H 773.654 1.60946 -0.537989 0
M  V30 8352 H 772.426 3.80308 -0.920966 0
M  V30 8353 H 772.049 3.89642 0.791509 0
M  V30 8354 N 773.046 0.209999 1.56195 0
M  V30 8355 C 773.996 -0.717978 2.164 0
M  V30 8356 C 774.98 -1.16577 1.10899 0
M  V30 8357 O 776.172 -1.12169 1.3692 0
M  V30 8358 C 773.301 -1.93091 2.8385 0
M  V30 8359 C 772.387 -1.50333 3.96561 0
M  V30 8360 N 772.778 -0.787621 4.9963 0
M  V30 8361 C 771.076 -1.79151 4.08437 0
M  V30 8362 C 771.777 -0.571204 5.78889 0
M  V30 8363 N 770.753 -1.12444 5.31843 0
M  V30 8364 H 774.555 -0.162603 2.9345 0
M  V30 8365 H 772.069 0.0107928 1.62396 0
M  V30 8366 H 774.066 -2.60635 3.25384 0
M  V30 8367 H 772.726 -2.49087 2.08293 0
M  V30 8368 H 773.737 -0.441513 5.16015 0
M  V30 8369 H 770.414 -2.36549 3.44022 0
M  V30 8370 H 771.804 -0.00237941 6.719 0
M  V30 8371 N 774.524 -1.57472 -0.0634922 0
M  V30 8372 C 775.454 -2.07297 -1.07473 0
M  V30 8373 C 776.435 -0.968162 -1.39859 0
M  V30 8374 O 777.62 -1.24139 -1.49343 0
M  V30 8375 C 774.75 -2.52381 -2.38581 0
M  V30 8376 C 773.704 -3.66813 -2.20526 0
M  V30 8377 C 773.03 -3.97982 -3.57092 0
M  V30 8378 C 774.33 -4.96553 -1.61965 0
M  V30 8379 H 776.024 -2.92033 -0.660092 0
M  V30 8380 H 773.57 -1.40488 -0.316074 0
M  V30 8381 H 775.523 -2.85852 -3.09624 0
M  V30 8382 H 774.247 -1.64684 -2.8204 0
M  V30 8383 H 772.906 -3.33639 -1.51924 0
M  V30 8384 H 772.554 -3.07403 -3.98136 0
M  V30 8385 H 772.254 -4.7504 -3.45848 0
M  V30 8386 H 773.778 -4.33956 -4.29552 0
M  V30 8387 H 775.192 -5.28201 -2.22883 0
M  V30 8388 H 773.589 -5.7799 -1.61394 0
M  V30 8389 H 774.659 -4.81396 -0.581918 0
M  V30 8390 N 776.003 0.335068 -1.53997 0
M  V30 8391 C 777.249 1.07594 -1.71905 0
M  V30 8392 C 777.582 1.88039 -0.485264 0
M  V30 8393 O 776.857 1.87482 0.517752 0
M  V30 8394 C 777.14 2.01016 -2.98772 0
M  V30 8395 C 776.993 1.23977 -4.32377 0
M  V30 8396 C 778.312 3.0071 -3.21343 0
M  V30 8397 H 775.431 0.38976 -0.625505 0
M  V30 8398 H 778.073 0.353684 -1.86679 0
M  V30 8399 H 776.223 2.62603 -2.86307 0
M  V30 8400 H 777.895 0.649383 -4.56706 0
M  V30 8401 H 776.138 0.541878 -4.30402 0
M  V30 8402 H 776.809 1.92512 -5.17342 0
M  V30 8403 H 779.285 2.4924 -3.33194 0
M  V30 8404 H 778.161 3.63272 -4.11491 0
M  V30 8405 H 778.422 3.72549 -2.38033 0
M  V30 8406 N 777.481 1.45874 0.596531 0
M  V30 8407 C 778.721 1.52015 1.36641 0
M  V30 8408 C 779.085 0.16226 1.91313 0
M  V30 8409 O 780.286 0.0983889 2.6862 0
M  V30 8410 C 778.557 2.57776 2.4756 0
M  V30 8411 S 780.116 2.83223 3.35157 0
M  V30 8412 H 776.934 0.537251 0.465706 0
M  V30 8413 H 779.536 1.83024 0.687205 0
M  V30 8414 H 778.24 3.55091 2.05764 0
M  V30 8415 H 777.771 2.28455 3.20269 0
M  V30 8416 H 779.786 2.17442 4.4602 0
M  V30 8417 N 778.959 -0.83999 1.33349 0
M  V30 8418 C 780.206 -1.59517 1.24742 0
M  V30 8419 C 780.534 -1.93598 -0.187077 0
M  V30 8420 O 779.789 -1.58782 -1.14398 0
M  V30 8421 C 780.088 -2.91571 2.06691 0
M  V30 8422 C 779.754 -2.76856 3.55895 0
M  V30 8423 C 778.416 -2.72551 3.96572 0
M  V30 8424 C 780.768 -2.61741 4.50712 0
M  V30 8425 C 778.096 -2.51028 5.30285 0
M  V30 8426 C 780.448 -2.41752 5.84584 0
M  V30 8427 C 779.112 -2.35848 6.24445 0
M  V30 8428 H 778.382 -0.583714 0.456463 0
M  V30 8429 H 781.029 -0.973261 1.64924 0
M  V30 8430 H 779.334 -3.57961 1.59284 0
M  V30 8431 H 781.031 -3.49053 1.9739 0
M  V30 8432 H 777.621 -2.81039 3.23597 0
M  V30 8433 H 781.805 -2.64102 4.20195 0
M  V30 8434 H 777.061 -2.44903 5.60208 0
M  V30 8435 H 781.235 -2.2904 6.57658 0
M  V30 8436 H 778.862 -2.18931 7.27993 0
M  V30 8437 N 780.437 -1.16799 -1.0581 0
M  V30 8438 C 781.367 -0.902241 -2.15364 0
M  V30 8439 C 782.348 0.153351 -1.69407 0
M  V30 8440 O 783.533 0.00442032 -1.94199 0
M  V30 8441 C 780.663 -0.407911 -3.44896 0
M  V30 8442 C 779.617 -1.40197 -4.04387 0
M  V30 8443 C 778.943 -0.765848 -5.29187 0
M  V30 8444 C 780.243 -2.77316 -4.42598 0
M  V30 8445 H 781.937 -1.81841 -2.37853 0
M  V30 8446 H 779.483 -0.875731 -1.14311 0
M  V30 8447 H 781.436 -0.20945 -4.20879 0
M  V30 8448 H 780.16 0.54378 -3.22041 0
M  V30 8449 H 778.819 -1.58707 -3.30466 0
M  V30 8450 H 778.467 0.192482 -5.02632 0
M  V30 8451 H 778.167 -1.42939 -5.69949 0
M  V30 8452 H 779.691 -0.577519 -6.07863 0
M  V30 8453 H 781.105 -2.62561 -5.09642 0
M  V30 8454 H 779.502 -3.4019 -4.94359 0
M  V30 8455 H 780.572 -3.32199 -3.53231 0
M  V30 8456 N 781.915 1.24427 -0.967243 0
M  V30 8457 C 783.326 1.74349 -0.667785 0
M  V30 8458 C 783.677 1.78403 0.816509 0
M  V30 8459 O 782.802 1.41315 1.63887 0
M  V30 8460 C 783.397 3.16628 -1.20548 0
M  V30 8461 C 781.956 3.64059 -0.955934 0
M  V30 8462 C 781.103 2.42715 -1.34106 0
M  V30 8463 H 784.054 1.10136 -1.14262 0
M  V30 8464 H 784.075 3.76183 -0.571547 0
M  V30 8465 H 783.587 3.13646 -2.28578 0
M  V30 8466 H 781.688 3.72441 0.108858 0
M  V30 8467 H 781.801 4.51549 -1.60126 0
M  V30 8468 H 780.165 2.43114 -0.759452 0
M  V30 8469 H 780.948 2.42414 -2.43085 0
M  V30 8470 N 783.393 0.737304 1.3929 0
M  V30 8471 C 784.641 0.285691 2.00071 0
M  V30 8472 C 784.962 -1.13169 1.58801 0
M  V30 8473 O 784.232 -1.77104 0.837308 0
M  V30 8474 H 782.812 0.102638 0.739915 0
M  V30 8475 H 785.474 0.947775 1.70303 0
M  V30 8476 H 784.57 0.335906 3.10287 0
M  V30 8477 N 784.871 -1.49948 0.485112 0
M  V30 8478 C 786.099 -2.06806 -0.0622824 0
M  V30 8479 C 786.514 -1.34736 -1.32256 0
M  V30 8480 O 785.871 -0.420836 -1.77582 0
M  V30 8481 C 785.922 -3.59934 -0.336096 0
M  V30 8482 O 785.643 -4.29289 0.874203 0
M  V30 8483 C 787.144 -4.33459 -0.928903 0
M  V30 8484 H 784.364 -0.670867 0.0133472 0
M  V30 8485 H 786.908 -1.92937 0.677917 0
M  V30 8486 H 785.063 -3.7356 -1.02625 0
M  V30 8487 H 785.477 -5.20735 0.627332 0
M  V30 8488 H 786.951 -5.41527 -1.07017 0
M  V30 8489 H 787.428 -3.94881 -1.92265 0
M  V30 8490 H 788.034 -4.24399 -0.276705 0
M  V30 8491 N 786.349 -0.21828 -1.56081 0
M  V30 8492 C 787.279 0.687922 -2.23136 0
M  V30 8493 C 788.26 1.20357 -1.202 0
M  V30 8494 O 789.445 1.24817 -1.48776 0
M  V30 8495 C 786.575 1.89762 -2.90874 0
M  V30 8496 C 785.529 1.51595 -4.00254 0
M  V30 8497 C 784.855 2.80415 -4.55271 0
M  V30 8498 C 786.155 0.708404 -5.17474 0
M  V30 8499 H 787.849 0.128854 -2.99123 0
M  V30 8500 H 785.395 0.0605354 -1.43873 0
M  V30 8501 H 787.348 2.53699 -3.36474 0
M  V30 8502 H 786.072 2.4816 -2.1233 0
M  V30 8503 H 784.731 0.900058 -3.55379 0
M  V30 8504 H 784.379 3.36951 -3.73461 0
M  V30 8505 H 784.079 2.55613 -5.2909 0
M  V30 8506 H 785.603 3.453 -5.03587 0
M  V30 8507 H 787.017 1.2514 -5.59476 0
M  V30 8508 H 785.414 0.557593 -5.97504 0
M  V30 8509 H 786.484 -0.285679 -4.84058 0
M  V30 8510 N 787.827 1.57504 0.0551401 0
M  V30 8511 C 788.79 2.03826 1.04821 0
M  V30 8512 C 789.79 0.937968 1.30609 0
M  V30 8513 O 790.98 1.20237 1.2605 0
M  V30 8514 C 788.112 2.43309 2.38775 0
M  V30 8515 H 789.305 2.92802 0.6486 0
M  V30 8516 H 786.858 1.53368 0.301315 0
M  V30 8517 H 787.593 1.5741 2.83536 0
M  V30 8518 H 787.378 3.23615 2.21395 0
M  V30 8519 H 788.868 2.79666 3.10124 0
M  V30 8520 N 789.305 -0.326896 1.54172 0
M  V30 8521 C 790.235 -1.40741 1.86317 0
M  V30 8522 C 791.216 -1.54125 0.719684 0
M  V30 8523 O 792.401 -1.6806 0.973117 0
M  V30 8524 C 789.531 -2.77557 2.08757 0
M  V30 8525 C 788.485 -2.78965 3.24596 0
M  V30 8526 C 787.811 -4.18824 3.32401 0
M  V30 8527 C 789.111 -2.4301 4.62324 0
M  V30 8528 H 790.805 -1.14088 2.76811 0
M  V30 8529 H 788.351 -0.547389 1.3319 0
M  V30 8530 H 790.304 -3.53209 2.29829 0
M  V30 8531 H 789.028 -3.0568 1.15009 0
M  V30 8532 H 787.687 -2.05767 3.03406 0
M  V30 8533 H 787.335 -4.44083 2.36218 0
M  V30 8534 H 787.035 -4.20673 4.10253 0
M  V30 8535 H 788.559 -4.96294 3.55703 0
M  V30 8536 H 789.973 -3.08375 4.83299 0
M  V30 8537 H 788.37 -2.56116 5.42701 0
M  V30 8538 H 789.44 -1.38165 4.64799 0
M  V30 8539 N 790.784 -1.46188 -0.588786 0
M  V30 8540 C 792.032 -1.50885 -1.34455 0
M  V30 8541 C 792.353 -0.159555 -1.94346 0
M  V30 8542 O 791.623 0.813239 -1.78222 0
M  V30 8543 H 790.203 -0.555707 -0.499198 0
M  V30 8544 H 792.865 -1.82277 -0.690014 0
M  V30 8545 H 791.961 -2.25816 -2.15438 0
M  V30 8546 N 792.262 0.832906 -1.33792 0
M  V30 8547 C 793.508 1.59089 -1.25772 0
M  V30 8548 C 793.841 1.93414 0.174601 0
M  V30 8549 O 793.116 1.59195 1.11746 0
M  V30 8550 C 793.399 2.89699 -2.13885 0
M  V30 8551 C 793.252 2.62017 -3.65605 0
M  V30 8552 C 794.571 3.91182 -2.01654 0
M  V30 8553 H 791.69 0.577232 -0.458227 0
M  V30 8554 H 794.332 0.960227 -1.6395 0
M  V30 8555 H 792.482 3.4352 -1.81456 0
M  V30 8556 H 794.154 2.14582 -4.08353 0
M  V30 8557 H 792.397 1.95621 -3.87189 0
M  V30 8558 H 793.068 3.55112 -4.2261 0
M  V30 8559 H 795.544 3.46684 -2.30107 0
M  V30 8560 H 794.42 4.80391 -2.65548 0
M  V30 8561 H 794.681 4.30861 -0.990536 0
M  V30 8562 N 793.74 1.17359 1.05189 0
M  V30 8563 C 794.97 0.985099 1.81602 0
M  V30 8564 C 795.378 -0.469872 1.83273 0
M  V30 8565 O 794.721 -1.33806 1.25864 0
M  V30 8566 C 794.783 1.44956 3.2898 0
M  V30 8567 C 794.447 2.92666 3.50993 0
M  V30 8568 C 795.444 3.906 3.43115 0
M  V30 8569 C 793.129 3.30841 3.77954 0
M  V30 8570 C 795.123 5.24709 3.61883 0
M  V30 8571 C 792.81 4.65116 3.96371 0
M  V30 8572 C 793.808 5.61859 3.88335 0
M  V30 8573 O 793.496 6.93704 4.06238 0
M  V30 8574 H 793.228 0.348731 0.579105 0
M  V30 8575 H 795.782 1.56066 1.33539 0
M  V30 8576 H 794.012 0.817559 3.77959 0
M  V30 8577 H 795.701 1.22674 3.86919 0
M  V30 8578 H 796.467 3.62453 3.22262 0
M  V30 8579 H 792.346 2.5611 3.83313 0
M  V30 8580 H 795.89 6.00205 3.55527 0
M  V30 8581 H 791.787 4.92969 4.16715 0
M  V30 8582 H 792.555 7.00443 4.23463 0
M  V30 8583 N 795.218 -1.23913 0.973828 0
M  V30 8584 C 796.168 -2.22892 0.479933 0
M  V30 8585 C 797.152 -1.54726 -0.441434 0
M  V30 8586 O 798.344 -1.74908 -0.271358 0
M  V30 8587 C 795.473 -3.42577 -0.222702 0
M  V30 8588 C 794.559 -4.17981 0.717851 0
M  V30 8589 N 794.95 -4.7045 1.8577 0
M  V30 8590 C 793.248 -4.42841 0.529858 0
M  V30 8591 C 793.949 -5.27751 2.44651 0
M  V30 8592 N 792.925 -5.15302 1.73104 0
M  V30 8593 H 796.727 -2.61083 1.34956 0
M  V30 8594 H 794.241 -1.39368 0.83368 0
M  V30 8595 H 796.238 -4.1265 -0.593793 0
M  V30 8596 H 794.898 -3.05904 -1.0887 0
M  V30 8597 H 795.909 -4.66997 2.23908 0
M  V30 8598 H 792.586 -4.1648 -0.291664 0
M  V30 8599 H 793.976 -5.79011 3.40875 0
M  V30 8600 N 796.696 -0.74468 -1.38897 0
M  V30 8601 C 797.944 -0.296298 -1.99916 0
M  V30 8602 C 798.265 1.12325 -1.59399 0
M  V30 8603 O 797.535 1.76658 -0.846689 0
M  V30 8604 H 796.115 -0.106561 -0.73936 0
M  V30 8605 H 798.777 -0.956793 -1.69798 0
M  V30 8606 H 797.873 -0.352356 -3.10105 0
M  V30 8607 N 798.174 1.49689 -0.493057 0
M  V30 8608 C 799.104 2.31826 0.279073 0
M  V30 8609 C 800.085 1.39733 0.969987 0
M  V30 8610 O 801.27 1.68646 0.962925 0
M  V30 8611 C 798.4 3.20046 1.34862 0
M  V30 8612 C 797.354 4.20869 0.77805 0
M  V30 8613 C 796.68 4.97971 1.94753 0
M  V30 8614 C 797.98 5.21813 -0.225543 0
M  V30 8615 H 799.674 2.96627 -0.406512 0
M  V30 8616 H 797.22 1.42647 -0.196943 0
M  V30 8617 H 799.173 3.76315 1.89645 0
M  V30 8618 H 797.897 2.53172 2.06328 0
M  V30 8619 H 796.556 3.65733 0.252036 0
M  V30 8620 H 796.204 4.27552 2.64969 0
M  V30 8621 H 795.904 5.66186 1.57187 0
M  V30 8622 H 797.428 5.57082 2.49984 0
M  V30 8623 H 798.842 5.72823 0.233864 0
M  V30 8624 H 797.239 5.97872 -0.516622 0
M  V30 8625 H 798.309 4.71209 -1.14412 0
M  V30 8626 N 799.652 0.226554 1.55963 0
M  V30 8627 C 801.063 -0.280381 1.84583 0
M  V30 8628 C 801.414 -1.59105 1.14804 0
M  V30 8629 O 800.539 -2.12297 0.419414 0
M  V30 8630 C 801.134 -0.515499 3.34855 0
M  V30 8631 C 799.693 -0.966733 3.63774 0
M  V30 8632 C 798.84 -0.0325753 2.77281 0
M  V30 8633 H 801.791 0.449626 1.52197 0
M  V30 8634 H 801.812 -1.36085 3.55332 0
M  V30 8635 H 801.324 0.438594 3.85614 0
M  V30 8636 H 799.425 -1.93401 3.18476 0
M  V30 8637 H 799.538 -0.837679 4.7172 0
M  V30 8638 H 797.902 -0.540279 2.48904 0
M  V30 8639 H 798.685 0.916524 3.30839 0
M  V30 8640 N 801.13 -1.57531 -0.0467866 0
M  V30 8641 C 802.093 -2.04379 -1.03738 0
M  V30 8642 C 803.093 -0.944881 -1.3011 0
M  V30 8643 O 804.283 -1.20904 -1.25411 0
M  V30 8644 C 801.415 -2.44572 -2.37482 0
M  V30 8645 H 802.608 -2.93142 -0.633063 0
M  V30 8646 H 800.161 -1.53526 -0.293177 0
M  V30 8647 H 800.896 -1.58911 -2.82697 0
M  V30 8648 H 800.681 -3.24785 -2.19675 0
M  V30 8649 H 802.171 -2.81307 -3.08636 0
M  V30 8650 N 802.608 0.318715 -1.54344 0
M  V30 8651 C 803.833 1.07987 -1.77069 0
M  V30 8652 C 804.258 1.80766 -0.520117 0
M  V30 8653 O 803.616 1.73424 0.528566 0
M  V30 8654 C 803.664 2.04987 -2.96669 0
M  V30 8655 O 802.768 3.12974 -2.68554 0
M  V30 8656 H 802.109 0.311109 -0.586606 0
M  V30 8657 H 804.639 0.361533 -2.0138 0
M  V30 8658 H 804.649 2.47771 -3.2415 0
M  V30 8659 H 803.324 1.51417 -3.87357 0
M  V30 8660 H 801.901 2.74831 -2.52037 0
M  V30 8661 N 804.086 1.46499 0.581025 0
M  V30 8662 C 805.036 1.53606 1.68491 0
M  V30 8663 C 806.02 0.396853 1.55929 0
M  V30 8664 O 807.212 0.645366 1.64815 0
M  V30 8665 C 804.341 1.53089 3.07276 0
M  V30 8666 C 803.427 2.72309 3.25128 0
M  V30 8667 N 803.818 3.97216 3.13134 0
M  V30 8668 C 802.116 2.68568 3.56072 0
M  V30 8669 C 802.817 4.7693 3.33036 0
M  V30 8670 N 801.793 4.08833 3.58269 0
M  V30 8671 H 805.595 2.47976 1.5775 0
M  V30 8672 H 803.109 1.42161 0.785104 0
M  V30 8673 H 805.106 1.56268 3.86505 0
M  V30 8674 H 803.766 0.597969 3.19146 0
M  V30 8675 H 804.777 4.28439 2.90964 0
M  V30 8676 H 801.454 1.84307 3.74616 0
M  V30 8677 H 802.844 5.85879 3.28932 0
M  V30 8678 N 805.565 -0.825799 1.34232 0
M  V30 8679 C 806.498 -1.94155 1.19914 0
M  V30 8680 C 807.476 -1.62343 0.0914533 0
M  V30 8681 O 808.66 -1.86752 0.256082 0
M  V30 8682 C 805.787 -3.28064 0.842138 0
M  V30 8683 C 804.833 -3.78839 1.95917 0
M  V30 8684 S 805.666 -3.98943 3.57218 0
M  V30 8685 C 806.822 -5.35783 3.23554 0
M  V30 8686 H 807.055 -2.06003 2.14359 0
M  V30 8687 H 804.588 -0.981053 1.19225 0
M  V30 8688 H 806.546 -4.05434 0.642952 0
M  V30 8689 H 805.207 -3.13988 -0.0839363 0
M  V30 8690 H 804.4 -4.75771 1.66306 0
M  V30 8691 H 804.002 -3.08406 2.11569 0
M  V30 8692 H 806.294 -6.19094 2.7519 0
M  V30 8693 H 807.237 -5.70376 4.19615 0
M  V30 8694 H 807.645 -5.01158 2.5981 0
M  V30 8695 N 807.043 -1.17915 -1.04565 0
M  V30 8696 C 807.953 -0.916449 -2.15959 0
M  V30 8697 C 808.969 0.117655 -1.73602 0
M  V30 8698 O 810.145 -0.063089 -2.01301 0
M  V30 8699 C 807.21 -0.440262 -3.43893 0
M  V30 8700 C 806.271 -1.54172 -4.00661 0
M  V30 8701 C 805.504 -1.08816 -5.22489 0
M  V30 8702 O 805.727 0.0551547 -5.70373 0
M  V30 8703 O 804.661 -1.88383 -5.7166 0
M  V30 8704 H 808.487 -1.8484 -2.40972 0
M  V30 8705 H 806.072 -0.960552 -1.14428 0
M  V30 8706 H 807.954 -0.182537 -4.21004 0
M  V30 8707 H 806.629 0.46346 -3.20365 0
M  V30 8708 H 805.536 -1.85341 -3.24961 0
M  V30 8709 H 806.869 -2.42139 -4.2852 0
M  V30 8710 N 808.521 1.23394 -0.980386 0
M  V30 8711 C 809.451 2.2717 -0.540024 0
M  V30 8712 C 810.432 1.64659 0.426787 0
M  V30 8713 O 811.617 1.91543 0.320153 0
M  V30 8714 C 808.747 3.46939 0.15836 0
M  V30 8715 C 807.701 4.21802 -0.725732 0
M  V30 8716 C 807.027 5.34597 0.104866 0
M  V30 8717 C 808.327 4.81802 -2.01654 0
M  V30 8718 H 810.021 2.64257 -1.40743 0
M  V30 8719 H 807.567 1.2703 -0.678193 0
M  V30 8720 H 809.52 4.18683 0.477737 0
M  V30 8721 H 808.244 3.08912 1.06022 0
M  V30 8722 H 806.903 3.51875 -1.02857 0
M  V30 8723 H 806.551 4.92812 1.00726 0
M  V30 8724 H 806.251 5.85607 -0.483557 0
M  V30 8725 H 807.775 6.09163 0.418624 0
M  V30 8726 H 809.189 5.45554 -1.76193 0
M  V30 8727 H 807.586 5.43098 -2.55273 0
M  V30 8728 H 808.656 4.02549 -2.70338 0
M  V30 8729 N 809.999 0.752036 1.385 0
M  V30 8730 C 810.962 0.131587 2.28822 0
M  V30 8731 C 811.962 -0.649149 1.47115 0
M  V30 8732 O 813.152 -0.475645 1.67581 0
M  V30 8733 C 810.284 -0.822101 3.30839 0
M  V30 8734 H 811.477 0.927551 2.85196 0
M  V30 8735 H 809.03 0.518945 1.47434 0
M  V30 8736 H 809.765 -1.6438 2.79553 0
M  V30 8737 H 809.55 -0.264689 3.91206 0
M  V30 8738 H 811.04 -1.25226 3.98382 0
M  V30 8739 N 811.477 -1.49425 0.500989 0
M  V30 8740 C 812.409 -2.27037 -0.314159 0
M  V30 8741 C 813.422 -1.33578 -0.930626 0
M  V30 8742 O 814.611 -1.58861 -0.813968 0
M  V30 8743 C 811.711 -3.05968 -1.45729 0
M  V30 8744 C 810.884 -4.27 -0.948135 0
M  V30 8745 C 809.943 -4.87977 -1.96888 0
M  V30 8746 O 808.969 -5.48044 -1.53743 0
M  V30 8747 N 810.171 -4.77627 -3.29928 0
M  V30 8748 H 812.936 -2.97634 0.351336 0
M  V30 8749 H 810.497 -1.58427 0.333536 0
M  V30 8750 H 812.489 -3.43634 -2.1377 0
M  V30 8751 H 811.059 -2.37978 -2.02695 0
M  V30 8752 H 810.279 -3.94091 -0.0926311 0
M  V30 8753 H 811.567 -5.0541 -0.586362 0
M  V30 8754 H 810.965 -4.29926 -3.67669 0
M  V30 8755 H 809.522 -5.19478 -3.93682 0
M  V30 8756 N 812.955 -0.234822 -1.55841 0
M  V30 8757 C 813.865 0.680828 -2.24504 0
M  V30 8758 C 814.881 1.20306 -1.25708 0
M  V30 8759 O 816.057 1.24188 -1.58554 0
M  V30 8760 C 813.122 1.86636 -2.92178 0
M  V30 8761 C 812.183 1.3848 -4.06352 0
M  V30 8762 C 811.416 2.51382 -4.70789 0
M  V30 8763 O 811.639 3.69831 -4.34259 0
M  V30 8764 O 810.573 2.21828 -5.59532 0
M  V30 8765 H 814.399 0.12583 -3.03439 0
M  V30 8766 H 811.984 -0.00381817 -1.494 0
M  V30 8767 H 813.866 2.55845 -3.34845 0
M  V30 8768 H 812.541 2.40921 -2.16192 0
M  V30 8769 H 811.448 0.660341 -3.68226 0
M  V30 8770 H 812.781 0.888177 -4.8412 0
M  V30 8771 N 814.433 1.57553 0.0384317 0
M  V30 8772 C 815.363 2.0898 1.04161 0
M  V30 8773 C 816.344 0.99029 1.38301 0
M  V30 8774 O 817.529 1.26499 1.47349 0
M  V30 8775 C 814.659 2.56145 2.34536 0
M  V30 8776 C 813.613 3.70275 2.14663 0
M  V30 8777 C 812.939 4.03612 3.50715 0
M  V30 8778 C 814.239 4.99067 1.54045 0
M  V30 8779 H 815.933 2.93046 0.613548 0
M  V30 8780 H 813.479 1.40973 0.293684 0
M  V30 8781 H 815.432 2.90741 3.05037 0
M  V30 8782 H 814.156 1.6915 2.79385 0
M  V30 8783 H 812.815 3.36013 1.46597 0
M  V30 8784 H 812.463 3.13698 3.93195 0
M  V30 8785 H 812.163 4.80482 3.38247 0
M  V30 8786 H 813.687 4.40735 4.22593 0
M  V30 8787 H 815.101 5.3168 2.14451 0
M  V30 8788 H 813.498 5.80484 1.52178 0
M  V30 8789 H 814.568 4.8226 0.505259 0
M  V30 8790 N 815.911 -0.310526 1.54511 0
M  V30 8791 C 816.844 -1.40693 1.79668 0
M  V30 8792 C 817.822 -1.49159 0.64734 0
M  V30 8793 O 819.006 -1.66367 0.886239 0
M  V30 8794 C 816.133 -2.78685 1.92491 0
M  V30 8795 C 815.179 -2.87688 3.14861 0
M  V30 8796 S 816.012 -2.50759 4.7316 0
M  V30 8797 C 817.168 -3.90797 4.88906 0
M  V30 8798 H 817.401 -1.19142 2.72383 0
M  V30 8799 H 814.934 -0.508103 1.458 0
M  V30 8800 H 816.892 -3.58168 2.00563 0
M  V30 8801 H 815.553 -2.9751 1.00731 0
M  V30 8802 H 814.746 -3.8888 3.20607 0
M  V30 8803 H 814.348 -2.16189 3.05186 0
M  V30 8804 H 816.64 -4.85693 4.72344 0
M  V30 8805 H 817.583 -3.90027 5.91003 0
M  V30 8806 H 817.991 -3.80357 4.1712 0
M  V30 8807 N 817.389 -1.46805 -0.573248 0
M  V30 8808 C 818.299 -1.60687 -1.70929 0
M  V30 8809 C 819.315 -0.490084 -1.66956 0
M  V30 8810 O 820.491 -0.755482 -1.86693 0
M  V30 8811 C 817.556 -1.60259 -3.07438 0
M  V30 8812 C 816.617 -2.83242 -3.22603 0
M  V30 8813 C 815.85 -2.82825 -4.52599 0
M  V30 8814 O 816.073 -1.92113 -5.37074 0
M  V30 8815 O 815.007 -3.74489 -4.71213 0
M  V30 8816 H 818.833 -2.56782 -1.62163 0
M  V30 8817 H 816.418 -1.29706 -0.741399 0
M  V30 8818 H 818.3 -1.6275 -3.88704 0
M  V30 8819 H 816.975 -0.673268 -3.16621 0
M  V30 8820 H 815.882 -2.86302 -2.40794 0
M  V30 8821 H 817.215 -3.75415 -3.18315 0
M  V30 8822 N 818.867 0.818669 -1.34668 0
M  V30 8823 C 820.095 1.60674 -1.30351 0
M  V30 8824 C 820.51 1.88408 0.121546 0
M  V30 8825 O 819.867 1.47849 1.06991 0
M  V30 8826 C 819.918 2.94516 -2.09625 0
M  V30 8827 O 819.639 2.6799 -3.46573 0
M  V30 8828 C 821.14 3.8891 -2.12754 0
M  V30 8829 H 818.36 0.499306 -0.448258 0
M  V30 8830 H 820.904 1.01828 -1.77345 0
M  V30 8831 H 819.059 3.49908 -1.66262 0
M  V30 8832 H 819.473 3.53361 -3.87603 0
M  V30 8833 H 820.947 4.79972 -2.72637 0
M  V30 8834 H 821.424 4.24599 -1.12306 0
M  V30 8835 H 822.03 3.39453 -2.56225 0
M  V30 8836 N 820.346 1.18468 1.03938 0
M  V30 8837 C 821.586 0.991823 1.78724 0
M  V30 8838 C 821.95 -0.470115 1.86156 0
M  V30 8839 O 823.151 -0.782451 2.5716 0
M  V30 8840 C 821.422 1.63018 3.18056 0
M  V30 8841 S 822.981 1.58527 4.09163 0
M  V30 8842 H 819.799 0.356137 0.615376 0
M  V30 8843 H 822.401 1.50634 1.24618 0
M  V30 8844 H 821.105 2.68642 3.10258 0
M  V30 8845 H 820.636 1.11601 3.77238 0
M  V30 8846 H 822.651 0.602059 4.92534 0
M  V30 8847 N 821.824 -1.22873 0.986916 0
M  V30 8848 C 823.054 -1.95204 0.67668 0
M  V30 8849 C 823.462 -1.73193 -0.761641 0
M  V30 8850 O 822.805 -1.0243 -1.52492 0
M  V30 8851 C 822.867 -3.48173 0.895302 0
M  V30 8852 C 822.531 -3.93912 2.31695 0
M  V30 8853 C 823.528 -4.02064 3.29607 0
M  V30 8854 C 821.213 -4.26722 2.64978 0
M  V30 8855 C 823.207 -4.42391 4.58878 0
M  V30 8856 C 820.894 -4.66729 3.94471 0
M  V30 8857 C 821.892 -4.74531 4.91232 0
M  V30 8858 O 821.58 -5.13636 6.18412 0
M  V30 8859 H 821.312 -0.628105 0.24992 0
M  V30 8860 H 823.866 -1.5714 1.32274 0
M  V30 8861 H 822.096 -3.86223 0.192072 0
M  V30 8862 H 823.785 -4.01717 0.581233 0
M  V30 8863 H 824.551 -3.76912 3.05225 0
M  V30 8864 H 820.43 -4.19858 1.9037 0
M  V30 8865 H 823.974 -4.48395 5.34404 0
M  V30 8866 H 819.871 -4.91332 4.18645 0
M  V30 8867 H 820.639 -5.31728 6.2226 0
M  V30 8868 N 823.302 -0.75937 -1.38099 0
M  V30 8869 C 824.234 -0.0956547 -2.29 0
M  V30 8870 C 825.247 0.677561 -1.4803 0
M  V30 8871 O 826.436 0.517696 -1.70828 0
M  V30 8872 C 823.536 0.88844 -3.27047 0
M  V30 8873 C 822.709 0.171652 -4.37063 0
M  V30 8874 C 821.768 1.06733 -5.15262 0
M  V30 8875 O 820.794 0.535698 -5.66674 0
M  V30 8876 N 821.996 2.39486 -5.28797 0
M  V30 8877 H 824.761 -0.876354 -2.86601 0
M  V30 8878 H 822.322 -0.61065 -1.49942 0
M  V30 8879 H 824.314 1.49079 -3.76241 0
M  V30 8880 H 822.884 1.57018 -2.70304 0
M  V30 8881 H 822.104 -0.611473 -3.89429 0
M  V30 8882 H 823.392 -0.324121 -5.07767 0
M  V30 8883 H 822.79 2.85127 -4.88589 0
M  V30 8884 H 821.347 2.94758 -5.81344 0
M  V30 8885 N 824.78 1.49157 -0.508906 0
M  V30 8886 C 825.713 2.26056 0.312103 0
M  V30 8887 C 826.691 1.30982 0.963456 0
M  V30 8888 O 827.875 1.60286 0.992002 0
M  V30 8889 C 825.002 3.06555 1.4402 0
M  V30 8890 C 824.048 4.16844 0.902414 0
M  V30 8891 S 824.881 5.35076 -0.213087 0
M  V30 8892 C 826.037 6.19132 0.917985 0
M  V30 8893 H 826.27 2.95343 -0.340559 0
M  V30 8894 H 823.803 1.51569 -0.294331 0
M  V30 8895 H 825.761 3.53517 2.08653 0
M  V30 8896 H 824.422 2.36722 2.0645 0
M  V30 8897 H 823.615 4.72714 1.74806 0
M  V30 8898 H 823.217 3.72513 0.333156 0
M  V30 8899 H 825.509 6.52556 1.82145 0
M  V30 8900 H 826.452 7.06982 0.397724 0
M  V30 8901 H 826.86 5.51839 1.18889 0
M  V30 8902 N 826.258 0.243083 1.55714 0
M  V30 8903 C 827.206 -0.674349 2.2261 0
M  V30 8904 C 828.2 -1.18307 1.21243 0
M  V30 8905 O 829.406 -1.1404 1.39265 0
M  V30 8906 H 825.781 -0.235941 0.714028 0
M  V30 8907 H 827.752 -0.0869446 2.98273 0
M  V30 8908 C 826.501 -1.86206 2.93637 0
M  V30 8909 H 825.824 -1.47975 3.71407 0
M  V30 8910 H 827.264 -2.4813 3.43813 0
M  V30 8911 C 825.723 -2.73084 1.97298 0
M  V30 8912 O 826.253 -3.72497 1.50361 0
M  V30 8913 N 824.459 -2.39571 1.64482 0
M  V30 8914 H 824.006 -1.5878 2.02846 0
M  V30 8915 H 823.964 -2.97976 1.00288 0
M  V30 8916 N 827.736 -1.57571 -0.0300757 0
M  V30 8917 C 829.152 -1.54869 -0.385703 0
M  V30 8918 C 829.352 -0.969068 -1.76667 0
M  V30 8919 O 828.408 -0.589676 -2.45518 0
M  V30 8920 C 829.721 -2.99313 -0.288482 0
M  V30 8921 C 831.269 -3.10857 -0.365638 0
M  V30 8922 C 831.744 -4.5703 -0.297878 0
M  V30 8923 N 833.235 -4.61825 -0.356703 0
M  V30 8924 C 833.97 -5.72466 -0.327146 0
M  V30 8925 N 833.466 -6.92349 -0.249941 0
M  V30 8926 N 835.259 -5.60836 -0.376801 0
M  V30 8927 H 827.41 -1.936 0.87367 0
M  V30 8928 H 829.673 -0.887924 0.332106 0
M  V30 8929 H 829.379 -3.45443 0.66047 0
M  V30 8930 H 829.253 -3.61332 -1.08253 0
M  V30 8931 H 831.64 -2.64676 -1.30502 0
M  V30 8932 H 831.721 -2.51671 0.457744 0
M  V30 8933 H 831.365 -5.03879 0.637835 0
M  V30 8934 H 831.295 -5.14127 -1.13935 0
M  V30 8935 H 833.786 -3.75571 -0.418926 0
M  V30 8936 H 834.099 -7.7245 -0.23246 0
M  V30 8937 H 832.444 -6.94664 -0.216004 0
M  V30 8938 H 835.635 -4.66073 -0.435101 0
M  V30 8939 H 835.808 -6.47052 -0.350298 0
M  V30 8940 N 829.214 0.302327 -1.54673 0
M  V30 8941 C 830.146 1.39443 -1.81902 0
M  V30 8942 C 831.159 1.46891 -0.701914 0
M  V30 8943 O 832.348 1.49233 -0.979369 0
M  V30 8944 C 829.448 2.77824 -1.9408 0
M  V30 8945 C 828.621 2.93324 -3.24468 0
M  V30 8946 C 827.68 4.12196 -3.27079 0
M  V30 8947 O 826.706 4.04344 -4.00617 0
M  V30 8948 N 827.908 5.22768 -2.52376 0
M  V30 8949 H 830.673 1.1644 -2.76155 0
M  V30 8950 H 828.234 0.492392 -1.54231 0
M  V30 8951 H 830.226 3.5559 -1.9323 0
M  V30 8952 H 828.796 2.9378 -1.06828 0
M  V30 8953 H 828.016 2.02682 -3.38103 0
M  V30 8954 H 829.304 3.0059 -4.10516 0
M  V30 8955 H 828.702 5.32027 -1.92259 0
M  V30 8956 H 827.259 5.98874 -2.57281 0
M  V30 8957 N 830.692 1.47107 0.565454 0
M  V30 8958 C 831.625 1.53505 1.68853 0
M  V30 8959 C 832.603 0.387806 1.57908 0
M  V30 8960 O 833.787 0.594433 1.78882 0
M  V30 8961 C 830.914 1.42985 3.07039 0
M  V30 8962 C 829.96 2.62109 3.36454 0
M  V30 8963 S 830.793 4.2436 3.26617 0
M  V30 8964 C 831.949 4.16378 4.67312 0
M  V30 8965 H 832.182 2.48522 1.63169 0
M  V30 8966 H 829.715 1.35204 0.745609 0
M  V30 8967 H 831.673 1.37602 3.8675 0
M  V30 8968 H 830.334 0.493671 3.10196 0
M  V30 8969 H 829.527 2.50788 4.37174 0
M  V30 8970 H 829.129 2.64571 2.64345 0
M  V30 8971 H 831.421 3.84123 5.58082 0
M  V30 8972 H 832.364 5.17156 4.83689 0
M  V30 8973 H 832.772 3.47363 4.44971 0
M  V30 8974 N 832.17 -0.811516 1.35101 0
M  V30 8975 C 833.08 -1.95475 1.29718 0
M  V30 8976 C 834.096 -1.72813 0.202909 0
M  V30 8977 O 835.272 -1.96725 0.431414 0
M  V30 8978 C 832.337 -3.29975 1.06385 0
M  V30 8979 C 831.398 -3.65566 2.25077 0
M  V30 8980 C 830.631 -4.93648 2.02848 0
M  V30 8981 O 830.854 -5.617 0.992442 0
M  V30 8982 O 829.788 -5.27384 2.90087 0
M  V30 8983 H 833.614 -2.02961 2.25921 0
M  V30 8984 H 831.199 -0.948583 1.15422 0
M  V30 8985 H 833.081 -4.10506 0.951999 0
M  V30 8986 H 831.756 -3.2343 0.132294 0
M  V30 8987 H 830.663 -2.85432 2.41825 0
M  V30 8988 H 831.996 -3.7681 3.16662 0
M  V30 8989 N 833.648 -1.19017 -1.03309 0
M  V30 8990 C 834.876 -1.01534 -1.80273 0
M  V30 8991 C 835.291 0.43605 -1.83696 0
M  V30 8992 O 834.648 1.30288 -1.27794 0
M  V30 8993 C 834.699 -1.5722 -3.25522 0
M  V30 8994 O 834.42 -2.96677 -3.22358 0
M  V30 8995 C 835.921 -1.4446 -4.19102 0
M  V30 8996 H 833.141 -0.358094 -0.567459 0
M  V30 8997 H 835.685 -1.57738 -1.3015 0
M  V30 8998 H 833.84 -1.05174 -3.7285 0
M  V30 8999 H 834.254 -3.22795 -4.13405 0
M  V30 9000 H 835.728 -1.88209 -5.18923 0
M  V30 9001 H 836.205 -0.394471 -4.37425 0
M  V30 9002 H 836.811 -1.95616 -3.77643 0
M  V30 9003 N 835.127 1.22348 -0.993418 0
M  V30 9004 C 836.375 1.90733 -0.668246 0
M  V30 9005 C 836.696 1.77732 0.802261 0
M  V30 9006 O 835.966 1.16486 1.57505 0
M  V30 9007 H 834.546 0.705966 -0.244174 0
M  V30 9008 H 837.208 1.48691 -1.26004 0
M  V30 9009 H 836.304 2.97883 -0.931239 0
M  V30 9010 N 836.605 0.766683 1.37694 0
M  V30 9011 C 837.535 0.163432 2.32927 0
M  V30 9012 C 838.516 -0.688861 1.55527 0
M  V30 9013 O 839.701 -0.627363 1.83787 0
M  V30 9014 C 836.831 -0.720416 3.39746 0
M  V30 9015 C 835.785 0.0301718 4.27989 0
M  V30 9016 C 835.111 -0.972788 5.25776 0
M  V30 9017 C 836.411 1.20623 5.0818 0
M  V30 9018 H 838.105 0.958988 2.83626 0
M  V30 9019 H 835.651 0.462601 1.36367 0
M  V30 9020 H 837.604 -1.15221 4.05342 0
M  V30 9021 H 836.328 -1.54844 2.8756 0
M  V30 9022 H 834.987 0.442685 3.63917 0
M  V30 9023 H 834.635 -1.79522 4.69873 0
M  V30 9024 H 834.335 -0.475145 5.85676 0
M  V30 9025 H 835.859 -1.40362 5.94248 0
M  V30 9026 H 837.273 0.851341 5.66944 0
M  V30 9027 H 835.67 1.63561 5.7738 0
M  V30 9028 H 836.74 2.01281 4.41151 0
M  V30 9029 N 838.083 -1.48885 0.516809 0
M  V30 9030 C 839.308 -2.0739 -0.0205201 0
M  V30 9031 C 839.733 -1.37259 -1.28614 0
M  V30 9032 O 839.091 -0.434304 -1.76021 0
M  V30 9033 C 839.139 -3.59793 -0.24104 0
M  V30 9034 O 838.243 -3.90957 -1.31251 0
M  V30 9035 H 837.584 -0.663167 0.0332564 0
M  V30 9036 H 840.114 -1.91477 0.720956 0
M  V30 9037 H 840.124 -4.0531 -0.467737 0
M  V30 9038 H 838.799 -4.10244 0.68356 0
M  V30 9039 H 837.376 -3.57234 -1.06951 0
M  V30 9040 N 839.561 -0.251338 -1.55583 0
M  V30 9041 C 840.972 0.25098 -1.85005 0
M  V30 9042 C 841.323 1.57259 -1.17321 0
M  V30 9043 O 840.448 2.11603 -0.453136 0
M  V30 9044 C 841.043 0.462161 -3.35633 0
M  V30 9045 C 839.602 0.908737 -3.65266 0
M  V30 9046 C 838.749 -0.0115418 -2.77298 0
M  V30 9047 H 841.7 -0.473782 -1.51463 0
M  V30 9048 H 841.721 1.30415 -3.57452 0
M  V30 9049 H 841.233 -0.499886 -3.84867 0
M  V30 9050 H 839.334 1.8831 -3.21512 0
M  V30 9051 H 839.447 0.762526 -4.72993 0
M  V30 9052 H 837.811 0.500612 -2.49732 0
M  V30 9053 H 838.594 -0.969042 -3.29339 0
M  V30 9054 N 841.039 1.57585 0.0217189 0
M  V30 9055 C 841.949 2.10444 1.03684 0
M  V30 9056 C 842.965 1.04472 1.39146 0
M  V30 9057 O 844.141 1.36249 1.48317 0
M  V30 9058 C 841.206 2.5794 2.31664 0
M  V30 9059 C 840.267 3.78425 2.02714 0
M  V30 9060 C 839.5 4.23646 3.24592 0
M  V30 9061 O 839.723 3.6834 4.35525 0
M  V30 9062 O 838.657 5.16013 3.09862 0
M  V30 9063 H 842.483 2.97354 0.617584 0
M  V30 9064 H 840.068 1.47473 0.239174 0
M  V30 9065 H 841.95 2.88785 3.06889 0
M  V30 9066 H 840.625 1.74138 2.7287 0
M  V30 9067 H 839.532 3.52587 1.25033 0
M  V30 9068 H 840.865 4.63234 1.66359 0
M  V30 9069 N 842.517 -0.29412 1.54831 0
M  V30 9070 C 843.766 -1.02614 1.73647 0
M  V30 9071 C 844.079 -1.88193 0.533162 0
M  V30 9072 O 845.285 -2.64713 0.603275 0
M  V30 9073 C 843.741 -1.87417 3.07251 0
M  V30 9074 C 843.349 -1.06806 4.35082 0
M  V30 9075 C 845.093 -2.60176 3.35423 0
M  V30 9076 C 843 -1.90926 5.59733 0
M  V30 9077 H 841.93 -0.386834 0.647206 0
M  V30 9078 H 844.581 -0.282789 1.81308 0
M  V30 9079 H 842.963 -2.65765 2.93572 0
M  V30 9080 H 844.137 -0.330226 4.59615 0
M  V30 9081 H 842.452 -0.455979 4.13896 0
M  V30 9082 H 845.049 -3.23476 4.25755 0
M  V30 9083 H 845.392 -3.29365 2.54606 0
M  V30 9084 H 845.925 -1.88871 3.50103 0
M  V30 9085 H 842.664 -1.26194 6.43238 0
M  V30 9086 H 842.184 -2.62363 5.39375 0
M  V30 9087 H 843.863 -2.48807 5.97247 0
M  V30 9088 N 843.995 -1.47404 -0.557645 0
M  V30 9089 C 845.241 -1.54235 -1.31679 0
M  V30 9090 C 845.574 -0.203782 -1.93128 0
M  V30 9091 O 844.849 0.787536 -1.77843 0
M  V30 9092 C 845.132 -2.66003 -2.42723 0
M  V30 9093 C 844.985 -4.09475 -1.86145 0
M  V30 9094 C 846.304 -2.73685 -3.44652 0
M  V30 9095 H 843.423 -0.561466 -0.477415 0
M  V30 9096 H 846.065 -1.79459 -0.624067 0
M  V30 9097 H 844.215 -2.44627 -3.01811 0
M  V30 9098 H 845.887 -4.42213 -1.31321 0
M  V30 9099 H 844.13 -4.17774 -1.16823 0
M  V30 9100 H 844.801 -4.83451 -2.66418 0
M  V30 9101 H 847.277 -2.92968 -2.95481 0
M  V30 9102 H 846.153 -3.53665 -4.19777 0
M  V30 9103 H 846.414 -1.80726 -4.03473 0
M  V30 9104 N 845.473 0.80434 -1.35529 0
M  V30 9105 C 846.423 1.90565 -1.25175 0
M  V30 9106 C 847.407 1.60232 -0.146512 0
M  V30 9107 O 848.599 1.72918 -0.377943 0
M  V30 9108 C 845.728 3.2754 -1.02823 0
M  V30 9109 C 844.814 3.63932 -2.17748 0
M  V30 9110 N 845.205 3.71744 -3.42986 0
M  V30 9111 C 843.503 3.93901 -2.09184 0
M  V30 9112 C 844.204 4.03944 -4.18574 0
M  V30 9113 N 843.18 4.18146 -3.47355 0
M  V30 9114 H 846.982 1.9481 -2.20059 0
M  V30 9115 H 844.496 0.99905 -1.28034 0
M  V30 9116 H 846.493 4.06281 -0.934941 0
M  V30 9117 H 845.153 3.2458 -0.0882551 0
M  V30 9118 H 846.164 3.54765 -3.77309 0
M  V30 9119 H 842.841 3.98954 -1.23054 0
M  V30 9120 H 844.231 4.17036 -5.26811 0
M  V30 9121 N 846.951 1.19563 1.02676 0
M  V30 9122 C 848.198 0.999568 1.7611 0
M  V30 9123 C 848.526 -0.469432 1.8875 0
M  V30 9124 O 847.781 -1.36481 1.40255 0
M  V30 9125 C 848.08 1.61619 3.18769 0
M  V30 9126 C 847.746 3.11366 3.26132 0
M  V30 9127 C 846.408 3.52234 3.27848 0
M  V30 9128 C 848.76 4.07374 3.25109 0
M  V30 9129 C 846.088 4.87658 3.26201 0
M  V30 9130 C 848.44 5.42731 3.25002 0
M  V30 9131 C 847.104 5.83027 3.25017 0
M  V30 9132 H 846.374 0.365768 0.644434 0
M  V30 9133 H 849.021 1.48838 1.20497 0
M  V30 9134 H 847.326 1.04974 3.77476 0
M  V30 9135 H 849.023 1.43975 3.74262 0
M  V30 9136 H 845.613 2.78804 3.25525 0
M  V30 9137 H 849.797 3.76842 3.22961 0
M  V30 9138 H 845.053 5.18156 3.24537 0
M  V30 9139 H 849.227 6.16879 3.23161 0
M  V30 9140 H 846.854 6.87936 3.23494 0
M  V30 9141 N 848.429 -1.21819 0.999893 0
M  V30 9142 C 849.377 -2.26027 0.549047 0
M  V30 9143 C 850.371 -1.64516 -0.403826 0
M  V30 9144 O 851.577 -1.77878 -0.275578 0
M  V30 9145 H 847.952 -0.734958 0.159185 0
M  V30 9146 H 849.923 -2.61398 1.43923 0
M  V30 9147 C 848.672 -3.47514 -0.11369 0
M  V30 9148 H 847.995 -3.95112 0.610482 0
M  V30 9149 H 849.435 -4.22179 -0.3925 0
M  V30 9150 C 847.894 -3.08614 -1.35126 0
M  V30 9151 O 848.424 -3.1864 -2.44605 0
M  V30 9152 N 846.63 -2.63327 -1.22911 0
M  V30 9153 H 846.177 -2.55369 -0.338288 0
M  V30 9154 H 846.135 -2.37668 -2.05818 0
M  V30 9155 N 849.908 -0.773975 -1.37286 0
M  V30 9156 C 850.838 -0.175782 -2.32837 0
M  V30 9157 C 851.819 0.680603 -1.5589 0
M  V30 9158 O 853.004 0.617607 -1.84117 0
M  V30 9159 C 850.134 0.702388 -3.40123 0
M  V30 9160 C 849.088 -0.0528687 -4.27967 0
M  V30 9161 C 848.414 0.944891 -5.26285 0
M  V30 9162 C 849.714 -1.23316 -5.07534 0
M  V30 9163 H 851.408 -0.974016 -2.83114 0
M  V30 9164 H 848.954 -0.469826 -1.3612 0
M  V30 9165 H 850.907 1.13069 -4.05947 0
M  V30 9166 H 849.631 1.53316 -2.88378 0
M  V30 9167 H 848.29 -0.461978 -3.63678 0
M  V30 9168 H 847.938 1.77028 -4.70819 0
M  V30 9169 H 847.638 0.444079 -5.8592 0
M  V30 9170 H 849.162 1.37209 -5.94984 0
M  V30 9171 H 850.576 -0.881395 -5.66484 0
M  V30 9172 H 848.973 -1.66621 -5.76504 0
M  V30 9173 H 850.043 -2.03617 -4.40077 0
M  V30 9174 N 851.386 1.48609 -0.524698 0
M  V30 9175 C 852.616 2.06599 0.00741868 0
M  V30 9176 C 853.024 1.3823 1.29186 0
M  V30 9177 O 852.367 0.461962 1.77797 0
M  V30 9178 C 852.429 3.58184 0.307324 0
M  V30 9179 C 852.093 4.48391 -0.882864 0
M  V30 9180 C 853.09 4.88485 -1.77984 0
M  V30 9181 C 850.775 4.90367 -1.08837 0
M  V30 9182 C 852.769 5.69319 -2.86627 0
M  V30 9183 C 850.456 5.70972 -2.17794 0
M  V30 9184 C 851.454 6.10355 -3.06523 0
M  V30 9185 O 851.142 6.89343 -4.13596 0
M  V30 9186 H 850.874 0.675421 -0.0279846 0
M  V30 9187 H 853.428 1.92058 -0.7282 0
M  V30 9188 H 851.658 3.70818 1.09685 0
M  V30 9189 H 853.347 3.98318 0.780886 0
M  V30 9190 H 854.113 4.56682 -1.63299 0
M  V30 9191 H 849.992 4.592 -0.407035 0
M  V30 9192 H 853.536 5.99978 -3.55911 0
M  V30 9193 H 849.433 6.02188 -2.32465 0
M  V30 9194 H 850.201 7.07689 -4.1124 0
M  V30 9195 N 852.864 0.259585 1.55447 0
M  V30 9196 C 854.275 -0.241165 1.85136 0
M  V30 9197 C 854.626 -1.56634 1.18153 0
M  V30 9198 O 853.751 -2.11359 0.464351 0
M  V30 9199 C 854.346 -0.444355 3.35873 0
M  V30 9200 C 852.905 -0.889354 3.65742 0
M  V30 9201 C 852.052 0.0262474 2.77288 0
M  V30 9202 H 855.003 0.481808 1.51209 0
M  V30 9203 H 855.024 -1.28517 3.58139 0
M  V30 9204 H 854.536 0.520289 3.84597 0
M  V30 9205 H 852.637 -1.86602 3.22507 0
M  V30 9206 H 852.75 -0.737432 4.73391 0
M  V30 9207 H 851.114 -0.487361 2.49994 0
M  V30 9208 H 851.897 0.986494 3.28821 0
M  V30 9209 N 854.342 -1.57594 -0.0133615 0
M  V30 9210 C 855.274 -2.04402 -1.03695 0
M  V30 9211 C 856.287 -0.959546 -1.31516 0
M  V30 9212 O 857.476 -1.23659 -1.28727 0
M  V30 9213 C 854.576 -2.41766 -2.37491 0
M  V30 9214 C 853.749 -3.72785 -2.28802 0
M  V30 9215 C 852.808 -3.97165 -3.45176 0
M  V30 9216 O 851.834 -4.68013 -3.23963 0
M  V30 9217 N 853.036 -3.44021 -4.67579 0
M  V30 9218 H 855.801 -2.92833 -0.637874 0
M  V30 9219 H 853.362 -1.60647 -0.20101 0
M  V30 9220 H 855.354 -2.55201 -3.14093 0
M  V30 9221 H 853.924 -1.58924 -2.69188 0
M  V30 9222 H 853.144 -3.69555 -1.37197 0
M  V30 9223 H 854.432 -4.58704 -2.20154 0
M  V30 9224 H 853.83 -2.86623 -4.87713 0
M  V30 9225 H 852.387 -3.62808 -5.41492 0
M  V30 9226 N 855.82 0.285905 -1.54985 0
M  V30 9227 C 857.231 0.857869 -1.65824 0
M  V30 9228 C 857.582 1.87531 -0.576763 0
M  V30 9229 O 856.707 2.14528 0.284016 0
M  V30 9230 C 857.302 1.56277 -3.00604 0
M  V30 9231 C 855.861 2.08294 -3.13513 0
M  V30 9232 C 855.008 0.920633 -2.61571 0
M  V30 9233 H 857.959 0.0625463 -1.58577 0
M  V30 9234 H 857.98 2.42912 -2.92872 0
M  V30 9235 H 857.492 0.822017 -3.79295 0
M  V30 9236 H 855.593 2.8537 -2.39572 0
M  V30 9237 H 855.706 2.3071 -4.19892 0
M  V30 9238 H 854.07 1.31043 -2.18403 0
M  V30 9239 H 854.853 0.193594 -3.42754 0
M  V30 9240 N 857.298 1.47698 0.54982 0
M  V30 9241 C 858.546 1.54397 1.30407 0
M  V30 9242 C 858.867 0.211026 1.93855 0
M  V30 9243 O 858.137 -0.765701 1.80316 0
M  V30 9244 H 856.717 0.568747 0.484289 0
M  V30 9245 H 859.379 1.84042 0.641444 0
M  V30 9246 H 858.475 2.31449 2.09375 0
M  V30 9247 N 858.776 -0.797141 1.35954 0
M  V30 9248 C 860.192 -1.09408 1.16198 0
M  V30 9249 C 860.392 -2.01491 -0.0191682 0
M  V30 9250 O 859.448 -2.42977 -0.686902 0
M  V30 9251 C 860.761 -1.71597 2.46931 0
M  V30 9252 C 862.309 -1.83974 2.53224 0
M  V30 9253 C 862.784 -2.49579 3.84024 0
M  V30 9254 N 864.275 -2.57055 3.85327 0
M  V30 9255 C 865.01 -3.08608 4.83268 0
M  V30 9256 N 864.506 -3.60527 5.91601 0
M  V30 9257 N 866.299 -3.07249 4.70696 0
M  V30 9258 H 858.45 -0.185209 2.11591 0
M  V30 9259 H 860.713 -0.144768 0.936881 0
M  V30 9260 H 860.419 -1.11404 3.3359 0
M  V30 9261 H 860.293 -2.71193 2.62172 0
M  V30 9262 H 862.68 -2.43308 1.66988 0
M  V30 9263 H 862.761 -0.83207 2.41889 0
M  V30 9264 H 862.405 -1.90892 4.70662 0
M  V30 9265 H 862.335 -3.50902 3.92651 0
M  V30 9266 H 864.826 -2.20283 3.07057 0
M  V30 9267 H 865.139 -3.98192 6.62317 0
M  V30 9268 H 863.484 -3.587 5.95281 0
M  V30 9269 H 866.675 -2.65972 3.85197 0
M  V30 9270 H 866.848 -3.47119 5.47186 0
M  V30 9271 N 860.254 -1.20106 -1.0204 0
M  V30 9272 C 861.67 -0.955099 -1.27867 0
M  V30 9273 C 861.87 0.367595 -1.98119 0
M  V30 9274 O 860.926 1.09705 -2.27423 0
M  V30 9275 C 862.239 -2.13507 -2.11744 0
M  V30 9276 C 863.787 -2.17563 -2.25023 0
M  V30 9277 C 864.262 -3.35035 -3.12275 0
M  V30 9278 N 865.753 -3.35024 -3.19864 0
M  V30 9279 C 866.488 -4.22566 -3.8759 0
M  V30 9280 N 865.984 -5.20278 -4.57474 0
M  V30 9281 N 867.777 -4.10418 -3.84075 0
M  V30 9282 H 859.928 -2.05193 -0.54861 0
M  V30 9283 H 862.191 -0.897689 -0.304728 0
M  V30 9284 H 861.897 -3.09275 -1.67456 0
M  V30 9285 H 861.771 -2.11281 -3.12474 0
M  V30 9286 H 864.158 -1.22359 -2.68537 0
M  V30 9287 H 864.239 -2.23838 -1.23815 0
M  V30 9288 H 863.883 -4.30522 -2.69468 0
M  V30 9289 H 863.813 -3.25996 -4.13563 0
M  V30 9290 H 866.304 -2.64299 -2.701 0
M  V30 9291 H 866.617 -5.83408 -5.06809 0
M  V30 9292 H 864.962 -5.24219 -4.56311 0
M  V30 9293 H 868.153 -3.33353 -3.28623 0
M  V30 9294 H 868.326 -4.78854 -4.36581 0
M  V30 9295 N 861.732 1.21287 -1.00634 0
M  V30 9296 C 863.009 1.86 -0.605257 0
M  V30 9297 C 863.389 1.90139 0.917072 0
M  V30 9298 O 862.737 1.40169 1.80458 0
M  V30 9299 C 862.947 3.26183 -1.24119 0
M  V30 9300 C 864.295 4.02562 -1.35015 0
M  V30 9301 O 865.319 3.35499 -1.19661 0
M  V30 9302 O 864.178 5.22638 -1.59726 0
M  V30 9303 H 861.272 0.800549 -0.207486 0
M  V30 9304 H 863.818 1.28959 -1.10307 0
M  V30 9305 H 862.59 3.17878 -2.28186 0
M  V30 9306 H 862.213 3.90845 -0.729807 0
M  V30 9307 N 863.21 0.781244 1.36873 0
M  V30 9308 C 864.456 0.350407 1.9975 0
M  V30 9309 C 864.789 -1.07293 1.6187 0
M  V30 9310 O 864.064 -1.73983 0.869491 0
M  V30 9311 C 864.347 0.504834 3.56544 0
M  V30 9312 C 864.2 1.97127 4.04303 0
M  V30 9313 C 865.519 -0.0851272 4.40018 0
M  V30 9314 H 862.638 0.128794 0.725659 0
M  V30 9315 H 865.28 0.98606 1.6241 0
M  V30 9316 H 863.43 -0.0363006 3.88483 0
M  V30 9317 H 865.102 2.57284 3.82887 0
M  V30 9318 H 863.345 2.47676 3.56145 0
M  V30 9319 H 864.016 2.03033 5.13305 0
M  V30 9320 H 866.492 0.376704 4.14391 0
M  V30 9321 H 865.368 0.0530015 5.48874 0
M  V30 9322 H 865.629 -1.17642 4.2616 0
M  V30 9323 N 864.689 -1.48329 0.532571 0
M  V30 9324 C 865.599 -2.33445 -0.232546 0
M  V30 9325 C 866.615 -1.46651 -0.93645 0
M  V30 9326 O 867.791 -1.79627 -0.910834 0
M  V30 9327 C 864.856 -3.22824 -1.26434 0
M  V30 9328 C 863.917 -4.25492 -0.570511 0
M  V30 9329 C 863.15 -5.10601 -1.55315 0
M  V30 9330 O 863.373 -4.97733 -2.78599 0
M  V30 9331 O 862.307 -5.91927 -1.09112 0
M  V30 9332 H 866.133 -3.00119 0.464988 0
M  V30 9333 H 863.718 -1.46489 0.293462 0
M  V30 9334 H 865.6 -3.78103 -1.86055 0
M  V30 9335 H 864.275 -2.58807 -1.94424 0
M  V30 9336 H 863.182 -3.74041 0.0662587 0
M  V30 9337 H 864.515 -4.92154 0.0674904 0
M  V30 9338 N 866.167 -0.267825 -1.55308 0
M  V30 9339 C 867.413 0.351556 -1.9973 0
M  V30 9340 C 867.746 1.56049 -1.15596 0
M  V30 9341 O 867.021 1.93203 -0.224274 0
M  V30 9342 C 867.304 0.74091 -3.52395 0
M  V30 9343 C 867.157 -0.474861 -4.47286 0
M  V30 9344 C 868.476 1.5801 -4.10756 0
M  V30 9345 H 865.595 0.126308 -0.726096 0
M  V30 9346 H 868.237 -0.373316 -1.86296 0
M  V30 9347 H 866.387 1.35851 -3.63973 0
M  V30 9348 H 868.059 -1.1134 -4.47662 0
M  V30 9349 H 866.302 -1.11425 -4.19246 0
M  V30 9350 H 866.973 -0.158782 -5.51772 0
M  V30 9351 H 869.449 1.05857 -4.0241 0
M  V30 9352 H 868.325 1.82135 -5.17801 0
M  V30 9353 H 868.586 2.55878 -3.60526 0
M  V30 9354 N 867.645 1.57599 0.00500368 0
M  V30 9355 C 868.592 2.08106 0.998025 0
M  V30 9356 C 869.562 0.975374 1.34446 0
M  V30 9357 O 870.747 1.24749 1.44369 0
M  V30 9358 C 867.887 2.58496 2.28635 0
M  V30 9359 C 867 3.82947 1.99939 0
M  V30 9360 C 866.135 4.21857 3.22816 0
M  V30 9361 C 865.174 5.39159 2.89783 0
M  V30 9362 N 864.311 5.73386 4.05183 0
M  V30 9363 H 869.151 2.92684 0.560385 0
M  V30 9364 H 866.688 1.44692 0.265053 0
M  V30 9365 H 868.646 2.85787 3.03943 0
M  V30 9366 H 867.276 1.768 2.70077 0
M  V30 9367 H 866.328 3.62594 1.1502 0
M  V30 9368 H 867.64 4.68358 1.71588 0
M  V30 9369 H 866.794 4.50404 4.06474 0
M  V30 9370 H 865.533 3.35145 3.54301 0
M  V30 9371 H 864.538 5.1034 2.04532 0
M  V30 9372 H 865.763 6.27543 2.59551 0
M  V30 9373 H 863.709 4.89632 4.36574 0
M  V30 9374 H 863.626 6.53359 3.80339 0
M  V30 9375 H 864.894 6.06522 4.89644 0
M  V30 9376 N 869.123 -0.277682 1.55134 0
M  V30 9377 C 870.534 -0.849063 1.66276 0
M  V30 9378 C 870.885 -1.87223 0.5867 0
M  V30 9379 O 870.01 -2.14676 -0.272635 0
M  V30 9380 C 870.605 -1.54681 3.01429 0
M  V30 9381 C 869.164 -2.06628 3.14614 0
M  V30 9382 C 868.311 -0.906748 2.62056 0
M  V30 9383 H 871.262 -0.0541357 1.58608 0
M  V30 9384 H 871.283 -2.41356 2.94156 0
M  V30 9385 H 870.795 -0.80189 3.79725 0
M  V30 9386 H 868.896 -2.84095 2.41082 0
M  V30 9387 H 869.009 -2.2848 4.2111 0
M  V30 9388 H 867.373 -1.29882 2.19095 0
M  V30 9389 H 868.156 -0.175414 3.42852 0
M  V30 9390 N 870.601 -1.47988 -0.541979 0
M  V30 9391 C 871.564 -1.61148 -1.62984 0
M  V30 9392 C 872.564 -0.48553 -1.53295 0
M  V30 9393 O 873.754 -0.751012 -1.5718 0
M  V30 9394 C 870.886 -1.57038 -3.02576 0
M  V30 9395 H 872.079 -2.58138 -1.52659 0
M  V30 9396 H 869.632 -1.36405 -0.763106 0
M  V30 9397 H 870.367 -0.614807 -3.18419 0
M  V30 9398 H 870.152 -2.38769 -3.11018 0
M  V30 9399 H 871.642 -1.69416 -3.81691 0
M  V30 9400 N 872.079 0.78992 -1.36375 0
M  V30 9401 C 873.356 1.53584 -1.21126 0
M  V30 9402 C 873.736 2.10124 0.202785 0
M  V30 9403 O 873.084 1.93936 1.20835 0
M  V30 9404 C 873.294 2.63117 -2.29282 0
M  V30 9405 C 874.642 3.31013 -2.65924 0
M  V30 9406 O 875.666 2.734 -2.28321 0
M  V30 9407 O 874.525 4.35129 -3.30643 0
M  V30 9408 H 871.619 0.679366 -0.471583 0
M  V30 9409 H 874.165 0.828446 -1.48104 0
M  V30 9410 H 872.937 2.19329 -3.24053 0
M  V30 9411 H 872.56 3.41476 -2.03666 0
M  V30 9412 N 873.557 1.20646 1.01402 0
M  V30 9413 C 874.973 0.961866 1.27359 0
M  V30 9414 C 875.173 -0.357083 1.98311 0
M  V30 9415 O 874.229 -1.08498 2.28001 0
M  V30 9416 C 875.542 2.14627 2.10609 0
M  V30 9417 C 877.09 2.18753 2.23866 0
M  V30 9418 C 877.565 3.36686 3.10494 0
M  V30 9419 N 879.056 3.36716 3.18083 0
M  V30 9420 C 879.791 4.24615 3.85343 0
M  V30 9421 N 879.287 5.22697 4.54708 0
M  V30 9422 N 881.08 4.12449 3.81893 0
M  V30 9423 H 873.231 2.05481 0.537721 0
M  V30 9424 H 875.494 0.899292 0.299963 0
M  V30 9425 H 875.2 3.10159 1.65814 0
M  V30 9426 H 875.074 2.12935 3.11349 0
M  V30 9427 H 877.461 1.23782 2.67885 0
M  V30 9428 H 877.542 2.24492 1.22626 0
M  V30 9429 H 877.186 4.31945 2.67181 0
M  V30 9430 H 877.116 3.28185 4.11828 0
M  V30 9431 H 879.607 2.65728 2.68695 0
M  V30 9432 H 879.92 5.86087 5.03708 0
M  V30 9433 H 878.265 5.26631 4.53525 0
M  V30 9434 H 881.456 3.35091 3.26851 0
M  V30 9435 H 881.629 4.81162 4.34035 0
M  V30 9436 N 875.035 -1.20752 1.01276 0
M  V30 9437 C 875.985 -2.21252 0.550602 0
M  V30 9438 C 876.969 -1.56052 -0.391985 0
M  V30 9439 O 878.161 -1.75682 -0.215575 0
M  V30 9440 C 875.29 -3.43112 -0.113601 0
M  V30 9441 C 874.376 -4.15485 0.850465 0
M  V30 9442 N 874.767 -4.64301 2.00643 0
M  V30 9443 C 873.065 -4.40932 0.670476 0
M  V30 9444 C 873.766 -5.197 2.61317 0
M  V30 9445 N 872.742 -5.09534 1.8941 0
M  V30 9446 H 876.544 -2.56657 1.43194 0
M  V30 9447 H 874.058 -1.36646 0.877597 0
M  V30 9448 H 876.055 -4.1433 -0.462211 0
M  V30 9449 H 874.715 -3.09213 -0.990825 0
M  V30 9450 H 875.726 -4.59637 2.38651 0
M  V30 9451 H 872.403 -4.17197 -0.159016 0
M  V30 9452 H 873.793 -5.67873 3.59123 0
M  V30 9453 N 876.513 -0.788492 -1.36457 0
M  V30 9454 C 877.461 -0.174192 -2.31947 0
M  V30 9455 C 878.455 0.665974 -1.5576 0
M  V30 9456 O 879.661 0.561161 -1.71029 0
M  V30 9457 H 876.036 -0.0375538 -0.751062 0
M  V30 9458 H 878.007 -0.995011 -2.81322 0
M  V30 9459 C 876.756 0.677276 -3.4104 0
M  V30 9460 H 876.079 0.0401418 -3.9978 0
M  V30 9461 H 877.519 1.07379 -4.10178 0
M  V30 9462 C 875.978 1.83512 -2.82533 0
M  V30 9463 O 876.508 2.93164 -2.74623 0
M  V30 9464 N 874.714 1.64095 -2.39836 0
M  V30 9465 H 874.261 0.749046 -2.46469 0
M  V30 9466 H 874.219 2.41726 -2.01037 0
M  V30 9467 N 877.991 1.48044 -0.54043 0
M  V30 9468 C 878.921 2.32597 0.205178 0
M  V30 9469 C 879.902 1.42748 0.925041 0
M  V30 9470 O 881.087 1.71624 0.908784 0
M  V30 9471 C 878.217 3.24175 1.24612 0
M  V30 9472 C 877.171 4.23131 0.64376 0
M  V30 9473 C 876.497 5.03915 1.78812 0
M  V30 9474 C 877.797 5.20831 -0.39144 0
M  V30 9475 H 879.491 2.95184 -0.500676 0
M  V30 9476 H 877.037 1.41948 -0.242225 0
M  V30 9477 H 878.99 3.82158 1.77576 0
M  V30 9478 H 877.714 2.59608 1.98169 0
M  V30 9479 H 876.373 3.66349 0.135554 0
M  V30 9480 H 876.021 4.35765 2.51232 0
M  V30 9481 H 875.721 5.709 1.39094 0
M  V30 9482 H 877.245 5.64753 2.32134 0
M  V30 9483 H 878.659 5.73277 0.0515064 0
M  V30 9484 H 877.056 5.95926 -0.706569 0
M  V30 9485 H 878.126 4.6733 -1.29345 0
M  V30 9486 N 879.47 0.276058 1.55163 0
M  V30 9487 C 880.4 -0.604633 2.25536 0
M  V30 9488 C 881.381 -1.15813 1.24585 0
M  V30 9489 O 882.566 -1.1921 1.53306 0
M  V30 9490 C 879.696 -1.78836 2.97716 0
M  V30 9491 C 878.65 -1.36635 4.05604 0
M  V30 9492 C 877.976 -2.63325 4.65364 0
M  V30 9493 C 879.276 -0.515858 5.19746 0
M  V30 9494 H 880.97 -0.0177483 2.99395 0
M  V30 9495 H 878.516 -0.00709627 1.43998 0
M  V30 9496 H 880.469 -2.41036 3.45658 0
M  V30 9497 H 879.193 -2.40109 2.21394 0
M  V30 9498 H 877.852 -0.767541 3.58475 0
M  V30 9499 H 877.5 -3.22858 3.85709 0
M  V30 9500 H 877.2 -2.358 5.38212 0
M  V30 9501 H 878.724 -3.26372 5.16056 0
M  V30 9502 H 880.138 -1.04289 5.63735 0
M  V30 9503 H 878.535 -0.335449 5.99162 0
M  V30 9504 H 879.605 0.465137 4.82664 0
M  V30 9505 N 880.948 -1.576 0.00335426 0
M  V30 9506 C 882.364 -1.55653 -0.352766 0
M  V30 9507 C 882.564 -1.00632 -1.74572 0
M  V30 9508 O 881.62 -0.641621 -2.44212 0
M  V30 9509 C 882.933 -2.99858 -0.224929 0
M  V30 9510 C 884.481 -3.11563 -0.299619 0
M  V30 9511 C 884.956 -4.57559 -0.200868 0
M  V30 9512 N 886.447 -4.62477 -0.258663 0
M  V30 9513 C 887.182 -5.73031 -0.205644 0
M  V30 9514 N 886.678 -6.92723 -0.103027 0
M  V30 9515 N 888.471 -5.61509 -0.257754 0
M  V30 9516 H 880.622 -1.91703 0.914539 0
M  V30 9517 H 882.885 -0.88068 0.350865 0
M  V30 9518 H 882.591 -3.43964 0.733595 0
M  V30 9519 H 882.465 -3.63547 -1.00564 0
M  V30 9520 H 884.852 -2.67384 -1.24859 0
M  V30 9521 H 884.933 -2.50644 0.511025 0
M  V30 9522 H 884.577 -5.02413 0.744572 0
M  V30 9523 H 884.507 -5.16428 -1.03004 0
M  V30 9524 H 886.998 -3.76375 -0.339168 0
M  V30 9525 H 887.311 -7.7277 -0.0685593 0
M  V30 9526 H 885.656 -6.94966 -0.0686069 0
M  V30 9527 H 888.847 -4.66892 -0.336142 0
M  V30 9528 H 889.02 -6.4765 -0.21297 0
M  V30 9529 N 882.426 0.269451 -1.5528 0
M  V30 9530 C 883.837 0.840233 -1.66724 0
M  V30 9531 C 884.188 1.86909 -0.596621 0
M  V30 9532 O 883.313 2.14817 0.261246 0
M  V30 9533 C 883.908 1.5308 -3.02245 0
M  V30 9534 C 882.467 2.04957 -3.15705 0
M  V30 9535 C 881.614 0.892838 -2.62533 0
M  V30 9536 H 884.565 0.0457236 -1.58634 0
M  V30 9537 H 884.586 2.39792 -2.95432 0
M  V30 9538 H 884.098 0.781741 -3.80145 0
M  V30 9539 H 882.199 2.82813 -2.42585 0
M  V30 9540 H 882.312 2.26244 -4.22316 0
M  V30 9541 H 880.676 1.28719 -2.19781 0
M  V30 9542 H 881.459 0.157229 -3.4294 0
M  V30 9543 N 883.904 1.48273 0.534124 0
M  V30 9544 C 884.814 1.65162 1.66609 0
M  V30 9545 C 885.83 0.534177 1.65598 0
M  V30 9546 O 887.006 0.804715 1.84625 0
M  V30 9547 C 884.071 1.68354 3.03081 0
M  V30 9548 C 883.132 2.91696 3.1498 0
M  V30 9549 C 882.365 2.94725 4.44941 0
M  V30 9550 O 882.588 2.06285 5.31792 0
M  V30 9551 O 881.522 3.8685 4.61119 0
M  V30 9552 H 885.348 2.60991 1.55298 0
M  V30 9553 H 882.933 1.31626 0.706749 0
M  V30 9554 H 884.815 1.72998 3.84252 0
M  V30 9555 H 883.49 0.756978 3.14725 0
M  V30 9556 H 882.397 2.92586 2.33119 0
M  V30 9557 H 883.73 3.83722 3.0825 0
M  V30 9558 N 885.382 -0.782676 1.36792 0
M  V30 9559 C 886.61 -1.57162 1.34565 0
M  V30 9560 C 887.025 -1.88664 -0.0715501 0
M  V30 9561 O 886.382 -1.50633 -1.03033 0
M  V30 9562 C 886.433 -2.88854 2.1736 0
M  V30 9563 O 886.154 -2.58707 3.53557 0
M  V30 9564 C 887.655 -3.83132 2.2299 0
M  V30 9565 H 884.875 -0.487245 0.461338 0
M  V30 9566 H 887.419 -0.970905 1.79982 0
M  V30 9567 H 885.574 -3.45377 1.7548 0
M  V30 9568 H 885.988 -3.42961 3.96835 0
M  V30 9569 H 887.462 -4.72575 2.85266 0
M  V30 9570 H 887.939 -4.21472 1.23524 0
M  V30 9571 H 888.545 -3.32541 2.65135 0
M  V30 9572 N 886.86 -1.21182 -1.00761 0
M  V30 9573 C 888.106 -1.02898 -1.74756 0
M  V30 9574 C 888.439 0.436774 -1.89225 0
M  V30 9575 O 887.714 1.32415 -1.42466 0
M  V30 9576 C 887.997 -1.72372 -3.16164 0
M  V30 9577 C 887.85 -3.2645 -3.09435 0
M  V30 9578 C 889.169 -1.46415 -4.15031 0
M  V30 9579 H 886.288 -0.375214 -0.634337 0
M  V30 9580 H 888.93 -1.49321 -1.17487 0
M  V30 9581 H 887.08 -1.32906 -3.65059 0
M  V30 9582 H 888.752 -3.75269 -2.68274 0
M  V30 9583 H 886.995 -3.56889 -2.46603 0
M  V30 9584 H 887.666 -3.70226 -4.09435 0
M  V30 9585 H 890.142 -1.80671 -3.7483 0
M  V30 9586 H 889.018 -1.97544 -5.12121 0
M  V30 9587 H 889.279 -0.39361 -4.40344 0
M  V30 9588 N 888.338 1.20213 -1.01915 0
M  V30 9589 C 889.248 2.26763 -0.601311 0
M  V30 9590 C 890.264 1.70185 0.362369 0
M  V30 9591 O 891.44 2.00165 0.222682 0
M  V30 9592 C 888.505 3.46662 0.0512879 0
M  V30 9593 C 887.566 4.18459 -0.958659 0
M  V30 9594 C 886.799 5.32634 -0.337107 0
M  V30 9595 O 887.022 5.63841 0.86251 0
M  V30 9596 O 885.956 5.9258 -1.05511 0
M  V30 9597 H 889.782 2.64725 -1.48844 0
M  V30 9598 H 887.367 1.2688 -0.788784 0
M  V30 9599 H 889.249 4.19345 0.41564 0
M  V30 9600 H 887.924 3.1057 0.912572 0
M  V30 9601 H 886.831 3.47937 -1.37442 0
M  V30 9602 H 888.164 4.58498 -1.78999 0
M  V30 9603 N 889.816 0.795718 1.36037 0
M  V30 9604 C 891.041 0.38204 2.03851 0
M  V30 9605 C 891.466 -0.995553 1.59594 0
M  V30 9606 O 890.824 -1.64258 0.767401 0
M  V30 9607 C 890.872 0.461248 3.57638 0
M  V30 9608 O 889.976 -0.529448 4.08987 0
M  V30 9609 H 889.317 0.161227 0.644129 0
M  V30 9610 H 891.847 1.07858 1.73861 0
M  V30 9611 H 891.857 0.32712 4.06687 0
M  V30 9612 H 890.532 1.46613 3.89201 0
M  V30 9613 H 889.109 -0.35646 3.71192 0
M  V30 9614 N 891.294 -1.47756 0.548274 0
M  V30 9615 C 892.224 -2.32702 -0.19284 0
M  V30 9616 C 893.205 -1.43237 -0.917457 0
M  V30 9617 O 894.39 -1.72103 -0.89967 0
M  V30 9618 C 891.52 -3.24831 -1.22891 0
M  V30 9619 C 890.474 -4.23466 -0.621312 0
M  V30 9620 C 889.8 -5.04856 -1.76137 0
M  V30 9621 C 891.1 -5.20616 0.419055 0
M  V30 9622 H 892.794 -2.94914 0.516323 0
M  V30 9623 H 890.34 -1.41818 0.24975 0
M  V30 9624 H 892.293 -3.83094 -1.75547 0
M  V30 9625 H 891.017 -2.60656 -1.9679 0
M  V30 9626 H 889.676 -3.66416 -0.116123 0
M  V30 9627 H 889.324 -4.37091 -2.48918 0
M  V30 9628 H 889.024 -5.71629 -1.36065 0
M  V30 9629 H 890.548 -5.65976 -2.29136 0
M  V30 9630 H 891.962 -5.73296 -0.0211034 0
M  V30 9631 H 890.359 -5.95543 0.738163 0
M  V30 9632 H 891.429 -4.66638 1.31822 0
M  V30 9633 N 892.772 -0.284283 -1.55015 0
M  V30 9634 C 894.019 0.329864 -1.99795 0
M  V30 9635 C 894.347 1.55171 -1.1727 0
M  V30 9636 O 893.602 1.94312 -0.232667 0
M  V30 9637 C 893.901 0.747219 -3.49502 0
M  V30 9638 C 893.567 -0.37101 -4.49371 0
M  V30 9639 C 892.229 -0.678034 -4.76399 0
M  V30 9640 C 894.581 -1.12406 -5.08935 0
M  V30 9641 C 891.909 -1.74152 -5.60257 0
M  V30 9642 C 894.261 -2.17734 -5.93948 0
M  V30 9643 C 892.925 -2.49061 -6.19294 0
M  V30 9644 H 892.195 0.120706 -0.731103 0
M  V30 9645 H 894.842 -0.399904 -1.87278 0
M  V30 9646 H 893.147 1.55681 -3.59542 0
M  V30 9647 H 894.844 1.2333 -3.81563 0
M  V30 9648 H 891.434 -0.1216 -4.28427 0
M  V30 9649 H 895.618 -0.900119 -4.88069 0
M  V30 9650 H 890.874 -1.98915 -5.78137 0
M  V30 9651 H 895.048 -2.76553 -6.39133 0
M  V30 9652 H 892.675 -3.31602 -6.84064 0
M  V30 9653 N 894.251 1.57596 -0.0117121 0
M  V30 9654 C 895.481 1.95077 0.680346 0
M  V30 9655 C 895.889 0.885793 1.67184 0
M  V30 9656 O 895.232 -0.142723 1.83145 0
M  V30 9657 C 895.294 3.28611 1.45791 0
M  V30 9658 C 894.958 4.52682 0.626706 0
M  V30 9659 C 895.955 5.19821 -0.0906223 0
M  V30 9660 C 893.64 4.99064 0.569229 0
M  V30 9661 C 895.634 6.31649 -0.854289 0
M  V30 9662 C 893.321 6.10779 -0.198155 0
M  V30 9663 C 894.319 6.76929 -0.908636 0
M  V30 9664 O 894.007 7.86501 -1.66348 0
M  V30 9665 H 893.739 0.647663 0.193672 0
M  V30 9666 H 896.293 2.05305 -0.0624969 0
M  V30 9667 H 894.523 3.14824 2.2455 0
M  V30 9668 H 896.212 3.51119 2.03642 0
M  V30 9669 H 896.978 4.84968 -0.0554421 0
M  V30 9670 H 892.857 4.47393 1.11178 0
M  V30 9671 H 896.401 6.83215 -1.40937 0
M  V30 9672 H 892.298 6.45072 -0.235114 0
M  V30 9673 H 893.066 8.03078 -1.58141 0
M  V30 9674 N 895.729 -0.261212 1.5542 0
M  V30 9675 C 896.659 -1.32712 1.92119 0
M  V30 9676 C 897.64 -1.50934 0.784406 0
M  V30 9677 O 898.825 -1.63781 1.04352 0
M  V30 9678 C 895.955 -2.68453 2.20341 0
M  V30 9679 C 894.909 -2.64947 3.36136 0
M  V30 9680 C 894.235 -4.04349 3.49865 0
M  V30 9681 C 895.535 -2.23182 4.72215 0
M  V30 9682 H 897.229 -1.02245 2.81401 0
M  V30 9683 H 894.775 -0.490406 1.35392 0
M  V30 9684 H 896.728 -3.43144 2.44603 0
M  V30 9685 H 895.452 -3.00527 1.27871 0
M  V30 9686 H 894.111 -1.92714 3.11861 0
M  V30 9687 H 893.759 -4.33665 2.5484 0
M  V30 9688 H 893.459 -4.02895 4.27726 0
M  V30 9689 H 894.983 -4.80761 3.76432 0
M  V30 9690 H 896.397 -2.87599 4.95943 0
M  V30 9691 H 894.794 -2.32867 5.53076 0
M  V30 9692 H 895.864 -1.18327 4.70241 0
M  V30 9693 N 897.207 -1.48554 -0.526253 0
M  V30 9694 C 898.437 -1.60197 -1.30463 0
M  V30 9695 C 898.845 -0.26278 -1.87366 0
M  V30 9696 O 898.188 0.758537 -1.67308 0
M  V30 9697 C 898.25 -2.59223 -2.49085 0
M  V30 9698 C 897.914 -4.04199 -2.13241 0
M  V30 9699 C 898.911 -4.91771 -1.68694 0
M  V30 9700 C 896.596 -4.49762 -2.2365 0
M  V30 9701 C 898.59 -6.22934 -1.35026 0
M  V30 9702 C 896.277 -5.80945 -1.89594 0
M  V30 9703 C 897.275 -6.67354 -1.45353 0
M  V30 9704 O 896.963 -7.96096 -1.11745 0
M  V30 9705 H 896.695 -0.54284 -0.402866 0
M  V30 9706 H 899.249 -1.95137 -0.641157 0
M  V30 9707 H 897.479 -2.19412 -3.18426 0
M  V30 9708 H 899.168 -2.60661 -3.11144 0
M  V30 9709 H 899.934 -4.57806 -1.6012 0
M  V30 9710 H 895.813 -3.8269 -2.5704 0
M  V30 9711 H 899.357 -6.90334 -1.00422 0
M  V30 9712 H 895.254 -6.14444 -1.9781 0
M  V30 9713 H 896.022 -8.08882 -1.25111 0
M  V30 9714 N 898.685 0.775411 -1.37205 0
M  V30 9715 C 900.101 1.07546 -1.17924 0
M  V30 9716 C 900.301 2.01496 -0.0128897 0
M  V30 9717 O 899.357 2.44039 0.64816 0
M  V30 9718 C 900.67 1.67647 -2.49629 0
M  V30 9719 C 902.218 1.79923 -2.56119 0
M  V30 9720 C 902.693 2.43438 -3.87946 0
M  V30 9721 N 904.184 2.50893 -3.89368 0
M  V30 9722 C 904.919 3.00881 -4.88117 0
M  V30 9723 N 904.415 3.5107 -5.97262 0
M  V30 9724 N 906.208 2.99722 -4.75524 0
M  V30 9725 H 898.359 0.151524 -2.11859 0
M  V30 9726 H 900.622 0.129845 -0.939066 0
M  V30 9727 H 900.328 1.06082 -3.3532 0
M  V30 9728 H 900.202 2.66988 -2.66453 0
M  V30 9729 H 902.589 2.40621 -1.70838 0
M  V30 9730 H 902.67 0.793482 -2.43182 0
M  V30 9731 H 902.314 1.8338 -4.73639 0
M  V30 9732 H 902.244 3.44611 -3.98184 0
M  V30 9733 H 904.735 2.1537 -3.10522 0
M  V30 9734 H 905.048 3.87604 -6.68568 0
M  V30 9735 H 903.393 3.49184 -6.00912 0
M  V30 9736 H 906.584 2.5981 -3.8938 0
M  V30 9737 H 906.757 3.38369 -5.52639 0
M  V30 9738 N 900.163 1.21714 1.00117 0
M  V30 9739 C 901.409 1.03823 1.74208 0
M  V30 9740 C 901.742 -0.426733 1.89454 0
M  V30 9741 O 901.017 -1.31658 1.43166 0
M  V30 9742 C 901.3 1.74047 3.15246 0
M  V30 9743 C 901.153 3.28087 3.077 0
M  V30 9744 C 902.472 1.48614 4.14249 0
M  V30 9745 H 899.591 0.378573 0.632338 0
M  V30 9746 H 902.233 1.49942 1.16694 0
M  V30 9747 H 900.383 1.3484 3.64349 0
M  V30 9748 H 902.055 3.76686 2.6628 0
M  V30 9749 H 900.298 3.58191 2.44707 0
M  V30 9750 H 900.969 3.72392 4.07466 0
M  V30 9751 H 903.445 1.82656 3.73866 0
M  V30 9752 H 902.321 2.00257 5.11066 0
M  V30 9753 H 902.582 0.416957 4.40129 0
M  V30 9754 N 901.641 -1.19671 1.02551 0
M  V30 9755 C 902.869 -1.93233 0.739513 0
M  V30 9756 C 903.284 -1.75298 -0.701158 0
M  V30 9757 O 902.641 -1.07269 -1.47647 0
M  V30 9758 C 902.692 -3.45085 1.07697 0
M  V30 9759 O 902.413 -3.62441 2.46106 0
M  V30 9760 C 903.914 -4.35776 0.813298 0
M  V30 9761 H 901.134 -0.613905 0.270853 0
M  V30 9762 H 903.678 -1.51909 1.36909 0
M  V30 9763 H 901.833 -3.84255 0.492635 0
M  V30 9764 H 902.247 -4.56337 2.58567 0
M  V30 9765 H 903.721 -5.40941 1.09941 0
M  V30 9766 H 904.198 -4.38474 -0.252359 0
M  V30 9767 H 904.804 -4.02282 1.38021 0
M  V30 9768 N 903.119 -0.802921 -1.35613 0
M  V30 9769 C 904.367 -0.380822 -1.9848 0
M  V30 9770 C 904.688 1.05464 -1.6402 0
M  V30 9771 O 903.958 1.72908 -0.920854 0
M  V30 9772 H 902.538 -0.137824 -0.734176 0
M  V30 9773 H 905.2 -1.02795 -1.65587 0
M  V30 9774 H 904.296 -0.483565 -3.08331 0
M  V30 9775 N 904.597 1.47463 -0.556102 0
M  V30 9776 C 905.874 1.9557 0.0339892 0
M  V30 9777 C 906.254 1.49869 1.48669 0
M  V30 9778 O 905.602 0.737019 2.16288 0
M  V30 9779 C 905.812 3.48826 -0.110343 0
M  V30 9780 C 907.16 4.24585 0.0355716 0
M  V30 9781 O 908.184 3.5618 -0.0378356 0
M  V30 9782 O 907.043 5.46158 0.193299 0
M  V30 9783 H 904.137 0.824461 0.0647521 0
M  V30 9784 H 906.683 1.57868 -0.622547 0
M  V30 9785 H 905.455 3.74891 -1.12126 0
M  V30 9786 H 905.078 3.9329 0.583855 0
M  V30 9787 N 906.075 0.2925 1.54862 0
M  V30 9788 C 907.491 -0.0611461 1.59483 0
M  V30 9789 C 907.691 -1.53141 1.30958 0
M  V30 9790 O 906.747 -2.28291 1.07887 0
M  V30 9791 C 908.06 0.329143 2.98893 0
M  V30 9792 C 909.608 0.2772 3.1177 0
M  V30 9793 C 910.083 0.642185 4.53475 0
M  V30 9794 N 911.574 0.594396 4.5937 0
M  V30 9795 C 912.309 0.849385 5.67074 0
M  V30 9796 N 911.805 1.1699 6.82851 0
M  V30 9797 N 913.598 0.777016 5.56704 0
M  V30 9798 H 905.749 1.25079 1.71665 0
M  V30 9799 H 908.012 0.506516 0.80134 0
M  V30 9800 H 907.718 1.35233 3.24661 0
M  V30 9801 H 907.592 -0.321442 3.75828 0
M  V30 9802 H 909.979 -0.736725 2.85756 0
M  V30 9803 H 910.06 0.962289 2.3701 0
M  V30 9804 H 909.704 1.65388 4.80218 0
M  V30 9805 H 909.634 -0.0648831 5.2656 0
M  V30 9806 H 912.125 0.357256 3.76208 0
M  V30 9807 H 912.438 1.35067 7.60905 0
M  V30 9808 H 910.783 1.20785 6.84424 0
M  V30 9809 H 913.974 0.526333 4.65132 0
M  V30 9810 H 914.147 0.979113 6.4056 0
M  V30 9811 N 907.553 -1.57587 0.0200696 0
M  V30 9812 C 908.5 -2.09667 -0.964791 0
M  V30 9813 C 909.47 -0.99664 -1.32877 0
M  V30 9814 O 910.655 -1.2703 -1.42366 0
M  V30 9815 C 907.795 -2.62101 -2.24493 0
M  V30 9816 C 906.908 -3.8608 -1.93821 0
M  V30 9817 C 906.043 -4.26939 -3.16064 0
M  V30 9818 C 905.082 -5.43701 -2.81169 0
M  V30 9819 N 904.219 -5.79759 -3.9601 0
M  V30 9820 H 909.059 -2.93538 -0.513751 0
M  V30 9821 H 906.596 -1.45096 -0.242 0
M  V30 9822 H 908.554 -2.90587 -2.99358 0
M  V30 9823 H 907.184 -1.81074 -2.6723 0
M  V30 9824 H 906.236 -3.64378 -1.09237 0
M  V30 9825 H 907.548 -4.71028 -1.64115 0
M  V30 9826 H 906.702 -4.56814 -3.99257 0
M  V30 9827 H 905.441 -3.40739 -3.48924 0
M  V30 9828 H 904.446 -5.13529 -1.96387 0
M  V30 9829 H 905.671 -6.31593 -2.49535 0
M  V30 9830 H 903.617 -4.96516 -4.28729 0
M  V30 9831 H 903.534 -6.59327 -3.69896 0
M  V30 9832 H 904.802 -6.14235 -4.79933 0
M  V30 9833 N 909.032 0.252966 -1.55557 0
M  V30 9834 C 910.262 0.998115 -1.8089 0
M  V30 9835 C 910.67 1.79679 -0.592623 0
M  V30 9836 O 910.013 1.78151 0.448093 0
M  V30 9837 C 910.075 1.98878 -2.99479 0
M  V30 9838 C 909.739 1.37761 -4.35742 0
M  V30 9839 C 910.736 0.783142 -5.13968 0
M  V30 9840 C 908.421 1.39879 -4.8243 0
M  V30 9841 C 910.415 0.218004 -6.37027 0
M  V30 9842 C 908.102 0.829801 -6.0544 0
M  V30 9843 C 909.1 0.240426 -6.82577 0
M  V30 9844 O 908.788 -0.319797 -8.03264 0
M  V30 9845 H 908.52 0.29963 -0.605969 0
M  V30 9846 H 911.074 0.282978 -2.03441 0
M  V30 9847 H 909.304 2.74206 -2.72669 0
M  V30 9848 H 910.993 2.59686 -3.11959 0
M  V30 9849 H 911.759 0.759326 -4.79019 0
M  V30 9850 H 907.638 1.84692 -4.22386 0
M  V30 9851 H 911.182 -0.242654 -6.97178 0
M  V30 9852 H 907.079 0.850924 -6.39867 0
M  V30 9853 H 907.847 -0.211078 -8.18228 0
M  V30 9854 N 910.51 1.48831 0.518367 0
M  V30 9855 C 911.442 1.60317 1.63802 0
M  V30 9856 C 912.455 0.486771 1.55352 0
M  V30 9857 O 913.644 0.758111 1.61601 0
M  V30 9858 C 910.744 1.52771 3.02513 0
M  V30 9859 C 909.917 2.79649 3.36326 0
M  V30 9860 C 908.976 2.65396 4.54369 0
M  V30 9861 O 908.002 3.39304 4.57013 0
M  V30 9862 N 909.204 1.75784 5.53245 0
M  V30 9863 H 911.969 2.56878 1.54383 0
M  V30 9864 H 909.53 1.45701 0.705889 0
M  V30 9865 H 911.522 1.40914 3.79375 0
M  V30 9866 H 910.092 0.641381 3.05949 0
M  V30 9867 H 909.312 3.05985 2.48529 0
M  V30 9868 H 910.6 3.63799 3.55707 0
M  V30 9869 H 909.998 1.14961 5.53896 0
M  V30 9870 H 908.555 1.69859 6.29278 0
M  V30 9871 N 911.988 -0.768124 1.37614 0
M  V30 9872 C 913.265 -1.51637 1.23554 0
M  V30 9873 C 913.645 -2.1042 -0.169331 0
M  V30 9874 O 912.993 -1.95834 -1.17735 0
M  V30 9875 C 913.203 -2.59436 2.33439 0
M  V30 9876 C 914.551 -3.2674 2.71157 0
M  V30 9877 O 915.575 -2.69733 2.32642 0
M  V30 9878 O 914.434 -4.29814 3.37524 0
M  V30 9879 H 911.528 -0.671778 0.482332 0
M  V30 9880 H 914.074 -0.804779 1.49403 0
M  V30 9881 H 912.846 -2.14146 3.27502 0
M  V30 9882 H 912.469 -3.38192 2.09073 0
M  V30 9883 N 913.466 -1.22244 -0.994698 0
M  V30 9884 C 914.712 -1.05752 -1.73747 0
M  V30 9885 C 915.067 0.403416 -1.88123 0
M  V30 9886 O 914.36 1.29511 -1.412 0
M  V30 9887 C 914.554 -1.70014 -3.14372 0
M  V30 9888 C 914.383 -3.22205 -3.1371 0
M  V30 9889 C 913.153 -3.91301 -3.19705 0
M  V30 9890 C 915.351 -4.19163 -2.98005 0
M  V30 9891 N 913.333 -5.30594 -3.08778 0
M  V30 9892 C 914.704 -5.45274 -2.95087 0
M  V30 9893 C 916.759 -4.10078 -2.82383 0
M  V30 9894 C 915.462 -6.63345 -2.78146 0
M  V30 9895 C 917.488 -5.27797 -2.66803 0
M  V30 9896 C 916.85 -6.52826 -2.6457 0
M  V30 9897 H 912.949 -0.441393 -0.64552 0
M  V30 9898 H 915.533 -1.54757 -1.18146 0
M  V30 9899 H 913.704 -1.23562 -3.68221 0
M  V30 9900 H 915.436 -1.46631 -3.77202 0
M  V30 9901 H 912.191 -3.42289 -3.27315 0
M  V30 9902 H 912.615 -6.0358 -3.06628 0
M  V30 9903 H 917.257 -3.14201 -2.82909 0
M  V30 9904 H 914.975 -7.59373 -2.76367 0
M  V30 9905 H 918.561 -5.22598 -2.557 0
M  V30 9906 H 917.441 -7.42383 -2.5266 0
M  V30 9907 N 914.944 1.19125 -1.03184 0
M  V30 9908 C 916.192 1.8851 -0.728587 0
M  V30 9909 C 916.513 1.80195 0.74531 0
M  V30 9910 O 915.783 1.21437 1.5372 0
M  V30 9911 H 914.363 0.69784 -0.266511 0
M  V30 9912 H 917.025 1.44607 -1.3067 0
M  V30 9913 H 916.121 2.9477 -1.02554 0
M  V30 9914 N 916.422 0.810101 1.35185 0
M  V30 9915 C 917.668 0.401839 1.99391 0
M  V30 9916 C 918.023 -1.02059 1.63101 0
M  V30 9917 O 917.316 -1.69889 0.8859 0
M  V30 9918 C 917.51 0.526561 3.535 0
M  V30 9919 C 917.339 1.95956 4.04761 0
M  V30 9920 C 916.109 2.58869 4.33953 0
M  V30 9921 C 918.307 2.92459 4.23051 0
M  V30 9922 N 916.289 3.93542 4.71166 0
M  V30 9923 C 917.66 4.12011 4.633 0
M  V30 9924 C 919.715 2.89244 4.05268 0
M  V30 9925 C 918.418 5.28784 4.87627 0
M  V30 9926 C 920.444 4.05223 4.30753 0
M  V30 9927 C 919.806 5.23524 4.71277 0
M  V30 9928 H 915.905 0.194886 0.757327 0
M  V30 9929 H 918.489 1.05209 1.63827 0
M  V30 9930 H 916.66 -0.0937151 3.88287 0
M  V30 9931 H 918.392 0.0925434 4.04594 0
M  V30 9932 H 915.147 2.10198 4.24398 0
M  V30 9933 H 915.571 4.62889 4.94027 0
M  V30 9934 H 920.213 1.98932 3.73076 0
M  V30 9935 H 917.931 6.19666 5.18691 0
M  V30 9936 H 921.517 4.04121 4.18542 0
M  V30 9937 H 920.397 6.11776 4.90612 0
M  V30 9938 N 917.9 -1.47166 0.563914 0
M  V30 9939 C 918.81 -2.33885 -0.182977 0
M  V30 9940 C 919.826 -1.48605 -0.905132 0
M  V30 9941 O 921.002 -1.81518 -0.872527 0
M  V30 9942 C 918.067 -3.25433 -1.19558 0
M  V30 9943 C 917.128 -4.26607 -0.480129 0
M  V30 9944 C 916.361 -5.1378 -1.44449 0
M  V30 9945 O 916.584 -5.03531 -2.67979 0
M  V30 9946 O 915.518 -5.94109 -0.965321 0
M  V30 9947 H 919.344 -2.99065 0.528544 0
M  V30 9948 H 916.929 -1.45834 0.324468 0
M  V30 9949 H 918.811 -3.81964 -1.77993 0
M  V30 9950 H 917.486 -2.62873 -1.8889 0
M  V30 9951 H 916.393 -3.73817 0.145583 0
M  V30 9952 H 917.726 -4.919 0.171868 0
M  V30 9953 N 919.378 -0.300708 -1.54705 0
M  V30 9954 C 920.627 0.309428 -1.99312 0
M  V30 9955 C 920.94 1.55027 -1.19272 0
M  V30 9956 O 922.146 2.23498 -1.54146 0
M  V30 9957 C 920.602 0.601856 -3.54832 0
M  V30 9958 C 920.21 -0.620636 -4.4368 0
M  V30 9959 C 921.954 1.1732 -4.07966 0
M  V30 9960 C 919.861 -0.301376 -5.90632 0
M  V30 9961 H 918.791 0.119395 -0.744487 0
M  V30 9962 H 921.442 -0.409368 -1.78875 0
M  V30 9963 H 919.824 1.38024 -3.71168 0
M  V30 9964 H 920.998 -1.39685 -4.39118 0
M  V30 9965 H 919.313 -1.1106 -4.01316 0
M  V30 9966 H 921.91 1.42631 -5.15326 0
M  V30 9967 H 922.253 2.11537 -3.5855 0
M  V30 9968 H 922.786 0.456534 -3.95172 0
M  V30 9969 H 919.525 -1.21209 -6.44196 0
M  V30 9970 H 919.045 0.437574 -5.98202 0
M  V30 9971 H 920.724 0.097164 -6.46927 0
M  V30 9972 N 920.856 1.57574 -0.0284266 0
M  V30 9973 C 921.786 2.1321 0.952039 0
M  V30 9974 C 922.767 1.04806 1.33977 0
M  V30 9975 O 923.952 1.32635 1.41851 0
M  V30 9976 C 921.082 2.65862 2.23461 0
M  V30 9977 C 920.036 3.79047 1.98765 0
M  V30 9978 C 919.362 4.18124 3.33281 0
M  V30 9979 C 920.662 5.05151 1.32739 0
M  V30 9980 H 922.356 2.95385 0.488705 0
M  V30 9981 H 919.902 1.42092 0.233628 0
M  V30 9982 H 921.855 3.03417 2.92431 0
M  V30 9983 H 920.579 1.80848 2.71959 0
M  V30 9984 H 919.238 3.41929 1.32213 0
M  V30 9985 H 918.886 3.30092 3.79537 0
M  V30 9986 H 918.586 4.94396 3.17563 0
M  V30 9987 H 920.11 4.58262 4.0352 0
M  V30 9988 H 921.524 5.40297 1.91708 0
M  V30 9989 H 919.921 5.86416 1.27421 0
M  V30 9990 H 920.991 4.83969 0.300261 0
M  V30 9991 N 922.334 -0.244713 1.55689 0
M  V30 9992 C 923.266 -1.32595 1.86952 0
M  V30 9993 C 924.279 -1.44185 0.755948 0
M  V30 9994 O 925.468 -1.45496 1.03408 0
M  V30 9995 C 922.568 -2.70429 2.04258 0
M  V30 9996 C 921.741 -2.8108 3.35131 0
M  V30 9997 C 920.8 -3.99773 3.42152 0
M  V30 9998 O 919.826 -3.89197 4.15348 0
M  V30 9999 N 921.028 -5.13041 2.71604 0
M  V30 10000 H 923.793 -1.06111 2.80287 0
M  V30 10001 H 921.354 -0.434811 1.55952 0
M  V30 10002 H 923.346 -3.48173 2.06295 0
M  V30 10003 H 921.916 -2.89612 1.17658 0
M  V30 10004 H 921.136 -1.89994 3.45392 0
M  V30 10005 H 922.424 -2.85147 4.21389 0
M  V30 10006 H 921.822 -5.24525 2.11872 0
M  V30 10007 H 920.379 -5.88912 2.79331 0
M  V30 10008 N 923.813 -1.49104 -0.510467 0
M  V30 10009 C 925.038 -1.62068 -1.29417 0
M  V30 10010 C 925.463 -0.288432 -1.85875 0
M  V30 10011 O 924.821 0.742667 -1.65391 0
M  V30 10012 C 924.869 -2.68506 -2.40701 0
M  V30 10013 O 923.973 -2.27021 -3.4429 0
M  V30 10014 H 923.314 -0.542778 -0.382476 0
M  V30 10015 H 925.844 -1.95228 -0.612154 0
M  V30 10016 H 925.854 -2.90383 -2.86604 0
M  V30 10017 H 924.529 -3.65216 -1.98973 0
M  V30 10018 H 923.106 -2.15436 -3.04371 0
M  V30 10019 N 925.291 0.760815 -1.38019 0
M  V30 10020 C 926.538 1.51973 -1.3383 0
M  V30 10021 C 926.866 1.9436 0.0738855 0
M  V30 10022 O 926.121 1.65181 1.04946 0
M  V30 10023 C 926.42 2.79024 -2.23339 0
M  V30 10024 C 926.086 2.55636 -3.71431 0
M  V30 10025 C 924.748 2.48966 -4.11788 0
M  V30 10026 C 927.1 2.35018 -4.65205 0
M  V30 10027 C 924.428 2.19684 -5.44018 0
M  V30 10028 C 926.78 2.07258 -5.97685 0
M  V30 10029 C 925.444 1.9904 -6.37134 0
M  V30 10030 H 924.714 0.556108 -0.489719 0
M  V30 10031 H 927.361 0.87545 -1.70318 0
M  V30 10032 H 925.666 3.48065 -1.79883 0
M  V30 10033 H 927.363 3.36951 -2.17405 0
M  V30 10034 H 923.953 2.61695 -3.39432 0
M  V30 10035 H 928.137 2.39154 -4.34878 0
M  V30 10036 H 923.393 2.11825 -5.73533 0
M  V30 10037 H 927.567 1.90307 -6.69893 0
M  V30 10038 H 925.194 1.76115 -7.39519 0
M  V30 10039 N 926.769 1.22769 0.988202 0
M  V30 10040 C 927.994 1.08239 1.76915 0
M  V30 10041 C 928.419 -0.362519 1.84574 0
M  V30 10042 O 927.777 -1.26202 1.30165 0
M  V30 10043 C 927.825 1.70363 3.17819 0
M  V30 10044 O 926.929 0.960484 4.01059 0
M  V30 10045 H 926.27 0.379872 0.544604 0
M  V30 10046 H 928.8 1.62663 1.24104 0
M  V30 10047 H 928.81 1.7528 3.6843 0
M  V30 10048 H 927.485 2.75505 3.1156 0
M  V30 10049 H 926.062 0.987667 3.59582 0
M  V30 10050 N 928.247 -1.18576 1.03814 0
M  V30 10051 C 929.663 -1.4051 0.756909 0
M  V30 10052 C 929.863 -1.9057 -0.654631 0
M  V30 10053 O 928.919 -2.0884 -1.41922 0
M  V30 10054 C 930.232 -2.4081 1.80087 0
M  V30 10055 C 931.78 -2.54541 1.82148 0
M  V30 10056 C 932.255 -3.58102 2.85529 0
M  V30 10057 N 933.746 -3.65607 2.84404 0
M  V30 10058 C 934.481 -4.45458 3.61047 0
M  V30 10059 N 933.977 -5.28937 4.47434 0
M  V30 10060 N 935.77 -4.40196 3.49548 0
M  V30 10061 H 927.921 -0.844075 1.94908 0
M  V30 10062 H 930.184 -0.433287 0.843188 0
M  V30 10063 H 929.89 -2.1107 2.81322 0
M  V30 10064 H 929.764 -3.4012 1.63089 0
M  V30 10065 H 932.151 -2.83598 0.815855 0
M  V30 10066 H 932.232 -1.55352 2.03223 0
M  V30 10067 H 931.876 -3.29786 3.86269 0
M  V30 10068 H 931.806 -4.56963 2.6171 0
M  V30 10069 H 934.297 -3.05994 2.21756 0
M  V30 10070 H 934.61 -5.8701 5.02632 0
M  V30 10071 H 932.955 -5.28366 4.51503 0
M  V30 10072 H 936.146 -3.74026 2.81464 0
M  V30 10073 H 936.319 -5.02186 4.09528 0
M  V30 10074 N 929.725 -0.817259 -1.34754 0
M  V30 10075 C 930.972 -0.402648 -1.98457 0
M  V30 10076 C 931.3 1.03287 -1.64809 0
M  V30 10077 O 930.555 1.73316 -0.908851 0
M  V30 10078 C 930.854 -0.5453 -3.53216 0
M  V30 10079 C 930.52 -1.9457 -4.06759 0
M  V30 10080 C 929.182 -2.32881 -4.21094 0
M  V30 10081 C 931.534 -2.86141 -4.35629 0
M  V30 10082 C 928.862 -3.62108 -4.61622 0
M  V30 10083 C 931.214 -4.14826 -4.776 0
M  V30 10084 C 929.878 -4.53121 -4.9014 0
M  V30 10085 H 929.148 -0.147339 -0.726204 0
M  V30 10086 H 931.795 -1.04011 -1.60791 0
M  V30 10087 H 930.1 0.175576 -3.91406 0
M  V30 10088 H 931.797 -0.205112 -4.00475 0
M  V30 10089 H 928.387 -1.6381 -3.96061 0
M  V30 10090 H 932.571 -2.57788 -4.24098 0
M  V30 10091 H 927.827 -3.91613 -4.69521 0
M  V30 10092 H 932.001 -4.85874 -4.98899 0
M  V30 10093 H 929.628 -5.53307 -5.21302 0
M  V30 10094 N 931.203 1.46865 -0.571711 0
M  V30 10095 C 932.431 2.06818 -0.0583975 0
M  V30 10096 C 932.846 1.42218 1.24175 0
M  V30 10097 O 932.203 0.523655 1.74826 0
M  V30 10098 C 932.254 3.61281 0.125673 0
M  V30 10099 O 931.975 4.23462 -1.123 0
M  V30 10100 C 933.476 4.38137 0.674604 0
M  V30 10101 H 930.696 0.668948 -0.052438 0
M  V30 10102 H 933.24 1.88656 -0.789251 0
M  V30 10103 H 931.395 3.78908 0.806707 0
M  V30 10104 H 931.809 5.16192 -0.929869 0
M  V30 10105 H 933.283 5.46845 0.752626 0
M  V30 10106 H 933.76 4.05419 1.68915 0
M  V30 10107 H 934.366 4.2529 0.0287979 0
M  V30 10108 N 932.681 0.308908 1.54543 0
M  V30 10109 C 934.097 -0.0442273 1.59539 0
M  V30 10110 C 934.297 -1.51743 1.32575 0
M  V30 10111 O 933.353 -2.27134 1.10302 0
M  V30 10112 C 934.666 0.360826 2.98527 0
M  V30 10113 C 936.214 0.310252 3.11459 0
M  V30 10114 C 936.689 0.690246 4.52769 0
M  V30 10115 N 938.18 0.643084 4.58714 0
M  V30 10116 C 938.915 0.909483 5.66141 0
M  V30 10117 N 938.411 1.24226 6.81572 0
M  V30 10118 N 940.204 0.836018 5.55848 0
M  V30 10119 H 932.355 1.26893 1.70329 0
M  V30 10120 H 934.618 0.514986 0.795923 0
M  V30 10121 H 934.324 1.38669 3.23209 0
M  V30 10122 H 934.198 -0.281563 3.76148 0
M  V30 10123 H 936.585 -0.706375 2.86521 0
M  V30 10124 H 936.666 0.987373 2.35976 0
M  V30 10125 H 936.31 1.70472 4.78437 0
M  V30 10126 H 936.24 -0.00903075 5.26599 0
M  V30 10127 H 938.731 0.397138 3.75807 0
M  V30 10128 H 939.044 1.4313 7.5943 0
M  V30 10129 H 937.389 1.28038 6.83104 0
M  V30 10130 H 940.58 0.575637 4.64547 0
M  V30 10131 H 940.753 1.047 6.39486 0
M  V30 10132 N 934.159 -1.57557 0.0367827 0
M  V30 10133 C 935.405 -1.92399 -0.641133 0
M  V30 10134 C 935.738 -0.914191 -1.71336 0
M  V30 10135 O 935.013 0.0619616 -1.94401 0
M  V30 10136 C 935.296 -3.37689 -1.25052 0
M  V30 10137 C 935.149 -4.4941 -0.187326 0
M  V30 10138 C 936.468 -3.8309 -2.16634 0
M  V30 10139 H 933.587 -0.699666 -0.231597 0
M  V30 10140 H 936.229 -1.89759 0.0956083 0
M  V30 10141 H 934.379 -3.40069 -1.87843 0
M  V30 10142 H 936.051 -4.59161 0.443736 0
M  V30 10143 H 934.294 -4.31065 0.486313 0
M  V30 10144 H 934.965 -5.48119 -0.653459 0
M  V30 10145 H 937.441 -3.82494 -1.63821 0
M  V30 10146 H 936.317 -4.85429 -2.56222 0
M  V30 10147 H 936.578 -3.19028 -3.06062 0
M  V30 10148 N 935.637 0.236453 -1.55816 0
M  V30 10149 C 937.048 0.80468 -1.68469 0
M  V30 10150 C 937.399 1.85601 -0.636133 0
M  V30 10151 O 936.524 2.15323 0.215622 0
M  V30 10152 C 937.119 1.46634 -3.05424 0
M  V30 10153 C 935.678 1.98214 -3.19981 0
M  V30 10154 C 934.825 0.83695 -2.64368 0
M  V30 10155 H 937.776 0.0120647 -1.58695 0
M  V30 10156 H 937.797 2.33472 -3.00451 0
M  V30 10157 H 937.309 0.700931 -3.81718 0
M  V30 10158 H 935.41 2.77604 -2.4853 0
M  V30 10159 H 935.523 2.17235 -4.2702 0
M  V30 10160 H 933.887 1.24028 -2.22462 0
M  V30 10161 H 934.67 0.084451 -3.43196 0
M  V30 10162 N 937.115 1.49373 0.502552 0
M  V30 10163 C 938.34 1.62752 1.28556 0
M  V30 10164 C 938.765 0.298285 1.8572 0
M  V30 10165 O 938.123 -0.733885 1.65782 0
M  V30 10166 C 938.171 2.69778 2.39274 0
M  V30 10167 O 937.275 2.28843 3.43081 0
M  V30 10168 H 936.616 0.544799 0.379592 0
M  V30 10169 H 939.146 1.9555 0.601792 0
M  V30 10170 H 939.156 2.91899 2.8506 0
M  V30 10171 H 937.831 3.66266 1.97033 0
M  V30 10172 H 936.408 2.17047 3.03224 0
M  V30 10173 N 938.594 -0.753485 1.38421 0
M  V30 10174 C 939.842 -1.50962 1.34368 0
M  V30 10175 C 940.163 -1.94889 -0.0656895 0
M  V30 10176 O 939.433 -1.67652 -1.01339 0
M  V30 10177 H 938.013 -0.559967 0.494415 0
M  V30 10178 H 940.675 -0.895665 1.73101 0
M  V30 10179 H 939.771 -2.40048 1.99458 0
M  V30 10180 N 940.072 -1.23292 -0.981677 0
M  V30 10181 C 941.32 -1.06214 -1.71939 0
M  V30 10182 C 941.641 0.401989 -1.90812 0
M  V30 10183 O 940.911 1.28825 -1.47584 0
M  V30 10184 H 939.491 -0.390042 -0.637084 0
M  V30 10185 H 942.153 -1.54988 -1.18173 0
M  V30 10186 H 941.249 -1.54904 -2.70945 0
M  V30 10187 N 941.55 1.18024 -1.04442 0
M  V30 10188 C 942.78 1.91753 -0.769044 0
M  V30 10189 C 943.188 1.76629 0.678141 0
M  V30 10190 O 942.531 1.09589 1.47431 0
M  V30 10191 C 942.593 3.43505 -1.0604 0
M  V30 10192 C 942.257 3.82409 -2.50225 0
M  V30 10193 C 943.254 3.8588 -3.48414 0
M  V30 10194 C 940.939 4.13594 -2.85036 0
M  V30 10195 C 942.933 4.19993 -4.79463 0
M  V30 10196 C 940.62 4.47377 -4.1629 0
M  V30 10197 C 941.618 4.50553 -5.13314 0
M  V30 10198 O 941.306 4.83546 -6.42214 0
M  V30 10199 H 941.038 0.615466 -0.279603 0
M  V30 10200 H 943.592 1.5065 -1.3962 0
M  V30 10201 H 941.822 3.84866 -0.376125 0
M  V30 10202 H 943.511 3.98486 -0.772235 0
M  V30 10203 H 944.277 3.6192 -3.2286 0
M  V30 10204 H 940.156 4.10297 -2.10185 0
M  V30 10205 H 943.7 4.22387 -5.55189 0
M  V30 10206 H 939.597 4.70798 -4.4161 0
M  V30 10207 H 940.365 5.01433 -6.46921 0
M  V30 10208 N 943.028 0.824394 1.34319 0
M  V30 10209 C 944.253 0.425194 2.02995 0
M  V30 10210 C 944.678 -0.961476 1.6167 0
M  V30 10211 O 944.036 -1.62593 0.80207 0
M  V30 10212 C 944.084 0.537004 3.56579 0
M  V30 10213 O 943.188 -0.442576 4.10018 0
M  V30 10214 H 942.529 0.174853 0.640564 0
M  V30 10215 H 945.059 1.11522 1.71534 0
M  V30 10216 H 945.069 0.413311 4.05901 0
M  V30 10217 H 943.744 1.54836 3.86004 0
M  V30 10218 H 942.321 -0.277644 3.71865 0
M  V30 10219 N 944.506 -1.46559 0.579492 0
M  V30 10220 C 945.731 -2.0729 0.0674595 0
M  V30 10221 C 946.156 -1.4259 -1.22677 0
M  V30 10222 O 945.514 -0.50857 -1.74021 0
M  V30 10223 C 945.562 -3.60492 -0.0882227 0
M  V30 10224 O 944.666 -3.96172 -1.14551 0
M  V30 10225 H 944.007 -0.661159 0.0613536 0
M  V30 10226 H 946.537 -1.88247 0.801519 0
M  V30 10227 H 946.547 -4.06929 -0.295411 0
M  V30 10228 H 945.222 -4.06976 0.856943 0
M  V30 10229 H 943.799 -3.61448 -0.917033 0
M  V30 10230 N 945.984 -0.3171 -1.54377 0
M  V30 10231 C 947.233 0.288271 -1.99629 0
M  V30 10232 C 947.546 1.53754 -1.2091 0
M  V30 10233 O 948.752 2.2185 -1.56508 0
M  V30 10234 C 947.208 0.564188 -3.5545 0
M  V30 10235 C 946.816 -0.667659 -4.42997 0
M  V30 10236 C 948.56 1.12987 -4.09187 0
M  V30 10237 C 946.467 -0.364003 -5.90279 0
M  V30 10238 H 945.397 0.111492 -0.745711 0
M  V30 10239 H 948.048 -0.428317 -1.78431 0
M  V30 10240 H 946.43 1.34079 -3.72611 0
M  V30 10241 H 947.604 -1.44335 -4.37612 0
M  V30 10242 H 945.919 -1.1531 -4.00116 0
M  V30 10243 H 948.516 1.37157 -5.1681 0
M  V30 10244 H 948.859 2.07722 -3.60773 0
M  V30 10245 H 949.392 0.414595 -3.95634 0
M  V30 10246 H 946.131 -1.28035 -6.42874 0
M  V30 10247 H 945.651 0.374102 -5.98632 0
M  V30 10248 H 947.33 0.0285433 -6.46994 0
M  V30 10249 N 947.462 1.57535 -0.0451378 0
M  V30 10250 C 948.41 2.12351 0.949205 0
M  V30 10251 C 949.404 1.05386 1.32628 0
M  V30 10252 O 950.61 1.23802 1.30664 0
M  V30 10253 H 946.985 0.678648 0.323945 0
M  V30 10254 H 948.956 2.94806 0.461718 0
M  V30 10255 C 947.705 2.67862 2.21687 0
M  V30 10256 H 947.028 3.49826 1.93551 0
M  V30 10257 H 948.468 3.09844 2.89435 0
M  V30 10258 C 946.927 1.61353 2.95748 0
M  V30 10259 O 947.457 1.02276 3.88462 0
M  V30 10260 N 945.663 1.33017 2.5837 0
M  V30 10261 H 945.21 1.81246 1.83051 0
M  V30 10262 H 945.168 0.619812 3.0823 0
M  V30 10263 N 948.94 -0.228186 1.55939 0
M  V30 10264 C 949.888 -1.30239 1.92719 0
M  V30 10265 C 950.882 -1.48865 0.808424 0
M  V30 10266 O 952.088 -1.50118 0.993204 0
M  V30 10267 H 948.463 -0.436509 0.612343 0
M  V30 10268 H 950.434 -0.964965 2.82367 0
M  V30 10269 C 949.183 -2.647 2.25453 0
M  V30 10270 H 948.506 -2.51173 3.1105 0
M  V30 10271 H 949.946 -3.38691 2.55077 0
M  V30 10272 C 948.405 -3.1921 1.07734 0
M  V30 10273 O 948.935 -4.00301 0.335019 0
M  V30 10274 N 947.141 -2.77492 0.862938 0
M  V30 10275 H 946.688 -2.11657 1.4683 0
M  V30 10276 H 946.646 -3.14306 0.0770119 0
M  V30 10277 N 950.418 -1.49637 -0.494624 0
M  V30 10278 C 951.664 -1.59681 -1.25019 0
M  V30 10279 C 951.997 -0.285511 -1.9209 0
M  V30 10280 O 951.272 0.711398 -1.81023 0
M  V30 10281 C 951.555 -2.76058 -2.31222 0
M  V30 10282 C 951.408 -4.17002 -1.68611 0
M  V30 10283 C 952.727 -2.88056 -3.32734 0
M  V30 10284 H 949.846 -0.581209 -0.453172 0
M  V30 10285 H 952.488 -1.81944 -0.547391 0
M  V30 10286 H 950.638 -2.57207 -2.91164 0
M  V30 10287 H 952.31 -4.47385 -1.12447 0
M  V30 10288 H 950.553 -4.22352 -0.989991 0
M  V30 10289 H 951.224 -4.94316 -2.45674 0
M  V30 10290 H 953.7 -3.05237 -2.82789 0
M  V30 10291 H 952.576 -3.71151 -4.04399 0
M  V30 10292 H 952.837 -1.97676 -3.95445 0
M  V30 10293 N 951.896 0.746133 -1.38819 0
M  V30 10294 C 952.828 1.86991 -1.3254 0
M  V30 10295 C 953.841 1.61077 -0.236216 0
M  V30 10296 O 955.03 1.71518 -0.494341 0
M  V30 10297 C 952.13 3.22786 -1.03258 0
M  V30 10298 C 951.303 3.76145 -2.23234 0
M  V30 10299 C 950.362 4.90474 -1.90581 0
M  V30 10300 O 949.388 5.04717 -2.63153 0
M  V30 10301 N 950.59 5.74015 -0.86525 0
M  V30 10302 H 953.355 1.92885 -2.2938 0
M  V30 10303 H 950.916 0.926392 -1.32776 0
M  V30 10304 H 952.908 3.96824 -0.794533 0
M  V30 10305 H 951.478 3.12231 -0.151895 0
M  V30 10306 H 950.698 2.93587 -2.63059 0
M  V30 10307 H 951.986 4.08528 -3.03285 0
M  V30 10308 H 951.384 5.65086 -0.263577 0
M  V30 10309 H 949.941 6.48168 -0.687087 0
M  V30 10310 N 953.375 1.23811 0.975125 0
M  V30 10311 C 954.652 0.9815 1.69192 0
M  V30 10312 C 955.032 -0.498373 2.05133 0
M  V30 10313 O 954.38 -1.47087 1.74864 0
M  V30 10314 C 954.59 1.89701 2.92941 0
M  V30 10315 C 955.938 2.16357 3.65342 0
M  V30 10316 O 956.962 1.87293 3.02985 0
M  V30 10317 O 955.821 2.65675 4.77576 0
M  V30 10318 H 952.915 0.370599 0.739314 0
M  V30 10319 H 955.461 1.34876 1.02988 0
M  V30 10320 H 954.233 2.89719 2.63018 0
M  V30 10321 H 953.856 1.53244 3.66881 0
M  V30 10322 N 954.853 -1.17469 1.05066 0
M  V30 10323 C 956.264 -1.69334 0.786304 0
M  V30 10324 C 956.615 -1.83604 -0.691671 0
M  V30 10325 O 955.74 -1.52269 -1.53763 0
M  V30 10326 C 956.335 -3.07572 1.42074 0
M  V30 10327 C 954.894 -3.56609 1.20446 0
M  V30 10328 C 954.041 -2.329 1.50508 0
M  V30 10329 H 956.992 -1.02003 1.21577 0
M  V30 10330 H 957.013 -3.71352 0.829334 0
M  V30 10331 H 956.525 -2.97154 2.49642 0
M  V30 10332 H 954.626 -3.72306 0.147968 0
M  V30 10333 H 954.739 -4.39446 1.90852 0
M  V30 10334 H 953.103 -2.37305 0.925124 0
M  V30 10335 H 953.886 -2.25093 2.59207 0
M  V30 10336 N 956.331 -0.831506 -1.3388 0
M  V30 10337 C 957.263 -0.216908 -2.28171 0
M  V30 10338 C 958.276 0.598141 -1.51414 0
M  V30 10339 O 959.465 0.426416 -1.73332 0
M  V30 10340 C 956.565 0.713831 -3.31297 0
M  V30 10341 C 955.738 -0.0602673 -4.37358 0
M  V30 10342 C 954.797 0.792696 -5.20195 0
M  V30 10343 O 953.823 0.234564 -5.68716 0
M  V30 10344 N 955.025 2.11119 -5.40748 0
M  V30 10345 H 957.79 -1.02704 -2.81553 0
M  V30 10346 H 955.351 -0.689272 -1.46495 0
M  V30 10347 H 957.343 1.28925 -3.83615 0
M  V30 10348 H 955.913 1.42469 -2.78247 0
M  V30 10349 H 955.133 -0.817041 -3.8564 0
M  V30 10350 H 956.421 -0.592822 -5.05335 0
M  V30 10351 H 955.819 2.58828 -5.03016 0
M  V30 10352 H 954.376 2.63527 -5.96151 0
M  V30 10353 N 957.809 1.4625 -0.587256 0
M  V30 10354 C 958.756 2.30354 0.143384 0
M  V30 10355 C 959.726 1.40891 0.879716 0
M  V30 10356 O 960.911 1.69837 0.869486 0
M  V30 10357 C 958.051 3.25441 1.14815 0
M  V30 10358 C 957.164 4.30004 0.414792 0
M  V30 10359 C 956.299 5.12214 1.40748 0
M  V30 10360 C 955.338 6.08523 0.660786 0
M  V30 10361 N 954.475 6.83585 1.60176 0
M  V30 10362 H 959.315 2.92304 -0.579866 0
M  V30 10363 H 956.852 1.44055 -0.29777 0
M  V30 10364 H 958.81 3.79018 1.7436 0
M  V30 10365 H 957.44 2.6529 1.83906 0
M  V30 10366 H 956.492 3.79248 -0.295787 0
M  V30 10367 H 957.804 4.98515 -0.168738 0
M  V30 10368 H 956.958 5.70091 2.0756 0
M  V30 10369 H 955.697 4.43675 2.02494 0
M  V30 10370 H 954.702 5.49796 -0.0210864 0
M  V30 10371 H 955.927 6.79083 0.0486551 0
M  V30 10372 H 953.873 6.17752 2.20724 0
M  V30 10373 H 953.79 7.48373 1.07115 0
M  V30 10374 H 955.058 7.46016 2.26009 0
M  V30 10375 N 959.287 0.325282 1.54207 0
M  V30 10376 C 960.698 -0.162426 1.85992 0
M  V30 10377 C 961.049 -1.51482 1.2469 0
M  V30 10378 O 960.174 -2.092 0.553578 0
M  V30 10379 C 960.769 -0.3015 3.37456 0
M  V30 10380 C 959.328 -0.73343 3.69185 0
M  V30 10381 C 958.475 0.143831 2.76927 0
M  V30 10382 H 961.426 0.545508 1.4903 0
M  V30 10383 H 961.447 -1.13212 3.63268 0
M  V30 10384 H 960.959 0.682942 3.82044 0
M  V30 10385 H 959.06 -1.72755 3.30131 0
M  V30 10386 H 959.173 -0.535987 4.76092 0
M  V30 10387 H 957.537 -0.380892 2.51836 0
M  V30 10388 H 958.32 1.12507 3.24341 0
M  V30 10389 N 960.765 -1.57509 0.0534917 0
M  V30 10390 C 961.675 -2.15152 -0.935249 0
M  V30 10391 C 962.691 -1.10991 -1.34003 0
M  V30 10392 O 963.867 -1.43171 -1.41648 0
M  V30 10393 C 960.932 -2.68699 -2.19093 0
M  V30 10394 C 959.993 -3.87666 -1.84428 0
M  V30 10395 C 959.226 -4.3865 -3.0401 0
M  V30 10396 O 959.449 -3.887 -4.17455 0
M  V30 10397 O 958.383 -5.30209 -2.84889 0
M  V30 10398 H 962.209 -2.99962 -0.475009 0
M  V30 10399 H 959.794 -1.48446 -0.16854 0
M  V30 10400 H 961.676 -3.03098 -2.92762 0
M  V30 10401 H 960.351 -1.86958 -2.6425 0
M  V30 10402 H 959.258 -3.58151 -1.08068 0
M  V30 10403 H 960.591 -4.70643 -1.44068 0
M  V30 10404 N 962.243 0.219913 -1.56058 0
M  V30 10405 C 963.654 0.786766 -1.69313 0
M  V30 10406 C 964.005 1.84916 -0.655782 0
M  V30 10407 O 963.13 2.1554 0.192772 0
M  V30 10408 C 963.725 1.43387 -3.06962 0
M  V30 10409 C 962.284 1.94809 -3.22066 0
M  V30 10410 C 961.431 0.808863 -2.65241 0
M  V30 10411 H 964.382 -0.00476777 -1.58699 0
M  V30 10412 H 964.403 2.30272 -3.02911 0
M  V30 10413 H 963.915 0.660405 -3.8244 0
M  V30 10414 H 962.016 2.74952 -2.5146 0
M  V30 10415 H 962.129 2.12694 -4.293 0
M  V30 10416 H 960.493 1.21661 -2.23765 0
M  V30 10417 H 961.276 0.0480458 -3.43266 0
M  V30 10418 N 963.721 1.49897 0.486681 0
M  V30 10419 C 965.137 1.36977 0.819109 0
M  V30 10420 C 965.337 0.41385 1.97204 0
M  V30 10421 O 964.393 -0.149249 2.52059 0
M  V30 10422 C 965.706 2.78013 1.14584 0
M  V30 10423 C 967.254 2.86816 1.25321 0
M  V30 10424 C 967.729 4.28651 1.61316 0
M  V30 10425 N 969.22 4.31528 1.68337 0
M  V30 10426 C 969.955 5.38254 1.97662 0
M  V30 10427 N 969.451 6.55207 2.25113 0
M  V30 10428 N 971.244 5.25683 1.99033 0
M  V30 10429 H 963.395 2.10634 -0.273364 0
M  V30 10430 H 965.658 0.946116 -0.0597418 0
M  V30 10431 H 965.364 3.49728 0.371892 0
M  V30 10432 H 965.238 3.1428 2.08585 0
M  V30 10433 H 967.625 2.15329 2.01785 0
M  V30 10434 H 967.706 2.54112 0.293368 0
M  V30 10435 H 967.35 5.00669 0.853968 0
M  V30 10436 H 967.28 4.5883 2.58424 0
M  V30 10437 H 969.771 3.47189 1.49226 0
M  V30 10438 H 970.084 7.32359 2.46717 0
M  V30 10439 H 968.429 6.58408 2.22538 0
M  V30 10440 H 971.62 4.33316 1.77074 0
M  V30 10441 H 971.793 6.08949 2.21552 0
M  V30 10442 N 965.199 -0.738761 1.39212 0
M  V30 10443 C 966.476 -1.48982 1.26742 0
M  V30 10444 C 966.856 -2.10732 -0.12466 0
M  V30 10445 O 966.204 -1.98287 -1.13554 0
M  V30 10446 C 966.414 -2.54427 2.38889 0
M  V30 10447 C 967.762 -3.20915 2.78027 0
M  V30 10448 O 968.786 -2.64738 2.38311 0
M  V30 10449 O 967.645 -4.22558 3.46565 0
M  V30 10450 H 964.739 -0.661395 0.496473 0
M  V30 10451 H 967.285 -0.772907 1.51077 0
M  V30 10452 H 966.057 -2.07151 3.3197 0
M  V30 10453 H 965.68 -3.33682 2.162 0
M  V30 10454 N 966.677 -1.24326 -0.968545 0
M  V30 10455 C 967.624 -1.0349 -2.06297 0
M  V30 10456 C 968.594 0.0515333 -1.6602 0
M  V30 10457 O 969.779 -0.102924 -1.90522 0
M  V30 10458 C 966.919 -0.64487 -3.39021 0
M  V30 10459 C 966.032 -1.80469 -3.92498 0
M  V30 10460 C 965.167 -1.36032 -5.13487 0
M  V30 10461 C 964.206 -2.49014 -5.59159 0
M  V30 10462 N 963.343 -2.05451 -6.71367 0
M  V30 10463 H 968.183 -1.97161 -2.23454 0
M  V30 10464 H 965.72 -0.982028 -1.0952 0
M  V30 10465 H 967.678 -0.399771 -4.1528 0
M  V30 10466 H 966.308 0.254845 -3.21792 0
M  V30 10467 H 965.36 -2.16348 -3.12886 0
M  V30 10468 H 966.672 -2.65365 -4.22354 0
M  V30 10469 H 965.826 -1.07405 -5.97117 0
M  V30 10470 H 964.565 -0.481887 -4.85313 0
M  V30 10471 H 963.57 -2.78402 -4.74102 0
M  V30 10472 H 964.795 -3.37413 -5.89346 0
M  V30 10473 H 962.741 -1.20004 -6.4493 0
M  V30 10474 H 962.658 -2.83901 -7.00668 0
M  V30 10475 H 963.926 -1.79962 -7.58442 0
M  V30 10476 N 968.156 1.1691 -1.05688 0
M  V30 10477 C 969.089 2.19992 -0.606539 0
M  V30 10478 C 970.067 1.58393 0.367483 0
M  V30 10479 O 971.251 1.8644 0.277914 0
M  V30 10480 C 968.378 3.38516 0.111663 0
M  V30 10481 C 967.424 4.18579 -0.818153 0
M  V30 10482 S 968.257 4.83111 -2.31006 0
M  V30 10483 C 969.413 6.0502 -1.60317 0
M  V30 10484 H 969.646 2.57851 -1.47987 0
M  V30 10485 H 967.179 1.27604 -0.869291 0
M  V30 10486 H 969.137 4.07195 0.519829 0
M  V30 10487 H 967.798 2.99034 0.961103 0
M  V30 10488 H 966.991 5.03318 -0.262092 0
M  V30 10489 H 966.593 3.55362 -1.16592 0
M  V30 10490 H 968.885 6.71424 -0.905309 0
M  V30 10491 H 969.828 6.65164 -2.42823 0
M  V30 10492 H 970.236 5.53908 -1.08842 0
M  V30 10493 N 969.634 0.838594 1.33437 0
M  V30 10494 C 970.544 0.274048 2.32994 0
M  V30 10495 C 971.56 -0.599776 1.63336 0
M  V30 10496 O 972.736 -0.503963 1.94993 0
M  V30 10497 C 969.801 -0.541804 3.4244 0
M  V30 10498 C 968.862 0.356262 4.27819 0
M  V30 10499 C 968.095 -0.420747 5.32039 0
M  V30 10500 O 968.318 -1.65247 5.45939 0
M  V30 10501 O 967.252 0.205101 6.0155 0
M  V30 10502 H 971.078 1.09846 2.83139 0
M  V30 10503 H 968.663 0.601111 1.36774 0
M  V30 10504 H 970.545 -1.00544 4.0923 0
M  V30 10505 H 969.22 -1.34328 2.94513 0
M  V30 10506 H 968.127 0.867726 3.63897 0
M  V30 10507 H 969.46 1.1225 4.79229 0
M  V30 10508 N 971.112 -1.45937 0.595003 0
M  V30 10509 C 972.337 -2.07207 0.0894416 0
M  V30 10510 C 972.762 -1.43884 -1.21157 0
M  V30 10511 O 972.12 -0.526998 -1.73472 0
M  V30 10512 C 972.168 -3.60565 -0.0499828 0
M  V30 10513 O 971.272 -3.97364 -1.10342 0
M  V30 10514 H 970.613 -0.660471 0.0683627 0
M  V30 10515 H 973.143 -1.87386 0.82144 0
M  V30 10516 H 973.153 -4.0722 -0.252234 0
M  V30 10517 H 971.828 -4.06044 0.90006 0
M  V30 10518 H 970.405 -3.62401 -0.878645 0
M  V30 10519 N 972.59 -0.333456 -1.54032 0
M  V30 10520 C 973.837 0.266133 -2.00744 0
M  V30 10521 C 974.165 1.51361 -1.22148 0
M  V30 10522 O 973.42 1.93473 -0.294368 0
M  V30 10523 C 973.719 0.63565 -3.51702 0
M  V30 10524 C 973.385 -0.513786 -4.47963 0
M  V30 10525 C 972.047 -0.829253 -4.74001 0
M  V30 10526 C 974.399 -1.2854 -5.05101 0
M  V30 10527 C 971.727 -1.91888 -5.54433 0
M  V30 10528 C 974.079 -2.3652 -5.86721 0
M  V30 10529 C 972.743 -2.68637 -6.11057 0
M  V30 10530 H 972.013 0.097385 -0.734573 0
M  V30 10531 H 974.66 -0.459282 -1.85911 0
M  V30 10532 H 972.965 1.44163 -3.64313 0
M  V30 10533 H 974.662 1.11129 -3.85294 0
M  V30 10534 H 971.252 -0.25784 -4.27824 0
M  V30 10535 H 975.436 -1.05494 -4.84958 0
M  V30 10536 H 970.692 -2.17208 -5.71516 0
M  V30 10537 H 974.866 -2.96747 -6.30011 0
M  V30 10538 H 972.493 -3.53197 -6.73169 0
M  V30 10539 N 974.068 1.57479 -0.061844 0
M  V30 10540 C 975.315 1.93108 0.60954 0
M  V30 10541 C 975.643 0.941086 1.70217 0
M  V30 10542 O 974.898 -0.044914 1.95648 0
M  V30 10543 C 975.197 3.35394 1.23474 0
M  V30 10544 C 974.863 4.50095 0.269247 0
M  V30 10545 C 973.525 4.812 0.00360316 0
M  V30 10546 C 975.877 5.19725 -0.391839 0
M  V30 10547 C 973.205 5.79276 -0.930383 0
M  V30 10548 C 975.557 6.18801 -1.31408 0
M  V30 10549 C 974.221 6.48328 -1.58829 0
M  V30 10550 H 973.491 0.706634 0.223046 0
M  V30 10551 H 976.138 1.91054 -0.1306 0
M  V30 10552 H 974.443 3.33866 2.05039 0
M  V30 10553 H 976.14 3.60247 1.76134 0
M  V30 10554 H 972.73 4.2583 0.486477 0
M  V30 10555 H 976.914 4.95898 -0.199713 0
M  V30 10556 H 972.17 6.00484 -1.15019 0
M  V30 10557 H 976.344 6.71862 -1.83234 0
M  V30 10558 H 973.971 7.24137 -2.31363 0
M  V30 10559 N 975.546 -0.211634 1.56173 0
M  V30 10560 C 976.476 -1.26533 1.96244 0
M  V30 10561 C 977.457 -1.48362 0.832028 0
M  V30 10562 O 978.642 -1.60378 1.0951 0
M  V30 10563 C 975.772 -2.61307 2.2877 0
M  V30 10564 C 974.726 -2.54119 3.44395 0
M  V30 10565 C 974.052 -3.93014 3.62552 0
M  V30 10566 C 975.352 -2.08046 4.79076 0
M  V30 10567 H 977.046 -0.932407 2.84511 0
M  V30 10568 H 974.592 -0.447084 1.36884 0
M  V30 10569 H 976.545 -3.35188 2.55396 0
M  V30 10570 H 975.269 -2.96307 1.37367 0
M  V30 10571 H 973.928 -1.82694 3.17834 0
M  V30 10572 H 973.576 -4.25338 2.68508 0
M  V30 10573 H 973.276 -3.89083 4.40327 0
M  V30 10574 H 974.8 -4.68542 3.91537 0
M  V30 10575 H 976.214 -2.71676 5.04842 0
M  V30 10576 H 974.611 -2.15154 5.60204 0
M  V30 10577 H 975.681 -1.03306 4.73768 0
M  V30 10578 N 977.024 -1.50153 -0.478725 0
M  V30 10579 C 978.272 -1.60443 -1.22892 0
M  V30 10580 C 978.593 -0.303276 -1.92627 0
M  V30 10581 O 977.863 0.678798 -1.83764 0
M  V30 10582 H 976.443 -0.591205 -0.456602 0
M  V30 10583 H 979.105 -1.86893 -0.552905 0
M  V30 10584 H 978.201 -2.41175 -1.98094 0
M  V30 10585 N 978.502 0.731368 -1.39602 0
M  V30 10586 C 979.412 1.87579 -1.40894 0
M  V30 10587 C 980.428 1.71336 -0.303319 0
M  V30 10588 O 981.604 1.93875 -0.545377 0
M  V30 10589 C 978.669 3.23211 -1.25442 0
M  V30 10590 C 977.73 3.51822 -2.46008 0
M  V30 10591 C 976.963 4.80982 -2.31284 0
M  V30 10592 O 977.186 5.54958 -1.31824 0
M  V30 10593 O 976.12 5.09574 -3.20341 0
M  V30 10594 H 979.946 1.89444 -2.3737 0
M  V30 10595 H 977.531 0.879675 -1.20756 0
M  V30 10596 H 979.413 4.04257 -1.18972 0
M  V30 10597 H 978.088 3.22108 -0.320637 0
M  V30 10598 H 976.995 2.70847 -2.58055 0
M  V30 10599 H 978.328 3.57707 -3.38093 0
M  V30 10600 N 979.98 1.24838 0.961938 0
M  V30 10601 C 981.208 1.11871 1.74047 0
M  V30 10602 C 981.623 -0.328209 1.85925 0
M  V30 10603 O 980.98 -1.22616 1.35173 0
M  V30 10604 C 981.031 1.75931 3.15801 0
M  V30 10605 O 980.752 3.14967 3.04512 0
M  V30 10606 C 982.253 1.68649 4.09966 0
M  V30 10607 H 979.473 0.390569 0.545616 0
M  V30 10608 H 982.017 1.65058 1.20732 0
M  V30 10609 H 980.172 1.26733 3.66084 0
M  V30 10610 H 980.586 3.46349 3.93882 0
M  V30 10611 H 982.06 2.18144 5.07067 0
M  V30 10612 H 982.537 0.648831 4.34381 0
M  V30 10613 H 983.143 2.17301 3.65596 0
M  V30 10614 N 981.458 -1.16348 1.06306 0
M  V30 10615 C 982.388 -2.2291 0.695234 0
M  V30 10616 C 983.369 -1.67208 -0.312343 0
M  V30 10617 O 984.554 -1.93293 -0.187442 0
M  V30 10618 C 981.684 -3.47205 0.0810149 0
M  V30 10619 C 980.638 -4.15801 1.01458 0
M  V30 10620 C 979.964 -5.3405 0.263656 0
M  V30 10621 C 981.264 -4.66766 2.34365 0
M  V30 10622 H 982.958 -2.53934 1.58613 0
M  V30 10623 H 980.504 -1.22056 0.76409 0
M  V30 10624 H 982.457 -4.2098 -0.18818 0
M  V30 10625 H 981.181 -3.15482 -0.844897 0
M  V30 10626 H 979.84 -3.43954 1.26852 0
M  V30 10627 H 979.488 -4.9858 -0.665378 0
M  V30 10628 H 979.188 -5.80885 0.88582 0
M  V30 10629 H 980.712 -6.106 0.00200994 0
M  V30 10630 H 982.126 -5.3212 2.13356 0
M  V30 10631 H 980.523 -5.24223 2.9208 0
M  V30 10632 H 981.593 -3.82969 2.97426 0
M  V30 10633 N 982.937 -0.845659 -1.3299 0
M  V30 10634 C 983.884 -0.281761 -2.29074 0
M  V30 10635 C 984.854 0.606237 -1.54641 0
M  V30 10636 O 986.039 0.543063 -1.82908 0
M  V30 10637 C 983.179 0.531451 -3.40983 0
M  V30 10638 C 982.292 -0.381328 -4.30314 0
M  V30 10639 C 981.427 0.443643 -5.29344 0
M  V30 10640 C 980.466 -0.467101 -6.10315 0
M  V30 10641 N 979.603 0.320148 -7.0137 0
M  V30 10642 H 984.443 -1.10641 -2.76699 0
M  V30 10643 H 981.98 -0.55706 -1.36144 0
M  V30 10644 H 983.938 1.01848 -4.04577 0
M  V30 10645 H 982.568 1.32101 -2.94532 0
M  V30 10646 H 981.62 -0.986701 -3.6738 0
M  V30 10647 H 982.932 -1.08067 -4.86953 0
M  V30 10648 H 982.086 0.994212 -5.98498 0
M  V30 10649 H 980.825 1.17639 -4.73299 0
M  V30 10650 H 979.83 -1.02963 -5.40073 0
M  V30 10651 H 981.055 -1.19832 -6.68444 0
M  V30 10652 H 979.001 1.03615 -6.47765 0
M  V30 10653 H 978.918 -0.320338 -7.55321 0
M  V30 10654 H 980.186 0.852735 -7.74822 0
M  V30 10655 N 984.415 1.45619 -0.602734 0
M  V30 10656 C 985.645 2.06348 -0.102105 0
M  V30 10657 C 986.053 1.44884 1.21677 0
M  V30 10658 O 985.396 0.555559 1.75098 0
M  V30 10659 C 985.458 3.59309 0.117026 0
M  V30 10660 C 985.122 4.43081 -1.11931 0
M  V30 10661 C 986.119 4.78364 -2.03627 0
M  V30 10662 C 983.804 4.83908 -1.34677 0
M  V30 10663 C 985.798 5.53325 -3.16403 0
M  V30 10664 C 983.485 5.58624 -2.47754 0
M  V30 10665 C 984.483 5.93249 -3.38445 0
M  V30 10666 O 984.171 6.6645 -4.49555 0
M  V30 10667 H 983.903 0.672988 -0.0637478 0
M  V30 10668 H 986.457 1.87928 -0.828983 0
M  V30 10669 H 984.687 3.76111 0.898742 0
M  V30 10670 H 986.376 4.01897 0.568649 0
M  V30 10671 H 987.142 4.47384 -1.87277 0
M  V30 10672 H 983.021 4.56396 -0.649875 0
M  V30 10673 H 986.565 5.80268 -3.87214 0
M  V30 10674 H 982.462 5.89019 -2.64059 0
M  V30 10675 H 983.23 6.84895 -4.48175 0
M  V30 10676 N 985.893 0.34162 1.53853 0
M  V30 10677 C 986.823 -0.508431 2.27897 0
M  V30 10678 C 987.804 -1.10425 1.29384 0
M  V30 10679 O 988.989 -1.126 1.58224 0
M  V30 10680 C 986.119 -1.66048 3.05034 0
M  V30 10681 C 985.073 -1.19309 4.11035 0
M  V30 10682 C 984.399 -2.4335 4.76114 0
M  V30 10683 C 985.699 -0.294952 5.21467 0
M  V30 10684 H 987.393 0.109251 2.99201 0
M  V30 10685 H 984.939 0.0539847 1.43899 0
M  V30 10686 H 986.892 -2.26158 3.5557 0
M  V30 10687 H 985.616 -2.30503 2.31379 0
M  V30 10688 H 984.275 -0.614809 3.61408 0
M  V30 10689 H 983.923 -3.06208 3.99056 0
M  V30 10690 H 983.623 -2.1276 5.47729 0
M  V30 10691 H 985.147 -3.0419 5.29434 0
M  V30 10692 H 986.561 -0.80285 5.67651 0
M  V30 10693 H 984.958 -0.0810221 6.00045 0
M  V30 10694 H 986.028 0.669433 4.80257 0
M  V30 10695 N 987.371 -1.57444 0.0701946 0
M  V30 10696 C 988.618 -1.93429 -0.59929 0
M  V30 10697 C 988.946 -0.9501 -1.69715 0
M  V30 10698 O 988.201 0.0345377 -1.9567 0
M  V30 10699 C 988.5 -3.36044 -1.21694 0
M  V30 10700 C 988.166 -4.50232 -0.245374 0
M  V30 10701 C 986.828 -4.81195 0.0219161 0
M  V30 10702 C 989.18 -5.1951 0.419396 0
M  V30 10703 C 986.508 -5.78775 0.96109 0
M  V30 10704 C 988.86 -6.18095 1.34688 0
M  V30 10705 C 987.524 -6.47477 1.62265 0
M  V30 10706 H 986.794 -0.707807 -0.219296 0
M  V30 10707 H 989.441 -1.90982 0.14073 0
M  V30 10708 H 987.746 -3.34948 -2.03265 0
M  V30 10709 H 989.443 -3.61176 -1.74221 0
M  V30 10710 H 986.033 -4.26082 -0.463887 0
M  V30 10711 H 990.217 -4.95785 0.226009 0
M  V30 10712 H 985.473 -5.99865 1.18202 0
M  V30 10713 H 989.647 -6.7088 1.86795 0
M  V30 10714 H 987.274 -7.229 2.352 0
M  V30 10715 N 988.849 0.203349 -1.56283 0
M  V30 10716 C 989.779 1.2549 -1.96912 0
M  V30 10717 C 990.76 1.47919 -0.839884 0
M  V30 10718 O 991.945 1.59795 -1.10359 0
M  V30 10719 C 989.075 2.6009 -2.30153 0
M  V30 10720 C 988.029 2.52289 -3.45738 0
M  V30 10721 C 987.355 3.91086 -3.64632 0
M  V30 10722 C 988.655 2.05503 -4.80173 0
M  V30 10723 H 990.349 0.917306 -2.85002 0
M  V30 10724 H 987.895 0.439818 -1.37119 0
M  V30 10725 H 989.848 3.33829 -2.5717 0
M  V30 10726 H 988.572 2.95574 -1.38937 0
M  V30 10727 H 987.231 1.81006 -3.18798 0
M  V30 10728 H 986.879 4.23908 -2.7076 0
M  V30 10729 H 986.579 3.86742 -4.42385 0
M  V30 10730 H 988.103 4.66459 -3.94016 0
M  V30 10731 H 989.517 2.68995 -5.06275 0
M  V30 10732 H 987.914 2.1218 -5.61337 0
M  V30 10733 H 988.984 1.00793 -4.74309 0
M  V30 10734 N 990.327 1.50405 0.470755 0
M  V30 10735 C 991.257 1.72222 1.57676 0
M  V30 10736 C 992.238 0.57121 1.60222 0
M  V30 10737 O 993.423 0.810381 1.76484 0
M  V30 10738 C 990.553 1.81666 2.95998 0
M  V30 10739 C 989.507 2.96857 3.08318 0
M  V30 10740 C 988.833 2.91445 4.4829 0
M  V30 10741 C 990.133 4.37361 2.85504 0
M  V30 10742 H 991.827 2.64825 1.39671 0
M  V30 10743 H 989.373 1.27438 0.67049 0
M  V30 10744 H 991.326 1.95514 3.73299 0
M  V30 10745 H 990.05 0.856856 3.1516 0
M  V30 10746 H 988.709 2.82661 2.33449 0
M  V30 10747 H 988.357 1.93309 4.64371 0
M  V30 10748 H 988.057 3.68776 4.57469 0
M  V30 10749 H 989.581 3.07341 5.27611 0
M  V30 10750 H 990.995 4.52081 3.52555 0
M  V30 10751 H 989.392 5.16145 3.06127 0
M  V30 10752 H 990.462 4.49708 1.81359 0
M  V30 10753 N 991.805 -0.723954 1.39988 0
M  V30 10754 C 993.052 -1.48371 1.37812 0
M  V30 10755 C 993.38 -1.94487 -0.0223285 0
M  V30 10756 O 992.635 -1.67906 -1.00529 0
M  V30 10757 C 992.934 -2.73004 2.30659 0
M  V30 10758 C 992.6 -2.45698 3.78078 0
M  V30 10759 C 991.262 -2.37961 4.18244 0
M  V30 10760 C 993.614 -2.22601 4.71273 0
M  V30 10761 C 990.942 -2.05183 5.49652 0
M  V30 10762 C 993.294 -1.91339 6.0297 0
M  V30 10763 C 991.958 -1.82078 6.42187 0
M  V30 10764 H 991.228 -0.542929 0.504291 0
M  V30 10765 H 993.875 -0.829986 1.72579 0
M  V30 10766 H 992.18 -3.43174 1.89048 0
M  V30 10767 H 993.877 -3.31068 2.26263 0
M  V30 10768 H 990.467 -2.52603 3.46251 0
M  V30 10769 H 994.651 -2.2754 4.41066 0
M  V30 10770 H 989.907 -1.96544 5.78948 0
M  V30 10771 H 994.081 -1.72479 6.74703 0
M  V30 10772 H 991.708 -1.56446 7.43928 0
M  V30 10773 N 993.283 -1.25346 -0.955304 0
M  V30 10774 C 994.508 -1.12892 -1.73983 0
M  V30 10775 C 994.933 0.313455 -1.8547 0
M  V30 10776 O 994.291 1.22706 -1.33465 0
M  V30 10777 C 994.339 -1.78729 -3.1319 0
M  V30 10778 O 993.443 -1.06648 -3.98372 0
M  V30 10779 H 992.784 -0.394178 -0.534341 0
M  V30 10780 H 995.314 -1.65897 -1.19747 0
M  V30 10781 H 995.324 -1.84987 -3.63653 0
M  V30 10782 H 993.999 -2.83669 -3.04146 0
M  V30 10783 H 992.576 -1.08266 -3.56837 0
M  V30 10784 N 994.761 1.15782 -1.06922 0
M  V30 10785 C 996.038 1.8253 -0.703 0
M  V30 10786 C 996.418 1.94733 0.814994 0
M  V30 10787 O 995.766 1.49537 1.72774 0
M  V30 10788 C 995.976 3.19145 -1.41234 0
M  V30 10789 C 997.324 3.94839 -1.56164 0
M  V30 10790 O 998.348 3.28685 -1.37277 0
M  V30 10791 O 997.207 5.13436 -1.87205 0
M  V30 10792 H 994.301 0.788425 -0.24963 0
M  V30 10793 H 996.847 1.22931 -1.16988 0
M  V30 10794 H 995.619 3.05336 -2.44715 0
M  V30 10795 H 995.242 3.86427 -0.935959 0
M  V30 10796 N 996.239 0.8527 1.3254 0
M  V30 10797 C 997.516 0.376491 1.91942 0
M  V30 10798 C 997.896 -1.13972 1.7769 0
M  V30 10799 O 997.244 -1.96047 1.17379 0
M  V30 10800 C 997.454 0.838694 3.38773 0
M  V30 10801 C 998.802 0.854736 4.15908 0
M  V30 10802 O 999.826 0.783203 3.47483 0
M  V30 10803 O 998.685 0.955207 5.38087 0
M  V30 10804 H 995.779 0.109412 0.81973 0
M  V30 10805 H 998.325 0.93947 1.41322 0
M  V30 10806 H 997.097 1.88179 3.43081 0
M  V30 10807 H 996.72 0.253055 3.96794 0
M  V30 10808 N 997.718 -1.45297 0.610449 0
M  V30 10809 C 999.129 -1.85715 0.191488 0
M  V30 10810 C 999.48 -1.51036 -1.25229 0
M  V30 10811 O 998.605 -0.938422 -1.94994 0
M  V30 10812 C 999.2 -3.37082 0.340747 0
M  V30 10813 C 997.759 -3.76393 -0.0235433 0
M  V30 10814 C 996.906 -2.69237 0.663849 0
M  V30 10815 H 999.857 -1.36058 0.816948 0
M  V30 10816 H 999.878 -3.78105 -0.426233 0
M  V30 10817 H 999.39 -3.62291 1.39164 0
M  V30 10818 H 997.491 -3.56801 -1.07351 0
M  V30 10819 H 997.604 -4.77653 0.372102 0
M  V30 10820 H 995.968 -2.54499 0.101204 0
M  V30 10821 H 996.751 -2.97281 1.71694 0
M  V30 10822 N 999.196 -0.349774 -1.5367 0
M  V30 10823 C 1000.14 0.519396 -2.26727 0
M  V30 10824 C 1001.14 1.09673 -1.29105 0
M  V30 10825 O 1002.34 1.04176 -1.46791 0
M  V30 10826 H 998.719 0.186192 -0.728585 0
M  V30 10827 H 1000.69 -0.118736 -2.98164 0
M  V30 10828 C 999.439 1.65535 -3.05767 0
M  V30 10829 H 998.762 1.22038 -3.80719 0
M  V30 10830 H 1000.2 2.23856 -3.6009 0
M  V30 10831 C 998.661 2.58844 -2.15642 0
M  V30 10832 O 999.191 3.61254 -1.75665 0
M  V30 10833 N 997.397 2.27671 -1.80595 0
M  V30 10834 H 996.944 1.44429 -2.13302 0
M  V30 10835 H 996.902 2.90359 -1.20577 0
M  V30 10836 N 1000.67 1.57404 -0.0785433 0
M  V30 10837 C 1001.6 2.16131 0.883726 0
M  V30 10838 C 1002.58 1.09015 1.30575 0
M  V30 10839 O 1003.77 1.3708 1.37559 0
M  V30 10840 C 1000.9 2.72836 2.1489 0
M  V30 10841 C 999.854 3.85178 1.86605 0
M  V30 10842 C 999.18 4.28516 3.1981 0
M  V30 10843 C 1000.48 5.09118 1.16601 0
M  V30 10844 H 1002.17 2.9679 0.394484 0
M  V30 10845 H 999.72 1.42763 0.188304 0
M  V30 10846 H 1001.67 3.12567 2.8263 0
M  V30 10847 H 1000.4 1.89408 2.66068 0
M  V30 10848 H 999.056 3.45962 1.21268 0
M  V30 10849 H 998.704 3.42 3.68843 0
M  V30 10850 H 998.404 5.04249 3.01674 0
M  V30 10851 H 999.928 4.70868 3.88737 0
M  V30 10852 H 1001.34 5.46123 1.74422 0
M  V30 10853 H 999.739 5.90173 1.087 0
M  V30 10854 H 1000.81 4.8468 0.146138 0
M  V30 10855 N 1002.15 -0.195058 1.56388 0
M  V30 10856 C 1003.08 -1.24444 1.97575 0
M  V30 10857 C 1004.06 -1.47471 0.847717 0
M  V30 10858 O 1005.25 -1.59208 1.11205 0
M  V30 10859 C 1002.38 -2.58866 2.31529 0
M  V30 10860 C 1001.33 -2.50451 3.47071 0
M  V30 10861 C 1000.66 -3.89146 3.667 0
M  V30 10862 C 1001.96 -2.02953 4.81256 0
M  V30 10863 H 1003.65 -0.902178 2.85484 0
M  V30 10864 H 1001.2 -0.43254 1.3735 0
M  V30 10865 H 1003.15 -3.3246 2.58936 0
M  V30 10866 H 1001.87 -2.94833 1.40502 0
M  V30 10867 H 1000.53 -1.79313 3.19754 0
M  V30 10868 H 1000.18 -4.22466 2.73004 0
M  V30 10869 H 999.882 -3.84391 4.44429 0
M  V30 10870 H 1001.41 -4.64363 3.96484 0
M  V30 10871 H 1002.82 -2.66306 5.07695 0
M  V30 10872 H 1001.22 -2.092 5.62455 0
M  V30 10873 H 1002.29 -0.982757 4.74837 0
M  V30 10874 N 1003.63 -1.50653 -0.462772 0
M  V30 10875 C 1004.85 -1.66103 -1.24196 0
M  V30 10876 C 1005.28 -0.347421 -1.84864 0
M  V30 10877 O 1004.64 0.689673 -1.6767 0
M  V30 10878 C 1004.69 -2.76027 -2.32037 0
M  V30 10879 O 1003.79 -2.37859 -3.36893 0
M  V30 10880 H 1003.13 -0.554672 -0.365014 0
M  V30 10881 H 1005.66 -1.97076 -0.549734 0
M  V30 10882 H 1005.67 -2.99354 -2.77221 0
M  V30 10883 H 1004.35 -3.71361 -1.87253 0
M  V30 10884 H 1002.92 -2.2501 -2.97363 0
M  V30 10885 N 1005.11 0.71652 -1.4037 0
M  V30 10886 C 1006.04 1.84345 -1.43315 0
M  V30 10887 C 1007.02 1.67537 -0.294186 0
M  V30 10888 O 1008.2 1.87582 -0.502671 0
M  V30 10889 C 1005.33 3.2229 -1.29408 0
M  V30 10890 C 1004.29 3.53769 -2.40897 0
M  V30 10891 C 1003.61 4.90847 -2.12068 0
M  V30 10892 C 1004.91 3.54862 -3.83237 0
M  V30 10893 H 1006.61 1.82138 -2.37626 0
M  V30 10894 H 1004.15 0.874873 -1.14376 0
M  V30 10895 H 1006.11 4.00819 -1.30085 0
M  V30 10896 H 1004.83 3.2507 -0.31573 0
M  V30 10897 H 1003.49 2.77579 -2.39469 0
M  V30 10898 H 1003.14 4.90229 -1.12626 0
M  V30 10899 H 1002.84 5.12875 -2.86762 0
M  V30 10900 H 1004.36 5.71711 -2.14426 0
M  V30 10901 H 1005.78 4.23432 -3.86494 0
M  V30 10902 H 1004.17 3.88416 -4.57442 0
M  V30 10903 H 1005.24 2.54266 -4.12888 0
M  V30 10904 N 1006.59 1.25851 0.948643 0
M  V30 10905 C 1007.86 1.01717 1.67072 0
M  V30 10906 C 1008.24 -0.454749 2.06144 0
M  V30 10907 O 1007.59 -1.43345 1.77945 0
M  V30 10908 C 1007.8 1.95872 2.88852 0
M  V30 10909 C 1009.15 2.24057 3.60671 0
M  V30 10910 O 1010.17 1.93678 2.98944 0
M  V30 10911 O 1009.03 2.75745 4.71833 0
M  V30 10912 H 1006.13 0.386198 0.731287 0
M  V30 10913 H 1008.67 1.37031 1.00104 0
M  V30 10914 H 1007.44 2.95233 2.56814 0
M  V30 10915 H 1007.07 1.60992 3.63548 0
M  V30 10916 N 1008.06 -1.15214 1.07534 0
M  V30 10917 C 1009.03 -2.18209 0.701237 0
M  V30 10918 C 1010.03 -1.58693 -0.25946 0
M  V30 10919 O 1011.22 -1.74154 -0.0401744 0
M  V30 10920 C 1008.35 -3.40883 0.0338703 0
M  V30 10921 H 1009.54 -2.5282 1.61314 0
M  V30 10922 H 1007.1 -1.29707 0.872105 0
M  V30 10923 H 1007.83 -3.11843 -0.890187 0
M  V30 10924 H 1007.62 -3.85342 0.72486 0
M  V30 10925 H 1009.11 -4.17056 -0.213152 0
M  V30 10926 N 1009.54 -0.859717 -1.32086 0
M  V30 10927 C 1010.77 -0.479028 -2.0097 0
M  V30 10928 C 1011.18 0.930242 -1.64752 0
M  V30 10929 O 1010.52 1.6193 -0.867437 0
M  V30 10930 C 1010.59 -0.54431 -3.55355 0
M  V30 10931 C 1010.25 -1.91337 -4.15017 0
M  V30 10932 C 1011.25 -2.87951 -4.32874 0
M  V30 10933 C 1008.93 -2.21189 -4.50977 0
M  V30 10934 C 1010.93 -4.12567 -4.85867 0
M  V30 10935 C 1008.61 -3.46057 -5.03674 0
M  V30 10936 C 1009.61 -4.41562 -5.21068 0
M  V30 10937 O 1009.3 -5.64218 -5.72637 0
M  V30 10938 H 1009.03 -0.186161 -0.649861 0
M  V30 10939 H 1011.58 -1.15976 -1.69525 0
M  V30 10940 H 1009.81 0.1933 -3.86217 0
M  V30 10941 H 1011.5 -0.178506 -4.05507 0
M  V30 10942 H 1012.27 -2.66194 -4.05421 0
M  V30 10943 H 1008.15 -1.47635 -4.36721 0
M  V30 10944 H 1011.69 -4.8712 -4.99359 0
M  V30 10945 H 1007.59 -3.67662 -5.30561 0
M  V30 10946 H 1008.36 -5.66246 -5.91023 0
M  V30 10947 N 1011.02 1.44971 -0.618145 0
M  V30 10948 C 1012.27 2.02458 -0.117656 0
M  V30 10949 C 1012.6 1.48413 1.25248 0
M  V30 10950 O 1011.87 0.662997 1.82851 0
M  V30 10951 C 1012.16 3.59987 -0.0901897 0
M  V30 10952 C 1012.01 4.24343 -1.49175 0
M  V30 10953 C 1013.33 4.36099 0.592121 0
M  V30 10954 H 1010.45 0.735672 -0.0442291 0
M  V30 10955 H 1013.09 1.727 -0.792138 0
M  V30 10956 H 1011.24 3.85471 0.484175 0
M  V30 10957 H 1012.91 4.10009 -2.114 0
M  V30 10958 H 1011.16 3.82337 -2.04941 0
M  V30 10959 H 1011.83 5.33298 -1.42468 0
M  V30 10960 H 1014.3 4.1597 0.103813 0
M  V30 10961 H 1013.18 5.45822 0.580481 0
M  V30 10962 H 1013.44 4.09746 1.66015 0
M  V30 10963 N 1012.5 0.357919 1.53482 0
M  V30 10964 C 1013.75 -0.234163 2.01142 0
M  V30 10965 C 1014.07 -1.49399 1.2454 0
M  V30 10966 O 1013.33 -1.92981 0.325111 0
M  V30 10967 C 1013.63 -0.579617 3.52669 0
M  V30 10968 C 1013.29 0.584988 4.47089 0
M  V30 10969 C 1011.96 0.904558 4.72622 0
M  V30 10970 C 1014.31 1.3656 5.02992 0
M  V30 10971 C 1011.64 2.00685 5.5131 0
M  V30 10972 C 1013.99 2.45824 5.82884 0
M  V30 10973 C 1012.65 2.78325 6.06706 0
M  V30 10974 H 1011.92 -0.0856863 0.736029 0
M  V30 10975 H 1014.57 0.488801 1.85157 0
M  V30 10976 H 1012.87 -1.38349 3.66561 0
M  V30 10977 H 1014.57 -1.04985 3.87013 0
M  V30 10978 H 1011.16 0.32587 4.27359 0
M  V30 10979 H 1015.34 1.13196 4.83219 0
M  V30 10980 H 1010.6 2.26272 5.67988 0
M  V30 10981 H 1014.77 3.06732 6.25211 0
M  V30 10982 H 1012.4 3.63862 6.67464 0
M  V30 10983 N 1013.98 -1.5736 0.0868897 0
M  V30 10984 C 1014.92 -2.14793 -0.892571 0
M  V30 10985 C 1015.92 -1.08866 -1.29787 0
M  V30 10986 O 1017.12 -1.27223 -1.27335 0
M  V30 10987 H 1013.5 -0.686998 -0.305838 0
M  V30 10988 H 1015.47 -2.95927 -0.383393 0
M  V30 10989 C 1014.22 -2.73646 -2.14507 0
M  V30 10990 H 1013.54 -3.54835 -1.84207 0
M  V30 10991 H 1014.98 -3.17409 -2.81118 0
M  V30 10992 C 1013.44 -1.69138 -2.91366 0
M  V30 10993 O 1013.97 -1.12539 -3.85614 0
M  V30 10994 N 1012.18 -1.3982 -2.54752 0
M  V30 10995 H 1011.72 -1.86035 -1.78182 0
M  V30 10996 H 1011.68 -0.701316 -3.06478 0
M  V30 10997 N 1015.45 0.186762 -1.56489 0
M  V30 10998 C 1016.68 0.921832 -1.85229 0
M  V30 10999 C 1017.1 1.76496 -0.670416 0
M  V30 11000 O 1016.45 1.78899 0.360758 0
M  V30 11001 C 1016.51 1.81121 -3.12854 0
M  V30 11002 O 1016.23 1.00211 -4.26485 0
M  V30 11003 C 1017.73 2.65725 -3.54831 0
M  V30 11004 H 1014.95 0.268563 -0.61491 0
M  V30 11005 H 1017.49 0.191505 -2.03601 0
M  V30 11006 H 1015.65 2.49506 -2.96354 0
M  V30 11007 H 1016.06 1.60893 -4.99213 0
M  V30 11008 H 1017.53 3.23771 -4.47075 0
M  V30 11009 H 1018.01 3.39843 -2.78215 0
M  V30 11010 H 1018.62 2.02698 -3.7389 0
M  V30 11011 N 1016.93 1.50896 0.454776 0
M  V30 11012 C 1017.84 1.73762 1.5762 0
M  V30 11013 C 1018.86 0.621206 1.62533 0
M  V30 11014 O 1020.03 0.901449 1.801 0
M  V30 11015 C 1017.1 1.84183 2.9373 0
M  V30 11016 C 1016.16 3.07982 2.99075 0
M  V30 11017 C 1015.39 3.17896 4.28693 0
M  V30 11018 O 1015.62 2.34184 5.20109 0
M  V30 11019 O 1014.55 4.10749 4.39964 0
M  V30 11020 H 1018.38 2.68856 1.41245 0
M  V30 11021 H 1015.96 1.35187 0.635984 0
M  V30 11022 H 1017.84 1.93123 3.74542 0
M  V30 11023 H 1016.52 0.922742 3.10269 0
M  V30 11024 H 1015.43 3.04531 2.17282 0
M  V30 11025 H 1016.76 3.99523 2.87476 0
M  V30 11026 N 1018.41 -0.709066 1.40748 0
M  V30 11027 C 1019.37 -1.80485 1.41272 0
M  V30 11028 C 1020.37 -1.57872 0.305463 0
M  V30 11029 O 1021.56 -1.64793 0.564691 0
M  V30 11030 C 1018.7 -3.1867 1.21087 0
M  V30 11031 H 1019.89 -1.81417 2.38805 0
M  V30 11032 H 1017.44 -0.915356 1.26692 0
M  V30 11033 H 1018.18 -3.23385 0.243406 0
M  V30 11034 H 1017.96 -3.36484 2.01299 0
M  V30 11035 H 1019.45 -3.98685 1.24257 0
M  V30 11036 N 1019.89 -1.26353 -0.941956 0
M  V30 11037 C 1020.84 -1.04513 -2.02635 0
M  V30 11038 C 1021.82 0.0222314 -1.60885 0
M  V30 11039 O 1023.02 -0.194629 -1.75927 0
M  V30 11040 C 1020.14 -0.679282 -3.36512 0
M  V30 11041 C 1019.23 -1.78406 -3.8475 0
M  V30 11042 N 1019.62 -3.02136 -4.05645 0
M  V30 11043 C 1017.92 -1.66748 -4.13656 0
M  V30 11044 C 1018.62 -3.73932 -4.45589 0
M  V30 11045 N 1017.6 -3.01616 -4.52248 0
M  V30 11046 H 1021.4 -1.9843 -2.16801 0
M  V30 11047 H 1018.91 -1.16858 -1.12774 0
M  V30 11048 H 1020.91 -0.503975 -4.13843 0
M  V30 11049 H 1019.57 0.252418 -3.23717 0
M  V30 11050 H 1020.58 -3.38049 -3.92356 0
M  V30 11051 H 1017.26 -0.805627 -4.09653 0
M  V30 11052 H 1018.65 -4.80201 -4.69954 0
M  V30 11053 N 1021.37 1.14642 -1.08144 0
M  V30 11054 C 1022.78 1.6719 -0.830923 0
M  V30 11055 C 1023.13 1.85373 0.642749 0
M  V30 11056 O 1022.25 1.56293 1.49671 0
M  V30 11057 C 1022.85 3.03697 -1.50179 0
M  V30 11058 C 1021.41 3.5329 -1.29858 0
M  V30 11059 C 1020.56 2.28828 -1.5663 0
M  V30 11060 H 1023.51 0.987441 -1.24239 0
M  V30 11061 H 1023.53 3.69023 -0.9275 0
M  V30 11062 H 1023.04 2.90431 -2.57432 0
M  V30 11063 H 1021.14 3.71783 -0.246626 0
M  V30 11064 H 1021.25 4.34231 -2.02436 0
M  V30 11065 H 1019.62 2.34769 -0.987716 0
M  V30 11066 H 1020.4 2.18141 -2.65084 0
M  V30 11067 N 1022.85 0.866709 1.31628 0
M  V30 11068 C 1023.78 0.335762 2.31073 0
M  V30 11069 C 1024.76 -0.571597 1.60209 0
M  V30 11070 O 1025.94 -0.489306 1.87935 0
M  V30 11071 C 1023.07 -0.466416 3.44154 0
M  V30 11072 C 1022.03 0.347561 4.26586 0
M  V30 11073 C 1021.35 -0.5801 5.31544 0
M  V30 11074 C 1022.65 1.57986 4.97833 0
M  V30 11075 H 1024.35 1.16673 2.75731 0
M  V30 11076 H 1021.89 0.56248 1.3256 0
M  V30 11077 H 1023.84 -0.84836 4.12772 0
M  V30 11078 H 1022.57 -1.33086 2.98254 0
M  V30 11079 H 1021.23 0.71141 3.59631 0
M  V30 11080 H 1020.88 -1.44174 4.81895 0
M  V30 11081 H 1020.58 -0.0393965 5.87587 0
M  V30 11082 H 1022.1 -0.958958 6.03023 0
M  V30 11083 H 1023.51 1.26954 5.59067 0
M  V30 11084 H 1021.91 2.05939 5.63657 0
M  V30 11085 H 1022.98 2.3345 4.25005 0
M  V30 11086 N 1024.32 -1.44642 0.625825 0
M  V30 11087 C 1025.73 -1.85502 0.211175 0
M  V30 11088 C 1026.09 -1.52356 -1.2362 0
M  V30 11089 O 1025.21 -0.959051 -1.93988 0
M  V30 11090 C 1025.81 -3.36702 0.37648 0
M  V30 11091 C 1024.36 -3.76396 0.0163795 0
M  V30 11092 C 1023.51 -2.68517 0.692368 0
M  V30 11093 H 1026.46 -1.35183 0.831333 0
M  V30 11094 H 1026.48 -3.78536 -0.386106 0
M  V30 11095 H 1026 -3.60795 1.42999 0
M  V30 11096 H 1024.1 -3.57919 -1.0356 0
M  V30 11097 H 1024.21 -4.77231 0.422742 0
M  V30 11098 H 1022.57 -2.54377 0.128191 0
M  V30 11099 H 1023.36 -2.95444 1.74837 0
M  V30 11100 N 1025.8 -0.366053 -1.5329 0
M  V30 11101 C 1027.05 0.224614 -2.00445 0
M  V30 11102 C 1027.36 1.49829 -1.2574 0
M  V30 11103 O 1028.57 2.16759 -1.63487 0
M  V30 11104 C 1027.03 0.450818 -3.57065 0
M  V30 11105 C 1026.63 -0.808257 -4.40649 0
M  V30 11106 C 1028.38 0.999116 -4.12575 0
M  V30 11107 C 1026.28 -0.551612 -5.88822 0
M  V30 11108 H 1025.21 0.0877114 -0.748881 0
M  V30 11109 H 1027.87 -0.484866 -1.76978 0
M  V30 11110 H 1026.25 1.22157 -3.76688 0
M  V30 11111 H 1027.42 -1.58184 -4.32798 0
M  V30 11112 H 1025.74 -1.27981 -3.96245 0
M  V30 11113 H 1028.33 1.20646 -5.20911 0
M  V30 11114 H 1028.68 1.96139 -3.67199 0
M  V30 11115 H 1029.21 0.288518 -3.96752 0
M  V30 11116 H 1025.95 -1.48423 -6.38475 0
M  V30 11117 H 1025.47 0.183462 -5.99519 0
M  V30 11118 H 1027.15 -0.177307 -6.46757 0
M  V30 11119 N 1027.28 1.57312 -0.0952337 0
M  V30 11120 C 1028.53 1.95449 0.563155 0
M  V30 11121 C 1028.88 0.976396 1.65784 0
M  V30 11122 O 1028.17 0.00241533 1.916 0
M  V30 11123 C 1028.37 3.37937 1.16332 0
M  V30 11124 C 1028.2 4.49517 0.128308 0
M  V30 11125 C 1026.97 5.04437 -0.295252 0
M  V30 11126 C 1029.16 5.10257 -0.643571 0
M  V30 11127 N 1027.15 5.99573 -1.31852 0
M  V30 11128 C 1028.52 6.01113 -1.51867 0
M  V30 11129 C 1030.57 4.92996 -0.697074 0
M  V30 11130 C 1029.28 6.76559 -2.44256 0
M  V30 11131 C 1031.3 5.69104 -1.60857 0
M  V30 11132 C 1030.66 6.59626 -2.47129 0
M  V30 11133 H 1026.76 0.761844 0.176402 0
M  V30 11134 H 1029.35 1.93886 -0.177833 0
M  V30 11135 H 1027.52 3.40193 1.87413 0
M  V30 11136 H 1029.25 3.63253 1.78408 0
M  V30 11137 H 1026 4.7351 0.0925153 0
M  V30 11138 H 1026.43 6.51843 -1.82836 0
M  V30 11139 H 1031.07 4.22777 -0.0442422 0
M  V30 11140 H 1028.79 7.4604 -3.10564 0
M  V30 11141 H 1032.37 5.57761 -1.65511 0
M  V30 11142 H 1031.25 7.17487 -3.16515 0
M  V30 11143 N 1028.76 -0.17846 1.56586 0
M  V30 11144 C 1029.99 -0.911996 1.85715 0
M  V30 11145 C 1030.4 -1.76138 0.679766 0
M  V30 11146 O 1029.76 -1.79088 -0.351266 0
M  V30 11147 C 1029.81 -1.79459 3.1381 0
M  V30 11148 O 1029.53 -0.979476 4.2701 0
M  V30 11149 C 1031.03 -2.6384 3.56235 0
M  V30 11150 H 1028.25 -0.265299 0.616326 0
M  V30 11151 H 1030.79 -0.180704 2.037 0
M  V30 11152 H 1028.95 -2.4793 2.97673 0
M  V30 11153 H 1029.36 -1.58244 5.00059 0
M  V30 11154 H 1030.84 -3.21396 4.48786 0
M  V30 11155 H 1031.31 -3.38363 2.80013 0
M  V30 11156 H 1031.92 -2.00712 3.7496 0
M  V30 11157 N 1030.24 -1.51135 -0.446768 0
M  V30 11158 C 1031.65 -1.55919 -1.02694 0
M  V30 11159 C 1032 -0.377038 -1.92543 0
M  V30 11160 O 1031.12 0.507295 -2.1037 0
M  V30 11161 C 1031.72 -2.8257 -1.86922 0
M  V30 11162 C 1030.28 -2.89956 -2.40005 0
M  V30 11163 C 1029.42 -2.50482 -1.18971 0
M  V30 11164 H 1032.37 -1.57048 -0.228403 0
M  V30 11165 H 1032.4 -2.65799 -2.7227 0
M  V30 11166 H 1031.91 -3.6859 -1.21502 0
M  V30 11167 H 1030.01 -2.08343 -3.08907 0
M  V30 11168 H 1030.12 -3.93399 -2.73448 0
M  V30 11169 H 1028.49 -2.03466 -1.53211 0
M  V30 11170 H 1029.27 -3.38837 -0.551762 0
M  V30 11171 N 1031.71 0.701592 -1.41122 0
M  V30 11172 C 1032.68 1.79733 -1.42227 0
M  V30 11173 C 1033.68 1.57708 -0.313831 0
M  V30 11174 O 1034.87 1.64492 -0.573423 0
M  V30 11175 C 1032 3.18024 -1.22775 0
M  V30 11176 H 1033.19 1.80148 -2.39764 0
M  V30 11177 H 1030.74 0.908624 -1.27176 0
M  V30 11178 H 1031.48 3.23252 -0.260552 0
M  V30 11179 H 1031.26 3.35411 -2.0308 0
M  V30 11180 H 1032.75 3.98021 -1.2637 0
M  V30 11181 O 1033.23 1.37719 0.843548 0
M  V30 11182 H 1033.92 1.24374 1.48496 0
M  V30 END ATOM
M  V30 BEGIN BOND
M  V30 END BOND
M  V30 END CTAB
M  END
$$$$
