drugbank_target|Q9Y4K4 Mitogen-activated protein kinase kinase kinase kinase 5 (DB12010)
 OpenBabel12092121163D

  0  0  0     0  0            999 V3000
M  V30 BEGIN CTAB
M  V30 COUNTS 13356 13519 0 0 0
M  V30 BEGIN ATOM
M  V30 1 H -0.908 1.98254 -0.117106 0
M  V30 2 N 0 1.576 0 0
M  V30 3 C 0.933 2.03868 1.02534 0
M  V30 4 C 1.911 0.928543 1.3348 0
M  V30 5 O 3.095 1.19667 1.45644 0
M  V30 6 C 0.222 2.43627 2.35294 0
M  V30 7 C -0.732 3.65373 2.2001 0
M  V30 8 S 0.101 5.13292 1.52614 0
M  V30 9 C 1.257 5.56322 2.86805 0
M  V30 10 H 1.49 2.90518 0.631377 0
M  V30 11 H -0.977 1.52953 0.210867 0
M  V30 12 H 0.981 2.67203 3.11629 0
M  V30 13 H -0.358 1.57376 2.7183 0
M  V30 14 H -1.165 3.90944 3.18086 0
M  V30 15 H -1.563 3.418 1.51819 0
M  V30 16 H 0.729 5.58782 3.83104 0
M  V30 17 H 1.672 6.56266 2.65933 0
M  V30 18 H 2.08 4.83886 2.90714 0
M  V30 19 N 1.4781 -0.272755 1.55222 0
M  V30 20 C 2.3881 -1.35918 1.91216 0
M  V30 21 C 3.4041 -1.54026 0.809436 0
M  V30 22 O 4.5801 -1.68148 1.10852 0
M  V30 23 C 1.6451 -2.69834 2.17693 0
M  V30 24 C 0.7061 -2.6047 3.41253 0
M  V30 25 C -0.0609 -3.88 3.66458 0
M  V30 26 O 0.1621 -4.88693 2.94169 0
M  V30 27 O -0.9039 -3.88189 4.59992 0
M  V30 28 H 2.9221 -1.0839 2.83699 0
M  V30 29 H 0.5071 -0.471301 1.41771 0
M  V30 30 H 2.3891 -3.49017 2.36147 0
M  V30 31 H 1.0641 -2.97148 1.28392 0
M  V30 32 H -0.0289 -1.79663 3.28134 0
M  V30 33 H 1.3041 -2.38106 4.30774 0
M  V30 34 N 2.9562 -1.48159 -0.537278 0
M  V30 35 C 3.9192 -1.61665 -1.62472 0
M  V30 36 C 4.9192 -0.490395 -1.5314 0
M  V30 37 O 6.1092 -0.755998 -1.5694 0
M  V30 38 C 3.2412 -1.57997 -3.02076 0
M  V30 39 H 4.4342 -2.58621 -1.51839 0
M  V30 40 H 1.9872 -1.36647 -0.758771 0
M  V30 41 H 2.7222 -0.624913 -3.18222 0
M  V30 42 H 2.5072 -2.39755 -3.10258 0
M  V30 43 H 3.9972 -1.70627 -3.81151 0
M  V30 44 N 4.4343 0.785586 -1.36625 0
M  V30 45 C 5.8453 1.36101 -1.27803 0
M  V30 46 C 6.1963 1.96035 0.0804875 0
M  V30 47 O 5.3213 1.92834 0.982042 0
M  V30 48 C 5.9163 2.47442 -2.31426 0
M  V30 49 C 4.4753 3.00789 -2.26281 0
M  V30 50 C 3.6223 1.73896 -2.15999 0
M  V30 51 H 6.5733 0.586928 -1.47448 0
M  V30 52 H 6.5943 3.2656 -1.95291 0
M  V30 53 H 6.1063 2.03791 -3.30289 0
M  V30 54 H 4.2073 3.48851 -1.30896 0
M  V30 55 H 4.3203 3.57343 -3.19128 0
M  V30 56 H 2.6843 1.9628 -1.62316 0
M  V30 57 H 3.4673 1.32368 -3.16755 0
M  V30 58 N 5.9124 1.20967 1.01018 0
M  V30 59 C 6.8424 0.988272 2.11555 0
M  V30 60 C 7.8234 -0.0849778 1.69888 0
M  V30 61 O 9.0084 0.0738202 1.9406 0
M  V30 62 C 6.1384 0.546528 3.42973 0
M  V30 63 C 5.0924 1.56375 3.9841 0
M  V30 64 C 4.4184 0.97842 5.25672 0
M  V30 65 C 5.7184 2.94922 4.31066 0
M  V30 66 H 7.4124 1.91276 2.30334 0
M  V30 67 H 4.9584 0.921073 1.1069 0
M  V30 68 H 6.9114 0.378839 4.19694 0
M  V30 69 H 5.6354 -0.413598 3.23971 0
M  V30 70 H 4.2944 1.71891 3.23804 0
M  V30 71 H 3.9424 0.0101688 5.02999 0
M  V30 72 H 3.6424 1.65784 5.63728 0
M  V30 73 H 5.1664 0.821939 6.05043 0
M  V30 74 H 6.5804 2.8288 4.9865 0
M  V30 75 H 4.9774 3.5983 4.80253 0
M  V30 76 H 6.0474 3.4616 3.39561 0
M  V30 77 N 7.3905 -1.2043 1.01659 0
M  V30 78 C 8.8065 -1.41852 0.731442 0
M  V30 79 C 9.0065 -1.89358 -0.688898 0
M  V30 80 O 8.0625 -2.06247 -1.45666 0
M  V30 81 C 9.3755 -2.44019 1.75714 0
M  V30 82 C 10.9235 -2.57785 1.77527 0
M  V30 83 C 11.3985 -3.63194 2.79023 0
M  V30 84 N 12.8895 -3.70678 2.77763 0
M  V30 85 C 13.6245 -4.51897 3.52954 0
M  V30 86 N 13.1205 -5.36921 4.37821 0
M  V30 87 N 14.9135 -4.4643 3.41551 0
M  V30 88 H 7.0645 -0.879093 1.93354 0
M  V30 89 H 9.3275 -0.448425 0.835236 0
M  V30 90 H 9.0335 -2.1611 2.77469 0
M  V30 91 H 8.9075 -3.43007 1.56927 0
M  V30 92 H 11.2945 -2.85023 0.764569 0
M  V30 93 H 11.3755 -1.58992 2.00387 0
M  V30 94 H 11.0195 -3.36699 3.80258 0
M  V30 95 H 10.9495 -4.61609 2.53425 0
M  V30 96 H 13.4405 -3.09944 2.16201 0
M  V30 97 H 13.7535 -5.95981 4.91962 0
M  V30 98 H 12.0985 -5.36424 4.41899 0
M  V30 99 H 15.2895 -3.79042 2.74672 0
M  V30 100 H 15.4625 -5.09491 4.00404 0
M  V30 101 N 8.8686 -0.792821 -1.36206 0
M  V30 102 C 10.2796 -0.429513 -1.81692 0
M  V30 103 C 10.6306 1.04695 -1.65932 0
M  V30 104 O 9.7556 1.81256 -1.18218 0
M  V30 105 C 10.3506 -0.772831 -3.29868 0
M  V30 106 C 8.9096 -0.462307 -3.7355 0
M  V30 107 C 8.0566 -1.00569 -2.5842 0
M  V30 108 H 11.0076 -0.985672 -1.24379 0
M  V30 109 H 11.0286 -0.0651928 -3.80444 0
M  V30 110 H 10.5406 -1.84747 -3.41307 0
M  V30 111 H 8.6416 0.604158 -3.67669 0
M  V30 112 H 8.7546 -0.985299 -4.68859 0
M  V30 113 H 7.1186 -0.428734 -2.51066 0
M  V30 114 H 7.9016 -2.08616 -2.72643 0
M  V30 115 N 10.3467 1.47872 -0.545128 0
M  V30 116 C 11.3097 2.28337 0.198717 0
M  V30 117 C 12.3097 1.36255 0.853888 0
M  V30 118 O 13.4997 1.59003 0.711606 0
M  V30 119 C 10.6317 3.15585 1.28915 0
M  V30 120 H 11.8247 2.95567 -0.507941 0
M  V30 121 H 9.3777 1.53362 -0.301616 0
M  V30 122 H 10.1127 2.53019 2.02859 0
M  V30 123 H 9.8977 3.83337 0.824309 0
M  V30 124 H 11.3877 3.76243 1.81194 0
M  V30 125 N 11.8248 0.280983 1.55075 0
M  V30 126 C 12.7878 -0.590896 2.21452 0
M  V30 127 C 13.7878 -1.07682 1.19421 0
M  V30 128 O 14.9778 -0.97605 1.44288 0
M  V30 129 C 12.1098 -1.81587 2.88511 0
M  V30 130 H 13.3028 -0.0112554 2.99898 0
M  V30 131 H 10.8558 0.0316438 1.56268 0
M  V30 132 H 11.5908 -2.43587 2.14093 0
M  V30 133 H 11.3758 -1.4753 3.63287 0
M  V30 134 H 12.8658 -2.43575 3.39206 0
M  V30 135 N 13.3029 -1.57598 0.00835791 0
M  V30 136 C 14.5799 -1.82172 -0.712235 0
M  V30 137 C 14.9599 -0.887873 -1.9152 0
M  V30 138 O 14.3079 0.06146 -2.28417 0
M  V30 139 C 14.5179 -3.30875 -1.11008 0
M  V30 140 C 15.8659 -3.96826 -1.51044 0
M  V30 141 O 16.8899 -3.35248 -1.20364 0
M  V30 142 O 15.7489 -5.05318 -2.08125 0
M  V30 143 H 12.8429 -0.750435 -0.347529 0
M  V30 144 H 15.3889 -1.69665 0.0344523 0
M  V30 145 H 14.1609 -3.90481 -0.252982 0
M  V30 146 H 13.7839 -3.48412 -1.9156 0
M  V30 147 N 14.781 0.264519 -1.55364 0
M  V30 148 C 16.03 0.992812 -1.75574 0
M  V30 149 C 16.343 1.87142 -0.568979 0
M  V30 150 O 17.549 2.63513 -0.653682 0
M  V30 151 C 16.005 1.81519 -3.10771 0
M  V30 152 C 15.613 0.984839 -4.37041 0
M  V30 153 C 17.357 2.53727 -3.40327 0
M  V30 154 C 15.264 1.80209 -5.63275 0
M  V30 155 H 14.194 0.374412 -0.65447 0
M  V30 156 H 16.845 0.248138 -1.81815 0
M  V30 157 H 15.227 2.60115 -2.98591 0
M  V30 158 H 16.401 0.242455 -4.60162 0
M  V30 159 H 14.716 0.37691 -4.14691 0
M  V30 160 H 17.313 3.15292 -4.3185 0
M  V30 161 H 17.656 3.24447 -2.60845 0
M  V30 162 H 18.189 1.82156 -3.53644 0
M  V30 163 H 14.928 1.13896 -6.45529 0
M  V30 164 H 14.448 2.52022 -5.44284 0
M  V30 165 H 16.127 2.37364 -6.01887 0
M  V30 166 N 16.2591 1.48442 0.529413 0
M  V30 167 C 17.1891 1.65902 1.64313 0
M  V30 168 C 18.1701 0.507897 1.6234 0
M  V30 169 O 19.3551 0.740503 1.79528 0
M  V30 170 C 16.4851 1.69911 3.02898 0
M  V30 171 C 15.4391 2.8453 3.19729 0
M  V30 172 C 14.7651 2.73629 4.59381 0
M  V30 173 C 16.0651 4.25821 3.02447 0
M  V30 174 H 17.7591 2.5914 1.49955 0
M  V30 175 H 15.3051 1.24709 0.719982 0
M  V30 176 H 17.2581 1.80715 3.80684 0
M  V30 177 H 15.9821 0.732524 3.18279 0
M  V30 178 H 14.6411 2.73283 2.44361 0
M  V30 179 H 14.2891 1.74938 4.71599 0
M  V30 180 H 13.9891 3.50541 4.71588 0
M  V30 181 H 15.5131 2.86401 5.39265 0
M  V30 182 H 16.9271 4.37898 3.70024 0
M  V30 183 H 15.3241 5.03735 3.26146 0
M  V30 184 H 16.3941 4.42244 1.98867 0
M  V30 185 N 17.7372 -0.778329 1.37039 0
M  V30 186 C 19.1532 -1.07796 1.17695 0
M  V30 187 C 19.3532 -2.01498 0.00860115 0
M  V30 188 O 18.4092 -2.43901 -0.653352 0
M  V30 189 C 19.7222 -1.68178 2.49272 0
M  V30 190 C 21.2702 -1.80467 2.55735 0
M  V30 191 C 21.7452 -2.44263 3.87427 0
M  V30 192 N 23.2362 -2.51721 3.88833 0
M  V30 193 C 23.9712 -3.01919 4.87476 0
M  V30 194 N 23.4672 -3.5234 5.96513 0
M  V30 195 N 25.2602 -3.00733 4.74885 0
M  V30 196 H 17.4112 -0.156032 2.11826 0
M  V30 197 H 19.6742 -0.131844 0.938787 0
M  V30 198 H 19.3802 -1.06796 3.35093 0
M  V30 199 H 19.2542 -2.67554 2.65885 0
M  V30 200 H 21.6412 -2.40984 1.70325 0
M  V30 201 H 21.7222 -0.798656 2.43013 0
M  V30 202 H 21.3662 -1.84388 4.73248 0
M  V30 203 H 21.2962 -3.45458 3.9745 0
M  V30 204 H 23.7872 -2.1603 3.10063 0
M  V30 205 H 24.1002 -3.89027 6.67741 0
M  V30 206 H 22.4452 -3.50462 6.00168 0
M  V30 207 H 25.6362 -2.60638 3.88826 0
M  V30 208 H 25.8092 -3.39545 5.51918 0
M  V30 209 N 19.2153 -1.21501 -1.00376 0
M  V30 210 C 20.6313 -0.972629 -1.26539 0
M  V30 211 C 20.8313 0.340257 -1.98606 0
M  V30 212 O 19.8873 1.06561 -2.28913 0
M  V30 213 C 21.2003 -2.16404 -2.08781 0
M  V30 214 C 22.7483 -2.20643 -2.22004 0
M  V30 215 C 23.2233 -3.39306 -3.07629 0
M  V30 216 N 24.7143 -3.39401 -3.15217 0
M  V30 217 C 25.4493 -4.27867 -3.81729 0
M  V30 218 N 24.9453 -5.26533 -4.5026 0
M  V30 219 N 26.7383 -4.15672 -3.78382 0
M  V30 220 H 18.8893 -2.05929 -0.520281 0
M  V30 221 H 21.1523 -0.901803 -0.292328 0
M  V30 222 H 20.8583 -3.11554 -1.63178 0
M  V30 223 H 20.7323 -2.15567 -3.09533 0
M  V30 224 H 23.1193 -1.26048 -2.66825 0
M  V30 225 H 23.2003 -2.25523 -1.20718 0
M  V30 226 H 22.8443 -4.34195 -2.63509 0
M  V30 227 H 22.7743 -3.31665 -4.09031 0
M  V30 228 H 25.2653 -2.67997 -2.66432 0
M  V30 229 H 25.5783 -5.90337 -4.98721 0
M  V30 230 H 23.9233 -5.30457 -4.49044 0
M  V30 231 H 27.1143 -3.3785 -3.23998 0
M  V30 232 H 27.2873 -4.84825 -4.2994 0
M  V30 233 N 20.6934 1.19889 -1.02296 0
M  V30 234 C 21.6414 2.24938 -0.592081 0
M  V30 235 C 22.6354 1.65257 0.372357 0
M  V30 236 O 23.8414 1.78371 0.241583 0
M  V30 237 H 20.2164 0.731787 -0.173182 0
M  V30 238 H 22.1874 2.58603 -1.48885 0
M  V30 239 C 20.9364 3.47668 0.047351 0
M  V30 240 H 20.2594 3.93875 -0.685772 0
M  V30 241 H 21.6994 4.22852 0.311862 0
M  V30 242 C 20.1584 3.11136 1.29212 0
M  V30 243 O 20.6884 3.2325 2.38479 0
M  V30 244 N 18.8944 2.65625 1.17863 0
M  V30 245 H 18.4414 2.55968 0.289493 0
M  V30 246 H 18.3994 2.41553 2.01245 0
M  V30 247 N 22.1715 0.800033 1.35784 0
M  V30 248 C 23.5825 0.439142 1.81462 0
M  V30 249 C 23.9335 -1.03813 1.66485 0
M  V30 250 O 23.0585 -1.80626 1.19177 0
M  V30 251 C 23.6535 0.790314 3.29453 0
M  V30 252 C 22.2125 0.482111 3.733 0
M  V30 253 C 21.3595 1.01938 2.57883 0
M  V30 254 H 24.3105 0.992254 1.23855 0
M  V30 255 H 24.3315 0.0853677 3.80404 0
M  V30 256 H 23.8435 1.86554 3.40322 0
M  V30 257 H 21.9445 -0.584652 3.67984 0
M  V30 258 H 22.0575 1.01015 4.6833 0
M  V30 259 H 20.4215 0.442043 2.50835 0
M  V30 260 H 21.2045 2.10059 2.71533 0
M  V30 261 N 23.6496 -1.47581 0.552962 0
M  V30 262 C 24.5816 -2.27997 -0.234533 0
M  V30 263 C 25.5946 -1.36753 -0.883321 0
M  V30 264 O 26.7836 -1.61612 -0.757889 0
M  V30 265 C 23.8836 -3.10879 -1.34935 0
M  V30 266 C 23.0566 -4.30056 -0.798158 0
M  V30 267 C 22.1156 -4.94567 -1.79694 0
M  V30 268 O 21.1416 -5.53087 -1.34474 0
M  V30 269 N 22.3436 -4.88878 -3.13015 0
M  V30 270 H 25.1086 -2.96222 0.455255 0
M  V30 271 H 22.6696 -1.57163 0.388761 0
M  V30 272 H 24.6616 -3.50903 -2.01616 0
M  V30 273 H 23.2316 -2.44924 -1.94244 0
M  V30 274 H 22.4516 -3.94174 0.0453079 0
M  V30 275 H 23.7396 -5.07152 -0.409173 0
M  V30 276 H 23.1376 -4.42526 -3.52402 0
M  V30 277 H 21.6946 -5.32934 -3.75266 0
M  V30 278 N 25.1277 -0.289203 -1.54924 0
M  V30 279 C 26.0597 0.625583 -2.20497 0
M  V30 280 C 27.0727 1.10667 -1.19402 0
M  V30 281 O 28.2617 1.02615 -1.46056 0
M  V30 282 C 25.3617 1.86702 -2.82835 0
M  V30 283 C 24.5347 1.5304 -4.09753 0
M  V30 284 C 23.5937 2.62576 -4.56005 0
M  V30 285 O 22.6197 2.28167 -5.21468 0
M  V30 286 N 23.8217 3.92901 -4.27328 0
M  V30 287 H 26.5867 0.0642801 -2.99631 0
M  V30 288 H 24.1477 -0.110896 -1.6152 0
M  V30 289 H 26.1397 2.59304 -3.10715 0
M  V30 290 H 24.7097 2.33702 -2.07611 0
M  V30 291 H 23.9297 0.637564 -3.8901 0
M  V30 292 H 25.2177 1.28072 -4.92418 0
M  V30 293 H 24.6157 4.23671 -3.74859 0
M  V30 294 H 23.1727 4.61837 -4.59946 0
M  V30 295 N 26.6058 1.57591 -0.0167156 0
M  V30 296 C 27.8828 1.82547 0.702564 0
M  V30 297 C 28.2628 0.898018 1.91047 0
M  V30 298 O 27.6108 -0.0493456 2.28447 0
M  V30 299 C 27.8208 3.31459 1.09251 0
M  V30 300 C 29.1688 3.97622 1.48937 0
M  V30 301 O 30.1928 3.35881 1.18584 0
M  V30 302 O 29.0518 5.06415 2.05442 0
M  V30 303 H 26.1458 0.752268 0.343544 0
M  V30 304 H 28.6918 1.69644 -0.0434495 0
M  V30 305 H 27.4638 3.9061 0.23227 0
M  V30 306 H 27.0868 3.49422 1.89709 0
M  V30 307 N 28.0839 -0.256276 1.55502 0
M  V30 308 C 29.3139 -1.00196 1.80677 0
M  V30 309 C 29.7219 -1.79805 0.588797 0
M  V30 310 O 29.0649 -1.78055 -0.451883 0
M  V30 311 C 29.1269 -1.99515 2.99055 0
M  V30 312 C 28.7909 -1.38688 4.35448 0
M  V30 313 C 29.7879 -0.794079 5.138 0
M  V30 314 C 27.4729 -1.40906 4.82132 0
M  V30 315 C 29.4669 -0.231562 6.36979 0
M  V30 316 C 27.1539 -0.842684 6.05262 0
M  V30 317 C 28.1519 -0.254953 6.82524 0
M  V30 318 O 27.8399 0.3027 8.0333 0
M  V30 319 H 27.5719 -0.300919 0.60533 0
M  V30 320 H 30.1259 -0.287307 2.03381 0
M  V30 321 H 28.3559 -2.74785 2.72084 0
M  V30 322 H 30.0449 -2.60349 3.11405 0
M  V30 323 H 30.8109 -0.769519 4.78856 0
M  V30 324 H 26.6899 -1.85591 4.21992 0
M  V30 325 H 30.2339 0.227816 6.97228 0
M  V30 326 H 26.1309 -0.86454 6.39684 0
M  V30 327 H 26.8989 0.193662 8.18271 0
M  V30 328 N 29.562 -1.4872 -0.521534 0
M  V30 329 C 30.472 -1.66569 -1.65203 0
M  V30 330 C 31.488 -0.548197 -1.65139 0
M  V30 331 O 32.664 -0.820339 -1.83936 0
M  V30 332 C 29.729 -1.70917 -3.01642 0
M  V30 333 C 28.79 -2.94356 -3.12495 0
M  V30 334 C 28.023 -2.98487 -4.42426 0
M  V30 335 O 28.246 -2.10786 -5.30024 0
M  V30 336 O 27.18 -3.90746 -4.57822 0
M  V30 337 H 31.006 -2.62298 -1.5308 0
M  V30 338 H 28.591 -1.3222 -0.695565 0
M  V30 339 H 30.473 -1.7625 -3.82771 0
M  V30 340 H 29.148 -0.783633 -3.14071 0
M  V30 341 H 28.055 -2.94552 -2.3063 0
M  V30 342 H 29.388 -3.86322 -3.04986 0
M  V30 343 N 31.0401 0.771051 -1.3745 0
M  V30 344 C 31.9701 1.89827 -1.3597 0
M  V30 345 C 32.9511 1.68562 -0.228216 0
M  V30 346 O 34.1361 1.8941 -0.428675 0
M  V30 347 C 31.2661 3.2712 -1.16662 0
M  V30 348 C 30.2201 3.6295 -2.2683 0
M  V30 349 C 29.5461 4.98791 -1.92644 0
M  V30 350 C 30.8461 3.69627 -3.69017 0
M  V30 351 H 32.5401 1.91323 -2.30295 0
M  V30 352 H 30.0861 0.919082 -1.10855 0
M  V30 353 H 32.0391 4.05615 -1.14256 0
M  V30 354 H 30.7631 3.26059 -0.187926 0
M  V30 355 H 29.4221 2.86763 -2.28392 0
M  V30 356 H 29.0701 4.94271 -0.933021 0
M  V30 357 H 28.7701 5.23733 -2.66416 0
M  V30 358 H 30.2941 5.79685 -1.91826 0
M  V30 359 H 31.7081 4.38273 -3.69581 0
M  V30 360 H 30.1051 4.06067 -4.41848 0
M  V30 361 H 31.1751 2.70273 -4.02592 0
M  V30 362 N 32.5182 1.22032 0.997298 0
M  V30 363 C 33.7642 1.04376 1.73878 0
M  V30 364 C 34.0972 -0.420716 1.89588 0
M  V30 365 O 33.3722 -1.31202 1.43583 0
M  V30 366 C 33.6552 1.75047 3.14691 0
M  V30 367 C 33.5082 3.29062 3.06656 0
M  V30 368 C 34.8272 1.49928 4.13775 0
M  V30 369 H 31.9462 0.380578 0.631133 0
M  V30 370 H 34.5882 1.50312 1.16217 0
M  V30 371 H 32.7382 1.35996 3.63919 0
M  V30 372 H 34.4102 3.7753 2.65083 0
M  V30 373 H 32.6532 3.58967 2.43568 0
M  V30 374 H 33.3242 3.73683 4.06282 0
M  V30 375 H 35.8002 1.83842 3.73285 0
M  V30 376 H 34.6762 2.01878 5.10428 0
M  V30 377 H 34.9372 0.430929 4.39995 0
M  V30 378 N 33.9963 -1.19345 1.0293 0
M  V30 379 C 34.9283 -2.22036 0.56857 0
M  V30 380 C 35.9413 -1.58865 -0.355779 0
M  V30 381 O 37.1303 -1.77851 -0.152103 0
M  V30 382 C 34.2303 -3.38363 -0.190752 0
M  V30 383 C 33.4033 -4.31118 0.738643 0
M  V30 384 C 32.4623 -5.26194 0.0246497 0
M  V30 385 O 31.4883 -5.65461 0.651354 0
M  V30 386 N 32.6903 -5.66971 -1.24594 0
M  V30 387 H 35.4553 -2.6219 1.45177 0
M  V30 388 H 33.0163 -1.34015 0.908381 0
M  V30 389 H 35.0083 -3.98981 -0.677961 0
M  V30 390 H 33.5783 -2.96994 -0.975366 0
M  V30 391 H 32.7983 -3.68276 1.40593 0
M  V30 392 H 34.0863 -4.90001 1.37029 0
M  V30 393 H 33.4843 -5.37104 -1.77583 0
M  V30 394 H 32.0413 -6.2984 -1.67764 0
M  V30 395 N 35.4744 -0.807222 -1.35358 0
M  V30 396 C 36.8904 -0.491038 -1.51858 0
M  V30 397 C 37.0904 0.987648 -1.75635 0
M  V30 398 O 36.1464 1.77265 -1.79815 0
M  V30 399 C 37.4594 -1.33695 -2.69344 0
M  V30 400 C 39.0074 -1.33246 -2.83222 0
M  V30 401 C 39.4824 -2.1625 -4.03733 0
M  V30 402 N 40.9734 -2.1379 -4.10911 0
M  V30 403 C 41.7084 -2.74772 -5.03277 0
M  V30 404 N 41.2044 -3.44684 -6.0097 0
M  V30 405 N 42.9974 -2.6441 -4.96028 0
M  V30 406 H 35.1484 -1.76485 -1.18181 0
M  V30 407 H 37.4114 -0.751199 -0.578276 0
M  V30 408 H 37.1174 -2.38634 -2.58354 0
M  V30 409 H 36.9914 -0.990618 -3.6396 0
M  V30 410 H 39.3784 -0.290911 -2.93663 0
M  V30 411 H 39.4594 -1.71866 -1.89461 0
M  V30 412 H 39.1034 -3.20445 -3.94052 0
M  V30 413 H 39.0334 -1.74989 -4.96675 0
M  V30 414 H 41.5244 -1.62923 -3.40976 0
M  V30 415 H 41.8374 -3.88501 -6.68047 0
M  V30 416 H 40.1824 -3.48788 -6.01142 0
M  V30 417 H 43.3734 -2.0938 -4.18662 0
M  V30 418 H 43.5464 -3.12225 -5.6782 0
M  V30 419 N 36.9525 1.47285 -0.560781 0
M  V30 420 C 38.1985 2.02764 -0.0381184 0
M  V30 421 C 38.5315 1.43384 1.30976 0
M  V30 422 O 37.8065 0.590733 1.85312 0
M  V30 423 C 38.0895 3.60064 0.0511427 0
M  V30 424 C 37.9425 4.2987 -1.32408 0
M  V30 425 C 39.2615 4.33439 0.762795 0
M  V30 426 H 36.3805 0.736841 -0.0153264 0
M  V30 427 H 39.0225 1.75675 -0.723759 0
M  V30 428 H 37.1725 3.83274 0.635065 0
M  V30 429 H 38.8445 4.17989 -1.95148 0
M  V30 430 H 37.0875 3.90085 -1.8978 0
M  V30 431 H 37.7585 5.38478 -1.21431 0
M  V30 432 H 40.2345 4.15243 0.266965 0
M  V30 433 H 39.1105 5.43124 0.794221 0
M  V30 434 H 39.3715 4.02915 1.81966 0
M  V30 435 N 38.4306 0.297415 1.54768 0
M  V30 436 C 39.6786 -0.312295 1.99673 0
M  V30 437 C 39.9996 -1.54686 1.18732 0
M  V30 438 O 39.2696 -1.93854 0.282382 0
M  V30 439 H 37.8496 -0.118381 0.73756 0
M  V30 440 H 40.5116 0.407915 1.90583 0
M  V30 441 H 39.6076 -0.586813 3.06534 0
M  V30 442 N 39.9087 -1.5758 0.0250728 0
M  V30 443 C 41.1337 -1.96337 -0.668317 0
M  V30 444 C 41.5587 -0.901314 -1.651 0
M  V30 445 O 40.9167 0.138187 -1.80773 0
M  V30 446 C 40.9647 -3.34191 -1.35457 0
M  V30 447 O 40.0687 -3.30269 -2.46974 0
M  V30 448 H 39.4097 -0.640281 -0.175887 0
M  V30 449 H 41.9397 -2.0442 0.0857224 0
M  V30 450 H 41.9497 -3.70331 -1.71228 0
M  V30 451 H 40.6247 -4.11036 -0.634218 0
M  V30 452 H 39.2017 -3.05841 -2.13344 0
M  V30 453 N 41.3868 0.248026 -1.55636 0
M  V30 454 C 42.6348 0.974295 -1.77065 0
M  V30 455 C 42.9558 1.85897 -0.588849 0
M  V30 456 O 42.2258 1.91868 0.395407 0
M  V30 457 H 40.8058 0.362733 -0.653019 0
M  V30 458 H 43.4678 0.266244 -1.93073 0
M  V30 459 H 42.5638 1.59667 -2.68166 0
M  V30 460 N 42.8649 1.48995 0.513639 0
M  V30 461 C 44.0929 1.61531 1.29288 0
M  V30 462 C 44.5079 0.281801 1.86685 0
M  V30 463 O 43.8649 -0.731111 1.67215 0
M  V30 464 C 43.9159 2.67449 2.43215 0
M  V30 465 O 43.6369 3.95626 1.88179 0
M  V30 466 C 45.1379 2.90575 3.34785 0
M  V30 467 H 42.3579 0.544165 0.392588 0
M  V30 468 H 44.9019 1.9494 0.617956 0
M  V30 469 H 43.0569 2.36853 3.0656 0
M  V30 470 H 43.4709 4.53868 2.62876 0
M  V30 471 H 44.9449 3.68449 4.11035 0
M  V30 472 H 45.4219 2.00011 3.91015 0
M  V30 473 H 46.0279 3.22538 2.77218 0
M  V30 474 N 44.343 -0.763751 1.37857 0
M  V30 475 C 45.573 -1.55067 1.3652 0
M  V30 476 C 45.981 -1.89135 -0.0494227 0
M  V30 477 O 45.324 -1.52529 -1.02375 0
M  V30 478 C 45.386 -2.8838 2.14656 0
M  V30 479 C 45.05 -2.76905 3.63555 0
M  V30 480 C 46.047 -2.4739 4.57268 0
M  V30 481 C 43.732 -2.94676 4.06781 0
M  V30 482 C 45.726 -2.35786 5.92186 0
M  V30 483 C 43.413 -2.82692 5.41782 0
M  V30 484 C 44.411 -2.53289 6.34298 0
M  V30 485 O 44.099 -2.41345 7.66817 0
M  V30 486 H 43.831 -0.486776 0.469069 0
M  V30 487 H 46.385 -0.953812 1.81911 0
M  V30 488 H 44.615 -3.50217 1.63967 0
M  V30 489 H 46.304 -3.49828 2.05852 0
M  V30 490 H 47.07 -2.33339 4.2518 0
M  V30 491 H 42.949 -3.16563 3.35126 0
M  V30 492 H 46.493 -2.12757 6.64365 0
M  V30 493 H 42.39 -2.96314 5.7347 0
M  V30 494 H 43.158 -2.56634 7.77226 0
M  V30 495 N 45.8211 -1.22559 -0.990812 0
M  V30 496 C 47.0691 -1.04933 -1.72724 0
M  V30 497 C 47.3901 0.416158 -1.90508 0
M  V30 498 O 46.6601 1.29918 -1.46622 0
M  V30 499 H 45.2401 -0.385296 -0.639965 0
M  V30 500 H 47.9021 -1.54105 -1.19322 0
M  V30 501 H 46.9981 -1.52886 -2.72089 0
M  V30 502 N 47.2992 1.18797 -1.03562 0
M  V30 503 C 48.5762 1.84469 -0.650434 0
M  V30 504 C 48.9562 1.92319 0.870433 0
M  V30 505 O 48.3042 1.44528 1.76986 0
M  V30 506 C 48.5142 3.2306 -1.32036 0
M  V30 507 C 49.8622 3.9915 -1.44792 0
M  V30 508 O 50.8862 3.32481 -1.27806 0
M  V30 509 O 49.7452 5.18587 -1.72423 0
M  V30 510 H 46.8392 0.795251 -0.226946 0
M  V30 511 H 49.3852 1.26231 -1.13419 0
M  V30 512 H 48.1572 3.1222 -2.3587 0
M  V30 513 H 47.7802 3.88949 -0.8249 0
M  V30 514 N 48.7773 0.814389 1.34928 0
M  V30 515 C 50.0233 0.399013 1.98836 0
M  V30 516 C 50.3563 -1.03314 1.64438 0
M  V30 517 O 49.6313 -1.71811 0.911659 0
M  V30 518 C 49.9143 0.591629 3.55207 0
M  V30 519 C 49.7673 2.06928 3.99376 0
M  V30 520 C 51.0863 0.022199 4.40094 0
M  V30 521 H 48.2053 0.146451 0.722303 0
M  V30 522 H 50.8473 1.02537 1.59957 0
M  V30 523 H 48.9973 0.0584441 3.88456 0
M  V30 524 H 50.6693 2.66544 3.76499 0
M  V30 525 H 48.9123 2.56287 3.49999 0
M  V30 526 H 49.5833 2.1549 5.08201 0
M  V30 527 H 52.0593 0.477643 4.13349 0
M  V30 528 H 50.9353 0.186832 5.48582 0
M  V30 529 H 51.1963 -1.07215 4.28902 0
M  V30 530 N 50.2554 -1.46986 0.568584 0
M  V30 531 C 51.4854 -2.0653 0.0539173 0
M  V30 532 C 51.8934 -1.42004 -1.25026 0
M  V30 533 O 51.2364 -0.514541 -1.76347 0
M  V30 534 C 51.2984 -3.58938 -0.200854 0
M  V30 535 C 50.9624 -4.45572 1.01559 0
M  V30 536 C 51.9594 -4.82986 1.92407 0
M  V30 537 C 49.6444 -4.8692 1.23346 0
M  V30 538 C 51.6384 -5.60559 3.03402 0
M  V30 539 C 49.3254 -5.64255 2.34649 0
M  V30 540 C 50.3234 -6.00986 3.24507 0
M  V30 541 O 50.0114 -6.76761 4.33878 0
M  V30 542 H 49.7434 -0.674292 0.0480234 0
M  V30 543 H 52.2974 -1.89812 0.784896 0
M  V30 544 H 50.5274 -3.73911 -0.986279 0
M  V30 545 H 52.2164 -4.0046 -0.662294 0
M  V30 546 H 52.9824 -4.51633 1.76785 0
M  V30 547 H 48.8614 -4.57789 0.543178 0
M  V30 548 H 52.4054 -5.89147 3.73565 0
M  V30 549 H 48.3024 -5.95021 2.5024 0
M  V30 550 H 49.0704 -6.95168 4.32068 0
M  V30 551 N 51.7335 -0.305618 -1.54608 0
M  V30 552 C 52.6805 0.568421 -2.23691 0
M  V30 553 C 53.6505 1.12592 -1.22116 0
M  V30 554 O 54.8355 1.16959 -1.50749 0
M  V30 555 C 51.9755 1.7322 -2.98477 0
M  V30 556 C 51.0885 1.20566 -4.14835 0
M  V30 557 C 50.2235 2.33368 -4.77193 0
M  V30 558 C 49.2625 1.7787 -5.85686 0
M  V30 559 N 48.3995 2.84263 -6.4198 0
M  V30 560 H 53.2395 -0.0272867 -2.97988 0
M  V30 561 H 50.7765 -0.0252363 -1.47078 0
M  V30 562 H 52.7345 2.41675 -3.40072 0
M  V30 563 H 51.3645 2.29947 -2.26548 0
M  V30 564 H 50.4165 0.413223 -3.78149 0
M  V30 565 H 51.7285 0.759417 -4.92985 0
M  V30 566 H 50.8825 3.09761 -5.21664 0
M  V30 567 H 49.6215 2.8132 -3.98385 0
M  V30 568 H 48.6265 0.99968 -5.40635 0
M  V30 569 H 49.8515 1.30816 -6.66381 0
M  V30 570 H 47.7975 3.31541 -5.66053 0
M  V30 571 H 47.7145 2.44149 -7.15491 0
M  V30 572 H 48.9825 3.6054 -6.91109 0
M  V30 573 N 53.2116 1.57565 -0.0334293 0
M  V30 574 C 54.1746 2.09393 0.932048 0
M  V30 575 C 55.1746 1.00986 1.25134 0
M  V30 576 O 56.3646 1.27129 1.19096 0
M  V30 577 C 53.4966 2.56338 2.2473 0
M  V30 578 H 54.6896 2.95984 0.483085 0
M  V30 579 H 52.2426 1.54819 0.21468 0
M  V30 580 H 52.9776 1.7309 2.74245 0
M  V30 581 H 52.7626 3.35542 2.02865 0
M  V30 582 H 54.2526 2.96646 2.93923 0
M  V30 583 N 54.6897 -0.239769 1.55765 0
M  V30 584 C 56.1057 -0.588624 1.48349 0
M  V30 585 C 56.3057 -1.88005 0.72502 0
M  V30 586 O 55.3617 -2.51186 0.257269 0
M  V30 587 C 56.6747 -0.68474 2.928 0
M  V30 588 C 58.2227 -0.77659 3.03213 0
M  V30 589 C 58.6977 -0.904207 4.48986 0
M  V30 590 N 60.1887 -0.968896 4.52953 0
M  V30 591 C 60.9237 -1.08703 5.63002 0
M  V30 592 N 60.4197 -1.17026 6.82845 0
M  V30 593 N 62.2127 -1.12074 5.50814 0
M  V30 594 H 54.3637 0.607911 2.03515 0
M  V30 595 H 56.6267 0.21083 0.924259 0
M  V30 596 H 56.3327 0.194284 3.51163 0
M  V30 597 H 56.2067 -1.55435 3.43686 0
M  V30 598 H 58.5937 -1.64606 2.44926 0
M  V30 599 H 58.6747 0.118315 2.55526 0
M  V30 600 H 58.3187 -0.0392633 5.07885 0
M  V30 601 H 58.2487 -1.81426 4.9436 0
M  V30 602 H 60.7397 -0.915633 3.6664 0
M  V30 603 H 61.0527 -1.25966 7.62465 0
M  V30 604 H 59.3977 -1.13971 6.85591 0
M  V30 605 H 62.5887 -1.05226 4.5612 0
M  V30 606 H 62.7617 -1.20936 6.36615 0
M  V30 607 N 56.1678 -1.49265 -0.50573 0
M  V30 608 C 57.1158 -1.66065 -1.62866 0
M  V30 609 C 58.1098 -0.526636 -1.61006 0
M  V30 610 O 59.3158 -0.706126 -1.65571 0
M  V30 611 H 55.6908 -0.52356 -0.539805 0
M  V30 612 H 57.6618 -2.60329 -1.45848 0
M  V30 613 C 56.4108 -1.74008 -3.01026 0
M  V30 614 H 55.7338 -2.6064 -3.03161 0
M  V30 615 H 57.1738 -1.89798 -3.79147 0
M  V30 616 C 55.6328 -0.483868 -3.33407 0
M  V30 617 O 56.1628 0.392548 -3.99777 0
M  V30 618 N 54.3688 -0.348236 -2.88506 0
M  V30 619 H 53.9158 -1.06242 -2.34671 0
M  V30 620 H 53.8738 0.491204 -3.10539 0
M  V30 621 N 57.6459 0.756429 -1.3826 0
M  V30 622 C 58.8919 1.51772 -1.34511 0
M  V30 623 C 59.2249 1.94089 0.0656691 0
M  V30 624 O 58.4999 1.65221 1.02626 0
M  V30 625 C 58.7829 2.77226 -2.29821 0
M  V30 626 C 58.6359 2.41065 -3.79747 0
M  V30 627 C 59.9549 3.79236 -2.23312 0
M  V30 628 H 57.0739 0.550578 -0.489931 0
M  V30 629 H 59.7159 0.866607 -1.69086 0
M  V30 630 H 57.8659 3.32784 -2.00467 0
M  V30 631 H 59.5379 1.91303 -4.19763 0
M  V30 632 H 57.7809 1.7356 -3.97567 0
M  V30 633 H 58.4519 3.3081 -4.41892 0
M  V30 634 H 60.9279 3.3321 -2.49219 0
M  V30 635 H 59.8039 4.64714 -2.92116 0
M  V30 636 H 60.0649 4.24615 -1.23102 0
M  V30 637 N 59.124 1.23083 0.984299 0
M  V30 638 C 60.074 0.975749 2.06066 0
M  V30 639 C 61.058 -0.0768251 1.60716 0
M  V30 640 O 62.25 0.134805 1.76486 0
M  V30 641 C 59.379 0.564673 3.38624 0
M  V30 642 C 58.465 1.65244 3.90583 0
M  V30 643 N 58.856 2.88193 4.15666 0
M  V30 644 C 57.154 1.52612 4.19077 0
M  V30 645 C 57.855 3.58593 4.58024 0
M  V30 646 N 56.831 2.86093 4.62225 0
M  V30 647 H 60.633 1.90957 2.23411 0
M  V30 648 H 58.147 1.12963 1.16675 0
M  V30 649 H 60.144 0.36322 4.15315 0
M  V30 650 H 58.804 -0.362147 3.22674 0
M  V30 651 H 59.815 3.24537 4.03604 0
M  V30 652 H 56.492 0.666121 4.12152 0
M  V30 653 H 57.882 4.63974 4.85982 0
M  V30 654 N 60.6021 -1.18246 1.0419 0
M  V30 655 C 61.8301 -1.92195 0.766072 0
M  V30 656 C 62.2451 -1.76247 -0.676933 0
M  V30 657 O 61.6021 -1.09293 -1.46155 0
M  V30 658 C 61.6531 -3.43568 1.12442 0
M  V30 659 O 61.3741 -3.59015 2.51078 0
M  V30 660 C 62.8751 -4.34613 0.873275 0
M  V30 661 H 60.0951 -0.610114 0.279288 0
M  V30 662 H 62.6391 -1.50007 1.38989 0
M  V30 663 H 60.7941 -3.8354 0.545542 0
M  V30 664 H 61.2081 -4.5273 2.64831 0
M  V30 665 H 62.6821 -5.39374 1.17385 0
M  V30 666 H 63.1591 -4.38781 -0.191909 0
M  V30 667 H 63.7651 -4.00341 1.43551 0
M  V30 668 N 62.0802 -0.821533 -1.34494 0
M  V30 669 C 63.3282 -0.408139 -1.97936 0
M  V30 670 C 63.6492 1.03193 -1.65457 0
M  V30 671 O 62.9192 1.71622 -0.944595 0
M  V30 672 H 61.4992 -0.147928 -0.732206 0
M  V30 673 H 64.1612 -1.05067 -1.64155 0
M  V30 674 H 63.2572 -0.52601 -3.07635 0
M  V30 675 N 63.5583 1.46682 -0.576371 0
M  V30 676 C 64.4683 2.34032 0.163141 0
M  V30 677 C 65.4843 1.49367 0.892501 0
M  V30 678 O 66.6603 1.82252 0.857106 0
M  V30 679 C 63.7253 3.26435 1.16795 0
M  V30 680 C 62.7863 4.26998 0.443944 0
M  V30 681 C 62.0193 5.14986 1.40088 0
M  V30 682 O 62.2423 5.05785 2.637 0
M  V30 683 O 61.1763 5.94906 0.914917 0
M  V30 684 H 65.0023 2.98607 -0.55388 0
M  V30 685 H 62.5873 1.45554 -0.336821 0
M  V30 686 H 64.4693 3.83459 1.74748 0
M  V30 687 H 63.1443 2.64465 1.86655 0
M  V30 688 H 62.0513 3.7368 -0.177271 0
M  V30 689 H 63.3843 4.91736 -0.213566 0
M  V30 690 N 65.0364 0.313813 1.54444 0
M  V30 691 C 65.9664 -0.549454 2.26943 0
M  V30 692 C 66.9474 -1.12741 1.27372 0
M  V30 693 O 68.1324 -1.15436 1.56167 0
M  V30 694 C 65.2624 -1.71523 3.01989 0
M  V30 695 C 64.2164 -1.26703 4.08816 0
M  V30 696 C 63.5424 -2.51898 4.71647 0
M  V30 697 C 64.8424 -0.388962 5.2085 0
M  V30 698 H 66.5364 0.0552661 2.99349 0
M  V30 699 H 64.0824 0.0280207 1.43973 0
M  V30 700 H 66.0354 -2.32535 3.51433 0
M  V30 701 H 64.7594 -2.34639 2.27183 0
M  V30 702 H 63.4184 -0.679896 3.6024 0
M  V30 703 H 63.0664 -3.13356 3.93468 0
M  V30 704 H 62.7664 -2.22605 5.43802 0
M  V30 705 H 64.2904 -3.1369 5.23861 0
M  V30 706 H 65.7044 -0.905107 5.6611 0
M  V30 707 H 64.1014 -0.18924 5.99802 0
M  V30 708 H 65.1714 0.582699 4.81386 0
M  V30 709 N 66.5145 -1.57545 0.0417849 0
M  V30 710 C 67.4775 -2.09885 -0.92093 0
M  V30 711 C 68.4775 -1.01648 -1.24596 0
M  V30 712 O 69.6675 -1.27759 -1.1842 0
M  V30 713 C 66.7995 -2.57527 -2.23367 0
M  V30 714 H 67.9925 -2.96236 -0.467382 0
M  V30 715 H 65.5455 -1.5493 -0.206467 0
M  V30 716 H 66.2805 -1.74542 -2.73323 0
M  V30 717 H 66.0655 -3.36613 -2.01083 0
M  V30 718 H 67.5555 -2.98201 -2.92346 0
M  V30 719 N 67.9926 0.231505 -1.5589 0
M  V30 720 C 68.9556 1.27028 -1.90779 0
M  V30 721 C 69.9556 1.40308 -0.785507 0
M  V30 722 O 71.1456 1.38744 -1.05336 0
M  V30 723 C 68.2776 2.64566 -2.14983 0
M  V30 724 H 69.4706 0.973017 -2.83677 0
M  V30 725 H 67.0236 0.471486 -1.49019 0
M  V30 726 H 67.7586 2.99406 -1.24604 0
M  V30 727 H 67.5436 2.56305 -2.96732 0
M  V30 728 H 69.0336 3.39543 -2.43105 0
M  V30 729 N 69.4707 1.49531 0.497807 0
M  V30 730 C 70.7167 1.59415 1.25358 0
M  V30 731 C 71.0497 0.281422 1.9215 0
M  V30 732 O 70.3247 -0.715249 1.80871 0
M  V30 733 C 70.6077 2.75566 2.3181 0
M  V30 734 C 70.4607 4.16642 1.69498 0
M  V30 735 C 71.7797 2.87347 3.33346 0
M  V30 736 H 68.8987 0.580244 0.454408 0
M  V30 737 H 71.5407 1.81827 0.551262 0
M  V30 738 H 69.6907 2.56587 2.91711 0
M  V30 739 H 71.3627 4.47145 1.13399 0
M  V30 740 H 69.6057 4.22141 0.998978 0
M  V30 741 H 70.2767 4.93792 2.46725 0
M  V30 742 H 72.7527 3.04634 2.83438 0
M  V30 743 H 71.6287 3.70289 4.05188 0
M  V30 744 H 71.8897 1.96834 3.95865 0
M  V30 745 N 70.9488 -0.749086 1.3866 0
M  V30 746 C 71.8958 -1.86291 1.36251 0
M  V30 747 C 72.8658 -1.64578 0.224347 0
M  V30 748 O 74.0508 -1.86181 0.417279 0
M  V30 749 C 71.1908 -3.23644 1.19786 0
M  V30 750 C 70.3038 -3.57158 2.43027 0
M  V30 751 C 69.4388 -4.83838 2.19258 0
M  V30 752 C 68.4778 -5.10152 3.38247 0
M  V30 753 N 67.6148 -6.28029 3.13884 0
M  V30 754 H 72.4548 -1.87685 2.3147 0
M  V30 755 H 69.9918 -0.917287 1.14997 0
M  V30 756 H 71.9498 -4.0291 1.08254 0
M  V30 757 H 70.5798 -3.21566 0.282031 0
M  V30 758 H 69.6318 -2.72701 2.65214 0
M  V30 759 H 70.9438 -3.7253 3.31697 0
M  V30 760 H 70.0978 -5.71057 2.04888 0
M  V30 761 H 68.8368 -4.70614 1.2796 0
M  V30 762 H 67.8418 -4.21401 3.53131 0
M  V30 763 H 69.0668 -5.25271 4.30427 0
M  V30 764 H 67.0128 -6.1612 2.25238 0
M  V30 765 H 66.9298 -6.43922 3.96106 0
M  V30 766 H 68.1978 -7.18124 3.03179 0
M  V30 767 N 72.4269 -1.23603 -0.977757 0
M  V30 768 C 73.6759 -1.06377 -1.71368 0
M  V30 769 C 73.9889 0.399062 -1.91486 0
M  V30 770 O 75.1949 0.691312 -2.62551 0
M  V30 771 C 73.6509 -1.85512 -3.08404 0
M  V30 772 C 73.2589 -3.36141 -2.96164 0
M  V30 773 C 75.0029 -1.76783 -3.85938 0
M  V30 774 C 72.9099 -4.07659 -4.28449 0
M  V30 775 H 71.8399 -0.394452 -0.642591 0
M  V30 776 H 74.4909 -1.47594 -1.09034 0
M  V30 777 H 72.8729 -1.37103 -3.71509 0
M  V30 778 H 74.0469 -3.92056 -2.42133 0
M  V30 779 H 72.3619 -3.45712 -2.32104 0
M  V30 780 H 74.9589 -2.27526 -4.83876 0
M  V30 781 H 75.3019 -0.731116 -4.0983 0
M  V30 782 H 75.8349 -2.22818 -3.2954 0
M  V30 783 H 72.5739 -5.11648 -4.09752 0
M  V30 784 H 72.0939 -3.5653 -4.82334 0
M  V30 785 H 73.7729 -4.141 -4.97122 0
M  V30 786 N 73.905 1.17692 -1.04816 0
M  V30 787 C 75.154 1.87192 -0.751132 0
M  V30 788 C 75.467 1.8169 0.724441 0
M  V30 789 O 76.673 2.46625 1.13527 0
M  V30 790 C 75.129 3.35857 -1.29338 0
M  V30 791 C 74.737 3.4987 -2.79812 0
M  V30 792 C 76.481 4.10709 -1.07322 0
M  V30 793 C 74.388 4.92536 -3.27356 0
M  V30 794 H 73.318 0.701162 -0.277288 0
M  V30 795 H 75.969 1.32932 -1.26496 0
M  V30 796 H 74.351 3.89631 -0.707376 0
M  V30 797 H 75.525 3.06332 -3.44235 0
M  V30 798 H 73.84 2.88433 -3.00325 0
M  V30 799 H 76.437 5.15952 -1.4035 0
M  V30 800 H 76.78 4.16299 -0.0108001 0
M  V30 801 H 77.313 3.6313 -1.62423 0
M  V30 802 H 74.052 4.92119 -4.33012 0
M  V30 803 H 73.572 5.3676 -2.67673 0
M  V30 804 H 75.251 5.61288 -3.21815 0
M  V30 805 N 75.3831 0.828654 1.34056 0
M  V30 806 C 76.3301 0.252567 2.29414 0
M  V30 807 C 77.3001 -0.62588 1.53857 0
M  V30 808 O 78.4851 -0.566312 1.82202 0
M  V30 809 C 75.6251 -0.574831 3.40279 0
M  V30 810 C 74.7381 0.326499 4.30764 0
M  V30 811 C 73.8731 -0.511016 5.28736 0
M  V30 812 C 72.9121 0.389342 6.1086 0
M  V30 813 N 72.0491 -0.409439 7.00905 0
M  V30 814 H 76.8891 1.07108 2.78086 0
M  V30 815 H 74.4261 0.539677 1.36843 0
M  V30 816 H 76.3841 -1.06992 4.03248 0
M  V30 817 H 75.0141 -1.35841 2.92826 0
M  V30 818 H 74.0661 0.939837 3.68607 0
M  V30 819 H 75.3781 1.01857 4.88289 0
M  V30 820 H 74.5321 -1.07035 5.97184 0
M  V30 821 H 73.2711 -1.23657 4.71763 0
M  V30 822 H 72.2761 0.960769 5.4134 0
M  V30 823 H 73.5011 1.1131 6.69916 0
M  V30 824 H 71.4471 -1.11856 6.46393 0
M  V30 825 H 71.3641 0.224126 7.55668 0
M  V30 826 H 72.6321 -0.951336 7.73673 0
M  V30 827 N 76.8612 -1.46375 0.584142 0
M  V30 828 C 77.7912 -2.33103 -0.136037 0
M  V30 829 C 78.7722 -1.45431 -0.882255 0
M  V30 830 O 79.9572 -1.74246 -0.857434 0
M  V30 831 C 77.0872 -3.27731 -1.14933 0
M  V30 832 C 76.0412 -4.24855 -0.517862 0
M  V30 833 C 75.3672 -5.09001 -1.63773 0
M  V30 834 C 76.6672 -5.19439 0.545886 0
M  V30 835 H 78.3612 -2.93568 0.588086 0
M  V30 836 H 75.9072 -1.41166 0.284259 0
M  V30 837 H 77.8602 -3.87261 -1.66153 0
M  V30 838 H 76.5842 -2.65377 -1.90375 0
M  V30 839 H 75.2432 -3.6659 -0.0267361 0
M  V30 840 H 74.8912 -4.43031 -2.38185 0
M  V30 841 H 74.5912 -5.74777 -1.22085 0
M  V30 842 H 76.1152 -5.71396 -2.15266 0
M  V30 843 H 77.5292 -5.73177 0.118704 0
M  V30 844 H 75.9262 -5.93566 0.88317 0
M  V30 845 H 76.9962 -4.63285 1.43162 0
M  V30 846 N 78.3393 -0.321999 -1.54275 0
M  V30 847 C 79.2493 0.553631 -2.27974 0
M  V30 848 C 80.2653 1.13054 -1.32268 0
M  V30 849 O 81.4413 1.15084 -1.6528 0
M  V30 850 C 78.5063 1.69927 -3.02201 0
M  V30 851 C 77.5673 1.15433 -4.1349 0
M  V30 852 C 76.8003 2.24537 -4.84168 0
M  V30 853 O 77.0233 3.44852 -4.5435 0
M  V30 854 O 75.9573 1.90044 -5.7111 0
M  V30 855 H 79.7833 -0.0448345 -3.03667 0
M  V30 856 H 77.3683 -0.0877418 -1.49142 0
M  V30 857 H 79.2503 2.3663 -3.48689 0
M  V30 858 H 77.9253 2.28395 -2.29385 0
M  V30 859 H 76.8323 0.452436 -3.71354 0
M  V30 860 H 78.1653 0.614805 -4.88345 0
M  V30 861 N 79.8174 1.5752 -0.0501392 0
M  V30 862 C 81.2284 1.80271 0.485705 0
M  V30 863 C 81.5794 0.96228 1.70981 0
M  V30 864 O 80.7044 0.178578 2.15662 0
M  V30 865 C 81.2994 3.26957 0.887938 0
M  V30 866 C 79.8584 3.5063 1.36877 0
M  V30 867 C 79.0054 2.75165 0.343468 0
M  V30 868 H 81.9564 1.56281 -0.276028 0
M  V30 869 H 81.9774 3.37821 1.75093 0
M  V30 870 H 81.4894 3.881 -0.0031809 0
M  V30 871 H 79.5904 2.94766 2.27911 0
M  V30 872 H 79.7034 4.59343 1.36164 0
M  V30 873 H 78.0674 2.4127 0.816128 0
M  V30 874 H 78.8504 3.39034 -0.539548 0
M  V30 875 N 81.2955 -0.223234 1.56011 0
M  V30 876 C 82.5435 -0.946003 1.78592 0
M  V30 877 C 82.8645 -1.84936 0.618349 0
M  V30 878 O 82.1345 -1.92473 -0.364833 0
M  V30 879 H 80.7145 -0.352298 0.658707 0
M  V30 880 H 83.3765 -0.235494 1.93472 0
M  V30 881 H 82.4725 -1.55381 2.70672 0
M  V30 882 N 82.7736 -1.49793 -0.48987 0
M  V30 883 C 84.0506 -1.50348 -1.25119 0
M  V30 884 C 84.4306 -0.237466 -2.0976 0
M  V30 885 O 83.7786 0.77981 -2.14782 0
M  V30 886 C 83.9886 -2.78872 -2.09837 0
M  V30 887 C 85.3366 -3.288 -2.68655 0
M  V30 888 O 86.3606 -2.80065 -2.20096 0
M  V30 889 O 85.2196 -4.13707 -3.57083 0
M  V30 890 H 82.3136 -0.602242 -0.566775 0
M  V30 891 H 84.8596 -1.62067 -0.503229 0
M  V30 892 H 83.6316 -3.62499 -1.47343 0
M  V30 893 H 83.2546 -2.70066 -2.91805 0
M  V30 894 N 84.2517 0.741722 -1.39055 0
M  V30 895 C 85.5287 1.49252 -1.26425 0
M  V30 896 C 85.9087 2.10705 0.129144 0
M  V30 897 O 85.2567 1.98045 1.13976 0
M  V30 898 C 85.4667 2.54934 -2.38347 0
M  V30 899 C 86.8147 3.21506 -2.77343 0
M  V30 900 O 87.8387 2.65245 -2.37747 0
M  V30 901 O 86.6977 4.23294 -3.45665 0
M  V30 902 H 83.7917 0.662451 -0.495064 0
M  V30 903 H 86.3377 0.776121 -1.50912 0
M  V30 904 H 85.1097 2.07857 -3.31529 0
M  V30 905 H 84.7327 3.34141 -2.15489 0
M  V30 906 N 85.7298 1.2412 0.971189 0
M  V30 907 C 86.9768 1.07881 1.71371 0
M  V30 908 C 87.3048 -0.382901 1.90694 0
M  V30 909 O 86.5598 -1.29945 1.46331 0
M  V30 910 C 86.8588 1.75983 3.11071 0
M  V30 911 C 86.5248 3.25909 3.11599 0
M  V30 912 C 85.1868 3.66813 3.11451 0
M  V30 913 C 87.5388 4.21771 3.062 0
M  V30 914 C 84.8668 5.02021 3.03631 0
M  V30 915 C 87.2188 5.56982 2.99923 0
M  V30 916 C 85.8828 5.97237 2.98102 0
M  V30 917 H 85.1528 0.394764 0.62709 0
M  V30 918 H 87.7998 1.54176 1.13587 0
M  V30 919 H 86.1048 1.22072 3.72298 0
M  V30 920 H 87.8018 1.60887 3.6731 0
M  V30 921 H 84.3918 2.93353 3.12477 0
M  V30 922 H 88.5758 3.91172 3.05447 0
M  V30 923 H 83.8318 5.32411 3.0058 0
M  V30 924 H 88.0058 6.30969 2.94704 0
M  V30 925 H 85.6328 7.01967 2.91798 0
M  V30 926 N 87.2079 -1.17134 1.05439 0
M  V30 927 C 88.4329 -1.91913 0.786396 0
M  V30 928 C 88.8579 -1.7643 -0.652234 0
M  V30 929 O 88.2159 -1.08372 -1.45345 0
M  V30 930 C 88.2639 -3.40921 1.17497 0
M  V30 931 O 87.3679 -4.11244 0.308589 0
M  V30 932 H 86.7089 -0.598215 0.288158 0
M  V30 933 H 89.2389 -1.48457 1.4079 0
M  V30 934 H 89.2489 -3.91668 1.14281 0
M  V30 935 H 87.9239 -3.5151 2.22292 0
M  V30 936 H 86.5009 -3.70731 0.40157 0
M  V30 937 N 88.686 -0.835752 -1.33615 0
M  V30 938 C 89.616 -0.281739 -2.31794 0
M  V30 939 C 90.597 0.608833 -1.58831 0
M  V30 940 O 91.782 0.533035 -1.86741 0
M  V30 941 C 88.912 0.546612 -3.42971 0
M  V30 942 C 87.866 -0.247904 -4.27281 0
M  V30 943 C 87.192 0.704001 -5.30045 0
M  V30 944 C 88.492 -1.46324 -5.01385 0
M  V30 945 H 90.186 -1.10206 -2.78379 0
M  V30 946 H 87.732 -0.531388 -1.33837 0
M  V30 947 H 89.685 0.944467 -4.1068 0
M  V30 948 H 88.409 1.40011 -2.95067 0
M  V30 949 H 87.068 -0.627281 -3.61194 0
M  V30 950 H 86.716 1.55381 -4.78399 0
M  V30 951 H 86.416 0.176524 -5.87335 0
M  V30 952 H 87.94 1.09944 -6.0062 0
M  V30 953 H 89.354 -1.13871 -5.61877 0
M  V30 954 H 87.751 -1.92728 -5.6831 0
M  V30 955 H 88.821 -2.23467 -4.30338 0
M  V30 956 N 90.1641 1.46063 -0.591896 0
M  V30 957 C 91.4131 2.01547 -0.0786637 0
M  V30 958 C 91.7261 1.46796 1.29268 0
M  V30 959 O 92.9321 1.94157 1.89777 0
M  V30 960 C 91.3881 3.59787 -0.0900024 0
M  V30 961 C 90.9961 4.23534 -1.46023 0
M  V30 962 C 92.7401 4.22895 0.368806 0
M  V30 963 C 90.6471 5.73881 -1.4288 0
M  V30 964 H 89.5771 0.753564 -0.0256388 0
M  V30 965 H 92.2281 1.677 -0.744905 0
M  V30 966 H 90.6101 3.90752 0.642586 0
M  V30 967 H 91.7841 4.04167 -2.21328 0
M  V30 968 H 90.0991 3.72558 -1.85982 0
M  V30 969 H 92.6961 5.33116 0.411258 0
M  V30 970 H 93.0391 3.9247 1.38827 0
M  V30 971 H 93.5721 3.9659 -0.31001 0
M  V30 972 H 90.3111 6.0898 -2.42536 0
M  V30 973 H 89.8311 5.95486 -0.718095 0
M  V30 974 H 91.5101 6.36776 -1.14565 0
M  V30 975 N 91.6422 0.330177 1.54103 0
M  V30 976 C 92.5742 -0.566902 2.22079 0
M  V30 977 C 93.5872 -1.07462 1.22294 0
M  V30 978 O 94.7762 -0.987065 1.48726 0
M  V30 979 C 91.8762 -1.79138 2.87685 0
M  V30 980 C 91.0492 -1.42123 4.13666 0
M  V30 981 C 90.1082 -2.50394 4.62806 0
M  V30 982 O 89.1342 -2.14261 5.27334 0
M  V30 983 N 90.3362 -3.81433 4.37595 0
M  V30 984 H 93.1012 0.0151844 2.99696 0
M  V30 985 H 90.6622 0.153681 1.61169 0
M  V30 986 H 92.6542 -2.50975 3.1748 0
M  V30 987 H 91.2242 -2.28115 2.13734 0
M  V30 988 H 90.4442 -0.534201 3.90564 0
M  V30 989 H 91.7322 -1.14971 4.9564 0
M  V30 990 H 91.1302 -4.13584 3.8596 0
M  V30 991 H 89.6872 -4.4948 4.72029 0
M  V30 992 N 93.1203 -1.57491 0.0584922 0
M  V30 993 C 94.0523 -2.08916 -0.942694 0
M  V30 994 C 95.0653 -1.0185 -1.27006 0
M  V30 995 O 96.2543 -1.29398 -1.22957 0
M  V30 996 C 93.3543 -2.52341 -2.26224 0
M  V30 997 C 92.5273 -3.82827 -2.1157 0
M  V30 998 C 91.5863 -4.12487 -3.26712 0
M  V30 999 O 90.6123 -4.82295 -3.02292 0
M  V30 1000 N 91.8143 -3.64978 -4.5141 0
M  V30 1001 H 94.5793 -2.95437 -0.503722 0
M  V30 1002 H 92.1403 -1.61397 -0.12757 0
M  V30 1003 H 94.1323 -2.69254 -3.02133 0
M  V30 1004 H 92.7023 -1.7103 -2.61663 0
M  V30 1005 H 91.9223 -3.75425 -1.20208 0
M  V30 1006 H 93.2103 -4.68263 -1.99015 0
M  V30 1007 H 92.6083 -3.08558 -4.7414 0
M  V30 1008 H 91.1653 -3.87115 -5.2439 0
M  V30 1009 N 94.5984 0.214957 -1.56127 0
M  V30 1010 C 95.5084 1.28727 -1.96129 0
M  V30 1011 C 96.5244 1.50916 -0.866044 0
M  V30 1012 O 97.7004 1.63918 -1.17016 0
M  V30 1013 C 94.7654 2.61569 -2.27558 0
M  V30 1014 C 93.8264 2.47625 -3.50685 0
M  V30 1015 C 93.0594 3.74132 -3.80606 0
M  V30 1016 O 93.2824 4.77438 -3.12104 0
M  V30 1017 O 92.2164 3.70849 -4.74083 0
M  V30 1018 H 96.0424 0.977855 -2.87527 0
M  V30 1019 H 93.6274 0.418358 -1.43423 0
M  V30 1020 H 95.5094 3.40012 -2.48938 0
M  V30 1021 H 94.1844 2.92178 -1.39332 0
M  V30 1022 H 93.0914 1.67361 -3.34576 0
M  V30 1023 H 94.4244 2.21954 -4.39315 0
M  V30 1024 N 96.0765 1.50051 0.48192 0
M  V30 1025 C 97.3255 1.59741 1.23149 0
M  V30 1026 C 97.6385 0.298163 1.93314 0
M  V30 1027 O 98.8445 0.273835 2.70116 0
M  V30 1028 C 97.3005 2.81926 2.23708 0
M  V30 1029 C 96.9085 4.18685 1.59396 0
M  V30 1030 C 98.6525 3.00956 2.99375 0
M  V30 1031 C 96.5595 5.3207 2.58178 0
M  V30 1032 H 95.4895 0.594838 0.46334 0
M  V30 1033 H 98.1405 1.76467 0.503169 0
M  V30 1034 H 96.5225 2.58736 2.99786 0
M  V30 1035 H 97.6965 4.52088 0.891811 0
M  V30 1036 H 96.0115 4.05171 0.960503 0
M  V30 1037 H 98.6085 3.82836 3.73283 0
M  V30 1038 H 98.9515 2.12258 3.58123 0
M  V30 1039 H 99.4845 3.24277 2.30411 0
M  V30 1040 H 96.2235 6.22888 2.04184 0
M  V30 1041 H 95.7435 5.03098 3.26577 0
M  V30 1042 H 97.4225 5.62196 3.20225 0
M  V30 1043 N 97.5546 -0.734337 1.39446 0
M  V30 1044 C 98.8016 -1.49391 1.36706 0
M  V30 1045 C 99.1296 -1.94465 -0.0367813 0
M  V30 1046 O 98.3846 -1.67154 -1.01774 0
M  V30 1047 C 98.6836 -2.74711 2.28623 0
M  V30 1048 C 98.3496 -2.48501 3.76242 0
M  V30 1049 C 97.0116 -2.41062 4.16464 0
M  V30 1050 C 99.3636 -2.26098 4.69606 0
M  V30 1051 C 96.6916 -2.09262 5.48112 0
M  V30 1052 C 99.0436 -1.95814 6.01531 0
M  V30 1053 C 97.7076 -1.86845 6.40816 0
M  V30 1054 H 96.9776 -0.546661 0.500243 0
M  V30 1055 H 99.6246 -0.842788 1.71957 0
M  V30 1056 H 97.9296 -3.44569 1.86492 0
M  V30 1057 H 99.6266 -3.32741 2.23796 0
M  V30 1058 H 96.2166 -2.55169 3.44364 0
M  V30 1059 H 100.401 -2.30812 4.39363 0
M  V30 1060 H 95.6566 -2.00841 5.77471 0
M  V30 1061 H 99.8306 -1.77488 6.73403 0
M  V30 1062 H 97.4576 -1.6197 7.42745 0
M  V30 1063 N 99.0327 -1.24633 -0.964593 0
M  V30 1064 C 99.9657 -0.984662 -2.05863 0
M  V30 1065 C 100.944 0.0826554 -1.6239 0
M  V30 1066 O 102.128 -0.0549296 -1.8842 0
M  V30 1067 C 99.2547 -0.486529 -3.35187 0
M  V30 1068 C 98.3007 -1.54286 -3.97615 0
M  V30 1069 S 99.1337 -3.12513 -4.34851 0
M  V30 1070 C 100.29 -2.6441 -5.67308 0
M  V30 1071 H 100.523 -1.91104 -2.27743 0
M  V30 1072 H 98.0557 -1.08052 -1.10291 0
M  V30 1073 H 100.014 -0.205757 -4.09984 0
M  V30 1074 H 98.6747 0.419186 -3.1129 0
M  V30 1075 H 97.8677 -1.14481 -4.90826 0
M  V30 1076 H 97.4697 -1.7738 -3.2926 0
M  V30 1077 H 99.7617 -2.07416 -6.44969 0
M  V30 1078 H 100.705 -3.56222 -6.11973 0
M  V30 1079 H 101.113 -2.04734 -5.26065 0
M  V30 1080 N 100.511 1.16574 -1.06058 0
M  V30 1081 C 101.757 1.87324 -0.777022 0
M  V30 1082 C 102.09 1.81351 0.694645 0
M  V30 1083 O 101.365 1.22753 1.50871 0
M  V30 1084 C 101.648 3.36991 -1.26922 0
M  V30 1085 C 101.501 3.51667 -2.80447 0
M  V30 1086 C 102.82 4.3131 -0.87521 0
M  V30 1087 H 99.9388 0.680191 -0.28374 0
M  V30 1088 H 102.581 1.37036 -1.3161 0
M  V30 1089 H 100.731 3.79949 -0.81063 0
M  V30 1090 H 102.403 3.17664 -3.34495 0
M  V30 1091 H 100.646 2.93656 -3.19294 0
M  V30 1092 H 101.317 4.56766 -3.0995 0
M  V30 1093 H 103.793 3.9624 -1.27014 0
M  V30 1094 H 102.669 5.34545 -1.2471 0
M  V30 1095 H 102.93 4.41552 0.220071 0
M  V30 1096 N 101.989 0.842826 1.3317 0
M  V30 1097 C 102.936 0.276885 2.29133 0
M  V30 1098 C 103.906 -0.609527 1.54512 0
M  V30 1099 O 105.091 -0.546955 1.82792 0
M  V30 1100 C 102.231 -0.538707 3.40869 0
M  V30 1101 C 101.344 0.372169 4.30394 0
M  V30 1102 C 100.479 -0.454908 5.29249 0
M  V30 1103 C 99.5179 0.45411 6.10413 0
M  V30 1104 N 98.6549 -0.335075 7.013 0
M  V30 1105 H 103.495 1.10052 2.76934 0
M  V30 1106 H 101.032 0.554161 1.36262 0
M  V30 1107 H 102.99 -1.02709 4.0436 0
M  V30 1108 H 101.62 -1.32727 2.9425 0
M  V30 1109 H 100.672 0.97888 3.6759 0
M  V30 1110 H 101.984 1.0703 4.87182 0
M  V30 1111 H 101.138 -1.00695 5.98285 0
M  V30 1112 H 99.8769 -1.18646 4.73048 0
M  V30 1113 H 98.8819 1.01813 5.40291 0
M  V30 1114 H 100.107 1.18409 6.68697 0
M  V30 1115 H 98.0529 -1.04994 6.47543 0
M  V30 1116 H 97.9699 0.304262 7.55387 0
M  V30 1117 H 99.2379 -0.869224 7.74638 0
M  V30 1118 N 103.467 -1.45747 0.599634 0
M  V30 1119 C 104.377 -2.34262 -0.125888 0
M  V30 1120 C 105.393 -1.50768 -0.868625 0
M  V30 1121 O 106.569 -1.83592 -0.828003 0
M  V30 1122 C 103.634 -3.28252 -1.11587 0
M  V30 1123 C 102.695 -4.27651 -0.375956 0
M  V30 1124 C 101.928 -5.1715 -1.31877 0
M  V30 1125 O 102.151 -5.09916 -2.55621 0
M  V30 1126 O 101.085 -5.96286 -0.820157 0
M  V30 1127 H 104.911 -2.97688 0.601315 0
M  V30 1128 H 102.496 -1.44999 0.359934 0
M  V30 1129 H 104.378 -3.86191 -1.68626 0
M  V30 1130 H 103.053 -2.67401 -1.82424 0
M  V30 1131 H 101.96 -3.7335 0.236698 0
M  V30 1132 H 103.293 -4.91334 0.29177 0
M  V30 1133 N 104.945 -0.338344 -1.53925 0
M  V30 1134 C 106.185 0.260168 -2.02737 0
M  V30 1135 C 106.549 1.48181 -1.22092 0
M  V30 1136 O 107.75 2.15416 -1.60777 0
M  V30 1137 C 106.021 0.571627 -3.52799 0
M  V30 1138 S 107.58 1.14769 -4.23525 0
M  V30 1139 H 104.398 0.077791 -0.706732 0
M  V30 1140 H 107 -0.474899 -1.89644 0
M  V30 1141 H 105.704 -0.325392 -4.09108 0
M  V30 1142 H 105.235 1.3365 -3.70002 0
M  V30 1143 H 107.25 2.43372 -4.32417 0
M  V30 1144 N 106.423 1.57458 -0.0668435 0
M  V30 1145 C 107.37 2.12439 0.902122 0
M  V30 1146 C 108.34 1.03565 1.2986 0
M  V30 1147 O 109.525 1.312 1.38532 0
M  V30 1148 C 106.665 2.6865 2.16614 0
M  V30 1149 C 105.778 3.91663 1.82274 0
M  V30 1150 C 104.913 4.36134 3.0325 0
M  V30 1151 C 103.952 5.51808 2.64904 0
M  V30 1152 N 103.089 5.9126 3.78624 0
M  V30 1153 H 107.929 2.94934 0.426382 0
M  V30 1154 H 105.466 1.4575 0.198819 0
M  V30 1155 H 107.424 2.99346 2.90599 0
M  V30 1156 H 106.054 1.88928 2.61737 0
M  V30 1157 H 105.106 3.6746 0.983719 0
M  V30 1158 H 106.418 4.75693 1.50059 0
M  V30 1159 H 105.572 4.68465 3.85519 0
M  V30 1160 H 104.311 3.50948 3.38655 0
M  V30 1161 H 103.316 5.19133 1.81055 0
M  V30 1162 H 104.541 6.38722 2.30675 0
M  V30 1163 H 102.487 5.09024 4.138 0
M  V30 1164 H 102.404 6.70018 3.5016 0
M  V30 1165 H 103.672 6.28212 4.61486 0
M  V30 1166 N 107.901 -0.206675 1.56239 0
M  V30 1167 C 108.851 -1.26 1.90021 0
M  V30 1168 C 109.835 -1.41566 0.764721 0
M  V30 1169 O 111.027 -1.44131 1.02739 0
M  V30 1170 C 108.156 -2.6073 2.23326 0
M  V30 1171 C 107.242 -2.49005 3.43304 0
M  V30 1172 N 107.633 -2.06946 4.61527 0
M  V30 1173 C 105.931 -2.79927 3.47213 0
M  V30 1174 C 106.632 -2.06832 5.43687 0
M  V30 1175 N 105.608 -2.47892 4.83788 0
M  V30 1176 H 109.41 -0.925955 2.78932 0
M  V30 1177 H 106.924 -0.415172 1.57003 0
M  V30 1178 H 108.921 -3.36798 2.45708 0
M  V30 1179 H 107.581 -2.94968 1.35735 0
M  V30 1180 H 108.592 -1.77839 4.86409 0
M  V30 1181 H 105.269 -3.18438 2.70006 0
M  V30 1182 H 106.659 -1.76312 6.48354 0
M  V30 1183 N 109.379 -1.50304 -0.473955 0
M  V30 1184 C 110.619 -1.62786 -1.23612 0
M  V30 1185 C 110.983 -0.319786 -1.89318 0
M  V30 1186 O 112.184 -0.320012 -2.66888 0
M  V30 1187 C 110.455 -2.77351 -2.25414 0
M  V30 1188 S 112.014 -3.09948 -3.10608 0
M  V30 1189 H 108.832 -0.573895 -0.419721 0
M  V30 1190 H 111.434 -1.88076 -0.533623 0
M  V30 1191 H 110.138 -3.70879 -1.75719 0
M  V30 1192 H 109.669 -2.54137 -3.00296 0
M  V30 1193 H 111.684 -2.53553 -4.26527 0
M  V30 1194 N 110.857 0.726932 -1.39834 0
M  V30 1195 C 111.805 1.86235 -1.39353 0
M  V30 1196 C 112.799 1.67144 -0.275555 0
M  V30 1197 O 114.005 1.74387 -0.44601 0
M  V30 1198 H 110.38 0.613174 -0.43534 0
M  V30 1199 H 112.351 1.83756 -2.35109 0
M  V30 1200 C 111.1 3.23995 -1.26185 0
M  V30 1201 H 110.423 3.39285 -2.11484 0
M  V30 1202 H 111.863 4.03609 -1.29907 0
M  V30 1203 C 110.322 3.36888 0.0290018 0
M  V30 1204 O 110.852 3.89152 0.99619 0
M  V30 1205 N 109.058 2.90446 0.0947437 0
M  V30 1206 H 108.605 2.48102 -0.693035 0
M  V30 1207 H 108.563 2.99451 0.957932 0
M  V30 1208 N 112.336 1.25143 0.95797 0
M  V30 1209 C 113.585 1.0909 1.69654 0
M  V30 1210 C 113.898 -0.368548 1.92097 0
M  V30 1211 O 115.104 -0.649455 2.63618 0
M  V30 1212 C 113.56 1.90395 3.05414 0
M  V30 1213 C 113.168 3.4081 2.90779 0
M  V30 1214 C 114.912 1.82901 3.83076 0
M  V30 1215 C 112.819 4.14423 4.21909 0
M  V30 1216 H 111.749 0.404625 0.636235 0
M  V30 1217 H 114.4 1.4931 1.06672 0
M  V30 1218 H 112.782 1.42996 3.69281 0
M  V30 1219 H 113.956 3.95859 2.35865 0
M  V30 1220 H 112.271 3.49361 2.26575 0
M  V30 1221 H 114.868 2.35196 4.80195 0
M  V30 1222 H 115.211 0.796224 4.08615 0
M  V30 1223 H 115.744 2.28033 3.25954 0
M  V30 1224 H 112.483 5.18102 4.01561 0
M  V30 1225 H 112.003 3.64159 4.76601 0
M  V30 1226 H 113.682 4.21956 4.90471 0
M  V30 1227 N 113.814 -1.1601 1.06675 0
M  V30 1228 C 115.06 -1.86909 0.786945 0
M  V30 1229 C 115.393 -1.81717 -0.685018 0
M  V30 1230 O 114.668 -1.23551 -1.50218 0
M  V30 1231 C 114.951 -3.36313 1.28707 0
M  V30 1232 C 114.804 -3.50175 2.82308 0
M  V30 1233 C 116.123 -4.3084 0.898071 0
M  V30 1234 H 113.242 -0.678677 0.287343 0
M  V30 1235 H 115.884 -1.36336 1.32334 0
M  V30 1236 H 114.034 -3.79513 0.830768 0
M  V30 1237 H 115.706 -3.15886 3.36175 0
M  V30 1238 H 113.949 -2.91959 3.20847 0
M  V30 1239 H 114.62 -4.55116 3.12368 0
M  V30 1240 H 117.096 -3.95561 1.29114 0
M  V30 1241 H 115.972 -5.33876 1.27543 0
M  V30 1242 H 116.233 -4.41662 -0.196651 0
M  V30 1243 N 115.292 -0.849877 -1.32721 0
M  V30 1244 C 116.255 -0.296122 -2.27279 0
M  V30 1245 C 117.255 0.541458 -1.5141 0
M  V30 1246 O 118.445 0.353658 -1.70572 0
M  V30 1247 C 115.577 0.581579 -3.35902 0
M  V30 1248 H 116.77 -1.13064 -2.77771 0
M  V30 1249 H 114.323 -0.62383 -1.43311 0
M  V30 1250 H 115.058 1.43809 -2.9067 0
M  V30 1251 H 114.843 -0.0178814 -3.92096 0
M  V30 1252 H 116.333 0.961951 -4.0637 0
M  V30 1253 N 116.77 1.45427 -0.607355 0
M  V30 1254 C 118 2.06314 -0.108656 0
M  V30 1255 C 118.408 1.45269 1.21217 0
M  V30 1256 O 117.751 0.561115 1.74921 0
M  V30 1257 C 117.813 3.59345 0.105618 0
M  V30 1258 C 117.477 4.42723 -1.13337 0
M  V30 1259 C 118.474 4.77715 -2.05145 0
M  V30 1260 C 116.159 4.83478 -1.36213 0
M  V30 1261 C 118.153 5.52317 -3.18158 0
M  V30 1262 C 115.84 5.57835 -2.49527 0
M  V30 1263 C 116.838 5.92171 -3.40327 0
M  V30 1264 O 116.526 6.65019 -4.51669 0
M  V30 1265 H 116.258 0.672782 -0.0658842 0
M  V30 1266 H 118.812 1.87664 -0.834945 0
M  V30 1267 H 117.042 3.76394 0.886796 0
M  V30 1268 H 118.731 4.02076 0.555886 0
M  V30 1269 H 119.497 4.46787 -1.88697 0
M  V30 1270 H 115.376 4.56188 -0.664362 0
M  V30 1271 H 118.92 5.79036 -3.89054 0
M  V30 1272 H 114.817 5.88177 -2.65928 0
M  V30 1273 H 115.585 6.83469 -4.50348 0
M  V30 1274 N 118.248 0.346503 1.53744 0
M  V30 1275 C 119.495 -0.249104 2.00962 0
M  V30 1276 C 119.823 -1.5032 1.23426 0
M  V30 1277 O 119.078 -1.93217 0.310761 0
M  V30 1278 C 119.377 -0.605809 3.52228 0
M  V30 1279 C 119.043 0.551747 4.47512 0
M  V30 1280 C 117.705 0.86941 4.73281 0
M  V30 1281 C 120.057 1.32818 5.03993 0
M  V30 1282 C 117.385 1.96582 5.52786 0
M  V30 1283 C 119.737 2.41486 5.84694 0
M  V30 1284 C 118.401 2.73808 6.08757 0
M  V30 1285 H 117.671 -0.0911538 0.735372 0
M  V30 1286 H 120.318 0.475027 1.85515 0
M  V30 1287 H 118.623 -1.4107 3.65522 0
M  V30 1288 H 120.32 -1.07858 3.86222 0
M  V30 1289 H 116.91 0.294102 4.2759 0
M  V30 1290 H 121.094 1.09602 4.84047 0
M  V30 1291 H 116.35 2.22045 5.69654 0
M  V30 1292 H 120.524 3.02078 6.27473 0
M  V30 1293 H 118.151 3.58892 6.7015 0
M  V30 1294 N 119.726 -1.57421 0.075193 0
M  V30 1295 C 120.974 -1.93236 -0.591974 0
M  V30 1296 C 121.295 -0.956241 -1.69944 0
M  V30 1297 O 120.565 -0.00494792 -1.95899 0
M  V30 1298 H 119.145 -0.713355 -0.22166 0
M  V30 1299 H 121.807 -1.9444 0.133848 0
M  V30 1300 H 120.903 -2.95131 -1.01509 0
M  V30 1301 N 121.204 0.198386 -1.56346 0
M  V30 1302 C 122.429 0.939682 -1.84891 0
M  V30 1303 C 122.854 1.76202 -0.658369 0
M  V30 1304 O 122.212 1.76993 0.392851 0
M  V30 1305 C 122.26 1.81428 -3.11635 0
M  V30 1306 O 121.364 2.91265 -2.91956 0
M  V30 1307 H 120.705 0.264807 -0.608912 0
M  V30 1308 H 123.235 0.204695 -2.03573 0
M  V30 1309 H 123.245 2.21958 -3.42343 0
M  V30 1310 H 121.92 1.21004 -3.97908 0
M  V30 1311 H 120.497 2.54514 -2.72538 0
M  V30 1312 N 122.682 1.50554 0.465978 0
M  V30 1313 C 123.912 1.65323 1.23903 0
M  V30 1314 C 124.32 0.338051 1.86155 0
M  V30 1315 O 123.663 -0.690518 1.70228 0
M  V30 1316 C 123.725 2.69048 2.3844 0
M  V30 1317 C 123.389 4.12462 1.96784 0
M  V30 1318 C 124.386 4.98168 1.48745 0
M  V30 1319 C 122.071 4.58407 2.05349 0
M  V30 1320 C 124.065 6.27868 1.0982 0
M  V30 1321 C 121.752 5.88112 1.66035 0
M  V30 1322 C 122.75 6.72668 1.18349 0
M  V30 1323 O 122.438 7.99951 0.795825 0
M  V30 1324 H 122.17 0.558629 0.38067 0
M  V30 1325 H 124.724 1.97561 0.562022 0
M  V30 1326 H 122.954 2.32062 3.09328 0
M  V30 1327 H 124.643 2.72985 3.0039 0
M  V30 1328 H 125.409 4.63885 1.41546 0
M  V30 1329 H 121.288 3.92735 2.41414 0
M  V30 1330 H 124.832 6.93819 0.725293 0
M  V30 1331 H 120.729 6.21914 1.72895 0
M  V30 1332 H 121.497 8.13265 0.924222 0
M  V30 1333 N 124.16 -0.719506 1.40217 0
M  V30 1334 C 125.09 -1.8465 1.42922 0
M  V30 1335 C 126.071 -1.67599 0.29062 0
M  V30 1336 O 127.256 -1.87688 0.498677 0
M  V30 1337 C 124.386 -3.22565 1.28722 0
M  V30 1338 C 123.34 -3.54281 2.40144 0
M  V30 1339 C 122.666 -4.91298 2.11023 0
M  V30 1340 C 123.966 -3.55676 3.82481 0
M  V30 1341 H 125.66 -1.82644 2.37237 0
M  V30 1342 H 123.206 -0.877305 1.1419 0
M  V30 1343 H 125.159 -4.01095 1.29232 0
M  V30 1344 H 123.883 -3.25137 0.308811 0
M  V30 1345 H 122.542 -2.78088 2.38877 0
M  V30 1346 H 122.19 -4.90468 1.11582 0
M  V30 1347 H 121.89 -5.13485 2.8567 0
M  V30 1348 H 123.414 -5.72166 2.13209 0
M  V30 1349 H 124.828 -4.24254 3.85592 0
M  V30 1350 H 123.225 -3.89388 4.56614 0
M  V30 1351 H 124.295 -2.55144 4.12346 0
M  V30 1352 N 125.638 -1.25649 -0.95132 0
M  V30 1353 C 126.863 -1.13443 -1.73624 0
M  V30 1354 C 127.288 0.307565 -1.85568 0
M  V30 1355 O 126.646 1.22282 -1.33854 0
M  V30 1356 C 126.694 -1.79723 -3.12621 0
M  V30 1357 O 125.798 -1.07912 -3.98031 0
M  V30 1358 H 125.139 -0.395872 -0.533086 0
M  V30 1359 H 127.669 -1.66276 -1.1922 0
M  V30 1360 H 127.679 -1.86141 -3.63064 0
M  V30 1361 H 126.354 -2.84633 -3.03244 0
M  V30 1362 H 124.931 -1.09398 -3.56492 0
M  V30 1363 N 127.117 1.15442 -1.07289 0
M  V30 1364 C 128.533 1.38201 -0.798288 0
M  V30 1365 C 128.733 1.92429 0.597769 0
M  V30 1366 O 127.789 2.12962 1.3566 0
M  V30 1367 C 129.102 2.35357 -1.87156 0
M  V30 1368 C 130.65 2.49021 -1.89624 0
M  V30 1369 C 131.125 3.49468 -2.96034 0
M  V30 1370 N 132.616 3.57003 -2.95132 0
M  V30 1371 C 133.351 4.34543 -3.74112 0
M  V30 1372 N 132.847 5.15421 -4.6294 0
M  V30 1373 N 134.64 4.29625 -3.62462 0
M  V30 1374 H 126.791 0.78584 -1.97328 0
M  V30 1375 H 129.054 0.408065 -0.855679 0
M  V30 1376 H 128.76 2.02626 -2.87464 0
M  V30 1377 H 128.634 3.35129 -1.73114 0
M  V30 1378 H 131.021 2.81051 -0.899687 0
M  V30 1379 H 131.102 1.4925 -2.07745 0
M  V30 1380 H 130.746 3.18173 -3.95889 0
M  V30 1381 H 130.676 4.48992 -2.75161 0
M  V30 1382 H 133.167 2.99276 -2.30743 0
M  V30 1383 H 133.48 5.7183 -5.19837 0
M  V30 1384 H 131.825 5.14729 -4.66989 0
M  V30 1385 H 135.016 3.65505 -2.92444 0
M  V30 1386 H 135.189 4.89807 -4.24256 0
M  V30 1387 N 128.595 0.856903 1.32268 0
M  V30 1388 C 129.505 0.306131 2.32594 0
M  V30 1389 C 130.521 -0.577209 1.64147 0
M  V30 1390 O 131.697 -0.477043 1.95669 0
M  V30 1391 C 128.762 -0.494561 3.43154 0
M  V30 1392 C 127.823 0.415186 4.27288 0
M  V30 1393 C 127.056 -0.347387 5.32568 0
M  V30 1394 O 127.279 -1.57708 5.48165 0
M  V30 1395 O 126.213 0.287982 6.01211 0
M  V30 1396 H 130.039 1.13737 2.81598 0
M  V30 1397 H 127.624 0.619902 1.35932 0
M  V30 1398 H 129.506 -0.948944 4.10576 0
M  V30 1399 H 128.181 -1.30257 2.96336 0
M  V30 1400 H 127.088 0.917793 3.62667 0
M  V30 1401 H 128.421 1.18844 4.77637 0
M  V30 1402 N 130.073 -1.45103 0.615059 0
M  V30 1403 C 131.02 -2.30586 -0.0993978 0
M  V30 1404 C 131.99 -1.42544 -0.852669 0
M  V30 1405 O 133.175 -1.71465 -0.836917 0
M  V30 1406 C 130.315 -3.27572 -1.08583 0
M  V30 1407 C 129.428 -4.30717 -0.332656 0
M  V30 1408 C 128.563 -5.14807 -1.30947 0
M  V30 1409 C 127.602 -6.09673 -0.544538 0
M  V30 1410 N 126.739 -6.86517 -1.47101 0
M  V30 1411 H 131.579 -2.91144 0.635542 0
M  V30 1412 H 129.116 -1.4346 0.325206 0
M  V30 1413 H 131.074 -3.82276 -1.67095 0
M  V30 1414 H 129.704 -2.68751 -1.78809 0
M  V30 1415 H 128.756 -3.78615 0.368107 0
M  V30 1416 H 130.068 -4.98102 0.263842 0
M  V30 1417 H 129.222 -5.73948 -1.96643 0
M  V30 1418 H 127.961 -4.47458 -1.9399 0
M  V30 1419 H 126.966 -5.49656 0.126003 0
M  V30 1420 H 128.191 -6.79052 0.080947 0
M  V30 1421 H 126.137 -6.21851 -2.08895 0
M  V30 1422 H 126.054 -7.50281 -0.928137 0
M  V30 1423 H 127.322 -7.50194 -2.11731 0
M  V30 1424 N 131.551 -0.354651 -1.53558 0
M  V30 1425 C 132.481 0.489091 -2.2832 0
M  V30 1426 C 133.462 1.09324 -1.30316 0
M  V30 1427 O 134.647 1.11255 -1.59173 0
M  V30 1428 C 131.777 1.63456 -3.0643 0
M  V30 1429 C 130.731 1.1582 -4.12031 0
M  V30 1430 C 130.057 2.39305 -4.7816 0
M  V30 1431 C 131.357 0.250731 -5.21698 0
M  V30 1432 H 133.051 -0.134614 -2.99097 0
M  V30 1433 H 130.597 -0.0661826 -1.43848 0
M  V30 1434 H 132.55 2.23136 -3.57475 0
M  V30 1435 H 131.274 2.28533 -2.33325 0
M  V30 1436 H 129.933 0.584146 -3.61916 0
M  V30 1437 H 129.581 3.02814 -4.01637 0
M  V30 1438 H 129.281 2.08109 -5.49513 0
M  V30 1439 H 130.805 2.99691 -5.31994 0
M  V30 1440 H 132.219 0.754695 -5.68311 0
M  V30 1441 H 130.616 0.0301468 -6.00092 0
M  V30 1442 H 131.686 -0.710125 -4.79672 0
M  V30 1443 N 133.029 1.57378 -0.0835403 0
M  V30 1444 C 134.275 1.95025 0.577664 0
M  V30 1445 C 134.63 0.964049 1.66505 0
M  V30 1446 O 133.923 -0.0118235 1.91596 0
M  V30 1447 C 134.117 3.37063 1.1884 0
M  V30 1448 C 133.946 4.49409 0.16171 0
M  V30 1449 C 132.716 5.04642 -0.257756 0
M  V30 1450 C 134.914 5.10722 -0.605634 0
M  V30 1451 N 132.896 6.00537 -1.27393 0
M  V30 1452 C 134.267 6.02225 -1.47395 0
M  V30 1453 C 136.322 4.93501 -0.660418 0
M  V30 1454 C 135.025 6.78355 -2.39221 0
M  V30 1455 C 137.051 5.70283 -1.56623 0
M  V30 1456 C 136.413 6.61444 -2.4222 0
M  V30 1457 H 132.512 0.760512 0.182058 0
M  V30 1458 H 135.096 1.94013 -0.163419 0
M  V30 1459 H 133.267 3.3879 1.89936 0
M  V30 1460 H 134.999 3.61917 1.81103 0
M  V30 1461 H 131.754 4.73428 0.127702 0
M  V30 1462 H 132.178 6.53184 -1.77987 0
M  V30 1463 H 136.82 4.22798 -0.0128221 0
M  V30 1464 H 134.538 7.48327 -3.05011 0
M  V30 1465 H 138.124 5.58976 -1.61361 0
M  V30 1466 H 137.004 7.1982 -3.11174 0
M  V30 1467 N 134.507 -0.190092 1.56449 0
M  V30 1468 C 135.756 -0.907912 1.80111 0
M  V30 1469 C 136.069 -1.84214 0.657619 0
M  V30 1470 O 137.275 -2.60094 0.778663 0
M  V30 1471 C 135.731 -1.66485 3.19078 0
M  V30 1472 C 135.339 -0.7752 4.41242 0
M  V30 1473 C 137.083 -2.37201 3.52045 0
M  V30 1474 C 134.99 -1.53129 5.71231 0
M  V30 1475 H 133.92 -0.34276 0.671589 0
M  V30 1476 H 136.571 -0.161109 1.82791 0
M  V30 1477 H 134.953 -2.45572 3.10661 0
M  V30 1478 H 136.127 -0.0226298 4.60794 0
M  V30 1479 H 134.442 -0.178627 4.16017 0
M  V30 1480 H 137.039 -2.94329 4.46402 0
M  V30 1481 H 137.382 -3.11632 2.76028 0
M  V30 1482 H 137.915 -1.65075 3.61932 0
M  V30 1483 H 134.654 -0.82967 6.50228 0
M  V30 1484 H 134.174 -2.25767 5.55688 0
M  V30 1485 H 135.853 -2.08377 6.12526 0
M  V30 1486 N 135.985 -1.50799 -0.457987 0
M  V30 1487 C 137.225 -1.64088 -1.21879 0
M  V30 1488 C 137.589 -0.339848 -1.88968 0
M  V30 1489 O 138.79 -0.348301 -2.66534 0
M  V30 1490 C 137.061 -2.79726 -2.2246 0
M  V30 1491 S 138.62 -3.13225 -3.07303 0
M  V30 1492 H 135.438 -0.578314 -0.41361 0
M  V30 1493 H 138.04 -1.88632 -0.513645 0
M  V30 1494 H 136.744 -3.72722 -1.71775 0
M  V30 1495 H 136.275 -2.57308 -2.97584 0
M  V30 1496 H 138.29 -2.58062 -4.23814 0
M  V30 1497 N 137.463 0.71206 -1.40597 0
M  V30 1498 C 138.396 1.83582 -1.35546 0
M  V30 1499 C 139.374 1.61032 -0.225284 0
M  V30 1500 O 140.558 1.83998 -0.409519 0
M  V30 1501 C 137.685 3.19983 -1.11034 0
M  V30 1502 C 136.731 3.61355 -2.2655 0
M  V30 1503 S 137.564 3.68062 -3.88961 0
M  V30 1504 C 138.72 5.07216 -3.66719 0
M  V30 1505 H 138.953 1.87586 -2.30648 0
M  V30 1506 H 136.486 0.879182 -1.26924 0
M  V30 1507 H 138.444 3.98734 -0.975761 0
M  V30 1508 H 137.105 3.13608 -0.175798 0
M  V30 1509 H 136.298 4.60403 -2.0505 0
M  V30 1510 H 135.9 2.8987 -2.36329 0
M  V30 1511 H 138.192 5.94238 -3.25404 0
M  V30 1512 H 139.135 5.33753 -4.6531 0
M  V30 1513 H 139.543 4.77976 -3.00332 0
M  V30 1514 N 138.941 1.26152 0.944643 0
M  V30 1515 C 139.851 1.09176 2.07648 0
M  V30 1516 C 140.867 0.0261935 1.7398 0
M  V30 1517 O 142.043 0.229208 2.00091 0
M  V30 1518 C 139.108 0.722915 3.39079 0
M  V30 1519 C 138.169 1.86752 3.86552 0
M  V30 1520 C 137.402 1.51617 5.11711 0
M  V30 1521 O 137.625 0.416331 5.68879 0
M  V30 1522 O 136.559 2.34975 5.54139 0
M  V30 1523 H 140.385 2.0412 2.24875 0
M  V30 1524 H 137.97 1.05182 1.061 0
M  V30 1525 H 139.852 0.529787 4.18056 0
M  V30 1526 H 138.527 -0.197159 3.23099 0
M  V30 1527 H 137.434 2.11558 3.08535 0
M  V30 1528 H 138.767 2.76719 4.07047 0
M  V30 1529 N 140.419 -1.14872 1.07899 0
M  V30 1530 C 141.649 -1.89386 0.825631 0
M  V30 1531 C 142.057 -1.78565 -0.625406 0
M  V30 1532 O 141.4 -1.13918 -1.44113 0
M  V30 1533 C 141.462 -3.40206 1.16191 0
M  V30 1534 C 141.126 -3.74812 2.61467 0
M  V30 1535 C 142.123 -3.75367 3.59716 0
M  V30 1536 C 139.808 -4.0495 2.97189 0
M  V30 1537 C 141.802 -4.05574 4.9172 0
M  V30 1538 C 139.489 -4.34821 4.29388 0
M  V30 1539 C 140.487 -4.35116 5.26463 0
M  V30 1540 O 140.175 -4.64267 6.56286 0
M  V30 1541 H 139.907 -0.606894 0.297751 0
M  V30 1542 H 142.461 -1.46438 1.44031 0
M  V30 1543 H 140.691 -3.8358 0.490214 0
M  V30 1544 H 142.38 -3.96018 0.890193 0
M  V30 1545 H 143.146 -3.52176 3.33462 0
M  V30 1546 H 139.025 -4.03876 2.22273 0
M  V30 1547 H 142.569 -4.05719 5.67484 0
M  V30 1548 H 138.466 -4.5748 4.55392 0
M  V30 1549 H 139.234 -4.82007 6.61522 0
M  V30 1550 N 141.898 -0.863906 -1.31812 0
M  V30 1551 C 143.138 -0.47825 -1.98726 0
M  V30 1552 C 143.502 0.950397 -1.66828 0
M  V30 1553 O 144.703 1.44109 -2.26905 0
M  V30 1554 C 142.974 -0.721134 -3.50049 0
M  V30 1555 S 144.533 -0.434432 -4.36644 0
M  V30 1556 H 141.351 -0.178773 -0.688158 0
M  V30 1557 H 143.953 -1.11862 -1.60334 0
M  V30 1558 H 142.657 -1.75981 -3.70755 0
M  V30 1559 H 142.188 -0.0675315 -3.93342 0
M  V30 1560 H 144.203 0.735786 -4.90714 0
M  V30 1561 N 143.376 1.44774 -0.622745 0
M  V30 1562 C 144.624 2.01721 -0.123655 0
M  V30 1563 C 144.945 1.49172 1.25589 0
M  V30 1564 O 144.215 0.691974 1.83272 0
M  V30 1565 H 142.795 0.745777 -0.0427225 0
M  V30 1566 H 145.457 1.77382 -0.807559 0
M  V30 1567 H 144.553 3.11984 -0.0849534 0
M  V30 1568 N 144.854 0.36279 1.53368 0
M  V30 1569 C 146.102 -0.227326 2.00817 0
M  V30 1570 C 146.423 -1.49511 1.25186 0
M  V30 1571 O 145.693 -1.92482 0.364348 0
M  V30 1572 H 144.273 -0.0869923 0.741917 0
M  V30 1573 H 146.935 0.488381 1.88682 0
M  V30 1574 H 146.031 -0.456273 3.08747 0
M  V30 1575 N 146.332 -1.57332 0.0918853 0
M  V30 1576 C 147.58 -1.93853 -0.571446 0
M  V30 1577 C 147.901 -0.974212 -1.6892 0
M  V30 1578 O 147.171 -0.0257254 -1.95883 0
M  V30 1579 H 145.751 -0.715666 -0.214082 0
M  V30 1580 H 148.413 -1.94287 0.154464 0
M  V30 1581 H 147.509 -2.96191 -0.983729 0
M  V30 1582 N 147.81 0.181792 -1.56548 0
M  V30 1583 C 149.035 0.920019 -1.85877 0
M  V30 1584 C 149.46 1.75494 -0.677021 0
M  V30 1585 O 148.818 1.77399 0.374056 0
M  V30 1586 C 148.866 1.78112 -3.13542 0
M  V30 1587 O 147.97 2.88152 -2.95029 0
M  V30 1588 H 147.311 0.258334 -0.611686 0
M  V30 1589 H 149.841 0.183092 -2.03779 0
M  V30 1590 H 149.851 2.18314 -3.44678 0
M  V30 1591 H 148.526 1.16777 -3.99169 0
M  V30 1592 H 147.103 2.51609 -2.75222 0
M  V30 1593 N 149.288 1.51039 0.449983 0
M  V30 1594 C 150.218 1.74379 1.55288 0
M  V30 1595 C 151.199 0.593236 1.5942 0
M  V30 1596 O 152.384 0.834625 1.7535 0
M  V30 1597 C 149.514 1.85728 2.93466 0
M  V30 1598 C 148.468 3.01078 3.04197 0
M  V30 1599 C 147.794 2.97595 4.44231 0
M  V30 1600 C 149.094 4.41254 2.7945 0
M  V30 1601 H 150.788 2.66725 1.36008 0
M  V30 1602 H 148.334 1.2835 0.652864 0
M  V30 1603 H 150.287 2.0064 3.70569 0
M  V30 1604 H 149.011 0.900207 3.13949 0
M  V30 1605 H 147.67 2.85851 2.29531 0
M  V30 1606 H 147.318 1.99691 4.61663 0
M  V30 1607 H 147.018 3.75046 4.52343 0
M  V30 1608 H 148.542 3.14583 5.23326 0
M  V30 1609 H 149.956 4.56897 3.46292 0
M  V30 1610 H 148.353 5.20315 2.98985 0
M  V30 1611 H 149.423 4.52164 1.75144 0
M  V30 1612 N 150.766 -0.704594 1.40972 0
M  V30 1613 C 151.698 -1.82974 1.38033 0
M  V30 1614 C 152.711 -1.60305 0.283931 0
M  V30 1615 O 153.9 -1.69975 0.545042 0
M  V30 1616 C 151 -3.19578 1.12795 0
M  V30 1617 C 150.173 -3.69352 2.34302 0
M  V30 1618 C 149.232 -4.84601 2.05058 0
M  V30 1619 O 148.258 -4.96682 2.7802 0
M  V30 1620 N 149.46 -5.71194 1.03528 0
M  V30 1621 H 152.225 -1.85991 2.35005 0
M  V30 1622 H 149.786 -0.886567 1.35468 0
M  V30 1623 H 151.778 -3.9429 0.911987 0
M  V30 1624 H 150.348 -3.11642 0.24452 0
M  V30 1625 H 149.568 -2.85649 2.71659 0
M  V30 1626 H 150.856 -3.99345 3.1528 0
M  V30 1627 H 150.254 -5.64054 0.431217 0
M  V30 1628 H 148.811 -6.45843 0.879205 0
M  V30 1629 N 152.244 -1.26651 -0.937939 0
M  V30 1630 C 153.521 -1.0313 -1.66204 0
M  V30 1631 C 153.901 0.437256 -2.06522 0
M  V30 1632 O 153.249 1.41831 -1.79154 0
M  V30 1633 C 153.459 -1.98314 -2.87181 0
M  V30 1634 C 154.807 -2.27107 -3.58758 0
M  V30 1635 O 155.831 -1.96205 -2.97291 0
M  V30 1636 O 154.69 -2.79736 -4.69479 0
M  V30 1637 H 151.784 -0.392384 -0.727986 0
M  V30 1638 H 154.33 -1.37874 -0.989382 0
M  V30 1639 H 153.102 -2.97399 -2.54302 0
M  V30 1640 H 152.725 -1.64068 -3.6217 0
M  V30 1641 N 153.722 1.14298 -1.08507 0
M  V30 1642 C 154.971 1.84708 -0.810305 0
M  V30 1643 C 155.284 1.83903 0.666271 0
M  V30 1644 O 156.49 2.50112 1.05624 0
M  V30 1645 C 154.946 3.31572 -1.39957 0
M  V30 1646 C 154.554 3.40791 -2.90801 0
M  V30 1647 C 156.298 4.07087 -1.20334 0
M  V30 1648 C 154.205 4.81872 -3.4286 0
M  V30 1649 H 153.135 0.691985 -0.299454 0
M  V30 1650 H 155.786 1.28841 -1.30661 0
M  V30 1651 H 154.168 3.87183 -0.830976 0
M  V30 1652 H 155.342 2.95225 -3.53806 0
M  V30 1653 H 153.657 2.78732 -3.0935 0
M  V30 1654 H 156.254 5.11225 -1.56693 0
M  V30 1655 H 156.597 4.16054 -0.143237 0
M  V30 1656 H 157.13 3.57779 -1.73893 0
M  V30 1657 H 153.869 4.78094 -4.48449 0
M  V30 1658 H 153.389 5.27972 -2.84615 0
M  V30 1659 H 155.068 5.50765 -3.39509 0
M  V30 1660 N 155.201 0.870884 1.31352 0
M  V30 1661 C 156.431 0.496049 2.00557 0
M  V30 1662 C 156.839 -0.916241 1.65534 0
M  V30 1663 O 156.182 -1.61188 0.881134 0
M  V30 1664 C 156.244 0.574418 3.54881 0
M  V30 1665 C 155.908 1.94849 4.1338 0
M  V30 1666 C 156.905 2.91611 4.30417 0
M  V30 1667 C 154.59 2.25005 4.49086 0
M  V30 1668 C 156.584 4.16672 4.82352 0
M  V30 1669 C 154.271 3.50315 5.00722 0
M  V30 1670 C 155.269 4.45964 5.17306 0
M  V30 1671 O 154.957 5.69052 5.67833 0
M  V30 1672 H 154.689 0.191664 0.64826 0
M  V30 1673 H 157.243 1.17409 1.68536 0
M  V30 1674 H 155.473 -0.160549 3.86367 0
M  V30 1675 H 157.162 0.212879 4.05341 0
M  V30 1676 H 157.928 2.69622 4.03149 0
M  V30 1677 H 153.807 1.51332 4.35453 0
M  V30 1678 H 157.351 4.91336 4.95211 0
M  V30 1679 H 153.248 3.72147 5.27424 0
M  V30 1680 H 154.016 5.71236 5.86201 0
M  V30 1681 N 156.679 -1.44442 0.630414 0
M  V30 1682 C 157.629 -2.27794 -0.0968103 0
M  V30 1683 C 158.613 -1.38624 -0.816834 0
M  V30 1684 O 159.805 -1.62438 -0.70306 0
M  V30 1685 C 156.934 -3.25929 -1.07819 0
M  V30 1686 C 156.02 -4.22588 -0.357826 0
M  V30 1687 N 156.411 -5.0207 0.613169 0
M  V30 1688 C 154.709 -4.41914 -0.602365 0
M  V30 1689 C 155.41 -5.72351 1.03871 0
M  V30 1690 N 154.386 -5.42287 0.377642 0
M  V30 1691 H 158.188 -2.86653 0.648621 0
M  V30 1692 H 155.702 -1.55871 0.455862 0
M  V30 1693 H 157.699 -3.84399 -1.61378 0
M  V30 1694 H 156.359 -2.68631 -1.82393 0
M  V30 1695 H 157.37 -5.08331 0.990947 0
M  V30 1696 H 154.047 -3.95714 -1.33103 0
M  V30 1697 H 155.437 -6.4619 1.84086 0
M  V30 1698 N 158.157 -0.370918 -1.53173 0
M  V30 1699 C 159.403 0.217423 -2.01631 0
M  V30 1700 C 159.736 1.47983 -1.25756 0
M  V30 1701 O 159.011 1.91274 -0.352764 0
M  V30 1702 C 159.294 0.503982 -3.56556 0
M  V30 1703 C 159.147 -0.77243 -4.43118 0
M  V30 1704 C 160.466 1.30234 -4.20389 0
M  V30 1705 H 157.585 0.0775486 -0.732909 0
M  V30 1706 H 160.227 -0.496863 -1.83388 0
M  V30 1707 H 158.377 1.11248 -3.72231 0
M  V30 1708 H 160.049 -1.4098 -4.39229 0
M  V30 1709 H 158.292 -1.39167 -4.10871 0
M  V30 1710 H 158.963 -0.526815 -5.4948 0
M  V30 1711 H 161.439 0.787546 -4.08579 0
M  V30 1712 H 160.315 1.47158 -5.28806 0
M  V30 1713 H 160.576 2.31237 -3.76805 0
M  V30 1714 N 159.635 1.57281 -0.100228 0
M  V30 1715 C 160.863 1.98879 0.570509 0
M  V30 1716 C 161.278 0.979476 1.61405 0
M  V30 1717 O 160.635 -0.0302288 1.82475 0
M  V30 1718 C 160.686 3.4052 1.2136 0
M  V30 1719 O 160.407 4.37588 0.211786 0
M  V30 1720 C 161.908 3.97149 1.96945 0
M  V30 1721 H 159.128 0.653428 0.152555 0
M  V30 1722 H 161.672 2.03697 -0.18103 0
M  V30 1723 H 159.827 3.367 1.91603 0
M  V30 1724 H 160.241 5.20118 0.676607 0
M  V30 1725 H 161.715 4.98393 2.37294 0
M  V30 1726 H 162.192 3.3525 2.83733 0
M  V30 1727 H 162.798 4.04458 1.31506 0
M  V30 1728 N 161.113 -0.173488 1.56642 0
M  V30 1729 C 162.361 -0.888706 1.81512 0
M  V30 1730 C 162.682 -1.82875 0.676872 0
M  V30 1731 O 161.952 -1.93536 -0.303414 0
M  V30 1732 H 160.532 -0.331164 0.669582 0
M  V30 1733 H 163.194 -0.173823 1.94123 0
M  V30 1734 H 162.29 -1.46691 2.75478 0
M  V30 1735 N 162.591 -1.51276 -0.441967 0
M  V30 1736 C 164.002 -1.56244 -1.02199 0
M  V30 1737 C 164.353 -0.383149 -1.92422 0
M  V30 1738 O 163.478 0.500613 -2.1053 0
M  V30 1739 C 164.073 -2.83162 -1.86024 0
M  V30 1740 C 162.632 -2.90716 -2.39084 0
M  V30 1741 C 161.779 -2.50858 -1.18175 0
M  V30 1742 H 164.73 -1.5712 -0.223416 0
M  V30 1743 H 164.751 -2.66663 -2.71425 0
M  V30 1744 H 164.263 -3.68974 -1.20331 0
M  V30 1745 H 162.364 -2.09323 -3.08244 0
M  V30 1746 H 162.477 -3.94266 -2.72198 0
M  V30 1747 H 160.841 -2.03951 -1.52565 0
M  V30 1748 H 161.624 -3.3901 -0.541001 0
M  V30 1749 N 164.069 0.697108 -1.41344 0
M  V30 1750 C 164.999 1.82353 -1.45841 0
M  V30 1751 C 165.98 1.67115 -0.317247 0
M  V30 1752 O 167.165 1.86871 -0.528474 0
M  V30 1753 C 164.295 3.20476 -1.33838 0
M  V30 1754 C 163.249 3.50415 -2.4575 0
M  V30 1755 C 162.575 4.87878 -2.18813 0
M  V30 1756 C 163.875 3.49546 -3.88091 0
M  V30 1757 H 165.569 1.78846 -2.40113 0
M  V30 1758 H 163.115 0.859028 -1.15571 0
M  V30 1759 H 165.068 3.98988 -1.35596 0
M  V30 1760 H 163.792 3.24604 -0.360498 0
M  V30 1761 H 162.451 2.74253 -2.43271 0
M  V30 1762 H 162.099 4.8863 -1.19371 0
M  V30 1763 H 161.799 5.08875 -2.93803 0
M  V30 1764 H 163.323 5.68702 -2.22284 0
M  V30 1765 H 164.737 4.18066 -3.92293 0
M  V30 1766 H 163.134 3.82075 -4.62751 0
M  V30 1767 H 164.204 2.48552 -4.16353 0
M  V30 1768 N 165.547 1.27147 0.931209 0
M  V30 1769 C 166.772 1.16191 1.71797 0
M  V30 1770 C 167.197 -0.278004 1.86034 0
M  V30 1771 O 166.555 -1.20137 1.35782 0
M  V30 1772 C 166.603 1.84673 3.09723 0
M  V30 1773 O 165.707 1.14231 3.96264 0
M  V30 1774 H 165.048 0.404303 0.526721 0
M  V30 1775 H 167.578 1.68152 1.1656 0
M  V30 1776 H 167.588 1.91893 3.60057 0
M  V30 1777 H 166.263 2.89421 2.98677 0
M  V30 1778 H 164.84 1.15056 3.54706 0
M  V30 1779 N 167.025 -1.13721 1.09112 0
M  V30 1780 C 167.935 -2.22638 0.73957 0
M  V30 1781 C 168.951 -1.72091 -0.257068 0
M  V30 1782 O 170.127 -2.01155 -0.0992154 0
M  V30 1783 C 167.192 -3.46322 0.16191 0
M  V30 1784 C 166.253 -4.11775 1.21408 0
M  V30 1785 C 165.486 -5.29555 0.663891 0
M  V30 1786 O 165.709 -5.68077 -0.514274 0
M  V30 1787 O 164.643 -5.84973 1.41738 0
M  V30 1788 H 168.469 -2.55074 1.64836 0
M  V30 1789 H 166.054 -1.21791 0.865289 0
M  V30 1790 H 167.936 -4.21107 -0.157073 0
M  V30 1791 H 166.611 -3.15593 -0.719932 0
M  V30 1792 H 165.518 -3.3883 1.58571 0
M  V30 1793 H 166.851 -4.46627 2.06845 0
M  V30 1794 N 168.503 -0.877838 -1.30888 0
M  V30 1795 C 169.433 -0.35534 -2.3078 0
M  V30 1796 C 170.414 0.557994 -1.60687 0
M  V30 1797 O 171.599 0.473355 -1.88343 0
M  V30 1798 C 168.729 0.437221 -3.44537 0
M  V30 1799 C 167.683 -0.383715 -4.26276 0
M  V30 1800 C 167.009 0.535014 -5.32017 0
M  V30 1801 C 168.309 -1.62201 -4.96476 0
M  V30 1802 H 170.003 -1.19007 -2.74732 0
M  V30 1803 H 167.549 -0.573698 -1.32078 0
M  V30 1804 H 169.502 0.813334 -4.13477 0
M  V30 1805 H 168.226 1.30553 -2.99372 0
M  V30 1806 H 166.885 -0.741874 -3.59015 0
M  V30 1807 H 166.533 1.40083 -4.831 0
M  V30 1808 H 166.233 -0.0104211 -5.87599 0
M  V30 1809 H 167.757 0.907799 -6.03814 0
M  V30 1810 H 169.171 -1.31689 -5.5797 0
M  V30 1811 H 167.568 -2.10711 -5.61891 0
M  V30 1812 H 168.638 -2.37044 -4.23011 0
M  V30 1813 N 169.982 1.44106 -0.638065 0
M  V30 1814 C 170.914 2.28976 0.101205 0
M  V30 1815 C 171.927 1.4167 0.802088 0
M  V30 1816 O 173.116 1.65755 0.662375 0
M  V30 1817 C 170.216 3.18217 1.16581 0
M  V30 1818 C 169.389 4.33978 0.546066 0
M  V30 1819 C 168.448 5.04202 1.50554 0
M  V30 1820 O 167.474 5.59986 1.01999 0
M  V30 1821 N 168.676 5.06296 2.8398 0
M  V30 1822 H 171.441 2.93064 -0.627186 0
M  V30 1823 H 169.002 1.54629 -0.479731 0
M  V30 1824 H 170.994 3.62061 1.80815 0
M  V30 1825 H 169.564 2.55833 1.79634 0
M  V30 1826 H 168.784 3.93239 -0.275046 0
M  V30 1827 H 170.072 5.08675 0.112793 0
M  V30 1828 H 169.47 4.62319 3.26002 0
M  V30 1829 H 168.027 5.53907 3.43556 0
M  V30 1830 N 171.46 0.379036 1.52974 0
M  V30 1831 C 172.709 -0.207612 2.00629 0
M  V30 1832 C 173.022 -1.48758 1.27006 0
M  V30 1833 O 174.228 -2.15365 1.65318 0
M  V30 1834 C 172.684 -0.42053 3.57435 0
M  V30 1835 C 172.292 0.845587 4.39948 0
M  V30 1836 C 174.036 -0.964102 4.13407 0
M  V30 1837 C 171.943 0.601513 5.88333 0
M  V30 1838 H 170.873 -0.0813591 0.749598 0
M  V30 1839 H 173.524 0.499853 1.76561 0
M  V30 1840 H 171.906 -1.18959 3.7771 0
M  V30 1841 H 173.08 1.61848 4.31442 0
M  V30 1842 H 171.395 1.31336 3.95145 0
M  V30 1843 H 173.992 -1.16225 5.21916 0
M  V30 1844 H 174.335 -1.93019 3.68849 0
M  V30 1845 H 174.868 -0.25487 3.96983 0
M  V30 1846 H 171.607 1.53831 6.37194 0
M  V30 1847 H 171.127 -0.132628 5.99653 0
M  V30 1848 H 172.806 0.232134 6.46583 0
M  V30 1849 N 172.938 -1.57226 0.108567 0
M  V30 1850 C 173.901 -2.13602 -0.831082 0
M  V30 1851 C 174.901 -1.06841 -1.20173 0
M  V30 1852 O 176.091 -1.32666 -1.12895 0
M  V30 1853 C 173.223 -2.66769 -2.12243 0
M  V30 1854 H 174.416 -2.97951 -0.341317 0
M  V30 1855 H 171.969 -1.55667 -0.14057 0
M  V30 1856 H 172.704 -1.85977 -2.65675 0
M  V30 1857 H 172.489 -3.44839 -1.86625 0
M  V30 1858 H 173.979 -3.10332 -2.79435 0
M  V30 1859 N 174.416 0.165178 -1.56732 0
M  V30 1860 C 175.646 0.894919 -1.86212 0
M  V30 1861 C 176.054 1.76066 -0.692627 0
M  V30 1862 O 175.397 1.80387 0.347303 0
M  V30 1863 C 175.459 1.8174 -3.10179 0
M  V30 1864 C 175.123 1.13064 -4.42793 0
M  V30 1865 C 176.12 0.493169 -5.17556 0
M  V30 1866 C 173.805 1.12556 -4.89527 0
M  V30 1867 C 175.799 -0.140209 -6.37246 0
M  V30 1868 C 173.486 0.488366 -6.09145 0
M  V30 1869 C 174.484 -0.143411 -6.82849 0
M  V30 1870 O 174.172 -0.77055 -8.00199 0
M  V30 1871 H 173.904 0.265114 -0.621844 0
M  V30 1872 H 176.458 0.168242 -2.0471 0
M  V30 1873 H 174.688 2.58455 -2.87642 0
M  V30 1874 H 176.377 2.4175 -3.26055 0
M  V30 1875 H 177.143 0.489023 -4.82528 0
M  V30 1876 H 173.022 1.60672 -4.32094 0
M  V30 1877 H 176.566 -0.633932 -6.94714 0
M  V30 1878 H 172.463 0.490116 -6.43637 0
M  V30 1879 H 173.231 -0.670408 -8.1575 0
M  V30 1880 N 175.894 1.51508 0.433938 0
M  V30 1881 C 177.14 1.64588 1.18484 0
M  V30 1882 C 177.473 0.362666 1.90784 0
M  V30 1883 O 176.748 -0.637892 1.83742 0
M  V30 1884 C 177.031 2.85149 2.19913 0
M  V30 1885 C 176.884 4.23456 1.51674 0
M  V30 1886 C 178.203 3.01227 3.20858 0
M  V30 1887 H 175.322 0.598994 0.429389 0
M  V30 1888 H 177.964 1.84002 0.473647 0
M  V30 1889 H 176.114 2.68729 2.80566 0
M  V30 1890 H 177.786 4.51552 0.943322 0
M  V30 1891 H 176.029 4.25998 0.819035 0
M  V30 1892 H 176.7 5.03812 2.2556 0
M  V30 1893 H 179.176 3.16382 2.70263 0
M  V30 1894 H 178.052 3.87141 3.89118 0
M  V30 1895 H 178.313 2.13447 3.8716 0
M  V30 1896 N 177.372 -0.689602 1.41712 0
M  V30 1897 C 178.612 -1.46184 1.42862 0
M  V30 1898 C 178.976 -1.91962 0.0382204 0
M  V30 1899 O 180.177 -2.68694 -0.0755019 0
M  V30 1900 C 178.448 -2.6371 2.4123 0
M  V30 1901 S 180.007 -3.52768 2.6096 0
M  V30 1902 H 176.825 -0.49947 0.506015 0
M  V30 1903 H 179.427 -0.804107 1.78198 0
M  V30 1904 H 178.131 -2.28293 3.41044 0
M  V30 1905 H 177.662 -3.3437 2.07269 0
M  V30 1906 H 179.677 -4.59146 1.88148 0
M  V30 1907 N 178.85 -1.27639 -0.924453 0
M  V30 1908 C 180.266 -1.05113 -1.20097 0
M  V30 1909 C 180.466 0.213262 -2.00368 0
M  V30 1910 O 179.522 0.91787 -2.35226 0
M  V30 1911 C 180.835 -2.29244 -1.94596 0
M  V30 1912 C 182.383 -2.34315 -2.07522 0
M  V30 1913 C 182.858 -3.58183 -2.85427 0
M  V30 1914 N 184.349 -3.5876 -2.92994 0
M  V30 1915 C 185.084 -4.51277 -3.53746 0
M  V30 1916 N 184.58 -5.54102 -4.15863 0
M  V30 1917 N 186.373 -4.38894 -3.51181 0
M  V30 1918 H 178.524 -2.08821 -0.388264 0
M  V30 1919 H 180.787 -0.918568 -0.234385 0
M  V30 1920 H 180.493 -3.21301 -1.43034 0
M  V30 1921 H 180.367 -2.34816 -2.95197 0
M  V30 1922 H 182.754 -1.42762 -2.58269 0
M  V30 1923 H 182.835 -2.32744 -1.06131 0
M  V30 1924 H 182.479 -4.50074 -2.35363 0
M  V30 1925 H 182.409 -3.57006 -3.8711 0
M  V30 1926 H 184.9 -2.84398 -2.4885 0
M  V30 1927 H 185.213 -6.20859 -4.60168 0
M  V30 1928 H 183.558 -5.57941 -4.144 0
M  V30 1929 H 186.749 -3.57772 -3.01856 0
M  V30 1930 H 186.922 -5.11186 -3.98237 0
M  V30 1931 N 180.328 1.1314 -1.09713 0
M  V30 1932 C 181.238 2.22242 -0.751367 0
M  V30 1933 C 182.254 1.72224 0.247938 0
M  V30 1934 O 183.43 2.01205 0.0885463 0
M  V30 1935 C 180.495 3.46231 -0.180274 0
M  V30 1936 C 179.556 4.11125 -1.2359 0
M  V30 1937 C 178.789 5.29195 -0.691966 0
M  V30 1938 O 179.012 5.68342 0.48414 0
M  V30 1939 O 177.946 5.84214 -1.44838 0
M  V30 1940 H 181.772 2.54197 -1.66186 0
M  V30 1941 H 179.357 1.21331 -0.871735 0
M  V30 1942 H 181.239 4.21185 0.134739 0
M  V30 1943 H 179.914 3.1597 0.703185 0
M  V30 1944 H 178.821 3.37985 -1.60366 0
M  V30 1945 H 180.154 4.45524 -2.09211 0
M  V30 1946 N 181.806 0.884767 1.30421 0
M  V30 1947 C 183.034 0.518044 2.0031 0
M  V30 1948 C 183.449 -0.893408 1.66324 0
M  V30 1949 O 182.806 -1.5875 0.900262 0
M  V30 1950 C 182.857 0.682997 3.54989 0
M  V30 1951 O 182.578 2.03888 3.87764 0
M  V30 1952 C 184.079 0.31924 4.42149 0
M  V30 1953 H 181.299 0.200265 0.640418 0
M  V30 1954 H 183.843 1.19001 1.6631 0
M  V30 1955 H 181.998 0.0584052 3.87356 0
M  V30 1956 H 182.412 2.05735 4.82466 0
M  V30 1957 H 183.886 0.485555 5.4986 0
M  V30 1958 H 184.363 -0.742717 4.32875 0
M  V30 1959 H 184.969 0.920147 4.15227 0
M  V30 1960 N 183.284 -1.43765 0.645699 0
M  V30 1961 C 184.214 -2.33471 -0.0370477 0
M  V30 1962 C 185.195 -1.49042 -0.819779 0
M  V30 1963 O 186.38 -1.77726 -0.782758 0
M  V30 1964 C 183.51 -3.32311 -1.0093 0
M  V30 1965 C 182.464 -4.2667 -0.337201 0
M  V30 1966 C 181.79 -5.1549 -1.42037 0
M  V30 1967 C 183.09 -5.16657 0.765706 0
M  V30 1968 H 184.784 -2.90809 0.712069 0
M  V30 1969 H 182.33 -1.39834 0.343876 0
M  V30 1970 H 184.283 -3.9396 -1.49578 0
M  V30 1971 H 183.007 -2.73213 -1.78948 0
M  V30 1972 H 181.666 -3.66374 0.128771 0
M  V30 1973 H 181.314 -4.52735 -2.1918 0
M  V30 1974 H 181.014 -5.79438 -0.975966 0
M  V30 1975 H 182.538 -5.80012 -1.90838 0
M  V30 1976 H 183.952 -5.72158 0.361702 0
M  V30 1977 H 182.349 -5.89286 1.13413 0
M  V30 1978 H 183.419 -4.56796 1.62683 0
M  V30 1979 N 184.763 -0.387143 -1.52771 0
M  V30 1980 C 185.695 0.484089 -2.2403 0
M  V30 1981 C 186.708 1.02849 -1.26198 0
M  V30 1982 O 187.897 0.931186 -1.52286 0
M  V30 1983 C 184.997 1.68337 -2.94136 0
M  V30 1984 C 184.17 1.26672 -4.18656 0
M  V30 1985 C 183.229 2.33045 -4.7178 0
M  V30 1986 O 182.255 1.94541 -5.34923 0
M  V30 1987 N 183.457 3.64929 -4.5145 0
M  V30 1988 H 186.222 -0.126404 -2.99433 0
M  V30 1989 H 183.783 -0.213392 -1.60488 0
M  V30 1990 H 185.775 2.39019 -3.26577 0
M  V30 1991 H 184.345 2.20025 -2.22053 0
M  V30 1992 H 183.565 0.388878 -3.92277 0
M  V30 1993 H 184.853 0.964964 -4.99566 0
M  V30 1994 H 184.251 3.98974 -4.01044 0
M  V30 1995 H 182.808 4.31651 -4.88386 0
M  V30 1996 N 186.241 1.57166 -0.116904 0
M  V30 1997 C 187.489 1.94737 0.540533 0
M  V30 1998 C 187.81 1.00096 1.67349 0
M  V30 1999 O 187.08 0.0568854 1.95817 0
M  V30 2000 H 185.66 0.718981 0.202669 0
M  V30 2001 H 188.322 1.94017 -0.185353 0
M  V30 2002 H 187.418 2.97719 0.936483 0
M  V30 2003 N 187.719 -0.156864 1.56817 0
M  V30 2004 C 188.649 -1.19589 2.00551 0
M  V30 2005 C 189.63 -1.4536 0.883426 0
M  V30 2006 O 190.815 -1.56449 1.15054 0
M  V30 2007 C 187.945 -2.53143 2.37773 0
M  V30 2008 C 186.899 -2.41913 3.53075 0
M  V30 2009 C 186.225 -3.80088 3.76081 0
M  V30 2010 C 187.525 -1.91157 4.86062 0
M  V30 2011 H 189.219 -0.832293 2.87599 0
M  V30 2012 H 186.765 -0.398918 1.38364 0
M  V30 2013 H 188.718 -3.26047 2.66967 0
M  V30 2014 H 187.442 -2.91319 1.4765 0
M  V30 2015 H 186.101 -1.71462 3.24031 0
M  V30 2016 H 185.749 -4.15683 2.83225 0
M  V30 2017 H 185.449 -3.73439 4.53671 0
M  V30 2018 H 186.973 -4.54556 4.0769 0
M  V30 2019 H 188.387 -2.53846 5.14038 0
M  V30 2020 H 186.784 -1.95422 5.67389 0
M  V30 2021 H 187.854 -0.866673 4.77092 0
M  V30 2022 N 189.197 -1.51736 -0.425897 0
M  V30 2023 C 190.16 -1.73271 -1.50032 0
M  V30 2024 C 191.16 -0.602639 -1.4908 0
M  V30 2025 O 192.35 -0.87033 -1.509 0
M  V30 2026 C 189.482 -1.79969 -2.89523 0
M  V30 2027 H 190.675 -2.69172 -1.32237 0
M  V30 2028 H 188.228 -1.41899 -0.65532 0
M  V30 2029 H 188.963 -0.859241 -3.1271 0
M  V30 2030 H 188.748 -2.62109 -2.91619 0
M  V30 2031 H 190.238 -1.9843 -3.67444 0
M  V30 2032 N 190.675 0.682077 -1.42076 0
M  V30 2033 C 191.905 1.46844 -1.45329 0
M  V30 2034 C 192.313 1.89102 -0.0609328 0
M  V30 2035 O 191.656 1.58238 0.933082 0
M  V30 2036 C 191.718 2.75375 -2.31104 0
M  V30 2037 C 191.382 2.55238 -3.79081 0
M  V30 2038 C 192.379 2.20309 -4.70914 0
M  V30 2039 C 190.064 2.70459 -4.2327 0
M  V30 2040 C 192.058 2.00859 -6.04925 0
M  V30 2041 C 189.745 2.50624 -5.57343 0
M  V30 2042 C 190.743 2.15876 -6.47986 0
M  V30 2043 O 190.431 1.96227 -7.79583 0
M  V30 2044 H 190.163 0.4586 -0.496651 0
M  V30 2045 H 192.717 0.846131 -1.87162 0
M  V30 2046 H 190.947 3.40061 -1.84107 0
M  V30 2047 H 192.636 3.37231 -2.25898 0
M  V30 2048 H 193.402 2.08153 -4.38061 0
M  V30 2049 H 189.281 2.96485 -3.53012 0
M  V30 2050 H 192.825 1.7366 -6.75639 0
M  V30 2051 H 188.722 2.62375 -5.89771 0
M  V30 2052 H 189.49 2.10883 -7.90867 0
M  V30 2053 N 192.153 1.28127 0.917671 0
M  V30 2054 C 193.083 1.14248 2.03641 0
M  V30 2055 C 194.064 0.0412748 1.7005 0
M  V30 2056 O 195.249 0.217566 1.92977 0
M  V30 2057 C 192.379 0.799431 3.37974 0
M  V30 2058 C 191.333 1.85497 3.85713 0
M  V30 2059 C 190.659 1.36565 5.16966 0
M  V30 2060 C 191.959 3.26085 4.08002 0
M  V30 2061 H 193.653 2.07835 2.15511 0
M  V30 2062 H 191.199 1.00064 1.03553 0
M  V30 2063 H 193.152 0.689114 4.15727 0
M  V30 2064 H 191.876 -0.172145 3.26146 0
M  V30 2065 H 190.535 1.95437 3.10161 0
M  V30 2066 H 190.183 0.383253 5.01538 0
M  V30 2067 H 189.883 2.07143 5.49878 0
M  V30 2068 H 191.407 1.26848 5.97279 0
M  V30 2069 H 192.821 3.19089 4.76293 0
M  V30 2070 H 191.218 3.94462 4.52238 0
M  V30 2071 H 192.288 3.70394 3.12948 0
M  V30 2072 N 193.631 -1.12557 1.10312 0
M  V30 2073 C 194.581 -2.16331 0.720076 0
M  V30 2074 C 195.565 -1.58616 -0.270115 0
M  V30 2075 O 196.757 -1.76823 -0.0790507 0
M  V30 2076 C 193.886 -3.42963 0.152113 0
M  V30 2077 C 192.972 -4.07663 1.16927 0
M  V30 2078 N 193.363 -4.47392 2.35953 0
M  V30 2079 C 191.661 -4.34425 1.0095 0
M  V30 2080 C 192.362 -4.97932 3.0073 0
M  V30 2081 N 191.338 -4.93358 2.28252 0
M  V30 2082 H 195.14 -2.44813 1.62616 0
M  V30 2083 H 192.654 -1.29449 0.980654 0
M  V30 2084 H 194.651 -4.16664 -0.14037 0
M  V30 2085 H 193.311 -3.1595 -0.748701 0
M  V30 2086 H 194.322 -4.39802 2.73486 0
M  V30 2087 H 190.999 -4.17177 0.164134 0
M  V30 2088 H 192.389 -5.38397 4.01969 0
M  V30 2089 N 195.109 -0.891671 -1.2995 0
M  V30 2090 C 196.337 -0.52866 -2.00032 0
M  V30 2091 C 196.752 0.884574 -1.66795 0
M  V30 2092 O 196.109 1.5827 -0.908669 0
M  V30 2093 C 196.16 -0.701814 -3.54622 0
M  V30 2094 O 195.881 -2.05942 -3.86678 0
M  V30 2095 C 197.382 -0.342683 -4.41973 0
M  V30 2096 H 194.602 -0.203659 -0.639347 0
M  V30 2097 H 197.146 -1.19881 -1.65677 0
M  V30 2098 H 195.301 -0.0789468 -3.8732 0
M  V30 2099 H 195.715 -2.08291 -4.81368 0
M  V30 2100 H 197.189 -0.514709 -5.49595 0
M  V30 2101 H 197.666 0.71975 -4.33262 0
M  V30 2102 H 198.272 -0.942154 -4.14733 0
M  V30 2103 N 196.587 1.43421 -0.653314 0
M  V30 2104 C 197.534 2.30768 0.0382271 0
M  V30 2105 C 198.504 1.44755 0.814576 0
M  V30 2106 O 199.689 1.73624 0.791162 0
M  V30 2107 C 196.829 3.30336 0.998599 0
M  V30 2108 C 195.942 4.31448 0.218342 0
M  V30 2109 C 195.077 5.18098 1.17252 0
M  V30 2110 C 194.116 6.10902 0.382702 0
M  V30 2111 N 193.253 6.90176 1.28848 0
M  V30 2112 H 198.093 2.89357 -0.712511 0
M  V30 2113 H 195.63 1.42548 -0.363128 0
M  V30 2114 H 197.588 3.86572 1.56901 0
M  V30 2115 H 196.218 2.73397 1.71621 0
M  V30 2116 H 195.27 3.77506 -0.46836 0
M  V30 2117 H 196.582 4.97227 -0.395812 0
M  V30 2118 H 195.736 5.7896 1.81356 0
M  V30 2119 H 194.475 4.52444 1.82058 0
M  V30 2120 H 193.48 5.49128 -0.27169 0
M  V30 2121 H 194.705 6.78598 -0.260957 0
M  V30 2122 H 192.651 6.27171 1.92334 0
M  V30 2123 H 192.568 7.52478 0.728887 0
M  V30 2124 H 193.836 7.55543 1.91766 0
M  V30 2125 N 198.065 0.39524 1.52563 0
M  V30 2126 C 199.313 -0.184678 2.01254 0
M  V30 2127 C 199.634 -1.46822 1.28329 0
M  V30 2128 O 198.904 -1.91666 0.405094 0
M  V30 2129 H 197.484 -0.0712355 0.743596 0
M  V30 2130 H 200.146 0.528293 1.87603 0
M  V30 2131 H 199.242 -0.390681 3.09645 0
M  V30 2132 N 199.544 -1.57102 0.125237 0
M  V30 2133 C 200.491 -2.15641 -0.822655 0
M  V30 2134 C 201.461 -1.08313 -1.25927 0
M  V30 2135 O 202.646 -1.36251 -1.33567 0
M  V30 2136 C 199.786 -2.76504 -2.06494 0
M  V30 2137 C 198.899 -3.98158 -1.67612 0
M  V30 2138 C 198.034 -4.47088 -2.86854 0
M  V30 2139 C 197.073 -5.6126 -2.44242 0
M  V30 2140 N 196.21 -6.04905 -3.56419 0
M  V30 2141 H 201.05 -2.96313 -0.316625 0
M  V30 2142 H 198.587 -1.46388 -0.144588 0
M  V30 2143 H 200.545 -3.09925 -2.79289 0
M  V30 2144 H 199.175 -1.98512 -2.54545 0
M  V30 2145 H 198.227 -3.70858 -0.846661 0
M  V30 2146 H 199.539 -4.80934 -1.32301 0
M  V30 2147 H 198.693 -4.82451 -3.67867 0
M  V30 2148 H 197.432 -3.63275 -3.25396 0
M  V30 2149 H 196.437 -5.25495 -1.61663 0
M  V30 2150 H 197.662 -6.46843 -2.0681 0
M  V30 2151 H 195.608 -5.24032 -3.94623 0
M  V30 2152 H 195.525 -6.82552 -3.25051 0
M  V30 2153 H 196.793 -6.44907 -4.37853 0
M  V30 2154 N 201.022 0.148545 -1.56898 0
M  V30 2155 C 201.955 1.21293 -1.93296 0
M  V30 2156 C 202.933 1.41637 -0.798599 0
M  V30 2157 O 204.117 1.56275 -1.05406 0
M  V30 2158 C 201.244 2.5721 -2.20365 0
M  V30 2159 C 200.29 2.53469 -3.4301 0
M  V30 2160 S 201.123 2.00315 -4.96623 0
M  V30 2161 C 202.279 3.37964 -5.26812 0
M  V30 2162 H 202.512 0.902393 -2.83274 0
M  V30 2163 H 200.045 0.354094 -1.50285 0
M  V30 2164 H 202.003 3.35427 -2.36641 0
M  V30 2165 H 200.664 2.85454 -1.31054 0
M  V30 2166 H 199.857 3.53518 -3.59223 0
M  V30 2167 H 199.459 1.83359 -3.25968 0
M  V30 2168 H 201.751 4.34066 -5.20185 0
M  V30 2169 H 202.694 3.26606 -6.28279 0
M  V30 2170 H 203.102 3.35028 -4.54331 0
M  V30 2171 N 202.5 1.5196 0.417844 0
M  V30 2172 C 203.45 1.7106 1.5074 0
M  V30 2173 C 204.434 0.564487 1.50673 0
M  V30 2174 O 205.626 0.821206 1.56797 0
M  V30 2175 C 202.755 1.85677 2.88754 0
M  V30 2176 C 201.841 3.06133 2.93502 0
M  V30 2177 N 202.232 4.28987 2.67962 0
M  V30 2178 C 200.53 3.05787 3.24669 0
M  V30 2179 C 201.231 5.10395 2.79055 0
M  V30 2180 N 200.207 4.45455 3.11561 0
M  V30 2181 H 204.009 2.63696 1.29775 0
M  V30 2182 H 201.523 1.49873 0.625436 0
M  V30 2183 H 203.52 1.97475 3.67164 0
M  V30 2184 H 202.18 0.942348 3.10725 0
M  V30 2185 H 203.191 4.57607 2.4252 0
M  V30 2186 H 199.868 2.2405 3.52289 0
M  V30 2187 H 201.258 6.18247 2.63097 0
M  V30 2188 N 203.978 -0.674533 1.42435 0
M  V30 2189 C 205.394 -0.98769 1.25367 0
M  V30 2190 C 205.594 -2.00879 0.158044 0
M  V30 2191 O 204.65 -2.48075 -0.470633 0
M  V30 2192 C 205.963 -1.49224 2.6106 0
M  V30 2193 C 207.511 -1.61 2.68417 0
M  V30 2194 C 207.986 -2.14852 4.04478 0
M  V30 2195 N 209.477 -2.22185 4.06434 0
M  V30 2196 C 210.212 -2.64928 5.08528 0
M  V30 2197 N 209.708 -3.07121 6.21006 0
M  V30 2198 N 211.501 -2.64679 4.95885 0
M  V30 2199 H 203.652 0.00152503 2.124 0
M  V30 2200 H 205.915 -0.0618434 0.945981 0
M  V30 2201 H 205.621 -0.816453 3.42092 0
M  V30 2202 H 205.495 -2.47094 2.84999 0
M  V30 2203 H 207.882 -2.27686 1.87732 0
M  V30 2204 H 207.963 -0.616195 2.48267 0
M  V30 2205 H 207.607 -1.48775 4.85622 0
M  V30 2206 H 207.537 -3.15024 4.2198 0
M  V30 2207 H 210.028 -1.92435 3.25234 0
M  V30 2208 H 210.341 -3.38423 6.94759 0
M  V30 2209 H 208.686 -3.04978 6.24511 0
M  V30 2210 H 211.877 -2.31078 4.07088 0
M  V30 2211 H 212.05 -2.9767 5.75584 0
M  V30 2212 N 205.456 -1.28612 -0.910864 0
M  V30 2213 C 206.733 -1.06632 -1.63979 0
M  V30 2214 C 207.113 0.393351 -2.07403 0
M  V30 2215 O 206.461 1.37999 -1.82122 0
M  V30 2216 C 206.671 -2.0436 -2.8291 0
M  V30 2217 C 208.019 -2.34666 -3.5386 0
M  V30 2218 O 209.043 -2.02467 -2.93062 0
M  V30 2219 O 207.902 -2.89631 -4.63439 0
M  V30 2220 H 204.996 -0.407737 -0.7195 0
M  V30 2221 H 207.542 -1.39942 -0.959914 0
M  V30 2222 H 206.314 -3.02727 -2.47936 0
M  V30 2223 H 205.937 -1.71714 -3.58609 0
M  V30 2224 N 206.934 1.1197 -1.10907 0
M  V30 2225 C 208.183 1.82947 -0.849302 0
M  V30 2226 C 208.496 1.85275 0.627112 0
M  V30 2227 O 209.702 2.52296 1.00295 0
M  V30 2228 C 208.158 3.28529 -1.46959 0
M  V30 2229 C 207.766 3.34546 -2.97965 0
M  V30 2230 C 209.51 4.04443 -1.28942 0
M  V30 2231 C 207.417 4.74491 -3.53004 0
M  V30 2232 H 206.347 0.685477 -0.314065 0
M  V30 2233 H 208.998 1.2604 -1.33365 0
M  V30 2234 H 207.38 3.85333 -0.912917 0
M  V30 2235 H 208.554 2.87654 -3.59989 0
M  V30 2236 H 206.869 2.72108 -3.15192 0
M  V30 2237 H 209.466 5.07787 -1.67502 0
M  V30 2238 H 209.809 4.15656 -0.231456 0
M  V30 2239 H 210.342 3.5401 -1.81443 0
M  V30 2240 H 207.081 4.68474 -4.58489 0
M  V30 2241 H 206.601 5.21816 -2.9575 0
M  V30 2242 H 208.28 5.4344 -3.51115 0
M  V30 2243 N 208.412 0.89855 1.29475 0
M  V30 2244 C 209.359 0.373819 2.27753 0
M  V30 2245 C 210.329 -0.543444 1.56958 0
M  V30 2246 O 211.514 -0.468934 1.84948 0
M  V30 2247 C 208.654 -0.393648 3.42848 0
M  V30 2248 C 207.767 0.554379 4.28428 0
M  V30 2249 C 206.902 -0.230026 5.30702 0
M  V30 2250 C 205.941 0.712599 6.07938 0
M  V30 2251 N 205.078 -0.0373283 7.0209 0
M  V30 2252 H 209.918 1.21699 2.72017 0
M  V30 2253 H 207.455 0.611456 1.33789 0
M  V30 2254 H 209.413 -0.85466 4.08352 0
M  V30 2255 H 208.043 -1.20128 2.99615 0
M  V30 2256 H 207.095 1.13391 3.63107 0
M  V30 2257 H 208.407 1.27597 4.82204 0
M  V30 2258 H 207.561 -0.752288 6.02018 0
M  V30 2259 H 206.3 -0.984758 4.77654 0
M  V30 2260 H 205.305 1.24637 5.35486 0
M  V30 2261 H 206.53 1.46664 6.63074 0
M  V30 2262 H 204.476 -0.774348 6.51414 0
M  V30 2263 H 204.393 0.624374 7.53417 0
M  V30 2264 H 205.661 -0.539891 7.77628 0
M  V30 2265 N 209.89 -1.43072 0.660911 0
M  V30 2266 C 211.138 -2.01323 0.177094 0
M  V30 2267 C 211.459 -1.5245 -1.2159 0
M  V30 2268 O 210.729 -0.740322 -1.81373 0
M  V30 2269 H 209.309 -0.744382 0.0624804 0
M  V30 2270 H 211.971 -1.75179 0.854305 0
M  V30 2271 H 211.067 -3.11649 0.167641 0
M  V30 2272 N 211.368 -0.403325 -1.52352 0
M  V30 2273 C 212.331 0.413051 -2.25447 0
M  V30 2274 C 213.331 0.978513 -1.276 0
M  V30 2275 O 214.521 0.858305 -1.51587 0
M  V30 2276 C 211.653 1.58087 -3.02029 0
M  V30 2277 H 212.846 -0.227094 -2.99039 0
M  V30 2278 H 210.399 -0.155722 -1.55522 0
M  V30 2279 H 211.134 2.25804 -2.32772 0
M  V30 2280 H 210.919 1.18195 -3.73861 0
M  V30 2281 H 212.409 2.1585 -3.57489 0
M  V30 2282 N 212.846 1.57033 -0.133567 0
M  V30 2283 C 213.794 2.17348 0.828412 0
M  V30 2284 C 214.788 1.12671 1.26498 0
M  V30 2285 O 215.994 1.30947 1.23502 0
M  V30 2286 H 212.369 0.695775 0.285309 0
M  V30 2287 H 214.34 2.96935 0.295372 0
M  V30 2288 C 213.089 2.79893 2.06289 0
M  V30 2289 H 212.412 3.60147 1.73592 0
M  V30 2290 H 213.852 3.25615 2.71572 0
M  V30 2291 C 212.311 1.77713 2.86216 0
M  V30 2292 O 212.841 1.23937 3.82103 0
M  V30 2293 N 211.047 1.47321 2.50489 0
M  V30 2294 H 210.594 1.91243 1.7258 0
M  V30 2295 H 210.552 0.79199 3.04261 0
M  V30 2296 N 214.325 -0.140222 1.56975 0
M  V30 2297 C 215.574 -0.850152 1.82908 0
M  V30 2298 C 215.887 -1.82028 0.715892 0
M  V30 2299 O 217.093 -2.57485 0.861016 0
M  V30 2300 C 215.549 -1.5625 3.24213 0
M  V30 2301 C 215.157 -0.63443 4.43485 0
M  V30 2302 C 216.901 -2.25881 3.59413 0
M  V30 2303 C 214.808 -1.34879 5.75814 0
M  V30 2304 H 213.738 -0.321221 0.682153 0
M  V30 2305 H 216.389 -0.102874 1.83211 0
M  V30 2306 H 214.771 -2.35565 3.18316 0
M  V30 2307 H 215.945 0.12398 4.60633 0
M  V30 2308 H 214.26 -0.0461836 4.16374 0
M  V30 2309 H 216.857 -2.79978 4.5554 0
M  V30 2310 H 217.2 -3.02693 2.85802 0
M  V30 2311 H 217.733 -1.53477 3.67001 0
M  V30 2312 H 214.472 -0.622385 6.52539 0
M  V30 2313 H 213.992 -2.07974 5.6259 0
M  V30 2314 H 215.671 -1.88784 6.18845 0
M  V30 2315 N 215.803 -1.52179 -0.40978 0
M  V30 2316 C 216.733 -1.78435 -1.5061 0
M  V30 2317 C 217.714 -0.635295 -1.57791 0
M  V30 2318 O 218.899 -0.880823 -1.73076 0
M  V30 2319 C 216.029 -1.93444 -2.88439 0
M  V30 2320 C 214.983 -3.09038 -2.96108 0
M  V30 2321 C 214.309 -3.09268 -4.36185 0
M  V30 2322 C 215.609 -4.48508 -2.67652 0
M  V30 2323 H 217.303 -2.70237 -1.28889 0
M  V30 2324 H 214.849 -1.30036 -0.618605 0
M  V30 2325 H 216.802 -2.10394 -3.65119 0
M  V30 2326 H 215.526 -0.983129 -3.11452 0
M  V30 2327 H 214.185 -2.91837 -2.21872 0
M  V30 2328 H 213.833 -2.11861 -4.56206 0
M  V30 2329 H 213.533 -3.86907 -4.42241 0
M  V30 2330 H 215.057 -3.28348 -5.14801 0
M  V30 2331 H 216.471 -4.65918 -3.34056 0
M  V30 2332 H 214.868 -5.28059 -2.85085 0
M  V30 2333 H 215.938 -4.56649 -1.63095 0
M  V30 2334 N 217.281 0.66697 -1.42791 0
M  V30 2335 C 218.211 1.79218 -1.49677 0
M  V30 2336 C 219.192 1.66405 -0.352623 0
M  V30 2337 O 220.377 1.85708 -0.567993 0
M  V30 2338 C 217.507 3.17565 -1.40605 0
M  V30 2339 C 216.461 3.45124 -2.53127 0
M  V30 2340 C 215.787 4.83127 -2.29112 0
M  V30 2341 C 217.087 3.41236 -3.95418 0
M  V30 2342 H 218.781 1.73713 -2.43853 0
M  V30 2343 H 216.327 0.83432 -1.17367 0
M  V30 2344 H 218.28 3.96022 -1.44029 0
M  V30 2345 H 217.004 3.23767 -0.429271 0
M  V30 2346 H 215.663 2.69031 -2.49034 0
M  V30 2347 H 215.311 4.85988 -1.29709 0
M  V30 2348 H 215.011 5.02528 -3.04531 0
M  V30 2349 H 216.535 5.63859 -2.34297 0
M  V30 2350 H 217.949 4.09651 -4.01073 0
M  V30 2351 H 216.346 3.72173 -4.70752 0
M  V30 2352 H 217.416 2.39665 -4.21532 0
M  V30 2353 N 218.759 1.29093 0.90403 0
M  V30 2354 C 219.987 1.19689 1.68766 0
M  V30 2355 C 220.402 -0.243113 1.87228 0
M  V30 2356 O 219.759 -1.16326 1.40621 0
M  V30 2357 C 219.81 1.90144 3.07453 0
M  V30 2358 O 219.531 3.2852 2.89838 0
M  V30 2359 C 221.032 1.87162 4.01852 0
M  V30 2360 H 218.252 0.415035 0.527244 0
M  V30 2361 H 220.796 1.7039 1.13082 0
M  V30 2362 H 218.951 1.43289 3.59926 0
M  V30 2363 H 219.365 3.63944 3.77684 0
M  V30 2364 H 220.839 2.41032 4.96596 0
M  V30 2365 H 221.316 0.84617 4.30972 0
M  V30 2366 H 221.922 2.33741 3.5531 0
M  V30 2367 N 220.237 -1.11381 1.11499 0
M  V30 2368 C 221.514 -1.7955 0.775965 0
M  V30 2369 C 221.894 -1.97859 -0.73588 0
M  V30 2370 O 221.242 -1.56376 -1.66609 0
M  V30 2371 C 221.452 -3.13196 1.53977 0
M  V30 2372 C 222.8 -3.88227 1.71944 0
M  V30 2373 O 223.824 -3.22887 1.50407 0
M  V30 2374 O 222.683 -5.05477 2.07738 0
M  V30 2375 H 219.777 -0.777728 0.28119 0
M  V30 2376 H 222.323 -1.18118 1.21845 0
M  V30 2377 H 221.095 -2.95229 2.56818 0
M  V30 2378 H 220.718 -3.82342 1.09088 0
M  V30 2379 N 221.715 -0.905404 -1.28997 0
M  V30 2380 C 222.665 -0.358713 -2.25161 0
M  V30 2381 C 223.649 0.524449 -1.52113 0
M  V30 2382 O 224.841 0.365534 -1.73184 0
M  V30 2383 C 221.97 0.407609 -3.40872 0
M  V30 2384 C 221.056 -0.490797 -4.21251 0
M  V30 2385 N 221.447 -1.60061 -4.79806 0
M  V30 2386 C 219.745 -0.289636 -4.45059 0
M  V30 2387 C 220.446 -2.15757 -5.40207 0
M  V30 2388 N 219.422 -1.44988 -5.23908 0
M  V30 2389 H 223.224 -1.20642 -2.67998 0
M  V30 2390 H 220.738 -0.757103 -1.43672 0
M  V30 2391 H 222.735 0.816046 -4.08835 0
M  V30 2392 H 221.395 1.25251 -2.9957 0
M  V30 2393 H 222.406 -1.98329 -4.7842 0
M  V30 2394 H 219.083 0.51643 -4.14294 0
M  V30 2395 H 220.473 -3.09069 -5.96595 0
M  V30 2396 N 223.193 1.4272 -0.668489 0
M  V30 2397 C 224.441 2.01226 -0.187769 0
M  V30 2398 C 224.762 1.53092 1.2078 0
M  V30 2399 O 224.032 0.74993 1.80977 0
M  V30 2400 H 222.612 0.744041 -0.0664272 0
M  V30 2401 H 225.274 1.74723 -0.863583 0
M  V30 2402 H 224.37 3.11556 -0.184166 0
M  V30 2403 N 224.671 0.411399 1.52136 0
M  V30 2404 C 225.948 -0.222308 1.94333 0
M  V30 2405 C 226.328 -1.6242 1.34844 0
M  V30 2406 O 225.676 -2.22384 0.525145 0
M  V30 2407 C 225.886 -0.226345 3.48265 0
M  V30 2408 C 227.234 -0.444592 4.22266 0
M  V30 2409 O 228.258 -0.305602 3.54887 0
M  V30 2410 O 227.117 -0.718749 5.41753 0
M  V30 2411 H 224.211 -0.143907 0.814383 0
M  V30 2412 H 226.757 0.467506 1.63133 0
M  V30 2413 H 225.529 0.75475 3.83952 0
M  V30 2414 H 225.152 -0.960163 3.85832 0
M  V30 2415 N 226.149 -1.5696 0.141893 0
M  V30 2416 C 227.395 -1.9625 -0.511248 0
M  V30 2417 C 227.728 -1.02654 -1.64851 0
M  V30 2418 O 227.003 -0.0679676 -1.94381 0
M  V30 2419 C 227.286 -3.45285 -1.02227 0
M  V30 2420 C 227.139 -4.49658 0.113138 0
M  V30 2421 C 228.458 -3.96698 -1.90574 0
M  V30 2422 H 225.577 -0.713567 -0.184367 0
M  V30 2423 H 228.219 -1.88698 0.222087 0
M  V30 2424 H 226.369 -3.51852 -1.64719 0
M  V30 2425 H 228.041 -4.55174 0.749302 0
M  V30 2426 H 226.284 -4.26857 0.773026 0
M  V30 2427 H 226.955 -5.51258 -0.286053 0
M  V30 2428 H 229.431 -3.92578 -1.37918 0
M  V30 2429 H 228.307 -5.01453 -2.2324 0
M  V30 2430 H 228.568 -3.3875 -2.84079 0
M  V30 2431 N 227.627 0.131896 -1.57047 0
M  V30 2432 C 228.574 1.16236 -1.99393 0
M  V30 2433 C 229.544 1.41863 -0.863943 0
M  V30 2434 O 230.729 1.53946 -1.12718 0
M  V30 2435 C 227.869 2.48708 -2.39245 0
M  V30 2436 C 226.982 2.30127 -3.65603 0
M  V30 2437 C 226.117 3.55738 -3.94492 0
M  V30 2438 C 225.156 3.32259 -5.14073 0
M  V30 2439 N 224.293 4.50039 -5.38896 0
M  V30 2440 H 229.133 0.794251 -2.87221 0
M  V30 2441 H 226.67 0.380707 -1.42088 0
M  V30 2442 H 228.628 3.25969 -2.60384 0
M  V30 2443 H 227.258 2.83437 -1.54478 0
M  V30 2444 H 226.31 1.43845 -3.52154 0
M  V30 2445 H 227.622 2.08746 -4.5302 0
M  V30 2446 H 226.776 4.41423 -4.1621 0
M  V30 2447 H 225.515 3.80138 -3.05526 0
M  V30 2448 H 224.52 2.44963 -4.92212 0
M  V30 2449 H 225.745 3.09242 -6.04604 0
M  V30 2450 H 223.691 4.74584 -4.52886 0
M  V30 2451 H 223.608 4.31716 -6.2061 0
M  V30 2452 H 224.876 5.36895 -5.65123 0
M  V30 2453 N 229.106 1.52395 0.401703 0
M  V30 2454 C 230.036 1.79231 1.49661 0
M  V30 2455 C 231.017 0.643654 1.57452 0
M  V30 2456 O 232.202 0.889989 1.72606 0
M  V30 2457 C 229.332 1.94971 2.87409 0
M  V30 2458 C 228.286 3.10604 2.94465 0
M  V30 2459 C 227.612 3.11577 4.34538 0
M  V30 2460 C 228.912 4.49921 2.6527 0
M  V30 2461 H 230.606 2.70917 1.27454 0
M  V30 2462 H 228.152 1.30362 0.6117 0
M  V30 2463 H 230.105 2.12328 3.63999 0
M  V30 2464 H 228.829 0.999632 3.10926 0
M  V30 2465 H 227.488 2.93009 2.20321 0
M  V30 2466 H 227.136 2.14277 4.55076 0
M  V30 2467 H 226.836 3.89247 4.40183 0
M  V30 2468 H 228.36 3.31073 5.13053 0
M  V30 2469 H 229.774 4.67683 3.31581 0
M  V30 2470 H 228.171 5.29564 2.82281 0
M  V30 2471 H 229.241 4.57507 1.60671 0
M  V30 2472 N 230.584 -0.659388 1.43143 0
M  V30 2473 C 231.547 -1.75432 1.47501 0
M  V30 2474 C 232.547 -1.56707 0.360512 0
M  V30 2475 O 233.737 -1.62717 0.622002 0
M  V30 2476 C 230.869 -3.14239 1.32162 0
M  V30 2477 H 232.062 -1.7295 2.45006 0
M  V30 2478 H 229.615 -0.870469 1.29817 0
M  V30 2479 H 230.35 -3.22336 0.356401 0
M  V30 2480 H 230.135 -3.29235 2.12948 0
M  V30 2481 H 231.625 -3.94094 1.3813 0
M  V30 2482 N 232.062 -1.29571 -0.897171 0
M  V30 2483 C 233.339 -1.08365 -1.62839 0
M  V30 2484 C 233.719 0.371331 -2.07808 0
M  V30 2485 O 233.067 1.3606 -1.83576 0
M  V30 2486 C 233.277 -2.0735 -2.80726 0
M  V30 2487 C 234.625 -2.38406 -3.51351 0
M  V30 2488 O 235.649 -2.05564 -2.90898 0
M  V30 2489 O 234.508 -2.9453 -4.60341 0
M  V30 2490 H 231.602 -0.415345 -0.715134 0
M  V30 2491 H 234.148 -1.40952 -0.945018 0
M  V30 2492 H 232.92 -3.05339 -2.44711 0
M  V30 2493 H 232.543 -1.75507 -3.56767 0
M  V30 2494 N 233.54 1.10788 -1.12088 0
M  V30 2495 C 234.787 1.82671 -0.873931 0
M  V30 2496 C 235.115 1.85004 0.600311 0
M  V30 2497 O 234.37 1.30365 1.45957 0
M  V30 2498 C 234.669 3.29294 -1.38926 0
M  V30 2499 C 234.335 3.47113 -2.87791 0
M  V30 2500 C 232.997 3.51684 -3.28439 0
M  V30 2501 C 235.349 3.52808 -3.83635 0
M  V30 2502 C 232.677 3.59513 -4.63646 0
M  V30 2503 C 235.029 3.62169 -5.18668 0
M  V30 2504 C 233.693 3.65003 -5.58864 0
M  V30 2505 H 232.963 0.668441 -0.319794 0
M  V30 2506 H 235.61 1.30613 -1.40045 0
M  V30 2507 H 233.915 3.83894 -0.783122 0
M  V30 2508 H 235.612 3.83416 -1.17443 0
M  V30 2509 H 232.202 3.4423 -2.5535 0
M  V30 2510 H 236.386 3.4853 -3.53328 0
M  V30 2511 H 231.642 3.59987 -4.94185 0
M  V30 2512 H 235.816 3.6552 -5.92763 0
M  V30 2513 H 233.443 3.70822 -6.63623 0
M  V30 2514 N 235.018 0.912232 1.28515 0
M  V30 2515 C 236.266 0.543523 1.94654 0
M  V30 2516 C 236.587 -0.9155 1.72173 0
M  V30 2517 O 235.857 -1.64708 1.06058 0
M  V30 2518 H 234.437 0.198017 0.720277 0
M  V30 2519 H 237.099 1.16126 1.56527 0
M  V30 2520 H 236.195 0.736684 3.03281 0
M  V30 2521 N 236.496 -1.42363 0.676048 0
M  V30 2522 C 237.742 -2.0182 0.199125 0
M  V30 2523 C 238.075 -1.53339 -1.19168 0
M  V30 2524 O 237.35 -0.736124 -1.80032 0
M  V30 2525 C 237.633 -3.59331 0.235144 0
M  V30 2526 C 237.486 -4.17989 1.66149 0
M  V30 2527 C 238.805 -4.3813 -0.41595 0
M  V30 2528 H 235.924 -0.733293 0.0738311 0
M  V30 2529 H 238.566 -1.69368 0.86107 0
M  V30 2530 H 236.716 -3.87109 -0.328487 0
M  V30 2531 H 238.388 -4.0116 2.27747 0
M  V30 2532 H 236.631 -3.7377 2.20178 0
M  V30 2533 H 237.302 -5.27126 1.63837 0
M  V30 2534 H 239.778 -4.16051 0.0638529 0
M  V30 2535 H 238.654 -5.47717 -0.360115 0
M  V30 2536 H 238.915 -4.16101 -1.49373 0
M  V30 2537 N 237.974 -0.419461 -1.51915 0
M  V30 2538 C 238.937 0.389116 -2.25873 0
M  V30 2539 C 239.937 0.964924 -1.28631 0
M  V30 2540 O 241.127 0.842179 -1.52489 0
M  V30 2541 C 238.259 1.54874 -3.03689 0
M  V30 2542 H 239.452 -0.258799 -2.98781 0
M  V30 2543 H 237.005 -0.172209 -1.55348 0
M  V30 2544 H 237.74 2.23323 -2.35154 0
M  V30 2545 H 237.525 1.14223 -3.75094 0
M  V30 2546 H 239.015 2.12046 -3.59759 0
M  V30 2547 N 239.452 1.56882 -0.150215 0
M  V30 2548 C 240.415 2.1573 0.774157 0
M  V30 2549 C 241.415 1.0999 1.17298 0
M  V30 2550 O 242.605 1.35613 1.09338 0
M  V30 2551 C 239.737 2.72302 2.05096 0
M  V30 2552 H 240.93 2.98752 0.262201 0
M  V30 2553 H 238.483 1.55985 0.099248 0
M  V30 2554 H 239.218 1.92956 2.6065 0
M  V30 2555 H 239.003 3.49665 1.77416 0
M  V30 2556 H 240.493 3.17632 2.71109 0
M  V30 2557 N 240.93 -0.123565 1.57115 0
M  V30 2558 C 241.877 -1.15177 2.00007 0
M  V30 2559 C 242.847 -1.41403 0.871454 0
M  V30 2560 O 244.032 -1.53346 1.13533 0
M  V30 2561 C 241.172 -2.47436 2.40561 0
M  V30 2562 C 240.285 -2.28184 3.66819 0
M  V30 2563 C 239.42 -3.53641 3.96373 0
M  V30 2564 C 238.459 -3.29528 5.15827 0
M  V30 2565 N 237.596 -4.47175 5.41275 0
M  V30 2566 H 242.436 -0.779008 2.87638 0
M  V30 2567 H 239.973 -0.373166 1.42288 0
M  V30 2568 H 241.931 -3.24584 2.62109 0
M  V30 2569 H 240.561 -2.82614 1.55978 0
M  V30 2570 H 239.613 -1.41976 3.52912 0
M  V30 2571 H 240.925 -2.0634 4.5412 0
M  V30 2572 H 240.079 -4.39209 4.18545 0
M  V30 2573 H 238.818 -3.78512 3.07538 0
M  V30 2574 H 237.823 -2.42349 4.93505 0
M  V30 2575 H 239.048 -3.06031 6.06236 0
M  V30 2576 H 236.994 -4.72175 4.55397 0
M  V30 2577 H 236.911 -4.28419 6.22891 0
M  V30 2578 H 238.179 -5.3389 5.67963 0
M  V30 2579 N 242.408 -1.52605 -0.393616 0
M  V30 2580 C 243.657 -1.66649 -1.13627 0
M  V30 2581 C 243.97 -0.410364 -1.91247 0
M  V30 2582 O 245.176 -0.430854 -2.68059 0
M  V30 2583 C 243.632 -2.9449 -2.06891 0
M  V30 2584 C 243.24 -4.27266 -1.34714 0
M  V30 2585 C 244.984 -3.17899 -2.81319 0
M  V30 2586 C 242.891 -5.46217 -2.26717 0
M  V30 2587 H 241.821 -0.62084 -0.427871 0
M  V30 2588 H 244.472 -1.791 -0.399428 0
M  V30 2589 H 242.854 -2.75774 -2.84191 0
M  V30 2590 H 244.028 -4.56518 -0.626714 0
M  V30 2591 H 242.343 -4.10081 -0.722643 0
M  V30 2592 H 244.94 -4.03949 -3.50328 0
M  V30 2593 H 245.283 -2.32777 -3.45139 0
M  V30 2594 H 245.816 -3.37159 -2.11113 0
M  V30 2595 H 242.555 -6.33733 -1.67521 0
M  V30 2596 H 242.075 -5.21283 -2.96689 0
M  V30 2597 H 243.754 -5.7991 -2.86903 0
M  V30 2598 N 243.887 0.651787 -1.4349 0
M  V30 2599 C 245.115 1.43937 -1.48626 0
M  V30 2600 C 245.53 1.8851 -0.104587 0
M  V30 2601 O 244.887 1.5958 0.885464 0
M  V30 2602 C 244.938 2.6734 -2.43334 0
M  V30 2603 O 244.659 2.24631 -3.76128 0
M  V30 2604 C 246.16 3.60683 -2.57726 0
M  V30 2605 H 243.38 0.44213 -0.504739 0
M  V30 2606 H 245.924 0.798944 -1.88248 0
M  V30 2607 H 244.079 3.2752 -2.06904 0
M  V30 2608 H 244.493 3.04485 -4.2707 0
M  V30 2609 H 245.967 4.43933 -3.28067 0
M  V30 2610 H 246.444 4.08126 -1.62265 0
M  V30 2611 H 247.05 3.06384 -2.94973 0
M  V30 2612 N 245.365 1.30045 0.890287 0
M  V30 2613 C 246.328 1.15963 1.977 0
M  V30 2614 C 247.328 0.0923777 1.60534 0
M  V30 2615 O 248.518 0.340071 1.70848 0
M  V30 2616 C 245.65 0.775451 3.31963 0
M  V30 2617 H 246.843 2.12502 2.11619 0
M  V30 2618 H 244.396 1.13366 1.07601 0
M  V30 2619 H 245.131 -0.189671 3.23745 0
M  V30 2620 H 244.916 1.54668 3.60306 0
M  V30 2621 H 246.406 0.700251 4.11687 0
M  V30 2622 N 246.843 -1.10192 1.12674 0
M  V30 2623 C 248.071 -1.85983 0.906527 0
M  V30 2624 C 248.486 -1.80783 -0.544333 0
M  V30 2625 O 247.843 -1.19834 -1.37645 0
M  V30 2626 C 247.894 -3.34281 1.37618 0
M  V30 2627 O 247.615 -3.39401 2.77017 0
M  V30 2628 C 249.116 -4.26938 1.19325 0
M  V30 2629 H 246.336 -0.587716 0.323775 0
M  V30 2630 H 248.88 -1.39284 1.49734 0
M  V30 2631 H 247.035 -3.78436 0.828539 0
M  V30 2632 H 247.449 -4.31838 2.97684 0
M  V30 2633 H 248.923 -5.29181 1.57071 0
M  V30 2634 H 249.4 -4.38995 0.134097 0
M  V30 2635 H 250.006 -3.8859 1.72852 0
M  V30 2636 N 248.321 -0.919034 -1.28029 0
M  V30 2637 C 249.57 -0.550802 -1.94034 0
M  V30 2638 C 249.883 0.910877 -1.73096 0
M  V30 2639 O 251.089 1.3875 -2.33368 0
M  V30 2640 C 249.545 -0.934249 -3.47563 0
M  V30 2641 C 249.153 -2.41602 -3.7727 0
M  V30 2642 C 250.897 -0.636854 -4.19696 0
M  V30 2643 C 248.804 -2.73932 -5.24133 0
M  V30 2644 H 247.734 -0.202273 -0.726362 0
M  V30 2645 H 250.385 -1.11867 -1.45458 0
M  V30 2646 H 248.767 -0.295115 -3.94899 0
M  V30 2647 H 249.941 -3.10233 -3.40723 0
M  V30 2648 H 248.256 -2.68441 -3.18321 0
M  V30 2649 H 250.853 -0.855005 -5.2782 0
M  V30 2650 H 251.196 0.425575 -4.14119 0
M  V30 2651 H 251.729 -1.23469 -3.78154 0
M  V30 2652 H 248.468 -3.79049 -5.34792 0
M  V30 2653 H 247.988 -2.09942 -5.61858 0
M  V30 2654 H 249.667 -2.61215 -5.91925 0
M  V30 2655 N 249.799 1.42003 -0.683588 0
M  V30 2656 C 250.762 2.29191 -0.0198243 0
M  V30 2657 C 251.762 1.43773 0.72013 0
M  V30 2658 O 252.952 1.65061 0.556815 0
M  V30 2659 C 250.084 3.26435 0.982487 0
M  V30 2660 H 251.277 2.8938 -0.787345 0
M  V30 2661 H 248.83 1.49789 -0.446418 0
M  V30 2662 H 249.565 2.71203 1.77819 0
M  V30 2663 H 249.35 3.89449 0.455182 0
M  V30 2664 H 250.84 3.918 1.44508 0
M  V30 2665 N 251.277 0.427512 1.51691 0
M  V30 2666 C 252.224 -0.388867 2.275 0
M  V30 2667 C 253.194 -1.02532 1.30677 0
M  V30 2668 O 254.379 -1.0461 1.59566 0
M  V30 2669 C 251.519 -1.48954 3.11298 0
M  V30 2670 C 250.632 -0.872194 4.23104 0
M  V30 2671 C 249.767 -1.94709 4.94228 0
M  V30 2672 C 248.806 -1.30766 5.97969 0
M  V30 2673 N 247.943 -2.32349 6.62539 0
M  V30 2674 H 252.783 0.263997 2.96828 0
M  V30 2675 H 250.32 0.142033 1.46413 0
M  V30 2676 H 252.278 -2.13887 3.58201 0
M  V30 2677 H 250.908 -2.11217 2.44105 0
M  V30 2678 H 249.96 -0.111419 3.80237 0
M  V30 2679 H 251.272 -0.365264 4.97461 0
M  V30 2680 H 250.426 -2.67327 5.44629 0
M  V30 2681 H 249.165 -2.48773 4.1948 0
M  V30 2682 H 248.17 -0.566902 5.4687 0
M  V30 2683 H 249.395 -0.774483 6.74669 0
M  V30 2684 H 247.341 -2.85511 5.90609 0
M  V30 2685 H 247.258 -1.8652 7.3263 0
M  V30 2686 H 248.526 -3.04481 7.17574 0
M  V30 2687 N 252.755 -1.56801 0.158532 0
M  V30 2688 C 254.171 -1.5837 -0.197774 0
M  V30 2689 C 254.371 -1.17334 -1.63814 0
M  V30 2690 O 253.427 -0.878988 -2.36707 0
M  V30 2691 C 254.74 -3.00615 0.0714459 0
M  V30 2692 C 256.288 -3.12999 0.00864533 0
M  V30 2693 C 256.763 -4.57313 0.250685 0
M  V30 2694 N 258.254 -4.62777 0.198014 0
M  V30 2695 C 258.989 -5.72271 0.359642 0
M  V30 2696 N 258.485 -6.90371 0.579625 0
M  V30 2697 N 260.278 -5.61318 0.296438 0
M  V30 2698 H 252.429 -1.81765 1.09887 0
M  V30 2699 H 254.692 -0.841849 0.435884 0
M  V30 2700 H 254.398 -3.35068 1.06874 0
M  V30 2701 H 254.272 -3.71683 -0.642757 0
M  V30 2702 H 256.659 -2.7838 -0.979217 0
M  V30 2703 H 256.74 -2.44393 0.755359 0
M  V30 2704 H 256.384 -4.92639 1.2357 0
M  V30 2705 H 256.314 -5.24061 -0.516489 0
M  V30 2706 H 258.805 -3.77885 0.0331115 0
M  V30 2707 H 259.118 -7.69689 0.69275 0
M  V30 2708 H 257.463 -6.92264 0.616087 0
M  V30 2709 H 260.654 -4.67932 0.125258 0
M  V30 2710 H 260.827 -6.46599 0.425831 0
M  V30 2711 N 254.233 0.115231 -1.57178 0
M  V30 2712 C 255.18 1.14115 -2.00615 0
M  V30 2713 C 256.15 1.40939 -0.878941 0
M  V30 2714 O 257.335 1.52741 -1.14345 0
M  V30 2715 C 254.475 2.46156 -2.4187 0
M  V30 2716 C 253.588 2.26236 -3.68024 0
M  V30 2717 C 252.723 3.51534 -3.98243 0
M  V30 2718 C 251.762 3.26787 -5.17568 0
M  V30 2719 N 250.899 4.44298 -5.43639 0
M  V30 2720 H 255.739 0.763743 -2.88047 0
M  V30 2721 H 253.276 0.365615 -1.42484 0
M  V30 2722 H 255.234 3.23189 -2.63827 0
M  V30 2723 H 253.864 2.81783 -1.57475 0
M  V30 2724 H 252.916 1.40102 -3.5366 0
M  V30 2725 H 254.228 2.03929 -4.55208 0
M  V30 2726 H 253.382 4.36984 -4.20868 0
M  V30 2727 H 252.121 3.76876 -3.09541 0
M  V30 2728 H 251.126 2.39729 -4.94783 0
M  V30 2729 H 252.351 3.02812 -6.0785 0
M  V30 2730 H 250.297 4.69754 -4.57895 0
M  V30 2731 H 250.214 4.25109 -6.25154 0
M  V30 2732 H 251.482 5.3087 -5.70786 0
M  V30 2733 N 255.711 1.52812 0.385517 0
M  V30 2734 C 256.936 1.72207 1.15583 0
M  V30 2735 C 257.361 0.441034 1.82857 0
M  V30 2736 O 256.719 -0.603465 1.70962 0
M  V30 2737 C 256.767 2.87476 2.17692 0
M  V30 2738 O 255.871 2.54693 3.24354 0
M  V30 2739 H 255.212 0.572526 0.336319 0
M  V30 2740 H 257.742 1.99618 0.448744 0
M  V30 2741 H 257.752 3.13072 2.6163 0
M  V30 2742 H 256.427 3.80408 1.68115 0
M  V30 2743 H 255.004 2.3985 2.85529 0
M  V30 2744 N 257.189 -0.644168 1.43834 0
M  V30 2745 C 258.436 -1.40395 1.4593 0
M  V30 2746 C 258.764 -1.94305 0.0869658 0
M  V30 2747 O 258.019 -1.73288 -0.909378 0
M  V30 2748 C 258.318 -2.59615 2.45631 0
M  V30 2749 C 257.984 -2.2407 3.91284 0
M  V30 2750 C 256.646 -2.14089 4.30952 0
M  V30 2751 C 258.998 -1.95775 4.83034 0
M  V30 2752 C 256.326 -1.73981 5.6031 0
M  V30 2753 C 258.678 -1.57163 6.12766 0
M  V30 2754 C 257.342 -1.45713 6.51402 0
M  V30 2755 H 256.612 -0.513741 0.533995 0
M  V30 2756 H 259.259 -0.731724 1.76969 0
M  V30 2757 H 257.564 -3.32011 2.08028 0
M  V30 2758 H 259.261 -3.17834 2.44504 0
M  V30 2759 H 255.851 -2.32753 3.59895 0
M  V30 2760 H 260.035 -2.02403 4.53152 0
M  V30 2761 H 255.291 -1.63709 5.89075 0
M  V30 2762 H 259.465 -1.34303 6.83327 0
M  V30 2763 H 257.092 -1.14406 7.51542 0
M  V30 2764 N 258.668 -1.30515 -0.883378 0
M  V30 2765 C 259.917 -1.18795 -1.63005 0
M  V30 2766 C 260.23 0.255923 -1.93919 0
M  V30 2767 O 261.436 0.494654 -2.66956 0
M  V30 2768 C 259.892 -2.07878 -2.93794 0
M  V30 2769 C 259.5 -3.57184 -2.70414 0
M  V30 2770 C 261.244 -2.04924 -3.71761 0
M  V30 2771 C 259.151 -4.38317 -3.97029 0
M  V30 2772 H 258.081 -0.441031 -0.611562 0
M  V30 2773 H 260.732 -1.55275 -0.977854 0
M  V30 2774 H 259.114 -1.64283 -3.60315 0
M  V30 2775 H 260.288 -4.08937 -2.12384 0
M  V30 2776 H 258.603 -3.61976 -2.0582 0
M  V30 2777 H 261.2 -2.62792 -4.65665 0
M  V30 2778 H 261.543 -1.0331 -4.03277 0
M  V30 2779 H 262.076 -2.46649 -3.12104 0
M  V30 2780 H 258.815 -5.40632 -3.70671 0
M  V30 2781 H 258.335 -3.91326 -4.54559 0
M  V30 2782 H 260.014 -4.49834 -4.65036 0
M  V30 2783 N 260.146 1.09593 -1.13257 0
M  V30 2784 C 261.394 1.81375 -0.891492 0
M  V30 2785 C 261.715 1.86049 0.584009 0
M  V30 2786 O 260.985 1.34481 1.42449 0
M  V30 2787 H 259.565 0.671708 -0.326828 0
M  V30 2788 H 262.227 1.3256 -1.42877 0
M  V30 2789 H 261.323 2.84612 -1.28071 0
M  V30 2790 N 261.624 0.925811 1.2754 0
M  V30 2791 C 262.852 0.581509 1.9856 0
M  V30 2792 C 263.267 -0.840041 1.69082 0
M  V30 2793 O 262.624 -1.55805 0.950312 0
M  V30 2794 C 262.675 0.795589 3.52637 0
M  V30 2795 O 262.396 2.16121 3.81082 0
M  V30 2796 C 263.897 0.459744 4.4091 0
M  V30 2797 H 261.117 0.220538 0.633722 0
M  V30 2798 H 263.661 1.24232 1.6244 0
M  V30 2799 H 261.816 0.18161 3.86974 0
M  V30 2800 H 262.23 2.2098 4.75676 0
M  V30 2801 H 263.704 0.660244 5.48037 0
M  V30 2802 H 264.181 -0.604625 4.35018 0
M  V30 2803 H 264.787 1.05178 4.12089 0
M  V30 2804 N 263.102 -1.41638 0.69111 0
M  V30 2805 C 264.513 -1.84346 0.295517 0
M  V30 2806 C 264.864 -1.57833 -1.16547 0
M  V30 2807 O 263.989 -1.04648 -1.89414 0
M  V30 2808 C 264.584 -3.34636 0.529575 0
M  V30 2809 C 263.143 -3.7593 0.187944 0
M  V30 2810 C 262.29 -2.65082 0.814052 0
M  V30 2811 H 265.241 -1.31253 0.892092 0
M  V30 2812 H 265.262 -3.79903 -0.213148 0
M  V30 2813 H 264.774 -3.53901 1.59297 0
M  V30 2814 H 262.875 -3.62268 -0.871367 0
M  V30 2815 H 262.988 -4.74808 0.63985 0
M  V30 2816 H 261.352 -2.53528 0.244017 0
M  V30 2817 H 262.135 -2.87167 1.88123 0
M  V30 2818 N 264.58 -0.43555 -1.51462 0
M  V30 2819 C 265.81 0.130053 -2.0619 0
M  V30 2820 C 266.218 1.37164 -1.30317 0
M  V30 2821 O 265.561 1.80225 -0.355598 0
M  V30 2822 C 265.623 0.519418 -3.55728 0
M  V30 2823 C 265.287 -0.615119 -4.52841 0
M  V30 2824 C 266.284 -1.48671 -4.9819 0
M  V30 2825 C 263.969 -0.795341 -4.95963 0
M  V30 2826 C 265.963 -2.52324 -5.8533 0
M  V30 2827 C 263.65 -1.83514 -5.82894 0
M  V30 2828 C 264.648 -2.69748 -6.27475 0
M  V30 2829 O 264.336 -3.71944 -7.1268 0
M  V30 2830 H 264.068 0.0121612 -0.675891 0
M  V30 2831 H 266.622 -0.6129 -1.96043 0
M  V30 2832 H 264.852 1.31505 -3.63653 0
M  V30 2833 H 266.541 1.01597 -3.92979 0
M  V30 2834 H 267.307 -1.359 -4.65571 0
M  V30 2835 H 263.186 -0.133713 -4.60806 0
M  V30 2836 H 266.73 -3.19665 -6.20048 0
M  V30 2837 H 262.627 -1.96306 -6.14926 0
M  V30 2838 H 263.395 -3.68503 -7.30854 0
M  V30 2839 N 266.058 1.56714 -0.166846 0
M  V30 2840 C 267.304 1.97813 0.473473 0
M  V30 2841 C 267.659 1.05095 1.61161 0
M  V30 2842 O 266.952 0.0897541 1.9139 0
M  V30 2843 C 267.146 3.42889 1.00806 0
M  V30 2844 C 266.975 4.49635 -0.0767392 0
M  V30 2845 C 265.745 5.02566 -0.524894 0
M  V30 2846 C 267.943 5.06793 -0.875504 0
M  V30 2847 N 265.925 5.9294 -1.59047 0
M  V30 2848 C 267.296 5.93565 -1.79111 0
M  V30 2849 C 269.351 4.89306 -0.921083 0
M  V30 2850 C 268.054 6.64721 -2.74843 0
M  V30 2851 C 270.08 5.61179 -1.86633 0
M  V30 2852 C 269.442 6.47675 -2.76942 0
M  V30 2853 H 265.541 0.769093 0.141489 0
M  V30 2854 H 268.125 1.92874 -0.266031 0
M  V30 2855 H 266.296 3.48382 1.7171 0
M  V30 2856 H 268.028 3.71008 1.61664 0
M  V30 2857 H 264.783 4.73439 -0.123432 0
M  V30 2858 H 265.207 6.42831 -2.12361 0
M  V30 2859 H 269.849 4.22136 -0.23692 0
M  V30 2860 H 267.567 7.31107 -3.44249 0
M  V30 2861 H 271.153 5.49636 -1.90764 0
M  V30 2862 H 270.033 7.02313 -3.48893 0
M  V30 2863 N 267.536 -0.106894 1.57237 0
M  V30 2864 C 268.469 -1.16125 1.96444 0
M  V30 2865 C 269.447 -1.3947 0.835871 0
M  V30 2866 O 270.631 -1.53425 1.09513 0
M  V30 2867 C 267.758 -2.51277 2.27107 0
M  V30 2868 C 266.804 -2.44285 3.4961 0
M  V30 2869 S 267.637 -1.87077 5.01759 0
M  V30 2870 C 268.793 -3.23877 5.35588 0
M  V30 2871 H 269.026 -0.826971 2.85567 0
M  V30 2872 H 266.559 -0.314124 1.51171 0
M  V30 2873 H 268.517 -3.29035 2.45451 0
M  V30 2874 H 267.178 -2.81879 1.38576 0
M  V30 2875 H 266.371 -3.4387 3.68469 0
M  V30 2876 H 265.973 -1.74652 3.30715 0
M  V30 2877 H 268.265 -4.20122 5.31511 0
M  V30 2878 H 269.208 -3.09833 6.36717 0
M  V30 2879 H 269.616 -3.22864 4.63054 0
M  V30 2880 N 269.014 -1.53014 -0.377408 0
M  V30 2881 C 269.977 -1.77957 -1.44444 0
M  V30 2882 C 270.977 -0.649763 -1.47087 0
M  V30 2883 O 272.167 -0.917897 -1.48055 0
M  V30 2884 C 269.299 -1.89089 -2.83651 0
M  V30 2885 H 270.492 -2.73243 -1.23606 0
M  V30 2886 H 268.045 -1.43912 -0.609844 0
M  V30 2887 H 268.78 -0.958293 -3.09818 0
M  V30 2888 H 268.565 -2.71254 -2.83132 0
M  V30 2889 H 270.055 -2.1002 -3.60945 0
M  V30 2890 N 270.492 0.636531 -1.44174 0
M  V30 2891 C 271.903 1.21806 -1.41493 0
M  V30 2892 C 272.254 1.95785 -0.1275 0
M  V30 2893 O 271.379 2.02147 0.772376 0
M  V30 2894 C 271.974 2.21551 -2.56321 0
M  V30 2895 C 270.533 2.75143 -2.56853 0
M  V30 2896 C 269.68 1.50052 -2.33195 0
M  V30 2897 H 272.631 0.427531 -1.52833 0
M  V30 2898 H 272.652 3.0405 -2.28765 0
M  V30 2899 H 272.164 1.67679 -3.50008 0
M  V30 2900 H 270.265 3.33033 -1.67093 0
M  V30 2901 H 270.378 3.2155 -3.55165 0
M  V30 2902 H 268.742 1.77993 -1.82183 0
M  V30 2903 H 269.525 0.980903 -3.28988 0
M  V30 2904 N 271.97 1.30982 0.876444 0
M  V30 2905 C 272.88 1.2003 2.01569 0
M  V30 2906 C 273.896 0.11838 1.73597 0
M  V30 2907 O 275.072 0.33495 1.98595 0
M  V30 2908 C 272.137 0.901637 3.34771 0
M  V30 2909 C 271.198 2.06979 3.76109 0
M  V30 2910 C 270.431 1.78529 5.02954 0
M  V30 2911 O 270.654 0.717296 5.65872 0
M  V30 2912 O 269.588 2.64019 5.40905 0
M  V30 2913 H 273.414 2.15753 2.13739 0
M  V30 2914 H 270.999 1.10658 1.00375 0
M  V30 2915 H 272.881 0.750645 4.1466 0
M  V30 2916 H 271.556 -0.0256141 3.2369 0
M  V30 2917 H 270.463 2.27616 2.96887 0
M  V30 2918 H 271.796 2.97907 3.91807 0
M  V30 2919 N 273.449 -1.08991 1.13837 0
M  V30 2920 C 274.695 -1.81526 0.90422 0
M  V30 2921 C 275.028 -1.85706 -0.568066 0
M  V30 2922 O 274.303 -1.32855 -1.42056 0
M  V30 2923 C 274.586 -3.27447 1.49835 0
M  V30 2924 C 274.439 -3.31512 3.04006 0
M  V30 2925 C 275.758 -4.24256 1.17025 0
M  V30 2926 H 272.877 -0.659029 0.329923 0
M  V30 2927 H 275.519 -1.27644 1.40737 0
M  V30 2928 H 273.669 -3.73462 1.07044 0
M  V30 2929 H 275.341 -2.93867 3.55584 0
M  V30 2930 H 273.584 -2.70963 3.38765 0
M  V30 2931 H 274.255 -4.34329 3.40679 0
M  V30 2932 H 276.731 -3.86549 1.54009 0
M  V30 2933 H 275.607 -5.24684 1.61237 0
M  V30 2934 H 275.868 -4.42019 0.0846274 0
M  V30 2935 N 274.927 -0.932562 -1.27047 0
M  V30 2936 C 275.89 -0.440064 -2.24936 0
M  V30 2937 C 276.89 0.444071 -1.54547 0
M  V30 2938 O 278.08 0.244465 -1.72476 0
M  V30 2939 C 275.212 0.36678 -3.38921 0
M  V30 2940 H 276.405 -1.305 -2.70018 0
M  V30 2941 H 273.958 -0.713707 -1.39054 0
M  V30 2942 H 274.693 1.25033 -2.99228 0
M  V30 2943 H 274.478 -0.267204 -3.91188 0
M  V30 2944 H 275.968 0.701567 -4.11665 0
M  V30 2945 N 276.405 1.4127 -0.698611 0
M  V30 2946 C 277.368 2.29158 -0.044132 0
M  V30 2947 C 278.368 1.44529 0.704841 0
M  V30 2948 O 279.558 1.65643 0.539276 0
M  V30 2949 C 276.69 3.27459 0.947809 0
M  V30 2950 H 277.883 2.88529 -0.817994 0
M  V30 2951 H 275.436 1.49307 -0.46228 0
M  V30 2952 H 276.171 2.73073 1.74933 0
M  V30 2953 H 275.956 3.8991 0.41385 0
M  V30 2954 H 277.446 3.93311 1.40344 0
M  V30 2955 N 277.883 0.443576 1.51229 0
M  V30 2956 C 279.129 -0.120975 2.02439 0
M  V30 2957 C 279.462 -1.41815 1.32674 0
M  V30 2958 O 278.737 -1.89373 0.443622 0
M  V30 2959 C 279.02 -0.333291 3.58554 0
M  V30 2960 C 278.873 0.982968 4.38928 0
M  V30 2961 C 280.192 -1.10028 4.26124 0
M  V30 2962 H 277.311 -0.0424923 0.735774 0
M  V30 2963 H 279.953 0.583794 1.80809 0
M  V30 2964 H 278.103 -0.933614 3.77115 0
M  V30 2965 H 279.775 1.61775 4.32003 0
M  V30 2966 H 278.018 1.58611 4.03763 0
M  V30 2967 H 278.689 0.788379 5.46341 0
M  V30 2968 H 281.165 -0.591711 4.11871 0
M  V30 2969 H 280.041 -1.21761 5.35225 0
M  V30 2970 H 280.302 -2.12996 3.87408 0
M  V30 2971 N 279.361 -1.56624 0.175154 0
M  V30 2972 C 280.271 -2.21741 -0.766042 0
M  V30 2973 C 281.287 -1.21023 -1.25018 0
M  V30 2974 O 282.463 -1.53697 -1.3015 0
M  V30 2975 C 279.528 -2.84839 -1.97655 0
M  V30 2976 C 278.589 -4.00769 -1.53892 0
M  V30 2977 C 277.822 -4.60849 -2.69173 0
M  V30 2978 O 278.045 -4.19823 -3.86141 0
M  V30 2979 O 276.979 -5.50655 -2.43028 0
M  V30 2980 H 280.805 -3.02738 -0.241585 0
M  V30 2981 H 278.39 -1.49305 -0.053222 0
M  V30 2982 H 280.272 -3.24834 -2.68442 0
M  V30 2983 H 278.947 -2.06836 -2.48999 0
M  V30 2984 H 277.854 -3.65436 -0.80044 0
M  V30 2985 H 279.187 -4.80376 -1.07236 0
M  V30 2986 N 280.839 0.0985539 -1.57292 0
M  V30 2987 C 281.786 1.11981 -2.01814 0
M  V30 2988 C 282.756 1.39999 -0.89384 0
M  V30 2989 O 283.941 1.5152 -1.15958 0
M  V30 2990 C 281.081 2.43577 -2.44467 0
M  V30 2991 C 280.194 2.2232 -3.70402 0
M  V30 2992 C 279.329 3.4729 -4.01949 0
M  V30 2993 C 278.368 3.2128 -5.21005 0
M  V30 2994 N 277.505 4.38507 -5.48321 0
M  V30 2995 H 282.345 0.733149 -2.88841 0
M  V30 2996 H 279.882 0.350482 -1.42864 0
M  V30 2997 H 281.84 3.20373 -2.6724 0
M  V30 2998 H 280.47 2.80097 -1.60455 0
M  V30 2999 H 279.522 1.36343 -3.55126 0
M  V30 3000 H 280.834 1.99089 -4.57345 0
M  V30 3001 H 279.988 4.32495 -4.25479 0
M  V30 3002 H 278.727 3.73572 -3.13521 0
M  V30 3003 H 277.732 2.34468 -4.97298 0
M  V30 3004 H 278.957 2.96348 -6.11028 0
M  V30 3005 H 276.903 4.64871 -4.62851 0
M  V30 3006 H 276.82 4.18455 -6.29628 0
M  V30 3007 H 278.088 5.24787 -5.76385 0
M  V30 3008 N 282.317 1.53212 0.369288 0
M  V30 3009 C 283.265 1.80054 1.47253 0
M  V30 3010 C 284.259 0.669456 1.55611 0
M  V30 3011 O 285.465 0.852328 1.58541 0
M  V30 3012 H 281.84 0.570034 0.490475 0
M  V30 3013 H 283.811 2.72403 1.21817 0
M  V30 3014 C 282.56 2.00403 2.84137 0
M  V30 3015 H 281.883 2.86876 2.78464 0
M  V30 3016 H 283.323 2.23164 3.60519 0
M  V30 3017 C 281.782 0.782081 3.27697 0
M  V30 3018 O 282.312 -0.0310205 4.01688 0
M  V30 3019 N 280.518 0.606573 2.84199 0
M  V30 3020 H 280.065 1.26939 2.24152 0
M  V30 3021 H 280.023 -0.20962 3.137 0
M  V30 3022 N 283.795 -0.628877 1.44509 0
M  V30 3023 C 285.043 -1.38565 1.4712 0
M  V30 3024 C 285.364 -1.94712 0.105899 0
M  V30 3025 O 284.634 -1.75912 -0.862079 0
M  V30 3026 H 283.214 -0.514333 0.541729 0
M  V30 3027 H 285.876 -0.740018 1.80305 0
M  V30 3028 H 284.972 -2.21583 2.19789 0
M  V30 3029 N 285.273 -1.31445 -0.869486 0
M  V30 3030 C 286.521 -1.20918 -1.61936 0
M  V30 3031 C 286.842 0.232683 -1.93607 0
M  V30 3032 O 286.112 1.15352 -1.58338 0
M  V30 3033 H 284.692 -0.44454 -0.600328 0
M  V30 3034 H 287.354 -1.64776 -1.0409 0
M  V30 3035 H 286.45 -1.78124 -2.56278 0
M  V30 3036 N 286.751 1.08385 -1.14413 0
M  V30 3037 C 287.981 1.8425 -0.934644 0
M  V30 3038 C 288.389 1.81907 0.520234 0
M  V30 3039 O 287.732 1.22126 1.37226 0
M  V30 3040 C 287.794 3.32853 -1.35828 0
M  V30 3041 C 287.458 3.5893 -2.82875 0
M  V30 3042 C 288.455 3.53756 -3.80989 0
M  V30 3043 C 286.14 3.86934 -3.20293 0
M  V30 3044 C 288.134 3.76216 -5.14529 0
M  V30 3045 C 285.821 4.09047 -4.54008 0
M  V30 3046 C 286.819 4.03682 -5.50936 0
M  V30 3047 O 286.507 4.25214 -6.82238 0
M  V30 3048 H 286.239 0.588502 -0.332628 0
M  V30 3049 H 288.793 1.37792 -1.52324 0
M  V30 3050 H 287.023 3.8007 -0.713019 0
M  V30 3051 H 288.712 3.90154 -1.11957 0
M  V30 3052 H 289.478 3.32135 -3.53428 0
M  V30 3053 H 285.357 3.9023 -2.45442 0
M  V30 3054 H 288.901 3.71943 -5.90173 0
M  V30 3055 H 284.798 4.30151 -4.8129 0
M  V30 3056 H 285.566 4.42619 -6.88499 0
M  V30 3057 N 288.23 0.939286 1.26551 0
M  V30 3058 C 289.178 0.43815 2.28436 0
M  V30 3059 C 290.172 -0.483587 1.62351 0
M  V30 3060 O 291.378 -0.362009 1.76322 0
M  V30 3061 H 287.753 0.123149 0.741848 0
M  V30 3062 H 289.724 1.31002 2.68106 0
M  V30 3063 C 288.473 -0.283052 3.46546 0
M  V30 3064 H 287.796 0.417043 3.97619 0
M  V30 3065 H 289.236 -0.597948 4.19763 0
M  V30 3066 C 287.695 -1.50018 3.01656 0
M  V30 3067 O 288.225 -2.59855 3.0633 0
M  V30 3068 N 286.431 -1.35608 2.57019 0
M  V30 3069 H 285.978 -0.46244 2.53415 0
M  V30 3070 H 285.936 -2.17165 2.27347 0
M  V30 3071 N 289.708 -1.40897 0.706093 0
M  V30 3072 C 290.64 -2.29199 0.00815776 0
M  V30 3073 C 291.653 -1.45336 -0.733582 0
M  V30 3074 O 292.842 -1.68727 -0.582537 0
M  V30 3075 C 289.942 -3.23417 -1.01265 0
M  V30 3076 C 289.115 -4.36089 -0.338387 0
M  V30 3077 C 288.174 -5.10811 -1.26326 0
M  V30 3078 O 287.2 -5.64215 -0.751651 0
M  V30 3079 N 288.402 -5.19269 -2.595 0
M  V30 3080 H 291.167 -2.89738 0.766297 0
M  V30 3081 H 288.728 -1.52164 0.55296 0
M  V30 3082 H 290.72 -3.70276 -1.63334 0
M  V30 3083 H 289.29 -2.64112 -1.67223 0
M  V30 3084 H 288.51 -3.91479 0.462352 0
M  V30 3085 H 289.798 -5.08634 0.130031 0
M  V30 3086 H 289.196 -4.77347 -3.03573 0
M  V30 3087 H 287.753 -5.69667 -3.16737 0
M  V30 3088 N 291.186 -0.45159 -1.50991 0
M  V30 3089 C 292.116 0.342898 -2.30969 0
M  V30 3090 C 293.097 1.00815 -1.37005 0
M  V30 3091 O 294.282 1.00907 -1.65926 0
M  V30 3092 C 291.412 1.43637 -3.16205 0
M  V30 3093 C 290.366 0.893818 -4.18563 0
M  V30 3094 C 289.692 2.08411 -4.92411 0
M  V30 3095 C 290.992 -0.0815568 -5.22236 0
M  V30 3096 H 292.686 -0.324556 -2.97636 0
M  V30 3097 H 290.232 -0.157531 -1.43136 0
M  V30 3098 H 292.185 1.9995 -3.70942 0
M  V30 3099 H 290.909 2.13232 -2.47386 0
M  V30 3100 H 289.568 0.352798 -3.64898 0
M  V30 3101 H 289.216 2.76658 -4.20082 0
M  V30 3102 H 288.916 1.72741 -5.61636 0
M  V30 3103 H 290.44 2.65251 -5.49976 0
M  V30 3104 H 291.854 0.391742 -5.7196 0
M  V30 3105 H 290.251 -0.351551 -5.99069 0
M  V30 3106 H 291.321 -1.01374 -4.74185 0
M  V30 3107 N 292.664 1.56529 -0.183458 0
M  V30 3108 C 293.904 1.99141 0.460667 0
M  V30 3109 C 294.268 1.06736 1.59597 0
M  V30 3110 O 295.469 1.38538 2.30349 0
M  V30 3111 C 293.74 3.45358 0.919939 0
M  V30 3112 S 295.299 4.09999 1.56354 0
M  V30 3113 H 292.117 0.695479 0.147748 0
M  V30 3114 H 294.719 1.93429 -0.283782 0
M  V30 3115 H 293.423 4.10315 0.0834208 0
M  V30 3116 H 292.954 3.54862 1.69814 0
M  V30 3117 H 294.969 4.06046 2.85203 0
M  V30 3118 N 294.142 -0.090211 1.57342 0
M  V30 3119 C 295.419 -0.824761 1.77361 0
M  V30 3120 C 295.799 -1.96698 0.76637 0
M  V30 3121 O 295.147 -2.27586 -0.204179 0
M  V30 3122 C 295.357 -1.31481 3.23286 0
M  V30 3123 C 296.705 -1.75563 3.86604 0
M  V30 3124 O 297.729 -1.41093 3.27065 0
M  V30 3125 O 296.588 -2.39317 4.91314 0
M  V30 3126 H 293.682 -0.393776 0.727234 0
M  V30 3127 H 296.228 -0.0717138 1.69548 0
M  V30 3128 H 295 -0.496671 3.88135 0
M  V30 3129 H 294.623 -2.12973 3.35751 0
M  V30 3130 N 295.62 -1.53406 -0.361157 0
M  V30 3131 C 296.869 -1.69022 -1.10066 0
M  V30 3132 C 297.182 -0.450838 -1.90333 0
M  V30 3133 O 298.388 -0.487617 -2.67085 0
M  V30 3134 C 296.844 -2.98812 -2.00598 0
M  V30 3135 C 296.452 -4.30027 -1.25621 0
M  V30 3136 C 298.196 -3.23795 -2.74513 0
M  V30 3137 C 296.103 -5.50903 -2.1508 0
M  V30 3138 H 295.033 -0.629776 -0.414606 0
M  V30 3139 H 297.684 -1.79907 -0.361348 0
M  V30 3140 H 296.066 -2.8174 -2.78278 0
M  V30 3141 H 297.24 -4.57745 -0.529739 0
M  V30 3142 H 295.555 -4.11522 -0.635496 0
M  V30 3143 H 298.152 -4.11289 -3.41681 0
M  V30 3144 H 298.495 -2.40045 -3.40123 0
M  V30 3145 H 299.028 -3.41561 -2.03914 0
M  V30 3146 H 295.767 -6.37143 -1.54041 0
M  V30 3147 H 295.287 -5.27459 -2.85565 0
M  V30 3148 H 296.966 -5.85865 -2.74538 0
M  V30 3149 N 297.098 0.621204 -1.44841 0
M  V30 3150 C 298.344 1.38073 -1.49357 0
M  V30 3151 C 298.699 1.91973 -0.128115 0
M  V30 3152 O 297.992 1.71311 0.858087 0
M  V30 3153 C 298.186 2.55675 -2.4973 0
M  V30 3154 C 298.015 2.13289 -3.95901 0
M  V30 3155 C 296.785 2.001 -4.63991 0
M  V30 3156 C 298.983 1.7159 -4.84831 0
M  V30 3157 N 296.965 1.51381 -5.94943 0
M  V30 3158 C 298.336 1.34188 -6.05304 0
M  V30 3159 C 300.391 1.59059 -4.7181 0
M  V30 3160 C 299.094 0.855085 -7.14199 0
M  V30 3161 C 301.12 1.11784 -5.8074 0
M  V30 3162 C 300.482 0.753385 -7.0036 0
M  V30 3163 H 296.581 0.499675 -0.601539 0
M  V30 3164 H 299.165 0.711609 -1.8123 0
M  V30 3165 H 297.336 3.20201 -2.19832 0
M  V30 3166 H 299.068 3.22509 -2.4448 0
M  V30 3167 H 295.823 2.20863 -4.18947 0
M  V30 3168 H 296.247 1.29293 -6.64539 0
M  V30 3169 H 300.889 1.85865 -3.79755 0
M  V30 3170 H 298.607 0.574552 -8.06055 0
M  V30 3171 H 302.193 1.02533 -5.72694 0
M  V30 3172 H 301.073 0.393183 -7.83214 0
M  V30 3173 N 298.576 1.31904 0.862503 0
M  V30 3174 C 299.539 1.20131 1.95195 0
M  V30 3175 C 300.539 0.126409 1.60302 0
M  V30 3176 O 301.729 0.376234 1.70089 0
M  V30 3177 C 298.861 0.845691 3.30244 0
M  V30 3178 H 300.054 2.16943 2.07064 0
M  V30 3179 H 297.607 1.15622 1.05172 0
M  V30 3180 H 298.342 -0.120957 3.24074 0
M  V30 3181 H 298.127 1.62276 3.56944 0
M  V30 3182 H 299.617 0.787418 4.10109 0
M  V30 3183 N 300.054 -1.07777 1.14986 0
M  V30 3184 C 301.3 -1.80557 0.923422 0
M  V30 3185 C 301.633 -1.86298 -0.548337 0
M  V30 3186 O 300.908 -1.34354 -1.40639 0
M  V30 3187 C 301.191 -3.25839 1.53299 0
M  V30 3188 C 301.044 -3.28269 3.07505 0
M  V30 3189 C 302.363 -4.22991 1.21518 0
M  V30 3190 H 299.482 -0.655493 0.336894 0
M  V30 3191 H 302.124 -1.26144 1.42083 0
M  V30 3192 H 300.274 -3.72306 1.10999 0
M  V30 3193 H 301.946 -2.90079 3.58681 0
M  V30 3194 H 300.189 -2.67355 3.4162 0
M  V30 3195 H 300.86 -4.30691 3.45266 0
M  V30 3196 H 303.336 -3.84894 1.581 0
M  V30 3197 H 302.212 -5.22945 1.66793 0
M  V30 3198 H 302.473 -4.41904 0.131505 0
M  V30 3199 N 301.532 -0.945985 -1.26051 0
M  V30 3200 C 302.78 -0.594941 -1.93145 0
M  V30 3201 C 303.101 0.86953 -1.7454 0
M  V30 3202 O 302.371 1.61838 -1.10387 0
M  V30 3203 H 300.951 -0.217044 -0.714773 0
M  V30 3204 H 303.613 -1.20235 -1.53393 0
M  V30 3205 H 302.709 -0.816835 -3.01221 0
M  V30 3206 N 303.011 1.40521 -0.713556 0
M  V30 3207 C 304.26 2.00155 -0.249192 0
M  V30 3208 C 304.573 1.57224 1.16362 0
M  V30 3209 O 305.779 2.09542 1.72639 0
M  V30 3210 C 304.235 3.5773 -0.3946 0
M  V30 3211 C 303.843 4.09635 -1.81392 0
M  V30 3212 C 305.587 4.24499 0.00907364 0
M  V30 3213 C 303.494 5.59707 -1.91003 0
M  V30 3214 H 302.424 0.74868 -0.0894114 0
M  V30 3215 H 305.075 1.60784 -0.884352 0
M  V30 3216 H 303.457 3.94792 0.30911 0
M  V30 3217 H 304.631 3.83955 -2.54785 0
M  V30 3218 H 302.946 3.55456 -2.16888 0
M  V30 3219 H 305.543 5.34683 -0.0420404 0
M  V30 3220 H 305.886 4.02824 1.05065 0
M  V30 3221 H 306.419 3.92536 -0.645007 0
M  V30 3222 H 303.158 5.86234 -2.93275 0
M  V30 3223 H 302.678 5.87258 -1.22019 0
M  V30 3224 H 304.357 6.24776 -1.6812 0
M  V30 3225 N 304.489 0.459591 1.5075 0
M  V30 3226 C 305.717 -0.0973749 2.06671 0
M  V30 3227 C 306.132 -1.34524 1.32472 0
M  V30 3228 O 305.489 -1.7827 0.390634 0
M  V30 3229 C 305.54 -0.39714 3.59312 0
M  V30 3230 O 305.261 0.801214 4.30711 0
M  V30 3231 C 306.762 -1.00234 4.31819 0
M  V30 3232 H 303.982 0.00195854 0.670997 0
M  V30 3233 H 306.526 0.645072 1.94059 0
M  V30 3234 H 304.681 -1.08951 3.71764 0
M  V30 3235 H 305.095 0.538857 5.21725 0
M  V30 3236 H 306.569 -1.16193 5.39632 0
M  V30 3237 H 307.046 -1.98939 3.91561 0
M  V30 3238 H 307.652 -0.348699 4.23868 0
M  V30 3239 N 305.967 -1.56429 0.191757 0
M  V30 3240 C 306.93 -2.17707 -0.716688 0
M  V30 3241 C 307.93 -1.13061 -1.14341 0
M  V30 3242 O 309.12 -1.38464 -1.05704 0
M  V30 3243 C 306.252 -2.77644 -1.97804 0
M  V30 3244 H 307.445 -2.99342 -0.1829 0
M  V30 3245 H 304.998 -1.56193 -0.0578566 0
M  V30 3246 H 305.733 -1.99799 -2.55443 0
M  V30 3247 H 305.518 -3.54246 -1.68083 0
M  V30 3248 H 307.008 -3.24708 -2.62592 0
M  V30 3249 N 307.445 0.0818655 -1.57387 0
M  V30 3250 C 308.694 0.781681 -1.85937 0
M  V30 3251 C 309.007 1.79246 -0.782957 0
M  V30 3252 O 310.213 2.54112 -0.955987 0
M  V30 3253 C 308.669 1.44109 -3.29789 0
M  V30 3254 C 308.277 0.469396 -4.45534 0
M  V30 3255 C 310.021 2.12386 -3.67549 0
M  V30 3256 C 307.928 1.13415 -5.80423 0
M  V30 3257 H 306.858 0.295682 -0.693605 0
M  V30 3258 H 309.509 0.0348051 -1.83467 0
M  V30 3259 H 307.891 2.23588 -3.2684 0
M  V30 3260 H 309.065 -0.294856 -4.59856 0
M  V30 3261 H 307.38 -0.108383 -4.16259 0
M  V30 3262 H 309.977 2.62878 -4.65617 0
M  V30 3263 H 310.32 2.91877 -2.96839 0
M  V30 3264 H 310.853 1.39751 -3.72444 0
M  V30 3265 H 307.592 0.379771 -6.54399 0
M  V30 3266 H 307.112 1.8695 -5.69921 0
M  V30 3267 H 308.791 1.65686 -6.25426 0
M  V30 3268 N 308.923 1.53595 0.353017 0
M  V30 3269 C 309.833 1.83897 1.45667 0
M  V30 3270 C 310.849 0.728334 1.58023 0
M  V30 3271 O 312.025 1.01968 1.73679 0
M  V30 3272 C 309.09 2.03383 2.80778 0
M  V30 3273 C 308.151 3.27262 2.77845 0
M  V30 3274 C 307.384 3.45809 4.06512 0
M  V30 3275 O 307.607 2.68387 5.03314 0
M  V30 3276 O 306.541 4.39207 4.11559 0
M  V30 3277 H 310.367 2.77686 1.2298 0
M  V30 3278 H 307.952 1.39132 0.544308 0
M  V30 3279 H 309.834 2.17698 3.60812 0
M  V30 3280 H 308.509 1.12783 3.03417 0
M  V30 3281 H 307.416 3.18359 1.96465 0
M  V30 3282 H 308.749 4.17824 2.60161 0
M  V30 3283 N 310.401 -0.613514 1.45168 0
M  V30 3284 C 311.331 -1.7354 1.56225 0
M  V30 3285 C 312.312 -1.64981 0.41414 0
M  V30 3286 O 313.497 -1.83472 0.636526 0
M  V30 3287 C 310.627 -3.12128 1.52295 0
M  V30 3288 C 309.581 -3.35491 2.65762 0
M  V30 3289 C 308.907 -4.74291 2.46885 0
M  V30 3290 C 310.207 -3.26325 4.0781 0
M  V30 3291 H 311.901 -1.64543 2.50132 0
M  V30 3292 H 309.447 -0.790185 1.20383 0
M  V30 3293 H 311.4 -3.90404 1.58628 0
M  V30 3294 H 310.124 -3.2195 0.549139 0
M  V30 3295 H 308.783 -2.59603 2.58847 0
M  V30 3296 H 308.431 -4.80839 1.47657 0
M  V30 3297 H 308.131 -4.9088 3.22972 0
M  V30 3298 H 309.655 -5.54775 2.55063 0
M  V30 3299 H 311.069 -3.94483 4.16 0
M  V30 3300 H 309.466 -3.54445 4.8424 0
M  V30 3301 H 310.536 -2.23855 4.30136 0
M  V30 3302 N 311.879 -1.3236 -0.855495 0
M  V30 3303 C 313.127 -1.22629 -1.60644 0
M  V30 3304 C 313.448 0.212136 -1.93843 0
M  V30 3305 O 312.718 1.13666 -1.59552 0
M  V30 3306 H 311.298 -0.450882 -0.595579 0
M  V30 3307 H 313.96 -1.65871 -1.02337 0
M  V30 3308 H 313.056 -1.80832 -2.54374 0
M  V30 3309 N 313.357 1.07166 -1.15556 0
M  V30 3310 C 314.267 2.17947 -0.868116 0
M  V30 3311 C 315.283 1.73297 0.156297 0
M  V30 3312 O 316.459 2.01392 -0.0182327 0
M  V30 3313 C 313.524 3.44789 -0.36355 0
M  V30 3314 C 312.585 4.03996 -1.45209 0
M  V30 3315 C 311.818 5.24783 -0.971508 0
M  V30 3316 O 312.041 5.70109 0.182194 0
M  V30 3317 O 310.975 5.75715 -1.75603 0
M  V30 3318 H 314.801 2.4503 -1.79427 0
M  V30 3319 H 312.386 1.16539 -0.934824 0
M  V30 3320 H 314.268 4.21307 -0.0887113 0
M  V30 3321 H 312.943 3.19253 0.534708 0
M  V30 3322 H 311.85 3.29009 -1.78056 0
M  V30 3323 H 313.183 4.33808 -2.32533 0
M  V30 3324 N 314.835 0.952656 1.25548 0
M  V30 3325 C 315.765 0.489287 2.28316 0
M  V30 3326 C 316.746 -0.463359 1.63667 0
M  V30 3327 O 317.931 -0.36274 1.90782 0
M  V30 3328 C 315.061 -0.235603 3.465 0
M  V30 3329 C 314.015 0.631593 4.23314 0
M  V30 3330 C 313.341 -0.223923 5.34231 0
M  V30 3331 C 314.641 1.90871 4.86174 0
M  V30 3332 H 316.335 1.34822 2.67326 0
M  V30 3333 H 313.881 0.649728 1.28509 0
M  V30 3334 H 315.834 -0.570882 4.17515 0
M  V30 3335 H 314.558 -1.12877 3.06474 0
M  V30 3336 H 313.217 0.949929 3.54079 0
M  V30 3337 H 312.865 -1.11678 4.90446 0
M  V30 3338 H 312.565 0.35299 5.86539 0
M  V30 3339 H 314.089 -0.554214 6.0808 0
M  V30 3340 H 315.503 1.63997 5.49343 0
M  V30 3341 H 313.9 2.43112 5.4865 0
M  V30 3342 H 314.97 2.61304 4.08471 0
M  V30 3343 N 316.313 -1.40141 0.720998 0
M  V30 3344 C 317.245 -2.29177 0.0324669 0
M  V30 3345 C 318.258 -1.46105 -0.718126 0
M  V30 3346 O 319.447 -1.69335 -0.564608 0
M  V30 3347 C 316.547 -3.24473 -0.978292 0
M  V30 3348 C 315.72 -4.36423 -0.292115 0
M  V30 3349 C 314.779 -5.12122 -1.20901 0
M  V30 3350 O 313.805 -5.64981 -0.691766 0
M  V30 3351 N 315.007 -5.21992 -2.53978 0
M  V30 3352 H 317.772 -2.88909 0.796984 0
M  V30 3353 H 315.333 -1.51569 0.569068 0
M  V30 3354 H 317.325 -3.71987 -1.59398 0
M  V30 3355 H 315.895 -2.65871 -1.64413 0
M  V30 3356 H 315.115 -3.90967 0.503847 0
M  V30 3357 H 316.403 -5.08467 0.183971 0
M  V30 3358 H 315.801 -4.8054 -2.98493 0
M  V30 3359 H 314.358 -5.72995 -3.10677 0
M  V30 3360 N 317.792 -0.46758 -1.50504 0
M  V30 3361 C 319.203 -0.0116166 -1.86696 0
M  V30 3362 C 319.554 1.39202 -1.38265 0
M  V30 3363 O 318.679 2.0313 -0.746132 0
M  V30 3364 C 319.274 -0.0143044 -3.38797 0
M  V30 3365 C 317.833 0.386175 -3.74414 0
M  V30 3366 C 316.98 -0.401287 -2.74381 0
M  V30 3367 H 319.931 -0.682022 -1.43297 0
M  V30 3368 H 319.952 0.788641 -3.72237 0
M  V30 3369 H 319.464 -1.03602 -3.74016 0
M  V30 3370 H 317.565 1.41237 -3.44794 0
M  V30 3371 H 317.678 0.0899596 -4.79016 0
M  V30 3372 H 316.042 0.144536 -2.5429 0
M  V30 3373 H 316.825 -1.42244 -3.12444 0
M  V30 3374 N 319.27 1.56325 -0.20005 0
M  V30 3375 C 320.681 1.8408 0.31167 0
M  V30 3376 C 321.032 1.12087 1.61031 0
M  V30 3377 O 320.157 0.38332 2.12978 0
M  V30 3378 C 320.752 3.33932 0.57226 0
M  V30 3379 C 319.311 3.6208 1.02834 0
M  V30 3380 C 318.458 2.77186 0.079634 0
M  V30 3381 H 321.409 1.52939 -0.423729 0
M  V30 3382 H 321.43 3.52971 1.42096 0
M  V30 3383 H 320.942 3.86303 -0.37308 0
M  V30 3384 H 319.043 3.15147 1.98778 0
M  V30 3385 H 319.156 4.7023 0.917624 0
M  V30 3386 H 317.52 2.47951 0.582448 0
M  V30 3387 H 318.303 3.32347 -0.860238 0
M  V30 3388 N 320.748 -0.0735177 1.57428 0
M  V30 3389 C 321.681 -1.11932 1.98863 0
M  V30 3390 C 322.659 -1.37666 0.865266 0
M  V30 3391 O 323.843 -1.51068 1.12742 0
M  V30 3392 C 320.97 -2.46403 2.32386 0
M  V30 3393 C 320.016 -2.36815 3.54713 0
M  V30 3394 S 320.849 -1.76392 5.05614 0
M  V30 3395 C 322.005 -3.12444 5.42337 0
M  V30 3396 H 322.238 -0.766212 2.87257 0
M  V30 3397 H 319.771 -0.281987 1.51803 0
M  V30 3398 H 321.729 -3.23755 2.52375 0
M  V30 3399 H 320.39 -2.78876 1.44524 0
M  V30 3400 H 319.583 -3.35977 3.7568 0
M  V30 3401 H 319.185 -1.67598 3.34345 0
M  V30 3402 H 321.477 -4.08753 5.40303 0
M  V30 3403 H 322.42 -2.96258 6.43146 0
M  V30 3404 H 322.828 -3.1297 4.69798 0
M  V30 3405 N 322.226 -1.5378 -0.344866 0
M  V30 3406 C 323.473 -1.70963 -1.08526 0
M  V30 3407 C 323.801 -0.472126 -1.88683 0
M  V30 3408 O 323.056 0.546116 -1.87926 0
M  V30 3409 C 323.355 -2.92407 -2.05506 0
M  V30 3410 C 323.021 -4.28066 -1.41671 0
M  V30 3411 C 321.683 -4.64951 -1.2399 0
M  V30 3412 C 324.035 -5.12344 -0.956726 0
M  V30 3413 C 321.363 -5.83733 -0.589277 0
M  V30 3414 C 323.715 -6.3179 -0.320015 0
M  V30 3415 C 322.379 -6.67372 -0.130881 0
M  V30 3416 H 321.649 -0.625598 -0.397124 0
M  V30 3417 H 324.296 -1.87995 -0.36469 0
M  V30 3418 H 322.601 -2.69973 -2.8394 0
M  V30 3419 H 324.298 -3.02895 -2.62784 0
M  V30 3420 H 320.888 -3.99034 -1.56429 0
M  V30 3421 H 325.072 -4.8438 -1.08118 0
M  V30 3422 H 320.328 -6.09877 -0.431344 0
M  V30 3423 H 324.502 -6.96386 0.0445072 0
M  V30 3424 H 322.129 -7.59273 0.375318 0
M  V30 3425 N 323.704 0.605807 -1.45491 0
M  V30 3426 C 324.981 1.36522 -1.40075 0
M  V30 3427 C 325.361 2.10976 -0.0722744 0
M  V30 3428 O 324.709 2.08007 0.945808 0
M  V30 3429 C 324.919 2.31056 -2.61561 0
M  V30 3430 C 326.267 2.93608 -3.06724 0
M  V30 3431 O 327.291 2.41376 -2.61946 0
M  V30 3432 O 326.15 3.88421 -3.84437 0
M  V30 3433 H 323.244 0.612248 -0.555951 0
M  V30 3434 H 325.79 0.628747 -1.57623 0
M  V30 3435 H 324.562 1.75311 -3.49831 0
M  V30 3436 H 324.185 3.12081 -2.46356 0
M  V30 3437 N 325.182 1.32811 0.848464 0
M  V30 3438 C 326.112 1.24882 1.97299 0
M  V30 3439 C 327.093 0.131357 1.69592 0
M  V30 3440 O 328.278 0.319553 1.91553 0
M  V30 3441 C 325.408 0.97746 3.33261 0
M  V30 3442 C 324.362 2.05682 3.75338 0
M  V30 3443 C 323.688 1.63777 5.09 0
M  V30 3444 C 324.988 3.47254 3.90144 0
M  V30 3445 H 326.682 2.18966 2.04191 0
M  V30 3446 H 324.228 1.05413 0.981029 0
M  V30 3447 H 326.181 0.908513 4.1149 0
M  V30 3448 H 324.905 0.000980011 3.266 0
M  V30 3449 H 323.564 2.11603 2.99366 0
M  V30 3450 H 323.212 0.648569 4.98801 0
M  V30 3451 H 322.912 2.36 5.38124 0
M  V30 3452 H 324.436 1.5833 5.89715 0
M  V30 3453 H 325.85 3.43888 4.58709 0
M  V30 3454 H 324.247 4.1788 4.30693 0
M  V30 3455 H 325.317 3.86462 2.92874 0
M  V30 3456 N 326.66 -1.06551 1.16123 0
M  V30 3457 C 327.61 -2.12209 0.833736 0
M  V30 3458 C 328.594 -1.59825 -0.185656 0
M  V30 3459 O 329.786 -1.76994 0.0147906 0
M  V30 3460 C 326.915 -3.41674 0.333697 0
M  V30 3461 C 326.001 -4.00892 1.38372 0
M  V30 3462 N 326.392 -4.34256 2.59337 0
M  V30 3463 C 324.69 -4.28463 1.23836 0
M  V30 3464 C 325.391 -4.81291 3.26701 0
M  V30 3465 N 324.367 -4.80565 2.54083 0
M  V30 3466 H 328.169 -2.35849 1.75364 0
M  V30 3467 H 325.683 -1.24068 1.04789 0
M  V30 3468 H 327.68 -4.16822 0.0806918 0
M  V30 3469 H 326.34 -3.19475 -0.58017 0
M  V30 3470 H 327.351 -4.24687 2.96415 0
M  V30 3471 H 324.028 -4.15721 0.38504 0
M  V30 3472 H 325.418 -5.16332 4.29943 0
M  V30 3473 N 328.138 -0.959301 -1.25041 0
M  V30 3474 C 329.549 -0.65667 -1.74771 0
M  V30 3475 C 329.9 0.827852 -1.77879 0
M  V30 3476 O 329.025 1.64783 -1.40269 0
M  V30 3477 C 329.62 -1.1853 -3.1739 0
M  V30 3478 C 328.179 -0.932734 -3.6466 0
M  V30 3479 C 327.326 -1.32558 -2.43564 0
M  V30 3480 H 330.277 -1.13558 -1.10862 0
M  V30 3481 H 330.298 -0.547582 -3.76539 0
M  V30 3482 H 329.81 -2.26576 -3.15095 0
M  V30 3483 H 327.911 0.13257 -3.72364 0
M  V30 3484 H 328.024 -1.57248 -4.52559 0
M  V30 3485 H 326.388 -0.743956 -2.43593 0
M  V30 3486 H 327.171 -2.41537 -2.43957 0
M  V30 3487 N 329.616 1.39756 -0.72842 0
M  V30 3488 C 330.549 2.28176 -0.0330172 0
M  V30 3489 C 331.527 1.44035 0.754501 0
M  V30 3490 O 332.711 1.73434 0.738445 0
M  V30 3491 C 329.838 3.24795 0.960504 0
M  V30 3492 C 328.884 4.25693 0.262264 0
M  V30 3493 S 329.717 5.25714 -1.01906 0
M  V30 3494 C 330.873 6.25894 -0.0279717 0
M  V30 3495 H 331.106 2.86807 -0.78287 0
M  V30 3496 H 328.639 1.45382 -0.519951 0
M  V30 3497 H 330.597 3.80983 1.52846 0
M  V30 3498 H 329.258 2.65196 1.68315 0
M  V30 3499 H 328.451 4.93699 1.01379 0
M  V30 3500 H 328.053 3.7327 -0.233482 0
M  V30 3501 H 330.345 6.72585 0.814621 0
M  V30 3502 H 331.288 7.04876 -0.67499 0
M  V30 3503 H 331.696 5.63466 0.341489 0
M  V30 3504 N 331.094 0.475555 1.50254 0
M  V30 3505 C 332.51 0.12997 1.5907 0
M  V30 3506 C 332.71 -1.36385 1.48328 0
M  V30 3507 O 331.766 -2.13754 1.34407 0
M  V30 3508 C 333.079 0.684139 2.92814 0
M  V30 3509 C 334.627 0.647965 3.0622 0
M  V30 3510 C 335.102 1.17975 4.42545 0
M  V30 3511 N 336.593 1.13936 4.48969 0
M  V30 3512 C 337.328 1.52129 5.52851 0
M  V30 3513 N 336.824 1.97793 6.63965 0
M  V30 3514 N 338.617 1.43704 5.4342 0
M  V30 3515 H 330.768 1.44706 1.55479 0
M  V30 3516 H 333.031 0.598691 0.735033 0
M  V30 3517 H 332.737 1.73079 3.06164 0
M  V30 3518 H 332.611 0.130204 3.76975 0
M  V30 3519 H 334.998 -0.38979 2.92514 0
M  V30 3520 H 335.079 1.23876 2.23805 0
M  V30 3521 H 334.723 2.21616 4.57 0
M  V30 3522 H 334.653 0.565138 5.23559 0
M  V30 3523 H 337.144 0.804488 3.69238 0
M  V30 3524 H 337.457 2.25072 7.39299 0
M  V30 3525 H 335.802 2.01749 6.65073 0
M  V30 3526 H 338.993 1.07867 4.55502 0
M  V30 3527 H 339.166 1.73794 6.24259 0
M  V30 3528 N 332.573 -1.56217 0.208337 0
M  V30 3529 C 333.536 -2.18455 -0.693557 0
M  V30 3530 C 334.536 -1.14268 -1.13135 0
M  V30 3531 O 335.726 -1.39577 -1.0423 0
M  V30 3532 C 332.858 -2.79727 -1.94848 0
M  V30 3533 H 334.051 -2.99519 -0.15114 0
M  V30 3534 H 331.604 -1.56245 -0.041287 0
M  V30 3535 H 332.339 -2.02497 -2.53309 0
M  V30 3536 H 332.124 -3.56009 -1.64316 0
M  V30 3537 H 333.614 -3.27475 -2.59133 0
M  V30 3538 N 334.051 0.0651679 -1.57465 0
M  V30 3539 C 334.981 1.07693 -2.07182 0
M  V30 3540 C 335.962 1.39962 -0.966673 0
M  V30 3541 O 337.147 1.49475 -1.2398 0
M  V30 3542 C 334.277 2.3885 -2.52127 0
M  V30 3543 C 333.231 2.20917 -3.66579 0
M  V30 3544 C 332.557 3.57515 -3.97601 0
M  V30 3545 C 333.857 1.62493 -4.9638 0
M  V30 3546 H 335.551 0.663199 -2.91962 0
M  V30 3547 H 333.097 0.317569 -1.40455 0
M  V30 3548 H 335.05 3.09928 -2.85522 0
M  V30 3549 H 333.774 2.82215 -1.64384 0
M  V30 3550 H 332.433 1.52279 -3.33477 0
M  V30 3551 H 332.081 3.98463 -3.06979 0
M  V30 3552 H 331.781 3.46353 -4.74672 0
M  V30 3553 H 333.305 4.30013 -4.33499 0
M  V30 3554 H 334.719 2.23445 -5.27963 0
M  V30 3555 H 333.116 1.62009 -5.77818 0
M  V30 3556 H 334.186 0.587041 -4.81333 0
M  V30 3557 N 335.529 1.53961 0.336706 0
M  V30 3558 C 336.776 1.71536 1.07618 0
M  V30 3559 C 337.104 0.482125 1.8843 0
M  V30 3560 O 336.359 -0.536142 1.88213 0
M  V30 3561 C 336.658 2.93493 2.03953 0
M  V30 3562 C 336.324 4.28811 1.39399 0
M  V30 3563 C 334.986 4.65602 1.21523 0
M  V30 3564 C 337.338 5.12844 0.929541 0
M  V30 3565 C 334.666 5.84037 0.558312 0
M  V30 3566 C 337.018 6.31951 0.286505 0
M  V30 3567 C 335.682 6.67432 0.0954869 0
M  V30 3568 H 334.952 0.627696 0.393801 0
M  V30 3569 H 337.599 1.88186 0.354715 0
M  V30 3570 H 335.904 2.71475 2.82504 0
M  V30 3571 H 337.601 3.04285 2.61174 0
M  V30 3572 H 334.191 3.99858 1.54311 0
M  V30 3573 H 338.375 4.84947 1.05548 0
M  V30 3574 H 333.631 6.10097 0.398995 0
M  V30 3575 H 337.805 6.96352 -0.0814376 0
M  V30 3576 H 335.432 7.59063 -0.415579 0
M  V30 3577 N 337.007 -0.598083 1.45811 0
M  V30 3578 C 337.937 -1.71873 1.58057 0
M  V30 3579 C 338.918 -1.64533 0.431615 0
M  V30 3580 O 340.103 -1.82787 0.65595 0
M  V30 3581 C 337.233 -3.10495 1.55597 0
M  V30 3582 C 336.187 -3.32654 2.69305 0
M  V30 3583 C 335.513 -4.71646 2.51902 0
M  V30 3584 C 336.813 -3.21981 4.11248 0
M  V30 3585 H 338.507 -1.61881 2.51863 0
M  V30 3586 H 336.053 -0.777372 1.21214 0
M  V30 3587 H 338.006 -3.88699 1.6276 0
M  V30 3588 H 336.73 -3.2135 0.583255 0
M  V30 3589 H 335.389 -2.56843 2.61586 0
M  V30 3590 H 335.037 -4.79246 1.52748 0
M  V30 3591 H 334.737 -4.87426 3.2816 0
M  V30 3592 H 336.261 -5.52038 2.60933 0
M  V30 3593 H 337.675 -3.90049 4.20161 0
M  V30 3594 H 336.072 -3.49289 4.87972 0
M  V30 3595 H 337.142 -2.1928 4.32486 0
M  V30 3596 N 338.485 -1.33259 -0.841409 0
M  V30 3597 C 339.418 -1.1764 -1.95541 0
M  V30 3598 C 340.396 -0.072501 -1.62438 0
M  V30 3599 O 341.58 -0.23427 -1.87039 0
M  V30 3600 C 338.707 -0.803794 -3.29024 0
M  V30 3601 C 337.753 -1.91482 -3.81099 0
M  V30 3602 S 338.586 -3.52538 -4.03085 0
M  V30 3603 C 339.742 -3.17279 -5.39523 0
M  V30 3604 H 339.975 -2.11941 -2.08491 0
M  V30 3605 H 337.508 -1.18072 -0.9949 0
M  V30 3606 H 339.466 -0.595592 -4.06156 0
M  V30 3607 H 338.127 0.120574 -3.13868 0
M  V30 3608 H 337.32 -1.60742 -4.7768 0
M  V30 3609 H 336.922 -2.07956 -3.10854 0
M  V30 3610 H 339.214 -2.67946 -6.22263 0
M  V30 3611 H 340.157 -4.1293 -5.75234 0
M  V30 3612 H 340.565 -2.53943 -5.04156 0
M  V30 3613 N 339.963 1.05934 -1.16686 0
M  V30 3614 C 341.188 1.83029 -0.975455 0
M  V30 3615 C 341.613 1.82096 0.471452 0
M  V30 3616 O 340.971 1.22443 1.33706 0
M  V30 3617 C 341.019 3.27372 -1.51195 0
M  V30 3618 O 340.123 4.06054 -0.720701 0
M  V30 3619 H 339.464 0.566194 -0.346872 0
M  V30 3620 H 341.994 1.33541 -1.55009 0
M  V30 3621 H 342.004 3.78186 -1.53099 0
M  V30 3622 H 340.679 3.27366 -2.56523 0
M  V30 3623 H 339.256 3.64812 -0.772458 0
M  V30 3624 N 341.441 0.965919 1.2453 0
M  V30 3625 C 342.388 0.49402 2.25451 0
M  V30 3626 C 343.358 -0.45948 1.59618 0
M  V30 3627 O 344.543 -0.370238 1.87173 0
M  V30 3628 C 341.683 -0.211359 3.44452 0
M  V30 3629 C 340.796 0.7807 4.24887 0
M  V30 3630 C 339.931 0.0516105 5.31175 0
M  V30 3631 C 338.97 1.03385 6.03306 0
M  V30 3632 N 338.107 0.334887 7.01301 0
M  V30 3633 H 342.947 1.35946 2.65184 0
M  V30 3634 H 340.484 0.681515 1.3036 0
M  V30 3635 H 342.442 -0.637 4.12308 0
M  V30 3636 H 341.072 -1.04077 3.05562 0
M  V30 3637 H 340.124 1.32479 3.56586 0
M  V30 3638 H 341.436 1.52978 4.74762 0
M  V30 3639 H 340.59 -0.432114 6.05159 0
M  V30 3640 H 339.329 -0.730179 4.82203 0
M  V30 3641 H 338.334 1.52847 5.28127 0
M  V30 3642 H 339.559 1.81606 6.54367 0
M  V30 3643 H 337.505 -0.427959 6.54603 0
M  V30 3644 H 337.422 1.02287 7.49048 0
M  V30 3645 H 338.69 -0.126928 7.79397 0
M  V30 3646 N 342.919 -1.39368 0.735821 0
M  V30 3647 C 344.144 -2.05319 0.293052 0
M  V30 3648 C 344.569 -1.55115 -1.064 0
M  V30 3649 O 343.927 -0.695261 -1.67439 0
M  V30 3650 C 343.975 -3.59305 0.305323 0
M  V30 3651 O 343.079 -4.06299 -0.706761 0
M  V30 3652 H 342.42 -0.650529 0.13307 0
M  V30 3653 H 344.95 -1.78386 1.00197 0
M  V30 3654 H 344.96 -4.07724 0.149997 0
M  V30 3655 H 343.635 -3.95207 1.29553 0
M  V30 3656 H 342.212 -3.69292 -0.517504 0
M  V30 3657 N 344.397 -0.483516 -1.5 0
M  V30 3658 C 345.345 0.318061 -2.30415 0
M  V30 3659 C 346.339 0.978988 -1.38247 0
M  V30 3660 O 347.545 0.908673 -1.55381 0
M  V30 3661 H 343.92 0.121419 -0.742133 0
M  V30 3662 H 345.891 -0.380403 -2.95965 0
M  V30 3663 C 344.64 1.38013 -3.19136 0
M  V30 3664 H 343.963 0.880952 -3.89973 0
M  V30 3665 H 345.403 1.91332 -3.78375 0
M  V30 3666 C 343.862 2.38884 -2.37563 0
M  V30 3667 O 344.392 3.44412 -2.06744 0
M  V30 3668 N 342.598 2.10912 -1.99911 0
M  V30 3669 H 342.145 1.25118 -2.25174 0
M  V30 3670 H 342.103 2.78635 -1.45636 0
M  V30 3671 N 345.875 1.56104 -0.216619 0
M  V30 3672 C 347.122 1.98172 0.416416 0
M  V30 3673 C 347.45 1.10413 1.60122 0
M  V30 3674 O 346.705 0.147967 1.9514 0
M  V30 3675 C 347.004 3.45923 0.898464 0
M  V30 3676 C 346.67 4.50559 -0.175288 0
M  V30 3677 C 345.332 4.78897 -0.470271 0
M  V30 3678 C 347.684 5.1334 -0.901728 0
M  V30 3679 C 345.012 5.67299 -1.4963 0
M  V30 3680 C 347.364 6.02853 -1.91705 0
M  V30 3681 C 346.028 6.29537 -2.21901 0
M  V30 3682 H 345.298 0.725164 0.152377 0
M  V30 3683 H 347.945 1.88839 -0.318103 0
M  V30 3684 H 346.25 3.52434 1.71165 0
M  V30 3685 H 347.947 3.75841 1.39803 0
M  V30 3686 H 344.537 4.28551 0.0647806 0
M  V30 3687 H 348.721 4.91521 -0.687072 0
M  V30 3688 H 343.977 5.86239 -1.73592 0
M  V30 3689 H 348.151 6.50552 -2.48505 0
M  V30 3690 H 345.778 6.97835 -3.01548 0
M  V30 3691 N 347.353 -0.0568162 1.57498 0
M  V30 3692 C 348.285 -1.09292 2.01464 0
M  V30 3693 C 349.298 -1.34112 0.922913 0
M  V30 3694 O 350.487 -1.32089 1.20062 0
M  V30 3695 C 347.587 -2.44068 2.35125 0
M  V30 3696 C 346.76 -2.38995 3.66333 0
M  V30 3697 C 345.819 -3.55997 3.87495 0
M  V30 3698 O 344.845 -3.36746 4.58901 0
M  V30 3699 N 346.047 -4.76888 3.30996 0
M  V30 3700 H 348.812 -0.718386 2.90963 0
M  V30 3701 H 346.373 -0.245235 1.60032 0
M  V30 3702 H 348.365 -3.21011 2.46443 0
M  V30 3703 H 346.935 -2.73468 1.5144 0
M  V30 3704 H 346.155 -1.47336 3.65631 0
M  V30 3705 H 347.443 -2.3272 4.52458 0
M  V30 3706 H 346.841 -4.95431 2.73065 0
M  V30 3707 H 345.398 -5.51291 3.47738 0
M  V30 3708 N 348.832 -1.54138 -0.328536 0
M  V30 3709 C 350.243 -1.63395 -0.903272 0
M  V30 3710 C 350.594 -0.524828 -1.8905 0
M  V30 3711 O 349.719 0.343068 -2.13663 0
M  V30 3712 C 350.314 -2.9618 -1.64507 0
M  V30 3713 C 348.873 -3.0765 -2.1686 0
M  V30 3714 C 348.02 -2.58933 -0.992416 0
M  V30 3715 H 350.971 -1.58344 -0.106253 0
M  V30 3716 H 350.992 -2.86061 -2.50897 0
M  V30 3717 H 350.504 -3.76884 -0.926302 0
M  V30 3718 H 348.605 -2.31611 -2.91868 0
M  V30 3719 H 348.718 -4.1337 -2.42202 0
M  V30 3720 H 347.082 -2.14706 -1.37016 0
M  V30 3721 H 347.865 -3.42089 -0.288041 0
M  V30 3722 N 350.31 0.590341 -1.46126 0
M  V30 3723 C 351.721 1.17243 -1.45296 0
M  V30 3724 C 352.072 1.95281 -0.189723 0
M  V30 3725 O 351.197 2.04502 0.707674 0
M  V30 3726 C 351.792 2.13284 -2.6324 0
M  V30 3727 C 350.351 2.66832 -2.65476 0
M  V30 3728 C 349.498 1.42557 -2.3785 0
M  V30 3729 H 352.449 0.378692 -1.54116 0
M  V30 3730 H 352.47 2.96619 -2.38323 0
M  V30 3731 H 351.982 1.56459 -3.55165 0
M  V30 3732 H 350.083 3.27548 -1.77603 0
M  V30 3733 H 350.196 3.10088 -3.65215 0
M  V30 3734 H 348.56 1.72107 -1.87753 0
M  V30 3735 H 349.343 0.875741 -3.31942 0
M  V30 3736 N 351.788 1.33704 0.83433 0
M  V30 3737 C 352.735 1.24335 1.94447 0
M  V30 3738 C 353.705 0.120991 1.65659 0
M  V30 3739 O 354.89 0.300035 1.88426 0
M  V30 3740 C 352.03 0.993124 3.30501 0
M  V30 3741 C 351.143 2.20217 3.71657 0
M  V30 3742 C 350.278 1.88572 4.96602 0
M  V30 3743 C 349.317 3.05683 5.30306 0
M  V30 3744 N 348.454 2.73997 6.46429 0
M  V30 3745 H 353.294 2.1928 2.01792 0
M  V30 3746 H 350.831 1.09035 0.987404 0
M  V30 3747 H 352.789 0.828467 4.08892 0
M  V30 3748 H 351.419 0.0803902 3.227 0
M  V30 3749 H 350.471 2.47642 2.88752 0
M  V30 3750 H 351.783 3.07752 3.92543 0
M  V30 3751 H 350.937 1.68776 5.82752 0
M  V30 3752 H 349.676 0.982799 4.77695 0
M  V30 3753 H 348.681 3.26088 4.42659 0
M  V30 3754 H 349.906 3.96737 5.51159 0
M  V30 3755 H 347.852 1.86268 6.28999 0
M  V30 3756 H 347.769 3.55064 6.67432 0
M  V30 3757 H 349.037 2.57679 7.35678 0
M  V30 3758 N 353.266 -1.05314 1.17247 0
M  V30 3759 C 354.196 -2.1498 0.911362 0
M  V30 3760 C 355.177 -1.69471 -0.146169 0
M  V30 3761 O 356.362 -1.942 0.003812 0
M  V30 3762 C 353.492 -3.4472 0.422528 0
M  V30 3763 C 352.446 -4.03789 1.4191 0
M  V30 3764 C 351.772 -5.28858 0.788274 0
M  V30 3765 C 353.072 -4.41418 2.7919 0
M  V30 3766 H 354.766 -2.3708 1.82848 0
M  V30 3767 H 352.312 -1.13938 0.880569 0
M  V30 3768 H 354.265 -4.20787 0.227289 0
M  V30 3769 H 352.989 -3.22269 -0.530123 0
M  V30 3770 H 351.648 -3.2979 1.60106 0
M  V30 3771 H 351.296 -5.02709 -0.171173 0
M  V30 3772 H 350.996 -5.69338 1.45353 0
M  V30 3773 H 352.52 -6.07612 0.603282 0
M  V30 3774 H 353.934 -5.08524 2.64719 0
M  V30 3775 H 352.331 -4.92913 3.42282 0
M  V30 3776 H 353.401 -3.51819 3.33693 0
M  V30 3777 N 354.744 -0.972509 -1.24016 0
M  V30 3778 C 355.691 -0.505969 -2.25186 0
M  V30 3779 C 356.661 0.451009 -1.5986 0
M  V30 3780 O 357.846 0.360307 -1.87367 0
M  V30 3781 C 354.986 0.193089 -3.44559 0
M  V30 3782 C 354.099 -0.803222 -4.24467 0
M  V30 3783 C 353.234 -0.0797793 -5.3114 0
M  V30 3784 C 352.273 -1.06583 -6.02749 0
M  V30 3785 N 351.41 -0.372074 -7.01113 0
M  V30 3786 H 356.25 -1.37351 -2.64459 0
M  V30 3787 H 353.787 -0.688419 -1.29997 0
M  V30 3788 H 355.745 0.615125 -4.1264 0
M  V30 3789 H 354.375 1.02455 -3.06109 0
M  V30 3790 H 353.427 -1.34368 -3.55878 0
M  V30 3791 H 354.739 -1.55494 -4.73944 0
M  V30 3792 H 353.893 0.400015 -6.0538 0
M  V30 3793 H 352.632 0.704597 -4.82583 0
M  V30 3794 H 351.637 -1.55645 -5.27309 0
M  V30 3795 H 352.862 -1.85074 -6.53395 0
M  V30 3796 H 350.808 0.393238 -6.5482 0
M  V30 3797 H 350.725 -1.06258 -7.48495 0
M  V30 3798 H 351.993 0.0855932 -7.79453 0
M  V30 3799 N 356.222 1.38976 -0.743202 0
M  V30 3800 C 357.499 1.94351 -0.220705 0
M  V30 3801 C 357.879 1.67935 1.2791 0
M  V30 3802 O 357.227 1.01211 2.04862 0
M  V30 3803 C 357.437 3.44426 -0.563171 0
M  V30 3804 C 358.785 4.2144 -0.517046 0
M  V30 3805 O 359.809 3.52661 -0.500846 0
M  V30 3806 O 358.668 5.44032 -0.518806 0
M  V30 3807 H 355.762 0.825879 -0.043047 0
M  V30 3808 H 358.308 1.48429 -0.822618 0
M  V30 3809 H 357.08 3.5712 -1.59941 0
M  V30 3810 H 356.703 3.97543 0.0672883 0
M  V30 3811 N 357.7 0.491464 1.49741 0
M  V30 3812 C 358.647 -0.292027 2.28945 0
M  V30 3813 C 359.617 -0.968973 1.34908 0
M  V30 3814 O 360.802 -0.97748 1.6386 0
M  V30 3815 C 357.942 -1.35617 3.17336 0
M  V30 3816 C 357.055 -0.691957 4.26422 0
M  V30 3817 C 356.19 -1.73572 5.02042 0
M  V30 3818 C 355.229 -1.05286 6.02977 0
M  V30 3819 N 354.366 -2.0404 6.71798 0
M  V30 3820 H 359.206 0.389654 2.95442 0
M  V30 3821 H 356.743 0.204003 1.45679 0
M  V30 3822 H 358.701 -1.98502 3.66951 0
M  V30 3823 H 357.331 -2.00674 2.52844 0
M  V30 3824 H 356.383 0.0499523 3.80367 0
M  V30 3825 H 357.695 -0.153946 4.98562 0
M  V30 3826 H 356.849 -2.43987 5.55478 0
M  V30 3827 H 355.588 -2.30757 4.29654 0
M  V30 3828 H 354.593 -0.334446 5.48782 0
M  V30 3829 H 355.818 -0.487636 6.77347 0
M  V30 3830 H 353.764 -2.60205 6.02187 0
M  V30 3831 H 353.681 -1.55279 7.39881 0
M  V30 3832 H 354.949 -2.73772 7.29842 0
M  V30 3833 N 359.178 -1.55987 0.224894 0
M  V30 3834 C 360.406 -2.02784 -0.410665 0
M  V30 3835 C 360.821 -1.10464 -1.53112 0
M  V30 3836 O 360.178 -0.114871 -1.82138 0
M  V30 3837 C 360.229 -3.49087 -0.939165 0
M  V30 3838 O 359.95 -4.37887 0.136614 0
M  V30 3839 C 361.451 -4.11543 -1.64763 0
M  V30 3840 H 358.671 -0.663484 -0.100148 0
M  V30 3841 H 361.215 -2.01614 0.342326 0
M  V30 3842 H 359.37 -3.50861 -1.64242 0
M  V30 3843 H 359.784 -5.23849 -0.261155 0
M  V30 3844 H 361.258 -5.15673 -1.96939 0
M  V30 3845 H 361.735 -3.56736 -2.56195 0
M  V30 3846 H 362.341 -4.13629 -0.989503 0
M  V30 3847 N 360.656 0.0484629 -1.57525 0
M  V30 3848 C 361.603 1.05504 -2.05275 0
M  V30 3849 C 362.573 1.37084 -0.937927 0
M  V30 3850 O 363.758 1.47754 -1.2072 0
M  V30 3851 C 360.898 2.35676 -2.52093 0
M  V30 3852 C 360.011 2.10423 -3.77288 0
M  V30 3853 C 359.146 3.34327 -4.12794 0
M  V30 3854 C 358.185 3.04542 -5.30962 0
M  V30 3855 N 357.322 4.20841 -5.61994 0
M  V30 3856 H 362.162 0.640885 -2.91027 0
M  V30 3857 H 359.699 0.304854 -1.43906 0
M  V30 3858 H 361.657 3.11709 -2.77297 0
M  V30 3859 H 360.287 2.7485 -1.69285 0
M  V30 3860 H 359.339 1.24976 -3.59284 0
M  V30 3861 H 360.651 1.84438 -4.63448 0
M  V30 3862 H 359.805 4.1874 -4.39024 0
M  V30 3863 H 358.544 3.63408 -3.25247 0
M  V30 3864 H 357.549 2.18528 -5.04505 0
M  V30 3865 H 358.774 2.76758 -6.20146 0
M  V30 3866 H 356.72 4.4991 -4.77406 0
M  V30 3867 H 356.637 3.98212 -6.42622 0
M  V30 3868 H 357.905 5.06184 -5.92789 0
M  V30 3869 N 362.134 1.5431 0.320358 0
M  V30 3870 C 363.38 1.73859 1.05568 0
M  V30 3871 C 363.735 0.507807 1.85578 0
M  V30 3872 O 363.028 -0.499789 1.84967 0
M  V30 3873 C 363.222 2.95639 2.00828 0
M  V30 3874 C 363.051 4.30444 1.30186 0
M  V30 3875 C 361.821 4.94544 1.03703 0
M  V30 3876 C 364.019 5.0929 0.716138 0
M  V30 3877 N 362.001 6.13172 0.298846 0
M  V30 3878 C 363.372 6.19903 0.109729 0
M  V30 3879 C 365.427 4.94034 0.619269 0
M  V30 3880 C 364.13 7.16924 -0.584153 0
M  V30 3881 C 366.156 5.91369 -0.0609184 0
M  V30 3882 C 365.518 7.01336 -0.656258 0
M  V30 3883 H 361.617 0.688988 0.36989 0
M  V30 3884 H 364.201 1.9177 0.336494 0
M  V30 3885 H 362.372 2.79188 2.70016 0
M  V30 3886 H 364.104 3.03802 2.6737 0
M  V30 3887 H 360.859 4.54536 1.33019 0
M  V30 3888 H 361.283 6.76977 -0.0561964 0
M  V30 3889 H 365.925 4.0916 1.06526 0
M  V30 3890 H 363.643 8.01354 -1.04197 0
M  V30 3891 H 367.229 5.81642 -0.135552 0
M  V30 3892 H 366.109 7.75359 -1.17423 0
M  V30 3893 N 363.613 -0.582584 1.46437 0
M  V30 3894 C 364.838 -1.37168 1.55563 0
M  V30 3895 C 365.263 -1.87061 0.19743 0
M  V30 3896 O 364.621 -1.61572 -0.822451 0
M  V30 3897 C 364.669 -2.53511 2.56446 0
M  V30 3898 O 363.773 -3.54953 2.09958 0
M  V30 3899 H 363.114 -0.408494 0.523477 0
M  V30 3900 H 365.644 -0.706646 1.9201 0
M  V30 3901 H 365.654 -3.00426 2.76058 0
M  V30 3902 H 364.329 -2.16549 3.55076 0
M  V30 3903 H 362.906 -3.14516 2.00334 0
M  V30 3904 N 365.091 -1.34144 -0.827227 0
M  V30 3905 C 366.316 -1.29476 -1.62021 0
M  V30 3906 C 366.741 0.129292 -1.87655 0
M  V30 3907 O 366.099 1.08967 -1.449 0
M  V30 3908 C 366.147 -2.08702 -2.94068 0
M  V30 3909 O 365.251 -1.45359 -3.85933 0
M  V30 3910 H 364.592 -0.444881 -0.492927 0
M  V30 3911 H 367.122 -1.76882 -1.02829 0
M  V30 3912 H 367.132 -2.19898 -3.43669 0
M  V30 3913 H 365.807 -3.12241 -2.74734 0
M  V30 3914 H 364.384 -1.42879 -3.44442 0
M  V30 3915 N 366.569 1.04691 -1.17803 0
M  V30 3916 C 367.797 1.81446 -0.99423 0
M  V30 3917 C 368.212 1.83174 0.457459 0
M  V30 3918 O 367.569 1.26265 1.31771 0
M  V30 3919 C 367.62 3.27334 -1.5341 0
M  V30 3920 O 367.341 3.25798 -2.92895 0
M  V30 3921 C 368.842 4.20759 -1.39559 0
M  V30 3922 H 366.062 0.571599 -0.351447 0
M  V30 3923 H 368.606 1.31982 -1.56208 0
M  V30 3924 H 366.761 3.74052 -1.00815 0
M  V30 3925 H 367.175 4.17144 -3.17949 0
M  V30 3926 H 368.649 5.21084 -1.82141 0
M  V30 3927 H 369.126 4.37856 -0.343394 0
M  V30 3928 H 369.732 3.79901 -1.91195 0
M  V30 3929 N 368.047 0.979072 1.23499 0
M  V30 3930 C 369.294 0.647219 1.91878 0
M  V30 3931 C 369.622 -0.819074 1.76413 0
M  V30 3932 O 368.877 -1.60616 1.11808 0
M  V30 3933 C 369.176 0.981932 3.43646 0
M  V30 3934 C 368.842 2.43822 3.79291 0
M  V30 3935 C 367.504 2.83622 3.88731 0
M  V30 3936 C 369.856 3.3828 3.96505 0
M  V30 3937 C 367.184 4.16897 4.12812 0
M  V30 3938 C 369.536 4.71197 4.22085 0
M  V30 3939 C 368.2 5.10758 4.29747 0
M  V30 3940 H 367.47 0.236834 0.702133 0
M  V30 3941 H 370.117 1.23268 1.46551 0
M  V30 3942 H 368.422 0.314365 3.90537 0
M  V30 3943 H 370.119 0.703395 3.94783 0
M  V30 3944 H 366.709 2.11966 3.72516 0
M  V30 3945 H 370.893 3.0871 3.88603 0
M  V30 3946 H 366.149 4.47157 4.16966 0
M  V30 3947 H 370.323 5.44348 4.34348 0
M  V30 3948 H 367.95 6.1405 4.48159 0
M  V30 3949 N 369.525 -1.3858 0.750561 0
M  V30 3950 C 370.475 -2.27795 0.0965949 0
M  V30 3951 C 371.459 -1.45048 -0.696411 0
M  V30 3952 O 372.651 -1.67812 -0.562863 0
M  V30 3953 C 369.78 -3.33894 -0.798085 0
M  V30 3954 C 368.866 -4.241 0.0016067 0
M  V30 3955 N 369.257 -4.95067 1.03647 0
M  V30 3956 C 367.555 -4.45429 -0.225674 0
M  V30 3957 C 368.256 -5.61489 1.52004 0
M  V30 3958 N 367.232 -5.37135 0.835874 0
M  V30 3959 H 371.034 -2.80125 0.889228 0
M  V30 3960 H 368.548 -1.51446 0.586323 0
M  V30 3961 H 370.545 -3.96693 -1.28219 0
M  V30 3962 H 369.205 -2.83123 -1.5897 0
M  V30 3963 H 370.216 -4.98104 1.41819 0
M  V30 3964 H 366.893 -4.05571 -0.990872 0
M  V30 3965 H 368.283 -6.28264 2.38188 0
M  V30 3966 N 371.003 -0.499398 -1.49478 0
M  V30 3967 C 371.951 0.293604 -2.3074 0
M  V30 3968 C 372.945 0.96427 -1.39277 0
M  V30 3969 O 374.151 0.892141 -1.56336 0
M  V30 3970 H 370.526 0.113541 -0.743379 0
M  V30 3971 H 372.497 -0.411772 -2.95545 0
M  V30 3972 C 371.246 1.3462 -3.20582 0
M  V30 3973 H 370.569 0.83954 -3.90886 0
M  V30 3974 H 372.009 1.87308 -3.80384 0
M  V30 3975 C 370.468 2.36351 -2.40083 0
M  V30 3976 O 370.998 3.422 -2.10385 0
M  V30 3977 N 369.204 2.0878 -2.02137 0
M  V30 3978 H 368.751 1.22723 -2.26488 0
M  V30 3979 H 368.709 2.77075 -1.48583 0
M  V30 3980 N 372.481 1.55866 -0.233164 0
M  V30 3981 C 373.728 1.98603 0.395374 0
M  V30 3982 C 374.056 1.12105 1.58942 0
M  V30 3983 O 373.311 0.168656 1.94972 0
M  V30 3984 C 373.61 3.46856 0.861724 0
M  V30 3985 C 373.276 4.50348 -0.223066 0
M  V30 3986 C 371.938 4.78371 -0.521038 0
M  V30 3987 C 374.29 5.12355 -0.956124 0
M  V30 3988 C 371.618 5.6568 -1.55638 0
M  V30 3989 C 373.97 6.00786 -1.98089 0
M  V30 3990 C 372.634 6.27148 -2.28565 0
M  V30 3991 H 371.904 0.726739 0.144677 0
M  V30 3992 H 374.551 1.88491 -0.338114 0
M  V30 3993 H 372.856 3.5423 1.67418 0
M  V30 3994 H 374.553 3.77302 1.35809 0
M  V30 3995 H 371.143 4.28596 0.0193234 0
M  V30 3996 H 375.327 4.90765 -0.739166 0
M  V30 3997 H 370.583 5.84365 -1.798 0
M  V30 3998 H 374.757 6.4788 -2.55391 0
M  V30 3999 H 372.384 6.94597 -3.08932 0
M  V30 4000 N 373.959 -0.0401083 1.57549 0
M  V30 4001 C 375.205 -0.734211 1.89043 0
M  V30 4002 C 375.538 -1.75591 0.829535 0
M  V30 4003 O 374.813 -1.93868 -0.156706 0
M  V30 4004 C 375.096 -1.41374 3.31188 0
M  V30 4005 C 374.949 -0.406299 4.47961 0
M  V30 4006 C 376.268 -2.35061 3.72068 0
M  V30 4007 H 373.387 -0.265447 0.687537 0
M  V30 4008 H 376.029 0.00294087 1.9 0
M  V30 4009 H 374.179 -2.04206 3.30503 0
M  V30 4010 H 375.851 0.219255 4.60779 0
M  V30 4011 H 374.094 0.275485 4.32924 0
M  V30 4012 H 374.765 -0.920022 5.44279 0
M  V30 4013 H 377.241 -1.82282 3.74049 0
M  V30 4014 H 376.117 -2.79593 4.72355 0
M  V30 4015 H 376.378 -3.21258 3.0372 0
M  V30 4016 N 375.437 -1.54477 -0.31217 0
M  V30 4017 C 376.384 -1.84655 -1.38461 0
M  V30 4018 C 377.354 -0.694536 -1.50882 0
M  V30 4019 O 378.539 -0.942081 -1.6592 0
M  V30 4020 C 375.679 -2.0896 -2.74645 0
M  V30 4021 C 374.792 -3.36618 -2.70763 0
M  V30 4022 C 373.927 -3.50824 -3.98868 0
M  V30 4023 C 372.966 -4.72315 -3.89339 0
M  V30 4024 N 372.103 -4.83387 -5.09197 0
M  V30 4025 H 376.943 -2.76142 -1.12026 0
M  V30 4026 H 374.48 -1.36748 -0.542065 0
M  V30 4027 H 376.438 -2.21045 -3.53829 0
M  V30 4028 H 375.068 -1.20752 -2.99364 0
M  V30 4029 H 374.12 -3.33211 -1.83506 0
M  V30 4030 H 375.432 -4.25917 -2.59608 0
M  V30 4031 H 374.586 -3.62513 -4.86486 0
M  V30 4032 H 373.325 -2.59638 -4.12843 0
M  V30 4033 H 372.33 -4.6067 -3.00105 0
M  V30 4034 H 373.555 -5.64897 -3.76919 0
M  V30 4035 H 371.501 -3.9512 -5.23657 0
M  V30 4036 H 371.418 -5.66669 -5.00422 0
M  V30 4037 H 372.686 -4.9942 -5.98498 0
M  V30 4038 N 376.915 0.57481 -1.46744 0
M  V30 4039 C 378.164 1.32898 -1.51727 0
M  V30 4040 C 378.477 1.948 -0.176692 0
M  V30 4041 O 379.683 2.71299 -0.104385 0
M  V30 4042 C 378.139 2.40901 -2.67385 0
M  V30 4043 C 377.747 1.85266 -4.07898 0
M  V30 4044 C 379.491 3.17609 -2.81646 0
M  V30 4045 C 377.398 2.90945 -5.14883 0
M  V30 4046 H 376.328 0.499631 -0.564699 0
M  V30 4047 H 378.979 0.612536 -1.72975 0
M  V30 4048 H 377.361 3.15379 -2.39483 0
M  V30 4049 H 378.535 1.17278 -4.45626 0
M  V30 4050 H 376.85 1.21199 -3.98371 0
M  V30 4051 H 379.447 3.96493 -3.58744 0
M  V30 4052 H 379.79 3.70696 -1.89448 0
M  V30 4053 H 380.323 2.50239 -3.09233 0
M  V30 4054 H 377.062 2.42736 -6.089 0
M  V30 4055 H 376.582 3.57398 -4.81691 0
M  V30 4056 H 378.261 3.54755 -5.41071 0
M  V30 4057 N 378.394 1.34581 0.820102 0
M  V30 4058 C 379.357 1.2628 1.91275 0
M  V30 4059 C 380.357 0.177344 1.59819 0
M  V30 4060 O 381.547 0.430156 1.68806 0
M  V30 4061 C 378.679 0.950327 3.27386 0
M  V30 4062 H 379.872 2.23421 2.00057 0
M  V30 4063 H 377.425 1.1891 1.0144 0
M  V30 4064 H 378.16 -0.0177938 3.24295 0
M  V30 4065 H 377.945 1.73549 3.51601 0
M  V30 4066 H 379.435 0.917492 4.07396 0
M  V30 4067 N 379.872 -1.04064 1.18357 0
M  V30 4068 C 380.802 -2.14001 0.934113 0
M  V30 4069 C 381.783 -1.69616 -0.128186 0
M  V30 4070 O 382.968 -1.94185 0.0244093 0
M  V30 4071 C 380.098 -3.44253 0.459066 0
M  V30 4072 C 379.052 -4.02261 1.46185 0
M  V30 4073 C 378.378 -5.27992 0.844322 0
M  V30 4074 C 379.678 -4.38432 2.83856 0
M  V30 4075 H 381.372 -2.35127 1.85352 0
M  V30 4076 H 378.918 -1.12998 0.892604 0
M  V30 4077 H 380.871 -4.20522 0.271907 0
M  V30 4078 H 379.595 -3.22813 -0.495912 0
M  V30 4079 H 378.254 -3.28074 1.63595 0
M  V30 4080 H 377.902 -5.02862 -0.117845 0
M  V30 4081 H 377.602 -5.67765 1.51384 0
M  V30 4082 H 379.126 -6.06938 0.667693 0
M  V30 4083 H 380.54 -5.05688 2.70098 0
M  V30 4084 H 378.937 -4.89254 3.47491 0
M  V30 4085 H 380.007 -3.4826 3.37406 0
M  V30 4086 N 381.35 -0.985608 -1.22978 0
M  V30 4087 C 382.578 -0.675582 -1.95559 0
M  V30 4088 C 382.993 0.758413 -1.72897 0
M  V30 4089 O 382.35 1.51094 -1.02357 0
M  V30 4090 C 382.401 -0.96293 -3.48439 0
M  V30 4091 O 382.122 -2.34057 -3.70336 0
M  V30 4092 C 383.623 -0.669585 -4.38214 0
M  V30 4093 H 380.843 -0.250523 -0.622478 0
M  V30 4094 H 383.387 -1.3184 -1.56328 0
M  V30 4095 H 381.542 -0.366033 -3.85667 0
M  V30 4096 H 381.956 -2.43424 -4.64591 0
M  V30 4097 H 383.43 -0.920967 -5.44263 0
M  V30 4098 H 383.907 0.396383 -4.37408 0
M  V30 4099 H 384.513 -1.2472 -4.06602 0
M  V30 4100 N 382.828 1.3818 -0.7579 0
M  V30 4101 C 383.775 2.30416 -0.133057 0
M  V30 4102 C 384.745 1.50398 0.704957 0
M  V30 4103 O 385.93 1.79014 0.660192 0
M  V30 4104 C 383.07 3.36834 0.750813 0
M  V30 4105 C 382.183 4.31879 -0.102297 0
M  V30 4106 C 381.318 5.25368 0.784979 0
M  V30 4107 C 380.357 6.12058 -0.0715046 0
M  V30 4108 N 379.494 6.97832 0.772972 0
M  V30 4109 H 384.334 2.83274 -0.925186 0
M  V30 4110 H 381.871 1.39461 -0.467866 0
M  V30 4111 H 383.829 3.97145 1.27794 0
M  V30 4112 H 382.459 2.85374 1.50868 0
M  V30 4113 H 381.511 3.72991 -0.747095 0
M  V30 4114 H 382.823 4.92921 -0.763552 0
M  V30 4115 H 381.977 5.90818 1.37911 0
M  V30 4116 H 380.716 4.64703 1.47996 0
M  V30 4117 H 379.721 5.456 -0.678272 0
M  V30 4118 H 380.946 6.74793 -0.763606 0
M  V30 4119 H 378.892 6.3971 1.45282 0
M  V30 4120 H 378.809 7.55812 0.168709 0
M  V30 4121 H 380.077 7.67687 1.35194 0
M  V30 4122 N 384.306 0.507319 1.49211 0
M  V30 4123 C 385.254 -0.281364 2.30892 0
M  V30 4124 C 386.248 -0.95687 1.39787 0
M  V30 4125 O 387.454 -0.883838 1.56807 0
M  V30 4126 H 383.829 -0.109597 0.743971 0
M  V30 4127 H 385.8 0.42744 2.95323 0
M  V30 4128 C 384.549 -1.32918 3.21291 0
M  V30 4129 H 383.872 -0.818799 3.91326 0
M  V30 4130 H 385.312 -1.85288 3.81372 0
M  V30 4131 C 383.771 -2.35074 2.41333 0
M  V30 4132 O 384.301 -3.4108 2.12197 0
M  V30 4133 N 382.507 -2.07705 2.03241 0
M  V30 4134 H 382.054 -1.2152 2.27136 0
M  V30 4135 H 382.012 -2.76283 1.50051 0
M  V30 4136 N 385.784 -1.5574 0.241426 0
M  V30 4137 C 387.195 -1.84842 -0.262755 0
M  V30 4138 C 387.546 -1.16317 -1.58003 0
M  V30 4139 O 386.671 -0.439653 -2.11887 0
M  V30 4140 C 387.266 -3.35332 -0.483523 0
M  V30 4141 C 385.825 -3.6468 -0.931977 0
M  V30 4142 C 384.972 -2.77299 -0.0061151 0
M  V30 4143 H 387.923 -1.51761 0.464129 0
M  V30 4144 H 387.944 -3.56615 -1.32688 0
M  V30 4145 H 387.456 -3.85178 0.47537 0
M  V30 4146 H 385.557 -3.20307 -1.90353 0
M  V30 4147 H 385.67 -4.72498 -0.792628 0
M  V30 4148 H 384.034 -2.49408 -0.516503 0
M  V30 4149 H 384.817 -3.2995 0.948052 0
M  V30 4150 N 387.262 0.0317525 -1.57568 0
M  V30 4151 C 388.209 1.0332 -2.06382 0
M  V30 4152 C 389.179 1.36082 -0.952414 0
M  V30 4153 O 390.364 1.46466 -1.2228 0
M  V30 4154 C 387.504 2.32989 -2.54578 0
M  V30 4155 C 386.617 2.0641 -3.79498 0
M  V30 4156 C 385.752 3.2993 -4.16317 0
M  V30 4157 C 384.791 2.98893 -5.34162 0
M  V30 4158 N 383.928 4.14857 -5.66426 0
M  V30 4159 H 388.768 0.609982 -2.9169 0
M  V30 4160 H 386.305 0.289573 -1.44222 0
M  V30 4161 H 388.263 3.0875 -2.80587 0
M  V30 4162 H 386.893 2.73039 -1.7219 0
M  V30 4163 H 385.945 1.21158 -3.6059 0
M  V30 4164 H 387.257 1.79513 -4.65378 0
M  V30 4165 H 386.411 4.1406 -4.4344 0
M  V30 4166 H 385.15 3.59938 -3.29083 0
M  V30 4167 H 384.155 2.13164 -5.06795 0
M  V30 4168 H 385.38 2.70165 -6.23047 0
M  V30 4169 H 383.326 4.44821 -4.82151 0
M  V30 4170 H 383.243 3.91374 -6.4681 0
M  V30 4171 H 384.511 4.99868 -5.98124 0
M  V30 4172 N 388.74 1.54641 0.303973 0
M  V30 4173 C 389.687 1.85386 1.37479 0
M  V30 4174 C 390.657 0.702528 1.50512 0
M  V30 4175 O 391.842 0.950867 1.65418 0
M  V30 4176 C 388.982 2.10413 2.73533 0
M  V30 4177 C 388.095 3.38049 2.68974 0
M  V30 4178 C 387.23 3.52934 3.97002 0
M  V30 4179 C 386.269 4.74373 3.86829 0
M  V30 4180 N 385.406 4.8608 5.06627 0
M  V30 4181 H 390.246 2.76732 1.1056 0
M  V30 4182 H 387.783 1.37034 0.534805 0
M  V30 4183 H 389.741 2.22919 3.52652 0
M  V30 4184 H 388.371 1.22338 2.98719 0
M  V30 4185 H 387.423 3.3418 1.81736 0
M  V30 4186 H 388.735 4.27288 2.57346 0
M  V30 4187 H 387.889 3.65088 4.84557 0
M  V30 4188 H 386.628 2.61824 4.1146 0
M  V30 4189 H 385.633 4.62255 2.97658 0
M  V30 4190 H 386.858 5.66888 3.73918 0
M  V30 4191 H 384.804 3.97891 5.21554 0
M  V30 4192 H 384.721 5.69315 4.9741 0
M  V30 4193 H 385.989 5.02587 5.95841 0
M  V30 4194 N 390.218 -0.567019 1.47046 0
M  V30 4195 C 391.634 -0.891975 1.32348 0
M  V30 4196 C 391.834 -1.99154 0.306616 0
M  V30 4197 O 390.89 -2.50883 -0.28532 0
M  V30 4198 C 392.203 -1.29449 2.7141 0
M  V30 4199 C 393.751 -1.40646 2.79621 0
M  V30 4200 C 394.226 -1.84257 4.19301 0
M  V30 4201 N 395.717 -1.91424 4.21795 0
M  V30 4202 C 396.452 -2.26476 5.26779 0
M  V30 4203 N 395.948 -2.60211 6.42077 0
M  V30 4204 N 397.741 -2.27166 5.14152 0
M  V30 4205 H 389.892 0.159074 2.11803 0
M  V30 4206 H 392.155 0.00849752 0.947962 0
M  V30 4207 H 391.861 -0.560448 3.47206 0
M  V30 4208 H 391.735 -2.25273 3.02542 0
M  V30 4209 H 394.122 -2.13133 2.04104 0
M  V30 4210 H 394.203 -0.430339 2.52154 0
M  V30 4211 H 393.847 -1.12343 4.95319 0
M  V30 4212 H 393.777 -2.82855 4.44185 0
M  V30 4213 H 396.268 -1.6778 3.38612 0
M  V30 4214 H 396.581 -2.85956 7.17948 0
M  V30 4215 H 394.926 -2.57813 6.45413 0
M  V30 4216 H 398.117 -2.00244 4.23107 0
M  V30 4217 H 398.29 -2.54154 5.96079 0
M  V30 4218 N 391.696 -1.35014 -0.812953 0
M  V30 4219 C 393.107 -1.25035 -1.38648 0
M  V30 4220 C 393.458 0.119967 -1.95833 0
M  V30 4221 O 392.583 1.02069 -1.90816 0
M  V30 4222 C 393.178 -2.26394 -2.52054 0
M  V30 4223 C 391.737 -2.20175 -3.05287 0
M  V30 4224 C 390.884 -2.12451 -1.78213 0
M  V30 4225 H 393.835 -1.46235 -0.616516 0
M  V30 4226 H 393.856 -1.88672 -3.30429 0
M  V30 4227 H 393.368 -3.26116 -2.10404 0
M  V30 4228 H 391.469 -1.23841 -3.51417 0
M  V30 4229 H 391.582 -3.11863 -3.63701 0
M  V30 4230 H 389.946 -1.58328 -1.9951 0
M  V30 4231 H 390.729 -3.14024 -1.38723 0
M  V30 4232 N 393.175 1.03435 -1.18907 0
M  V30 4233 C 394.403 1.80381 -1.01342 0
M  V30 4234 C 394.818 1.83649 0.438005 0
M  V30 4235 O 394.175 1.27655 1.30424 0
M  V30 4236 C 394.226 3.25689 -1.56873 0
M  V30 4237 O 393.947 3.22673 -2.96334 0
M  V30 4238 C 395.448 4.19255 -1.44014 0
M  V30 4239 H 392.668 0.56784 -0.35749 0
M  V30 4240 H 395.212 1.30317 -1.576 0
M  V30 4241 H 393.367 3.72962 -1.04777 0
M  V30 4242 H 393.781 4.13748 -3.22355 0
M  V30 4243 H 395.255 5.19123 -1.87657 0
M  V30 4244 H 395.732 4.37467 -0.389815 0
M  V30 4245 H 396.338 3.77851 -1.95214 0
M  V30 4246 N 394.653 0.992116 1.22453 0
M  V30 4247 C 395.616 0.546883 2.2258 0
M  V30 4248 C 396.616 -0.369829 1.56489 0
M  V30 4249 O 397.806 -0.161896 1.73446 0
M  V30 4250 C 394.938 -0.204659 3.40285 0
M  V30 4251 H 396.131 1.43234 2.63484 0
M  V30 4252 H 393.684 0.779239 1.3549 0
M  V30 4253 H 394.419 -1.10614 3.04853 0
M  V30 4254 H 394.204 0.45354 3.89468 0
M  V30 4255 H 395.694 -0.504358 4.14543 0
M  V30 4256 N 396.131 -1.37776 0.765217 0
M  V30 4257 C 397.041 -2.34135 0.147666 0
M  V30 4258 C 398.057 -1.59854 -0.687215 0
M  V30 4259 O 399.233 -1.91983 -0.608659 0
M  V30 4260 C 396.298 -3.3901 -0.72617 0
M  V30 4261 C 395.359 -4.2912 0.124417 0
M  V30 4262 C 394.592 -5.28986 -0.707807 0
M  V30 4263 O 394.815 -5.36205 -1.94525 0
M  V30 4264 O 393.749 -6.01779 -0.12046 0
M  V30 4265 H 397.575 -2.88664 0.943758 0
M  V30 4266 H 395.16 -1.39824 0.526277 0
M  V30 4267 H 397.042 -4.03195 -1.22524 0
M  V30 4268 H 395.717 -2.86819 -1.50056 0
M  V30 4269 H 394.624 -3.68057 0.669696 0
M  V30 4270 H 395.957 -4.84598 0.861736 0
M  V30 4271 N 397.609 -0.515225 -1.4894 0
M  V30 4272 C 399.025 -0.172099 -1.58669 0
M  V30 4273 C 399.225 1.32405 -1.51892 0
M  V30 4274 O 398.281 2.10116 -1.40027 0
M  V30 4275 C 399.594 -0.761533 -2.90897 0
M  V30 4276 C 401.142 -0.728926 -3.04394 0
M  V30 4277 C 401.617 -1.29667 -4.39261 0
M  V30 4278 N 403.108 -1.25799 -4.4579 0
M  V30 4279 C 403.843 -1.66733 -5.48623 0
M  V30 4280 N 403.339 -2.15327 -6.58488 0
M  V30 4281 N 405.132 -1.58061 -5.39419 0
M  V30 4282 H 397.283 -1.48778 -1.51588 0
M  V30 4283 H 399.546 -0.617968 -0.718901 0
M  V30 4284 H 399.252 -1.81136 -3.01468 0
M  V30 4285 H 399.126 -0.230106 -3.76497 0
M  V30 4286 H 401.513 0.312098 -2.93445 0
M  V30 4287 H 401.594 -1.29766 -2.20442 0
M  V30 4288 H 401.238 -2.33655 -4.50963 0
M  V30 4289 H 401.168 -0.703752 -5.21876 0
M  V30 4290 H 403.659 -0.902102 -3.66975 0
M  V30 4291 H 403.972 -2.44594 -7.33071 0
M  V30 4292 H 402.317 -2.19311 -6.59491 0
M  V30 4293 H 405.508 -1.19906 -4.52482 0
M  V30 4294 H 405.681 -1.90284 -6.19432 0
M  V30 4295 N 399.087 1.5561 -0.249682 0
M  V30 4296 C 400.017 2.24477 0.642826 0
M  V30 4297 C 400.998 1.22601 1.17911 0
M  V30 4298 O 402.183 1.5126 1.21795 0
M  V30 4299 C 399.313 2.94638 1.83863 0
M  V30 4300 C 398.267 4.03227 1.435 0
M  V30 4301 C 397.593 4.60828 2.71186 0
M  V30 4302 C 398.893 5.18796 0.604002 0
M  V30 4303 H 400.587 2.99321 0.0685625 0
M  V30 4304 H 398.133 1.43965 0.0315363 0
M  V30 4305 H 400.086 3.41517 2.46868 0
M  V30 4306 H 398.81 2.17287 2.43832 0
M  V30 4307 H 397.469 3.57121 0.828275 0
M  V30 4308 H 397.117 3.80174 3.29358 0
M  V30 4309 H 396.817 5.34132 2.44901 0
M  V30 4310 H 398.341 5.10442 3.35084 0
M  V30 4311 H 399.755 5.61883 1.13842 0
M  V30 4312 H 398.152 5.98506 0.437097 0
M  V30 4313 H 399.222 4.83384 -0.383147 0
M  V30 4314 N 400.565 -0.0233959 1.57583 0
M  V30 4315 C 401.495 -1.02162 2.09965 0
M  V30 4316 C 402.476 -1.3735 1.00344 0
M  V30 4317 O 403.661 -1.46135 1.27899 0
M  V30 4318 C 400.791 -2.32081 2.58371 0
M  V30 4319 C 399.745 -2.1112 3.72307 0
M  V30 4320 C 399.071 -3.46848 4.06941 0
M  V30 4321 C 400.371 -1.49276 5.00514 0
M  V30 4322 H 402.065 -0.585557 2.93618 0
M  V30 4323 H 399.611 -0.280218 1.41247 0
M  V30 4324 H 401.564 -3.02249 2.93639 0
M  V30 4325 H 400.288 -2.77758 1.71808 0
M  V30 4326 H 398.947 -1.43384 3.37397 0
M  V30 4327 H 398.595 -3.90184 3.17436 0
M  V30 4328 H 398.295 -3.33646 4.83688 0
M  V30 4329 H 399.819 -4.18369 4.44747 0
M  V30 4330 H 401.233 -2.09368 5.33702 0
M  V30 4331 H 399.63 -1.46632 5.8191 0
M  V30 4332 H 400.7 -0.459217 4.82721 0
M  V30 4333 N 402.043 -1.548 -0.295768 0
M  V30 4334 C 403.271 -1.78327 -1.04914 0
M  V30 4335 C 403.686 -0.545316 -1.80753 0
M  V30 4336 O 403.043 0.485013 -1.75937 0
M  V30 4337 C 403.094 -2.99418 -2.02561 0
M  V30 4338 O 402.815 -4.18431 -1.29798 0
M  V30 4339 C 404.316 -3.35375 -2.89895 0
M  V30 4340 H 401.536 -0.594618 -0.310918 0
M  V30 4341 H 404.08 -2.01763 -0.333454 0
M  V30 4342 H 402.235 -2.78175 -2.69624 0
M  V30 4343 H 402.649 -4.86736 -1.95419 0
M  V30 4344 H 404.123 -4.23332 -3.54251 0
M  V30 4345 H 404.6 -2.53761 -3.58472 0
M  V30 4346 H 405.206 -3.58796 -2.28355 0
M  V30 4347 N 403.521 0.559213 -1.47345 0
M  V30 4348 C 404.471 1.66192 -1.5609 0
M  V30 4349 C 405.455 1.55323 -0.419957 0
M  V30 4350 O 406.647 1.63839 -0.669762 0
M  V30 4351 C 403.776 3.0497 -1.57634 0
M  V30 4352 C 402.862 3.2105 -2.77106 0
M  V30 4353 N 403.253 3.07203 -4.01821 0
M  V30 4354 C 401.551 3.52046 -2.73825 0
M  V30 4355 C 402.252 3.25919 -4.81821 0
M  V30 4356 N 401.228 3.52161 -4.14106 0
M  V30 4357 H 405.03 1.54052 -2.5029 0
M  V30 4358 H 402.544 0.763914 -1.43311 0
M  V30 4359 H 404.541 3.84142 -1.61989 0
M  V30 4360 H 403.201 3.18224 -0.645281 0
M  V30 4361 H 404.212 2.84572 -4.32711 0
M  V30 4362 H 400.889 3.71839 -1.89848 0
M  V30 4363 H 402.279 3.20198 -5.90697 0
M  V30 4364 N 404.999 1.35443 0.805782 0
M  V30 4365 C 406.227 1.31878 1.59423 0
M  V30 4366 C 406.642 -0.103562 1.88516 0
M  V30 4367 O 405.999 -1.05575 1.48863 0
M  V30 4368 C 406.05 2.12426 2.92502 0
M  V30 4369 O 405.771 3.49115 2.6467 0
M  V30 4370 C 407.272 2.16455 3.86862 0
M  V30 4371 H 404.492 0.453002 0.495005 0
M  V30 4372 H 407.036 1.78309 1.00131 0
M  V30 4373 H 405.191 1.69593 3.48306 0
M  V30 4374 H 405.605 3.90957 3.49647 0
M  V30 4375 H 407.079 2.77204 4.77349 0
M  V30 4376 H 407.556 1.16352 4.23508 0
M  V30 4377 H 408.162 2.59453 3.36993 0
M  V30 4378 N 406.477 -1.02803 1.19454 0
M  V30 4379 C 407.724 -1.76217 0.997693 0
M  V30 4380 C 408.052 -1.887 -0.47144 0
M  V30 4381 O 407.307 -1.4011 -1.3663 0
M  V30 4382 C 407.606 -3.18941 1.6128 0
M  V30 4383 C 407.272 -3.26463 3.11019 0
M  V30 4384 C 405.934 -3.28223 3.51885 0
M  V30 4385 C 408.286 -3.25542 4.07028 0
M  V30 4386 C 405.614 -3.26719 4.8731 0
M  V30 4387 C 407.966 -3.25579 5.42385 0
M  V30 4388 C 406.63 -3.25637 5.82681 0
M  V30 4389 H 405.9 -0.644823 0.365082 0
M  V30 4390 H 408.547 -1.20655 1.4871 0
M  V30 4391 H 406.852 -3.77587 1.04572 0
M  V30 4392 H 408.549 -3.74415 1.43577 0
M  V30 4393 H 405.139 -3.25822 2.78457 0
M  V30 4394 H 409.323 -3.23362 3.76498 0
M  V30 4395 H 404.579 -3.25089 5.1781 0
M  V30 4396 H 408.753 -3.23817 6.16535 0
M  V30 4397 H 406.38 -3.24226 6.87591 0
M  V30 4398 N 407.956 -0.998596 -1.21925 0
M  V30 4399 C 409.202 -0.678667 -1.91107 0
M  V30 4400 C 409.535 0.78791 -1.77498 0
M  V30 4401 O 408.81 1.57043 -1.1475 0
M  V30 4402 C 409.093 -1.09245 -3.43129 0
M  V30 4403 C 408.946 -2.61801 -3.6576 0
M  V30 4404 C 410.265 -0.649984 -4.35274 0
M  V30 4405 H 407.384 -0.248025 -0.694012 0
M  V30 4406 H 410.026 -1.24314 -1.43688 0
M  V30 4407 H 408.176 -0.612171 -3.83647 0
M  V30 4408 H 409.848 -3.17543 -3.34611 0
M  V30 4409 H 408.091 -3.03609 -3.09845 0
M  V30 4410 H 408.762 -2.85804 -4.7225 0
M  V30 4411 H 411.238 -1.0626 -4.02303 0
M  V30 4412 H 410.114 -0.967743 -5.40302 0
M  V30 4413 H 410.375 0.449139 -4.39813 0
M  V30 4414 N 409.434 1.37368 -0.772513 0
M  V30 4415 C 410.397 2.28601 -0.165541 0
M  V30 4416 C 411.397 1.48062 0.627238 0
M  V30 4417 O 412.587 1.68268 0.450715 0
M  V30 4418 C 409.719 3.32023 0.772897 0
M  V30 4419 H 410.912 2.83787 -0.969787 0
M  V30 4420 H 408.465 1.46647 -0.540775 0
M  V30 4421 H 409.2 2.81962 1.60212 0
M  V30 4422 H 408.985 3.91555 0.206585 0
M  V30 4423 H 410.475 4.00197 1.19298 0
M  V30 4424 N 410.912 0.523116 1.48665 0
M  V30 4425 C 411.844 -0.280421 2.27478 0
M  V30 4426 C 412.857 -0.910694 1.34945 0
M  V30 4427 O 414.046 -0.790295 1.60052 0
M  V30 4428 C 411.146 -1.41171 3.08097 0
M  V30 4429 C 410.319 -0.884642 4.28361 0
M  V30 4430 C 409.378 -1.89622 4.90846 0
M  V30 4431 O 408.404 -1.4559 5.50265 0
M  V30 4432 N 409.606 -3.22801 4.82472 0
M  V30 4433 H 412.371 0.395481 2.97079 0
M  V30 4434 H 409.932 0.357018 1.57915 0
M  V30 4435 H 411.924 -2.08645 3.4677 0
M  V30 4436 H 410.494 -1.99139 2.40961 0
M  V30 4437 H 409.714 -0.0341177 3.94185 0
M  V30 4438 H 411.002 -0.511268 5.06225 0
M  V30 4439 H 410.4 -3.61246 4.35336 0
M  V30 4440 H 408.957 -3.85927 5.25265 0
M  V30 4441 N 412.39 -1.55475 0.257931 0
M  V30 4442 C 413.801 -1.8511 -0.243135 0
M  V30 4443 C 414.152 -1.17986 -1.5676 0
M  V30 4444 O 413.277 -0.462102 -2.11409 0
M  V30 4445 C 413.872 -3.35826 -0.447929 0
M  V30 4446 C 412.431 -3.65647 -0.893245 0
M  V30 4447 C 411.578 -2.7729 0.0232965 0
M  V30 4448 H 414.529 -1.51261 0.480199 0
M  V30 4449 H 414.55 -3.58002 -1.28898 0
M  V30 4450 H 414.062 -3.84652 0.516196 0
M  V30 4451 H 412.163 -3.22308 -1.86945 0
M  V30 4452 H 412.276 -4.73312 -0.742469 0
M  V30 4453 H 410.64 -2.49942 -0.490021 0
M  V30 4454 H 411.423 -3.28926 0.982994 0
M  V30 4455 N 413.868 0.0150385 -1.57593 0
M  V30 4456 C 415.116 0.701613 -1.8953 0
M  V30 4457 C 415.437 1.75139 -0.857396 0
M  V30 4458 O 414.707 1.95607 0.107194 0
M  V30 4459 H 413.287 0.26213 -0.699498 0
M  V30 4460 H 415.949 -0.0223304 -1.94887 0
M  V30 4461 H 415.045 1.18236 -2.88837 0
M  V30 4462 N 415.346 1.54954 0.287554 0
M  V30 4463 C 416.276 1.89839 1.35954 0
M  V30 4464 C 417.257 0.758675 1.52244 0
M  V30 4465 O 418.442 1.01557 1.65529 0
M  V30 4466 C 415.572 2.15753 2.72154 0
M  V30 4467 C 414.526 3.3159 2.70614 0
M  V30 4468 C 413.852 3.42952 4.10229 0
M  V30 4469 C 415.152 4.68359 2.31165 0
M  V30 4470 H 416.846 2.79625 1.07007 0
M  V30 4471 H 414.392 1.3454 0.513316 0
M  V30 4472 H 416.345 2.38743 3.47246 0
M  V30 4473 H 415.069 1.22752 3.02654 0
M  V30 4474 H 413.728 3.08545 1.97979 0
M  V30 4475 H 413.376 2.47443 4.37928 0
M  V30 4476 H 413.076 4.20826 4.10097 0
M  V30 4477 H 414.6 3.68218 4.87081 0
M  V30 4478 H 416.014 4.9099 2.95976 0
M  V30 4479 H 414.411 5.49044 2.42221 0
M  V30 4480 H 415.481 4.68165 1.26291 0
M  V30 4481 N 416.824 -0.551391 1.4764 0
M  V30 4482 C 418.049 -1.33837 1.58437 0
M  V30 4483 C 418.474 -1.866 0.237063 0
M  V30 4484 O 417.832 -1.6328 -0.787994 0
M  V30 4485 C 417.88 -2.48014 2.61766 0
M  V30 4486 O 416.984 -3.50419 2.1744 0
M  V30 4487 H 416.325 -0.397299 0.532024 0
M  V30 4488 H 418.855 -0.665759 1.93465 0
M  V30 4489 H 418.865 -2.94503 2.82369 0
M  V30 4490 H 417.54 -2.08969 3.5959 0
M  V30 4491 H 416.117 -3.10196 2.06961 0
M  V30 4492 N 418.302 -1.35869 -0.798587 0
M  V30 4493 C 419.718 -1.16082 -1.09532 0
M  V30 4494 C 419.918 0.0213124 -2.01489 0
M  V30 4495 O 418.974 0.689488 -2.42904 0
M  V30 4496 C 420.287 -2.46748 -1.7186 0
M  V30 4497 C 421.835 -2.53028 -1.84244 0
M  V30 4498 C 422.31 -3.83758 -2.49988 0
M  V30 4499 N 423.801 -3.85053 -2.57465 0
M  V30 4500 C 424.536 -4.8294 -3.09122 0
M  V30 4501 N 424.032 -5.91217 -3.61157 0
M  V30 4502 N 425.825 -4.70369 -3.0775 0
M  V30 4503 H 417.976 -2.11571 -0.187461 0
M  V30 4504 H 420.239 -0.936726 -0.145765 0
M  V30 4505 H 419.945 -3.33471 -1.11759 0
M  V30 4506 H 419.819 -2.61883 -2.71472 0
M  V30 4507 H 422.206 -1.66729 -2.43486 0
M  V30 4508 H 422.287 -2.418 -0.834643 0
M  V30 4509 H 421.931 -4.70459 -1.91393 0
M  V30 4510 H 421.861 -3.92278 -3.5132 0
M  V30 4511 H 424.352 -3.06822 -2.20609 0
M  V30 4512 H 424.665 -6.61892 -3.98896 0
M  V30 4513 H 423.01 -5.94899 -3.59333 0
M  V30 4514 H 426.201 -3.84914 -2.66381 0
M  V30 4515 H 426.374 -5.46816 -3.47701 0
M  V30 4516 N 419.78 1.02168 -1.19998 0
M  V30 4517 C 420.743 2.08765 -0.94604 0
M  V30 4518 C 421.743 1.60618 0.0763846 0
M  V30 4519 O 422.933 1.73472 -0.159135 0
M  V30 4520 C 420.065 3.38262 -0.423255 0
M  V30 4521 H 421.258 2.32726 -1.89153 0
M  V30 4522 H 418.811 1.1889 -1.01464 0
M  V30 4523 H 419.546 3.19974 0.527938 0
M  V30 4524 H 419.331 3.74532 -1.16053 0
M  V30 4525 H 420.821 4.16759 -0.264911 0
M  V30 4526 N 421.258 1.00505 1.21394 0
M  V30 4527 C 422.188 0.585684 2.26035 0
M  V30 4528 C 423.169 -0.393525 1.65485 0
M  V30 4529 O 424.354 -0.281497 1.92149 0
M  V30 4530 C 421.484 -0.0884283 3.47187 0
M  V30 4531 C 420.438 0.810567 4.20254 0
M  V30 4532 C 419.764 0.00286382 5.347 0
M  V30 4533 C 421.064 2.1132 4.77641 0
M  V30 4534 H 422.758 1.46039 2.61368 0
M  V30 4535 H 420.304 0.703648 1.25638 0
M  V30 4536 H 422.257 -0.393286 4.19561 0
M  V30 4537 H 420.981 -0.997766 3.10986 0
M  V30 4538 H 419.64 1.09925 3.49731 0
M  V30 4539 H 419.288 -0.907765 4.94741 0
M  V30 4540 H 418.988 0.601444 5.84514 0
M  V30 4541 H 420.512 -0.295808 6.09883 0
M  V30 4542 H 421.926 1.87148 5.41893 0
M  V30 4543 H 420.323 2.66164 5.37845 0
M  V30 4544 H 421.393 2.78393 3.9702 0
M  V30 4545 N 422.737 -1.36956 0.779787 0
M  V30 4546 C 423.7 -2.2851 0.177662 0
M  V30 4547 C 424.7 -1.48393 -0.619377 0
M  V30 4548 O 425.89 -1.68505 -0.441785 0
M  V30 4549 C 423.022 -3.32428 -0.755279 0
M  V30 4550 H 424.215 -2.83269 0.984823 0
M  V30 4551 H 421.768 -1.46358 0.548544 0
M  V30 4552 H 422.503 -2.82808 -1.58714 0
M  V30 4553 H 422.288 -3.91659 -0.185817 0
M  V30 4554 H 423.778 -4.00824 -1.17174 0
M  V30 4555 N 424.215 -0.530993 -1.48385 0
M  V30 4556 C 425.461 0.00274135 -2.028 0
M  V30 4557 C 425.794 1.33838 -1.40716 0
M  V30 4558 O 425.069 1.86465 -0.553277 0
M  V30 4559 C 425.352 0.123676 -3.59888 0
M  V30 4560 C 425.205 -1.2372 -4.3245 0
M  V30 4561 C 426.524 0.849967 -4.31814 0
M  V30 4562 H 423.643 -0.000477758 -0.737 0
M  V30 4563 H 426.285 -0.688217 -1.77098 0
M  V30 4564 H 424.435 0.712157 -3.81917 0
M  V30 4565 H 426.107 -1.86687 -4.21836 0
M  V30 4566 H 424.35 -1.81882 -3.93829 0
M  V30 4567 H 425.021 -1.10557 -5.40815 0
M  V30 4568 H 427.497 0.350572 -4.14621 0
M  V30 4569 H 426.373 0.903486 -5.41413 0
M  V30 4570 H 426.634 1.90047 -3.99167 0
M  V30 4571 N 425.693 1.55336 -0.266172 0
M  V30 4572 C 426.603 2.2583 0.635458 0
M  V30 4573 C 427.619 1.28106 1.17749 0
M  V30 4574 O 428.795 1.61024 1.20968 0
M  V30 4575 C 425.86 2.95879 1.80712 0
M  V30 4576 C 424.921 4.09059 1.30265 0
M  V30 4577 C 424.154 4.75759 2.41846 0
M  V30 4578 O 424.377 4.41622 3.61007 0
M  V30 4579 O 423.311 5.63888 2.1051 0
M  V30 4580 H 427.137 3.03631 0.0646693 0
M  V30 4581 H 424.722 1.49361 -0.0339177 0
M  V30 4582 H 426.604 3.39932 2.49047 0
M  V30 4583 H 425.279 2.21002 2.36516 0
M  V30 4584 H 424.186 3.69482 0.586019 0
M  V30 4585 H 425.519 4.85811 0.790458 0
M  V30 4586 N 427.171 -0.0066808 1.57599 0
M  V30 4587 C 428.101 -0.999296 2.11036 0
M  V30 4588 C 429.082 -1.36278 1.01795 0
M  V30 4589 O 430.267 -1.4477 1.29442 0
M  V30 4590 C 427.397 -2.29328 2.60818 0
M  V30 4591 C 426.351 -2.07159 3.74525 0
M  V30 4592 C 425.677 -3.42512 4.10596 0
M  V30 4593 C 426.977 -1.43959 5.02069 0
M  V30 4594 H 428.671 -0.554382 2.94223 0
M  V30 4595 H 426.217 -0.265221 1.41536 0
M  V30 4596 H 428.17 -2.99117 2.96828 0
M  V30 4597 H 426.894 -2.7592 1.74745 0
M  V30 4598 H 425.553 -1.39797 3.38899 0
M  V30 4599 H 425.201 -3.86795 3.21556 0
M  V30 4600 H 424.901 -3.28498 4.87199 0
M  V30 4601 H 426.425 -4.13628 4.4916 0
M  V30 4602 H 427.839 -2.03696 5.35893 0
M  V30 4603 H 426.236 -1.40452 5.83432 0
M  V30 4604 H 427.306 -0.407992 4.83181 0
M  V30 4605 N 428.649 -1.55105 -0.279332 0
M  V30 4606 C 429.579 -1.90557 -1.34945 0
M  V30 4607 C 430.56 -0.766738 -1.51839 0
M  V30 4608 O 431.745 -1.02434 -1.64988 0
M  V30 4609 C 428.875 -2.17193 -2.71006 0
M  V30 4610 C 427.829 -3.33021 -2.68851 0
M  V30 4611 C 427.155 -3.45123 -4.08405 0
M  V30 4612 C 428.455 -4.69578 -2.28678 0
M  V30 4613 H 430.149 -2.80188 -1.05522 0
M  V30 4614 H 427.695 -1.34811 -0.506173 0
M  V30 4615 H 429.648 -2.40581 -3.45975 0
M  V30 4616 H 428.372 -1.24355 -3.01999 0
M  V30 4617 H 427.031 -3.0959 -1.9634 0
M  V30 4618 H 426.679 -2.49762 -4.3661 0
M  V30 4619 H 426.379 -4.22995 -4.07859 0
M  V30 4620 H 427.903 -3.70796 -4.85121 0
M  V30 4621 H 429.317 -4.92553 -2.93368 0
M  V30 4622 H 427.714 -5.5032 -2.39306 0
M  V30 4623 H 428.784 -4.68828 -1.23807 0
M  V30 4624 N 430.127 0.543554 -1.4793 0
M  V30 4625 C 431.404 1.30458 -1.4574 0
M  V30 4626 C 431.784 2.1048 -0.161692 0
M  V30 4627 O 431.132 2.11831 0.856734 0
M  V30 4628 C 431.342 2.19754 -2.71126 0
M  V30 4629 C 432.69 2.80334 -3.18901 0
M  V30 4630 O 433.714 2.30049 -2.71948 0
M  V30 4631 O 432.573 3.71766 -4.00565 0
M  V30 4632 H 429.667 0.588117 -0.581418 0
M  V30 4633 H 432.213 0.561328 -1.60147 0
M  V30 4634 H 430.985 1.60316 -3.56952 0
M  V30 4635 H 430.608 3.01351 -2.59371 0
M  V30 4636 N 431.605 1.3629 0.791371 0
M  V30 4637 C 432.552 1.30458 1.90393 0
M  V30 4638 C 433.522 0.173632 1.6519 0
M  V30 4639 O 434.707 0.35983 1.87376 0
M  V30 4640 C 431.847 1.09777 3.27174 0
M  V30 4641 C 430.96 2.31929 3.64462 0
M  V30 4642 C 430.095 2.04276 4.90352 0
M  V30 4643 C 429.134 3.224 5.20312 0
M  V30 4644 N 428.271 2.94424 6.37385 0
M  V30 4645 H 433.111 2.25589 1.94714 0
M  V30 4646 H 430.648 1.12122 0.952216 0
M  V30 4647 H 432.606 0.958133 4.06049 0
M  V30 4648 H 431.236 0.183014 3.22281 0
M  V30 4649 H 430.288 2.56703 2.80727 0
M  V30 4650 H 431.6 3.20085 3.82553 0
M  V30 4651 H 430.754 1.87231 5.77087 0
M  V30 4652 H 429.493 1.13428 4.74326 0
M  V30 4653 H 428.498 3.40005 4.32061 0
M  V30 4654 H 429.723 4.14071 5.38258 0
M  V30 4655 H 427.669 2.06185 6.22755 0
M  V30 4656 H 427.586 3.76118 6.55798 0
M  V30 4657 H 428.854 2.80953 7.27108 0
M  V30 4658 N 433.083 -1.0153 1.20538 0
M  V30 4659 C 434.329 -1.75408 1.01783 0
M  V30 4660 C 434.662 -1.88943 -0.448814 0
M  V30 4661 O 433.937 -1.4162 -1.33319 0
M  V30 4662 C 434.22 -3.17255 1.70356 0
M  V30 4663 C 434.073 -3.11508 3.24473 0
M  V30 4664 C 435.392 -4.15955 1.43769 0
M  V30 4665 H 432.511 -0.636713 0.371167 0
M  V30 4666 H 435.153 -1.18436 1.4857 0
M  V30 4667 H 433.303 -3.65898 1.30578 0
M  V30 4668 H 434.975 -2.70658 3.73553 0
M  V30 4669 H 433.218 -2.4887 3.55311 0
M  V30 4670 H 433.889 -4.11784 3.67611 0
M  V30 4671 H 436.365 -3.75973 1.7828 0
M  V30 4672 H 435.241 -5.13368 1.94279 0
M  V30 4673 H 435.502 -4.40586 0.365564 0
M  V30 4674 N 434.561 -1.01147 -1.20859 0
M  V30 4675 C 435.509 -0.57059 -2.25493 0
M  V30 4676 C 436.503 0.388109 -1.64894 0
M  V30 4677 O 437.709 0.258592 -1.78133 0
M  V30 4678 H 434.084 -0.166191 -0.733406 0
M  V30 4679 H 436.055 -1.46411 -2.60012 0
M  V30 4680 C 434.804 0.0805241 -3.47607 0
M  V30 4681 H 434.127 -0.648156 -3.94511 0
M  V30 4682 H 435.567 0.352197 -4.22535 0
M  V30 4683 C 434.026 1.32175 -3.09889 0
M  V30 4684 O 434.556 2.41553 -3.20959 0
M  V30 4685 N 432.762 1.20392 -2.64488 0
M  V30 4686 H 432.309 0.313905 -2.5568 0
M  V30 4687 H 432.267 2.03541 -2.39621 0
M  V30 4688 N 436.039 1.36541 -0.78704 0
M  V30 4689 C 436.987 2.31965 -0.171724 0
M  V30 4690 C 437.981 1.55689 0.667631 0
M  V30 4691 O 439.187 1.70969 0.562981 0
M  V30 4692 H 435.562 0.751101 -0.0367545 0
M  V30 4693 H 437.533 2.81428 -0.992017 0
M  V30 4694 C 436.282 3.40968 0.680904 0
M  V30 4695 H 435.605 3.99775 0.0443961 0
M  V30 4696 H 437.045 4.10063 1.07815 0
M  V30 4697 C 435.504 2.82338 1.83813 0
M  V30 4698 O 436.034 2.74311 2.93456 0
M  V30 4699 N 434.24 2.39661 1.6435 0
M  V30 4700 H 433.787 2.46389 0.751668 0
M  V30 4701 H 433.745 2.00779 2.4194 0
M  V30 4702 N 437.518 0.538854 1.48102 0
M  V30 4703 C 438.929 0.100679 1.86428 0
M  V30 4704 C 439.28 -1.32447 1.44749 0
M  V30 4705 O 438.405 -1.99339 0.842199 0
M  V30 4706 C 439 0.175933 3.38343 0
M  V30 4707 C 437.559 -0.207098 3.7583 0
M  V30 4708 C 436.706 0.531741 2.72154 0
M  V30 4709 H 439.657 0.749614 1.3988 0
M  V30 4710 H 439.678 -0.610144 3.75576 0
M  V30 4711 H 439.19 1.21328 3.68648 0
M  V30 4712 H 437.291 -1.24626 3.5114 0
M  V30 4713 H 437.404 0.138687 4.78899 0
M  V30 4714 H 435.768 -0.0230462 2.5469 0
M  V30 4715 H 436.551 1.56989 3.05302 0
M  V30 4716 N 438.996 -1.55193 0.274407 0
M  V30 4717 C 440.273 -1.91584 -0.394331 0
M  V30 4718 C 440.653 -1.19858 -1.73774 0
M  V30 4719 O 440.001 -0.3252 -2.26174 0
M  V30 4720 C 440.211 -3.4487 -0.535311 0
M  V30 4721 C 441.559 -4.16636 -0.818534 0
M  V30 4722 O 442.583 -3.5076 -0.620146 0
M  V30 4723 O 441.442 -5.33209 -1.19792 0
M  V30 4724 H 438.536 -0.798349 -0.215794 0
M  V30 4725 H 441.082 -1.66646 0.320507 0
M  V30 4726 H 439.854 -3.89145 0.410141 0
M  V30 4727 H 439.477 -3.75759 -1.29964 0
M  V30 4728 N 440.474 -0.00167713 -1.576 0
M  V30 4729 C 441.422 1.0074 -2.09652 0
M  V30 4730 C 442.416 1.35483 -1.01689 0
M  V30 4731 O 443.622 1.34028 -1.20152 0
M  V30 4732 H 439.997 0.342537 -0.669457 0
M  V30 4733 H 441.968 0.542841 -2.93421 0
M  V30 4734 C 440.717 2.2899 -2.61647 0
M  V30 4735 H 440.04 2.03124 -3.44355 0
M  V30 4736 H 441.48 2.9787 -3.01744 0
M  V30 4737 C 439.939 3.00085 -1.53136 0
M  V30 4738 O 440.469 3.91135 -0.91524 0
M  V30 4739 N 438.675 2.6194 -1.25841 0
M  V30 4740 H 438.222 1.8798 -1.76129 0
M  V30 4741 H 438.18 3.09822 -0.534576 0
M  V30 4742 N 441.952 1.55251 0.271103 0
M  V30 4743 C 442.902 1.84649 1.33749 0
M  V30 4744 C 443.886 0.705529 1.44607 0
M  V30 4745 O 445.078 0.966916 1.48256 0
M  V30 4746 C 442.207 2.12354 2.69742 0
M  V30 4747 C 441.293 3.32714 2.62988 0
M  V30 4748 N 441.684 4.52575 2.25853 0
M  V30 4749 C 439.982 3.35341 2.94045 0
M  V30 4750 C 440.683 5.34669 2.29136 0
M  V30 4751 N 439.659 4.73123 2.67685 0
M  V30 4752 H 443.461 2.74865 1.0405 0
M  V30 4753 H 440.975 1.55152 0.479738 0
M  V30 4754 H 442.972 2.31572 3.4667 0
M  V30 4755 H 441.632 1.23422 3.00328 0
M  V30 4756 H 442.643 4.78639 1.978 0
M  V30 4757 H 439.32 2.56608 3.2933 0
M  V30 4758 H 440.71 6.40509 2.02971 0
M  V30 4759 N 443.43 -0.535701 1.48216 0
M  V30 4760 C 444.393 -1.623 1.61838 0
M  V30 4761 C 445.393 -1.53087 0.492024 0
M  V30 4762 O 446.583 -1.5686 0.757668 0
M  V30 4763 C 443.715 -3.01907 1.58319 0
M  V30 4764 H 444.908 -1.51564 2.58783 0
M  V30 4765 H 442.461 -0.757317 1.36727 0
M  V30 4766 H 443.196 -3.18155 0.628299 0
M  V30 4767 H 442.981 -3.10003 2.40085 0
M  V30 4768 H 444.471 -3.80969 1.71033 0
M  V30 4769 N 444.908 -1.36708 -0.784132 0
M  V30 4770 C 445.858 -1.2799 -1.88686 0
M  V30 4771 C 446.842 -0.170282 -1.59996 0
M  V30 4772 O 448.034 -0.403571 -1.72338 0
M  V30 4773 C 445.163 -1.07674 -3.25977 0
M  V30 4774 C 444.249 -2.23127 -3.60659 0
M  V30 4775 N 444.64 -3.48467 -3.66612 0
M  V30 4776 C 442.938 -2.15009 -3.90752 0
M  V30 4777 C 443.639 -4.24525 -3.97685 0
M  V30 4778 N 442.615 -3.53524 -4.12943 0
M  V30 4779 H 446.417 -2.22927 -1.91522 0
M  V30 4780 H 443.931 -1.29503 -0.979933 0
M  V30 4781 H 445.928 -0.995151 -4.04849 0
M  V30 4782 H 444.588 -0.13643 -3.24413 0
M  V30 4783 H 445.599 -3.82534 -3.49125 0
M  V30 4784 H 442.276 -1.28963 -3.97083 0
M  V30 4785 H 443.666 -5.32944 -4.0917 0
M  V30 4786 N 446.386 1.0089 -1.21074 0
M  V30 4787 C 447.616 1.77933 -1.04993 0
M  V30 4788 C 448.024 1.84847 0.403495 0
M  V30 4789 O 447.367 1.30606 1.29181 0
M  V30 4790 C 447.429 3.23541 -1.56722 0
M  V30 4791 C 447.093 3.40214 -3.05129 0
M  V30 4792 C 448.09 3.2881 -4.02716 0
M  V30 4793 C 445.775 3.65781 -3.44252 0
M  V30 4794 C 447.769 3.42732 -5.37414 0
M  V30 4795 C 445.456 3.79346 -4.79103 0
M  V30 4796 C 446.454 3.67827 -5.75493 0
M  V30 4797 O 446.142 3.80965 -7.07899 0
M  V30 4798 H 445.874 0.566157 -0.369381 0
M  V30 4799 H 448.428 1.27826 -1.60779 0
M  V30 4800 H 446.658 3.74766 -0.953285 0
M  V30 4801 H 448.347 3.82245 -1.36543 0
M  V30 4802 H 449.113 3.08986 -3.73835 0
M  V30 4803 H 444.992 3.73831 -2.69762 0
M  V30 4804 H 448.536 3.33658 -6.12632 0
M  V30 4805 H 444.433 3.98672 -5.07672 0
M  V30 4806 H 445.201 3.97937 -7.15254 0
M  V30 4807 N 447.864 1.01787 1.20321 0
M  V30 4808 C 449.092 0.727194 1.937 0
M  V30 4809 C 449.507 -0.712305 1.74848 0
M  V30 4810 O 448.864 -1.48327 1.06327 0
M  V30 4811 C 448.915 1.05497 3.45764 0
M  V30 4812 O 448.636 2.43794 3.64 0
M  V30 4813 C 450.137 0.785534 4.36285 0
M  V30 4814 H 447.357 0.266939 0.615617 0
M  V30 4815 H 449.901 1.35939 1.52777 0
M  V30 4816 H 448.056 0.468158 3.84561 0
M  V30 4817 H 448.47 2.55656 4.57974 0
M  V30 4818 H 449.944 1.06495 5.4163 0
M  V30 4819 H 450.421 -0.280273 4.38305 0
M  V30 4820 H 451.027 1.35456 4.03152 0
M  V30 4821 N 449.342 -1.36122 0.79427 0
M  V30 4822 C 450.252 -2.33769 0.197296 0
M  V30 4823 C 451.268 -1.61276 -0.653153 0
M  V30 4824 O 452.444 -1.9323 -0.5678 0
M  V30 4825 C 449.509 -3.40474 -0.654098 0
M  V30 4826 C 448.57 -4.28759 0.215411 0
M  V30 4827 C 447.803 -5.30368 -0.595443 0
M  V30 4828 O 448.026 -5.40211 -1.83107 0
M  V30 4829 O 446.96 -6.019 0.00721351 0
M  V30 4830 H 450.786 -2.86597 1.00478 0
M  V30 4831 H 448.371 -1.38676 0.555818 0
M  V30 4832 H 450.253 -4.05703 -1.13944 0
M  V30 4833 H 448.928 -2.89937 -1.43938 0
M  V30 4834 H 447.835 -3.66554 0.747615 0
M  V30 4835 H 449.168 -4.82661 0.964332 0
M  V30 4836 N 450.82 -0.546701 -1.47814 0
M  V30 4837 C 451.783 0.196287 -2.28358 0
M  V30 4838 C 452.783 0.852437 -1.36346 0
M  V30 4839 O 453.973 0.709913 -1.59078 0
M  V30 4840 C 451.105 1.28579 -3.15722 0
M  V30 4841 H 452.298 -0.511086 -2.95513 0
M  V30 4842 H 449.851 -0.303248 -1.5333 0
M  V30 4843 H 450.586 2.0259 -2.53235 0
M  V30 4844 H 450.371 0.820229 -3.83425 0
M  V30 4845 H 451.861 1.80793 -3.76435 0
M  V30 4846 N 452.299 1.55045 -0.282633 0
M  V30 4847 C 453.576 1.9179 0.384166 0
M  V30 4848 C 453.956 1.20778 1.73136 0
M  V30 4849 O 453.304 0.33719 2.25998 0
M  V30 4850 C 453.514 3.45149 0.517014 0
M  V30 4851 C 454.862 4.17064 0.796427 0
M  V30 4852 O 455.886 3.51084 0.601535 0
M  V30 4853 O 454.745 5.33837 1.16962 0
M  V30 4854 H 451.839 0.799483 0.211558 0
M  V30 4855 H 454.385 1.66474 -0.32934 0
M  V30 4856 H 453.157 3.88922 -0.430772 0
M  V30 4857 H 452.78 3.76443 1.2797 0
M  V30 4858 N 453.777 0.010035 1.57597 0
M  V30 4859 C 455.054 -0.710296 1.82248 0
M  V30 4860 C 455.434 -1.91426 0.889911 0
M  V30 4861 O 454.782 -2.28424 -0.0590292 0
M  V30 4862 C 454.992 -1.10655 3.30993 0
M  V30 4863 C 456.34 -1.50621 3.96987 0
M  V30 4864 O 457.364 -1.20007 3.35375 0
M  V30 4865 O 456.223 -2.07587 5.05539 0
M  V30 4866 H 453.317 -0.34673 0.750804 0
M  V30 4867 H 455.863 0.0362578 1.69661 0
M  V30 4868 H 454.635 -0.248826 3.90508 0
M  V30 4869 H 454.258 -1.91189 3.48615 0
M  V30 4870 N 455.255 -1.55392 -0.262866 0
M  V30 4871 C 456.532 -1.67204 -1.01499 0
M  V30 4872 C 456.912 -0.545186 -2.03939 0
M  V30 4873 O 456.26 0.453467 -2.23955 0
M  V30 4874 C 456.47 -3.06847 -1.6627 0
M  V30 4875 C 457.818 -3.64928 -2.17054 0
M  V30 4876 O 458.842 -3.09545 -1.76239 0
M  V30 4877 O 457.701 -4.61984 -2.91947 0
M  V30 4878 H 454.795 -0.679467 -0.471438 0
M  V30 4879 H 457.341 -1.67729 -0.257918 0
M  V30 4880 H 456.113 -3.80309 -0.920915 0
M  V30 4881 H 455.736 -3.10266 -2.48638 0
M  V30 4882 N 456.733 0.527833 -1.48498 0
M  V30 4883 C 458.01 1.28905 -1.47115 0
M  V30 4884 C 458.39 2.10297 -0.184007 0
M  V30 4885 O 457.738 2.12728 0.834218 0
M  V30 4886 C 457.948 2.16866 -2.73441 0
M  V30 4887 C 459.296 2.76936 -3.21857 0
M  V30 4888 O 460.32 2.27152 -2.74373 0
M  V30 4889 O 459.179 3.67496 -4.04486 0
M  V30 4890 H 456.273 0.581918 -0.587623 0
M  V30 4891 H 458.819 0.544311 -1.60734 0
M  V30 4892 H 457.591 1.56521 -3.58632 0
M  V30 4893 H 457.214 2.98583 -2.62553 0
M  V30 4894 N 458.211 1.37122 0.776871 0
M  V30 4895 C 459.458 1.32047 1.53524 0
M  V30 4896 C 459.786 -0.0965631 1.9426 0
M  V30 4897 O 459.041 -1.06866 1.63945 0
M  V30 4898 C 459.34 2.20068 2.81611 0
M  V30 4899 C 459.006 3.68423 2.59953 0
M  V30 4900 C 457.668 4.08854 2.53755 0
M  V30 4901 C 460.02 4.62431 2.40431 0
M  V30 4902 C 457.348 5.41417 2.26018 0
M  V30 4903 C 459.7 5.95225 2.14219 0
M  V30 4904 C 458.364 6.34767 2.06462 0
M  V30 4905 H 457.634 0.483196 0.561785 0
M  V30 4906 H 460.281 1.69284 0.895268 0
M  V30 4907 H 458.586 1.75809 3.50141 0
M  V30 4908 H 460.283 2.13458 3.39465 0
M  V30 4909 H 456.873 3.36354 2.65638 0
M  V30 4910 H 461.057 4.32057 2.44213 0
M  V30 4911 H 456.313 5.71022 2.18504 0
M  V30 4912 H 460.487 6.67626 1.98112 0
M  V30 4913 H 458.114 7.37413 1.84733 0
M  V30 4914 N 459.689 -1.00246 1.21608 0
M  V30 4915 C 460.599 -2.12515 0.993709 0
M  V30 4916 C 461.615 -1.73913 -0.0549939 0
M  V30 4917 O 462.791 -2.00943 0.135619 0
M  V30 4918 C 459.856 -3.42083 0.563953 0
M  V30 4919 C 458.917 -3.94843 1.68516 0
M  V30 4920 C 458.15 -5.18226 1.27582 0
M  V30 4921 O 458.373 -5.70201 0.150506 0
M  V30 4922 O 457.307 -5.64497 2.0887 0
M  V30 4923 H 461.133 -2.34152 1.93407 0
M  V30 4924 H 458.718 -1.10891 1.00118 0
M  V30 4925 H 460.6 -4.20073 0.334194 0
M  V30 4926 H 459.275 -3.21828 -0.347665 0
M  V30 4927 H 458.182 -3.18068 1.96935 0
M  V30 4928 H 459.515 -4.19512 2.5743 0
M  V30 4929 N 461.167 -1.02423 -1.1978 0
M  V30 4930 C 462.578 -0.748389 -1.71044 0
M  V30 4931 C 462.929 0.732398 -1.82017 0
M  V30 4932 O 462.054 1.57116 -1.48807 0
M  V30 4933 C 462.649 -1.35187 -3.1066 0
M  V30 4934 C 461.208 -1.12472 -3.59203 0
M  V30 4935 C 460.355 -1.45283 -2.36195 0
M  V30 4936 H 463.306 -1.19275 -1.04686 0
M  V30 4937 H 463.327 -0.746408 -3.73107 0
M  V30 4938 H 462.839 -2.4296 -3.02642 0
M  V30 4939 H 460.94 -0.0649983 -3.72543 0
M  V30 4940 H 461.053 -1.81016 -4.43588 0
M  V30 4941 H 459.417 -0.872034 -2.39307 0
M  V30 4942 H 460.2 -2.54129 -2.30811 0
M  V30 4943 N 462.645 1.35699 -0.801477 0
M  V30 4944 C 463.595 2.2728 -0.181073 0
M  V30 4945 C 464.579 1.47533 0.642098 0
M  V30 4946 O 465.771 1.69785 0.500193 0
M  V30 4947 C 462.9 3.36626 0.673612 0
M  V30 4948 C 461.986 4.23802 -0.159008 0
M  V30 4949 N 462.377 4.90879 -1.2195 0
M  V30 4950 C 460.675 4.45959 0.0602005 0
M  V30 4951 C 461.376 5.5546 -1.72738 0
M  V30 4952 N 460.352 5.33663 -1.03465 0
M  V30 4953 H 464.154 2.76632 -0.992582 0
M  V30 4954 H 461.668 1.49166 -0.642127 0
M  V30 4955 H 463.665 4.01179 1.13408 0
M  V30 4956 H 462.325 2.88828 1.48353 0
M  V30 4957 H 463.336 4.92497 -1.60209 0
M  V30 4958 H 460.013 4.08969 0.839664 0
M  V30 4959 H 461.403 6.18991 -2.61342 0
M  V30 4960 N 464.123 0.554532 1.47522 0
M  V30 4961 C 465.086 -0.184174 2.28459 0
M  V30 4962 C 466.086 -0.845195 1.36796 0
M  V30 4963 O 467.276 -0.701467 1.59452 0
M  V30 4964 C 464.408 -1.26903 3.16399 0
M  V30 4965 H 465.601 0.526751 2.95238 0
M  V30 4966 H 463.154 0.311375 1.53167 0
M  V30 4967 H 463.889 -2.01244 2.54306 0
M  V30 4968 H 463.674 -0.799883 3.83854 0
M  V30 4969 H 465.164 -1.78794 3.77389 0
M  V30 4970 N 465.601 -1.54893 0.290851 0
M  V30 4971 C 466.85 -1.99111 -0.322113 0
M  V30 4972 C 467.163 -1.18283 -1.55784 0
M  V30 4973 O 468.369 -1.5272 -2.24475 0
M  V30 4974 C 466.825 -3.54442 -0.624438 0
M  V30 4975 C 466.433 -4.44066 0.592373 0
M  V30 4976 C 468.177 -4.07211 -1.19916 0
M  V30 4977 C 466.084 -5.90812 0.263762 0
M  V30 4978 H 465.014 -0.743712 -0.124133 0
M  V30 4979 H 467.665 -1.79132 0.39797 0
M  V30 4980 H 466.047 -3.70281 -1.40384 0
M  V30 4981 H 467.221 -4.39999 1.36886 0
M  V30 4982 H 465.536 -4.02015 1.08502 0
M  V30 4983 H 468.133 -5.14407 -1.45909 0
M  V30 4984 H 468.476 -3.57196 -2.13815 0
M  V30 4985 H 469.009 -3.94873 -0.481687 0
M  V30 4986 H 465.748 -6.44955 1.17105 0
M  V30 4987 H 465.268 -5.97911 -0.475655 0
M  V30 4988 H 466.947 -6.46852 -0.138354 0
M  V30 4989 N 467.08 -0.0183926 -1.57589 0
M  V30 4990 C 468.329 0.66185 -1.90532 0
M  V30 4991 C 468.642 1.73904 -0.895366 0
M  V30 4992 O 469.848 2.47518 -1.11566 0
M  V30 4993 C 468.304 1.22844 -3.38286 0
M  V30 4994 C 467.912 0.185103 -4.47617 0
M  V30 4995 C 469.656 1.88581 -3.80312 0
M  V30 4996 C 467.563 0.762723 -5.86461 0
M  V30 4997 H 466.493 0.250972 -0.711006 0
M  V30 4998 H 469.144 -0.0819435 -1.83317 0
M  V30 4999 H 467.526 2.0235 -3.40398 0
M  V30 5000 H 468.7 -0.58671 -4.5705 0
M  V30 5001 H 467.015 -0.372889 -4.14727 0
M  V30 5002 H 469.612 2.32735 -4.81392 0
M  V30 5003 H 469.955 2.72408 -3.14801 0
M  V30 5004 H 470.488 1.15782 -3.80578 0
M  V30 5005 H 467.227 -0.0371713 -6.55489 0
M  V30 5006 H 466.747 1.50327 -5.80656 0
M  V30 5007 H 468.426 1.25576 -6.34697 0
M  V30 5008 N 468.558 1.5553 0.254621 0
M  V30 5009 C 469.974 1.4778 0.602753 0
M  V30 5010 C 470.174 0.707047 1.88688 0
M  V30 5011 O 469.23 0.233288 2.5142 0
M  V30 5012 C 470.543 2.92133 0.712648 0
M  V30 5013 C 472.091 3.02458 0.805488 0
M  V30 5014 C 472.566 4.48102 0.947009 0
M  V30 5015 N 474.057 4.52008 1.01207 0
M  V30 5016 C 474.792 5.61939 1.1407 0
M  V30 5017 N 474.288 6.81697 1.23536 0
M  V30 5018 N 476.081 5.49719 1.17325 0
M  V30 5019 H 468.232 2.04085 -0.588463 0
M  V30 5020 H 470.495 0.926229 -0.202001 0
M  V30 5021 H 470.201 3.51332 -0.160766 0
M  V30 5022 H 470.075 3.42187 1.58707 0
M  V30 5023 H 472.462 2.43344 1.66936 0
M  V30 5024 H 472.543 2.55627 -0.0939266 0
M  V30 5025 H 472.187 5.07824 0.087725 0
M  V30 5026 H 472.117 4.92607 1.86135 0
M  V30 5027 H 474.608 3.65749 0.950577 0
M  V30 5028 H 474.921 7.61228 1.33236 0
M  V30 5029 H 473.266 6.84473 1.20508 0
M  V30 5030 H 476.457 4.55095 1.09573 0
M  V30 5031 H 476.63 6.35432 1.27005 0
M  V30 5032 N 470.036 -0.519951 1.48776 0
M  V30 5033 C 470.986 -1.61995 1.60442 0
M  V30 5034 C 471.97 -1.54155 0.460991 0
M  V30 5035 O 473.162 -1.62006 0.712965 0
M  V30 5036 C 470.291 -3.00683 1.65664 0
M  V30 5037 C 469.377 -3.1359 2.8552 0
M  V30 5038 N 469.768 -2.96441 4.09825 0
M  V30 5039 C 468.066 -3.44662 2.83062 0
M  V30 5040 C 468.767 -3.1303 4.90293 0
M  V30 5041 N 467.743 -3.41058 4.23297 0
M  V30 5042 H 471.545 -1.47362 2.54287 0
M  V30 5043 H 469.059 -0.725649 1.45286 0
M  V30 5044 H 471.056 -3.79712 1.72117 0
M  V30 5045 H 469.716 -3.16401 0.729425 0
M  V30 5046 H 470.727 -2.72999 4.40104 0
M  V30 5047 H 467.404 -3.66675 1.9964 0
M  V30 5048 H 468.794 -3.04424 5.98979 0
M  V30 5049 N 471.514 -1.37532 -0.769588 0
M  V30 5050 C 472.742 -1.36059 -1.55871 0
M  V30 5051 C 473.157 0.053544 -1.88724 0
M  V30 5052 O 472.514 1.01591 -1.5161 0
M  V30 5053 C 472.565 -2.20107 -2.86767 0
M  V30 5054 O 472.286 -3.56009 -2.55321 0
M  V30 5055 C 473.787 -2.26636 -3.80987 0
M  V30 5056 H 471.007 -0.465967 -0.482821 0
M  V30 5057 H 473.551 -1.80901 -0.953686 0
M  V30 5058 H 471.706 -1.78768 -3.43687 0
M  V30 5059 H 472.12 -4.0009 -3.39158 0
M  V30 5060 H 473.594 -2.89763 -4.69831 0
M  V30 5061 H 474.071 -1.2754 -4.20274 0
M  V30 5062 H 474.677 -2.68296 -3.29996 0
M  V30 5063 N 472.992 0.995999 -1.22138 0
M  V30 5064 C 474.241 1.72928 -1.03821 0
M  V30 5065 C 474.554 1.90872 0.427444 0
M  V30 5066 O 475.76 2.61496 0.730212 0
M  V30 5067 C 474.216 3.11124 -1.80913 0
M  V30 5068 C 473.824 3.01122 -3.31707 0
M  V30 5069 C 475.568 3.8852 -1.71035 0
M  V30 5070 C 473.475 4.34453 -4.01253 0
M  V30 5071 H 472.405 0.648376 -0.384869 0
M  V30 5072 H 475.056 1.11213 -1.45959 0
M  V30 5073 H 473.438 3.73503 -1.31573 0
M  V30 5074 H 474.612 2.47926 -3.88419 0
M  V30 5075 H 472.927 2.3721 -3.42228 0
M  V30 5076 H 475.524 4.872 -2.20318 0
M  V30 5077 H 475.867 4.1087 -0.670196 0
M  V30 5078 H 476.4 3.32812 -2.17902 0
M  V30 5079 H 473.139 4.17303 -5.05508 0
M  V30 5080 H 472.659 4.87574 -3.49331 0
M  V30 5081 H 474.338 5.03215 -4.06674 0
M  V30 5082 N 474.47 1.03057 1.19235 0
M  V30 5083 C 475.886 0.747947 1.40989 0
M  V30 5084 C 476.086 -0.666752 1.90149 0
M  V30 5085 O 475.142 -1.43249 2.07933 0
M  V30 5086 C 476.455 1.7855 2.41951 0
M  V30 5087 C 478.003 1.80524 2.55695 0
M  V30 5088 C 478.478 2.83243 3.59913 0
M  V30 5089 N 479.969 2.8207 3.67411 0
M  V30 5090 C 480.704 3.58204 4.47747 0
M  V30 5091 N 480.2 4.44057 5.31775 0
M  V30 5092 N 481.993 3.46738 4.42413 0
M  V30 5093 H 474.144 1.94367 0.856468 0
M  V30 5094 H 476.407 0.840412 0.438647 0
M  V30 5095 H 476.113 2.79973 2.12857 0
M  V30 5096 H 475.987 1.6092 3.41152 0
M  V30 5097 H 478.374 0.79778 2.84112 0
M  V30 5098 H 478.455 2.02229 1.56643 0
M  V30 5099 H 478.099 3.84161 3.32239 0
M  V30 5100 H 478.029 2.58795 4.5862 0
M  V30 5101 H 480.52 2.19803 3.074 0
M  V30 5102 H 480.833 4.98884 5.90199 0
M  V30 5103 H 479.178 4.48129 5.3123 0
M  V30 5104 H 482.369 2.79077 3.75811 0
M  V30 5105 H 482.542 4.06322 5.04783 0
M  V30 5106 N 475.948 -1.35272 0.808662 0
M  V30 5107 C 477.173 -2.03477 0.401475 0
M  V30 5108 C 477.598 -1.60537 -0.980279 0
M  V30 5109 O 476.956 -0.78304 -1.63518 0
M  V30 5110 C 477.004 -3.57181 0.495354 0
M  V30 5111 O 476.108 -4.09474 -0.490397 0
M  V30 5112 H 475.449 -0.642561 0.167366 0
M  V30 5113 H 477.979 -1.72824 1.09512 0
M  V30 5114 H 477.989 -4.06356 0.365912 0
M  V30 5115 H 476.664 -3.87784 1.5032 0
M  V30 5116 H 475.241 -3.71516 -0.321023 0
M  V30 5117 N 477.426 -0.562348 -1.47226 0
M  V30 5118 C 478.654 -0.0452275 -2.06851 0
M  V30 5119 C 479.069 1.25078 -1.41424 0
M  V30 5120 O 478.426 1.75156 -0.512513 0
M  V30 5121 C 478.477 0.148674 -3.61194 0
M  V30 5122 O 478.198 -1.09602 -4.24169 0
M  V30 5123 C 479.699 0.702488 -4.37699 0
M  V30 5124 H 476.919 -0.0481775 -0.669268 0
M  V30 5125 H 479.463 -0.777223 -1.89155 0
M  V30 5126 H 477.618 0.830817 -3.78386 0
M  V30 5127 H 478.032 -0.896982 -5.16773 0
M  V30 5128 H 479.506 0.78743 -5.46355 0
M  V30 5129 H 479.983 1.71493 -4.04335 0
M  V30 5130 H 480.589 0.0558772 -4.25263 0
M  V30 5131 N 478.904 1.54736 -0.299062 0
M  V30 5132 C 479.852 2.24897 0.593658 0
M  V30 5133 C 480.846 1.25429 1.13859 0
M  V30 5134 O 482.052 1.43286 1.08945 0
M  V30 5135 H 478.427 0.72207 0.210046 0
M  V30 5136 H 480.398 2.98393 -0.0206421 0
M  V30 5137 C 479.147 3.00159 1.75499 0
M  V30 5138 H 478.47 3.76501 1.34489 0
M  V30 5139 H 479.91 3.52535 2.35574 0
M  V30 5140 C 478.369 2.07015 2.65794 0
M  V30 5141 O 478.899 1.63692 3.66835 0
M  V30 5142 N 477.105 1.73012 2.33485 0
M  V30 5143 H 476.652 2.08439 1.51364 0
M  V30 5144 H 476.61 1.10965 2.94167 0
M  V30 5145 N 480.382 0.0267497 1.57577 0
M  V30 5146 C 481.798 -0.32962 1.56159 0
M  V30 5147 C 481.998 -1.73059 1.03213 0
M  V30 5148 O 481.054 -2.43233 0.677804 0
M  V30 5149 C 482.367 -0.18039 3.00158 0
M  V30 5150 C 483.915 -0.253334 3.11973 0
M  V30 5151 C 484.39 -0.132921 4.57807 0
M  V30 5152 N 485.881 -0.189979 4.6281 0
M  V30 5153 C 486.616 -0.120554 5.73273 0
M  V30 5154 N 486.112 -0.000180315 6.928 0
M  V30 5155 N 487.905 -0.174369 5.61829 0
M  V30 5156 H 480.056 0.942896 1.90324 0
M  V30 5157 H 482.319 0.3639 0.875375 0
M  V30 5158 H 482.025 0.784576 3.42837 0
M  V30 5159 H 481.899 -0.951565 3.65 0
M  V30 5160 H 484.286 -1.20876 2.69208 0
M  V30 5161 H 484.367 0.548177 2.49857 0
M  V30 5162 H 484.011 0.819073 5.01252 0
M  V30 5163 H 483.941 -0.953264 5.179 0
M  V30 5164 H 486.432 -0.283257 3.76837 0
M  V30 5165 H 486.745 0.0461666 7.72786 0
M  V30 5166 H 485.09 0.034569 6.94991 0
M  V30 5167 H 488.281 -0.266794 4.67339 0
M  V30 5168 H 488.454 -0.116802 6.47895 0
M  V30 5169 N 481.861 -1.55662 -0.24637 0
M  V30 5170 C 482.809 -1.91186 -1.3248 0
M  V30 5171 C 483.803 -0.790996 -1.49799 0
M  V30 5172 O 485.009 -0.975617 -1.51267 0
M  V30 5173 H 481.384 -0.607207 -0.443626 0
M  V30 5174 H 483.355 -2.81221 -0.997853 0
M  V30 5175 C 482.104 -2.22349 -2.67313 0
M  V30 5176 H 481.427 -3.08097 -2.54786 0
M  V30 5177 H 482.867 -2.51107 -3.41645 0
M  V30 5178 C 481.326 -1.04001 -3.20446 0
M  V30 5179 O 481.856 -0.28828 -4.00664 0
M  V30 5180 N 480.062 -0.830494 -2.7848 0
M  V30 5181 H 479.609 -1.4435 -2.13356 0
M  V30 5182 H 479.567 -0.0403258 -3.14374 0
M  V30 5183 N 483.339 0.512053 -1.4905 0
M  V30 5184 C 484.302 1.59704 -1.64399 0
M  V30 5185 C 485.302 1.52285 -0.516317 0
M  V30 5186 O 486.492 1.55635 -0.782527 0
M  V30 5187 C 483.624 2.9935 -1.63102 0
M  V30 5188 H 484.817 1.47428 -2.61161 0
M  V30 5189 H 482.37 0.735469 -1.37915 0
M  V30 5190 H 483.105 3.17116 -0.678836 0
M  V30 5191 H 482.89 3.06144 -2.44986 0
M  V30 5192 H 484.38 3.782 -1.77072 0
M  V30 5193 N 484.817 1.37938 0.762283 0
M  V30 5194 C 486.233 1.18945 1.06415 0
M  V30 5195 C 486.433 0.0321163 2.01474 0
M  V30 5196 O 485.489 -0.624844 2.44647 0
M  V30 5197 C 486.802 2.51218 1.65258 0
M  V30 5198 C 488.35 2.57824 1.7747 0
M  V30 5199 C 488.825 3.90251 2.39725 0
M  V30 5200 N 490.316 3.91744 2.47166 0
M  V30 5201 C 491.051 4.90966 2.96209 0
M  V30 5202 N 490.547 6.00585 3.45354 0
M  V30 5203 N 492.34 4.78363 2.9517 0
M  V30 5204 H 484.491 2.11994 0.131301 0
M  V30 5205 H 486.754 0.940262 0.120879 0
M  V30 5206 H 486.46 3.36317 1.02878 0
M  V30 5207 H 486.334 2.68989 2.64433 0
M  V30 5208 H 488.721 1.73126 2.3898 0
M  V30 5209 H 488.802 2.43928 0.770241 0
M  V30 5210 H 488.446 4.75368 1.78852 0
M  V30 5211 H 488.376 4.01454 3.40796 0
M  V30 5212 H 490.867 3.12563 2.12397 0
M  V30 5213 H 491.18 6.72236 3.81207 0
M  V30 5214 H 489.525 6.04217 3.43434 0
M  V30 5215 H 492.716 3.91841 2.56082 0
M  V30 5216 H 492.889 5.55843 3.33081 0
M  V30 5217 N 486.295 -0.989507 1.22664 0
M  V30 5218 C 487.258 -2.06183 1.00106 0
M  V30 5219 C 488.258 -1.60765 -0.0337726 0
M  V30 5220 O 489.448 -1.72989 0.205072 0
M  V30 5221 C 486.58 -3.37021 0.51279 0
M  V30 5222 H 487.773 -2.27629 1.95256 0
M  V30 5223 H 485.326 -1.16158 1.0458 0
M  V30 5224 H 486.061 -3.21261 -0.442917 0
M  V30 5225 H 485.846 -3.71323 1.25942 0
M  V30 5226 H 487.336 -4.1591 0.375315 0
M  V30 5227 N 487.773 -1.03688 -1.18687 0
M  V30 5228 C 488.683 -0.634908 -2.25845 0
M  V30 5229 C 489.699 0.337065 -1.70704 0
M  V30 5230 O 490.875 0.192943 -2.00474 0
M  V30 5231 C 487.94 -0.000180054 -3.467 0
M  V30 5232 C 487.001 -1.02067 -4.1699 0
M  V30 5233 C 486.234 -0.41614 -5.32075 0
M  V30 5234 O 486.457 0.778712 -5.65059 0
M  V30 5235 O 485.391 -1.14296 -5.90948 0
M  V30 5236 H 489.217 -1.52757 -2.62486 0
M  V30 5237 H 486.802 -0.807533 -1.25695 0
M  V30 5238 H 488.684 0.353342 -4.19916 0
M  V30 5239 H 487.359 0.866367 -3.11891 0
M  V30 5240 H 486.266 -1.42592 -3.45859 0
M  V30 5241 H 487.599 -1.85786 -4.5579 0
M  V30 5242 N 489.251 1.34841 -0.815825 0
M  V30 5243 C 490.667 1.51543 -0.500697 0
M  V30 5244 C 490.867 1.76261 0.976444 0
M  V30 5245 O 489.923 1.8094 1.76117 0
M  V30 5246 C 491.236 2.68487 -1.35407 0
M  V30 5247 C 492.784 2.82368 -1.35046 0
M  V30 5248 C 493.259 4.02347 -2.18816 0
M  V30 5249 N 494.75 4.09542 -2.16402 0
M  V30 5250 C 495.485 5.01517 -2.77971 0
M  V30 5251 N 494.981 5.98763 -3.48503 0
M  V30 5252 N 496.774 4.94334 -2.67563 0
M  V30 5253 H 488.925 1.17055 -1.77234 0
M  V30 5254 H 491.188 0.573481 -0.754866 0
M  V30 5255 H 490.894 2.56829 -2.40274 0
M  V30 5256 H 490.768 3.63321 -1.01377 0
M  V30 5257 H 493.155 2.93471 -0.309604 0
M  V30 5258 H 493.236 1.88363 -1.73069 0
M  V30 5259 H 492.88 3.92004 -3.22948 0
M  V30 5260 H 492.81 4.95551 -1.78148 0
M  V30 5261 H 495.301 3.39932 -1.65091 0
M  V30 5262 H 495.614 6.6556 -3.92747 0
M  V30 5263 H 493.959 5.98909 -3.52609 0
M  V30 5264 H 497.15 4.1732 -2.12041 0
M  V30 5265 H 497.323 5.6582 -3.15834 0
M  V30 5266 N 490.729 0.570148 1.46925 0
M  V30 5267 C 491.957 0.0561966 2.06824 0
M  V30 5268 C 492.372 -1.24326 1.42086 0
M  V30 5269 O 491.729 -1.74882 0.521794 0
M  V30 5270 C 491.78 -0.129517 3.61268 0
M  V30 5271 O 491.501 1.1185 4.23581 0
M  V30 5272 C 493.002 -0.679266 4.38065 0
M  V30 5273 H 490.222 0.0517261 0.669003 0
M  V30 5274 H 492.766 0.787243 1.8874 0
M  V30 5275 H 490.921 -0.810739 3.78822 0
M  V30 5276 H 491.335 0.924375 5.1629 0
M  V30 5277 H 492.809 -0.758445 5.46765 0
M  V30 5278 H 493.286 -1.69346 4.05239 0
M  V30 5279 H 493.892 -0.0333237 4.25287 0
M  V30 5280 N 492.207 -1.54576 0.307264 0
M  V30 5281 C 493.17 -2.22423 -0.553224 0
M  V30 5282 C 494.17 -1.21231 -1.05639 0
M  V30 5283 O 495.36 -1.45923 -0.951419 0
M  V30 5284 C 492.492 -2.91552 -1.76664 0
M  V30 5285 H 493.685 -2.99874 0.0396484 0
M  V30 5286 H 491.238 -1.56192 0.0581629 0
M  V30 5287 H 491.973 -2.18196 -2.39918 0
M  V30 5288 H 491.758 -3.65738 -1.41343 0
M  V30 5289 H 493.248 -3.43292 -2.37783 0
M  V30 5290 N 493.685 -0.035106 -1.57561 0
M  V30 5291 C 494.91 0.655802 -1.96759 0
M  V30 5292 C 495.335 1.64523 -0.911809 0
M  V30 5293 O 494.693 1.80857 0.126673 0
M  V30 5294 C 494.741 1.33326 -3.35047 0
M  V30 5295 O 493.845 2.44866 -3.31835 0
M  V30 5296 H 493.186 0.171807 -0.641388 0
M  V30 5297 H 495.716 -0.0987369 -2.04362 0
M  V30 5298 H 495.726 1.68867 -3.71413 0
M  V30 5299 H 494.401 0.608033 -4.11431 0
M  V30 5300 H 492.978 2.11392 -3.07193 0
M  V30 5301 N 495.163 1.55791 0.238111 0
M  V30 5302 C 496.073 1.94196 1.31625 0
M  V30 5303 C 497.089 0.843545 1.52185 0
M  V30 5304 O 498.265 1.1457 1.65637 0
M  V30 5305 C 495.33 2.2365 2.64918 0
M  V30 5306 C 494.391 3.46971 2.52804 0
M  V30 5307 C 493.624 3.7501 3.79741 0
M  V30 5308 O 493.847 3.04982 4.82019 0
M  V30 5309 O 492.781 4.68525 3.77846 0
M  V30 5310 H 496.607 2.86044 1.02043 0
M  V30 5311 H 494.192 1.42786 0.439603 0
M  V30 5312 H 496.074 2.43863 3.4367 0
M  V30 5313 H 494.749 1.34979 2.94215 0
M  V30 5314 H 493.656 3.32055 1.72309 0
M  V30 5315 H 494.989 4.35971 2.28451 0
M  V30 5316 N 496.642 -0.504142 1.49319 0
M  V30 5317 C 497.891 -1.25507 1.57895 0
M  V30 5318 C 498.204 -1.93735 0.269433 0
M  V30 5319 O 499.41 -2.70492 0.233706 0
M  V30 5320 C 497.866 -2.27869 2.78574 0
M  V30 5321 C 497.474 -1.65594 4.16272 0
M  V30 5322 C 499.218 -3.0381 2.96479 0
M  V30 5323 C 497.125 -2.66048 5.28178 0
M  V30 5324 H 496.055 -0.47212 0.587894 0
M  V30 5325 H 498.706 -0.52931 1.757 0
M  V30 5326 H 497.088 -3.03594 2.54257 0
M  V30 5327 H 498.262 -0.958826 4.50714 0
M  V30 5328 H 496.577 -1.02055 4.037 0
M  V30 5329 H 499.174 -3.78925 3.77253 0
M  V30 5330 H 499.517 -3.61235 2.06918 0
M  V30 5331 H 500.05 -2.352 3.20821 0
M  V30 5332 H 496.789 -2.13408 6.19788 0
M  V30 5333 H 496.309 -3.34009 4.98195 0
M  V30 5334 H 497.988 -3.28536 5.57381 0
M  V30 5335 N 498.12 -1.38341 -0.754957 0
M  V30 5336 C 499.068 -1.35573 -1.89005 0
M  V30 5337 C 500.062 -0.241824 -1.67665 0
M  V30 5338 O 501.268 -0.410785 -1.7525 0
M  V30 5339 H 497.643 -0.422898 -0.621821 0
M  V30 5340 H 499.614 -2.31359 -1.88455 0
M  V30 5341 C 498.363 -1.19631 -3.26471 0
M  V30 5342 H 497.686 -2.04605 -3.43477 0
M  V30 5343 H 499.126 -1.21748 -4.06144 0
M  V30 5344 C 497.585 0.0968705 -3.36761 0
M  V30 5345 O 498.115 1.07439 -3.87066 0
M  V30 5346 N 496.321 0.153242 -2.90196 0
M  V30 5347 H 495.868 -0.642908 -2.49448 0
M  V30 5348 H 495.826 1.01807 -2.9746 0
M  V30 5349 N 499.598 0.982988 -1.23187 0
M  V30 5350 C 500.845 1.72392 -1.06241 0
M  V30 5351 C 501.173 1.9032 0.40108 0
M  V30 5352 O 500.428 1.45084 1.31336 0
M  V30 5353 C 500.727 3.12736 -1.73006 0
M  V30 5354 C 500.393 3.14695 -3.22921 0
M  V30 5355 C 499.055 3.14937 -3.63824 0
M  V30 5356 C 501.407 3.10211 -4.1883 0
M  V30 5357 C 498.735 3.08408 -4.99101 0
M  V30 5358 C 501.087 3.05224 -5.54095 0
M  V30 5359 C 499.751 3.03787 -5.94365 0
M  V30 5360 H 499.021 0.630829 -0.388762 0
M  V30 5361 H 501.668 1.15053 -1.53085 0
M  V30 5362 H 499.973 3.73446 -1.18514 0
M  V30 5363 H 501.67 3.68828 -1.57374 0
M  V30 5364 H 498.26 3.15262 -2.90358 0
M  V30 5365 H 502.444 3.09166 -3.8824 0
M  V30 5366 H 497.7 3.05646 -5.29519 0
M  V30 5367 H 501.874 3.00712 -6.28128 0
M  V30 5368 H 499.501 2.98483 -6.99151 0
M  V30 5369 N 501.076 1.04316 1.18135 0
M  V30 5370 C 502.353 0.662166 1.84051 0
M  V30 5371 C 502.733 -0.858169 1.9287 0
M  V30 5372 O 502.081 -1.76062 1.45652 0
M  V30 5373 C 502.291 1.3409 3.22212 0
M  V30 5374 C 503.639 1.4733 3.9822 0
M  V30 5375 O 504.663 1.29921 3.31661 0
M  V30 5376 O 503.522 1.75722 5.17479 0
M  V30 5377 H 500.616 0.232005 0.79379 0
M  V30 5378 H 503.162 1.1422 1.25506 0
M  V30 5379 H 501.934 2.37853 3.10711 0
M  V30 5380 H 501.557 0.849649 3.88416 0
M  V30 5381 N 502.554 -1.34406 0.822964 0
M  V30 5382 C 503.501 -2.29519 0.24284 0
M  V30 5383 C 504.471 -1.5359 -0.632397 0
M  V30 5384 O 505.656 -1.8196 -0.57403 0
M  V30 5385 C 502.796 -3.40032 -0.58925 0
M  V30 5386 C 501.909 -4.30899 0.308236 0
M  V30 5387 C 501.044 -5.28515 -0.533425 0
M  V30 5388 C 500.083 -6.1102 0.363444 0
M  V30 5389 N 499.22 -7.00725 -0.439147 0
M  V30 5390 H 504.06 -2.78537 1.05929 0
M  V30 5391 H 501.597 -1.3707 0.533872 0
M  V30 5392 H 503.555 -4.0279 -1.087 0
M  V30 5393 H 502.185 -2.92248 -1.37081 0
M  V30 5394 H 501.237 -3.69002 0.924203 0
M  V30 5395 H 502.549 -4.88717 0.997862 0
M  V30 5396 H 501.703 -5.96725 -1.09565 0
M  V30 5397 H 500.442 -4.71235 -1.25656 0
M  V30 5398 H 499.447 -5.41743 0.937812 0
M  V30 5399 H 500.672 -6.70381 1.08469 0
M  V30 5400 H 498.618 -6.45913 -1.14595 0
M  V30 5401 H 498.535 -7.55756 0.19209 0
M  V30 5402 H 499.803 -7.73263 -0.984124 0
M  V30 5403 N 504.032 -0.577932 -1.46621 0
M  V30 5404 C 504.962 0.145917 -2.33044 0
M  V30 5405 C 505.943 0.888412 -1.45056 0
M  V30 5406 O 507.128 0.864812 -1.73881 0
M  V30 5407 C 504.258 1.16322 -3.27241 0
M  V30 5408 C 503.212 0.535868 -4.24632 0
M  V30 5409 C 502.538 1.65929 -5.08303 0
M  V30 5410 C 503.838 -0.523861 -5.19666 0
M  V30 5411 H 505.532 -0.575636 -2.93814 0
M  V30 5412 H 503.078 -0.278272 -1.41286 0
M  V30 5413 H 505.031 1.67793 -3.86553 0
M  V30 5414 H 503.755 1.91498 -2.64567 0
M  V30 5415 H 502.414 0.0422759 -3.66576 0
M  V30 5416 H 502.062 2.40061 -4.42018 0
M  V30 5417 H 501.762 1.2452 -5.74255 0
M  V30 5418 H 503.286 2.17686 -5.70478 0
M  V30 5419 H 504.7 -0.0944059 -5.73222 0
M  V30 5420 H 503.097 -0.858 -5.93935 0
M  V30 5421 H 504.167 -1.41197 -4.63887 0
M  V30 5422 N 505.51 1.54411 -0.315457 0
M  V30 5423 C 506.442 2.21527 0.588067 0
M  V30 5424 C 507.455 1.21263 1.08624 0
M  V30 5425 O 508.644 1.47777 1.00121 0
M  V30 5426 C 505.744 2.85963 1.81875 0
M  V30 5427 C 504.917 4.12291 1.46063 0
M  V30 5428 C 503.976 4.60396 2.54799 0
M  V30 5429 O 503.002 5.25265 2.19283 0
M  V30 5430 N 504.204 4.33935 3.85591 0
M  V30 5431 H 506.969 2.99697 0.013414 0
M  V30 5432 H 504.53 1.61308 -0.138295 0
M  V30 5433 H 506.522 3.15071 2.53993 0
M  V30 5434 H 505.092 2.11548 2.30144 0
M  V30 5435 H 504.312 3.90036 0.571445 0
M  V30 5436 H 505.6 4.9452 1.19695 0
M  V30 5437 H 504.998 3.81996 4.17248 0
M  V30 5438 H 503.555 4.67718 4.53964 0
M  V30 5439 N 506.988 0.0434614 1.5754 0
M  V30 5440 C 508.235 -0.632035 1.92384 0
M  V30 5441 C 508.563 -1.71304 0.921157 0
M  V30 5442 O 507.818 -1.95583 -0.067744 0
M  V30 5443 C 508.117 -1.2738 3.3393 0
M  V30 5444 C 507.783 -0.321757 4.49751 0
M  V30 5445 C 506.445 -0.0597611 4.81163 0
M  V30 5446 C 508.797 0.331158 5.20147 0
M  V30 5447 C 506.125 0.862715 5.80322 0
M  V30 5448 C 508.477 1.24178 6.20292 0
M  V30 5449 C 507.141 1.51252 6.50138 0
M  V30 5450 H 506.411 -0.231278 0.703983 0
M  V30 5451 H 509.058 0.108294 1.91194 0
M  V30 5452 H 507.363 -2.08921 3.3145 0
M  V30 5453 H 509.06 -1.80326 3.58167 0
M  V30 5454 H 505.65 -0.53614 4.25233 0
M  V30 5455 H 509.834 0.141826 4.96097 0
M  V30 5456 H 505.09 1.08003 6.01785 0
M  V30 5457 H 509.264 1.75381 6.73954 0
M  V30 5458 H 506.891 2.22897 7.26788 0
M  V30 5459 N 508.466 -1.55915 -0.229846 0
M  V30 5460 C 509.376 -1.94891 -1.30593 0
M  V30 5461 C 510.392 -0.851604 -1.51736 0
M  V30 5462 O 511.568 -1.15447 -1.65027 0
M  V30 5463 C 508.633 -2.25052 -2.63728 0
M  V30 5464 C 507.694 -3.48306 -2.5096 0
M  V30 5465 C 506.927 -3.77019 -3.77747 0
M  V30 5466 O 507.15 -3.07534 -4.80395 0
M  V30 5467 O 506.084 -4.70523 -3.75356 0
M  V30 5468 H 509.91 -2.86581 -1.00525 0
M  V30 5469 H 507.495 -1.43017 -0.432025 0
M  V30 5470 H 509.377 -2.45682 -3.42372 0
M  V30 5471 H 508.052 -1.36538 -2.93495 0
M  V30 5472 H 506.959 -3.32964 -1.70546 0
M  V30 5473 H 508.292 -4.37177 -2.26136 0
M  V30 5474 N 509.944 0.496216 -1.49584 0
M  V30 5475 C 511.355 1.07765 -1.52459 0
M  V30 5476 C 511.706 1.93679 -0.31353 0
M  V30 5477 O 510.831 2.08588 0.576186 0
M  V30 5478 C 511.426 1.96111 -2.76271 0
M  V30 5479 C 509.985 2.49409 -2.81908 0
M  V30 5480 C 509.132 1.27142 -2.46435 0
M  V30 5481 H 512.083 0.279914 -1.56212 0
M  V30 5482 H 512.104 2.80862 -2.56704 0
M  V30 5483 H 511.616 1.33555 -3.64396 0
M  V30 5484 H 509.717 3.1559 -1.98074 0
M  V30 5485 H 509.83 2.86234 -3.84196 0
M  V30 5486 H 508.194 1.59818 -1.98319 0
M  V30 5487 H 508.977 0.662866 -3.3684 0
M  V30 5488 N 511.423 1.38739 0.74761 0
M  V30 5489 C 512.834 1.31507 1.32524 0
M  V30 5490 C 513.185 -0.0263963 1.96182 0
M  V30 5491 O 512.31 -0.92849 1.95469 0
M  V30 5492 C 512.905 2.38162 2.40966 0
M  V30 5493 C 511.464 2.34489 2.94434 0
M  V30 5494 C 510.611 2.20712 1.67873 0
M  V30 5495 H 513.562 1.4901 0.546043 0
M  V30 5496 H 513.583 2.04222 3.21051 0
M  V30 5497 H 513.095 3.35783 1.94605 0
M  V30 5498 H 511.196 1.40467 3.45108 0
M  V30 5499 H 511.309 3.28861 3.48407 0
M  V30 5500 H 509.673 1.67667 1.91729 0
M  V30 5501 H 510.456 3.20285 1.23582 0
M  V30 5502 N 512.901 -0.976442 1.23707 0
M  V30 5503 C 513.831 -2.08749 1.04624 0
M  V30 5504 C 514.812 -1.70057 -0.0380956 0
M  V30 5505 O 515.997 -1.93782 0.127308 0
M  V30 5506 C 513.127 -3.41335 0.640902 0
M  V30 5507 C 512.081 -3.93947 1.67302 0
M  V30 5508 C 511.407 -5.22774 1.12301 0
M  V30 5509 C 512.707 -4.22769 3.06697 0
M  V30 5510 H 514.401 -2.24972 1.97555 0
M  V30 5511 H 511.947 -1.08108 0.951247 0
M  V30 5512 H 513.9 -4.18489 0.494434 0
M  V30 5513 H 512.624 -3.24988 -0.324099 0
M  V30 5514 H 511.283 -3.18941 1.80755 0
M  V30 5515 H 510.931 -5.0278 0.148877 0
M  V30 5516 H 510.631 -5.58942 1.81267 0
M  V30 5517 H 512.155 -6.02546 0.988479 0
M  V30 5518 H 513.569 -4.90659 2.96524 0
M  V30 5519 H 511.966 -4.70147 3.72937 0
M  V30 5520 H 513.036 -3.29885 3.55392 0
M  V30 5521 N 514.379 -1.04941 -1.1758 0
M  V30 5522 C 515.795 -0.770282 -1.39781 0
M  V30 5523 C 515.995 0.636417 -1.91186 0
M  V30 5524 O 515.051 1.39923 -2.10185 0
M  V30 5525 C 516.364 -1.82376 -2.3908 0
M  V30 5526 C 517.912 -1.84569 -2.52791 0
M  V30 5527 C 518.387 -2.88933 -3.55361 0
M  V30 5528 N 519.878 -2.8788 -3.62877 0
M  V30 5529 C 520.613 -3.65282 -4.41992 0
M  V30 5530 N 520.109 -4.52461 -5.24643 0
M  V30 5531 N 521.902 -3.53732 -4.36841 0
M  V30 5532 H 514.053 -1.95705 -0.825438 0
M  V30 5533 H 516.316 -0.847284 -0.425222 0
M  V30 5534 H 516.022 -2.83323 -2.08376 0
M  V30 5535 H 515.896 -1.66327 -3.38549 0
M  V30 5536 H 518.283 -0.842879 -2.82807 0
M  V30 5537 H 518.364 -2.04696 -1.53406 0
M  V30 5538 H 518.008 -3.89398 -3.26085 0
M  V30 5539 H 517.938 -2.66059 -4.54445 0
M  V30 5540 H 520.429 -2.24666 -3.03864 0
M  V30 5541 H 520.742 -5.08211 -5.82187 0
M  V30 5542 H 519.087 -4.56524 -5.24033 0
M  V30 5543 H 522.278 -2.85021 -3.71323 0
M  V30 5544 H 522.451 -4.14302 -4.98255 0
M  V30 5545 N 515.857 1.33968 -0.830081 0
M  V30 5546 C 516.804 2.29387 -0.255008 0
M  V30 5547 C 517.774 1.53923 0.624243 0
M  V30 5548 O 518.959 1.82262 0.564372 0
M  V30 5549 C 516.099 3.4034 0.571209 0
M  V30 5550 C 515.212 4.30729 -0.331083 0
M  V30 5551 C 514.347 5.2879 0.505389 0
M  V30 5552 C 513.386 6.10819 -0.395843 0
M  V30 5553 N 512.523 7.00948 0.401979 0
M  V30 5554 H 517.363 2.77972 -1.07404 0
M  V30 5555 H 514.9 1.36785 -0.541133 0
M  V30 5556 H 516.858 4.03361 1.06562 0
M  V30 5557 H 515.488 2.9297 1.35529 0
M  V30 5558 H 514.54 3.68507 -0.943759 0
M  V30 5559 H 515.852 4.88181 -1.02377 0
M  V30 5560 H 515.006 5.97297 1.06399 0
M  V30 5561 H 513.745 4.71894 1.23155 0
M  V30 5562 H 512.75 5.41238 -0.966529 0
M  V30 5563 H 513.975 6.69797 -1.12023 0
M  V30 5564 H 511.921 6.46512 1.11168 0
M  V30 5565 H 511.838 7.55643 -0.232167 0
M  V30 5566 H 513.106 7.73774 0.943102 0
M  V30 5567 N 517.335 0.585699 1.46312 0
M  V30 5568 C 518.245 -0.148236 2.34131 0
M  V30 5569 C 519.261 -0.882972 1.49932 0
M  V30 5570 O 520.437 -0.845484 1.82794 0
M  V30 5571 C 517.502 -1.14714 3.27172 0
M  V30 5572 C 516.563 -0.416746 4.27272 0
M  V30 5573 C 515.796 -1.36806 5.15868 0
M  V30 5574 O 516.019 -2.60475 5.07454 0
M  V30 5575 O 514.953 -0.877018 5.95476 0
M  V30 5576 H 518.779 0.572882 2.98248 0
M  V30 5577 H 516.364 0.346082 1.45336 0
M  V30 5578 H 518.246 -1.72303 3.84564 0
M  V30 5579 H 516.921 -1.84967 2.65648 0
M  V30 5580 H 515.828 0.201061 3.73559 0
M  V30 5581 H 517.161 0.244872 4.9159 0
M  V30 5582 N 518.813 -1.54241 0.323641 0
M  V30 5583 C 520.041 -2.04985 -0.280871 0
M  V30 5584 C 520.456 -1.19978 -1.45777 0
M  V30 5585 O 519.813 -0.230471 -1.81039 0
M  V30 5586 C 519.864 -3.54353 -0.715258 0
M  V30 5587 O 519.585 -4.36132 0.414817 0
M  V30 5588 C 521.086 -4.21189 -1.38257 0
M  V30 5589 H 518.306 -0.66851 -0.0577502 0
M  V30 5590 H 520.85 -1.99029 0.469852 0
M  V30 5591 H 519.005 -3.60596 -1.41596 0
M  V30 5592 H 519.419 -5.2445 0.0725227 0
M  V30 5593 H 520.893 -5.27154 -1.63745 0
M  V30 5594 H 521.37 -3.72307 -2.32989 0
M  V30 5595 H 521.976 -4.19085 -0.724447 0
M  V30 5596 N 520.291 -0.0518155 -1.57515 0
M  V30 5597 C 521.201 0.937539 -2.15052 0
M  V30 5598 C 522.217 1.34121 -1.10849 0
M  V30 5599 O 523.393 1.418 -1.4302 0
M  V30 5600 C 520.458 2.19379 -2.68466 0
M  V30 5601 C 519.519 1.84841 -3.87469 0
M  V30 5602 C 518.752 3.04477 -4.38326 0
M  V30 5603 O 518.975 4.17868 -3.88256 0
M  V30 5604 O 517.909 2.85453 -5.29906 0
M  V30 5605 H 521.735 0.478201 -2.99912 0
M  V30 5606 H 519.32 0.17012 -1.48428 0
M  V30 5607 H 521.202 2.93084 -3.02787 0
M  V30 5608 H 519.877 2.64449 -1.86677 0
M  V30 5609 H 518.784 1.08449 -3.58036 0
M  V30 5610 H 520.117 1.44569 -4.7049 0
M  V30 5611 N 521.769 1.56035 0.221574 0
M  V30 5612 C 522.732 1.91584 1.2581 0
M  V30 5613 C 523.732 0.794425 1.39805 0
M  V30 5614 O 524.922 1.06217 1.38071 0
M  V30 5615 C 522.054 2.16663 2.63192 0
M  V30 5616 H 523.247 2.8429 0.954935 0
M  V30 5617 H 520.8 1.49316 0.461988 0
M  V30 5618 H 521.535 1.26508 2.98607 0
M  V30 5619 H 521.32 2.98358 2.5441 0
M  V30 5620 H 522.81 2.45262 3.37988 0
M  V30 5621 N 523.247 -0.488276 1.49845 0
M  V30 5622 C 524.663 -0.820566 1.3689 0
M  V30 5623 C 524.863 -1.97248 0.411752 0
M  V30 5624 O 523.919 -2.52042 -0.151931 0
M  V30 5625 C 525.232 -1.1488 2.77891 0
M  V30 5626 C 526.78 -1.25626 2.86683 0
M  V30 5627 C 527.255 -1.61772 4.28479 0
M  V30 5628 N 528.746 -1.68797 4.31349 0
M  V30 5629 C 529.481 -1.98235 5.38043 0
M  V30 5630 N 528.977 -2.2581 6.54967 0
M  V30 5631 N 530.77 -1.99593 5.2547 0
M  V30 5632 H 522.921 0.271123 2.10662 0
M  V30 5633 H 525.184 0.058735 0.946179 0
M  V30 5634 H 524.89 -0.375614 3.49688 0
M  V30 5635 H 524.764 -2.08919 3.14058 0
M  V30 5636 H 527.151 -2.02014 2.15114 0
M  V30 5637 H 527.232 -0.296072 2.54081 0
M  V30 5638 H 526.876 -0.859295 5.00578 0
M  V30 5639 H 526.806 -2.58912 4.58554 0
M  V30 5640 H 529.297 -1.49595 3.4703 0
M  V30 5641 H 529.61 -2.47497 7.32096 0
M  V30 5642 H 527.955 -2.23239 6.58171 0
M  V30 5643 H 531.146 -1.77535 4.33127 0
M  V30 5644 H 531.319 -2.222 6.08713 0
M  V30 5645 N 524.725 -1.39134 -0.740242 0
M  V30 5646 C 526.002 -1.26584 -1.49117 0
M  V30 5647 C 526.382 0.126902 -2.10718 0
M  V30 5648 O 525.73 1.13765 -1.98166 0
M  V30 5649 C 525.94 -2.38619 -2.54681 0
M  V30 5650 C 527.288 -2.77685 -3.21211 0
M  V30 5651 O 528.312 -2.38029 -2.64991 0
M  V30 5652 O 527.171 -3.46115 -4.22926 0
M  V30 5653 H 524.265 -0.495769 -0.661923 0
M  V30 5654 H 526.811 -1.50995 -0.774514 0
M  V30 5655 H 525.583 -3.3175 -2.07504 0
M  V30 5656 H 525.206 -2.15845 -3.33911 0
M  V30 5657 N 526.204 0.969867 -1.24223 0
M  V30 5658 C 527.114 2.09806 -1.0497 0
M  V30 5659 C 528.13 1.73998 0.00886455 0
M  V30 5660 O 529.306 2.00513 -0.188848 0
M  V30 5661 C 526.371 3.40467 -0.654452 0
M  V30 5662 C 525.432 3.90236 -1.78926 0
M  V30 5663 C 524.665 5.14662 -1.41277 0
M  V30 5664 O 524.888 5.69602 -0.301632 0
M  V30 5665 O 523.822 5.58761 -2.23763 0
M  V30 5666 H 527.648 2.28942 -1.99548 0
M  V30 5667 H 525.233 1.08197 -1.03023 0
M  V30 5668 H 527.115 4.19039 -0.445452 0
M  V30 5669 H 525.79 3.22636 0.262216 0
M  V30 5670 H 524.697 3.12735 -2.05299 0
M  V30 5671 H 526.03 4.1254 -2.68462 0
M  V30 5672 N 527.682 1.05563 1.17022 0
M  V30 5673 C 528.615 0.604197 2.20056 0
M  V30 5674 C 529.593 -0.369169 1.58354 0
M  V30 5675 O 530.777 -0.279898 1.8641 0
M  V30 5676 C 527.904 -0.115265 3.38504 0
M  V30 5677 C 526.95 0.813698 4.18666 0
M  V30 5678 S 527.783 2.30492 4.83357 0
M  V30 5679 C 528.939 1.59674 6.0519 0
M  V30 5680 H 529.172 1.47713 2.58008 0
M  V30 5681 H 526.705 0.867932 1.27696 0
M  V30 5682 H 528.663 -0.524162 4.0714 0
M  V30 5683 H 527.324 -0.964284 2.98932 0
M  V30 5684 H 526.517 0.256736 5.03346 0
M  V30 5685 H 526.119 1.16213 3.55486 0
M  V30 5686 H 528.411 0.898164 6.7152 0
M  V30 5687 H 529.354 2.42115 6.65422 0
M  V30 5688 H 529.762 1.08252 5.54023 0
M  V30 5689 N 529.16 -1.33526 0.837174 0
M  V30 5690 C 530.408 -1.97446 0.431211 0
M  V30 5691 C 530.729 -1.6665 -1.01255 0
M  V30 5692 O 529.999 -0.964559 -1.70508 0
M  V30 5693 H 528.579 -0.73043 0.156463 0
M  V30 5694 H 531.241 -1.62918 1.06976 0
M  V30 5695 H 530.337 -3.07001 0.561877 0
M  V30 5696 N 530.638 -0.59345 -1.46 0
M  V30 5697 C 531.568 0.121192 -2.33185 0
M  V30 5698 C 532.549 0.872977 -1.4599 0
M  V30 5699 O 533.734 0.846321 -1.74789 0
M  V30 5700 C 530.864 1.12844 -3.28456 0
M  V30 5701 C 529.818 0.4908 -4.25177 0
M  V30 5702 C 529.144 1.60529 -5.10034 0
M  V30 5703 C 530.444 -0.578949 -5.19081 0
M  V30 5704 H 532.138 -0.606767 -2.93187 0
M  V30 5705 H 529.684 -0.293242 -1.40983 0
M  V30 5706 H 531.637 1.63684 -3.88311 0
M  V30 5707 H 530.361 1.88681 -2.66584 0
M  V30 5708 H 529.02 0.00339328 -3.666 0
M  V30 5709 H 528.668 2.35359 -4.44539 0
M  V30 5710 H 528.368 1.18422 -5.75543 0
M  V30 5711 H 529.892 2.11623 -5.72755 0
M  V30 5712 H 531.306 -0.155199 -5.7309 0
M  V30 5713 H 529.703 -0.920947 -5.92991 0
M  V30 5714 H 530.773 -1.46109 -4.62364 0
M  V30 5715 N 532.116 1.54067 -0.331816 0
M  V30 5716 C 533.341 2.05599 0.272705 0
M  V30 5717 C 533.766 1.2059 1.44359 0
M  V30 5718 O 533.124 0.216907 1.79998 0
M  V30 5719 C 533.172 3.54188 0.677021 0
M  V30 5720 O 532.276 3.72082 1.77844 0
M  V30 5721 H 531.617 0.662286 0.0476801 0
M  V30 5722 H 534.147 1.98826 -0.482624 0
M  V30 5723 H 534.157 3.96608 0.957415 0
M  V30 5724 H 532.832 4.15513 -0.179325 0
M  V30 5725 H 531.409 3.41566 1.49622 0
M  V30 5726 N 533.594 0.0601682 1.57485 0
M  V30 5727 C 534.819 -0.624416 1.97777 0
M  V30 5728 C 535.244 -1.63051 0.937867 0
M  V30 5729 O 534.602 -1.81036 -0.0978845 0
M  V30 5730 C 534.65 -1.27979 3.37126 0
M  V30 5731 O 533.754 -2.39556 3.35688 0
M  V30 5732 H 533.095 -0.161581 0.64404 0
M  V30 5733 H 535.625 0.131237 2.04179 0
M  V30 5734 H 535.635 -1.62937 3.74053 0
M  V30 5735 H 534.31 -0.542501 4.12347 0
M  V30 5736 H 532.887 -2.06478 3.10517 0
M  V30 5737 N 535.072 -1.5615 -0.213296 0
M  V30 5738 C 536.349 -1.70349 -0.961281 0
M  V30 5739 C 536.729 -0.609791 -2.02101 0
M  V30 5740 O 536.077 0.381987 -2.25285 0
M  V30 5741 C 536.287 -3.11982 -1.56424 0
M  V30 5742 C 537.635 -3.71649 -2.05334 0
M  V30 5743 O 538.659 -3.14995 -1.66302 0
M  V30 5744 O 537.518 -4.71038 -2.77102 0
M  V30 5745 H 534.612 -0.694121 -0.449582 0
M  V30 5746 H 537.158 -1.68464 -0.204426 0
M  V30 5747 H 535.93 -3.83046 -0.799457 0
M  V30 5748 H 535.553 -3.18019 -2.38641 0
M  V30 5749 N 536.55 0.480323 -1.50102 0
M  V30 5750 C 537.961 1.06142 -1.53593 0
M  V30 5751 C 538.312 1.93335 -0.334055 0
M  V30 5752 O 537.437 2.09188 0.55403 0
M  V30 5753 C 538.032 1.9317 -2.78336 0
M  V30 5754 C 536.591 2.46405 -2.84538 0
M  V30 5755 C 535.738 1.24521 -2.4777 0
M  V30 5756 H 538.689 0.26333 -1.565 0
M  V30 5757 H 538.71 2.78123 -2.59669 0
M  V30 5758 H 538.222 1.29683 -3.65792 0
M  V30 5759 H 536.323 3.13472 -2.01411 0
M  V30 5760 H 536.436 2.82143 -3.87211 0
M  V30 5761 H 534.8 1.57706 -2.00003 0
M  V30 5762 H 535.583 0.627102 -3.37524 0
M  V30 5763 N 538.028 1.39524 0.732853 0
M  V30 5764 C 538.976 1.38563 1.86824 0
M  V30 5765 C 539.97 0.268467 1.67259 0
M  V30 5766 O 541.176 0.438613 1.74574 0
M  V30 5767 H 537.551 0.432737 0.615014 0
M  V30 5768 H 539.522 2.34328 1.84751 0
M  V30 5769 C 538.271 1.2481 3.24527 0
M  V30 5770 H 537.594 2.10044 3.40179 0
M  V30 5771 H 539.034 1.28194 4.04156 0
M  V30 5772 C 537.493 -0.0432825 3.36872 0
M  V30 5773 O 538.023 -1.01268 3.88726 0
M  V30 5774 N 536.229 -0.107055 2.90403 0
M  V30 5775 H 535.776 0.682512 2.48394 0
M  V30 5776 H 535.734 -0.970618 2.99042 0
M  V30 5777 N 539.506 -0.963266 1.24736 0
M  V30 5778 C 540.753 -1.7068 1.0897 0
M  V30 5779 C 541.081 -1.90934 -0.370751 0
M  V30 5780 O 540.336 -1.47155 -1.29011 0
M  V30 5781 C 540.635 -3.09944 1.7796 0
M  V30 5782 C 540.301 -3.09518 3.27887 0
M  V30 5783 C 538.963 -3.09109 3.68789 0
M  V30 5784 C 541.315 -3.03509 4.23712 0
M  V30 5785 C 538.643 -3.00429 5.03944 0
M  V30 5786 C 540.995 -2.96371 5.5888 0
M  V30 5787 C 539.659 -2.94293 5.99123 0
M  V30 5788 H 538.929 -0.624564 0.398749 0
M  V30 5789 H 541.576 -1.12603 1.54896 0
M  V30 5790 H 539.881 -3.71513 1.2444 0
M  V30 5791 H 541.578 -3.66278 1.63222 0
M  V30 5792 H 538.168 -3.10603 2.95337 0
M  V30 5793 H 542.352 -3.0295 3.93109 0
M  V30 5794 H 537.608 -2.97183 5.34314 0
M  V30 5795 H 541.782 -2.90681 6.32833 0
M  V30 5796 H 539.409 -2.87322 7.03811 0
M  V30 5797 N 540.985 -1.06182 -1.16461 0
M  V30 5798 C 541.918 -0.615859 -2.19733 0
M  V30 5799 C 542.896 0.360766 -1.58547 0
M  V30 5800 O 544.08 0.270009 -1.86556 0
M  V30 5801 C 541.207 0.097312 -3.3856 0
M  V30 5802 C 540.253 -0.835889 -4.18229 0
M  V30 5803 S 541.086 -2.33052 -4.82128 0
M  V30 5804 C 542.242 -1.62881 -6.04335 0
M  V30 5805 H 542.475 -1.49079 -2.57221 0
M  V30 5806 H 540.008 -0.874692 -1.27234 0
M  V30 5807 H 541.966 0.502563 -4.07412 0
M  V30 5808 H 540.627 0.948418 -2.99439 0
M  V30 5809 H 539.82 -0.283426 -5.03202 0
M  V30 5810 H 539.422 -1.18097 -3.54865 0
M  V30 5811 H 541.714 -0.933764 -6.71034 0
M  V30 5812 H 542.657 -2.45641 -6.64128 0
M  V30 5813 H 543.065 -1.11189 -5.53441 0
M  V30 5814 N 542.463 1.3308 -0.844243 0
M  V30 5815 C 543.393 2.3161 -0.296493 0
M  V30 5816 C 544.374 1.59215 0.598707 0
M  V30 5817 O 545.559 1.87077 0.521134 0
M  V30 5818 C 542.689 3.43313 0.524762 0
M  V30 5819 C 541.643 4.27115 -0.275106 0
M  V30 5820 C 540.969 5.30483 0.670236 0
M  V30 5821 C 542.269 5.00443 -1.49514 0
M  V30 5822 H 543.963 2.77672 -1.11976 0
M  V30 5823 H 541.509 1.33496 -0.539899 0
M  V30 5824 H 543.462 4.11273 0.918298 0
M  V30 5825 H 542.186 2.95952 1.3813 0
M  V30 5826 H 540.845 3.60787 -0.650267 0
M  V30 5827 H 540.493 4.79379 1.52332 0
M  V30 5828 H 540.193 5.87435 0.139123 0
M  V30 5829 H 541.717 6.01308 1.06117 0
M  V30 5830 H 543.131 5.61141 -1.17447 0
M  V30 5831 H 541.528 5.67071 -1.96343 0
M  V30 5832 H 542.598 4.28906 -2.26202 0
M  V30 5833 N 543.941 0.601185 1.45683 0
M  V30 5834 C 544.873 -0.159446 2.28645 0
M  V30 5835 C 545.886 -0.837882 1.39583 0
M  V30 5836 O 547.075 -0.704344 1.64016 0
M  V30 5837 C 544.175 -1.24641 3.15147 0
M  V30 5838 C 543.348 -0.656334 4.32448 0
M  V30 5839 C 542.407 -1.63337 5.00208 0
M  V30 5840 O 541.433 -1.16217 5.57209 0
M  V30 5841 N 542.635 -2.96773 4.98905 0
M  V30 5842 H 545.4 0.5524 2.94565 0
M  V30 5843 H 542.961 0.440223 1.558 0
M  V30 5844 H 544.953 -1.8997 3.57342 0
M  V30 5845 H 543.523 -1.86087 2.51178 0
M  V30 5846 H 542.743 0.174879 3.93812 0
M  V30 5847 H 544.031 -0.242211 5.08223 0
M  V30 5848 H 543.429 -3.37662 4.53873 0
M  V30 5849 H 541.986 -3.57541 5.44984 0
M  V30 5850 N 545.419 -1.53889 0.339982 0
M  V30 5851 C 546.665 -2.01849 -0.250694 0
M  V30 5852 C 547.02 -1.22356 -1.48482 0
M  V30 5853 O 546.313 -0.301906 -1.89206 0
M  V30 5854 C 546.507 -3.51968 -0.620735 0
M  V30 5855 C 546.336 -4.45996 0.575981 0
M  V30 5856 C 545.106 -4.93619 1.08019 0
M  V30 5857 C 547.304 -4.93923 1.43332 0
M  V30 5858 N 545.286 -5.7159 2.2396 0
M  V30 5859 C 546.657 -5.69982 2.43969 0
M  V30 5860 C 548.712 -4.76038 1.45918 0
M  V30 5861 C 547.415 -6.30057 3.47016 0
M  V30 5862 C 549.441 -5.36961 2.47845 0
M  V30 5863 C 548.803 -6.12884 3.47208 0
M  V30 5864 H 544.902 -0.780054 -0.0551368 0
M  V30 5865 H 547.486 -1.88722 0.478741 0
M  V30 5866 H 545.657 -3.65308 -1.31928 0
M  V30 5867 H 547.389 -3.86677 -1.19429 0
M  V30 5868 H 544.144 -4.69134 0.64884 0
M  V30 5869 H 544.568 -6.15247 2.82489 0
M  V30 5870 H 549.21 -4.16887 0.704608 0
M  V30 5871 H 546.928 -6.88319 4.23371 0
M  V30 5872 H 550.514 -5.2503 2.50668 0
M  V30 5873 H 549.394 -6.59187 4.24785 0
M  V30 5874 N 546.897 -0.0685191 -1.57451 0
M  V30 5875 C 547.845 0.917577 -2.13736 0
M  V30 5876 C 548.839 1.31049 -1.07344 0
M  V30 5877 O 550.045 1.28811 -1.25728 0
M  V30 5878 H 546.42 0.313835 -0.683382 0
M  V30 5879 H 548.391 0.417903 -2.95459 0
M  V30 5880 C 547.14 2.17686 -2.71123 0
M  V30 5881 H 546.463 1.88336 -3.52661 0
M  V30 5882 H 547.903 2.84803 -3.14107 0
M  V30 5883 C 546.362 2.9332 -1.65726 0
M  V30 5884 O 546.892 3.86901 -1.08031 0
M  V30 5885 N 545.098 2.56367 -1.36837 0
M  V30 5886 H 544.645 1.80341 -1.83943 0
M  V30 5887 H 544.603 3.07276 -0.665501 0
M  V30 5888 N 548.375 1.56261 0.205012 0
M  V30 5889 C 549.786 1.70056 0.770574 0
M  V30 5890 C 550.137 0.673398 1.84282 0
M  V30 5891 O 549.262 -0.172196 2.15714 0
M  V30 5892 C 549.857 3.08316 1.40451 0
M  V30 5893 C 548.416 3.2391 1.91727 0
M  V30 5894 C 547.563 2.66001 0.783516 0
M  V30 5895 H 550.514 1.58688 -0.019911 0
M  V30 5896 H 550.535 3.05094 2.27371 0
M  V30 5897 H 550.047 3.83053 0.623882 0
M  V30 5898 H 548.148 2.54072 2.7254 0
M  V30 5899 H 548.261 4.3131 2.08588 0
M  V30 5900 H 546.625 2.24915 1.19521 0
M  V30 5901 H 547.408 3.43297 0.0152883 0
M  V30 5902 N 549.853 -0.472356 1.50355 0
M  V30 5903 C 551.1 -1.22453 1.61281 0
M  V30 5904 C 551.428 -1.91972 0.31256 0
M  V30 5905 O 550.683 -1.82696 -0.701475 0
M  V30 5906 C 550.982 -2.29257 2.74182 0
M  V30 5907 C 550.648 -1.76999 4.14708 0
M  V30 5908 C 549.31 -1.62467 4.52944 0
M  V30 5909 C 551.662 -1.38215 5.0254 0
M  V30 5910 C 548.99 -1.07574 5.76754 0
M  V30 5911 C 551.342 -0.847638 6.26895 0
M  V30 5912 C 550.006 -0.688946 6.63935 0
M  V30 5913 H 549.276 -0.448087 0.590168 0
M  V30 5914 H 551.923 -0.520744 1.84284 0
M  V30 5915 H 550.228 -3.05538 2.45263 0
M  V30 5916 H 551.925 -2.87212 2.7984 0
M  V30 5917 H 548.515 -1.89276 3.84542 0
M  V30 5918 H 552.699 -1.48276 4.73633 0
M  V30 5919 H 547.955 -0.940237 6.04127 0
M  V30 5920 H 552.129 -0.538455 6.94315 0
M  V30 5921 H 549.756 -0.261435 7.5975 0
M  V30 5922 N 551.331 -1.39911 -0.725443 0
M  V30 5923 C 552.577 -1.37858 -1.48738 0
M  V30 5924 C 552.91 0.0224187 -1.94187 0
M  V30 5925 O 552.185 0.989204 -1.67466 0
M  V30 5926 C 552.468 -2.3594 -2.72038 0
M  V30 5927 C 552.321 -3.85023 -2.32546 0
M  V30 5928 C 553.64 -2.31704 -3.74167 0
M  V30 5929 H 550.759 -0.502074 -0.539528 0
M  V30 5930 H 553.401 -1.70974 -0.828728 0
M  V30 5931 H 551.551 -2.0783 -3.28236 0
M  V30 5932 H 553.223 -4.2392 -1.81905 0
M  V30 5933 H 551.466 -4.01334 -1.64661 0
M  V30 5934 H 552.137 -4.49152 -3.20884 0
M  V30 5935 H 554.613 -2.5658 -3.27576 0
M  V30 5936 H 553.489 -3.02395 -4.58092 0
M  V30 5937 H 553.75 -1.3253 -4.21768 0
M  V30 5938 N 552.809 0.956637 -1.25245 0
M  V30 5939 C 554.086 1.67716 -1.00651 0
M  V30 5940 C 554.466 2.0585 0.467866 0
M  V30 5941 O 553.814 1.77029 1.44475 0
M  V30 5942 C 554.024 2.90093 -1.94028 0
M  V30 5943 C 555.372 3.6209 -2.21756 0
M  V30 5944 O 556.396 3.00171 -1.9177 0
M  V30 5945 O 555.255 4.7358 -2.72735 0
M  V30 5946 H 552.349 0.733731 -0.381533 0
M  V30 5947 H 554.895 1.00974 -1.3639 0
M  V30 5948 H 553.667 2.58689 -2.93591 0
M  V30 5949 H 553.29 3.64566 -1.58674 0
M  V30 5950 N 554.287 1.06798 1.15896 0
M  V30 5951 C 555.535 0.786211 1.8618 0
M  V30 5952 C 555.856 -0.689547 1.82401 0
M  V30 5953 O 555.126 -1.49913 1.26107 0
M  V30 5954 H 553.706 0.287843 0.689315 0
M  V30 5955 H 556.368 1.35055 1.40521 0
M  V30 5956 H 555.464 1.1157 2.91477 0
M  V30 5957 N 555.766 -1.3263 0.851289 0
M  V30 5958 C 556.729 -2.27247 0.298541 0
M  V30 5959 C 557.729 -1.51467 -0.539847 0
M  V30 5960 O 558.919 -1.7061 -0.351843 0
M  V30 5961 C 556.051 -3.35964 -0.578004 0
M  V30 5962 H 557.244 -2.7765 1.13359 0
M  V30 5963 H 554.797 -1.43245 0.625354 0
M  V30 5964 H 555.532 -2.90823 -1.435 0
M  V30 5965 H 555.317 -3.92094 0.0220539 0
M  V30 5966 H 556.807 -4.06472 -0.957626 0
M  V30 5967 N 557.244 -0.608902 -1.45362 0
M  V30 5968 C 558.192 0.121639 -2.32282 0
M  V30 5969 C 559.186 0.858301 -1.46046 0
M  V30 5970 O 560.392 0.773718 -1.62523 0
M  V30 5971 H 556.767 0.058086 -0.749753 0
M  V30 5972 H 558.738 -0.629866 -2.91677 0
M  V30 5973 C 557.487 1.1047 -3.29684 0
M  V30 5974 H 556.81 0.547278 -3.96036 0
M  V30 5975 H 558.25 1.58576 -3.9323 0
M  V30 5976 C 556.709 2.17891 -2.56954 0
M  V30 5977 O 557.239 3.25652 -2.35189 0
M  V30 5978 N 555.445 1.93211 -2.17066 0
M  V30 5979 H 554.992 1.05584 -2.34967 0
M  V30 5980 H 554.95 2.6529 -1.68727 0
M  V30 5981 N 558.722 1.53707 -0.348139 0
M  V30 5982 C 559.95 2.05406 0.248224 0
M  V30 5983 C 560.365 1.22282 1.43849 0
M  V30 5984 O 559.722 0.259244 1.80649 0
M  V30 5985 C 559.773 3.55446 0.658793 0
M  V30 5986 O 559.494 4.35417 -0.484149 0
M  V30 5987 C 560.995 4.23335 1.31539 0
M  V30 5988 H 558.215 0.669344 0.0471075 0
M  V30 5989 H 560.759 1.98257 -0.501456 0
M  V30 5990 H 558.914 3.62803 1.35841 0
M  V30 5991 H 559.328 5.24268 -0.155949 0
M  V30 5992 H 560.802 5.29692 1.55338 0
M  V30 5993 H 561.279 3.75967 2.27036 0
M  V30 5994 H 561.885 4.20184 0.657683 0
M  V30 5995 N 560.2 0.0768682 1.57412 0
M  V30 5996 C 561.448 -0.589918 1.93299 0
M  V30 5997 C 561.769 -1.69842 0.958049 0
M  V30 5998 O 561.039 -1.95899 0.00703261 0
M  V30 5999 H 559.619 -0.220901 0.713591 0
M  V30 6000 H 562.281 0.135917 1.94425 0
M  V30 6001 H 561.377 -1.01195 2.95239 0
M  V30 6002 N 561.678 -1.56367 -0.196722 0
M  V30 6003 C 562.625 -1.94417 -1.24382 0
M  V30 6004 C 563.595 -0.804543 -1.45315 0
M  V30 6005 O 564.78 -1.06256 -1.58475 0
M  V30 6006 C 561.92 -2.28757 -2.58388 0
M  V30 6007 C 561.033 -3.55775 -2.45047 0
M  V30 6008 C 560.168 -3.79445 -3.71746 0
M  V30 6009 C 559.207 -4.99894 -3.53231 0
M  V30 6010 N 558.344 -5.19826 -4.71938 0
M  V30 6011 H 563.184 -2.83691 -0.912338 0
M  V30 6012 H 560.721 -1.40392 -0.439135 0
M  V30 6013 H 562.679 -2.46682 -3.36457 0
M  V30 6014 H 561.309 -1.42625 -2.89582 0
M  V30 6015 H 560.361 -3.45905 -1.58284 0
M  V30 6016 H 561.673 -4.44 -2.27299 0
M  V30 6017 H 560.827 -3.97601 -4.58256 0
M  V30 6018 H 559.566 -2.89546 -3.92446 0
M  V30 6019 H 558.571 -4.81662 -2.65107 0
M  V30 6020 H 559.796 -5.913 -3.33978 0
M  V30 6021 H 557.742 -4.32875 -4.92905 0
M  V30 6022 H 557.659 -6.02228 -4.57009 0
M  V30 6023 H 558.927 -5.42439 -5.59803 0
M  V30 6024 N 563.156 0.464375 -1.50603 0
M  V30 6025 C 564.381 1.24372 -1.65971 0
M  V30 6026 C 564.806 1.84901 -0.345453 0
M  V30 6027 O 564.164 1.67596 0.691457 0
M  V30 6028 C 564.212 2.32331 -2.7578 0
M  V30 6029 O 563.316 3.37146 -2.375 0
M  V30 6030 H 562.657 0.365604 -0.554283 0
M  V30 6031 H 565.187 0.55183 -1.97018 0
M  V30 6032 H 565.197 2.77539 -2.99059 0
M  V30 6033 H 563.872 1.87648 -3.71162 0
M  V30 6034 H 562.449 2.97602 -2.24694 0
M  V30 6035 N 564.634 1.40294 0.718013 0
M  V30 6036 C 565.862 1.4175 1.50714 0
M  V30 6037 C 566.277 0.0165366 1.88793 0
M  V30 6038 O 565.634 -0.958942 1.55276 0
M  V30 6039 C 565.685 2.30598 2.784 0
M  V30 6040 O 565.406 3.6524 2.41932 0
M  V30 6041 C 566.907 2.4062 3.72313 0
M  V30 6042 H 564.127 0.483565 0.465194 0
M  V30 6043 H 566.671 1.84316 0.885889 0
M  V30 6044 H 564.826 1.91401 3.36815 0
M  V30 6045 H 565.24 4.12402 3.24076 0
M  V30 6046 H 566.714 3.07001 4.58753 0
M  V30 6047 H 567.191 1.4305 4.15251 0
M  V30 6048 H 567.797 2.80359 3.19811 0
M  V30 6049 N 566.112 -0.949982 1.2575 0
M  V30 6050 C 567.337 -1.73503 1.13628 0
M  V30 6051 C 567.762 -1.85601 -0.30559 0
M  V30 6052 O 567.12 -1.33984 -1.22139 0
M  V30 6053 C 567.168 -3.1243 1.80055 0
M  V30 6054 O 566.272 -3.97916 1.08336 0
M  V30 6055 H 565.613 -0.532665 0.396439 0
M  V30 6056 H 568.143 -1.19043 1.66403 0
M  V30 6057 H 568.153 -3.62866 1.86527 0
M  V30 6058 H 566.828 -3.02941 2.84956 0
M  V30 6059 H 565.405 -3.56375 1.09777 0
M  V30 6060 N 567.59 -1.07411 -1.15328 0
M  V30 6061 C 568.537 -0.694995 -2.20087 0
M  V30 6062 C 569.507 0.313904 -1.63107 0
M  V30 6063 O 570.692 0.200216 -1.89747 0
M  V30 6064 C 567.832 -0.0996218 -3.44956 0
M  V30 6065 C 566.945 -1.16007 -4.16133 0
M  V30 6066 C 566.08 -0.529636 -5.28553 0
M  V30 6067 C 565.119 -1.57283 -5.91548 0
M  V30 6068 N 564.256 -0.964932 -6.95438 0
M  V30 6069 H 569.096 -1.5927 -2.51867 0
M  V30 6070 H 566.633 -0.796115 -1.23695 0
M  V30 6071 H 568.591 0.263197 -4.16369 0
M  V30 6072 H 567.221 0.761435 -3.13691 0
M  V30 6073 H 566.273 -1.64045 -3.4321 0
M  V30 6074 H 567.585 -1.95101 -4.59061 0
M  V30 6075 H 566.739 -0.114487 -6.06592 0
M  V30 6076 H 565.478 0.29307 -4.86819 0
M  V30 6077 H 564.483 -1.99775 -5.12221 0
M  V30 6078 H 565.708 -2.39783 -6.35359 0
M  V30 6079 H 563.654 -0.16314 -6.55797 0
M  V30 6080 H 563.571 -1.69311 -7.36797 0
M  V30 6081 H 564.839 -0.575305 -7.77374 0
M  V30 6082 N 569.068 1.32177 -0.85831 0
M  V30 6083 C 570.484 1.49873 -0.548656 0
M  V30 6084 C 570.684 1.79278 0.919874 0
M  V30 6085 O 569.74 1.86451 1.70271 0
M  V30 6086 C 571.053 2.64043 -1.4388 0
M  V30 6087 C 572.601 2.77928 -1.43961 0
M  V30 6088 C 573.076 3.95182 -2.31506 0
M  V30 6089 N 574.567 4.0245 -2.29321 0
M  V30 6090 C 575.302 4.9242 -2.93786 0
M  V30 6091 N 574.798 5.87373 -3.67376 0
M  V30 6092 N 576.591 4.85572 -2.83155 0
M  V30 6093 H 568.742 1.11357 -1.80868 0
M  V30 6094 H 571.005 0.549175 -0.772729 0
M  V30 6095 H 570.711 2.49055 -2.48324 0
M  V30 6096 H 570.585 3.59912 -1.12885 0
M  V30 6097 H 572.972 2.92338 -0.402813 0
M  V30 6098 H 573.053 1.82762 -1.78974 0
M  V30 6099 H 572.697 3.81531 -3.35256 0
M  V30 6100 H 572.627 4.89633 -1.93823 0
M  V30 6101 H 575.118 3.34507 -1.75822 0
M  V30 6102 H 575.431 6.52728 -4.13722 0
M  V30 6103 H 573.776 5.87388 -3.71484 0
M  V30 6104 H 576.967 4.10363 -2.25211 0
M  V30 6105 H 577.14 5.55486 -3.33676 0
M  V30 6106 N 570.547 0.616602 1.45037 0
M  V30 6107 C 571.51 -0.0871112 2.29034 0
M  V30 6108 C 572.51 -0.786414 1.40258 0
M  V30 6109 O 573.7 -0.633207 1.62284 0
M  V30 6110 C 570.832 -1.13369 3.21497 0
M  V30 6111 H 572.025 0.651497 2.92738 0
M  V30 6112 H 569.578 0.376058 1.51709 0
M  V30 6113 H 570.313 -1.90277 2.62612 0
M  V30 6114 H 570.098 -0.636358 3.86902 0
M  V30 6115 H 571.588 -1.62627 3.84633 0
M  V30 6116 N 572.025 -1.5352 0.356285 0
M  V30 6117 C 573.274 -2.00298 -0.237373 0
M  V30 6118 C 573.587 -1.24784 -1.50627 0
M  V30 6119 O 574.793 -1.62103 -2.17795 0
M  V30 6120 C 573.249 -3.56771 -0.473545 0
M  V30 6121 C 572.857 -4.41154 0.780183 0
M  V30 6122 C 574.601 -4.1193 -1.02537 0
M  V30 6123 C 572.508 -5.89161 0.514108 0
M  V30 6124 H 571.438 -0.748307 -0.092478 0
M  V30 6125 H 574.089 -1.77283 0.473588 0
M  V30 6126 H 572.471 -3.75902 -1.24553 0
M  V30 6127 H 573.645 -4.33797 1.55425 0
M  V30 6128 H 571.96 -3.97052 1.25455 0
M  V30 6129 H 574.557 -5.20133 -1.2396 0
M  V30 6130 H 574.9 -3.65943 -1.98473 0
M  V30 6131 H 575.433 -3.96561 -0.313775 0
M  V30 6132 H 572.172 -6.39408 1.44355 0
M  V30 6133 H 571.692 -5.9939 -0.221632 0
M  V30 6134 H 573.371 -6.46857 0.136122 0
M  V30 6135 N 573.503 -0.0852151 -1.57369 0
M  V30 6136 C 574.914 0.445428 -1.81309 0
M  V30 6137 C 575.265 1.68795 -1.00013 0
M  V30 6138 O 574.39 2.15211 -0.226573 0
M  V30 6139 C 574.985 0.814887 -3.28854 0
M  V30 6140 C 573.544 1.29032 -3.53592 0
M  V30 6141 C 572.691 0.282089 -2.75861 0
M  V30 6142 H 575.642 -0.310771 -1.55627 0
M  V30 6143 H 575.663 1.67524 -3.41637 0
M  V30 6144 H 575.175 -0.0896309 -3.87996 0
M  V30 6145 H 573.276 2.21289 -2.9977 0
M  V30 6146 H 573.389 1.25898 -4.62262 0
M  V30 6147 H 571.753 0.762182 -2.43029 0
M  V30 6148 H 572.536 -0.614936 -3.37748 0
M  V30 6149 N 574.981 1.5647 0.188427 0
M  V30 6150 C 576.392 1.70864 0.752494 0
M  V30 6151 C 576.743 0.692905 1.83557 0
M  V30 6152 O 575.868 -0.149307 2.15884 0
M  V30 6153 C 576.463 3.09789 1.37173 0
M  V30 6154 C 575.022 3.25925 1.88281 0
M  V30 6155 C 574.169 2.66817 0.755259 0
M  V30 6156 H 577.12 1.58657 -0.0367408 0
M  V30 6157 H 577.141 3.07489 2.24122 0
M  V30 6158 H 576.653 3.83693 0.583219 0
M  V30 6159 H 574.754 2.56948 2.6983 0
M  V30 6160 H 574.867 4.33498 2.04001 0
M  V30 6161 H 573.231 2.2617 1.17128 0
M  V30 6162 H 574.014 3.43294 -0.0211237 0
M  V30 6163 N 576.459 -0.456382 1.50847 0
M  V30 6164 C 577.87 -1.03685 1.55262 0
M  V30 6165 C 578.221 -1.92779 0.364771 0
M  V30 6166 O 577.346 -2.10043 -0.52068 0
M  V30 6167 C 577.941 -1.88718 2.81374 0
M  V30 6168 C 576.5 -2.41847 2.88422 0
M  V30 6169 C 575.647 -1.20564 2.49719 0
M  V30 6170 H 578.598 -0.238399 1.56899 0
M  V30 6171 H 578.619 -2.73957 2.6406 0
M  V30 6172 H 578.131 -1.23847 3.67809 0
M  V30 6173 H 576.232 -3.10228 2.06372 0
M  V30 6174 H 576.345 -2.75947 3.9165 0
M  V30 6175 H 574.709 -1.54504 2.02486 0
M  V30 6176 H 575.492 -0.573326 3.38479 0
M  V30 6177 N 577.937 -1.40673 -0.710563 0
M  V30 6178 C 578.867 -1.44095 -1.83736 0
M  V30 6179 C 579.848 -0.301286 -1.67411 0
M  V30 6180 O 581.033 -0.510618 -1.87367 0
M  V30 6181 C 578.163 -1.30773 -3.21738 0
M  V30 6182 C 577.117 -2.42395 -3.52745 0
M  V30 6183 C 576.443 -2.14147 -4.89944 0
M  V30 6184 C 577.743 -3.84738 -3.53234 0
M  V30 6185 H 579.437 -2.38396 -1.81129 0
M  V30 6186 H 576.983 -1.14746 -0.870017 0
M  V30 6187 H 578.936 -1.31783 -4.00264 0
M  V30 6188 H 577.66 -0.329507 -3.24934 0
M  V30 6189 H 576.319 -2.40643 -2.76562 0
M  V30 6190 H 575.967 -1.14703 -4.89747 0
M  V30 6191 H 575.667 -2.88934 -5.11655 0
M  V30 6192 H 577.191 -2.16848 -5.70797 0
M  V30 6193 H 578.605 -3.88286 -4.2179 0
M  V30 6194 H 577.002 -4.59085 -3.86473 0
M  V30 6195 H 578.072 -4.13962 -2.52514 0
M  V30 6196 N 579.415 0.9433 -1.26252 0
M  V30 6197 C 580.826 1.50404 -1.10614 0
M  V30 6198 C 581.177 1.93666 0.31429 0
M  V30 6199 O 580.302 1.79709 1.20555 0
M  V30 6200 C 580.897 2.73336 -2.00182 0
M  V30 6201 C 579.456 3.25686 -1.88695 0
M  V30 6202 C 578.603 1.98474 -1.93658 0
M  V30 6203 H 581.554 0.759006 -1.39373 0
M  V30 6204 H 581.575 3.47567 -1.54847 0
M  V30 6205 H 581.087 2.41818 -3.03555 0
M  V30 6206 H 579.188 3.61998 -0.882489 0
M  V30 6207 H 579.301 3.92935 -2.74115 0
M  V30 6208 H 577.665 2.14278 -1.37684 0
M  V30 6209 H 578.448 1.6929 -2.98657 0
M  V30 6210 N 580.893 1.08022 1.14757 0
M  V30 6211 C 582.304 0.829144 1.67279 0
M  V30 6212 C 582.655 -0.644721 1.85305 0
M  V30 6213 O 581.78 -1.49838 1.56133 0
M  V30 6214 C 582.375 1.49855 3.03857 0
M  V30 6215 C 580.934 1.29482 3.53428 0
M  V30 6216 C 580.081 1.56386 2.28995 0
M  V30 6217 H 583.032 1.24134 0.988762 0
M  V30 6218 H 583.053 0.923572 3.69121 0
M  V30 6219 H 582.565 2.57123 2.90705 0
M  V30 6220 H 580.666 0.242669 3.71809 0
M  V30 6221 H 580.779 2.01974 4.34446 0
M  V30 6222 H 579.143 0.985217 2.34874 0
M  V30 6223 H 579.926 2.64851 2.18423 0
M  V30 6224 N 582.371 -1.3172 0.865308 0
M  V30 6225 C 583.318 -2.2863 0.315736 0
M  V30 6226 C 584.288 -1.55524 -0.583213 0
M  V30 6227 O 585.473 -1.83694 -0.51585 0
M  V30 6228 C 582.613 -3.41735 -0.480773 0
M  V30 6229 C 581.726 -4.297 0.445167 0
M  V30 6230 C 580.861 -5.29944 -0.365012 0
M  V30 6231 C 579.9 -6.09554 0.557651 0
M  V30 6232 N 579.037 -7.01768 -0.215994 0
M  V30 6233 H 583.877 -2.75026 1.14736 0
M  V30 6234 H 581.414 -1.35302 0.577209 0
M  V30 6235 H 583.372 -4.06045 -0.958306 0
M  V30 6236 H 582.002 -2.96461 -1.27714 0
M  V30 6237 H 581.054 -3.65875 1.04113 0
M  V30 6238 H 582.366 -4.85295 1.15284 0
M  V30 6239 H 581.52 -5.99908 -0.905255 0
M  V30 6240 H 580.259 -4.74994 -1.106 0
M  V30 6241 H 579.264 -5.38485 1.10969 0
M  V30 6242 H 580.489 -6.66591 1.29742 0
M  V30 6243 H 578.435 -6.49232 -0.939878 0
M  V30 6244 H 578.352 -7.54762 0.432431 0
M  V30 6245 H 579.62 -7.76002 -0.737618 0
M  V30 6246 N 583.85 -0.624285 -1.44708 0
M  V30 6247 C 585.26 -0.2092 -1.85524 0
M  V30 6248 C 585.611 1.23783 -1.52225 0
M  V30 6249 O 584.736 1.94089 -0.956986 0
M  V30 6250 C 585.332 -0.372897 -3.36742 0
M  V30 6251 C 583.891 -0.012374 -3.76398 0
M  V30 6252 C 583.038 -0.68951 -2.68591 0
M  V30 6253 H 585.989 -0.829894 -1.35272 0
M  V30 6254 H 586.01 0.390134 -3.78495 0
M  V30 6255 H 585.522 -1.42615 -3.60947 0
M  V30 6256 H 583.623 1.03941 -3.57809 0
M  V30 6257 H 583.736 -0.417663 -4.77276 0
M  V30 6258 H 582.1 -0.125484 -2.54391 0
M  V30 6259 H 582.883 -1.74522 -2.9563 0
M  V30 6260 N 585.328 1.53329 -0.364422 0
M  V30 6261 C 586.744 1.59594 -0.0133165 0
M  V30 6262 C 586.944 1.37959 1.46865 0
M  V30 6263 O 586 1.18418 2.2301 0
M  V30 6264 C 587.313 2.97032 -0.468213 0
M  V30 6265 C 588.861 3.10138 -0.422334 0
M  V30 6266 C 589.336 4.49986 -0.853024 0
M  V30 6267 N 590.827 4.56098 -0.808037 0
M  V30 6268 C 591.562 5.62495 -1.11299 0
M  V30 6269 N 591.058 6.7665 -1.48717 0
M  V30 6270 N 592.851 5.52473 -1.03586 0
M  V30 6271 H 585.002 1.65644 -1.32951 0
M  V30 6272 H 587.265 0.77684 -0.543345 0
M  V30 6273 H 586.971 3.18 -1.5023 0
M  V30 6274 H 586.845 3.76918 0.145775 0
M  V30 6275 H 589.232 2.88881 0.602622 0
M  V30 6276 H 589.313 2.32263 -1.0718 0
M  V30 6277 H 588.957 4.7198 -1.87609 0
M  V30 6278 H 588.887 5.26289 -0.180819 0
M  V30 6279 H 591.378 3.74131 -0.532361 0
M  V30 6280 H 591.691 7.53776 -1.70415 0
M  V30 6281 H 590.036 6.78044 -1.52581 0
M  V30 6282 H 593.227 4.6217 -0.742736 0
M  V30 6283 H 593.4 6.35295 -1.27686 0
M  V30 6284 N 586.806 0.0935595 1.57322 0
M  V30 6285 C 588.055 -0.570191 1.93473 0
M  V30 6286 C 588.368 -1.69434 0.977318 0
M  V30 6287 O 589.574 -2.41914 1.23248 0
M  V30 6288 C 588.03 -1.06564 3.43762 0
M  V30 6289 C 587.638 0.0286723 4.47991 0
M  V30 6290 C 589.382 -1.70221 3.88877 0
M  V30 6291 C 587.289 -0.482046 5.89432 0
M  V30 6292 H 586.219 -0.216764 0.72217 0
M  V30 6293 H 588.87 0.169313 1.82717 0
M  V30 6294 H 587.252 -1.85878 3.49664 0
M  V30 6295 H 588.426 0.804106 4.5373 0
M  V30 6296 H 586.741 0.570336 4.12476 0
M  V30 6297 H 589.338 -2.09502 4.91948 0
M  V30 6298 H 589.681 -2.57078 3.27439 0
M  V30 6299 H 590.214 -0.974919 3.85668 0
M  V30 6300 H 586.953 0.349871 6.54566 0
M  V30 6301 H 586.473 -1.22452 5.87167 0
M  V30 6302 H 588.152 -0.951508 6.39965 0
M  V30 6303 N 588.284 -1.56567 -0.180126 0
M  V30 6304 C 589.509 -1.85975 -0.918041 0
M  V30 6305 C 589.934 -0.678888 -1.75422 0
M  V30 6306 O 589.292 0.372168 -1.77439 0
M  V30 6307 C 589.34 -3.13731 -1.77779 0
M  V30 6308 O 588.444 -2.95335 -2.87838 0
M  V30 6309 H 587.785 -0.61196 -0.257683 0
M  V30 6310 H 590.315 -2.03798 -0.180923 0
M  V30 6311 H 590.325 -3.4491 -2.17948 0
M  V30 6312 H 589 -3.99293 -1.16352 0
M  V30 6313 H 587.577 -2.7549 -2.51316 0
M  V30 6314 N 589.762 0.448376 -1.51087 0
M  V30 6315 C 590.987 1.22605 -1.6728 0
M  V30 6316 C 591.412 1.84524 -0.365045 0
M  V30 6317 O 590.77 1.6832 0.673642 0
M  V30 6318 C 590.818 2.29393 -2.78229 0
M  V30 6319 O 589.922 3.34608 -2.41063 0
M  V30 6320 H 589.263 0.359705 -0.558129 0
M  V30 6321 H 591.793 0.530903 -1.97592 0
M  V30 6322 H 591.803 2.74352 -3.01986 0
M  V30 6323 H 590.478 1.83701 -3.73131 0
M  V30 6324 H 589.055 2.95202 -2.27838 0
M  V30 6325 N 591.24 1.41047 0.703093 0
M  V30 6326 C 592.47 1.43133 1.48985 0
M  V30 6327 C 592.878 0.0328537 1.89171 0
M  V30 6328 O 592.221 -0.956469 1.56835 0
M  V30 6329 C 592.283 2.26991 2.78775 0
M  V30 6330 C 591.947 3.7525 2.60837 0
M  V30 6331 C 592.944 4.67591 2.27276 0
M  V30 6332 C 590.629 4.19208 2.76712 0
M  V30 6333 C 592.623 6.01877 2.09817 0
M  V30 6334 C 590.31 5.53561 2.5887 0
M  V30 6335 C 591.308 6.4471 2.25472 0
M  V30 6336 O 590.996 7.76584 2.07778 0
M  V30 6337 H 590.728 0.489788 0.465922 0
M  V30 6338 H 593.282 1.85886 0.873822 0
M  V30 6339 H 591.512 1.79038 3.42757 0
M  V30 6340 H 593.201 2.20867 3.40547 0
M  V30 6341 H 593.967 4.34923 2.14633 0
M  V30 6342 H 589.846 3.48572 3.01693 0
M  V30 6343 H 593.39 6.72986 1.83671 0
M  V30 6344 H 589.287 5.85811 2.71102 0
M  V30 6345 H 590.055 7.87649 2.22601 0
M  V30 6346 N 592.718 -0.936591 1.26751 0
M  V30 6347 C 594.129 -1.49816 1.1141 0
M  V30 6348 C 594.48 -1.9383 -0.304015 0
M  V30 6349 O 593.605 -1.80346 -1.196 0
M  V30 6350 C 594.2 -2.72271 2.01629 0
M  V30 6351 C 592.759 -3.2468 1.9042 0
M  V30 6352 C 591.906 -1.97444 1.94708 0
M  V30 6353 H 594.857 -0.751604 1.39773 0
M  V30 6354 H 594.878 -3.46741 1.56688 0
M  V30 6355 H 594.39 -2.40205 3.04833 0
M  V30 6356 H 592.491 -3.61525 0.901674 0
M  V30 6357 H 592.604 -3.91476 2.76195 0
M  V30 6358 H 590.968 -2.13545 1.38818 0
M  V30 6359 H 591.751 -1.67703 2.9955 0
M  V30 6360 N 594.196 -1.08629 -1.14182 0
M  V30 6361 C 595.106 -0.730126 -2.22949 0
M  V30 6362 C 596.122 0.26436 -1.7198 0
M  V30 6363 O 597.298 0.107742 -2.01112 0
M  V30 6364 C 594.363 -0.147227 -3.46387 0
M  V30 6365 C 593.424 -1.19662 -4.12286 0
M  V30 6366 C 592.657 -0.641437 -5.29831 0
M  V30 6367 O 592.88 0.538351 -5.67854 0
M  V30 6368 O 591.814 -1.39257 -5.85569 0
M  V30 6369 H 595.64 -1.63753 -2.55771 0
M  V30 6370 H 593.225 -0.860118 -1.22157 0
M  V30 6371 H 595.107 0.174923 -4.21037 0
M  V30 6372 H 593.782 0.733304 -3.15285 0
M  V30 6373 H 592.689 -1.57133 -3.395 0
M  V30 6374 H 594.022 -2.0495 -4.475 0
M  V30 6375 N 595.674 1.31259 -0.872281 0
M  V30 6376 C 596.951 1.91362 -0.404943 0
M  V30 6377 C 597.331 1.79362 1.11321 0
M  V30 6378 O 596.679 1.20277 1.94283 0
M  V30 6379 C 596.889 3.3749 -0.888893 0
M  V30 6380 C 598.237 4.14593 -0.916384 0
M  V30 6381 O 599.261 3.46282 -0.834701 0
M  V30 6382 O 598.12 5.3661 -1.03498 0
M  V30 6383 H 595.214 0.818016 -0.121569 0
M  V30 6384 H 597.76 1.39912 -0.960346 0
M  V30 6385 H 596.532 3.40249 -1.93251 0
M  V30 6386 H 596.155 3.96375 -0.311932 0
M  V30 6387 N 597.152 0.631951 1.44375 0
M  V30 6388 C 598.1 -0.0846693 2.32446 0
M  V30 6389 C 599.094 -0.834957 1.47393 0
M  V30 6390 O 600.3 -0.747764 1.63733 0
M  V30 6391 H 596.675 -0.0461508 0.750583 0
M  V30 6392 H 598.646 0.67619 2.90638 0
M  V30 6393 C 597.395 -1.05211 3.314 0
M  V30 6394 H 596.718 -0.484203 3.96857 0
M  V30 6395 H 598.158 -1.523 3.95703 0
M  V30 6396 C 596.617 -2.13776 2.60387 0
M  V30 6397 O 597.147 -3.21869 2.4034 0
M  V30 6398 N 595.353 -1.89733 2.20113 0
M  V30 6399 H 594.9 -1.01833 2.36618 0
M  V30 6400 H 594.858 -2.62572 1.72926 0
M  V30 6401 N 598.631 -1.53133 0.372548 0
M  V30 6402 C 599.878 -2.01356 -0.214959 0
M  V30 6403 C 600.206 -1.2596 -1.48204 0
M  V30 6404 O 599.461 -0.343511 -1.92662 0
M  V30 6405 C 599.76 -3.53206 -0.545938 0
M  V30 6406 C 599.426 -4.46511 0.627624 0
M  V30 6407 C 598.088 -4.71737 0.949615 0
M  V30 6408 C 600.44 -5.01666 1.41353 0
M  V30 6409 C 597.768 -5.4937 2.05936 0
M  V30 6410 C 600.12 -5.80511 2.51375 0
M  V30 6411 C 598.784 -6.04022 2.84101 0
M  V30 6412 H 598.054 -0.736813 -0.078659 0
M  V30 6413 H 600.701 -1.84682 0.506447 0
M  V30 6414 H 599.006 -3.67864 -1.34845 0
M  V30 6415 H 600.703 -3.87997 -1.01287 0
M  V30 6416 H 597.293 -4.27029 0.366635 0
M  V30 6417 H 601.477 -4.82117 1.17802 0
M  V30 6418 H 596.733 -5.65803 2.31682 0
M  V30 6419 H 600.907 -6.22255 3.12684 0
M  V30 6420 H 598.534 -6.63962 3.70214 0
M  V30 6421 N 600.109 -0.101901 -1.5727 0
M  V30 6422 C 601.52 0.426173 -1.81771 0
M  V30 6423 C 601.871 1.67725 -1.01797 0
M  V30 6424 O 600.996 2.14958 -0.249386 0
M  V30 6425 C 601.591 0.779962 -3.297 0
M  V30 6426 C 600.15 1.25275 -3.54941 0
M  V30 6427 C 599.297 0.252814 -2.76145 0
M  V30 6428 H 602.248 -0.32726 -1.55289 0
M  V30 6429 H 602.269 1.63891 -3.43395 0
M  V30 6430 H 601.781 -0.130778 -3.8788 0
M  V30 6431 H 599.882 2.18097 -3.021 0
M  V30 6432 H 599.995 1.20988 -4.63572 0
M  V30 6433 H 598.359 0.736362 -2.43823 0
M  V30 6434 H 599.142 -0.650724 -3.37076 0
M  V30 6435 N 601.587 1.56661 0.17182 0
M  V30 6436 C 602.864 1.72838 0.915778 0
M  V30 6437 C 603.244 0.66316 2.00413 0
M  V30 6438 O 602.592 -0.322123 2.26218 0
M  V30 6439 C 602.802 3.16019 1.48097 0
M  V30 6440 C 604.15 3.76962 1.95408 0
M  V30 6441 O 605.174 3.19294 1.57892 0
M  V30 6442 O 604.033 4.78219 2.64516 0
M  V30 6443 H 601.127 0.705797 0.431021 0
M  V30 6444 H 603.673 1.68947 0.159689 0
M  V30 6445 H 602.445 3.85031 0.697618 0
M  V30 6446 H 602.068 3.24234 2.30126 0
M  V30 6447 N 603.065 -0.440357 1.51323 0
M  V30 6448 C 603.975 -1.55955 1.75258 0
M  V30 6449 C 604.991 -1.61933 0.636687 0
M  V30 6450 O 606.167 -1.79231 0.918593 0
M  V30 6451 C 603.232 -2.9196 1.86977 0
M  V30 6452 C 602.293 -2.96122 3.10822 0
M  V30 6453 C 601.526 -4.2564 3.21973 0
M  V30 6454 O 601.749 -5.17851 2.39137 0
M  V30 6455 O 600.683 -4.36025 4.14929 0
M  V30 6456 H 604.509 -1.38673 2.70191 0
M  V30 6457 H 602.094 -0.623055 1.35788 0
M  V30 6458 H 603.976 -3.72682 1.96688 0
M  V30 6459 H 602.651 -3.09375 0.952307 0
M  V30 6460 H 601.558 -2.14366 3.06591 0
M  V30 6461 H 602.891 -2.83651 4.02247 0
M  V30 6462 N 604.543 -1.41418 -0.695603 0
M  V30 6463 C 605.453 -1.45622 -1.83933 0
M  V30 6464 C 606.469 -0.346825 -1.70508 0
M  V30 6465 O 607.645 -0.59454 -1.92424 0
M  V30 6466 C 604.71 -1.33627 -3.19914 0
M  V30 6467 C 603.771 -2.54882 -3.45447 0
M  V30 6468 C 603.004 -2.43449 -4.7494 0
M  V30 6469 O 603.227 -1.45905 -5.51424 0
M  V30 6470 O 602.161 -3.33206 -5.01256 0
M  V30 6471 H 605.987 -2.42114 -1.83342 0
M  V30 6472 H 603.572 -1.22956 -0.848658 0
M  V30 6473 H 605.454 -1.29221 -4.01098 0
M  V30 6474 H 604.129 -0.402508 -3.21188 0
M  V30 6475 H 603.036 -2.64865 -2.64192 0
M  V30 6476 H 604.369 -3.47087 -3.48987 0
M  V30 6477 N 606.021 0.929856 -1.27246 0
M  V30 6478 C 606.968 2.03017 -1.09785 0
M  V30 6479 C 607.938 1.661 0.000456744 0
M  V30 6480 O 609.123 1.90116 -0.161462 0
M  V30 6481 C 606.263 3.36878 -0.748816 0
M  V30 6482 C 605.376 3.86763 -1.92453 0
M  V30 6483 C 604.511 5.09061 -1.51758 0
M  V30 6484 C 603.55 5.51237 -2.66091 0
M  V30 6485 N 602.687 6.64732 -2.25999 0
M  V30 6486 H 607.527 2.17285 -2.03939 0
M  V30 6487 H 605.064 1.06448 -1.01524 0
M  V30 6488 H 607.022 4.13855 -0.527283 0
M  V30 6489 H 605.652 3.22424 0.155771 0
M  V30 6490 H 604.704 3.06086 -2.25867 0
M  V30 6491 H 606.016 4.13994 -2.78227 0
M  V30 6492 H 605.17 5.93532 -1.25716 0
M  V30 6493 H 603.909 4.83602 -0.630896 0
M  V30 6494 H 602.914 4.65316 -2.92849 0
M  V30 6495 H 604.139 5.78692 -3.55377 0
M  V30 6496 H 602.085 6.40935 -1.3978 0
M  V30 6497 H 602.002 6.91607 -3.05313 0
M  V30 6498 H 603.27 7.52549 -2.03199 0
M  V30 6499 N 607.499 1.09233 1.13605 0
M  V30 6500 C 608.462 0.733553 2.17144 0
M  V30 6501 C 609.462 -0.235873 1.59061 0
M  V30 6502 O 610.652 -0.0143167 1.74194 0
M  V30 6503 C 607.784 0.084471 3.40795 0
M  V30 6504 H 608.977 1.65049 2.50397 0
M  V30 6505 H 606.53 0.891264 1.28399 0
M  V30 6506 H 607.265 -0.843795 3.1313 0
M  V30 6507 H 607.05 0.781985 3.84223 0
M  V30 6508 H 608.54 -0.151216 4.17326 0
M  V30 6509 N 608.977 -1.30795 0.87923 0
M  V30 6510 C 610.202 -2.01063 0.508769 0
M  V30 6511 C 610.627 -1.65508 -0.893803 0
M  V30 6512 O 609.985 -0.868616 -1.59138 0
M  V30 6513 C 610.033 -3.54054 0.683991 0
M  V30 6514 O 609.137 -4.11498 -0.272654 0
M  V30 6515 H 608.478 -0.632786 0.201191 0
M  V30 6516 H 611.008 -1.66776 1.18519 0
M  V30 6517 H 611.018 -4.03845 0.580798 0
M  V30 6518 H 609.693 -3.79271 1.70665 0
M  V30 6519 H 608.27 -3.72695 -0.12364 0
M  V30 6520 N 610.455 -0.639598 -1.44038 0
M  V30 6521 C 611.683 -0.154811 -2.0632 0
M  V30 6522 C 612.098 1.17406 -1.47856 0
M  V30 6523 O 611.455 1.72193 -0.604638 0
M  V30 6524 C 611.506 -0.0429958 -3.61474 0
M  V30 6525 O 611.227 -1.31932 -4.17763 0
M  V30 6526 C 612.728 0.469486 -4.40807 0
M  V30 6527 H 609.948 -0.0835862 -0.665773 0
M  V30 6528 H 612.492 -0.876397 -1.84769 0
M  V30 6529 H 610.647 0.629075 -3.82258 0
M  V30 6530 H 611.061 -1.16965 -5.11292 0
M  V30 6531 H 612.535 0.496712 -5.49761 0
M  V30 6532 H 613.012 1.49819 -4.12857 0
M  V30 6533 H 613.618 -0.169624 -4.24962 0
M  V30 6534 N 611.933 1.52934 -0.380664 0
M  V30 6535 C 613.182 2.00651 0.205477 0
M  V30 6536 C 613.495 1.27164 1.48623 0
M  V30 6537 O 614.701 1.65547 2.15189 0
M  V30 6538 C 613.157 3.57479 0.416726 0
M  V30 6539 C 612.765 4.39857 -0.850268 0
M  V30 6540 C 614.509 4.13509 0.959702 0
M  V30 6541 C 612.416 5.88269 -0.607773 0
M  V30 6542 H 611.346 0.749684 0.0805614 0
M  V30 6543 H 613.997 1.76508 -0.501732 0
M  V30 6544 H 612.379 3.77836 1.18557 0
M  V30 6545 H 613.553 4.31269 -1.62307 0
M  V30 6546 H 611.868 3.95005 -1.31756 0
M  V30 6547 H 614.465 5.22039 1.15669 0
M  V30 6548 H 614.808 3.69054 1.92626 0
M  V30 6549 H 615.341 3.9701 0.250645 0
M  V30 6550 H 612.08 6.3703 -1.54509 0
M  V30 6551 H 611.6 5.99667 0.126247 0
M  V30 6552 H 613.279 6.46558 -0.239014 0
M  V30 6553 N 613.412 0.11024 1.57214 0
M  V30 6554 C 614.359 -0.843195 2.14846 0
M  V30 6555 C 615.329 -1.26954 1.07107 0
M  V30 6556 O 616.514 -1.34861 1.34971 0
M  V30 6557 C 613.654 -2.09123 2.74521 0
M  V30 6558 C 612.767 -1.71404 3.96541 0
M  V30 6559 C 611.902 -2.91107 4.44331 0
M  V30 6560 C 610.941 -2.49586 5.58903 0
M  V30 6561 N 610.078 -3.62175 6.01477 0
M  V30 6562 H 614.918 -0.344886 2.95998 0
M  V30 6563 H 612.455 -0.15855 1.46243 0
M  V30 6564 H 614.413 -2.82234 3.07246 0
M  V30 6565 H 613.043 -2.56427 1.96074 0
M  V30 6566 H 612.095 -0.88201 3.70033 0
M  V30 6567 H 613.407 -1.36884 4.7965 0
M  V30 6568 H 612.561 -3.72454 4.78919 0
M  V30 6569 H 611.3 -3.28848 3.60153 0
M  V30 6570 H 610.305 -1.6667 5.23929 0
M  V30 6571 H 611.53 -2.12973 6.4484 0
M  V30 6572 H 609.476 -3.99605 5.20242 0
M  V30 6573 H 609.393 -3.3155 6.79419 0
M  V30 6574 H 610.661 -4.43987 6.407 0
M  V30 6575 N 614.89 -1.56749 -0.16351 0
M  V30 6576 C 615.84 -1.93424 -1.20712 0
M  V30 6577 C 616.824 -0.803469 -1.39403 0
M  V30 6578 O 618.016 -1.06675 -1.41243 0
M  V30 6579 C 615.145 -2.30431 -2.54473 0
M  V30 6580 C 614.231 -3.5004 -2.39443 0
M  V30 6581 N 614.622 -4.67058 -1.9414 0
M  V30 6582 C 612.92 -3.548 -2.70246 0
M  V30 6583 C 613.621 -5.49184 -1.9176 0
M  V30 6584 N 612.597 -4.9044 -2.34457 0
M  V30 6585 H 616.399 -2.8138 -0.848681 0
M  V30 6586 H 613.913 -1.58089 -0.371717 0
M  V30 6587 H 615.91 -2.54903 -3.29894 0
M  V30 6588 H 614.57 -1.43818 -2.91112 0
M  V30 6589 H 615.581 -4.91128 -1.64357 0
M  V30 6590 H 612.258 -2.78685 -3.10871 0
M  V30 6591 H 613.648 -6.5297 -1.58366 0
M  V30 6592 N 616.368 0.432326 -1.51554 0
M  V30 6593 C 617.608 1.19076 -1.66133 0
M  V30 6594 C 617.972 1.88364 -0.371873 0
M  V30 6595 O 619.173 2.65904 -0.39349 0
M  V30 6596 C 617.444 2.1768 -2.83461 0
M  V30 6597 S 619.003 3.01943 -3.18396 0
M  V30 6598 H 615.821 0.403735 -0.585251 0
M  V30 6599 H 618.423 0.481554 -1.89476 0
M  V30 6600 H 617.127 1.65424 -3.75583 0
M  V30 6601 H 616.658 2.93174 -2.62322 0
M  V30 6602 H 618.673 4.19373 -2.65219 0
M  V30 6603 N 617.846 1.41785 0.688094 0
M  V30 6604 C 619.257 1.3701 1.26828 0
M  V30 6605 C 619.608 0.056835 1.96118 0
M  V30 6606 O 618.733 -0.84475 1.99231 0
M  V30 6607 C 619.328 2.48168 2.30648 0
M  V30 6608 C 617.887 2.46766 2.84224 0
M  V30 6609 C 617.034 2.27633 1.58361 0
M  V30 6610 H 619.985 1.51192 0.482351 0
M  V30 6611 H 620.006 2.17655 3.121 0
M  V30 6612 H 619.518 3.43735 1.80188 0
M  V30 6613 H 617.619 1.54978 3.3884 0
M  V30 6614 H 617.732 3.43342 3.34145 0
M  V30 6615 H 616.096 1.75648 1.84445 0
M  V30 6616 H 616.879 3.25238 1.09887 0
M  V30 6617 N 619.324 -0.923095 1.27737 0
M  V30 6618 C 620.601 -1.64989 1.05062 0
M  V30 6619 C 620.981 -2.07018 -0.413124 0
M  V30 6620 O 620.329 -1.80797 -1.39731 0
M  V30 6621 C 620.539 -2.84847 2.01652 0
M  V30 6622 C 621.887 -3.56083 2.31279 0
M  V30 6623 O 622.911 -2.94981 1.99662 0
M  V30 6624 O 621.77 -4.66182 2.85196 0
M  V30 6625 H 618.864 -0.723357 0.400853 0
M  V30 6626 H 621.41 -0.973224 1.3902 0
M  V30 6627 H 620.182 -2.50814 3.00347 0
M  V30 6628 H 619.805 -3.60231 1.68284 0
M  V30 6629 N 620.802 -1.09834 -1.13024 0
M  V30 6630 C 622.027 -0.85909 -1.88771 0
M  V30 6631 C 622.452 0.584402 -1.78791 0
M  V30 6632 O 621.81 1.41101 -1.13842 0
M  V30 6633 C 621.858 -1.30427 -3.36186 0
M  V30 6634 O 620.962 -0.465368 -4.09766 0
M  V30 6635 H 620.303 -0.310786 -0.586778 0
M  V30 6636 H 622.833 -1.46355 -1.42973 0
M  V30 6637 H 622.843 -1.2915 -3.8702 0
M  V30 6638 H 621.518 -2.3555 -3.42767 0
M  V30 6639 H 620.095 -0.542814 -3.68928 0
M  V30 6640 N 622.28 1.30327 -0.886154 0
M  V30 6641 C 623.19 2.31854 -0.357866 0
M  V30 6642 C 624.206 1.65392 0.540502 0
M  V30 6643 O 625.382 1.96683 0.433339 0
M  V30 6644 C 622.447 3.44171 0.417999 0
M  V30 6645 C 621.508 4.26257 -0.510263 0
M  V30 6646 C 620.741 5.3321 0.228669 0
M  V30 6647 O 620.964 5.51542 1.45458 0
M  V30 6648 O 619.898 6.0042 -0.421832 0
M  V30 6649 H 623.724 2.78995 -1.19982 0
M  V30 6650 H 621.309 1.34518 -0.650028 0
M  V30 6651 H 623.191 4.12588 0.857251 0
M  V30 6652 H 621.866 2.99164 1.23623 0
M  V30 6653 H 620.773 3.60533 -0.99835 0
M  V30 6654 H 622.106 4.74871 -1.29454 0
M  V30 6655 N 623.758 0.647228 1.43697 0
M  V30 6656 C 624.983 0.164083 2.0675 0
M  V30 6657 C 625.408 -1.15892 1.48158 0
M  V30 6658 O 624.766 -1.71459 0.589194 0
M  V30 6659 C 624.814 0.0800368 3.60511 0
M  V30 6660 O 623.918 -0.959453 4.01084 0
M  V30 6661 H 623.259 0.0921288 0.657578 0
M  V30 6662 H 625.789 0.88846 1.84303 0
M  V30 6663 H 625.799 -0.105263 4.07864 0
M  V30 6664 H 624.474 1.04586 4.02535 0
M  V30 6665 H 623.051 -0.747425 3.65333 0
M  V30 6666 N 625.236 -1.5273 0.388769 0
M  V30 6667 C 626.652 -1.59553 0.0387049 0
M  V30 6668 C 626.852 -1.40278 -1.44652 0
M  V30 6669 O 625.908 -1.21951 -2.21098 0
M  V30 6670 C 627.221 -2.9625 0.515409 0
M  V30 6671 C 628.769 -3.09426 0.471621 0
M  V30 6672 C 629.244 -4.48572 0.924505 0
M  V30 6673 N 630.735 -4.54754 0.880496 0
M  V30 6674 C 631.47 -5.60653 1.20234 0
M  V30 6675 N 630.966 -6.74198 1.59463 0
M  V30 6676 N 632.759 -5.50755 1.12363 0
M  V30 6677 H 624.91 -1.63508 1.35569 0
M  V30 6678 H 627.173 -0.768097 0.555636 0
M  V30 6679 H 626.879 -3.15569 1.5527 0
M  V30 6680 H 626.753 -3.77102 -0.085792 0
M  V30 6681 H 629.14 -2.89804 -0.556588 0
M  V30 6682 H 629.221 -2.30528 1.10862 0
M  V30 6683 H 628.865 -4.68936 1.95094 0
M  V30 6684 H 628.795 -5.25935 0.264524 0
M  V30 6685 H 631.286 -3.73237 0.591815 0
M  V30 6686 H 631.599 -7.5097 1.82385 0
M  V30 6687 H 629.944 -6.75531 1.63349 0
M  V30 6688 H 633.135 -4.6093 0.816169 0
M  V30 6689 H 633.308 -6.33184 1.37777 0
M  V30 6690 N 626.714 -0.118576 -1.57153 0
M  V30 6691 C 627.677 0.817464 -2.14127 0
M  V30 6692 C 628.677 1.1949 -1.07604 0
M  V30 6693 O 629.867 1.12048 -1.33382 0
M  V30 6694 C 626.999 2.10541 -2.68115 0
M  V30 6695 H 628.192 0.322339 -2.98163 0
M  V30 6696 H 625.745 0.130655 -1.55753 0
M  V30 6697 H 626.48 2.64485 -1.87665 0
M  V30 6698 H 626.265 1.84425 -3.4602 0
M  V30 6699 H 627.755 2.77453 -3.12105 0
M  V30 6700 N 628.193 1.56834 0.155195 0
M  V30 6701 C 629.604 1.72421 0.716082 0
M  V30 6702 C 629.955 0.731685 1.82046 0
M  V30 6703 O 629.08 -0.103481 2.16152 0
M  V30 6704 C 629.675 3.12629 1.30571 0
M  V30 6705 C 628.234 3.29846 1.81325 0
M  V30 6706 C 627.381 2.68359 0.698494 0
M  V30 6707 H 630.332 1.58544 -0.0703861 0
M  V30 6708 H 630.353 3.12174 2.1755 0
M  V30 6709 H 629.865 3.84844 0.501701 0
M  V30 6710 H 627.966 2.62614 2.64319 0
M  V30 6711 H 628.079 4.37727 1.9476 0
M  V30 6712 H 626.443 2.28604 1.12305 0
M  V30 6713 H 627.226 3.43171 -0.0939366 0
M  V30 6714 N 629.671 -0.424282 1.51781 0
M  V30 6715 C 630.603 -1.53457 1.70246 0
M  V30 6716 C 631.616 -1.52004 0.582967 0
M  V30 6717 O 632.805 -1.56544 0.857683 0
M  V30 6718 C 629.905 -2.92368 1.71389 0
M  V30 6719 C 629.078 -3.1818 3.00133 0
M  V30 6720 C 628.137 -4.36884 2.9329 0
M  V30 6721 O 627.163 -4.34901 3.67219 0
M  V30 6722 N 628.365 -5.4117 2.10036 0
M  V30 6723 H 631.13 -1.38017 2.66029 0
M  V30 6724 H 628.691 -0.613394 1.4983 0
M  V30 6725 H 630.683 -3.6982 1.64362 0
M  V30 6726 H 629.253 -3.0134 0.831449 0
M  V30 6727 H 628.473 -2.28908 3.20928 0
M  V30 6728 H 629.761 -3.32261 3.85331 0
M  V30 6729 H 629.159 -5.45623 1.49373 0
M  V30 6730 H 627.716 -6.17425 2.08878 0
M  V30 6731 N 631.149 -1.42148 -0.680565 0
M  V30 6732 C 632.398 -1.41604 -1.43636 0
M  V30 6733 C 632.711 -0.0337887 -1.95571 0
M  V30 6734 O 633.917 0.0942588 -2.71336 0
M  V30 6735 C 632.373 -2.49056 -2.59806 0
M  V30 6736 C 631.981 -3.9326 -2.14594 0
M  V30 6737 C 633.725 -2.5767 -3.37352 0
M  V30 6738 C 631.632 -4.92232 -3.27813 0
M  V30 6739 H 630.562 -0.526656 -0.539583 0
M  V30 6740 H 633.213 -1.68033 -0.737369 0
M  V30 6741 H 631.595 -2.15782 -3.32045 0
M  V30 6742 H 632.769 -4.35858 -1.49546 0
M  V30 6743 H 631.084 -3.88443 -1.50002 0
M  V30 6744 H 633.681 -3.28794 -4.21662 0
M  V30 6745 H 634.024 -1.61837 -3.83555 0
M  V30 6746 H 634.557 -2.90109 -2.72179 0
M  V30 6747 H 631.296 -5.89522 -2.86607 0
M  V30 6748 H 630.816 -4.5427 -3.91661 0
M  V30 6749 H 632.495 -5.13684 -3.93367 0
M  V30 6750 N 632.627 0.916307 -1.28225 0
M  V30 6751 C 633.557 2.0352 -1.14464 0
M  V30 6752 C 634.538 1.70045 -0.0430844 0
M  V30 6753 O 635.723 1.92954 -0.219619 0
M  V30 6754 C 632.853 3.37889 -0.803027 0
M  V30 6755 C 631.807 3.85516 -1.85908 0
M  V30 6756 C 631.133 5.1682 -1.37116 0
M  V30 6757 C 632.433 4.07655 -3.26519 0
M  V30 6758 H 634.127 2.1529 -2.08064 0
M  V30 6759 H 631.673 1.03446 -1.00174 0
M  V30 6760 H 633.626 4.15654 -0.693537 0
M  V30 6761 H 632.35 3.26164 0.168674 0
M  V30 6762 H 631.009 3.09953 -1.95767 0
M  V30 6763 H 630.657 5.01497 -0.38859 0
M  V30 6764 H 630.357 5.49657 -2.07728 0
M  V30 6765 H 631.881 5.97143 -1.27484 0
M  V30 6766 H 633.295 4.75953 -3.19596 0
M  V30 6767 H 631.692 4.51818 -3.94943 0
M  V30 6768 H 632.762 3.12553 -3.70727 0
M  V30 6769 N 634.105 1.10431 1.1244 0
M  V30 6770 C 635.521 0.836096 1.35947 0
M  V30 6771 C 635.721 -0.544475 1.94004 0
M  V30 6772 O 634.777 -1.29735 2.16622 0
M  V30 6773 C 636.09 1.93575 2.30107 0
M  V30 6774 C 637.638 1.9642 2.43697 0
M  V30 6775 C 638.113 3.05559 3.41171 0
M  V30 6776 N 639.604 3.04865 3.48728 0
M  V30 6777 C 640.339 3.85954 4.24061 0
M  V30 6778 N 639.835 4.76977 5.02458 0
M  V30 6779 N 641.628 3.74172 4.19466 0
M  V30 6780 H 633.779 1.9942 0.731124 0
M  V30 6781 H 636.042 0.866607 0.384312 0
M  V30 6782 H 635.748 2.92943 1.94621 0
M  V30 6783 H 635.622 1.8229 3.30227 0
M  V30 6784 H 638.009 0.97685 2.78463 0
M  V30 6785 H 638.09 2.11782 1.43465 0
M  V30 6786 H 637.734 4.04513 3.07135 0
M  V30 6787 H 637.664 2.87438 4.41234 0
M  V30 6788 H 640.155 2.38908 2.92799 0
M  V30 6789 H 640.468 5.35409 5.57277 0
M  V30 6790 H 638.813 4.81006 5.01655 0
M  V30 6791 H 642.004 3.02412 3.57302 0
M  V30 6792 H 642.177 4.37602 4.77921 0
M  V30 6793 N 635.583 -1.29855 0.893053 0
M  V30 6794 C 636.999 -1.48366 0.588199 0
M  V30 6795 C 637.199 -1.81654 -0.872018 0
M  V30 6796 O 636.255 -1.909 -1.65268 0
M  V30 6797 C 637.568 -2.60136 1.5083 0
M  V30 6798 C 639.116 -2.74014 1.51279 0
M  V30 6799 C 639.591 -3.88905 2.41902 0
M  V30 6800 N 641.082 -3.96228 2.39911 0
M  V30 6801 C 641.817 -4.84458 3.06738 0
M  V30 6802 N 641.313 -5.77426 3.8282 0
M  V30 6803 N 643.106 -4.77894 2.95929 0
M  V30 6804 H 635.257 -1.06522 1.83757 0
M  V30 6805 H 637.52 -0.528495 0.787018 0
M  V30 6806 H 637.226 -2.42383 2.54839 0
M  V30 6807 H 637.1 -3.56793 1.22388 0
M  V30 6808 H 639.487 -2.91167 0.480179 0
M  V30 6809 H 639.568 -1.77952 1.83757 0
M  V30 6810 H 639.212 -3.72508 3.45253 0
M  V30 6811 H 639.142 -4.84322 2.06737 0
M  V30 6812 H 641.633 -3.29728 1.84629 0
M  V30 6813 H 641.946 -6.41529 4.30883 0
M  V30 6814 H 640.291 -5.77332 3.86927 0
M  V30 6815 H 643.482 -4.04248 2.36012 0
M  V30 6816 H 643.655 -5.46444 3.48286 0
M  V30 6817 N 637.061 -0.65484 -1.43351 0
M  V30 6818 C 637.993 0.0744757 -2.29079 0
M  V30 6819 C 639.006 0.7855 -1.42596 0
M  V30 6820 O 640.195 0.642986 -1.66517 0
M  V30 6821 C 637.295 1.12859 -3.19556 0
M  V30 6822 C 636.468 0.495381 -4.34586 0
M  V30 6823 C 635.527 1.44659 -5.05925 0
M  V30 6824 O 634.553 0.954567 -5.61139 0
M  V30 6825 N 635.755 2.78051 -5.09576 0
M  V30 6826 H 638.52 -0.661346 -2.92312 0
M  V30 6827 H 636.081 -0.497744 -1.54059 0
M  V30 6828 H 638.073 1.76577 -3.64147 0
M  V30 6829 H 636.643 1.76636 -2.57912 0
M  V30 6830 H 635.863 -0.32092 -3.92892 0
M  V30 6831 H 637.151 0.0534203 -5.08772 0
M  V30 6832 H 636.549 3.20584 -4.66093 0
M  V30 6833 H 635.106 3.37068 -5.57878 0
M  V30 6834 N 638.539 1.52521 -0.396863 0
M  V30 6835 C 639.764 2.06571 0.185258 0
M  V30 6836 C 640.189 1.26605 1.39115 0
M  V30 6837 O 639.547 0.293055 1.78916 0
M  V30 6838 C 639.595 3.5674 0.526189 0
M  V30 6839 O 638.699 3.7929 1.61903 0
M  V30 6840 H 638.04 0.663712 0.0195474 0
M  V30 6841 H 640.57 1.966 -0.566519 0
M  V30 6842 H 640.58 4.00311 0.788338 0
M  V30 6843 H 639.255 4.14379 -0.355397 0
M  V30 6844 H 637.832 3.47605 1.35 0
M  V30 6845 N 640.017 0.126909 1.57088 0
M  V30 6846 C 641.242 -0.53997 2.00248 0
M  V30 6847 C 641.667 -1.58927 1.00618 0
M  V30 6848 O 641.025 -1.81288 -0.0210131 0
M  V30 6849 C 641.073 -1.13565 3.4225 0
M  V30 6850 O 640.177 -2.25103 3.45547 0
M  V30 6851 H 639.518 -0.13412 0.650314 0
M  V30 6852 H 642.048 0.217718 2.03438 0
M  V30 6853 H 642.058 -1.46925 3.80627 0
M  V30 6854 H 640.733 -0.367122 4.14277 0
M  V30 6855 H 639.31 -1.93123 3.18995 0
M  V30 6856 N 641.495 -1.56914 -0.146875 0
M  V30 6857 C 642.906 -1.72799 -0.706928 0
M  V30 6858 C 643.257 -0.741329 -1.81656 0
M  V30 6859 O 642.382 0.0920162 -2.16204 0
M  V30 6860 C 642.977 -3.13317 -1.28911 0
M  V30 6861 C 641.536 -3.30803 -1.79573 0
M  V30 6862 C 640.683 -2.68725 -0.684252 0
M  V30 6863 H 643.634 -1.58504 0.0787931 0
M  V30 6864 H 643.655 -3.13323 -2.15891 0
M  V30 6865 H 643.167 -3.85104 -0.481284 0
M  V30 6866 H 641.268 -2.64012 -2.62923 0
M  V30 6867 H 641.381 -4.38754 -1.92436 0
M  V30 6868 H 639.745 -2.29196 -1.11091 0
M  V30 6869 H 640.528 -3.43117 0.112134 0
M  V30 6870 N 642.974 0.416227 -1.52004 0
M  V30 6871 C 644.199 1.19029 -1.69843 0
M  V30 6872 C 644.624 1.83708 -0.404103 0
M  V30 6873 O 643.982 1.69711 0.637787 0
M  V30 6874 C 644.03 2.23439 -2.83032 0
M  V30 6875 O 643.134 3.29419 -2.48106 0
M  V30 6876 H 642.475 0.347785 -0.565634 0
M  V30 6877 H 645.005 0.488871 -1.98674 0
M  V30 6878 H 645.015 2.67884 -3.07737 0
M  V30 6879 H 643.69 1.75745 -3.76944 0
M  V30 6880 H 642.267 2.90303 -2.34048 0
M  V30 6881 N 644.452 1.42507 0.673017 0
M  V30 6882 C 645.692 1.44559 1.44507 0
M  V30 6883 C 646.056 0.0606206 1.91904 0
M  V30 6884 O 647.257 -0.044139 2.68764 0
M  V30 6885 C 645.528 2.44291 2.60877 0
M  V30 6886 S 647.087 2.65059 3.49699 0
M  V30 6887 H 643.905 0.51181 0.49353 0
M  V30 6888 H 646.507 1.79124 0.783256 0
M  V30 6889 H 645.211 3.43685 2.24297 0
M  V30 6890 H 644.742 2.11157 3.31928 0
M  V30 6891 H 646.757 1.93494 4.56919 0
M  V30 6892 N 645.93 -0.909495 1.28709 0
M  V30 6893 C 647.178 -1.65577 1.15882 0
M  V30 6894 C 647.499 -1.928 -0.292108 0
M  V30 6895 O 646.769 -1.54716 -1.20166 0
M  V30 6896 H 645.349 -0.613714 0.425869 0
M  V30 6897 H 648.011 -1.09108 1.61498 0
M  V30 6898 H 647.107 -2.61634 1.70159 0
M  V30 6899 N 647.408 -1.11026 -1.11852 0
M  V30 6900 C 648.819 -0.873203 -1.65021 0
M  V30 6901 C 649.17 0.595364 -1.86949 0
M  V30 6902 O 648.295 1.45645 -1.60051 0
M  V30 6903 C 648.89 -1.57859 -2.99777 0
M  V30 6904 C 647.449 -1.38807 -3.49871 0
M  V30 6905 C 646.596 -1.62403 -2.24768 0
M  V30 6906 H 649.547 -1.26712 -0.955503 0
M  V30 6907 H 649.568 -1.02111 -3.66543 0
M  V30 6908 H 649.08 -2.6474 -2.83786 0
M  V30 6909 H 647.181 -0.341163 -3.71035 0
M  V30 6910 H 647.294 -2.13421 -4.28938 0
M  V30 6911 H 645.658 -1.04714 -2.32179 0
M  V30 6912 H 646.441 -2.70549 -2.11324 0
M  V30 6913 N 648.886 1.2938 -0.899927 0
M  V30 6914 C 650.132 1.9584 -0.526742 0
M  V30 6915 C 650.465 1.70774 0.924651 0
M  V30 6916 O 649.74 1.02084 1.65557 0
M  V30 6917 C 650.023 3.50638 -0.820062 0
M  V30 6918 C 649.876 3.85161 -2.32317 0
M  V30 6919 C 651.195 4.3903 -0.30671 0
M  V30 6920 H 648.314 0.711322 -0.192848 0
M  V30 6921 H 650.956 1.52992 -1.12665 0
M  V30 6922 H 649.106 3.87265 -0.309491 0
M  V30 6923 H 650.778 3.58477 -2.9033 0
M  V30 6924 H 649.021 3.32696 -2.78381 0
M  V30 6925 H 649.692 4.93204 -2.47898 0
M  V30 6926 H 652.168 4.09396 -0.743908 0
M  V30 6927 H 651.044 5.46226 -0.541144 0
M  V30 6928 H 651.305 4.34937 0.792588 0
M  V30 6929 N 650.364 0.662433 1.43002 0
M  V30 6930 C 651.327 -0.0142016 2.29196 0
M  V30 6931 C 652.327 -0.741394 1.42688 0
M  V30 6932 O 653.517 -0.581257 1.64216 0
M  V30 6933 C 650.649 -1.03084 3.24941 0
M  V30 6934 H 651.842 0.7443 2.90517 0
M  V30 6935 H 649.395 0.424133 1.50435 0
M  V30 6936 H 650.13 -1.81826 2.68533 0
M  V30 6937 H 649.915 -0.512946 3.8873 0
M  V30 6938 H 651.405 -1.50308 3.89612 0
M  V30 6939 N 651.842 -1.52309 0.404946 0
M  V30 6940 C 652.752 -2.30634 -0.429555 0
M  V30 6941 C 653.768 -1.38187 -1.05737 0
M  V30 6942 O 654.944 -1.71261 -1.05979 0
M  V30 6943 C 652.009 -3.10947 -1.53339 0
M  V30 6944 C 651.07 -4.19126 -0.929065 0
M  V30 6945 C 650.303 -4.95601 -1.9803 0
M  V30 6946 O 650.526 -4.72331 -3.1978 0
M  V30 6947 O 649.46 -5.80551 -1.58886 0
M  V30 6948 H 653.286 -3.0298 0.208963 0
M  V30 6949 H 650.871 -1.4845 0.168255 0
M  V30 6950 H 652.753 -3.60974 -2.1743 0
M  V30 6951 H 651.428 -2.41399 -2.15658 0
M  V30 6952 H 650.335 -3.73257 -0.250982 0
M  V30 6953 H 651.668 -4.90955 -0.349855 0
M  V30 6954 N 653.32 -0.135238 -1.57019 0
M  V30 6955 C 654.548 0.526066 -2.001 0
M  V30 6956 C 654.963 1.59184 -1.01519 0
M  V30 6957 O 654.32 1.82497 -0.0104258 0
M  V30 6958 C 654.371 1.13744 -3.43139 0
M  V30 6959 O 654.092 0.114259 -4.37951 0
M  V30 6960 C 655.593 1.8805 -4.01438 0
M  V30 6961 H 652.813 0.137962 -0.656664 0
M  V30 6962 H 655.357 -0.226359 -2.03243 0
M  V30 6963 H 653.512 1.84056 -3.40885 0
M  V30 6964 H 653.926 0.56058 -5.21496 0
M  V30 6965 H 655.4 2.26133 -5.03555 0
M  V30 6966 H 655.877 2.76194 -3.41487 0
M  V30 6967 H 656.483 1.22464 -4.07287 0
M  V30 6968 N 654.798 1.5699 0.138552 0
M  V30 6969 C 656.023 1.88344 0.86841 0
M  V30 6970 C 656.448 0.725159 1.7356 0
M  V30 6971 O 655.806 -0.324992 1.78363 0
M  V30 6972 C 655.854 3.18334 1.69398 0
M  V30 6973 O 654.958 3.02863 2.79907 0
M  V30 6974 H 654.299 0.618577 0.241367 0
M  V30 6975 H 656.829 2.04207 0.126826 0
M  V30 6976 H 656.839 3.50567 2.08726 0
M  V30 6977 H 655.514 4.02238 1.05725 0
M  V30 6978 H 654.091 2.82056 2.43924 0
M  V30 6979 N 656.276 -0.40816 1.52223 0
M  V30 6980 C 657.501 -1.18127 1.70472 0
M  V30 6981 C 657.926 -1.83491 0.41384 0
M  V30 6982 O 657.284 -1.70047 -0.628778 0
M  V30 6983 C 657.332 -2.21935 2.84213 0
M  V30 6984 O 656.436 -3.28099 2.4985 0
M  V30 6985 H 655.777 -0.344781 0.56747 0
M  V30 6986 H 658.307 -0.478328 1.9893 0
M  V30 6987 H 658.317 -2.66248 3.09153 0
M  V30 6988 H 656.992 -1.73744 3.7787 0
M  V30 6989 H 655.569 -2.89058 2.35584 0
M  V30 6990 N 657.755 -1.42862 -0.66545 0
M  V30 6991 C 659.004 -1.43119 -1.42126 0
M  V30 6992 C 659.317 -0.0545297 -1.95524 0
M  V30 6993 O 660.523 0.0654747 -2.71421 0
M  V30 6994 C 658.979 -2.51797 -2.5715 0
M  V30 6995 C 658.587 -3.95514 -2.10411 0
M  V30 6996 C 660.331 -2.61233 -3.346 0
M  V30 6997 C 658.238 -4.95682 -3.22573 0
M  V30 6998 H 657.168 -0.532349 -0.533966 0
M  V30 6999 H 659.819 -1.68806 -0.719506 0
M  V30 7000 H 658.201 -2.19292 -3.29738 0
M  V30 7001 H 659.375 -4.3742 -1.44915 0
M  V30 7002 H 657.69 -3.90012 -1.45874 0
M  V30 7003 H 660.287 -3.33248 -4.18151 0
M  V30 7004 H 660.63 -1.65896 -3.81817 0
M  V30 7005 H 661.163 -2.9298 -2.69087 0
M  V30 7006 H 657.902 -5.92529 -2.80338 0
M  V30 7007 H 657.422 -4.58399 -3.86821 0
M  V30 7008 H 659.101 -5.17828 -3.87896 0
M  V30 7009 N 659.233 0.902656 -1.29189 0
M  V30 7010 C 660.481 1.6496 -1.16758 0
M  V30 7011 C 660.802 1.92952 0.28188 0
M  V30 7012 O 660.072 1.55351 1.19344 0
M  V30 7013 H 658.652 0.611447 -0.429118 0
M  V30 7014 H 661.314 1.0825 -1.62074 0
M  V30 7015 H 660.41 2.60728 -1.71544 0
M  V30 7016 N 660.711 1.11618 1.11262 0
M  V30 7017 C 661.659 0.771291 2.1944 0
M  V30 7018 C 662.653 -0.238073 1.67719 0
M  V30 7019 O 663.859 -0.0971628 1.79738 0
M  V30 7020 H 660.234 0.231548 0.715465 0
M  V30 7021 H 662.205 1.69226 2.45775 0
M  V30 7022 C 660.954 0.232765 3.4692 0
M  V30 7023 H 660.277 1.00072 3.87073 0
M  V30 7024 H 661.717 0.0296561 4.2399 0
M  V30 7025 C 660.176 -1.03738 3.20531 0
M  V30 7026 O 660.706 -2.11675 3.41404 0
M  V30 7027 N 658.912 -0.960906 2.74253 0
M  V30 7028 H 658.459 -0.0824323 2.57468 0
M  V30 7029 H 658.417 -1.8114 2.56974 0
M  V30 7030 N 662.189 -1.289 0.906776 0
M  V30 7031 C 663.437 -1.94883 0.535266 0
M  V30 7032 C 663.758 -1.71784 -0.922791 0
M  V30 7033 O 663.028 -1.05359 -1.65156 0
M  V30 7034 H 661.608 -0.721109 0.194962 0
M  V30 7035 H 664.27 -1.57018 1.15461 0
M  V30 7036 H 663.366 -3.03591 0.723821 0
M  V30 7037 N 663.667 -0.670007 -1.42649 0
M  V30 7038 C 664.944 -0.119451 -1.95235 0
M  V30 7039 C 665.324 1.36461 -1.61064 0
M  V30 7040 O 664.672 2.09843 -0.904329 0
M  V30 7041 C 664.882 -0.383498 -3.46887 0
M  V30 7042 C 666.23 -0.297431 -4.23557 0
M  V30 7043 O 667.254 -0.31698 -3.54787 0
M  V30 7044 O 666.113 -0.235507 -5.45992 0
M  V30 7045 H 663.207 -8.85474e-05 -0.827 0
M  V30 7046 H 665.753 -0.744406 -1.52501 0
M  V30 7047 H 664.525 -1.41174 -3.64946 0
M  V30 7048 H 664.148 0.273702 -3.96657 0
M  V30 7049 N 665.145 1.52092 -0.413018 0
M  V30 7050 C 666.393 2.01456 0.161178 0
M  V30 7051 C 666.714 1.30034 1.45314 0
M  V30 7052 O 665.984 0.427435 1.9118 0
M  V30 7053 H 664.564 0.744376 0.0625526 0
M  V30 7054 H 667.226 1.86974 -0.550151 0
M  V30 7055 H 666.322 3.1008 0.354517 0
M  V30 7056 N 666.623 0.143563 1.56945 0
M  V30 7057 C 667.872 -0.50835 1.95189 0
M  V30 7058 C 668.185 -1.66239 1.03073 0
M  V30 7059 O 669.391 -2.3787 1.30882 0
M  V30 7060 C 667.847 -0.955735 3.46978 0
M  V30 7061 C 667.455 0.171183 4.47673 0
M  V30 7062 C 669.199 -1.57763 3.94095 0
M  V30 7063 C 667.106 -0.294279 5.90667 0
M  V30 7064 H 666.036 -0.193679 0.728701 0
M  V30 7065 H 668.687 0.227357 1.82086 0
M  V30 7066 H 667.069 -1.7466 3.55401 0
M  V30 7067 H 668.243 0.948049 4.50942 0
M  V30 7068 H 666.558 0.701273 4.10452 0
M  V30 7069 H 669.155 -1.93745 4.98364 0
M  V30 7070 H 669.498 -2.46531 3.35452 0
M  V30 7071 H 670.031 -0.851728 3.88575 0
M  V30 7072 H 666.77 0.557939 6.53121 0
M  V30 7073 H 666.29 -1.0371 5.90766 0
M  V30 7074 H 667.969 -0.747426 6.42668 0
M  V30 7075 N 668.101 -1.57061 -0.130224 0
M  V30 7076 C 669.326 -1.88802 -0.858409 0
M  V30 7077 C 669.751 -0.734353 -1.73173 0
M  V30 7078 O 669.109 0.315529 -1.78533 0
M  V30 7079 C 669.157 -3.19228 -1.67708 0
M  V30 7080 O 668.261 -3.04343 -2.78297 0
M  V30 7081 H 667.602 -0.619849 -0.238083 0
M  V30 7082 H 670.132 -2.04271 -0.115995 0
M  V30 7083 H 670.142 -3.51669 -2.06864 0
M  V30 7084 H 668.817 -4.02793 -1.0359 0
M  V30 7085 H 667.394 -2.83346 -2.42425 0
M  V30 7086 N 669.579 0.400081 -1.52437 0
M  V30 7087 C 670.526 1.48803 -1.76426 0
M  V30 7088 C 671.496 1.5461 -0.607032 0
M  V30 7089 O 672.681 1.71041 -0.845563 0
M  V30 7090 C 669.821 2.86156 -1.92896 0
M  V30 7091 C 668.934 2.89587 -3.20567 0
M  V30 7092 C 668.069 4.18296 -3.27417 0
M  V30 7093 C 667.108 4.15736 -4.49255 0
M  V30 7094 N 666.245 5.36032 -4.53447 0
M  V30 7095 H 671.085 1.27649 -2.69276 0
M  V30 7096 H 668.622 0.619451 -1.33421 0
M  V30 7097 H 670.58 3.65901 -2.00429 0
M  V30 7098 H 669.21 3.05785 -1.03418 0
M  V30 7099 H 668.262 2.02278 -3.22161 0
M  V30 7100 H 669.574 2.83562 -4.10358 0
M  V30 7101 H 668.728 5.06439 -3.34072 0
M  V30 7102 H 667.467 4.27028 -2.35581 0
M  V30 7103 H 666.472 3.25982 -4.42737 0
M  V30 7104 H 667.697 4.08636 -5.42396 0
M  V30 7105 H 665.643 5.45415 -3.64498 0
M  V30 7106 H 665.56 5.32038 -5.37096 0
M  V30 7107 H 666.828 6.26104 -4.64343 0
M  V30 7108 N 671.057 1.43213 0.657864 0
M  V30 7109 C 671.987 1.50815 1.78262 0
M  V30 7110 C 672.968 0.363211 1.66177 0
M  V30 7111 O 674.153 0.579806 1.85343 0
M  V30 7112 C 671.283 1.42625 3.16663 0
M  V30 7113 C 670.237 2.5532 3.43505 0
M  V30 7114 C 669.563 2.32184 4.81658 0
M  V30 7115 C 670.863 3.97583 3.38711 0
M  V30 7116 H 672.557 2.44954 1.72157 0
M  V30 7117 H 670.103 1.17896 0.82683 0
M  V30 7118 H 672.056 1.46548 3.95097 0
M  V30 7119 H 670.78 0.449877 3.23487 0
M  V30 7120 H 669.439 2.50742 2.6744 0
M  V30 7121 H 669.087 1.32801 4.85153 0
M  V30 7122 H 668.787 3.07724 5.00579 0
M  V30 7123 H 670.311 2.37883 5.62356 0
M  V30 7124 H 671.725 4.03673 4.07089 0
M  V30 7125 H 670.122 4.73112 3.69168 0
M  V30 7126 H 671.192 4.23049 2.36976 0
M  V30 7127 N 672.536 -0.895792 1.29666 0
M  V30 7128 C 673.469 -2.00238 1.09453 0
M  V30 7129 C 674.447 -1.62599 0.00527044 0
M  V30 7130 O 675.631 -1.87847 0.156729 0
M  V30 7131 C 672.758 -3.32066 0.667054 0
M  V30 7132 C 671.804 -3.88691 1.7556 0
M  V30 7133 S 672.637 -4.17317 3.35569 0
M  V30 7134 C 673.793 -5.52181 2.94698 0
M  V30 7135 H 674.026 -2.17076 2.03138 0
M  V30 7136 H 671.559 -1.04287 1.13858 0
M  V30 7137 H 673.517 -4.08272 0.427136 0
M  V30 7138 H 672.178 -3.13101 -0.250256 0
M  V30 7139 H 671.371 -4.83918 1.40853 0
M  V30 7140 H 670.973 -3.19187 1.94924 0
M  V30 7141 H 673.265 -6.3281 2.41986 0
M  V30 7142 H 674.208 -5.91817 3.88791 0
M  V30 7143 H 674.616 -5.14225 2.32879 0
M  V30 7144 N 674.014 -1.12206 -1.10668 0
M  V30 7145 C 675.239 -0.898938 -1.86906 0
M  V30 7146 C 675.664 0.546346 -1.79991 0
M  V30 7147 O 675.022 1.38655 -1.1681 0
M  V30 7148 C 675.07 -1.37529 -3.33344 0
M  V30 7149 O 674.174 -0.55218 -4.08687 0
M  V30 7150 H 673.515 -0.323163 -0.580053 0
M  V30 7151 H 676.045 -1.49355 -1.39837 0
M  V30 7152 H 676.055 -1.3733 -3.84193 0
M  V30 7153 H 674.73 -2.42767 -3.37693 0
M  V30 7154 H 673.307 -0.620947 -3.67694 0
M  V30 7155 N 675.492 1.28418 -0.913599 0
M  V30 7156 C 676.402 2.31043 -0.406965 0
M  V30 7157 C 677.418 1.66501 0.505298 0
M  V30 7158 O 678.594 1.97558 0.391522 0
M  V30 7159 C 675.659 3.4498 0.344901 0
M  V30 7160 C 674.72 4.25078 -0.600563 0
M  V30 7161 C 673.953 5.33575 0.115516 0
M  V30 7162 O 674.176 5.54503 1.33727 0
M  V30 7163 O 673.11 5.9939 -0.549095 0
M  V30 7164 H 676.936 2.76387 -1.25873 0
M  V30 7165 H 674.521 1.33109 -0.678415 0
M  V30 7166 H 676.403 4.14314 0.769542 0
M  V30 7167 H 675.078 3.01719 1.1725 0
M  V30 7168 H 673.985 3.58334 -1.0746 0
M  V30 7169 H 675.318 4.72018 -1.39497 0
M  V30 7170 N 676.97 0.677563 1.42291 0
M  V30 7171 C 677.918 -0.0106755 2.32598 0
M  V30 7172 C 678.912 -0.787643 1.49975 0
M  V30 7173 O 680.118 -0.695295 1.66029 0
M  V30 7174 H 676.493 -0.0222482 0.751671 0
M  V30 7175 H 678.464 0.768312 2.88339 0
M  V30 7176 C 677.213 -0.946142 3.3458 0
M  V30 7177 H 676.536 -0.357701 3.98197 0
M  V30 7178 H 677.976 -1.39634 4.00348 0
M  V30 7179 C 676.435 -2.05383 2.67057 0
M  V30 7180 O 676.965 -3.1406 2.50458 0
M  V30 7181 N 675.171 -1.82635 2.26038 0
M  V30 7182 H 674.718 -0.942534 2.39737 0
M  V30 7183 H 674.676 -2.56937 1.81192 0
M  V30 7184 N 678.448 -1.51871 0.421078 0
M  V30 7185 C 679.676 -2.06356 -0.14994 0
M  V30 7186 C 680.091 -1.29006 -1.37851 0
M  V30 7187 O 679.448 -0.345139 -1.79207 0
M  V30 7188 C 679.499 -3.58185 -0.488454 0
M  V30 7189 O 679.22 -4.32611 0.691341 0
M  V30 7190 C 680.721 -4.29129 -1.11191 0
M  V30 7191 H 677.941 -0.67083 -0.0151186 0
M  V30 7192 H 680.485 -1.95638 0.595476 0
M  V30 7193 H 678.64 -3.68871 -1.18376 0
M  V30 7194 H 679.054 -5.22927 0.405906 0
M  V30 7195 H 680.528 -5.36501 -1.29889 0
M  V30 7196 H 681.005 -3.86371 -2.0884 0
M  V30 7197 H 681.611 -4.22843 -0.456458 0
M  V30 7198 N 679.926 -0.151884 -1.56866 0
M  V30 7199 C 680.836 0.798876 -2.20579 0
M  V30 7200 C 681.852 1.268 -1.19154 0
M  V30 7201 O 683.028 1.32418 -1.51748 0
M  V30 7202 C 680.093 2.01861 -2.81874 0
M  V30 7203 C 679.154 1.59825 -3.9844 0
M  V30 7204 C 678.387 2.75984 -4.56802 0
M  V30 7205 O 678.61 3.92331 -4.14044 0
M  V30 7206 O 677.544 2.51175 -5.46987 0
M  V30 7207 H 681.37 0.2865 -3.02346 0
M  V30 7208 H 678.955 0.0753806 -1.4921 0
M  V30 7209 H 680.837 2.73235 -3.20813 0
M  V30 7210 H 679.512 2.52042 -2.03117 0
M  V30 7211 H 678.419 0.854601 -3.64208 0
M  V30 7212 H 679.752 1.14355 -4.78731 0
M  V30 7213 N 681.404 1.57128 0.121893 0
M  V30 7214 C 682.652 1.84335 0.828548 0
M  V30 7215 C 682.973 0.736632 1.80551 0
M  V30 7216 O 682.243 -0.23962 1.94429 0
M  V30 7217 H 680.823 0.680108 0.30897 0
M  V30 7218 H 683.485 1.9459 0.109906 0
M  V30 7219 H 682.581 2.80152 1.37554 0
M  V30 7220 N 682.882 -0.391992 1.52647 0
M  V30 7221 C 684.107 -1.16312 1.71716 0
M  V30 7222 C 684.532 -1.83042 0.433279 0
M  V30 7223 O 683.89 -1.70705 -0.610707 0
M  V30 7224 C 683.938 -2.18908 2.86551 0
M  V30 7225 O 683.042 -3.2543 2.53316 0
M  V30 7226 H 682.383 -0.338743 0.571095 0
M  V30 7227 H 684.913 -0.457202 1.99426 0
M  V30 7228 H 684.923 -2.62954 3.1196 0
M  V30 7229 H 683.598 -1.69726 3.79692 0
M  V30 7230 H 682.175 -2.86543 2.38637 0
M  V30 7231 N 684.36 -1.4356 -0.65026 0
M  V30 7232 C 685.323 -1.48615 -1.74489 0
M  V30 7233 C 686.323 -0.370483 -1.56474 0
M  V30 7234 O 687.513 -0.632351 -1.62317 0
M  V30 7235 C 684.645 -1.34161 -3.13391 0
M  V30 7236 H 685.838 -2.46103 -1.71387 0
M  V30 7237 H 683.391 -1.30369 -0.862186 0
M  V30 7238 H 684.126 -0.376918 -3.22102 0
M  V30 7239 H 683.911 -2.1504 -3.27872 0
M  V30 7240 H 685.401 -1.40637 -3.93206 0
M  V30 7241 N 685.838 0.888903 -1.30139 0
M  V30 7242 C 686.77 1.99972 -1.11999 0
M  V30 7243 C 687.783 1.62673 -0.0643619 0
M  V30 7244 O 688.972 1.75788 -0.309983 0
M  V30 7245 C 686.072 3.31904 -0.685059 0
M  V30 7246 C 685.245 3.97665 -1.82158 0
M  V30 7247 C 684.304 5.07894 -1.37585 0
M  V30 7248 O 683.33 5.2974 -2.08241 0
M  V30 7249 N 684.532 5.7995 -0.252697 0
M  V30 7250 H 687.297 2.16085 -2.07671 0
M  V30 7251 H 684.858 1.06175 -1.22223 0
M  V30 7252 H 686.85 4.03005 -0.369964 0
M  V30 7253 H 685.42 3.12084 0.179507 0
M  V30 7254 H 684.64 3.19787 -2.305 0
M  V30 7255 H 685.928 4.3834 -2.58332 0
M  V30 7256 H 685.326 5.647 0.336141 0
M  V30 7257 H 683.883 6.518 0.00296813 0
M  V30 7258 N 687.317 1.12792 1.10072 0
M  V30 7259 C 688.28 0.802264 2.14701 0
M  V30 7260 C 689.28 -0.18515 1.59731 0
M  V30 7261 O 690.47 0.041109 1.74151 0
M  V30 7262 C 687.602 0.19285 3.40354 0
M  V30 7263 H 688.795 1.72932 2.45019 0
M  V30 7264 H 686.348 0.931662 1.25498 0
M  V30 7265 H 687.083 -0.743748 3.15656 0
M  V30 7266 H 686.868 0.903827 3.81541 0
M  V30 7267 H 688.358 -0.0183704 4.17596 0
M  V30 7268 N 688.795 -1.27931 0.920396 0
M  V30 7269 C 690.206 -1.76707 0.602616 0
M  V30 7270 C 690.557 -1.75249 -0.882159 0
M  V30 7271 O 689.682 -1.35135 -1.69019 0
M  V30 7272 C 690.277 -3.20884 1.08714 0
M  V30 7273 C 688.836 -3.67356 0.820157 0
M  V30 7274 C 687.983 -2.47525 1.25006 0
M  V30 7275 H 690.934 -1.14301 1.10095 0
M  V30 7276 H 690.955 -3.78045 0.431535 0
M  V30 7277 H 690.467 -3.21913 2.1678 0
M  V30 7278 H 688.568 -3.7178 -0.247012 0
M  V30 7279 H 688.681 -4.57181 1.43257 0
M  V30 7280 H 687.045 -2.45765 0.668698 0
M  V30 7281 H 687.828 -2.51269 2.3392 0
M  V30 7282 N 690.273 -0.685099 -1.4193 0
M  V30 7283 C 691.205 0.0258679 -2.29185 0
M  V30 7284 C 692.218 0.755076 -1.44231 0
M  V30 7285 O 693.407 0.60752 -1.67844 0
M  V30 7286 C 690.507 1.06055 -3.21878 0
M  V30 7287 C 689.68 0.403088 -4.35539 0
M  V30 7288 C 688.739 1.33895 -5.0888 0
M  V30 7289 O 687.765 0.835326 -5.63037 0
M  V30 7290 N 688.967 2.6718 -5.15359 0
M  V30 7291 H 691.732 -0.723201 -2.90843 0
M  V30 7292 H 689.293 -0.53031 -1.52968 0
M  V30 7293 H 691.285 1.68813 -3.6781 0
M  V30 7294 H 689.855 1.71126 -2.616 0
M  V30 7295 H 689.075 -0.404185 -3.92122 0
M  V30 7296 H 690.363 -0.0545098 -5.08771 0
M  V30 7297 H 689.761 3.10626 -4.72788 0
M  V30 7298 H 688.318 3.25159 -5.64903 0
M  V30 7299 N 691.751 1.51645 -0.429126 0
M  V30 7300 C 692.681 2.30434 0.377148 0
M  V30 7301 C 693.662 1.35493 1.02838 0
M  V30 7302 O 694.847 1.6441 1.03359 0
M  V30 7303 C 691.977 3.14038 1.48315 0
M  V30 7304 C 690.931 4.1719 0.955855 0
M  V30 7305 C 690.257 4.89263 2.15698 0
M  V30 7306 C 691.557 5.223 -0.00402136 0
M  V30 7307 H 693.251 2.98085 -0.280336 0
M  V30 7308 H 690.797 1.43354 -0.136265 0
M  V30 7309 H 692.75 3.67933 2.05435 0
M  V30 7310 H 691.474 2.44193 2.16881 0
M  V30 7311 H 690.133 3.64335 0.406929 0
M  V30 7312 H 689.781 4.15929 2.82864 0
M  V30 7313 H 689.481 5.59009 1.81059 0
M  V30 7314 H 691.005 5.45978 2.73387 0
M  V30 7315 H 692.419 5.71315 0.476607 0
M  V30 7316 H 690.816 5.99525 -0.26258 0
M  V30 7317 H 691.886 4.75638 -0.943236 0
M  V30 7318 N 693.229 0.160201 1.56784 0
M  V30 7319 C 694.64 -0.358417 1.83227 0
M  V30 7320 C 694.991 -1.63831 1.07952 0
M  V30 7321 O 694.116 -2.13885 0.328995 0
M  V30 7322 C 694.711 -0.657058 3.32368 0
M  V30 7323 C 693.27 -1.12015 3.59346 0
M  V30 7324 C 692.417 -0.15015 2.76893 0
M  V30 7325 H 695.368 0.384669 1.53967 0
M  V30 7326 H 695.389 -1.51033 3.49241 0
M  V30 7327 H 694.901 0.274647 3.87127 0
M  V30 7328 H 693.002 -2.06734 3.09987 0
M  V30 7329 H 693.115 -1.037 4.67743 0
M  V30 7330 H 691.479 -0.645361 2.46388 0
M  V30 7331 H 692.262 0.775379 3.34429 0
M  V30 7332 N 694.707 -1.5719 -0.113559 0
M  V30 7333 C 696.123 -1.52607 -0.467253 0
M  V30 7334 C 696.323 -0.874058 -1.81556 0
M  V30 7335 O 695.379 -0.458703 -2.48299 0
M  V30 7336 C 696.692 -2.97363 -0.446736 0
M  V30 7337 C 698.24 -3.08482 -0.529903 0
M  V30 7338 C 698.715 -4.54809 -0.539721 0
M  V30 7339 N 700.206 -4.59284 -0.601005 0
M  V30 7340 C 700.941 -5.69927 -0.630138 0
M  V30 7341 N 700.437 -6.90051 -0.616589 0
M  V30 7342 N 702.23 -5.5805 -0.673558 0
M  V30 7343 H 694.381 -1.97958 0.769819 0
M  V30 7344 H 696.644 -0.90428 0.284572 0
M  V30 7345 H 696.35 -3.48458 0.47643 0
M  V30 7346 H 696.224 -3.55086 -1.27254 0
M  V30 7347 H 698.611 -2.57386 -1.44349 0
M  V30 7348 H 698.692 -2.53744 0.323695 0
M  V30 7349 H 698.336 -5.06552 0.369843 0
M  V30 7350 H 698.266 -5.07364 -1.41028 0
M  V30 7351 H 700.757 -3.72822 -0.617419 0
M  V30 7352 H 701.07 -7.70132 -0.641592 0
M  V30 7353 H 699.415 -6.92543 -0.583927 0
M  V30 7354 H 702.606 -4.63112 -0.681544 0
M  V30 7355 H 702.779 -6.44286 -0.692794 0
M  V30 7356 N 696.185 0.383891 -1.52853 0
M  V30 7357 C 697.132 1.46924 -1.77995 0
M  V30 7358 C 698.102 1.53958 -0.623396 0
M  V30 7359 O 699.287 1.70134 -0.863657 0
M  V30 7360 C 696.427 2.84093 -1.95921 0
M  V30 7361 C 695.54 2.86171 -3.23621 0
M  V30 7362 C 694.675 4.14799 -3.31836 0
M  V30 7363 C 693.714 4.10948 -4.53639 0
M  V30 7364 N 692.851 5.31192 -4.59107 0
M  V30 7365 H 697.691 1.24786 -2.70615 0
M  V30 7366 H 695.228 0.605265 -1.34071 0
M  V30 7367 H 697.186 3.63755 -2.04299 0
M  V30 7368 H 695.816 3.04671 -1.06656 0
M  V30 7369 H 694.868 1.9885 -3.24288 0
M  V30 7370 H 696.18 2.79194 -4.13343 0
M  V30 7371 H 695.334 5.02867 -3.39425 0
M  V30 7372 H 694.073 4.24505 -2.40097 0
M  V30 7373 H 693.078 3.21268 -4.46169 0
M  V30 7374 H 694.303 4.0286 -5.467 0
M  V30 7375 H 692.249 5.41518 -3.70262 0
M  V30 7376 H 692.166 5.26311 -5.42708 0
M  V30 7377 H 693.434 6.21143 -4.70958 0
M  V30 7378 N 697.663 1.43903 0.642637 0
M  V30 7379 C 698.61 1.49881 1.75512 0
M  V30 7380 C 699.58 0.347538 1.62423 0
M  V30 7381 O 700.765 0.556177 1.82514 0
M  V30 7382 C 697.905 1.43797 3.13714 0
M  V30 7383 C 697.018 2.6921 3.37861 0
M  V30 7384 C 696.153 2.5504 4.6597 0
M  V30 7385 C 695.192 3.75671 4.83257 0
M  V30 7386 N 694.329 3.60247 6.02633 0
M  V30 7387 H 699.169 2.44935 1.69737 0
M  V30 7388 H 696.706 1.21572 0.828165 0
M  V30 7389 H 698.664 1.38262 3.93624 0
M  V30 7390 H 697.294 0.523173 3.18532 0
M  V30 7391 H 696.346 2.8498 2.51973 0
M  V30 7392 H 697.658 3.58786 3.46517 0
M  V30 7393 H 696.812 2.47273 5.54023 0
M  V30 7394 H 695.551 1.63006 4.59653 0
M  V30 7395 H 694.556 3.83836 3.93637 0
M  V30 7396 H 695.781 4.68728 4.91397 0
M  V30 7397 H 693.727 2.70955 5.97427 0
M  V30 7398 H 693.644 4.43431 6.12295 0
M  V30 7399 H 694.912 3.56351 6.93278 0
M  V30 7400 N 699.141 -0.881989 1.30609 0
M  V30 7401 C 700.418 -1.61563 1.10258 0
M  V30 7402 C 700.798 -2.08228 -0.347053 0
M  V30 7403 O 700.146 -1.85151 -1.33908 0
M  V30 7404 C 700.356 -2.78287 2.10612 0
M  V30 7405 C 701.704 -3.48545 2.4249 0
M  V30 7406 O 702.728 -2.88479 2.08945 0
M  V30 7407 O 701.587 -4.56873 2.99883 0
M  V30 7408 H 698.681 -0.710238 0.423663 0
M  V30 7409 H 701.227 -0.928503 1.42045 0
M  V30 7410 H 699.999 -2.41131 3.08174 0
M  V30 7411 H 699.622 -3.54695 1.79659 0
M  V30 7412 N 700.619 -1.13374 -1.09472 0
M  V30 7413 C 701.566 -0.810682 -2.16094 0
M  V30 7414 C 702.536 0.227003 -1.64541 0
M  V30 7415 O 703.721 0.0993538 -1.90541 0
M  V30 7416 C 700.861 -0.282336 -3.43943 0
M  V30 7417 C 699.974 -1.37902 -4.09398 0
M  V30 7418 C 699.109 -0.809066 -5.25002 0
M  V30 7419 C 698.148 -1.88419 -5.82379 0
M  V30 7420 N 697.285 -1.33221 -6.89345 0
M  V30 7421 H 702.125 -1.72397 -2.43071 0
M  V30 7422 H 699.662 -0.860564 -1.19301 0
M  V30 7423 H 701.62 0.0421189 -4.17179 0
M  V30 7424 H 700.25 0.594083 -3.17286 0
M  V30 7425 H 699.302 -1.82008 -3.34032 0
M  V30 7426 H 700.614 -2.19161 -4.48074 0
M  V30 7427 H 699.768 -0.435867 -6.05132 0
M  V30 7428 H 698.507 0.0346058 -4.87688 0
M  V30 7429 H 697.512 -2.26646 -5.00911 0
M  V30 7430 H 698.737 -2.73125 -6.21755 0
M  V30 7431 H 696.683 -0.510535 -6.5401 0
M  V30 7432 H 696.6 -2.08129 -7.26786 0
M  V30 7433 H 697.868 -0.986565 -7.73232 0
M  V30 7434 N 702.098 1.27442 -0.927168 0
M  V30 7435 C 703.514 1.46754 -0.627329 0
M  V30 7436 C 703.714 1.83902 0.823549 0
M  V30 7437 O 702.77 1.95215 1.60148 0
M  V30 7438 C 704.083 2.56045 -1.57674 0
M  V30 7439 C 705.631 2.69906 -1.58491 0
M  V30 7440 C 706.106 3.82355 -2.52128 0
M  V30 7441 N 707.597 3.89728 -2.50332 0
M  V30 7442 C 708.332 4.76155 -3.19475 0
M  V30 7443 N 707.828 5.67073 -3.97995 0
M  V30 7444 N 709.621 4.6988 -3.08496 0
M  V30 7445 H 701.772 1.01613 -1.86517 0
M  V30 7446 H 704.035 0.507443 -0.800753 0
M  V30 7447 H 703.741 2.35542 -2.61176 0
M  V30 7448 H 703.615 3.53423 -1.31804 0
M  V30 7449 H 706.002 2.89792 -0.557208 0
M  V30 7450 H 706.083 1.73018 -1.8841 0
M  V30 7451 H 705.727 3.63224 -3.55008 0
M  V30 7452 H 705.657 4.7867 -2.19505 0
M  V30 7453 H 708.148 3.24717 -1.93306 0
M  V30 7454 H 708.461 6.2988 -4.4774 0
M  V30 7455 H 706.806 5.6687 -4.02098 0
M  V30 7456 H 709.997 3.97848 -2.46646 0
M  V30 7457 H 710.17 5.37017 -3.62652 0
M  V30 7458 N 703.576 0.692616 1.41565 0
M  V30 7459 C 704.853 0.150496 1.9502 0
M  V30 7460 C 705.233 -1.33881 1.63215 0
M  V30 7461 O 704.581 -2.08378 0.937598 0
M  V30 7462 C 704.791 0.438636 3.46233 0
M  V30 7463 C 706.139 0.364777 4.2303 0
M  V30 7464 O 707.163 0.373383 3.54238 0
M  V30 7465 O 706.022 0.32234 5.45549 0
M  V30 7466 H 703.116 0.0132454 0.826894 0
M  V30 7467 H 705.662 0.768574 1.51298 0
M  V30 7468 H 704.434 1.46962 3.62654 0
M  V30 7469 H 704.057 -0.210562 3.97042 0
M  V30 7470 N 705.054 -1.51416 0.437162 0
M  V30 7471 C 706.301 -2.02086 -0.129364 0
M  V30 7472 C 706.629 -1.32133 -1.42728 0
M  V30 7473 O 705.884 -0.424916 -1.91031 0
M  V30 7474 C 706.183 -3.55203 -0.39564 0
M  V30 7475 C 705.849 -4.43447 0.81644 0
M  V30 7476 C 704.511 -4.67285 1.14884 0
M  V30 7477 C 706.863 -4.95219 1.62503 0
M  V30 7478 C 704.191 -5.40141 2.29052 0
M  V30 7479 C 706.543 -5.69327 2.7577 0
M  V30 7480 C 705.207 -5.91429 3.09464 0
M  V30 7481 H 704.477 -0.739486 -0.0473375 0
M  V30 7482 H 707.124 -1.82368 0.584321 0
M  V30 7483 H 705.429 -3.73252 -1.19121 0
M  V30 7484 H 707.126 -3.91944 -0.847399 0
M  V30 7485 H 703.716 -4.2509 0.547422 0
M  V30 7486 H 707.9 -4.76686 1.38144 0
M  V30 7487 H 703.156 -5.55468 2.55471 0
M  V30 7488 H 707.33 -6.08433 3.38795 0
M  V30 7489 H 704.957 -6.47662 3.98042 0
M  V30 7490 N 706.532 -0.168513 -1.56696 0
M  V30 7491 C 707.943 0.348694 -1.83415 0
M  V30 7492 C 708.294 1.63257 -1.0882 0
M  V30 7493 O 707.419 2.13707 -0.340333 0
M  V30 7494 C 708.014 0.639423 -3.32711 0
M  V30 7495 C 706.573 1.10108 -3.59935 0
M  V30 7496 C 705.72 0.135464 -2.76969 0
M  V30 7497 H 708.671 -0.392829 -1.53761 0
M  V30 7498 H 708.692 1.49179 -3.50037 0
M  V30 7499 H 708.204 -0.295173 -3.86976 0
M  V30 7500 H 706.305 2.05088 -3.11079 0
M  V30 7501 H 706.418 1.01218 -4.68286 0
M  V30 7502 H 704.782 0.632286 -2.46727 0
M  V30 7503 H 705.565 -0.793104 -3.34013 0
M  V30 7504 N 708.01 1.57248 0.105221 0
M  V30 7505 C 708.957 2.01338 1.12835 0
M  V30 7506 C 709.927 0.887897 1.40377 0
M  V30 7507 O 711.112 1.15315 1.5201 0
M  V30 7508 C 708.252 2.43432 2.44611 0
M  V30 7509 C 707.365 3.69457 2.23888 0
M  V30 7510 C 706.5 4.00473 3.48991 0
M  V30 7511 C 705.539 5.19638 3.23485 0
M  V30 7512 N 704.676 5.46457 4.40828 0
M  V30 7513 H 709.516 2.88527 0.745386 0
M  V30 7514 H 707.053 1.42714 0.356535 0
M  V30 7515 H 709.011 2.65879 3.21503 0
M  V30 7516 H 707.641 1.59266 2.80774 0
M  V30 7517 H 706.693 3.54545 1.37847 0
M  V30 7518 H 708.005 4.56497 2.01026 0
M  V30 7519 H 707.159 4.23642 4.34295 0
M  V30 7520 H 705.898 3.11935 3.74897 0
M  V30 7521 H 704.903 4.96299 2.36574 0
M  V30 7522 H 706.128 6.09766 2.98935 0
M  V30 7523 H 704.074 4.60876 4.66829 0
M  V30 7524 H 703.991 6.27849 4.2112 0
M  V30 7525 H 705.259 5.74155 5.27225 0
M  V30 7526 N 709.488 -0.375779 1.53054 0
M  V30 7527 C 710.899 -0.95309 1.6054 0
M  V30 7528 C 711.25 -1.90575 0.466446 0
M  V30 7529 O 710.375 -2.12507 -0.408609 0
M  V30 7530 C 710.97 -1.73537 2.90982 0
M  V30 7531 C 709.529 -2.26218 3.00836 0
M  V30 7532 C 708.676 -1.07157 2.55759 0
M  V30 7533 H 711.627 -0.154895 1.57942 0
M  V30 7534 H 711.648 -2.59574 2.78211 0
M  V30 7535 H 711.16 -1.04176 3.73857 0
M  V30 7536 H 709.261 -2.98852 2.22527 0
M  V30 7537 H 709.374 -2.54799 4.05727 0
M  V30 7538 H 707.738 -1.43553 2.10391 0
M  V30 7539 H 708.521 -0.393099 3.41042 0
M  V30 7540 N 710.966 -1.44241 -0.634997 0
M  V30 7541 C 711.929 -1.50457 -1.72903 0
M  V30 7542 C 712.929 -0.387058 -1.56072 0
M  V30 7543 O 714.119 -0.649531 -1.61638 0
M  V30 7544 C 711.251 -1.37477 -3.1195 0
M  V30 7545 H 712.444 -2.47907 -1.68767 0
M  V30 7546 H 709.997 -1.31276 -0.84831 0
M  V30 7547 H 710.732 -0.41106 -3.21684 0
M  V30 7548 H 710.517 -2.18506 -3.25573 0
M  V30 7549 H 712.007 -1.44799 -3.91692 0
M  V30 7550 N 712.444 0.87505 -1.31075 0
M  V30 7551 C 713.693 1.62245 -1.19831 0
M  V30 7552 C 714.006 1.94078 0.24357 0
M  V30 7553 O 715.212 2.67265 0.477646 0
M  V30 7554 C 713.668 2.92464 -2.09744 0
M  V30 7555 C 713.276 2.68134 -3.58898 0
M  V30 7556 C 715.02 3.70449 -2.07287 0
M  V30 7557 C 712.927 3.9423 -4.40836 0
M  V30 7558 H 711.857 0.608741 -0.444916 0
M  V30 7559 H 714.508 0.967947 -1.55894 0
M  V30 7560 H 712.89 3.59262 -1.66574 0
M  V30 7561 H 714.064 2.09776 -4.10281 0
M  V30 7562 H 712.379 2.03511 -3.6328 0
M  V30 7563 H 714.976 4.63983 -2.65752 0
M  V30 7564 H 715.319 4.02611 -1.05876 0
M  V30 7565 H 715.852 3.10528 -2.48631 0
M  V30 7566 H 712.591 3.67221 -5.42982 0
M  V30 7567 H 712.111 4.52058 -3.94213 0
M  V30 7568 H 713.79 4.62162 -4.52786 0
M  V30 7569 N 713.922 1.13953 1.08869 0
M  V30 7570 C 714.87 0.817664 2.17754 0
M  V30 7571 C 715.864 -0.202444 1.68186 0
M  V30 7572 O 717.07 -0.0590159 1.79903 0
M  V30 7573 H 713.445 0.246671 0.710392 0
M  V30 7574 H 715.416 1.74401 2.4213 0
M  V30 7575 C 714.165 0.3063 3.46348 0
M  V30 7576 H 713.488 1.08259 3.84864 0
M  V30 7577 H 714.928 0.119584 4.23831 0
M  V30 7578 C 713.387 -0.969158 3.22659 0
M  V30 7579 O 713.917 -2.04386 3.45817 0
M  V30 7580 N 712.123 -0.902516 2.7623 0
M  V30 7581 H 711.67 -0.027801 2.57585 0
M  V30 7582 H 711.628 -1.75649 2.60758 0
M  V30 7583 N 715.4 -1.26948 0.933913 0
M  V30 7584 C 716.648 -1.93704 0.576484 0
M  V30 7585 C 716.969 -1.73702 -0.886145 0
M  V30 7586 O 716.239 -1.08838 -1.62884 0
M  V30 7587 H 714.819 -0.716812 0.210214 0
M  V30 7588 H 717.481 -1.54534 1.18766 0
M  V30 7589 H 716.577 -3.01987 0.788055 0
M  V30 7590 N 716.879 -0.700114 -1.41195 0
M  V30 7591 C 717.809 -0.0521132 -2.33442 0
M  V30 7592 C 718.79 0.76228 -1.52063 0
M  V30 7593 O 719.975 0.714336 -1.80585 0
M  V30 7594 C 717.105 0.881693 -3.35922 0
M  V30 7595 C 716.059 0.174062 -4.27646 0
M  V30 7596 C 715.385 1.22254 -5.20536 0
M  V30 7597 C 716.685 -0.962396 -5.13357 0
M  V30 7598 H 718.379 -0.822574 -2.87879 0
M  V30 7599 H 715.925 -0.397011 -1.38419 0
M  V30 7600 H 717.878 1.34429 -3.99383 0
M  V30 7601 H 716.602 1.68387 -2.79845 0
M  V30 7602 H 715.261 -0.268551 -3.65615 0
M  V30 7603 H 714.909 2.01736 -4.60773 0
M  V30 7604 H 714.609 0.754038 -5.82742 0
M  V30 7605 H 716.133 1.68555 -5.86874 0
M  V30 7606 H 717.547 -0.579875 -5.7036 0
M  V30 7607 H 715.944 -1.35828 -5.84526 0
M  V30 7608 H 717.014 -1.80003 -4.50252 0
M  V30 7609 N 718.357 1.51182 -0.445186 0
M  V30 7610 C 719.768 1.86693 0.0160999 0
M  V30 7611 C 720.119 1.36183 1.4124 0
M  V30 7612 O 719.244 0.715895 2.04215 0
M  V30 7613 C 719.839 3.38781 0.0359918 0
M  V30 7614 C 718.398 3.73799 0.441715 0
M  V30 7615 C 717.545 2.74947 -0.360511 0
M  V30 7616 H 720.496 1.44294 -0.660674 0
M  V30 7617 H 720.517 3.71026 0.843813 0
M  V30 7618 H 720.029 3.75513 -0.980378 0
M  V30 7619 H 718.13 3.42659 1.4634 0
M  V30 7620 H 718.243 4.78829 0.16106 0
M  V30 7621 H 716.607 2.54047 0.182269 0
M  V30 7622 H 717.39 3.14521 -1.3759 0
M  V30 7623 N 719.835 0.176821 1.56605 0
M  V30 7624 C 721.246 -0.338963 1.83597 0
M  V30 7625 C 721.597 -1.62677 1.09684 0
M  V30 7626 O 720.722 -2.13524 0.351661 0
M  V30 7627 C 721.317 -0.62177 3.33046 0
M  V30 7628 C 719.876 -1.08198 3.60514 0
M  V30 7629 C 719.023 -0.120774 2.77037 0
M  V30 7630 H 721.974 0.400978 1.53551 0
M  V30 7631 H 721.995 -1.47321 3.50823 0
M  V30 7632 H 721.507 0.315692 3.86814 0
M  V30 7633 H 719.608 -2.03435 3.12162 0
M  V30 7634 H 719.721 -0.987329 4.68816 0
M  V30 7635 H 718.085 -0.619192 2.47059 0
M  V30 7636 H 718.868 0.810806 3.33588 0
M  V30 7637 N 721.313 -1.57302 -0.09688 0
M  V30 7638 C 722.541 -1.90202 -0.814295 0
M  V30 7639 C 722.956 -0.770344 -1.72369 0
M  V30 7640 O 722.313 0.257764 -1.8067 0
M  V30 7641 C 722.364 -3.22708 -1.62916 0
M  V30 7642 O 722.085 -4.31522 -0.756343 0
M  V30 7643 C 723.586 -3.69459 -2.44979 0
M  V30 7644 H 720.806 -0.629275 -0.232925 0
M  V30 7645 H 723.35 -2.04364 -0.0746482 0
M  V30 7646 H 721.505 -3.1015 -2.32133 0
M  V30 7647 H 721.919 -5.07604 -1.32054 0
M  V30 7648 H 723.393 -4.64875 -2.9765 0
M  V30 7649 H 723.87 -2.97211 -3.23361 0
M  V30 7650 H 724.476 -3.84879 -1.80964 0
M  V30 7651 N 722.791 0.367657 -1.53252 0
M  V30 7652 C 724.202 0.944563 -1.61043 0
M  V30 7653 C 724.553 1.90325 -0.476546 0
M  V30 7654 O 723.678 2.12721 0.397333 0
M  V30 7655 C 724.273 1.71992 -2.91898 0
M  V30 7656 C 722.832 2.2462 -3.02031 0
M  V30 7657 C 721.979 1.05799 -2.56324 0
M  V30 7658 H 724.93 0.146516 -1.58022 0
M  V30 7659 H 724.951 2.58095 -2.79584 0
M  V30 7660 H 724.463 1.02192 -3.74404 0
M  V30 7661 H 722.564 2.97668 -2.24108 0
M  V30 7662 H 722.677 2.52644 -4.07073 0
M  V30 7663 H 721.041 1.42435 -2.1115 0
M  V30 7664 H 721.824 0.375008 -3.41246 0
M  V30 7665 N 724.269 1.44576 0.627338 0
M  V30 7666 C 725.216 1.51734 1.73912 0
M  V30 7667 C 726.186 0.364745 1.62046 0
M  V30 7668 O 727.371 0.575503 1.81914 0
M  V30 7669 C 724.511 1.47116 3.12171 0
M  V30 7670 C 723.624 2.72778 3.34986 0
M  V30 7671 C 722.759 2.59968 4.63239 0
M  V30 7672 C 721.798 3.80776 4.79245 0
M  V30 7673 N 720.935 3.66618 5.98778 0
M  V30 7674 H 725.775 2.46722 1.6713 0
M  V30 7675 H 723.312 1.22444 0.815224 0
M  V30 7676 H 725.27 1.42429 3.92135 0
M  V30 7677 H 723.9 0.556928 3.17959 0
M  V30 7678 H 722.952 2.87637 2.48936 0
M  V30 7679 H 724.264 3.62441 3.42692 0
M  V30 7680 H 723.418 2.53135 5.51369 0
M  V30 7681 H 722.157 1.67872 4.57898 0
M  V30 7682 H 721.162 3.87989 3.89544 0
M  V30 7683 H 722.387 4.73913 4.86398 0
M  V30 7684 H 720.333 2.77277 5.9452 0
M  V30 7685 H 720.25 4.499 6.07557 0
M  V30 7686 H 721.518 3.63684 6.89459 0
M  V30 7687 N 725.747 -0.868086 1.31537 0
M  V30 7688 C 726.993 -1.62367 1.2151 0
M  V30 7689 C 727.326 -1.92883 -0.225819 0
M  V30 7690 O 726.601 -1.56176 -1.15927 0
M  V30 7691 C 726.884 -2.95268 2.06129 0
M  V30 7692 C 726.737 -2.71619 3.58529 0
M  V30 7693 C 728.056 -3.96391 1.91212 0
M  V30 7694 H 725.175 -0.589178 0.442762 0
M  V30 7695 H 727.817 -1.00336 1.61347 0
M  V30 7696 H 725.967 -3.4821 1.72284 0
M  V30 7697 H 727.639 -2.25334 4.0252 0
M  V30 7698 H 725.882 -2.05817 3.81866 0
M  V30 7699 H 726.553 -3.66192 4.13047 0
M  V30 7700 H 729.029 -3.52663 2.20834 0
M  V30 7701 H 727.905 -4.87263 2.52718 0
M  V30 7702 H 728.166 -4.33335 0.875953 0
M  V30 7703 N 727.225 -1.14528 -1.08264 0
M  V30 7704 C 728.155 -0.856356 -2.1723 0
M  V30 7705 C 729.136 0.189251 -1.69044 0
M  V30 7706 O 730.321 0.0456119 -1.94146 0
M  V30 7707 C 727.451 -0.334662 -3.45684 0
M  V30 7708 C 726.405 -1.31588 -4.0727 0
M  V30 7709 C 725.731 -0.653428 -5.30692 0
M  V30 7710 C 727.031 -2.67866 -4.48381 0
M  V30 7711 H 728.725 -1.76755 -2.41657 0
M  V30 7712 H 726.271 -0.851287 -1.16143 0
M  V30 7713 H 728.224 -0.120128 -4.21229 0
M  V30 7714 H 726.948 0.611967 -3.20815 0
M  V30 7715 H 725.607 -1.51661 -3.33758 0
M  V30 7716 H 725.255 0.299054 -5.0211 0
M  V30 7717 H 724.955 -1.30817 -5.72853 0
M  V30 7718 H 726.479 -0.448453 -6.08951 0
M  V30 7719 H 727.893 -2.51692 -5.15096 0
M  V30 7720 H 726.29 -3.29627 -5.01464 0
M  V30 7721 H 727.36 -3.24632 -3.60198 0
M  V30 7722 N 728.703 1.26451 -0.940633 0
M  V30 7723 C 729.636 2.24771 -0.394094 0
M  V30 7724 C 730.614 1.54169 0.516781 0
M  V30 7725 O 731.798 1.82942 0.454352 0
M  V30 7726 C 728.925 3.3591 0.433807 0
M  V30 7727 C 727.971 4.24472 -0.415464 0
M  V30 7728 S 728.804 5.0293 -1.83907 0
M  V30 7729 C 729.96 6.17546 -1.01921 0
M  V30 7730 H 730.193 2.70782 -1.22737 0
M  V30 7731 H 727.726 1.35308 -0.743709 0
M  V30 7732 H 729.684 4.00387 0.905576 0
M  V30 7733 H 728.345 2.88512 1.24175 0
M  V30 7734 H 727.538 5.03525 0.218833 0
M  V30 7735 H 727.14 3.64857 -0.821897 0
M  V30 7736 H 729.432 6.76996 -0.261227 0
M  V30 7737 H 730.375 6.8528 -1.78318 0
M  V30 7738 H 730.783 5.6176 -0.555511 0
M  V30 7739 N 730.181 0.707592 1.40822 0
M  V30 7740 C 731.429 0.243189 2.00632 0
M  V30 7741 C 731.75 -1.16512 1.56365 0
M  V30 7742 O 731.02 -1.78841 0.799553 0
M  V30 7743 H 729.6 0.0869203 0.741926 0
M  V30 7744 H 732.262 0.911438 1.72275 0
M  V30 7745 H 731.358 0.270014 3.1093 0
M  V30 7746 N 731.66 -1.50943 0.453197 0
M  V30 7747 C 732.623 -2.26684 -0.338705 0
M  V30 7748 C 733.623 -1.30748 -0.936032 0
M  V30 7749 O 734.813 -1.54327 -0.808002 0
M  V30 7750 C 731.945 -3.07063 -1.48071 0
M  V30 7751 H 733.138 -2.98131 0.325289 0
M  V30 7752 H 730.691 -1.54926 0.206771 0
M  V30 7753 H 731.426 -2.4007 -2.18029 0
M  V30 7754 H 731.211 -3.77545 -1.0584 0
M  V30 7755 H 732.701 -3.64393 -2.0398 0
M  V30 7756 N 733.138 -0.185124 -1.56509 0
M  V30 7757 C 734.378 0.458547 -1.9919 0
M  V30 7758 C 734.742 1.59484 -1.06906 0
M  V30 7759 O 735.943 2.30201 -1.38783 0
M  V30 7760 C 734.214 0.916263 -3.45455 0
M  V30 7761 S 735.773 1.55918 -4.10165 0
M  V30 7762 H 732.591 0.147008 -0.695636 0
M  V30 7763 H 735.193 -0.285841 -1.93399 0
M  V30 7764 H 733.897 0.0790543 -4.10324 0
M  V30 7765 H 733.428 1.69436 -3.55042 0
M  V30 7766 H 735.443 2.84771 -4.0635 0
M  V30 7767 N 734.616 1.57351 0.0885366 0
M  V30 7768 C 735.863 1.86419 0.790824 0
M  V30 7769 C 736.191 0.774561 1.78412 0
M  V30 7770 O 735.446 -0.23119 1.9433 0
M  V30 7771 C 735.745 3.22098 1.5488 0
M  V30 7772 C 735.411 4.4548 0.697025 0
M  V30 7773 C 734.073 4.78975 0.462237 0
M  V30 7774 C 736.425 5.21094 0.105315 0
M  V30 7775 C 733.753 5.85507 -0.374016 0
M  V30 7776 C 736.105 6.28509 -0.718298 0
M  V30 7777 C 734.769 6.60515 -0.963116 0
M  V30 7778 H 734.039 0.682157 0.289383 0
M  V30 7779 H 736.686 1.91429 0.0520961 0
M  V30 7780 H 734.991 3.12803 2.35927 0
M  V30 7781 H 736.688 3.41819 2.09669 0
M  V30 7782 H 733.278 4.19255 0.890137 0
M  V30 7783 H 737.462 4.95544 0.273856 0
M  V30 7784 H 732.718 6.08713 -0.572606 0
M  V30 7785 H 736.892 6.86268 -1.18362 0
M  V30 7786 H 734.519 7.42893 -1.6129 0
M  V30 7787 N 736.094 -0.359525 1.53444 0
M  V30 7788 C 737.319 -1.12644 1.74144 0
M  V30 7789 C 737.744 -1.82082 0.472007 0
M  V30 7790 O 737.102 -1.71962 -0.57436 0
M  V30 7791 C 737.15 -2.12781 2.9113 0
M  V30 7792 O 736.254 -3.19984 2.60162 0
M  V30 7793 H 735.595 -0.326553 0.578152 0
M  V30 7794 H 738.125 -0.414798 2.00351 0
M  V30 7795 H 738.135 -2.56278 3.17467 0
M  V30 7796 H 736.81 -1.61634 3.83207 0
M  V30 7797 H 735.387 -2.81417 2.44661 0
M  V30 7798 N 737.572 -1.44907 -0.619662 0
M  V30 7799 C 738.519 -1.52654 -1.73105 0
M  V30 7800 C 739.489 -0.373334 -1.6185 0
M  V30 7801 O 740.674 -0.585143 -1.81606 0
M  V30 7802 C 737.814 -1.48769 -3.11387 0
M  V30 7803 C 736.927 -2.74551 -3.33535 0
M  V30 7804 C 736.062 -2.62421 -4.61854 0
M  V30 7805 C 735.101 -3.83312 -4.77219 0
M  V30 7806 N 734.238 -3.69789 -5.96826 0
M  V30 7807 H 739.078 -2.47605 -1.65819 0
M  V30 7808 H 736.615 -1.22875 -0.808719 0
M  V30 7809 H 738.573 -1.44507 -3.91374 0
M  V30 7810 H 737.203 -0.573783 -3.1766 0
M  V30 7811 H 736.255 -2.88953 -2.47408 0
M  V30 7812 H 737.567 -3.64253 -3.40765 0
M  V30 7813 H 736.721 -2.56056 -5.50019 0
M  V30 7814 H 735.46 -1.70298 -4.57001 0
M  V30 7815 H 734.465 -3.90049 -3.87481 0
M  V30 7816 H 735.69 -4.76486 -4.83878 0
M  V30 7817 H 733.636 -2.80426 -5.93041 0
M  V30 7818 H 733.553 -4.53116 -6.05163 0
M  V30 7819 H 734.821 -3.67335 -6.87521 0
M  V30 7820 N 739.05 0.861098 -1.31996 0
M  V30 7821 C 740.296 1.61721 -1.22369 0
M  V30 7822 C 740.629 1.93 0.215587 0
M  V30 7823 O 739.904 1.56789 1.15098 0
M  V30 7824 C 740.187 2.9417 -2.07691 0
M  V30 7825 C 740.04 2.69714 -3.59965 0
M  V30 7826 C 741.359 3.95372 -1.93312 0
M  V30 7827 H 738.478 0.586822 -0.44588 0
M  V30 7828 H 741.12 0.994788 -1.61876 0
M  V30 7829 H 739.27 3.47292 -1.74128 0
M  V30 7830 H 740.942 2.23196 -4.03709 0
M  V30 7831 H 739.185 2.03789 -3.82952 0
M  V30 7832 H 739.856 3.63996 -4.14983 0
M  V30 7833 H 742.332 3.51487 -2.22701 0
M  V30 7834 H 741.208 4.85916 -2.55298 0
M  V30 7835 H 741.469 4.32865 -0.898922 0
M  V30 7836 N 740.528 1.15101 1.07655 0
M  V30 7837 C 741.775 0.923974 1.80191 0
M  V30 7838 C 742.103 -0.549065 1.86589 0
M  V30 7839 O 741.358 -1.42307 1.3434 0
M  V30 7840 C 741.657 1.47954 3.25337 0
M  V30 7841 C 741.323 2.97253 3.39044 0
M  V30 7842 C 739.985 3.38012 3.42493 0
M  V30 7843 C 742.337 3.93219 3.42094 0
M  V30 7844 C 739.665 4.73384 3.4659 0
M  V30 7845 C 742.017 5.28458 3.47728 0
M  V30 7846 C 740.681 5.68717 3.49453 0
M  V30 7847 H 739.951 0.338106 0.659367 0
M  V30 7848 H 742.598 1.43594 1.26701 0
M  V30 7849 H 740.903 0.888691 3.81588 0
M  V30 7850 H 742.6 1.27972 3.80032 0
M  V30 7851 H 739.19 2.64746 3.37057 0
M  V30 7852 H 743.374 3.62805 3.38654 0
M  V30 7853 H 738.63 5.03925 3.46222 0
M  V30 7854 H 742.804 6.02618 3.49034 0
M  V30 7855 H 740.431 6.73596 3.5238 0
M  V30 7856 N 742.006 -1.2595 0.947325 0
M  V30 7857 C 743.283 -1.88676 0.515824 0
M  V30 7858 C 743.663 -1.85547 -1.00675 0
M  V30 7859 O 743.011 -1.31399 -1.8694 0
M  V30 7860 C 743.221 -3.31734 1.08415 0
M  V30 7861 C 744.569 -4.08545 1.15654 0
M  V30 7862 O 745.593 -3.40826 1.03517 0
M  V30 7863 O 744.452 -5.29663 1.34608 0
M  V30 7864 H 741.546 -0.809537 0.169055 0
M  V30 7865 H 744.092 -1.34075 1.04029 0
M  V30 7866 H 742.864 -3.28404 2.1276 0
M  V30 7867 H 742.487 -3.93882 0.542499 0
M  V30 7868 N 743.484 -0.715051 -1.40445 0
M  V30 7869 C 744.732 -0.253826 -2.005 0
M  V30 7870 C 745.053 1.15681 -1.5698 0
M  V30 7871 O 744.323 1.78414 -0.809027 0
M  V30 7872 H 742.903 -0.0908537 -0.741454 0
M  V30 7873 H 745.565 -0.920561 -1.7179 0
M  V30 7874 H 744.661 -0.286499 -3.10782 0
M  V30 7875 N 744.962 1.50701 -0.461195 0
M  V30 7876 C 746.202 2.04174 0.0960673 0
M  V30 7877 C 746.566 1.33628 1.37868 0
M  V30 7878 O 747.767 1.77602 2.0177 0
M  V30 7879 C 746.038 3.56256 0.285676 0
M  V30 7880 S 747.597 4.31392 0.802917 0
M  V30 7881 H 744.415 0.710701 0.0206282 0
M  V30 7882 H 747.017 1.85204 -0.62607 0
M  V30 7883 H 745.721 4.05159 -0.653773 0
M  V30 7884 H 745.252 3.79562 1.03421 0
M  V30 7885 H 747.267 4.50611 2.07761 0
M  V30 7886 N 746.441 0.193421 1.56409 0
M  V30 7887 C 747.852 -0.319471 1.83946 0
M  V30 7888 C 748.203 -1.61505 1.11403 0
M  V30 7889 O 747.328 -2.13139 0.374289 0
M  V30 7890 C 747.923 -0.586411 3.33686 0
M  V30 7891 C 746.482 -1.04368 3.61641 0
M  V30 7892 C 745.629 -0.0913834 2.77149 0
M  V30 7893 H 748.58 0.417242 1.53117 0
M  V30 7894 H 748.601 -1.43591 3.52366 0
M  V30 7895 H 748.113 0.356701 3.86457 0
M  V30 7896 H 746.214 -2.00113 3.14302 0
M  V30 7897 H 746.327 -0.937549 4.69837 0
M  V30 7898 H 744.691 -0.592954 2.47702 0
M  V30 7899 H 745.474 0.846142 3.32709 0
M  V30 7900 N 747.919 -1.57396 -0.0801906 0
M  V30 7901 C 748.849 -2.06145 -1.09665 0
M  V30 7902 C 749.83 -0.953273 -1.40878 0
M  V30 7903 O 751.015 -1.22548 -1.50651 0
M  V30 7904 C 748.145 -2.49836 -2.41245 0
M  V30 7905 C 747.099 -3.64454 -2.24405 0
M  V30 7906 C 746.425 -3.94172 -3.61293 0
M  V30 7907 C 747.725 -4.94807 -1.67223 0
M  V30 7908 H 749.419 -2.91316 -0.691028 0
M  V30 7909 H 746.965 -1.40145 -0.330957 0
M  V30 7910 H 748.918 -2.82552 -3.12638 0
M  V30 7911 H 747.642 -1.61683 -2.83771 0
M  V30 7912 H 746.301 -3.32008 -1.55454 0
M  V30 7913 H 745.949 -3.03163 -4.01374 0
M  V30 7914 H 745.649 -4.71345 -3.50867 0
M  V30 7915 H 747.173 -4.29376 -4.3413 0
M  V30 7916 H 748.587 -5.25807 -2.28472 0
M  V30 7917 H 746.984 -5.76245 -1.67515 0
M  V30 7918 H 748.054 -4.80751 -0.632944 0
M  V30 7919 N 749.397 0.351382 -1.53633 0
M  V30 7920 C 750.344 1.43115 -1.81071 0
M  V30 7921 C 751.314 1.52601 -0.655913 0
M  V30 7922 O 752.499 1.68264 -0.89955 0
M  V30 7923 C 749.639 2.79874 -2.01903 0
M  V30 7924 C 748.752 2.79242 -3.29618 0
M  V30 7925 C 747.887 4.07667 -3.40559 0
M  V30 7926 C 746.926 4.01233 -4.62254 0
M  V30 7927 N 746.063 5.21334 -4.70271 0
M  V30 7928 H 750.903 1.19017 -2.73201 0
M  V30 7929 H 748.44 0.576691 -1.35324 0
M  V30 7930 H 750.398 3.5934 -2.11969 0
M  V30 7931 H 749.028 3.0234 -1.13094 0
M  V30 7932 H 748.08 1.91927 -3.28433 0
M  V30 7933 H 749.392 2.70363 -4.19172 0
M  V30 7934 H 748.546 4.95555 -3.50015 0
M  V30 7935 H 747.285 4.19317 -2.49047 0
M  V30 7936 H 746.29 3.11732 -4.52884 0
M  V30 7937 H 747.515 3.91173 -5.55122 0
M  V30 7938 H 745.461 5.33543 -3.81665 0
M  V30 7939 H 745.378 5.14681 -5.5375 0
M  V30 7940 H 746.646 6.11014 -4.84027 0
M  V30 7941 N 750.875 1.45233 0.611969 0
M  V30 7942 C 752.124 1.48296 1.36716 0
M  V30 7943 C 752.437 0.12706 1.95187 0
M  V30 7944 O 753.643 0.0353066 2.71477 0
M  V30 7945 C 752.099 2.61168 2.47627 0
M  V30 7946 C 751.707 4.03051 1.95587 0
M  V30 7947 C 753.451 2.73472 3.24674 0
M  V30 7948 C 751.358 5.07312 3.03954 0
M  V30 7949 H 750.288 0.5518 0.513841 0
M  V30 7950 H 752.939 1.7136 0.656359 0
M  V30 7951 H 751.321 2.31379 3.21372 0
M  V30 7952 H 752.495 4.42497 1.2858 0
M  V30 7953 H 750.81 3.95158 1.31298 0
M  V30 7954 H 753.407 3.48537 4.05494 0
M  V30 7955 H 753.75 1.79953 3.75397 0
M  V30 7956 H 754.283 3.02765 2.58028 0
M  V30 7957 H 751.022 6.02525 2.58154 0
M  V30 7958 H 750.542 4.7244 3.69541 0
M  V30 7959 H 752.221 5.31867 3.6841 0
M  V30 7960 N 752.353 -0.854086 1.3245 0
M  V30 7961 C 753.301 -1.98411 1.21391 0
M  V30 7962 C 754.295 -1.68984 0.118586 0
M  V30 7963 O 755.501 -1.77784 0.281549 0
M  V30 7964 H 751.876 -0.651077 0.376301 0
M  V30 7965 H 753.847 -2.04867 2.16961 0
M  V30 7966 C 752.596 -3.34345 0.954407 0
M  V30 7967 H 751.919 -3.57518 1.78944 0
M  V30 7968 H 753.359 -4.13959 0.917269 0
M  V30 7969 C 751.818 -3.35151 -0.342838 0
M  V30 7970 O 752.348 -3.78174 -1.35452 0
M  V30 7971 N 750.554 -2.88298 -0.365012 0
M  V30 7972 H 750.101 -2.53481 0.4588 0
M  V30 7973 H 750.059 -2.8922 -1.23284 0
M  V30 7974 N 753.831 -1.1567 -1.07043 0
M  V30 7975 C 755.071 -0.944089 -1.81291 0
M  V30 7976 C 755.435 0.519305 -1.84844 0
M  V30 7977 O 756.636 0.850357 -2.54995 0
M  V30 7978 C 754.907 -1.54528 -3.22267 0
M  V30 7979 S 756.466 -1.47623 -4.13223 0
M  V30 7980 H 753.284 -0.339696 -0.624602 0
M  V30 7981 H 755.886 -1.47277 -1.28568 0
M  V30 7982 H 754.59 -2.60321 -3.17271 0
M  V30 7983 H 754.121 -1.0156 -3.80065 0
M  V30 7984 H 756.136 -0.471261 -4.93957 0
M  V30 7985 N 755.309 1.25446 -0.953992 0
M  V30 7986 C 756.272 2.24156 -0.478179 0
M  V30 7987 C 757.272 1.55278 0.417776 0
M  V30 7988 O 758.462 1.72866 0.215155 0
M  V30 7989 C 755.594 3.39495 0.309202 0
M  V30 7990 H 756.787 2.67764 -1.35064 0
M  V30 7991 H 754.34 1.37822 -0.737206 0
M  V30 7992 H 755.075 3.01307 1.19936 0
M  V30 7993 H 754.86 3.90679 -0.333562 0
M  V30 7994 H 756.35 4.12796 0.631594 0
M  V30 7995 N 756.787 0.722489 1.40064 0
M  V30 7996 C 758.015 0.274838 2.05066 0
M  V30 7997 C 758.43 -1.08586 1.54449 0
M  V30 7998 O 757.787 -1.68375 0.704003 0
M  V30 7999 C 757.838 0.253673 3.60609 0
M  V30 8000 O 757.559 1.56064 4.0936 0
M  V30 8001 C 759.06 -0.211684 4.42794 0
M  V30 8002 H 756.28 0.12226 0.659768 0
M  V30 8003 H 758.824 0.982632 1.79345 0
M  V30 8004 H 756.979 -0.405137 3.85276 0
M  V30 8005 H 757.393 1.46576 5.03603 0
M  V30 8006 H 758.867 -0.175341 5.51721 0
M  V30 8007 H 759.344 -1.25493 4.2089 0
M  V30 8008 H 759.95 0.4171 4.2325 0
M  V30 8009 N 758.265 -1.50454 0.469181 0
M  V30 8010 C 759.49 -2.0722 -0.0864892 0
M  V30 8011 C 759.915 -1.33098 -1.32916 0
M  V30 8012 O 759.273 -0.378084 -1.77314 0
M  V30 8013 C 759.321 -3.58845 -0.355384 0
M  V30 8014 O 758.425 -3.86583 -1.43622 0
M  V30 8015 H 757.766 -0.663889 0.0121414 0
M  V30 8016 H 760.296 -1.93674 0.659674 0
M  V30 8017 H 760.306 -4.03617 -0.596447 0
M  V30 8018 H 758.981 -4.12211 0.552698 0
M  V30 8019 H 757.558 -3.5365 -1.18262 0
M  V30 8020 N 759.743 -0.201713 -1.56304 0
M  V30 8021 C 760.989 0.429292 -1.98818 0
M  V30 8022 C 761.344 1.58779 -1.08659 0
M  V30 8023 O 760.637 1.91142 -0.132365 0
M  V30 8024 C 760.831 0.931432 -3.45049 0
M  V30 8025 C 760.66 -0.176878 -4.49352 0
M  V30 8026 C 759.43 -0.636712 -5.01272 0
M  V30 8027 C 761.628 -0.988177 -5.04717 0
M  V30 8028 N 759.61 -1.72215 -5.8925 0
M  V30 8029 C 760.981 -1.92288 -5.89428 0
M  V30 8030 C 763.036 -1.02985 -4.87133 0
M  V30 8031 C 761.739 -2.89582 -6.58434 0
M  V30 8032 C 763.765 -1.99087 -5.56883 0
M  V30 8033 C 763.127 -2.913 -6.41345 0
M  V30 8034 H 759.226 0.124322 -0.772054 0
M  V30 8035 H 761.81 -0.308929 -1.92234 0
M  V30 8036 H 759.981 1.63907 -3.52121 0
M  V30 8037 H 761.713 1.5336 -3.74517 0
M  V30 8038 H 758.468 -0.228861 -4.73047 0
M  V30 8039 H 758.892 -2.26627 -6.37941 0
M  V30 8040 H 763.534 -0.330894 -4.21503 0
M  V30 8041 H 761.252 -3.6045 -7.23258 0
M  V30 8042 H 764.838 -2.0296 -5.45251 0
M  V30 8043 H 763.718 -3.6445 -6.94367 0
M  V30 8044 N 761.222 1.57436 0.0718424 0
M  V30 8045 C 762.471 1.86431 0.769826 0
M  V30 8046 C 762.784 0.794355 1.78744 0
M  V30 8047 O 763.99 0.972148 2.53499 0
M  V30 8048 C 762.446 3.307 1.42006 0
M  V30 8049 C 762.054 4.45824 0.441017 0
M  V30 8050 C 763.798 3.68894 2.10041 0
M  V30 8051 C 761.705 5.81134 1.09717 0
M  V30 8052 H 760.635 0.695474 0.291259 0
M  V30 8053 H 763.286 1.83485 0.0231224 0
M  V30 8054 H 761.668 3.28257 2.21502 0
M  V30 8055 H 762.842 4.59659 -0.32413 0
M  V30 8056 H 761.157 4.16181 -0.134886 0
M  V30 8057 H 763.754 4.67281 2.59908 0
M  V30 8058 H 764.097 2.98692 2.89981 0
M  V30 8059 H 764.63 3.73326 1.37376 0
M  V30 8060 H 761.369 6.54628 0.338095 0
M  V30 8061 H 760.889 5.711 1.83317 0
M  V30 8062 H 762.568 6.26468 1.617 0
M  V30 8063 N 762.7 -0.34323 1.53817 0
M  V30 8064 C 763.65 -1.42217 1.78208 0
M  V30 8065 C 764.634 -1.4774 0.637304 0
M  V30 8066 O 765.826 -1.52605 0.896705 0
M  V30 8067 C 762.955 -2.79354 1.9954 0
M  V30 8068 C 762.041 -2.78222 3.20084 0
M  V30 8069 N 762.432 -2.46719 4.41547 0
M  V30 8070 C 760.73 -3.09368 3.21259 0
M  V30 8071 C 761.431 -2.53828 5.23399 0
M  V30 8072 N 760.407 -2.89464 4.60121 0
M  V30 8073 H 764.209 -1.16759 2.69712 0
M  V30 8074 H 761.723 -0.551592 1.52746 0
M  V30 8075 H 763.72 -3.57095 2.15148 0
M  V30 8076 H 762.38 -3.05759 1.09278 0
M  V30 8077 H 763.391 -2.19912 4.68891 0
M  V30 8078 H 760.068 -3.40942 2.40966 0
M  V30 8079 H 761.458 -2.32629 6.30344 0
M  V30 8080 N 764.178 -1.45556 -0.604258 0
M  V30 8081 C 765.589 -1.44171 -1.18624 0
M  V30 8082 C 765.94 -0.171081 -1.95453 0
M  V30 8083 O 765.065 0.727156 -2.03817 0
M  V30 8084 C 765.66 -2.61193 -2.15786 0
M  V30 8085 C 764.219 -2.62918 -2.69353 0
M  V30 8086 C 763.366 -2.36479 -1.4482 0
M  V30 8087 H 766.317 -1.53747 -0.393381 0
M  V30 8088 H 766.338 -2.35481 -2.98879 0
M  V30 8089 H 765.85 -3.53656 -1.59841 0
M  V30 8090 H 763.951 -1.7447 -3.29228 0
M  V30 8091 H 764.064 -3.6224 -3.13559 0
M  V30 8092 H 762.428 -1.86103 -1.73891 0
M  V30 8093 H 763.211 -3.31091 -0.907376 0
M  V30 8094 N 765.656 0.84705 -1.32902 0
M  V30 8095 C 766.933 1.58583 -1.14503 0
M  V30 8096 C 767.313 2.09075 0.291724 0
M  V30 8097 O 766.661 1.88636 1.28952 0
M  V30 8098 C 766.871 2.72605 -2.17916 0
M  V30 8099 C 768.219 3.41993 -2.51646 0
M  V30 8100 O 769.243 2.82838 -2.1652 0
M  V30 8101 O 768.102 4.48761 -3.1189 0
M  V30 8102 H 765.196 0.698756 -0.442345 0
M  V30 8103 H 767.742 0.890516 -1.44457 0
M  V30 8104 H 766.514 2.32876 -3.14459 0
M  V30 8105 H 766.137 3.49807 -1.89 0
M  V30 8106 N 767.134 1.16236 1.06428 0
M  V30 8107 C 768.362 0.967184 1.82902 0
M  V30 8108 C 768.777 -0.484601 1.82475 0
M  V30 8109 O 768.134 -1.33631 1.24294 0
M  V30 8110 C 768.185 1.48534 3.29576 0
M  V30 8111 O 767.906 2.88026 3.3011 0
M  V30 8112 C 769.407 1.33298 4.22784 0
M  V30 8113 H 766.627 0.342923 0.576754 0
M  V30 8114 H 769.171 1.54232 1.34286 0
M  V30 8115 H 767.326 0.952513 3.75508 0
M  V30 8116 H 767.74 3.11721 4.21818 0
M  V30 8117 H 769.214 1.74385 5.23731 0
M  V30 8118 H 769.691 0.278356 4.38317 0
M  V30 8119 H 770.297 1.85535 3.82697 0
M  V30 8120 N 768.612 -1.24939 0.960631 0
M  V30 8121 C 769.559 -2.25658 0.484459 0
M  V30 8122 C 770.529 -1.59422 -0.466242 0
M  V30 8123 O 771.714 -1.87015 -0.378169 0
M  V30 8124 C 768.854 -3.44359 -0.225958 0
M  V30 8125 C 767.967 -4.25214 0.762682 0
M  V30 8126 C 767.102 -5.31192 0.0290931 0
M  V30 8127 C 766.141 -6.03739 1.00827 0
M  V30 8128 N 765.278 -7.01437 0.305155 0
M  V30 8129 H 770.118 -2.65758 1.34821 0
M  V30 8130 H 767.655 -1.30648 0.675983 0
M  V30 8131 H 769.613 -4.12035 -0.654472 0
M  V30 8132 H 768.243 -3.05118 -1.05371 0
M  V30 8133 H 767.295 -3.57144 1.30966 0
M  V30 8134 H 768.607 -4.75406 1.50964 0
M  V30 8135 H 767.761 -6.04971 -0.457763 0
M  V30 8136 H 766.5 -4.81889 -0.750614 0
M  V30 8137 H 765.505 -5.2877 1.50607 0
M  V30 8138 H 766.73 -6.55131 1.7883 0
M  V30 8139 H 764.676 -6.54415 -0.455704 0
M  V30 8140 H 764.593 -7.49475 0.991104 0
M  V30 8141 H 765.861 -7.79336 -0.159966 0
M  V30 8142 N 770.09 -0.729906 -1.39679 0
M  V30 8143 C 771.367 -0.202149 -1.94553 0
M  V30 8144 C 771.747 1.29507 -1.66707 0
M  V30 8145 O 771.095 2.05819 -0.992517 0
M  V30 8146 C 771.305 -0.530279 -3.44948 0
M  V30 8147 C 772.653 -0.476808 -4.21914 0
M  V30 8148 O 773.677 -0.467171 -3.53123 0
M  V30 8149 O 772.536 -0.466869 -5.44502 0
M  V30 8150 H 769.63 -0.0351644 -0.826252 0
M  V30 8151 H 772.176 -0.808417 -1.49207 0
M  V30 8152 H 770.948 -1.56526 -3.5863 0
M  V30 8153 H 770.571 0.10522 -3.97461 0
M  V30 8154 N 771.568 1.50203 -0.477153 0
M  V30 8155 C 772.5 2.26508 0.350239 0
M  V30 8156 C 773.513 1.32081 0.95176 0
M  V30 8157 O 774.702 1.57546 0.839139 0
M  V30 8158 C 771.802 3.0361 1.50579 0
M  V30 8159 C 770.975 4.25438 1.01595 0
M  V30 8160 C 770.034 4.84783 2.04626 0
M  V30 8161 O 769.06 5.45528 1.62442 0
M  V30 8162 N 770.262 4.72318 3.37485 0
M  V30 8163 H 773.027 2.98155 -0.30394 0
M  V30 8164 H 770.588 1.58938 -0.308289 0
M  V30 8165 H 772.58 3.4019 2.1921 0
M  V30 8166 H 771.15 2.34724 2.06455 0
M  V30 8167 H 770.37 3.93894 0.155316 0
M  V30 8168 H 771.658 5.04413 0.666694 0
M  V30 8169 H 771.056 4.24022 3.74462 0
M  V30 8170 H 769.613 5.13149 4.01897 0
M  V30 8171 N 773.046 0.209999 1.56195 0
M  V30 8172 C 774.276 -0.429373 2.02089 0
M  V30 8173 C 774.684 -1.54703 1.0892 0
M  V30 8174 O 774.027 -1.83485 0.0889535 0
M  V30 8175 C 774.089 -1.03266 3.44349 0
M  V30 8176 C 773.753 -0.0518873 4.56971 0
M  V30 8177 C 774.75 0.744249 5.14545 0
M  V30 8178 C 772.435 0.0635185 5.0226 0
M  V30 8179 C 774.429 1.64261 6.15871 0
M  V30 8180 C 772.116 0.965423 6.03426 0
M  V30 8181 C 773.114 1.75352 6.60106 0
M  V30 8182 O 772.802 2.64029 7.59305 0
M  V30 8183 H 772.534 -0.110604 0.66689 0
M  V30 8184 H 775.088 0.320436 2.02885 0
M  V30 8185 H 773.318 -1.83134 3.40586 0
M  V30 8186 H 775.007 -1.57823 3.73961 0
M  V30 8187 H 775.773 0.665476 4.80413 0
M  V30 8188 H 771.652 -0.539762 4.57829 0
M  V30 8189 H 775.196 2.25819 6.60039 0
M  V30 8190 H 771.093 1.04526 6.36981 0
M  V30 8191 H 771.861 2.57974 7.76783 0
M  V30 8192 N 774.524 -1.57472 -0.0634922 0
M  V30 8193 C 775.773 -1.86837 -0.759928 0
M  V30 8194 C 776.086 -0.803823 -1.7832 0
M  V30 8195 O 777.292 -0.985578 -2.52979 0
M  V30 8196 C 775.748 -3.31448 -1.4025 0
M  V30 8197 C 775.356 -4.46052 -0.417368 0
M  V30 8198 C 777.1 -3.70003 -2.08082 0
M  V30 8199 C 775.007 -5.81707 -1.06633 0
M  V30 8200 H 773.937 -0.697009 -0.287567 0
M  V30 8201 H 776.588 -1.83495 -0.0133914 0
M  V30 8202 H 774.97 -3.29427 -2.19759 0
M  V30 8203 H 776.144 -4.5948 0.348503 0
M  V30 8204 H 774.459 -4.16104 0.156955 0
M  V30 8205 H 777.056 -4.68653 -2.57426 0
M  V30 8206 H 777.399 -3.00226 -2.88393 0
M  V30 8207 H 777.932 -3.7405 -1.35394 0
M  V30 8208 H 774.671 -6.54798 -0.303374 0
M  V30 8209 H 774.191 -5.72064 -1.80286 0
M  V30 8210 H 775.87 -6.27317 -1.58376 0
M  V30 8211 N 776.003 0.335068 -1.53997 0
M  V30 8212 C 777.252 1.07182 -1.70865 0
M  V30 8213 C 777.565 1.89541 -0.483078 0
M  V30 8214 O 778.771 2.66219 -0.532879 0
M  V30 8215 C 777.227 1.95497 -3.02174 0
M  V30 8216 C 776.835 1.18304 -4.32097 0
M  V30 8217 C 778.579 2.68978 -3.28407 0
M  V30 8218 C 776.486 2.05699 -5.54474 0
M  V30 8219 H 775.416 0.403857 -0.636722 0
M  V30 8220 H 778.067 0.33076 -1.80494 0
M  V30 8221 H 776.449 2.73456 -2.86423 0
M  V30 8222 H 777.623 0.451969 -4.58578 0
M  V30 8223 H 775.938 0.565556 -4.12541 0
M  V30 8224 H 778.535 3.34651 -4.17029 0
M  V30 8225 H 778.878 3.36 -2.45784 0
M  V30 8226 H 779.411 1.98087 -3.44973 0
M  V30 8227 H 776.15 1.43204 -6.39666 0
M  V30 8228 H 775.67 2.76572 -5.32229 0
M  V30 8229 H 777.349 2.64554 -5.90441 0
M  V30 8230 N 777.481 1.45874 0.596531 0
M  V30 8231 C 778.728 1.50467 1.35521 0
M  V30 8232 C 779.056 0.150802 1.93915 0
M  V30 8233 O 778.311 -0.851913 1.76184 0
M  V30 8234 C 778.61 2.54034 2.51399 0
M  V30 8235 C 778.276 3.9844 2.11085 0
M  V30 8236 C 776.938 4.37758 1.99804 0
M  V30 8237 C 779.29 4.89209 1.79788 0
M  V30 8238 C 776.618 5.65727 1.55465 0
M  V30 8239 C 778.97 6.17602 1.36931 0
M  V30 8240 C 777.634 6.5584 1.24218 0
M  V30 8241 H 776.904 0.550597 0.495907 0
M  V30 8242 H 779.551 1.79279 0.673145 0
M  V30 8243 H 777.856 2.18832 3.24992 0
M  V30 8244 H 779.553 2.54822 3.09624 0
M  V30 8245 H 776.143 3.67353 2.20794 0
M  V30 8246 H 780.327 4.59562 1.87395 0
M  V30 8247 H 775.583 5.94139 1.44253 0
M  V30 8248 H 779.757 6.87373 1.11764 0
M  V30 8249 H 777.384 7.54897 0.896353 0
M  V30 8250 N 778.959 -0.83999 1.33349 0
M  V30 8251 C 780.207 -1.59202 1.24496 0
M  V30 8252 C 780.528 -1.94077 -0.189499 0
M  V30 8253 O 779.798 -1.60868 -1.11796 0
M  V30 8254 H 778.378 -0.590276 0.457802 0
M  V30 8255 H 781.04 -1.00394 1.67054 0
M  V30 8256 H 780.136 -2.52247 1.83788 0
M  V30 8257 N 780.437 -1.16799 -1.0581 0
M  V30 8258 C 781.665 -0.97687 -1.82387 0
M  V30 8259 C 782.08 0.474917 -1.82729 0
M  V30 8260 O 781.437 1.3297 -1.25001 0
M  V30 8261 C 781.488 -1.50279 -3.28783 0
M  V30 8262 O 781.209 -2.89772 -3.28578 0
M  V30 8263 C 782.71 -1.35538 -4.22071 0
M  V30 8264 H 779.93 -0.345977 -0.574927 0
M  V30 8265 H 782.474 -1.54942 -1.33466 0
M  V30 8266 H 780.629 -0.972414 -3.74997 0
M  V30 8267 H 781.043 -3.13954 -4.20159 0
M  V30 8268 H 782.517 -1.7716 -5.22799 0
M  V30 8269 H 782.994 -0.301598 -4.38163 0
M  V30 8270 H 783.6 -1.87562 -3.81708 0
M  V30 8271 N 781.915 1.24427 -0.967243 0
M  V30 8272 C 782.825 2.29109 -0.504592 0
M  V30 8273 C 783.841 1.68495 0.434224 0
M  V30 8274 O 785.017 1.99041 0.307379 0
M  V30 8275 C 782.082 3.46133 0.198273 0
M  V30 8276 C 781.143 4.22149 -0.780313 0
M  V30 8277 C 780.376 5.33585 -0.110896 0
M  V30 8278 O 780.599 5.59676 1.10088 0
M  V30 8279 O 779.533 5.96522 -0.802823 0
M  V30 8280 H 783.359 2.708 -1.37482 0
M  V30 8281 H 780.944 1.30111 -0.73426 0
M  V30 8282 H 782.826 4.17205 0.593124 0
M  V30 8283 H 781.501 3.0642 1.04347 0
M  V30 8284 H 780.408 3.53454 -1.22561 0
M  V30 8285 H 781.741 4.65677 -1.59392 0
M  V30 8286 N 783.393 0.737304 1.3929 0
M  V30 8287 C 784.67 0.212464 1.94443 0
M  V30 8288 C 785.05 -1.28621 1.67391 0
M  V30 8289 O 784.398 -2.0529 1.00342 0
M  V30 8290 C 784.608 0.548565 3.44662 0
M  V30 8291 C 785.956 0.499177 4.21656 0
M  V30 8292 O 786.98 0.485892 3.5287 0
M  V30 8293 O 785.839 0.495739 5.44247 0
M  V30 8294 H 782.933 0.0395457 0.826054 0
M  V30 8295 H 785.479 0.816319 1.48776 0
M  V30 8296 H 784.251 1.58426 3.57795 0
M  V30 8297 H 783.874 -0.0841399 3.97511 0
M  V30 8298 N 784.871 -1.49948 0.485112 0
M  V30 8299 C 786.119 -2.01996 -0.0648775 0
M  V30 8300 C 786.44 -1.36819 -1.38945 0
M  V30 8301 O 785.71 -0.518163 -1.88923 0
M  V30 8302 H 784.29 -0.746513 -0.0269662 0
M  V30 8303 H 786.952 -1.84136 0.638733 0
M  V30 8304 H 786.048 -3.11418 -0.20617 0
M  V30 8305 N 786.349 -0.21828 -1.56081 0
M  V30 8306 C 787.598 0.414644 -1.97392 0
M  V30 8307 C 787.911 1.61132 -1.10887 0
M  V30 8308 O 789.117 2.31355 -1.42082 0
M  V30 8309 C 787.573 0.789099 -3.51143 0
M  V30 8310 C 787.181 -0.384578 -4.46346 0
M  V30 8311 C 788.925 1.38781 -4.01173 0
M  V30 8312 C 786.832 0.0121288 -5.91399 0
M  V30 8313 H 785.762 0.158691 -0.737111 0
M  V30 8314 H 788.413 -0.313974 -1.80794 0
M  V30 8315 H 786.795 1.57505 -3.6333 0
M  V30 8316 H 787.969 -1.16212 -4.45905 0
M  V30 8317 H 786.284 -0.896306 -4.06639 0
M  V30 8318 H 788.881 1.69746 -5.07041 0
M  V30 8319 H 789.224 2.30245 -3.46833 0
M  V30 8320 H 789.757 0.665364 -3.92196 0
M  V30 8321 H 786.496 -0.868917 -6.49715 0
M  V30 8322 H 786.016 0.754053 -5.95041 0
M  V30 8323 H 787.695 0.439949 -6.45502 0
M  V30 8324 N 787.827 1.57504 0.0551401 0
M  V30 8325 C 789.057 1.92015 0.762472 0
M  V30 8326 C 789.465 0.814088 1.7079 0
M  V30 8327 O 788.808 -0.220273 1.82375 0
M  V30 8328 C 788.87 3.22132 1.59598 0
M  V30 8329 C 788.534 4.49617 0.818141 0
M  V30 8330 C 789.531 5.19738 0.129933 0
M  V30 8331 C 787.216 4.96201 0.780387 0
M  V30 8332 C 789.21 6.34704 -0.585616 0
M  V30 8333 C 786.897 6.11069 0.0610756 0
M  V30 8334 C 787.895 6.80174 -0.62071 0
M  V30 8335 O 787.583 7.92849 -1.3284 0
M  V30 8336 H 787.315 0.638866 0.220967 0
M  V30 8337 H 789.869 2.05385 0.0246362 0
M  V30 8338 H 788.099 3.05016 2.37701 0
M  V30 8339 H 789.788 3.42166 2.18351 0
M  V30 8340 H 790.554 4.84767 0.150299 0
M  V30 8341 H 786.433 4.42275 1.30054 0
M  V30 8342 H 789.977 6.88578 -1.11833 0
M  V30 8343 H 785.874 6.45488 0.0386945 0
M  V30 8344 H 786.642 8.09062 -1.23938 0
M  V30 8345 N 789.305 -0.326896 1.54172 0
M  V30 8346 C 790.533 -1.08486 1.76177 0
M  V30 8347 C 790.948 -1.81815 0.508788 0
M  V30 8348 O 790.305 -1.74924 -0.520362 0
M  V30 8349 C 790.356 -2.08552 2.95276 0
M  V30 8350 O 790.077 -1.38202 4.15731 0
M  V30 8351 C 791.578 -2.96593 3.29466 0
M  V30 8352 H 788.798 -0.322835 0.588233 0
M  V30 8353 H 791.342 -0.374036 2.0105 0
M  V30 8354 H 789.497 -2.75174 2.72687 0
M  V30 8355 H 789.911 -2.05186 4.827 0
M  V30 8356 H 791.385 -3.62708 4.16109 0
M  V30 8357 H 791.862 -3.63511 2.46487 0
M  V30 8358 H 792.468 -2.35537 3.54122 0
M  V30 8359 N 790.784 -1.46188 -0.588786 0
M  V30 8360 C 791.714 -1.59148 -1.70863 0
M  V30 8361 C 792.695 -0.442083 -1.64255 0
M  V30 8362 O 793.88 -0.667575 -1.82365 0
M  V30 8363 C 791.01 -1.5757 -3.09498 0
M  V30 8364 C 789.964 -2.71418 -3.30932 0
M  V30 8365 C 789.29 -2.549 -4.70032 0
M  V30 8366 C 790.59 -4.1329 -3.19356 0
M  V30 8367 H 792.284 -2.52889 -1.60274 0
M  V30 8368 H 789.83 -1.21707 -0.769638 0
M  V30 8369 H 791.783 -1.65231 -3.87655 0
M  V30 8370 H 790.507 -0.603705 -3.20972 0
M  V30 8371 H 789.166 -2.63216 -2.55172 0
M  V30 8372 H 788.814 -1.55797 -4.78264 0
M  V30 8373 H 788.514 -3.31257 -4.85327 0
M  V30 8374 H 790.038 -2.64443 -5.50366 0
M  V30 8375 H 791.452 -4.22636 -3.87365 0
M  V30 8376 H 789.849 -4.90187 -3.46175 0
M  V30 8377 H 790.919 -4.33874 -2.16522 0
M  V30 8378 N 792.262 0.832906 -1.33792 0
M  V30 8379 C 793.21 1.96455 -1.24532 0
M  V30 8380 C 794.204 1.68774 -0.145455 0
M  V30 8381 O 795.41 1.77314 -0.309797 0
M  V30 8382 H 791.785 0.645008 -0.386611 0
M  V30 8383 H 793.756 2.01389 -2.20193 0
M  V30 8384 C 792.505 3.32784 -1.00748 0
M  V30 8385 H 791.828 3.54626 -1.84609 0
M  V30 8386 H 793.268 4.12447 -0.98301 0
M  V30 8387 C 791.727 3.35654 0.289475 0
M  V30 8388 O 792.257 3.80281 1.29419 0
M  V30 8389 N 790.463 2.88843 0.3191 0
M  V30 8390 H 790.01 2.52719 -0.499069 0
M  V30 8391 H 789.968 2.91145 1.18667 0
M  V30 8392 N 793.74 1.17359 1.05189 0
M  V30 8393 C 794.67 0.91365 2.14883 0
M  V30 8394 C 795.651 -0.144365 1.69486 0
M  V30 8395 O 796.836 0.00587861 1.94199 0
M  V30 8396 C 793.966 0.426196 3.44675 0
M  V30 8397 C 792.92 1.4234 4.03638 0
M  V30 8398 C 792.246 0.793902 5.28773 0
M  V30 8399 C 793.546 2.7966 4.41121 0
M  V30 8400 H 795.24 1.831 2.36885 0
M  V30 8401 H 792.786 0.881781 1.13845 0
M  V30 8402 H 794.739 0.231767 4.20762 0
M  V30 8403 H 793.463 -0.526693 3.22325 0
M  V30 8404 H 792.122 1.60457 3.2962 0
M  V30 8405 H 791.77 -0.165824 5.02727 0
M  V30 8406 H 791.47 1.45959 5.69183 0
M  V30 8407 H 792.994 0.609747 6.07548 0
M  V30 8408 H 794.408 2.6526 5.08242 0
M  V30 8409 H 792.805 3.42807 4.92548 0
M  V30 8410 H 793.875 3.34068 3.51464 0
M  V30 8411 N 795.218 -1.23913 0.973828 0
M  V30 8412 C 796.166 -2.27141 0.50098 0
M  V30 8413 C 797.16 -1.63623 -0.438631 0
M  V30 8414 O 798.366 -1.77253 -0.313247 0
M  V30 8415 H 794.741 -0.73817 0.14356 0
M  V30 8416 H 796.712 -2.64392 1.38346 0
M  V30 8417 C 795.461 -3.47195 -0.187377 0
M  V30 8418 H 794.784 -3.96318 0.526535 0
M  V30 8419 H 796.224 -4.21252 -0.481962 0
M  V30 8420 C 794.683 -3.05678 -1.41642 0
M  V30 8421 O 795.213 -3.1338 -2.51309 0
M  V30 8422 N 793.419 -2.60661 -1.28469 0
M  V30 8423 H 792.966 -2.54594 -0.39238 0
M  V30 8424 H 792.924 -2.33249 -2.10813 0
M  V30 8425 N 796.696 -0.74468 -1.38897 0
M  V30 8426 C 797.606 -0.112892 -2.34328 0
M  V30 8427 C 798.622 0.71087 -1.58816 0
M  V30 8428 O 799.798 0.637092 -1.91058 0
M  V30 8429 C 796.863 0.776417 -3.37894 0
M  V30 8430 C 795.924 -0.0606999 -4.29257 0
M  V30 8431 C 795.157 0.786258 -5.27877 0
M  V30 8432 O 795.38 2.02463 -5.33259 0
M  V30 8433 O 794.314 0.209781 -6.01534 0
M  V30 8434 H 798.14 -0.900801 -2.90033 0
M  V30 8435 H 795.725 -0.505462 -1.4059 0
M  V30 8436 H 797.607 1.28496 -4.01331 0
M  V30 8437 H 796.282 1.54297 -2.84559 0
M  V30 8438 H 795.189 -0.614984 -3.69011 0
M  V30 8439 H 796.522 -0.789702 -4.85824 0
M  V30 8440 N 798.174 1.49689 -0.493057 0
M  V30 8441 C 799.104 2.31826 0.279073 0
M  V30 8442 C 800.085 1.39733 0.969987 0
M  V30 8443 O 801.27 1.68646 0.962925 0
M  V30 8444 C 798.4 3.20046 1.34862 0
M  V30 8445 C 797.354 4.20869 0.77805 0
M  V30 8446 C 796.68 4.97971 1.94753 0
M  V30 8447 C 797.98 5.21813 -0.225543 0
M  V30 8448 H 799.674 2.96627 -0.406512 0
M  V30 8449 H 797.22 1.42647 -0.196943 0
M  V30 8450 H 799.173 3.76315 1.89645 0
M  V30 8451 H 797.897 2.53172 2.06328 0
M  V30 8452 H 796.556 3.65733 0.252036 0
M  V30 8453 H 796.204 4.27552 2.64969 0
M  V30 8454 H 795.904 5.66186 1.57187 0
M  V30 8455 H 797.428 5.57082 2.49984 0
M  V30 8456 H 798.842 5.72823 0.233864 0
M  V30 8457 H 797.239 5.97872 -0.516622 0
M  V30 8458 H 798.309 4.71209 -1.14412 0
M  V30 8459 N 799.652 0.226554 1.55963 0
M  V30 8460 C 800.602 -0.694986 2.1715 0
M  V30 8461 C 801.586 -1.15394 1.12129 0
M  V30 8462 O 802.778 -1.1071 1.38102 0
M  V30 8463 C 799.907 -1.9007 2.85882 0
M  V30 8464 C 798.993 -1.46119 3.98133 0
M  V30 8465 N 799.384 -0.734584 5.00437 0
M  V30 8466 C 797.682 -1.74809 4.10314 0
M  V30 8467 C 798.383 -0.509773 5.79462 0
M  V30 8468 N 797.359 -1.06796 5.33006 0
M  V30 8469 H 801.161 -0.131469 2.93606 0
M  V30 8470 H 798.675 0.0280165 1.62376 0
M  V30 8471 H 800.672 -2.57169 3.28131 0
M  V30 8472 H 799.332 -2.46864 2.10923 0
M  V30 8473 H 800.343 -0.386757 5.16454 0
M  V30 8474 H 797.02 -2.32887 3.46511 0
M  V30 8475 H 798.41 0.0688847 6.71865 0
M  V30 8476 N 801.13 -1.57531 -0.0467866 0
M  V30 8477 C 802.04 -2.08768 -1.07018 0
M  V30 8478 C 803.056 -1.02245 -1.40791 0
M  V30 8479 O 804.232 -1.33873 -1.50466 0
M  V30 8480 C 801.297 -2.54221 -2.35738 0
M  V30 8481 C 800.358 -3.75152 -2.08709 0
M  V30 8482 C 799.591 -4.18428 -3.31291 0
M  V30 8483 O 799.814 -3.61365 -4.4133 0
M  V30 8484 O 798.748 -5.11018 -3.18032 0
M  V30 8485 H 802.574 -2.96334 -0.664812 0
M  V30 8486 H 800.159 -1.47074 -0.262605 0
M  V30 8487 H 802.041 -2.83866 -3.11445 0
M  V30 8488 H 800.716 -1.69774 -2.75605 0
M  V30 8489 H 799.623 -3.50553 -1.30627 0
M  V30 8490 H 800.956 -4.60528 -1.73708 0
M  V30 8491 N 802.608 0.318715 -1.54344 0
M  V30 8492 C 803.571 1.37545 -1.83342 0
M  V30 8493 C 804.571 1.445 -0.705444 0
M  V30 8494 O 805.761 1.44443 -0.973752 0
M  V30 8495 C 802.893 2.76225 -1.99781 0
M  V30 8496 H 804.086 1.13084 -2.77762 0
M  V30 8497 H 801.639 0.554457 -1.46135 0
M  V30 8498 H 802.374 3.05934 -1.07588 0
M  V30 8499 H 802.159 2.7257 -2.81865 0
M  V30 8500 H 803.649 3.52664 -2.23647 0
M  V30 8501 N 804.086 1.46499 0.581025 0
M  V30 8502 C 805.314 1.5547 1.36517 0
M  V30 8503 C 805.729 0.196407 1.87776 0
M  V30 8504 O 805.086 -0.806577 1.63709 0
M  V30 8505 C 805.137 2.56084 2.55154 0
M  V30 8506 O 804.858 3.86637 2.06018 0
M  V30 8507 C 806.359 2.75011 3.47683 0
M  V30 8508 H 803.579 0.525703 0.416986 0
M  V30 8509 H 806.123 1.9192 0.706177 0
M  V30 8510 H 804.278 2.22633 3.17039 0
M  V30 8511 H 804.692 4.41413 2.83292 0
M  V30 8512 H 806.166 3.49329 4.27403 0
M  V30 8513 H 806.643 1.81978 3.99726 0
M  V30 8514 H 807.249 3.09565 2.91632 0
M  V30 8515 N 805.565 -0.825799 1.34232 0
M  V30 8516 C 806.498 -1.94155 1.19914 0
M  V30 8517 C 807.476 -1.62343 0.0914533 0
M  V30 8518 O 808.66 -1.86752 0.256082 0
M  V30 8519 C 805.787 -3.28064 0.842138 0
M  V30 8520 C 804.833 -3.78839 1.95917 0
M  V30 8521 S 805.666 -3.98943 3.57218 0
M  V30 8522 C 806.822 -5.35783 3.23554 0
M  V30 8523 H 807.055 -2.06003 2.14359 0
M  V30 8524 H 804.588 -0.981053 1.19225 0
M  V30 8525 H 806.546 -4.05434 0.642952 0
M  V30 8526 H 805.207 -3.13988 -0.0839363 0
M  V30 8527 H 804.4 -4.75771 1.66306 0
M  V30 8528 H 804.002 -3.08406 2.11569 0
M  V30 8529 H 806.294 -6.19094 2.7519 0
M  V30 8530 H 807.237 -5.70376 4.19615 0
M  V30 8531 H 807.645 -5.01158 2.5981 0
M  V30 8532 N 807.043 -1.17915 -1.04565 0
M  V30 8533 C 807.953 -0.916449 -2.15959 0
M  V30 8534 C 808.969 0.117655 -1.73602 0
M  V30 8535 O 810.145 -0.063089 -2.01301 0
M  V30 8536 C 807.21 -0.440262 -3.43893 0
M  V30 8537 C 806.271 -1.54172 -4.00661 0
M  V30 8538 C 805.504 -1.08816 -5.22489 0
M  V30 8539 O 805.727 0.0551547 -5.70373 0
M  V30 8540 O 804.661 -1.88383 -5.7166 0
M  V30 8541 H 808.487 -1.8484 -2.40972 0
M  V30 8542 H 806.072 -0.960552 -1.14428 0
M  V30 8543 H 807.954 -0.182537 -4.21004 0
M  V30 8544 H 806.629 0.46346 -3.20365 0
M  V30 8545 H 805.536 -1.85341 -3.24961 0
M  V30 8546 H 806.869 -2.42139 -4.2852 0
M  V30 8547 N 808.521 1.23394 -0.980386 0
M  V30 8548 C 809.453 2.24146 -0.478657 0
M  V30 8549 C 810.466 1.57303 0.419492 0
M  V30 8550 O 811.655 1.77094 0.223631 0
M  V30 8551 C 808.755 3.3732 0.326913 0
M  V30 8552 C 807.928 4.33744 -0.56436 0
M  V30 8553 C 806.987 5.25866 0.187358 0
M  V30 8554 O 806.013 5.67626 -0.423019 0
M  V30 8555 N 807.215 5.61492 1.47335 0
M  V30 8556 H 809.98 2.67826 -1.34496 0
M  V30 8557 H 807.541 1.37566 -0.853653 0
M  V30 8558 H 809.533 3.95926 0.838148 0
M  V30 8559 H 808.103 2.92823 1.09422 0
M  V30 8560 H 807.323 3.73641 -1.25642 0
M  V30 8561 H 808.611 4.95123 -1.17177 0
M  V30 8562 H 808.009 5.29514 1.99077 0
M  V30 8563 H 806.566 6.2257 1.93002 0
M  V30 8564 N 809.999 0.752036 1.385 0
M  V30 8565 C 810.929 0.138718 2.33088 0
M  V30 8566 C 811.91 -0.705318 1.54788 0
M  V30 8567 O 813.095 -0.646821 1.83112 0
M  V30 8568 C 810.225 -0.75641 3.38963 0
M  V30 8569 C 809.179 -0.0152239 4.27997 0
M  V30 8570 C 808.505 -1.0285 5.24715 0
M  V30 8571 C 809.805 1.15226 5.09431 0
M  V30 8572 H 811.499 0.928852 2.84627 0
M  V30 8573 H 809.045 0.448111 1.3685 0
M  V30 8574 H 810.998 -1.19513 4.04097 0
M  V30 8575 H 809.722 -1.57885 2.85902 0
M  V30 8576 H 808.381 0.404061 3.64366 0
M  V30 8577 H 808.029 -1.84496 4.67943 0
M  V30 8578 H 807.729 -0.537238 5.85139 0
M  V30 8579 H 809.253 -1.46657 5.92726 0
M  V30 8580 H 810.667 0.791161 5.67815 0
M  V30 8581 H 809.064 1.57428 5.79082 0
M  V30 8582 H 810.134 1.9659 4.43261 0
M  V30 8583 N 811.477 -1.49425 0.500989 0
M  V30 8584 C 812.724 -2.02453 -0.0435355 0
M  V30 8585 C 813.052 -1.38067 -1.36995 0
M  V30 8586 O 812.307 -0.505557 -1.89057 0
M  V30 8587 C 812.606 -3.56562 -0.24463 0
M  V30 8588 C 812.272 -4.39585 1.00379 0
M  V30 8589 C 810.934 -4.61992 1.346 0
M  V30 8590 C 813.286 -4.87881 1.83361 0
M  V30 8591 C 810.614 -5.2994 2.51755 0
M  V30 8592 C 812.966 -5.57119 2.99669 0
M  V30 8593 C 811.63 -5.77771 3.3427 0
M  V30 8594 H 810.9 -0.740829 -0.0159308 0
M  V30 8595 H 813.547 -1.79725 0.661143 0
M  V30 8596 H 811.852 -3.77969 -1.03183 0
M  V30 8597 H 813.549 -3.95185 -0.6804 0
M  V30 8598 H 810.139 -4.22385 0.727225 0
M  V30 8599 H 814.323 -4.70398 1.58237 0
M  V30 8600 H 809.579 -5.44133 2.788 0
M  V30 8601 H 813.753 -5.93516 3.64296 0
M  V30 8602 H 811.38 -6.30197 4.25154 0
M  V30 8603 N 812.955 -0.234822 -1.55841 0
M  V30 8604 C 814.366 0.270588 -1.84729 0
M  V30 8605 C 814.717 1.58494 -1.15646 0
M  V30 8606 O 813.842 2.12071 -0.430667 0
M  V30 8607 C 814.437 0.497733 -3.35124 0
M  V30 8608 C 812.996 0.947428 -3.64281 0
M  V30 8609 C 812.143 0.01787 -2.77294 0
M  V30 8610 H 815.094 -0.457691 -1.51957 0
M  V30 8611 H 815.115 1.34199 -3.56049 0
M  V30 8612 H 814.627 -0.459037 -3.85376 0
M  V30 8613 H 812.728 1.91709 -3.19497 0
M  V30 8614 H 812.841 0.812651 -4.72158 0
M  V30 8615 H 811.205 0.527071 -2.49187 0
M  V30 8616 H 811.988 -0.934056 -3.30349 0
M  V30 8617 N 814.433 1.57553 0.0384317 0
M  V30 8618 C 815.849 1.54663 0.39391 0
M  V30 8619 C 816.049 0.959685 1.77179 0
M  V30 8620 O 815.105 0.576647 2.45827 0
M  V30 8621 C 816.418 2.99156 0.304352 0
M  V30 8622 C 817.966 3.10659 0.382119 0
M  V30 8623 C 818.441 4.56866 0.322111 0
M  V30 8624 N 819.932 4.61629 0.38119 0
M  V30 8625 C 820.667 5.72284 0.357501 0
M  V30 8626 N 820.163 6.92207 0.286654 0
M  V30 8627 N 821.956 5.60628 0.406538 0
M  V30 8628 H 814.107 1.9406 -0.86339 0
M  V30 8629 H 816.37 0.889673 -0.327392 0
M  V30 8630 H 816.076 3.45788 -0.642141 0
M  V30 8631 H 815.95 3.60753 1.10168 0
M  V30 8632 H 818.337 2.6398 1.31904 0
M  V30 8633 H 818.418 2.5191 -0.444391 0
M  V30 8634 H 818.062 5.0421 -0.611104 0
M  V30 8635 H 817.992 5.13515 1.1666 0
M  V30 8636 H 820.483 3.75343 0.438838 0
M  V30 8637 H 820.796 7.72316 0.273421 0
M  V30 8638 H 819.141 6.9454 0.252841 0
M  V30 8639 H 822.332 4.65836 0.459812 0
M  V30 8640 H 822.505 6.46858 0.384608 0
M  V30 8641 N 815.911 -0.310526 1.54511 0
M  V30 8642 C 816.858 -1.38264 1.84802 0
M  V30 8643 C 817.828 -1.50808 0.696141 0
M  V30 8644 O 819.013 -1.6582 0.943846 0
M  V30 8645 C 816.153 -2.74422 2.09252 0
M  V30 8646 C 815.266 -2.70405 3.36906 0
M  V30 8647 C 814.401 -3.98495 3.51248 0
M  V30 8648 C 813.44 -3.88836 4.72729 0
M  V30 8649 N 812.577 -5.08683 4.83928 0
M  V30 8650 H 817.417 -1.11732 2.76261 0
M  V30 8651 H 814.954 -0.540609 1.36806 0
M  V30 8652 H 816.912 -3.53593 2.21422 0
M  V30 8653 H 815.542 -2.99235 1.2107 0
M  V30 8654 H 814.594 -1.83151 3.33406 0
M  V30 8655 H 815.906 -2.59155 4.26193 0
M  V30 8656 H 815.06 -4.861 3.63031 0
M  V30 8657 H 813.799 -4.12567 2.60077 0
M  V30 8658 H 812.804 -2.99615 4.60989 0
M  V30 8659 H 814.029 -3.76318 5.65298 0
M  V30 8660 H 811.975 -5.23236 3.95677 0
M  V30 8661 H 811.892 -4.99819 5.67201 0
M  V30 8662 H 813.16 -5.97966 5.00057 0
M  V30 8663 N 817.389 -1.46805 -0.573248 0
M  V30 8664 C 818.629 -1.5417 -1.34205 0
M  V30 8665 C 818.993 -0.192675 -1.91031 0
M  V30 8666 O 820.194 -0.141111 -2.68429 0
M  V30 8667 C 818.465 -2.61682 -2.43428 0
M  V30 8668 S 820.024 -2.88519 -3.30609 0
M  V30 8669 H 816.842 -0.544592 -0.4571 0
M  V30 8670 H 819.444 -1.84094 -0.658001 0
M  V30 8671 H 818.148 -3.58319 -2.00088 0
M  V30 8672 H 817.679 -2.33521 -3.16594 0
M  V30 8673 H 819.694 -2.2451 -4.42504 0
M  V30 8674 N 818.867 0.818669 -1.34668 0
M  V30 8675 C 820.095 1.60674 -1.30351 0
M  V30 8676 C 820.51 1.88408 0.121546 0
M  V30 8677 O 819.867 1.47849 1.06991 0
M  V30 8678 C 819.918 2.94516 -2.09625 0
M  V30 8679 O 819.639 2.6799 -3.46573 0
M  V30 8680 C 821.14 3.8891 -2.12754 0
M  V30 8681 H 818.36 0.499306 -0.448258 0
M  V30 8682 H 820.904 1.01828 -1.77345 0
M  V30 8683 H 819.059 3.49908 -1.66262 0
M  V30 8684 H 819.473 3.53361 -3.87603 0
M  V30 8685 H 820.947 4.79972 -2.72637 0
M  V30 8686 H 821.424 4.24599 -1.12306 0
M  V30 8687 H 822.03 3.39453 -2.56225 0
M  V30 8688 N 820.346 1.18468 1.03938 0
M  V30 8689 C 821.592 0.992302 1.77553 0
M  V30 8690 C 821.947 -0.472959 1.86496 0
M  V30 8691 O 821.24 -1.34662 1.36296 0
M  V30 8692 C 821.434 1.58229 3.20466 0
M  V30 8693 C 821.263 3.1034 3.25452 0
M  V30 8694 C 820.033 3.79166 3.34008 0
M  V30 8695 C 822.231 4.07814 3.13357 0
M  V30 8696 N 820.213 5.18768 3.28258 0
M  V30 8697 C 821.584 5.33946 3.15121 0
M  V30 8698 C 823.639 3.99315 2.97409 0
M  V30 8699 C 822.342 6.52565 3.02574 0
M  V30 8700 C 824.368 5.17532 2.86208 0
M  V30 8701 C 823.73 6.42557 2.88617 0
M  V30 8702 H 819.829 0.417131 0.661457 0
M  V30 8703 H 822.413 1.50265 1.23808 0
M  V30 8704 H 820.584 1.0981 3.72554 0
M  V30 8705 H 822.316 1.32531 3.82384 0
M  V30 8706 H 819.071 3.29905 3.39794 0
M  V30 8707 H 819.495 5.91783 3.28818 0
M  V30 8708 H 824.137 3.03485 2.94375 0
M  V30 8709 H 821.855 7.48592 3.0436 0
M  V30 8710 H 825.441 5.12748 2.7492 0
M  V30 8711 H 824.321 7.32494 2.80039 0
M  V30 8712 N 821.824 -1.22873 0.986916 0
M  V30 8713 C 822.754 -2.2688 0.552064 0
M  V30 8714 C 823.735 -1.64883 -0.418048 0
M  V30 8715 O 824.92 -1.9171 -0.30999 0
M  V30 8716 C 822.05 -3.47018 -0.139959 0
M  V30 8717 C 821.004 -4.21411 0.748091 0
M  V30 8718 C 820.33 -5.34645 -0.0765132 0
M  V30 8719 C 821.63 -4.80726 2.04206 0
M  V30 8720 H 823.324 -2.63507 1.42143 0
M  V30 8721 H 820.87 -1.26668 0.68492 0
M  V30 8722 H 822.823 -4.18931 -0.455527 0
M  V30 8723 H 821.547 -3.0947 -1.04382 0
M  V30 8724 H 820.206 -3.51325 1.04721 0
M  V30 8725 H 819.854 -4.93339 -0.981109 0
M  V30 8726 H 819.554 -5.85342 0.514606 0
M  V30 8727 H 821.078 -6.09377 -0.386313 0
M  V30 8728 H 822.492 -5.44612 1.79083 0
M  V30 8729 H 820.889 -5.41737 2.5815 0
M  V30 8730 H 821.959 -4.01109 2.72469 0
M  V30 8731 N 823.302 -0.75937 -1.38099 0
M  V30 8732 C 824.532 -0.328634 -2.0397 0
M  V30 8733 C 824.94 1.04989 -1.57398 0
M  V30 8734 O 824.283 1.67918 -0.744932 0
M  V30 8735 C 824.345 -0.279216 -3.58414 0
M  V30 8736 C 824.009 -1.60025 -4.28067 0
M  V30 8737 C 825.006 -2.55048 -4.53041 0
M  V30 8738 C 822.691 -1.87128 -4.66142 0
M  V30 8739 C 824.685 -3.7539 -5.15132 0
M  V30 8740 C 822.372 -3.07742 -5.27956 0
M  V30 8741 C 823.37 -4.01694 -5.52387 0
M  V30 8742 O 823.058 -5.20186 -6.12912 0
M  V30 8743 H 822.79 -0.137443 -0.66188 0
M  V30 8744 H 825.344 -1.03082 -1.77661 0
M  V30 8745 H 823.574 0.479254 -3.83719 0
M  V30 8746 H 825.263 0.122781 -4.05714 0
M  V30 8747 H 826.029 -2.35387 -4.24049 0
M  V30 8748 H 821.908 -1.14833 -4.46469 0
M  V30 8749 H 825.452 -4.48737 -5.34117 0
M  V30 8750 H 821.349 -3.27294 -5.56371 0
M  V30 8751 H 822.117 -5.20846 -6.31397 0
M  V30 8752 N 824.78 1.49157 -0.508906 0
M  V30 8753 C 826.026 2.02773 0.0328469 0
M  V30 8754 C 826.359 1.38714 1.35912 0
M  V30 8755 O 825.634 0.525536 1.87266 0
M  V30 8756 C 825.917 3.59664 0.177088 0
M  V30 8757 C 825.77 4.34239 -1.17287 0
M  V30 8758 C 827.089 4.30505 0.913977 0
M  V30 8759 H 824.208 0.736926 0.0104631 0
M  V30 8760 H 826.85 1.781 -0.661851 0
M  V30 8761 H 825 3.80818 0.768774 0
M  V30 8762 H 826.672 4.24561 -1.80404 0
M  V30 8763 H 824.915 3.96486 -1.76016 0
M  V30 8764 H 825.586 5.42397 -1.02516 0
M  V30 8765 H 828.062 4.14054 0.412084 0
M  V30 8766 H 826.938 5.40012 0.983759 0
M  V30 8767 H 827.199 3.96302 1.95951 0
M  V30 8768 N 826.258 0.243083 1.55714 0
M  V30 8769 C 827.507 -0.383188 1.98027 0
M  V30 8770 C 827.82 -1.59347 1.13436 0
M  V30 8771 O 829.026 -2.29065 1.45745 0
M  V30 8772 C 827.482 -0.733135 3.52354 0
M  V30 8773 C 827.09 0.455539 4.45678 0
M  V30 8774 C 828.834 -1.32381 4.03331 0
M  V30 8775 C 826.741 0.0819591 5.91343 0
M  V30 8776 H 825.671 -0.146944 0.739543 0
M  V30 8777 H 828.322 0.342697 1.80272 0
M  V30 8778 H 826.704 -1.51704 3.65789 0
M  V30 8779 H 827.878 1.23291 4.44 0
M  V30 8780 H 826.193 0.960886 4.05162 0
M  V30 8781 H 828.79 -1.61658 5.09677 0
M  V30 8782 H 829.133 -2.24698 3.50452 0
M  V30 8783 H 829.666 -0.602885 3.93205 0
M  V30 8784 H 826.405 0.972171 6.48251 0
M  V30 8785 H 825.925 -0.659291 5.96166 0
M  V30 8786 H 827.604 -0.3372 6.46121 0
M  V30 8787 N 827.736 -1.57571 -0.0300757 0
M  V30 8788 C 828.684 -2.0758 -1.04944 0
M  V30 8789 C 829.678 -0.989384 -1.37505 0
M  V30 8790 O 830.884 -1.17427 -1.36422 0
M  V30 8791 H 827.259 -0.662419 -0.355956 0
M  V30 8792 H 829.23 -2.92268 -0.601848 0
M  V30 8793 C 827.979 -2.5698 -2.34215 0
M  V30 8794 H 827.302 -3.40193 -2.10021 0
M  V30 8795 H 828.742 -2.95682 -3.03888 0
M  V30 8796 C 827.201 -1.47059 -3.03109 0
M  V30 8797 O 827.731 -0.83625 -3.92899 0
M  V30 8798 N 825.937 -1.20538 -2.64422 0
M  V30 8799 H 825.484 -1.72305 -1.9149 0
M  V30 8800 H 825.442 -0.472045 -3.10836 0
M  V30 8801 N 829.214 0.302327 -1.54673 0
M  V30 8802 C 830.162 1.39286 -1.86285 0
M  V30 8803 C 831.156 1.52553 -0.736478 0
M  V30 8804 O 832.362 1.54686 -0.92045 0
M  V30 8805 H 828.737 0.465228 -0.590819 0
M  V30 8806 H 830.708 1.09859 -2.77441 0
M  V30 8807 C 829.457 2.75155 -2.12567 0
M  V30 8808 H 828.78 2.65728 -2.98712 0
M  V30 8809 H 830.22 3.50476 -2.38627 0
M  V30 8810 C 828.679 3.23987 -0.923813 0
M  V30 8811 O 829.209 4.01443 -0.143649 0
M  V30 8812 N 827.415 2.81293 -0.72956 0
M  V30 8813 H 826.962 2.18421 -1.36565 0
M  V30 8814 H 826.92 3.14315 0.0730351 0
M  V30 8815 N 830.692 1.47107 0.565454 0
M  V30 8816 C 831.92 1.56909 1.3486 0
M  V30 8817 C 832.335 0.216312 1.87557 0
M  V30 8818 O 831.692 -0.789168 1.64555 0
M  V30 8819 C 831.743 2.58776 2.52423 0
M  V30 8820 O 831.464 3.888 2.01906 0
M  V30 8821 C 832.965 2.78683 3.44747 0
M  V30 8822 H 830.185 0.530096 0.411387 0
M  V30 8823 H 832.729 1.92658 0.685782 0
M  V30 8824 H 830.884 2.25983 3.1466 0
M  V30 8825 H 831.298 4.44393 2.78595 0
M  V30 8826 H 832.772 3.53842 4.23674 0
M  V30 8827 H 833.249 1.86208 3.97773 0
M  V30 8828 H 833.855 3.12641 2.88333 0
M  V30 8829 N 832.17 -0.811516 1.35101 0
M  V30 8830 C 833.1 -1.9378 1.30275 0
M  V30 8831 C 834.081 -1.69165 0.178075 0
M  V30 8832 O 835.266 -1.90599 0.372256 0
M  V30 8833 C 832.396 -3.30439 1.06899 0
M  V30 8834 C 831.35 -3.69523 2.15955 0
M  V30 8835 C 830.676 -5.0429 1.77751 0
M  V30 8836 C 831.976 -3.80419 3.57881 0
M  V30 8837 H 833.67 -1.98075 2.24514 0
M  V30 8838 H 831.216 -0.951586 1.08078 0
M  V30 8839 H 833.169 -4.08828 1.02164 0
M  V30 8840 H 831.893 -3.26473 0.0910462 0
M  V30 8841 H 830.552 -2.93416 2.19778 0
M  V30 8842 H 830.2 -4.96823 0.785876 0
M  V30 8843 H 829.9 -5.31411 2.5075 0
M  V30 8844 H 831.424 -5.85125 1.74533 0
M  V30 8845 H 832.838 -4.49051 3.56407 0
M  V30 8846 H 831.235 -4.19005 4.29598 0
M  V30 8847 H 832.305 -2.82105 3.94391 0
M  V30 8848 N 833.648 -1.19017 -1.03309 0
M  V30 8849 C 834.581 -0.867457 -2.1107 0
M  V30 8850 C 835.559 0.173752 -1.61669 0
M  V30 8851 O 836.743 0.0510077 -1.88431 0
M  V30 8852 C 833.87 -0.297459 -3.37391 0
M  V30 8853 C 832.916 -1.31706 -4.05655 0
M  V30 8854 S 833.749 -2.87591 -4.51721 0
M  V30 8855 C 834.905 -2.32122 -5.81266 0
M  V30 8856 H 835.138 -1.78008 -2.38119 0
M  V30 8857 H 832.671 -1.01686 -1.16187 0
M  V30 8858 H 834.629 0.0248889 -4.10492 0
M  V30 8859 H 833.29 0.5934 -3.08444 0
M  V30 8860 H 832.483 -0.867264 -4.96482 0
M  V30 8861 H 832.085 -1.58603 -3.38705 0
M  V30 8862 H 834.377 -1.70855 -6.55603 0
M  V30 8863 H 835.32 -3.2128 -6.31019 0
M  V30 8864 H 835.728 -1.74858 -5.36736 0
M  V30 8865 N 835.127 1.22348 -0.993418 0
M  V30 8866 C 836.352 1.95666 -0.687727 0
M  V30 8867 C 836.777 1.72883 0.741161 0
M  V30 8868 O 836.135 1.00837 1.50671 0
M  V30 8869 C 836.183 3.46457 -0.99998 0
M  V30 8870 O 835.287 4.12281 -0.0989386 0
M  V30 8871 H 834.628 0.612102 -0.257346 0
M  V30 8872 H 837.158 1.55428 -1.33054 0
M  V30 8873 H 837.168 3.96976 -0.942035 0
M  V30 8874 H 835.843 3.62365 -2.04118 0
M  V30 8875 H 834.42 3.72295 -0.212413 0
M  V30 8876 N 836.605 0.766683 1.37694 0
M  V30 8877 C 837.535 0.163432 2.32927 0
M  V30 8878 C 838.516 -0.688861 1.55527 0
M  V30 8879 O 839.701 -0.627363 1.83787 0
M  V30 8880 C 836.831 -0.720416 3.39746 0
M  V30 8881 C 835.785 0.0301718 4.27989 0
M  V30 8882 C 835.111 -0.972788 5.25776 0
M  V30 8883 C 836.411 1.20623 5.0818 0
M  V30 8884 H 838.105 0.958988 2.83626 0
M  V30 8885 H 835.651 0.462601 1.36367 0
M  V30 8886 H 837.604 -1.15221 4.05342 0
M  V30 8887 H 836.328 -1.54844 2.8756 0
M  V30 8888 H 834.987 0.442685 3.63917 0
M  V30 8889 H 834.635 -1.79522 4.69873 0
M  V30 8890 H 834.335 -0.475145 5.85676 0
M  V30 8891 H 835.859 -1.40362 5.94248 0
M  V30 8892 H 837.273 0.851341 5.66944 0
M  V30 8893 H 835.67 1.63561 5.7738 0
M  V30 8894 H 836.74 2.01281 4.41151 0
M  V30 8895 N 838.083 -1.48885 0.516809 0
M  V30 8896 C 839.308 -2.0739 -0.0205201 0
M  V30 8897 C 839.733 -1.37259 -1.28614 0
M  V30 8898 O 839.091 -0.434304 -1.76021 0
M  V30 8899 C 839.139 -3.59793 -0.24104 0
M  V30 8900 O 838.243 -3.90957 -1.31251 0
M  V30 8901 H 837.584 -0.663167 0.0332564 0
M  V30 8902 H 840.114 -1.91477 0.720956 0
M  V30 8903 H 840.124 -4.0531 -0.467737 0
M  V30 8904 H 838.799 -4.10244 0.68356 0
M  V30 8905 H 837.376 -3.57234 -1.06951 0
M  V30 8906 N 839.561 -0.251338 -1.55583 0
M  V30 8907 C 840.807 0.37272 -1.99346 0
M  V30 8908 C 841.14 1.57266 -1.13934 0
M  V30 8909 O 840.415 1.9343 -0.20377 0
M  V30 8910 C 840.698 0.778245 -3.5159 0
M  V30 8911 C 840.551 -0.427394 -4.47765 0
M  V30 8912 C 841.87 1.62358 -4.09057 0
M  V30 8913 H 838.989 0.134002 -0.724715 0
M  V30 8914 H 841.631 -0.353536 -1.86682 0
M  V30 8915 H 839.781 1.39704 -3.62512 0
M  V30 8916 H 841.453 -1.06586 -4.48818 0
M  V30 8917 H 839.696 -1.06972 -4.20404 0
M  V30 8918 H 840.367 -0.10025 -5.51909 0
M  V30 8919 H 842.843 1.1012 -4.01264 0
M  V30 8920 H 841.719 1.87617 -5.1584 0
M  V30 8921 H 841.98 2.59688 -3.57791 0
M  V30 8922 N 841.039 1.57585 0.0217189 0
M  V30 8923 C 842.287 1.89231 0.709641 0
M  V30 8924 C 842.608 0.849964 1.75501 0
M  V30 8925 O 841.878 -0.115485 1.95559 0
M  V30 8926 H 840.458 0.69838 0.265092 0
M  V30 8927 H 843.12 1.94895 -0.0140688 0
M  V30 8928 H 842.216 2.88333 1.19459 0
M  V30 8929 N 842.517 -0.29412 1.54831 0
M  V30 8930 C 843.464 -1.36296 1.86258 0
M  V30 8931 C 844.434 -1.50061 0.712097 0
M  V30 8932 O 845.619 -1.64809 0.961381 0
M  V30 8933 C 842.759 -2.72187 2.12151 0
M  V30 8934 C 841.872 -2.66816 3.39755 0
M  V30 8935 C 841.007 -3.94747 3.55455 0
M  V30 8936 C 840.046 -3.838 4.76827 0
M  V30 8937 N 839.183 -5.03521 4.89296 0
M  V30 8938 H 844.023 -1.08796 2.7743 0
M  V30 8939 H 841.56 -0.526069 1.37371 0
M  V30 8940 H 843.518 -3.51225 2.25159 0
M  V30 8941 H 842.148 -2.97934 1.24237 0
M  V30 8942 H 841.2 -1.79605 3.3533 0
M  V30 8943 H 842.512 -2.5462 4.28917 0
M  V30 8944 H 841.666 -4.82223 3.68166 0
M  V30 8945 H 840.405 -4.09785 2.64438 0
M  V30 8946 H 839.41 -2.94708 4.64141 0
M  V30 8947 H 840.635 -3.70301 5.69258 0
M  V30 8948 H 838.581 -5.1901 4.01204 0
M  V30 8949 H 838.498 -4.93775 5.72471 0
M  V30 8950 H 839.766 -5.92629 5.06371 0
M  V30 8951 N 843.995 -1.47404 -0.557645 0
M  V30 8952 C 845.223 -1.57622 -1.34026 0
M  V30 8953 C 845.638 -0.226256 -1.87439 0
M  V30 8954 O 844.995 0.78043 -1.64971 0
M  V30 8955 C 845.046 -2.60111 -2.51047 0
M  V30 8956 O 844.767 -3.89866 -1.99841 0
M  V30 8957 C 846.268 -2.80508 -3.43264 0
M  V30 8958 H 843.488 -0.532271 -0.40857 0
M  V30 8959 H 846.032 -1.93019 -0.675555 0
M  V30 8960 H 844.187 -2.27648 -3.13457 0
M  V30 8961 H 844.601 -4.45864 -2.76234 0
M  V30 8962 H 846.075 -3.56084 -4.21792 0
M  V30 8963 H 846.552 -1.88314 -3.9678 0
M  V30 8964 H 847.158 -3.14166 -2.86671 0
M  V30 8965 N 845.473 0.80434 -1.35529 0
M  V30 8966 C 846.72 1.56154 -1.28927 0
M  V30 8967 C 847.048 1.94026 0.135682 0
M  V30 8968 O 846.303 1.61759 1.10148 0
M  V30 8969 C 846.602 2.85988 -2.14349 0
M  V30 8970 C 846.268 2.67323 -3.6311 0
M  V30 8971 C 844.93 2.61941 -4.03659 0
M  V30 8972 C 847.282 2.49699 -4.57493 0
M  V30 8973 C 844.61 2.3688 -5.36754 0
M  V30 8974 C 846.962 2.26168 -5.90788 0
M  V30 8975 C 845.626 2.19209 -6.30479 0
M  V30 8976 H 844.896 0.571407 -0.471779 0
M  V30 8977 H 847.543 0.929193 -1.67446 0
M  V30 8978 H 845.848 3.53612 -1.68718 0
M  V30 8979 H 847.545 3.43697 -2.06576 0
M  V30 8980 H 844.135 2.72361 -3.30934 0
M  V30 8981 H 848.319 2.52869 -4.27049 0
M  V30 8982 H 843.575 2.29964 -5.66504 0
M  V30 8983 H 847.749 2.11522 -6.63499 0
M  V30 8984 H 845.376 1.99553 -7.33541 0
M  V30 8985 N 846.951 1.19563 1.02676 0
M  V30 8986 C 847.883 0.893054 2.11086 0
M  V30 8987 C 848.896 -0.115101 1.62393 0
M  V30 8988 O 850.085 0.11459 1.78132 0
M  V30 8989 C 847.185 0.315533 3.37428 0
M  V30 8990 C 846.358 1.37276 4.153 0
M  V30 8991 C 845.417 0.808398 5.19953 0
M  V30 8992 O 844.443 1.48661 5.49444 0
M  V30 8993 N 845.645 -0.387253 5.79207 0
M  V30 8994 H 848.41 1.82622 2.37633 0
M  V30 8995 H 845.971 1.09792 1.18984 0
M  V30 8996 H 847.963 -0.0759166 4.04629 0
M  V30 8997 H 846.533 -0.521961 3.08211 0
M  V30 8998 H 845.753 1.93897 3.43217 0
M  V30 8999 H 847.041 2.08509 4.64114 0
M  V30 9000 H 846.439 -0.955725 5.57568 0
M  V30 9001 H 844.996 -0.720457 6.47806 0
M  V30 9002 N 848.429 -1.21819 0.999893 0
M  V30 9003 C 849.359 -2.26282 0.576096 0
M  V30 9004 C 850.34 -1.65317 -0.400537 0
M  V30 9005 O 851.525 -1.92028 -0.28964 0
M  V30 9006 C 848.655 -3.47147 -0.103145 0
M  V30 9007 C 847.609 -4.20594 0.792745 0
M  V30 9008 C 846.935 -5.34696 -0.0198026 0
M  V30 9009 C 848.235 -4.78533 2.09293 0
M  V30 9010 H 849.929 -2.61984 1.4493 0
M  V30 9011 H 847.475 -1.25935 0.698316 0
M  V30 9012 H 849.428 -4.1939 -0.411068 0
M  V30 9013 H 848.152 -3.1056 -1.01094 0
M  V30 9014 H 846.811 -3.50194 1.08442 0
M  V30 9015 H 846.459 -4.94352 -0.928729 0
M  V30 9016 H 846.159 -5.84764 0.576661 0
M  V30 9017 H 847.683 -6.09752 -0.321659 0
M  V30 9018 H 849.097 -5.42682 1.8485 0
M  V30 9019 H 847.494 -5.38968 2.63881 0
M  V30 9020 H 848.564 -3.98197 2.76708 0
M  V30 9021 N 849.908 -0.773975 -1.37286 0
M  V30 9022 C 851.138 -0.350249 -2.03609 0
M  V30 9023 C 851.546 1.03313 -1.58502 0
M  V30 9024 O 850.889 1.67118 -0.7627 0
M  V30 9025 C 850.951 -0.317215 -3.58098 0
M  V30 9026 C 850.615 -1.64556 -4.26345 0
M  V30 9027 C 851.612 -2.59839 -4.50311 0
M  V30 9028 C 849.297 -1.92061 -4.64131 0
M  V30 9029 C 851.291 -3.80833 -5.11122 0
M  V30 9030 C 848.978 -3.13325 -5.24663 0
M  V30 9031 C 849.976 -4.0753 -5.48095 0
M  V30 9032 O 849.664 -5.26658 -6.0736 0
M  V30 9033 H 849.396 -0.144456 -0.660385 0
M  V30 9034 H 851.95 -1.0496 -1.76557 0
M  V30 9035 H 850.18 0.438528 -3.84205 0
M  V30 9036 H 851.869 0.0797428 -4.05822 0
M  V30 9037 H 852.635 -2.39872 -4.21529 0
M  V30 9038 H 848.514 -1.19562 -4.45226 0
M  V30 9039 H 852.058 -4.54377 -5.29327 0
M  V30 9040 H 847.955 -3.33177 -5.52869 0
M  V30 9041 H 848.723 -5.27513 -6.25837 0
M  V30 9042 N 851.386 1.48609 -0.524698 0
M  V30 9043 C 852.611 2.07398 0.00952139 0
M  V30 9044 C 853.036 1.37939 1.27884 0
M  V30 9045 O 852.394 0.443633 1.75788 0
M  V30 9046 C 852.442 3.59916 0.221956 0
M  V30 9047 O 851.546 3.91647 1.29175 0
M  V30 9048 H 850.887 0.662981 -0.0367729 0
M  V30 9049 H 853.417 1.91092 -0.7311 0
M  V30 9050 H 853.427 4.05552 0.446236 0
M  V30 9051 H 852.102 4.09876 -0.705306 0
M  V30 9052 H 850.679 3.57796 1.05055 0
M  V30 9053 N 852.864 0.259585 1.55447 0
M  V30 9054 C 853.814 -0.648769 2.18575 0
M  V30 9055 C 854.798 -1.1299 1.14552 0
M  V30 9056 O 855.99 -1.07756 1.4042 0
M  V30 9057 C 853.119 -1.83963 2.89849 0
M  V30 9058 C 852.205 -1.37641 4.01143 0
M  V30 9059 N 852.596 -0.628269 5.01883 0
M  V30 9060 C 850.894 -1.66066 4.1393 0
M  V30 9061 C 851.595 -0.386746 5.80413 0
M  V30 9062 N 850.571 -0.954665 5.35151 0
M  V30 9063 H 854.373 -0.0691616 2.93819 0
M  V30 9064 H 851.887 0.0624525 1.6228 0
M  V30 9065 H 853.884 -2.50151 3.33512 0
M  V30 9066 H 852.544 -2.42334 2.16112 0
M  V30 9067 H 853.555 -0.277123 5.17158 0
M  V30 9068 H 850.232 -2.25484 3.51373 0
M  V30 9069 H 851.622 0.211382 6.71567 0
M  V30 9070 N 854.342 -1.57594 -0.0133615 0
M  V30 9071 C 855.29 -2.08682 -1.02736 0
M  V30 9072 C 856.284 -1.00391 -1.36448 0
M  V30 9073 O 857.49 -1.18868 -1.35168 0
M  V30 9074 H 853.865 -0.666158 -0.34891 0
M  V30 9075 H 855.836 -2.9289 -0.570815 0
M  V30 9076 C 854.585 -2.5945 -2.31476 0
M  V30 9077 H 853.908 -3.42401 -2.06401 0
M  V30 9078 H 855.348 -2.98888 -3.00735 0
M  V30 9079 C 853.807 -1.50266 -3.01533 0
M  V30 9080 O 854.337 -0.877875 -3.9199 0
M  V30 9081 N 852.543 -1.23336 -2.63129 0
M  V30 9082 H 852.09 -1.74327 -1.89652 0
M  V30 9083 H 852.048 -0.504987 -3.10318 0
M  V30 9084 N 855.82 0.285905 -1.54985 0
M  V30 9085 C 856.75 1.35752 -1.89983 0
M  V30 9086 C 857.731 1.52163 -0.760295 0
M  V30 9087 O 858.916 1.65421 -1.01733 0
M  V30 9088 C 856.046 2.71925 -2.16042 0
M  V30 9089 C 855 2.70261 -3.31878 0
M  V30 9090 C 854.326 4.09864 -3.43388 0
M  V30 9091 C 855.626 2.30667 -4.68604 0
M  V30 9092 H 857.32 1.06709 -2.79738 0
M  V30 9093 H 854.866 0.511884 -1.34595 0
M  V30 9094 H 856.819 3.46992 -2.39113 0
M  V30 9095 H 855.543 3.02523 -1.23074 0
M  V30 9096 H 854.202 1.97651 -3.08755 0
M  V30 9097 H 853.85 4.37664 -2.47909 0
M  V30 9098 H 853.55 4.09648 -4.21262 0
M  V30 9099 H 855.074 4.86689 -3.68736 0
M  V30 9100 H 856.488 2.95453 -4.91305 0
M  V30 9101 H 854.885 2.41637 -5.49301 0
M  V30 9102 H 855.955 1.25793 -4.68299 0
M  V30 9103 N 857.298 1.47698 0.54982 0
M  V30 9104 C 858.547 1.53961 1.30303 0
M  V30 9105 C 858.86 0.209731 1.94472 0
M  V30 9106 O 860.066 0.150418 2.71083 0
M  V30 9107 C 858.522 2.71436 2.36328 0
M  V30 9108 C 858.13 4.10983 1.78316 0
M  V30 9109 C 859.874 2.86996 3.12783 0
M  V30 9110 C 857.781 5.19747 2.82164 0
M  V30 9111 H 856.711 0.573098 0.489975 0
M  V30 9112 H 859.362 1.73989 0.583089 0
M  V30 9113 H 857.744 2.44801 3.11269 0
M  V30 9114 H 858.918 4.47552 1.09697 0
M  V30 9115 H 857.233 4.00371 1.1442 0
M  V30 9116 H 859.83 3.65422 3.90347 0
M  V30 9117 H 860.173 1.95712 3.67427 0
M  V30 9118 H 860.706 3.13436 2.44954 0
M  V30 9119 H 857.445 6.12932 2.32366 0
M  V30 9120 H 856.965 4.87688 3.49171 0
M  V30 9121 H 858.644 5.47014 3.4552 0
M  V30 9122 N 858.776 -0.797141 1.35954 0
M  V30 9123 C 859.739 -1.89104 1.29508 0
M  V30 9124 C 860.739 -1.59495 0.204444 0
M  V30 9125 O 861.929 -1.68051 0.458746 0
M  V30 9126 C 859.061 -3.25726 1.00576 0
M  V30 9127 H 860.254 -1.96237 2.26785 0
M  V30 9128 H 857.807 -0.994075 1.20614 0
M  V30 9129 H 858.542 -3.24279 0.0372519 0
M  V30 9130 H 858.327 -3.48604 1.79492 0
M  V30 9131 H 859.817 -4.0578 0.986508 0
M  V30 9132 N 860.254 -1.20106 -1.0204 0
M  V30 9133 C 861.184 -0.970301 -2.12385 0
M  V30 9134 C 862.165 0.099378 -1.69809 0
M  V30 9135 O 863.35 -0.057365 -1.94115 0
M  V30 9136 C 860.48 -0.517431 -3.43424 0
M  V30 9137 C 859.434 -1.52992 -3.99722 0
M  V30 9138 C 858.76 -0.933817 -5.26483 0
M  V30 9139 C 860.06 -2.91257 -4.33551 0
M  V30 9140 H 861.754 -1.89316 -2.31948 0
M  V30 9141 H 859.3 -0.911655 -1.11467 0
M  V30 9142 H 861.253 -0.343243 -4.2 0
M  V30 9143 H 859.977 0.441049 -3.23608 0
M  V30 9144 H 858.636 -1.6914 -3.2525 0
M  V30 9145 H 858.284 0.0324763 -5.0299 0
M  V30 9146 H 857.984 -1.60999 -5.65113 0
M  V30 9147 H 859.508 -0.770614 -6.05718 0
M  V30 9148 H 860.922 -2.78642 -5.0103 0
M  V30 9149 H 859.319 -3.55745 -4.83286 0
M  V30 9150 H 860.389 -3.43269 -3.42483 0
M  V30 9151 N 861.732 1.21287 -1.00634 0
M  V30 9152 C 862.979 1.90389 -0.6898 0
M  V30 9153 C 863.307 1.78193 0.779574 0
M  V30 9154 O 862.562 1.15358 1.58085 0
M  V30 9155 C 862.861 3.41374 -1.05824 0
M  V30 9156 C 862.527 3.73766 -2.5221 0
M  V30 9157 C 861.189 3.82317 -2.92211 0
M  V30 9158 C 863.541 3.88871 -3.47028 0
M  V30 9159 C 860.869 4.03423 -4.2599 0
M  V30 9160 C 863.221 4.11484 -4.80483 0
M  V30 9161 C 861.885 4.18263 -5.20204 0
M  V30 9162 H 861.155 0.696683 -0.252416 0
M  V30 9163 H 863.802 1.43769 -1.26502 0
M  V30 9164 H 862.107 3.8974 -0.401281 0
M  V30 9165 H 863.804 3.93118 -0.79116 0
M  V30 9166 H 860.394 3.67702 -2.20212 0
M  V30 9167 H 864.578 3.8163 -3.17289 0
M  V30 9168 H 859.834 4.06902 -4.56334 0
M  V30 9169 H 864.008 4.22115 -5.53888 0
M  V30 9170 H 861.635 4.34369 -6.23881 0
M  V30 9171 N 863.21 0.781244 1.36873 0
M  V30 9172 C 864.12 0.174981 2.33947 0
M  V30 9173 C 865.136 -0.668512 1.60645 0
M  V30 9174 O 866.312 -0.586213 1.9268 0
M  V30 9175 C 863.377 -0.686557 3.39834 0
M  V30 9176 C 862.438 0.174489 4.28945 0
M  V30 9177 C 861.671 -0.646024 5.29776 0
M  V30 9178 O 861.894 -1.88254 5.38439 0
M  V30 9179 O 860.828 -0.0502214 6.01879 0
M  V30 9180 H 864.654 0.977382 2.87543 0
M  V30 9181 H 862.239 0.542559 1.392 0
M  V30 9182 H 864.121 -1.1781 4.04597 0
M  V30 9183 H 862.796 -1.46699 2.8855 0
M  V30 9184 H 861.703 0.712604 3.6725 0
M  V30 9185 H 863.036 0.918232 4.83559 0
M  V30 9186 N 864.689 -1.48329 0.532571 0
M  V30 9187 C 865.639 -2.2664 -0.24868 0
M  V30 9188 C 866.623 -1.32861 -0.907563 0
M  V30 9189 O 867.815 -1.57382 -0.809942 0
M  V30 9190 C 864.944 -3.18004 -1.29339 0
M  V30 9191 C 864.03 -4.19256 -0.639166 0
M  V30 9192 N 864.421 -5.05043 0.276597 0
M  V30 9193 C 862.719 -4.36906 -0.896062 0
M  V30 9194 C 863.42 -5.78009 0.654261 0
M  V30 9195 N 862.396 -5.43598 0.0147447 0
M  V30 9196 H 866.198 -2.90344 0.455792 0
M  V30 9197 H 863.712 -1.58566 0.350778 0
M  V30 9198 H 865.709 -3.72767 -1.86682 0
M  V30 9199 H 864.369 -2.55855 -1.99921 0
M  V30 9200 H 865.38 -5.13813 0.649351 0
M  V30 9201 H 862.057 -3.85945 -1.59226 0
M  V30 9202 H 863.447 -6.57039 1.40532 0
M  V30 9203 N 866.167 -0.267825 -1.55308 0
M  V30 9204 C 867.13 0.60965 -2.20943 0
M  V30 9205 C 868.13 1.0869 -1.18504 0
M  V30 9206 O 869.32 0.988248 -1.43455 0
M  V30 9207 C 866.452 1.84027 -2.86961 0
M  V30 9208 H 867.645 0.0366806 -2.99878 0
M  V30 9209 H 865.198 -0.0183941 -1.56289 0
M  V30 9210 H 865.933 2.45394 -2.1202 0
M  V30 9211 H 865.718 1.50605 -3.62023 0
M  V30 9212 H 867.208 2.46442 -3.37129 0
M  V30 9213 N 867.645 1.57599 0.00500368 0
M  V30 9214 C 868.592 2.08106 0.998025 0
M  V30 9215 C 869.562 0.975374 1.34446 0
M  V30 9216 O 870.747 1.24749 1.44369 0
M  V30 9217 C 867.887 2.58496 2.28635 0
M  V30 9218 C 867 3.82947 1.99939 0
M  V30 9219 C 866.135 4.21857 3.22816 0
M  V30 9220 C 865.174 5.39159 2.89783 0
M  V30 9221 N 864.311 5.73386 4.05183 0
M  V30 9222 H 869.151 2.92684 0.560385 0
M  V30 9223 H 866.688 1.44692 0.265053 0
M  V30 9224 H 868.646 2.85787 3.03943 0
M  V30 9225 H 867.276 1.768 2.70077 0
M  V30 9226 H 866.328 3.62594 1.1502 0
M  V30 9227 H 867.64 4.68358 1.71588 0
M  V30 9228 H 866.794 4.50404 4.06474 0
M  V30 9229 H 865.533 3.35145 3.54301 0
M  V30 9230 H 864.538 5.1034 2.04532 0
M  V30 9231 H 865.763 6.27543 2.59551 0
M  V30 9232 H 863.709 4.89632 4.36574 0
M  V30 9233 H 863.626 6.53359 3.80339 0
M  V30 9234 H 864.894 6.06522 4.89644 0
M  V30 9235 N 869.123 -0.277682 1.55134 0
M  V30 9236 C 870.07 -1.34313 1.87693 0
M  V30 9237 C 871.04 -1.49298 0.727973 0
M  V30 9238 O 872.225 -1.6378 0.978807 0
M  V30 9239 C 869.365 -2.69922 2.15026 0
M  V30 9240 C 868.478 -2.63197 3.42565 0
M  V30 9241 C 867.613 -3.90955 3.59622 0
M  V30 9242 C 866.652 -3.78722 4.8087 0
M  V30 9243 N 865.789 -4.98303 4.94609 0
M  V30 9244 H 870.629 -1.05847 2.78569 0
M  V30 9245 H 868.166 -0.511469 1.37922 0
M  V30 9246 H 870.124 -3.48817 2.28872 0
M  V30 9247 H 868.754 -2.966 1.2739 0
M  V30 9248 H 867.806 -1.76038 3.37216 0
M  V30 9249 H 869.118 -2.50056 4.31594 0
M  V30 9250 H 868.272 -4.78291 3.7326 0
M  V30 9251 H 867.011 -4.06957 2.6877 0
M  V30 9252 H 866.016 -2.89769 4.67241 0
M  V30 9253 H 867.241 -3.64242 5.73153 0
M  V30 9254 H 865.187 -5.14725 4.06687 0
M  V30 9255 H 865.104 -4.87675 5.77676 0
M  V30 9256 H 866.372 -5.87225 5.12628 0
M  V30 9257 N 870.601 -1.47988 -0.541979 0
M  V30 9258 C 872.012 -1.49073 -1.12402 0
M  V30 9259 C 872.363 -0.253825 -1.94551 0
M  V30 9260 O 871.488 0.640056 -2.06718 0
M  V30 9261 C 872.083 -2.7011 -2.04514 0
M  V30 9262 C 870.642 -2.74105 -2.5796 0
M  V30 9263 C 869.789 -2.42409 -1.3466 0
M  V30 9264 H 872.74 -1.55277 -0.327818 0
M  V30 9265 H 872.761 -2.47946 -2.88623 0
M  V30 9266 H 872.273 -3.60117 -1.44697 0
M  V30 9267 H 870.374 -1.88276 -3.21532 0
M  V30 9268 H 870.487 -3.75213 -2.97913 0
M  V30 9269 H 868.851 -1.9331 -1.65841 0
M  V30 9270 H 869.634 -3.34642 -0.766133 0
M  V30 9271 N 872.079 0.78992 -1.36375 0
M  V30 9272 C 873.327 1.54472 -1.30319 0
M  V30 9273 C 873.648 1.94647 0.117338 0
M  V30 9274 O 872.918 1.64906 1.05748 0
M  V30 9275 H 871.498 0.572879 -0.479394 0
M  V30 9276 H 874.16 0.941245 -1.70665 0
M  V30 9277 H 873.256 2.45252 -1.93024 0
M  V30 9278 N 873.557 1.20646 1.01402 0
M  V30 9279 C 874.487 0.98155 2.11867 0
M  V30 9280 C 875.468 -0.0903712 1.6986 0
M  V30 9281 O 876.653 0.0676586 1.94082 0
M  V30 9282 C 873.783 0.535636 3.43145 0
M  V30 9283 C 872.737 1.55109 3.98905 0
M  V30 9284 C 872.063 0.961725 5.2598 0
M  V30 9285 C 873.363 2.93552 4.32001 0
M  V30 9286 H 875.057 1.90544 2.3094 0
M  V30 9287 H 872.603 0.917554 1.10982 0
M  V30 9288 H 874.556 0.365512 4.19812 0
M  V30 9289 H 873.28 -0.423882 3.23838 0
M  V30 9290 H 871.939 1.70862 3.24348 0
M  V30 9291 H 871.587 -0.00580108 5.03 0
M  V30 9292 H 871.287 1.63993 5.64252 0
M  V30 9293 H 872.811 0.802726 6.053 0
M  V30 9294 H 874.225 2.81295 4.99546 0
M  V30 9295 H 872.622 3.58303 4.81393 0
M  V30 9296 H 873.692 3.4508 3.40658 0
M  V30 9297 N 875.035 -1.20752 1.01276 0
M  V30 9298 C 875.998 -2.2162 0.584583 0
M  V30 9299 C 876.998 -1.57094 -0.343215 0
M  V30 9300 O 878.188 -1.73696 -0.132433 0
M  V30 9301 C 875.32 -3.40583 -0.146872 0
M  V30 9302 H 876.513 -2.61015 1.47686 0
M  V30 9303 H 874.066 -1.34148 0.802123 0
M  V30 9304 H 874.801 -3.06686 -1.05424 0
M  V30 9305 H 874.586 -3.88642 0.51958 0
M  V30 9306 H 876.076 -4.15339 -0.433924 0
M  V30 9307 N 876.513 -0.788492 -1.36457 0
M  V30 9308 C 877.476 -0.192209 -2.28393 0
M  V30 9309 C 878.476 0.609916 -1.48784 0
M  V30 9310 O 879.666 0.431046 -1.68783 0
M  V30 9311 C 876.798 0.734096 -3.32902 0
M  V30 9312 H 877.991 -1.00284 -2.82636 0
M  V30 9313 H 875.544 -0.557852 -1.46006 0
M  V30 9314 H 876.279 1.5691 -2.83813 0
M  V30 9315 H 876.064 0.160875 -3.9177 0
M  V30 9316 H 877.554 1.1462 -4.01562 0
M  V30 9317 N 877.991 1.48044 -0.54043 0
M  V30 9318 C 878.941 2.26768 0.236657 0
M  V30 9319 C 879.925 1.33341 0.900505 0
M  V30 9320 O 881.117 1.57809 0.801584 0
M  V30 9321 C 878.246 3.18685 1.27651 0
M  V30 9322 C 877.332 4.19589 0.616923 0
M  V30 9323 N 877.723 5.04889 -0.303377 0
M  V30 9324 C 876.021 4.37375 0.872879 0
M  V30 9325 C 876.722 5.77654 -0.684905 0
M  V30 9326 N 875.698 5.43583 -0.0435728 0
M  V30 9327 H 879.5 2.90098 -0.471183 0
M  V30 9328 H 877.014 1.58378 -0.359183 0
M  V30 9329 H 879.011 3.73752 1.84702 0
M  V30 9330 H 877.671 2.56911 1.98562 0
M  V30 9331 H 878.682 5.13461 -0.676591 0
M  V30 9332 H 875.359 3.86784 1.57177 0
M  V30 9333 H 876.749 6.56285 -1.44015 0
M  V30 9334 N 879.47 0.276058 1.55163 0
M  V30 9335 C 880.719 -0.341098 1.98795 0
M  V30 9336 C 881.032 -1.56905 1.16791 0
M  V30 9337 O 882.238 -2.25922 1.50571 0
M  V30 9338 C 880.694 -0.658231 3.5383 0
M  V30 9339 C 880.302 0.549972 4.44611 0
M  V30 9340 C 882.046 -1.23796 4.06048 0
M  V30 9341 C 879.953 0.207373 5.91036 0
M  V30 9342 H 878.883 -0.131224 0.742493 0
M  V30 9343 H 881.534 0.380858 1.79504 0
M  V30 9344 H 879.916 -1.43911 3.68925 0
M  V30 9345 H 881.09 1.32681 4.41285 0
M  V30 9346 H 879.405 1.04661 4.03032 0
M  V30 9347 H 882.002 -1.50811 5.12991 0
M  V30 9348 H 882.345 -2.17214 3.55139 0
M  V30 9349 H 882.878 -0.519345 3.94395 0
M  V30 9350 H 879.617 1.10946 6.46043 0
M  V30 9351 H 879.137 -0.532687 5.9743 0
M  V30 9352 H 880.816 -0.200072 6.46691 0
M  V30 9353 N 880.948 -1.576 0.00335426 0
M  V30 9354 C 881.88 -2.0549 -1.01521 0
M  V30 9355 C 882.893 -0.973441 -1.30491 0
M  V30 9356 O 884.082 -1.25017 -1.27409 0
M  V30 9357 C 881.182 -2.44272 -2.34914 0
M  V30 9358 C 880.355 -3.75191 -2.24835 0
M  V30 9359 C 879.414 -4.00804 -3.40944 0
M  V30 9360 O 878.44 -4.71423 -3.18981 0
M  V30 9361 N 879.642 -3.48961 -4.63904 0
M  V30 9362 H 882.407 -2.93493 -0.60678 0
M  V30 9363 H 879.968 -1.60851 -0.18396 0
M  V30 9364 H 881.96 -2.58518 -3.11369 0
M  V30 9365 H 880.53 -1.6177 -2.67487 0
M  V30 9366 H 879.75 -3.70989 -1.3327 0
M  V30 9367 H 881.038 -4.61013 -2.15277 0
M  V30 9368 H 880.436 -2.9178 -4.84645 0
M  V30 9369 H 878.993 -3.68531 -5.37613 0
M  V30 9370 N 882.426 0.269451 -1.5528 0
M  V30 9371 C 883.654 1.01872 -1.80082 0
M  V30 9372 C 884.069 1.79802 -0.575917 0
M  V30 9373 O 883.426 1.76735 0.455081 0
M  V30 9374 C 883.477 1.9745 -3.02813 0
M  V30 9375 O 883.198 1.22677 -4.20573 0
M  V30 9376 C 884.699 2.8416 -3.40247 0
M  V30 9377 H 881.919 0.300781 -0.59981 0
M  V30 9378 H 884.463 0.29916 -2.023 0
M  V30 9379 H 882.618 2.64864 -2.82712 0
M  V30 9380 H 883.032 1.87129 -4.89982 0
M  V30 9381 H 884.506 3.47014 -4.29284 0
M  V30 9382 H 884.983 3.54113 -2.59809 0
M  V30 9383 H 885.589 2.22232 -3.6262 0
M  V30 9384 N 883.904 1.48273 0.534124 0
M  V30 9385 C 884.854 1.58889 1.63519 0
M  V30 9386 C 885.838 0.44626 1.54588 0
M  V30 9387 O 887.03 0.697474 1.62679 0
M  V30 9388 C 884.159 1.62787 3.0225 0
M  V30 9389 C 883.245 2.82515 3.16301 0
M  V30 9390 N 883.636 4.06977 3.00338 0
M  V30 9391 C 881.934 2.7976 3.47347 0
M  V30 9392 C 882.635 4.87283 3.17694 0
M  V30 9393 N 881.611 4.20024 3.45081 0
M  V30 9394 H 885.413 2.52869 1.49781 0
M  V30 9395 H 882.927 1.44587 0.739479 0
M  V30 9396 H 884.924 1.68486 3.81337 0
M  V30 9397 H 883.584 0.699201 3.17082 0
M  V30 9398 H 884.595 4.37479 2.77186 0
M  V30 9399 H 881.272 1.96132 3.68563 0
M  V30 9400 H 882.662 5.96047 3.10126 0
M  V30 9401 N 885.382 -0.782676 1.36792 0
M  V30 9402 C 886.798 -1.08169 1.17352 0
M  V30 9403 C 886.998 -2.015 0.0022037 0
M  V30 9404 O 886.054 -2.43692 -0.661093 0
M  V30 9405 C 887.367 -1.68969 2.48737 0
M  V30 9406 C 888.915 -1.81278 2.55161 0
M  V30 9407 C 889.39 -2.45492 3.86649 0
M  V30 9408 N 890.881 -2.52954 3.88032 0
M  V30 9409 C 891.616 -3.03465 4.86515 0
M  V30 9410 N 891.112 -3.54232 5.95392 0
M  V30 9411 N 892.905 -3.02239 4.73928 0
M  V30 9412 H 885.056 -0.162757 2.11775 0
M  V30 9413 H 887.319 -0.134823 0.938364 0
M  V30 9414 H 887.025 -1.07859 3.34753 0
M  V30 9415 H 886.899 -2.68397 2.65034 0
M  V30 9416 H 889.286 -2.41524 1.69559 0
M  V30 9417 H 889.367 -0.806367 2.42758 0
M  V30 9418 H 889.011 -1.85889 4.7266 0
M  V30 9419 H 888.941 -3.46718 3.96351 0
M  V30 9420 H 891.432 -2.17014 3.09376 0
M  V30 9421 H 891.745 -3.91145 6.66503 0
M  V30 9422 H 890.09 -3.52366 5.99052 0
M  V30 9423 H 893.281 -2.61871 3.87996 0
M  V30 9424 H 893.454 -3.41295 5.50837 0
M  V30 9425 N 886.86 -1.21182 -1.00761 0
M  V30 9426 C 888.107 -1.02746 -1.74498 0
M  V30 9427 C 888.435 0.439344 -1.89473 0
M  V30 9428 O 887.69 1.34232 -1.42409 0
M  V30 9429 C 887.989 -1.6667 -3.16158 0
M  V30 9430 C 887.655 -3.16515 -3.21137 0
M  V30 9431 C 886.317 -3.57405 -3.22203 0
M  V30 9432 C 888.669 -4.12495 -3.18587 0
M  V30 9433 C 885.997 -4.92786 -3.18401 0
M  V30 9434 C 888.349 -5.47833 -3.16326 0
M  V30 9435 C 887.013 -5.88124 -3.157 0
M  V30 9436 H 886.283 -0.375974 -0.638533 0
M  V30 9437 H 888.93 -1.50736 -1.18114 0
M  V30 9438 H 887.235 -1.10966 -3.75758 0
M  V30 9439 H 888.932 -1.49911 -3.71924 0
M  V30 9440 H 885.522 -2.83947 -3.21048 0
M  V30 9441 H 889.706 -3.81932 -3.16925 0
M  V30 9442 H 884.962 -5.23253 -3.16253 0
M  V30 9443 H 889.136 -6.21942 -3.13306 0
M  V30 9444 H 886.763 -6.92995 -3.12508 0
M  V30 9445 N 888.338 1.20213 -1.01915 0
M  V30 9446 C 889.749 1.7136 -0.741131 0
M  V30 9447 C 890.1 1.81705 0.740107 0
M  V30 9448 O 889.225 1.48139 1.57746 0
M  V30 9449 C 889.82 3.11231 -1.33869 0
M  V30 9450 C 888.379 3.59677 -1.10948 0
M  V30 9451 C 887.526 2.36809 -1.4428 0
M  V30 9452 H 890.477 1.05191 -1.1883 0
M  V30 9453 H 890.498 3.7342 -0.730585 0
M  V30 9454 H 890.01 3.03669 -2.41675 0
M  V30 9455 H 888.111 3.72568 -0.0492052 0
M  V30 9456 H 888.224 4.44351 -1.79134 0
M  V30 9457 H 886.588 2.39674 -0.861881 0
M  V30 9458 H 887.371 2.31886 -2.53148 0
M  V30 9459 N 889.816 0.795718 1.36037 0
M  V30 9460 C 891.093 0.294743 1.93367 0
M  V30 9461 C 891.473 -1.21406 1.72696 0
M  V30 9462 O 890.821 -2.00849 1.08959 0
M  V30 9463 C 891.031 0.694254 3.42025 0
M  V30 9464 C 892.379 0.677566 4.19159 0
M  V30 9465 O 893.403 0.635119 3.50492 0
M  V30 9466 O 892.262 0.726127 5.41655 0
M  V30 9467 H 889.356 0.0745459 0.823633 0
M  V30 9468 H 891.902 0.878685 1.4518 0
M  V30 9469 H 890.674 1.73458 3.50753 0
M  V30 9470 H 890.297 0.0845338 3.9751 0
M  V30 9471 N 891.294 -1.47756 0.548274 0
M  V30 9472 C 892.71 -1.58247 0.207401 0
M  V30 9473 C 892.91 -1.54804 -1.28988 0
M  V30 9474 O 891.966 -1.44673 -2.06944 0
M  V30 9475 C 893.279 -2.89129 0.826142 0
M  V30 9476 C 894.827 -3.02695 0.79655 0
M  V30 9477 C 895.302 -4.36264 1.3942 0
M  V30 9478 N 896.793 -4.42877 1.35698 0
M  V30 9479 C 897.528 -5.44773 1.78913 0
M  V30 9480 N 897.024 -6.53528 2.29942 0
M  V30 9481 N 898.817 -5.35765 1.70038 0
M  V30 9482 H 890.968 -1.48236 1.52117 0
M  V30 9483 H 893.231 -0.704957 0.633829 0
M  V30 9484 H 892.937 -2.97358 1.87806 0
M  V30 9485 H 892.811 -3.75891 0.313916 0
M  V30 9486 H 895.198 -2.94067 -0.246655 0
M  V30 9487 H 895.279 -2.17496 1.34644 0
M  V30 9488 H 894.923 -4.45646 2.43642 0
M  V30 9489 H 894.853 -5.20179 0.819827 0
M  V30 9490 H 897.344 -3.64874 0.983623 0
M  V30 9491 H 897.657 -7.27441 2.60863 0
M  V30 9492 H 896.002 -6.54442 2.33947 0
M  V30 9493 H 899.193 -4.49699 1.29955 0
M  V30 9494 H 899.366 -6.1504 2.04035 0
M  V30 9495 N 892.772 -0.284283 -1.55015 0
M  V30 9496 C 894.021 0.33055 -1.98973 0
M  V30 9497 C 894.334 1.56284 -1.17621 0
M  V30 9498 O 895.54 2.2512 -1.51767 0
M  V30 9499 C 893.996 0.639457 -3.54174 0
M  V30 9500 C 893.604 -0.573543 -4.44313 0
M  V30 9501 C 895.348 1.21641 -4.06699 0
M  V30 9502 C 893.255 -0.238715 -5.90918 0
M  V30 9503 H 892.185 0.127285 -0.743179 0
M  V30 9504 H 894.836 -0.390372 -1.793 0
M  V30 9505 H 893.218 1.41953 -3.69683 0
M  V30 9506 H 894.392 -1.3502 -4.40575 0
M  V30 9507 H 892.707 -1.06797 -4.02472 0
M  V30 9508 H 895.304 1.48088 -5.13784 0
M  V30 9509 H 895.647 2.15328 -3.56286 0
M  V30 9510 H 896.18 0.498422 -3.94665 0
M  V30 9511 H 892.919 -1.1437 -6.45445 0
M  V30 9512 H 892.439 0.500997 -5.97704 0
M  V30 9513 H 894.118 0.165774 -6.46788 0
M  V30 9514 N 894.251 1.57596 -0.0117121 0
M  V30 9515 C 895.181 2.12188 0.9746 0
M  V30 9516 C 896.162 1.03379 1.35081 0
M  V30 9517 O 897.347 1.31123 1.4325 0
M  V30 9518 C 894.477 2.63477 2.26268 0
M  V30 9519 C 893.431 3.76917 2.02774 0
M  V30 9520 C 892.757 4.14566 3.37697 0
M  V30 9521 C 894.057 5.03715 1.38089 0
M  V30 9522 H 895.751 2.9485 0.520007 0
M  V30 9523 H 893.297 1.41836 0.248685 0
M  V30 9524 H 895.25 3.00299 2.95633 0
M  V30 9525 H 893.974 1.77953 2.73862 0
M  V30 9526 H 892.633 3.40507 1.35832 0
M  V30 9527 H 892.281 3.26048 3.83016 0
M  V30 9528 H 891.981 4.91 3.22789 0
M  V30 9529 H 893.505 4.53956 4.08358 0
M  V30 9530 H 894.919 5.38233 1.97428 0
M  V30 9531 H 893.316 5.85032 1.33634 0
M  V30 9532 H 894.386 4.83624 0.351575 0
M  V30 9533 N 895.729 -0.261212 1.5542 0
M  V30 9534 C 897.14 -0.83138 1.67167 0
M  V30 9535 C 897.491 -1.8659 0.606525 0
M  V30 9536 O 896.616 -2.14953 -0.24985 0
M  V30 9537 C 897.211 -1.51475 3.03052 0
M  V30 9538 C 895.77 -2.0328 3.16787 0
M  V30 9539 C 894.917 -0.878903 2.63003 0
M  V30 9540 H 897.868 -0.0373102 1.58656 0
M  V30 9541 H 897.889 -2.38222 2.96699 0
M  V30 9542 H 897.401 -0.76157 3.80554 0
M  V30 9543 H 895.502 -2.81523 2.44082 0
M  V30 9544 H 895.615 -2.24001 4.2351 0
M  V30 9545 H 893.979 -1.27551 2.2046 0
M  V30 9546 H 894.762 -0.13904 3.43018 0
M  V30 9547 N 897.207 -1.48554 -0.526253 0
M  V30 9548 C 898.623 -1.34757 -0.855138 0
M  V30 9549 C 898.823 -0.36142 -1.98232 0
M  V30 9550 O 897.879 0.216026 -2.51574 0
M  V30 9551 C 899.192 -2.74877 -1.21915 0
M  V30 9552 C 900.74 -2.83393 -1.32882 0
M  V30 9553 C 901.215 -4.24223 -1.72624 0
M  V30 9554 N 902.706 -4.26913 -1.7972 0
M  V30 9555 C 903.441 -5.32824 -2.11863 0
M  V30 9556 N 902.937 -6.49008 -2.42405 0
M  V30 9557 N 904.73 -5.20221 -2.12901 0
M  V30 9558 H 896.881 -2.11284 0.217422 0
M  V30 9559 H 899.144 -0.947367 0.0346362 0
M  V30 9560 H 898.85 -3.48619 -0.464486 0
M  V30 9561 H 898.724 -3.0864 -2.16844 0
M  V30 9562 H 901.111 -2.09904 -2.07424 0
M  V30 9563 H 901.192 -2.53245 -0.360638 0
M  V30 9564 H 900.836 -4.98229 -0.986411 0
M  V30 9565 H 900.766 -4.51817 -2.70498 0
M  V30 9566 H 903.257 -3.4311 -1.58379 0
M  V30 9567 H 903.57 -7.25561 -2.66048 0
M  V30 9568 H 901.915 -6.52277 -2.39917 0
M  V30 9569 H 905.106 -4.28469 -1.885 0
M  V30 9570 H 905.279 -6.02861 -2.37619 0
M  V30 9571 N 898.685 0.775411 -1.37205 0
M  V30 9572 C 899.632 1.88857 -1.32671 0
M  V30 9573 C 900.602 1.64976 -0.192899 0
M  V30 9574 O 901.787 1.86944 -0.381673 0
M  V30 9575 C 898.927 3.25871 -1.13588 0
M  V30 9576 C 898.04 3.61731 -2.36167 0
M  V30 9577 C 897.175 4.87934 -2.09985 0
M  V30 9578 C 896.214 5.16514 -3.2845 0
M  V30 9579 N 895.351 6.33905 -3.01842 0
M  V30 9580 H 900.191 1.92068 -2.27846 0
M  V30 9581 H 897.728 0.939066 -1.13225 0
M  V30 9582 H 899.686 4.04903 -1.00546 0
M  V30 9583 H 898.316 3.22045 -0.220613 0
M  V30 9584 H 897.368 2.77712 -2.59962 0
M  V30 9585 H 898.68 3.78792 -3.24528 0
M  V30 9586 H 897.834 5.74863 -1.93953 0
M  V30 9587 H 896.573 4.7297 -1.18956 0
M  V30 9588 H 895.578 4.28063 -3.45025 0
M  V30 9589 H 896.803 5.33389 -4.20325 0
M  V30 9590 H 894.749 6.20306 -2.13439 0
M  V30 9591 H 894.666 6.51364 -3.83746 0
M  V30 9592 H 895.934 7.23779 -2.8942 0
M  V30 9593 N 900.163 1.21714 1.00117 0
M  V30 9594 C 901.41 1.0367 1.73951 0
M  V30 9595 C 901.738 -0.429289 1.89703 0
M  V30 9596 O 900.993 -1.33475 1.43119 0
M  V30 9597 C 901.292 1.68345 3.15269 0
M  V30 9598 C 900.958 3.18214 3.19454 0
M  V30 9599 C 899.62 3.59109 3.20303 0
M  V30 9600 C 901.972 4.14179 3.16394 0
M  V30 9601 C 899.3 4.94467 3.15783 0
M  V30 9602 C 901.652 5.49502 3.13416 0
M  V30 9603 C 900.316 5.8979 3.12577 0
M  V30 9604 H 899.586 0.379355 0.63653 0
M  V30 9605 H 902.233 1.51361 1.17312 0
M  V30 9606 H 900.538 1.12957 3.75164 0
M  V30 9607 H 902.235 1.51882 3.71124 0
M  V30 9608 H 898.825 2.85646 3.19538 0
M  V30 9609 H 903.009 3.83607 3.14895 0
M  V30 9610 H 898.265 5.24923 3.13473 0
M  V30 9611 H 902.439 6.23595 3.10003 0
M  V30 9612 H 900.066 6.94643 3.08829 0
M  V30 9613 N 901.641 -1.19671 1.02551 0
M  V30 9614 C 902.604 -2.20987 0.608055 0
M  V30 9615 C 903.604 -1.5745 -0.326534 0
M  V30 9616 O 904.794 -1.73827 -0.114003 0
M  V30 9617 C 901.926 -3.4072 -0.11074 0
M  V30 9618 H 903.119 -2.59434 1.50446 0
M  V30 9619 H 900.672 -1.3329 0.816307 0
M  V30 9620 H 901.407 -3.07787 -1.02165 0
M  V30 9621 H 901.192 -3.88069 0.560772 0
M  V30 9622 H 902.682 -4.15776 -0.389848 0
M  V30 9623 N 903.119 -0.802921 -1.35613 0
M  V30 9624 C 904.049 -0.225131 -2.32412 0
M  V30 9625 C 905.03 0.647383 -1.57299 0
M  V30 9626 O 906.215 0.578414 -1.85386 0
M  V30 9627 C 903.345 0.630085 -3.41537 0
M  V30 9628 C 902.299 -0.143635 -4.27759 0
M  V30 9629 C 901.625 0.833046 -5.28171 0
M  V30 9630 C 902.925 -1.34054 -5.04804 0
M  V30 9631 H 904.619 -1.03385 -2.80984 0
M  V30 9632 H 902.165 -0.498593 -1.35093 0
M  V30 9633 H 904.118 1.04433 -4.08254 0
M  V30 9634 H 902.842 1.47165 -2.91565 0
M  V30 9635 H 901.501 -0.539015 -3.62616 0
M  V30 9636 H 901.149 1.67001 -4.74468 0
M  V30 9637 H 900.849 0.319697 -5.8673 0
M  V30 9638 H 902.373 1.24558 -5.97761 0
M  V30 9639 H 903.787 -1.00136 -5.64487 0
M  V30 9640 H 902.184 -1.78812 -5.72841 0
M  V30 9641 H 903.254 -2.12906 -4.35659 0
M  V30 9642 N 904.597 1.47463 -0.556102 0
M  V30 9643 C 905.825 2.06868 -0.0364585 0
M  V30 9644 C 906.24 1.40893 1.25677 0
M  V30 9645 O 905.597 0.505083 1.75371 0
M  V30 9646 C 905.648 3.61128 0.163984 0
M  V30 9647 O 905.369 4.24629 -1.07803 0
M  V30 9648 C 906.87 4.37397 0.721036 0
M  V30 9649 H 904.09 0.669466 -0.0453399 0
M  V30 9650 H 906.634 1.89482 -0.769198 0
M  V30 9651 H 904.789 3.78031 0.84685 0
M  V30 9652 H 905.203 5.17149 -0.875067 0
M  V30 9653 H 906.677 5.46016 0.810584 0
M  V30 9654 H 907.154 4.03604 1.73206 0
M  V30 9655 H 907.76 4.25236 0.073904 0
M  V30 9656 N 906.075 0.2925 1.54862 0
M  V30 9657 C 907.303 -0.322113 2.04377 0
M  V30 9658 C 907.718 -1.48164 1.17016 0
M  V30 9659 O 907.075 -1.81466 0.19395 0
M  V30 9660 C 907.126 -0.786506 3.5284 0
M  V30 9661 O 906.847 0.326863 4.36879 0
M  V30 9662 C 908.348 -1.46715 4.18318 0
M  V30 9663 H 905.568 -0.0712074 0.667211 0
M  V30 9664 H 908.112 0.429657 1.99935 0
M  V30 9665 H 906.267 -1.48832 3.5767 0
M  V30 9666 H 906.681 -0.0331558 5.2449 0
M  V30 9667 H 908.155 -1.74333 5.23748 0
M  V30 9668 H 908.632 -2.40443 3.67538 0
M  V30 9669 H 909.238 -0.808735 4.1754 0
M  V30 9670 N 907.553 -1.57587 0.0200696 0
M  V30 9671 C 908.5 -2.09667 -0.964791 0
M  V30 9672 C 909.47 -0.99664 -1.32877 0
M  V30 9673 O 910.655 -1.2703 -1.42366 0
M  V30 9674 C 907.795 -2.62101 -2.24493 0
M  V30 9675 C 906.908 -3.8608 -1.93821 0
M  V30 9676 C 906.043 -4.26939 -3.16064 0
M  V30 9677 C 905.082 -5.43701 -2.81169 0
M  V30 9678 N 904.219 -5.79759 -3.9601 0
M  V30 9679 H 909.059 -2.93538 -0.513751 0
M  V30 9680 H 906.596 -1.45096 -0.242 0
M  V30 9681 H 908.554 -2.90587 -2.99358 0
M  V30 9682 H 907.184 -1.81074 -2.6723 0
M  V30 9683 H 906.236 -3.64378 -1.09237 0
M  V30 9684 H 907.548 -4.71028 -1.64115 0
M  V30 9685 H 906.702 -4.56814 -3.99257 0
M  V30 9686 H 905.441 -3.40739 -3.48924 0
M  V30 9687 H 904.446 -5.13529 -1.96387 0
M  V30 9688 H 905.671 -6.31593 -2.49535 0
M  V30 9689 H 903.617 -4.96516 -4.28729 0
M  V30 9690 H 903.534 -6.59327 -3.69896 0
M  V30 9691 H 904.802 -6.14235 -4.79933 0
M  V30 9692 N 909.032 0.252966 -1.55557 0
M  V30 9693 C 910.281 0.979736 -1.76307 0
M  V30 9694 C 910.594 1.86714 -0.582871 0
M  V30 9695 O 911.8 2.6302 -0.673247 0
M  V30 9696 C 910.256 1.79205 -3.12112 0
M  V30 9697 C 909.864 0.952333 -4.37761 0
M  V30 9698 C 911.608 2.51191 -3.42203 0
M  V30 9699 C 909.515 1.76018 -5.64599 0
M  V30 9700 H 908.445 0.369538 -0.657235 0
M  V30 9701 H 911.096 0.234619 -1.81994 0
M  V30 9702 H 909.478 2.57888 -3.00515 0
M  V30 9703 H 910.652 0.208251 -4.60329 0
M  V30 9704 H 908.967 0.346082 -4.14959 0
M  V30 9705 H 911.564 3.12074 -4.34182 0
M  V30 9706 H 911.907 3.22499 -2.63249 0
M  V30 9707 H 912.44 1.79523 -3.54988 0
M  V30 9708 H 909.179 1.09095 -6.46358 0
M  V30 9709 H 908.699 2.4797 -5.46142 0
M  V30 9710 H 910.378 2.32884 -6.03634 0
M  V30 9711 N 910.51 1.48831 0.518367 0
M  V30 9712 C 911.921 1.50842 1.10016 0
M  V30 9713 C 912.272 0.284744 1.94123 0
M  V30 9714 O 911.397 -0.607088 2.0771 0
M  V30 9715 C 911.992 2.73329 2.00191 0
M  V30 9716 C 910.551 2.78175 2.53566 0
M  V30 9717 C 909.698 2.4452 1.30786 0
M  V30 9718 H 912.649 1.55779 0.303073 0
M  V30 9719 H 912.67 2.52506 2.84642 0
M  V30 9720 H 912.182 3.62374 1.3895 0
M  V30 9721 H 910.283 1.93368 3.18496 0
M  V30 9722 H 910.396 3.79905 2.91906 0
M  V30 9723 H 908.76 1.95924 1.62744 0
M  V30 9724 H 909.543 3.35819 0.712797 0
M  V30 9725 N 911.988 -0.768124 1.37614 0
M  V30 9726 C 913.265 -1.51637 1.23554 0
M  V30 9727 C 913.645 -2.1042 -0.169331 0
M  V30 9728 O 912.993 -1.95834 -1.17735 0
M  V30 9729 C 913.203 -2.59436 2.33439 0
M  V30 9730 C 914.551 -3.2674 2.71157 0
M  V30 9731 O 915.575 -2.69733 2.32642 0
M  V30 9732 O 914.434 -4.29814 3.37524 0
M  V30 9733 H 911.528 -0.671778 0.482332 0
M  V30 9734 H 914.074 -0.804779 1.49403 0
M  V30 9735 H 912.846 -2.14146 3.27502 0
M  V30 9736 H 912.469 -3.38192 2.09073 0
M  V30 9737 N 913.466 -1.22244 -0.994698 0
M  V30 9738 C 914.694 -1.07218 -1.76952 0
M  V30 9739 C 915.109 0.377388 -1.8499 0
M  V30 9740 O 914.466 1.26157 -1.31874 0
M  V30 9741 C 914.517 -1.67496 -3.20355 0
M  V30 9742 O 914.238 -3.06782 -3.12756 0
M  V30 9743 C 915.739 -1.57721 -4.14294 0
M  V30 9744 H 912.959 -0.375966 -0.555779 0
M  V30 9745 H 915.503 -1.61799 -1.25065 0
M  V30 9746 H 913.658 -1.16982 -3.69315 0
M  V30 9747 H 914.072 -3.35784 -4.02926 0
M  V30 9748 H 915.546 -2.04623 -5.12673 0
M  V30 9749 H 916.023 -0.533434 -4.35949 0
M  V30 9750 H 916.629 -2.07531 -3.71229 0
M  V30 9751 N 914.944 1.19125 -1.03184 0
M  V30 9752 C 915.891 2.2245 -0.6152 0
M  V30 9753 C 916.861 1.61869 0.372502 0
M  V30 9754 O 918.046 1.88901 0.268491 0
M  V30 9755 C 915.186 3.45091 0.0248027 0
M  V30 9756 C 914.299 4.20044 -1.0093 0
M  V30 9757 C 913.434 5.30119 -0.338744 0
M  V30 9758 C 912.473 5.96833 -1.35855 0
M  V30 9759 N 911.61 6.98464 -0.713594 0
M  V30 9760 H 916.45 2.57445 -1.50086 0
M  V30 9761 H 913.987 1.26485 -0.751005 0
M  V30 9762 H 915.945 4.15149 0.413131 0
M  V30 9763 H 914.575 3.10742 0.874028 0
M  V30 9764 H 913.627 3.48901 -1.51566 0
M  V30 9765 H 914.939 4.65796 -1.78425 0
M  V30 9766 H 914.093 6.0661 0.104269 0
M  V30 9767 H 912.832 4.85446 0.468382 0
M  V30 9768 H 911.837 5.1909 -1.81179 0
M  V30 9769 H 913.062 6.4359 -2.16722 0
M  V30 9770 H 911.008 6.55959 0.0733863 0
M  V30 9771 H 910.925 7.42422 -1.42638 0
M  V30 9772 H 912.193 7.78943 -0.294681 0
M  V30 9773 N 916.422 0.810101 1.35185 0
M  V30 9774 C 917.67 0.391343 1.98275 0
M  V30 9775 C 917.991 -1.04592 1.64577 0
M  V30 9776 O 917.261 -1.72417 0.93001 0
M  V30 9777 H 915.841 0.141715 0.733434 0
M  V30 9778 H 918.503 1.03672 1.6504 0
M  V30 9779 H 917.599 0.49991 3.0807 0
M  V30 9780 N 917.9 -1.47166 0.563914 0
M  V30 9781 C 919.14 -2.04351 0.0448121 0
M  V30 9782 C 919.504 -1.42808 -1.28336 0
M  V30 9783 O 920.705 -1.91079 -1.89056 0
M  V30 9784 C 918.976 -3.57378 -0.0395795 0
M  V30 9785 S 920.535 -4.35898 -0.503833 0
M  V30 9786 H 917.353 -0.710433 0.0283795 0
M  V30 9787 H 919.955 -1.80451 0.752166 0
M  V30 9788 H 918.659 -3.99693 0.931326 0
M  V30 9789 H 918.19 -3.85785 -0.770282 0
M  V30 9790 H 920.205 -4.63852 -1.76225 0
M  V30 9791 N 919.378 -0.300708 -1.54705 0
M  V30 9792 C 920.328 0.590589 -2.20218 0
M  V30 9793 C 921.312 1.09913 -1.17507 0
M  V30 9794 O 922.504 1.03995 -1.43227 0
M  V30 9795 C 919.633 1.76214 -2.94625 0
M  V30 9796 C 918.719 1.26957 -4.04651 0
M  V30 9797 N 919.11 0.494982 -5.03372 0
M  V30 9798 C 917.408 1.55033 -4.18188 0
M  V30 9799 C 918.109 0.232724 -5.81234 0
M  V30 9800 N 917.085 0.812443 -5.37494 0
M  V30 9801 H 920.887 -0.00876354 -2.93899 0
M  V30 9802 H 918.401 -0.105456 -1.62057 0
M  V30 9803 H 920.398 2.41221 -3.40027 0
M  V30 9804 H 919.058 2.36519 -2.22461 0
M  V30 9805 H 920.069 0.13991 -5.17711 0
M  V30 9806 H 916.746 2.16089 -3.57228 0
M  V30 9807 H 918.136 -0.389362 -6.70771 0
M  V30 9808 N 920.856 1.57574 -0.0284266 0
M  V30 9809 C 921.803 2.10176 0.953658 0
M  V30 9810 C 922.773 1.00367 1.32347 0
M  V30 9811 O 923.958 1.27783 1.4169 0
M  V30 9812 C 921.098 2.63287 2.231 0
M  V30 9813 C 920.211 3.87102 1.91771 0
M  V30 9814 C 919.346 4.28609 3.13795 0
M  V30 9815 C 918.385 5.45184 2.78282 0
M  V30 9816 N 917.522 5.81851 3.92929 0
M  V30 9817 H 922.362 2.93806 0.498176 0
M  V30 9818 H 919.899 1.45222 0.234302 0
M  V30 9819 H 921.857 2.9217 2.97813 0
M  V30 9820 H 920.487 1.82489 2.66266 0
M  V30 9821 H 919.539 3.64952 1.07303 0
M  V30 9822 H 920.851 4.71892 1.61615 0
M  V30 9823 H 920.005 4.58925 3.96829 0
M  V30 9824 H 918.744 3.42585 3.47112 0
M  V30 9825 H 917.749 5.14563 1.93661 0
M  V30 9826 H 918.974 6.32907 2.46182 0
M  V30 9827 H 916.92 4.98782 4.2609 0
M  V30 9828 H 916.837 6.6128 3.66395 0
M  V30 9829 H 918.105 6.16772 4.76669 0
M  V30 9830 N 922.334 -0.244713 1.55689 0
M  V30 9831 C 923.574 -0.979776 1.79387 0
M  V30 9832 C 923.938 -1.8244 0.598298 0
M  V30 9833 O 925.139 -2.59141 0.7141 0
M  V30 9834 C 923.41 -1.81573 3.07841 0
M  V30 9835 S 924.969 -2.60959 3.52769 0
M  V30 9836 H 921.787 -0.329526 0.630027 0
M  V30 9837 H 924.389 -0.247435 1.93928 0
M  V30 9838 H 923.093 -1.18497 3.92921 0
M  V30 9839 H 922.624 -2.59078 2.96044 0
M  V30 9840 H 924.639 -3.83987 3.14275 0
M  V30 9841 N 923.813 -1.49104 -0.510467 0
M  V30 9842 C 925.053 -1.59723 -1.27545 0
M  V30 9843 C 925.417 -0.273525 -1.90042 0
M  V30 9844 O 926.618 -0.254835 -2.67589 0
M  V30 9845 C 924.889 -2.71771 -2.3211 0
M  V30 9846 S 926.448 -3.02282 -3.18074 0
M  V30 9847 H 923.266 -0.563489 -0.433591 0
M  V30 9848 H 925.868 -1.86719 -0.579328 0
M  V30 9849 H 924.572 -3.66483 -1.84711 0
M  V30 9850 H 924.103 -2.46739 -3.06404 0
M  V30 9851 H 926.118 -2.43076 -4.32583 0
M  V30 9852 N 925.291 0.760815 -1.38019 0
M  V30 9853 C 926.54 1.51506 -1.3315 0
M  V30 9854 C 926.853 1.95444 0.0782124 0
M  V30 9855 O 928.059 2.70352 0.249418 0
M  V30 9856 C 926.515 2.73636 -2.33776 0
M  V30 9857 C 926.123 2.36753 -3.80332 0
M  V30 9858 C 927.867 3.51548 -2.37937 0
M  V30 9859 C 925.774 3.55451 -4.72661 0
M  V30 9860 H 924.704 0.568844 -0.494907 0
M  V30 9861 H 927.355 0.832343 -1.63537 0
M  V30 9862 H 925.737 3.43852 -1.96422 0
M  V30 9863 H 926.911 1.7425 -4.26584 0
M  V30 9864 H 925.226 1.71991 -3.7922 0
M  V30 9865 H 927.823 4.39791 -3.04119 0
M  V30 9866 H 928.166 3.9219 -1.39617 0
M  V30 9867 H 928.699 2.88339 -2.74054 0
M  V30 9868 H 925.438 3.19882 -5.7215 0
M  V30 9869 H 924.958 4.17022 -4.31107 0
M  V30 9870 H 926.637 4.22125 -4.90326 0
M  V30 9871 N 926.769 1.22769 0.988202 0
M  V30 9872 C 928.015 1.05665 1.73097 0
M  V30 9873 C 928.348 -0.406615 1.89895 0
M  V30 9874 O 927.623 -1.30132 1.44554 0
M  V30 9875 C 927.906 1.77381 3.13382 0
M  V30 9876 C 927.759 3.31332 3.04203 0
M  V30 9877 C 929.078 1.52999 4.12649 0
M  V30 9878 H 926.197 0.385258 0.628288 0
M  V30 9879 H 928.839 1.51171 1.15097 0
M  V30 9880 H 926.989 1.38696 3.62899 0
M  V30 9881 H 928.661 3.79489 2.6227 0
M  V30 9882 H 926.904 3.60767 2.40894 0
M  V30 9883 H 927.575 3.76692 4.03493 0
M  V30 9884 H 930.051 1.86611 3.71908 0
M  V30 9885 H 928.927 2.05666 5.08913 0
M  V30 9886 H 929.188 0.463615 4.39662 0
M  V30 9887 N 928.247 -1.18576 1.03814 0
M  V30 9888 C 929.663 -1.4051 0.756909 0
M  V30 9889 C 929.863 -1.9057 -0.654631 0
M  V30 9890 O 928.919 -2.0884 -1.41922 0
M  V30 9891 C 930.232 -2.4081 1.80087 0
M  V30 9892 C 931.78 -2.54541 1.82148 0
M  V30 9893 C 932.255 -3.58102 2.85529 0
M  V30 9894 N 933.746 -3.65607 2.84404 0
M  V30 9895 C 934.481 -4.45458 3.61047 0
M  V30 9896 N 933.977 -5.28937 4.47434 0
M  V30 9897 N 935.77 -4.40196 3.49548 0
M  V30 9898 H 927.921 -0.844075 1.94908 0
M  V30 9899 H 930.184 -0.433287 0.843188 0
M  V30 9900 H 929.89 -2.1107 2.81322 0
M  V30 9901 H 929.764 -3.4012 1.63089 0
M  V30 9902 H 932.151 -2.83598 0.815855 0
M  V30 9903 H 932.232 -1.55352 2.03223 0
M  V30 9904 H 931.876 -3.29786 3.86269 0
M  V30 9905 H 931.806 -4.56963 2.6171 0
M  V30 9906 H 934.297 -3.05994 2.21756 0
M  V30 9907 H 934.61 -5.8701 5.02632 0
M  V30 9908 H 932.955 -5.28366 4.51503 0
M  V30 9909 H 936.146 -3.74026 2.81464 0
M  V30 9910 H 936.319 -5.02186 4.09528 0
M  V30 9911 N 929.725 -0.817259 -1.34754 0
M  V30 9912 C 930.673 -0.223352 -2.31525 0
M  V30 9913 C 931.667 0.632785 -1.57137 0
M  V30 9914 O 932.873 0.524757 -1.72181 0
M  V30 9915 H 929.248 -0.0534765 -0.750096 0
M  V30 9916 H 931.219 -1.05446 -2.79148 0
M  V30 9917 C 929.968 0.604784 -3.424 0
M  V30 9918 H 929.291 -0.0446664 -3.99775 0
M  V30 9919 H 930.731 0.986543 -4.12363 0
M  V30 9920 C 929.19 1.77478 -2.86362 0
M  V30 9921 O 929.72 2.87273 -2.8078 0
M  V30 9922 N 927.926 1.58971 -2.43263 0
M  V30 9923 H 927.473 0.696598 -2.48003 0
M  V30 9924 H 927.431 2.37408 -2.06119 0
M  V30 9925 N 931.203 1.46865 -0.571711 0
M  V30 9926 C 932.614 1.86158 -0.142181 0
M  V30 9927 C 932.965 1.47663 1.2919 0
M  V30 9928 O 932.09 0.886393 1.97413 0
M  V30 9929 C 932.685 3.37867 -0.251256 0
M  V30 9930 C 931.244 3.76198 0.123329 0
M  V30 9931 C 930.391 2.70902 -0.592232 0
M  V30 9932 H 933.342 1.38176 -0.780587 0
M  V30 9933 H 933.363 3.76842 0.526331 0
M  V30 9934 H 932.875 3.65853 -1.2951 0
M  V30 9935 H 930.976 3.53829 1.16773 0
M  V30 9936 H 931.089 4.78471 -0.24533 0
M  V30 9937 H 929.453 2.54678 -0.0336927 0
M  V30 9938 H 930.236 3.01729 -1.63751 0
M  V30 9939 N 932.681 0.308908 1.54543 0
M  V30 9940 C 933.911 -0.299983 2.04411 0
M  V30 9941 C 934.319 -1.47463 1.18538 0
M  V30 9942 O 933.662 -1.82547 0.205463 0
M  V30 9943 C 933.724 -0.811579 3.50219 0
M  V30 9944 C 933.388 0.238834 4.56375 0
M  V30 9945 C 934.385 1.06997 5.08771 0
M  V30 9946 C 932.07 0.382808 5.00839 0
M  V30 9947 C 934.064 2.03096 6.04178 0
M  V30 9948 C 931.751 1.34723 5.96065 0
M  V30 9949 C 932.749 2.16978 6.47618 0
M  V30 9950 O 932.437 3.11783 7.40977 0
M  V30 9951 H 932.169 -0.0679682 0.672574 0
M  V30 9952 H 934.723 0.448815 2.00437 0
M  V30 9953 H 932.953 -1.61104 3.51543 0
M  V30 9954 H 934.642 -1.33721 3.83241 0
M  V30 9955 H 935.408 0.969654 4.75208 0
M  V30 9956 H 931.287 -0.247507 4.60335 0
M  V30 9957 H 934.831 2.67338 6.44342 0
M  V30 9958 H 930.728 1.44824 6.29044 0
M  V30 9959 H 931.496 3.06853 7.58804 0
M  V30 9960 N 934.159 -1.57557 0.0367827 0
M  V30 9961 C 935.387 -1.96419 -0.650168 0
M  V30 9962 C 935.802 -0.913656 -1.6522 0
M  V30 9963 O 935.159 0.103718 -1.82205 0
M  V30 9964 C 935.21 -3.35355 -1.3498 0
M  V30 9965 O 934.931 -4.36379 -0.387905 0
M  V30 9966 C 936.432 -3.88892 -2.12786 0
M  V30 9967 H 933.652 -0.646751 -0.178756 0
M  V30 9968 H 936.196 -2.04261 0.0988197 0
M  V30 9969 H 934.351 -3.28708 -2.05012 0
M  V30 9970 H 934.765 -5.16969 -0.885596 0
M  V30 9971 H 936.239 -4.88428 -2.5718 0
M  V30 9972 H 936.716 -3.23547 -2.97008 0
M  V30 9973 H 937.322 -3.98831 -1.47694 0
M  V30 9974 N 935.637 0.236453 -1.55816 0
M  V30 9975 C 936.885 0.96111 -1.77784 0
M  V30 9976 C 937.206 1.85454 -0.602648 0
M  V30 9977 O 936.476 1.92157 0.381137 0
M  V30 9978 H 935.056 0.35787 -0.655697 0
M  V30 9979 H 937.718 0.251888 -1.93265 0
M  V30 9980 H 936.814 1.5767 -2.69345 0
M  V30 9981 N 937.115 1.49373 0.502552 0
M  V30 9982 C 938.065 1.62321 1.60112 0
M  V30 9983 C 939.049 0.47895 1.53606 0
M  V30 9984 O 940.241 0.731824 1.61162 0
M  V30 9985 C 937.37 1.69162 2.98729 0
M  V30 9986 C 936.456 2.89161 3.10237 0
M  V30 9987 N 936.847 4.13256 2.91638 0
M  V30 9988 C 935.145 2.87065 3.41335 0
M  V30 9989 C 935.846 4.93913 3.07287 0
M  V30 9990 N 934.822 4.27249 3.36094 0
M  V30 9991 H 938.624 2.55989 1.44384 0
M  V30 9992 H 936.138 1.46123 0.708644 0
M  V30 9993 H 938.135 1.76536 3.77678 0
M  V30 9994 H 936.795 0.766301 3.15528 0
M  V30 9995 H 937.806 4.4326 2.67844 0
M  V30 9996 H 934.483 2.03905 3.6432 0
M  V30 9997 H 935.873 6.02491 2.97413 0
M  V30 9998 N 938.594 -0.753485 1.38421 0
M  V30 9999 C 939.541 -1.86723 1.35659 0
M  V30 10000 C 940.511 -1.64648 0.219121 0
M  V30 10001 O 941.696 -1.86313 0.411366 0
M  V30 10002 C 938.836 -3.24023 1.18758 0
M  V30 10003 C 937.949 -3.57928 2.41892 0
M  V30 10004 C 937.084 -4.84532 2.17721 0
M  V30 10005 C 936.123 -5.11224 3.36626 0
M  V30 10006 N 935.26 -6.29023 3.11889 0
M  V30 10007 H 940.1 -1.88419 2.30873 0
M  V30 10008 H 937.637 -0.920934 1.14705 0
M  V30 10009 H 939.595 -4.03252 1.06974 0
M  V30 10010 H 938.225 -3.21654 0.27182 0
M  V30 10011 H 937.277 -2.73541 2.64347 0
M  V30 10012 H 938.589 -3.73581 3.30513 0
M  V30 10013 H 937.743 -5.71704 2.03074 0
M  V30 10014 H 936.482 -4.71018 1.26465 0
M  V30 10015 H 935.487 -4.2252 3.51791 0
M  V30 10016 H 936.712 -5.26635 4.28757 0
M  V30 10017 H 934.658 -6.16832 2.2328 0
M  V30 10018 H 934.575 -6.45177 3.9406 0
M  V30 10019 H 935.843 -7.19083 3.00898 0
M  V30 10020 N 940.072 -1.23292 -0.981677 0
M  V30 10021 C 941.302 -1.0893 -1.7555 0
M  V30 10022 C 941.71 0.362219 -1.857 0
M  V30 10023 O 941.053 1.2624 -1.33451 0
M  V30 10024 C 941.115 -1.6389 -3.19969 0
M  V30 10025 C 940.779 -3.12632 -3.33332 0
M  V30 10026 C 941.776 -4.0994 -3.19758 0
M  V30 10027 C 939.461 -3.52314 -3.58022 0
M  V30 10028 C 941.455 -5.44915 -3.30676 0
M  V30 10029 C 939.142 -4.87434 -3.6858 0
M  V30 10030 C 940.14 -5.83544 -3.54916 0
M  V30 10031 O 939.828 -7.16209 -3.65102 0
M  V30 10032 H 939.56 -0.381901 -0.557788 0
M  V30 10033 H 942.114 -1.63586 -1.24213 0
M  V30 10034 H 940.344 -1.03653 -3.72549 0
M  V30 10035 H 942.033 -1.45023 -3.79108 0
M  V30 10036 H 942.799 -3.80625 -3.00582 0
M  V30 10037 H 938.678 -2.78022 -3.67729 0
M  V30 10038 H 942.222 -6.19913 -3.19928 0
M  V30 10039 H 938.119 -5.16426 -3.87265 0
M  V30 10040 H 938.887 -7.23941 -3.81905 0
M  V30 10041 N 941.55 1.18024 -1.04442 0
M  V30 10042 C 942.48 2.23988 -0.659683 0
M  V30 10043 C 943.461 1.6669 0.338904 0
M  V30 10044 O 944.646 1.92971 0.21817 0
M  V30 10045 C 941.776 3.4729 -0.0257672 0
M  V30 10046 C 940.73 4.17362 -0.948299 0
M  V30 10047 C 940.056 5.34401 -0.17866 0
M  V30 10048 C 941.356 4.70435 -2.26909 0
M  V30 10049 H 943.05 2.56425 -1.54553 0
M  V30 10050 H 940.596 1.23256 -0.744575 0
M  V30 10051 H 942.549 4.20627 0.255131 0
M  V30 10052 H 941.273 3.14098 0.894981 0
M  V30 10053 H 939.932 3.45928 -1.21364 0
M  V30 10054 H 939.58 4.97458 0.744614 0
M  V30 10055 H 939.28 5.8222 -0.793294 0
M  V30 10056 H 940.804 6.10526 0.0951315 0
M  V30 10057 H 942.218 5.35447 -2.04864 0
M  V30 10058 H 940.615 5.28803 -2.83703 0
M  V30 10059 H 941.685 3.87653 -2.91296 0
M  V30 10060 N 943.028 0.824394 1.34319 0
M  V30 10061 C 944.268 0.419044 2.00058 0
M  V30 10062 C 944.632 -0.999504 1.63933 0
M  V30 10063 O 945.833 -1.50781 2.22527 0
M  V30 10064 C 944.104 0.616897 3.52036 0
M  V30 10065 S 945.663 0.304614 4.37741 0
M  V30 10066 H 942.481 0.158265 0.693162 0
M  V30 10067 H 945.083 1.07053 1.63585 0
M  V30 10068 H 943.787 1.64896 3.75816 0
M  V30 10069 H 943.318 -0.0492693 3.93369 0
M  V30 10070 H 945.333 -0.88114 4.88314 0
M  V30 10071 N 944.506 -1.46559 0.579492 0
M  V30 10072 C 945.754 -2.02 0.0637157 0
M  V30 10073 C 946.075 -1.45378 -1.29962 0
M  V30 10074 O 945.345 -0.637262 -1.85245 0
M  V30 10075 H 943.925 -0.746717 0.0205638 0
M  V30 10076 H 946.587 -1.79702 0.754544 0
M  V30 10077 H 945.683 -3.12099 -0.00770254 0
M  V30 10078 N 945.984 -0.3171 -1.54377 0
M  V30 10079 C 946.947 0.53905 -2.22771 0
M  V30 10080 C 947.947 1.04865 -1.21901 0
M  V30 10081 O 949.137 0.942108 -1.46526 0
M  V30 10082 C 946.269 1.74804 -2.92671 0
M  V30 10083 H 947.462 -0.0587417 -2.99842 0
M  V30 10084 H 945.015 -0.068107 -1.56152 0
M  V30 10085 H 945.75 2.38524 -2.1972 0
M  V30 10086 H 945.535 1.39011 -3.66631 0
M  V30 10087 H 947.025 2.35592 -3.44799 0
M  V30 10088 N 947.462 1.57535 -0.0451378 0
M  V30 10089 C 948.392 2.14208 0.929372 0
M  V30 10090 C 949.373 1.06221 1.32858 0
M  V30 10091 O 950.558 1.34132 1.40436 0
M  V30 10092 C 947.688 2.68217 2.20629 0
M  V30 10093 C 946.642 3.81134 1.94734 0
M  V30 10094 C 945.968 4.21636 3.28828 0
M  V30 10095 C 947.268 5.06531 1.27374 0
M  V30 10096 H 948.962 2.95886 0.457348 0
M  V30 10097 H 946.508 1.42332 0.218544 0
M  V30 10098 H 948.461 3.06502 2.89196 0
M  V30 10099 H 947.185 1.83722 2.70026 0
M  V30 10100 H 945.844 3.43312 1.28579 0
M  V30 10101 H 945.492 3.34099 3.76014 0
M  V30 10102 H 945.192 4.97736 3.12302 0
M  V30 10103 H 946.716 4.62516 3.98637 0
M  V30 10104 H 948.13 5.423 1.85967 0
M  V30 10105 H 946.527 5.87735 1.21194 0
M  V30 10106 H 947.597 4.84261 0.248913 0
M  V30 10107 N 948.94 -0.228186 1.55939 0
M  V30 10108 C 949.872 -1.30605 1.88348 0
M  V30 10109 C 950.885 -1.43375 0.771198 0
M  V30 10110 O 952.074 -1.44391 1.04945 0
M  V30 10111 C 949.174 -2.68248 2.07115 0
M  V30 10112 C 948.347 -2.77509 3.38094 0
M  V30 10113 C 947.406 -3.96121 3.46373 0
M  V30 10114 O 946.432 -3.8477 4.19453 0
M  V30 10115 N 947.634 -5.10132 2.77031 0
M  V30 10116 H 950.399 -1.03132 2.81396 0
M  V30 10117 H 947.96 -0.418245 1.56404 0
M  V30 10118 H 949.952 -3.45966 2.09976 0
M  V30 10119 H 948.522 -2.88348 1.20723 0
M  V30 10120 H 947.742 -1.8632 3.47388 0
M  V30 10121 H 949.03 -2.80662 4.2439 0
M  V30 10122 H 948.428 -5.22249 2.17424 0
M  V30 10123 H 946.985 -5.85916 2.85561 0
M  V30 10124 N 950.418 -1.49637 -0.494624 0
M  V30 10125 C 951.643 -1.63431 -1.27691 0
M  V30 10126 C 952.068 -0.30813 -1.85559 0
M  V30 10127 O 951.426 0.725083 -1.66169 0
M  V30 10128 C 951.474 -2.71043 -2.3784 0
M  V30 10129 O 950.578 -2.3066 -3.41862 0
M  V30 10130 H 949.919 -0.546804 -0.376698 0
M  V30 10131 H 952.449 -1.95866 -0.591413 0
M  V30 10132 H 952.459 -2.93406 -2.83508 0
M  V30 10133 H 951.134 -3.67306 -1.95088 0
M  V30 10134 H 949.711 -2.18652 -3.02069 0
M  V30 10135 N 951.896 0.746133 -1.38819 0
M  V30 10136 C 953.144 1.50247 -1.35167 0
M  V30 10137 C 953.465 1.94921 0.0553531 0
M  V30 10138 O 952.735 1.68187 1.00449 0
M  V30 10139 H 951.315 0.557337 -0.497377 0
M  V30 10140 H 953.977 0.886472 -1.73573 0
M  V30 10141 H 953.073 2.38986 -2.00728 0
M  V30 10142 N 953.375 1.23811 0.975125 0
M  V30 10143 C 954.624 1.06741 1.71141 0
M  V30 10144 C 954.937 -0.394986 1.9157 0
M  V30 10145 O 956.143 -0.685723 2.62698 0
M  V30 10146 C 954.599 1.86168 3.08009 0
M  V30 10147 C 954.207 3.36771 2.95448 0
M  V30 10148 C 955.951 1.77604 3.85561 0
M  V30 10149 C 953.858 4.0857 4.2758 0
M  V30 10150 H 952.788 0.395819 0.64175 0
M  V30 10151 H 955.439 1.47825 1.0872 0
M  V30 10152 H 953.821 1.37893 3.71216 0
M  V30 10153 H 954.995 3.92571 2.41298 0
M  V30 10154 H 953.31 3.46205 2.31368 0
M  V30 10155 H 955.907 2.28556 4.83391 0
M  V30 10156 H 956.25 0.739837 4.09673 0
M  V30 10157 H 956.783 2.23519 3.29065 0
M  V30 10158 H 953.522 5.12518 4.08663 0
M  V30 10159 H 953.042 3.57556 4.81574 0
M  V30 10160 H 954.721 4.15157 4.9624 0
M  V30 10161 N 954.853 -1.17469 1.05066 0
M  V30 10162 C 956.099 -1.87976 0.761113 0
M  V30 10163 C 956.432 -1.80756 -0.709995 0
M  V30 10164 O 955.707 -1.21469 -1.51906 0
M  V30 10165 C 955.99 -3.38055 1.2406 0
M  V30 10166 C 955.843 -3.54032 2.77455 0
M  V30 10167 C 957.162 -4.32036 0.838612 0
M  V30 10168 H 954.281 -0.682573 0.277963 0
M  V30 10169 H 956.923 -1.38147 1.30443 0
M  V30 10170 H 955.073 -3.80622 0.778388 0
M  V30 10171 H 956.745 -3.20489 3.3179 0
M  V30 10172 H 954.988 -2.96352 3.16793 0
M  V30 10173 H 955.659 -4.59377 3.06066 0
M  V30 10174 H 958.135 -3.97303 1.23651 0
M  V30 10175 H 957.011 -5.35583 1.20173 0
M  V30 10176 H 957.272 -4.41349 -0.257498 0
M  V30 10177 N 956.331 -0.831506 -1.3388 0
M  V30 10178 C 957.261 -0.274378 -2.31882 0
M  V30 10179 C 958.242 0.613872 -1.58637 0
M  V30 10180 O 959.427 0.538961 -1.86571 0
M  V30 10181 C 956.557 0.557498 -3.42796 0
M  V30 10182 C 955.511 -0.234337 -4.27358 0
M  V30 10183 C 954.837 0.720825 -5.29819 0
M  V30 10184 C 956.137 -1.44732 -5.01847 0
M  V30 10185 H 957.831 -1.09322 -2.78728 0
M  V30 10186 H 955.377 -0.527136 -1.34005 0
M  V30 10187 H 957.33 0.957501 -4.10378 0
M  V30 10188 H 956.054 1.40947 -2.94621 0
M  V30 10189 H 954.713 -0.61581 -3.61391 0
M  V30 10190 H 954.361 1.569 -4.77903 0
M  V30 10191 H 954.061 0.195171 -5.87276 0
M  V30 10192 H 955.585 1.1185 -6.00268 0
M  V30 10193 H 956.999 -1.12087 -5.62236 0
M  V30 10194 H 955.396 -1.90923 -5.68919 0
M  V30 10195 H 956.466 -2.22099 -4.31045 0
M  V30 10196 N 957.809 1.4625 -0.587256 0
M  V30 10197 C 958.739 2.33132 0.131076 0
M  V30 10198 C 959.72 1.45619 0.879158 0
M  V30 10199 O 960.905 1.74428 0.853723 0
M  V30 10200 C 958.035 3.27975 1.14236 0
M  V30 10201 C 956.989 4.24965 0.508819 0
M  V30 10202 C 956.315 5.09349 1.62689 0
M  V30 10203 C 957.615 5.19322 -0.55694 0
M  V30 10204 H 959.309 2.93442 -0.594333 0
M  V30 10205 H 956.855 1.41106 -0.287263 0
M  V30 10206 H 958.808 3.87614 1.65328 0
M  V30 10207 H 957.532 2.65781 1.8981 0
M  V30 10208 H 956.191 3.66595 0.0189337 0
M  V30 10209 H 955.839 4.43537 2.37242 0
M  V30 10210 H 955.539 5.75036 1.20861 0
M  V30 10211 H 957.063 5.71852 2.14049 0
M  V30 10212 H 958.477 5.73151 -0.130903 0
M  V30 10213 H 956.874 5.93376 -0.895801 0
M  V30 10214 H 957.944 4.62979 -1.44148 0
M  V30 10215 N 959.287 0.325282 1.54207 0
M  V30 10216 C 960.219 -0.57395 2.21897 0
M  V30 10217 C 961.232 -1.0785 1.21952 0
M  V30 10218 O 962.421 -0.991782 1.48411 0
M  V30 10219 C 959.521 -1.8005 2.87115 0
M  V30 10220 C 958.694 -1.43435 4.13213 0
M  V30 10221 C 957.753 -2.51862 4.62009 0
M  V30 10222 O 956.779 -2.15934 5.26651 0
M  V30 10223 N 957.981 -3.8282 4.36382 0
M  V30 10224 H 960.746 0.00566918 2.99699 0
M  V30 10225 H 958.307 0.148563 1.61217 0
M  V30 10226 H 960.299 -2.51981 3.16682 0
M  V30 10227 H 958.869 -2.28792 2.13009 0
M  V30 10228 H 958.089 -0.546598 3.90392 0
M  V30 10229 H 959.377 -1.16544 4.95273 0
M  V30 10230 H 958.775 -4.14807 3.84645 0
M  V30 10231 H 957.332 -4.50976 4.70599 0
M  V30 10232 N 960.765 -1.57509 0.0534917 0
M  V30 10233 C 962.011 -1.93887 -0.614776 0
M  V30 10234 C 962.366 -0.932098 -1.68314 0
M  V30 10235 O 961.659 0.0483848 -1.91539 0
M  V30 10236 C 961.853 -3.34734 -1.25251 0
M  V30 10237 C 961.682 -4.49019 -0.247444 0
M  V30 10238 C 960.452 -5.05042 0.161406 0
M  V30 10239 C 962.65 -5.11784 0.508059 0
M  V30 10240 N 960.632 -6.02858 1.15909 0
M  V30 10241 C 962.003 -6.04928 1.35876 0
M  V30 10242 C 964.058 -4.94671 0.56612 0
M  V30 10243 C 962.761 -6.82797 2.26232 0
M  V30 10244 C 964.787 -5.73168 1.45712 0
M  V30 10245 C 964.149 -6.65946 2.29554 0
M  V30 10246 H 960.248 -0.756899 -0.196538 0
M  V30 10247 H 962.832 -1.94289 0.126365 0
M  V30 10248 H 961.003 -3.35104 -1.96367 0
M  V30 10249 H 962.735 -3.58395 -1.87977 0
M  V30 10250 H 959.49 -4.73098 -0.218025 0
M  V30 10251 H 959.914 -6.56462 1.6549 0
M  V30 10252 H 964.556 -4.22746 -0.0678652 0
M  V30 10253 H 962.274 -7.54012 2.90675 0
M  V30 10254 H 965.86 -5.61953 1.50664 0
M  V30 10255 H 964.74 -7.25627 2.97381 0
M  V30 10256 N 962.243 0.219913 -1.56058 0
M  V30 10257 C 963.473 0.959521 -1.82967 0
M  V30 10258 C 963.881 1.78382 -0.630602 0
M  V30 10259 O 963.224 1.79062 0.410203 0
M  V30 10260 C 963.286 1.92481 -3.0363 0
M  V30 10261 C 962.95 1.28487 -4.38566 0
M  V30 10262 C 963.947 0.673946 -5.15513 0
M  V30 10263 C 961.632 1.29615 -4.85289 0
M  V30 10264 C 963.626 0.0828324 -6.37346 0
M  V30 10265 C 961.313 0.701191 -6.07064 0
M  V30 10266 C 962.311 0.0955877 -6.82933 0
M  V30 10267 O 961.999 -0.490109 -8.02405 0
M  V30 10268 H 961.731 0.286709 -0.612188 0
M  V30 10269 H 964.285 0.239761 -2.03996 0
M  V30 10270 H 962.515 2.6836 -2.78424 0
M  V30 10271 H 964.204 2.5301 -3.17397 0
M  V30 10272 H 964.97 0.657548 -4.80522 0
M  V30 10273 H 960.849 1.75691 -4.26208 0
M  V30 10274 H 964.393 -0.390482 -6.96506 0
M  V30 10275 H 960.29 0.715007 -6.41528 0
M  V30 10276 H 961.058 -0.384588 -8.17596 0
M  V30 10277 N 963.721 1.49897 0.486681 0
M  V30 10278 C 964.631 1.70379 1.6127 0
M  V30 10279 C 965.647 0.58659 1.63814 0
M  V30 10280 O 966.823 0.863044 1.81971 0
M  V30 10281 C 963.888 1.77911 2.97571 0
M  V30 10282 C 962.949 3.01569 3.0554 0
M  V30 10283 C 962.182 3.08732 4.35339 0
M  V30 10284 O 962.405 2.23099 5.2496 0
M  V30 10285 O 961.339 4.01325 4.48578 0
M  V30 10286 H 965.165 2.65799 1.46916 0
M  V30 10287 H 962.75 1.33808 0.664516 0
M  V30 10288 H 964.632 1.85135 3.78554 0
M  V30 10289 H 963.307 0.856722 3.12157 0
M  V30 10290 H 962.214 2.99854 2.23693 0
M  V30 10291 H 963.547 3.93335 2.95886 0
M  V30 10292 N 965.199 -0.738761 1.39212 0
M  V30 10293 C 966.61 -1.31684 1.32348 0
M  V30 10294 C 966.961 -1.96195 -0.0139041 0
M  V30 10295 O 966.086 -1.96056 -0.916025 0
M  V30 10296 C 966.681 -2.39444 2.39691 0
M  V30 10297 C 965.24 -2.92935 2.36359 0
M  V30 10298 C 964.387 -1.66465 2.21776 0
M  V30 10299 H 967.338 -0.536543 1.49355 0
M  V30 10300 H 967.359 -3.19744 2.06262 0
M  V30 10301 H 966.871 -1.92463 3.37016 0
M  V30 10302 H 964.972 -3.44207 1.42662 0
M  V30 10303 H 965.085 -3.46306 3.31073 0
M  V30 10304 H 963.449 -1.90657 1.68884 0
M  V30 10305 H 964.232 -1.21541 3.21065 0
M  V30 10306 N 966.677 -1.24326 -0.968545 0
M  V30 10307 C 967.61 -0.978121 -2.06175 0
M  V30 10308 C 968.588 0.0878107 -1.62363 0
M  V30 10309 O 969.772 -0.0489472 -1.88436 0
M  V30 10310 C 966.899 -0.475884 -3.3534 0
M  V30 10311 C 965.945 -1.53023 -3.98103 0
M  V30 10312 S 966.778 -3.11131 -4.35841 0
M  V30 10313 C 967.934 -2.62608 -5.68144 0
M  V30 10314 H 968.167 -1.9038 -2.28348 0
M  V30 10315 H 965.7 -1.07701 -1.10633 0
M  V30 10316 H 967.658 -0.192739 -4.10047 0
M  V30 10317 H 966.319 0.429067 -3.11156 0
M  V30 10318 H 965.512 -1.12922 -4.91187 0
M  V30 10319 H 965.114 -1.76334 -3.29822 0
M  V30 10320 H 967.406 -2.05367 -6.45624 0
M  V30 10321 H 968.349 -3.54277 -6.13101 0
M  V30 10322 H 968.757 -2.03063 -5.26712 0
M  V30 10323 N 968.156 1.1691 -1.05688 0
M  V30 10324 C 969.088 2.20648 -0.620237 0
M  V30 10325 C 970.101 1.59652 0.318604 0
M  V30 10326 O 971.29 1.78157 0.110553 0
M  V30 10327 C 968.39 3.38716 0.111729 0
M  V30 10328 C 967.563 4.29277 -0.839062 0
M  V30 10329 C 966.622 5.25993 -0.147453 0
M  V30 10330 O 965.648 5.63787 -0.783151 0
M  V30 10331 N 966.85 5.69725 1.11327 0
M  V30 10332 H 969.615 2.58731 -1.51256 0
M  V30 10333 H 967.176 1.31858 -0.939412 0
M  V30 10334 H 969.168 4.00455 0.584657 0
M  V30 10335 H 967.738 2.99189 0.905784 0
M  V30 10336 H 966.958 3.64894 -1.4915 0
M  V30 10337 H 968.246 4.86669 -1.48428 0
M  V30 10338 H 967.644 5.41103 1.64999 0
M  V30 10339 H 966.201 6.33584 1.53018 0
M  V30 10340 N 969.634 0.838594 1.33437 0
M  V30 10341 C 970.581 0.269609 2.2922 0
M  V30 10342 C 971.551 -0.614429 1.54318 0
M  V30 10343 O 972.736 -0.552756 1.82618 0
M  V30 10344 C 969.876 -0.549527 3.40697 0
M  V30 10345 C 968.989 0.358502 4.3051 0
M  V30 10346 C 968.124 -0.471709 5.29101 0
M  V30 10347 C 967.163 0.434728 6.10554 0
M  V30 10348 N 966.3 -0.357339 7.0119 0
M  V30 10349 H 971.14 1.09172 2.77282 0
M  V30 10350 H 968.677 0.549832 1.36438 0
M  V30 10351 H 970.635 -1.03992 4.04032 0
M  V30 10352 H 969.265 -1.33661 2.93828 0
M  V30 10353 H 968.317 0.967204 3.67899 0
M  V30 10354 H 969.629 1.05483 4.87519 0
M  V30 10355 H 968.783 -1.02594 5.97963 0
M  V30 10356 H 967.522 -1.20147 4.72669 0
M  V30 10357 H 966.527 1.00097 5.40611 0
M  V30 10358 H 967.752 1.16285 6.6907 0
M  V30 10359 H 965.698 -1.07049 6.47207 0
M  V30 10360 H 965.615 0.280277 7.5548 0
M  V30 10361 H 966.883 -0.893814 7.74359 0
M  V30 10362 N 971.112 -1.45937 0.595003 0
M  V30 10363 C 972.359 -2.0232 0.0853053 0
M  V30 10364 C 972.687 -1.465 -1.27937 0
M  V30 10365 O 971.942 -0.624767 -1.85459 0
M  V30 10366 C 972.241 -3.57396 -0.0173747 0
M  V30 10367 C 971.907 -4.32311 1.28131 0
M  V30 10368 C 970.569 -4.52496 1.63708 0
M  V30 10369 C 972.921 -4.75233 2.14017 0
M  V30 10370 C 970.249 -5.12857 2.84947 0
M  V30 10371 C 972.601 -5.36933 3.34493 0
M  V30 10372 C 971.265 -5.55343 3.70338 0
M  V30 10373 H 970.535 -0.740342 0.0312154 0
M  V30 10374 H 973.182 -1.75157 0.774103 0
M  V30 10375 H 971.487 -3.83766 -0.789371 0
M  V30 10376 H 973.184 -3.98713 -0.427699 0
M  V30 10377 H 969.774 -4.16905 0.994374 0
M  V30 10378 H 973.958 -4.59383 1.87833 0
M  V30 10379 H 969.214 -5.253 3.12841 0
M  V30 10380 H 973.388 -5.69147 4.01304 0
M  V30 10381 H 971.015 -6.01883 4.64371 0
M  V30 10382 N 972.59 -0.333456 -1.54032 0
M  V30 10383 C 973.523 0.570776 -2.20947 0
M  V30 10384 C 974.501 1.10811 -1.18994 0
M  V30 10385 O 975.685 1.17027 -1.47773 0
M  V30 10386 C 972.812 1.7842 -2.87896 0
M  V30 10387 C 971.858 1.37722 -4.03652 0
M  V30 10388 S 972.691 0.405548 -5.33962 0
M  V30 10389 C 973.847 1.62603 -6.0441 0
M  V30 10390 H 974.08 0.0023936 -2.973 0
M  V30 10391 H 971.613 -0.117531 -1.53952 0
M  V30 10392 H 973.571 2.48038 -3.27089 0
M  V30 10393 H 972.232 2.32378 -2.11327 0
M  V30 10394 H 971.425 2.28167 -4.49395 0
M  V30 10395 H 971.027 0.760628 -3.66184 0
M  V30 10396 H 973.319 2.56202 -6.2719 0
M  V30 10397 H 974.262 1.21058 -6.97675 0
M  V30 10398 H 974.67 1.8175 -5.34441 0
M  V30 10399 N 974.068 1.57479 -0.061844 0
M  V30 10400 C 974.998 2.15181 0.9066 0
M  V30 10401 C 975.979 1.07624 1.31724 0
M  V30 10402 O 977.164 1.35614 1.39006 0
M  V30 10403 C 974.294 2.70542 2.17771 0
M  V30 10404 C 973.248 3.83178 1.9068 0
M  V30 10405 C 972.574 4.25099 3.24337 0
M  V30 10406 C 973.874 5.07853 1.21994 0
M  V30 10407 H 975.568 2.96355 0.42594 0
M  V30 10408 H 973.114 1.42556 0.203435 0
M  V30 10409 H 975.067 3.09552 2.85929 0
M  V30 10410 H 973.791 1.86575 2.68062 0
M  V30 10411 H 972.45 3.44656 1.24931 0
M  V30 10412 H 972.098 3.38069 3.72449 0
M  V30 10413 H 971.798 5.01021 3.07005 0
M  V30 10414 H 973.322 4.66718 3.93709 0
M  V30 10415 H 974.736 5.44242 1.80204 0
M  V30 10416 H 973.133 5.88987 1.14954 0
M  V30 10417 H 974.203 4.84497 0.197536 0
M  V30 10418 N 975.546 -0.211634 1.56173 0
M  V30 10419 C 976.795 -0.932647 1.78842 0
M  V30 10420 C 977.108 -1.85103 0.63217 0
M  V30 10421 O 978.314 -2.61143 0.742746 0
M  V30 10422 C 976.77 -1.70866 3.16753 0
M  V30 10423 C 976.378 -0.835934 4.40132 0
M  V30 10424 C 978.122 -2.4203 3.48743 0
M  V30 10425 C 976.029 -1.60987 5.69067 0
M  V30 10426 H 974.959 -0.351983 0.666801 0
M  V30 10427 H 977.61 -0.186284 1.82552 0
M  V30 10428 H 975.992 -2.4983 3.07247 0
M  V30 10429 H 977.166 -0.0861298 4.60719 0
M  V30 10430 H 975.481 -0.235941 4.15731 0
M  V30 10431 H 978.078 -3.00453 4.42303 0
M  V30 10432 H 978.421 -3.15406 2.71707 0
M  V30 10433 H 978.954 -1.70048 3.59623 0
M  V30 10434 H 975.693 -0.9192 6.49023 0
M  V30 10435 H 975.213 -2.33403 5.52524 0
M  V30 10436 H 976.892 -2.16798 6.09596 0
M  V30 10437 N 977.024 -1.50153 -0.478725 0
M  V30 10438 C 977.971 -1.68458 -1.57767 0
M  V30 10439 C 978.941 -0.5259 -1.57555 0
M  V30 10440 O 980.126 -0.755574 -1.75202 0
M  V30 10441 C 977.266 -1.77772 -2.95789 0
M  V30 10442 C 976.379 -3.05092 -3.05848 0
M  V30 10443 C 975.514 -3.05247 -4.34739 0
M  V30 10444 C 974.553 -4.27053 -4.38512 0
M  V30 10445 N 973.69 -4.24991 -5.58862 0
M  V30 10446 H 978.53 -2.62282 -1.41464 0
M  V30 10447 H 976.067 -1.30023 -0.687921 0
M  V30 10448 H 978.025 -1.81152 -3.75819 0
M  V30 10449 H 976.655 -0.873944 -3.10744 0
M  V30 10450 H 975.707 -3.11219 -2.1874 0
M  V30 10451 H 977.019 -3.95075 -3.04495 0
M  V30 10452 H 976.173 -3.07314 -5.23109 0
M  V30 10453 H 974.912 -2.13081 -4.38689 0
M  V30 10454 H 973.917 -4.25206 -3.4854 0
M  V30 10455 H 975.142 -5.20437 -4.36259 0
M  V30 10456 H 973.088 -3.35674 -5.63612 0
M  V30 10457 H 973.005 -5.08734 -5.59219 0
M  V30 10458 H 974.273 -4.31193 -6.49379 0
M  V30 10459 N 978.502 0.731368 -1.39602 0
M  V30 10460 C 979.452 1.83662 -1.35101 0
M  V30 10461 C 980.436 1.5923 -0.231241 0
M  V30 10462 O 981.628 1.70671 -0.469072 0
M  V30 10463 C 978.757 3.21629 -1.20041 0
M  V30 10464 C 977.843 3.51878 -2.36733 0
M  V30 10465 N 978.234 3.53041 -3.6221 0
M  V30 10466 C 976.532 3.82259 -2.2977 0
M  V30 10467 C 977.233 3.81188 -4.39398 0
M  V30 10468 N 976.209 3.99145 -3.69031 0
M  V30 10469 H 980.011 1.82871 -2.30077 0
M  V30 10470 H 977.525 0.929777 -1.3315 0
M  V30 10471 H 979.522 4.00754 -1.14899 0
M  V30 10472 H 978.182 3.23656 -0.260184 0
M  V30 10473 H 979.193 3.34266 -3.95584 0
M  V30 10474 H 975.87 3.9187 -1.44029 0
M  V30 10475 H 977.26 3.88525 -5.48177 0
M  V30 10476 N 979.98 1.24838 0.961938 0
M  V30 10477 C 981.227 1.09151 1.70564 0
M  V30 10478 C 981.555 -0.368719 1.90973 0
M  V30 10479 O 980.81 -1.28854 1.47293 0
M  V30 10480 C 981.109 1.78289 3.09754 0
M  V30 10481 C 980.775 3.28216 3.09169 0
M  V30 10482 C 979.437 3.69118 3.08716 0
M  V30 10483 C 981.789 4.24035 3.03058 0
M  V30 10484 C 979.117 5.04263 2.99892 0
M  V30 10485 C 981.469 5.59195 2.95776 0
M  V30 10486 C 980.133 5.99436 2.93655 0
M  V30 10487 H 979.403 0.399414 0.624139 0
M  V30 10488 H 982.05 1.55016 1.12438 0
M  V30 10489 H 980.355 1.24835 3.7138 0
M  V30 10490 H 982.052 1.63612 3.66104 0
M  V30 10491 H 978.642 2.95667 3.10289 0
M  V30 10492 H 982.826 3.93431 3.02532 0
M  V30 10493 H 978.082 5.3463 2.96615 0
M  V30 10494 H 982.256 6.33142 2.90007 0
M  V30 10495 H 979.883 7.04116 2.86573 0
M  V30 10496 N 981.458 -1.16348 1.06306 0
M  V30 10497 C 982.735 -1.829 0.69331 0
M  V30 10498 C 983.115 -1.94298 -0.82531 0
M  V30 10499 O 982.463 -1.48619 -1.73565 0
M  V30 10500 C 982.673 -3.1989 1.3954 0
M  V30 10501 C 984.021 -3.95662 1.54068 0
M  V30 10502 O 985.045 -3.29408 1.35532 0
M  V30 10503 O 983.904 -5.14422 1.84479 0
M  V30 10504 H 980.998 -0.789738 0.245445 0
M  V30 10505 H 983.544 -1.23549 1.16334 0
M  V30 10506 H 982.316 -3.06629 2.43093 0
M  V30 10507 H 981.939 -3.86918 0.915453 0
M  V30 10508 N 982.937 -0.845659 -1.3299 0
M  V30 10509 C 984.184 -0.444653 -1.97558 0
M  V30 10510 C 984.512 0.997682 -1.66963 0
M  V30 10511 O 983.767 1.71349 -0.94541 0
M  V30 10512 C 984.066 -0.6201 -3.51979 0
M  V30 10513 C 983.732 -2.03155 -4.02541 0
M  V30 10514 C 982.394 -2.4176 -4.16059 0
M  V30 10515 C 984.746 -2.95317 -4.29462 0
M  V30 10516 C 982.074 -3.71818 -4.53837 0
M  V30 10517 C 984.426 -4.24863 -4.68694 0
M  V30 10518 C 983.09 -4.63416 -4.80419 0
M  V30 10519 H 982.36 -0.16271 -0.722915 0
M  V30 10520 H 985.007 -1.07399 -1.58549 0
M  V30 10521 H 983.312 0.092513 -3.91691 0
M  V30 10522 H 985.009 -0.290012 -3.9995 0
M  V30 10523 H 981.599 -1.72174 -3.92497 0
M  V30 10524 H 985.783 -2.66726 -4.18534 0
M  V30 10525 H 981.039 -4.01484 -4.61108 0
M  V30 10526 H 985.213 -4.96347 -4.8848 0
M  V30 10527 H 982.84 -5.6424 -5.09448 0
M  V30 10528 N 984.415 1.45619 -0.602734 0
M  V30 10529 C 985.826 1.85814 -0.181636 0
M  V30 10530 C 986.177 1.5037 1.26029 0
M  V30 10531 O 985.302 0.928068 1.95489 0
M  V30 10532 C 985.897 3.37258 -0.322866 0
M  V30 10533 C 984.456 3.76375 0.043504 0
M  V30 10534 C 983.603 2.69585 -0.649561 0
M  V30 10535 H 986.554 1.36489 -0.809721 0
M  V30 10536 H 986.575 3.77874 0.446279 0
M  V30 10537 H 986.087 3.63024 -1.37241 0
M  V30 10538 H 984.188 3.56226 1.09241 0
M  V30 10539 H 984.301 4.77843 -0.346765 0
M  V30 10540 H 982.665 2.54549 -0.087706 0
M  V30 10541 H 983.448 2.98188 -1.70115 0
M  V30 10542 N 985.893 0.34162 1.53853 0
M  V30 10543 C 986.823 -0.508431 2.27897 0
M  V30 10544 C 987.804 -1.10425 1.29384 0
M  V30 10545 O 988.989 -1.126 1.58224 0
M  V30 10546 C 986.119 -1.66048 3.05034 0
M  V30 10547 C 985.073 -1.19309 4.11035 0
M  V30 10548 C 984.399 -2.4335 4.76114 0
M  V30 10549 C 985.699 -0.294952 5.21467 0
M  V30 10550 H 987.393 0.109251 2.99201 0
M  V30 10551 H 984.939 0.0539847 1.43899 0
M  V30 10552 H 986.892 -2.26158 3.5557 0
M  V30 10553 H 985.616 -2.30503 2.31379 0
M  V30 10554 H 984.275 -0.614809 3.61408 0
M  V30 10555 H 983.923 -3.06208 3.99056 0
M  V30 10556 H 983.623 -2.1276 5.47729 0
M  V30 10557 H 985.147 -3.0419 5.29434 0
M  V30 10558 H 986.561 -0.80285 5.67651 0
M  V30 10559 H 984.958 -0.0810221 6.00045 0
M  V30 10560 H 986.028 0.669433 4.80257 0
M  V30 10561 N 987.371 -1.57444 0.0701946 0
M  V30 10562 C 988.782 -1.80875 -0.462709 0
M  V30 10563 C 989.133 -0.983975 -1.69742 0
M  V30 10564 O 988.258 -0.206027 -2.15417 0
M  V30 10565 C 988.853 -3.28062 -0.84623 0
M  V30 10566 C 987.412 -3.52345 -1.32401 0
M  V30 10567 C 986.559 -2.7558 -0.308399 0
M  V30 10568 H 989.51 -1.55917 0.295907 0
M  V30 10569 H 989.531 -3.40023 -1.70776 0
M  V30 10570 H 989.043 -3.88064 0.0526033 0
M  V30 10571 H 987.144 -2.97645 -2.24139 0
M  V30 10572 H 987.257 -4.6104 -1.30304 0
M  V30 10573 H 985.621 -2.4229 -0.785337 0
M  V30 10574 H 986.404 -3.38319 0.582679 0
M  V30 10575 N 988.849 0.203349 -1.56283 0
M  V30 10576 C 990.074 0.945548 -1.84592 0
M  V30 10577 C 990.499 1.7641 -0.652772 0
M  V30 10578 O 989.857 1.76867 0.398468 0
M  V30 10579 C 989.905 1.82416 -3.11057 0
M  V30 10580 O 989.009 2.92191 -2.9103 0
M  V30 10581 H 988.35 0.266739 -0.608068 0
M  V30 10582 H 990.88 0.211158 -2.03507 0
M  V30 10583 H 990.89 2.23044 -3.41636 0
M  V30 10584 H 989.565 1.22267 -3.97522 0
M  V30 10585 H 988.142 2.55378 -2.71728 0
M  V30 10586 N 990.327 1.50405 0.470755 0
M  V30 10587 C 991.738 1.54266 1.05162 0
M  V30 10588 C 992.089 0.346359 1.93119 0
M  V30 10589 O 991.214 -0.540699 2.09536 0
M  V30 10590 C 991.809 2.7956 1.91394 0
M  V30 10591 C 990.368 2.86101 2.44588 0
M  V30 10592 C 989.515 2.48557 1.22941 0
M  V30 10593 H 992.466 1.56665 0.253359 0
M  V30 10594 H 992.487 2.61434 2.76464 0
M  V30 10595 H 991.999 3.66611 1.27351 0
M  V30 10596 H 990.1 2.03403 3.12183 0
M  V30 10597 H 990.213 3.88999 2.79672 0
M  V30 10598 H 988.577 2.01003 1.56429 0
M  V30 10599 H 989.36 3.37916 0.605598 0
M  V30 10600 N 991.805 -0.723954 1.39988 0
M  V30 10601 C 992.735 -1.85103 1.42335 0
M  V30 10602 C 993.716 -1.6769 0.285297 0
M  V30 10603 O 994.901 -1.87846 0.492716 0
M  V30 10604 C 992.031 -3.22972 1.27697 0
M  V30 10605 C 990.985 -3.55041 2.39018 0
M  V30 10606 C 990.311 -4.91965 2.09462 0
M  V30 10607 C 991.611 -3.56889 3.8135 0
M  V30 10608 H 993.305 -1.83396 2.36656 0
M  V30 10609 H 990.851 -0.880926 1.13911 0
M  V30 10610 H 992.804 -4.01503 1.27958 0
M  V30 10611 H 991.528 -3.25233 0.298487 0
M  V30 10612 H 990.187 -2.78845 2.37993 0
M  V30 10613 H 989.835 -4.90819 1.10025 0
M  V30 10614 H 989.535 -5.14389 2.84038 0
M  V30 10615 H 991.059 -5.7284 2.11391 0
M  V30 10616 H 992.473 -4.25476 3.84243 0
M  V30 10617 H 990.87 -3.90836 4.55376 0
M  V30 10618 H 991.94 -2.56452 4.11534 0
M  V30 10619 N 993.283 -1.25346 -0.955304 0
M  V30 10620 C 994.231 -1.05461 -2.07318 0
M  V30 10621 C 995.225 0.0142699 -1.69394 0
M  V30 10622 O 996.431 -0.141292 -1.79445 0
M  V30 10623 H 992.806 -0.324095 -0.678577 0
M  V30 10624 H 994.777 -2.00231 -2.21247 0
M  V30 10625 C 993.526 -0.689329 -3.40798 0
M  V30 10626 H 992.849 -1.50362 -3.70447 0
M  V30 10627 H 994.289 -0.589883 -4.19877 0
M  V30 10628 C 992.748 0.604556 -3.31431 0
M  V30 10629 O 993.278 1.64686 -3.6639 0
M  V30 10630 N 991.484 0.589927 -2.84549 0
M  V30 10631 H 991.031 -0.258647 -2.56298 0
M  V30 10632 H 990.989 1.4558 -2.78664 0
M  V30 10633 N 994.761 1.15782 -1.06922 0
M  V30 10634 C 996.007 1.86741 -0.790922 0
M  V30 10635 C 996.34 1.81863 0.681149 0
M  V30 10636 O 995.615 1.23871 1.49954 0
M  V30 10637 C 995.898 3.36038 -1.29422 0
M  V30 10638 C 995.751 3.49573 -2.83052 0
M  V30 10639 C 997.07 4.30647 -0.907239 0
M  V30 10640 H 994.189 0.678064 -0.288787 0
M  V30 10641 H 996.831 1.36054 -1.32624 0
M  V30 10642 H 994.981 3.79336 -0.838843 0
M  V30 10643 H 996.653 3.1517 -3.36847 0
M  V30 10644 H 994.896 2.91275 -3.21467 0
M  V30 10645 H 995.567 4.5445 -3.13335 0
M  V30 10646 H 998.043 3.95286 -1.29956 0
M  V30 10647 H 996.919 5.33604 -1.28679 0
M  V30 10648 H 997.18 4.41703 0.187251 0
M  V30 10649 N 996.239 0.8527 1.3254 0
M  V30 10650 C 997.486 0.455123 1.97319 0
M  V30 10651 C 997.814 -0.988814 1.67489 0
M  V30 10652 O 997.069 -1.70845 0.954483 0
M  V30 10653 C 997.368 0.638757 3.51646 0
M  V30 10654 C 997.034 2.05287 4.01458 0
M  V30 10655 C 995.696 2.43963 4.14771 0
M  V30 10656 C 998.048 2.9759 4.27889 0
M  V30 10657 C 995.376 3.7422 4.51859 0
M  V30 10658 C 997.728 4.27343 4.66434 0
M  V30 10659 C 996.392 4.65957 4.77954 0
M  V30 10660 H 995.662 0.166541 0.722042 0
M  V30 10661 H 998.309 1.08238 1.57977 0
M  V30 10662 H 996.614 -0.0717394 3.91734 0
M  V30 10663 H 998.311 0.311219 3.9979 0
M  V30 10664 H 994.901 1.74253 3.91579 0
M  V30 10665 H 999.085 2.68942 4.17114 0
M  V30 10666 H 994.341 4.03923 4.58973 0
M  V30 10667 H 998.515 4.9893 4.85841 0
M  V30 10668 H 996.142 5.66934 5.06449 0
M  V30 10669 N 997.718 -1.45297 0.610449 0
M  V30 10670 C 998.628 -2.34349 -0.108475 0
M  V30 10671 C 999.644 -1.51409 -0.857397 0
M  V30 10672 O 1000.82 -1.84202 -0.814337 0
M  V30 10673 C 997.885 -3.29072 -1.09144 0
M  V30 10674 C 996.946 -4.27918 -0.344165 0
M  V30 10675 C 996.179 -5.18116 -1.28031 0
M  V30 10676 O 996.402 -5.11802 -2.51824 0
M  V30 10677 O 995.336 -5.96879 -0.775821 0
M  V30 10678 H 999.162 -2.97232 0.623421 0
M  V30 10679 H 996.747 -1.44728 0.3707 0
M  V30 10680 H 998.629 -3.87433 -1.65751 0
M  V30 10681 H 997.304 -2.68749 -1.80431 0
M  V30 10682 H 996.211 -3.73164 0.264437 0
M  V30 10683 H 997.544 -4.91104 0.328275 0
M  V30 10684 N 999.196 -0.349774 -1.5367 0
M  V30 10685 C 1000.13 0.547309 -2.2154 0
M  V30 10686 C 1001.11 1.09543 -1.20163 0
M  V30 10687 O 1002.29 1.15453 -1.49006 0
M  V30 10688 C 999.418 1.75356 -2.89772 0
M  V30 10689 C 998.464 1.33433 -4.0509 0
M  V30 10690 S 999.297 0.348891 -5.34362 0
M  V30 10691 C 1000.45 1.56183 -6.061 0
M  V30 10692 H 1000.69 -0.0291392 -2.97286 0
M  V30 10693 H 998.219 -0.133853 -1.53819 0
M  V30 10694 H 1000.18 2.44555 -3.29701 0
M  V30 10695 H 998.838 2.30123 -2.1378 0
M  V30 10696 H 998.031 2.23388 -4.5179 0
M  V30 10697 H 997.633 0.721746 -3.6697 0
M  V30 10698 H 999.925 2.49535 -6.29872 0
M  V30 10699 H 1000.87 1.13651 -6.9892 0
M  V30 10700 H 1001.28 1.76071 -5.36339 0
M  V30 10701 N 1000.67 1.57404 -0.0785433 0
M  V30 10702 C 1001.6 2.16131 0.883726 0
M  V30 10703 C 1002.58 1.09015 1.30575 0
M  V30 10704 O 1003.77 1.3708 1.37559 0
M  V30 10705 C 1000.9 2.72836 2.1489 0
M  V30 10706 C 999.854 3.85178 1.86605 0
M  V30 10707 C 999.18 4.28516 3.1981 0
M  V30 10708 C 1000.48 5.09118 1.16601 0
M  V30 10709 H 1002.17 2.9679 0.394484 0
M  V30 10710 H 999.72 1.42763 0.188304 0
M  V30 10711 H 1001.67 3.12567 2.8263 0
M  V30 10712 H 1000.4 1.89408 2.66068 0
M  V30 10713 H 999.056 3.45962 1.21268 0
M  V30 10714 H 998.704 3.42 3.68843 0
M  V30 10715 H 998.404 5.04249 3.01674 0
M  V30 10716 H 999.928 4.70868 3.88737 0
M  V30 10717 H 1001.34 5.46123 1.74422 0
M  V30 10718 H 999.739 5.90173 1.087 0
M  V30 10719 H 1000.81 4.8468 0.146138 0
M  V30 10720 N 1002.15 -0.195058 1.56388 0
M  V30 10721 C 1003.4 -0.9168 1.80894 0
M  V30 10722 C 1003.73 -1.82907 0.652592 0
M  V30 10723 O 1003.01 -1.91382 -0.346853 0
M  V30 10724 C 1003.29 -1.733 3.15657 0
M  V30 10725 C 1003.14 -0.845449 4.41783 0
M  V30 10726 C 1004.46 -2.70557 3.47112 0
M  V30 10727 H 1001.58 -0.331861 0.658056 0
M  V30 10728 H 1004.22 -0.184174 1.89105 0
M  V30 10729 H 1002.37 -2.3576 3.08787 0
M  V30 10730 H 1004.04 -0.235557 4.60698 0
M  V30 10731 H 1002.29 -0.152172 4.33533 0
M  V30 10732 H 1002.96 -1.45152 5.32574 0
M  V30 10733 H 1005.43 -2.1823 3.54281 0
M  V30 10734 H 1004.31 -3.24749 4.42526 0
M  V30 10735 H 1004.57 -3.49605 2.70608 0
M  V30 10736 N 1003.63 -1.50653 -0.462772 0
M  V30 10737 C 1004.88 -1.61296 -1.21105 0
M  V30 10738 C 1005.19 -0.322757 -1.92919 0
M  V30 10739 O 1006.4 -0.308211 -2.69745 0
M  V30 10740 C 1004.85 -2.84752 -2.201 0
M  V30 10741 C 1004.46 -4.20681 -1.54051 0
M  V30 10742 C 1006.21 -3.04744 -2.95518 0
M  V30 10743 C 1004.11 -5.35314 -2.51381 0
M  V30 10744 H 1003.04 -0.60069 -0.455728 0
M  V30 10745 H 1005.69 -1.77093 -0.480656 0
M  V30 10746 H 1004.08 -2.62532 -2.96467 0
M  V30 10747 H 1005.25 -4.53187 -0.834168 0
M  V30 10748 H 1003.56 -4.06361 -0.908828 0
M  V30 10749 H 1006.16 -3.87559 -3.68378 0
M  V30 10750 H 1006.5 -2.16802 -3.55391 0
M  V30 10751 H 1007.04 -3.27185 -2.26263 0
M  V30 10752 H 1003.78 -6.25437 -1.96235 0
M  V30 10753 H 1003.3 -5.07216 -3.20144 0
M  V30 10754 H 1004.98 -5.66229 -3.1304 0
M  V30 10755 N 1005.11 0.71652 -1.4037 0
M  V30 10756 C 1006.52 1.29562 -1.34427 0
M  V30 10757 C 1006.87 1.96192 -0.0173106 0
M  V30 10758 O 1006 1.97488 0.884719 0
M  V30 10759 C 1006.59 2.35601 -2.4347 0
M  V30 10760 C 1005.15 2.89138 -2.4099 0
M  V30 10761 C 1004.3 1.62915 -2.24397 0
M  V30 10762 H 1007.25 0.512715 -1.5019 0
M  V30 10763 H 1007.27 3.16422 -2.11323 0
M  V30 10764 H 1006.78 1.87077 -3.40035 0
M  V30 10765 H 1004.88 3.41894 -1.4812 0
M  V30 10766 H 1004.99 3.40995 -3.3654 0
M  V30 10767 H 1003.36 1.87947 -1.71896 0
M  V30 10768 H 1004.14 1.16417 -3.22958 0
M  V30 10769 N 1006.59 1.25851 0.948643 0
M  V30 10770 C 1007.5 1.08516 2.07994 0
M  V30 10771 C 1008.51 0.0206696 1.73988 0
M  V30 10772 O 1009.69 0.222854 2.00163 0
M  V30 10773 C 1006.75 0.712145 3.39307 0
M  V30 10774 C 1005.81 1.85523 3.87143 0
M  V30 10775 C 1005.05 1.49992 5.1219 0
M  V30 10776 O 1005.27 0.398268 5.69008 0
M  V30 10777 O 1004.2 2.33215 5.54882 0
M  V30 10778 H 1008.03 2.03405 2.25522 0
M  V30 10779 H 1005.62 1.04844 1.06433 0
M  V30 10780 H 1007.5 0.516512 4.18223 0
M  V30 10781 H 1006.17 -0.207416 3.23035 0
M  V30 10782 H 1005.08 2.10578 3.09205 0
M  V30 10783 H 1006.41 2.75425 4.07924 0
M  V30 10784 N 1008.06 -1.15214 1.07534 0
M  V30 10785 C 1009 -2.19634 0.655261 0
M  V30 10786 C 1010.01 -1.60139 -0.293165 0
M  V30 10787 O 1011.2 -1.78311 -0.0821957 0
M  V30 10788 C 1008.3 -3.38851 -0.0578281 0
M  V30 10789 C 1007.47 -4.27888 0.90725 0
M  V30 10790 C 1006.53 -5.25692 0.231115 0
M  V30 10791 O 1005.56 -5.62469 0.872746 0
M  V30 10792 N 1006.76 -5.71424 -1.0225 0
M  V30 10793 H 1009.52 -2.56292 1.55353 0
M  V30 10794 H 1007.08 -1.30347 0.960271 0
M  V30 10795 H 1009.08 -4.01334 -0.520874 0
M  V30 10796 H 1007.65 -3.00593 -0.858071 0
M  V30 10797 H 1006.87 -3.62475 1.54937 0
M  V30 10798 H 1008.15 -4.84246 1.56151 0
M  V30 10799 H 1007.55 -5.43659 -1.56369 0
M  V30 10800 H 1006.11 -6.35938 -1.42919 0
M  V30 10801 N 1009.54 -0.859717 -1.32086 0
M  V30 10802 C 1010.45 -0.31108 -2.32528 0
M  V30 10803 C 1011.47 0.573714 -1.6427 0
M  V30 10804 O 1012.64 0.472878 -1.9577 0
M  V30 10805 C 1009.71 0.487256 -3.43259 0
M  V30 10806 C 1008.77 -0.424279 -4.27198 0
M  V30 10807 C 1008 0.336051 -5.32641 0
M  V30 10808 O 1008.23 1.56541 -5.48499 0
M  V30 10809 O 1007.16 -0.300777 -6.01148 0
M  V30 10810 H 1010.99 -1.14336 -2.81355 0
M  V30 10811 H 1008.57 -0.622794 -1.358 0
M  V30 10812 H 1010.45 0.940203 -4.10777 0
M  V30 10813 H 1009.13 1.29626 -2.96612 0
M  V30 10814 H 1008.04 -0.925509 -3.62471 0
M  V30 10815 H 1009.37 -1.1986 -4.77383 0
M  V30 10816 N 1011.02 1.44971 -0.618145 0
M  V30 10817 C 1012.25 2.06228 -0.123985 0
M  V30 10818 C 1012.66 1.46166 1.20134 0
M  V30 10819 O 1012 0.574099 1.74499 0
M  V30 10820 C 1012.06 3.59413 0.0789098 0
M  V30 10821 C 1011.73 4.41869 -1.16624 0
M  V30 10822 C 1012.72 4.76177 -2.0869 0
M  V30 10823 C 1010.41 4.82453 -1.39802 0
M  V30 10824 C 1012.4 5.49938 -3.22254 0
M  V30 10825 C 1010.09 5.55965 -2.53665 0
M  V30 10826 C 1011.09 5.89626 -3.44718 0
M  V30 10827 O 1010.78 6.61644 -4.56598 0
M  V30 10828 H 1010.51 0.672274 -0.0708822 0
M  V30 10829 H 1013.06 1.87038 -0.848868 0
M  V30 10830 H 1011.29 3.77043 0.8588 0
M  V30 10831 H 1012.98 4.02478 0.52599 0
M  V30 10832 H 1013.75 4.45372 -1.92012 0
M  V30 10833 H 1009.63 4.55681 -0.698245 0
M  V30 10834 H 1013.17 5.76129 -3.93347 0
M  V30 10835 H 1009.07 5.86185 -2.70291 0
M  V30 10836 H 1009.84 6.80103 -4.55414 0
M  V30 10837 N 1012.5 0.357919 1.53482 0
M  V30 10838 C 1013.91 -0.122938 1.86295 0
M  V30 10839 C 1014.26 -1.48803 1.27875 0
M  V30 10840 O 1013.39 -2.07978 0.597828 0
M  V30 10841 C 1013.98 -0.229853 3.38019 0
M  V30 10842 C 1012.54 -0.654955 3.70658 0
M  V30 10843 C 1011.69 0.202539 2.76559 0
M  V30 10844 H 1014.64 0.576997 1.47839 0
M  V30 10845 H 1014.66 -1.05481 3.65587 0
M  V30 10846 H 1014.17 0.763825 3.80509 0
M  V30 10847 H 1012.27 -1.65714 3.33721 0
M  V30 10848 H 1012.38 -0.43488 4.77122 0
M  V30 10849 H 1010.75 -0.327388 2.52587 0
M  V30 10850 H 1011.53 1.19361 3.21882 0
M  V30 10851 N 1013.98 -1.5736 0.0868897 0
M  V30 10852 C 1014.91 -2.09211 -0.911382 0
M  V30 10853 C 1015.89 -1.00072 -1.28157 0
M  V30 10854 O 1017.07 -1.27514 -1.38825 0
M  V30 10855 C 1014.2 -2.56229 -2.21504 0
M  V30 10856 C 1013.24 -3.76948 -1.99531 0
M  V30 10857 S 1014.08 -5.20926 -1.24083 0
M  V30 10858 C 1015.23 -5.71288 -2.55697 0
M  V30 10859 H 1015.47 -2.93557 -0.470245 0
M  V30 10860 H 1013 -1.53883 -0.126218 0
M  V30 10861 H 1014.96 -2.83978 -2.96424 0
M  V30 10862 H 1013.62 -1.72123 -2.6274 0
M  V30 10863 H 1012.81 -4.07887 -2.96048 0
M  V30 10864 H 1012.41 -3.4965 -1.32744 0
M  V30 10865 H 1014.71 -5.79054 -3.51714 0
M  V30 10866 H 1015.65 -6.6993 -2.29347 0
M  V30 10867 H 1016.06 -4.99178 -2.63594 0
M  V30 10868 N 1015.45 0.186762 -1.56489 0
M  V30 10869 C 1016.7 0.907194 -1.81378 0
M  V30 10870 C 1017.03 1.82558 -0.662283 0
M  V30 10871 O 1016.31 1.91564 0.336699 0
M  V30 10872 C 1016.59 1.71624 -3.16571 0
M  V30 10873 C 1016.44 0.822009 -4.42225 0
M  V30 10874 C 1017.76 2.68713 -3.48542 0
M  V30 10875 H 1014.88 0.328366 -0.659806 0
M  V30 10876 H 1017.52 0.174142 -1.892 0
M  V30 10877 H 1015.67 2.34119 -3.10033 0
M  V30 10878 H 1017.35 0.211122 -4.60817 0
M  V30 10879 H 1015.59 0.129178 -4.33608 0
M  V30 10880 H 1016.26 1.42326 -5.33336 0
M  V30 10881 H 1018.74 2.16348 -3.55433 0
M  V30 10882 H 1017.61 3.22397 -4.44242 0
M  V30 10883 H 1017.87 3.48165 -2.72459 0
M  V30 10884 N 1016.93 1.50896 0.454776 0
M  V30 10885 C 1018.17 1.64347 1.21529 0
M  V30 10886 C 1018.54 0.343869 1.88896 0
M  V30 10887 O 1019.74 0.353973 2.66459 0
M  V30 10888 C 1018.01 2.80199 2.21864 0
M  V30 10889 S 1019.57 3.13879 3.06636 0
M  V30 10890 H 1016.39 0.579193 0.412379 0
M  V30 10891 H 1018.99 1.88741 0.509629 0
M  V30 10892 H 1017.69 3.73086 1.70982 0
M  V30 10893 H 1017.22 2.57941 2.97036 0
M  V30 10894 H 1019.24 2.58964 4.23264 0
M  V30 10895 N 1018.41 -0.709066 1.40748 0
M  V30 10896 C 1019.66 -1.47119 1.39585 0
M  V30 10897 C 1019.99 -1.942 0.000245323 0
M  V30 10898 O 1019.26 -1.68609 -0.969593 0
M  V30 10899 C 1019.55 -2.69266 2.39099 0
M  V30 10900 C 1019.4 -2.28037 3.8771 0
M  V30 10901 C 1020.72 -3.71438 2.36055 0
M  V30 10902 H 1017.84 -0.533632 0.508336 0
M  V30 10903 H 1020.48 -0.808718 1.7193 0
M  V30 10904 H 1018.63 -3.25788 2.11647 0
M  V30 10905 H 1020.3 -1.76946 4.26014 0
M  V30 10906 H 1018.55 -1.59966 4.03229 0
M  V30 10907 H 1019.22 -3.15621 4.52866 0
M  V30 10908 H 1021.69 -3.24559 2.60385 0
M  V30 10909 H 1020.57 -4.54532 3.07721 0
M  V30 10910 H 1020.83 -4.20193 1.37443 0
M  V30 10911 N 1019.89 -1.26353 -0.941956 0
M  V30 10912 C 1020.85 -1.07904 -2.02211 0
M  V30 10913 C 1021.85 -0.0276283 -1.60776 0
M  V30 10914 O 1023.04 -0.270965 -1.7208 0
M  V30 10915 C 1020.17 -0.641084 -3.34818 0
M  V30 10916 H 1021.37 -2.03804 -2.20009 0
M  V30 10917 H 1018.92 -1.08939 -1.12081 0
M  V30 10918 H 1019.66 0.319943 -3.22718 0
M  V30 10919 H 1019.44 -1.40027 -3.66244 0
M  V30 10920 H 1020.93 -0.533826 -4.14174 0
M  V30 10921 N 1021.37 1.14642 -1.08144 0
M  V30 10922 C 1022.62 1.84964 -0.804437 0
M  V30 10923 C 1022.93 1.8369 0.672106 0
M  V30 10924 O 1024.14 2.49775 1.06417 0
M  V30 10925 C 1022.59 3.32015 -1.38904 0
M  V30 10926 C 1022.2 3.41713 -2.89718 0
M  V30 10927 C 1023.94 4.07467 -1.19041 0
M  V30 10928 C 1021.85 4.82958 -3.41329 0
M  V30 10929 H 1020.78 0.692932 -0.297256 0
M  V30 10930 H 1023.43 1.29255 -1.30251 0
M  V30 10931 H 1021.81 3.87445 -0.818679 0
M  V30 10932 H 1022.99 2.96347 -3.52867 0
M  V30 10933 H 1021.3 2.79713 -3.08463 0
M  V30 10934 H 1023.9 5.1172 -1.55069 0
M  V30 10935 H 1024.24 4.16097 -0.130027 0
M  V30 10936 H 1024.78 3.58329 -1.72757 0
M  V30 10937 H 1021.51 4.79515 -4.46929 0
M  V30 10938 H 1021.03 5.28873 -2.82937 0
M  V30 10939 H 1022.71 5.51841 -3.37759 0
M  V30 10940 N 1022.85 0.866709 1.31628 0
M  V30 10941 C 1024.07 0.48956 2.01539 0
M  V30 10942 C 1024.5 -0.909556 1.64647 0
M  V30 10943 O 1023.85 -1.59959 0.853391 0
M  V30 10944 C 1023.9 0.650176 3.5469 0
M  V30 10945 O 1023.01 -0.311908 4.11219 0
M  V30 10946 H 1022.35 0.195144 0.634677 0
M  V30 10947 H 1024.88 1.16923 1.679 0
M  V30 10948 H 1024.89 0.542236 4.04381 0
M  V30 10949 H 1023.56 1.67038 3.80882 0
M  V30 10950 H 1022.14 -0.159197 3.7256 0
M  V30 10951 N 1024.32 -1.44642 0.625825 0
M  V30 10952 C 1025.27 -2.30653 -0.082259 0
M  V30 10953 C 1026.24 -1.43174 -0.842052 0
M  V30 10954 O 1027.43 -1.72082 -0.824151 0
M  V30 10955 C 1024.57 -3.2837 -1.06146 0
M  V30 10956 C 1023.68 -4.30953 -0.300638 0
M  V30 10957 C 1022.81 -5.15766 -1.27118 0
M  V30 10958 C 1021.85 -6.10061 -0.499215 0
M  V30 10959 N 1020.99 -6.87591 -1.41995 0
M  V30 10960 H 1025.83 -2.90664 0.657161 0
M  V30 10961 H 1023.37 -1.43215 0.335859 0
M  V30 10962 H 1025.32 -3.83507 -1.6425 0
M  V30 10963 H 1023.95 -2.70072 -1.76807 0
M  V30 10964 H 1023.01 -3.78331 0.396234 0
M  V30 10965 H 1024.32 -4.97892 0.300851 0
M  V30 10966 H 1023.47 -5.75394 -1.92372 0
M  V30 10967 H 1022.21 -4.48888 -1.9066 0
M  V30 10968 H 1021.22 -5.49547 0.166848 0
M  V30 10969 H 1022.44 -6.78973 0.131409 0
M  V30 10970 H 1020.39 -6.23387 -2.04267 0
M  V30 10971 H 1020.3 -7.5095 -0.872354 0
M  V30 10972 H 1021.57 -7.51746 -2.0615 0
M  V30 10973 N 1025.8 -0.366053 -1.5329 0
M  V30 10974 C 1027.05 0.223051 -2.00865 0
M  V30 10975 C 1027.37 1.49244 -1.25504 0
M  V30 10976 O 1026.64 1.92404 -0.368444 0
M  V30 10977 H 1025.22 0.085413 -0.742101 0
M  V30 10978 H 1027.88 -0.492396 -1.88578 0
M  V30 10979 H 1026.98 0.449701 -3.08843 0
M  V30 10980 N 1027.28 1.57312 -0.0952337 0
M  V30 10981 C 1028.51 1.98697 0.57682 0
M  V30 10982 C 1028.92 0.974347 1.61716 0
M  V30 10983 O 1028.28 -0.036022 1.82464 0
M  V30 10984 C 1028.33 3.40133 1.2244 0
M  V30 10985 O 1028.05 4.37518 0.225678 0
M  V30 10986 C 1029.55 3.96522 1.98205 0
M  V30 10987 H 1026.77 0.65294 0.154629 0
M  V30 10988 H 1029.32 2.03754 -0.174562 0
M  V30 10989 H 1027.47 3.3609 1.92671 0
M  V30 10990 H 1027.89 5.199 0.693116 0
M  V30 10991 H 1029.36 4.97637 2.38875 0
M  V30 10992 H 1029.84 3.34347 2.84796 0
M  V30 10993 H 1030.44 4.04038 1.3279 0
M  V30 10994 N 1028.76 -0.17846 1.56586 0
M  V30 10995 C 1029.67 -1.24115 1.9908 0
M  V30 10996 C 1030.68 -1.48854 0.901031 0
M  V30 10997 O 1031.86 -1.61142 1.2081 0
M  V30 10998 C 1028.92 -2.56187 2.33601 0
M  V30 10999 C 1027.99 -2.39373 3.56369 0
M  V30 11000 C 1027.22 -3.65147 3.89234 0
M  V30 11001 O 1027.44 -4.70024 3.23162 0
M  V30 11002 O 1026.38 -3.59683 4.82609 0
M  V30 11003 H 1030.2 -0.910482 2.89731 0
M  V30 11004 H 1027.79 -0.38477 1.4436 0
M  V30 11005 H 1029.67 -3.34109 2.56806 0
M  V30 11006 H 1028.34 -2.88847 1.46113 0
M  V30 11007 H 1027.25 -1.59506 3.38391 0
M  V30 11008 H 1028.58 -2.1164 4.44375 0
M  V30 11009 N 1030.24 -1.51135 -0.446768 0
M  V30 11010 C 1031.46 -1.67411 -1.22427 0
M  V30 11011 C 1031.89 -0.367009 -1.84485 0
M  V30 11012 O 1031.24 0.67185 -1.68392 0
M  V30 11013 C 1031.29 -2.78473 -2.29096 0
M  V30 11014 O 1030.4 -2.41419 -3.34351 0
M  V30 11015 H 1029.74 -0.558512 -0.359111 0
M  V30 11016 H 1032.27 -1.97648 -0.5288 0
M  V30 11017 H 1032.28 -3.02277 -2.7403 0
M  V30 11018 H 1030.95 -3.73326 -1.83304 0
M  V30 11019 H 1029.53 -2.28152 -2.9496 0
M  V30 11020 N 1031.71 0.701592 -1.41122 0
M  V30 11021 C 1032.66 1.83691 -1.4269 0
M  V30 11022 C 1033.66 1.6662 -0.305658 0
M  V30 11023 O 1034.86 1.73554 -0.477392 0
M  V30 11024 H 1031.24 0.605222 -0.44633 0
M  V30 11025 H 1033.21 1.79485 -2.38386 0
M  V30 11026 C 1031.96 3.21666 -1.32008 0
M  V30 11027 H 1031.28 3.35416 -2.17569 0
M  V30 11028 H 1032.72 4.012 -1.37165 0
M  V30 11029 C 1031.18 3.36885 -0.0317678 0
M  V30 11030 O 1031.71 3.90885 0.925836 0
M  V30 11031 N 1029.91 2.90569 0.0423401 0
M  V30 11032 H 1029.46 2.46812 -0.737673 0
M  V30 11033 H 1029.42 3.0113 0.903764 0
M  V30 11034 N 1033.19 1.2685 0.935242 0
M  V30 11035 C 1034.12 1.04717 2.0388 0
M  V30 11036 C 1035.14 0.00567507 1.62799 0
M  V30 11037 O 1036.33 0.246408 1.76791 0
M  V30 11038 C 1033.43 0.56496 3.34158 0
M  V30 11039 C 1032.6 1.67704 4.03973 0
M  V30 11040 C 1031.66 1.19186 5.12524 0
M  V30 11041 O 1030.68 1.89008 5.36903 0
M  V30 11042 N 1031.89 0.0434554 5.80484 0
M  V30 11043 H 1034.65 1.99746 2.23431 0
M  V30 11044 H 1032.21 1.18316 1.10512 0
M  V30 11045 H 1034.2 0.224436 4.04077 0
M  V30 11046 H 1032.77 -0.291899 3.11234 0
M  V30 11047 H 1031.99 2.18821 3.27889 0
M  V30 11048 H 1033.28 2.42361 4.47368 0
M  V30 11049 H 1032.68 -0.539502 5.63122 0
M  V30 11050 H 1031.24 -0.237946 6.51366 0
M  V30 11051 N 1034.67 -1.14067 1.0875 0
M  V30 11052 C 1035.92 -1.85459 0.82053 0
M  V30 11053 C 1036.25 -1.82923 -0.65213 0
M  V30 11054 O 1035.52 -1.26241 -1.47965 0
M  V30 11055 C 1035.81 -3.33937 1.34752 0
M  V30 11056 C 1035.66 -3.45026 2.88578 0
M  V30 11057 C 1036.98 -4.2915 0.975636 0
M  V30 11058 H 1034.1 -0.673384 0.299538 0
M  V30 11059 H 1036.74 -1.33927 1.34772 0
M  V30 11060 H 1034.89 -3.77953 0.899086 0
M  V30 11061 H 1036.56 -3.09771 3.41818 0
M  V30 11062 H 1034.81 -2.86124 3.26061 0
M  V30 11063 H 1035.48 -4.49408 3.20526 0
M  V30 11064 H 1037.95 -3.93168 1.36228 0
M  V30 11065 H 1036.83 -5.31489 1.37152 0
M  V30 11066 H 1037.09 -4.41945 -0.116956 0
M  V30 11067 N 1036.15 -0.873678 -1.31166 0
M  V30 11068 C 1037.39 -0.487178 -1.96861 0
M  V30 11069 C 1037.73 0.95887 -1.68877 0
M  V30 11070 O 1037 1.6758 -0.987279 0
M  V30 11071 C 1037.29 -0.74925 -3.52219 0
M  V30 11072 C 1037.14 -2.2451 -3.89763 0
M  V30 11073 C 1038.46 -0.218194 -4.39559 0
M  V30 11074 H 1035.58 -0.178477 -0.715063 0
M  V30 11075 H 1038.22 -1.0956 -1.55231 0
M  V30 11076 H 1036.37 -0.231403 -3.8781 0
M  V30 11077 H 1038.04 -2.83049 -3.64254 0
M  V30 11078 H 1036.28 -2.71621 -3.38237 0
M  V30 11079 H 1036.95 -2.37911 -4.98099 0
M  V30 11080 H 1039.43 -0.661274 -4.10812 0
M  V30 11081 H 1038.31 -0.430983 -5.47205 0
M  V30 11082 H 1038.57 0.880056 -4.33252 0
M  V30 11083 N 1037.63 1.44308 -0.633487 0
M  V30 11084 C 1038.56 2.28943 0.108474 0
M  V30 11085 C 1039.57 1.41415 0.806582 0
M  V30 11086 O 1040.76 1.65544 0.667634 0
M  V30 11087 C 1037.86 3.17845 1.1759 0
M  V30 11088 C 1037.03 4.33802 0.559842 0
M  V30 11089 C 1036.09 5.03722 1.52154 0
M  V30 11090 O 1035.12 5.5966 1.03776 0
M  V30 11091 N 1036.32 5.05392 2.85586 0
M  V30 11092 H 1039.09 2.93262 -0.617879 0
M  V30 11093 H 1036.65 1.54781 -0.474819 0
M  V30 11094 H 1038.64 3.61485 1.81963 0
M  V30 11095 H 1037.21 2.55261 1.80445 0
M  V30 11096 H 1036.43 3.93325 -0.262559 0
M  V30 11097 H 1037.72 5.08637 0.128942 0
M  V30 11098 H 1037.11 4.61282 3.27468 0
M  V30 11099 H 1035.67 5.52813 3.45313 0
M  V30 11100 N 1039.1 0.374177 1.53094 0
M  V30 11101 C 1040.35 -0.212816 2.01379 0
M  V30 11102 C 1040.68 -1.48069 1.26118 0
M  V30 11103 O 1039.93 -1.92625 0.345561 0
M  V30 11104 C 1040.23 -0.542179 3.53264 0
M  V30 11105 C 1039.9 0.632375 4.46444 0
M  V30 11106 C 1038.56 0.954635 4.71636 0
M  V30 11107 C 1040.91 1.41887 5.01515 0
M  V30 11108 C 1038.24 2.06521 5.4915 0
M  V30 11109 C 1040.59 2.51993 5.80243 0
M  V30 11110 C 1039.26 2.84744 6.03719 0
M  V30 11111 H 1038.53 -0.0778749 0.736897 0
M  V30 11112 H 1041.17 0.508412 1.84628 0
M  V30 11113 H 1039.48 -1.34454 3.68007 0
M  V30 11114 H 1041.18 -1.00874 3.88105 0
M  V30 11115 H 1037.77 0.371179 4.2699 0
M  V30 11116 H 1041.95 1.18315 4.81991 0
M  V30 11117 H 1037.21 2.32284 5.65557 0
M  V30 11118 H 1041.38 3.13346 6.21922 0
M  V30 11119 H 1039.01 3.70921 6.63568 0
M  V30 11120 N 1040.58 -1.57259 0.103575 0
M  V30 11121 C 1041.49 -2.18018 -0.866327 0
M  V30 11122 C 1042.51 -1.15198 -1.30404 0
M  V30 11123 O 1043.68 -1.47605 -1.37021 0
M  V30 11124 C 1040.75 -2.75533 -2.10434 0
M  V30 11125 C 1039.81 -3.93337 -1.72002 0
M  V30 11126 C 1039.04 -4.481 -2.89901 0
M  V30 11127 O 1039.27 -4.01784 -4.04877 0
M  V30 11128 O 1038.2 -5.39004 -2.67877 0
M  V30 11129 H 1042.03 -3.01322 -0.379338 0
M  V30 11130 H 1039.61 -1.48907 -0.121228 0
M  V30 11131 H 1041.49 -3.12259 -2.8297 0
M  V30 11132 H 1040.17 -1.9527 -2.58169 0
M  V30 11133 H 1039.08 -3.61408 -0.966193 0
M  V30 11134 H 1040.41 -4.74989 -1.29022 0
M  V30 11135 N 1042.06 0.170153 -1.56679 0
M  V30 11136 C 1043.29 0.902134 -1.86197 0
M  V30 11137 C 1043.7 1.75775 -0.689098 0
M  V30 11138 O 1043.06 1.79271 0.341763 0
M  V30 11139 C 1043.11 1.77792 -3.14757 0
M  V30 11140 O 1042.83 0.956817 -4.27524 0
M  V30 11141 C 1044.33 2.61947 -3.57629 0
M  V30 11142 H 1041.55 0.262026 -0.617724 0
M  V30 11143 H 1044.1 0.169899 -2.03793 0
M  V30 11144 H 1042.25 2.46348 -2.98984 0
M  V30 11145 H 1042.67 1.5559 -5.00891 0
M  V30 11146 H 1044.14 3.19011 -4.50484 0
M  V30 11147 H 1044.62 3.36873 -2.81803 0
M  V30 11148 H 1045.22 1.98721 -3.76019 0
M  V30 11149 N 1043.54 1.5137 0.438746 0
M  V30 11150 C 1044.79 1.63202 1.18524 0
M  V30 11151 C 1045.1 0.353408 1.92381 0
M  V30 11152 O 1046.31 0.351086 2.6922 0
M  V30 11153 C 1044.76 2.88218 2.15542 0
M  V30 11154 C 1044.37 4.23078 1.47339 0
M  V30 11155 C 1046.11 3.09407 2.90633 0
M  V30 11156 C 1044.02 5.39246 2.42833 0
M  V30 11157 H 1042.95 0.607864 0.446114 0
M  V30 11158 H 1045.6 1.77835 0.452421 0
M  V30 11159 H 1043.98 2.67216 2.92253 0
M  V30 11160 H 1045.16 4.54457 0.761964 0
M  V30 11161 H 1043.47 4.07755 0.844065 0
M  V30 11162 H 1046.07 3.9337 3.62165 0
M  V30 11163 H 1046.41 2.22428 3.51897 0
M  V30 11164 H 1046.95 3.30743 2.21029 0
M  V30 11165 H 1043.69 6.2848 1.8626 0
M  V30 11166 H 1043.21 5.12245 3.12034 0
M  V30 11167 H 1044.88 5.71137 3.03992 0
M  V30 11168 N 1045.02 -0.694098 1.41492 0
M  V30 11169 C 1045.96 -1.82932 1.43662 0
M  V30 11170 C 1046.96 -1.66455 0.31449 0
M  V30 11171 O 1048.16 -1.73298 0.486589 0
M  V30 11172 H 1044.54 -0.602847 0.449533 0
M  V30 11173 H 1046.51 -1.78218 2.39334 0
M  V30 11174 C 1045.26 -3.20962 1.33712 0
M  V30 11175 H 1044.58 -3.34257 2.19345 0
M  V30 11176 H 1046.02 -4.00467 1.39291 0
M  V30 11177 C 1044.48 -3.36863 0.0496332 0
M  V30 11178 O 1045.01 -3.91371 -0.905093 0
M  V30 11179 N 1043.22 -2.90588 -0.0269299 0
M  V30 11180 H 1042.76 -2.46417 0.750752 0
M  V30 11181 H 1042.72 -3.01605 -0.887781 0
M  V30 11182 N 1046.49 -1.27344 -0.928501 0
M  V30 11183 C 1047.42 -1.12517 -2.04602 0
M  V30 11184 C 1048.41 -0.0268563 -1.70079 0
M  V30 11185 O 1049.59 -0.201197 -1.93155 0
M  V30 11186 C 1046.72 -0.770749 -3.3864 0
M  V30 11187 C 1045.67 -1.8222 -3.87272 0
M  V30 11188 C 1045 -1.32178 -5.18105 0
M  V30 11189 C 1046.3 -3.22614 -4.10752 0
M  V30 11190 H 1047.99 -2.06 -2.17265 0
M  V30 11191 H 1045.54 -0.991827 -1.04397 0
M  V30 11192 H 1047.49 -0.653843 -4.16297 0
M  V30 11193 H 1046.22 0.19979 -3.25988 0
M  V30 11194 H 1044.88 -1.928 -3.11807 0
M  V30 11195 H 1044.52 -0.340719 -5.01845 0
M  V30 11196 H 1044.22 -2.02474 -5.51614 0
M  V30 11197 H 1045.75 -1.2178 -5.98333 0
M  V30 11198 H 1047.16 -3.1504 -4.78981 0
M  V30 11199 H 1045.56 -3.90614 -4.55566 0
M  V30 11200 H 1046.63 -3.67727 -3.16077 0
M  V30 11201 N 1047.97 1.13488 -1.09353 0
M  V30 11202 C 1048.92 2.20949 -0.726923 0
M  V30 11203 C 1049.91 1.67205 0.271816 0
M  V30 11204 O 1051.12 1.79505 0.133356 0
M  V30 11205 H 1047.5 0.719985 -0.217086 0
M  V30 11206 H 1049.47 2.49134 -1.6424 0
M  V30 11207 C 1048.22 3.47319 -0.162822 0
M  V30 11208 H 1047.54 3.89011 -0.922527 0
M  V30 11209 H 1048.98 4.23963 0.0557734 0
M  V30 11210 C 1047.44 3.18376 1.10175 0
M  V30 11211 O 1047.97 3.3707 2.18511 0
M  V30 11212 N 1046.17 2.72262 1.01597 0
M  V30 11213 H 1045.72 2.5725 0.134289 0
M  V30 11214 H 1045.68 2.53272 1.86281 0
M  V30 11215 N 1049.45 0.880621 1.30701 0
M  V30 11216 C 1050.68 0.510909 2.01009 0
M  V30 11217 C 1051.1 -0.892041 1.65603 0
M  V30 11218 O 1050.46 -1.59045 0.870309 0
M  V30 11219 C 1050.51 0.687759 3.53981 0
M  V30 11220 O 1049.61 -0.268275 4.11526 0
M  V30 11221 H 1048.95 0.201864 0.632572 0
M  V30 11222 H 1051.48 1.18697 1.6665 0
M  V30 11223 H 1051.49 0.585095 4.03783 0
M  V30 11224 H 1050.17 1.71068 3.79089 0
M  V30 11225 H 1048.74 -0.119673 3.72708 0
M  V30 11226 N 1050.93 -1.4397 0.641131 0
M  V30 11227 C 1051.89 -2.29149 -0.0482243 0
M  V30 11228 C 1052.89 -1.41572 -0.762495 0
M  V30 11229 O 1054.08 -1.63335 -0.605571 0
M  V30 11230 C 1051.21 -3.23375 -1.07896 0
M  V30 11231 H 1052.41 -2.9159 0.70109 0
M  V30 11232 H 1049.96 -1.51048 0.401754 0
M  V30 11233 H 1050.7 -2.65804 -1.85792 0
M  V30 11234 H 1050.48 -3.87926 -0.570597 0
M  V30 11235 H 1051.97 -3.87337 -1.56075 0
M  V30 11236 N 1052.41 -0.382291 -1.52893 0
M  V30 11237 C 1053.63 0.204961 -2.06385 0
M  V30 11238 C 1054.06 1.40316 -1.25271 0
M  V30 11239 O 1053.42 1.79187 -0.275969 0
M  V30 11240 C 1053.46 0.560205 -3.56222 0
M  V30 11241 O 1052.57 1.65515 -3.77728 0
M  V30 11242 H 1051.91 0.0258798 -0.663495 0
M  V30 11243 H 1054.44 -0.547733 -1.97132 0
M  V30 11244 H 1054.45 0.826501 -3.99541 0
M  V30 11245 H 1053.12 -0.31584 -4.14699 0
M  V30 11246 H 1051.7 1.38311 -3.46301 0
M  V30 11247 N 1053.89 1.57202 -0.111913 0
M  V30 11248 C 1055.11 1.99723 0.559054 0
M  V30 11249 C 1055.54 0.990968 1.59879 0
M  V30 11250 O 1054.89 -0.038311 1.8126 0
M  V30 11251 C 1054.94 3.41151 1.16826 0
M  V30 11252 O 1054.05 3.43383 2.2839 0
M  V30 11253 H 1053.39 0.649004 0.140319 0
M  V30 11254 H 1055.92 2.03637 -0.198295 0
M  V30 11255 H 1055.93 3.79208 1.50551 0
M  V30 11256 H 1054.6 4.13907 0.406637 0
M  V30 11257 H 1053.18 3.17138 1.96158 0
M  V30 11258 N 1055.36 -0.161842 1.56767 0
M  V30 11259 C 1056.61 -0.873481 1.8369 0
M  V30 11260 C 1056.96 -1.79455 0.693817 0
M  V30 11261 O 1056.26 -1.89089 -0.309181 0
M  V30 11262 C 1056.45 -1.69736 3.14522 0
M  V30 11263 C 1056.28 -0.857568 4.41447 0
M  V30 11264 C 1055.05 -0.528952 5.02524 0
M  V30 11265 C 1057.25 -0.194734 5.13931 0
M  V30 11266 N 1055.23 0.325994 6.13034 0
M  V30 11267 C 1056.6 0.520973 6.17807 0
M  V30 11268 C 1058.66 -0.113874 4.9777 0
M  V30 11269 C 1057.36 1.30988 7.07273 0
M  V30 11270 C 1059.39 0.661731 5.87686 0
M  V30 11271 C 1058.75 1.36577 6.91033 0
M  V30 11272 H 1054.85 -0.297939 0.723019 0
M  V30 11273 H 1057.43 -0.139816 1.94197 0
M  V30 11274 H 1055.6 -2.40238 3.05189 0
M  V30 11275 H 1057.33 -2.35103 3.29407 0
M  V30 11276 H 1054.09 -0.861267 4.65703 0
M  V30 11277 H 1054.51 0.744055 6.72899 0
M  V30 11278 H 1059.15 -0.643832 4.17869 0
M  V30 11279 H 1056.87 1.85115 7.86612 0
M  V30 11280 H 1060.46 0.726092 5.77251 0
M  V30 11281 H 1059.34 1.9563 7.59407 0
M  V30 11282 N 1056.84 -1.516 -0.430713 0
M  V30 11283 C 1058.09 -1.64596 -1.17959 0
M  V30 11284 C 1058.42 -0.365382 -1.91037 0
M  V30 11285 O 1057.67 0.650826 -1.84561 0
M  V30 11286 C 1057.97 -2.804 -2.21609 0
M  V30 11287 C 1057.64 -4.19431 -1.65495 0
M  V30 11288 C 1056.3 -4.57252 -1.49915 0
M  V30 11289 C 1058.65 -5.0616 -1.24304 0
M  V30 11290 C 1055.98 -5.79501 -0.916276 0
M  V30 11291 C 1058.33 -6.28995 -0.674437 0
M  V30 11292 C 1056.99 -6.65582 -0.505591 0
M  V30 11293 H 1056.26 -0.602301 -0.431642 0
M  V30 11294 H 1058.91 -1.8565 -0.469726 0
M  V30 11295 H 1057.22 -2.53595 -2.98658 0
M  V30 11296 H 1058.91 -2.87654 -2.79385 0
M  V30 11297 H 1055.5 -3.89615 -1.78599 0
M  V30 11298 H 1059.69 -4.77541 -1.35159 0
M  V30 11299 H 1054.94 -6.0649 -0.77328 0
M  V30 11300 H 1059.12 -6.95536 -0.346779 0
M  V30 11301 H 1056.74 -7.60182 -0.0518188 0
M  V30 11302 N 1058.32 0.686584 -1.41858 0
M  V30 11303 C 1059.55 1.47519 -1.45072 0
M  V30 11304 C 1059.96 1.88709 -0.0585868 0
M  V30 11305 O 1059.32 1.57373 0.924116 0
M  V30 11306 C 1059.37 2.73195 -2.36742 0
M  V30 11307 O 1059.09 2.33736 -3.70539 0
M  V30 11308 C 1060.59 3.66861 -2.48854 0
M  V30 11309 H 1057.81 0.454307 -0.493808 0
M  V30 11310 H 1060.36 0.844612 -1.86243 0
M  V30 11311 H 1058.51 3.32468 -1.98856 0
M  V30 11312 H 1058.93 3.14809 -4.19518 0
M  V30 11313 H 1060.4 4.51801 -3.17143 0
M  V30 11314 H 1060.88 4.11961 -1.52265 0
M  V30 11315 H 1061.48 3.13486 -2.87414 0
M  V30 11316 N 1059.8 1.27835 0.921735 0
M  V30 11317 C 1060.71 1.12904 2.05645 0
M  V30 11318 C 1061.72 0.0575704 1.73905 0
M  V30 11319 O 1062.9 0.265261 1.99645 0
M  V30 11320 C 1059.96 0.783957 3.3772 0
M  V30 11321 C 1059.03 1.93694 3.8312 0
M  V30 11322 C 1058.26 1.60823 5.08893 0
M  V30 11323 O 1058.48 0.518873 5.68035 0
M  V30 11324 O 1057.42 2.44932 5.49811 0
M  V30 11325 H 1061.24 2.08143 2.21157 0
M  V30 11326 H 1058.83 1.07078 1.04185 0
M  V30 11327 H 1060.71 0.605107 4.17033 0
M  V30 11328 H 1059.38 -0.138849 3.23402 0
M  V30 11329 H 1058.29 2.17089 3.04669 0
M  V30 11330 H 1059.62 2.84016 4.0199 0
M  V30 11331 N 1061.28 -1.12907 1.09954 0
M  V30 11332 C 1062.52 -1.83661 0.833761 0
M  V30 11333 C 1062.84 -1.84736 -0.642798 0
M  V30 11334 O 1064.04 -2.51437 -1.0243 0
M  V30 11335 C 1062.5 -3.29763 1.44168 0
M  V30 11336 C 1062.11 -3.3706 2.95118 0
M  V30 11337 C 1063.85 -4.05522 1.25509 0
M  V30 11338 C 1061.76 -4.77467 3.48969 0
M  V30 11339 H 1060.69 -0.688115 0.308242 0
M  V30 11340 H 1063.34 -1.27166 1.32291 0
M  V30 11341 H 1061.72 -3.86094 0.880215 0
M  V30 11342 H 1062.9 -2.90695 3.57537 0
M  V30 11343 H 1061.21 -2.7477 3.12874 0
M  V30 11344 H 1063.81 -5.09188 1.63191 0
M  V30 11345 H 1064.15 -4.15837 0.196208 0
M  V30 11346 H 1064.68 -3.55536 1.78435 0
M  V30 11347 H 1061.42 -4.72344 4.54501 0
M  V30 11348 H 1060.94 -5.24305 2.91315 0
M  V30 11349 H 1062.62 -5.46397 3.46495 0
M  V30 11350 N 1062.75 -0.88754 -1.30232 0
M  V30 11351 C 1064 -0.506277 -1.95656 0
M  V30 11352 C 1064.32 0.948191 -1.70395 0
M  V30 11353 O 1063.59 1.66701 -1.02895 0
M  V30 11354 H 1062.17 -0.184235 -0.723924 0
M  V30 11355 H 1064.83 -1.13118 -1.58715 0
M  V30 11356 H 1063.93 -0.678673 -3.04632 0
M  V30 11357 N 1064.23 1.43628 -0.648757 0
M  V30 11358 C 1065.2 2.29172 0.0360713 0
M  V30 11359 C 1066.2 1.41974 0.754976 0
M  V30 11360 O 1067.39 1.63654 0.5969 0
M  V30 11361 C 1064.52 3.23942 1.0618 0
M  V30 11362 H 1065.71 2.91214 -0.716544 0
M  V30 11363 H 1063.26 1.50833 -0.409759 0
M  V30 11364 H 1064 2.66786 1.8438 0
M  V30 11365 H 1063.78 3.88223 0.550016 0
M  V30 11366 H 1065.27 3.8816 1.54019 0
M  V30 11367 N 1065.71 0.390394 1.52688 0
M  V30 11368 C 1066.96 -0.191067 2.01195 0
M  V30 11369 C 1067.28 -1.47229 1.27862 0
M  V30 11370 O 1066.55 -1.91793 0.399007 0
M  V30 11371 H 1065.13 -0.073596 0.743366 0
M  V30 11372 H 1067.79 0.522334 1.8777 0
M  V30 11373 H 1066.89 -0.40051 3.0952 0
M  V30 11374 N 1067.19 -1.57141 0.120249 0
M  V30 11375 C 1068.41 -2.00017 -0.548454 0
M  V30 11376 C 1068.84 -0.999433 -1.59352 0
M  V30 11377 O 1068.2 0.0286978 -1.81277 0
M  V30 11378 C 1068.24 -3.41766 -1.15015 0
M  V30 11379 O 1067.35 -3.44589 -2.26566 0
M  V30 11380 H 1066.69 -0.649739 -0.136875 0
M  V30 11381 H 1069.22 -2.03529 0.209092 0
M  V30 11382 H 1069.23 -3.80001 -1.48537 0
M  V30 11383 H 1067.9 -4.14117 -0.384681 0
M  V30 11384 H 1066.48 -3.18174 -1.94473 0
M  V30 11385 N 1068.67 0.153526 -1.5685 0
M  V30 11386 C 1069.6 1.2147 -1.94365 0
M  V30 11387 C 1070.61 1.39532 -0.838726 0
M  V30 11388 O 1071.8 1.39219 -1.11715 0
M  V30 11389 C 1068.9 2.5806 -2.19677 0
M  V30 11390 C 1068.07 2.61062 -3.50949 0
M  V30 11391 C 1067.13 3.79144 -3.64878 0
M  V30 11392 O 1066.16 3.64319 -4.37333 0
M  V30 11393 N 1067.36 4.96333 -3.01054 0
M  V30 11394 H 1070.13 0.895889 -2.85996 0
M  V30 11395 H 1067.69 0.343147 -1.58222 0
M  V30 11396 H 1069.68 3.35553 -2.26243 0
M  V30 11397 H 1068.25 2.8226 -1.34343 0
M  V30 11398 H 1067.47 1.69533 -3.55882 0
M  V30 11399 H 1068.76 2.60094 -4.37297 0
M  V30 11400 H 1068.15 5.1128 -2.42093 0
M  V30 11401 H 1066.71 5.71625 -3.13191 0
M  V30 11402 N 1070.14 1.51827 0.422667 0
M  V30 11403 C 1071.08 1.70409 1.53275 0
M  V30 11404 C 1072.09 0.584584 1.51942 0
M  V30 11405 O 1073.28 0.859349 1.56453 0
M  V30 11406 C 1070.38 1.717 2.92185 0
M  V30 11407 C 1069.55 3.00472 3.17861 0
M  V30 11408 C 1068.61 2.93755 4.36571 0
M  V30 11409 O 1067.64 3.67682 4.3451 0
M  V30 11410 N 1068.84 2.10612 5.40946 0
M  V30 11411 H 1071.6 2.66176 1.37734 0
M  V30 11412 H 1069.16 1.49895 0.611799 0
M  V30 11413 H 1071.16 1.64756 3.69645 0
M  V30 11414 H 1069.73 0.834655 3.01251 0
M  V30 11415 H 1068.95 3.21171 2.28567 0
M  V30 11416 H 1070.23 3.85684 3.31851 0
M  V30 11417 H 1069.63 1.49954 5.45463 0
M  V30 11418 H 1068.19 2.09535 6.17202 0
M  V30 11419 N 1071.62 -0.679052 1.4222 0
M  V30 11420 C 1072.55 -1.80481 1.48152 0
M  V30 11421 C 1073.53 -1.66698 0.338502 0
M  V30 11422 O 1074.72 -1.86183 0.552228 0
M  V30 11423 C 1071.85 -3.18746 1.37908 0
M  V30 11424 C 1070.8 -3.47258 2.50192 0
M  V30 11425 C 1070.13 -4.85052 2.25008 0
M  V30 11426 C 1071.43 -3.44576 3.92511 0
M  V30 11427 H 1073.12 -1.75774 2.42371 0
M  V30 11428 H 1070.67 -0.844241 1.16656 0
M  V30 11429 H 1072.62 -3.97229 1.40666 0
M  V30 11430 H 1071.35 -3.24119 0.401806 0
M  V30 11431 H 1070 -2.71133 2.46744 0
M  V30 11432 H 1069.65 -4.8707 1.25584 0
M  V30 11433 H 1069.35 -5.05092 3.00259 0
M  V30 11434 H 1070.88 -5.65825 2.29508 0
M  V30 11435 H 1072.29 -4.13036 3.97585 0
M  V30 11436 H 1070.69 -3.76151 4.67579 0
M  V30 11437 H 1071.76 -2.4323 4.19484 0
M  V30 11438 N 1073.1 -1.28322 -0.914942 0
M  V30 11439 C 1074.38 -1.06111 -1.64316 0
M  V30 11440 C 1074.76 0.399934 -2.07277 0
M  V30 11441 O 1074.11 1.38577 -1.81683 0
M  V30 11442 C 1074.32 -2.03461 -2.83557 0
M  V30 11443 C 1075.66 -2.33541 -3.54604 0
M  V30 11444 O 1076.69 -2.01536 -2.93704 0
M  V30 11445 O 1075.55 -2.88158 -4.64357 0
M  V30 11446 H 1072.64 -0.405451 -0.72079 0
M  V30 11447 H 1075.19 -1.39636 -0.964352 0
M  V30 11448 H 1073.96 -3.01938 -2.48896 0
M  V30 11449 H 1073.58 -1.70574 -3.59152 0
M  V30 11450 N 1074.58 1.12322 -1.10551 0
M  V30 11451 C 1075.8 1.8822 -0.871093 0
M  V30 11452 C 1076.23 1.7916 0.573005 0
M  V30 11453 O 1075.59 1.14738 1.40374 0
M  V30 11454 C 1075.63 3.35349 -1.32565 0
M  V30 11455 O 1074.74 4.09461 -0.49145 0
M  V30 11456 H 1074.08 0.584787 -0.314516 0
M  V30 11457 H 1076.61 1.42039 -1.47262 0
M  V30 11458 H 1076.62 3.86189 -1.31612 0
M  V30 11459 H 1075.29 3.4126 -2.37728 0
M  V30 11460 H 1073.87 3.68575 -0.566294 0
M  V30 11461 N 1076.06 0.894434 1.2976 0
M  V30 11462 C 1077.31 0.513673 1.95049 0
M  V30 11463 C 1077.62 -0.943744 1.71327 0
M  V30 11464 O 1078.82 -1.43179 2.30678 0
M  V30 11465 C 1077.28 0.867751 3.49282 0
M  V30 11466 C 1076.89 2.34358 3.81812 0
M  V30 11467 C 1078.63 0.556645 4.20835 0
M  V30 11468 C 1076.54 2.63879 5.29265 0
M  V30 11469 H 1075.47 0.188375 0.73009 0
M  V30 11470 H 1078.12 1.09071 1.47566 0
M  V30 11471 H 1076.5 0.2197 3.9539 0
M  V30 11472 H 1077.68 3.03674 3.46581 0
M  V30 11473 H 1075.99 2.62318 3.23386 0
M  V30 11474 H 1078.59 0.754123 5.29355 0
M  V30 11475 H 1078.93 -0.504526 4.13231 0
M  V30 11476 H 1079.46 1.1623 3.80441 0
M  V30 11477 H 1076.2 3.68774 5.41928 0
M  V30 11478 H 1075.72 1.99182 5.65762 0
M  V30 11479 H 1077.4 2.49871 5.96803 0
M  V30 11480 N 1077.53 -1.43282 0.656365 0
M  V30 11481 C 1078.48 -2.27932 -0.0557069 0
M  V30 11482 C 1079.47 -1.40075 -0.791698 0
M  V30 11483 O 1080.66 -1.6368 -0.673646 0
M  V30 11484 C 1077.79 -3.27821 -1.01923 0
M  V30 11485 C 1076.88 -4.23164 -0.281545 0
M  V30 11486 N 1077.27 -5.00882 0.703629 0
M  V30 11487 C 1075.56 -4.42928 -0.522558 0
M  V30 11488 C 1076.27 -5.70384 1.14177 0
M  V30 11489 N 1075.24 -5.41517 0.475394 0
M  V30 11490 H 1079.04 -2.85437 0.70022 0
M  V30 11491 H 1076.56 -1.55023 0.483902 0
M  V30 11492 H 1078.55 -3.87248 -1.54418 0
M  V30 11493 H 1077.21 -2.71878 -1.77518 0
M  V30 11494 H 1078.23 -5.06461 1.08247 0
M  V30 11495 H 1074.9 -3.98051 -1.25944 0
M  V30 11496 H 1076.29 -6.42765 1.95711 0
M  V30 11497 N 1079.01 -0.398486 -1.52479 0
M  V30 11498 C 1080.26 0.181019 -2.0199 0
M  V30 11499 C 1080.59 1.45691 -1.28405 0
M  V30 11500 O 1079.87 1.90607 -0.387207 0
M  V30 11501 C 1080.15 0.439587 -3.57407 0
M  V30 11502 C 1080 -0.85223 -4.41653 0
M  V30 11503 C 1081.32 1.2263 -4.2267 0
M  V30 11504 H 1078.44 0.0643164 -0.734188 0
M  V30 11505 H 1081.08 -0.52986 -1.82462 0
M  V30 11506 H 1079.23 1.04516 -3.74177 0
M  V30 11507 H 1080.91 -1.48879 -4.36615 0
M  V30 11508 H 1079.15 -1.46555 -4.08294 0
M  V30 11509 H 1079.82 -0.625839 -5.48441 0
M  V30 11510 H 1082.3 0.713722 -4.09933 0
M  V30 11511 H 1081.17 1.37596 -5.31374 0
M  V30 11512 H 1081.43 2.24403 -3.80914 0
M  V30 11513 N 1080.49 1.57075 -0.12858 0
M  V30 11514 C 1081.72 1.99876 0.534544 0
M  V30 11515 C 1082.13 1.00843 1.59612 0
M  V30 11516 O 1081.49 0.00268947 1.825 0
M  V30 11517 C 1081.54 3.42654 1.15198 0
M  V30 11518 O 1081.26 4.37899 0.132823 0
M  V30 11519 C 1082.76 4.00637 1.8975 0
M  V30 11520 H 1079.98 0.656073 0.140744 0
M  V30 11521 H 1082.53 2.03337 -0.217742 0
M  V30 11522 H 1080.68 3.40101 1.85499 0
M  V30 11523 H 1081.1 5.21253 0.582682 0
M  V30 11524 H 1082.57 5.02592 2.28266 0
M  V30 11525 H 1083.05 3.40313 2.7764 0
M  V30 11526 H 1083.65 4.06764 1.2419 0
M  V30 11527 N 1081.97 -0.145205 1.5693 0
M  V30 11528 C 1082.9 -1.20438 1.95006 0
M  V30 11529 C 1083.91 -1.39085 0.846114 0
M  V30 11530 O 1085.1 -1.38625 1.12452 0
M  V30 11531 C 1082.2 -2.56892 2.21043 0
M  V30 11532 C 1081.38 -2.59197 3.52329 0
M  V30 11533 C 1080.44 -3.77204 3.66884 0
M  V30 11534 O 1079.46 -3.61995 4.39259 0
M  V30 11535 N 1080.66 -4.9473 3.03682 0
M  V30 11536 H 1083.43 -0.880709 2.86467 0
M  V30 11537 H 1080.99 -0.334751 1.58401 0
M  V30 11538 H 1082.98 -3.34349 2.2802 0
M  V30 11539 H 1081.55 -2.81544 1.35838 0
M  V30 11540 H 1080.77 -1.67644 3.56776 0
M  V30 11541 H 1082.06 -2.57771 4.3867 0
M  V30 11542 H 1081.46 -5.09989 2.44801 0
M  V30 11543 H 1080.01 -5.69956 3.16218 0
M  V30 11544 N 1083.45 -1.52049 -0.414609 0
M  V30 11545 C 1084.38 -1.77956 -1.51175 0
M  V30 11546 C 1085.36 -0.630282 -1.57992 0
M  V30 11547 O 1086.54 -0.875324 -1.73354 0
M  V30 11548 C 1083.67 -1.92527 -2.89051 0
M  V30 11549 C 1082.63 -3.08096 -2.97087 0
M  V30 11550 C 1081.95 -3.07882 -4.37164 0
M  V30 11551 C 1083.25 -4.47656 -2.69075 0
M  V30 11552 H 1084.95 -2.69827 -1.29746 0
M  V30 11553 H 1082.49 -1.29839 -0.62273 0
M  V30 11554 H 1084.45 -2.09234 -3.65786 0
M  V30 11555 H 1083.17 -0.973235 -3.11762 0
M  V30 11556 H 1081.83 -2.91131 -2.22797 0
M  V30 11557 H 1081.48 -2.10411 -4.56877 0
M  V30 11558 H 1081.18 -3.85501 -4.43467 0
M  V30 11559 H 1082.7 -3.26712 -5.15841 0
M  V30 11560 H 1084.12 -4.64855 -3.35534 0
M  V30 11561 H 1082.51 -5.27151 -2.8676 0
M  V30 11562 H 1083.58 -4.56129 -1.64544 0
M  V30 11563 N 1084.93 0.6715 -1.42579 0
M  V30 11564 C 1085.84 1.81435 -1.48723 0
M  V30 11565 C 1086.85 1.69895 -0.375716 0
M  V30 11566 O 1088.03 1.91388 -0.627115 0
M  V30 11567 C 1085.09 3.17599 -1.39038 0
M  V30 11568 C 1084.15 3.41071 -2.60709 0
M  V30 11569 C 1083.39 4.7074 -2.51476 0
M  V30 11570 O 1083.61 5.48868 -1.55243 0
M  V30 11571 O 1082.54 4.95528 -3.41666 0
M  V30 11572 H 1086.37 1.79206 -2.45191 0
M  V30 11573 H 1083.95 0.827666 -1.24379 0
M  V30 11574 H 1085.84 3.98847 -1.3601 0
M  V30 11575 H 1084.51 3.20458 -0.456966 0
M  V30 11576 H 1083.42 2.59659 -2.69311 0
M  V30 11577 H 1084.75 3.43045 -3.5296 0
M  V30 11578 N 1086.4 1.28806 0.908124 0
M  V30 11579 C 1087.82 1.06634 1.18749 0
M  V30 11580 C 1088.02 -0.187729 2.00624 0
M  V30 11581 O 1087.08 -0.88784 2.36376 0
M  V30 11582 C 1088.39 2.31703 1.91661 0
M  V30 11583 C 1089.94 2.36939 2.04521 0
M  V30 11584 C 1090.41 3.61789 2.80843 0
M  V30 11585 N 1091.9 3.62462 2.88402 0
M  V30 11586 C 1092.64 4.55746 3.47971 0
M  V30 11587 N 1092.13 5.59353 4.08774 0
M  V30 11588 N 1093.93 4.43331 3.45564 0
M  V30 11589 H 1086.08 2.09299 0.36164 0
M  V30 11590 H 1088.34 0.921479 0.222668 0
M  V30 11591 H 1088.05 3.23096 1.38931 0
M  V30 11592 H 1087.92 2.38556 2.92183 0
M  V30 11593 H 1090.31 1.4604 2.5643 0
M  V30 11594 H 1090.39 2.34077 1.03159 0
M  V30 11595 H 1090.03 4.53035 2.29612 0
M  V30 11596 H 1089.96 3.61907 3.82532 0
M  V30 11597 H 1092.45 2.87544 2.45208 0
M  V30 11598 H 1092.77 6.26668 4.52224 0
M  V30 11599 H 1091.11 5.63173 4.07261 0
M  V30 11600 H 1094.3 3.61587 2.97276 0
M  V30 11601 H 1094.48 5.16216 3.91695 0
M  V30 11602 N 1087.88 -1.11734 1.11145 0
M  V30 11603 C 1089.16 -1.79795 0.770261 0
M  V30 11604 C 1089.54 -1.97624 -0.742158 0
M  V30 11605 O 1088.89 -1.55847 -1.67105 0
M  V30 11606 C 1089.1 -3.13684 1.52982 0
M  V30 11607 C 1090.44 -3.88771 1.70711 0
M  V30 11608 O 1091.47 -3.23363 1.49381 0
M  V30 11609 O 1090.33 -5.06134 2.06132 0
M  V30 11610 H 1087.42 -0.778617 0.27872 0
M  V30 11611 H 1089.97 -1.18504 1.2147 0
M  V30 11612 H 1088.74 -2.96043 2.55879 0
M  V30 11613 H 1088.36 -3.82687 1.07873 0
M  V30 11614 N 1089.36 -0.901303 -1.29284 0
M  V30 11615 C 1090.59 -0.543511 -1.99634 0
M  V30 11616 C 1091 0.872154 -1.67448 0
M  V30 11617 O 1090.36 1.57591 -0.920406 0
M  V30 11618 C 1090.41 -0.728148 -3.54091 0
M  V30 11619 O 1090.13 -2.08809 -3.85137 0
M  V30 11620 C 1091.63 -0.375519 -4.41707 0
M  V30 11621 H 1088.85 -0.208405 -0.637815 0
M  V30 11622 H 1091.4 -1.21109 -1.64781 0
M  V30 11623 H 1089.55 -0.107728 -3.8725 0
M  V30 11624 H 1089.97 -2.11863 -4.79807 0
M  V30 11625 H 1091.44 -0.555538 -5.49197 0
M  V30 11626 H 1091.92 0.687532 -4.33785 0
M  V30 11627 H 1092.52 -0.972949 -4.14021 0
M  V30 11628 N 1090.84 1.42931 -0.663954 0
M  V30 11629 C 1092.08 2.01982 -0.182007 0
M  V30 11630 C 1092.42 1.52323 1.20463 0
M  V30 11631 O 1091.69 0.720834 1.80649 0
M  V30 11632 C 1091.97 3.59518 -0.204671 0
M  V30 11633 C 1091.83 4.19382 -1.62599 0
M  V30 11634 C 1093.15 4.37762 0.45308 0
M  V30 11635 H 1090.27 0.733892 -0.0676115 0
M  V30 11636 H 1092.91 1.70092 -0.84668 0
M  V30 11637 H 1091.06 3.86816 0.361295 0
M  V30 11638 H 1092.73 4.03076 -2.24337 0
M  V30 11639 H 1090.97 3.75623 -2.17001 0
M  V30 11640 H 1091.64 5.28496 -1.59362 0
M  V30 11641 H 1094.12 4.1609 -0.0285774 0
M  V30 11642 H 1093 5.47392 0.406538 0
M  V30 11643 H 1093.26 4.1482 1.52895 0
M  V30 11644 N 1092.32 0.406567 1.52266 0
M  V30 11645 C 1093.25 -0.411314 2.29849 0
M  V30 11646 C 1094.23 -1.04838 1.33952 0
M  V30 11647 O 1095.41 -1.05788 1.62857 0
M  V30 11648 C 1092.54 -1.52961 3.11802 0
M  V30 11649 C 1091.5 -1.01768 4.15725 0
M  V30 11650 C 1090.82 -2.22938 4.86007 0
M  V30 11651 C 1092.12 -0.073515 5.22248 0
M  V30 11652 H 1093.82 0.236054 2.98468 0
M  V30 11653 H 1091.36 0.114968 1.4354 0
M  V30 11654 H 1093.31 -2.10874 3.64843 0
M  V30 11655 H 1092.04 -2.20482 2.40947 0
M  V30 11656 H 1090.7 -0.46097 3.6369 0
M  V30 11657 H 1090.35 -2.89007 4.11684 0
M  V30 11658 H 1090.05 -1.89338 5.5626 0
M  V30 11659 H 1091.57 -2.81462 5.41859 0
M  V30 11660 H 1092.98 -0.561367 5.70545 0
M  V30 11661 H 1091.38 0.173551 5.99849 0
M  V30 11662 H 1092.45 0.872524 4.76985 0
M  V30 11663 N 1093.79 -1.57004 0.136909 0
M  V30 11664 C 1095.04 -1.96087 -0.517477 0
M  V30 11665 C 1095.37 -1.0213 -1.65176 0
M  V30 11666 O 1094.65 -0.0617958 -1.94402 0
M  V30 11667 C 1094.93 -3.44958 -1.03323 0
M  V30 11668 C 1094.78 -4.49691 0.0988609 0
M  V30 11669 C 1096.1 -3.96091 -1.91832 0
M  V30 11670 H 1093.22 -0.712978 -0.186632 0
M  V30 11671 H 1095.86 -1.88767 0.216095 0
M  V30 11672 H 1094.01 -3.51327 -1.65836 0
M  V30 11673 H 1095.69 -4.55409 0.734847 0
M  V30 11674 H 1093.93 -4.271 0.75947 0
M  V30 11675 H 1094.6 -5.51165 -0.303554 0
M  V30 11676 H 1097.08 -3.92139 -1.39164 0
M  V30 11677 H 1095.95 -5.00742 -2.24831 0
M  V30 11678 H 1096.21 -3.37846 -2.85153 0
M  V30 11679 N 1095.27 0.136881 -1.57004 0
M  V30 11680 C 1096.51 0.853873 -1.8571 0
M  V30 11681 C 1096.88 1.77885 -0.722556 0
M  V30 11682 O 1098.08 2.53606 -0.89092 0
M  V30 11683 C 1096.35 1.59935 -3.19618 0
M  V30 11684 S 1097.91 2.36038 -3.69908 0
M  V30 11685 H 1094.73 0.285342 -0.65123 0
M  V30 11686 H 1097.33 0.113254 -1.95172 0
M  V30 11687 H 1096.03 0.91148 -4.0015 0
M  V30 11688 H 1095.56 2.38069 -3.13188 0
M  V30 11689 H 1097.58 3.61425 -3.3998 0
M  V30 11690 N 1096.75 1.52266 0.40654 0
M  V30 11691 C 1097.68 1.78755 1.50229 0
M  V30 11692 C 1098.66 0.638652 1.57655 0
M  V30 11693 O 1099.85 0.884505 1.72888 0
M  V30 11694 C 1096.98 1.94057 2.88026 0
M  V30 11695 C 1095.93 3.09667 2.95449 0
M  V30 11696 C 1095.26 3.10196 4.35526 0
M  V30 11697 C 1096.56 4.49077 2.66697 0
M  V30 11698 H 1098.25 2.70511 1.28313 0
M  V30 11699 H 1095.8 1.30167 0.615836 0
M  V30 11700 H 1097.75 2.11171 3.64671 0
M  V30 11701 H 1096.47 0.989755 3.11242 0
M  V30 11702 H 1095.13 2.92308 2.2125 0
M  V30 11703 H 1094.78 2.12831 4.55754 0
M  V30 11704 H 1094.48 3.87847 4.41416 0
M  V30 11705 H 1096 3.29443 5.14101 0
M  V30 11706 H 1097.42 4.66628 3.33064 0
M  V30 11707 H 1095.82 5.28665 2.8396 0
M  V30 11708 H 1096.89 4.56995 1.62122 0
M  V30 11709 N 1098.23 -0.663929 1.42933 0
M  V30 11710 C 1099.51 -1.42054 1.34462 0
M  V30 11711 C 1099.89 -2.11096 -0.0127801 0
M  V30 11712 O 1099.23 -2.04027 -1.02884 0
M  V30 11713 C 1099.44 -2.41406 2.5204 0
M  V30 11714 C 1100.79 -3.05726 2.94647 0
M  V30 11715 O 1101.82 -2.51733 2.52009 0
M  V30 11716 O 1100.67 -4.03593 3.68477 0
M  V30 11717 H 1097.77 -0.634149 0.530834 0
M  V30 11718 H 1100.31 -0.691738 1.54962 0
M  V30 11719 H 1099.09 -1.89263 3.42484 0
M  V30 11720 H 1098.71 -3.21752 2.33584 0
M  V30 11721 N 1099.71 -1.29285 -0.901281 0
M  V30 11722 C 1100.65 -1.1428 -2.00521 0
M  V30 11723 C 1101.62 -0.0365428 -1.6606 0
M  V30 11724 O 1102.81 -0.203771 -1.89709 0
M  V30 11725 C 1099.95 -0.823671 -3.35126 0
M  V30 11726 C 1099.06 -2.01021 -3.8238 0
M  V30 11727 C 1098.2 -1.6306 -5.05554 0
M  V30 11728 C 1097.24 -2.78304 -5.45173 0
M  V30 11729 N 1096.37 -2.4075 -6.59533 0
M  V30 11730 H 1101.21 -2.08729 -2.12688 0
M  V30 11731 H 1098.75 -1.0387 -1.04161 0
M  V30 11732 H 1100.71 -0.61934 -4.12577 0
M  V30 11733 H 1099.34 0.0839113 -3.22691 0
M  V30 11734 H 1098.39 -2.32629 -3.00978 0
M  V30 11735 H 1099.7 -2.8738 -4.07694 0
M  V30 11736 H 1098.86 -1.38906 -5.90584 0
M  V30 11737 H 1097.59 -0.738464 -4.82077 0
M  V30 11738 H 1096.6 -3.03142 -4.58678 0
M  V30 11739 H 1097.82 -3.68179 -5.70632 0
M  V30 11740 H 1095.77 -1.54022 -6.37662 0
M  V30 11741 H 1095.69 -3.20643 -6.84634 0
M  V30 11742 H 1096.96 -2.19912 -7.47836 0
M  V30 11743 N 1101.18 1.11143 -1.11736 0
M  V30 11744 C 1102.43 1.82948 -0.868127 0
M  V30 11745 C 1102.76 1.84813 0.606182 0
M  V30 11746 O 1102.01 1.29901 1.4637 0
M  V30 11747 C 1102.31 3.29733 -1.3788 0
M  V30 11748 C 1101.98 3.48025 -2.86687 0
M  V30 11749 C 1100.64 3.52725 -3.2732 0
M  V30 11750 C 1102.99 3.54024 -3.82513 0
M  V30 11751 C 1100.32 3.60983 -4.62502 0
M  V30 11752 C 1102.67 3.63814 -5.17515 0
M  V30 11753 C 1101.34 3.66776 -5.57702 0
M  V30 11754 H 1100.61 0.669452 -0.31767 0
M  V30 11755 H 1103.25 1.31057 -1.3963 0
M  V30 11756 H 1101.56 3.8414 -0.77093 0
M  V30 11757 H 1103.26 3.83787 -1.16225 0
M  V30 11758 H 1099.85 3.45039 -2.54256 0
M  V30 11759 H 1104.03 3.4965 -3.52219 0
M  V30 11760 H 1099.29 3.61554 -4.9304 0
M  V30 11761 H 1103.46 3.674 -5.916 0
M  V30 11762 H 1101.09 3.72927 -6.62442 0
M  V30 11763 N 1102.66 0.908147 1.28804 0
M  V30 11764 C 1103.91 0.539201 1.95501 0
M  V30 11765 C 1104.24 -0.913759 1.7136 0
M  V30 11766 O 1103.52 -1.64904 1.03136 0
M  V30 11767 C 1103.8 0.842372 3.50109 0
M  V30 11768 C 1103.65 2.34765 3.83673 0
M  V30 11769 C 1104.97 0.334658 4.38826 0
M  V30 11770 H 1102.09 0.197373 0.71008 0
M  V30 11771 H 1104.73 1.13637 1.52272 0
M  V30 11772 H 1102.88 0.334143 3.8706 0
M  V30 11773 H 1104.55 2.92607 3.56621 0
M  V30 11774 H 1102.8 2.80494 3.30916 0
M  V30 11775 H 1103.47 2.51034 4.91616 0
M  V30 11776 H 1105.94 0.769961 4.08914 0
M  V30 11777 H 1104.82 0.575914 5.4587 0
M  V30 11778 H 1105.08 -0.764878 4.35433 0
M  V30 11779 N 1104.14 -1.42577 0.671525 0
M  V30 11780 C 1105.09 -2.30798 -0.00883676 0
M  V30 11781 C 1106.06 -1.4578 -0.796076 0
M  V30 11782 O 1107.24 -1.74617 -0.768987 0
M  V30 11783 C 1104.38 -3.31581 -0.956452 0
M  V30 11784 C 1103.5 -4.31691 -0.163381 0
M  V30 11785 C 1102.63 -5.19549 -1.10645 0
M  V30 11786 C 1101.67 -6.1134 -0.304876 0
M  V30 11787 N 1100.81 -6.91761 -1.20048 0
M  V30 11788 H 1105.65 -2.88426 0.749301 0
M  V30 11789 H 1103.18 -1.42074 0.381251 0
M  V30 11790 H 1105.14 -3.88539 -1.51966 0
M  V30 11791 H 1103.77 -2.75561 -1.68126 0
M  V30 11792 H 1102.82 -3.76879 0.516396 0
M  V30 11793 H 1104.14 -4.96683 0.459099 0
M  V30 11794 H 1103.29 -5.81223 -1.73969 0
M  V30 11795 H 1102.03 -4.54726 -1.76282 0
M  V30 11796 H 1101.03 -5.48738 0.341597 0
M  V30 11797 H 1102.26 -6.78211 0.347352 0
M  V30 11798 H 1100.2 -6.2957 -1.84331 0
M  V30 11799 H 1100.12 -7.53345 -0.633003 0
M  V30 11800 H 1101.39 -7.57924 -1.82129 0
M  V30 11801 N 1105.62 -0.414636 -1.52048 0
M  V30 11802 C 1106.87 0.16073 -2.01059 0
M  V30 11803 C 1107.18 1.45753 -1.30443 0
M  V30 11804 O 1108.39 2.11448 -1.703 0
M  V30 11805 C 1106.84 0.336993 -3.58319 0
M  V30 11806 C 1106.45 -0.948037 -4.37854 0
M  V30 11807 C 1108.19 0.867353 -4.15545 0
M  V30 11808 C 1106.1 -0.738662 -5.86769 0
M  V30 11809 H 1105.03 0.0638419 -0.751292 0
M  V30 11810 H 1107.68 -0.540925 -1.75346 0
M  V30 11811 H 1106.06 1.10111 -3.80383 0
M  V30 11812 H 1107.24 -1.71873 -4.27547 0
M  V30 11813 H 1105.55 -1.40522 -3.91972 0
M  V30 11814 H 1108.15 1.04012 -5.24486 0
M  V30 11815 H 1108.49 1.84358 -3.73253 0
M  V30 11816 H 1109.03 0.162148 -3.97469 0
M  V30 11817 H 1105.77 -1.6866 -6.3343 0
M  V30 11818 H 1105.29 -0.00736294 -5.998 0
M  V30 11819 H 1106.96 -0.382978 -6.45866 0
M  V30 11820 N 1107.1 1.56929 -0.145233 0
M  V30 11821 C 1108.34 1.96358 0.50707 0
M  V30 11822 C 1108.68 1.03005 1.64632 0
M  V30 11823 O 1107.95 0.0721045 1.94366 0
M  V30 11824 C 1108.23 3.45502 1.01492 0
M  V30 11825 C 1108.09 4.49633 -0.122708 0
M  V30 11826 C 1109.41 3.97103 1.89729 0
M  V30 11827 H 1106.52 0.713958 0.182848 0
M  V30 11828 H 1109.17 1.8865 -0.226102 0
M  V30 11829 H 1107.32 3.52202 1.6397 0
M  V30 11830 H 1108.99 4.55013 -0.758988 0
M  V30 11831 H 1107.23 4.26691 -0.782109 0
M  V30 11832 H 1107.9 5.51318 0.27432 0
M  V30 11833 H 1110.38 3.92871 1.37082 0
M  V30 11834 H 1109.25 5.01927 2.22173 0
M  V30 11835 H 1109.52 3.39354 2.83357 0
M  V30 11836 N 1108.58 -0.128553 1.57075 0
M  V30 11837 C 1109.52 -1.17719 2.00611 0
M  V30 11838 C 1110.52 -1.43423 0.90146 0
M  V30 11839 O 1111.72 -1.43498 1.08666 0
M  V30 11840 H 1108.1 -0.396683 0.638864 0
M  V30 11841 H 1110.07 -0.783437 2.87932 0
M  V30 11842 C 1108.82 -2.49826 2.41831 0
M  V30 11843 H 1108.14 -2.30883 3.26394 0
M  V30 11844 H 1109.58 -3.21784 2.761 0
M  V30 11845 C 1108.04 -3.11712 1.27816 0
M  V30 11846 O 1108.57 -3.9736 0.588917 0
M  V30 11847 N 1106.78 -2.71442 1.03767 0
M  V30 11848 H 1106.32 -2.01891 1.59994 0
M  V30 11849 H 1106.28 -3.1318 0.276743 0
M  V30 11850 N 1110.05 -1.5248 -0.398459 0
M  V30 11851 C 1110.98 -1.79549 -1.49279 0
M  V30 11852 C 1111.96 -0.647004 -1.57315 0
M  V30 11853 O 1113.15 -0.893661 -1.72416 0
M  V30 11854 C 1110.28 -1.95582 -2.86993 0
M  V30 11855 C 1109.23 -3.1123 -2.93803 0
M  V30 11856 C 1108.56 -3.12501 -4.33874 0
M  V30 11857 C 1109.86 -4.50485 -2.64312 0
M  V30 11858 H 1111.55 -2.71187 -1.26877 0
M  V30 11859 H 1109.1 -1.30492 -0.608924 0
M  V30 11860 H 1111.05 -2.13102 -3.63546 0
M  V30 11861 H 1109.78 -1.00625 -3.10712 0
M  V30 11862 H 1108.44 -2.93477 -2.19697 0
M  V30 11863 H 1108.08 -2.15245 -4.54619 0
M  V30 11864 H 1107.78 -3.90183 -4.39353 0
M  V30 11865 H 1109.31 -3.32164 -5.12347 0
M  V30 11866 H 1110.72 -4.68387 -3.30585 0
M  V30 11867 H 1109.12 -5.30163 -2.81153 0
M  V30 11868 H 1110.19 -4.57848 -1.59696 0
M  V30 11869 N 1111.53 0.65634 -1.43283 0
M  V30 11870 C 1112.46 1.78184 -1.44164 0
M  V30 11871 C 1113.48 1.59249 -0.338177 0
M  V30 11872 O 1114.67 1.68027 -0.60242 0
M  V30 11873 C 1111.77 3.15566 -1.23577 0
M  V30 11874 C 1110.94 3.61187 -2.46704 0
M  V30 11875 C 1110 4.77361 -2.21388 0
M  V30 11876 O 1109.02 4.8696 -2.94718 0
M  V30 11877 N 1110.23 5.67351 -1.22855 0
M  V30 11878 H 1112.99 1.77907 -2.41183 0
M  V30 11879 H 1110.55 0.840076 -1.38399 0
M  V30 11880 H 1112.54 3.90968 -1.04529 0
M  V30 11881 H 1111.11 3.10633 -0.350155 0
M  V30 11882 H 1110.33 2.76263 -2.81198 0
M  V30 11883 H 1111.62 3.88413 -3.28652 0
M  V30 11884 H 1111.02 5.62265 -0.622417 0
M  V30 11885 H 1109.58 6.42487 -1.09791 0
M  V30 11886 N 1113.01 1.29761 0.894412 0
M  V30 11887 C 1114.26 1.17806 1.64214 0
M  V30 11888 C 1114.58 -0.269588 1.93127 0
M  V30 11889 O 1113.85 -1.18352 1.56107 0
M  V30 11890 H 1112.43 0.433002 0.608702 0
M  V30 11891 H 1115.09 1.6276 1.07216 0
M  V30 11892 H 1114.19 1.73201 2.5963 0
M  V30 11893 N 1114.49 -1.10549 1.12324 0
M  V30 11894 C 1115.43 -2.16858 0.790024 0
M  V30 11895 C 1116.4 -1.64317 -0.242694 0
M  V30 11896 O 1117.59 -1.90438 -0.117531 0
M  V30 11897 C 1114.73 -3.44197 0.249503 0
M  V30 11898 C 1113.84 -4.10696 1.33989 0
M  V30 11899 C 1112.98 -5.25751 0.758932 0
M  V30 11900 C 1112.02 -5.8415 1.82853 0
M  V30 11901 N 1111.15 -6.90585 1.26637 0
M  V30 11902 H 1115.99 -2.44705 1.7007 0
M  V30 11903 H 1113.53 -1.20117 0.849141 0
M  V30 11904 H 1115.49 -4.1712 -0.0819251 0
M  V30 11905 H 1114.12 -3.16705 -0.624332 0
M  V30 11906 H 1113.17 -3.35754 1.78812 0
M  V30 11907 H 1114.48 -4.50144 2.14875 0
M  V30 11908 H 1113.64 -6.05521 0.378104 0
M  V30 11909 H 1112.38 -4.87632 -0.0811405 0
M  V30 11910 H 1111.38 -5.03051 2.21856 0
M  V30 11911 H 1112.61 -6.24333 2.6718 0
M  V30 11912 H 1110.55 -6.54468 0.448105 0
M  V30 11913 H 1110.47 -7.28739 2.01184 0
M  V30 11914 H 1111.74 -7.74138 0.912737 0
M  V30 11915 N 1115.97 -0.914965 -1.28321 0
M  V30 11916 C 1116.9 -0.421292 -2.29668 0
M  V30 11917 C 1117.88 0.511743 -1.6222 0
M  V30 11918 O 1119.06 0.419218 -1.89621 0
M  V30 11919 C 1116.19 0.338364 -3.45648 0
M  V30 11920 C 1115.15 -0.505646 -4.25003 0
M  V30 11921 C 1114.47 0.382421 -5.33331 0
M  V30 11922 C 1115.77 -1.76354 -4.91626 0
M  V30 11923 H 1117.47 -1.26826 -2.71211 0
M  V30 11924 H 1115.01 -0.611291 -1.30381 0
M  V30 11925 H 1116.96 0.694578 -4.15636 0
M  V30 11926 H 1115.69 1.21925 -3.02988 0
M  V30 11927 H 1114.35 -0.844395 -3.56743 0
M  V30 11928 H 1114 1.26189 -4.86914 0
M  V30 11929 H 1113.7 -0.17871 -5.87328 0
M  V30 11930 H 1115.22 0.73449 -6.06166 0
M  V30 11931 H 1116.63 -1.47616 -5.5397 0
M  V30 11932 H 1115.03 -2.26717 -5.55625 0
M  V30 11933 H 1116.1 -2.49063 -4.16048 0
M  V30 11934 N 1117.44 1.42219 -0.679077 0
M  V30 11935 C 1118.39 2.308 -0.00340316 0
M  V30 11936 C 1119.36 1.462 0.788334 0
M  V30 11937 O 1120.55 1.75023 0.759716 0
M  V30 11938 C 1117.69 3.32084 0.938854 0
M  V30 11939 C 1116.8 4.31772 0.140485 0
M  V30 11940 C 1115.93 5.20128 1.07888 0
M  V30 11941 C 1114.97 6.11493 0.27245 0
M  V30 11942 N 1114.11 6.92388 1.16378 0
M  V30 11943 H 1118.95 2.88024 -0.764587 0
M  V30 11944 H 1116.49 1.41869 -0.38878 0
M  V30 11945 H 1118.44 3.89339 1.49903 0
M  V30 11946 H 1117.07 2.76448 1.66662 0
M  V30 11947 H 1116.13 3.76599 -0.536376 0
M  V30 11948 H 1117.44 4.96432 -0.485433 0
M  V30 11949 H 1116.59 5.82137 1.70884 0
M  V30 11950 H 1115.33 4.55655 1.73868 0
M  V30 11951 H 1114.34 5.48549 -0.370693 0
M  V30 11952 H 1115.56 6.78017 -0.383315 0
M  V30 11953 H 1113.51 6.30538 1.8099 0
M  V30 11954 H 1113.42 7.5367 0.593043 0
M  V30 11955 H 1114.69 7.58879 1.78107 0
M  V30 11956 N 1118.92 0.422693 1.51826 0
M  V30 11957 C 1120.15 -0.15017 2.06856 0
M  V30 11958 C 1120.57 -1.36946 1.28948 0
M  V30 11959 O 1119.93 -1.78393 0.32338 0
M  V30 11960 C 1119.98 -0.465563 3.57582 0
M  V30 11961 O 1119.08 -1.55442 3.81984 0
M  V30 11962 H 1118.42 -0.00827931 0.663948 0
M  V30 11963 H 1120.95 0.599806 1.95611 0
M  V30 11964 H 1120.96 -0.720279 4.01592 0
M  V30 11965 H 1119.64 0.425679 4.13716 0
M  V30 11966 H 1118.21 -1.29081 3.49846 0
M  V30 11967 N 1120.4 -1.5685 0.153553 0
M  V30 11968 C 1121.62 -2.01135 -0.505904 0
M  V30 11969 C 1122.05 -1.03301 -1.57196 0
M  V30 11970 O 1121.41 -0.00976022 -1.81297 0
M  V30 11971 C 1121.46 -3.44129 -1.0774 0
M  V30 11972 O 1120.56 -3.49318 -2.19205 0
M  V30 11973 H 1119.9 -0.652496 -0.123062 0
M  V30 11974 H 1122.43 -2.03039 0.252216 0
M  V30 11975 H 1122.44 -3.83066 -1.40444 0
M  V30 11976 H 1121.12 -4.1484 -0.296754 0
M  V30 11977 H 1119.69 -3.22227 -1.8768 0
M  V30 11978 N 1121.88 0.120221 -1.57141 0
M  V30 11979 C 1122.82 1.14751 -2.00252 0
M  V30 11980 C 1123.79 1.41217 -0.874462 0
M  V30 11981 O 1124.98 1.53104 -1.13859 0
M  V30 11982 C 1122.12 2.46923 -2.41087 0
M  V30 11983 C 1121.23 2.27403 -3.67303 0
M  V30 11984 C 1120.37 3.52797 -3.97125 0
M  V30 11985 C 1119.41 3.28429 -5.16528 0
M  V30 11986 N 1118.54 4.46022 -5.42226 0
M  V30 11987 H 1123.38 0.772884 -2.87803 0
M  V30 11988 H 1120.92 0.370137 -1.42367 0
M  V30 11989 H 1122.88 3.24025 -2.62799 0
M  V30 11990 H 1121.51 2.82281 -1.5658 0
M  V30 11991 H 1120.56 1.41224 -3.53214 0
M  V30 11992 H 1121.87 2.05373 -4.54558 0
M  V30 11993 H 1121.03 4.38318 -4.19479 0
M  V30 11994 H 1119.77 3.77857 -3.08343 0
M  V30 11995 H 1118.77 2.41299 -4.94019 0
M  V30 11996 H 1120 3.0474 -6.06886 0
M  V30 11997 H 1117.94 4.71205 -4.56401 0
M  V30 11998 H 1117.86 4.27092 -6.23802 0
M  V30 11999 H 1119.13 5.3268 -5.69098 0
M  V30 12000 N 1123.36 1.52689 0.390367 0
M  V30 12001 C 1124.3 1.7737 1.47677 0
M  V30 12002 C 1125.27 0.616864 1.54221 0
M  V30 12003 O 1126.46 0.856437 1.70499 0
M  V30 12004 C 1123.6 1.94715 2.84921 0
M  V30 12005 C 1122.71 3.22405 2.8754 0
M  V30 12006 C 1121.85 3.30074 4.16202 0
M  V30 12007 C 1120.89 4.51893 4.12867 0
M  V30 12008 N 1120.02 4.56851 5.33134 0
M  V30 12009 H 1124.86 2.70084 1.25932 0
M  V30 12010 H 1122.4 1.33813 0.610943 0
M  V30 12011 H 1124.36 2.02755 3.64618 0
M  V30 12012 H 1122.99 1.05363 3.0512 0
M  V30 12013 H 1122.04 3.23442 2.00223 0
M  V30 12014 H 1123.35 4.12156 2.80943 0
M  V30 12015 H 1122.51 3.3729 5.04302 0
M  V30 12016 H 1121.24 2.38295 4.25519 0
M  V30 12017 H 1120.25 4.44803 3.23156 0
M  V30 12018 H 1121.47 5.44987 4.05174 0
M  V30 12019 H 1119.42 3.67963 5.43083 0
M  V30 12020 H 1119.34 5.40472 5.28607 0
M  V30 12021 H 1120.61 4.6832 6.23134 0
M  V30 12022 N 1124.83 -0.648732 1.43629 0
M  V30 12023 C 1125.76 -1.77298 1.51947 0
M  V30 12024 C 1126.75 -1.65942 0.373785 0
M  V30 12025 O 1127.93 -1.8497 0.591596 0
M  V30 12026 C 1125.06 -3.15749 1.44638 0
M  V30 12027 C 1124.01 -3.41872 2.57502 0
M  V30 12028 C 1123.34 -4.8017 2.35246 0
M  V30 12029 C 1124.64 -3.36173 3.99731 0
M  V30 12030 H 1126.33 -1.70594 2.46045 0
M  V30 12031 H 1123.88 -0.819306 1.1842 0
M  V30 12032 H 1125.83 -3.94156 1.4906 0
M  V30 12033 H 1124.56 -3.23194 0.470466 0
M  V30 12034 H 1123.22 -2.65838 2.5244 0
M  V30 12035 H 1122.86 -4.84297 1.35887 0
M  V30 12036 H 1122.56 -4.9861 3.10906 0
M  V30 12037 H 1124.09 -5.6083 2.41459 0
M  V30 12038 H 1125.5 -4.0451 4.06257 0
M  V30 12039 H 1123.9 -3.66148 4.75453 0
M  V30 12040 H 1124.97 -2.34277 4.24549 0
M  V30 12041 N 1126.31 -1.30234 -0.887518 0
M  V30 12042 C 1127.28 -1.16384 -1.97452 0
M  V30 12043 C 1128.28 -0.0957942 -1.60514 0
M  V30 12044 O 1129.47 -0.343706 -1.70776 0
M  V30 12045 C 1126.6 -0.782514 -3.31797 0
M  V30 12046 H 1127.79 -2.12952 -2.11167 0
M  V30 12047 H 1125.34 -1.13594 -1.07359 0
M  V30 12048 H 1126.08 0.18278 -3.23785 0
M  V30 12049 H 1125.86 -1.55434 -3.59976 0
M  V30 12050 H 1127.35 -0.709011 -4.11537 0
M  V30 12051 N 1127.79 1.09952 -1.12909 0
M  V30 12052 C 1129.02 1.8633 -0.910821 0
M  V30 12053 C 1129.44 1.80335 0.534874 0
M  V30 12054 O 1128.8 1.1769 1.37908 0
M  V30 12055 C 1128.85 3.32462 -1.39648 0
M  V30 12056 O 1127.95 4.08327 -0.578192 0
M  V30 12057 H 1127.29 0.577984 -0.32685 0
M  V30 12058 H 1129.82 1.38883 -1.50242 0
M  V30 12059 H 1129.83 3.83311 -1.39774 0
M  V30 12060 H 1128.51 3.36141 -2.44913 0
M  V30 12061 H 1127.08 3.67291 -0.644347 0
M  V30 12062 N 1129.27 0.921757 1.27833 0
M  V30 12063 C 1130.18 0.421668 2.30779 0
M  V30 12064 C 1131.19 -0.494686 1.6682 0
M  V30 12065 O 1132.37 -0.378935 1.97803 0
M  V30 12066 C 1129.44 -0.322928 3.45193 0
M  V30 12067 C 1128.5 0.627618 4.24687 0
M  V30 12068 C 1127.73 -0.0815385 5.33638 0
M  V30 12069 O 1127.95 -1.30193 5.55343 0
M  V30 12070 O 1126.89 0.58725 5.99028 0
M  V30 12071 H 1130.71 1.2763 2.7558 0
M  V30 12072 H 1128.3 0.686877 1.32674 0
M  V30 12073 H 1130.18 -0.743145 4.14796 0
M  V30 12074 H 1128.85 -1.15326 3.02459 0
M  V30 12075 H 1127.76 1.09739 3.57642 0
M  V30 12076 H 1129.09 1.425 4.71121 0
M  V30 12077 N 1130.75 -1.41857 0.686609 0
M  V30 12078 C 1131.68 -2.33481 0.0298353 0
M  V30 12079 C 1132.66 -1.51329 -0.776756 0
M  V30 12080 O 1133.84 -1.79895 -0.731535 0
M  V30 12081 C 1130.97 -3.35065 -0.913707 0
M  V30 12082 C 1129.93 -4.2746 -0.214861 0
M  V30 12083 C 1129.25 -5.19346 -1.27215 0
M  V30 12084 C 1130.55 -5.14252 0.913367 0
M  V30 12085 H 1132.25 -2.8865 0.795067 0
M  V30 12086 H 1129.79 -1.38792 0.383785 0
M  V30 12087 H 1131.75 -3.98082 -1.38234 0
M  V30 12088 H 1130.47 -2.78226 -1.7105 0
M  V30 12089 H 1129.13 -3.65855 0.233651 0
M  V30 12090 H 1128.78 -4.58827 -2.06124 0
M  V30 12091 H 1128.48 -5.81996 -0.80961 0
M  V30 12092 H 1130 -5.85239 -1.74147 0
M  V30 12093 H 1131.41 -5.70887 0.525424 0
M  V30 12094 H 1129.81 -5.85796 1.30244 0
M  V30 12095 H 1130.88 -4.51949 1.75699 0
M  V30 12096 N 1132.22 -0.430739 -1.51599 0
M  V30 12097 C 1133.45 0.139197 -2.06932 0
M  V30 12098 C 1133.87 1.3626 -1.29672 0
M  V30 12099 O 1133.23 1.78219 -0.332836 0
M  V30 12100 C 1133.28 0.446593 -3.57824 0
M  V30 12101 O 1132.38 1.53414 -3.82803 0
M  V30 12102 H 1131.73 0.00475812 -0.663983 0
M  V30 12103 H 1134.26 -0.610171 -1.9529 0
M  V30 12104 H 1134.27 0.698972 -4.01968 0
M  V30 12105 H 1132.94 -0.447613 -4.13484 0
M  V30 12106 H 1131.52 1.27224 -3.50526 0
M  V30 12107 N 1133.7 1.56767 -0.161869 0
M  V30 12108 C 1134.95 1.96594 0.485496 0
M  V30 12109 C 1135.28 1.04743 1.63887 0
M  V30 12110 O 1134.53 0.079602 1.95538 0
M  V30 12111 C 1134.83 3.42567 1.01894 0
M  V30 12112 C 1134.5 4.50897 -0.0175419 0
M  V30 12113 C 1133.16 4.80249 -0.302429 0
M  V30 12114 C 1135.51 5.16181 -0.721572 0
M  V30 12115 C 1132.84 5.72187 -1.2969 0
M  V30 12116 C 1135.19 6.09191 -1.70496 0
M  V30 12117 C 1133.86 6.36915 -1.99739 0
M  V30 12118 H 1133.13 0.719388 0.177656 0
M  V30 12119 H 1135.77 1.89837 -0.251839 0
M  V30 12120 H 1134.08 3.4623 1.83391 0
M  V30 12121 H 1135.77 3.70719 1.52867 0
M  V30 12122 H 1132.36 4.28062 0.21468 0
M  V30 12123 H 1136.55 4.93624 -0.514681 0
M  V30 12124 H 1131.8 5.91953 -1.52974 0
M  V30 12125 H 1135.98 6.58849 -2.25591 0
M  V30 12126 H 1133.61 7.07958 -2.76948 0
M  V30 12127 N 1135.18 -0.111886 1.57202 0
M  V30 12128 C 1136.46 -0.849125 1.76208 0
M  V30 12129 C 1136.84 -1.97735 0.73919 0
M  V30 12130 O 1136.19 -2.27283 -0.235523 0
M  V30 12131 C 1136.4 -1.35924 3.21443 0
M  V30 12132 C 1137.74 -1.80874 3.84148 0
M  V30 12133 O 1138.77 -1.45587 3.25089 0
M  V30 12134 O 1137.63 -2.46065 4.87969 0
M  V30 12135 H 1134.72 -0.403761 0.721738 0
M  V30 12136 H 1137.27 -0.0950726 1.69433 0
M  V30 12137 H 1136.04 -0.550113 3.87414 0
M  V30 12138 H 1135.66 -2.17579 3.32784 0
M  V30 12139 N 1136.66 -1.52894 -0.382264 0
M  V30 12140 C 1137.91 -1.68266 -1.12663 0
M  V30 12141 C 1138.23 -0.425974 -1.89778 0
M  V30 12142 O 1137.49 0.59178 -1.86538 0
M  V30 12143 C 1137.79 -2.87309 -2.12576 0
M  V30 12144 C 1137.45 -4.24484 -1.52067 0
M  V30 12145 C 1136.12 -4.6179 -1.35292 0
M  V30 12146 C 1138.47 -5.09858 -1.08138 0
M  V30 12147 C 1135.8 -5.82123 -0.731449 0
M  V30 12148 C 1138.15 -6.30822 -0.473986 0
M  V30 12149 C 1136.81 -6.66854 -0.293585 0
M  V30 12150 H 1136.08 -0.615728 -0.412262 0
M  V30 12151 H 1138.73 -1.8705 -0.410425 0
M  V30 12152 H 1137.03 -2.62968 -2.90439 0
M  V30 12153 H 1138.73 -2.96397 -2.70092 0
M  V30 12154 H 1135.32 -3.951 -1.66114 0
M  V30 12155 H 1139.5 -4.816 -1.19898 0
M  V30 12156 H 1134.76 -6.08643 -0.579938 0
M  V30 12157 H 1138.93 -6.96287 -0.125324 0
M  V30 12158 H 1136.56 -7.59962 0.190054 0
M  V30 12159 N 1138.14 0.641106 -1.43971 0
M  V30 12160 C 1139.55 0.958161 -1.27638 0
M  V30 12161 C 1139.75 2.00456 -0.204885 0
M  V30 12162 O 1138.81 2.49106 0.412606 0
M  V30 12163 C 1140.12 1.43091 -2.64472 0
M  V30 12164 C 1141.67 1.54692 -2.72102 0
M  V30 12165 C 1142.15 2.05353 -4.09382 0
M  V30 12166 N 1143.64 2.12638 -4.11509 0
M  V30 12167 C 1144.37 2.52987 -5.14573 0
M  V30 12168 N 1143.87 2.92544 -6.28005 0
M  V30 12169 N 1145.66 2.53033 -5.01927 0
M  V30 12170 H 1137.81 -0.0510973 -2.12339 0
M  V30 12171 H 1140.07 0.039748 -0.947166 0
M  V30 12172 H 1139.78 0.736389 -3.43904 0
M  V30 12173 H 1139.65 2.40375 -2.90688 0
M  V30 12174 H 1142.04 2.23242 -1.92994 0
M  V30 12175 H 1142.12 0.558083 -2.49638 0
M  V30 12176 H 1141.77 1.37401 -4.88962 0
M  V30 12177 H 1141.7 3.0509 -4.29218 0
M  V30 12178 H 1144.19 1.84792 -3.29636 0
M  V30 12179 H 1144.5 3.22116 -7.02468 0
M  V30 12180 H 1142.85 2.90319 -6.31458 0
M  V30 12181 H 1146.04 2.21514 -4.1237 0
M  V30 12182 H 1146.21 2.84155 -5.82375 0
M  V30 12183 N 1139.62 1.30703 0.880598 0
M  V30 12184 C 1140.86 1.19142 1.62752 0
M  V30 12185 C 1141.18 -0.251795 1.93973 0
M  V30 12186 O 1142.38 -0.488971 2.67061 0
M  V30 12187 C 1140.84 2.08503 2.93351 0
M  V30 12188 C 1140.45 3.57758 2.69653 0
M  V30 12189 C 1142.19 2.05715 3.71324 0
M  V30 12190 C 1140.1 4.39161 3.96096 0
M  V30 12191 H 1139.03 0.442332 0.610622 0
M  V30 12192 H 1141.68 1.55483 0.974547 0
M  V30 12193 H 1140.06 1.65049 3.59965 0
M  V30 12194 H 1141.24 4.09388 2.11513 0
M  V30 12195 H 1139.55 3.62414 2.0505 0
M  V30 12196 H 1142.15 2.63783 4.65105 0
M  V30 12197 H 1142.49 1.04168 4.03057 0
M  V30 12198 H 1143.02 2.47313 3.11579 0
M  V30 12199 H 1139.76 5.4142 3.69519 0
M  V30 12200 H 1139.28 3.92293 4.53725 0
M  V30 12201 H 1140.96 4.50823 4.64077 0
M  V30 12202 N 1141.09 -1.09351 1.1349 0
M  V30 12203 C 1142 -2.19564 0.826366 0
M  V30 12204 C 1143.02 -1.72967 -0.189339 0
M  V30 12205 O 1144.2 -2.0139 -0.0202033 0
M  V30 12206 C 1141.26 -3.4542 0.297685 0
M  V30 12207 C 1140.32 -4.06694 1.37473 0
M  V30 12208 C 1139.55 -5.26542 0.871183 0
M  V30 12209 O 1139.78 -5.69657 -0.290958 0
M  V30 12210 O 1138.71 -5.78961 1.64584 0
M  V30 12211 H 1142.54 -2.4841 1.74718 0
M  V30 12212 H 1140.12 -1.18302 0.912414 0
M  V30 12213 H 1142 -4.21399 0.00829479 0
M  V30 12214 H 1140.68 -3.18175 -0.595536 0
M  V30 12215 H 1139.59 -3.32347 1.71745 0
M  V30 12216 H 1140.92 -4.38166 2.24212 0
M  V30 12217 N 1142.57 -0.928524 -1.27343 0
M  V30 12218 C 1143.8 -0.58516 -1.98974 0
M  V30 12219 C 1144.22 0.829964 -1.68799 0
M  V30 12220 O 1143.58 1.55705 -0.928738 0
M  V30 12221 C 1143.63 -0.818662 -3.51184 0
M  V30 12222 O 1142.73 0.115355 -4.12239 0
M  V30 12223 H 1142.07 -0.225203 -0.624644 0
M  V30 12224 H 1144.6 -1.248 -1.6213 0
M  V30 12225 H 1144.61 -0.734554 -4.01333 0
M  V30 12226 H 1143.29 -1.8502 -3.72479 0
M  V30 12227 H 1141.86 -0.0187371 -3.72895 0
M  V30 12228 N 1144.05 1.41491 -0.694123 0
M  V30 12229 C 1145.3 2.0155 -0.224809 0
M  V30 12230 C 1145.63 1.54844 1.17205 0
M  V30 12231 O 1144.9 0.75899 1.7908 0
M  V30 12232 C 1145.19 3.59003 -0.280884 0
M  V30 12233 C 1145.04 4.15839 -1.71458 0
M  V30 12234 C 1146.36 4.38624 0.360122 0
M  V30 12235 H 1143.48 0.732293 -0.0831632 0
M  V30 12236 H 1146.12 1.68258 -0.882569 0
M  V30 12237 H 1144.27 3.87496 0.279164 0
M  V30 12238 H 1145.94 3.98227 -2.32837 0
M  V30 12239 H 1144.18 3.70936 -2.2492 0
M  V30 12240 H 1144.86 5.24997 -1.70536 0
M  V30 12241 H 1147.33 4.15936 -0.11683 0
M  V30 12242 H 1146.21 5.48132 0.290337 0
M  V30 12243 H 1146.47 4.1797 1.44062 0
M  V30 12244 N 1145.53 0.438773 1.51369 0
M  V30 12245 C 1146.77 -0.127401 2.02399 0
M  V30 12246 C 1147.11 -1.42235 1.32223 0
M  V30 12247 O 1146.38 -1.89513 0.437607 0
M  V30 12248 C 1146.66 -0.344673 3.58447 0
M  V30 12249 C 1146.52 0.969027 4.39238 0
M  V30 12250 C 1147.84 -1.11381 4.25773 0
M  V30 12251 H 1144.96 -0.0448281 0.735635 0
M  V30 12252 H 1147.6 0.57805 1.80993 0
M  V30 12253 H 1145.75 -0.945582 3.76817 0
M  V30 12254 H 1147.42 1.60403 4.32514 0
M  V30 12255 H 1145.66 1.57329 4.04265 0
M  V30 12256 H 1146.33 0.771029 5.46589 0
M  V30 12257 H 1148.81 -0.604785 4.11681 0
M  V30 12258 H 1147.69 -1.23459 5.34835 0
M  V30 12259 H 1147.95 -2.14225 3.8673 0
M  V30 12260 N 1147.01 -1.56678 0.170181 0
M  V30 12261 C 1148.25 -1.98743 -0.477534 0
M  V30 12262 C 1148.61 -1.0538 -1.60497 0
M  V30 12263 O 1149.81 -1.3658 -2.31515 0
M  V30 12264 C 1148.08 -3.44565 -0.949186 0
M  V30 12265 S 1149.64 -4.08658 -1.59824 0
M  V30 12266 H 1146.46 -0.694202 -0.153639 0
M  V30 12267 H 1149.06 -1.93663 0.267373 0
M  V30 12268 H 1147.76 -4.1023 -0.118205 0
M  V30 12269 H 1147.3 -3.53409 -1.72816 0
M  V30 12270 H 1149.31 -4.03614 -2.88635 0
M  V30 12271 N 1148.48 0.103547 -1.57259 0
M  V30 12272 C 1149.41 1.12714 -2.04494 0
M  V30 12273 C 1150.39 1.42278 -0.932255 0
M  V30 12274 O 1151.58 1.52453 -1.20298 0
M  V30 12275 C 1148.71 2.44927 -2.46228 0
M  V30 12276 C 1147.66 2.2979 -3.61082 0
M  V30 12277 C 1146.99 3.67105 -3.88765 0
M  V30 12278 C 1148.29 1.7455 -4.9227 0
M  V30 12279 H 1149.98 0.734198 -2.90258 0
M  V30 12280 H 1147.53 0.351725 -1.39638 0
M  V30 12281 H 1149.48 3.16798 -2.77879 0
M  V30 12282 H 1148.21 2.8614 -1.57453 0
M  V30 12283 H 1146.87 1.60366 -3.29664 0
M  V30 12284 H 1146.51 4.05831 -2.97171 0
M  V30 12285 H 1146.21 3.57825 -4.66084 0
M  V30 12286 H 1147.74 4.40456 -4.22884 0
M  V30 12287 H 1149.15 2.36253 -5.22358 0
M  V30 12288 H 1147.55 1.76051 -5.73695 0
M  V30 12289 H 1148.62 0.704242 -4.79759 0
M  V30 12290 N 1149.96 1.53094 0.37415 0
M  V30 12291 C 1150.89 1.75199 1.47776 0
M  V30 12292 C 1151.91 0.632627 1.50006 0
M  V30 12293 O 1153.1 0.908688 1.5364 0
M  V30 12294 C 1150.2 1.80909 2.86575 0
M  V30 12295 C 1149.37 3.10432 3.08141 0
M  V30 12296 C 1148.43 3.07495 4.27005 0
M  V30 12297 O 1147.45 3.81319 4.22592 0
M  V30 12298 N 1148.66 2.27715 5.33972 0
M  V30 12299 H 1151.42 2.70423 1.29196 0
M  V30 12300 H 1148.98 1.51766 0.563802 0
M  V30 12301 H 1150.97 1.76432 3.64217 0
M  V30 12302 H 1149.54 0.930074 2.98443 0
M  V30 12303 H 1148.76 3.2828 2.18233 0
M  V30 12304 H 1150.05 3.96047 3.19413 0
M  V30 12305 H 1149.45 1.67231 5.40417 0
M  V30 12306 H 1148.01 2.29065 6.10223 0
M  V30 12307 N 1151.44 -0.633461 1.44309 0
M  V30 12308 C 1152.72 -1.3917 1.37444 0
M  V30 12309 C 1153.1 -2.11076 0.0319994 0
M  V30 12310 O 1152.44 -2.06164 -0.98533 0
M  V30 12311 C 1152.65 -2.36005 2.57104 0
M  V30 12312 C 1154 -2.99407 3.01065 0
M  V30 12313 O 1155.03 -2.46331 2.57292 0
M  V30 12314 O 1153.89 -3.95686 3.76954 0
M  V30 12315 H 1150.98 -0.622746 0.544166 0
M  V30 12316 H 1153.53 -0.658712 1.56394 0
M  V30 12317 H 1152.3 -1.81955 3.46422 0
M  V30 12318 H 1151.92 -3.16725 2.40356 0
M  V30 12319 N 1152.92 -1.31168 -0.873655 0
M  V30 12320 C 1154.14 -1.23728 -1.66452 0
M  V30 12321 C 1154.57 0.194869 -1.87088 0
M  V30 12322 O 1153.93 1.1397 -1.40998 0
M  V30 12323 C 1153.97 -1.98285 -3.0119 0
M  V30 12324 O 1153.08 -1.31767 -3.90783 0
M  V30 12325 H 1152.42 -0.427362 -0.508191 0
M  V30 12326 H 1154.95 -1.73176 -1.08955 0
M  V30 12327 H 1154.96 -2.0774 -3.51153 0
M  V30 12328 H 1153.63 -3.02437 -2.8549 0
M  V30 12329 H 1152.21 -1.3074 -3.4923 0
M  V30 12330 N 1154.4 1.08748 -1.14068 0
M  V30 12331 C 1155.64 1.81333 -0.908081 0
M  V30 12332 C 1155.98 1.85826 0.564112 0
M  V30 12333 O 1155.25 1.33157 1.41773 0
M  V30 12334 C 1155.53 3.27127 -1.50531 0
M  V30 12335 C 1155.39 3.30865 -3.04711 0
M  V30 12336 C 1156.71 4.24006 -1.17928 0
M  V30 12337 H 1153.82 0.658326 -0.331325 0
M  V30 12338 H 1156.47 1.27345 -1.41008 0
M  V30 12339 H 1154.62 3.73233 -1.07839 0
M  V30 12340 H 1156.29 2.93109 -3.56209 0
M  V30 12341 H 1154.53 2.70241 -3.39341 0
M  V30 12342 H 1155.2 4.33603 -3.41603 0
M  V30 12343 H 1157.68 3.86221 -1.54831 0
M  V30 12344 H 1156.55 5.2434 -1.62353 0
M  V30 12345 H 1156.82 4.42 -0.0940349 0
M  V30 12346 N 1155.87 0.935264 1.26849 0
M  V30 12347 C 1156.8 0.457776 2.28969 0
M  V30 12348 C 1157.79 -0.48587 1.63013 0
M  V30 12349 O 1158.97 -0.388998 1.90264 0
M  V30 12350 C 1156.1 -0.283332 3.46142 0
M  V30 12351 C 1155.05 0.573196 4.24144 0
M  V30 12352 C 1154.38 -0.297525 5.33872 0
M  V30 12353 C 1155.68 1.84153 4.88759 0
M  V30 12354 H 1157.37 1.31125 2.69159 0
M  V30 12355 H 1154.92 0.631956 1.29392 0
M  V30 12356 H 1156.87 -0.628366 4.16689 0
M  V30 12357 H 1155.6 -1.1709 3.04889 0
M  V30 12358 H 1154.26 0.901043 3.55354 0
M  V30 12359 H 1153.9 -1.18427 4.8886 0
M  V30 12360 H 1153.6 0.272126 5.8697 0
M  V30 12361 H 1155.13 -0.637961 6.07258 0
M  V30 12362 H 1156.54 1.5641 5.51551 0
M  V30 12363 H 1154.94 2.35528 5.51948 0
M  V30 12364 H 1156.01 2.5565 4.12033 0
M  V30 12365 N 1157.35 -1.41121 0.701616 0
M  V30 12366 C 1158.32 -2.29148 0.0490091 0
M  V30 12367 C 1159.32 -1.44679 -0.701763 0
M  V30 12368 O 1160.51 -1.65757 -0.53575 0
M  V30 12369 C 1157.64 -3.2766 -0.940837 0
M  V30 12370 H 1158.83 -2.88354 0.824133 0
M  V30 12371 H 1156.38 -1.49209 0.465457 0
M  V30 12372 H 1157.12 -2.73445 -1.74351 0
M  V30 12373 H 1156.9 -3.89997 -0.405551 0
M  V30 12374 H 1158.39 -3.93609 -1.39507 0
M  V30 12375 N 1158.83 -0.446794 -1.51134 0
M  V30 12376 C 1160.08 0.116493 -2.02165 0
M  V30 12377 C 1160.41 1.41884 -1.33039 0
M  V30 12378 O 1159.66 1.90757 -0.437071 0
M  V30 12379 C 1159.96 0.373015 -3.55448 0
M  V30 12380 C 1159.63 -0.844659 -4.42918 0
M  V30 12381 C 1158.29 -1.17857 -4.66544 0
M  V30 12382 C 1160.64 -1.65653 -4.94174 0
M  V30 12383 C 1157.97 -2.32486 -5.38672 0
M  V30 12384 C 1160.32 -2.7939 -5.6756 0
M  V30 12385 C 1158.98 -3.13224 -5.89446 0
M  V30 12386 H 1158.25 0.0426279 -0.739773 0
M  V30 12387 H 1160.9 -0.595921 -1.81992 0
M  V30 12388 H 1159.21 1.16742 -3.74003 0
M  V30 12389 H 1160.9 0.822425 -3.92476 0
M  V30 12390 H 1157.49 -0.574478 -4.24733 0
M  V30 12391 H 1161.68 -1.41176 -4.75797 0
M  V30 12392 H 1156.93 -2.59003 -5.5383 0
M  V30 12393 H 1161.11 -3.42662 -6.06264 0
M  V30 12394 H 1158.73 -4.02158 -6.45115 0
M  V30 12395 N 1160.31 1.56586 -0.178487 0
M  V30 12396 C 1161.55 1.98159 0.45876 0
M  V30 12397 C 1161.91 1.0629 1.60375 0
M  V30 12398 O 1161.2 0.103975 1.91318 0
M  V30 12399 C 1161.4 3.43629 0.982552 0
M  V30 12400 C 1161.23 4.49565 -0.110152 0
M  V30 12401 C 1160 5.02162 -0.562228 0
M  V30 12402 C 1162.19 5.06129 -0.913143 0
M  V30 12403 N 1160.18 5.91741 -1.63449 0
M  V30 12404 C 1161.55 5.92217 -1.83517 0
M  V30 12405 C 1163.6 4.88608 -0.957421 0
M  V30 12406 C 1162.3 6.6266 -2.79775 0
M  V30 12407 C 1164.33 5.59777 -1.90798 0
M  V30 12408 C 1163.69 6.45599 -2.81747 0
M  V30 12409 H 1159.79 0.770124 0.13577 0
M  V30 12410 H 1162.38 1.92671 -0.280358 0
M  V30 12411 H 1160.55 3.49649 1.69117 0
M  V30 12412 H 1162.28 3.72199 1.58902 0
M  V30 12413 H 1159.03 4.73334 -0.158612 0
M  V30 12414 H 1159.46 6.41235 -2.17132 0
M  V30 12415 H 1164.1 4.21948 -0.268285 0
M  V30 12416 H 1161.82 7.28529 -3.49673 0
M  V30 12417 H 1165.4 5.48204 -1.94844 0
M  V30 12418 H 1164.28 6.99701 -3.54102 0
M  V30 12419 N 1161.79 -0.095206 1.57312 0
M  V30 12420 C 1162.73 -1.11551 2.02052 0
M  V30 12421 C 1163.7 -1.39808 0.896818 0
M  V30 12422 O 1164.89 -1.51273 1.1628 0
M  V30 12423 C 1162.03 -2.43056 2.44985 0
M  V30 12424 C 1161.14 -2.21531 3.70875 0
M  V30 12425 C 1160.28 -3.46434 4.02687 0
M  V30 12426 C 1159.32 -3.2017 5.21687 0
M  V30 12427 N 1158.45 -4.37339 5.49253 0
M  V30 12428 H 1163.29 -0.727 2.88996 0
M  V30 12429 H 1160.83 -0.347441 1.42938 0
M  V30 12430 H 1162.79 -3.19803 2.67921 0
M  V30 12431 H 1161.42 -2.79754 1.61051 0
M  V30 12432 H 1160.47 -1.35587 3.55416 0
M  V30 12433 H 1161.78 -1.98116 4.57768 0
M  V30 12434 H 1160.94 -4.31589 4.26399 0
M  V30 12435 H 1159.67 -3.72904 3.14315 0
M  V30 12436 H 1158.68 -2.33409 4.97796 0
M  V30 12437 H 1159.9 -2.95047 6.11657 0
M  V30 12438 H 1157.85 -4.63885 4.6384 0
M  V30 12439 H 1157.77 -4.17114 6.30517 0
M  V30 12440 H 1159.04 -5.23559 5.775 0
M  V30 12441 N 1163.26 -1.53291 -0.366026 0
M  V30 12442 C 1164.21 -1.76077 -1.44847 0
M  V30 12443 C 1165.2 -0.615302 -1.4867 0
M  V30 12444 O 1166.39 -0.873952 -1.53919 0
M  V30 12445 C 1163.52 -1.95371 -2.82286 0
M  V30 12446 C 1162.61 -3.15918 -2.82943 0
M  V30 12447 N 1163 -4.37835 -2.53247 0
M  V30 12448 C 1161.29 -3.16631 -3.14103 0
M  V30 12449 C 1162 -5.19573 -2.6157 0
M  V30 12450 N 1160.97 -4.55773 -2.96263 0
M  V30 12451 H 1164.77 -2.67949 -1.2075 0
M  V30 12452 H 1162.29 -1.5191 -0.574206 0
M  V30 12453 H 1164.28 -2.09823 -3.6025 0
M  V30 12454 H 1162.94 -1.04727 -3.07347 0
M  V30 12455 H 1163.96 -4.65575 -2.26848 0
M  V30 12456 H 1160.63 -2.35878 -3.44482 0
M  V30 12457 H 1162.02 -6.26821 -2.41961 0
M  V30 12458 N 1164.74 0.6258 -1.44643 0
M  V30 12459 C 1165.99 1.38251 -1.47414 0
M  V30 12460 C 1166.31 1.94689 -0.110043 0
M  V30 12461 O 1165.58 1.76095 0.858333 0
M  V30 12462 H 1164.16 0.513179 -0.542823 0
M  V30 12463 H 1166.82 0.736179 -1.80462 0
M  V30 12464 H 1165.92 2.21115 -2.2026 0
M  V30 12465 N 1166.22 1.31629 0.866686 0
M  V30 12466 C 1167.15 1.13886 1.9775 0
M  V30 12467 C 1168.13 0.0414887 1.62547 0
M  V30 12468 O 1169.32 0.198534 1.87452 0
M  V30 12469 C 1166.44 0.740858 3.30498 0
M  V30 12470 C 1165.49 1.84175 3.84684 0
M  V30 12471 S 1166.32 3.44781 4.09739 0
M  V30 12472 C 1167.48 3.06925 5.45479 0
M  V30 12473 H 1167.71 2.07923 2.12497 0
M  V30 12474 H 1165.24 1.16152 1.01725 0
M  V30 12475 H 1167.2 0.517974 4.07219 0
M  V30 12476 H 1165.86 -0.18045 3.13581 0
M  V30 12477 H 1165.06 1.51597 4.8066 0
M  V30 12478 H 1164.66 2.01986 3.14766 0
M  V30 12479 H 1166.95 2.56022 6.27263 0
M  V30 12480 H 1167.89 4.01877 5.8301 0
M  V30 12481 H 1168.3 2.44276 5.0891 0
M  V30 12482 N 1167.7 -1.08142 1.14644 0
M  V30 12483 C 1168.63 -2.15022 0.793614 0
M  V30 12484 C 1169.64 -1.61679 -0.190729 0
M  V30 12485 O 1170.83 -1.78472 0.0313696 0
M  V30 12486 C 1167.93 -3.38532 0.157785 0
M  V30 12487 C 1167.11 -4.21252 1.17753 0
M  V30 12488 C 1166.17 -5.23158 0.564968 0
M  V30 12489 O 1165.19 -5.5578 1.22869 0
M  V30 12490 N 1166.39 -5.7677 -0.657022 0
M  V30 12491 H 1169.16 -2.45893 1.71338 0
M  V30 12492 H 1166.72 -1.23976 1.04122 0
M  V30 12493 H 1168.71 -4.03834 -0.264586 0
M  V30 12494 H 1167.28 -3.05441 -0.665168 0
M  V30 12495 H 1166.5 -3.51888 1.77675 0
M  V30 12496 H 1167.79 -4.73335 1.86632 0
M  V30 12497 H 1167.19 -5.52503 -1.21478 0
M  V30 12498 H 1165.74 -6.4374 -1.02186 0
M  V30 12499 N 1169.18 -0.941978 -1.26351 0
M  V30 12500 C 1170.43 -0.588806 -1.93333 0
M  V30 12501 C 1170.75 0.875067 -1.74263 0
M  V30 12502 O 1170.02 1.62187 -1.09873 0
M  V30 12503 H 1168.6 -0.214774 -0.715459 0
M  V30 12504 H 1171.26 -1.19747 -1.53774 0
M  V30 12505 H 1170.35 -0.807267 -3.01479 0
M  V30 12506 N 1170.66 1.40747 -0.709091 0
M  V30 12507 C 1171.6 2.30741 -0.0523584 0
M  V30 12508 C 1172.57 1.4784 0.757145 0
M  V30 12509 O 1173.76 1.76595 0.72242 0
M  V30 12510 C 1170.9 3.34 0.868203 0
M  V30 12511 C 1170.01 4.31972 0.0488686 0
M  V30 12512 C 1169.15 5.223 0.968311 0
M  V30 12513 C 1168.18 6.11934 0.142682 0
M  V30 12514 N 1167.32 6.947 1.01665 0
M  V30 12515 H 1172.16 2.86338 -0.825509 0
M  V30 12516 H 1169.7 1.41013 -0.418785 0
M  V30 12517 H 1171.66 3.92431 1.41611 0
M  V30 12518 H 1170.29 2.79921 1.6076 0
M  V30 12519 H 1169.34 3.75377 -0.616137 0
M  V30 12520 H 1170.65 4.95291 -0.590625 0
M  V30 12521 H 1169.8 5.85631 1.58498 0
M  V30 12522 H 1168.54 4.5924 1.64164 0
M  V30 12523 H 1167.55 5.47639 -0.486965 0
M  V30 12524 H 1168.77 6.77052 -0.527046 0
M  V30 12525 H 1166.72 6.34236 1.67575 0
M  V30 12526 H 1166.64 7.54759 0.433045 0
M  V30 12527 H 1167.9 7.62487 1.6197 0
M  V30 12528 N 1172.13 0.454803 1.50895 0
M  V30 12529 C 1173.36 -0.106259 2.07128 0
M  V30 12530 C 1173.78 -1.3418 1.31823 0
M  V30 12531 O 1173.14 -1.77667 0.361147 0
M  V30 12532 C 1173.19 -0.389609 3.58489 0
M  V30 12533 O 1172.29 -1.47305 3.85195 0
M  V30 12534 H 1171.63 0.00580588 0.663975 0
M  V30 12535 H 1174.16 0.641163 1.94294 0
M  V30 12536 H 1174.17 -0.634934 4.03029 0
M  V30 12537 H 1172.85 0.513338 4.1272 0
M  V30 12538 H 1171.43 -1.21631 3.52506 0
M  V30 12539 N 1173.61 -1.56489 0.186789 0
M  V30 12540 C 1174.86 -1.97341 -0.454158 0
M  V30 12541 C 1175.19 -1.07337 -1.622 0
M  V30 12542 O 1174.44 -0.1107 -1.95387 0
M  V30 12543 C 1174.74 -3.44145 -0.964315 0
M  V30 12544 C 1174.41 -4.50812 0.0892734 0
M  V30 12545 C 1173.07 -4.79707 0.378794 0
M  V30 12546 C 1175.42 -5.14968 0.8036 0
M  V30 12547 C 1172.75 -5.70051 1.38776 0
M  V30 12548 C 1175.1 -6.06402 1.80166 0
M  V30 12549 C 1173.76 -6.33657 2.09847 0
M  V30 12550 H 1173.03 -0.722124 -0.166188 0
M  V30 12551 H 1175.68 -1.89412 0.282008 0
M  V30 12552 H 1173.99 -3.49103 -1.7786 0
M  V30 12553 H 1175.68 -3.73104 -1.4695 0
M  V30 12554 H 1172.27 -4.28349 -0.146552 0
M  V30 12555 H 1176.46 -4.92743 0.593147 0
M  V30 12556 H 1171.71 -5.89445 1.62373 0
M  V30 12557 H 1175.89 -6.55176 2.36045 0
M  V30 12558 H 1173.51 -7.03462 2.88175 0
M  V30 12559 N 1175.09 0.086862 -1.5736 0
M  V30 12560 C 1176.04 1.10478 -2.02641 0
M  V30 12561 C 1177.01 1.39331 -0.904219 0
M  V30 12562 O 1178.19 1.50654 -1.17081 0
M  V30 12563 C 1175.33 2.41754 -2.4627 0
M  V30 12564 C 1174.44 2.19561 -3.72044 0
M  V30 12565 C 1173.58 3.44294 -4.04519 0
M  V30 12566 C 1172.62 3.17399 -5.23378 0
M  V30 12567 N 1171.76 4.3442 -5.51564 0
M  V30 12568 H 1176.6 0.711663 -2.89378 0
M  V30 12569 H 1174.13 0.339856 -1.4312 0
M  V30 12570 H 1176.09 3.18378 -2.69613 0
M  V30 12571 H 1174.72 2.78896 -1.62532 0
M  V30 12572 H 1173.77 1.337 -3.5613 0
M  V30 12573 H 1175.08 1.95685 -4.58812 0
M  V30 12574 H 1174.24 4.29321 -4.28682 0
M  V30 12575 H 1172.98 3.71232 -3.16289 0
M  V30 12576 H 1171.98 2.30765 -4.99026 0
M  V30 12577 H 1173.21 2.91799 -6.13213 0
M  V30 12578 H 1171.15 4.61418 -4.66293 0
M  V30 12579 H 1171.07 4.13764 -6.3272 0
M  V30 12580 H 1172.34 5.20489 -5.80269 0
M  V30 12581 N 1176.57 1.53483 0.357892 0
M  V30 12582 C 1177.79 1.74264 1.12458 0
M  V30 12583 C 1178.22 0.473944 1.82031 0
M  V30 12584 O 1177.58 -0.57253 1.72023 0
M  V30 12585 C 1177.62 2.91356 2.12471 0
M  V30 12586 O 1176.73 2.60502 3.19707 0
M  V30 12587 H 1176.07 0.578499 0.325937 0
M  V30 12588 H 1178.6 2.00395 0.412666 0
M  V30 12589 H 1178.61 3.1774 2.5594 0
M  V30 12590 H 1177.28 3.83378 1.61226 0
M  V30 12591 H 1175.86 2.44961 2.81156 0
M  V30 12592 N 1178.05 -0.61812 1.44973 0
M  V30 12593 C 1179.32 -1.37705 1.38913 0
M  V30 12594 C 1179.7 -2.1103 0.054385 0
M  V30 12595 O 1179.05 -2.07197 -0.963409 0
M  V30 12596 C 1179.26 -2.33265 2.59593 0
M  V30 12597 C 1180.61 -2.96197 3.04224 0
M  V30 12598 O 1181.63 -2.43589 2.59891 0
M  V30 12599 O 1180.49 -3.91666 3.8113 0
M  V30 12600 H 1177.59 -0.61694 0.55074 0
M  V30 12601 H 1180.13 -0.642088 1.57084 0
M  V30 12602 H 1178.9 -1.78271 3.48332 0
M  V30 12603 H 1178.53 -3.14158 2.43702 0
M  V30 12604 N 1179.52 -1.32087 -0.859693 0
M  V30 12605 C 1180.43 -1.22587 -2.00024 0
M  V30 12606 C 1181.45 -0.140477 -1.73432 0
M  V30 12607 O 1182.63 -0.360213 -1.98153 0
M  V30 12608 C 1179.69 -0.944195 -3.33595 0
M  V30 12609 C 1178.75 -2.11752 -3.73443 0
M  V30 12610 C 1177.98 -1.84919 -5.0064 0
M  V30 12611 O 1178.21 -0.789299 -5.64913 0
M  V30 12612 O 1177.14 -2.70885 -5.37499 0
M  V30 12613 H 1180.97 -2.18457 -2.10974 0
M  V30 12614 H 1178.55 -1.11927 -0.989577 0
M  V30 12615 H 1180.43 -0.803389 -4.13671 0
M  V30 12616 H 1179.11 -0.0156083 -3.23696 0
M  V30 12617 H 1178.02 -2.31378 -2.93965 0
M  V30 12618 H 1179.35 -3.02872 -3.87981 0
M  V30 12619 N 1181 1.07532 -1.15215 0
M  V30 12620 C 1182.25 1.8036 -0.927263 0
M  V30 12621 C 1182.58 1.86414 0.544371 0
M  V30 12622 O 1181.86 1.34653 1.40353 0
M  V30 12623 C 1182.14 3.25512 -1.53992 0
M  V30 12624 C 1181.99 3.27614 -3.08203 0
M  V30 12625 C 1183.31 4.22731 -1.22418 0
M  V30 12626 H 1180.43 0.654775 -0.338289 0
M  V30 12627 H 1183.07 1.25842 -1.42351 0
M  V30 12628 H 1181.22 3.72068 -1.11791 0
M  V30 12629 H 1182.89 2.89315 -3.59297 0
M  V30 12630 H 1181.14 2.66627 -3.42188 0
M  V30 12631 H 1181.81 4.29956 -3.46182 0
M  V30 12632 H 1184.28 3.84557 -1.58919 0
M  V30 12633 H 1183.16 5.22589 -1.67906 0
M  V30 12634 H 1183.42 4.41875 -0.14091 0
M  V30 12635 N 1182.48 0.948665 1.2585 0
M  V30 12636 C 1183.71 0.617229 1.97479 0
M  V30 12637 C 1184.12 -0.809406 1.7057 0
M  V30 12638 O 1183.48 -1.54066 0.97826 0
M  V30 12639 C 1183.53 0.859065 3.51144 0
M  V30 12640 O 1183.25 2.2296 3.77121 0
M  V30 12641 C 1184.75 0.539197 4.40009 0
M  V30 12642 H 1181.97 0.231933 0.629641 0
M  V30 12643 H 1184.52 1.27141 1.60173 0
M  V30 12644 H 1182.67 0.25138 3.86584 0
M  V30 12645 H 1183.09 2.29524 4.71613 0
M  V30 12646 H 1184.56 0.758986 5.46757 0
M  V30 12647 H 1185.04 -0.526062 4.36038 0
M  V30 12648 H 1185.64 1.12594 4.10125 0
M  V30 12649 N 1183.96 -1.40369 0.716545 0
M  V30 12650 C 1184.89 -2.29186 0.0251905 0
M  V30 12651 C 1185.9 -1.45877 -0.722761 0
M  V30 12652 O 1187.09 -1.69155 -0.569982 0
M  V30 12653 C 1184.19 -3.24161 -0.988589 0
M  V30 12654 C 1183.37 -4.36329 -0.30597 0
M  V30 12655 C 1182.42 -5.11736 -1.22527 0
M  V30 12656 O 1181.45 -5.64758 -0.7097 0
M  V30 12657 N 1182.65 -5.21183 -2.55634 0
M  V30 12658 H 1185.42 -2.8916 0.787808 0
M  V30 12659 H 1182.98 -1.51749 0.564253 0
M  V30 12660 H 1184.97 -3.71479 -1.60578 0
M  V30 12661 H 1183.54 -2.65347 -1.65256 0
M  V30 12662 H 1182.76 -3.91125 0.491432 0
M  V30 12663 H 1184.05 -5.08523 0.167827 0
M  V30 12664 H 1183.45 -4.7959 -3.00017 0
M  V30 12665 H 1182 -5.72005 -3.12495 0
M  V30 12666 N 1185.44 -0.462799 -1.50652 0
M  V30 12667 C 1186.35 0.341191 -2.32106 0
M  V30 12668 C 1187.36 1.00384 -1.42123 0
M  V30 12669 O 1188.54 0.993635 -1.75182 0
M  V30 12670 C 1185.6 1.41356 -3.16575 0
M  V30 12671 C 1184.66 0.768375 -4.22368 0
M  V30 12672 C 1183.9 1.78964 -5.028 0
M  V30 12673 O 1184.12 3.01515 -4.84195 0
M  V30 12674 O 1183.05 1.36606 -5.86193 0
M  V30 12675 H 1186.88 -0.324482 -3.01962 0
M  V30 12676 H 1184.47 -0.224807 -1.47699 0
M  V30 12677 H 1186.35 2.0349 -3.69012 0
M  V30 12678 H 1185.02 2.06285 -2.49456 0
M  V30 12679 H 1183.93 0.108297 -3.73943 0
M  V30 12680 H 1185.26 0.162164 -4.91933 0
M  V30 12681 N 1186.91 1.56388 -0.195085 0
M  V30 12682 C 1188.16 1.96755 0.443901 0
M  V30 12683 C 1188.48 1.08483 1.6276 0
M  V30 12684 O 1189.68 1.38632 2.33438 0
M  V30 12685 C 1188.14 3.49933 0.841139 0
M  V30 12686 C 1187.75 4.46868 -0.318275 0
M  V30 12687 C 1189.49 3.99069 1.44721 0
M  V30 12688 C 1187.4 5.91316 0.0999211 0
M  V30 12689 H 1186.33 0.734674 0.169616 0
M  V30 12690 H 1188.98 1.8124 -0.287101 0
M  V30 12691 H 1187.36 3.60951 1.62881 0
M  V30 12692 H 1188.53 4.47581 -1.0958 0
M  V30 12693 H 1186.85 4.07925 -0.835842 0
M  V30 12694 H 1189.45 5.04465 1.77255 0
M  V30 12695 H 1189.79 3.43376 2.35369 0
M  V30 12696 H 1190.32 3.91165 0.723513 0
M  V30 12697 H 1187.06 6.50934 -0.77237 0
M  V30 12698 H 1186.58 5.93856 0.842304 0
M  V30 12699 H 1188.26 6.44778 0.535726 0
M  V30 12700 N 1188.39 -0.0785156 1.57404 0
M  V30 12701 C 1189.62 -0.795871 1.91522 0
M  V30 12702 C 1190.04 -1.70665 0.790892 0
M  V30 12703 O 1189.4 -1.79474 -0.25666 0
M  V30 12704 C 1189.45 -1.57121 3.24569 0
M  V30 12705 O 1188.55 -2.6814 3.13328 0
M  V30 12706 H 1187.89 -0.217575 0.627341 0
M  V30 12707 H 1190.42 -0.0487724 2.04542 0
M  V30 12708 H 1190.43 -1.9519 3.5828 0
M  V30 12709 H 1189.11 -0.902909 4.05981 0
M  V30 12710 H 1187.69 -2.32978 2.91163 0
M  V30 12711 N 1189.87 -1.5367 -0.349747 0
M  V30 12712 C 1191.15 -1.61238 -1.10732 0
M  V30 12713 C 1191.53 -0.429756 -2.06679 0
M  V30 12714 O 1190.88 0.578564 -2.21054 0
M  V30 12715 C 1191.09 -2.97022 -1.83245 0
M  V30 12716 C 1192.43 -3.52158 -2.37212 0
M  V30 12717 O 1193.46 -2.99156 -1.9335 0
M  V30 12718 O 1192.32 -4.44853 -3.1744 0
M  V30 12719 H 1189.41 -0.65191 -0.508864 0
M  V30 12720 H 1191.96 -1.66015 -0.351738 0
M  V30 12721 H 1190.73 -3.74535 -1.13311 0
M  V30 12722 H 1190.35 -2.95808 -2.65675 0
M  V30 12723 N 1191.35 0.610423 -1.45298 0
M  V30 12724 C 1192.26 1.74964 -1.56285 0
M  V30 12725 C 1193.27 1.68149 -0.447436 0
M  V30 12726 O 1194.45 1.88556 -0.707725 0
M  V30 12727 C 1191.52 3.11417 -1.52383 0
M  V30 12728 C 1190.58 3.29707 -2.7494 0
M  V30 12729 C 1189.81 4.5965 -2.71215 0
M  V30 12730 O 1190.03 5.41789 -1.78383 0
M  V30 12731 O 1188.97 4.80591 -3.62375 0
M  V30 12732 H 1192.79 1.68646 -2.52571 0
M  V30 12733 H 1190.38 0.774168 -1.27777 0
M  V30 12734 H 1192.26 3.9272 -1.52805 0
M  V30 12735 H 1190.93 3.18232 -0.592472 0
M  V30 12736 H 1189.84 2.48003 -2.80081 0
M  V30 12737 H 1191.17 3.27766 -3.67192 0
M  V30 12738 N 1192.83 1.32541 0.852676 0
M  V30 12739 C 1194.05 1.2622 1.6394 0
M  V30 12740 C 1194.47 -0.169455 1.88038 0
M  V30 12741 O 1193.83 -1.10719 1.45078 0
M  V30 12742 C 1193.88 2.02062 2.99755 0
M  V30 12743 O 1193.6 3.39641 2.76723 0
M  V30 12744 C 1195.1 2.02787 3.94198 0
M  V30 12745 H 1192.32 0.435405 0.510552 0
M  V30 12746 H 1194.86 1.74696 1.06309 0
M  V30 12747 H 1193.02 1.57303 3.54026 0
M  V30 12748 H 1193.43 3.78484 3.63111 0
M  V30 12749 H 1194.91 2.60333 4.86755 0
M  V30 12750 H 1195.38 1.01464 4.27319 0
M  V30 12751 H 1195.99 2.47504 3.45864 0
M  V30 12752 N 1194.3 -1.0692 1.15784 0
M  V30 12753 C 1195.72 -1.31707 0.901408 0
M  V30 12754 C 1195.92 -1.96429 -0.449203 0
M  V30 12755 O 1194.98 -2.22692 -1.19015 0
M  V30 12756 C 1196.29 -2.20391 2.04568 0
M  V30 12757 C 1197.84 -2.33827 2.08072 0
M  V30 12758 C 1198.31 -3.25862 3.21835 0
M  V30 12759 N 1199.8 -3.33444 3.21511 0
M  V30 12760 C 1200.54 -4.04731 4.06177 0
M  V30 12761 N 1200.03 -4.78596 5.00917 0
M  V30 12762 N 1201.83 -4.00717 3.94185 0
M  V30 12763 H 1193.98 -0.632989 2.02749 0
M  V30 12764 H 1196.24 -0.341587 0.88432 0
M  V30 12765 H 1195.95 -1.80102 3.02087 0
M  V30 12766 H 1195.82 -3.20943 1.9818 0
M  V30 12767 H 1198.21 -2.73367 1.11151 0
M  V30 12768 H 1198.29 -1.32964 2.18527 0
M  V30 12769 H 1197.93 -2.8704 4.19012 0
M  V30 12770 H 1197.86 -4.26689 3.08617 0
M  V30 12771 H 1200.35 -2.80798 2.52905 0
M  V30 12772 H 1200.67 -5.30499 5.61952 0
M  V30 12773 H 1199.01 -4.77598 5.04902 0
M  V30 12774 H 1202.2 -3.42126 3.1948 0
M  V30 12775 H 1202.38 -4.56008 4.60392 0
M  V30 12776 N 1195.78 -0.955326 -1.25345 0
M  V30 12777 C 1197.03 -0.611388 -1.93365 0
M  V30 12778 C 1197.36 0.84953 -1.74633 0
M  V30 12779 O 1196.64 1.60962 -1.09185 0
M  V30 12780 C 1196.92 -0.971732 -3.46741 0
M  V30 12781 C 1196.77 -2.48843 -3.74696 0
M  V30 12782 C 1198.09 -0.497295 -4.37281 0
M  V30 12783 H 1195.21 -0.223591 -0.702265 0
M  V30 12784 H 1197.85 -1.1921 -1.47949 0
M  V30 12785 H 1196 -0.477568 -3.85554 0
M  V30 12786 H 1197.67 -3.05641 -3.45516 0
M  V30 12787 H 1195.92 -2.92582 -3.20278 0
M  V30 12788 H 1196.59 -2.69107 -4.8196 0
M  V30 12789 H 1199.06 -0.921196 -4.05775 0
M  V30 12790 H 1197.94 -0.778113 -5.43357 0
M  V30 12791 H 1198.2 0.602743 -4.37972 0
M  V30 12792 N 1197.26 1.39987 -0.723979 0
M  V30 12793 C 1198.51 2.00731 -0.267115 0
M  V30 12794 C 1198.84 1.57424 1.14228 0
M  V30 12795 O 1198.09 0.789205 1.79081 0
M  V30 12796 C 1198.39 3.56101 -0.304472 0
M  V30 12797 C 1198.06 4.1902 -1.66533 0
M  V30 12798 C 1196.72 4.3592 -2.03783 0
M  V30 12799 C 1199.07 4.54034 -2.55935 0
M  V30 12800 C 1196.4 4.85119 -3.29964 0
M  V30 12801 C 1198.75 5.04637 -3.81477 0
M  V30 12802 C 1197.41 5.19745 -4.18833 0
M  V30 12803 H 1196.68 0.734525 -0.0977442 0
M  V30 12804 H 1199.33 1.67476 -0.928659 0
M  V30 12805 H 1197.64 3.89314 0.440647 0
M  V30 12806 H 1199.33 4.00944 0.0669875 0
M  V30 12807 H 1195.92 4.0626 -1.36569 0
M  V30 12808 H 1200.11 4.40606 -2.2843 0
M  V30 12809 H 1195.36 4.95001 -3.58865 0
M  V30 12810 H 1199.54 5.30705 -4.50916 0
M  V30 12811 H 1197.16 5.5763 -5.16675 0
M  V30 12812 N 1198.74 0.470782 1.50404 0
M  V30 12813 C 1200.16 0.124919 1.5911 0
M  V30 12814 C 1200.36 -1.36855 1.47895 0
M  V30 12815 O 1199.41 -2.1418 1.33728 0
M  V30 12816 C 1200.72 0.674839 2.9303 0
M  V30 12817 C 1202.27 0.638239 3.06424 0
M  V30 12818 C 1202.75 1.1657 4.42917 0
M  V30 12819 N 1204.24 1.1251 4.49328 0
M  V30 12820 C 1204.97 1.50373 5.53331 0
M  V30 12821 N 1204.47 1.95684 6.6459 0
M  V30 12822 N 1206.26 1.41978 5.43874 0
M  V30 12823 H 1198.41 1.44212 1.55938 0
M  V30 12824 H 1200.68 0.596354 0.73693 0
M  V30 12825 H 1200.38 1.72106 3.06712 0
M  V30 12826 H 1200.26 0.118234 3.77015 0
M  V30 12827 H 1202.64 -0.399075 2.92389 0
M  V30 12828 H 1202.72 1.23164 2.24197 0
M  V30 12829 H 1202.37 2.20164 4.57701 0
M  V30 12830 H 1202.3 0.548513 5.23736 0
M  V30 12831 H 1204.79 0.79276 3.69491 0
M  V30 12832 H 1205.1 2.22724 7.40009 0
M  V30 12833 H 1203.45 1.99636 6.65711 0
M  V30 12834 H 1206.64 1.0642 4.55842 0
M  V30 12835 H 1206.81 1.71812 6.24808 0
M  V30 12836 N 1200.22 -1.56282 0.203376 0
M  V30 12837 C 1201.15 -2.2247 -0.709183 0
M  V30 12838 C 1202.13 -1.19046 -1.21499 0
M  V30 12839 O 1203.31 -1.47578 -1.26231 0
M  V30 12840 C 1200.44 -2.8905 -1.92529 0
M  V30 12841 C 1199.4 -3.98789 -1.55407 0
M  V30 12842 C 1198.72 -4.52574 -2.84747 0
M  V30 12843 C 1200.02 -5.16774 -0.75775 0
M  V30 12844 H 1201.72 -2.98986 -0.157392 0
M  V30 12845 H 1199.26 -1.43808 -0.0742613 0
M  V30 12846 H 1201.22 -3.34038 -2.56898 0
M  V30 12847 H 1199.94 -2.09952 -2.50175 0
M  V30 12848 H 1198.6 -3.54504 -0.933928 0
M  V30 12849 H 1198.25 -3.70229 -3.40499 0
M  V30 12850 H 1197.95 -5.26627 -2.6065 0
M  V30 12851 H 1199.47 -5.00269 -3.5009 0
M  V30 12852 H 1200.89 -5.58256 -1.30472 0
M  V30 12853 H 1199.28 -5.96945 -0.614583 0
M  V30 12854 H 1200.35 -4.84308 0.239476 0
M  V30 12855 N 1201.7 0.070167 -1.57444 0
M  V30 12856 C 1202.63 1.08351 -2.06839 0
M  V30 12857 C 1203.61 1.40269 -0.962224 0
M  V30 12858 O 1204.79 1.49867 -1.23505 0
M  V30 12859 C 1201.92 2.39649 -2.51368 0
M  V30 12860 C 1200.88 2.22079 -3.65875 0
M  V30 12861 C 1200.2 3.58776 -3.96464 0
M  V30 12862 C 1201.5 1.64069 -4.95862 0
M  V30 12863 H 1203.2 0.672465 -2.9175 0
M  V30 12864 H 1200.74 0.322027 -1.40353 0
M  V30 12865 H 1202.69 3.10833 -2.84537 0
M  V30 12866 H 1201.42 2.82736 -1.63487 0
M  V30 12867 H 1200.08 1.53337 -3.32992 0
M  V30 12868 H 1199.73 3.99436 -3.05712 0
M  V30 12869 H 1199.43 3.47859 -4.7357 0
M  V30 12870 H 1200.95 4.31387 -4.32131 0
M  V30 12871 H 1202.36 2.2512 -5.27251 0
M  V30 12872 H 1200.76 1.63843 -5.773 0
M  V30 12873 H 1201.83 0.60232 -4.81145 0
M  V30 12874 N 1203.17 1.53854 0.341593 0
M  V30 12875 C 1204.42 1.70856 1.07948 0
M  V30 12876 C 1204.74 0.475474 1.89114 0
M  V30 12877 O 1204.01 -0.510592 1.89129 0
M  V30 12878 H 1202.59 0.629914 0.401519 0
M  V30 12879 H 1205.25 1.91112 0.382393 0
M  V30 12880 H 1204.35 2.5803 1.75575 0
M  V30 12881 N 1204.65 -0.602709 1.4562 0
M  V30 12882 C 1205.88 -1.39299 1.53657 0
M  V30 12883 C 1206.3 -1.87315 0.171632 0
M  V30 12884 O 1205.66 -1.60423 -0.844639 0
M  V30 12885 C 1205.71 -2.57021 2.52928 0
M  V30 12886 O 1204.81 -3.57812 2.05047 0
M  V30 12887 H 1204.15 -0.41567 0.517798 0
M  V30 12888 H 1206.68 -0.73304 1.91018 0
M  V30 12889 H 1206.69 -3.04202 2.71892 0
M  V30 12890 H 1205.37 -2.21422 3.52058 0
M  V30 12891 H 1203.94 -3.17247 1.95981 0
M  V30 12892 N 1206.13 -1.32992 -0.845635 0
M  V30 12893 C 1207.41 -1.14671 -1.58461 0
M  V30 12894 C 1207.79 0.289498 -2.09106 0
M  V30 12895 O 1207.13 1.28751 -1.88773 0
M  V30 12896 C 1207.34 -2.18206 -2.72373 0
M  V30 12897 C 1208.69 -2.5201 -3.41726 0
M  V30 12898 O 1209.72 -2.16821 -2.82608 0
M  V30 12899 O 1208.58 -3.12368 -4.48429 0
M  V30 12900 H 1205.67 -0.443088 -0.698285 0
M  V30 12901 H 1208.22 -1.44552 -0.888978 0
M  V30 12902 H 1206.99 -3.14707 -2.32541 0
M  V30 12903 H 1206.61 -1.89372 -3.49605 0
M  V30 12904 N 1207.61 1.06304 -1.1635 0
M  V30 12905 C 1209.02 1.31227 -0.90838 0
M  V30 12906 C 1209.22 1.96665 0.438779 0
M  V30 12907 O 1208.28 2.2332 1.17833 0
M  V30 12908 C 1209.59 2.19303 -2.05734 0
M  V30 12909 C 1211.14 2.3272 -2.09309 0
M  V30 12910 C 1211.62 3.24151 -3.23559 0
M  V30 12911 N 1213.11 3.31734 -3.23275 0
M  V30 12912 C 1213.84 4.02572 -4.08318 0
M  V30 12913 N 1213.34 4.75933 -5.03448 0
M  V30 12914 N 1215.13 3.98621 -3.96305 0
M  V30 12915 H 1207.28 0.622228 -2.03081 0
M  V30 12916 H 1209.54 0.336892 -0.886119 0
M  V30 12917 H 1209.25 1.78497 -3.03037 0
M  V30 12918 H 1209.12 3.19888 -1.99879 0
M  V30 12919 H 1211.51 2.72774 -1.12599 0
M  V30 12920 H 1211.59 1.31804 -2.19229 0
M  V30 12921 H 1211.24 2.84813 -4.20528 0
M  V30 12922 H 1211.17 4.25046 -3.10875 0
M  V30 12923 H 1213.66 2.79453 -2.5439 0
M  V30 12924 H 1213.97 5.27512 -5.64758 0
M  V30 12925 H 1212.32 4.74913 -5.07427 0
M  V30 12926 H 1215.51 3.40427 -3.21289 0
M  V30 12927 H 1215.68 4.5356 -4.62804 0
M  V30 12928 N 1209.09 0.96196 1.24836 0
M  V30 12929 C 1210.33 0.621634 1.93038 0
M  V30 12930 C 1210.66 -0.840257 1.75081 0
M  V30 12931 O 1209.94 -1.60381 1.10038 0
M  V30 12932 C 1210.22 0.990107 3.46221 0
M  V30 12933 C 1210.08 2.50827 3.73371 0
M  V30 12934 C 1211.39 0.520478 4.37011 0
M  V30 12935 H 1208.51 0.227312 0.701069 0
M  V30 12936 H 1211.16 1.19993 1.47315 0
M  V30 12937 H 1209.31 0.498008 3.85295 0
M  V30 12938 H 1210.98 3.07469 3.4389 0
M  V30 12939 H 1209.22 2.94277 3.18722 0
M  V30 12940 H 1209.89 2.71659 4.80526 0
M  V30 12941 H 1212.37 0.942703 4.05281 0
M  V30 12942 H 1211.24 0.806918 5.42937 0
M  V30 12943 H 1211.5 -0.579507 4.38285 0
M  V30 12944 N 1210.56 -1.39601 0.731392 0
M  V30 12945 C 1211.81 -2.00883 0.278168 0
M  V30 12946 C 1212.14 -1.57897 -1.13059 0
M  V30 12947 O 1211.42 -0.806203 -1.77005 0
M  V30 12948 C 1211.7 -3.58132 0.375969 0
M  V30 12949 C 1211.55 -4.11147 1.82423 0
M  V30 12950 C 1212.87 -4.39425 -0.243702 0
M  V30 12951 H 1209.99 -0.729831 0.102549 0
M  V30 12952 H 1212.63 -1.65859 0.926869 0
M  V30 12953 H 1210.78 -3.881 -0.176329 0
M  V30 12954 H 1212.46 -3.91914 2.43313 0
M  V30 12955 H 1210.7 -3.64842 2.34675 0
M  V30 12956 H 1211.37 -5.20291 1.84396 0
M  V30 12957 H 1213.85 -4.1548 0.227067 0
M  V30 12958 H 1212.72 -5.48709 -0.144907 0
M  V30 12959 H 1212.98 -4.21642 -1.32929 0
M  V30 12960 N 1212.04 -0.478751 -1.50152 0
M  V30 12961 C 1213.29 0.073694 -2.02666 0
M  V30 12962 C 1213.62 1.38679 -1.35947 0
M  V30 12963 O 1212.9 1.88286 -0.4877 0
M  V30 12964 C 1213.18 0.249516 -3.59235 0
M  V30 12965 C 1213.03 -1.08514 -4.36514 0
M  V30 12966 C 1214.35 1.00053 -4.28576 0
M  V30 12967 H 1211.47 0.0253082 -0.736565 0
M  V30 12968 H 1214.11 -0.625834 -1.79397 0
M  V30 12969 H 1212.26 0.845343 -3.79192 0
M  V30 12970 H 1213.93 -1.71814 -4.28109 0
M  V30 12971 H 1212.18 -1.67992 -3.99952 0
M  V30 12972 H 1212.85 -0.915676 -5.44352 0
M  V30 12973 H 1215.32 0.495422 -4.1314 0
M  V30 12974 H 1214.2 1.09236 -5.37921 0
M  V30 12975 H 1214.46 2.03896 -3.92274 0
M  V30 12976 N 1213.52 1.56172 -0.211661 0
M  V30 12977 C 1214.45 2.22843 0.697375 0
M  V30 12978 C 1215.43 1.19689 1.20866 0
M  V30 12979 O 1216.62 1.48245 1.25447 0
M  V30 12980 C 1213.75 2.90067 1.90993 0
M  V30 12981 C 1212.7 3.99608 1.5329 0
M  V30 12982 C 1212.03 4.54078 2.82343 0
M  V30 12983 C 1213.33 5.17169 0.730333 0
M  V30 12984 H 1215.02 2.99065 0.141533 0
M  V30 12985 H 1212.57 1.43846 0.0666337 0
M  V30 12986 H 1214.52 3.35396 2.55123 0
M  V30 12987 H 1213.24 2.11276 2.49058 0
M  V30 12988 H 1211.9 3.54995 0.915115 0
M  V30 12989 H 1211.55 3.72029 3.38531 0
M  V30 12990 H 1211.25 5.28001 2.57853 0
M  V30 12991 H 1212.77 5.02119 3.47432 0
M  V30 12992 H 1214.19 5.5894 1.2751 0
M  V30 12993 H 1212.59 5.97262 0.582916 0
M  V30 12994 H 1213.66 4.84174 -0.265157 0
M  V30 12995 N 1215 -0.0618163 1.57479 0
M  V30 12996 C 1215.91 -1.09006 2.07738 0
M  V30 12997 C 1216.92 -1.4176 1.00896 0
M  V30 12998 O 1218.1 -1.51737 1.32431 0
M  V30 12999 C 1215.17 -2.38153 2.5196 0
M  V30 13000 C 1214.23 -2.12279 3.73143 0
M  V30 13001 C 1213.46 -3.35269 4.15248 0
M  V30 13002 O 1213.68 -4.44758 3.57137 0
M  V30 13003 O 1212.62 -3.22894 5.0796 0
M  V30 13004 H 1216.44 -0.693059 2.95686 0
M  V30 13005 H 1214.03 -0.276628 1.46817 0
M  V30 13006 H 1215.91 -3.14139 2.80882 0
M  V30 13007 H 1214.58 -2.77213 1.67137 0
M  V30 13008 H 1213.49 -1.33966 3.49291 0
M  V30 13009 H 1214.82 -1.78094 4.5885 0
M  V30 13010 N 1216.48 -1.54033 -0.333429 0
M  V30 13011 C 1217.7 -1.76031 -1.09672 0
M  V30 13012 C 1218.13 -0.502844 -1.81254 0
M  V30 13013 O 1217.48 0.54509 -1.72912 0
M  V30 13014 C 1217.53 -2.947 -2.07809 0
M  V30 13015 O 1216.64 -2.65555 -3.15522 0
M  V30 13016 H 1215.98 -0.583611 -0.316692 0
M  V30 13017 H 1218.51 -2.01026 -0.380732 0
M  V30 13018 H 1218.52 -3.21771 -2.50853 0
M  V30 13019 H 1217.19 -3.85895 -1.55106 0
M  V30 13020 H 1215.77 -2.49403 -2.77223 0
M  V30 13021 N 1217.95 0.594978 -1.45938 0
M  V30 13022 C 1219.37 0.917069 -1.30622 0
M  V30 13023 C 1219.57 1.99702 -0.268554 0
M  V30 13024 O 1218.63 2.50293 0.333146 0
M  V30 13025 C 1219.94 1.34604 -2.68891 0
M  V30 13026 C 1221.49 1.45957 -2.76886 0
M  V30 13027 C 1221.96 1.92225 -4.15708 0
M  V30 13028 N 1223.45 1.99439 -4.18065 0
M  V30 13029 C 1224.19 2.36488 -5.22361 0
M  V30 13030 N 1223.68 2.72416 -6.36994 0
M  V30 13031 N 1225.48 2.36936 -5.09723 0
M  V30 13032 H 1217.63 -0.118625 -2.12068 0
M  V30 13033 H 1219.89 0.00959453 -0.947951 0
M  V30 13034 H 1219.6 0.626605 -3.46073 0
M  V30 13035 H 1219.47 2.31006 -2.98188 0
M  V30 13036 H 1221.86 2.16989 -1.99999 0
M  V30 13037 H 1221.94 0.47838 -2.51287 0
M  V30 13038 H 1221.58 1.21775 -4.93085 0
M  V30 13039 H 1221.51 2.9128 -4.38707 0
M  V30 13040 H 1224 1.74212 -3.35349 0
M  V30 13041 H 1224.32 2.99604 -7.1236 0
M  V30 13042 H 1222.66 2.70083 -6.40375 0
M  V30 13043 H 1225.85 2.08282 -4.19209 0
M  V30 13044 H 1226.03 2.65483 -5.9112 0
M  V30 13045 N 1219.43 1.33438 0.838571 0
M  V30 13046 C 1220.84 1.22366 1.41009 0
M  V30 13047 C 1221.19 -0.157317 1.95568 0
M  V30 13048 O 1220.32 -1.05692 1.88834 0
M  V30 13049 C 1220.91 2.21542 2.56329 0
M  V30 13050 C 1219.47 2.14309 3.09433 0
M  V30 13051 C 1218.62 2.09012 1.82235 0
M  V30 13052 H 1221.57 1.45032 0.64431 0
M  V30 13053 H 1221.59 1.82332 3.33969 0
M  V30 13054 H 1221.1 3.22042 2.16589 0
M  V30 13055 H 1219.21 1.17113 3.53717 0
M  V30 13056 H 1219.32 3.04866 3.69586 0
M  V30 13057 H 1217.68 1.54492 2.02495 0
M  V30 13058 H 1218.47 3.11319 1.4469 0
M  V30 13059 N 1220.91 -1.05686 1.16912 0
M  V30 13060 C 1222.14 -1.82282 0.978811 0
M  V30 13061 C 1222.55 -1.8278 -0.472972 0
M  V30 13062 O 1221.91 -1.25143 -1.32836 0
M  V30 13063 C 1221.96 -3.28623 1.50629 0
M  V30 13064 O 1221.68 -3.28269 2.90122 0
M  V30 13065 C 1223.18 -4.21927 1.35987 0
M  V30 13066 H 1220.4 -0.574558 0.346588 0
M  V30 13067 H 1222.95 -1.33301 1.55084 0
M  V30 13068 H 1221.1 -3.74893 0.976404 0
M  V30 13069 H 1221.52 -4.19824 3.14401 0
M  V30 13070 H 1222.99 -5.2261 1.77716 0
M  V30 13071 H 1223.47 -4.38131 0.30626 0
M  V30 13072 H 1224.07 -3.81508 1.87968 0
M  V30 13073 N 1222.39 -0.968567 -1.24324 0
M  V30 13074 C 1223.3 -0.50703 -2.29055 0
M  V30 13075 C 1224.31 0.432431 -1.68541 0
M  V30 13076 O 1225.49 0.30526 -1.99073 0
M  V30 13077 C 1222.56 0.194589 -3.46153 0
M  V30 13078 C 1221.62 -0.784805 -4.22066 0
M  V30 13079 C 1220.85 -0.116574 -5.33573 0
M  V30 13080 O 1221.07 1.09492 -5.59792 0
M  V30 13081 O 1220.01 -0.809171 -5.96436 0
M  V30 13082 H 1223.83 -1.3777 -2.70653 0
M  V30 13083 H 1221.42 -0.735645 -1.30033 0
M  V30 13084 H 1223.3 0.588684 -4.17268 0
M  V30 13085 H 1221.97 1.04021 -3.06531 0
M  V30 13086 H 1220.88 -1.22938 -3.53323 0
M  V30 13087 H 1222.21 -1.59887 -4.65507 0
M  V30 13088 N 1223.87 1.39211 -0.738786 0
M  V30 13089 C 1224.81 2.32424 -0.0904601 0
M  V30 13090 C 1225.81 1.53258 0.721694 0
M  V30 13091 O 1227.01 1.68895 0.622454 0
M  V30 13092 H 1223.39 0.751927 -0.010453 0
M  V30 13093 H 1225.36 2.84726 -0.892945 0
M  V30 13094 C 1224.11 3.38377 0.799783 0
M  V30 13095 H 1223.43 3.99375 0.18424 0
M  V30 13096 H 1224.87 4.0604 1.22096 0
M  V30 13097 C 1223.33 2.75734 1.93578 0
M  V30 13098 O 1223.86 2.63876 3.02874 0
M  V30 13099 N 1222.07 2.33764 1.72634 0
M  V30 13100 H 1221.61 2.43609 0.837413 0
M  V30 13101 H 1221.57 1.92191 2.48817 0
M  V30 13102 N 1225.34 0.486708 1.49896 0
M  V30 13103 C 1226.76 0.0353906 1.86666 0
M  V30 13104 C 1227.11 -1.3743 1.40026 0
M  V30 13105 O 1226.23 -2.02163 0.77194 0
M  V30 13106 C 1226.83 0.0574475 3.38751 0
M  V30 13107 C 1225.39 -0.338464 3.74875 0
M  V30 13108 C 1224.53 0.436196 2.73848 0
M  V30 13109 H 1227.48 0.700215 1.42417 0
M  V30 13110 H 1227.5 -0.741175 3.73212 0
M  V30 13111 H 1227.02 1.08356 3.72667 0
M  V30 13112 H 1225.12 -1.36835 3.46565 0
M  V30 13113 H 1225.23 -0.0289519 4.79091 0
M  V30 13114 H 1223.59 -0.112141 2.54453 0
M  V30 13115 H 1224.38 1.46212 3.10608 0
M  V30 13116 N 1226.82 -1.56058 0.219941 0
M  V30 13117 C 1228.05 -2.02652 -0.417101 0
M  V30 13118 C 1228.47 -1.09977 -1.53461 0
M  V30 13119 O 1227.82 -0.109088 -1.82174 0
M  V30 13120 C 1227.87 -3.48787 -0.950244 0
M  V30 13121 O 1227.6 -4.37928 0.12271 0
M  V30 13122 C 1229.1 -4.11018 -1.66069 0
M  V30 13123 H 1226.32 -0.663163 -0.102254 0
M  V30 13124 H 1228.86 -2.01722 0.335923 0
M  V30 13125 H 1227.02 -3.50338 -1.65355 0
M  V30 13126 H 1227.43 -5.23764 -0.277785 0
M  V30 13127 H 1228.9 -5.15046 -1.98575 0
M  V30 13128 H 1229.38 -3.55921 -2.57326 0
M  V30 13129 H 1229.99 -4.13313 -1.00263 0
M  V30 13130 N 1228.3 0.053464 -1.57509 0
M  V30 13131 C 1229.26 1.04604 -2.03938 0
M  V30 13132 C 1230.26 1.30509 -0.939357 0
M  V30 13133 O 1231.45 1.25922 -1.20371 0
M  V30 13134 C 1228.59 2.38516 -2.43563 0
M  V30 13135 H 1229.78 0.645484 -2.92871 0
M  V30 13136 H 1227.33 0.299683 -1.534 0
M  V30 13137 H 1228.07 2.83368 -1.57712 0
M  V30 13138 H 1227.85 2.2105 -3.23851 0
M  V30 13139 H 1229.34 3.09826 -2.79996 0
M  V30 13140 N 1229.78 1.54207 0.325255 0
M  V30 13141 C 1230.73 1.79856 1.40128 0
M  V30 13142 C 1231.71 0.654503 1.46987 0
M  V30 13143 O 1232.91 0.914453 1.51548 0
M  V30 13144 C 1230.03 2.02786 2.77007 0
M  V30 13145 C 1229.12 3.23309 2.74467 0
M  V30 13146 N 1229.51 4.44396 2.41549 0
M  V30 13147 C 1227.81 3.24848 3.05598 0
M  V30 13148 C 1228.51 5.26325 2.47703 0
M  V30 13149 N 1227.49 4.63468 2.84074 0
M  V30 13150 H 1231.29 2.71056 1.13603 0
M  V30 13151 H 1228.8 1.53379 0.533728 0
M  V30 13152 H 1230.8 2.19301 3.5456 0
M  V30 13153 H 1229.46 1.12839 3.04463 0
M  V30 13154 H 1230.47 4.71426 2.14425 0
M  V30 13155 H 1227.15 2.44929 3.38107 0
M  V30 13156 H 1228.54 6.33016 2.25257 0
M  V30 13157 N 1231.26 -0.58723 1.46251 0
M  V30 13158 C 1232.48 -1.37661 1.55126 0
M  V30 13159 C 1232.91 -1.87123 0.191489 0
M  V30 13160 O 1232.27 -1.6131 -0.827576 0
M  V30 13161 C 1232.31 -2.54324 2.5564 0
M  V30 13162 O 1231.42 -3.55617 2.0883 0
M  V30 13163 H 1230.76 -0.410154 0.522178 0
M  V30 13164 H 1233.29 -0.712738 1.91784 0
M  V30 13165 H 1233.3 -3.01301 2.75103 0
M  V30 13166 H 1231.97 -2.17675 3.54387 0
M  V30 13167 H 1230.55 -3.15151 1.99335 0
M  V30 13168 N 1232.74 -1.33881 -0.831482 0
M  V30 13169 C 1233.68 -1.24741 -1.96322 0
M  V30 13170 C 1234.68 -0.147251 -1.68759 0
M  V30 13171 O 1235.88 -0.311684 -1.77281 0
M  V30 13172 H 1232.26 -0.387298 -0.644596 0
M  V30 13173 H 1234.23 -2.20407 -2.01155 0
M  V30 13174 C 1232.98 -1.01102 -3.32677 0
M  V30 13175 H 1232.3 -1.84986 -3.54429 0
M  V30 13176 H 1233.74 -0.987398 -4.12343 0
M  V30 13177 C 1232.2 0.285903 -3.35685 0
M  V30 13178 O 1232.73 1.29014 -3.80419 0
M  V30 13179 N 1230.94 0.316026 -2.88877 0
M  V30 13180 H 1230.48 -0.501758 -2.52666 0
M  V30 13181 H 1230.44 1.18357 -2.91271 0
M  V30 13182 N 1234.21 1.05064 -1.1747 0
M  V30 13183 C 1235.14 2.14786 -0.915936 0
M  V30 13184 C 1236.12 1.69502 0.142561 0
M  V30 13185 O 1237.31 1.94198 -0.00794522 0
M  V30 13186 C 1234.44 3.44629 -0.429864 0
M  V30 13187 C 1233.39 4.03486 -1.42769 0
M  V30 13188 C 1232.72 5.28689 -0.799528 0
M  V30 13189 C 1234.02 4.40823 -2.80129 0
M  V30 13190 H 1235.71 2.3669 -1.83352 0
M  V30 13191 H 1233.26 1.13751 -0.882992 0
M  V30 13192 H 1235.21 4.20737 -0.236245 0
M  V30 13193 H 1233.94 3.22381 0.523263 0
M  V30 13194 H 1232.6 3.29449 -1.60808 0
M  V30 13195 H 1232.24 5.02744 0.160474 0
M  V30 13196 H 1231.94 5.69028 -1.46565 0
M  V30 13197 H 1233.47 6.07483 -0.616212 0
M  V30 13198 H 1234.88 5.07959 -2.65801 0
M  V30 13199 H 1233.28 4.92183 -3.43331 0
M  V30 13200 H 1234.35 3.51108 -3.34441 0
M  V30 13201 N 1235.69 0.975146 1.23809 0
M  V30 13202 C 1236.92 0.658023 1.95841 0
M  V30 13203 C 1237.33 -0.778132 1.72458 0
M  V30 13204 O 1236.67 -1.53462 1.00971 0
M  V30 13205 C 1236.73 0.862038 3.49012 0
M  V30 13206 C 1236.4 2.27925 3.96105 0
M  V30 13207 C 1237.4 3.25755 4.05191 0
M  V30 13208 C 1235.08 2.60894 4.29231 0
M  V30 13209 C 1237.07 4.54636 4.46749 0
M  V30 13210 C 1234.76 3.89999 4.70472 0
M  V30 13211 C 1235.76 4.86682 4.79197 0
M  V30 13212 O 1235.45 6.13483 5.19513 0
M  V30 13213 H 1235.18 0.243915 0.630461 0
M  V30 13214 H 1237.73 1.30768 1.58395 0
M  V30 13215 H 1235.96 0.155209 3.86388 0
M  V30 13216 H 1237.65 0.542873 4.02253 0
M  V30 13217 H 1238.42 3.01614 3.79808 0
M  V30 13218 H 1234.3 1.86355 4.21655 0
M  V30 13219 H 1237.84 5.30101 4.53474 0
M  V30 13220 H 1233.74 4.13937 4.95304 0
M  V30 13221 H 1234.51 6.17158 5.37641 0
M  V30 13222 N 1237.17 -1.38817 0.746158 0
M  V30 13223 C 1238.42 -1.99519 0.295839 0
M  V30 13224 C 1238.73 -1.59897 -1.12661 0
M  V30 13225 O 1239.94 -2.13514 -1.67702 0
M  V30 13226 C 1238.39 -3.56712 0.477984 0
M  V30 13227 C 1238 -4.0529 1.90904 0
M  V30 13228 C 1239.75 -4.24405 0.0900039 0
M  V30 13229 C 1237.65 -5.55097 2.04014 0
M  V30 13230 H 1236.58 -0.746389 0.106861 0
M  V30 13231 H 1239.23 -1.58676 0.921637 0
M  V30 13232 H 1237.62 -3.95406 -0.216884 0
M  V30 13233 H 1238.79 -3.77904 2.63677 0
M  V30 13234 H 1237.1 -3.50297 2.25125 0
M  V30 13235 H 1239.7 -5.3444 0.16682 0
M  V30 13236 H 1240.04 -4.05166 -0.956349 0
M  V30 13237 H 1240.58 -3.90924 0.736446 0
M  V30 13238 H 1237.32 -5.7923 3.06877 0
M  V30 13239 H 1236.84 -5.8425 1.35692 0
M  V30 13240 H 1238.52 -6.20682 1.82656 0
M  V30 13241 N 1238.65 -0.49465 -1.49636 0
M  V30 13242 C 1239.58 0.276606 -2.31856 0
M  V30 13243 C 1240.56 0.968499 -1.39836 0
M  V30 13244 O 1241.74 0.96113 -1.68748 0
M  V30 13245 C 1238.87 1.34522 -3.20189 0
M  V30 13246 C 1237.83 0.773571 -4.20951 0
M  V30 13247 C 1237.15 1.94223 -4.98178 0
M  V30 13248 C 1238.45 -0.231096 -5.21788 0
M  V30 13249 H 1240.15 -0.409668 -2.96584 0
M  V30 13250 H 1237.69 -0.198461 -1.42626 0
M  V30 13251 H 1239.65 1.89244 -3.76517 0
M  V30 13252 H 1238.37 2.06059 -2.53392 0
M  V30 13253 H 1237.03 0.248144 -3.65759 0
M  V30 13254 H 1236.68 2.64514 -4.27834 0
M  V30 13255 H 1236.38 1.56584 -5.66353 0
M  V30 13256 H 1237.9 2.49391 -5.57348 0
M  V30 13257 H 1239.32 0.227768 -5.72847 0
M  V30 13258 H 1237.71 -0.522984 -5.97817 0
M  V30 13259 H 1238.78 -1.14914 -4.71087 0
M  V30 13260 N 1240.13 1.55939 -0.228214 0
M  V30 13261 C 1241.09 2.1932 0.665681 0
M  V30 13262 C 1242.09 1.15699 1.11671 0
M  V30 13263 O 1243.28 1.40893 1.02444 0
M  V30 13264 C 1240.41 2.82185 1.9127 0
M  V30 13265 H 1241.6 2.99687 0.112986 0
M  V30 13266 H 1239.16 1.56285 0.0213865 0
M  V30 13267 H 1239.89 2.05706 2.5071 0
M  V30 13268 H 1239.68 3.58073 1.5977 0
M  V30 13269 H 1241.17 3.30748 2.54942 0
M  V30 13270 N 1241.6 -0.0451101 1.57535 0
M  V30 13271 C 1242.85 -0.737654 1.88157 0
M  V30 13272 C 1243.17 -1.76743 0.823817 0
M  V30 13273 O 1242.44 -1.95366 -0.144503 0
M  V30 13274 H 1241.02 -0.275431 0.694368 0
M  V30 13275 H 1243.69 -0.0148651 1.94894 0
M  V30 13276 H 1242.78 -1.23726 2.86528 0
M  V30 13277 N 1243.08 -1.54377 -0.317073 0
M  V30 13278 C 1244.03 -1.80597 -1.39172 0
M  V30 13279 C 1245.02 -0.662289 -1.46637 0
M  V30 13280 O 1246.21 -0.922477 -1.51061 0
M  V30 13281 C 1243.34 -2.04252 -2.75927 0
M  V30 13282 C 1242.42 -3.2476 -2.72749 0
M  V30 13283 N 1242.81 -4.45671 -2.39189 0
M  V30 13284 C 1241.11 -3.26464 -3.03871 0
M  V30 13285 C 1241.81 -5.27631 -2.44908 0
M  V30 13286 N 1240.79 -4.64968 -2.81613 0
M  V30 13287 H 1244.59 -2.71655 -1.12164 0
M  V30 13288 H 1242.11 -1.5366 -0.525586 0
M  V30 13289 H 1244.1 -2.21178 -3.53392 0
M  V30 13290 H 1242.76 -1.14452 -3.0386 0
M  V30 13291 H 1243.77 -4.72556 -2.11922 0
M  V30 13292 H 1240.45 -2.46718 -3.36803 0
M  V30 13293 H 1241.84 -6.34202 -2.21896 0
M  V30 13294 N 1244.56 0.579466 -1.4656 0
M  V30 13295 C 1245.47 1.71609 -1.59961 0
M  V30 13296 C 1246.49 1.67162 -0.483002 0
M  V30 13297 O 1247.66 1.87012 -0.747561 0
M  V30 13298 C 1244.73 3.08114 -1.58954 0
M  V30 13299 C 1243.79 3.238 -2.81872 0
M  V30 13300 C 1243.02 4.53794 -2.80904 0
M  V30 13301 O 1243.24 5.37884 -1.89835 0
M  V30 13302 O 1242.18 4.72796 -3.72488 0
M  V30 13303 H 1246 1.6325 -2.56092 0
M  V30 13304 H 1243.59 0.746891 -1.2939 0
M  V30 13305 H 1245.47 3.8939 -1.611 0
M  V30 13306 H 1244.15 3.16903 -0.65984 0
M  V30 13307 H 1243.05 2.42006 -2.85279 0
M  V30 13308 H 1244.39 3.19904 -3.74062 0
M  V30 13309 N 1246.04 1.3432 0.824371 0
M  V30 13310 C 1246.99 1.2578 1.95658 0
M  V30 13311 C 1247.98 0.156199 1.68678 0
M  V30 13312 O 1249.19 0.321081 1.77113 0
M  V30 13313 H 1245.56 0.390711 0.642533 0
M  V30 13314 H 1247.53 2.21471 1.99983 0
M  V30 13315 C 1246.28 1.02865 3.32136 0
M  V30 13316 H 1245.6 1.86863 3.53443 0
M  V30 13317 H 1247.04 1.00925 4.11813 0
M  V30 13318 C 1245.5 -0.268097 3.35832 0
M  V30 13319 O 1246.03 -1.26995 3.81097 0
M  V30 13320 N 1244.24 -0.300702 2.8904 0
M  V30 13321 H 1243.79 0.51515 2.52396 0
M  V30 13322 H 1243.74 -1.16811 2.91895 0
M  V30 13323 N 1247.52 -1.0444 1.18026 0
M  V30 13324 C 1248.74 -1.81772 0.998684 0
M  V30 13325 C 1249.17 -1.82682 -0.448225 0
M  V30 13326 O 1248.52 -1.24136 -1.32136 0
M  V30 13327 C 1248.57 -3.2542 1.55352 0
M  V30 13328 O 1247.68 -4.05103 0.772351 0
M  V30 13329 H 1247.02 -0.561731 0.354054 0
M  V30 13330 H 1249.55 -1.31557 1.56697 0
M  V30 13331 H 1249.56 -3.76206 1.57903 0
M  V30 13332 H 1248.23 -3.24073 2.60672 0
M  V30 13333 H 1246.81 -3.63798 0.818852 0
M  V30 13334 N 1248.99 -0.981699 -1.2329 0
M  V30 13335 C 1250.22 -0.668399 -1.95489 0
M  V30 13336 C 1250.63 0.768976 -1.72868 0
M  V30 13337 O 1249.98 1.52925 -1.01783 0
M  V30 13338 C 1250.04 -0.880535 -3.4855 0
M  V30 13339 C 1249.7 -2.30023 -3.9489 0
M  V30 13340 C 1250.7 -3.27899 -4.03458 0
M  V30 13341 C 1248.38 -2.63167 -4.27842 0
M  V30 13342 C 1250.38 -4.56999 -4.44332 0
M  V30 13343 C 1248.06 -3.92489 -4.68397 0
M  V30 13344 C 1249.06 -4.89216 -4.76609 0
M  V30 13345 O 1248.75 -6.16229 -5.16253 0
M  V30 13346 H 1248.48 -0.247255 -0.629159 0
M  V30 13347 H 1251.04 -1.31606 -1.57699 0
M  V30 13348 H 1249.27 -0.175698 -3.86301 0
M  V30 13349 H 1250.96 -0.564198 -4.0196 0
M  V30 13350 H 1251.72 -3.03624 -3.78203 0
M  V30 13351 H 1247.6 -1.88588 -4.20661 0
M  V30 13352 H 1251.14 -5.32498 -4.50656 0
M  V30 13353 H 1247.04 -4.16558 -4.93102 0
M  V30 13354 H 1247.81 -6.20001 -5.34361 0
M  V30 13355 O 1250.51 1.34712 -0.890788 0
M  V30 13356 H 1251.2 1.87177 -0.498428 0
M  V30 END ATOM
M  V30 BEGIN BOND
M  V30 END BOND
M  V30 END CTAB
M  END
$$$$
