drugbank_target|Q86V67 Phosphodiesterase isozyme 4 (DB05676)
 OpenBabel12092121203D

  0  0  0     0  0            999 V3000
M  V30 BEGIN CTAB
M  V30 COUNTS 1656 1674 0 0 0
M  V30 BEGIN ATOM
M  V30 1 H -0.908 1.98254 -0.117106 0
M  V30 2 N 0 1.576 0 0
M  V30 3 C 0.933 2.03868 1.02534 0
M  V30 4 C 1.911 0.928543 1.3348 0
M  V30 5 O 3.095 1.19667 1.45644 0
M  V30 6 C 0.222 2.43627 2.35294 0
M  V30 7 C -0.732 3.65373 2.2001 0
M  V30 8 S 0.101 5.13292 1.52614 0
M  V30 9 C 1.257 5.56322 2.86805 0
M  V30 10 H 1.49 2.90518 0.631377 0
M  V30 11 H -0.977 1.52953 0.210867 0
M  V30 12 H 0.981 2.67203 3.11629 0
M  V30 13 H -0.358 1.57376 2.7183 0
M  V30 14 H -1.165 3.90944 3.18086 0
M  V30 15 H -1.563 3.418 1.51819 0
M  V30 16 H 0.729 5.58782 3.83104 0
M  V30 17 H 1.672 6.56266 2.65933 0
M  V30 18 H 2.08 4.83886 2.90714 0
M  V30 19 N 1.4781 -0.272755 1.55222 0
M  V30 20 C 2.7241 -1.00581 1.761 0
M  V30 21 C 3.0571 -1.85932 0.560625 0
M  V30 22 O 2.3321 -1.89416 -0.441801 0
M  V30 23 C 2.6151 -1.88816 3.06628 0
M  V30 24 C 2.4681 -1.06457 4.37021 0
M  V30 25 C 3.7871 -2.8752 3.33197 0
M  V30 26 H 0.9061 -0.364244 0.640699 0
M  V30 27 H 3.5481 -0.278189 1.87952 0
M  V30 28 H 1.6981 -2.50856 2.96654 0
M  V30 29 H 3.3701 -0.464863 4.58952 0
M  V30 30 H 1.6131 -0.368043 4.32236 0
M  V30 31 H 2.2841 -1.71514 5.24678 0
M  V30 32 H 4.7601 -2.35615 3.42965 0
M  V30 33 H 3.6361 -3.46399 4.25792 0
M  V30 34 H 3.8971 -3.62657 2.52849 0
M  V30 35 N 2.9562 -1.48159 -0.537278 0
M  V30 36 C 3.8662 -1.64807 -1.6696 0
M  V30 37 C 4.8822 -0.530651 -1.65711 0
M  V30 38 O 6.0582 -0.800784 -1.84796 0
M  V30 39 C 3.1232 -1.67708 -3.03438 0
M  V30 40 C 2.1842 -2.91025 -3.156 0
M  V30 41 C 1.4172 -2.93778 -4.45567 0
M  V30 42 O 1.6402 -2.05153 -5.3223 0
M  V30 43 O 0.5742 -3.85868 -4.61941 0
M  V30 44 H 4.4002 -2.6066 -1.55853 0
M  V30 45 H 1.9852 -1.31475 -0.709549 0
M  V30 46 H 3.8672 -1.7218 -3.84619 0
M  V30 47 H 2.5422 -0.750278 -3.14885 0
M  V30 48 H 1.4492 -2.92089 -2.33741 0
M  V30 49 H 2.7822 -3.83065 -3.09066 0
M  V30 50 N 4.4343 0.785586 -1.36625 0
M  V30 51 C 5.6623 1.57448 -1.3423 0
M  V30 52 C 6.0773 1.88649 0.0755653 0
M  V30 53 O 5.4343 1.50414 1.03354 0
M  V30 54 C 5.4853 2.89316 -2.16745 0
M  V30 55 O 5.2063 2.59459 -3.53005 0
M  V30 56 C 6.7073 3.83606 -2.22174 0
M  V30 57 H 3.9273 0.488226 -0.4603 0
M  V30 58 H 6.4713 0.974733 -1.79775 0
M  V30 59 H 4.6263 3.4575 -1.74745 0
M  V30 60 H 5.0403 3.43804 -3.96105 0
M  V30 61 H 6.5143 4.73181 -2.8426 0
M  V30 62 H 6.9913 4.21734 -1.22627 0
M  V30 63 H 7.5973 3.33104 -2.64427 0
M  V30 64 N 5.9124 1.20967 1.01018 0
M  V30 65 C 6.8594 0.964281 2.09691 0
M  V30 66 C 7.8294 -0.107853 1.65749 0
M  V30 67 O 9.0144 0.0381987 1.90762 0
M  V30 68 C 6.1544 0.52943 3.41015 0
M  V30 69 C 5.2674 1.67043 3.98398 0
M  V30 70 C 4.4024 1.18525 5.17808 0
M  V30 71 C 3.4414 2.29892 5.67288 0
M  V30 72 N 2.5784 1.82546 6.77954 0
M  V30 73 H 7.4184 1.89463 2.30017 0
M  V30 74 H 4.9554 0.944289 1.1279 0
M  V30 75 H 6.9134 0.258588 4.16398 0
M  V30 76 H 5.5434 -0.363919 3.20742 0
M  V30 77 H 4.5954 2.05603 3.20049 0
M  V30 78 H 5.9074 2.50877 4.31117 0
M  V30 79 H 5.0614 0.870762 6.00419 0
M  V30 80 H 3.8004 0.316887 4.86669 0
M  V30 81 H 2.8054 2.6215 4.83278 0
M  V30 82 H 4.0304 3.17216 6.00459 0
M  V30 83 H 1.9764 0.980454 6.48632 0
M  V30 84 H 1.8934 2.59956 7.09901 0
M  V30 85 H 3.1614 1.54115 7.64113 0
M  V30 86 N 7.3905 -1.2043 1.01659 0
M  V30 87 C 8.3375 -2.23215 0.586822 0
M  V30 88 C 9.3075 -1.61382 -0.393085 0
M  V30 89 O 10.4925 -1.88544 -0.292525 0
M  V30 90 C 7.6325 -3.45032 -0.0687464 0
M  V30 91 C 6.7455 -4.21296 0.955724 0
M  V30 92 C 5.8805 -5.30507 0.271208 0
M  V30 93 C 4.9195 -5.98515 1.28244 0
M  V30 94 N 4.0565 -6.99316 0.62459 0
M  V30 95 H 8.8965 -2.59336 1.46796 0
M  V30 96 H 6.4335 -1.27431 0.734836 0
M  V30 97 H 8.3915 -4.1459 -0.465965 0
M  V30 98 H 7.0215 -3.09604 -0.913529 0
M  V30 99 H 6.0735 -3.50803 1.4711 0
M  V30 100 H 7.3855 -4.6803 1.72479 0
M  V30 101 H 6.5395 -6.06428 -0.18151 0
M  V30 102 H 5.2785 -4.8481 -0.530163 0
M  V30 103 H 4.2835 -5.21355 1.74554 0
M  V30 104 H 5.5085 -6.46298 2.08509 0
M  V30 105 H 3.4545 -6.55812 -0.156914 0
M  V30 106 H 3.3715 -7.44178 1.33172 0
M  V30 107 H 4.6395 -7.79255 0.195462 0
M  V30 108 N 8.8686 -0.792821 -1.36206 0
M  V30 109 C 10.1146 -0.36733 -1.99446 0
M  V30 110 C 10.4476 1.05917 -1.62774 0
M  V30 111 O 9.7226 1.7324 -0.88421 0
M  V30 112 C 10.0056 -0.535044 -3.56103 0
M  V30 113 C 9.8586 -2.00548 -4.02617 0
M  V30 114 C 11.1776 0.0478191 -4.40074 0
M  V30 115 H 8.2966 -0.134941 -0.724541 0
M  V30 116 H 10.9386 -0.999794 -1.61568 0
M  V30 117 H 9.0886 0.00336329 -3.885 0
M  V30 118 H 10.7606 -2.60521 -3.80692 0
M  V30 119 H 9.0036 -2.50686 -3.54032 0
M  V30 120 H 9.6746 -2.07377 -5.11565 0
M  V30 121 H 12.1506 -0.411822 -4.14057 0
M  V30 122 H 11.0266 -0.0995336 -5.4881 0
M  V30 123 H 11.2876 1.14025 -4.27142 0
M  V30 124 N 10.3467 1.47872 -0.545128 0
M  V30 125 C 11.5747 2.06889 -0.021084 0
M  V30 126 C 11.9897 1.39955 1.2672 0
M  V30 127 O 11.3467 0.492036 1.75742 0
M  V30 128 C 11.3977 3.60996 0.190817 0
M  V30 129 O 11.1187 4.25419 -1.04644 0
M  V30 130 C 12.6197 4.36849 0.753521 0
M  V30 131 H 9.8397 0.669785 -0.0403635 0
M  V30 132 H 12.3837 1.90049 -0.755095 0
M  V30 133 H 10.5387 3.77391 0.87492 0
M  V30 134 H 10.9527 5.17785 -0.836611 0
M  V30 135 H 12.4267 5.45399 0.851139 0
M  V30 136 H 12.9037 4.02306 1.762 0
M  V30 137 H 13.5097 4.25169 0.105503 0
M  V30 138 N 11.8248 0.280983 1.55075 0
M  V30 139 C 13.0498 -0.340154 2.04592 0
M  V30 140 C 13.4748 -1.48246 1.15779 0
M  V30 141 O 12.8328 -1.80614 0.15761 0
M  V30 142 C 12.8808 -0.793104 3.5177 0
M  V30 143 O 11.9848 -1.89981 3.66034 0
M  V30 144 H 11.3258 -0.0694289 0.66036 0
M  V30 145 H 13.8558 0.416993 2.00306 0
M  V30 146 H 13.8658 -1.08729 3.93245 0
M  V30 147 H 12.5408 0.0426163 4.15878 0
M  V30 148 H 11.1178 -1.60771 3.36463 0
M  V30 149 N 13.3029 -1.57598 0.00835791 0
M  V30 150 C 14.5279 -1.95617 -0.689103 0
M  V30 151 C 14.9529 -0.883753 -1.66046 0
M  V30 152 O 14.3109 0.157352 -1.80616 0
M  V30 153 C 14.3589 -3.32736 -1.38994 0
M  V30 154 O 13.4629 -3.27631 -2.50463 0
M  V30 155 H 12.8039 -0.638379 -0.182668 0
M  V30 156 H 15.3339 -2.045 0.064036 0
M  V30 157 H 15.3439 -3.68494 -1.75147 0
M  V30 158 H 14.0189 -4.1034 -0.677778 0
M  V30 159 H 12.5959 -3.03561 -2.16576 0
M  V30 160 N 14.781 0.264519 -1.55364 0
M  V30 161 C 16.029 0.993021 -1.76021 0
M  V30 162 C 16.35 1.86511 -0.569099 0
M  V30 163 O 15.62 1.91438 0.415735 0
M  V30 164 H 14.2 0.369639 -0.649135 0
M  V30 165 H 16.862 0.286707 -1.9278 0
M  V30 166 H 15.958 1.62502 -2.66457 0
M  V30 167 N 16.2591 1.48442 0.529413 0
M  V30 168 C 17.5051 1.5672 1.28711 0
M  V30 169 C 17.8381 0.2406 1.92704 0
M  V30 170 O 17.1131 -0.753454 1.79313 0
M  V30 171 C 17.3961 2.70587 2.37603 0
M  V30 172 C 17.2491 4.12953 1.78297 0
M  V30 173 C 18.5681 2.80212 3.39366 0
M  V30 174 H 15.6871 0.570474 0.466613 0
M  V30 175 H 18.3291 1.80617 0.589706 0
M  V30 176 H 16.4791 2.50342 2.97088 0
M  V30 177 H 18.1511 4.44639 1.22858 0
M  V30 178 H 16.3941 4.19927 1.0883 0
M  V30 179 H 17.0651 4.88448 2.57144 0
M  V30 180 H 19.5411 2.98553 2.89836 0
M  V30 181 H 18.4171 3.61611 4.12951 0
M  V30 182 H 18.6781 1.88393 3.99951 0
M  V30 183 N 17.7372 -0.778329 1.37039 0
M  V30 184 C 18.6672 -1.90546 1.34962 0
M  V30 185 C 19.6482 -1.68681 0.219274 0
M  V30 186 O 20.8332 -1.89634 0.418624 0
M  V30 187 C 17.9632 -3.27734 1.14925 0
M  V30 188 C 16.9172 -3.64147 2.24902 0
M  V30 189 C 16.2432 -4.99806 1.89996 0
M  V30 190 C 17.5432 -3.71579 3.67051 0
M  V30 191 H 19.2372 -1.92541 2.29277 0
M  V30 192 H 16.7832 -0.924948 1.10366 0
M  V30 193 H 18.7362 -4.06215 1.12104 0
M  V30 194 H 17.4602 -3.26154 0.170631 0
M  V30 195 H 16.1192 -2.8797 2.26868 0
M  V30 196 H 15.7672 -4.94759 0.906796 0
M  V30 197 H 15.4672 -5.25139 2.63634 0
M  V30 198 H 16.9912 -5.80694 1.88749 0
M  V30 199 H 18.4052 -4.40227 3.67251 0
M  V30 200 H 16.8022 -4.08405 4.39688 0
M  V30 201 H 17.8722 -2.72404 4.01154 0
M  V30 202 N 19.2153 -1.21501 -1.00376 0
M  V30 203 C 20.1453 -0.999478 -2.11028 0
M  V30 204 C 21.1263 0.0759671 -1.6993 0
M  V30 205 O 22.3113 -0.0841106 -1.94018 0
M  V30 206 C 19.4413 -0.564709 -3.42678 0
M  V30 207 C 18.3953 -1.58486 -3.97576 0
M  V30 208 C 17.7213 -1.00628 -5.25146 0
M  V30 209 C 19.0213 -2.97204 -4.29496 0
M  V30 210 H 20.7153 -1.92495 -2.29317 0
M  V30 211 H 18.2613 -0.92693 -1.102 0
M  V30 212 H 20.2143 -0.401091 -4.19487 0
M  V30 213 H 18.9383 0.396411 -3.24185 0
M  V30 214 H 17.5973 -1.73606 -3.22888 0
M  V30 215 H 17.2453 -0.0368439 -5.02987 0
M  V30 216 H 16.9453 -1.68771 -5.62841 0
M  V30 217 H 18.4693 -0.854015 -6.04598 0
M  V30 218 H 19.8833 -2.8552 -4.97143 0
M  V30 219 H 18.2803 -3.62372 -4.78338 0
M  V30 220 H 19.3503 -3.47956 -3.3772 0
M  V30 221 N 20.6934 1.19889 -1.02296 0
M  V30 222 C 21.6234 2.25141 -0.619174 0
M  V30 223 C 22.6044 1.66051 0.368915 0
M  V30 224 O 23.7894 1.92546 0.252941 0
M  V30 225 C 20.9194 3.4728 0.0368783 0
M  V30 226 C 19.8734 4.19005 -0.872865 0
M  V30 227 C 19.1994 5.34637 -0.0822402 0
M  V30 228 C 20.4994 4.74452 -2.18387 0
M  V30 229 H 22.1934 2.59171 -1.49903 0
M  V30 230 H 19.7394 1.24579 -0.722222 0
M  V30 231 H 21.6924 4.20098 0.330958 0
M  V30 232 H 20.4164 3.12433 0.95149 0
M  V30 233 H 19.0754 3.48061 -1.15105 0
M  V30 234 H 18.7234 4.96034 0.83422 0
M  V30 235 H 18.4234 5.83557 -0.688149 0
M  V30 236 H 19.9474 6.10255 0.205238 0
M  V30 237 H 21.3614 5.39055 -1.95172 0
M  V30 238 H 19.7584 5.33834 -2.74119 0
M  V30 239 H 20.8284 3.92844 -2.84257 0
M  V30 240 N 22.1715 0.800033 1.35784 0
M  V30 241 C 23.4485 0.30088 1.93272 0
M  V30 242 C 23.8285 -1.20857 1.73081 0
M  V30 243 O 23.1765 -2.00502 1.09596 0
M  V30 244 C 23.3865 0.70511 3.41803 0
M  V30 245 C 24.7345 0.690871 4.18942 0
M  V30 246 O 25.7585 0.646244 3.50289 0
M  V30 247 O 24.6175 0.74332 5.41421 0
M  V30 248 H 21.7115 0.0771605 0.823393 0
M  V30 249 H 24.2575 0.88329 1.449 0
M  V30 250 H 23.0295 1.74571 3.50201 0
M  V30 251 H 22.6525 0.0971541 3.97481 0
M  V30 252 N 23.6496 -1.47581 0.552962 0
M  V30 253 C 24.5976 -2.31648 -0.21023 0
M  V30 254 C 25.5916 -1.42663 -0.913432 0
M  V30 255 O 26.7976 -1.5945 -0.835201 0
M  V30 256 H 23.1726 -0.746989 -0.0866676 0
M  V30 257 H 25.1436 -2.93869 0.518051 0
M  V30 258 C 23.8926 -3.25226 -1.22976 0
M  V30 259 H 23.2156 -3.93658 -0.698077 0
M  V30 260 H 24.6556 -3.86889 -1.73473 0
M  V30 261 C 23.1146 -2.48448 -2.27542 0
M  V30 262 O 23.6446 -2.22585 -3.34393 0
M  V30 263 N 21.8506 -2.09532 -2.01357 0
M  V30 264 H 21.3976 -2.30765 -1.14478 0
M  V30 265 H 21.3556 -1.58476 -2.71538 0
M  V30 266 N 25.1277 -0.289203 -1.54924 0
M  V30 267 C 26.3577 0.325989 -2.04012 0
M  V30 268 C 26.7657 1.48961 -1.1665 0
M  V30 269 O 26.1087 1.82794 -0.1822 0
M  V30 270 C 26.1707 0.856112 -3.49158 0
M  V30 271 C 25.8347 -0.180697 -4.56643 0
M  V30 272 C 26.8317 -1.0051 -5.10092 0
M  V30 273 C 24.5167 -0.318998 -5.01286 0
M  V30 274 C 26.5107 -1.95385 -6.06715 0
M  V30 275 C 24.1977 -1.27121 -5.97732 0
M  V30 276 C 25.1957 -2.08713 -6.50329 0
M  V30 277 O 24.8837 -3.02322 -7.44887 0
M  V30 278 H 24.6157 0.0765276 -0.671654 0
M  V30 279 H 27.1697 -0.423254 -2.00992 0
M  V30 280 H 25.3997 1.65567 -3.49463 0
M  V30 281 H 27.0887 1.38591 -3.81507 0
M  V30 282 H 27.8547 -0.90906 -4.76404 0
M  V30 283 H 23.7337 0.306108 -4.59983 0
M  V30 284 H 27.2777 -2.59111 -6.47694 0
M  V30 285 H 23.1747 -1.36801 -6.30837 0
M  V30 286 H 23.9427 -2.97165 -7.6265 0
M  V30 287 N 26.6058 1.57591 -0.0167156 0
M  V30 288 C 27.8308 1.9598 0.67872 0
M  V30 289 C 28.2558 0.892546 1.65575 0
M  V30 290 O 27.6138 -0.147772 1.80697 0
M  V30 291 C 27.6618 3.33468 1.37227 0
M  V30 292 O 26.7658 3.28954 2.48722 0
M  V30 293 H 26.1068 0.639339 0.17928 0
M  V30 294 H 28.6368 2.04463 -0.0748802 0
M  V30 295 H 28.6468 3.69417 1.7319 0
M  V30 296 H 27.3218 4.10694 0.656007 0
M  V30 297 H 25.8988 3.04705 2.14963 0
M  V30 298 N 28.0839 -0.256276 1.55502 0
M  V30 299 C 29.3609 -1.00789 1.67633 0
M  V30 300 C 29.7409 -2.03706 0.553826 0
M  V30 301 O 29.0889 -2.24145 -0.443969 0
M  V30 302 C 29.2989 -1.64968 3.07549 0
M  V30 303 C 30.6469 -2.15505 3.65845 0
M  V30 304 O 31.6709 -1.74925 3.1029 0
M  V30 305 O 30.5299 -2.89986 4.63217 0
M  V30 306 H 27.6239 -0.468553 0.681459 0
M  V30 307 H 30.1699 -0.250806 1.67836 0
M  V30 308 H 28.9419 -0.904785 3.80696 0
M  V30 309 H 28.5649 -2.47321 3.11317 0
M  V30 310 N 29.562 -1.4872 -0.521534 0
M  V30 311 C 30.978 -1.35028 -0.850855 0
M  V30 312 C 31.178 -0.367712 -1.98116 0
M  V30 313 O 30.234 0.208037 -2.51642 0
M  V30 314 C 31.547 -2.75263 -1.21041 0
M  V30 315 C 33.095 -2.83813 -1.31981 0
M  V30 316 C 33.57 -4.24769 -1.71276 0
M  V30 317 N 35.061 -4.27482 -1.78363 0
M  V30 318 C 35.796 -5.33494 -2.1017 0
M  V30 319 N 35.292 -6.49775 -2.40343 0
M  V30 320 N 37.085 -5.20894 -2.11248 0
M  V30 321 H 29.236 -2.11214 0.22413 0
M  V30 322 H 31.499 -0.947252 0.0376439 0
M  V30 323 H 31.205 -3.48765 -0.453415 0
M  V30 324 H 31.079 -3.09327 -2.15863 0
M  V30 325 H 33.466 -2.10561 -2.06756 0
M  V30 326 H 33.547 -2.53358 -0.352596 0
M  V30 327 H 33.191 -4.9854 -0.970588 0
M  V30 328 H 33.121 -4.52673 -2.69062 0
M  V30 329 H 35.612 -3.43611 -1.57288 0
M  V30 330 H 35.925 -7.26402 -2.63743 0
M  V30 331 H 34.27 -6.53035 -2.37844 0
M  V30 332 H 37.461 -4.29065 -1.87139 0
M  V30 333 H 37.634 -6.03612 -2.35704 0
M  V30 334 N 31.0401 0.771051 -1.3745 0
M  V30 335 C 32.2891 1.52491 -1.3202 0
M  V30 336 C 32.6021 1.9538 0.0927347 0
M  V30 337 O 33.8081 2.70159 0.269503 0
M  V30 338 C 32.2641 2.75366 -2.31736 0
M  V30 339 C 31.8721 2.39573 -3.78562 0
M  V30 340 C 33.6161 3.53307 -2.35318 0
M  V30 341 C 31.5231 3.58954 -4.70007 0
M  V30 342 H 30.4531 0.572506 -0.490666 0
M  V30 343 H 33.1041 0.844474 -1.62914 0
M  V30 344 H 31.4861 3.45303 -1.93861 0
M  V30 345 H 32.6601 1.77415 -4.25277 0
M  V30 346 H 30.9751 1.74805 -3.77932 0
M  V30 347 H 33.5721 4.42039 -3.00842 0
M  V30 348 H 33.9151 3.93217 -1.36698 0
M  V30 349 H 34.4481 2.90367 -2.71904 0
M  V30 350 H 31.1871 3.24125 -5.69757 0
M  V30 351 H 30.7071 4.20214 -4.27996 0
M  V30 352 H 32.3861 4.25758 -4.87175 0
M  V30 353 N 32.5182 1.22032 0.997298 0
M  V30 354 C 33.4502 0.944263 2.08845 0
M  V30 355 C 34.4632 -0.0754663 1.62625 0
M  V30 356 O 35.6522 0.157994 1.77799 0
M  V30 357 C 32.7522 0.397723 3.36558 0
M  V30 358 C 31.9252 1.47362 4.11829 0
M  V30 359 C 30.9842 0.934951 5.17827 0
M  V30 360 O 30.0102 1.62016 5.45655 0
M  V30 361 N 31.2122 -0.245895 5.79979 0
M  V30 362 H 33.9772 1.88363 2.33109 0
M  V30 363 H 31.5382 1.12661 1.16272 0
M  V30 364 H 33.5302 0.0227771 4.04694 0
M  V30 365 H 32.1002 -0.446646 3.09393 0
M  V30 366 H 31.3202 2.02208 3.38386 0
M  V30 367 H 32.6082 2.19764 4.58891 0
M  V30 368 H 32.0062 -0.819475 5.59733 0
M  V30 369 H 30.5632 -0.562272 6.4937 0
M  V30 370 N 33.9963 -1.19345 1.0293 0
M  V30 371 C 35.2423 -1.89318 0.727083 0
M  V30 372 C 35.5753 -1.79446 -0.742483 0
M  V30 373 O 34.8503 -1.1871 -1.54072 0
M  V30 374 C 35.1333 -3.40238 1.17942 0
M  V30 375 C 34.9863 -3.58979 2.71024 0
M  V30 376 C 36.3053 -4.33479 0.760548 0
M  V30 377 H 33.4243 -0.687475 0.265606 0
M  V30 378 H 36.0663 -1.40477 1.2793 0
M  V30 379 H 34.2163 -3.81964 0.709608 0
M  V30 380 H 35.8883 -3.26421 3.25955 0
M  V30 381 H 34.1313 -3.02018 3.11396 0
M  V30 382 H 34.8023 -4.64823 2.9773 0
M  V30 383 H 37.2783 -3.99469 1.16464 0
M  V30 384 H 36.1543 -5.37664 1.10493 0
M  V30 385 H 36.4153 -4.40813 -0.337063 0
M  V30 386 N 35.4744 -0.807222 -1.35358 0
M  V30 387 C 36.4044 -0.232509 -2.3234 0
M  V30 388 C 37.3854 0.642386 -1.57504 0
M  V30 389 O 38.5704 0.572526 -1.85569 0
M  V30 390 C 35.7004 0.619238 -3.41735 0
M  V30 391 C 34.6544 -0.157215 -4.27711 0
M  V30 392 C 33.9804 0.816273 -5.28433 0
M  V30 393 C 35.2804 -1.35656 -5.04376 0
M  V30 394 H 36.9744 -1.04276 -2.80654 0
M  V30 395 H 34.5204 -0.50288 -1.34934 0
M  V30 396 H 36.4734 1.03137 -4.08584 0
M  V30 397 H 35.1974 1.46239 -2.92031 0
M  V30 398 H 33.8564 -0.550525 -3.62443 0
M  V30 399 H 33.5044 1.65494 -4.74996 0
M  V30 400 H 33.2044 0.301067 -5.86828 0
M  V30 401 H 34.7284 1.22659 -5.98153 0
M  V30 402 H 36.1424 -1.01927 -5.64166 0
M  V30 403 H 34.5394 -1.8063 -5.7227 0
M  V30 404 H 35.6094 -2.14288 -4.34981 0
M  V30 405 N 36.9525 1.47285 -0.560781 0
M  V30 406 C 38.3685 1.58065 -0.22081 0
M  V30 407 C 38.5685 1.55892 1.27671 0
M  V30 408 O 37.6245 1.46422 2.0571 0
M  V30 409 C 38.9375 2.88418 -0.850625 0
M  V30 410 C 40.4855 3.02009 -0.822184 0
M  V30 411 C 40.9605 4.35066 -1.43113 0
M  V30 412 N 42.4515 4.41711 -1.39448 0
M  V30 413 C 43.1865 5.43237 -1.83525 0
M  V30 414 N 42.6825 6.51555 -2.35474 0
M  V30 415 N 44.4755 5.34304 -1.74574 0
M  V30 416 H 36.6265 1.46941 -1.53369 0
M  V30 417 H 38.8895 0.699558 -0.639783 0
M  V30 418 H 38.5955 2.95755 -1.9032 0
M  V30 419 H 38.4695 3.75612 -0.345773 0
M  V30 420 H 40.8565 2.94266 0.221714 0
M  V30 421 H 40.9375 2.16347 -1.36483 0
M  V30 422 H 40.5815 4.43565 -2.47412 0
M  V30 423 H 40.5115 5.19465 -0.863899 0
M  V30 424 H 43.0025 3.64027 -1.01452 0
M  V30 425 H 43.3155 7.25203 -2.67021 0
M  V30 426 H 41.6605 6.52435 -2.39487 0
M  V30 427 H 44.8515 4.48581 -1.33763 0
M  V30 428 H 45.0245 6.13288 -2.09242 0
M  V30 429 N 38.4306 0.297415 1.54768 0
M  V30 430 C 39.3786 -0.596051 2.24833 0
M  V30 431 C 40.3726 -1.13992 1.25308 0
M  V30 432 O 41.5786 -1.09098 1.4317 0
M  V30 433 H 37.9536 -0.210814 0.721846 0
M  V30 434 H 39.9246 0.0174667 2.98395 0
M  V30 435 C 38.6736 -1.75818 2.99972 0
M  V30 436 H 37.9966 -1.3489 3.76357 0
M  V30 437 H 39.4366 -2.35949 3.52284 0
M  V30 438 C 37.8956 -2.66014 2.06732 0
M  V30 439 O 38.4256 -3.67009 1.63302 0
M  V30 440 N 36.6316 -2.33669 1.72763 0
M  V30 441 H 36.1786 -1.51586 2.08277 0
M  V30 442 H 36.1366 -2.94285 1.10652 0
M  V30 443 N 39.9087 -1.5758 0.0250728 0
M  V30 444 C 40.8417 -2.05473 -0.992777 0
M  V30 445 C 41.8197 -0.949661 -1.31986 0
M  V30 446 O 43.0037 -1.21969 -1.43722 0
M  V30 447 C 40.1307 -2.4734 -2.31389 0
M  V30 448 C 39.1767 -3.68827 -2.1417 0
M  V30 449 S 40.0097 -5.15655 -1.44429 0
M  V30 450 C 41.1657 -5.60814 -2.77918 0
M  V30 451 H 41.3987 -2.91486 -0.585078 0
M  V30 452 H 38.9317 -1.53269 -0.186507 0
M  V30 453 H 40.8897 -2.72127 -3.07339 0
M  V30 454 H 39.5507 -1.6168 -2.69292 0
M  V30 455 H 38.7437 -3.95955 -3.11826 0
M  V30 456 H 38.3457 -3.44172 -1.46362 0
M  V30 457 H 40.6377 -5.64806 -3.74166 0
M  V30 458 H 41.5807 -6.60414 -2.55459 0
M  V30 459 H 41.9887 -4.8845 -2.82979 0
M  V30 460 N 41.3868 0.248026 -1.55636 0
M  V30 461 C 42.6328 0.97767 -1.77678 0
M  V30 462 C 42.9658 1.85016 -0.590135 0
M  V30 463 O 42.2408 1.90095 0.411611 0
M  V30 464 C 42.5238 1.83914 -3.09593 0
M  V30 465 C 42.3768 0.99491 -4.38659 0
M  V30 466 C 43.6958 2.82183 -3.37729 0
M  V30 467 H 40.8148 0.354005 -0.646413 0
M  V30 468 H 43.4568 0.248253 -1.88371 0
M  V30 469 H 41.6068 2.46104 -3.00608 0
M  V30 470 H 43.2788 0.391789 -4.59633 0
M  V30 471 H 41.5218 0.299231 -4.32767 0
M  V30 472 H 42.1928 1.63145 -5.2734 0
M  V30 473 H 44.6688 2.30129 -3.4667 0
M  V30 474 H 43.5448 3.39582 -4.31249 0
M  V30 475 H 43.8058 3.58588 -2.58586 0
M  V30 476 N 42.8649 1.48995 0.513639 0
M  V30 477 C 43.8149 1.61127 1.61314 0
M  V30 478 C 44.7989 0.467521 1.53958 0
M  V30 479 O 45.9909 0.719826 1.61702 0
M  V30 480 C 43.1199 1.66937 2.99978 0
M  V30 481 C 42.2059 2.86847 3.12377 0
M  V30 482 N 42.5969 4.11078 2.94701 0
M  V30 483 C 40.8949 2.84521 3.43459 0
M  V30 484 C 41.5959 4.91615 3.10949 0
M  V30 485 N 40.5719 4.24739 3.3926 0
M  V30 486 H 44.3739 2.54909 1.46282 0
M  V30 487 H 41.8879 1.45593 0.719483 0
M  V30 488 H 43.8849 1.73725 3.78979 0
M  V30 489 H 42.5449 0.742831 3.16089 0
M  V30 490 H 43.5559 4.41258 2.71131 0
M  V30 491 H 40.2329 2.01192 3.65825 0
M  V30 492 H 41.6229 6.00264 3.01882 0
M  V30 493 N 44.343 -0.763751 1.37857 0
M  V30 494 C 45.583 -1.53551 1.34913 0
M  V30 495 C 45.947 -1.91895 -0.0635882 0
M  V30 496 O 47.148 -2.67916 -0.217825 0
M  V30 497 C 45.419 -2.76126 2.26912 0
M  V30 498 S 46.978 -3.66105 2.41893 0
M  V30 499 H 43.796 -0.52559 0.478828 0
M  V30 500 H 46.398 -0.897435 1.73685 0
M  V30 501 H 45.102 -2.4605 3.28463 0
M  V30 502 H 44.633 -3.44887 1.89253 0
M  V30 503 H 46.648 -4.68473 1.63545 0
M  V30 504 N 45.8211 -1.22559 -0.990812 0
M  V30 505 C 46.7841 -0.998863 -2.0629 0
M  V30 506 C 47.7841 0.0354834 -1.60761 0
M  V30 507 O 48.9741 -0.203231 -1.7301 0
M  V30 508 C 46.1061 -0.509203 -3.37076 0
M  V30 509 H 47.2991 -1.95014 -2.27837 0
M  V30 510 H 44.8521 -1.04456 -1.16269 0
M  V30 511 H 45.5871 0.446335 -3.21214 0
M  V30 512 H 45.3721 -1.25547 -3.71457 0
M  V30 513 H 46.8621 -0.370888 -4.1595 0
M  V30 514 N 47.2992 1.18797 -1.03562 0
M  V30 515 C 48.5762 1.84469 -0.650434 0
M  V30 516 C 48.9562 1.92319 0.870433 0
M  V30 517 O 48.3042 1.44528 1.76986 0
M  V30 518 C 48.5142 3.2306 -1.32036 0
M  V30 519 C 49.8622 3.9915 -1.44792 0
M  V30 520 O 50.8862 3.32481 -1.27806 0
M  V30 521 O 49.7452 5.18587 -1.72423 0
M  V30 522 H 46.8392 0.795251 -0.226946 0
M  V30 523 H 49.3852 1.26231 -1.13419 0
M  V30 524 H 48.1572 3.1222 -2.3587 0
M  V30 525 H 47.7802 3.88949 -0.8249 0
M  V30 526 N 48.7773 0.814389 1.34928 0
M  V30 527 C 49.7073 0.244827 2.32213 0
M  V30 528 C 50.6883 -0.634024 1.57842 0
M  V30 529 O 51.8733 -0.562676 1.8587 0
M  V30 530 C 49.0033 -0.601106 3.42058 0
M  V30 531 C 47.9573 0.179896 4.27622 0
M  V30 532 C 47.2833 -0.788237 5.28858 0
M  V30 533 C 48.5833 1.38329 5.03649 0
M  V30 534 H 50.2773 1.05763 2.80097 0
M  V30 535 H 47.8233 0.510029 1.34665 0
M  V30 536 H 49.7763 -1.00968 4.09125 0
M  V30 537 H 48.5003 -1.44688 2.92802 0
M  V30 538 H 47.1593 0.569739 3.62146 0
M  V30 539 H 46.8073 -1.62973 4.75866 0
M  V30 540 H 46.5073 -0.269942 5.8698 0
M  V30 541 H 48.0313 -1.19485 5.98795 0
M  V30 542 H 49.4453 1.04918 5.63618 0
M  V30 543 H 47.8423 1.83662 5.71304 0
M  V30 544 H 48.9123 2.16592 4.33839 0
M  V30 545 N 50.2554 -1.46986 0.568584 0
M  V30 546 C 51.4804 -2.07335 0.0520528 0
M  V30 547 C 51.9054 -1.41675 -1.23733 0
M  V30 548 O 51.2634 -0.495623 -1.74394 0
M  V30 549 C 51.3114 -3.60417 -0.11501 0
M  V30 550 O 50.4154 -3.95309 -1.17492 0
M  V30 551 H 49.7564 -0.661597 0.0564385 0
M  V30 552 H 52.2864 -1.88837 0.787507 0
M  V30 553 H 52.2964 -4.06698 -0.325644 0
M  V30 554 H 50.9714 -4.07601 0.826675 0
M  V30 555 H 49.5484 -3.60757 -0.943869 0
M  V30 556 N 51.7335 -0.305618 -1.54608 0
M  V30 557 C 52.6815 0.584119 -2.25146 0
M  V30 558 C 53.6755 1.13326 -1.25911 0
M  V30 559 O 54.8815 1.08337 -1.43747 0
M  V30 560 H 51.2565 0.206983 -0.722954 0
M  V30 561 H 53.2275 -0.033291 -2.98381 0
M  V30 562 C 51.9765 1.74225 -3.009 0
M  V30 563 H 51.2995 1.32892 -3.77067 0
M  V30 564 H 52.7395 2.34077 -3.53531 0
M  V30 565 C 51.1985 2.64914 -2.0814 0
M  V30 566 O 51.7285 3.66137 -1.65246 0
M  V30 567 N 49.9345 2.3275 -1.74 0
M  V30 568 H 49.4815 1.50479 -2.09078 0
M  V30 569 H 49.4395 2.93694 -1.12211 0
M  V30 570 N 53.2116 1.57565 -0.0334293 0
M  V30 571 C 54.6226 1.79746 0.504798 0
M  V30 572 C 54.9736 0.944091 1.71992 0
M  V30 573 O 54.0986 0.155694 2.15839 0
M  V30 574 C 54.6936 3.25997 0.922567 0
M  V30 575 C 53.2526 3.49159 1.40588 0
M  V30 576 C 52.3996 2.74785 0.372633 0
M  V30 577 H 55.3506 1.56565 -0.259436 0
M  V30 578 H 55.3716 3.35945 1.78666 0
M  V30 579 H 54.8836 3.88081 0.0379825 0
M  V30 580 H 52.9846 2.92332 2.31025 0
M  V30 581 H 53.0976 4.57873 1.41028 0
M  V30 582 H 51.4616 2.40391 0.841672 0
M  V30 583 H 52.2446 3.39587 -0.503559 0
M  V30 584 N 54.6897 -0.239769 1.55765 0
M  V30 585 C 55.9177 -0.98417 1.81994 0
M  V30 586 C 56.3327 -1.7867 0.610124 0
M  V30 587 O 55.6897 -1.77571 -0.421271 0
M  V30 588 C 55.7407 -1.91635 3.06526 0
M  V30 589 O 55.4617 -1.14629 4.22838 0
M  V30 590 C 56.9627 -2.77616 3.45607 0
M  V30 591 H 54.1827 -0.28928 0.605441 0
M  V30 592 H 56.7267 -0.260499 2.02834 0
M  V30 593 H 54.8817 -2.5942 2.87715 0
M  V30 594 H 55.2957 -1.77745 4.93464 0
M  V30 595 H 56.7697 -3.38759 4.35828 0
M  V30 596 H 57.2467 -3.4909 2.6652 0
M  V30 597 H 57.8527 -2.15271 3.66795 0
M  V30 598 N 56.1678 -1.49265 -0.50573 0
M  V30 599 C 57.1148 -1.65585 -1.6078 0
M  V30 600 C 58.0848 -0.497396 -1.58478 0
M  V30 601 O 59.2698 -0.72385 -1.76536 0
M  V30 602 C 56.4098 -1.72408 -2.98948 0
M  V30 603 C 55.5228 -2.99525 -3.11301 0
M  V30 604 C 54.6578 -2.97356 -4.40174 0
M  V30 605 C 53.6968 -4.19074 -4.46143 0
M  V30 606 N 52.8338 -4.14841 -5.66437 0
M  V30 607 H 57.6738 -2.59688 -1.46172 0
M  V30 608 H 55.2108 -1.28761 -0.711261 0
M  V30 609 H 57.1688 -1.74344 -3.79025 0
M  V30 610 H 55.7988 -0.817753 -3.1227 0
M  V30 611 H 54.8508 -3.07222 -2.24318 0
M  V30 612 H 56.1628 -3.89518 -3.11572 0
M  V30 613 H 55.3168 -2.97829 -5.28567 0
M  V30 614 H 54.0558 -2.05133 -4.42461 0
M  V30 615 H 53.0608 -4.1885 -3.56153 0
M  V30 616 H 54.2858 -5.12483 -4.45575 0
M  V30 617 H 52.2318 -3.25453 -5.69575 0
M  V30 618 H 52.1488 -4.98564 -5.68304 0
M  V30 619 H 53.4168 -4.1941 -6.57051 0
M  V30 620 N 57.6459 0.756429 -1.3826 0
M  V30 621 C 59.0569 1.33359 -1.30661 0
M  V30 622 C 59.4079 1.96161 0.0388875 0
M  V30 623 O 58.5329 1.94874 0.940918 0
M  V30 624 C 59.1279 2.42477 -2.36622 0
M  V30 625 C 57.6869 2.95922 -2.3261 0
M  V30 626 C 56.8339 1.69275 -2.19639 0
M  V30 627 H 59.7849 0.55552 -1.4866 0
M  V30 628 H 59.8059 3.22345 -2.02174 0
M  V30 629 H 59.3179 1.96739 -3.34538 0
M  V30 630 H 57.4189 3.45996 -1.38267 0
M  V30 631 H 57.5319 3.50494 -3.26636 0
M  V30 632 H 55.8959 1.92793 -1.66442 0
M  V30 633 H 56.6789 1.25619 -3.19491 0
M  V30 634 N 59.124 1.23083 0.984299 0
M  V30 635 C 60.054 1.03292 2.09411 0
M  V30 636 C 61.035 -0.048923 1.7003 0
M  V30 637 O 62.22 0.114967 1.93859 0
M  V30 638 C 59.35 0.619155 3.41736 0
M  V30 639 C 58.304 1.64791 3.95004 0
M  V30 640 C 57.63 1.0897 5.23478 0
M  V30 641 C 58.93 3.03999 4.24714 0
M  V30 642 H 60.624 1.96119 2.26225 0
M  V30 643 H 58.17 0.944344 1.08711 0
M  V30 644 H 60.123 0.467777 4.18796 0
M  V30 645 H 58.847 -0.344786 3.24775 0
M  V30 646 H 57.506 1.78721 3.20085 0
M  V30 647 H 57.154 0.11686 5.02864 0
M  V30 648 H 56.854 1.77704 5.60085 0
M  V30 649 H 58.378 0.950093 6.03163 0
M  V30 650 H 59.792 2.93393 4.92538 0
M  V30 651 H 58.189 3.69936 4.72512 0
M  V30 652 H 59.259 3.53285 3.32142 0
M  V30 653 N 60.6021 -1.18246 1.0419 0
M  V30 654 C 61.5121 -2.25574 0.644476 0
M  V30 655 C 62.5281 -1.70845 -0.329826 0
M  V30 656 O 63.7041 -2.00554 -0.184443 0
M  V30 657 C 60.7691 -3.46697 0.014877 0
M  V30 658 C 59.8301 -4.16554 1.03834 0
M  V30 659 C 59.0631 -5.31894 0.438692 0
M  V30 660 O 59.2861 -5.65385 -0.754752 0
M  V30 661 O 58.2201 -5.90459 1.168 0
M  V30 662 H 62.0461 -2.61836 1.53869 0
M  V30 663 H 59.6311 -1.25352 0.812854 0
M  V30 664 H 61.5131 -4.20062 -0.335538 0
M  V30 665 H 60.1881 -3.12255 -0.853138 0
M  V30 666 H 59.0951 -3.45251 1.44057 0
M  V30 667 H 60.4281 -4.54998 1.87716 0
M  V30 668 N 62.0802 -0.821533 -1.34494 0
M  V30 669 C 63.0102 -0.257138 -2.3208 0
M  V30 670 C 63.9912 0.625645 -1.58176 0
M  V30 671 O 65.1762 0.552811 -1.86166 0
M  V30 672 C 62.3062 0.582958 -3.42372 0
M  V30 673 C 61.2602 -0.202571 -4.2752 0
M  V30 674 C 60.5862 0.760179 -5.29269 0
M  V30 675 C 61.8862 -1.40998 -5.02908 0
M  V30 676 H 63.5802 -1.07247 -2.79532 0
M  V30 677 H 61.1262 -0.517163 -1.34393 0
M  V30 678 H 63.0792 0.987972 -4.09655 0
M  V30 679 H 61.8032 1.43133 -2.93565 0
M  V30 680 H 60.4622 -0.588936 -3.61838 0
M  V30 681 H 60.1102 1.60447 -4.76724 0
M  V30 682 H 59.8102 0.238809 -5.87115 0
M  V30 683 H 61.3342 1.16308 -5.9942 0
M  V30 684 H 62.7482 -1.07905 -5.63054 0
M  V30 685 H 61.1452 -1.86689 -5.70322 0
M  V30 686 H 62.2152 -2.1889 -4.32684 0
M  V30 687 N 63.5583 1.46682 -0.576371 0
M  V30 688 C 64.7883 2.06498 -0.0648694 0
M  V30 689 C 65.1963 1.42665 1.24271 0
M  V30 690 O 64.5393 0.523886 1.76071 0
M  V30 691 C 64.6013 3.5904 0.181816 0
M  V30 692 C 64.2653 4.45028 -1.0392 0
M  V30 693 C 65.2623 4.81959 -1.94966 0
M  V30 694 C 62.9473 4.86259 -1.25927 0
M  V30 695 C 64.9413 5.58942 -3.06371 0
M  V30 696 C 62.6283 5.63002 -2.37638 0
M  V30 697 C 63.6263 5.99257 -3.2769 0
M  V30 698 O 63.3143 6.7445 -4.37461 0
M  V30 699 H 63.0463 0.674028 -0.0515987 0
M  V30 700 H 65.6003 1.89393 -0.794951 0
M  V30 701 H 63.8303 3.74429 0.966436 0
M  V30 702 H 65.5193 4.00806 0.641047 0
M  V30 703 H 66.2853 4.50689 -1.79177 0
M  V30 704 H 62.1643 4.57494 -0.567448 0
M  V30 705 H 65.7083 5.87158 -3.76684 0
M  V30 706 H 61.6053 5.93686 -2.53392 0
M  V30 707 H 62.3733 6.92867 -4.35749 0
M  V30 708 N 65.0364 0.313813 1.54444 0
M  V30 709 C 66.4524 -0.0391619 1.59552 0
M  V30 710 C 66.6524 -1.51322 1.33056 0
M  V30 711 O 65.7084 -2.26782 1.11022 0
M  V30 712 C 67.0214 0.370302 2.98411 0
M  V30 713 C 68.5694 0.320139 3.11358 0
M  V30 714 C 69.0444 0.704617 4.52547 0
M  V30 715 N 70.5354 0.657645 4.58508 0
M  V30 716 C 71.2704 0.927453 5.6585 0
M  V30 717 N 70.7664 1.26389 6.81174 0
M  V30 718 N 72.5594 0.853662 5.5558 0
M  V30 719 H 64.7104 1.27433 1.69925 0
M  V30 720 H 66.9734 0.517511 0.794284 0
M  V30 721 H 66.6794 1.39694 3.22767 0
M  V30 722 H 66.5534 -0.269619 3.76235 0
M  V30 723 H 68.9404 -0.697275 2.86744 0
M  V30 724 H 69.0214 0.99486 2.35661 0
M  V30 725 H 68.6654 1.7199 4.77893 0
M  V30 726 H 68.5954 0.00768843 5.26599 0
M  V30 727 H 71.0864 0.409067 3.75679 0
M  V30 728 H 71.3994 1.4554 7.58972 0
M  V30 729 H 69.7444 1.30206 6.82694 0
M  V30 730 H 72.9354 0.590383 4.64362 0
M  V30 731 H 73.1084 1.0673 6.3915 0
M  V30 732 N 66.5145 -1.57545 0.0417849 0
M  V30 733 C 67.4465 -2.07904 -0.964799 0
M  V30 734 C 68.4595 -1.00497 -1.28079 0
M  V30 735 O 69.6485 -1.28087 -1.24322 0
M  V30 736 C 66.7485 -2.49928 -2.28887 0
M  V30 737 C 65.9215 -3.80562 -2.15619 0
M  V30 738 C 64.9805 -4.08999 -3.31069 0
M  V30 739 O 64.0065 -4.79061 -3.0739 0
M  V30 740 N 65.2085 -3.6017 -4.55256 0
M  V30 741 H 67.9735 -2.94886 -0.535029 0
M  V30 742 H 65.5345 -1.61252 -0.144681 0
M  V30 743 H 67.5265 -2.66034 -3.04972 0
M  V30 744 H 66.0965 -1.68245 -2.63463 0
M  V30 745 H 65.3165 -3.74129 -1.24183 0
M  V30 746 H 66.6045 -4.66126 -2.03971 0
M  V30 747 H 66.0025 -3.03512 -4.77386 0
M  V30 748 H 64.5595 -3.81532 -5.28466 0
M  V30 749 N 67.9926 0.231505 -1.5589 0
M  V30 750 C 69.2386 0.954429 -1.79617 0
M  V30 751 C 69.5936 1.82367 -0.613199 0
M  V30 752 O 68.8866 1.87524 0.393094 0
M  V30 753 C 69.0806 1.83577 -3.0665 0
M  V30 754 C 68.9096 1.05334 -4.3719 0
M  V30 755 C 67.6796 0.75225 -4.99669 0
M  V30 756 C 69.8776 0.423444 -5.12554 0
M  V30 757 N 67.8596 -0.052627 -6.13877 0
M  V30 758 C 69.2306 -0.245287 -6.19515 0
M  V30 759 C 71.2856 0.335466 -4.96769 0
M  V30 760 C 69.9886 -0.993566 -7.12405 0
M  V30 761 C 72.0146 -0.399321 -5.9005 0
M  V30 762 C 71.3766 -1.05663 -6.9643 0
M  V30 763 H 67.4756 0.329846 -0.709031 0
M  V30 764 H 70.0596 0.226172 -1.93382 0
M  V30 765 H 68.2306 2.53592 -2.94186 0
M  V30 766 H 69.9626 2.49541 -3.18608 0
M  V30 767 H 66.7176 1.06783 -4.61405 0
M  V30 768 H 67.1416 -0.443609 -6.75545 0
M  V30 769 H 71.7836 0.829311 -4.14587 0
M  V30 770 H 69.5016 -1.49896 -7.94076 0
M  V30 771 H 73.0876 -0.468265 -5.79913 0
M  V30 772 H 71.9676 -1.61612 -7.67366 0
M  V30 773 N 69.4707 1.49531 0.497807 0
M  V30 774 C 70.6987 1.62893 1.27567 0
M  V30 775 C 71.1137 0.301585 1.86376 0
M  V30 776 O 70.4707 -0.713335 1.67982 0
M  V30 777 C 70.5217 2.70013 2.40364 0
M  V30 778 O 70.2427 3.976 1.83972 0
M  V30 779 C 71.7437 2.94109 3.31685 0
M  V30 780 H 68.9637 0.548298 0.386794 0
M  V30 781 H 71.5077 1.95584 0.597245 0
M  V30 782 H 69.6627 2.40092 3.04031 0
M  V30 783 H 70.0767 4.56631 2.58047 0
M  V30 784 H 71.5507 3.72788 4.07104 0
M  V30 785 H 72.0277 2.04147 3.88871 0
M  V30 786 H 72.6337 3.2546 2.73781 0
M  V30 787 N 70.9488 -0.749086 1.3866 0
M  V30 788 C 72.2258 -1.4992 1.25632 0
M  V30 789 C 72.6058 -2.10633 -0.140317 0
M  V30 790 O 71.9538 -1.97437 -1.15025 0
M  V30 791 C 72.1638 -2.56195 2.36992 0
M  V30 792 C 73.5118 -3.22972 2.75634 0
M  V30 793 O 74.5358 -2.66502 2.36337 0
M  V30 794 O 73.3948 -4.25122 3.43415 0
M  V30 795 H 70.4888 -0.665067 0.491544 0
M  V30 796 H 73.0348 -0.784113 1.50498 0
M  V30 797 H 71.8068 -2.09612 3.30422 0
M  V30 798 H 71.4298 -3.35279 2.13714 0
M  V30 799 N 72.4269 -1.23603 -0.977757 0
M  V30 800 C 73.8429 -0.999251 -1.24447 0
M  V30 801 C 74.0429 0.298053 -1.99283 0
M  V30 802 O 73.0989 1.01681 -2.31122 0
M  V30 803 C 74.4119 -2.20784 -2.04144 0
M  V30 804 C 75.9599 -2.25303 -2.17273 0
M  V30 805 C 76.4349 -3.45755 -3.00362 0
M  V30 806 N 77.9259 -3.4601 -3.07947 0
M  V30 807 C 78.6609 -4.35868 -3.72568 0
M  V30 808 N 78.1569 -5.35966 -4.38991 0
M  V30 809 N 79.9499 -4.23605 -3.6948 0
M  V30 810 H 72.1009 -2.06986 -0.476483 0
M  V30 811 H 74.3639 -0.907801 -0.273134 0
M  V30 812 H 74.0699 -3.14945 -1.56533 0
M  V30 813 H 73.9439 -2.22085 -3.04891 0
M  V30 814 H 76.3309 -1.3168 -2.64092 0
M  V30 815 H 76.4119 -2.28033 -1.15907 0
M  V30 816 H 76.0559 -4.39687 -2.5424 0
M  V30 817 H 75.9859 -3.40266 -4.01904 0
M  V30 818 H 78.4769 -2.73588 -2.60688 0
M  V30 819 H 78.7899 -6.00783 -4.86086 0
M  V30 820 H 77.1349 -5.39863 -4.37691 0
M  V30 821 H 80.3259 -3.44647 -3.16759 0
M  V30 822 H 80.4989 -4.93836 -4.1956 0
M  V30 823 N 73.905 1.17692 -1.04816 0
M  V30 824 C 75.154 1.87192 -0.751132 0
M  V30 825 C 75.467 1.8169 0.724441 0
M  V30 826 O 76.673 2.46625 1.13527 0
M  V30 827 C 75.129 3.35857 -1.29338 0
M  V30 828 C 74.737 3.4987 -2.79812 0
M  V30 829 C 76.481 4.10709 -1.07322 0
M  V30 830 C 74.388 4.92536 -3.27356 0
M  V30 831 H 73.318 0.701162 -0.277288 0
M  V30 832 H 75.969 1.32932 -1.26496 0
M  V30 833 H 74.351 3.89631 -0.707376 0
M  V30 834 H 75.525 3.06332 -3.44235 0
M  V30 835 H 73.84 2.88433 -3.00325 0
M  V30 836 H 76.437 5.15952 -1.4035 0
M  V30 837 H 76.78 4.16299 -0.0108001 0
M  V30 838 H 77.313 3.6313 -1.62423 0
M  V30 839 H 74.052 4.92119 -4.33012 0
M  V30 840 H 73.572 5.3676 -2.67673 0
M  V30 841 H 75.251 5.61288 -3.21815 0
M  V30 842 N 75.3831 0.828654 1.34056 0
M  V30 843 C 76.3161 0.199763 2.27324 0
M  V30 844 C 77.2941 -0.647168 1.49166 0
M  V30 845 O 78.4781 -0.609661 1.78369 0
M  V30 846 C 75.6051 -0.720455 3.30949 0
M  V30 847 C 74.6511 0.0496888 4.26471 0
M  V30 848 S 75.4841 1.40072 5.16856 0
M  V30 849 C 76.6401 0.485527 6.24014 0
M  V30 850 H 76.8731 0.990478 2.80316 0
M  V30 851 H 74.4061 0.624857 1.41191 0
M  V30 852 H 76.3641 -1.24581 3.91139 0
M  V30 853 H 75.0251 -1.48474 2.76793 0
M  V30 854 H 74.2181 -0.650104 4.9979 0
M  V30 855 H 73.8201 0.505779 3.70564 0
M  V30 856 H 76.1121 -0.320672 6.76741 0
M  V30 857 H 77.0551 1.18856 6.98054 0
M  V30 858 H 77.4631 0.0714109 5.64455 0
M  V30 859 N 76.8612 -1.46375 0.584142 0
M  V30 860 C 77.8242 -2.28784 -0.138108 0
M  V30 861 C 78.8242 -1.38471 -0.817462 0
M  V30 862 O 80.0142 -1.60833 -0.669199 0
M  V30 863 C 77.1462 -3.18892 -1.20503 0
M  V30 864 H 78.3392 -2.94117 0.586127 0
M  V30 865 H 75.8922 -1.52509 0.342171 0
M  V30 866 H 76.6272 -2.58309 -1.96079 0
M  V30 867 H 76.4122 -3.85388 -0.722384 0
M  V30 868 H 77.9022 -3.80914 -1.71155 0
M  V30 869 N 78.3393 -0.321999 -1.54275 0
M  V30 870 C 79.2493 0.553631 -2.27974 0
M  V30 871 C 80.2653 1.13054 -1.32268 0
M  V30 872 O 81.4413 1.15084 -1.6528 0
M  V30 873 C 78.5063 1.69927 -3.02201 0
M  V30 874 C 77.5673 1.15433 -4.1349 0
M  V30 875 C 76.8003 2.24537 -4.84168 0
M  V30 876 O 77.0233 3.44852 -4.5435 0
M  V30 877 O 75.9573 1.90044 -5.7111 0
M  V30 878 H 79.7833 -0.0448345 -3.03667 0
M  V30 879 H 77.3683 -0.0877418 -1.49142 0
M  V30 880 H 79.2503 2.3663 -3.48689 0
M  V30 881 H 77.9253 2.28395 -2.29385 0
M  V30 882 H 76.8323 0.452436 -3.71354 0
M  V30 883 H 78.1653 0.614805 -4.88345 0
M  V30 884 N 79.8174 1.5752 -0.0501392 0
M  V30 885 C 81.0644 1.9265 0.623874 0
M  V30 886 C 81.3924 0.928411 1.70912 0
M  V30 887 O 80.6474 -0.0594525 1.9561 0
M  V30 888 C 80.9464 3.34467 1.25963 0
M  V30 889 C 80.6124 4.49883 0.302689 0
M  V30 890 C 79.2744 4.81184 0.0393636 0
M  V30 891 C 81.6264 5.20002 -0.353205 0
M  V30 892 C 78.9544 5.79951 -0.887308 0
M  V30 893 C 81.3064 6.1976 -1.26806 0
M  V30 894 C 79.9704 6.49491 -1.54007 0
M  V30 895 H 79.2404 0.704957 0.228292 0
M  V30 896 H 81.8874 1.91146 -0.116398 0
M  V30 897 H 80.1924 3.32333 2.07514 0
M  V30 898 H 81.8894 3.58928 1.78806 0
M  V30 899 H 78.4794 4.25457 0.518109 0
M  V30 900 H 82.6634 4.96033 -0.162854 0
M  V30 901 H 77.9194 6.01322 -1.10553 0
M  V30 902 H 82.0934 6.73205 -1.78236 0
M  V30 903 H 79.7204 7.25837 -2.25976 0
M  V30 904 N 81.2955 -0.223234 1.56011 0
M  V30 905 C 82.5425 -0.947875 1.78946 0
M  V30 906 C 82.8705 -1.844 0.618608 0
M  V30 907 O 82.1255 -1.91629 -0.397093 0
M  V30 908 C 82.4245 -1.81948 3.0762 0
M  V30 909 C 82.0905 -1.07672 4.37856 0
M  V30 910 C 80.7525 -0.871544 4.73242 0
M  V30 911 C 83.1045 -0.552081 5.18268 0
M  V30 912 C 80.4325 -0.129791 5.86556 0
M  V30 913 C 82.7845 0.17632 6.32354 0
M  V30 914 C 81.4485 0.39277 6.66343 0
M  V30 915 H 80.7185 -0.346852 0.654809 0
M  V30 916 H 83.3655 -0.216171 1.90276 0
M  V30 917 H 81.6705 -2.61899 2.91404 0
M  V30 918 H 83.3675 -2.38227 3.22566 0
M  V30 919 H 79.9575 -1.24662 4.1007 0
M  V30 920 H 84.1415 -0.698076 4.91366 0
M  V30 921 H 79.3975 0.048153 6.11381 0
M  V30 922 H 83.5715 0.590367 6.93893 0
M  V30 923 H 81.1985 0.969466 7.53993 0
M  V30 924 N 82.7736 -1.49793 -0.48987 0
M  V30 925 C 83.7056 -1.63413 -1.60713 0
M  V30 926 C 84.7186 -0.516329 -1.54395 0
M  V30 927 O 85.9076 -0.788812 -1.60125 0
M  V30 928 C 83.0076 -1.58516 -2.99543 0
M  V30 929 C 82.1806 -2.86016 -3.30928 0
M  V30 930 C 81.2396 -2.74018 -4.49222 0
M  V30 931 O 80.2656 -3.47964 -4.50455 0
M  V30 932 N 81.4676 -1.86309 -5.4979 0
M  V30 933 H 84.2326 -2.59777 -1.49452 0
M  V30 934 H 81.7936 -1.47022 -0.677955 0
M  V30 935 H 83.7856 -1.48128 -3.76617 0
M  V30 936 H 82.3556 -0.69965 -3.0467 0
M  V30 937 H 81.5756 -3.10672 -2.42645 0
M  V30 938 H 82.8636 -3.70521 -3.487 0
M  V30 939 H 82.2616 -1.2551 -5.51601 0
M  V30 940 H 80.8186 -1.81837 -6.25922 0
M  V30 941 N 84.2517 0.741722 -1.39055 0
M  V30 942 C 85.1837 1.8657 -1.33133 0
M  V30 943 C 86.1967 1.61001 -0.241329 0
M  V30 944 O 87.3857 1.7136 -0.499784 0
M  V30 945 C 84.4857 3.22457 -1.04283 0
M  V30 946 C 83.6587 3.75435 -2.24427 0
M  V30 947 C 82.7177 4.89867 -1.92138 0
M  V30 948 O 81.7437 5.03879 -2.64754 0
M  V30 949 N 82.9457 5.73738 -0.88347 0
M  V30 950 H 85.7107 1.92156 -2.29991 0
M  V30 951 H 83.2717 0.922172 -1.3307 0
M  V30 952 H 85.2637 3.9657 -0.807128 0
M  V30 953 H 83.8337 3.12181 -0.161807 0
M  V30 954 H 83.0537 2.92751 -2.6399 0
M  V30 955 H 84.3417 4.07563 -3.04581 0
M  V30 956 H 83.7397 5.64999 -0.281517 0
M  V30 957 H 82.2967 6.47947 -0.707662 0
M  V30 958 N 85.7298 1.2412 0.971189 0
M  V30 959 C 86.9778 1.07668 1.71032 0
M  V30 960 C 87.2988 -0.385797 1.91146 0
M  V30 961 O 86.5688 -1.27569 1.4867 0
M  V30 962 H 85.1488 0.395429 0.633755 0
M  V30 963 H 87.8108 1.55984 1.16855 0
M  V30 964 H 86.9068 1.57195 2.69622 0
M  V30 965 N 87.2079 -1.17134 1.05439 0
M  V30 966 C 88.4849 -1.83411 0.679699 0
M  V30 967 C 88.8649 -1.9368 -0.839726 0
M  V30 968 O 88.2129 -1.47325 -1.74664 0
M  V30 969 C 88.4229 -3.20918 1.37159 0
M  V30 970 C 89.7709 -3.96796 1.51123 0
M  V30 971 O 90.7949 -3.30406 1.3308 0
M  V30 972 O 89.6539 -5.15778 1.80651 0
M  V30 973 H 86.7479 -0.79154 0.239569 0
M  V30 974 H 89.2939 -1.24411 1.15413 0
M  V30 975 H 88.0659 -3.08428 2.40807 0
M  V30 976 H 87.6889 -3.87587 0.886674 0
M  V30 977 N 88.686 -0.835752 -1.33615 0
M  V30 978 C 90.102 -0.523139 -1.50783 0
M  V30 979 C 90.302 0.950171 -1.77691 0
M  V30 980 O 89.358 1.73411 -1.83534 0
M  V30 981 C 90.671 -1.39378 -2.66448 0
M  V30 982 C 92.219 -1.39223 -2.80332 0
M  V30 983 C 92.694 -2.24765 -3.99055 0
M  V30 984 N 94.185 -2.22458 -4.06284 0
M  V30 985 C 94.92 -2.85386 -4.97336 0
M  V30 986 N 94.416 -3.57354 -5.93523 0
M  V30 987 N 96.209 -2.74872 -4.90308 0
M  V30 988 H 88.36 -1.78952 -1.14411 0
M  V30 989 H 90.623 -0.763297 -0.562212 0
M  V30 990 H 90.329 -2.44061 -2.53234 0
M  V30 991 H 90.203 -1.0676 -3.61776 0
M  V30 992 H 92.59 -0.353136 -2.92979 0
M  V30 993 H 92.671 -1.75846 -1.85773 0
M  V30 994 H 92.315 -3.28732 -3.87167 0
M  V30 995 H 92.245 -1.85485 -4.92852 0
M  V30 996 H 94.736 -1.70119 -3.37443 0
M  V30 997 H 95.049 -4.02584 -6.59656 0
M  V30 998 H 93.394 -3.61461 -5.93608 0
M  V30 999 H 96.585 -2.18213 -4.14126 0
M  V30 1000 H 96.758 -3.24199 -5.61069 0
M  V30 1001 N 90.1641 1.46063 -0.591896 0
M  V30 1002 C 91.0741 2.34192 0.13831 0
M  V30 1003 C 92.0901 1.50305 0.876608 0
M  V30 1004 O 93.2661 1.8315 0.837728 0
M  V30 1005 C 90.3311 3.27656 1.13326 0
M  V30 1006 C 89.3921 4.27445 0.39863 0
M  V30 1007 C 88.6251 5.16443 1.34618 0
M  V30 1008 O 88.8481 5.08553 2.58321 0
M  V30 1009 O 87.7821 5.95843 0.851768 0
M  V30 1010 H 91.6081 2.98002 -0.58552 0
M  V30 1011 H 89.1931 1.45188 -0.352239 0
M  V30 1012 H 91.0751 3.85291 1.70671 0
M  V30 1013 H 89.7501 2.6643 1.83839 0
M  V30 1014 H 88.6571 3.73471 -0.216895 0
M  V30 1015 H 89.9901 4.91482 -0.265709 0
M  V30 1016 N 91.6422 0.330177 1.54103 0
M  V30 1017 C 93.0582 -0.0222371 1.59585 0
M  V30 1018 C 93.2582 -1.49902 1.34654 0
M  V30 1019 O 92.3142 -2.25592 1.13421 0
M  V30 1020 C 93.6272 0.401932 2.98002 0
M  V30 1021 C 95.1752 0.353145 3.11001 0
M  V30 1022 C 95.6502 0.752576 4.51775 0
M  V30 1023 N 97.1412 0.706239 4.57784 0
M  V30 1024 C 97.8762 0.987417 5.64834 0
M  V30 1025 N 97.3722 1.33607 6.79795 0
M  V30 1026 N 99.1652 0.91254 5.54643 0
M  V30 1027 H 91.3162 1.29228 1.68564 0
M  V30 1028 H 93.5792 0.525906 0.78875 0
M  V30 1029 H 93.2852 1.4311 3.21267 0
M  V30 1030 H 93.1592 -0.229699 3.765 0
M  V30 1031 H 95.5462 -0.666822 2.87467 0
M  V30 1032 H 95.6272 1.0198 2.34593 0
M  V30 1033 H 95.2712 1.77049 4.76042 0
M  V30 1034 H 95.2012 0.0635409 5.26562 0
M  V30 1035 H 97.6922 0.44889 3.75224 0
M  V30 1036 H 98.0052 1.53582 7.57385 0
M  V30 1037 H 96.3502 1.37439 6.81275 0
M  V30 1038 H 99.5412 0.639601 4.6371 0
M  V30 1039 H 99.7142 1.13503 6.37982 0
M  V30 1040 N 93.1203 -1.57491 0.0584922 0
M  V30 1041 C 94.0303 -2.15448 -0.928414 0
M  V30 1042 C 95.0463 -1.11416 -1.3365 0
M  V30 1043 O 96.2223 -1.4362 -1.41193 0
M  V30 1044 C 93.2873 -2.69393 -2.18239 0
M  V30 1045 C 92.3483 -3.88249 -1.83196 0
M  V30 1046 C 91.5813 -4.39613 -3.02616 0
M  V30 1047 O 91.8043 -3.90023 -4.16219 0
M  V30 1048 O 90.7383 -5.31111 -2.83204 0
M  V30 1049 H 94.5643 -3.00112 -0.465483 0
M  V30 1050 H 92.1493 -1.48499 -0.163826 0
M  V30 1051 H 94.0313 -3.04026 -2.91798 0
M  V30 1052 H 92.7063 -1.87796 -2.63656 0
M  V30 1053 H 91.6133 -3.58492 -1.06931 0
M  V30 1054 H 92.9463 -4.71098 -1.42573 0
M  V30 1055 N 94.5984 0.214957 -1.56127 0
M  V30 1056 C 96.0144 0.564948 -1.49267 0
M  V30 1057 C 96.2144 1.86827 -0.754838 0
M  V30 1058 O 95.2704 2.50745 -0.297198 0
M  V30 1059 C 96.5834 0.638071 -2.93852 0
M  V30 1060 C 98.1314 0.728253 -3.0441 0
M  V30 1061 C 98.6064 0.832663 -4.50367 0
M  V30 1062 N 100.097 0.896712 -4.54437 0
M  V30 1063 C 100.832 0.997324 -5.6466 0
M  V30 1064 N 100.328 1.06147 -6.8462 0
M  V30 1065 N 102.121 1.03297 -5.52527 0
M  V30 1066 H 94.2724 -0.640211 -2.02522 0
M  V30 1067 H 96.5354 -0.225507 -0.920788 0
M  V30 1068 H 96.2414 -0.250126 -3.50809 0
M  V30 1069 H 96.1154 1.49947 -3.46115 0
M  V30 1070 H 98.5024 1.60689 -2.47514 0
M  V30 1071 H 98.5834 -0.158952 -2.55306 0
M  V30 1072 H 98.2274 -0.0415417 -5.07883 0
M  V30 1073 H 98.1574 1.73538 -4.97184 0
M  V30 1074 H 100.648 0.857188 -3.6805 0
M  V30 1075 H 100.961 1.1382 -7.64372 0
M  V30 1076 H 99.3064 1.03049 -6.87318 0
M  V30 1077 H 102.497 0.979558 -4.57736 0
M  V30 1078 H 102.67 1.10793 -6.38458 0
M  V30 1079 N 96.0765 1.50051 0.48192 0
M  V30 1080 C 97.3245 1.60181 1.23234 0
M  V30 1081 C 97.6455 0.299176 1.92691 0
M  V30 1082 O 96.9155 -0.682708 1.83619 0
M  V30 1083 H 95.4955 0.590232 0.457859 0
M  V30 1084 H 98.1575 1.86775 0.556881 0
M  V30 1085 H 97.2535 2.40753 1.98607 0
M  V30 1086 N 97.5546 -0.734337 1.39446 0
M  V30 1087 C 98.4876 -1.85715 1.32609 0
M  V30 1088 C 99.4656 -1.6137 0.199636 0
M  V30 1089 O 100.65 -1.84626 0.380195 0
M  V30 1090 C 97.7766 -3.21709 1.05929 0
M  V30 1091 C 96.8226 -3.64913 2.20773 0
M  V30 1092 S 97.6556 -3.74203 3.83056 0
M  V30 1093 C 98.8116 -5.12986 3.58603 0
M  V30 1094 H 99.0446 -1.91232 2.27635 0
M  V30 1095 H 96.5776 -0.899263 1.25509 0
M  V30 1096 H 98.5356 -4.00236 0.912203 0
M  V30 1097 H 97.1966 -3.13848 0.125883 0
M  V30 1098 H 96.3896 -4.63606 1.97699 0
M  V30 1099 H 95.9916 -2.93593 2.31688 0
M  V30 1100 H 98.2836 -5.99339 3.15909 0
M  V30 1101 H 99.2266 -5.41088 4.5676 0
M  V30 1102 H 99.6346 -4.82694 2.9269 0
M  V30 1103 N 99.0327 -1.24633 -0.964593 0
M  V30 1104 C 99.9427 -1.05859 -2.09359 0
M  V30 1105 C 100.959 0.00148855 -1.74 0
M  V30 1106 O 102.135 -0.197346 -2.00431 0
M  V30 1107 C 99.1997 -0.668879 -3.40187 0
M  V30 1108 C 98.2607 -1.80578 -3.89474 0
M  V30 1109 C 97.4937 -1.43457 -5.14058 0
M  V30 1110 O 97.7167 -0.325775 -5.69469 0
M  V30 1111 O 96.6507 -2.2613 -5.57807 0
M  V30 1112 H 100.477 -2.00516 -2.28094 0
M  V30 1113 H 98.0617 -1.03481 -1.0776 0
M  V30 1114 H 99.9437 -0.463211 -4.18846 0
M  V30 1115 H 98.6187 0.248536 -3.22744 0
M  V30 1116 H 97.5257 -2.06623 -3.11862 0
M  V30 1117 H 98.8587 -2.70208 -4.11398 0
M  V30 1118 N 100.511 1.16574 -1.06058 0
M  V30 1119 C 101.76 1.86385 -0.770944 0
M  V30 1120 C 102.073 1.82448 0.705129 0
M  V30 1121 O 103.279 2.47815 1.10905 0
M  V30 1122 C 101.735 3.34466 -1.32893 0
M  V30 1123 C 101.343 3.46883 -2.83507 0
M  V30 1124 C 103.087 4.09548 -1.11672 0
M  V30 1125 C 100.994 4.89036 -3.32562 0
M  V30 1126 H 99.9238 0.698181 -0.284709 0
M  V30 1127 H 102.575 1.31583 -1.27899 0
M  V30 1128 H 100.957 3.88859 -0.748662 0
M  V30 1129 H 102.131 3.02663 -3.47465 0
M  V30 1130 H 100.446 2.85232 -3.03368 0
M  V30 1131 H 103.043 5.14434 -1.45814 0
M  V30 1132 H 103.386 4.16264 -0.0549535 0
M  V30 1133 H 103.919 3.61387 -1.66265 0
M  V30 1134 H 100.658 4.87499 -4.38207 0
M  V30 1135 H 100.178 5.3389 -2.73351 0
M  V30 1136 H 101.857 5.57843 -3.2775 0
M  V30 1137 N 101.989 0.842826 1.3317 0
M  V30 1138 C 103.214 0.453129 2.02389 0
M  V30 1139 C 103.639 -0.939105 1.6298 0
M  V30 1140 O 102.997 -1.61472 0.8244 0
M  V30 1141 C 103.045 0.586094 3.55805 0
M  V30 1142 O 102.149 -0.386029 4.10589 0
M  V30 1143 H 101.49 0.183664 0.638094 0
M  V30 1144 H 104.02 1.13875 1.69981 0
M  V30 1145 H 104.03 0.469209 4.05293 0
M  V30 1146 H 102.705 1.6014 3.83833 0
M  V30 1147 H 101.282 -0.226371 3.72212 0
M  V30 1148 N 103.467 -1.45747 0.599634 0
M  V30 1149 C 104.878 -1.85853 0.177681 0
M  V30 1150 C 105.229 -1.50102 -1.26348 0
M  V30 1151 O 104.354 -0.923905 -1.95686 0
M  V30 1152 C 104.949 -3.37326 0.315688 0
M  V30 1153 C 103.508 -3.76365 -0.0515144 0
M  V30 1154 C 102.655 -2.69722 0.643822 0
M  V30 1155 H 105.606 -1.36661 0.806814 0
M  V30 1156 H 105.627 -3.77778 -0.454321 0
M  V30 1157 H 105.139 -3.63315 1.36468 0
M  V30 1158 H 103.24 -3.55993 -1.09999 0
M  V30 1159 H 103.353 -4.77916 0.336594 0
M  V30 1160 H 101.717 -2.54567 0.0822881 0
M  V30 1161 H 102.5 -2.98549 1.6948 0
M  V30 1162 N 104.945 -0.338344 -1.53925 0
M  V30 1163 C 105.878 0.563758 -2.21127 0
M  V30 1164 C 106.856 1.10433 -1.19345 0
M  V30 1165 O 108.04 1.16557 -1.48144 0
M  V30 1166 C 105.167 1.77505 -2.88461 0
M  V30 1167 C 104.213 1.3644 -4.04087 0
M  V30 1168 S 105.046 0.388593 -5.34088 0
M  V30 1169 C 106.202 1.60683 -6.04923 0
M  V30 1170 H 106.435 -0.00704546 -2.97299 0
M  V30 1171 H 103.968 -0.122418 -1.53914 0
M  V30 1172 H 105.926 2.46999 -3.27875 0
M  V30 1173 H 104.587 2.31706 -2.12064 0
M  V30 1174 H 103.78 2.26739 -4.50117 0
M  V30 1175 H 103.382 0.748998 -3.66423 0
M  V30 1176 H 105.674 2.54209 -6.28 0
M  V30 1177 H 106.617 1.18842 -6.98056 0
M  V30 1178 H 107.025 1.80052 -5.35015 0
M  V30 1179 N 106.423 1.57458 -0.0668435 0
M  V30 1180 C 107.663 1.95175 0.607116 0
M  V30 1181 C 108.027 0.946039 1.67075 0
M  V30 1182 O 109.228 1.2107 2.39991 0
M  V30 1183 C 107.499 3.37582 1.17358 0
M  V30 1184 S 109.058 3.97271 1.86336 0
M  V30 1185 H 105.876 0.682604 0.19893 0
M  V30 1186 H 108.478 1.95002 -0.139519 0
M  V30 1187 H 107.182 4.08566 0.387553 0
M  V30 1188 H 106.713 3.41288 1.95669 0
M  V30 1189 H 108.728 3.83772 3.14537 0
M  V30 1190 N 107.901 -0.206675 1.56239 0
M  V30 1191 C 109.178 -0.954051 1.70755 0
M  V30 1192 C 109.558 -2.01841 0.618353 0
M  V30 1193 O 108.906 -2.25444 -0.372434 0
M  V30 1194 C 109.116 -1.551 3.12642 0
M  V30 1195 C 110.464 -2.03757 3.72516 0
M  V30 1196 O 111.488 -1.64965 3.15698 0
M  V30 1197 O 110.347 -2.75103 4.72208 0
M  V30 1198 H 107.441 -0.446636 0.696021 0
M  V30 1199 H 109.987 -0.197283 1.68549 0
M  V30 1200 H 108.759 -0.783212 3.83382 0
M  V30 1201 H 108.382 -2.37291 3.19028 0
M  V30 1202 N 109.379 -1.50304 -0.473955 0
M  V30 1203 C 110.326 -1.68959 -1.57231 0
M  V30 1204 C 111.296 -0.530899 -1.57387 0
M  V30 1205 O 112.481 -0.761133 -1.74961 0
M  V30 1206 C 109.621 -1.7871 -2.95223 0
M  V30 1207 C 108.734 -3.06061 -3.04878 0
M  V30 1208 C 107.869 -3.06626 -4.33767 0
M  V30 1209 C 106.908 -4.28443 -4.37154 0
M  V30 1210 N 106.045 -4.26763 -5.5751 0
M  V30 1211 H 110.885 -2.6273 -1.40631 0
M  V30 1212 H 108.422 -1.30241 -0.683789 0
M  V30 1213 H 110.38 -1.82344 -3.75242 0
M  V30 1214 H 109.01 -0.883806 -3.10465 0
M  V30 1215 H 108.062 -3.11911 -2.17751 0
M  V30 1216 H 109.374 -3.96039 -3.0324 0
M  V30 1217 H 108.528 -3.08973 -5.22131 0
M  V30 1218 H 107.267 -2.14473 -4.3801 0
M  V30 1219 H 106.272 -4.2631 -3.47188 0
M  V30 1220 H 107.497 -5.2182 -4.34605 0
M  V30 1221 H 105.443 -3.37462 -5.62544 0
M  V30 1222 H 105.36 -5.10507 -5.57601 0
M  V30 1223 H 106.628 -4.33253 -6.48006 0
M  V30 1224 N 110.857 0.726932 -1.39834 0
M  V30 1225 C 111.807 1.83232 -1.35683 0
M  V30 1226 C 112.791 1.59155 -0.236295 0
M  V30 1227 O 113.983 1.70522 -0.474488 0
M  V30 1228 C 111.112 3.21246 -1.21062 0
M  V30 1229 C 110.198 3.51125 -2.37849 0
M  V30 1230 N 110.589 3.51889 -3.63329 0
M  V30 1231 C 108.887 3.81527 -2.30982 0
M  V30 1232 C 109.588 3.79791 -4.40606 0
M  V30 1233 N 108.564 3.97971 -3.70297 0
M  V30 1234 H 112.366 1.8214 -2.30656 0
M  V30 1235 H 109.88 0.925545 -1.33444 0
M  V30 1236 H 111.877 4.00387 -1.16171 0
M  V30 1237 H 110.537 3.23572 -0.270458 0
M  V30 1238 H 111.548 3.33008 -3.96643 0
M  V30 1239 H 108.225 3.91411 -1.45272 0
M  V30 1240 H 109.615 3.86783 -5.49408 0
M  V30 1241 N 112.336 1.25143 0.95797 0
M  V30 1242 C 113.564 1.12424 1.73691 0
M  V30 1243 C 113.979 -0.322304 1.86029 0
M  V30 1244 O 113.336 -1.22186 1.35561 0
M  V30 1245 C 113.387 1.76933 3.15241 0
M  V30 1246 O 113.108 3.15932 3.03511 0
M  V30 1247 C 114.609 1.6995 4.09429 0
M  V30 1248 H 111.829 0.3923 0.544373 0
M  V30 1249 H 114.373 1.6544 1.20207 0
M  V30 1250 H 112.528 1.27895 3.6568 0
M  V30 1251 H 112.942 3.47598 3.9278 0
M  V30 1252 H 114.416 2.19753 5.06372 0
M  V30 1253 H 114.893 0.662619 4.34173 0
M  V30 1254 H 115.499 2.18461 3.64904 0
M  V30 1255 N 113.814 -1.1601 1.06675 0
M  V30 1256 C 114.777 -2.18724 0.685001 0
M  V30 1257 C 115.777 -1.58496 -0.271246 0
M  V30 1258 O 116.967 -1.74119 -0.0531156 0
M  V30 1259 C 114.099 -3.40899 0.00853648 0
M  V30 1260 H 115.292 -2.54011 1.59431 0
M  V30 1261 H 112.845 -1.30352 0.862441 0
M  V30 1262 H 113.58 -3.11173 -0.913337 0
M  V30 1263 H 113.365 -3.8587 0.696204 0
M  V30 1264 H 114.855 -4.16886 -0.24414 0
M  V30 1265 N 115.292 -0.849877 -1.32721 0
M  V30 1266 C 116.517 -0.463856 -2.02146 0
M  V30 1267 C 116.942 0.930449 -1.63476 0
M  V30 1268 O 116.3 1.61033 -0.832952 0
M  V30 1269 C 116.348 -0.604955 -3.55489 0
M  V30 1270 O 115.452 0.36425 -4.10788 0
M  V30 1271 H 114.793 -0.187046 -0.637111 0
M  V30 1272 H 117.323 -1.14775 -1.69375 0
M  V30 1273 H 117.333 -0.490696 -4.05038 0
M  V30 1274 H 116.008 -1.62174 -3.82978 0
M  V30 1275 H 114.585 0.206628 -3.72327 0
M  V30 1276 N 116.77 1.45427 -0.607355 0
M  V30 1277 C 118.016 2.0254 -0.102607 0
M  V30 1278 C 118.349 1.47478 1.26348 0
M  V30 1279 O 117.624 0.64939 1.83339 0
M  V30 1280 C 117.907 3.60044 -0.0634347 0
M  V30 1281 C 117.76 4.2544 -1.46017 0
M  V30 1282 C 119.079 4.35646 0.624514 0
M  V30 1283 H 116.198 0.73598 -0.0387607 0
M  V30 1284 H 118.84 1.73284 -0.779282 0
M  V30 1285 H 116.99 3.85101 0.512808 0
M  V30 1286 H 118.662 4.11569 -2.08347 0
M  V30 1287 H 116.905 3.83849 -2.02094 0
M  V30 1288 H 117.576 5.34342 -1.385 0
M  V30 1289 H 120.052 4.15882 0.134723 0
M  V30 1290 H 118.928 5.45376 0.621028 0
M  V30 1291 H 119.189 4.08501 1.69055 0
M  V30 1292 N 118.248 0.346503 1.53744 0
M  V30 1293 C 119.158 -0.517293 2.28826 0
M  V30 1294 C 120.174 -1.10935 1.3405 0
M  V30 1295 O 121.35 -1.1244 1.6709 0
M  V30 1296 C 118.415 -1.65098 3.04866 0
M  V30 1297 C 117.476 -1.0884 4.15274 0
M  V30 1298 C 116.709 -2.16806 4.87679 0
M  V30 1299 O 116.932 -3.3758 4.59778 0
M  V30 1300 O 115.866 -1.80934 5.74061 0
M  V30 1301 H 119.692 0.0931396 3.03557 0
M  V30 1302 H 117.277 0.111458 1.48984 0
M  V30 1303 H 119.159 -2.31053 3.5241 0
M  V30 1304 H 117.834 -2.24717 2.32989 0
M  V30 1305 H 116.741 -0.3933 3.72027 0
M  V30 1306 H 118.074 -0.537036 4.89261 0
M  V30 1307 N 119.726 -1.57421 0.075193 0
M  V30 1308 C 120.673 -2.12915 -0.890843 0
M  V30 1309 C 121.643 -1.04252 -1.29309 0
M  V30 1310 O 122.828 -1.31933 -1.37834 0
M  V30 1311 C 119.968 -2.69795 -2.15186 0
M  V30 1312 C 119.081 -3.92624 -1.80194 0
M  V30 1313 C 118.216 -4.37736 -3.00933 0
M  V30 1314 C 117.255 -5.53205 -2.61974 0
M  V30 1315 N 116.392 -5.9326 -3.75483 0
M  V30 1316 H 121.232 -2.95156 -0.410735 0
M  V30 1317 H 118.769 -1.45854 -0.191086 0
M  V30 1318 H 120.727 -3.00883 -2.89008 0
M  V30 1319 H 119.357 -1.90313 -2.60731 0
M  V30 1320 H 118.409 -3.67977 -0.964218 0
M  V30 1321 H 119.721 -4.76482 -1.47534 0
M  V30 1322 H 118.875 -4.70503 -3.8303 0
M  V30 1323 H 117.614 -3.52739 -3.36789 0
M  V30 1324 H 116.619 -5.20086 -1.783 0
M  V30 1325 H 117.844 -6.39936 -2.27284 0
M  V30 1326 H 115.79 -5.11212 -4.11094 0
M  V30 1327 H 115.707 -6.71865 -3.46602 0
M  V30 1328 H 116.975 -6.30651 -4.58148 0
M  V30 1329 N 121.204 0.198386 -1.56346 0
M  V30 1330 C 122.429 0.939682 -1.84891 0
M  V30 1331 C 122.854 1.76202 -0.658369 0
M  V30 1332 O 122.212 1.76993 0.392851 0
M  V30 1333 C 122.26 1.81428 -3.11635 0
M  V30 1334 O 121.364 2.91265 -2.91956 0
M  V30 1335 H 120.705 0.264807 -0.608912 0
M  V30 1336 H 123.235 0.204695 -2.03573 0
M  V30 1337 H 123.245 2.21958 -3.42343 0
M  V30 1338 H 121.92 1.21004 -3.97908 0
M  V30 1339 H 120.497 2.54514 -2.72538 0
M  V30 1340 N 122.682 1.50554 0.465978 0
M  V30 1341 C 123.614 1.65949 1.58093 0
M  V30 1342 C 124.627 0.540827 1.53554 0
M  V30 1343 O 125.816 0.814187 1.5885 0
M  V30 1344 C 122.916 1.63261 2.96983 0
M  V30 1345 C 122.089 2.91245 3.26336 0
M  V30 1346 C 121.148 2.8113 4.44806 0
M  V30 1347 O 120.174 3.55086 4.44862 0
M  V30 1348 N 121.376 1.95032 5.46756 0
M  V30 1349 H 124.141 2.62122 1.45301 0
M  V30 1350 H 121.702 1.48082 0.65448 0
M  V30 1351 H 123.694 1.54101 3.74212 0
M  V30 1352 H 122.264 0.748032 3.03518 0
M  V30 1353 H 121.484 3.14493 2.37672 0
M  V30 1354 H 122.772 3.76022 3.42761 0
M  V30 1355 H 122.17 1.3427 5.49534 0
M  V30 1356 H 120.727 1.91772 6.2295 0
M  V30 1357 N 124.16 -0.719506 1.40217 0
M  V30 1358 C 125.406 -1.48152 1.38488 0
M  V30 1359 C 125.739 -1.94195 -0.0141867 0
M  V30 1360 O 125.014 -1.67884 -0.982096 0
M  V30 1361 C 125.297 -2.71035 2.37091 0
M  V30 1362 C 125.15 -2.30912 3.86005 0
M  V30 1363 C 126.469 -3.73182 2.33288 0
M  V30 1364 H 123.588 -0.537395 0.504357 0
M  V30 1365 H 126.23 -0.821472 1.71324 0
M  V30 1366 H 124.38 -3.27352 2.0922 0
M  V30 1367 H 126.052 -1.80107 4.24687 0
M  V30 1368 H 124.295 -1.62958 4.02029 0
M  V30 1369 H 124.966 -3.18978 4.50508 0
M  V30 1370 H 127.442 -3.26485 2.57966 0
M  V30 1371 H 126.318 -4.56806 3.04334 0
M  V30 1372 H 126.579 -4.21202 1.34317 0
M  V30 1373 N 125.638 -1.25649 -0.95132 0
M  V30 1374 C 126.886 -1.10375 -1.69298 0
M  V30 1375 C 127.207 0.355339 -1.91735 0
M  V30 1376 O 126.477 1.25188 -1.50681 0
M  V30 1377 H 125.057 -0.405461 -0.627384 0
M  V30 1378 H 127.719 -1.57823 -1.14358 0
M  V30 1379 H 126.815 -1.61465 -2.67087 0
M  V30 1380 N 127.117 1.15442 -1.07289 0
M  V30 1381 C 128.364 1.86213 -0.795668 0
M  V30 1382 C 128.692 1.82291 0.678238 0
M  V30 1383 O 127.947 1.24057 1.51355 0
M  V30 1384 C 128.246 3.3489 -1.24834 0
M  V30 1385 C 127.912 3.59007 -2.72809 0
M  V30 1386 C 126.574 3.65298 -3.13227 0
M  V30 1387 C 128.926 3.68762 -3.68326 0
M  V30 1388 C 126.254 3.78854 -4.4798 0
M  V30 1389 C 128.606 3.83842 -5.0284 0
M  V30 1390 C 127.27 3.88378 -5.4288 0
M  V30 1391 H 126.54 0.681403 -0.291155 0
M  V30 1392 H 129.187 1.36435 -1.34379 0
M  V30 1393 H 127.492 3.8687 -0.619595 0
M  V30 1394 H 129.189 3.88052 -1.01076 0
M  V30 1395 H 125.779 3.5475 -2.40521 0
M  V30 1396 H 129.963 3.63202 -3.38227 0
M  V30 1397 H 125.219 3.80623 -4.78472 0
M  V30 1398 H 129.393 3.90332 -5.76727 0
M  V30 1399 H 127.02 3.98635 -6.47298 0
M  V30 1400 N 128.595 0.856903 1.32268 0
M  V30 1401 C 129.844 0.457599 1.96441 0
M  V30 1402 C 130.157 -0.992426 1.68553 0
M  V30 1403 O 131.363 -1.49727 2.26482 0
M  V30 1404 C 129.819 0.767358 3.51624 0
M  V30 1405 C 129.427 2.23326 3.88367 0
M  V30 1406 C 131.171 0.435887 4.22256 0
M  V30 1407 C 129.078 2.48613 5.36606 0
M  V30 1408 H 128.008 0.167387 0.735185 0
M  V30 1409 H 130.659 1.048 1.5063 0
M  V30 1410 H 129.041 0.106367 3.95857 0
M  V30 1411 H 130.215 2.93623 3.55137 0
M  V30 1412 H 128.53 2.52948 3.30766 0
M  V30 1413 H 131.127 0.602202 5.31298 0
M  V30 1414 H 131.47 -0.622672 4.11617 0
M  V30 1415 H 132.003 1.05286 3.83614 0
M  V30 1416 H 128.742 3.53101 5.52268 0
M  V30 1417 H 128.262 1.82896 5.71235 0
M  V30 1418 H 129.941 2.32676 6.03714 0
M  V30 1419 N 130.073 -1.45103 0.615059 0
M  V30 1420 C 131.35 -1.95549 0.0448276 0
M  V30 1421 C 131.73 -1.55737 -1.4251 0
M  V30 1422 O 131.078 -0.823556 -2.13143 0
M  V30 1423 C 131.288 -3.48098 0.250785 0
M  V30 1424 C 132.636 -4.24384 0.135509 0
M  V30 1425 O 133.66 -3.55738 0.181299 0
M  V30 1426 O 132.519 -5.46493 0.0268878 0
M  V30 1427 H 129.613 -0.8264 -0.0314845 0
M  V30 1428 H 132.159 -1.55232 0.685642 0
M  V30 1429 H 130.931 -3.7007 1.27139 0
M  V30 1430 H 130.554 -3.95323 -0.424937 0
M  V30 1431 N 131.551 -0.354651 -1.53558 0
M  V30 1432 C 132.781 0.239167 -2.05211 0
M  V30 1433 C 133.189 1.43879 -1.22863 0
M  V30 1434 O 132.532 1.81857 -0.259565 0
M  V30 1435 C 132.594 0.707251 -3.52474 0
M  V30 1436 C 132.258 -0.374212 -4.55465 0
M  V30 1437 C 133.255 -1.22054 -5.0537 0
M  V30 1438 C 130.94 -0.531323 -4.99482 0
M  V30 1439 C 132.934 -2.20942 -5.97882 0
M  V30 1440 C 130.621 -1.52358 -5.91802 0
M  V30 1441 C 131.619 -2.36108 -6.40892 0
M  V30 1442 O 131.307 -3.33643 -7.31394 0
M  V30 1443 H 131.039 0.0479716 -0.674296 0
M  V30 1444 H 133.593 -0.508121 -1.99016 0
M  V30 1445 H 131.823 1.50596 -3.56171 0
M  V30 1446 H 133.512 1.22285 -3.87042 0
M  V30 1447 H 134.278 -1.1103 -4.7212 0
M  V30 1448 H 130.157 0.110738 -4.60867 0
M  V30 1449 H 133.701 -2.86348 -6.36121 0
M  V30 1450 H 129.598 -1.63434 -6.24467 0
M  V30 1451 H 130.366 -3.29244 -7.4936 0
M  V30 1452 N 133.029 1.57378 -0.0835403 0
M  V30 1453 C 134.278 1.93106 0.582498 0
M  V30 1454 C 134.591 0.96651 1.70053 0
M  V30 1455 O 135.797 1.21705 2.42693 0
M  V30 1456 C 134.253 3.43076 1.08751 0
M  V30 1457 C 133.861 4.48 -0.000146404 0
M  V30 1458 C 135.605 3.87785 1.72694 0
M  V30 1459 C 133.512 5.89113 0.519568 0
M  V30 1460 H 132.442 0.720775 0.221358 0
M  V30 1461 H 135.093 1.82821 -0.157675 0
M  V30 1462 H 133.475 3.48474 1.88101 0
M  V30 1463 H 134.649 4.54233 -0.775199 0
M  V30 1464 H 132.964 4.1283 -0.54406 0
M  V30 1465 H 135.561 4.90604 2.1263 0
M  V30 1466 H 135.904 3.25796 2.59158 0
M  V30 1467 H 136.437 3.8504 0.999457 0
M  V30 1468 H 133.176 6.54775 -0.308186 0
M  V30 1469 H 132.696 5.86376 1.26188 0
M  V30 1470 H 134.375 6.39346 0.992237 0
M  V30 1471 N 134.507 -0.190092 1.56449 0
M  V30 1472 C 135.753 -0.911052 1.81184 0
M  V30 1473 C 136.086 -1.82699 0.658396 0
M  V30 1474 O 135.361 -1.91491 -0.340775 0
M  V30 1475 C 135.644 -1.72297 3.16205 0
M  V30 1476 C 135.497 -0.831419 4.42049 0
M  V30 1477 C 136.816 -2.69454 3.47969 0
M  V30 1478 H 133.935 -0.32977 0.659106 0
M  V30 1479 H 136.577 -0.178169 1.89163 0
M  V30 1480 H 134.727 -2.34778 3.09534 0
M  V30 1481 H 136.399 -0.220929 4.60771 0
M  V30 1482 H 134.642 -0.138406 4.33579 0
M  V30 1483 H 135.313 -1.43461 5.33032 0
M  V30 1484 H 137.789 -2.17104 3.54972 0
M  V30 1485 H 136.665 -3.23342 4.43555 0
M  V30 1486 H 136.926 -3.48744 2.71717 0
M  V30 1487 N 135.985 -1.50799 -0.457987 0
M  V30 1488 C 136.935 -1.67003 -1.55222 0
M  V30 1489 C 137.919 -0.52434 -1.52117 0
M  V30 1490 O 139.111 -0.779345 -1.58919 0
M  V30 1491 C 136.24 -1.77956 -2.93576 0
M  V30 1492 C 135.326 -2.98243 -3.01516 0
M  V30 1493 N 135.717 -4.21732 -2.79241 0
M  V30 1494 C 134.015 -2.97072 -3.32662 0
M  V30 1495 C 134.716 -5.02817 -2.92489 0
M  V30 1496 N 133.692 -4.37038 -3.23262 0
M  V30 1497 H 137.494 -2.60163 -1.36721 0
M  V30 1498 H 135.008 -1.48163 -0.664952 0
M  V30 1499 H 137.005 -1.87671 -3.72271 0
M  V30 1500 H 135.665 -0.859634 -3.13114 0
M  V30 1501 H 136.676 -4.51016 -2.54567 0
M  V30 1502 H 133.353 -2.14631 -3.58106 0
M  V30 1503 H 134.743 -6.11054 -2.79396 0
M  V30 1504 N 137.463 0.71206 -1.40597 0
M  V30 1505 C 138.874 1.29135 -1.34837 0
M  V30 1506 C 139.225 1.96186 -0.0235395 0
M  V30 1507 O 138.35 1.97768 0.878444 0
M  V30 1508 C 138.945 2.34827 -2.44217 0
M  V30 1509 C 137.504 2.88371 -2.41907 0
M  V30 1510 C 136.651 1.62202 -2.24913 0
M  V30 1511 H 139.602 0.507944 -1.50352 0
M  V30 1512 H 139.623 3.15749 -2.12327 0
M  V30 1513 H 139.135 1.85996 -3.40627 0
M  V30 1514 H 137.236 3.41422 -1.49204 0
M  V30 1515 H 137.349 3.39925 -3.37621 0
M  V30 1516 H 135.713 1.874 -1.72492 0
M  V30 1517 H 136.496 1.15391 -3.23326 0
M  V30 1518 N 138.941 1.26152 0.944643 0
M  V30 1519 C 139.871 1.09902 2.06019 0
M  V30 1520 C 140.852 0.00519538 1.70099 0
M  V30 1521 O 142.037 0.176583 1.93396 0
M  V30 1522 C 139.167 0.727562 3.39594 0
M  V30 1523 C 138.121 1.77274 3.89561 0
M  V30 1524 C 137.447 1.25569 5.19747 0
M  V30 1525 C 138.747 3.17357 4.14827 0
M  V30 1526 H 140.441 2.03217 2.19871 0
M  V30 1527 H 137.987 0.978452 1.05652 0
M  V30 1528 H 139.94 0.600777 4.17095 0
M  V30 1529 H 138.664 -0.241287 3.25707 0
M  V30 1530 H 137.323 1.88814 3.14237 0
M  V30 1531 H 136.971 0.276783 5.02238 0
M  V30 1532 H 136.671 1.95433 5.54148 0
M  V30 1533 H 138.195 1.1415 5.99835 0
M  V30 1534 H 139.609 3.08914 4.82954 0
M  V30 1535 H 138.006 3.84781 4.60504 0
M  V30 1536 H 139.076 3.63673 3.20734 0
M  V30 1537 N 140.419 -1.14872 1.07899 0
M  V30 1538 C 141.665 -1.86289 0.81657 0
M  V30 1539 C 142.02 -1.8107 -0.65049 0
M  V30 1540 O 141.313 -1.22684 -1.47171 0
M  V30 1541 C 141.507 -3.34223 1.26609 0
M  V30 1542 C 141.336 -3.53846 2.77531 0
M  V30 1543 C 140.106 -3.68995 3.45212 0
M  V30 1544 C 142.304 -3.51201 3.75716 0
M  V30 1545 N 140.286 -3.76725 4.84718 0
M  V30 1546 C 141.657 -3.65112 5.01092 0
M  V30 1547 C 143.712 -3.34507 3.68794 0
M  V30 1548 C 142.415 -3.64056 6.20368 0
M  V30 1549 C 144.441 -3.34752 4.8754 0
M  V30 1550 C 143.803 -3.49199 6.11751 0
M  V30 1551 H 139.902 -0.698579 0.351443 0
M  V30 1552 H 142.486 -1.37713 1.37634 0
M  V30 1553 H 140.657 -3.81402 0.73395 0
M  V30 1554 H 142.389 -3.93377 0.95062 0
M  V30 1555 H 139.144 -3.70006 2.95622 0
M  V30 1556 H 139.568 -3.8432 5.5734 0
M  V30 1557 H 144.21 -3.22253 2.73702 0
M  V30 1558 H 141.928 -3.75087 7.15776 0
M  V30 1559 H 145.514 -3.23055 4.83866 0
M  V30 1560 H 144.394 -3.49328 7.02097 0
M  V30 1561 N 141.898 -0.863906 -1.31812 0
M  V30 1562 C 142.808 -0.318461 -2.32428 0
M  V30 1563 C 143.824 0.568496 -1.64451 0
M  V30 1564 O 145 0.46666 -1.95919 0
M  V30 1565 C 142.065 0.476355 -3.43412 0
M  V30 1566 C 141.126 -0.43784 -4.27061 0
M  V30 1567 C 140.359 0.319138 -5.32745 0
M  V30 1568 O 140.582 1.54799 -5.48993 0
M  V30 1569 O 139.516 -0.319861 -6.01049 0
M  V30 1570 H 143.342 -1.15229 -2.80991 0
M  V30 1571 H 140.927 -0.627103 -1.35602 0
M  V30 1572 H 142.809 0.927156 -4.11074 0
M  V30 1573 H 141.484 1.28683 -2.97022 0
M  V30 1574 H 140.391 -0.937013 -3.62175 0
M  V30 1575 H 141.724 -1.21375 -4.77 0
M  V30 1576 N 143.376 1.44774 -0.622745 0
M  V30 1577 C 144.604 2.06487 -0.130722 0
M  V30 1578 C 145.019 1.46476 1.19123 0
M  V30 1579 O 144.376 0.584502 1.72887 0
M  V30 1580 C 144.427 3.615 -0.000807207 0
M  V30 1581 O 144.148 4.19274 -1.27048 0
M  V30 1582 C 145.649 4.40229 0.520898 0
M  V30 1583 H 142.869 0.666704 -0.0758106 0
M  V30 1584 H 145.413 1.85779 -0.854774 0
M  V30 1585 H 143.568 3.81498 0.673643 0
M  V30 1586 H 143.982 5.12622 -1.1099 0
M  V30 1587 H 145.456 5.49144 0.560838 0
M  V30 1588 H 145.933 4.1108 1.54627 0
M  V30 1589 H 146.539 4.25131 -0.120018 0
M  V30 1590 N 144.854 0.36279 1.53368 0
M  V30 1591 C 146.1 -0.220702 2.02199 0
M  V30 1592 C 146.455 -1.46649 1.24546 0
M  V30 1593 O 145.748 -1.88737 0.32996 0
M  V30 1594 C 145.942 -0.568417 3.52851 0
M  V30 1595 C 145.771 0.642126 4.45092 0
M  V30 1596 C 144.541 1.15335 4.91961 0
M  V30 1597 C 146.739 1.50649 4.91741 0
M  V30 1598 N 144.721 2.3242 5.68202 0
M  V30 1599 C 146.092 2.52404 5.66297 0
M  V30 1600 C 148.147 1.52969 4.73819 0
M  V30 1601 C 146.85 3.56331 6.24836 0
M  V30 1602 C 148.876 2.55789 5.33222 0
M  V30 1603 C 148.238 3.56268 6.07662 0
M  V30 1604 H 144.337 -0.0435508 0.780786 0
M  V30 1605 H 146.921 0.506704 1.87991 0
M  V30 1606 H 145.092 -1.2649 3.67226 0
M  V30 1607 H 146.824 -1.13676 3.88407 0
M  V30 1608 H 143.579 0.718412 4.68119 0
M  V30 1609 H 144.003 2.91591 6.10986 0
M  V30 1610 H 148.645 0.766418 4.15795 0
M  V30 1611 H 146.363 4.33543 6.81958 0
M  V30 1612 H 149.949 2.58435 5.21251 0
M  V30 1613 H 148.829 4.34524 6.52808 0
M  V30 1614 N 146.332 -1.57332 0.0918853 0
M  V30 1615 C 147.295 -2.12708 -0.85369 0
M  V30 1616 C 148.295 -1.05561 -1.213 0
M  V30 1617 O 149.485 -1.31461 -1.14296 0
M  V30 1618 C 146.617 -2.64503 -2.15061 0
M  V30 1619 H 147.81 -2.97573 -0.3729 0
M  V30 1620 H 145.363 -1.55509 -0.157072 0
M  V30 1621 H 146.098 -1.83149 -2.67632 0
M  V30 1622 H 145.883 -3.4284 -1.90272 0
M  V30 1623 H 147.373 -3.07351 -2.82711 0
M  V30 1624 N 147.81 0.181792 -1.56548 0
M  V30 1625 C 149.087 0.926765 -1.72251 0
M  V30 1626 C 149.467 2.00831 -0.650386 0
M  V30 1627 O 148.815 2.26008 0.336521 0
M  V30 1628 C 149.025 1.50106 -3.1507 0
M  V30 1629 C 150.373 1.97805 -3.75711 0
M  V30 1630 O 151.397 1.59922 -3.18282 0
M  V30 1631 O 150.256 2.67555 -4.76525 0
M  V30 1632 H 147.35 0.435506 -0.703039 0
M  V30 1633 H 149.896 0.170443 -1.68842 0
M  V30 1634 H 148.668 0.72212 -3.84579 0
M  V30 1635 H 148.291 2.32186 -3.22763 0
M  V30 1636 N 149.288 1.51039 0.449983 0
M  V30 1637 C 150.218 1.74379 1.55288 0
M  V30 1638 C 151.199 0.593236 1.5942 0
M  V30 1639 O 152.384 0.834625 1.7535 0
M  V30 1640 C 149.514 1.85728 2.93466 0
M  V30 1641 C 148.468 3.01078 3.04197 0
M  V30 1642 C 147.794 2.97595 4.44231 0
M  V30 1643 C 149.094 4.41254 2.7945 0
M  V30 1644 H 150.788 2.66725 1.36008 0
M  V30 1645 H 148.334 1.2835 0.652864 0
M  V30 1646 H 150.287 2.0064 3.70569 0
M  V30 1647 H 149.011 0.900207 3.13949 0
M  V30 1648 H 147.67 2.85851 2.29531 0
M  V30 1649 H 147.318 1.99691 4.61663 0
M  V30 1650 H 147.018 3.75046 4.52343 0
M  V30 1651 H 148.542 3.14583 5.23326 0
M  V30 1652 H 149.956 4.56897 3.46292 0
M  V30 1653 H 148.353 5.20315 2.98985 0
M  V30 1654 H 149.423 4.52164 1.75144 0
M  V30 1655 O 150.805 -0.595668 1.50113 0
M  V30 1656 H 151.496 -1.25045 1.47931 0
M  V30 END ATOM
M  V30 BEGIN BOND
M  V30 END BOND
M  V30 END CTAB
M  END
$$$$
