drugbank_target|P29371 Neuromedin-K receptor (DB04872; DB06429; DB11692)
 OpenBabel12092120103D

  0  0  0     0  0            999 V3000
M  V30 BEGIN CTAB
M  V30 COUNTS 7381 7488 0 0 0
M  V30 BEGIN ATOM
M  V30 1 H -0.908 1.98254 -0.117106 0
M  V30 2 N 0 1.576 0 0
M  V30 3 C 0.933 2.03868 1.02534 0
M  V30 4 C 1.911 0.928543 1.3348 0
M  V30 5 O 3.095 1.19667 1.45644 0
M  V30 6 C 0.222 2.43627 2.35294 0
M  V30 7 C -0.732 3.65373 2.2001 0
M  V30 8 S 0.101 5.13292 1.52614 0
M  V30 9 C 1.257 5.56322 2.86805 0
M  V30 10 H 1.49 2.90518 0.631377 0
M  V30 11 H -0.977 1.52953 0.210867 0
M  V30 12 H 0.981 2.67203 3.11629 0
M  V30 13 H -0.358 1.57376 2.7183 0
M  V30 14 H -1.165 3.90944 3.18086 0
M  V30 15 H -1.563 3.418 1.51819 0
M  V30 16 H 0.729 5.58782 3.83104 0
M  V30 17 H 1.672 6.56266 2.65933 0
M  V30 18 H 2.08 4.83886 2.90714 0
M  V30 19 N 1.4781 -0.272755 1.55222 0
M  V30 20 C 2.4411 -1.32041 1.87344 0
M  V30 21 C 3.4411 -1.42342 0.74803 0
M  V30 22 O 4.6311 -1.41488 1.0162 0
M  V30 23 C 1.7631 -2.70173 2.07893 0
M  V30 24 H 2.9561 -1.04789 2.80997 0
M  V30 25 H 0.5091 -0.51083 1.47717 0
M  V30 26 H 1.2441 -3.02605 1.16622 0
M  V30 27 H 1.0291 -2.64082 2.89833 0
M  V30 28 H 2.5191 -3.45869 2.34017 0
M  V30 29 N 2.9562 -1.48159 -0.537278 0
M  V30 30 C 4.1842 -1.59454 -1.31841 0
M  V30 31 C 4.5992 -0.252065 -1.8711 0
M  V30 32 O 3.9562 0.757621 -1.66031 0
M  V30 33 C 4.0072 -2.63546 -2.47439 0
M  V30 34 O 3.7282 -3.92583 -1.94449 0
M  V30 35 C 5.2292 -2.85212 -3.39366 0
M  V30 36 H 2.4492 -0.53785 -0.401196 0
M  V30 37 H 4.9932 -1.93932 -0.648891 0
M  V30 38 H 3.1482 -2.31946 -3.1029 0
M  V30 39 H 3.5622 -4.49629 -2.70063 0
M  V30 40 H 5.0362 -3.61863 -4.16844 0
M  V30 41 H 5.5132 -1.93765 -3.94147 0
M  V30 42 H 6.1192 -3.18086 -2.82314 0
M  V30 43 N 4.4343 0.785586 -1.36625 0
M  V30 44 C 5.3643 1.91259 -1.33949 0
M  V30 45 C 6.3453 1.68795 -0.210325 0
M  V30 46 O 7.5303 1.89854 -0.408561 0
M  V30 47 C 4.6603 3.28339 -1.13186 0
M  V30 48 C 3.6143 3.65335 -2.22967 0
M  V30 49 C 2.9403 5.00806 -1.87342 0
M  V30 50 C 4.2403 3.7352 -3.65075 0
M  V30 51 H 5.9343 1.93755 -2.28253 0
M  V30 52 H 3.4803 0.930788 -1.09874 0
M  V30 53 H 5.4333 4.06804 -1.09948 0
M  V30 54 H 4.1573 3.2624 -0.153332 0
M  V30 55 H 2.8163 2.89169 -2.25337 0
M  V30 56 H 2.4643 4.95233 -0.880545 0
M  V30 57 H 2.1643 5.26529 -2.60846 0
M  V30 58 H 3.6883 5.81687 -1.85667 0
M  V30 59 H 5.1023 4.42168 -3.64911 0
M  V30 60 H 3.4993 4.10731 -4.37516 0
M  V30 61 H 4.5693 2.74527 -3.99703 0
M  V30 62 N 5.9124 1.20967 1.01018 0
M  V30 63 C 7.3234 1.02319 1.56165 0
M  V30 64 C 7.6744 -0.418546 1.91684 0
M  V30 65 O 6.7994 -1.30096 1.72928 0
M  V30 66 C 7.3944 1.85109 2.8376 0
M  V30 67 C 5.9534 1.70809 3.35412 0
M  V30 68 C 5.1004 1.82643 2.08655 0
M  V30 69 H 8.0514 1.35065 0.833255 0
M  V30 70 H 8.0724 1.35827 3.55431 0
M  V30 71 H 7.5844 2.90035 2.57878 0
M  V30 72 H 5.6854 0.685464 3.66241 0
M  V30 73 H 5.7984 2.52467 4.07182 0
M  V30 74 H 4.1624 1.25896 2.21409 0
M  V30 75 H 4.9454 2.89066 1.85191 0
M  V30 76 N 7.3905 -1.2043 1.01659 0
M  V30 77 C 8.3535 -2.21433 0.591616 0
M  V30 78 C 9.3535 -1.57203 -0.338226 0
M  V30 79 O 10.5435 -1.73737 -0.126918 0
M  V30 80 C 7.6755 -3.40628 -0.136058 0
M  V30 81 H 8.8685 -2.60545 1.48514 0
M  V30 82 H 6.4215 -1.33893 0.806379 0
M  V30 83 H 7.1565 -3.07019 -1.04449 0
M  V30 84 H 6.9415 -3.88475 0.531917 0
M  V30 85 H 8.4315 -4.15475 -0.420735 0
M  V30 86 N 8.8686 -0.792821 -1.36206 0
M  V30 87 C 9.8316 -0.199459 -2.2833 0
M  V30 88 C 10.8316 0.605189 -1.48977 0
M  V30 89 O 12.0216 0.425685 -1.68919 0
M  V30 90 C 9.1536 0.723523 -3.33134 0
M  V30 91 H 10.3466 -1.01181 -2.82316 0
M  V30 92 H 7.8996 -0.562485 -1.45828 0
M  V30 93 H 8.6346 1.56008 -2.84309 0
M  V30 94 H 8.4196 0.148436 -3.91819 0
M  V30 95 H 9.9096 1.13344 -4.01924 0
M  V30 96 N 10.3467 1.47872 -0.545128 0
M  V30 97 C 11.2567 2.33633 0.212746 0
M  V30 98 C 12.2727 1.4744 0.923983 0
M  V30 99 O 13.4487 1.80393 0.895572 0
M  V30 100 C 10.5137 3.23884 1.23693 0
M  V30 101 C 9.5747 4.25961 0.534417 0
M  V30 102 C 8.8077 5.11899 1.5098 0
M  V30 103 O 9.0307 5.00077 2.7437 0
M  V30 104 O 7.9647 5.92831 1.0409 0
M  V30 105 H 11.7907 2.99714 -0.490416 0
M  V30 106 H 9.3757 1.46235 -0.305871 0
M  V30 107 H 11.2577 3.79666 1.82843 0
M  V30 108 H 9.9327 2.60446 1.92222 0
M  V30 109 H 8.8397 3.73972 -0.0979679 0
M  V30 110 H 10.1727 4.92079 -0.109213 0
M  V30 111 N 11.8248 0.280983 1.55075 0
M  V30 112 C 13.0528 -0.337293 2.04132 0
M  V30 113 C 13.4678 -1.4903 1.15912 0
M  V30 114 O 12.8248 -1.81606 0.180459 0
M  V30 115 C 12.8758 -0.812706 3.52246 0
M  V30 116 O 12.5968 0.294387 4.3711 0
M  V30 117 C 14.0978 -1.4982 4.17216 0
M  V30 118 H 11.3178 -0.0761638 0.666663 0
M  V30 119 H 13.8618 0.414787 2.00249 0
M  V30 120 H 12.0168 -1.51486 3.56554 0
M  V30 121 H 12.4308 -0.0721325 5.2445 0
M  V30 122 H 13.9048 -1.7822 5.22438 0
M  V30 123 H 14.3818 -2.43168 3.65741 0
M  V30 124 H 14.9878 -0.839742 4.16927 0
M  V30 125 N 13.3029 -1.57598 0.00835791 0
M  V30 126 C 14.5489 -1.92046 -0.670055 0
M  V30 127 C 14.9039 -0.88351 -1.70915 0
M  V30 128 O 14.1969 0.103223 -1.91322 0
M  V30 129 C 14.3909 -3.3101 -1.34787 0
M  V30 130 C 14.2199 -4.48126 -0.375945 0
M  V30 131 C 12.9899 -5.05297 0.0166914 0
M  V30 132 C 15.1879 -5.1303 0.361272 0
M  V30 133 N 13.1699 -6.05931 0.985952 0
M  V30 134 C 14.5409 -6.08571 1.18495 0
M  V30 135 C 16.5959 -4.9609 0.42421 0
M  V30 136 C 15.2989 -6.88996 2.06584 0
M  V30 137 C 17.3249 -5.77107 1.29236 0
M  V30 138 C 16.6869 -6.72248 2.10386 0
M  V30 139 H 12.7859 -0.75096 -0.218136 0
M  V30 140 H 15.3699 -1.94572 0.0706669 0
M  V30 141 H 13.5409 -3.29342 -2.05884 0
M  V30 142 H 15.2729 -3.52864 -1.98164 0
M  V30 143 H 12.0279 -4.72279 -0.353435 0
M  V30 144 H 12.4519 -6.60932 1.4662 0
M  V30 145 H 17.0939 -4.22378 -0.188915 0
M  V30 146 H 14.8119 -7.62028 2.6896 0
M  V30 147 H 18.3979 -5.66038 1.34508 0
M  V30 148 H 17.2779 -7.33846 2.76476 0
M  V30 149 N 14.781 0.264519 -1.55364 0
M  V30 150 C 16.03 0.992812 -1.75574 0
M  V30 151 C 16.343 1.87142 -0.568979 0
M  V30 152 O 17.549 2.63513 -0.653682 0
M  V30 153 C 16.005 1.81519 -3.10771 0
M  V30 154 C 15.613 0.984839 -4.37041 0
M  V30 155 C 17.357 2.53727 -3.40327 0
M  V30 156 C 15.264 1.80209 -5.63275 0
M  V30 157 H 14.194 0.374412 -0.65447 0
M  V30 158 H 16.845 0.248138 -1.81815 0
M  V30 159 H 15.227 2.60115 -2.98591 0
M  V30 160 H 16.401 0.242455 -4.60162 0
M  V30 161 H 14.716 0.37691 -4.14691 0
M  V30 162 H 17.313 3.15292 -4.3185 0
M  V30 163 H 17.656 3.24447 -2.60845 0
M  V30 164 H 18.189 1.82156 -3.53644 0
M  V30 165 H 14.928 1.13896 -6.45529 0
M  V30 166 H 14.448 2.52022 -5.44284 0
M  V30 167 H 16.127 2.37364 -6.01887 0
M  V30 168 N 16.2591 1.48442 0.529413 0
M  V30 169 C 17.5361 1.46978 1.29062 0
M  V30 170 C 17.9161 0.181769 2.10316 0
M  V30 171 O 17.2641 -0.836481 2.12639 0
M  V30 172 C 17.4741 2.7321 2.17157 0
M  V30 173 C 18.8221 3.21562 2.77278 0
M  V30 174 O 19.8461 2.74131 2.27444 0
M  V30 175 O 18.7051 4.04094 3.67927 0
M  V30 176 H 15.7991 0.587003 0.582543 0
M  V30 177 H 18.3451 1.60676 0.546021 0
M  V30 178 H 17.1171 3.58465 1.56903 0
M  V30 179 H 16.7401 2.62235 2.98862 0
M  V30 180 N 17.7372 -0.778329 1.37039 0
M  V30 181 C 18.9852 -1.53361 1.31623 0
M  V30 182 C 19.3062 -1.94739 -0.100831 0
M  V30 183 O 18.5762 -1.65797 -1.04347 0
M  V30 184 H 17.1562 -0.568794 0.484234 0
M  V30 185 H 19.8182 -0.926742 1.71457 0
M  V30 186 H 18.9142 -2.43606 1.95096 0
M  V30 187 N 19.2153 -1.21501 -1.00376 0
M  V30 188 C 20.4633 -1.03095 -1.73827 0
M  V30 189 C 20.7843 0.436341 -1.90055 0
M  V30 190 O 20.0543 1.31466 -1.45236 0
M  V30 191 H 18.6343 -0.378487 -0.644016 0
M  V30 192 H 21.2963 -1.52831 -1.20949 0
M  V30 193 H 20.3923 -1.49991 -2.73695 0
M  V30 194 N 20.6934 1.19889 -1.02296 0
M  V30 195 C 21.9414 1.89046 -0.714558 0
M  V30 196 C 22.2624 1.79636 0.758681 0
M  V30 197 O 21.5324 1.20292 1.54618 0
M  V30 198 H 20.1124 0.699802 -0.261317 0
M  V30 199 H 22.7744 1.45574 -1.29592 0
M  V30 200 H 21.8704 2.95524 -1.0036 0
M  V30 201 N 22.1715 0.800033 1.35784 0
M  V30 202 C 23.4195 0.376597 1.9856 0
M  V30 203 C 23.7405 -1.05812 1.63795 0
M  V30 204 O 23.0105 -1.73103 0.917171 0
M  V30 205 H 21.5905 0.136261 0.734467 0
M  V30 206 H 24.2525 1.02442 1.65806 0
M  V30 207 H 23.3485 0.477002 3.08433 0
M  V30 208 N 23.6496 -1.47581 0.552962 0
M  V30 209 C 24.8956 -2.02782 0.0273648 0
M  V30 210 C 25.2286 -1.42687 -1.31734 0
M  V30 211 O 24.5036 -0.580897 -1.85623 0
M  V30 212 C 24.7866 -3.60031 -0.0702371 0
M  V30 213 C 24.6396 -4.30566 1.30126 0
M  V30 214 C 25.9586 -4.33028 -0.785771 0
M  V30 215 H 23.0776 -0.736912 0.0114185 0
M  V30 216 H 25.7196 -1.76056 0.714432 0
M  V30 217 H 23.8696 -3.82932 -0.655382 0
M  V30 218 H 25.5416 -4.19018 1.92929 0
M  V30 219 H 23.7846 -3.91086 1.87709 0
M  V30 220 H 24.4556 -5.39114 1.18573 0
M  V30 221 H 26.9316 -4.15095 -0.288982 0
M  V30 222 H 25.8076 -5.42695 -0.823013 0
M  V30 223 H 26.0686 -4.01945 -1.841 0
M  V30 224 N 25.1277 -0.289203 -1.54924 0
M  V30 225 C 26.3757 0.322879 -1.99504 0
M  V30 226 C 26.6967 1.55313 -1.1791 0
M  V30 227 O 25.9667 1.94001 -0.272097 0
M  V30 228 H 24.5467 0.122291 -0.736922 0
M  V30 229 H 27.2087 -0.397802 -1.90797 0
M  V30 230 H 26.3047 0.603061 -3.06218 0
M  V30 231 N 26.6058 1.57591 -0.0167156 0
M  V30 232 C 27.5688 2.08393 0.954204 0
M  V30 233 C 28.5688 0.996531 1.26198 0
M  V30 234 O 29.7588 1.25858 1.20438 0
M  V30 235 C 26.8908 2.5394 2.27436 0
M  V30 236 H 28.0838 2.95455 0.514451 0
M  V30 237 H 25.6368 1.54582 0.231089 0
M  V30 238 H 26.3718 1.70171 2.76066 0
M  V30 239 H 26.1568 3.33371 2.06412 0
M  V30 240 H 27.6468 2.93512 2.97053 0
M  V30 241 N 28.0839 -0.256276 1.55502 0
M  V30 242 C 29.3609 -1.00789 1.67633 0
M  V30 243 C 29.7409 -2.03706 0.553826 0
M  V30 244 O 29.0889 -2.24145 -0.443969 0
M  V30 245 C 29.2989 -1.64968 3.07549 0
M  V30 246 C 30.6469 -2.15505 3.65845 0
M  V30 247 O 31.6709 -1.74925 3.1029 0
M  V30 248 O 30.5299 -2.89986 4.63217 0
M  V30 249 H 27.6239 -0.468553 0.681459 0
M  V30 250 H 30.1699 -0.250806 1.67836 0
M  V30 251 H 28.9419 -0.904785 3.80696 0
M  V30 252 H 28.5649 -2.47321 3.11317 0
M  V30 253 N 29.562 -1.4872 -0.521534 0
M  V30 254 C 30.525 -1.63379 -1.60748 0
M  V30 255 C 31.525 -0.50661 -1.52611 0
M  V30 256 O 32.715 -0.772601 -1.5613 0
M  V30 257 C 29.847 -1.61192 -3.00383 0
M  V30 258 H 31.04 -2.60217 -1.49087 0
M  V30 259 H 28.593 -1.37444 -0.744235 0
M  V30 260 H 29.328 -0.65863 -3.17541 0
M  V30 261 H 29.113 -2.43032 -3.07698 0
M  V30 262 H 30.603 -1.7466 -3.7932 0
M  V30 263 N 31.0401 0.771051 -1.3745 0
M  V30 264 C 32.2861 1.5319 -1.32894 0
M  V30 265 C 32.6191 1.94008 0.0862511 0
M  V30 266 O 31.8941 1.64124 1.04373 0
M  V30 267 C 32.1771 2.79648 -2.26868 0
M  V30 268 C 32.0301 2.45079 -3.77169 0
M  V30 269 C 33.3491 3.81583 -2.19277 0
M  V30 270 H 30.4681 0.555744 -0.484064 0
M  V30 271 H 33.1101 0.884492 -1.68157 0
M  V30 272 H 31.2601 3.34891 -1.96926 0
M  V30 273 H 32.9321 1.95745 -4.1771 0
M  V30 274 H 31.1751 1.77767 -3.95704 0
M  V30 275 H 31.8461 3.35478 -4.38359 0
M  V30 276 H 34.3221 3.35835 -2.45671 0
M  V30 277 H 33.1981 4.67787 -2.87171 0
M  V30 278 H 33.4591 4.25897 -1.18592 0
M  V30 279 N 32.5182 1.22032 0.997298 0
M  V30 280 C 33.4662 0.983634 2.10778 0
M  V30 281 C 34.4602 -0.0717564 1.69248 0
M  V30 282 O 35.6662 0.080304 1.79821 0
M  V30 283 H 32.0412 0.300877 0.689186 0
M  V30 284 H 34.0122 1.92606 2.27916 0
M  V30 285 C 32.7612 0.57326 3.42942 0
M  V30 286 H 32.0842 1.37702 3.75338 0
M  V30 287 H 33.5242 0.447031 4.21637 0
M  V30 288 C 31.9832 -0.7167 3.29188 0
M  V30 289 O 32.5132 -1.77027 3.60589 0
M  V30 290 N 30.7192 -0.686167 2.82383 0
M  V30 291 H 30.2662 0.171507 2.57028 0
M  V30 292 H 30.2242 -1.54955 2.73562 0
M  V30 293 N 33.9963 -1.19345 1.0293 0
M  V30 294 C 34.9263 -2.2481 0.631105 0
M  V30 295 C 35.9073 -1.66245 -0.360104 0
M  V30 296 O 37.0923 -1.92677 -0.242726 0
M  V30 297 C 34.2223 -3.47295 -0.0184607 0
M  V30 298 C 33.1763 -4.18536 0.895073 0
M  V30 299 C 32.5023 -5.34586 0.110592 0
M  V30 300 C 33.8023 -4.73287 2.209 0
M  V30 301 H 35.4963 -2.58372 1.51275 0
M  V30 302 H 33.0423 -1.24194 0.728818 0
M  V30 303 H 34.9953 -4.20268 -0.308675 0
M  V30 304 H 33.7193 -3.12933 -0.934907 0
M  V30 305 H 32.3783 -3.47446 1.16949 0
M  V30 306 H 32.0263 -4.96469 -0.807902 0
M  V30 307 H 31.7263 -5.83183 0.719087 0
M  V30 308 H 33.2503 -6.10355 -0.172871 0
M  V30 309 H 34.6643 -5.38013 1.98028 0
M  V30 310 H 33.0613 -5.32373 2.76946 0
M  V30 311 H 34.1313 -3.91331 2.86336 0
M  V30 312 N 35.4744 -0.807222 -1.35358 0
M  V30 313 C 36.7024 -0.400377 -2.02989 0
M  V30 314 C 37.1174 0.988859 -1.60832 0
M  V30 315 O 36.4744 1.63729 -0.806175 0
M  V30 316 C 36.5254 -0.474867 -3.58368 0
M  V30 317 O 36.2464 -1.80933 -3.98992 0
M  V30 318 C 37.7474 -0.0609112 -4.43258 0
M  V30 319 H 34.9674 -0.162587 -0.651004 0
M  V30 320 H 37.5114 -1.09102 -1.72965 0
M  V30 321 H 35.6664 0.167534 -3.87038 0
M  V30 322 H 36.0804 -1.77256 -4.9364 0
M  V30 323 H 37.5544 -0.164145 -5.51756 0
M  V30 324 H 38.0314 0.993831 -4.27808 0
M  V30 325 H 38.6374 -0.676492 -4.19885 0
M  V30 326 N 36.9525 1.47285 -0.560781 0
M  V30 327 C 37.9155 2.28535 0.174488 0
M  V30 328 C 38.9155 1.37153 0.839388 0
M  V30 329 O 40.1055 1.59748 0.694702 0
M  V30 330 C 37.2375 3.16934 1.25561 0
M  V30 331 H 38.4305 2.95012 -0.539262 0
M  V30 332 H 35.9835 1.53034 -0.317865 0
M  V30 333 H 36.7185 2.55157 2.00164 0
M  V30 334 H 36.5035 3.8419 0.783604 0
M  V30 335 H 37.9935 3.78143 1.77193 0
M  V30 336 N 38.4306 0.297415 1.54768 0
M  V30 337 C 39.6556 -0.318435 2.04941 0
M  V30 338 C 40.0806 -1.4701 1.17345 0
M  V30 339 O 39.4386 -1.80436 0.176758 0
M  V30 340 C 39.4866 -0.755749 3.52592 0
M  V30 341 O 38.5906 -1.86088 3.68028 0
M  V30 342 H 37.9316 -0.062421 0.661059 0
M  V30 343 H 40.4616 0.438215 1.99852 0
M  V30 344 H 40.4716 -1.04552 3.94376 0
M  V30 345 H 39.1466 0.0867233 4.1581 0
M  V30 346 H 37.7236 -1.57193 3.38149 0
M  V30 347 N 39.9087 -1.5758 0.0250728 0
M  V30 348 C 40.8387 -2.13007 -0.956575 0
M  V30 349 C 41.8197 -1.0452 -1.342 0
M  V30 350 O 43.0047 -1.32332 -1.42133 0
M  V30 351 C 40.1347 -2.65386 -2.24026 0
M  V30 352 C 39.0887 -3.78623 -1.99571 0
M  V30 353 C 38.4147 -4.17414 -3.3417 0
M  V30 354 C 39.7147 -5.04867 -1.33814 0
M  V30 355 H 41.4087 -2.9528 -0.494991 0
M  V30 356 H 38.9547 -1.42042 -0.236651 0
M  V30 357 H 40.9077 -3.02794 -2.93076 0
M  V30 358 H 39.6317 -1.80268 -2.72343 0
M  V30 359 H 38.2907 -3.41646 -1.32941 0
M  V30 360 H 37.9387 -3.29284 -3.80238 0
M  V30 361 H 37.6387 -4.93719 -3.18615 0
M  V30 362 H 39.1627 -4.57402 -4.04495 0
M  V30 363 H 40.5767 -5.39888 -1.92857 0
M  V30 364 H 38.9737 -5.86144 -1.28669 0
M  V30 365 H 40.0437 -4.83904 -0.310561 0
M  V30 366 N 41.3868 0.248026 -1.55636 0
M  V30 367 C 42.3498 1.29044 -1.89421 0
M  V30 368 C 43.3498 1.41134 -0.770581 0
M  V30 369 O 44.5398 1.39854 -1.03858 0
M  V30 370 C 41.6718 2.66831 -2.12165 0
M  V30 371 H 42.8648 1.00305 -2.82629 0
M  V30 372 H 40.4178 0.487265 -1.48511 0
M  V30 373 H 41.1528 3.00711 -1.21422 0
M  V30 374 H 40.9378 2.59438 -2.93997 0
M  V30 375 H 42.4278 3.42103 -2.3949 0
M  V30 376 N 42.8649 1.48995 0.513639 0
M  V30 377 C 43.8279 1.64229 1.59879 0
M  V30 378 C 44.8279 0.514696 1.5234 0
M  V30 379 O 46.0179 0.78087 1.55718 0
M  V30 380 C 43.1499 1.62783 2.99524 0
M  V30 381 H 44.3429 2.61004 1.47705 0
M  V30 382 H 41.8959 1.37837 0.736936 0
M  V30 383 H 42.6309 0.675461 3.17188 0
M  V30 384 H 42.4159 2.4466 3.06404 0
M  V30 385 H 43.9059 1.76669 3.78388 0
M  V30 386 N 44.343 -0.763751 1.37857 0
M  V30 387 C 45.591 -1.51957 1.33243 0
M  V30 388 C 45.912 -1.94835 -0.0801709 0
M  V30 389 O 45.182 -1.66894 -1.02582 0
M  V30 390 H 43.762 -0.563626 0.49024 0
M  V30 391 H 46.424 -0.908504 1.7243 0
M  V30 392 H 45.52 -2.41523 1.97669 0
M  V30 393 N 45.8211 -1.22559 -0.990812 0
M  V30 394 C 46.7841 -0.998863 -2.0629 0
M  V30 395 C 47.7841 0.0354834 -1.60761 0
M  V30 396 O 48.9741 -0.203231 -1.7301 0
M  V30 397 C 46.1061 -0.509203 -3.37076 0
M  V30 398 H 47.2991 -1.95014 -2.27837 0
M  V30 399 H 44.8521 -1.04456 -1.16269 0
M  V30 400 H 45.5871 0.446335 -3.21214 0
M  V30 401 H 45.3721 -1.25547 -3.71457 0
M  V30 402 H 46.8621 -0.370888 -4.1595 0
M  V30 403 N 47.2992 1.18797 -1.03562 0
M  V30 404 C 48.2622 2.20464 -0.626769 0
M  V30 405 C 49.2622 1.57721 0.313173 0
M  V30 406 O 50.4522 1.73917 0.0992615 0
M  V30 407 C 47.5842 3.40802 0.0818498 0
M  V30 408 H 48.7772 2.58149 -1.5264 0
M  V30 409 H 46.3302 1.32593 -0.827578 0
M  V30 410 H 47.0652 3.08642 0.995518 0
M  V30 411 H 46.8502 3.8758 -0.593652 0
M  V30 412 H 48.3402 4.16092 0.354584 0
M  V30 413 N 48.7773 0.814389 1.34928 0
M  V30 414 C 50.0053 0.411136 2.02774 0
M  V30 415 C 50.4203 -0.980316 1.61354 0
M  V30 416 O 49.7773 -1.63299 0.814847 0
M  V30 417 C 49.8283 0.493865 3.58111 0
M  V30 418 O 49.5493 1.83047 3.98027 0
M  V30 419 C 51.0503 0.0844174 4.4322 0
M  V30 420 H 48.2703 0.166037 0.650133 0
M  V30 421 H 50.8143 1.10018 1.72384 0
M  V30 422 H 48.9693 -0.147006 3.87121 0
M  V30 423 H 49.3833 1.79872 4.92693 0
M  V30 424 H 50.8573 0.193404 5.51661 0
M  V30 425 H 51.3343 -0.97113 4.28329 0
M  V30 426 H 51.9403 0.69875 4.19521 0
M  V30 427 N 50.2554 -1.46986 0.568584 0
M  V30 428 C 51.5034 -2.02041 0.0487022 0
M  V30 429 C 51.8244 -1.44408 -1.31039 0
M  V30 430 O 51.0944 -0.623477 -1.85714 0
M  V30 431 H 49.6744 -0.746849 0.015014 0
M  V30 432 H 52.3364 -1.80257 0.741168 0
M  V30 433 H 51.4324 -3.12085 -0.0308961 0
M  V30 434 N 51.7335 -0.305618 -1.54608 0
M  V30 435 C 52.6965 0.555591 -2.22364 0
M  V30 436 C 53.6965 1.05768 -1.21119 0
M  V30 437 O 54.8865 0.952972 -1.45822 0
M  V30 438 C 52.0185 1.76974 -2.91364 0
M  V30 439 H 53.2115 -0.0364572 -2.99878 0
M  V30 440 H 50.7645 -0.0565007 -1.56198 0
M  V30 441 H 51.4995 2.40151 -2.17941 0
M  V30 442 H 51.2845 1.41732 -3.65588 0
M  V30 443 H 52.7745 2.38148 -3.43038 0
M  V30 444 N 53.2116 1.57565 -0.0334293 0
M  V30 445 C 54.4576 1.92262 0.645226 0
M  V30 446 C 54.7906 0.910543 1.71531 0
M  V30 447 O 54.0656 -0.066099 1.94388 0
M  V30 448 C 54.3486 3.37422 1.2577 0
M  V30 449 C 54.2016 4.49369 0.196891 0
M  V30 450 C 55.5206 3.82628 2.17449 0
M  V30 451 H 52.6396 0.699171 0.233085 0
M  V30 452 H 55.2816 1.89779 -0.0915694 0
M  V30 453 H 53.4316 3.39669 1.88566 0
M  V30 454 H 55.1036 4.59254 -0.433962 0
M  V30 455 H 53.3466 4.31168 -0.477137 0
M  V30 456 H 54.0176 5.47978 0.665124 0
M  V30 457 H 56.4936 3.82145 1.64634 0
M  V30 458 H 55.3696 4.84883 2.57254 0
M  V30 459 H 55.6306 3.18376 3.0674 0
M  V30 460 N 54.6897 -0.239769 1.55765 0
M  V30 461 C 55.5997 -1.31831 1.94056 0
M  V30 462 C 56.6157 -1.52275 0.841925 0
M  V30 463 O 57.7917 -1.65759 1.14394 0
M  V30 464 C 54.8567 -2.65156 2.23368 0
M  V30 465 C 53.9177 -2.53173 3.46701 0
M  V30 466 C 53.1507 -3.8014 3.74606 0
M  V30 467 O 53.3737 -4.82343 3.04469 0
M  V30 468 O 52.3077 -3.78344 4.68123 0
M  V30 469 H 56.1337 -1.02347 2.85935 0
M  V30 470 H 53.7187 -0.441123 1.42739 0
M  V30 471 H 55.6007 -3.43929 2.43497 0
M  V30 472 H 54.2757 -2.94358 1.34666 0
M  V30 473 H 53.1827 -1.72662 3.31871 0
M  V30 474 H 54.5157 -2.28915 4.35728 0
M  V30 475 N 56.1678 -1.49265 -0.50573 0
M  V30 476 C 57.3958 -1.62215 -1.28429 0
M  V30 477 C 57.8108 -0.291697 -1.86533 0
M  V30 478 O 57.1678 0.722233 -1.67601 0
M  V30 479 C 57.2188 -2.68735 -2.41793 0
M  V30 480 O 56.9398 -3.96619 -1.86078 0
M  V30 481 C 58.4408 -2.92346 -3.3324 0
M  V30 482 H 55.6608 -0.546239 -0.389697 0
M  V30 483 H 58.2048 -1.95265 -0.607609 0
M  V30 484 H 56.3598 -2.38476 -3.053 0
M  V30 485 H 56.7738 -4.55256 -2.60465 0
M  V30 486 H 58.2478 -3.70623 -4.09075 0
M  V30 487 H 58.7248 -2.02081 -3.89948 0
M  V30 488 H 59.3308 -3.24003 -2.75503 0
M  V30 489 N 57.6459 0.756429 -1.3826 0
M  V30 490 C 58.8939 1.51248 -1.34047 0
M  V30 491 C 59.2149 1.94875 0.0698372 0
M  V30 492 O 58.4849 1.67436 1.01696 0
M  V30 493 H 57.0649 0.561018 -0.493222 0
M  V30 494 H 59.7269 0.899347 -1.7291 0
M  V30 495 H 58.8229 2.40472 -1.98947 0
M  V30 496 N 59.124 1.23083 0.984299 0
M  V30 497 C 60.37 1.07221 1.72845 0
M  V30 498 C 60.725 -0.387453 1.88458 0
M  V30 499 O 60.018 -1.28309 1.42293 0
M  V30 500 C 60.212 1.72673 3.1292 0
M  V30 501 C 60.041 3.24853 3.10967 0
M  V30 502 C 58.811 3.93998 3.16376 0
M  V30 503 C 61.009 4.21674 2.94441 0
M  V30 504 N 58.991 5.33192 3.04268 0
M  V30 505 C 60.362 5.47756 2.90453 0
M  V30 506 C 62.417 4.12457 2.78897 0
M  V30 507 C 61.12 6.6568 2.72512 0
M  V30 508 C 63.146 5.3004 2.62319 0
M  V30 509 C 62.508 6.55046 2.59026 0
M  V30 510 H 58.607 0.44685 0.641755 0
M  V30 511 H 61.191 1.55753 1.16829 0
M  V30 512 H 59.362 1.26679 3.67161 0
M  V30 513 H 61.094 1.49824 3.75945 0
M  V30 514 H 57.849 3.45052 3.24401 0
M  V30 515 H 58.273 6.06157 3.015 0
M  V30 516 H 62.915 3.16588 2.80235 0
M  V30 517 H 60.633 7.61689 2.69919 0
M  V30 518 H 64.219 5.24747 2.5126 0
M  V30 519 H 63.099 7.44498 2.46357 0
M  V30 520 N 60.6021 -1.18246 1.0419 0
M  V30 521 C 61.5321 -2.24127 0.654914 0
M  V30 522 C 62.5131 -1.66617 -0.342451 0
M  V30 523 O 63.6981 -1.92924 -0.222277 0
M  V30 524 C 60.8281 -3.47295 0.0183757 0
M  V30 525 C 59.7821 -4.17563 0.939414 0
M  V30 526 C 59.1081 -5.34438 0.167286 0
M  V30 527 C 60.4081 -4.70917 2.25908 0
M  V30 528 H 62.1021 -2.56753 1.54007 0
M  V30 529 H 59.6481 -1.23414 0.74195 0
M  V30 530 H 61.6011 -4.20572 -0.264082 0
M  V30 531 H 60.3251 -3.13907 -0.901664 0
M  V30 532 H 58.9841 -3.46186 1.20628 0
M  V30 533 H 58.6321 -4.97298 -0.7552 0
M  V30 534 H 58.3321 -5.82388 0.780901 0
M  V30 535 H 59.8561 -6.10504 -0.108125 0
M  V30 536 H 61.2701 -5.35882 2.03724 0
M  V30 537 H 59.6671 -5.29406 2.82577 0
M  V30 538 H 60.7371 -3.88272 2.9047 0
M  V30 539 N 62.0802 -0.821533 -1.34494 0
M  V30 540 C 63.0122 -0.199946 -2.28326 0
M  V30 541 C 64.0252 0.609377 -1.50965 0
M  V30 542 O 65.2142 0.439285 -1.7301 0
M  V30 543 C 62.3142 0.738431 -3.30757 0
M  V30 544 C 61.4872 -0.0277632 -4.37391 0
M  V30 545 C 60.5462 0.831332 -5.19591 0
M  V30 546 O 59.5722 0.276822 -5.68526 0
M  V30 547 N 60.7742 2.15132 -5.39165 0
M  V30 548 H 63.5392 -1.00609 -2.82308 0
M  V30 549 H 61.1002 -0.678366 -1.47003 0
M  V30 550 H 63.0922 1.31773 -3.82646 0
M  V30 551 H 61.6622 1.44533 -2.7718 0
M  V30 552 H 60.8822 -0.788359 -3.86236 0
M  V30 553 H 62.1702 -0.555251 -5.05761 0
M  V30 554 H 61.5682 2.62559 -5.01078 0
M  V30 555 H 60.1252 2.6795 -5.94177 0
M  V30 556 N 63.5583 1.46682 -0.576371 0
M  V30 557 C 64.4883 2.33028 0.148397 0
M  V30 558 C 65.4693 1.44961 0.889956 0
M  V30 559 O 66.6543 1.73789 0.866662 0
M  V30 560 C 63.7843 3.27117 1.1667 0
M  V30 561 C 62.7383 4.24575 0.540386 0
M  V30 562 C 62.0643 5.08126 1.6647 0
M  V30 563 C 63.3643 5.19722 -0.518331 0
M  V30 564 H 65.0583 2.93875 -0.572509 0
M  V30 565 H 62.6043 1.41315 -0.276768 0
M  V30 566 H 64.5573 3.86374 1.68204 0
M  V30 567 H 63.2813 2.64364 1.9178 0
M  V30 568 H 61.9403 3.66571 0.0461769 0
M  V30 569 H 61.5883 4.41762 2.40531 0
M  V30 570 H 61.2883 5.74122 1.25131 0
M  V30 571 H 62.8123 5.70246 2.18293 0
M  V30 572 H 64.2263 5.73232 -0.0883058 0
M  V30 573 H 62.6233 5.94026 -0.851679 0
M  V30 574 H 63.6933 4.64037 -1.40703 0
M  V30 575 N 65.0364 0.313813 1.54444 0
M  V30 576 C 65.9664 -0.549454 2.26943 0
M  V30 577 C 66.9474 -1.12741 1.27372 0
M  V30 578 O 68.1324 -1.15436 1.56167 0
M  V30 579 C 65.2624 -1.71523 3.01989 0
M  V30 580 C 64.2164 -1.26703 4.08816 0
M  V30 581 C 63.5424 -2.51898 4.71647 0
M  V30 582 C 64.8424 -0.388962 5.2085 0
M  V30 583 H 66.5364 0.0552661 2.99349 0
M  V30 584 H 64.0824 0.0280207 1.43973 0
M  V30 585 H 66.0354 -2.32535 3.51433 0
M  V30 586 H 64.7594 -2.34639 2.27183 0
M  V30 587 H 63.4184 -0.679896 3.6024 0
M  V30 588 H 63.0664 -3.13356 3.93468 0
M  V30 589 H 62.7664 -2.22605 5.43802 0
M  V30 590 H 64.2904 -3.1369 5.23861 0
M  V30 591 H 65.7044 -0.905107 5.6611 0
M  V30 592 H 64.1014 -0.18924 5.99802 0
M  V30 593 H 65.1714 0.582699 4.81386 0
M  V30 594 N 66.5145 -1.57545 0.0417849 0
M  V30 595 C 67.7915 -1.83642 -0.673433 0
M  V30 596 C 68.1715 -0.928298 -1.89594 0
M  V30 597 O 67.5195 0.0129955 -2.28496 0
M  V30 598 C 67.7295 -3.33155 -1.03964 0
M  V30 599 C 69.0775 -3.99941 -1.42592 0
M  V30 600 O 70.1015 -3.37725 -1.13226 0
M  V30 601 O 68.9605 -5.09619 -1.9736 0
M  V30 602 H 66.0545 -0.757638 -0.331533 0
M  V30 603 H 68.6005 -1.69554 0.070433 0
M  V30 604 H 67.3725 -3.9093 -0.170098 0
M  V30 605 H 66.9955 -3.52396 -1.84126 0
M  V30 606 N 67.9926 0.231505 -1.5589 0
M  V30 607 C 68.9246 1.31006 -1.8807 0
M  V30 608 C 69.9376 1.43539 -0.768145 0
M  V30 609 O 71.1266 1.44614 -1.04638 0
M  V30 610 C 68.2266 2.68688 -2.06543 0
M  V30 611 C 67.3996 2.78228 -3.37502 0
M  V30 612 C 66.4586 3.96857 -3.4553 0
M  V30 613 O 65.4846 3.85662 -4.18633 0
M  V30 614 N 66.6866 5.1072 -2.75944 0
M  V30 615 H 69.4516 1.03731 -2.81176 0
M  V30 616 H 67.0126 0.421573 -1.56315 0
M  V30 617 H 69.0046 3.46412 -2.09239 0
M  V30 618 H 67.5746 2.88605 -1.20109 0
M  V30 619 H 66.7946 1.87059 -3.46991 0
M  V30 620 H 68.0826 2.81564 -4.23791 0
M  V30 621 H 67.4806 5.2271 -2.16311 0
M  V30 622 H 66.0376 5.86523 -2.84314 0
M  V30 623 N 69.4707 1.49531 0.497807 0
M  V30 624 C 70.4337 1.65916 1.58128 0
M  V30 625 C 71.4337 0.530825 1.51786 0
M  V30 626 O 72.6237 0.797342 1.54881 0
M  V30 627 C 69.7557 1.65951 2.9778 0
M  V30 628 H 70.9487 2.62556 1.44929 0
M  V30 629 H 68.5017 1.38611 0.722275 0
M  V30 630 H 69.2367 0.709065 3.16453 0
M  V30 631 H 69.0217 2.47897 3.03792 0
M  V30 632 H 70.5117 1.80673 3.76493 0
M  V30 633 N 70.9488 -0.749086 1.3866 0
M  V30 634 C 72.1968 -1.50535 1.34847 0
M  V30 635 C 72.5178 -1.94909 -0.0595016 0
M  V30 636 O 71.7878 -1.67973 -1.00806 0
M  V30 637 H 70.3678 -0.558395 0.49619 0
M  V30 638 H 73.0298 -0.890165 1.73384 0
M  V30 639 H 72.1258 -2.39413 2.00219 0
M  V30 640 N 72.4269 -1.23603 -0.977757 0
M  V30 641 C 73.3749 -1.01704 -2.09187 0
M  V30 642 C 74.3689 0.0448214 -1.69341 0
M  V30 643 O 75.5749 -0.108902 -1.7967 0
M  V30 644 H 71.9499 -0.311803 -0.684312 0
M  V30 645 H 73.9209 -1.96207 -2.24823 0
M  V30 646 C 72.6699 -0.627746 -3.41986 0
M  V30 647 H 71.9929 -1.43656 -3.73099 0
M  V30 648 H 73.4329 -0.514053 -4.20872 0
M  V30 649 C 71.8919 0.664238 -3.30287 0
M  V30 650 O 72.4219 1.71268 -3.6336 0
M  V30 651 N 70.6279 0.641156 -2.83439 0
M  V30 652 H 70.1749 -0.212376 -2.56723 0
M  V30 653 H 70.1329 1.50583 -2.75993 0
M  V30 654 N 73.905 1.17692 -1.04816 0
M  V30 655 C 74.835 2.23777 -0.666791 0
M  V30 656 C 75.816 1.66796 0.33361 0
M  V30 657 O 77.001 1.93039 0.212042 0
M  V30 658 C 74.131 3.47281 -0.0367933 0
M  V30 659 C 73.085 4.17059 -0.961546 0
M  V30 660 C 72.411 5.34342 -0.195626 0
M  V30 661 C 73.711 4.69713 -2.28402 0
M  V30 662 H 75.405 2.55933 -1.55367 0
M  V30 663 H 72.951 1.23019 -0.748484 0
M  V30 664 H 74.904 4.20706 0.241775 0
M  V30 665 H 73.628 3.14381 0.885004 0
M  V30 666 H 72.287 3.45541 -1.22462 0
M  V30 667 H 71.935 4.97692 0.728816 0
M  V30 668 H 71.635 5.81966 -0.811775 0
M  V30 669 H 73.159 6.10553 0.0757473 0
M  V30 670 H 74.573 5.34794 -2.06563 0
M  V30 671 H 72.97 5.279 -2.8538 0
M  V30 672 H 74.04 3.86726 -2.92525 0
M  V30 673 N 75.3831 0.828654 1.34056 0
M  V30 674 C 76.6081 0.431637 2.02859 0
M  V30 675 C 77.0331 -0.956339 1.61975 0
M  V30 676 O 76.3911 -1.62338 0.807228 0
M  V30 677 C 76.4391 0.548323 3.56407 0
M  V30 678 O 75.5431 -0.429556 4.10157 0
M  V30 679 H 74.8841 0.176886 0.640006 0
M  V30 680 H 77.4141 1.12066 1.71179 0
M  V30 681 H 77.4241 0.426196 4.05768 0
M  V30 682 H 76.0991 1.5606 3.8551 0
M  V30 683 H 74.6761 -0.265836 3.71951 0
M  V30 684 N 76.8612 -1.46375 0.584142 0
M  V30 685 C 78.0862 -2.07268 0.0740405 0
M  V30 686 C 78.5112 -1.42979 -1.22223 0
M  V30 687 O 77.8692 -0.514092 -1.73859 0
M  V30 688 C 77.9172 -3.60518 -0.0767769 0
M  V30 689 O 77.0212 -3.96533 -1.13292 0
M  V30 690 H 76.3622 -0.660961 0.0634524 0
M  V30 691 H 78.8922 -1.87991 0.807492 0
M  V30 692 H 78.9022 -4.07021 -0.282489 0
M  V30 693 H 77.5772 -4.06702 0.86986 0
M  V30 694 H 76.1542 -3.61738 -0.905553 0
M  V30 695 N 78.3393 -0.321999 -1.54275 0
M  V30 696 C 79.5643 0.285791 -2.05422 0
M  V30 697 C 79.9893 1.45124 -1.19669 0
M  V30 698 O 79.3473 1.80132 -0.205441 0
M  V30 699 C 79.3953 0.69956 -3.53749 0
M  V30 700 O 78.4993 1.8021 -3.70942 0
M  V30 701 H 77.8403 0.0518962 -0.661969 0
M  V30 702 H 80.3703 -0.469954 -1.9913 0
M  V30 703 H 80.3803 0.982649 -3.9599 0
M  V30 704 H 79.0553 -0.152864 -4.15619 0
M  V30 705 H 77.6323 1.51794 -3.40607 0
M  V30 706 N 79.8174 1.5752 -0.0501392 0
M  V30 707 C 81.2284 1.80271 0.485705 0
M  V30 708 C 81.5794 0.96228 1.70981 0
M  V30 709 O 80.7044 0.178578 2.15662 0
M  V30 710 C 81.2994 3.26957 0.887938 0
M  V30 711 C 79.8584 3.5063 1.36877 0
M  V30 712 C 79.0054 2.75165 0.343468 0
M  V30 713 H 81.9564 1.56281 -0.276028 0
M  V30 714 H 81.9774 3.37821 1.75093 0
M  V30 715 H 81.4894 3.881 -0.0031809 0
M  V30 716 H 79.5904 2.94766 2.27911 0
M  V30 717 H 79.7034 4.59343 1.36164 0
M  V30 718 H 78.0674 2.4127 0.816128 0
M  V30 719 H 78.8504 3.39034 -0.539548 0
M  V30 720 N 81.2955 -0.223234 1.56011 0
M  V30 721 C 82.5205 -0.968978 1.83373 0
M  V30 722 C 82.9455 -1.77227 0.630254 0
M  V30 723 O 82.3035 -1.76345 -0.420959 0
M  V30 724 C 82.3515 -1.86363 3.08709 0
M  V30 725 O 81.4555 -2.95873 2.87285 0
M  V30 726 H 80.7965 -0.274461 0.604622 0
M  V30 727 H 83.3265 -0.237056 2.03222 0
M  V30 728 H 83.3365 -2.27376 3.38768 0
M  V30 729 H 82.0115 -1.27319 3.95933 0
M  V30 730 H 80.5885 -2.58818 2.68454 0
M  V30 731 N 82.7736 -1.49793 -0.48987 0
M  V30 732 C 83.7366 -1.66752 -1.57246 0
M  V30 733 C 84.7366 -0.538867 -1.51502 0
M  V30 734 O 85.9266 -0.805545 -1.54456 0
M  V30 735 C 83.0586 -1.67528 -2.96896 0
M  V30 736 H 84.2516 -2.63321 -1.43534 0
M  V30 737 H 81.8046 -1.38992 -0.714914 0
M  V30 738 H 82.5396 -0.725837 -3.16073 0
M  V30 739 H 82.3246 -2.49504 -3.02473 0
M  V30 740 H 83.8146 -1.82667 -3.7553 0
M  V30 741 N 84.2517 0.741722 -1.39055 0
M  V30 742 C 85.1817 1.869 -1.39966 0
M  V30 743 C 86.1627 1.6804 -0.26392 0
M  V30 744 O 87.3477 1.88458 -0.468755 0
M  V30 745 C 84.4777 3.24572 -1.23574 0
M  V30 746 C 83.4317 3.58056 -2.34477 0
M  V30 747 C 82.7577 4.94593 -2.0318 0
M  V30 748 C 84.0577 3.61716 -3.76774 0
M  V30 749 H 85.7517 1.86395 -2.34302 0
M  V30 750 H 83.2977 0.895361 -1.1278 0
M  V30 751 H 85.2507 4.031 -1.22834 0
M  V30 752 H 83.9747 3.25587 -0.257045 0
M  V30 753 H 82.6337 2.81854 -2.34423 0
M  V30 754 H 82.2817 4.92181 -1.03765 0
M  V30 755 H 81.9817 5.17964 -2.77465 0
M  V30 756 H 83.5057 5.75486 -2.04079 0
M  V30 757 H 84.9197 4.30335 -3.78794 0
M  V30 758 H 83.3167 3.96603 -4.50362 0
M  V30 759 H 84.3867 2.61672 -4.08235 0
M  V30 760 N 85.7298 1.2412 0.971189 0
M  V30 761 C 86.9778 1.07668 1.71032 0
M  V30 762 C 87.2988 -0.385797 1.91146 0
M  V30 763 O 86.5688 -1.27569 1.4867 0
M  V30 764 H 85.1488 0.395429 0.633755 0
M  V30 765 H 87.8108 1.55984 1.16855 0
M  V30 766 H 86.9068 1.57195 2.69622 0
M  V30 767 N 87.2079 -1.17134 1.05439 0
M  V30 768 C 88.1379 -2.2342 0.678649 0
M  V30 769 C 89.1189 -1.66971 -0.32476 0
M  V30 770 O 90.3039 -1.93149 -0.201802 0
M  V30 771 C 87.4339 -3.47256 0.0552099 0
M  V30 772 C 86.3879 -4.16543 0.98365 0
M  V30 773 C 85.7139 -5.34231 0.223961 0
M  V30 774 C 87.0139 -4.68495 2.3089 0
M  V30 775 H 88.7079 -2.55105 1.56722 0
M  V30 776 H 86.2539 -1.2262 0.754998 0
M  V30 777 H 88.2069 -4.20828 -0.21946 0
M  V30 778 H 86.9309 -3.14846 -0.868319 0
M  V30 779 H 85.5899 -3.44887 1.24293 0
M  V30 780 H 85.2379 -4.98071 -0.702412 0
M  V30 781 H 84.9379 -5.81527 0.842627 0
M  V30 782 H 86.4619 -6.10585 -0.0433671 0
M  V30 783 H 87.8759 -5.33691 2.09396 0
M  V30 784 H 86.2729 -5.26379 2.88176 0
M  V30 785 H 87.3429 -3.85169 2.94572 0
M  V30 786 N 88.686 -0.835752 -1.33615 0
M  V30 787 C 90.097 -0.487099 -1.80234 0
M  V30 788 C 90.448 0.993627 -1.69179 0
M  V30 789 O 89.573 1.77403 -1.23924 0
M  V30 790 C 90.168 -0.877385 -3.27242 0
M  V30 791 C 88.727 -0.580915 -3.7189 0
M  V30 792 C 87.874 -1.0874 -2.5509 0
M  V30 793 H 90.825 -1.02474 -1.2118 0
M  V30 794 H 90.846 -0.186195 -3.80044 0
M  V30 795 H 90.358 -1.95512 -3.35256 0
M  V30 796 H 88.459 0.486881 -3.69405 0
M  V30 797 H 88.572 -1.13396 -4.65487 0
M  V30 798 H 86.936 -0.508392 -2.49575 0
M  V30 799 H 87.719 -2.17184 -2.65868 0
M  V30 800 N 90.1641 1.46063 -0.591896 0
M  V30 801 C 91.4101 2.02638 -0.0811191 0
M  V30 802 C 91.7431 1.4613 1.27905 0
M  V30 803 O 91.0181 0.629908 1.84017 0
M  V30 804 C 91.3011 3.60091 -0.0252436 0
M  V30 805 C 91.1541 4.26965 -1.41496 0
M  V30 806 C 92.4731 4.3496 0.670685 0
M  V30 807 H 89.5921 0.73635 -0.0309524 0
M  V30 808 H 92.2341 1.741 -0.760859 0
M  V30 809 H 90.3841 3.84535 0.553624 0
M  V30 810 H 92.0561 4.13756 -2.0397 0
M  V30 811 H 90.2991 3.85971 -1.98011 0
M  V30 812 H 90.9701 5.35781 -1.32825 0
M  V30 813 H 93.4461 4.15716 0.178825 0
M  V30 814 H 92.3221 5.44686 0.678837 0
M  V30 815 H 92.5831 4.06685 1.73379 0
M  V30 816 N 91.6422 0.330177 1.54103 0
M  V30 817 C 92.6052 -0.520144 2.2322 0
M  V30 818 C 93.6052 -1.03828 1.22786 0
M  V30 819 O 94.7952 -0.929652 1.4732 0
M  V30 820 C 91.9272 -1.72317 2.94142 0
M  V30 821 H 93.1202 0.0841605 2.99782 0
M  V30 822 H 90.6732 0.0813433 1.56088 0
M  V30 823 H 91.4082 -2.36653 2.21734 0
M  V30 824 H 91.1932 -1.35898 3.67796 0
M  V30 825 H 92.6832 -2.3266 3.46784 0
M  V30 826 N 93.1203 -1.57491 0.0584922 0
M  V30 827 C 94.3453 -1.97711 -0.62652 0
M  V30 828 C 94.7703 -0.936132 -1.63151 0
M  V30 829 O 94.1283 0.099811 -1.81025 0
M  V30 830 C 94.1763 -3.36989 -1.28338 0
M  V30 831 O 93.2803 -3.35433 -2.39913 0
M  V30 832 H 92.6213 -0.643868 -0.162266 0
M  V30 833 H 95.1513 -2.04193 0.129064 0
M  V30 834 H 95.1613 -3.73879 -1.63335 0
M  V30 835 H 93.8363 -4.12289 -0.546889 0
M  V30 836 H 92.4133 -3.10298 -2.06809 0
M  V30 837 N 94.5984 0.214957 -1.56127 0
M  V30 838 C 96.0094 0.781386 -1.69562 0
M  V30 839 C 96.3604 1.84707 -0.66165 0
M  V30 840 O 95.4854 2.156 0.185927 0
M  V30 841 C 96.0804 1.42411 -3.07416 0
M  V30 842 C 94.6394 1.93786 -3.22683 0
M  V30 843 C 93.7864 0.800438 -2.65496 0
M  V30 844 H 96.7374 -0.00980633 -1.58697 0
M  V30 845 H 96.7584 2.29309 -3.0364 0
M  V30 846 H 96.2704 0.64826 -3.82648 0
M  V30 847 H 94.3714 2.74152 -2.52332 0
M  V30 848 H 94.4844 2.1133 -4.29973 0
M  V30 849 H 92.8484 1.2095 -2.2415 0
M  V30 850 H 93.6314 0.0371471 -3.4328 0
M  V30 851 N 96.0765 1.50051 0.48192 0
M  V30 852 C 97.0395 1.67584 1.5636 0
M  V30 853 C 98.0395 0.546894 1.51214 0
M  V30 854 O 99.2295 0.813725 1.54026 0
M  V30 855 C 96.3615 1.691 2.96003 0
M  V30 856 H 97.5545 2.64078 1.42136 0
M  V30 857 H 95.1075 1.39369 0.707533 0
M  V30 858 H 95.8425 0.742589 3.15684 0
M  V30 859 H 95.6275 2.51105 3.01146 0
M  V30 860 H 97.1175 1.84656 3.74556 0
M  V30 861 N 97.5546 -0.734337 1.39446 0
M  V30 862 C 98.9656 -1.31264 1.32766 0
M  V30 863 C 99.3166 -1.96198 -0.00767497 0
M  V30 864 O 98.4416 -1.96346 -0.909796 0
M  V30 865 C 99.0366 -2.38682 2.4045 0
M  V30 866 C 97.5956 -2.92184 2.37288 0
M  V30 867 C 96.7426 -1.6576 2.22304 0
M  V30 868 H 99.6936 -0.531799 1.49525 0
M  V30 869 H 99.7146 -3.19087 2.07276 0
M  V30 870 H 99.2266 -1.91392 3.37625 0
M  V30 871 H 97.3276 -3.43752 1.43754 0
M  V30 872 H 97.4406 -3.45253 3.3217 0
M  V30 873 H 95.8046 -1.9012 1.69489 0
M  V30 874 H 96.5876 -1.20521 3.21449 0
M  V30 875 N 99.0327 -1.24633 -0.964593 0
M  V30 876 C 100.258 -1.11596 -1.74818 0
M  V30 877 C 100.683 0.32723 -1.85232 0
M  V30 878 O 100.041 1.23695 -1.32549 0
M  V30 879 C 100.089 -1.76397 -3.1451 0
M  V30 880 O 99.1927 -1.03685 -3.99153 0
M  V30 881 H 98.5337 -0.390196 -0.537255 0
M  V30 882 H 101.064 -1.65002 -1.20977 0
M  V30 883 H 101.074 -1.8228 -3.65018 0
M  V30 884 H 99.7487 -2.81401 -3.06246 0
M  V30 885 H 98.3257 -1.05611 -3.57632 0
M  V30 886 N 100.511 1.16574 -1.06058 0
M  V30 887 C 101.443 2.2045 -0.627239 0
M  V30 888 C 102.456 1.59752 0.313534 0
M  V30 889 O 103.645 1.78192 0.104896 0
M  V30 890 C 100.745 3.3875 0.100974 0
M  V30 891 C 99.9178 4.29008 -0.852687 0
M  V30 892 C 98.9768 5.25944 -0.164152 0
M  V30 893 O 98.0028 5.63535 -0.801047 0
M  V30 894 N 99.2048 5.70075 1.09518 0
M  V30 895 H 101.97 2.58249 -1.52077 0
M  V30 896 H 99.5308 1.3156 -0.943594 0
M  V30 897 H 101.523 4.00638 0.57194 0
M  V30 898 H 100.093 2.99476 0.89628 0
M  V30 899 H 99.3128 3.64419 -1.50308 0
M  V30 900 H 100.601 4.86195 -1.49972 0
M  V30 901 H 99.9988 5.41624 1.6328 0
M  V30 902 H 98.5558 6.34067 1.51006 0
M  V30 903 N 101.989 0.842826 1.3317 0
M  V30 904 C 103.4 0.496651 1.79973 0
M  V30 905 C 103.751 -0.984641 1.69703 0
M  V30 906 O 102.876 -1.76743 1.24863 0
M  V30 907 C 103.471 0.894727 3.26772 0
M  V30 908 C 102.03 0.600629 3.71577 0
M  V30 909 C 101.177 1.10091 2.5451 0
M  V30 910 H 104.128 1.03116 1.20635 0
M  V30 911 H 104.149 0.206347 3.7994 0
M  V30 912 H 103.661 1.97287 3.34215 0
M  V30 913 H 101.762 -0.467284 3.69658 0
M  V30 914 H 101.875 1.15863 4.64879 0
M  V30 915 H 100.239 0.52162 2.49301 0
M  V30 916 H 101.022 2.18591 2.64713 0
M  V30 917 N 103.467 -1.45747 0.599634 0
M  V30 918 C 104.713 -2.03153 0.100263 0
M  V30 919 C 105.068 -1.46073 -1.25221 0
M  V30 920 O 104.361 -0.622878 -1.81193 0
M  V30 921 C 104.555 -3.57399 -0.00602758 0
M  V30 922 C 104.384 -4.2944 1.3346 0
M  V30 923 C 103.154 -4.6768 1.91321 0
M  V30 924 C 105.352 -4.61905 2.2616 0
M  V30 925 N 103.334 -5.24544 3.18946 0
M  V30 926 C 104.705 -5.19518 3.3838 0
M  V30 927 C 106.76 -4.43841 2.25631 0
M  V30 928 C 105.463 -5.60972 4.50226 0
M  V30 929 C 107.489 -4.86322 3.36518 0
M  V30 930 C 106.851 -5.44021 4.4746 0
M  V30 931 H 102.95 -0.777911 0.0798696 0
M  V30 932 H 105.534 -1.77674 0.796244 0
M  V30 933 H 103.705 -3.82556 -0.671212 0
M  V30 934 H 105.437 -4.01457 -0.51133 0
M  V30 935 H 102.192 -4.5098 1.44617 0
M  V30 936 H 102.616 -5.57483 3.84112 0
M  V30 937 H 107.258 -3.98552 1.41123 0
M  V30 938 H 104.976 -6.0523 5.35464 0
M  V30 939 H 108.562 -4.74084 3.37247 0
M  V30 940 H 107.442 -5.76289 5.31846 0
M  V30 941 N 104.945 -0.338344 -1.53925 0
M  V30 942 C 105.908 0.508299 -2.23493 0
M  V30 943 C 106.908 1.03175 -1.23335 0
M  V30 944 O 108.098 0.921826 -1.47811 0
M  V30 945 C 105.23 1.70754 -2.95052 0
M  V30 946 H 106.423 -0.100058 -2.99733 0
M  V30 947 H 103.976 -0.0896198 -1.56043 0
M  V30 948 H 104.711 2.35474 -2.22986 0
M  V30 949 H 104.496 1.33946 -3.68512 0
M  V30 950 H 105.986 2.30818 -3.48013 0
M  V30 951 N 106.423 1.57458 -0.0668435 0
M  V30 952 C 107.371 2.13639 0.919851 0
M  V30 953 C 108.365 1.07204 1.31163 0
M  V30 954 O 109.571 1.25591 1.28945 0
M  V30 955 H 105.946 0.683048 0.314562 0
M  V30 956 H 107.917 2.95415 0.421047 0
M  V30 957 C 106.666 2.70892 2.17975 0
M  V30 958 H 105.989 3.5246 1.88711 0
M  V30 959 H 107.429 3.13803 2.85138 0
M  V30 960 C 105.888 1.65414 2.93496 0
M  V30 961 O 106.418 1.07619 3.87015 0
M  V30 962 N 104.624 1.36564 2.56512 0
M  V30 963 H 104.171 1.83751 1.80536 0
M  V30 964 H 104.129 0.66223 3.07347 0
M  V30 965 N 107.901 -0.206675 1.56239 0
M  V30 966 C 108.831 -1.25909 1.96645 0
M  V30 967 C 109.812 -1.48097 0.836734 0
M  V30 968 O 110.997 -1.6003 1.10019 0
M  V30 969 C 108.127 -2.6058 2.29599 0
M  V30 970 C 107.081 -2.53024 3.452 0
M  V30 971 C 106.407 -3.91861 3.63798 0
M  V30 972 C 107.707 -2.06524 4.79734 0
M  V30 973 H 109.401 -0.923369 2.84806 0
M  V30 974 H 106.947 -0.442735 1.37025 0
M  V30 975 H 108.9 -3.34375 2.56459 0
M  V30 976 H 107.624 -2.95869 1.38307 0
M  V30 977 H 106.283 -1.81684 3.18412 0
M  V30 978 H 105.931 -4.24483 2.69857 0
M  V30 979 H 105.631 -3.87683 4.4156 0
M  V30 980 H 107.155 -4.67296 3.93022 0
M  V30 981 H 108.569 -2.70072 5.05702 0
M  V30 982 H 106.966 -2.13374 5.60885 0
M  V30 983 H 108.036 -1.01802 4.74093 0
M  V30 984 N 109.379 -1.50304 -0.473955 0
M  V30 985 C 110.607 -1.64902 -1.24959 0
M  V30 986 C 111.022 -0.331198 -1.85872 0
M  V30 987 O 110.379 0.68652 -1.69095 0
M  V30 988 C 110.43 -2.73803 -2.36038 0
M  V30 989 O 110.151 -4.00477 -1.77624 0
M  V30 990 C 111.652 -2.99349 -3.26964 0
M  V30 991 H 108.872 -0.554383 -0.378022 0
M  V30 992 H 111.416 -1.9651 -0.566054 0
M  V30 993 H 109.571 -2.44898 -3.00173 0
M  V30 994 H 109.985 -4.60678 -2.5075 0
M  V30 995 H 111.459 -3.79217 -4.01121 0
M  V30 996 H 111.936 -2.10307 -3.85574 0
M  V30 997 H 112.542 -3.29774 -2.68569 0
M  V30 998 N 110.857 0.726932 -1.39834 0
M  V30 999 C 111.805 1.86235 -1.39353 0
M  V30 1000 C 112.799 1.67144 -0.275555 0
M  V30 1001 O 114.005 1.74387 -0.44601 0
M  V30 1002 H 110.38 0.613174 -0.43534 0
M  V30 1003 H 112.351 1.83756 -2.35109 0
M  V30 1004 C 111.1 3.23995 -1.26185 0
M  V30 1005 H 110.423 3.39285 -2.11484 0
M  V30 1006 H 111.863 4.03609 -1.29907 0
M  V30 1007 C 110.322 3.36888 0.0290018 0
M  V30 1008 O 110.852 3.89152 0.99619 0
M  V30 1009 N 109.058 2.90446 0.0947437 0
M  V30 1010 H 108.605 2.48102 -0.693035 0
M  V30 1011 H 108.563 2.99451 0.957932 0
M  V30 1012 N 112.336 1.25143 0.95797 0
M  V30 1013 C 113.268 1.01023 2.05735 0
M  V30 1014 C 114.281 -0.0236902 1.62783 0
M  V30 1015 O 115.47 0.21448 1.77207 0
M  V30 1016 C 112.57 0.504595 3.35122 0
M  V30 1017 C 111.743 1.6039 4.06932 0
M  V30 1018 C 110.802 1.09922 5.14591 0
M  V30 1019 O 109.828 1.79293 5.40225 0
M  V30 1020 N 111.03 -0.0612545 5.80468 0
M  V30 1021 H 113.795 1.95683 2.26998 0
M  V30 1022 H 111.356 1.16303 1.12629 0
M  V30 1023 H 113.348 0.151516 4.04416 0
M  V30 1024 H 111.918 -0.347989 3.10657 0
M  V30 1025 H 111.138 2.12872 3.31782 0
M  V30 1026 H 112.426 2.34252 4.51667 0
M  V30 1027 H 111.824 -0.640985 5.62057 0
M  V30 1028 H 110.381 -0.355395 6.5083 0
M  V30 1029 N 113.814 -1.1601 1.06675 0
M  V30 1030 C 115.061 -1.86633 0.785781 0
M  V30 1031 C 115.389 -1.81929 -0.687896 0
M  V30 1032 O 114.644 -1.23253 -1.52011 0
M  V30 1033 C 114.943 -3.35547 1.23057 0
M  V30 1034 C 114.609 -3.60448 2.70902 0
M  V30 1035 C 113.271 -3.66954 3.11285 0
M  V30 1036 C 115.623 -3.7071 3.66365 0
M  V30 1037 C 112.951 -3.81225 4.45965 0
M  V30 1038 C 115.303 -3.86503 5.00797 0
M  V30 1039 C 113.967 -3.91252 5.40813 0
M  V30 1040 H 113.237 -0.682937 0.287538 0
M  V30 1041 H 115.884 -1.37146 1.33654 0
M  V30 1042 H 114.189 -3.87193 0.59907 0
M  V30 1043 H 115.886 -3.88583 0.990163 0
M  V30 1044 H 112.476 -3.56021 2.38636 0
M  V30 1045 H 116.66 -3.64991 3.36296 0
M  V30 1046 H 111.916 -3.83155 4.76447 0
M  V30 1047 H 116.09 -3.93385 5.74649 0
M  V30 1048 H 113.717 -4.02062 6.45174 0
M  V30 1049 N 115.292 -0.849877 -1.32721 0
M  V30 1050 C 116.538 -0.451591 -1.97708 0
M  V30 1051 C 116.871 0.989175 -1.6712 0
M  V30 1052 O 116.146 1.69334 -0.956891 0
M  V30 1053 C 116.429 -0.685598 -3.53513 0
M  V30 1054 C 116.282 -2.17444 -3.93749 0
M  V30 1055 C 117.601 -0.138874 -4.39881 0
M  V30 1056 H 114.72 -0.16555 -0.718166 0
M  V30 1057 H 117.362 -1.06742 -1.57182 0
M  V30 1058 H 115.512 -0.161416 -3.88165 0
M  V30 1059 H 117.184 -2.76433 -3.693 0
M  V30 1060 H 115.427 -2.65476 -3.43081 0
M  V30 1061 H 116.098 -2.28888 -5.02309 0
M  V30 1062 H 118.574 -0.587068 -4.11938 0
M  V30 1063 H 117.45 -0.332213 -5.47894 0
M  V30 1064 H 117.711 0.95806 -4.31594 0
M  V30 1065 N 116.77 1.45427 -0.607355 0
M  V30 1066 C 117.702 2.2871 0.149752 0
M  V30 1067 C 118.715 1.39937 0.831958 0
M  V30 1068 O 119.904 1.64313 0.697385 0
M  V30 1069 C 117.004 3.15673 1.23304 0
M  V30 1070 C 116.177 4.32722 0.637996 0
M  V30 1071 C 115.236 5.00895 1.61215 0
M  V30 1072 O 114.262 5.57697 1.13854 0
M  V30 1073 N 115.464 5.00159 2.94655 0
M  V30 1074 H 118.229 2.94328 -0.564882 0
M  V30 1075 H 115.79 1.55612 -0.446823 0
M  V30 1076 H 117.782 3.58144 1.88454 0
M  V30 1077 H 116.352 2.51965 1.8502 0
M  V30 1078 H 115.572 3.93734 -0.191572 0
M  V30 1079 H 116.86 5.08321 0.220665 0
M  V30 1080 H 116.258 4.553 3.35735 0
M  V30 1081 H 114.815 5.46495 3.55228 0
M  V30 1082 N 118.248 0.346503 1.53744 0
M  V30 1083 C 119.659 -0.136779 1.86198 0
M  V30 1084 C 120.01 -1.49749 1.26766 0
M  V30 1085 O 119.135 -2.08417 0.582355 0
M  V30 1086 C 119.73 -0.254966 3.37839 0
M  V30 1087 C 118.289 -0.682482 3.70161 0
M  V30 1088 C 117.436 0.181981 2.76702 0
M  V30 1089 H 120.387 0.565994 1.48264 0
M  V30 1090 H 120.408 -1.08195 3.64793 0
M  V30 1091 H 119.92 0.735526 3.81066 0
M  V30 1092 H 118.021 -1.68189 3.3248 0
M  V30 1093 H 118.134 -0.470326 4.76786 0
M  V30 1094 H 116.498 -0.34615 2.52337 0
M  V30 1095 H 117.281 1.16966 3.2276 0
M  V30 1096 N 119.726 -1.57421 0.075193 0
M  V30 1097 C 120.951 -1.98364 -0.605515 0
M  V30 1098 C 121.376 -0.953383 -1.62149 0
M  V30 1099 O 120.734 0.0806053 -1.81121 0
M  V30 1100 C 120.782 -3.38332 -1.24756 0
M  V30 1101 O 119.886 -3.37959 -2.36342 0
M  V30 1102 H 119.227 -0.645553 -0.155428 0
M  V30 1103 H 121.757 -2.04044 0.150714 0
M  V30 1104 H 121.767 -3.75591 -1.5936 0
M  V30 1105 H 120.442 -4.12846 -0.503129 0
M  V30 1106 H 119.019 -3.12474 -2.03506 0
M  V30 1107 N 121.204 0.198386 -1.56346 0
M  V30 1108 C 122.45 0.916115 -1.81601 0
M  V30 1109 C 122.805 1.81025 -0.651744 0
M  V30 1110 O 122.098 1.88316 0.353229 0
M  V30 1111 C 122.292 1.77031 -3.10475 0
M  V30 1112 C 122.121 0.960365 -4.39326 0
M  V30 1113 C 120.891 0.646093 -5.01152 0
M  V30 1114 C 123.089 0.314628 -5.13337 0
M  V30 1115 N 121.071 -0.182828 -6.13628 0
M  V30 1116 C 122.442 -0.37664 -6.18855 0
M  V30 1117 C 124.497 0.230019 -4.97368 0
M  V30 1118 C 123.2 -1.14445 -7.10137 0
M  V30 1119 C 125.226 -0.524389 -5.89071 0
M  V30 1120 C 124.588 -1.20412 -6.94032 0
M  V30 1121 H 120.687 0.314732 -0.715868 0
M  V30 1122 H 123.271 0.185102 -1.93818 0
M  V30 1123 H 121.442 2.47295 -2.99499 0
M  V30 1124 H 123.174 2.42727 -3.2383 0
M  V30 1125 H 119.929 0.969724 -4.63566 0
M  V30 1126 H 120.353 -0.586802 -6.74452 0
M  V30 1127 H 124.995 0.741184 -4.16253 0
M  V30 1128 H 122.713 -1.66706 -7.90718 0
M  V30 1129 H 126.299 -0.591167 -5.78789 0
M  V30 1130 H 125.179 -1.77853 -7.63766 0
M  V30 1131 N 122.682 1.50554 0.465978 0
M  V30 1132 C 124.098 1.38093 0.800154 0
M  V30 1133 C 124.298 0.440988 1.96615 0
M  V30 1134 O 123.354 -0.114499 2.5224 0
M  V30 1135 C 124.667 2.79565 1.10742 0
M  V30 1136 C 126.215 2.88516 1.21357 0
M  V30 1137 C 126.69 4.30833 1.55393 0
M  V30 1138 N 128.181 4.33807 1.62375 0
M  V30 1139 C 128.916 5.40927 1.90225 0
M  V30 1140 N 128.412 6.58247 2.16062 0
M  V30 1141 N 130.205 5.28376 1.9177 0
M  V30 1142 H 122.356 2.10237 -0.302366 0
M  V30 1143 H 124.619 0.945203 -0.0727746 0
M  V30 1144 H 124.325 3.50208 0.323661 0
M  V30 1145 H 124.199 3.17125 2.04234 0
M  V30 1146 H 126.586 2.1809 1.98799 0
M  V30 1147 H 126.667 2.54492 0.258321 0
M  V30 1148 H 126.311 5.01799 0.784889 0
M  V30 1149 H 126.241 4.62347 2.52076 0
M  V30 1150 H 128.732 3.49212 1.44427 0
M  V30 1151 H 129.045 7.3569 2.36601 0
M  V30 1152 H 127.39 6.61413 2.13444 0
M  V30 1153 H 130.581 4.35715 1.71085 0
M  V30 1154 H 130.754 6.11944 2.13139 0
M  V30 1155 N 124.16 -0.719506 1.40217 0
M  V30 1156 C 125.409 -1.47486 1.37589 0
M  V30 1157 C 125.722 -1.9559 -0.0201568 0
M  V30 1158 O 126.928 -2.70973 -0.169049 0
M  V30 1159 C 125.384 -2.66575 2.41796 0
M  V30 1160 C 124.992 -2.25358 3.87192 0
M  V30 1161 C 126.736 -3.4433 2.48269 0
M  V30 1162 C 124.643 -3.41262 4.83005 0
M  V30 1163 H 123.573 -0.553901 0.511576 0
M  V30 1164 H 126.224 -0.783427 1.65936 0
M  V30 1165 H 124.606 -3.3787 2.06543 0
M  V30 1166 H 125.78 -1.61509 4.31569 0
M  V30 1167 H 124.095 -1.60657 3.84159 0
M  V30 1168 H 126.692 -4.30569 3.17041 0
M  V30 1169 H 127.035 -3.87872 1.51198 0
M  V30 1170 H 127.568 -2.80076 2.82493 0
M  V30 1171 H 124.307 -3.02755 5.81394 0
M  V30 1172 H 123.827 -4.0404 4.43297 0
M  V30 1173 H 125.506 -4.07383 5.02641 0
M  V30 1174 N 125.638 -1.25649 -0.95132 0
M  V30 1175 C 126.601 -1.06399 -2.03007 0
M  V30 1176 C 127.601 -0.0156794 -1.60792 0
M  V30 1177 O 128.791 -0.25817 -1.72276 0
M  V30 1178 C 125.923 -0.616184 -3.35285 0
M  V30 1179 H 127.116 -2.02164 -2.21517 0
M  V30 1180 H 124.669 -1.08103 -1.12887 0
M  V30 1181 H 125.404 0.343917 -3.22471 0
M  V30 1182 H 125.189 -1.37301 -3.67275 0
M  V30 1183 H 126.679 -0.503032 -4.14559 0
M  V30 1184 N 127.117 1.15442 -1.07289 0
M  V30 1185 C 128.047 2.22312 -0.714107 0
M  V30 1186 C 129.028 1.67467 0.298155 0
M  V30 1187 O 130.213 1.93445 0.171048 0
M  V30 1188 C 127.343 3.47124 -0.110448 0
M  V30 1189 C 126.297 4.14926 -1.04979 0
M  V30 1190 C 125.623 5.33807 -0.308924 0
M  V30 1191 C 126.923 4.64762 -2.38314 0
M  V30 1192 H 128.617 2.5258 -1.6076 0
M  V30 1193 H 126.163 1.21404 -0.77441 0
M  V30 1194 H 128.116 4.21124 0.152482 0
M  V30 1195 H 126.84 3.16187 0.81812 0
M  V30 1196 H 125.499 3.42866 -1.29764 0
M  V30 1197 H 125.147 4.99126 0.623084 0
M  V30 1198 H 124.847 5.80113 -0.935036 0
M  V30 1199 H 126.371 6.10576 -0.0537771 0
M  V30 1200 H 127.785 5.30292 -2.1786 0
M  V30 1201 H 126.182 5.21728 -2.96514 0
M  V30 1202 H 127.252 3.80434 -3.00663 0
M  V30 1203 N 128.595 0.856903 1.32268 0
M  V30 1204 C 129.841 0.471355 1.97863 0
M  V30 1205 C 130.196 -0.962896 1.66572 0
M  V30 1206 O 129.489 -1.66686 0.944797 0
M  V30 1207 C 129.683 0.649919 3.51441 0
M  V30 1208 C 129.512 2.09997 3.97657 0
M  V30 1209 C 128.282 2.73893 4.2463 0
M  V30 1210 C 130.48 3.07081 4.1256 0
M  V30 1211 N 128.462 4.09786 4.57109 0
M  V30 1212 C 129.833 4.27968 4.48602 0
M  V30 1213 C 131.888 3.03247 3.949 0
M  V30 1214 C 130.591 5.45521 4.68827 0
M  V30 1215 C 132.617 4.20046 4.16311 0
M  V30 1216 C 131.979 5.39692 4.52672 0
M  V30 1217 H 128.078 0.221263 0.750044 0
M  V30 1218 H 130.662 1.10876 1.60045 0
M  V30 1219 H 128.833 0.0421938 3.88377 0
M  V30 1220 H 130.565 0.234044 4.04023 0
M  V30 1221 H 127.32 2.24918 4.16784 0
M  V30 1222 H 127.744 4.7989 4.7753 0
M  V30 1223 H 132.386 2.11863 3.65888 0
M  V30 1224 H 130.104 6.37434 4.96693 0
M  V30 1225 H 133.69 4.18517 4.04147 0
M  V30 1226 H 132.57 6.28566 4.68907 0
M  V30 1227 N 130.073 -1.45103 0.615059 0
M  V30 1228 C 131.298 -2.07064 0.117988 0
M  V30 1229 C 131.723 -1.4554 -1.19163 0
M  V30 1230 O 131.081 -0.550855 -1.72729 0
M  V30 1231 C 131.129 -3.606 -0.000288387 0
M  V30 1232 O 130.233 -3.98847 -1.04856 0
M  V30 1233 H 129.574 -0.659467 0.0774581 0
M  V30 1234 H 132.104 -1.86236 0.847186 0
M  V30 1235 H 132.114 -4.07529 -0.196091 0
M  V30 1236 H 130.789 -4.04765 0.955932 0
M  V30 1237 H 129.366 -3.63577 -0.828619 0
M  V30 1238 N 131.551 -0.354651 -1.53558 0
M  V30 1239 C 132.481 0.489091 -2.2832 0
M  V30 1240 C 133.462 1.09324 -1.30316 0
M  V30 1241 O 134.647 1.11255 -1.59173 0
M  V30 1242 C 131.777 1.63456 -3.0643 0
M  V30 1243 C 130.731 1.1582 -4.12031 0
M  V30 1244 C 130.057 2.39305 -4.7816 0
M  V30 1245 C 131.357 0.250731 -5.21698 0
M  V30 1246 H 133.051 -0.134614 -2.99097 0
M  V30 1247 H 130.597 -0.0661826 -1.43848 0
M  V30 1248 H 132.55 2.23136 -3.57475 0
M  V30 1249 H 131.274 2.28533 -2.33325 0
M  V30 1250 H 129.933 0.584146 -3.61916 0
M  V30 1251 H 129.581 3.02814 -4.01637 0
M  V30 1252 H 129.281 2.08109 -5.49513 0
M  V30 1253 H 130.805 2.99691 -5.31994 0
M  V30 1254 H 132.219 0.754695 -5.68311 0
M  V30 1255 H 130.616 0.0301468 -6.00092 0
M  V30 1256 H 131.686 -0.710125 -4.79672 0
M  V30 1257 N 133.029 1.57378 -0.0835403 0
M  V30 1258 C 133.992 2.12252 0.864959 0
M  V30 1259 C 134.992 1.04916 1.21858 0
M  V30 1260 O 136.182 1.30853 1.14991 0
M  V30 1261 C 133.314 2.63358 2.16461 0
M  V30 1262 H 134.507 2.97371 0.388676 0
M  V30 1263 H 132.06 1.55423 0.165317 0
M  V30 1264 H 132.795 1.81727 2.686 0
M  V30 1265 H 132.58 3.41826 1.92087 0
M  V30 1266 H 134.07 3.05847 2.84337 0
M  V30 1267 N 134.507 -0.190092 1.56449 0
M  V30 1268 C 135.737 -0.92443 1.84764 0
M  V30 1269 C 136.145 -1.77146 0.664529 0
M  V30 1270 O 135.488 -1.79812 -0.375957 0
M  V30 1271 C 135.55 -1.86651 3.07248 0
M  V30 1272 C 135.214 -1.20094 4.40938 0
M  V30 1273 C 136.211 -0.575445 5.16706 0
M  V30 1274 C 133.896 -1.2033 4.87674 0
M  V30 1275 C 135.89 0.0388111 6.37388 0
M  V30 1276 C 133.577 -0.585214 6.08291 0
M  V30 1277 C 134.575 0.0347578 6.82991 0
M  V30 1278 O 134.263 0.643147 8.01323 0
M  V30 1279 H 133.995 -0.274974 0.617548 0
M  V30 1280 H 136.549 -0.200788 2.04416 0
M  V30 1281 H 134.779 -2.62998 2.83494 0
M  V30 1282 H 136.468 -2.46907 3.22167 0
M  V30 1283 H 137.234 -0.565728 4.81689 0
M  V30 1284 H 133.113 -1.67526 4.29484 0
M  V30 1285 H 136.657 0.523329 6.95634 0
M  V30 1286 H 132.554 -0.592451 6.42775 0
M  V30 1287 H 133.322 0.540545 8.16713 0
M  V30 1288 N 135.985 -1.50799 -0.457987 0
M  V30 1289 C 137.233 -1.62121 -1.2067 0
M  V30 1290 C 137.554 -0.329793 -1.92191 0
M  V30 1291 O 136.824 0.653409 -1.84682 0
M  V30 1292 H 135.404 -0.597441 -0.448411 0
M  V30 1293 H 138.066 -1.87637 -0.527096 0
M  V30 1294 H 137.162 -2.43882 -1.94751 0
M  V30 1295 N 137.463 0.71206 -1.40597 0
M  V30 1296 C 138.709 1.47416 -1.39271 0
M  V30 1297 C 139.042 1.942 0.00388791 0
M  V30 1298 O 138.317 1.68403 0.973179 0
M  V30 1299 C 138.6 2.69774 -2.38525 0
M  V30 1300 C 138.453 2.28861 -3.87224 0
M  V30 1301 C 139.772 3.71939 -2.35264 0
M  V30 1302 H 136.891 0.534713 -0.5072 0
M  V30 1303 H 139.533 0.812375 -1.71757 0
M  V30 1304 H 137.683 3.26238 -2.10953 0
M  V30 1305 H 139.355 1.77852 -4.25636 0
M  V30 1306 H 137.598 1.60824 -4.02887 0
M  V30 1307 H 138.269 3.16584 -4.52193 0
M  V30 1308 H 140.745 3.25113 -2.59694 0
M  V30 1309 H 139.621 4.55186 -3.06753 0
M  V30 1310 H 139.882 4.20484 -1.36549 0
M  V30 1311 N 138.941 1.26152 0.944643 0
M  V30 1312 C 140.187 1.11657 1.69294 0
M  V30 1313 C 140.52 -0.339926 1.91202 0
M  V30 1314 O 139.795 -1.24994 1.49019 0
M  V30 1315 C 140.078 1.88236 3.06984 0
M  V30 1316 C 139.931 3.41772 2.92424 0
M  V30 1317 C 141.25 1.67343 4.07043 0
M  V30 1318 H 138.369 0.407004 0.614424 0
M  V30 1319 H 141.011 1.55106 1.09737 0
M  V30 1320 H 139.161 1.51308 3.57824 0
M  V30 1321 H 140.833 3.88433 2.48832 0
M  V30 1322 H 139.076 3.68974 2.28124 0
M  V30 1323 H 139.747 3.90579 3.90067 0
M  V30 1324 H 142.223 1.99509 3.65151 0
M  V30 1325 H 141.099 2.23346 5.01406 0
M  V30 1326 H 141.36 0.617158 4.37771 0
M  V30 1327 N 140.419 -1.14872 1.07899 0
M  V30 1328 C 141.665 -1.86064 0.806725 0
M  V30 1329 C 141.998 -1.82434 -0.665706 0
M  V30 1330 O 141.273 -1.25138 -1.48899 0
M  V30 1331 C 141.556 -3.34929 1.32267 0
M  V30 1332 C 141.409 -3.47161 2.86006 0
M  V30 1333 C 142.728 -4.29863 0.943717 0
M  V30 1334 H 139.847 -0.675591 0.294526 0
M  V30 1335 H 142.489 -1.34925 1.33773 0
M  V30 1336 H 140.639 -3.78611 0.870974 0
M  V30 1337 H 142.311 -3.12302 3.39507 0
M  V30 1338 H 140.554 -2.88539 3.23925 0
M  V30 1339 H 141.225 -4.51777 3.17177 0
M  V30 1340 H 143.701 -3.9417 1.33302 0
M  V30 1341 H 142.577 -5.32494 1.33198 0
M  V30 1342 H 142.838 -4.41846 -0.149796 0
M  V30 1343 N 141.898 -0.863906 -1.31812 0
M  V30 1344 C 142.861 -0.320212 -2.26952 0
M  V30 1345 C 143.861 0.525369 -1.51975 0
M  V30 1346 O 145.051 0.335547 -1.70938 0
M  V30 1347 C 142.183 0.545919 -3.365 0
M  V30 1348 H 143.376 -1.16004 -2.76556 0
M  V30 1349 H 140.929 -0.638995 -1.42641 0
M  V30 1350 H 141.664 1.40718 -2.92179 0
M  V30 1351 H 141.449 -0.0594674 -3.92055 0
M  V30 1352 H 142.939 0.918796 -4.07367 0
M  V30 1353 N 143.376 1.44774 -0.622745 0
M  V30 1354 C 144.622 2.0242 -0.124083 0
M  V30 1355 C 144.955 1.4881 1.24777 0
M  V30 1356 O 144.23 0.668799 1.8264 0
M  V30 1357 C 144.513 3.59957 -0.101619 0
M  V30 1358 C 144.366 4.23867 -1.50521 0
M  V30 1359 C 145.685 4.36284 0.578272 0
M  V30 1360 H 142.804 0.735528 -0.0465645 0
M  V30 1361 H 145.446 1.72447 -0.797617 0
M  V30 1362 H 143.596 3.85623 0.471934 0
M  V30 1363 H 145.268 4.09336 -2.12701 0
M  V30 1364 H 143.511 3.81684 -2.06154 0
M  V30 1365 H 144.182 5.32843 -1.4416 0
M  V30 1366 H 146.658 4.16001 0.0906057 0
M  V30 1367 H 145.534 5.46004 0.563149 0
M  V30 1368 H 145.795 4.10271 1.64713 0
M  V30 1369 N 144.854 0.36279 1.53368 0
M  V30 1370 C 145.817 -0.472679 2.24273 0
M  V30 1371 C 146.817 -1.012 1.24961 0
M  V30 1372 O 148.007 -0.898194 1.49259 0
M  V30 1373 C 145.139 -1.66039 2.97731 0
M  V30 1374 H 146.332 0.14773 2.99536 0
M  V30 1375 H 143.885 0.114434 1.55881 0
M  V30 1376 H 144.62 -2.31896 2.26704 0
M  V30 1377 H 144.405 -1.28066 3.70596 0
M  V30 1378 H 145.895 -2.25252 3.51641 0
M  V30 1379 N 146.332 -1.57332 0.0918853 0
M  V30 1380 C 147.578 -1.94524 -0.573425 0
M  V30 1381 C 147.911 -0.973578 -1.68033 0
M  V30 1382 O 147.186 -0.00609226 -1.94499 0
M  V30 1383 C 147.469 -3.41858 -1.13161 0
M  V30 1384 C 147.322 -4.4979 -0.0299747 0
M  V30 1385 C 148.641 -3.90435 -2.03098 0
M  V30 1386 H 145.76 -0.70734 -0.206975 0
M  V30 1387 H 148.402 -1.89309 0.161942 0
M  V30 1388 H 146.552 -3.46433 -1.7583 0
M  V30 1389 H 148.224 -4.57327 0.604112 0
M  V30 1390 H 146.467 -4.291 0.636833 0
M  V30 1391 H 147.138 -5.50069 -0.461287 0
M  V30 1392 H 149.614 -3.87992 -1.50338 0
M  V30 1393 H 148.49 -4.94097 -2.39081 0
M  V30 1394 H 148.751 -3.29541 -2.94712 0
M  V30 1395 N 147.81 0.181792 -1.56548 0
M  V30 1396 C 148.74 1.22765 -1.98623 0
M  V30 1397 C 149.721 1.46747 -0.860189 0
M  V30 1398 O 150.906 1.58259 -1.12551 0
M  V30 1399 C 148.036 2.56894 -2.33715 0
M  V30 1400 C 146.99 2.475 -3.49182 0
M  V30 1401 C 146.316 3.86023 -3.69986 0
M  V30 1402 C 147.616 1.98866 -4.82959 0
M  V30 1403 H 149.31 0.877942 -2.86239 0
M  V30 1404 H 146.856 0.42088 -1.37712 0
M  V30 1405 H 148.809 3.30253 -2.61746 0
M  V30 1406 H 147.533 2.93632 -1.42997 0
M  V30 1407 H 146.192 1.76596 -3.21262 0
M  V30 1408 H 145.84 4.20136 -2.76576 0
M  V30 1409 H 145.54 3.80609 -4.47672 0
M  V30 1410 H 147.064 4.60984 -4.00407 0
M  V30 1411 H 148.478 2.61992 -5.09934 0
M  V30 1412 H 146.875 2.04424 -5.64208 0
M  V30 1413 H 147.945 0.942465 -4.75653 0
M  V30 1414 N 149.288 1.51039 0.449983 0
M  V30 1415 C 150.536 1.62759 1.19808 0
M  V30 1416 C 150.857 0.339981 1.92013 0
M  V30 1417 O 150.127 -0.643606 1.85026 0
M  V30 1418 H 148.707 0.599811 0.445237 0
M  V30 1419 H 151.369 1.87914 0.517138 0
M  V30 1420 H 150.465 2.44911 1.93455 0
M  V30 1421 N 150.766 -0.704594 1.40972 0
M  V30 1422 C 151.714 -1.83994 1.42299 0
M  V30 1423 C 152.708 -1.66684 0.302111 0
M  V30 1424 O 153.914 -1.73655 0.473697 0
M  V30 1425 H 150.289 -0.606171 0.44504 0
M  V30 1426 H 152.26 -1.79992 2.38003 0
M  V30 1427 C 151.009 -3.21946 1.31323 0
M  V30 1428 H 150.332 -3.35878 2.16855 0
M  V30 1429 H 151.772 -4.01491 1.36311 0
M  V30 1430 C 150.231 -3.36891 0.0245977 0
M  V30 1431 O 150.761 -3.90687 -0.934153 0
M  V30 1432 N 148.967 -2.90559 -0.0485243 0
M  V30 1433 H 148.514 -2.46968 0.732419 0
M  V30 1434 H 148.472 -3.00937 -0.910171 0
M  V30 1435 N 152.244 -1.26651 -0.937939 0
M  V30 1436 C 153.174 -1.10993 -2.05433 0
M  V30 1437 C 154.155 -0.0142161 -1.70094 0
M  V30 1438 O 155.34 -0.186837 -1.93299 0
M  V30 1439 C 152.47 -0.745561 -3.39203 0
M  V30 1440 C 151.424 -1.79337 -3.88616 0
M  V30 1441 C 150.75 -1.28324 -5.19073 0
M  V30 1442 C 152.05 -3.19553 -4.13138 0
M  V30 1443 H 153.744 -2.0438 -2.1879 0
M  V30 1444 H 151.29 -0.984041 -1.05131 0
M  V30 1445 H 153.243 -0.622888 -4.16771 0
M  V30 1446 H 151.967 0.22401 -3.25831 0
M  V30 1447 H 150.626 -1.90477 -3.13231 0
M  V30 1448 H 150.274 -0.303414 -5.02084 0
M  V30 1449 H 149.974 -1.98369 -5.53103 0
M  V30 1450 H 151.498 -1.1733 -5.99221 0
M  V30 1451 H 152.912 -3.11471 -4.81309 0
M  V30 1452 H 151.309 -3.87218 -4.58457 0
M  V30 1453 H 152.379 -3.65368 -3.18801 0
M  V30 1454 N 153.722 1.14298 -1.08507 0
M  V30 1455 C 154.971 1.84708 -0.810305 0
M  V30 1456 C 155.284 1.83903 0.666271 0
M  V30 1457 O 156.49 2.50112 1.05624 0
M  V30 1458 C 154.946 3.31572 -1.39957 0
M  V30 1459 C 154.554 3.40791 -2.90801 0
M  V30 1460 C 156.298 4.07087 -1.20334 0
M  V30 1461 C 154.205 4.81872 -3.4286 0
M  V30 1462 H 153.135 0.691985 -0.299454 0
M  V30 1463 H 155.786 1.28841 -1.30661 0
M  V30 1464 H 154.168 3.87183 -0.830976 0
M  V30 1465 H 155.342 2.95225 -3.53806 0
M  V30 1466 H 153.657 2.78732 -3.0935 0
M  V30 1467 H 156.254 5.11225 -1.56693 0
M  V30 1468 H 156.597 4.16054 -0.143237 0
M  V30 1469 H 157.13 3.57779 -1.73893 0
M  V30 1470 H 153.869 4.78094 -4.48449 0
M  V30 1471 H 153.389 5.27972 -2.84615 0
M  V30 1472 H 155.068 5.50765 -3.39509 0
M  V30 1473 N 155.201 0.870884 1.31352 0
M  V30 1474 C 156.447 0.482987 1.96965 0
M  V30 1475 C 156.78 -0.962462 1.68672 0
M  V30 1476 O 156.055 -1.6779 0.98371 0
M  V30 1477 C 156.338 0.741752 3.52378 0
M  V30 1478 C 156.191 2.2368 3.9024 0
M  V30 1479 C 157.51 0.208838 4.39604 0
M  V30 1480 H 154.629 0.176955 0.715441 0
M  V30 1481 H 157.271 1.09229 1.55464 0
M  V30 1482 H 155.421 0.223149 3.87859 0
M  V30 1483 H 157.093 2.82273 3.64856 0
M  V30 1484 H 155.336 2.70901 3.38814 0
M  V30 1485 H 156.007 2.3685 4.98604 0
M  V30 1486 H 158.483 0.652529 4.10952 0
M  V30 1487 H 157.359 0.419336 5.47296 0
M  V30 1488 H 157.62 -0.889275 4.33064 0
M  V30 1489 N 156.679 -1.44442 0.630414 0
M  V30 1490 C 157.928 -2.01267 0.132073 0
M  V30 1491 C 158.241 -1.50172 -1.25331 0
M  V30 1492 O 159.447 -1.9912 -1.84562 0
M  V30 1493 C 157.903 -3.59422 0.185362 0
M  V30 1494 C 157.511 -4.19514 1.57201 0
M  V30 1495 C 159.255 -4.23724 -0.256553 0
M  V30 1496 C 157.162 -5.69891 1.58045 0
M  V30 1497 H 156.092 -0.752619 0.0456092 0
M  V30 1498 H 158.743 -1.65666 0.789106 0
M  V30 1499 H 157.125 -3.92318 -0.538759 0
M  V30 1500 H 158.299 -3.98156 2.31966 0
M  V30 1501 H 156.614 -3.67496 1.95795 0
M  V30 1502 H 159.211 -5.34019 -0.269767 0
M  V30 1503 H 159.554 -3.96013 -1.28372 0
M  V30 1504 H 160.087 -3.95629 0.41505 0
M  V30 1505 H 156.826 -6.02336 2.58597 0
M  V30 1506 H 156.346 -5.93373 0.875725 0
M  V30 1507 H 158.025 -6.33515 1.31408 0
M  V30 1508 N 158.157 -0.370918 -1.53173 0
M  V30 1509 C 159.403 0.209976 -2.02313 0
M  V30 1510 C 159.758 1.45987 -1.25322 0
M  V30 1511 O 159.051 1.8856 -0.339965 0
M  V30 1512 C 159.245 0.549696 -3.53147 0
M  V30 1513 C 159.074 -0.665721 -4.44745 0
M  V30 1514 C 157.844 -1.17942 -4.91343 0
M  V30 1515 C 160.042 -1.53255 -4.90935 0
M  V30 1516 N 158.024 -2.35431 -5.66962 0
M  V30 1517 C 159.395 -2.55403 -5.64951 0
M  V30 1518 C 161.45 -1.5548 -4.73002 0
M  V30 1519 C 160.153 -3.5964 -6.22938 0
M  V30 1520 C 162.179 -2.58613 -5.31858 0
M  V30 1521 C 161.541 -3.59485 -6.05764 0
M  V30 1522 H 157.64 0.0394095 -0.781006 0
M  V30 1523 H 160.224 -0.516666 -1.8772 0
M  V30 1524 H 158.395 1.24541 -3.67891 0
M  V30 1525 H 160.127 1.11614 -3.89004 0
M  V30 1526 H 156.882 -0.743228 -4.67732 0
M  V30 1527 H 157.306 -2.94827 -6.09431 0
M  V30 1528 H 161.948 -0.788457 -4.15383 0
M  V30 1529 H 159.666 -4.37153 -6.79649 0
M  V30 1530 H 163.252 -2.61195 -5.19873 0
M  V30 1531 H 162.132 -4.3798 -6.50495 0
M  V30 1532 N 159.635 1.57281 -0.100228 0
M  V30 1533 C 160.884 1.93713 0.561984 0
M  V30 1534 C 161.197 0.984492 1.69018 0
M  V30 1535 O 162.403 1.24273 2.41389 0
M  V30 1536 C 160.859 3.4421 1.05106 0
M  V30 1537 C 160.467 4.47975 -0.0476628 0
M  V30 1538 C 162.211 3.89595 1.68571 0
M  V30 1539 C 160.118 5.89631 0.457055 0
M  V30 1540 H 159.048 0.723082 0.2137 0
M  V30 1541 H 161.699 1.82644 -0.177057 0
M  V30 1542 H 160.081 3.50449 1.84395 0
M  V30 1543 H 161.255 4.53385 -0.823333 0
M  V30 1544 H 159.57 4.1223 -0.587816 0
M  V30 1545 H 162.167 4.92832 2.07414 0
M  V30 1546 H 162.51 3.28526 2.55688 0
M  V30 1547 H 163.043 3.86078 0.958562 0
M  V30 1548 H 159.782 6.54411 -0.377616 0
M  V30 1549 H 159.302 5.87681 1.19962 0
M  V30 1550 H 160.981 6.40363 0.92437 0
M  V30 1551 N 161.113 -0.173488 1.56642 0
M  V30 1552 C 162.362 -0.888758 1.81063 0
M  V30 1553 C 162.675 -1.83506 0.67712 0
M  V30 1554 O 163.881 -2.59254 0.806206 0
M  V30 1555 C 162.337 -1.63091 3.20826 0
M  V30 1556 C 161.945 -0.728357 4.4204 0
M  V30 1557 C 163.689 -2.33454 3.54541 0
M  V30 1558 C 161.596 -1.47062 5.72823 0
M  V30 1559 H 160.526 -0.335618 0.675186 0
M  V30 1560 H 163.177 -0.141712 1.82952 0
M  V30 1561 H 161.559 -2.42263 3.13248 0
M  V30 1562 H 162.733 0.0262449 4.60793 0
M  V30 1563 H 161.048 -0.134492 4.16183 0
M  V30 1564 H 163.645 -2.89578 4.49498 0
M  V30 1565 H 163.988 -3.08687 2.79317 0
M  V30 1566 H 164.521 -1.61227 3.63663 0
M  V30 1567 H 161.26 -0.760658 6.51072 0
M  V30 1568 H 160.78 -2.1986 5.58052 0
M  V30 1569 H 162.459 -2.01868 6.14702 0
M  V30 1570 N 162.591 -1.51276 -0.441967 0
M  V30 1571 C 163.521 -1.752 -1.54361 0
M  V30 1572 C 164.502 -0.601682 -1.59103 0
M  V30 1573 O 165.687 -0.843913 -1.74905 0
M  V30 1574 C 162.817 -1.87282 -2.92477 0
M  V30 1575 C 161.771 -3.02687 -3.02596 0
M  V30 1576 C 161.097 -2.99947 -4.42647 0
M  V30 1577 C 162.397 -4.4273 -2.77106 0
M  V30 1578 H 164.091 -2.67442 -1.34592 0
M  V30 1579 H 161.637 -1.28694 -0.646048 0
M  V30 1580 H 163.59 -2.02602 -3.695 0
M  V30 1581 H 162.314 -0.916844 -3.13467 0
M  V30 1582 H 160.973 -2.87065 -2.28012 0
M  V30 1583 H 160.621 -2.02136 -4.60597 0
M  V30 1584 H 160.321 -3.77439 -4.50348 0
M  V30 1585 H 161.845 -3.17354 -5.2165 0
M  V30 1586 H 163.259 -4.58727 -3.43864 0
M  V30 1587 H 161.656 -5.21893 -2.96222 0
M  V30 1588 H 162.726 -4.53087 -1.72744 0
M  V30 1589 N 164.069 0.697108 -1.41344 0
M  V30 1590 C 165.032 1.79281 -1.42797 0
M  V30 1591 C 166.032 1.57607 -0.318837 0
M  V30 1592 O 167.222 1.64309 -0.578642 0
M  V30 1593 C 164.354 3.17632 -1.23785 0
M  V30 1594 H 165.547 1.79385 -2.40335 0
M  V30 1595 H 163.1 0.904582 -1.27464 0
M  V30 1596 H 163.835 3.23167 -0.270814 0
M  V30 1597 H 163.62 3.34765 -2.04144 0
M  V30 1598 H 165.11 3.97617 -1.27633 0
M  V30 1599 N 165.547 1.27147 0.931209 0
M  V30 1600 C 166.497 1.06227 2.01742 0
M  V30 1601 C 167.481 -0.00859065 1.60898 0
M  V30 1602 O 168.673 0.209537 1.75755 0
M  V30 1603 C 165.802 0.707787 3.35924 0
M  V30 1604 C 164.888 1.81661 3.83223 0
M  V30 1605 N 165.279 3.05564 4.03069 0
M  V30 1606 C 163.577 1.70249 4.12227 0
M  V30 1607 C 164.278 3.77697 4.42403 0
M  V30 1608 N 163.254 3.0544 4.49675 0
M  V30 1609 H 167.056 2.00261 2.15111 0
M  V30 1610 H 164.57 1.1781 1.11779 0
M  V30 1611 H 166.567 0.539043 4.134 0
M  V30 1612 H 165.227 -0.224964 3.2392 0
M  V30 1613 H 166.238 3.41363 3.89476 0
M  V30 1614 H 162.915 0.840329 4.08956 0
M  V30 1615 H 164.305 4.84168 4.65866 0
M  V30 1616 N 167.025 -1.13721 1.09112 0
M  V30 1617 C 167.972 -2.19031 0.727591 0
M  V30 1618 C 168.942 -1.63555 -0.289656 0
M  V30 1619 O 170.127 -1.90023 -0.172026 0
M  V30 1620 C 167.267 -3.4477 0.15082 0
M  V30 1621 C 166.38 -4.14365 1.22172 0
M  V30 1622 C 165.515 -5.27709 0.608042 0
M  V30 1623 C 164.554 -5.89147 1.66047 0
M  V30 1624 N 163.691 -6.93929 1.06806 0
M  V30 1625 H 168.531 -2.49475 1.62991 0
M  V30 1626 H 166.068 -1.22499 0.81439 0
M  V30 1627 H 168.026 -4.16714 -0.201358 0
M  V30 1628 H 166.656 -3.14787 -0.714783 0
M  V30 1629 H 165.708 -3.40737 1.69122 0
M  V30 1630 H 167.02 -4.56114 2.01895 0
M  V30 1631 H 166.174 -6.06355 0.204523 0
M  V30 1632 H 164.913 -4.872 -0.220769 0
M  V30 1633 H 163.918 -5.09198 2.07357 0
M  V30 1634 H 165.143 -6.31729 2.49189 0
M  V30 1635 H 163.089 -6.55483 0.260476 0
M  V30 1636 H 163.006 -7.34202 1.8023 0
M  V30 1637 H 164.274 -7.76434 0.690644 0
M  V30 1638 N 168.503 -0.877838 -1.30888 0
M  V30 1639 C 169.919 -0.570844 -1.49042 0
M  V30 1640 C 170.119 0.893159 -1.80624 0
M  V30 1641 O 169.175 1.67485 -1.88958 0
M  V30 1642 C 170.488 -1.47784 -2.61878 0
M  V30 1643 C 172.036 -1.48071 -2.75761 0
M  V30 1644 C 172.511 -2.37347 -3.91702 0
M  V30 1645 N 174.002 -2.35271 -3.99001 0
M  V30 1646 C 174.737 -3.01063 -4.88004 0
M  V30 1647 N 174.233 -3.76055 -5.81854 0
M  V30 1648 N 176.026 -2.90332 -4.81315 0
M  V30 1649 H 168.177 -1.82502 -1.0866 0
M  V30 1650 H 170.44 -0.780797 -0.537644 0
M  V30 1651 H 170.146 -2.51993 -2.45341 0
M  V30 1652 H 170.02 -1.18215 -3.58197 0
M  V30 1653 H 172.407 -0.446166 -2.91708 0
M  V30 1654 H 172.488 -1.81668 -1.80085 0
M  V30 1655 H 172.132 -3.40883 -3.76512 0
M  V30 1656 H 172.062 -2.01071 -4.86701 0
M  V30 1657 H 174.553 -1.80768 -3.3186 0
M  V30 1658 H 174.866 -4.23366 -6.46514 0
M  V30 1659 H 173.211 -3.80163 -5.81808 0
M  V30 1660 H 176.402 -2.31278 -4.06974 0
M  V30 1661 H 176.575 -3.41885 -5.50471 0
M  V30 1662 N 169.982 1.44106 -0.638065 0
M  V30 1663 C 170.915 2.27924 0.112161 0
M  V30 1664 C 171.893 1.38945 0.844574 0
M  V30 1665 O 173.077 1.68386 0.847248 0
M  V30 1666 C 170.204 3.18029 1.16512 0
M  V30 1667 C 169.25 4.23163 0.532458 0
M  V30 1668 S 170.083 5.31131 -0.682666 0
M  V30 1669 C 171.239 6.24805 0.37013 0
M  V30 1670 H 171.472 2.91205 -0.598887 0
M  V30 1671 H 169.005 1.48394 -0.426441 0
M  V30 1672 H 170.963 3.70492 1.76766 0
M  V30 1673 H 169.624 2.53955 1.8484 0
M  V30 1674 H 168.817 4.86252 1.32571 0
M  V30 1675 H 168.419 3.74 0.00437644 0
M  V30 1676 H 170.711 6.66042 1.24071 0
M  V30 1677 H 171.654 7.07741 -0.225349 0
M  V30 1678 H 172.062 5.60154 0.699141 0
M  V30 1679 N 171.46 0.379036 1.52974 0
M  V30 1680 C 172.876 0.0285448 1.59574 0
M  V30 1681 C 173.076 -1.45542 1.39355 0
M  V30 1682 O 172.132 -2.2187 1.20541 0
M  V30 1683 C 173.445 0.496535 2.96572 0
M  V30 1684 C 174.993 0.451909 3.0972 0
M  V30 1685 C 175.468 0.895924 4.49152 0
M  V30 1686 N 176.959 0.851522 4.55306 0
M  V30 1687 C 177.694 1.16661 5.61407 0
M  V30 1688 N 177.19 1.55166 6.752 0
M  V30 1689 N 178.983 1.08853 5.51459 0
M  V30 1690 H 171.134 1.34525 1.64367 0
M  V30 1691 H 173.397 0.550733 0.771619 0
M  V30 1692 H 173.103 1.53258 3.16552 0
M  V30 1693 H 172.977 -0.109802 3.7704 0
M  V30 1694 H 175.364 -0.575029 2.89443 0
M  V30 1695 H 175.445 1.09392 2.3123 0
M  V30 1696 H 175.089 1.92104 4.70168 0
M  V30 1697 H 175.019 0.23103 5.26093 0
M  V30 1698 H 177.51 0.568038 3.73606 0
M  V30 1699 H 177.823 1.776 7.52116 0
M  V30 1700 H 176.168 1.59044 6.76557 0
M  V30 1701 H 179.359 0.786803 4.6144 0
M  V30 1702 H 179.532 1.33742 6.34048 0
M  V30 1703 N 172.938 -1.57226 0.108567 0
M  V30 1704 C 174.166 -1.99179 -0.559954 0
M  V30 1705 C 174.581 -0.988022 -1.60884 0
M  V30 1706 O 173.938 0.0205512 -1.82488 0
M  V30 1707 C 173.989 -3.41159 -1.19552 0
M  V30 1708 O 173.71 -4.37694 -0.188577 0
M  V30 1709 C 175.211 -3.98188 -1.94837 0
M  V30 1710 H 172.431 -0.654228 -0.149088 0
M  V30 1711 H 174.975 -2.03598 0.19183 0
M  V30 1712 H 173.13 -3.37711 -1.89815 0
M  V30 1713 H 173.544 -5.20469 -0.649014 0
M  V30 1714 H 175.018 -4.99644 -2.34648 0
M  V30 1715 H 175.495 -3.3675 -2.81951 0
M  V30 1716 H 176.101 -4.0515 -1.2936 0
M  V30 1717 N 174.416 0.165178 -1.56732 0
M  V30 1718 C 175.662 0.882112 -1.82611 0
M  V30 1719 C 175.995 1.81628 -0.687378 0
M  V30 1720 O 175.27 1.92009 0.310267 0
M  V30 1721 C 175.553 1.67245 -3.18906 0
M  V30 1722 C 175.406 0.760987 -4.43316 0
M  V30 1723 C 176.725 2.63884 -3.52212 0
M  V30 1724 H 173.844 0.319242 -0.664269 0
M  V30 1725 H 176.486 0.148052 -1.89422 0
M  V30 1726 H 174.636 2.29824 -3.1323 0
M  V30 1727 H 176.308 0.147596 -4.61064 0
M  V30 1728 H 174.551 0.0694102 -4.33744 0
M  V30 1729 H 175.222 1.34962 -5.35247 0
M  V30 1730 H 177.698 2.11429 -3.58381 0
M  V30 1731 H 176.574 3.16245 -4.48643 0
M  V30 1732 H 176.835 3.44377 -2.77231 0
M  V30 1733 N 175.894 1.51508 0.433938 0
M  V30 1734 C 177.122 1.68157 1.20543 0
M  V30 1735 C 177.537 0.380362 1.84929 0
M  V30 1736 O 176.894 -0.641446 1.70856 0
M  V30 1737 C 176.945 2.79965 2.28696 0
M  V30 1738 O 176.666 4.05045 1.66943 0
M  V30 1739 C 178.167 3.07912 3.18912 0
M  V30 1740 H 175.387 0.56421 0.363191 0
M  V30 1741 H 177.931 1.97941 0.513754 0
M  V30 1742 H 176.086 2.5277 2.93574 0
M  V30 1743 H 176.5 4.67165 2.38448 0
M  V30 1744 H 177.974 3.89719 3.90926 0
M  V30 1745 H 178.451 2.20456 3.79863 0
M  V30 1746 H 179.057 3.36779 2.59731 0
M  V30 1747 N 177.372 -0.689602 1.41712 0
M  V30 1748 C 178.32 -1.82475 1.44242 0
M  V30 1749 C 179.314 -1.66354 0.319774 0
M  V30 1750 O 180.52 -1.73143 0.492089 0
M  V30 1751 H 176.895 -0.601416 0.451445 0
M  V30 1752 H 178.866 -1.77458 2.39899 0
M  V30 1753 C 177.615 -3.20535 1.3473 0
M  V30 1754 H 176.938 -3.33559 2.20405 0
M  V30 1755 H 178.378 -4.00023 1.40562 0
M  V30 1756 C 176.837 -3.36846 0.0603281 0
M  V30 1757 O 177.367 -3.91656 -0.892663 0
M  V30 1758 N 175.573 -2.90595 -0.0177039 0
M  V30 1759 H 175.12 -2.46178 0.758572 0
M  V30 1760 H 175.078 -3.01886 -0.878201 0
M  V30 1761 N 178.85 -1.27639 -0.924453 0
M  V30 1762 C 180.08 -1.16819 -1.70402 0
M  V30 1763 C 180.488 0.277191 -1.87158 0
M  V30 1764 O 179.831 1.20025 -1.39067 0
M  V30 1765 C 179.893 -1.78305 -3.12166 0
M  V30 1766 C 179.557 -3.27502 -3.18734 0
M  V30 1767 C 180.554 -4.2409 -3.00738 0
M  V30 1768 C 178.239 -3.68269 -3.4159 0
M  V30 1769 C 180.233 -5.59422 -3.05492 0
M  V30 1770 C 177.92 -5.0373 -3.45977 0
M  V30 1771 C 178.918 -5.99116 -3.27946 0
M  V30 1772 O 178.606 -7.32108 -3.32074 0
M  V30 1773 H 178.338 -0.406931 -0.539799 0
M  V30 1774 H 180.892 -1.69078 -1.16626 0
M  V30 1775 H 179.122 -1.20528 -3.67437 0
M  V30 1776 H 180.811 -1.62154 -3.72103 0
M  V30 1777 H 181.577 -3.93931 -2.82919 0
M  V30 1778 H 177.456 -2.94496 -3.54673 0
M  V30 1779 H 181 -6.33852 -2.91337 0
M  V30 1780 H 176.897 -5.33543 -3.63321 0
M  V30 1781 H 177.665 -7.40598 -3.48507 0
M  V30 1782 N 180.328 1.1314 -1.09713 0
M  V30 1783 C 181.575 1.84484 -0.834987 0
M  V30 1784 C 181.903 1.83689 0.639418 0
M  V30 1785 O 181.158 1.2724 1.4869 0
M  V30 1786 C 181.457 3.32167 -1.3191 0
M  V30 1787 C 181.123 3.53139 -2.80363 0
M  V30 1788 C 179.785 3.58571 -3.20905 0
M  V30 1789 C 182.137 3.60866 -3.76065 0
M  V30 1790 C 179.465 3.69267 -4.55916 0
M  V30 1791 C 181.817 3.73089 -5.10869 0
M  V30 1792 C 180.481 3.76775 -5.50996 0
M  V30 1793 H 179.751 0.675073 -0.305544 0
M  V30 1794 H 182.398 1.33554 -1.37243 0
M  V30 1795 H 180.703 3.85469 -0.701517 0
M  V30 1796 H 182.4 3.85821 -1.09284 0
M  V30 1797 H 178.99 3.49569 -2.47991 0
M  V30 1798 H 183.174 3.55946 -3.45855 0
M  V30 1799 H 178.43 3.70388 -4.86438 0
M  V30 1800 H 182.604 3.78011 -5.84877 0
M  V30 1801 H 180.231 3.84815 -6.55608 0
M  V30 1802 N 181.806 0.884767 1.30421 0
M  V30 1803 C 182.736 0.367574 2.30589 0
M  V30 1804 C 183.717 -0.549464 1.60981 0
M  V30 1805 O 184.902 -0.46336 1.88591 0
M  V30 1806 C 182.032 -0.418944 3.44764 0
M  V30 1807 C 180.986 0.406316 4.26067 0
M  V30 1808 C 180.312 -0.506793 5.32293 0
M  V30 1809 C 181.612 1.64832 4.95608 0
M  V30 1810 H 183.306 1.20462 2.74097 0
M  V30 1811 H 180.852 0.580695 1.31772 0
M  V30 1812 H 182.805 -0.791395 4.13902 0
M  V30 1813 H 181.529 -1.28964 3.0006 0
M  V30 1814 H 180.188 0.760903 3.58617 0
M  V30 1815 H 179.836 -1.37519 4.83836 0
M  V30 1816 H 179.536 0.0415828 5.87585 0
M  V30 1817 H 181.06 -0.875764 6.04287 0
M  V30 1818 H 182.474 1.34646 5.57264 0
M  V30 1819 H 180.871 2.13688 5.60765 0
M  V30 1820 H 181.941 2.39284 4.21748 0
M  V30 1821 N 183.284 -1.43765 0.645699 0
M  V30 1822 C 184.53 -2.02197 0.156271 0
M  V30 1823 C 184.863 -1.50776 -1.22393 0
M  V30 1824 O 184.138 -0.697771 -1.81553 0
M  V30 1825 C 184.421 -3.59749 0.158872 0
M  V30 1826 C 184.274 -4.21419 1.57245 0
M  V30 1827 C 185.593 -4.37149 -0.50879 0
M  V30 1828 H 182.712 -0.734694 0.0582602 0
M  V30 1829 H 185.354 -1.71157 0.824951 0
M  V30 1830 H 183.504 -3.86325 -0.410525 0
M  V30 1831 H 185.176 -4.059 2.19186 0
M  V30 1832 H 183.419 -3.78356 2.122 0
M  V30 1833 H 184.09 -5.30482 1.52619 0
M  V30 1834 H 186.566 -4.16093 -0.024412 0
M  V30 1835 H 185.442 -5.4683 -0.476213 0
M  V30 1836 H 185.703 -4.12839 -1.58165 0
M  V30 1837 N 184.763 -0.387143 -1.52771 0
M  V30 1838 C 185.711 0.463953 -2.27926 0
M  V30 1839 C 186.705 1.06493 -1.31741 0
M  V30 1840 O 187.911 1.00565 -1.49287 0
M  V30 1841 H 184.286 0.16837 -0.732909 0
M  V30 1842 H 186.257 -0.19141 -2.97785 0
M  V30 1843 C 185.006 1.5803 -3.09713 0
M  V30 1844 H 184.329 1.12718 -3.83581 0
M  V30 1845 H 185.769 2.15008 -3.65442 0
M  V30 1846 C 184.228 2.53509 -2.2189 0
M  V30 1847 O 184.758 3.56863 -1.84422 0
M  V30 1848 N 182.964 2.23199 -1.86093 0
M  V30 1849 H 182.511 1.39185 -2.16761 0
M  V30 1850 H 182.469 2.87333 -1.27621 0
M  V30 1851 N 186.241 1.57166 -0.116904 0
M  V30 1852 C 187.171 2.18222 0.830759 0
M  V30 1853 C 188.152 1.12167 1.27877 0
M  V30 1854 O 189.337 1.40394 1.34176 0
M  V30 1855 C 186.467 2.77996 2.08172 0
M  V30 1856 C 185.421 3.89614 1.77157 0
M  V30 1857 C 184.747 4.36187 3.09265 0
M  V30 1858 C 186.047 5.1181 1.04151 0
M  V30 1859 H 187.741 2.97664 0.321992 0
M  V30 1860 H 185.287 1.4318 0.153434 0
M  V30 1861 H 187.24 3.19366 2.74924 0
M  V30 1862 H 185.964 1.9584 2.6137 0
M  V30 1863 H 184.623 3.48816 1.12796 0
M  V30 1864 H 184.271 3.50893 3.60393 0
M  V30 1865 H 183.971 5.11455 2.89288 0
M  V30 1866 H 185.495 4.80207 3.77139 0
M  V30 1867 H 186.909 5.50214 1.61052 0
M  V30 1868 H 185.306 5.92648 0.942762 0
M  V30 1869 H 186.376 4.84892 0.0279022 0
M  V30 1870 N 187.719 -0.156864 1.56817 0
M  V30 1871 C 188.682 -1.17781 1.96622 0
M  V30 1872 C 189.682 -1.36401 0.851555 0
M  V30 1873 O 190.872 -1.33561 1.11836 0
M  V30 1874 C 188.004 -2.54008 2.27361 0
M  V30 1875 H 189.197 -0.836564 2.87996 0
M  V30 1876 H 186.75 -0.39985 1.51099 0
M  V30 1877 H 187.485 -2.9312 1.38748 0
M  V30 1878 H 187.27 -2.41856 3.08623 0
M  V30 1879 H 188.76 -3.27558 2.59029 0
M  V30 1880 N 189.197 -1.51736 -0.425897 0
M  V30 1881 C 190.444 -1.6497 -1.17436 0
M  V30 1882 C 190.772 -0.371445 -1.9092 0
M  V30 1883 O 190.027 0.644963 -1.84767 0
M  V30 1884 C 190.326 -2.81103 -2.20717 0
M  V30 1885 C 189.992 -4.19954 -1.64162 0
M  V30 1886 C 188.654 -4.57725 -1.48462 0
M  V30 1887 C 191.006 -5.06552 -1.22696 0
M  V30 1888 C 188.334 -5.79789 -0.897873 0
M  V30 1889 C 190.686 -6.29205 -0.654464 0
M  V30 1890 C 189.35 -6.6574 -0.484456 0
M  V30 1891 H 188.62 -0.603668 -0.429727 0
M  V30 1892 H 191.267 -1.85798 -0.463829 0
M  V30 1893 H 189.572 -2.54542 -2.97852 0
M  V30 1894 H 191.269 -2.8854 -2.78471 0
M  V30 1895 H 187.859 -3.90181 -1.77361 0
M  V30 1896 H 192.043 -4.77968 -1.33642 0
M  V30 1897 H 187.299 -6.06733 -0.75402 0
M  V30 1898 H 191.473 -6.95643 -0.324694 0
M  V30 1899 H 189.1 -7.60195 -0.0276833 0
M  V30 1900 N 190.675 0.682077 -1.42076 0
M  V30 1901 C 191.9 1.47558 -1.45744 0
M  V30 1902 C 192.325 1.87977 -0.0680981 0
M  V30 1903 O 191.683 1.55522 0.9318 0
M  V30 1904 C 191.731 2.70575 -2.38373 0
M  V30 1905 O 190.835 3.68573 -1.85007 0
M  V30 1906 H 190.176 0.443585 -0.494093 0
M  V30 1907 H 192.706 0.837238 -1.86686 0
M  V30 1908 H 192.716 3.18729 -2.54707 0
M  V30 1909 H 191.391 2.40495 -3.39315 0
M  V30 1910 H 189.968 3.2757 -1.78192 0
M  V30 1911 N 192.153 1.28127 0.917671 0
M  V30 1912 C 193.43 1.05761 1.64542 0
M  V30 1913 C 193.81 -0.404344 2.07191 0
M  V30 1914 O 193.158 -1.38963 1.81388 0
M  V30 1915 C 193.368 2.02857 2.83989 0
M  V30 1916 C 194.716 2.32786 3.551 0
M  V30 1917 O 195.74 2.0091 2.94132 0
M  V30 1918 O 194.599 2.87169 4.64969 0
M  V30 1919 H 191.693 0.403916 0.721652 0
M  V30 1920 H 194.239 1.39431 0.967322 0
M  V30 1921 H 193.011 3.01407 2.49538 0
M  V30 1922 H 192.634 1.69809 3.59514 0
M  V30 1923 N 193.631 -1.12557 1.10312 0
M  V30 1924 C 194.594 -2.16434 0.75424 0
M  V30 1925 C 195.594 -1.59278 -0.220685 0
M  V30 1926 O 196.784 -1.742 0.00230591 0
M  V30 1927 C 193.916 -3.40699 0.116987 0
M  V30 1928 H 195.109 -2.48811 1.67431 0
M  V30 1929 H 192.662 -1.27542 0.903475 0
M  V30 1930 H 193.397 -3.13921 -0.813877 0
M  V30 1931 H 193.182 -3.83459 0.818613 0
M  V30 1932 H 194.672 -4.17451 -0.111387 0
M  V30 1933 N 195.109 -0.891671 -1.2995 0
M  V30 1934 C 196.334 -0.527932 -2.00568 0
M  V30 1935 C 196.759 0.877969 -1.66353 0
M  V30 1936 O 196.117 1.58301 -0.883762 0
M  V30 1937 C 196.165 -0.717745 -3.53385 0
M  V30 1938 O 195.269 0.233376 -4.11739 0
M  V30 1939 H 194.61 -0.20722 -0.630837 0
M  V30 1940 H 197.14 -1.20105 -1.65638 0
M  V30 1941 H 197.15 -0.619307 -4.03272 0
M  V30 1942 H 195.825 -1.74276 -3.77625 0
M  V30 1943 H 194.402 0.0880706 -3.72796 0
M  V30 1944 N 196.587 1.43421 -0.653314 0
M  V30 1945 C 197.52 2.2803 0.0879804 0
M  V30 1946 C 198.498 1.39833 0.82979 0
M  V30 1947 O 199.682 1.69275 0.829341 0
M  V30 1948 C 196.809 3.19247 1.13132 0
M  V30 1949 C 195.855 4.23704 0.487546 0
M  V30 1950 S 196.688 5.30377 -0.738961 0
M  V30 1951 C 197.844 6.25162 0.30384 0
M  V30 1952 H 198.077 2.90554 -0.629739 0
M  V30 1953 H 195.61 1.47934 -0.442156 0
M  V30 1954 H 197.568 3.72346 1.72827 0
M  V30 1955 H 196.229 2.55901 1.82136 0
M  V30 1956 H 195.422 4.87631 1.27407 0
M  V30 1957 H 195.024 3.73983 -0.0352915 0
M  V30 1958 H 197.316 6.67321 1.17 0
M  V30 1959 H 198.259 7.07463 -0.300402 0
M  V30 1960 H 198.667 5.60864 0.63969 0
M  V30 1961 N 198.065 0.39524 1.52563 0
M  V30 1962 C 199.028 -0.425001 2.25225 0
M  V30 1963 C 200.028 -0.985266 1.27079 0
M  V30 1964 O 201.218 -0.866332 1.5113 0
M  V30 1965 C 198.35 -1.59686 3.01186 0
M  V30 1966 H 199.543 0.211233 2.99155 0
M  V30 1967 H 197.096 0.147472 1.55603 0
M  V30 1968 H 197.831 -2.27035 2.31572 0
M  V30 1969 H 197.616 -1.20176 3.73229 0
M  V30 1970 H 199.106 -2.17743 3.5634 0
M  V30 1971 N 199.544 -1.57102 0.125237 0
M  V30 1972 C 200.507 -2.14471 -0.80838 0
M  V30 1973 C 201.507 -1.0811 -1.19033 0
M  V30 1974 O 202.697 -1.33856 -1.11482 0
M  V30 1975 C 199.829 -2.69005 -2.09402 0
M  V30 1976 H 201.022 -2.98297 -0.309696 0
M  V30 1977 H 198.575 -1.55807 -0.124051 0
M  V30 1978 H 199.31 -1.88785 -2.63687 0
M  V30 1979 H 199.095 -3.46799 -1.82957 0
M  V30 1980 H 200.585 -3.13278 -2.76128 0
M  V30 1981 N 201.022 0.148545 -1.56898 0
M  V30 1982 C 202.269 0.861418 -1.83264 0
M  V30 1983 C 202.597 1.81239 -0.705883 0
M  V30 1984 O 201.852 1.93305 0.305212 0
M  V30 1985 C 202.151 1.67064 -3.1595 0
M  V30 1986 C 201.817 0.866591 -4.42494 0
M  V30 1987 C 200.479 0.644762 -4.76861 0
M  V30 1988 C 202.831 0.30418 -5.20312 0
M  V30 1989 C 200.159 -0.15021 -5.86508 0
M  V30 1990 C 202.511 -0.477824 -6.30793 0
M  V30 1991 C 201.175 -0.710244 -6.63711 0
M  V30 1992 H 200.445 0.315215 -0.670612 0
M  V30 1993 H 203.092 0.125142 -1.91091 0
M  V30 1994 H 201.397 2.47698 -3.03567 0
M  V30 1995 H 203.094 2.22566 -3.33565 0
M  V30 1996 H 199.684 1.04955 -4.15551 0
M  V30 1997 H 203.868 0.462844 -4.94137 0
M  V30 1998 H 199.124 -0.339796 -6.10455 0
M  V30 1999 H 203.298 -0.92076 -6.90286 0
M  V30 2000 H 200.925 -1.3281 -7.48509 0
M  V30 2001 N 202.5 1.5196 0.417844 0
M  V30 2002 C 203.448 1.75278 1.52907 0
M  V30 2003 C 204.442 0.619611 1.57662 0
M  V30 2004 O 205.648 0.801457 1.61173 0
M  V30 2005 H 202.023 0.554141 0.508362 0
M  V30 2006 H 203.994 2.68389 1.30422 0
M  V30 2007 C 202.743 1.91262 2.90369 0
M  V30 2008 H 202.066 2.77872 2.8745 0
M  V30 2009 H 203.506 2.11581 3.67436 0
M  V30 2010 C 201.965 0.677431 3.30019 0
M  V30 2011 O 202.495 -0.158799 4.01386 0
M  V30 2012 N 200.701 0.515851 2.85985 0
M  V30 2013 H 200.248 1.19744 2.28077 0
M  V30 2014 H 200.206 -0.309315 3.12875 0
M  V30 2015 N 203.978 -0.674533 1.42435 0
M  V30 2016 C 205.206 -1.46283 1.46317 0
M  V30 2017 C 205.621 -1.88653 0.0745836 0
M  V30 2018 O 204.978 -1.58151 -0.91074 0
M  V30 2019 C 205.029 -2.71178 2.3905 0
M  V30 2020 O 204.75 -2.30586 3.72507 0
M  V30 2021 C 206.251 -3.64738 2.51955 0
M  V30 2022 H 203.471 -0.450104 0.497642 0
M  V30 2023 H 206.015 -0.828792 1.86953 0
M  V30 2024 H 204.17 -3.3077 2.01667 0
M  V30 2025 H 204.584 -3.11241 4.22172 0
M  V30 2026 H 206.058 -4.49096 3.20962 0
M  V30 2027 H 206.535 -4.10656 1.55752 0
M  V30 2028 H 207.141 -3.11038 2.90061 0
M  V30 2029 N 205.456 -1.28612 -0.910864 0
M  V30 2030 C 206.386 -1.15326 -2.03032 0
M  V30 2031 C 207.367 -0.0502924 -1.70026 0
M  V30 2032 O 208.552 -0.227797 -1.92859 0
M  V30 2033 C 205.682 -0.817343 -3.37545 0
M  V30 2034 C 204.636 -1.8754 -3.84724 0
M  V30 2035 C 203.962 -1.39305 -5.16235 0
M  V30 2036 C 205.262 -3.28244 -4.06267 0
M  V30 2037 H 206.956 -2.08975 -2.14406 0
M  V30 2038 H 204.502 -1.00612 -1.03021 0
M  V30 2039 H 206.455 -0.711151 -4.15356 0
M  V30 2040 H 205.179 0.154846 -3.26233 0
M  V30 2041 H 203.838 -1.97079 -3.09121 0
M  V30 2042 H 203.486 -0.409846 -5.01328 0
M  V30 2043 H 203.186 -2.10057 -5.48771 0
M  V30 2044 H 204.71 -1.30014 -5.96598 0
M  V30 2045 H 206.124 -3.21611 -4.74594 0
M  V30 2046 H 204.521 -3.96855 -4.5014 0
M  V30 2047 H 205.591 -3.72048 -3.10979 0
M  V30 2048 N 206.934 1.1197 -1.10907 0
M  V30 2049 C 208.18 1.8386 -0.855773 0
M  V30 2050 C 208.513 1.84134 0.617103 0
M  V30 2051 O 207.788 1.29041 1.45529 0
M  V30 2052 C 208.071 3.31305 -1.411 0
M  V30 2053 C 207.924 3.39456 -2.9511 0
M  V30 2054 C 209.243 4.2721 -1.05736 0
M  V30 2055 H 206.362 0.667545 -0.312334 0
M  V30 2056 H 209.004 1.31331 -1.37303 0
M  V30 2057 H 207.154 3.76169 -0.97105 0
M  V30 2058 H 208.826 3.03191 -3.47668 0
M  V30 2059 H 207.069 2.79849 -3.31462 0
M  V30 2060 H 207.74 4.43209 -3.29044 0
M  V30 2061 H 210.216 3.90497 -1.43706 0
M  V30 2062 H 209.092 5.28775 -1.47269 0
M  V30 2063 H 209.353 4.42088 0.0325958 0
M  V30 2064 N 208.412 0.89855 1.29475 0
M  V30 2065 C 209.36 0.365253 2.29714 0
M  V30 2066 C 210.354 -0.534993 1.6073 0
M  V30 2067 O 211.56 -0.417921 1.75081 0
M  V30 2068 H 207.935 0.0994853 0.74539 0
M  V30 2069 H 209.906 1.22406 2.72138 0
M  V30 2070 C 208.655 -0.393159 3.4547 0
M  V30 2071 H 207.978 0.290332 3.98744 0
M  V30 2072 H 209.418 -0.731189 4.17648 0
M  V30 2073 C 207.877 -1.59539 2.9673 0
M  V30 2074 O 208.407 -2.69469 2.97908 0
M  V30 2075 N 206.613 -1.43716 2.52575 0
M  V30 2076 H 206.16 -0.542828 2.51816 0
M  V30 2077 H 206.118 -2.24288 2.20323 0
M  V30 2078 N 209.89 -1.43072 0.660911 0
M  V30 2079 C 211.137 -2.01721 0.177445 0
M  V30 2080 C 211.465 -1.5218 -1.21126 0
M  V30 2081 O 210.72 -0.708659 -1.82419 0
M  V30 2082 C 211.019 -3.57103 0.145563 0
M  V30 2083 C 210.685 -4.26021 1.47705 0
M  V30 2084 C 209.347 -4.44563 1.84165 0
M  V30 2085 C 211.699 -4.64983 2.35458 0
M  V30 2086 C 209.027 -4.99334 3.0803 0
M  V30 2087 C 211.379 -5.21127 3.58622 0
M  V30 2088 C 210.043 -5.37884 3.95268 0
M  V30 2089 H 209.313 -0.73815 0.0649317 0
M  V30 2090 H 211.96 -1.71446 0.853144 0
M  V30 2091 H 210.265 -3.86965 -0.61361 0
M  V30 2092 H 211.962 -4.00248 -0.2455 0
M  V30 2093 H 208.552 -4.11939 1.18339 0
M  V30 2094 H 212.736 -4.50343 2.08579 0
M  V30 2095 H 207.992 -5.10493 3.36462 0
M  V30 2096 H 212.166 -5.50262 4.26831 0
M  V30 2097 H 209.793 -5.80089 4.91325 0
M  V30 2098 N 211.368 -0.403325 -1.52352 0
M  V30 2099 C 212.617 0.175668 -2.00934 0
M  V30 2100 C 212.93 1.46718 -1.29356 0
M  V30 2101 O 214.136 2.12708 -1.68724 0
M  V30 2102 C 212.592 0.363612 -3.58058 0
M  V30 2103 C 212.2 -0.915472 -4.38547 0
M  V30 2104 C 213.944 0.89821 -4.14888 0
M  V30 2105 C 211.851 -0.695035 -5.87302 0
M  V30 2106 H 210.781 0.0694234 -0.750797 0
M  V30 2107 H 213.432 -0.527879 -1.75743 0
M  V30 2108 H 211.814 1.12935 -3.79555 0
M  V30 2109 H 212.988 -1.68691 -4.28812 0
M  V30 2110 H 211.303 -1.37606 -3.93006 0
M  V30 2111 H 213.9 1.07907 -5.23699 0
M  V30 2112 H 214.243 1.87126 -3.71873 0
M  V30 2113 H 214.776 0.191681 -3.97338 0
M  V30 2114 H 211.515 -1.63948 -6.34666 0
M  V30 2115 H 211.035 0.0372116 -5.99788 0
M  V30 2116 H 212.714 -0.33497 -6.46132 0
M  V30 2117 N 212.846 1.57033 -0.133567 0
M  V30 2118 C 214.076 1.99754 0.527429 0
M  V30 2119 C 214.484 1.01245 1.59832 0
M  V30 2120 O 213.827 -0.000645496 1.837 0
M  V30 2121 C 213.889 3.38903 1.19939 0
M  V30 2122 C 213.553 4.56174 0.274709 0
M  V30 2123 C 214.55 5.17563 -0.492398 0
M  V30 2124 C 212.235 5.01972 0.18153 0
M  V30 2125 C 214.229 6.2315 -1.34027 0
M  V30 2126 C 211.916 6.07416 -0.669958 0
M  V30 2127 C 212.914 6.67874 -1.42947 0
M  V30 2128 O 212.602 7.71279 -2.2668 0
M  V30 2129 H 212.334 0.660702 0.142999 0
M  V30 2130 H 214.888 2.04207 -0.221099 0
M  V30 2131 H 213.118 3.31248 1.99528 0
M  V30 2132 H 214.807 3.65818 1.75875 0
M  V30 2133 H 215.573 4.83087 -0.430367 0
M  V30 2134 H 211.452 4.54652 0.762422 0
M  V30 2135 H 214.996 6.70268 -1.93357 0
M  V30 2136 H 210.893 6.41321 -0.73333 0
M  V30 2137 H 211.661 7.88441 -2.1978 0
M  V30 2138 N 214.325 -0.140222 1.56975 0
M  V30 2139 C 215.288 -1.15689 1.97861 0
M  V30 2140 C 216.288 -1.3549 0.865974 0
M  V30 2141 O 217.478 -1.32367 1.13246 0
M  V30 2142 C 214.61 -2.51582 2.30042 0
M  V30 2143 H 215.803 -0.805971 2.88867 0
M  V30 2144 H 213.356 -0.383801 1.51515 0
M  V30 2145 H 214.091 -2.91632 1.41849 0
M  V30 2146 H 213.876 -2.38569 3.11171 0
M  V30 2147 H 215.366 -3.24792 2.62488 0
M  V30 2148 N 215.803 -1.52179 -0.40978 0
M  V30 2149 C 216.733 -1.78435 -1.5061 0
M  V30 2150 C 217.714 -0.635295 -1.57791 0
M  V30 2151 O 218.899 -0.880823 -1.73076 0
M  V30 2152 C 216.029 -1.93444 -2.88439 0
M  V30 2153 C 214.983 -3.09038 -2.96108 0
M  V30 2154 C 214.309 -3.09268 -4.36185 0
M  V30 2155 C 215.609 -4.48508 -2.67652 0
M  V30 2156 H 217.303 -2.70237 -1.28889 0
M  V30 2157 H 214.849 -1.30036 -0.618605 0
M  V30 2158 H 216.802 -2.10394 -3.65119 0
M  V30 2159 H 215.526 -0.983129 -3.11452 0
M  V30 2160 H 214.185 -2.91837 -2.21872 0
M  V30 2161 H 213.833 -2.11861 -4.56206 0
M  V30 2162 H 213.533 -3.86907 -4.42241 0
M  V30 2163 H 215.057 -3.28348 -5.14801 0
M  V30 2164 H 216.471 -4.65918 -3.34056 0
M  V30 2165 H 214.868 -5.28059 -2.85085 0
M  V30 2166 H 215.938 -4.56649 -1.63095 0
M  V30 2167 N 217.281 0.66697 -1.42791 0
M  V30 2168 C 218.231 1.77313 -1.43332 0
M  V30 2169 C 219.215 1.5801 -0.303586 0
M  V30 2170 O 220.407 1.68356 -0.546385 0
M  V30 2171 C 217.536 3.15822 -1.34578 0
M  V30 2172 C 216.622 3.40721 -2.52528 0
M  V30 2173 N 217.013 3.36162 -3.77927 0
M  V30 2174 C 215.311 3.71387 -2.46956 0
M  V30 2175 C 216.012 3.60762 -4.56318 0
M  V30 2176 N 214.988 3.81908 -3.86843 0
M  V30 2177 H 218.79 1.72193 -2.38174 0
M  V30 2178 H 216.304 0.868114 -1.3725 0
M  V30 2179 H 218.301 3.951 -1.33048 0
M  V30 2180 H 216.961 3.22133 -0.407453 0
M  V30 2181 H 217.972 3.15885 -4.10411 0
M  V30 2182 H 214.649 3.84897 -1.61743 0
M  V30 2183 H 216.039 3.63132 -5.65318 0
M  V30 2184 N 218.759 1.29093 0.90403 0
M  V30 2185 C 219.984 1.19809 1.69294 0
M  V30 2186 C 220.409 -0.238481 1.86582 0
M  V30 2187 O 219.767 -1.1723 1.383 0
M  V30 2188 C 219.815 1.91202 3.05736 0
M  V30 2189 O 218.919 1.22611 3.93752 0
M  V30 2190 H 218.26 0.415385 0.518027 0
M  V30 2191 H 220.79 1.70586 1.12967 0
M  V30 2192 H 220.8 1.99487 3.55906 0
M  V30 2193 H 219.475 2.95692 2.92471 0
M  V30 2194 H 218.052 1.22554 3.52186 0
M  V30 2195 N 220.237 -1.11381 1.11499 0
M  V30 2196 C 221.147 -2.21019 0.786628 0
M  V30 2197 C 222.163 -1.72597 -0.220507 0
M  V30 2198 O 223.339 -2.01321 -0.0565251 0
M  V30 2199 C 220.404 -3.459 0.235333 0
M  V30 2200 C 219.465 -4.09107 1.30115 0
M  V30 2201 C 218.698 -5.28027 0.776068 0
M  V30 2202 O 218.921 -5.6904 -0.393661 0
M  V30 2203 O 217.855 -5.81835 1.54114 0
M  V30 2204 H 221.681 -2.51521 1.70209 0
M  V30 2205 H 219.266 -1.19928 0.890928 0
M  V30 2206 H 221.148 -4.21346 -0.067715 0
M  V30 2207 H 219.823 -3.17049 -0.652828 0
M  V30 2208 H 218.73 -3.35391 1.65722 0
M  V30 2209 H 220.063 -4.42139 2.16273 0
M  V30 2210 N 221.715 -0.905404 -1.28997 0
M  V30 2211 C 222.961 -0.544465 -1.95977 0
M  V30 2212 C 223.316 0.90041 -1.70031 0
M  V30 2213 O 222.609 1.63064 -1.00601 0
M  V30 2214 C 222.803 -0.779906 -3.48787 0
M  V30 2215 C 222.632 -2.24612 -3.89589 0
M  V30 2216 C 221.402 -2.89464 -4.14172 0
M  V30 2217 C 223.6 -3.22182 -4.00878 0
M  V30 2218 N 221.582 -4.26469 -4.41585 0
M  V30 2219 C 222.953 -4.44323 -4.32409 0
M  V30 2220 C 225.008 -3.17694 -3.83373 0
M  V30 2221 C 223.711 -5.62546 -4.48258 0
M  V30 2222 C 225.737 -4.35208 -4.00435 0
M  V30 2223 C 225.099 -5.56121 -4.3233 0
M  V30 2224 H 221.198 -0.248948 -0.741316 0
M  V30 2225 H 223.782 -1.1674 -1.5582 0
M  V30 2226 H 221.953 -0.186308 -3.87953 0
M  V30 2227 H 223.685 -0.383833 -4.02876 0
M  V30 2228 H 220.44 -2.40232 -4.08149 0
M  V30 2229 H 220.864 -4.97283 -4.5939 0
M  V30 2230 H 225.506 -2.25297 -3.57773 0
M  V30 2231 H 223.224 -6.55429 -4.72692 0
M  V30 2232 H 226.81 -4.33228 -3.88336 0
M  V30 2233 H 225.69 -6.45537 -4.45255 0
M  V30 2234 N 223.193 1.4272 -0.668489 0
M  V30 2235 C 224.423 2.05668 -0.196063 0
M  V30 2236 C 224.831 1.5028 1.14946 0
M  V30 2237 O 224.174 0.6348 1.72383 0
M  V30 2238 C 224.236 3.59469 -0.0468879 0
M  V30 2239 C 223.9 4.37518 -1.32012 0
M  V30 2240 C 224.897 4.68584 -2.25222 0
M  V30 2241 C 222.582 4.77266 -1.56596 0
M  V30 2242 C 224.576 5.38326 -3.41297 0
M  V30 2243 C 222.263 5.4675 -2.72962 0
M  V30 2244 C 223.261 5.77204 -3.65137 0
M  V30 2245 O 222.949 6.45264 -4.79468 0
M  V30 2246 H 222.681 0.669382 -0.0943599 0
M  V30 2247 H 225.235 1.83954 -0.913788 0
M  V30 2248 H 223.465 3.79817 0.726357 0
M  V30 2249 H 225.154 4.04071 0.384852 0
M  V30 2250 H 225.92 4.38382 -2.07477 0
M  V30 2251 H 221.799 4.52959 -0.857249 0
M  V30 2252 H 225.343 5.62014 -4.13263 0
M  V30 2253 H 221.24 5.76369 -2.90635 0
M  V30 2254 H 222.008 6.63753 -4.78931 0
M  V30 2255 N 224.671 0.411399 1.52136 0
M  V30 2256 C 225.918 -0.163645 2.01838 0
M  V30 2257 C 226.246 -1.4495 1.29691 0
M  V30 2258 O 225.501 -1.91725 0.392431 0
M  V30 2259 C 225.8 -0.455872 3.54481 0
M  V30 2260 C 225.466 0.741055 4.44769 0
M  V30 2261 C 224.128 1.06936 4.69167 0
M  V30 2262 C 226.48 1.54075 4.97906 0
M  V30 2263 C 223.808 2.19851 5.43951 0
M  V30 2264 C 226.16 2.66067 5.73926 0
M  V30 2265 C 224.824 2.99381 5.96596 0
M  V30 2266 H 224.094 -0.0598821 0.738576 0
M  V30 2267 H 226.741 0.553283 1.83333 0
M  V30 2268 H 225.046 -1.2544 3.71177 0
M  V30 2269 H 226.743 -0.913802 3.90449 0
M  V30 2270 H 223.333 0.475192 4.25958 0
M  V30 2271 H 227.517 1.30033 4.78963 0
M  V30 2272 H 222.773 2.46006 5.59724 0
M  V30 2273 H 226.947 3.28419 6.14096 0
M  V30 2274 H 224.574 3.86992 6.54325 0
M  V30 2275 N 226.149 -1.5696 0.141893 0
M  V30 2276 C 227.397 -1.95573 -0.509484 0
M  V30 2277 C 227.718 -1.02746 -1.65736 0
M  V30 2278 O 226.988 -0.0880311 -1.95702 0
M  V30 2279 H 225.568 -0.722115 -0.191205 0
M  V30 2280 H 228.23 -1.93697 0.216196 0
M  V30 2281 H 227.326 -2.99171 -0.889 0
M  V30 2282 N 227.627 0.131896 -1.57047 0
M  V30 2283 C 228.59 1.14638 -1.98471 0
M  V30 2284 C 229.59 1.35029 -0.873148 0
M  V30 2285 O 230.78 1.31764 -1.13946 0
M  V30 2286 C 227.912 2.50358 -2.31373 0
M  V30 2287 H 229.105 0.79064 -2.8929 0
M  V30 2288 H 226.658 0.375761 -1.51716 0
M  V30 2289 H 227.393 2.90876 -1.43393 0
M  V30 2290 H 227.178 2.36915 -3.12432 0
M  V30 2291 H 228.668 3.23395 -2.64207 0
M  V30 2292 N 229.106 1.52395 0.401703 0
M  V30 2293 C 230.054 1.7689 1.51039 0
M  V30 2294 C 231.048 0.636298 1.56996 0
M  V30 2295 O 232.254 0.818507 1.60314 0
M  V30 2296 H 228.629 0.559502 0.502456 0
M  V30 2297 H 230.6 2.69757 1.27568 0
M  V30 2298 C 229.349 1.94331 2.88324 0
M  V30 2299 H 228.672 2.80905 2.84486 0
M  V30 2300 H 230.112 2.15466 3.65172 0
M  V30 2301 C 228.571 0.712396 3.29282 0
M  V30 2302 O 229.101 -0.116218 4.01532 0
M  V30 2303 N 227.307 0.546154 2.85422 0
M  V30 2304 H 226.854 1.22156 2.26794 0
M  V30 2305 H 226.812 -0.276113 3.13185 0
M  V30 2306 N 230.584 -0.659388 1.43143 0
M  V30 2307 C 231.814 -1.44513 1.47646 0
M  V30 2308 C 232.222 -1.88981 0.0910095 0
M  V30 2309 O 231.565 -1.59702 -0.907789 0
M  V30 2310 C 231.627 -2.71663 2.35456 0
M  V30 2311 C 231.291 -2.49175 3.83094 0
M  V30 2312 C 232.288 -2.1279 4.74359 0
M  V30 2313 C 229.973 -2.63691 4.27519 0
M  V30 2314 C 231.967 -1.9121 6.08044 0
M  V30 2315 C 229.654 -2.41726 5.61259 0
M  V30 2316 C 230.652 -2.0554 6.51339 0
M  V30 2317 O 230.34 -1.838 7.82606 0
M  V30 2318 H 230.072 -0.45064 0.503884 0
M  V30 2319 H 232.626 -0.816248 1.88485 0
M  V30 2320 H 230.856 -3.37089 1.89493 0
M  V30 2321 H 232.545 -3.33595 2.31235 0
M  V30 2322 H 233.311 -2.01157 4.41317 0
M  V30 2323 H 229.19 -2.90832 3.57684 0
M  V30 2324 H 232.734 -1.62889 6.78316 0
M  V30 2325 H 228.631 -2.52959 5.9387 0
M  V30 2326 H 229.399 -1.98275 7.94122 0
M  V30 2327 N 232.062 -1.29571 -0.897171 0
M  V30 2328 C 233.302 -1.18959 -1.66217 0
M  V30 2329 C 233.666 0.254271 -1.90309 0
M  V30 2330 O 234.867 0.483407 -2.64417 0
M  V30 2331 C 233.138 -1.98302 -2.9734 0
M  V30 2332 S 234.697 -2.04253 -3.88364 0
M  V30 2333 H 231.515 -0.424137 -0.570639 0
M  V30 2334 H 234.117 -1.6389 -1.06585 0
M  V30 2335 H 232.821 -3.02342 -2.77521 0
M  V30 2336 H 232.352 -1.53986 -3.62011 0
M  V30 2337 H 234.367 -1.16105 -4.82425 0
M  V30 2338 N 233.54 1.10788 -1.12088 0
M  V30 2339 C 234.956 1.34691 -0.856186 0
M  V30 2340 C 235.156 1.94791 0.515615 0
M  V30 2341 O 234.212 2.18524 1.26505 0
M  V30 2342 C 235.525 2.27208 -1.9697 0
M  V30 2343 C 237.073 2.40755 -2.00016 0
M  V30 2344 C 237.548 3.36598 -3.1059 0
M  V30 2345 N 239.039 3.44164 -3.10008 0
M  V30 2346 C 239.774 4.18284 -3.92206 0
M  V30 2347 N 239.27 4.95322 -4.84384 0
M  V30 2348 N 241.063 4.13865 -3.80357 0
M  V30 2349 H 233.214 0.70144 -2.00483 0
M  V30 2350 H 235.477 0.371405 -0.872217 0
M  V30 2351 H 235.183 1.90251 -2.958 0
M  V30 2352 H 235.057 3.27485 -1.87172 0
M  V30 2353 H 237.444 2.76982 -1.01808 0
M  V30 2354 H 237.525 1.40305 -2.13888 0
M  V30 2355 H 237.169 3.01096 -4.09028 0
M  V30 2356 H 237.099 4.36918 -2.93956 0
M  V30 2357 H 239.59 2.8922 -2.43228 0
M  V30 2358 H 239.903 5.49267 -5.43623 0
M  V30 2359 H 238.248 4.94459 -4.884 0
M  V30 2360 H 241.439 3.52773 -3.07683 0
M  V30 2361 H 241.612 4.71372 -4.44649 0
M  V30 2362 N 235.018 0.912232 1.28515 0
M  V30 2363 C 236.265 0.544599 1.95039 0
M  V30 2364 C 236.593 -0.911435 1.71823 0
M  V30 2365 O 235.848 -1.66317 1.03137 0
M  V30 2366 C 236.147 0.798392 3.48368 0
M  V30 2367 C 235.813 2.23374 3.91682 0
M  V30 2368 C 234.475 2.62617 4.03219 0
M  V30 2369 C 236.827 3.16786 4.13879 0
M  V30 2370 C 234.155 3.94429 4.3433 0
M  V30 2371 C 236.507 4.48161 4.46469 0
M  V30 2372 C 235.171 4.8726 4.56217 0
M  V30 2373 H 234.441 0.199283 0.7137 0
M  V30 2374 H 237.088 1.15327 1.52879 0
M  V30 2375 H 235.393 0.106908 3.91654 0
M  V30 2376 H 237.09 0.493141 3.97956 0
M  V30 2377 H 233.68 1.91922 3.83228 0
M  V30 2378 H 237.864 2.87677 4.0442 0
M  V30 2379 H 233.12 4.24426 4.40082 0
M  V30 2380 H 237.294 5.20559 4.62592 0
M  V30 2381 H 234.921 5.89431 4.80078 0
M  V30 2382 N 236.496 -1.42363 0.676048 0
M  V30 2383 C 237.428 -2.29164 -0.0404605 0
M  V30 2384 C 238.441 -1.43747 -0.764245 0
M  V30 2385 O 239.63 -1.67453 -0.618195 0
M  V30 2386 C 236.73 -3.21196 -1.08103 0
M  V30 2387 C 235.903 -4.35273 -0.430812 0
M  V30 2388 C 234.962 -5.08017 -1.37133 0
M  V30 2389 O 233.988 -5.62494 -0.87116 0
M  V30 2390 N 235.19 -5.13647 -2.70456 0
M  V30 2391 H 237.955 -2.91298 0.704667 0
M  V30 2392 H 235.516 -1.53303 0.520559 0
M  V30 2393 H 237.508 -3.66728 -1.71152 0
M  V30 2394 H 236.078 -2.60505 -1.72788 0
M  V30 2395 H 235.298 -3.92372 0.379209 0
M  V30 2396 H 236.586 -5.08795 0.0221132 0
M  V30 2397 H 235.984 -4.708 -3.1363 0
M  V30 2398 H 234.541 -5.62821 -3.28749 0
M  V30 2399 N 237.974 -0.419461 -1.51915 0
M  V30 2400 C 238.922 0.415502 -2.28859 0
M  V30 2401 C 239.916 1.03674 -1.3397 0
M  V30 2402 O 241.122 0.973757 -1.51387 0
M  V30 2403 H 237.497 0.152786 -0.736315 0
M  V30 2404 H 239.468 -0.254531 -2.97312 0
M  V30 2405 C 238.217 1.51425 -3.12995 0
M  V30 2406 H 237.54 1.04556 -3.85886 0
M  V30 2407 H 238.98 2.07208 -3.6992 0
M  V30 2408 C 237.439 2.48745 -2.27217 0
M  V30 2409 O 237.969 3.52871 -1.9195 0
M  V30 2410 N 236.175 2.19202 -1.90785 0
M  V30 2411 H 235.722 1.34556 -2.19664 0
M  V30 2412 H 235.68 2.84561 -1.33687 0
M  V30 2413 N 239.452 1.56882 -0.150215 0
M  V30 2414 C 240.699 1.96228 0.500093 0
M  V30 2415 C 241.027 1.03522 1.64661 0
M  V30 2416 O 240.282 0.0650683 1.95592 0
M  V30 2417 C 240.581 3.41801 1.04437 0
M  V30 2418 C 240.247 4.50897 0.0159671 0
M  V30 2419 C 238.909 4.8046 -0.266731 0
M  V30 2420 C 241.261 5.16703 -0.683192 0
M  V30 2421 C 238.589 5.73135 -1.25434 0
M  V30 2422 C 240.941 6.10441 -1.65964 0
M  V30 2423 C 239.605 6.38382 -1.95 0
M  V30 2424 H 238.875 0.718048 0.182997 0
M  V30 2425 H 241.522 1.90019 -0.237724 0
M  V30 2426 H 239.827 3.44857 1.85959 0
M  V30 2427 H 241.524 3.69573 1.55618 0
M  V30 2428 H 238.114 4.27891 0.246485 0
M  V30 2429 H 242.298 4.93993 -0.477983 0
M  V30 2430 H 237.554 5.93074 -1.48571 0
M  V30 2431 H 241.728 6.60507 -2.20689 0
M  V30 2432 H 239.355 7.09996 -2.71679 0
M  V30 2433 N 240.93 -0.123565 1.57115 0
M  V30 2434 C 242.177 -0.832153 1.84612 0
M  V30 2435 C 242.505 -1.80093 0.734627 0
M  V30 2436 O 241.76 -1.93766 -0.27442 0
M  V30 2437 C 242.059 -1.62016 3.18568 0
M  V30 2438 C 241.725 -0.796084 4.43817 0
M  V30 2439 C 240.387 -0.568816 4.77826 0
M  V30 2440 C 242.739 -0.221364 5.2073 0
M  V30 2441 C 240.067 0.243499 5.86194 0
M  V30 2442 C 242.419 0.578117 6.29953 0
M  V30 2443 C 241.083 0.815744 6.62497 0
M  V30 2444 H 240.353 -0.304507 0.675542 0
M  V30 2445 H 243 -0.0947248 1.91266 0
M  V30 2446 H 241.305 -2.42837 3.0747 0
M  V30 2447 H 243.002 -2.17231 3.37064 0
M  V30 2448 H 239.592 -0.983307 4.17168 0
M  V30 2449 H 243.776 -0.384173 4.94811 0
M  V30 2450 H 239.032 0.436871 6.09837 0
M  V30 2451 H 243.206 1.03046 6.88734 0
M  V30 2452 H 240.833 1.44701 7.46301 0
M  V30 2453 N 242.408 -1.52605 -0.393616 0
M  V30 2454 C 243.819 -1.59417 -0.971761 0
M  V30 2455 C 244.17 -0.444173 -1.91106 0
M  V30 2456 O 243.295 0.433382 -2.12016 0
M  V30 2457 C 243.89 -2.88936 -1.76921 0
M  V30 2458 C 242.449 -2.98175 -2.29714 0
M  V30 2459 C 241.596 -2.54491 -1.10135 0
M  V30 2460 H 244.547 -1.57751 -0.173317 0
M  V30 2461 H 244.568 -2.75163 -2.62804 0
M  V30 2462 H 244.08 -3.72616 -1.08532 0
M  V30 2463 H 242.181 -2.19024 -3.01429 0
M  V30 2464 H 242.294 -4.02726 -2.59517 0
M  V30 2465 H 240.658 -2.08702 -1.45999 0
M  V30 2466 H 241.441 -3.4056 -0.432874 0
M  V30 2467 N 243.887 0.651787 -1.4349 0
M  V30 2468 C 245.136 1.40754 -1.44469 0
M  V30 2469 C 245.449 1.95463 -0.0731845 0
M  V30 2470 O 246.655 2.71471 0.0395721 0
M  V30 2471 C 245.111 2.54735 -2.5424 0
M  V30 2472 C 244.719 2.06628 -3.97504 0
M  V30 2473 C 246.463 3.32092 -2.64414 0
M  V30 2474 C 244.37 3.17829 -4.98737 0
M  V30 2475 H 243.3 0.528862 -0.53742 0
M  V30 2476 H 245.951 0.703365 -1.69485 0
M  V30 2477 H 244.333 3.2763 -2.22428 0
M  V30 2478 H 245.507 1.40734 -4.38783 0
M  V30 2479 H 243.822 1.42146 -3.91387 0
M  V30 2480 H 246.419 4.14952 -3.37223 0
M  V30 2481 H 246.762 3.80217 -1.69532 0
M  V30 2482 H 247.295 2.66279 -2.95534 0
M  V30 2483 H 244.034 2.74671 -5.95177 0
M  V30 2484 H 243.554 3.82429 -4.62069 0
M  V30 2485 H 245.233 3.82937 -5.21505 0
M  V30 2486 N 245.365 1.30045 0.890287 0
M  V30 2487 C 246.593 1.21472 1.67487 0
M  V30 2488 C 247.008 -0.223241 1.87476 0
M  V30 2489 O 246.365 -1.14828 1.41847 0
M  V30 2490 C 246.416 1.93394 3.05419 0
M  V30 2491 O 246.137 3.31576 2.86337 0
M  V30 2492 C 247.638 1.91414 3.99844 0
M  V30 2493 H 244.858 0.420604 0.522813 0
M  V30 2494 H 247.402 1.7158 1.11268 0
M  V30 2495 H 245.557 1.47099 3.58386 0
M  V30 2496 H 245.971 3.67929 3.73802 0
M  V30 2497 H 247.445 2.46285 4.94012 0
M  V30 2498 H 247.922 0.891833 4.3005 0
M  V30 2499 H 248.528 2.37496 3.52811 0
M  V30 2500 N 246.843 -1.10192 1.12674 0
M  V30 2501 C 247.806 -2.14786 0.799979 0
M  V30 2502 C 248.806 -1.59711 -0.18685 0
M  V30 2503 O 249.996 -1.74156 0.0392558 0
M  V30 2504 C 247.128 -3.40374 0.189228 0
M  V30 2505 H 248.321 -2.45203 1.72671 0
M  V30 2506 H 245.874 -1.25597 0.930326 0
M  V30 2507 H 246.609 -3.15577 -0.747107 0
M  V30 2508 H 246.394 -3.81637 0.899766 0
M  V30 2509 H 247.884 -4.17594 -0.0228143 0
M  V30 2510 N 248.321 -0.919034 -1.28029 0
M  V30 2511 C 249.567 -0.555757 -1.95036 0
M  V30 2512 C 249.9 0.899198 -1.72128 0
M  V30 2513 O 249.175 1.64023 -1.04531 0
M  V30 2514 C 249.458 -0.872024 -3.49382 0
M  V30 2515 C 249.311 -2.3801 -3.81669 0
M  V30 2516 C 250.63 -0.37185 -4.38526 0
M  V30 2517 H 247.749 -0.203386 -0.708381 0
M  V30 2518 H 250.391 -1.14924 -1.51303 0
M  V30 2519 H 248.541 -0.366946 -3.86763 0
M  V30 2520 H 250.213 -2.9562 -3.54128 0
M  V30 2521 H 248.456 -2.83289 -3.28526 0
M  V30 2522 H 249.127 -2.55192 -4.8947 0
M  V30 2523 H 251.603 -0.804602 -4.08247 0
M  V30 2524 H 250.479 -0.622173 -5.45362 0
M  V30 2525 H 250.74 0.727934 -4.36066 0
M  V30 2526 N 249.799 1.42003 -0.683588 0
M  V30 2527 C 251.046 2.01413 -0.209514 0
M  V30 2528 C 251.374 1.54088 1.1869 0
M  V30 2529 O 250.629 0.737591 1.81268 0
M  V30 2530 C 250.928 3.56827 -0.202357 0
M  V30 2531 C 250.594 4.23617 -1.54464 0
M  V30 2532 C 249.256 4.41577 -1.91215 0
M  V30 2533 C 251.608 4.61178 -2.42826 0
M  V30 2534 C 248.936 4.9437 -3.15935 0
M  V30 2535 C 251.288 5.15355 -3.66867 0
M  V30 2536 C 249.952 5.31528 -4.03776 0
M  V30 2537 H 249.222 0.737023 -0.0766668 0
M  V30 2538 H 251.869 1.70067 -0.880312 0
M  V30 2539 H 250.174 3.87892 0.551969 0
M  V30 2540 H 251.871 4.00588 0.181793 0
M  V30 2541 H 248.461 4.10004 -1.24877 0
M  V30 2542 H 252.645 4.46968 -2.15717 0
M  V30 2543 H 247.901 5.05076 -3.44541 0
M  V30 2544 H 252.075 5.43402 -4.35531 0
M  V30 2545 H 249.702 5.72199 -5.00492 0
M  V30 2546 N 251.277 0.427512 1.51691 0
M  V30 2547 C 252.24 -0.377132 2.26076 0
M  V30 2548 C 253.24 -0.958089 1.29141 0
M  V30 2549 O 254.43 -0.83408 1.52934 0
M  V30 2550 C 251.562 -1.53262 3.04506 0
M  V30 2551 H 252.755 0.27464 2.9864 0
M  V30 2552 H 250.308 0.180445 1.55255 0
M  V30 2553 H 251.043 -2.22072 2.36335 0
M  V30 2554 H 250.828 -1.12232 3.75694 0
M  V30 2555 H 252.318 -2.10135 3.60878 0
M  V30 2556 N 252.755 -1.56801 0.158532 0
M  V30 2557 C 253.98 -2.01295 -0.499516 0
M  V30 2558 C 254.405 -1.03799 -1.56867 0
M  V30 2559 O 253.763 -0.0155162 -1.81293 0
M  V30 2560 C 253.811 -3.44469 -1.06647 0
M  V30 2561 O 252.915 -3.50012 -2.18095 0
M  V30 2562 H 252.256 -0.652884 -0.12099 0
M  V30 2563 H 254.786 -2.02958 0.258661 0
M  V30 2564 H 254.796 -3.8351 -1.39227 0
M  V30 2565 H 253.471 -4.14932 -0.283581 0
M  V30 2566 H 252.048 -3.22822 -1.86656 0
M  V30 2567 N 254.233 0.115231 -1.57178 0
M  V30 2568 C 255.482 0.820945 -1.84237 0
M  V30 2569 C 255.795 1.80866 -0.744761 0
M  V30 2570 O 257.001 2.56083 -0.901871 0
M  V30 2571 C 255.457 1.51072 -3.26658 0
M  V30 2572 C 255.065 0.563795 -4.44438 0
M  V30 2573 C 256.809 2.20134 -3.62962 0
M  V30 2574 C 254.716 1.25701 -5.77887 0
M  V30 2575 H 253.646 0.310328 -0.687177 0
M  V30 2576 H 256.297 0.0737134 -1.83352 0
M  V30 2577 H 254.679 2.30471 -3.22024 0
M  V30 2578 H 255.853 -0.197247 -4.60378 0
M  V30 2579 H 254.168 -0.0200638 -4.16395 0
M  V30 2580 H 256.765 2.72696 -4.59936 0
M  V30 2581 H 257.108 2.98107 -2.90582 0
M  V30 2582 H 257.641 1.47619 -3.69396 0
M  V30 2583 H 254.38 0.518493 -6.53446 0
M  V30 2584 H 253.9 1.98997 -5.65827 0
M  V30 2585 H 255.579 1.78915 -6.2177 0
M  V30 2586 N 255.711 1.52812 0.385517 0
M  V30 2587 C 256.941 1.71658 1.14966 0
M  V30 2588 C 257.349 0.436253 1.84102 0
M  V30 2589 O 256.692 -0.599313 1.73649 0
M  V30 2590 C 256.754 2.81309 2.23843 0
M  V30 2591 C 256.418 4.22313 1.74644 0
M  V30 2592 C 257.415 5.05352 1.22129 0
M  V30 2593 C 255.1 4.68648 1.80761 0
M  V30 2594 C 257.094 6.32807 0.763838 0
M  V30 2595 C 254.781 5.96086 1.34627 0
M  V30 2596 C 255.779 6.77996 0.825264 0
M  V30 2597 O 255.467 8.03045 0.370669 0
M  V30 2598 H 255.199 0.578022 0.350523 0
M  V30 2599 H 257.753 2.00263 0.456509 0
M  V30 2600 H 255.983 2.48133 2.96592 0
M  V30 2601 H 257.672 2.88524 2.85497 0
M  V30 2602 H 258.438 4.70736 1.16758 0
M  V30 2603 H 254.317 4.04979 2.20256 0
M  V30 2604 H 257.861 6.96689 0.356494 0
M  V30 2605 H 253.758 6.30205 1.39686 0
M  V30 2606 H 254.526 8.17021 0.491829 0
M  V30 2607 N 257.189 -0.644168 1.43834 0
M  V30 2608 C 258.414 -1.43642 1.49605 0
M  V30 2609 C 258.839 -1.8773 0.117913 0
M  V30 2610 O 258.197 -1.57938 -0.890239 0
M  V30 2611 C 258.245 -2.6416 2.45463 0
M  V30 2612 O 257.349 -3.63538 1.94714 0
M  V30 2613 H 256.69 -0.430329 0.50568 0
M  V30 2614 H 259.22 -0.787448 1.8884 0
M  V30 2615 H 259.23 -3.11864 2.63068 0
M  V30 2616 H 257.905 -2.31414 3.45572 0
M  V30 2617 H 256.482 -3.2273 1.86814 0
M  V30 2618 N 258.668 -1.30515 -0.883378 0
M  V30 2619 C 259.601 -1.11359 -1.99184 0
M  V30 2620 C 260.579 -0.0207858 -1.62587 0
M  V30 2621 O 261.763 -0.174646 -1.87689 0
M  V30 2622 C 258.89 -0.69871 -3.31415 0
M  V30 2623 C 257.936 -1.79261 -3.86998 0
M  V30 2624 S 258.769 -3.39536 -4.14096 0
M  V30 2625 C 259.925 -2.99954 -5.49344 0
M  V30 2626 H 260.158 -2.052 -2.15128 0
M  V30 2627 H 257.691 -1.14847 -1.03196 0
M  V30 2628 H 259.649 -0.466075 -4.07846 0
M  V30 2629 H 258.31 0.220368 -3.13326 0
M  V30 2630 H 257.503 -1.45464 -4.82552 0
M  V30 2631 H 257.105 -1.97961 -3.17313 0
M  V30 2632 H 259.397 -2.48013 -6.30473 0
M  V30 2633 H 260.34 -3.9442 -5.8808 0
M  V30 2634 H 260.748 -2.37775 -5.1198 0
M  V30 2635 N 260.146 1.09593 -1.13257 0
M  V30 2636 C 261.374 1.855 -0.916378 0
M  V30 2637 C 261.789 1.81069 0.534738 0
M  V30 2638 O 261.146 1.20562 1.37007 0
M  V30 2639 C 261.197 3.33546 -1.39388 0
M  V30 2640 O 260.918 3.37927 -2.78813 0
M  V30 2641 C 262.419 4.26299 -1.21588 0
M  V30 2642 H 259.639 0.585991 -0.326887 0
M  V30 2643 H 262.183 1.38488 -1.5047 0
M  V30 2644 H 260.338 3.77992 -0.848597 0
M  V30 2645 H 260.752 4.30254 -2.9997 0
M  V30 2646 H 262.226 5.28341 -1.59876 0
M  V30 2647 H 262.703 4.38918 -0.157376 0
M  V30 2648 H 263.309 3.87668 -1.7491 0
M  V30 2649 N 261.624 0.925811 1.2754 0
M  V30 2650 C 262.587 0.428129 2.25166 0
M  V30 2651 C 263.587 -0.452261 1.54309 0
M  V30 2652 O 264.777 -0.253608 1.72344 0
M  V30 2653 C 261.909 -0.384749 3.38722 0
M  V30 2654 H 263.102 1.29066 2.70706 0
M  V30 2655 H 260.655 0.706323 1.3943 0
M  V30 2656 H 261.39 -1.26618 2.98561 0
M  V30 2657 H 261.175 0.246454 3.91325 0
M  V30 2658 H 262.665 -0.723389 4.11287 0
M  V30 2659 N 263.102 -1.41638 0.69111 0
M  V30 2660 C 264.351 -2.00526 0.217318 0
M  V30 2661 C 264.664 -1.55353 -1.18848 0
M  V30 2662 O 265.87 -2.06769 -1.75951 0
M  V30 2663 C 264.326 -3.58313 0.337639 0
M  V30 2664 C 263.934 -4.12469 1.74852 0
M  V30 2665 C 265.678 -4.24431 -0.0766066 0
M  V30 2666 C 263.585 -5.62675 1.82074 0
M  V30 2667 H 262.515 -0.750008 0.0774893 0
M  V30 2668 H 265.166 -1.6217 0.858661 0
M  V30 2669 H 263.548 -3.9425 -0.371879 0
M  V30 2670 H 264.722 -3.8796 2.48644 0
M  V30 2671 H 263.037 -3.58861 2.11205 0
M  V30 2672 H 265.634 -5.34683 -0.0430284 0
M  V30 2673 H 265.977 -4.01101 -1.1146 0
M  V30 2674 H 266.51 -3.93512 0.582476 0
M  V30 2675 H 263.249 -5.90826 2.83911 0
M  V30 2676 H 262.769 -5.89124 1.12661 0
M  V30 2677 H 264.448 -6.27371 1.58159 0
M  V30 2678 N 264.58 -0.43555 -1.51462 0
M  V30 2679 C 265.543 0.365137 -2.26273 0
M  V30 2680 C 266.543 0.951227 -1.29647 0
M  V30 2681 O 267.733 0.825958 -1.53374 0
M  V30 2682 C 264.865 1.51645 -3.05314 0
M  V30 2683 H 266.058 -0.290474 -2.9849 0
M  V30 2684 H 263.611 -0.188676 -1.55157 0
M  V30 2685 H 264.346 2.20816 -2.3751 0
M  V30 2686 H 264.131 1.10238 -3.76284 0
M  V30 2687 H 265.621 2.08218 -3.61987 0
M  V30 2688 N 266.058 1.56714 -0.166846 0
M  V30 2689 C 267.304 1.97039 0.479962 0
M  V30 2690 C 267.637 1.05264 1.63197 0
M  V30 2691 O 266.912 0.0988833 1.94248 0
M  V30 2692 C 267.195 3.46867 0.967212 0
M  V30 2693 C 267.048 4.49421 -0.18466 0
M  V30 2694 C 268.367 3.9968 1.84238 0
M  V30 2695 H 265.486 0.71641 0.172992 0
M  V30 2696 H 268.128 1.8832 -0.252079 0
M  V30 2697 H 266.278 3.54428 1.59101 0
M  V30 2698 H 267.95 4.53924 -0.821621 0
M  V30 2699 H 266.193 4.25573 -0.840837 0
M  V30 2700 H 266.864 5.51644 0.198317 0
M  V30 2701 H 269.34 3.94723 1.31655 0
M  V30 2702 H 268.216 5.04941 2.15234 0
M  V30 2703 H 268.477 3.43226 2.78654 0
M  V30 2704 N 267.536 -0.106894 1.57237 0
M  V30 2705 C 268.813 -0.843526 1.76477 0
M  V30 2706 C 269.193 -1.97499 0.745464 0
M  V30 2707 O 268.541 -2.27357 -0.228306 0
M  V30 2708 C 268.751 -1.34903 3.21873 0
M  V30 2709 C 270.099 -1.79654 3.8472 0
M  V30 2710 O 271.123 -1.44554 3.2555 0
M  V30 2711 O 269.982 -2.44515 4.88748 0
M  V30 2712 H 267.076 -0.401468 0.723016 0
M  V30 2713 H 269.622 -0.0896927 1.69463 0
M  V30 2714 H 268.394 -0.53781 3.87586 0
M  V30 2715 H 268.017 -2.16522 3.33473 0
M  V30 2716 N 269.014 -1.53014 -0.377408 0
M  V30 2717 C 270.43 -1.42523 -0.718281 0
M  V30 2718 C 270.63 -0.55487 -1.9371 0
M  V30 2719 O 269.686 -0.0327593 -2.52479 0
M  V30 2720 C 270.999 -2.85546 -0.942539 0
M  V30 2721 C 272.547 -2.95101 -1.04329 0
M  V30 2722 C 273.022 -4.3916 -1.3001 0
M  V30 2723 N 274.513 -4.42536 -1.36806 0
M  V30 2724 C 275.248 -5.51097 -1.58364 0
M  V30 2725 N 274.744 -6.69724 -1.77317 0
M  V30 2726 N 276.537 -5.38657 -1.60638 0
M  V30 2727 H 268.688 -2.08116 0.424426 0
M  V30 2728 H 270.951 -0.939352 0.127759 0
M  V30 2729 H 270.657 -3.51499 -0.118929 0
M  V30 2730 H 270.531 -3.28493 -1.85397 0
M  V30 2731 H 272.918 -2.29309 -1.85745 0
M  V30 2732 H 272.999 -2.55566 -0.109505 0
M  V30 2733 H 272.643 -5.05521 -0.490991 0
M  V30 2734 H 272.573 -4.76258 -2.24691 0
M  V30 2735 H 275.064 -3.57039 -1.23821 0
M  V30 2736 H 275.377 -7.48233 -1.93306 0
M  V30 2737 H 273.722 -6.72732 -1.74518 0
M  V30 2738 H 276.913 -4.44948 -1.45391 0
M  V30 2739 H 277.086 -6.2333 -1.77098 0
M  V30 2740 N 270.492 0.636531 -1.44174 0
M  V30 2741 C 271.722 1.42146 -1.49927 0
M  V30 2742 C 272.13 1.88812 -0.121063 0
M  V30 2743 O 271.473 1.61126 0.882267 0
M  V30 2744 C 271.535 2.67883 -2.39748 0
M  V30 2745 C 271.199 2.43048 -3.8701 0
M  V30 2746 C 272.196 2.05216 -4.77684 0
M  V30 2747 C 269.881 2.56856 -4.3166 0
M  V30 2748 C 271.875 1.81512 -6.11009 0
M  V30 2749 C 269.562 2.32766 -5.65034 0
M  V30 2750 C 270.56 1.95152 -6.54526 0
M  V30 2751 O 270.248 1.71326 -7.85431 0
M  V30 2752 H 269.98 0.442567 -0.51099 0
M  V30 2753 H 272.534 0.786158 -1.8976 0
M  V30 2754 H 270.764 3.34032 -1.94832 0
M  V30 2755 H 272.453 3.29874 -2.36513 0
M  V30 2756 H 273.219 1.94111 -4.44462 0
M  V30 2757 H 269.098 2.85104 -3.62266 0
M  V30 2758 H 272.642 1.52077 -6.80822 0
M  V30 2759 H 268.539 2.43479 -5.97819 0
M  V30 2760 H 269.307 1.85616 -7.97176 0
M  V30 2761 N 271.97 1.30982 0.876444 0
M  V30 2762 C 272.903 1.12414 1.98591 0
M  V30 2763 C 273.881 0.0294078 1.62573 0
M  V30 2764 O 275.065 0.184598 1.87594 0
M  V30 2765 C 272.192 0.716276 3.3104 0
M  V30 2766 C 271.238 1.81311 3.86042 0
M  V30 2767 S 272.071 3.41727 4.1229 0
M  V30 2768 C 273.227 3.02863 5.47745 0
M  V30 2769 H 273.46 2.06338 2.14037 0
M  V30 2770 H 270.993 1.15393 1.02586 0
M  V30 2771 H 272.951 0.487697 4.07593 0
M  V30 2772 H 271.612 -0.203749 3.13438 0
M  V30 2773 H 270.805 1.48021 4.81774 0
M  V30 2774 H 270.407 1.99641 3.16259 0
M  V30 2775 H 272.699 2.51353 6.29148 0
M  V30 2776 H 273.642 3.97533 5.8598 0
M  V30 2777 H 274.05 2.40487 5.10711 0
M  V30 2778 N 273.449 -1.08991 1.13837 0
M  V30 2779 C 274.412 -2.13925 0.822715 0
M  V30 2780 C 275.412 -1.599 -0.1699 0
M  V30 2781 O 276.602 -1.74104 0.0577251 0
M  V30 2782 C 273.734 -3.40155 0.225318 0
M  V30 2783 H 274.927 -2.43358 1.75262 0
M  V30 2784 H 272.48 -1.24603 0.943594 0
M  V30 2785 H 273.215 -3.16352 -0.713594 0
M  V30 2786 H 273 -3.80661 0.940193 0
M  V30 2787 H 274.49 -4.17594 0.0214784 0
M  V30 2788 N 274.927 -0.932562 -1.27047 0
M  V30 2789 C 276.176 -0.571351 -1.93439 0
M  V30 2790 C 276.489 0.892467 -1.74053 0
M  V30 2791 O 277.695 1.36267 -2.34826 0
M  V30 2792 C 276.151 -0.97106 -3.46552 0
M  V30 2793 C 275.759 -2.4559 -3.74686 0
M  V30 2794 C 277.503 -0.681333 -4.18997 0
M  V30 2795 C 275.41 -2.79475 -5.21198 0
M  V30 2796 H 274.34 -0.209966 -0.724176 0
M  V30 2797 H 276.991 -1.13403 -1.44263 0
M  V30 2798 H 275.373 -0.336983 -3.94564 0
M  V30 2799 H 276.547 -3.13829 -3.37414 0
M  V30 2800 H 274.862 -2.71802 -3.15456 0
M  V30 2801 H 277.459 -0.910939 -5.26883 0
M  V30 2802 H 277.802 0.381628 -4.14547 0
M  V30 2803 H 278.335 -1.27473 -3.76823 0
M  V30 2804 H 275.074 -3.847 -5.30741 0
M  V30 2805 H 274.594 -2.1589 -5.596 0
M  V30 2806 H 276.273 -2.67478 -5.89122 0
M  V30 2807 N 276.405 1.4127 -0.698611 0
M  V30 2808 C 277.654 2.00408 -0.227949 0
M  V30 2809 C 277.967 1.55981 1.18023 0
M  V30 2810 O 279.173 2.07699 1.74852 0
M  V30 2811 C 277.629 3.58129 -0.356636 0
M  V30 2812 C 277.237 4.11536 -1.77037 0
M  V30 2813 C 278.981 4.24466 0.0540969 0
M  V30 2814 C 276.888 5.61701 -1.85055 0
M  V30 2815 H 275.818 0.749586 -0.0814657 0
M  V30 2816 H 278.469 1.61713 -0.867249 0
M  V30 2817 H 276.851 3.94442 0.350965 0
M  V30 2818 H 278.025 3.86636 -2.50698 0
M  V30 2819 H 276.34 3.57736 -2.13105 0
M  V30 2820 H 278.937 5.34698 0.0146723 0
M  V30 2821 H 279.28 4.01687 1.09332 0
M  V30 2822 H 279.813 3.93198 -0.603337 0
M  V30 2823 H 276.552 5.89312 -2.8704 0
M  V30 2824 H 276.072 5.88519 -1.15783 0
M  V30 2825 H 277.751 6.26524 -1.61484 0
M  V30 2826 N 277.883 0.443576 1.51229 0
M  V30 2827 C 279.16 -0.181038 1.9476 0
M  V30 2828 C 279.54 -1.59523 1.38259 0
M  V30 2829 O 278.888 -2.2122 0.572198 0
M  V30 2830 C 279.098 -0.152422 3.48667 0
M  V30 2831 C 280.446 -0.354923 4.23114 0
M  V30 2832 O 281.47 -0.230257 3.55455 0
M  V30 2833 O 280.329 -0.603674 5.43156 0
M  V30 2834 H 277.423 -0.1266 0.817252 0
M  V30 2835 H 279.969 0.502004 1.62105 0
M  V30 2836 H 278.741 0.836022 3.82265 0
M  V30 2837 H 278.364 -0.878107 3.87782 0
M  V30 2838 N 279.361 -1.56624 0.175154 0
M  V30 2839 C 280.772 -1.83561 -0.340916 0
M  V30 2840 C 281.123 -1.09511 -1.62794 0
M  V30 2841 O 280.248 -0.349389 -2.13561 0
M  V30 2842 C 280.843 -3.32979 -0.625313 0
M  V30 2843 C 279.402 -3.60399 -1.08581 0
M  V30 2844 C 278.549 -2.77024 -0.123722 0
M  V30 2845 H 281.5 -1.53593 0.399344 0
M  V30 2846 H 281.521 -3.50666 -1.47694 0
M  V30 2847 H 281.033 -3.86847 0.311575 0
M  V30 2848 H 279.134 -3.11945 -2.03767 0
M  V30 2849 H 279.247 -4.68711 -0.992317 0
M  V30 2850 H 277.611 -2.46993 -0.621821 0
M  V30 2851 H 278.394 -3.33674 0.807256 0
M  V30 2852 N 280.839 0.0985539 -1.57292 0
M  V30 2853 C 281.769 1.12064 -2.04851 0
M  V30 2854 C 282.75 1.41981 -0.936767 0
M  V30 2855 O 283.935 1.52071 -1.20781 0
M  V30 2856 C 281.065 2.44144 -2.47004 0
M  V30 2857 C 280.019 2.28643 -3.6181 0
M  V30 2858 C 279.345 3.65869 -3.89929 0
M  V30 2859 C 280.645 1.72986 -4.92822 0
M  V30 2860 H 282.339 0.724979 -2.9049 0
M  V30 2861 H 279.885 0.34729 -1.39749 0
M  V30 2862 H 281.838 3.15914 -2.78884 0
M  V30 2863 H 280.562 2.85639 -1.5836 0
M  V30 2864 H 279.221 1.59318 -3.30172 0
M  V30 2865 H 278.869 4.04885 -2.98458 0
M  V30 2866 H 278.569 3.56344 -4.67218 0
M  V30 2867 H 280.093 4.39112 -4.2428 0
M  V30 2868 H 281.507 2.34593 -5.23105 0
M  V30 2869 H 279.904 1.74229 -5.74251 0
M  V30 2870 H 280.974 0.689007 -4.7998 0
M  V30 2871 N 282.317 1.53212 0.369288 0
M  V30 2872 C 283.264 1.79388 1.45219 0
M  V30 2873 C 284.234 0.638059 1.53356 0
M  V30 2874 O 285.419 0.879852 1.69302 0
M  V30 2875 C 282.559 1.98623 2.82211 0
M  V30 2876 C 281.672 3.26337 2.8307 0
M  V30 2877 C 280.807 3.35779 4.11614 0
M  V30 2878 C 279.846 4.5754 4.06601 0
M  V30 2879 N 278.983 4.64155 5.26787 0
M  V30 2880 H 283.823 2.71794 1.22198 0
M  V30 2881 H 281.36 1.34642 0.592444 0
M  V30 2882 H 283.318 2.07761 3.61789 0
M  V30 2883 H 281.948 1.09558 3.03639 0
M  V30 2884 H 281 3.26171 1.95747 0
M  V30 2885 H 282.312 4.15988 2.75237 0
M  V30 2886 H 281.466 3.44208 4.99606 0
M  V30 2887 H 280.205 2.44137 4.22195 0
M  V30 2888 H 279.21 4.49215 3.16996 0
M  V30 2889 H 280.435 5.50519 3.97625 0
M  V30 2890 H 278.381 3.75413 5.3796 0
M  V30 2891 H 278.298 5.47706 5.21109 0
M  V30 2892 H 279.566 4.76863 6.16621 0
M  V30 2893 N 283.795 -0.628877 1.44509 0
M  V30 2894 C 285.206 -1.21054 1.42137 0
M  V30 2895 C 285.557 -1.95715 0.137881 0
M  V30 2896 O 284.682 -2.02554 -0.761645 0
M  V30 2897 C 285.277 -2.20189 2.57493 0
M  V30 2898 C 283.836 -2.73777 2.58308 0
M  V30 2899 C 282.983 -1.48813 2.33987 0
M  V30 2900 H 285.934 -0.41942 1.53057 0
M  V30 2901 H 285.955 -3.02833 2.30375 0
M  V30 2902 H 285.467 -1.6582 3.50892 0
M  V30 2903 H 283.568 -3.32142 1.68856 0
M  V30 2904 H 283.681 -3.19662 3.56865 0
M  V30 2905 H 282.045 -1.77024 1.83124 0
M  V30 2906 H 282.828 -0.963442 3.29504 0
M  V30 2907 N 285.273 -1.31445 -0.869486 0
M  V30 2908 C 286.689 -1.10113 -1.15531 0
M  V30 2909 C 286.889 0.128087 -2.01092 0
M  V30 2910 O 285.945 0.817276 -2.38908 0
M  V30 2911 C 287.258 -2.37291 -1.84698 0
M  V30 2912 C 288.806 -2.42906 -1.97397 0
M  V30 2913 C 289.281 -3.69967 -2.69979 0
M  V30 2914 N 290.772 -3.70864 -2.77514 0
M  V30 2915 C 291.507 -4.65875 -3.34287 0
M  V30 2916 N 291.003 -5.71242 -3.91988 0
M  V30 2917 N 292.796 -4.53394 -3.3225 0
M  V30 2918 H 284.947 -2.1028 -0.299347 0
M  V30 2919 H 287.21 -0.927683 -0.195214 0
M  V30 2920 H 286.916 -3.27078 -1.29278 0
M  V30 2921 H 286.79 -2.47125 -2.84972 0
M  V30 2922 H 289.177 -1.53588 -2.51982 0
M  V30 2923 H 289.258 -2.37036 -0.961643 0
M  V30 2924 H 288.902 -4.59652 -2.16062 0
M  V30 2925 H 288.832 -3.73103 -3.7162 0
M  V30 2926 H 291.323 -2.94697 -2.36563 0
M  V30 2927 H 291.636 -6.39817 -4.33421 0
M  V30 2928 H 289.981 -5.75015 -3.90362 0
M  V30 2929 H 293.172 -3.70252 -2.8641 0
M  V30 2930 H 293.345 -5.27617 -3.76197 0
M  V30 2931 N 286.751 1.08385 -1.14413 0
M  V30 2932 C 287.681 2.17321 -0.854044 0
M  V30 2933 C 288.662 1.69024 0.191049 0
M  V30 2934 O 289.847 1.94141 0.0476779 0
M  V30 2935 C 286.977 3.45719 -0.330983 0
M  V30 2936 C 285.931 4.07409 -1.31155 0
M  V30 2937 C 285.257 5.30762 -0.64778 0
M  V30 2938 C 286.557 4.48665 -2.67388 0
M  V30 2939 H 288.251 2.41845 -1.76498 0
M  V30 2940 H 285.797 1.16233 -0.850051 0
M  V30 2941 H 287.75 4.21241 -0.115645 0
M  V30 2942 H 286.474 3.2075 0.615381 0
M  V30 2943 H 285.133 3.33919 -1.51306 0
M  V30 2944 H 284.781 5.02078 0.304398 0
M  V30 2945 H 284.481 5.72992 -1.30207 0
M  V30 2946 H 286.005 6.08998 -0.441972 0
M  V30 2947 H 287.419 5.15364 -2.51143 0
M  V30 2948 H 285.816 5.01814 -3.29093 0
M  V30 2949 H 286.886 3.60543 -3.24248 0
M  V30 2950 N 288.23 0.939286 1.26551 0
M  V30 2951 C 289.455 0.602008 1.98471 0
M  V30 2952 C 289.88 -0.815624 1.69497 0
M  V30 2953 O 289.238 -1.54912 0.941905 0
M  V30 2954 C 289.286 0.848407 3.50477 0
M  V30 2955 O 288.39 -0.0804009 4.12322 0
M  V30 2956 H 287.731 0.23049 0.622712 0
M  V30 2957 H 290.261 1.2617 1.61066 0
M  V30 2958 H 290.271 0.768553 4.00696 0
M  V30 2959 H 288.946 1.88171 3.70897 0
M  V30 2960 H 287.523 0.0503508 3.72866 0
M  V30 2961 N 289.708 -1.40897 0.706093 0
M  V30 2962 C 290.671 -2.29131 0.0562841 0
M  V30 2963 C 291.671 -1.44901 -0.697166 0
M  V30 2964 O 292.861 -1.65926 -0.530484 0
M  V30 2965 C 289.993 -3.27957 -0.93043 0
M  V30 2966 H 291.186 -2.88091 0.833284 0
M  V30 2967 H 288.739 -1.4906 0.470192 0
M  V30 2968 H 289.474 -2.73997 -1.73482 0
M  V30 2969 H 289.259 -3.90124 -0.393166 0
M  V30 2970 H 290.749 -3.94049 -1.38256 0
M  V30 2971 N 291.186 -0.45159 -1.50991 0
M  V30 2972 C 292.414 0.108334 -2.06616 0
M  V30 2973 C 292.829 1.35224 -1.31757 0
M  V30 2974 O 292.186 1.78475 -0.381174 0
M  V30 2975 C 292.237 0.41619 -3.59096 0
M  V30 2976 O 291.958 -0.778361 -4.3113 0
M  V30 2977 C 293.459 1.02523 -4.31282 0
M  V30 2978 H 290.679 0.00159995 -0.670998 0
M  V30 2979 H 293.223 -0.634771 -1.94399 0
M  V30 2980 H 291.378 1.10921 -3.71181 0
M  V30 2981 H 291.792 -0.511181 -5.22003 0
M  V30 2982 H 293.266 1.19053 -5.39009 0
M  V30 2983 H 293.743 2.01013 -3.905 0
M  V30 2984 H 294.349 0.371173 -4.23677 0
M  V30 2985 N 292.664 1.56529 -0.183458 0
M  V30 2986 C 293.627 2.17324 0.728223 0
M  V30 2987 C 294.627 1.12453 1.14939 0
M  V30 2988 O 295.817 1.37902 1.06437 0
M  V30 2989 C 292.949 2.76591 1.99274 0
M  V30 2990 H 294.142 2.99241 0.198772 0
M  V30 2991 H 291.695 1.5616 0.0661391 0
M  V30 2992 H 292.43 1.98441 2.56499 0
M  V30 2993 H 292.215 3.5335 1.69959 0
M  V30 2994 H 293.705 3.23311 2.6431 0
M  V30 2995 N 294.142 -0.090211 1.57342 0
M  V30 2996 C 295.37 -0.806224 1.90546 0
M  V30 2997 C 295.785 -1.72041 0.777644 0
M  V30 2998 O 295.142 -1.80778 -0.250103 0
M  V30 2999 C 295.193 -1.61546 3.23396 0
M  V30 3000 O 294.914 -0.738043 4.31839 0
M  V30 3001 C 296.415 -2.4341 3.70495 0
M  V30 3002 H 293.635 -0.230256 0.630257 0
M  V30 3003 H 296.179 -0.0659843 2.04394 0
M  V30 3004 H 294.334 -2.30816 3.11131 0
M  V30 3005 H 294.748 -1.29901 5.08159 0
M  V30 3006 H 296.222 -2.95676 4.66133 0
M  V30 3007 H 296.699 -3.22098 2.98579 0
M  V30 3008 H 297.305 -1.79331 3.85643 0
M  V30 3009 N 295.62 -1.53406 -0.361157 0
M  V30 3010 C 296.567 -1.80156 -1.44265 0
M  V30 3011 C 297.537 -0.646183 -1.53015 0
M  V30 3012 O 298.722 -0.888818 -1.68833 0
M  V30 3013 C 295.862 -2.00116 -2.81154 0
M  V30 3014 C 294.975 -3.27833 -2.81335 0
M  V30 3015 C 294.11 -3.37957 -4.09828 0
M  V30 3016 C 293.149 -4.59689 -4.04168 0
M  V30 3017 N 292.286 -4.66942 -5.24318 0
M  V30 3018 H 297.126 -2.72438 -1.20754 0
M  V30 3019 H 294.663 -1.34954 -0.585296 0
M  V30 3020 H 296.621 -2.09677 -3.60682 0
M  V30 3021 H 295.251 -1.11167 -3.03054 0
M  V30 3022 H 294.303 -3.27204 -1.94014 0
M  V30 3023 H 295.615 -4.17442 -2.73027 0
M  V30 3024 H 294.769 -3.46853 -4.97773 0
M  V30 3025 H 293.508 -2.46372 -4.20894 0
M  V30 3026 H 292.513 -4.50889 -3.14609 0
M  V30 3027 H 293.738 -5.5262 -3.947 0
M  V30 3028 H 291.684 -3.7826 -5.35962 0
M  V30 3029 H 291.601 -5.50462 -5.18197 0
M  V30 3030 H 292.869 -4.80127 -6.14084 0
M  V30 3031 N 297.098 0.621204 -1.44841 0
M  V30 3032 C 298.347 1.37658 -1.47422 0
M  V30 3033 C 298.66 1.95264 -0.114629 0
M  V30 3034 O 299.866 2.71494 -0.0180199 0
M  V30 3035 C 298.322 2.49285 -2.59586 0
M  V30 3036 C 297.93 1.98149 -4.01797 0
M  V30 3037 C 299.674 3.26409 -2.71399 0
M  V30 3038 C 297.581 3.07178 -5.05367 0
M  V30 3039 H 296.511 0.517344 -0.548517 0
M  V30 3040 H 299.162 0.667257 -1.70938 0
M  V30 3041 H 297.544 3.22839 -2.29328 0
M  V30 3042 H 298.718 1.31395 -4.41669 0
M  V30 3043 H 297.033 1.33812 -3.94314 0
M  V30 3044 H 299.63 4.07706 -3.45948 0
M  V30 3045 H 299.973 3.76535 -1.77559 0
M  V30 3046 H 300.506 2.5995 -3.01116 0
M  V30 3047 H 297.245 2.61985 -6.00869 0
M  V30 3048 H 296.765 3.72542 -4.70077 0
M  V30 3049 H 298.444 3.71789 -5.29511 0
M  V30 3050 N 298.576 1.31904 0.862503 0
M  V30 3051 C 299.822 1.22197 1.61851 0
M  V30 3052 C 300.155 -0.217641 1.92977 0
M  V30 3053 O 299.43 -1.15264 1.56666 0
M  V30 3054 C 299.713 2.07378 2.94391 0
M  V30 3055 C 299.566 3.59678 2.70096 0
M  V30 3056 C 300.885 1.92891 3.95577 0
M  V30 3057 H 298.004 0.445255 0.587296 0
M  V30 3058 H 300.646 1.6177 0.99651 0
M  V30 3059 H 298.796 1.73758 3.47477 0
M  V30 3060 H 300.468 4.03472 2.23625 0
M  V30 3061 H 298.711 3.82735 2.04197 0
M  V30 3062 H 299.382 4.14595 3.64438 0
M  V30 3063 H 301.858 2.22327 3.51724 0
M  V30 3064 H 300.734 2.54781 4.86187 0
M  V30 3065 H 300.995 0.894315 4.3296 0
M  V30 3066 N 300.054 -1.07777 1.14986 0
M  V30 3067 C 301.303 -1.79669 0.916617 0
M  V30 3068 C 301.616 -1.87474 -0.557917 0
M  V30 3069 O 302.822 -2.55845 -0.908617 0
M  V30 3070 C 301.278 -3.22848 1.59051 0
M  V30 3071 C 300.886 -3.23257 3.10176 0
M  V30 3072 C 302.63 -3.99379 1.43864 0
M  V30 3073 C 300.537 -4.61063 3.70372 0
M  V30 3074 H 299.467 -0.673349 0.33929 0
M  V30 3075 H 302.118 -1.21003 1.37951 0
M  V30 3076 H 300.5 -3.8168 1.0553 0
M  V30 3077 H 301.674 -2.74095 3.70417 0
M  V30 3078 H 299.989 -2.60222 3.25074 0
M  V30 3079 H 302.586 -5.0122 1.86232 0
M  V30 3080 H 302.929 -4.14511 0.385564 0
M  V30 3081 H 303.462 -3.47032 1.94457 0
M  V30 3082 H 300.201 -4.51135 4.7556 0
M  V30 3083 H 299.721 -5.1048 3.14913 0
M  V30 3084 H 301.4 -5.30034 3.71043 0
M  V30 3085 N 301.532 -0.945985 -1.26051 0
M  V30 3086 C 302.78 -0.594941 -1.93145 0
M  V30 3087 C 303.101 0.86953 -1.7454 0
M  V30 3088 O 302.371 1.61838 -1.10387 0
M  V30 3089 H 300.951 -0.217044 -0.714773 0
M  V30 3090 H 303.613 -1.20235 -1.53393 0
M  V30 3091 H 302.709 -0.816835 -3.01221 0
M  V30 3092 N 303.011 1.40521 -0.713556 0
M  V30 3093 C 304.236 2.05759 -0.26035 0
M  V30 3094 C 304.661 1.53403 1.08854 0
M  V30 3095 O 304.019 0.668535 1.68524 0
M  V30 3096 C 304.067 3.59745 -0.248122 0
M  V30 3097 O 303.171 4.05123 0.77131 0
M  V30 3098 H 302.512 0.652564 -0.122703 0
M  V30 3099 H 305.042 1.79958 -0.973467 0
M  V30 3100 H 305.052 4.07911 -0.0851129 0
M  V30 3101 H 303.727 3.97218 -1.2325 0
M  V30 3102 H 302.304 3.68422 0.57619 0
M  V30 3103 N 304.489 0.459591 1.5075 0
M  V30 3104 C 305.738 -0.100971 2.01447 0
M  V30 3105 C 306.051 -1.41816 1.34713 0
M  V30 3106 O 307.257 -2.06299 1.76502 0
M  V30 3107 C 305.713 -0.23047 3.59161 0
M  V30 3108 C 305.321 1.0776 4.34847 0
M  V30 3109 C 307.065 -0.743608 4.17936 0
M  V30 3110 C 304.972 0.91253 5.84317 0
M  V30 3111 H 303.902 -0.0415102 0.752856 0
M  V30 3112 H 306.553 0.592742 1.73663 0
M  V30 3113 H 304.935 -0.987703 3.83485 0
M  V30 3114 H 306.109 1.8449 4.22256 0
M  V30 3115 H 304.424 1.52097 3.87628 0
M  V30 3116 H 307.021 -0.883959 5.27343 0
M  V30 3117 H 307.364 -1.73196 3.78562 0
M  V30 3118 H 307.897 -0.04408 3.97776 0
M  V30 3119 H 304.636 1.87391 6.28144 0
M  V30 3120 H 304.156 0.185422 5.99513 0
M  V30 3121 H 305.835 0.574547 6.44444 0
M  V30 3122 N 305.967 -1.56429 0.191757 0
M  V30 3123 C 307.213 -1.98541 -0.441943 0
M  V30 3124 C 307.568 -1.07646 -1.59468 0
M  V30 3125 O 306.861 -0.120191 -1.91223 0
M  V30 3126 C 307.055 -3.44449 -0.953384 0
M  V30 3127 C 306.884 -4.49456 0.148262 0
M  V30 3128 C 305.654 -5.01668 0.604781 0
M  V30 3129 C 307.852 -5.05336 0.95602 0
M  V30 3130 N 305.834 -5.90334 1.6846 0
M  V30 3131 C 307.205 -5.9064 1.88531 0
M  V30 3132 C 309.26 -4.87779 0.998811 0
M  V30 3133 C 307.963 -6.60264 2.85383 0
M  V30 3134 C 309.989 -5.58139 1.95537 0
M  V30 3135 C 309.351 -6.43187 2.8721 0
M  V30 3136 H 305.45 -0.771247 -0.129236 0
M  V30 3137 H 308.034 -1.92426 0.296682 0
M  V30 3138 H 306.205 -3.5107 -1.66146 0
M  V30 3139 H 307.937 -3.73533 -1.55741 0
M  V30 3140 H 304.692 -4.73183 0.198736 0
M  V30 3141 H 305.116 -6.39371 2.22561 0
M  V30 3142 H 309.758 -4.21705 0.304048 0
M  V30 3143 H 307.476 -7.25538 3.55837 0
M  V30 3144 H 311.062 -5.46532 1.99484 0
M  V30 3145 H 309.942 -6.96674 3.60022 0
M  V30 3146 N 307.445 0.0818655 -1.57387 0
M  V30 3147 C 308.694 0.781681 -1.85937 0
M  V30 3148 C 309.007 1.79246 -0.782957 0
M  V30 3149 O 310.213 2.54112 -0.955987 0
M  V30 3150 C 308.669 1.44109 -3.29789 0
M  V30 3151 C 308.277 0.469396 -4.45534 0
M  V30 3152 C 310.021 2.12386 -3.67549 0
M  V30 3153 C 307.928 1.13415 -5.80423 0
M  V30 3154 H 306.858 0.295682 -0.693605 0
M  V30 3155 H 309.509 0.0348051 -1.83467 0
M  V30 3156 H 307.891 2.23588 -3.2684 0
M  V30 3157 H 309.065 -0.294856 -4.59856 0
M  V30 3158 H 307.38 -0.108383 -4.16259 0
M  V30 3159 H 309.977 2.62878 -4.65617 0
M  V30 3160 H 310.32 2.91877 -2.96839 0
M  V30 3161 H 310.853 1.39751 -3.72444 0
M  V30 3162 H 307.592 0.379771 -6.54399 0
M  V30 3163 H 307.112 1.8695 -5.69921 0
M  V30 3164 H 308.791 1.65686 -6.25426 0
M  V30 3165 N 308.923 1.53595 0.353017 0
M  V30 3166 C 309.853 1.83902 1.43883 0
M  V30 3167 C 310.834 0.693421 1.55324 0
M  V30 3168 O 312.019 0.944452 1.69687 0
M  V30 3169 C 309.149 2.04016 2.8106 0
M  V30 3170 C 308.103 3.19814 2.84434 0
M  V30 3171 C 307.429 3.25244 4.24406 0
M  V30 3172 C 308.729 4.58133 2.50822 0
M  V30 3173 H 310.423 2.74835 1.1877 0
M  V30 3174 H 307.969 1.32242 0.569917 0
M  V30 3175 H 309.922 2.238 3.57059 0
M  V30 3176 H 308.646 1.09804 3.07588 0
M  V30 3177 H 307.305 2.9987 2.10887 0
M  V30 3178 H 306.953 2.28646 4.48029 0
M  V30 3179 H 306.653 4.03054 4.27576 0
M  V30 3180 H 308.177 3.47228 5.0226 0
M  V30 3181 H 309.591 4.77995 3.16534 0
M  V30 3182 H 307.988 5.38276 2.6529 0
M  V30 3183 H 309.058 4.62387 1.46034 0
M  V30 3184 N 310.401 -0.613514 1.45168 0
M  V30 3185 C 311.364 -1.7065 1.53007 0
M  V30 3186 C 312.364 -1.5548 0.410184 0
M  V30 3187 O 313.554 -1.60656 0.673455 0
M  V30 3188 C 310.686 -3.09875 1.42093 0
M  V30 3189 H 311.879 -1.65068 2.50385 0
M  V30 3190 H 309.432 -0.828728 1.32521 0
M  V30 3191 H 310.167 -3.21039 0.458769 0
M  V30 3192 H 309.952 -3.22293 2.23315 0
M  V30 3193 H 311.442 -3.895 1.50598 0
M  V30 3194 N 311.879 -1.3236 -0.855495 0
M  V30 3195 C 313.126 -1.22872 -1.60962 0
M  V30 3196 C 313.454 0.209658 -1.93367 0
M  V30 3197 O 312.709 1.16243 -1.57436 0
M  V30 3198 C 313.008 -2.03275 -2.93963 0
M  V30 3199 C 312.674 -3.5264 -2.80991 0
M  V30 3200 C 311.336 -3.93364 -2.7716 0
M  V30 3201 C 313.688 -4.47626 -2.66983 0
M  V30 3202 C 311.016 -5.27319 -2.572 0
M  V30 3203 C 313.368 -5.81723 -2.48558 0
M  V30 3204 C 312.032 -6.2165 -2.4312 0
M  V30 3205 H 311.302 -0.44962 -0.589001 0
M  V30 3206 H 313.949 -1.63777 -0.992442 0
M  V30 3207 H 312.254 -1.55095 -3.59795 0
M  V30 3208 H 313.951 -1.93303 -3.51333 0
M  V30 3209 H 310.541 -3.20295 -2.84797 0
M  V30 3210 H 314.725 -4.17084 -2.68988 0
M  V30 3211 H 309.981 -5.57311 -2.51424 0
M  V30 3212 H 314.155 -6.5494 -2.36699 0
M  V30 3213 H 311.782 -7.25388 -2.27412 0
M  V30 3214 N 313.357 1.07166 -1.15556 0
M  V30 3215 C 314.287 2.16403 -0.877046 0
M  V30 3216 C 315.268 1.69217 0.173111 0
M  V30 3217 O 316.453 1.94181 0.027084 0
M  V30 3218 C 313.583 3.45349 -0.367632 0
M  V30 3219 C 312.537 4.05995 -1.35468 0
M  V30 3220 C 311.863 5.30045 -0.704038 0
M  V30 3221 C 313.163 4.45804 -2.72132 0
M  V30 3222 H 314.857 2.39959 -1.79053 0
M  V30 3223 H 312.403 1.15325 -0.862331 0
M  V30 3224 H 314.356 4.21095 -0.160317 0
M  V30 3225 H 313.08 3.21385 0.581326 0
M  V30 3226 H 311.739 3.32296 -1.54839 0
M  V30 3227 H 311.387 5.02373 0.251128 0
M  V30 3228 H 311.087 5.71579 -1.36277 0
M  V30 3229 H 312.611 6.08495 -0.50654 0
M  V30 3230 H 314.025 5.12671 -2.56595 0
M  V30 3231 H 312.422 4.98296 -3.34397 0
M  V30 3232 H 313.492 3.57083 -3.28054 0
M  V30 3233 N 314.835 0.952656 1.25548 0
M  V30 3234 C 315.765 0.489287 2.28316 0
M  V30 3235 C 316.746 -0.463359 1.63667 0
M  V30 3236 O 317.931 -0.36274 1.90782 0
M  V30 3237 C 315.061 -0.235603 3.465 0
M  V30 3238 C 314.015 0.631593 4.23314 0
M  V30 3239 C 313.341 -0.223923 5.34231 0
M  V30 3240 C 314.641 1.90871 4.86174 0
M  V30 3241 H 316.335 1.34822 2.67326 0
M  V30 3242 H 313.881 0.649728 1.28509 0
M  V30 3243 H 315.834 -0.570882 4.17515 0
M  V30 3244 H 314.558 -1.12877 3.06474 0
M  V30 3245 H 313.217 0.949929 3.54079 0
M  V30 3246 H 312.865 -1.11678 4.90446 0
M  V30 3247 H 312.565 0.35299 5.86539 0
M  V30 3248 H 314.089 -0.554214 6.0808 0
M  V30 3249 H 315.503 1.63997 5.49343 0
M  V30 3250 H 313.9 2.43112 5.4865 0
M  V30 3251 H 314.97 2.61304 4.08471 0
M  V30 3252 N 316.313 -1.40141 0.720998 0
M  V30 3253 C 317.276 -2.29058 0.0805834 0
M  V30 3254 C 318.276 -1.45632 -0.681758 0
M  V30 3255 O 319.466 -1.6648 -0.512856 0
M  V30 3256 C 316.598 -3.28925 -0.895593 0
M  V30 3257 H 317.791 -2.87191 0.863793 0
M  V30 3258 H 315.344 -1.48553 0.485975 0
M  V30 3259 H 316.079 -2.75822 -1.70566 0
M  V30 3260 H 315.864 -3.90519 -0.351766 0
M  V30 3261 H 317.354 -3.95494 -1.34069 0
M  V30 3262 N 317.792 -0.46758 -1.50504 0
M  V30 3263 C 319.039 0.0886219 -2.02306 0
M  V30 3264 C 319.367 1.40037 -1.34981 0
M  V30 3265 O 318.622 1.90136 -0.463318 0
M  V30 3266 C 318.921 0.323995 -3.55928 0
M  V30 3267 C 318.587 -0.905618 -4.41712 0
M  V30 3268 C 317.249 -1.24275 -4.64875 0
M  V30 3269 C 319.601 -1.72448 -4.91845 0
M  V30 3270 C 316.929 -2.39888 -5.35417 0
M  V30 3271 C 319.281 -2.87185 -5.63656 0
M  V30 3272 C 317.945 -3.21317 -5.85074 0
M  V30 3273 H 317.215 0.0324291 -0.74029 0
M  V30 3274 H 319.862 -0.620945 -1.81153 0
M  V30 3275 H 318.167 1.11577 -3.75577 0
M  V30 3276 H 319.864 0.76826 -3.93572 0
M  V30 3277 H 316.454 -0.632956 -4.239 0
M  V30 3278 H 320.638 -1.4772 -4.73806 0
M  V30 3279 H 315.894 -2.66611 -5.50208 0
M  V30 3280 H 320.068 -3.50985 -6.01484 0
M  V30 3281 H 317.695 -4.1101 -6.39511 0
M  V30 3282 N 319.27 1.56325 -0.20005 0
M  V30 3283 C 320.681 1.8408 0.31167 0
M  V30 3284 C 321.032 1.12087 1.61031 0
M  V30 3285 O 320.157 0.38332 2.12978 0
M  V30 3286 C 320.752 3.33932 0.57226 0
M  V30 3287 C 319.311 3.6208 1.02834 0
M  V30 3288 C 318.458 2.77186 0.079634 0
M  V30 3289 H 321.409 1.52939 -0.423729 0
M  V30 3290 H 321.43 3.52971 1.42096 0
M  V30 3291 H 320.942 3.86303 -0.37308 0
M  V30 3292 H 319.043 3.15147 1.98778 0
M  V30 3293 H 319.156 4.7023 0.917624 0
M  V30 3294 H 317.52 2.47951 0.582448 0
M  V30 3295 H 318.303 3.32347 -0.860238 0
M  V30 3296 N 320.748 -0.0735177 1.57428 0
M  V30 3297 C 321.68 -1.11423 2.00294 0
M  V30 3298 C 322.693 -1.35084 0.908637 0
M  V30 3299 O 323.882 -1.33355 1.18654 0
M  V30 3300 C 320.982 -2.46548 2.32523 0
M  V30 3301 C 320.155 -2.42867 3.63778 0
M  V30 3302 C 319.214 -3.60087 3.83697 0
M  V30 3303 O 318.24 -3.41595 4.55304 0
M  V30 3304 N 319.442 -4.80372 3.25919 0
M  V30 3305 H 322.207 -0.749206 2.90184 0
M  V30 3306 H 319.768 -0.262195 1.59763 0
M  V30 3307 H 321.76 -3.23607 2.43024 0
M  V30 3308 H 320.33 -2.75059 1.48531 0
M  V30 3309 H 319.55 -1.51206 3.64047 0
M  V30 3310 H 320.838 -2.37506 4.49965 0
M  V30 3311 H 320.236 -4.983 2.67795 0
M  V30 3312 H 318.793 -5.54948 3.41871 0
M  V30 3313 N 322.226 -1.5378 -0.344866 0
M  V30 3314 C 323.466 -1.72677 -1.09371 0
M  V30 3315 C 323.83 -0.479084 -1.85927 0
M  V30 3316 O 325.031 -0.54505 -2.63216 0
M  V30 3317 C 323.302 -2.95457 -2.01097 0
M  V30 3318 S 324.861 -3.35158 -2.83222 0
M  V30 3319 H 321.679 -0.607402 -0.369573 0
M  V30 3320 H 324.281 -1.91922 -0.372307 0
M  V30 3321 H 322.985 -3.84437 -1.43655 0
M  V30 3322 H 322.516 -2.78673 -2.77678 0
M  V30 3323 H 324.531 -2.88789 -4.03504 0
M  V30 3324 N 323.704 0.605807 -1.45491 0
M  V30 3325 C 324.634 1.72709 -1.57143 0
M  V30 3326 C 325.615 1.6476 -0.422884 0
M  V30 3327 O 326.8 1.83132 -0.646247 0
M  V30 3328 C 323.93 3.11316 -1.53948 0
M  V30 3329 C 322.884 3.34077 -2.67537 0
M  V30 3330 C 322.21 4.72975 -2.49397 0
M  V30 3331 C 323.51 3.24158 -4.09535 0
M  V30 3332 H 325.204 1.63214 -2.51001 0
M  V30 3333 H 322.75 0.78379 -1.208 0
M  V30 3334 H 324.703 3.89557 -1.60696 0
M  V30 3335 H 323.427 3.21655 -0.566205 0
M  V30 3336 H 322.086 2.58227 -2.6022 0
M  V30 3337 H 321.734 4.8005 -1.50205 0
M  V30 3338 H 321.434 4.8916 -3.25571 0
M  V30 3339 H 322.958 5.53414 -2.58002 0
M  V30 3340 H 324.372 3.92271 -4.18086 0
M  V30 3341 H 322.769 3.51872 -4.86113 0
M  V30 3342 H 323.839 2.2157 -4.31317 0
M  V30 3343 N 325.182 1.32811 0.848464 0
M  V30 3344 C 326.412 1.26556 1.63301 0
M  V30 3345 C 326.82 -0.1676 1.88456 0
M  V30 3346 O 326.163 -1.11713 1.45828 0
M  V30 3347 C 326.225 1.96202 3.01239 0
M  V30 3348 C 325.889 3.45528 2.99098 0
M  V30 3349 C 326.886 4.40903 2.75501 0
M  V30 3350 C 324.571 3.87558 3.19537 0
M  V30 3351 C 326.565 5.76282 2.72356 0
M  V30 3352 C 324.252 5.23044 3.16019 0
M  V30 3353 C 325.25 6.17217 2.92458 0
M  V30 3354 O 324.938 7.50223 2.88825 0
M  V30 3355 H 324.67 0.43771 0.515156 0
M  V30 3356 H 327.224 1.7559 1.0657 0
M  V30 3357 H 325.454 1.41746 3.59785 0
M  V30 3358 H 327.143 1.83573 3.62016 0
M  V30 3359 H 327.909 4.09756 2.5947 0
M  V30 3360 H 323.788 3.14674 3.369 0
M  V30 3361 H 327.332 6.4976 2.53886 0
M  V30 3362 H 323.229 5.53818 3.31596 0
M  V30 3363 H 323.997 7.59657 3.04735 0
M  V30 3364 N 326.66 -1.06551 1.16123 0
M  V30 3365 C 327.885 -1.83544 0.965735 0
M  V30 3366 C 328.31 -1.81843 -0.481102 0
M  V30 3367 O 327.668 -1.21732 -1.34354 0
M  V30 3368 C 327.716 -3.28169 1.49457 0
M  V30 3369 O 326.82 -4.0643 0.699157 0
M  V30 3370 H 326.161 -0.568026 0.343864 0
M  V30 3371 H 328.691 -1.34362 1.54299 0
M  V30 3372 H 328.701 -3.78992 1.51092 0
M  V30 3373 H 327.376 -3.28722 2.54784 0
M  V30 3374 H 325.953 -3.65216 0.7531 0
M  V30 3375 N 328.138 -0.959301 -1.25041 0
M  V30 3376 C 329.085 -0.482057 -2.2571 0
M  V30 3377 C 330.055 0.467939 -1.59372 0
M  V30 3378 O 331.24 0.380159 -1.86974 0
M  V30 3379 C 328.38 0.229623 -3.44335 0
M  V30 3380 C 327.493 -0.758156 -4.25295 0
M  V30 3381 C 326.628 -0.0234403 -5.31195 0
M  V30 3382 C 325.667 -1.00184 -6.03846 0
M  V30 3383 N 324.804 -0.29769 -7.01469 0
M  V30 3384 H 329.644 -1.34538 -2.65901 0
M  V30 3385 H 327.181 -0.674592 -1.3072 0
M  V30 3386 H 329.139 0.658856 -4.11965 0
M  V30 3387 H 327.769 1.05696 -3.05005 0
M  V30 3388 H 326.821 -1.30586 -3.57284 0
M  V30 3389 H 328.133 -1.50458 -4.75567 0
M  V30 3390 H 327.287 0.464201 -6.04922 0
M  V30 3391 H 326.026 0.755741 -4.81809 0
M  V30 3392 H 325.031 -1.50044 -5.2893 0
M  V30 3393 H 326.256 -1.78133 -6.55321 0
M  V30 3394 H 324.202 0.462668 -6.54366 0
M  V30 3395 H 324.119 -0.983128 -7.4958 0
M  V30 3396 H 325.387 0.16826 -7.79318 0
M  V30 3397 N 329.616 1.39756 -0.72842 0
M  V30 3398 C 330.844 2.04948 -0.283528 0
M  V30 3399 C 331.259 1.54908 1.0793 0
M  V30 3400 O 330.616 0.711135 1.68075 0
M  V30 3401 C 330.667 3.60498 -0.268957 0
M  V30 3402 O 330.388 4.08695 -1.57798 0
M  V30 3403 C 331.889 4.4288 0.192912 0
M  V30 3404 H 329.109 0.659243 -0.125056 0
M  V30 3405 H 331.653 1.78927 -0.990226 0
M  V30 3406 H 329.808 3.85444 0.388801 0
M  V30 3407 H 330.222 5.02977 -1.48709 0
M  V30 3408 H 331.696 5.51791 0.151952 0
M  V30 3409 H 332.173 4.21418 1.23708 0
M  V30 3410 H 332.779 4.23069 -0.435039 0
M  V30 3411 N 331.094 0.475555 1.50254 0
M  V30 3412 C 332.041 -0.316293 2.28622 0
M  V30 3413 C 333.011 -0.983227 1.33873 0
M  V30 3414 O 334.196 -0.994805 1.62814 0
M  V30 3415 C 331.336 -1.38975 3.1588 0
M  V30 3416 C 330.449 -0.737146 4.25664 0
M  V30 3417 C 329.584 -1.78887 5.00173 0
M  V30 3418 C 328.623 -1.11676 6.01826 0
M  V30 3419 N 327.76 -2.11154 6.69596 0
M  V30 3420 H 332.6 0.358297 2.95838 0
M  V30 3421 H 330.137 0.188541 1.45887 0
M  V30 3422 H 332.095 -2.02383 3.64825 0
M  V30 3423 H 330.725 -2.03344 2.50701 0
M  V30 3424 H 329.777 0.0096065 3.80399 0
M  V30 3425 H 331.089 -0.206816 4.98371 0
M  V30 3426 H 330.243 -2.49865 5.52859 0
M  V30 3427 H 328.982 -2.35302 4.27182 0
M  V30 3428 H 327.987 -0.392633 5.48396 0
M  V30 3429 H 329.212 -0.55945 6.76792 0
M  V30 3430 H 327.158 -2.66577 5.99394 0
M  V30 3431 H 327.075 -1.63118 7.38193 0
M  V30 3432 H 328.343 -2.81497 7.26897 0
M  V30 3433 N 332.573 -1.56217 0.208337 0
M  V30 3434 C 333.819 -1.98242 -0.427552 0
M  V30 3435 C 334.152 -1.09554 -1.60348 0
M  V30 3436 O 333.427 -0.15035 -1.93918 0
M  V30 3437 C 333.71 -3.4931 -0.874907 0
M  V30 3438 C 333.563 -4.48773 0.303751 0
M  V30 3439 C 334.882 -4.04424 -1.73577 0
M  V30 3440 H 332.001 -0.720744 -0.153936 0
M  V30 3441 H 334.643 -1.87586 0.30192 0
M  V30 3442 H 332.793 -3.58522 -1.49648 0
M  V30 3443 H 334.465 -4.51586 0.941682 0
M  V30 3444 H 332.708 -4.23194 0.953375 0
M  V30 3445 H 333.379 -5.51976 -0.0519883 0
M  V30 3446 H 335.855 -3.98075 -1.21143 0
M  V30 3447 H 334.731 -5.1047 -2.01771 0
M  V30 3448 H 334.992 -3.50494 -2.69456 0
M  V30 3449 N 334.051 0.0651679 -1.57465 0
M  V30 3450 C 334.984 1.10876 -1.99453 0
M  V30 3451 C 335.962 1.37205 -0.872555 0
M  V30 3452 O 337.146 1.50468 -1.13542 0
M  V30 3453 C 334.273 2.45167 -2.3369 0
M  V30 3454 C 333.319 2.3493 -3.55964 0
M  V30 3455 S 334.152 1.73708 -5.06543 0
M  V30 3456 C 335.308 3.09563 -5.43987 0
M  V30 3457 H 335.541 0.750967 -2.87659 0
M  V30 3458 H 333.074 0.273933 -1.51951 0
M  V30 3459 H 335.032 3.22412 -2.54088 0
M  V30 3460 H 333.693 2.78105 -1.46001 0
M  V30 3461 H 332.886 3.3398 -3.77457 0
M  V30 3462 H 332.488 1.65823 -3.3523 0
M  V30 3463 H 334.78 4.05882 -5.42463 0
M  V30 3464 H 335.723 2.92843 -6.44708 0
M  V30 3465 H 336.131 3.10474 -4.71451 0
M  V30 3466 N 335.529 1.53961 0.336706 0
M  V30 3467 C 336.94 1.62914 0.911925 0
M  V30 3468 C 337.291 0.514795 1.89326 0
M  V30 3469 O 336.416 -0.354395 2.13478 0
M  V30 3470 C 337.011 2.95304 1.66076 0
M  V30 3471 C 335.57 3.06496 2.18489 0
M  V30 3472 C 334.717 2.58403 1.00613 0
M  V30 3473 H 337.668 1.58285 0.114649 0
M  V30 3474 H 337.689 2.84727 2.5241 0
M  V30 3475 H 337.201 3.76387 0.946276 0
M  V30 3476 H 335.302 2.3006 2.93092 0
M  V30 3477 H 335.415 4.1208 2.44391 0
M  V30 3478 H 333.779 2.13977 1.38152 0
M  V30 3479 H 334.562 3.41932 0.306179 0
M  V30 3480 N 337.007 -0.598083 1.45811 0
M  V30 3481 C 338.255 -1.35413 1.50026 0
M  V30 3482 C 338.576 -1.94444 0.147177 0
M  V30 3483 O 337.846 -1.77701 -0.824571 0
M  V30 3484 H 336.426 -0.502727 0.552517 0
M  V30 3485 H 339.088 -0.701606 1.81834 0
M  V30 3486 H 338.184 -2.16871 2.2444 0
M  V30 3487 N 338.485 -1.33259 -0.841409 0
M  V30 3488 C 339.901 -1.12538 -1.13169 0
M  V30 3489 C 340.101 0.0854037 -2.01319 0
M  V30 3490 O 339.157 0.766417 -2.40587 0
M  V30 3491 C 340.47 -2.41156 -1.79623 0
M  V30 3492 C 342.018 -2.47038 -1.922 0
M  V30 3493 C 342.493 -3.7561 -2.6207 0
M  V30 3494 N 343.984 -3.76667 -2.69585 0
M  V30 3495 C 344.719 -4.72861 -3.2433 0
M  V30 3496 N 344.215 -5.79428 -3.79783 0
M  V30 3497 N 346.008 -4.6034 -3.22558 0
M  V30 3498 H 338.159 -2.10868 -0.254676 0
M  V30 3499 H 340.422 -0.931615 -0.175493 0
M  V30 3500 H 340.128 -3.29747 -1.22311 0
M  V30 3501 H 340.002 -2.53114 -2.79666 0
M  V30 3502 H 342.389 -1.58898 -2.48667 0
M  V30 3503 H 342.47 -2.39022 -0.911148 0
M  V30 3504 H 342.114 -4.64131 -2.06263 0
M  V30 3505 H 342.044 -3.80902 -3.63622 0
M  V30 3506 H 344.535 -2.99648 -2.30259 0
M  V30 3507 H 344.848 -6.48867 -4.19752 0
M  V30 3508 H 343.193 -5.83166 -3.78078 0
M  V30 3509 H 346.384 -3.76244 -2.78492 0
M  V30 3510 H 346.557 -5.35478 -3.64921 0
M  V30 3511 N 339.963 1.05934 -1.16686 0
M  V30 3512 C 341.191 1.8249 -0.974929 0
M  V30 3513 C 341.606 1.82679 0.476861 0
M  V30 3514 O 340.963 1.2486 1.33103 0
M  V30 3515 C 341.014 3.28943 -1.49929 0
M  V30 3516 O 340.735 3.28886 -2.89423 0
M  V30 3517 C 342.236 4.22215 -1.35089 0
M  V30 3518 H 339.456 0.575295 -0.345365 0
M  V30 3519 H 342 1.33631 -1.548 0
M  V30 3520 H 340.155 3.751 -0.968423 0
M  V30 3521 H 340.569 4.20493 -3.13506 0
M  V30 3522 H 342.043 5.22987 -1.76603 0
M  V30 3523 H 342.52 4.38195 -0.296935 0
M  V30 3524 H 343.126 3.81907 -1.87155 0
M  V30 3525 N 341.441 0.965919 1.2453 0
M  V30 3526 C 342.371 0.513476 2.27784 0
M  V30 3527 C 343.352 -0.445974 1.6415 0
M  V30 3528 O 344.537 -0.342485 1.91156 0
M  V30 3529 C 341.667 -0.198839 3.4673 0
M  V30 3530 C 340.621 0.676456 4.2262 0
M  V30 3531 C 339.947 -0.167248 5.34438 0
M  V30 3532 C 341.247 1.96017 4.84123 0
M  V30 3533 H 342.941 1.3765 2.65881 0
M  V30 3534 H 340.487 0.663321 1.27813 0
M  V30 3535 H 342.44 -0.526567 4.18097 0
M  V30 3536 H 341.164 -1.0962 3.07654 0
M  V30 3537 H 339.823 0.98743 3.53052 0
M  V30 3538 H 339.471 -1.0647 4.91603 0
M  V30 3539 H 339.171 0.415181 5.86131 0
M  V30 3540 H 340.695 -0.489688 6.08633 0
M  V30 3541 H 342.109 1.69814 5.47573 0
M  V30 3542 H 340.506 2.48918 5.4604 0
M  V30 3543 H 341.576 2.65622 4.05676 0
M  V30 3544 N 342.919 -1.39368 0.735821 0
M  V30 3545 C 344.159 -2.02349 0.288813 0
M  V30 3546 C 344.523 -1.57127 -1.10341 0
M  V30 3547 O 345.724 -2.12312 -1.64854 0
M  V30 3548 C 343.995 -3.55288 0.387986 0
M  V30 3549 S 345.554 -4.38795 0.0209408 0
M  V30 3550 H 342.372 -0.701944 0.113115 0
M  V30 3551 H 344.974 -1.70164 0.962518 0
M  V30 3552 H 343.678 -3.85691 1.40252 0
M  V30 3553 H 343.209 -3.92227 -0.303512 0
M  V30 3554 H 345.224 -4.81595 -1.19503 0
M  V30 3555 N 344.397 -0.483516 -1.5 0
M  V30 3556 C 345.644 0.0671597 -2.02389 0
M  V30 3557 C 345.972 1.38597 -1.36459 0
M  V30 3558 O 345.227 1.89634 -0.483458 0
M  V30 3559 C 345.526 0.286226 -3.56252 0
M  V30 3560 C 345.192 -0.952416 -4.40726 0
M  V30 3561 C 343.854 -1.29199 -4.63531 0
M  V30 3562 C 346.206 -1.77655 -4.89988 0
M  V30 3563 C 343.534 -2.45553 -5.32842 0
M  V30 3564 C 345.886 -2.93147 -5.60578 0
M  V30 3565 C 344.55 -3.27505 -5.81633 0
M  V30 3566 H 343.82 0.0245755 -0.740592 0
M  V30 3567 H 346.467 -0.640124 -1.80485 0
M  V30 3568 H 344.772 1.07587 -3.76739 0
M  V30 3569 H 346.469 0.726473 -3.94365 0
M  V30 3570 H 343.059 -0.677881 -4.23205 0
M  V30 3571 H 347.243 -1.52737 -4.72213 0
M  V30 3572 H 342.499 -2.72431 -5.47349 0
M  V30 3573 H 346.673 -3.57344 -5.97727 0
M  V30 3574 H 344.3 -4.1777 -6.35116 0
M  V30 3575 N 345.875 1.56104 -0.216619 0
M  V30 3576 C 347.121 1.98466 0.417033 0
M  V30 3577 C 347.454 1.10403 1.59765 0
M  V30 3578 O 346.729 0.160632 1.93836 0
M  V30 3579 C 347.012 3.49769 0.85637 0
M  V30 3580 C 346.865 4.48606 -0.327546 0
M  V30 3581 C 348.184 4.05339 1.7143 0
M  V30 3582 H 345.303 0.721551 0.150112 0
M  V30 3583 H 347.945 1.87423 -0.311864 0
M  V30 3584 H 346.095 3.5931 1.47745 0
M  V30 3585 H 347.767 4.5108 -0.965618 0
M  V30 3586 H 346.01 4.22682 -0.975805 0
M  V30 3587 H 346.681 5.51995 0.0227149 0
M  V30 3588 H 349.157 3.98712 1.19031 0
M  V30 3589 H 348.033 5.11533 1.99061 0
M  V30 3590 H 348.294 3.51918 2.67593 0
M  V30 3591 N 347.353 -0.0568162 1.57498 0
M  V30 3592 C 348.285 -1.09292 2.01464 0
M  V30 3593 C 349.298 -1.34112 0.922913 0
M  V30 3594 O 350.487 -1.32089 1.20062 0
M  V30 3595 C 347.587 -2.44068 2.35125 0
M  V30 3596 C 346.76 -2.38995 3.66333 0
M  V30 3597 C 345.819 -3.55997 3.87495 0
M  V30 3598 O 344.845 -3.36746 4.58901 0
M  V30 3599 N 346.047 -4.76888 3.30996 0
M  V30 3600 H 348.812 -0.718386 2.90963 0
M  V30 3601 H 346.373 -0.245235 1.60032 0
M  V30 3602 H 348.365 -3.21011 2.46443 0
M  V30 3603 H 346.935 -2.73468 1.5144 0
M  V30 3604 H 346.155 -1.47336 3.65631 0
M  V30 3605 H 347.443 -2.3272 4.52458 0
M  V30 3606 H 346.841 -4.95431 2.73065 0
M  V30 3607 H 345.398 -5.51291 3.47738 0
M  V30 3608 N 348.832 -1.54138 -0.328536 0
M  V30 3609 C 350.078 -1.73297 -1.06488 0
M  V30 3610 C 350.433 -0.497958 -1.85844 0
M  V30 3611 O 349.726 0.509591 -1.84699 0
M  V30 3612 C 349.92 -2.9457 -2.02393 0
M  V30 3613 C 349.749 -4.29747 -1.32467 0
M  V30 3614 C 348.519 -4.93987 -1.06324 0
M  V30 3615 C 350.717 -5.08903 -0.743137 0
M  V30 3616 N 348.699 -6.13005 -0.331359 0
M  V30 3617 C 350.07 -6.19836 -0.142602 0
M  V30 3618 C 352.125 -4.93699 -0.64546 0
M  V30 3619 C 350.828 -7.17224 0.546125 0
M  V30 3620 C 352.854 -5.91393 0.0295558 0
M  V30 3621 C 352.216 -7.01674 0.619056 0
M  V30 3622 H 348.315 -0.687017 -0.373539 0
M  V30 3623 H 350.899 -1.91589 -0.346659 0
M  V30 3624 H 349.07 -2.77752 -2.71493 0
M  V30 3625 H 350.802 -3.0238 -2.68977 0
M  V30 3626 H 347.557 -4.53824 -1.35428 0
M  V30 3627 H 347.981 -6.76997 0.0202939 0
M  V30 3628 H 352.623 -4.08589 -1.08695 0
M  V30 3629 H 350.341 -8.01896 0.999459 0
M  V30 3630 H 353.927 -5.81706 0.104705 0
M  V30 3631 H 352.807 -7.75971 1.13309 0
M  V30 3632 N 350.31 0.590341 -1.46126 0
M  V30 3633 C 351.721 1.17243 -1.45296 0
M  V30 3634 C 352.072 1.95281 -0.189723 0
M  V30 3635 O 351.197 2.04502 0.707674 0
M  V30 3636 C 351.792 2.13284 -2.6324 0
M  V30 3637 C 350.351 2.66832 -2.65476 0
M  V30 3638 C 349.498 1.42557 -2.3785 0
M  V30 3639 H 352.449 0.378692 -1.54116 0
M  V30 3640 H 352.47 2.96619 -2.38323 0
M  V30 3641 H 351.982 1.56459 -3.55165 0
M  V30 3642 H 350.083 3.27548 -1.77603 0
M  V30 3643 H 350.196 3.10088 -3.65215 0
M  V30 3644 H 348.56 1.72107 -1.87753 0
M  V30 3645 H 349.343 0.875741 -3.31942 0
M  V30 3646 N 351.788 1.33704 0.83433 0
M  V30 3647 C 352.698 1.26382 1.97648 0
M  V30 3648 C 353.714 0.173548 1.73132 0
M  V30 3649 O 354.89 0.397962 1.97429 0
M  V30 3650 C 351.955 1.00769 3.31733 0
M  V30 3651 C 351.016 2.1884 3.69334 0
M  V30 3652 C 350.249 1.9444 4.9702 0
M  V30 3653 O 350.472 0.896961 5.63303 0
M  V30 3654 O 349.406 2.81093 5.32231 0
M  V30 3655 H 353.232 2.22444 2.06767 0
M  V30 3656 H 350.817 1.13795 0.968037 0
M  V30 3657 H 352.699 0.882186 4.12062 0
M  V30 3658 H 351.374 0.0773783 3.23608 0
M  V30 3659 H 350.281 2.36946 2.89495 0
M  V30 3660 H 351.614 3.10221 3.82131 0
M  V30 3661 N 353.266 -1.05314 1.17247 0
M  V30 3662 C 354.514 -1.77941 0.958194 0
M  V30 3663 C 354.835 -1.88089 -0.514556 0
M  V30 3664 O 354.105 -1.39676 -1.37359 0
M  V30 3665 H 352.685 -0.659116 0.351533 0
M  V30 3666 H 355.347 -1.27166 1.47699 0
M  V30 3667 H 354.443 -2.79663 1.38546 0
M  V30 3668 N 354.744 -0.972509 -1.24016 0
M  V30 3669 C 356.155 -0.67517 -1.74064 0
M  V30 3670 C 356.506 0.808939 -1.78747 0
M  V30 3671 O 355.631 1.63286 -1.42009 0
M  V30 3672 C 356.226 -1.21889 -3.16115 0
M  V30 3673 C 354.785 -0.971358 -3.6365 0
M  V30 3674 C 353.932 -1.35134 -2.42145 0
M  V30 3675 H 356.883 -1.14727 -1.09651 0
M  V30 3676 H 356.904 -0.587489 -3.75937 0
M  V30 3677 H 356.416 -2.29906 -3.12674 0
M  V30 3678 H 354.517 0.0930686 -3.72484 0
M  V30 3679 H 354.63 -1.62039 -4.50866 0
M  V30 3680 H 352.994 -0.769751 -2.4279 0
M  V30 3681 H 353.777 -2.4411 -2.41381 0
M  V30 3682 N 356.222 1.38976 -0.743202 0
M  V30 3683 C 357.169 2.30544 -0.10861 0
M  V30 3684 C 358.139 1.49642 0.720869 0
M  V30 3685 O 359.324 1.78304 0.679142 0
M  V30 3686 C 356.464 3.36018 0.786496 0
M  V30 3687 C 355.577 4.31963 -0.0564849 0
M  V30 3688 C 354.712 5.24506 0.840657 0
M  V30 3689 C 353.751 6.121 -0.00658363 0
M  V30 3690 N 352.888 6.96973 0.846943 0
M  V30 3691 H 357.728 2.8424 -0.895088 0
M  V30 3692 H 355.265 1.3995 -0.453048 0
M  V30 3693 H 357.223 3.95768 1.31999 0
M  V30 3694 H 355.853 2.83758 1.53887 0
M  V30 3695 H 354.905 3.73763 -0.707492 0
M  V30 3696 H 356.217 4.93703 -0.711229 0
M  V30 3697 H 355.371 5.89322 1.4417 0
M  V30 3698 H 354.11 4.63107 1.52916 0
M  V30 3699 H 353.115 5.46289 -0.620366 0
M  V30 3700 H 354.34 6.75565 -0.691992 0
M  V30 3701 H 352.286 6.38133 1.52059 0
M  V30 3702 H 352.203 7.5559 0.248864 0
M  V30 3703 H 353.471 7.6621 1.43328 0
M  V30 3704 N 357.7 0.491464 1.49741 0
M  V30 3705 C 358.632 -0.328609 2.26832 0
M  V30 3706 C 359.645 -0.939113 1.32983 0
M  V30 3707 O 360.834 -0.824067 1.58339 0
M  V30 3708 C 357.934 -1.47675 3.05033 0
M  V30 3709 C 357.107 -0.975305 4.26388 0
M  V30 3710 C 356.166 -1.99991 4.86714 0
M  V30 3711 O 355.192 -1.57229 5.47054 0
M  V30 3712 N 356.394 -3.32962 4.75517 0
M  V30 3713 H 359.159 0.332377 2.97851 0
M  V30 3714 H 356.72 0.323441 1.58636 0
M  V30 3715 H 358.712 -2.15954 3.42266 0
M  V30 3716 H 357.282 -2.04206 2.36683 0
M  V30 3717 H 356.502 -0.117723 3.94024 0
M  V30 3718 H 357.79 -0.618531 5.05026 0
M  V30 3719 H 357.188 -3.70399 4.27576 0
M  V30 3720 H 355.745 -3.96982 5.16961 0
M  V30 3721 N 359.178 -1.55987 0.224894 0
M  V30 3722 C 360.128 -2.17076 -0.697296 0
M  V30 3723 C 361.112 -1.12006 -1.15514 0
M  V30 3724 O 362.304 -1.37985 -1.10857 0
M  V30 3725 C 359.433 -2.85679 -1.90374 0
M  V30 3726 C 358.519 -3.97977 -1.46543 0
M  V30 3727 N 358.91 -5.00359 -0.739909 0
M  V30 3728 C 357.208 -4.10128 -1.75245 0
M  V30 3729 C 357.909 -5.79407 -0.515939 0
M  V30 3730 N 356.885 -5.32892 -1.07364 0
M  V30 3731 H 360.687 -2.93592 -0.134594 0
M  V30 3732 H 358.201 -1.62379 0.0262885 0
M  V30 3733 H 360.198 -3.27857 -2.57518 0
M  V30 3734 H 358.858 -2.1066 -2.47088 0
M  V30 3735 H 359.869 -5.16412 -0.392253 0
M  V30 3736 H 356.546 -3.46263 -2.33255 0
M  V30 3737 H 357.936 -6.71872 0.0617349 0
M  V30 3738 N 360.656 0.0484629 -1.57525 0
M  V30 3739 C 361.903 0.743125 -1.88372 0
M  V30 3740 C 362.231 1.76383 -0.819715 0
M  V30 3741 O 361.486 1.94855 0.181659 0
M  V30 3742 C 361.785 1.46632 -3.25935 0
M  V30 3743 C 361.451 0.583427 -4.4711 0
M  V30 3744 C 360.113 0.340191 -4.79996 0
M  V30 3745 C 362.465 -0.0273345 -5.21193 0
M  V30 3746 C 359.793 -0.522903 -5.84365 0
M  V30 3747 C 362.145 -0.878017 -6.26477 0
M  V30 3748 C 360.809 -1.1309 -6.5785 0
M  V30 3749 H 360.079 0.271929 -0.689301 0
M  V30 3750 H 362.726 0.00336166 -1.915 0
M  V30 3751 H 361.031 2.2789 -3.18706 0
M  V30 3752 H 362.728 2.00902 -3.47044 0
M  V30 3753 H 359.318 0.783151 -4.21384 0
M  V30 3754 H 363.502 0.147654 -4.9608 0
M  V30 3755 H 358.758 -0.727335 -6.07058 0
M  V30 3756 H 362.932 -1.35789 -6.83033 0
M  V30 3757 H 360.559 -1.80144 -7.38547 0
M  V30 3758 N 362.134 1.5431 0.320358 0
M  V30 3759 C 363.362 1.76636 1.07738 0
M  V30 3760 C 363.777 0.51649 1.81598 0
M  V30 3761 O 363.134 -0.512942 1.75143 0
M  V30 3762 C 363.185 2.96158 2.07299 0
M  V30 3763 O 362.906 4.16313 1.36438 0
M  V30 3764 C 364.407 3.3072 2.95193 0
M  V30 3765 H 361.627 0.589597 0.320339 0
M  V30 3766 H 364.171 2.01207 0.36551 0
M  V30 3767 H 362.326 2.73851 2.74016 0
M  V30 3768 H 362.74 4.83565 2.03138 0
M  V30 3769 H 364.214 4.17643 3.60941 0
M  V30 3770 H 364.691 2.48026 3.62463 0
M  V30 3771 H 365.297 3.55117 2.34034 0
M  V30 3772 N 363.613 -0.582584 1.46437 0
M  V30 3773 C 364.843 -1.36484 1.55099 0
M  V30 3774 C 365.251 -1.88233 0.191056 0
M  V30 3775 O 364.594 -1.6429 -0.821858 0
M  V30 3776 C 364.656 -2.588 2.49525 0
M  V30 3777 C 364.32 -2.28517 3.95764 0
M  V30 3778 C 365.317 -1.87346 4.84972 0
M  V30 3779 C 363.002 -2.40658 4.40896 0
M  V30 3780 C 364.996 -1.5871 6.17325 0
M  V30 3781 C 362.683 -2.11635 5.73284 0
M  V30 3782 C 363.681 -1.70725 6.61318 0
M  V30 3783 O 363.369 -1.42057 7.91249 0
M  V30 3784 H 363.101 -0.423297 0.527063 0
M  V30 3785 H 365.655 -0.715188 1.92547 0
M  V30 3786 H 363.885 -3.26571 2.07095 0
M  V30 3787 H 365.574 -3.20868 2.48593 0
M  V30 3788 H 366.34 -1.77481 4.5136 0
M  V30 3789 H 362.219 -2.71463 3.72598 0
M  V30 3790 H 365.763 -1.26704 6.85997 0
M  V30 3791 H 361.66 -2.21124 6.06444 0
M  V30 3792 H 362.428 -1.55901 8.03515 0
M  V30 3793 N 365.091 -1.34144 -0.827227 0
M  V30 3794 C 366.041 -1.21923 -1.92663 0
M  V30 3795 C 367.025 -0.119294 -1.60457 0
M  V30 3796 O 368.217 -0.348539 -1.73534 0
M  V30 3797 C 365.346 -0.972492 -3.29238 0
M  V30 3798 C 364.432 -2.1154 -3.67576 0
M  V30 3799 N 364.823 -3.36627 -3.77512 0
M  V30 3800 C 363.121 -2.02468 -3.97395 0
M  V30 3801 C 363.822 -4.11658 -4.1099 0
M  V30 3802 N 362.798 -3.40207 -4.23981 0
M  V30 3803 H 366.6 -2.16721 -1.98517 0
M  V30 3804 H 364.114 -1.2632 -1.02064 0
M  V30 3805 H 366.111 -0.865847 -4.0781 0
M  V30 3806 H 364.771 -0.0331509 -3.24683 0
M  V30 3807 H 365.782 -3.71234 -3.61118 0
M  V30 3808 H 362.459 -1.16265 -4.00985 0
M  V30 3809 H 363.849 -5.19657 -4.25918 0
M  V30 3810 N 366.569 1.04691 -1.17803 0
M  V30 3811 C 367.818 1.77176 -0.963931 0
M  V30 3812 C 368.131 1.88888 0.508015 0
M  V30 3813 O 369.337 2.58164 0.840465 0
M  V30 3814 C 367.793 3.18518 -1.67555 0
M  V30 3815 C 367.401 3.14919 -3.18637 0
M  V30 3816 C 369.145 3.95424 -1.54402 0
M  V30 3817 C 367.052 4.51081 -3.82466 0
M  V30 3818 H 365.982 0.664116 -0.357023 0
M  V30 3819 H 368.633 1.17303 -1.4111 0
M  V30 3820 H 367.015 3.78748 -1.15613 0
M  V30 3821 H 368.189 2.64178 -3.77554 0
M  V30 3822 H 366.504 2.51512 -3.31859 0
M  V30 3823 H 369.101 4.96106 -1.99456 0
M  V30 3824 H 369.444 4.13343 -0.495329 0
M  V30 3825 H 369.977 3.41754 -2.0359 0
M  V30 3826 H 366.716 4.38368 -4.87354 0
M  V30 3827 H 366.236 5.01951 -3.28337 0
M  V30 3828 H 367.915 5.2001 -3.84965 0
M  V30 3829 N 368.047 0.979072 1.23499 0
M  V30 3830 C 369.296 0.642751 1.91185 0
M  V30 3831 C 369.609 -0.827253 1.77245 0
M  V30 3832 O 370.815 -1.27458 2.39722 0
M  V30 3833 C 369.271 1.09901 3.42709 0
M  V30 3834 C 368.879 2.59327 3.65313 0
M  V30 3835 C 370.623 0.836371 4.16179 0
M  V30 3836 C 368.53 2.98627 5.10467 0
M  V30 3837 H 367.46 0.236698 0.715884 0
M  V30 3838 H 370.111 1.1868 1.39955 0
M  V30 3839 H 368.493 0.48319 3.93041 0
M  V30 3840 H 369.667 3.26136 3.25533 0
M  V30 3841 H 367.982 2.83323 3.05151 0
M  V30 3842 H 370.579 1.10586 5.23139 0
M  V30 3843 H 370.922 -0.227509 4.15678 0
M  V30 3844 H 371.455 1.41371 3.71832 0
M  V30 3845 H 368.194 4.04133 5.16098 0
M  V30 3846 H 367.714 2.3651 5.51201 0
M  V30 3847 H 369.393 2.89159 5.78788 0
M  V30 3848 N 369.525 -1.3858 0.750561 0
M  V30 3849 C 370.771 -2.00481 0.305825 0
M  V30 3850 C 371.104 -1.5944 -1.10872 0
M  V30 3851 O 370.379 -0.83052 -1.75877 0
M  V30 3852 C 370.662 -3.5758 0.425287 0
M  V30 3853 C 370.515 -4.08594 1.88072 0
M  V30 3854 C 371.834 -4.39719 -0.183122 0
M  V30 3855 H 368.953 -0.728348 0.112598 0
M  V30 3856 H 371.595 -1.64566 0.949638 0
M  V30 3857 H 369.745 -3.88306 -0.122828 0
M  V30 3858 H 371.417 -3.88523 2.48691 0
M  V30 3859 H 369.66 -3.61574 2.39681 0
M  V30 3860 H 370.331 -5.177 1.91548 0
M  V30 3861 H 372.807 -4.15128 0.284303 0
M  V30 3862 H 371.683 -5.48856 -0.0692757 0
M  V30 3863 H 371.944 -4.23434 -1.27106 0
M  V30 3864 N 371.003 -0.499398 -1.49478 0
M  V30 3865 C 372.252 0.0475259 -2.01644 0
M  V30 3866 C 372.565 1.38195 -1.38425 0
M  V30 3867 O 373.771 2.01547 -1.8191 0
M  V30 3868 C 372.227 0.135164 -3.59646 0
M  V30 3869 C 371.835 -1.19252 -4.31837 0
M  V30 3870 C 373.579 0.632538 -4.19761 0
M  V30 3871 C 371.486 -1.06713 -5.81693 0
M  V30 3872 H 370.416 0.0215349 -0.753692 0
M  V30 3873 H 373.067 -0.638577 -1.7203 0
M  V30 3874 H 371.449 0.885681 -3.85969 0
M  V30 3875 H 372.623 -1.9562 -4.17216 0
M  V30 3876 H 370.938 -1.62321 -3.83459 0
M  V30 3877 H 373.535 0.743833 -5.29501 0
M  V30 3878 H 373.878 1.63098 -3.83021 0
M  V30 3879 H 374.411 -0.0613987 -3.97753 0
M  V30 3880 H 371.15 -2.03979 -6.22955 0
M  V30 3881 H 370.67 -0.344307 -5.98811 0
M  V30 3882 H 372.349 -0.745208 -6.42694 0
M  V30 3883 N 372.481 1.55866 -0.233164 0
M  V30 3884 C 373.73 1.97779 0.39579 0
M  V30 3885 C 374.043 1.12419 1.60066 0
M  V30 3886 O 375.249 1.44283 2.29988 0
M  V30 3887 C 373.705 3.5188 0.755556 0
M  V30 3888 C 373.313 4.45959 -0.427152 0
M  V30 3889 C 375.057 4.02479 1.34946 0
M  V30 3890 C 372.964 5.91383 -0.0443043 0
M  V30 3891 H 371.894 0.738592 0.15165 0
M  V30 3892 H 374.545 1.80486 -0.331212 0
M  V30 3893 H 372.927 3.64816 1.5403 0
M  V30 3894 H 374.101 4.44776 -1.20462 0
M  V30 3895 H 372.416 4.05765 -0.935068 0
M  V30 3896 H 375.013 5.08637 1.649 0
M  V30 3897 H 375.356 3.49014 2.26925 0
M  V30 3898 H 375.889 3.92813 0.62791 0
M  V30 3899 H 372.628 6.48857 -0.930874 0
M  V30 3900 H 372.148 5.95734 0.697238 0
M  V30 3901 H 373.827 6.45893 0.378334 0
M  V30 3902 N 373.959 -0.0401083 1.57549 0
M  V30 3903 C 374.889 -1.04384 2.08869 0
M  V30 3904 C 375.87 -1.38407 0.988817 0
M  V30 3905 O 377.055 -1.47483 1.26342 0
M  V30 3906 C 374.185 -2.34808 2.55895 0
M  V30 3907 C 373.139 -2.15057 3.70047 0
M  V30 3908 C 372.465 -3.51145 4.03239 0
M  V30 3909 C 373.765 -1.54576 4.98902 0
M  V30 3910 H 375.459 -0.616666 2.92981 0
M  V30 3911 H 373.005 -0.295184 1.40942 0
M  V30 3912 H 374.958 -3.05346 2.90417 0
M  V30 3913 H 373.682 -2.79565 1.68853 0
M  V30 3914 H 372.341 -1.46954 3.35857 0
M  V30 3915 H 371.989 -3.93529 3.13279 0
M  V30 3916 H 371.689 -3.38758 4.80122 0
M  V30 3917 H 373.213 -4.23062 4.40285 0
M  V30 3918 H 374.627 -2.15017 5.31451 0
M  V30 3919 H 373.024 -1.52796 5.80322 0
M  V30 3920 H 374.094 -0.51039 4.82206 0
M  V30 3921 N 375.437 -1.54477 -0.31217 0
M  V30 3922 C 376.683 -1.73483 -1.0503 0
M  V30 3923 C 377.016 -0.513125 -1.87298 0
M  V30 3924 O 376.291 0.489864 -1.8823 0
M  V30 3925 C 376.574 -3.01723 -1.96558 0
M  V30 3926 C 376.427 -4.3417 -1.17545 0
M  V30 3927 C 377.746 -3.25772 -2.95907 0
M  V30 3928 H 374.865 -0.631222 -0.380432 0
M  V30 3929 H 377.507 -1.87184 -0.325932 0
M  V30 3930 H 375.657 -2.90174 -2.58324 0
M  V30 3931 H 377.329 -4.5762 -0.581513 0
M  V30 3932 H 375.572 -4.31159 -0.477925 0
M  V30 3933 H 376.243 -5.20143 -1.84811 0
M  V30 3934 H 378.719 -3.36857 -2.44267 0
M  V30 3935 H 377.595 -4.16838 -3.57123 0
M  V30 3936 H 377.856 -2.43537 -3.68974 0
M  V30 3937 N 376.915 0.57481 -1.46744 0
M  V30 3938 C 378.145 1.35659 -1.55821 0
M  V30 3939 C 378.553 1.88129 -0.201036 0
M  V30 3940 O 377.896 1.64723 0.813134 0
M  V30 3941 C 377.958 2.57473 -2.50894 0
M  V30 3942 C 377.622 2.26415 -3.9697 0
M  V30 3943 C 378.619 1.84771 -4.85958 0
M  V30 3944 C 376.304 2.38316 -4.42166 0
M  V30 3945 C 378.298 1.55434 -6.18158 0
M  V30 3946 C 375.985 2.08591 -5.74398 0
M  V30 3947 C 376.983 1.67216 -6.62214 0
M  V30 3948 O 376.671 1.37859 -7.91991 0
M  V30 3949 H 376.403 0.420496 -0.529301 0
M  V30 3950 H 378.957 0.704967 -1.92923 0
M  V30 3951 H 377.187 3.25468 -2.08824 0
M  V30 3952 H 378.876 3.19546 -2.50291 0
M  V30 3953 H 379.642 1.75085 -4.52295 0
M  V30 3954 H 375.521 2.69483 -3.74032 0
M  V30 3955 H 379.065 1.23065 -6.86659 0
M  V30 3956 H 374.962 2.17905 -6.07608 0
M  V30 3957 H 375.73 1.51638 -8.04331 0
M  V30 3958 N 378.394 1.34581 0.820102 0
M  V30 3959 C 379.634 1.28448 1.58998 0
M  V30 3960 C 379.998 -0.142883 1.91468 0
M  V30 3961 O 381.199 -0.328422 2.66786 0
M  V30 3962 C 379.47 2.153 2.85273 0
M  V30 3963 S 381.029 2.26548 3.75794 0
M  V30 3964 H 377.847 0.456685 0.54494 0
M  V30 3965 H 380.449 1.69825 0.968487 0
M  V30 3966 H 379.153 3.18008 2.59421 0
M  V30 3967 H 378.684 1.7483 3.52417 0
M  V30 3968 H 380.699 1.44034 4.74835 0
M  V30 3969 N 379.872 -1.04064 1.18357 0
M  V30 3970 C 381.119 -1.77265 0.978947 0
M  V30 3971 C 381.447 -1.88189 -0.491428 0
M  V30 3972 O 380.702 -1.38653 -1.38108 0
M  V30 3973 C 381.001 -3.20634 1.57888 0
M  V30 3974 C 380.667 -3.29743 3.07539 0
M  V30 3975 C 379.329 -3.31937 3.48384 0
M  V30 3976 C 381.681 -3.29841 4.03552 0
M  V30 3977 C 379.009 -3.3187 4.83818 0
M  V30 3978 C 381.361 -3.31313 5.38901 0
M  V30 3979 C 380.025 -3.31799 5.79194 0
M  V30 3980 H 379.295 -0.648659 0.358222 0
M  V30 3981 H 381.942 -1.22225 1.47422 0
M  V30 3982 H 380.247 -3.78675 1.00561 0
M  V30 3983 H 381.944 -3.75917 1.39598 0
M  V30 3984 H 378.534 -3.28757 2.74986 0
M  V30 3985 H 382.718 -3.27337 3.73047 0
M  V30 3986 H 377.974 -3.30562 5.14333 0
M  V30 3987 H 382.148 -3.30338 6.13066 0
M  V30 3988 H 379.775 -3.315 6.84114 0
M  V30 3989 N 381.35 -0.985608 -1.22978 0
M  V30 3990 C 382.761 -0.693593 -1.73338 0
M  V30 3991 C 383.112 0.789935 -1.79595 0
M  V30 3992 O 382.237 1.61771 -1.43733 0
M  V30 3993 C 382.832 -1.25235 -3.14804 0
M  V30 3994 C 381.391 -1.00987 -3.626 0
M  V30 3995 C 380.538 -1.37695 -2.40698 0
M  V30 3996 H 383.489 -1.15884 -1.08428 0
M  V30 3997 H 383.51 -0.627329 -3.75293 0
M  V30 3998 H 383.022 -2.33209 -3.10218 0
M  V30 3999 H 381.123 0.0535565 -3.72562 0
M  V30 4000 H 381.236 -1.66812 -4.49122 0
M  V30 4001 H 379.6 -0.795459 -2.4196 0
M  V30 4002 H 380.383 -2.46657 -2.38779 0
M  V30 4003 N 382.828 1.3818 -0.7579 0
M  V30 4004 C 383.758 2.33027 -0.148597 0
M  V30 4005 C 384.739 1.55085 0.69875 0
M  V30 4006 O 385.924 1.83384 0.639053 0
M  V30 4007 C 383.054 3.3928 0.742034 0
M  V30 4008 C 382.008 4.28 -0.00291946 0
M  V30 4009 C 381.334 5.25146 1.00625 0
M  V30 4010 C 382.634 5.08938 -1.17385 0
M  V30 4011 H 384.328 2.84231 -0.940909 0
M  V30 4012 H 381.874 1.36659 -0.453908 0
M  V30 4013 H 383.827 4.046 1.17799 0
M  V30 4014 H 382.551 2.86569 1.56671 0
M  V30 4015 H 381.21 3.64192 -0.419504 0
M  V30 4016 H 380.858 4.68721 1.8251 0
M  V30 4017 H 380.558 5.85361 0.512428 0
M  V30 4018 H 382.082 5.93342 1.44143 0
M  V30 4019 H 383.496 5.67474 -0.815224 0
M  V30 4020 H 381.893 5.7841 -1.59882 0
M  V30 4021 H 382.963 4.42424 -1.98468 0
M  V30 4022 N 384.306 0.507319 1.49211 0
M  V30 4023 C 385.236 -0.256939 2.32082 0
M  V30 4024 C 386.217 -0.956609 1.40652 0
M  V30 4025 O 387.402 -0.946788 1.69557 0
M  V30 4026 C 384.532 -1.31802 3.21318 0
M  V30 4027 C 383.486 -0.737855 4.21592 0
M  V30 4028 C 382.812 -1.89992 4.99807 0
M  V30 4029 C 384.112 0.275325 5.21574 0
M  V30 4030 H 385.806 0.434798 2.96226 0
M  V30 4031 H 383.352 0.210546 1.42452 0
M  V30 4032 H 385.305 -1.86045 3.78107 0
M  V30 4033 H 384.029 -2.03903 2.5513 0
M  V30 4034 H 382.688 -0.217126 3.65956 0
M  V30 4035 H 382.336 -2.60877 4.30061 0
M  V30 4036 H 382.036 -1.51777 5.6766 0
M  V30 4037 H 383.56 -2.44657 5.59442 0
M  V30 4038 H 384.974 -0.179193 5.7302 0
M  V30 4039 H 383.371 0.573649 5.97352 0
M  V30 4040 H 384.441 1.18903 4.70096 0
M  V30 4041 N 385.784 -1.5574 0.241426 0
M  V30 4042 C 387.033 -1.97986 -0.385295 0
M  V30 4043 C 387.346 -1.13267 -1.59468 0
M  V30 4044 O 388.552 -1.45501 -2.2922 0
M  V30 4045 C 387.008 -3.52275 -0.736884 0
M  V30 4046 C 386.616 -4.45726 0.450796 0
M  V30 4047 C 388.36 -4.03189 -1.3281 0
M  V30 4048 C 386.267 -5.91352 0.0756662 0
M  V30 4049 H 385.197 -0.739386 -0.147731 0
M  V30 4050 H 387.848 -1.80308 0.340779 0
M  V30 4051 H 386.23 -3.65628 -1.52094 0
M  V30 4052 H 387.404 -4.44131 1.22819 0
M  V30 4053 H 385.719 -4.05264 0.956573 0
M  V30 4054 H 388.316 -5.09505 -1.62201 0
M  V30 4055 H 388.659 -3.50212 -2.25071 0
M  V30 4056 H 389.192 -3.93141 -0.607069 0
M  V30 4057 H 385.931 -6.48354 0.965272 0
M  V30 4058 H 385.451 -5.96095 -0.665635 0
M  V30 4059 H 387.13 -6.46084 -0.344075 0
M  V30 4060 N 387.262 0.0317525 -1.57568 0
M  V30 4061 C 388.195 1.06621 -2.0176 0
M  V30 4062 C 389.173 1.35323 -0.901462 0
M  V30 4063 O 390.357 1.48025 -1.16708 0
M  V30 4064 C 387.484 2.40155 -2.38837 0
M  V30 4065 C 386.53 2.27327 -3.60867 0
M  V30 4066 S 387.363 1.62925 -5.10113 0
M  V30 4067 C 388.519 2.97955 -5.5043 0
M  V30 4068 H 388.752 0.689781 -2.89187 0
M  V30 4069 H 386.285 0.24164 -1.52497 0
M  V30 4070 H 388.243 3.1695 -2.6087 0
M  V30 4071 H 386.904 2.74946 -1.51867 0
M  V30 4072 H 386.097 3.25898 -3.84456 0
M  V30 4073 H 385.699 1.58675 -3.38671 0
M  V30 4074 H 387.991 3.94285 -5.5095 0
M  V30 4075 H 388.934 2.79102 -6.50775 0
M  V30 4076 H 389.342 3.00404 -4.77931 0
M  V30 4077 N 388.74 1.54641 0.303973 0
M  V30 4078 C 389.988 1.73437 1.0375 0
M  V30 4079 C 390.309 0.521449 1.87899 0
M  V30 4080 O 389.579 -0.46432 1.90318 0
M  V30 4081 H 388.159 0.639518 0.386039 0
M  V30 4082 H 390.821 1.91988 0.335675 0
M  V30 4083 H 389.917 2.62235 1.69231 0
M  V30 4084 N 390.218 -0.567019 1.47046 0
M  V30 4085 C 391.467 -1.32091 1.5243 0
M  V30 4086 C 391.78 -1.94704 0.187021 0
M  V30 4087 O 392.986 -2.7124 0.118771 0
M  V30 4088 C 391.442 -2.39479 2.68659 0
M  V30 4089 C 391.05 -1.831 4.08874 0
M  V30 4090 C 392.794 -3.16111 2.83327 0
M  V30 4091 C 390.701 -2.8821 5.16419 0
M  V30 4092 H 389.631 -0.496629 0.56734 0
M  V30 4093 H 392.282 -0.603354 1.73297 0
M  V30 4094 H 390.664 -3.14105 2.41152 0
M  V30 4095 H 391.838 -1.14913 4.46242 0
M  V30 4096 H 390.153 -1.19085 3.99008 0
M  V30 4097 H 392.75 -3.94585 3.60842 0
M  V30 4098 H 393.093 -3.69686 1.91411 0
M  V30 4099 H 393.626 -2.48595 3.10556 0
M  V30 4100 H 390.365 -2.39504 6.10179 0
M  V30 4101 H 389.885 -3.54839 4.8358 0
M  V30 4102 H 391.564 -3.51881 5.42945 0
M  V30 4103 N 391.696 -1.35014 -0.812953 0
M  V30 4104 C 392.924 -1.31031 -1.6012 0
M  V30 4105 C 393.339 0.113558 -1.88458 0
M  V30 4106 O 392.696 1.06363 -1.48301 0
M  V30 4107 C 392.747 -2.10872 -2.93624 0
M  V30 4108 O 392.468 -3.47706 -2.66518 0
M  V30 4109 C 393.969 -2.14401 -3.88004 0
M  V30 4110 H 391.189 -0.45037 -0.497401 0
M  V30 4111 H 393.733 -1.77775 -1.01076 0
M  V30 4112 H 391.888 -1.67744 -3.492 0
M  V30 4113 H 392.302 -3.89097 -3.51715 0
M  V30 4114 H 393.776 -2.74669 -4.78812 0
M  V30 4115 H 394.253 -1.14105 -4.24119 0
M  V30 4116 H 394.859 -2.57662 -3.38364 0
M  V30 4117 N 393.175 1.03435 -1.18907 0
M  V30 4118 C 394.405 1.8012 -1.01195 0
M  V30 4119 C 394.813 1.8395 0.442613 0
M  V30 4120 O 394.156 1.27836 1.31923 0
M  V30 4121 C 394.218 3.26792 -1.49823 0
M  V30 4122 C 393.882 3.46609 -2.97844 0
M  V30 4123 C 394.879 3.37278 -3.95651 0
M  V30 4124 C 392.564 3.73001 -3.36416 0
M  V30 4125 C 394.558 3.54054 -5.30023 0
M  V30 4126 C 392.245 3.89423 -4.70949 0
M  V30 4127 C 393.243 3.79951 -5.67562 0
M  V30 4128 O 392.931 3.95895 -6.99659 0
M  V30 4129 H 392.663 0.573865 -0.357289 0
M  V30 4130 H 395.217 1.31207 -1.58031 0
M  V30 4131 H 393.447 3.76703 -0.873578 0
M  V30 4132 H 395.136 3.85055 -1.28404 0
M  V30 4133 H 395.902 3.16846 -3.67197 0
M  V30 4134 H 391.781 3.79469 -2.61772 0
M  V30 4135 H 395.325 3.46577 -6.05417 0
M  V30 4136 H 391.222 4.09351 -4.99101 0
M  V30 4137 H 391.99 4.13019 -7.06653 0
M  V30 4138 N 394.653 0.992116 1.22453 0
M  V30 4139 C 395.881 0.685944 1.95198 0
M  V30 4140 C 396.296 -0.749233 1.73297 0
M  V30 4141 O 395.653 -1.50549 1.03156 0
M  V30 4142 C 395.704 0.981395 3.47924 0
M  V30 4143 O 395.425 2.36018 3.6909 0
M  V30 4144 C 396.926 0.692815 4.37853 0
M  V30 4145 H 394.146 0.253821 0.621141 0
M  V30 4146 H 396.69 1.32668 1.55626 0
M  V30 4147 H 394.845 0.386481 3.85467 0
M  V30 4148 H 395.259 2.45884 4.63294 0
M  V30 4149 H 396.733 0.949818 5.43767 0
M  V30 4150 H 397.21 -0.373181 4.37612 0
M  V30 4151 H 397.816 1.26874 4.05935 0
M  V30 4152 N 396.131 -1.37776 0.765217 0
M  V30 4153 C 397.38 -1.99092 0.323307 0
M  V30 4154 C 397.693 -1.61434 -1.10446 0
M  V30 4155 O 398.899 -2.15805 -1.64743 0
M  V30 4156 C 397.355 -3.56019 0.527098 0
M  V30 4157 C 396.963 -4.0262 1.96471 0
M  V30 4158 C 398.707 -4.2424 0.148483 0
M  V30 4159 C 396.614 -5.52233 2.11644 0
M  V30 4160 H 395.544 -0.744846 0.117137 0
M  V30 4161 H 398.195 -1.57391 0.943417 0
M  V30 4162 H 396.577 -3.95667 -0.162372 0
M  V30 4163 H 397.751 -3.74234 2.68859 0
M  V30 4164 H 396.066 -3.47161 2.29931 0
M  V30 4165 H 398.663 -5.34159 0.240456 0
M  V30 4166 H 399.006 -4.06446 -0.900422 0
M  V30 4167 H 399.539 -3.89872 0.79025 0
M  V30 4168 H 396.278 -5.74945 3.1483 0
M  V30 4169 H 395.798 -5.82324 1.4373 0
M  V30 4170 H 397.477 -6.18106 1.91193 0
M  V30 4171 N 397.609 -0.515225 -1.4894 0
M  V30 4172 C 398.855 0.0242508 -2.02785 0
M  V30 4173 C 399.188 1.35323 -1.39289 0
M  V30 4174 O 398.463 1.87041 -0.533469 0
M  V30 4175 C 398.746 0.16184 -3.59736 0
M  V30 4176 C 398.599 -1.19127 -4.33738 0
M  V30 4177 C 399.918 0.895719 -4.30888 0
M  V30 4178 H 397.037 0.00733914 -0.736963 0
M  V30 4179 H 399.679 -0.669395 -1.77818 0
M  V30 4180 H 397.829 0.752624 -3.8114 0
M  V30 4181 H 399.501 -1.82202 -4.23792 0
M  V30 4182 H 397.744 -1.77695 -3.95736 0
M  V30 4183 H 398.415 -1.04815 -5.41957 0
M  V30 4184 H 400.891 0.394528 -4.14225 0
M  V30 4185 H 399.767 0.960859 -5.40425 0
M  V30 4186 H 400.028 1.9427 -3.97129 0
M  V30 4187 N 399.087 1.5561 -0.249682 0
M  V30 4188 C 400.335 1.98618 0.373548 0
M  V30 4189 C 400.656 1.13919 1.58264 0
M  V30 4190 O 399.926 0.222637 1.94631 0
M  V30 4191 H 398.506 0.733571 0.141006 0
M  V30 4192 H 401.168 1.91748 -0.349117 0
M  V30 4193 H 400.264 3.04584 0.680796 0
M  V30 4194 N 400.565 -0.0233959 1.57583 0
M  V30 4195 C 401.814 -0.712133 1.8871 0
M  V30 4196 C 402.127 -1.76217 0.848944 0
M  V30 4197 O 403.333 -2.50389 1.04964 0
M  V30 4198 C 401.789 -1.3177 3.3491 0
M  V30 4199 C 401.397 -0.303715 4.46969 0
M  V30 4200 C 403.141 -1.98598 3.75179 0
M  V30 4201 C 401.048 -0.917945 5.84233 0
M  V30 4202 H 399.978 -0.269735 0.704101 0
M  V30 4203 H 402.629 0.0333114 1.8347 0
M  V30 4204 H 401.011 -2.11304 3.34913 0
M  V30 4205 H 402.185 0.465325 4.58445 0
M  V30 4206 H 400.5 0.2628 4.1557 0
M  V30 4207 H 403.097 -2.45416 4.75053 0
M  V30 4208 H 403.44 -2.80659 3.07468 0
M  V30 4209 H 403.973 -1.25831 3.77374 0
M  V30 4210 H 400.712 -0.136633 6.55358 0
M  V30 4211 H 400.232 -1.65669 5.76467 0
M  V30 4212 H 401.911 -1.4236 6.31144 0
M  V30 4213 N 402.043 -1.548 -0.295768 0
M  V30 4214 C 403.271 -1.78327 -1.04914 0
M  V30 4215 C 403.686 -0.545316 -1.80753 0
M  V30 4216 O 403.043 0.485013 -1.75937 0
M  V30 4217 C 403.094 -2.99418 -2.02561 0
M  V30 4218 O 402.815 -4.18431 -1.29798 0
M  V30 4219 C 404.316 -3.35375 -2.89895 0
M  V30 4220 H 401.536 -0.594618 -0.310918 0
M  V30 4221 H 404.08 -2.01763 -0.333454 0
M  V30 4222 H 402.235 -2.78175 -2.69624 0
M  V30 4223 H 402.649 -4.86736 -1.95419 0
M  V30 4224 H 404.123 -4.23332 -3.54251 0
M  V30 4225 H 404.6 -2.53761 -3.58472 0
M  V30 4226 H 405.206 -3.58796 -2.28355 0
M  V30 4227 N 403.521 0.559213 -1.47345 0
M  V30 4228 C 404.451 1.67622 -1.62558 0
M  V30 4229 C 405.432 1.63331 -0.475087 0
M  V30 4230 O 406.617 1.80983 -0.704182 0
M  V30 4231 C 403.747 3.0626 -1.63774 0
M  V30 4232 C 402.701 3.25397 -2.7803 0
M  V30 4233 C 402.027 4.64801 -2.64318 0
M  V30 4234 C 403.327 3.10965 -4.19641 0
M  V30 4235 H 405.021 1.55146 -2.56067 0
M  V30 4236 H 402.567 0.744961 -1.23233 0
M  V30 4237 H 404.52 3.84247 -1.73008 0
M  V30 4238 H 403.244 3.1969 -0.66825 0
M  V30 4239 H 401.903 2.49817 -2.68304 0
M  V30 4240 H 401.551 4.75028 -1.65401 0
M  V30 4241 H 401.251 4.78555 -3.40968 0
M  V30 4242 H 402.775 5.44926 -2.75478 0
M  V30 4243 H 404.189 3.78772 -4.30354 0
M  V30 4244 H 402.586 3.36229 -4.97062 0
M  V30 4245 H 403.656 2.07736 -4.38148 0
M  V30 4246 N 404.999 1.35443 0.805782 0
M  V30 4247 C 406.245 1.2996 1.56467 0
M  V30 4248 C 406.6 -0.124742 1.91995 0
M  V30 4249 O 405.893 -1.07533 1.58579 0
M  V30 4250 C 406.087 2.14045 2.86216 0
M  V30 4251 C 405.916 3.64512 2.63365 0
M  V30 4252 C 404.686 4.33744 2.59219 0
M  V30 4253 C 406.884 4.58142 2.33688 0
M  V30 4254 N 404.866 5.69953 2.28094 0
M  V30 4255 C 406.237 5.8248 2.12408 0
M  V30 4256 C 408.292 4.46877 2.19558 0
M  V30 4257 C 406.995 6.96818 1.78429 0
M  V30 4258 C 409.021 5.61065 1.86976 0
M  V30 4259 C 408.383 6.84431 1.66532 0
M  V30 4260 H 404.482 0.530817 0.574245 0
M  V30 4261 H 407.066 1.70333 0.943126 0
M  V30 4262 H 405.237 1.75942 3.46264 0
M  V30 4263 H 406.969 2.00075 3.51784 0
M  V30 4264 H 403.724 3.86365 2.73896 0
M  V30 4265 H 404.148 6.41845 2.15323 0
M  V30 4266 H 408.79 3.52102 2.34061 0
M  V30 4267 H 406.508 7.91559 1.62664 0
M  V30 4268 H 410.094 5.54302 1.7675 0
M  V30 4269 H 408.974 7.71294 1.41688 0
M  V30 4270 N 406.477 -1.02803 1.19454 0
M  V30 4271 C 407.725 -1.75869 0.995722 0
M  V30 4272 C 408.046 -1.89138 -0.474543 0
M  V30 4273 O 407.316 -1.42558 -1.34366 0
M  V30 4274 H 405.896 -0.651511 0.365435 0
M  V30 4275 H 408.558 -1.24004 1.50363 0
M  V30 4276 H 407.654 -2.76661 1.44447 0
M  V30 4277 N 407.956 -0.998596 -1.21925 0
M  V30 4278 C 409.204 -0.676325 -1.90448 0
M  V30 4279 C 409.525 0.794719 -1.78071 0
M  V30 4280 O 408.795 1.5701 -1.17152 0
M  V30 4281 H 407.375 -0.247165 -0.704925 0
M  V30 4282 H 410.037 -1.26633 -1.48156 0
M  V30 4283 H 409.133 -0.943858 -2.97486 0
M  V30 4284 N 409.434 1.37368 -0.772513 0
M  V30 4285 C 410.344 2.34053 -0.160081 0
M  V30 4286 C 411.36 1.60216 0.678728 0
M  V30 4287 O 412.536 1.92303 0.59847 0
M  V30 4288 C 409.601 3.3939 0.708182 0
M  V30 4289 C 408.662 4.29048 -0.147172 0
M  V30 4290 C 407.895 5.29354 0.679744 0
M  V30 4291 O 408.118 5.3723 1.91678 0
M  V30 4292 O 407.052 6.01835 0.0885444 0
M  V30 4293 H 410.878 2.88159 -0.959053 0
M  V30 4294 H 408.463 1.39543 -0.533685 0
M  V30 4295 H 410.345 4.03839 1.20384 0
M  V30 4296 H 409.02 2.8761 1.48533 0
M  V30 4297 H 407.927 3.67697 -0.689205 0
M  V30 4298 H 409.26 4.84134 -0.887423 0
M  V30 4299 N 410.912 0.523116 1.48665 0
M  V30 4300 C 412.161 -0.01544 2.01694 0
M  V30 4301 C 412.474 -1.35975 1.40606 0
M  V30 4302 O 413.68 -1.98627 1.85093 0
M  V30 4303 C 412.136 -0.0779303 3.59816 0
M  V30 4304 C 411.744 1.26107 4.29885 0
M  V30 4305 C 413.488 -0.565678 4.20714 0
M  V30 4306 C 411.395 1.15954 5.79921 0
M  V30 4307 H 410.325 -0.00954163 0.75394 0
M  V30 4308 H 412.976 0.665865 1.70993 0
M  V30 4309 H 411.358 -0.824165 3.87329 0
M  V30 4310 H 412.532 2.02233 4.14051 0
M  V30 4311 H 410.847 1.68401 3.80828 0
M  V30 4312 H 413.444 -0.6595 5.30617 0
M  V30 4313 H 413.787 -1.56984 3.85567 0
M  V30 4314 H 414.32 0.12467 3.97605 0
M  V30 4315 H 411.059 2.13864 6.19631 0
M  V30 4316 H 410.579 0.439529 5.98187 0
M  V30 4317 H 412.258 0.847361 6.41427 0
M  V30 4318 N 412.39 -1.55475 0.257931 0
M  V30 4319 C 413.801 -1.8511 -0.243135 0
M  V30 4320 C 414.152 -1.17986 -1.5676 0
M  V30 4321 O 413.277 -0.462102 -2.11409 0
M  V30 4322 C 413.872 -3.35826 -0.447929 0
M  V30 4323 C 412.431 -3.65647 -0.893245 0
M  V30 4324 C 411.578 -2.7729 0.0232965 0
M  V30 4325 H 414.529 -1.51261 0.480199 0
M  V30 4326 H 414.55 -3.58002 -1.28898 0
M  V30 4327 H 414.062 -3.84652 0.516196 0
M  V30 4328 H 412.163 -3.22308 -1.86945 0
M  V30 4329 H 412.276 -4.73312 -0.742469 0
M  V30 4330 H 410.64 -2.49942 -0.490021 0
M  V30 4331 H 411.423 -3.28926 0.982994 0
M  V30 4332 N 413.868 0.0150385 -1.57593 0
M  V30 4333 C 415.116 0.701613 -1.8953 0
M  V30 4334 C 415.437 1.75139 -0.857396 0
M  V30 4335 O 414.707 1.95607 0.107194 0
M  V30 4336 H 413.287 0.26213 -0.699498 0
M  V30 4337 H 415.949 -0.0223304 -1.94887 0
M  V30 4338 H 415.045 1.18236 -2.88837 0
M  V30 4339 N 415.346 1.54954 0.287554 0
M  V30 4340 C 416.623 1.65569 1.04146 0
M  V30 4341 C 417.003 0.512672 2.0478 0
M  V30 4342 O 416.351 -0.489038 2.23205 0
M  V30 4343 C 416.561 3.04163 1.71131 0
M  V30 4344 C 417.909 3.61429 2.22832 0
M  V30 4345 O 418.933 3.06702 1.81141 0
M  V30 4346 O 417.792 4.57281 2.9926 0
M  V30 4347 H 414.886 0.671881 0.482188 0
M  V30 4348 H 417.432 1.67297 0.28457 0
M  V30 4349 H 416.204 3.78796 0.981303 0
M  V30 4350 H 415.827 3.06271 2.53543 0
M  V30 4351 N 416.824 -0.551391 1.4764 0
M  V30 4352 C 418.052 -1.33357 1.58189 0
M  V30 4353 C 418.467 -1.87342 0.234199 0
M  V30 4354 O 417.824 -1.65301 -0.77343 0
M  V30 4355 C 417.875 -2.49942 2.61173 0
M  V30 4356 O 417.596 -1.98187 3.90709 0
M  V30 4357 C 419.097 -3.42072 2.8196 0
M  V30 4358 H 416.317 -0.40631 0.533998 0
M  V30 4359 H 418.861 -0.667367 1.93304 0
M  V30 4360 H 417.016 -3.12489 2.28975 0
M  V30 4361 H 417.43 -2.74342 4.47031 0
M  V30 4362 H 418.904 -4.20278 3.57869 0
M  V30 4363 H 419.381 -3.95978 1.89995 0
M  V30 4364 H 419.987 -2.85336 3.15378 0
M  V30 4365 N 418.302 -1.35869 -0.798587 0
M  V30 4366 C 419.542 -1.30961 -1.56935 0
M  V30 4367 C 419.906 0.112404 -1.91671 0
M  V30 4368 O 421.107 0.285937 -2.67275 0
M  V30 4369 C 419.378 -2.19811 -2.81811 0
M  V30 4370 S 420.937 -2.32498 -3.72143 0
M  V30 4371 H 417.755 -0.465297 -0.537606 0
M  V30 4372 H 420.357 -1.71344 -0.941346 0
M  V30 4373 H 419.061 -3.22095 -2.54329 0
M  V30 4374 H 418.592 -1.80415 -3.49591 0
M  V30 4375 H 420.607 -1.5157 -4.72484 0
M  V30 4376 N 419.78 1.02168 -1.19998 0
M  V30 4377 C 421.057 1.72816 -0.916191 0
M  V30 4378 C 421.437 2.03081 0.576325 0
M  V30 4379 O 420.785 1.69122 1.53656 0
M  V30 4380 C 420.995 2.9997 -1.78378 0
M  V30 4381 C 422.343 3.73336 -2.02251 0
M  V30 4382 O 423.367 3.09914 -1.75589 0
M  V30 4383 O 422.226 4.87371 -2.47249 0
M  V30 4384 H 419.32 0.752924 -0.342103 0
M  V30 4385 H 421.866 1.08062 -1.30846 0
M  V30 4386 H 420.638 2.73888 -2.79466 0
M  V30 4387 H 420.261 3.72464 -1.39126 0
M  V30 4388 N 421.258 1.00505 1.21394 0
M  V30 4389 C 422.205 0.565496 2.23765 0
M  V30 4390 C 423.175 -0.408466 1.60999 0
M  V30 4391 O 424.36 -0.310503 1.88257 0
M  V30 4392 C 421.5 -0.101667 3.4495 0
M  V30 4393 C 420.613 0.915479 4.22188 0
M  V30 4394 C 419.748 0.220574 5.30742 0
M  V30 4395 C 418.787 1.22527 5.99711 0
M  V30 4396 N 417.924 0.557831 6.9988 0
M  V30 4397 H 422.764 1.44314 2.60725 0
M  V30 4398 H 420.301 0.722643 1.28126 0
M  V30 4399 H 422.259 -0.505504 4.14126 0
M  V30 4400 H 420.889 -0.94303 3.08718 0
M  V30 4401 H 419.941 1.43756 3.52191 0
M  V30 4402 H 421.253 1.68005 4.69655 0
M  V30 4403 H 420.407 -0.239368 6.06228 0
M  V30 4404 H 419.146 -0.576401 4.84282 0
M  V30 4405 H 418.151 1.69571 5.22997 0
M  V30 4406 H 419.376 2.02332 6.48258 0
M  V30 4407 H 417.322 -0.219486 6.55633 0
M  V30 4408 H 417.239 1.26065 7.45415 0
M  V30 4409 H 418.507 0.121095 7.79406 0
M  V30 4410 N 422.737 -1.36956 0.779787 0
M  V30 4411 C 423.967 -2.03459 0.358877 0
M  V30 4412 C 424.375 -1.58939 -1.02641 0
M  V30 4413 O 423.718 -0.769777 -1.66794 0
M  V30 4414 C 423.78 -3.5796 0.332393 0
M  V30 4415 C 423.444 -4.25644 1.66362 0
M  V30 4416 C 424.441 -4.49205 2.61746 0
M  V30 4417 C 422.126 -4.63313 1.94027 0
M  V30 4418 C 424.12 -5.09503 3.82996 0
M  V30 4419 C 421.807 -5.2333 3.15546 0
M  V30 4420 C 422.805 -5.46363 4.0985 0
M  V30 4421 O 422.493 -6.05122 5.29228 0
M  V30 4422 H 422.225 -0.659767 0.147254 0
M  V30 4423 H 424.779 -1.76111 1.05708 0
M  V30 4424 H 423.009 -3.84388 -0.422237 0
M  V30 4425 H 424.698 -4.05852 -0.0625389 0
M  V30 4426 H 425.464 -4.20508 2.41657 0
M  V30 4427 H 421.343 -4.44715 1.21448 0
M  V30 4428 H 424.887 -5.27397 4.56617 0
M  V30 4429 H 420.784 -5.51451 3.35517 0
M  V30 4430 H 421.552 -6.23595 5.30161 0
M  V30 4431 N 424.215 -0.530993 -1.48385 0
M  V30 4432 C 425.165 0.251092 -2.26613 0
M  V30 4433 C 426.149 0.908977 -1.32765 0
M  V30 4434 O 427.341 0.811616 -1.57295 0
M  V30 4435 C 424.47 1.29677 -3.17866 0
M  V30 4436 C 423.556 0.643627 -4.19188 0
M  V30 4437 N 423.947 -0.271223 -5.05072 0
M  V30 4438 C 422.245 0.900711 -4.3681 0
M  V30 4439 C 422.946 -0.648109 -5.78078 0
M  V30 4440 N 421.922 -0.00895987 -5.43599 0
M  V30 4441 H 425.724 -0.452702 -2.90393 0
M  V30 4442 H 423.238 -0.349091 -1.58604 0
M  V30 4443 H 425.235 1.87079 -3.72568 0
M  V30 4444 H 423.895 2.00193 -2.55642 0
M  V30 4445 H 424.906 -0.643883 -5.13882 0
M  V30 4446 H 421.583 1.59636 -3.85775 0
M  V30 4447 H 422.973 -1.39833 -6.57188 0
M  V30 4448 N 425.693 1.55336 -0.266172 0
M  V30 4449 C 426.603 2.2583 0.635458 0
M  V30 4450 C 427.619 1.28106 1.17749 0
M  V30 4451 O 428.795 1.61024 1.20968 0
M  V30 4452 C 425.86 2.95879 1.80712 0
M  V30 4453 C 424.921 4.09059 1.30265 0
M  V30 4454 C 424.154 4.75759 2.41846 0
M  V30 4455 O 424.377 4.41622 3.61007 0
M  V30 4456 O 423.311 5.63888 2.1051 0
M  V30 4457 H 427.137 3.03631 0.0646693 0
M  V30 4458 H 424.722 1.49361 -0.0339177 0
M  V30 4459 H 426.604 3.39932 2.49047 0
M  V30 4460 H 425.279 2.21002 2.36516 0
M  V30 4461 H 424.186 3.69482 0.586019 0
M  V30 4462 H 425.519 4.85811 0.790458 0
M  V30 4463 N 427.171 -0.0066808 1.57599 0
M  V30 4464 C 428.103 -1.02827 2.04839 0
M  V30 4465 C 429.116 -1.31108 0.965113 0
M  V30 4466 O 430.305 -1.28202 1.24203 0
M  V30 4467 C 427.405 -2.36464 2.42771 0
M  V30 4468 C 426.578 -2.27219 3.73751 0
M  V30 4469 C 425.637 -3.43489 3.98625 0
M  V30 4470 O 424.663 -3.21976 4.69382 0
M  V30 4471 N 425.865 -4.66116 3.46 0
M  V30 4472 H 428.63 -0.625455 2.93101 0
M  V30 4473 H 426.191 -0.194198 1.60731 0
M  V30 4474 H 428.183 -3.13008 2.56531 0
M  V30 4475 H 426.753 -2.68512 1.60063 0
M  V30 4476 H 425.973 -1.35629 3.70133 0
M  V30 4477 H 427.261 -2.18208 4.59633 0
M  V30 4478 H 426.659 -4.86493 2.88688 0
M  V30 4479 H 425.216 -5.39949 3.65101 0
M  V30 4480 N 428.649 -1.55105 -0.279332 0
M  V30 4481 C 429.579 -1.90557 -1.34945 0
M  V30 4482 C 430.56 -0.766738 -1.51839 0
M  V30 4483 O 431.745 -1.02434 -1.64988 0
M  V30 4484 C 428.875 -2.17193 -2.71006 0
M  V30 4485 C 427.829 -3.33021 -2.68851 0
M  V30 4486 C 427.155 -3.45123 -4.08405 0
M  V30 4487 C 428.455 -4.69578 -2.28678 0
M  V30 4488 H 430.149 -2.80188 -1.05522 0
M  V30 4489 H 427.695 -1.34811 -0.506173 0
M  V30 4490 H 429.648 -2.40581 -3.45975 0
M  V30 4491 H 428.372 -1.24355 -3.01999 0
M  V30 4492 H 427.031 -3.0959 -1.9634 0
M  V30 4493 H 426.679 -2.49762 -4.3661 0
M  V30 4494 H 426.379 -4.22995 -4.07859 0
M  V30 4495 H 427.903 -3.70796 -4.85121 0
M  V30 4496 H 429.317 -4.92553 -2.93368 0
M  V30 4497 H 427.714 -5.5032 -2.39306 0
M  V30 4498 H 428.784 -4.68828 -1.23807 0
M  V30 4499 N 430.127 0.543554 -1.4793 0
M  V30 4500 C 431.074 1.64942 -1.6144 0
M  V30 4501 C 432.044 1.59692 -0.456903 0
M  V30 4502 O 433.229 1.78321 -0.678688 0
M  V30 4503 C 430.369 3.03238 -1.64744 0
M  V30 4504 C 429.482 3.18823 -2.91506 0
M  V30 4505 C 428.617 4.47599 -2.86057 0
M  V30 4506 C 427.656 4.56664 -4.07584 0
M  V30 4507 N 426.793 5.76811 -4.00292 0
M  V30 4508 H 431.633 1.52733 -2.55884 0
M  V30 4509 H 429.17 0.7438 -1.2691 0
M  V30 4510 H 431.128 3.83339 -1.64641 0
M  V30 4511 H 429.758 3.1425 -0.738017 0
M  V30 4512 H 428.81 2.32064 -3.01414 0
M  V30 4513 H 430.122 3.21384 -3.81463 0
M  V30 4514 H 429.276 5.35975 -2.84281 0
M  V30 4515 H 428.015 4.47538 -1.93807 0
M  V30 4516 H 427.02 3.66697 -4.09651 0
M  V30 4517 H 428.245 4.58474 -5.00978 0
M  V30 4518 H 426.191 5.77673 -3.10853 0
M  V30 4519 H 426.108 5.80808 -4.8394 0
M  V30 4520 H 427.376 6.67512 -4.02553 0
M  V30 4521 N 431.605 1.3629 0.791371 0
M  V30 4522 C 432.568 1.30309 1.88553 0
M  V30 4523 C 433.568 0.211204 1.59407 0
M  V30 4524 O 434.758 0.465865 1.67855 0
M  V30 4525 C 431.89 1.01956 3.25297 0
M  V30 4526 H 433.083 2.27614 1.95273 0
M  V30 4527 H 430.636 1.21035 0.988953 0
M  V30 4528 H 431.371 0.050998 3.2426 0
M  V30 4529 H 431.156 1.80968 3.4784 0
M  V30 4530 H 432.646 1.0037 4.05359 0
M  V30 4531 N 433.083 -1.0153 1.20538 0
M  V30 4532 C 434.03 -2.10098 0.955383 0
M  V30 4533 C 435 -1.65702 -0.114878 0
M  V30 4534 O 436.185 -1.90776 0.0301118 0
M  V30 4535 C 433.325 -3.41236 0.514969 0
M  V30 4536 C 432.438 -3.99102 1.65353 0
M  V30 4537 C 431.573 -5.18306 1.16329 0
M  V30 4538 C 430.612 -5.68258 2.27485 0
M  V30 4539 N 429.749 -6.78722 1.7967 0
M  V30 4540 H 434.589 -2.30818 1.88486 0
M  V30 4541 H 432.126 -1.13189 0.939499 0
M  V30 4542 H 434.084 -4.16504 0.240935 0
M  V30 4543 H 432.714 -3.20585 -0.377512 0
M  V30 4544 H 431.766 -3.20918 2.04245 0
M  V30 4545 H 433.078 -4.32177 2.49047 0
M  V30 4546 H 432.232 -6.00782 0.845302 0
M  V30 4547 H 430.971 -4.86799 0.296254 0
M  V30 4548 H 429.976 -4.84385 2.60099 0
M  V30 4549 H 431.201 -6.01798 3.14667 0
M  V30 4550 H 429.147 -6.49042 0.95295 0
M  V30 4551 H 429.064 -7.10996 2.56944 0
M  V30 4552 H 430.332 -7.64759 1.50875 0
M  V30 4553 N 434.561 -1.01147 -1.20859 0
M  V30 4554 C 435.977 -0.725422 -1.42161 0
M  V30 4555 C 436.177 0.696919 -1.89064 0
M  V30 4556 O 435.233 1.46539 -2.05627 0
M  V30 4557 C 436.546 -1.74678 -2.44761 0
M  V30 4558 C 438.094 -1.76433 -2.58535 0
M  V30 4559 C 438.569 -2.77481 -3.64374 0
M  V30 4560 N 440.06 -2.76189 -3.71852 0
M  V30 4561 C 440.795 -3.51035 -4.53389 0
M  V30 4562 N 440.291 -4.35541 -5.38773 0
M  V30 4563 N 442.084 -3.39655 -4.47873 0
M  V30 4564 H 434.235 -1.92979 -0.887282 0
M  V30 4565 H 436.498 -0.833327 -0.451962 0
M  V30 4566 H 436.204 -2.76551 -2.17285 0
M  V30 4567 H 436.078 -1.55472 -3.43669 0
M  V30 4568 H 438.465 -0.75248 -2.85345 0
M  V30 4569 H 438.546 -1.99712 -1.5984 0
M  V30 4570 H 438.19 -3.78827 -3.38308 0
M  V30 4571 H 438.12 -2.51466 -4.6268 0
M  V30 4572 H 440.611 -2.14885 -3.10858 0
M  V30 4573 H 440.924 -4.89432 -5.98061 0
M  V30 4574 H 439.269 -4.39621 -5.38292 0
M  V30 4575 H 442.46 -2.73063 -3.80203 0
M  V30 4576 H 442.633 -3.9824 -5.11184 0
M  V30 4577 N 436.039 1.36541 -0.78704 0
M  V30 4578 C 436.986 2.30082 -0.181901 0
M  V30 4579 C 437.956 1.5186 0.672896 0
M  V30 4580 O 439.141 1.80374 0.622072 0
M  V30 4581 C 436.281 3.3835 0.679197 0
M  V30 4582 C 435.394 4.31565 -0.193882 0
M  V30 4583 C 434.529 5.26915 0.673364 0
M  V30 4584 C 433.568 6.11769 -0.201315 0
M  V30 4585 N 432.705 6.99315 0.624777 0
M  V30 4586 H 437.545 2.81248 -0.985064 0
M  V30 4587 H 435.082 1.38437 -0.497342 0
M  V30 4588 H 437.04 3.99767 1.19341 0
M  V30 4589 H 435.67 2.8851 1.44781 0
M  V30 4590 H 434.722 3.71323 -0.826044 0
M  V30 4591 H 436.034 4.91191 -0.867937 0
M  V30 4592 H 435.188 5.9361 1.25348 0
M  V30 4593 H 433.927 4.67737 1.38105 0
M  V30 4594 H 432.932 5.44039 -0.793849 0
M  V30 4595 H 434.157 6.73022 -0.906568 0
M  V30 4596 H 432.103 6.42648 1.3168 0
M  V30 4597 H 432.02 7.56 0.00835237 0
M  V30 4598 H 433.288 7.70382 1.18879 0
M  V30 4599 N 437.518 0.538854 1.48102 0
M  V30 4600 C 438.764 0.00801365 2.02798 0
M  V30 4601 C 439.097 -1.3309 1.41424 0
M  V30 4602 O 438.372 -1.86169 0.563158 0
M  V30 4603 C 438.655 -0.104589 3.59948 0
M  V30 4604 C 438.508 1.26012 4.31788 0
M  V30 4605 C 439.827 -0.827055 4.32259 0
M  V30 4606 H 436.946 0.00438624 0.736987 0
M  V30 4607 H 439.588 0.6976 1.7673 0
M  V30 4608 H 437.738 -0.691893 3.82289 0
M  V30 4609 H 439.41 1.88922 4.2084 0
M  V30 4610 H 437.653 1.83968 3.92859 0
M  V30 4611 H 438.324 1.13424 5.40221 0
M  V30 4612 H 440.8 -0.328578 4.14801 0
M  V30 4613 H 439.676 -0.87476 5.41885 0
M  V30 4614 H 439.937 -1.87927 4.0017 0
M  V30 4615 N 438.996 -1.55193 0.274407 0
M  V30 4616 C 440.242 -1.99877 -0.343086 0
M  V30 4617 C 440.575 -1.16256 -1.55558 0
M  V30 4618 O 439.85 -0.232462 -1.93106 0
M  V30 4619 C 440.133 -3.52706 -0.725965 0
M  V30 4620 C 439.986 -4.47081 0.493818 0
M  V30 4621 C 441.305 -4.11422 -1.56268 0
M  V30 4622 H 438.424 -0.726625 -0.123229 0
M  V30 4623 H 441.066 -1.86136 0.38121 0
M  V30 4624 H 439.216 -3.64546 -1.34307 0
M  V30 4625 H 440.888 -4.47186 1.13237 0
M  V30 4626 H 439.131 -4.1877 1.13201 0
M  V30 4627 H 439.802 -5.51699 0.18217 0
M  V30 4628 H 442.278 -4.02855 -1.04151 0
M  V30 4629 H 441.154 -5.18568 -1.79939 0
M  V30 4630 H 441.415 -3.61607 -2.54348 0
M  V30 4631 N 440.474 -0.00167713 -1.576 0
M  V30 4632 C 441.421 0.989195 -2.08527 0
M  V30 4633 C 442.391 1.34031 -0.981065 0
M  V30 4634 O 443.576 1.43839 -1.2536 0
M  V30 4635 C 440.716 2.27537 -2.59463 0
M  V30 4636 C 439.829 1.98314 -3.83791 0
M  V30 4637 C 438.964 3.21025 -4.23222 0
M  V30 4638 C 438.003 2.87495 -5.40382 0
M  V30 4639 N 437.14 4.02749 -5.75098 0
M  V30 4640 H 441.98 0.547973 -2.92919 0
M  V30 4641 H 439.517 0.258917 -1.44803 0
M  V30 4642 H 441.475 3.02729 -2.87073 0
M  V30 4643 H 440.105 2.69325 -1.77943 0
M  V30 4644 H 439.157 1.13482 -3.63078 0
M  V30 4645 H 440.469 1.69601 -4.69081 0
M  V30 4646 H 439.623 4.04561 -4.52123 0
M  V30 4647 H 438.362 3.52877 -3.36644 0
M  V30 4648 H 437.367 2.02367 -5.11202 0
M  V30 4649 H 438.592 2.56889 -6.28637 0
M  V30 4650 H 436.538 4.34494 -4.91478 0
M  V30 4651 H 436.455 3.77566 -6.54966 0
M  V30 4652 H 437.723 4.87068 -6.08592 0
M  V30 4653 N 441.952 1.55251 0.271103 0
M  V30 4654 C 442.885 1.83191 1.36075 0
M  V30 4655 C 443.863 0.685091 1.47463 0
M  V30 4656 O 445.047 0.928292 1.64058 0
M  V30 4657 C 442.174 1.99521 2.73696 0
M  V30 4658 C 441.22 3.22081 2.79582 0
M  V30 4659 S 442.053 4.79388 2.38636 0
M  V30 4660 C 443.209 4.98693 3.78228 0
M  V30 4661 H 443.442 2.75327 1.12171 0
M  V30 4662 H 440.975 1.47046 0.470833 0
M  V30 4663 H 442.933 2.09613 3.52948 0
M  V30 4664 H 441.594 1.0827 2.9485 0
M  V30 4665 H 440.787 3.304 3.80594 0
M  V30 4666 H 440.389 3.10589 2.08352 0
M  V30 4667 H 442.681 4.84551 4.73515 0
M  V30 4668 H 443.624 6.00738 3.7486 0
M  V30 4669 H 444.032 4.26665 3.69618 0
M  V30 4670 N 443.43 -0.535701 1.48216 0
M  V30 4671 C 444.363 -1.65726 1.56876 0
M  V30 4672 C 445.341 -1.57094 0.419542 0
M  V30 4673 O 446.525 -1.77648 0.630352 0
M  V30 4674 C 443.652 -3.04096 1.49142 0
M  V30 4675 C 442.698 -3.31105 2.68834 0
M  V30 4676 S 443.531 -3.18001 4.30854 0
M  V30 4677 C 444.687 -4.58828 4.25709 0
M  V30 4678 H 444.92 -1.58129 2.51759 0
M  V30 4679 H 442.453 -0.718218 1.36678 0
M  V30 4680 H 444.411 -3.839 1.45366 0
M  V30 4681 H 443.072 -3.09139 0.556067 0
M  V30 4682 H 442.265 -4.32033 2.59545 0
M  V30 4683 H 441.867 -2.58961 2.69843 0
M  V30 4684 H 444.159 -5.5023 3.95289 0
M  V30 4685 H 445.102 -4.73172 5.26796 0
M  V30 4686 H 445.51 -4.37883 3.56257 0
M  V30 4687 N 444.908 -1.36708 -0.784132 0
M  V30 4688 C 446.157 -1.30559 -1.53744 0
M  V30 4689 C 446.47 0.111374 -1.95283 0
M  V30 4690 O 447.676 0.29527 -2.6989 0
M  V30 4691 C 446.132 -2.29098 -2.77565 0
M  V30 4692 C 445.74 -3.76258 -2.43174 0
M  V30 4693 C 447.484 -2.31936 -3.55536 0
M  V30 4694 C 445.391 -4.6656 -3.63422 0
M  V30 4695 H 444.321 -0.48518 -0.577162 0
M  V30 4696 H 446.972 -1.62101 -0.859981 0
M  V30 4697 H 445.354 -1.90557 -3.47137 0
M  V30 4698 H 446.528 -4.23565 -1.81465 0
M  V30 4699 H 444.843 -3.76246 -1.78403 0
M  V30 4700 H 447.44 -2.9661 -4.44889 0
M  V30 4701 H 447.783 -1.3294 -3.94503 0
M  V30 4702 H 448.316 -2.6912 -2.92949 0
M  V30 4703 H 445.055 -5.66638 -3.29547 0
M  V30 4704 H 444.575 -4.23966 -4.24279 0
M  V30 4705 H 446.254 -4.8309 -4.30387 0
M  V30 4706 N 446.386 1.0089 -1.21074 0
M  V30 4707 C 447.635 1.74019 -1.01981 0
M  V30 4708 C 447.948 1.90408 0.447665 0
M  V30 4709 O 449.154 2.60707 0.757906 0
M  V30 4710 C 447.61 3.13026 -1.77603 0
M  V30 4711 C 447.218 3.04623 -3.28495 0
M  V30 4712 C 448.962 3.90312 -1.66904 0
M  V30 4713 C 446.869 4.38685 -3.96623 0
M  V30 4714 H 445.799 0.652422 -0.377971 0
M  V30 4715 H 448.45 1.12755 -1.44771 0
M  V30 4716 H 446.832 3.74878 -1.27604 0
M  V30 4717 H 448.006 2.52032 -3.85767 0
M  V30 4718 H 446.321 2.40827 -3.39693 0
M  V30 4719 H 448.918 4.8951 -2.15138 0
M  V30 4720 H 449.261 4.11558 -0.62658 0
M  V30 4721 H 449.794 3.35104 -2.14359 0
M  V30 4722 H 446.533 4.22641 -5.01054 0
M  V30 4723 H 446.053 4.91252 -3.4414 0
M  V30 4724 H 447.732 5.075 -4.01314 0
M  V30 4725 N 447.864 1.01787 1.20321 0
M  V30 4726 C 449.11 0.708985 1.90003 0
M  V30 4727 C 449.443 -0.759572 1.78729 0
M  V30 4728 O 448.718 -1.55198 1.17234 0
M  V30 4729 C 449.001 1.1469 3.41348 0
M  V30 4730 C 448.854 2.67586 3.61549 0
M  V30 4731 C 450.173 0.71915 4.34185 0
M  V30 4732 H 447.292 0.259034 0.689978 0
M  V30 4733 H 449.934 1.26584 1.41692 0
M  V30 4734 H 448.084 0.673128 3.82624 0
M  V30 4735 H 449.756 3.22826 3.29517 0
M  V30 4736 H 447.999 3.085 3.04976 0
M  V30 4737 H 448.67 2.93281 4.67643 0
M  V30 4738 H 451.146 1.12647 4.00562 0
M  V30 4739 H 450.022 1.05358 5.38694 0
M  V30 4740 H 450.283 -0.379111 4.40472 0
M  V30 4741 N 449.342 -1.36122 0.79427 0
M  V30 4742 C 450.588 -1.99406 0.369452 0
M  V30 4743 C 450.921 -1.62886 -1.05743 0
M  V30 4744 O 450.196 -0.886053 -1.73145 0
M  V30 4745 C 450.479 -3.56046 0.538833 0
M  V30 4746 C 450.332 -4.02404 2.00976 0
M  V30 4747 C 451.651 -4.40079 -0.0431359 0
M  V30 4748 H 448.77 -0.724397 0.135712 0
M  V30 4749 H 451.412 -1.61461 1.00151 0
M  V30 4750 H 449.562 -3.885 0.000771004 0
M  V30 4751 H 451.234 -3.80415 2.60926 0
M  V30 4752 H 449.477 -3.53765 2.51063 0
M  V30 4753 H 450.148 -5.11344 2.07922 0
M  V30 4754 H 452.624 -4.14013 0.416228 0
M  V30 4755 H 451.5 -5.48799 0.105374 0
M  V30 4756 H 451.761 -4.27264 -1.13571 0
M  V30 4757 N 450.82 -0.546701 -1.47814 0
M  V30 4758 C 451.753 0.254472 -2.26777 0
M  V30 4759 C 452.731 0.929809 -1.33392 0
M  V30 4760 O 453.915 0.950889 -1.62759 0
M  V30 4761 C 451.042 1.36171 -3.10121 0
M  V30 4762 C 450.088 0.796038 -4.19005 0
M  V30 4763 S 450.921 -0.349191 -5.3436 0
M  V30 4764 C 452.077 0.760122 -6.21267 0
M  V30 4765 H 452.31 -0.415612 -2.94381 0
M  V30 4766 H 449.843 -0.332809 -1.5077 0
M  V30 4767 H 451.801 1.99588 -3.58713 0
M  V30 4768 H 450.462 2.00359 -2.41899 0
M  V30 4769 H 449.655 1.62719 -4.7701 0
M  V30 4770 H 449.257 0.238246 -3.7324 0
M  V30 4771 H 451.549 1.65479 -6.5698 0
M  V30 4772 H 452.492 0.217673 -7.07765 0
M  V30 4773 H 452.9 1.04806 -5.54685 0
M  V30 4774 N 452.299 1.55045 -0.282633 0
M  V30 4775 C 453.527 2.04168 0.33512 0
M  V30 4776 C 453.942 1.16071 1.48906 0
M  V30 4777 O 453.299 0.182391 1.81586 0
M  V30 4778 C 453.35 3.52332 0.808957 0
M  V30 4779 O 453.071 4.37078 -0.299038 0
M  V30 4780 C 454.572 4.17375 1.49375 0
M  V30 4781 H 451.792 0.666744 0.0754543 0
M  V30 4782 H 454.336 2.00205 -0.416918 0
M  V30 4783 H 452.491 3.56715 1.51106 0
M  V30 4784 H 452.905 5.24458 0.0665514 0
M  V30 4785 H 454.379 5.22627 1.77664 0
M  V30 4786 H 454.856 3.65999 2.42778 0
M  V30 4787 H 455.462 4.17016 0.835305 0
M  V30 4788 N 453.777 0.010035 1.57597 0
M  V30 4789 C 455.024 -0.6727 1.91 0
M  V30 4790 C 455.352 -1.73219 0.884614 0
M  V30 4791 O 454.607 -1.95395 -0.109215 0
M  V30 4792 C 454.906 -1.34434 3.31153 0
M  V30 4793 C 454.572 -0.417083 4.48967 0
M  V30 4794 C 453.234 -0.161809 4.80928 0
M  V30 4795 C 455.586 0.220753 5.20732 0
M  V30 4796 C 452.914 0.739426 5.82022 0
M  V30 4797 C 455.266 1.10993 6.22787 0
M  V30 4798 C 453.93 1.37428 6.532 0
M  V30 4799 H 453.2 -0.246158 0.698918 0
M  V30 4800 H 455.847 0.0677145 1.9138 0
M  V30 4801 H 454.152 -2.15905 3.26944 0
M  V30 4802 H 455.849 -1.87883 3.54261 0
M  V30 4803 H 452.439 -0.626217 4.24001 0
M  V30 4804 H 456.623 0.0365643 4.96287 0
M  V30 4805 H 451.879 0.952139 6.03941 0
M  V30 4806 H 456.053 1.61046 6.77523 0
M  V30 4807 H 453.68 2.0743 7.31353 0
M  V30 4808 N 455.255 -1.55392 -0.262866 0
M  V30 4809 C 456.218 -1.88181 -1.30846 0
M  V30 4810 C 457.218 -0.757079 -1.41862 0
M  V30 4811 O 458.408 -1.02519 -1.40838 0
M  V30 4812 C 455.54 -2.09609 -2.68844 0
M  V30 4813 H 456.733 -2.81659 -1.02997 0
M  V30 4814 H 454.286 -1.48039 -0.501414 0
M  V30 4815 H 455.021 -1.18547 -3.01856 0
M  V30 4816 H 454.806 -2.91508 -2.62231 0
M  V30 4817 H 456.296 -2.36215 -3.44372 0
M  V30 4818 N 456.733 0.527833 -1.48498 0
M  V30 4819 C 457.982 1.28003 -1.55878 0
M  V30 4820 C 458.295 1.9414 -0.238577 0
M  V30 4821 O 459.501 2.7083 -0.190643 0
M  V30 4822 C 457.957 2.32272 -2.74914 0
M  V30 4823 C 457.565 1.72196 -4.13585 0
M  V30 4824 C 459.309 3.08488 -2.91608 0
M  V30 4825 C 457.216 2.74417 -5.23879 0
M  V30 4826 H 456.146 0.481413 -0.580308 0
M  V30 4827 H 458.797 0.557195 -1.74836 0
M  V30 4828 H 457.179 3.07601 -2.49395 0
M  V30 4829 H 458.353 1.03041 -4.49132 0
M  V30 4830 H 456.668 1.08464 -4.02025 0
M  V30 4831 H 459.265 3.84879 -3.71177 0
M  V30 4832 H 459.608 3.64481 -2.01145 0
M  V30 4833 H 460.141 2.40274 -3.17038 0
M  V30 4834 H 456.88 2.23242 -6.16314 0
M  V30 4835 H 456.4 3.41893 -4.92818 0
M  V30 4836 H 458.079 3.37362 -5.52083 0
M  V30 4837 N 458.211 1.37122 0.776871 0
M  V30 4838 C 459.451 1.33441 1.54831 0
M  V30 4839 C 459.815 -0.0818963 1.91825 0
M  V30 4840 O 461.016 -0.24338 2.67696 0
M  V30 4841 C 459.287 2.24267 2.78279 0
M  V30 4842 S 460.846 2.38389 3.68397 0
M  V30 4843 H 457.664 0.473791 0.530135 0
M  V30 4844 H 460.266 1.7282 0.913968 0
M  V30 4845 H 458.97 3.261 2.49173 0
M  V30 4846 H 458.501 1.85953 3.46677 0
M  V30 4847 H 460.516 1.59068 4.70013 0
M  V30 4848 N 459.689 -1.00246 1.21608 0
M  V30 4849 C 460.935 -1.74417 1.04643 0
M  V30 4850 C 461.29 -1.87862 -0.415387 0
M  V30 4851 O 460.583 -1.40373 -1.30407 0
M  V30 4852 C 460.777 -3.15448 1.68009 0
M  V30 4853 C 460.606 -3.15755 3.20201 0
M  V30 4854 C 459.376 -3.2219 3.89258 0
M  V30 4855 C 461.574 -3.00668 4.17257 0
M  V30 4856 N 459.556 -3.1215 5.28617 0
M  V30 4857 C 460.927 -2.98553 5.43384 0
M  V30 4858 C 462.982 -2.84989 4.08272 0
M  V30 4859 C 461.685 -2.82364 6.61561 0
M  V30 4860 C 463.711 -2.70158 5.26088 0
M  V30 4861 C 463.073 -2.68721 6.51128 0
M  V30 4862 H 459.172 -0.648317 0.437274 0
M  V30 4863 H 461.756 -1.19129 1.54001 0
M  V30 4864 H 459.927 -3.69001 1.21215 0
M  V30 4865 H 461.659 -3.78128 1.44226 0
M  V30 4866 H 458.414 -3.29488 3.40198 0
M  V30 4867 H 458.838 -3.10465 6.01615 0
M  V30 4868 H 463.48 -2.84904 3.12393 0
M  V30 4869 H 461.198 -2.81196 7.57598 0
M  V30 4870 H 464.784 -2.59022 5.20959 0
M  V30 4871 H 463.664 -2.57382 7.40759 0
M  V30 4872 N 461.167 -1.02423 -1.1978 0
M  V30 4873 C 462.097 -0.62157 -2.25075 0
M  V30 4874 C 463.078 0.367148 -1.6609 0
M  V30 4875 O 464.263 0.250892 -1.92573 0
M  V30 4876 C 461.393 0.0331826 -3.47284 0
M  V30 4877 C 460.347 -0.877323 -4.18912 0
M  V30 4878 C 459.673 -0.0879296 -5.34628 0
M  V30 4879 C 460.973 -2.18892 -4.74219 0
M  V30 4880 H 462.667 -1.50179 -2.59011 0
M  V30 4881 H 460.213 -0.723547 -1.24502 0
M  V30 4882 H 462.166 0.326488 -4.20133 0
M  V30 4883 H 460.89 0.948164 -3.12534 0
M  V30 4884 H 459.549 -1.15475 -3.47938 0
M  V30 4885 H 459.197 0.828941 -4.96123 0
M  V30 4886 H 458.897 -0.694359 -5.83483 0
M  V30 4887 H 460.421 0.198743 -6.10276 0
M  V30 4888 H 461.835 -1.95746 -5.38847 0
M  V30 4889 H 460.232 -2.74686 -5.33542 0
M  V30 4890 H 461.302 -2.84674 -3.92541 0
M  V30 4891 N 462.645 1.35699 -0.801477 0
M  V30 4892 C 464.056 1.81415 -0.441073 0
M  V30 4893 C 464.407 1.66595 1.03636 0
M  V30 4894 O 463.532 1.19369 1.80499 0
M  V30 4895 C 464.127 3.29369 -0.793819 0
M  V30 4896 C 462.686 3.73248 -0.486083 0
M  V30 4897 C 461.833 2.57775 -1.02213 0
M  V30 4898 H 464.784 1.23749 -0.993572 0
M  V30 4899 H 464.805 3.80395 -0.0894158 0
M  V30 4900 H 464.317 3.40123 -1.86917 0
M  V30 4901 H 462.418 3.68046 0.580735 0
M  V30 4902 H 462.531 4.68222 -1.01513 0
M  V30 4903 H 460.895 2.50788 -0.444712 0
M  V30 4904 H 461.678 2.71309 -2.10348 0
M  V30 4905 N 464.123 0.554532 1.47522 0
M  V30 4906 C 465.353 0.0342074 2.06572 0
M  V30 4907 C 465.761 -1.26375 1.40805 0
M  V30 4908 O 465.104 -1.7683 0.49769 0
M  V30 4909 C 465.166 -0.235096 3.5873 0
M  V30 4910 C 464.83 0.973024 4.46521 0
M  V30 4911 C 465.827 1.8779 4.848 0
M  V30 4912 C 463.512 1.18694 4.88075 0
M  V30 4913 C 465.506 2.98039 5.63428 0
M  V30 4914 C 463.193 2.29254 5.66468 0
M  V30 4915 C 464.191 3.18757 6.04055 0
M  V30 4916 O 463.879 4.27401 6.8087 0
M  V30 4917 H 463.611 0.041587 0.67472 0
M  V30 4918 H 466.165 0.766748 1.90552 0
M  V30 4919 H 464.395 -1.02191 3.72953 0
M  V30 4920 H 466.084 -0.700477 3.9981 0
M  V30 4921 H 466.85 1.72467 4.53299 0
M  V30 4922 H 462.729 0.49947 4.58286 0
M  V30 4923 H 466.273 3.67926 5.92685 0
M  V30 4924 H 462.17 2.4455 5.97382 0
M  V30 4925 H 462.938 4.25415 6.9926 0
M  V30 4926 N 465.601 -1.54893 0.290851 0
M  V30 4927 C 466.551 -2.19838 -0.604599 0
M  V30 4928 C 467.535 -1.16805 -1.10659 0
M  V30 4929 O 468.727 -1.42562 -1.04905 0
M  V30 4930 C 465.856 -2.93497 -1.78086 0
M  V30 4931 C 464.942 -4.03835 -1.29531 0
M  V30 4932 N 465.333 -5.03047 -0.527024 0
M  V30 4933 C 463.631 -4.17192 -1.57693 0
M  V30 4934 C 464.332 -5.81074 -0.269728 0
M  V30 4935 N 463.308 -5.36966 -0.846651 0
M  V30 4936 H 467.11 -2.93898 -0.00995032 0
M  V30 4937 H 464.624 -1.62121 0.0951353 0
M  V30 4938 H 466.621 -3.38484 -2.43381 0
M  V30 4939 H 465.281 -2.2095 -2.37931 0
M  V30 4940 H 466.292 -5.17611 -0.172872 0
M  V30 4941 H 462.969 -3.55845 -2.18359 0
M  V30 4942 H 464.359 -6.71005 0.346643 0
M  V30 4943 N 467.08 -0.0183926 -1.57589 0
M  V30 4944 C 468.329 0.66185 -1.90532 0
M  V30 4945 C 468.642 1.73904 -0.895366 0
M  V30 4946 O 469.848 2.47518 -1.11566 0
M  V30 4947 C 468.304 1.22844 -3.38286 0
M  V30 4948 C 467.912 0.185103 -4.47617 0
M  V30 4949 C 469.656 1.88581 -3.80312 0
M  V30 4950 C 467.563 0.762723 -5.86461 0
M  V30 4951 H 466.493 0.250972 -0.711006 0
M  V30 4952 H 469.144 -0.0819435 -1.83317 0
M  V30 4953 H 467.526 2.0235 -3.40398 0
M  V30 4954 H 468.7 -0.58671 -4.5705 0
M  V30 4955 H 467.015 -0.372889 -4.14727 0
M  V30 4956 H 469.612 2.32735 -4.81392 0
M  V30 4957 H 469.955 2.72408 -3.14801 0
M  V30 4958 H 470.488 1.15782 -3.80578 0
M  V30 4959 H 467.227 -0.0371713 -6.55489 0
M  V30 4960 H 466.747 1.50327 -5.80656 0
M  V30 4961 H 468.426 1.25576 -6.34697 0
M  V30 4962 N 468.558 1.5553 0.254621 0
M  V30 4963 C 469.788 1.80784 1.00004 0
M  V30 4964 C 470.196 0.59071 1.79742 0
M  V30 4965 O 469.539 -0.449988 1.78103 0
M  V30 4966 C 469.601 2.99268 1.99196 0
M  V30 4967 C 469.265 4.35595 1.38224 0
M  V30 4968 C 470.262 5.13884 0.788611 0
M  V30 4969 C 467.947 4.82281 1.40393 0
M  V30 4970 C 469.941 6.37004 0.224783 0
M  V30 4971 C 467.628 6.05351 0.836243 0
M  V30 4972 C 468.626 6.82551 0.24769 0
M  V30 4973 O 468.314 8.03297 -0.311249 0
M  V30 4974 H 468.046 0.60565 0.300274 0
M  V30 4975 H 470.6 2.03411 0.285143 0
M  V30 4976 H 468.83 2.72377 2.74496 0
M  V30 4977 H 470.519 3.11682 2.60018 0
M  V30 4978 H 471.285 4.78938 0.764423 0
M  V30 4979 H 467.164 4.22189 1.85142 0
M  V30 4980 H 470.708 6.97203 -0.235235 0
M  V30 4981 H 466.605 6.39776 0.857733 0
M  V30 4982 H 467.373 8.1825 -0.20237 0
M  V30 4983 N 470.036 -0.519951 1.48776 0
M  V30 4984 C 471.283 -1.27522 1.57303 0
M  V30 4985 C 471.611 -1.92869 0.251328 0
M  V30 4986 O 470.866 -1.80372 -0.759243 0
M  V30 4987 C 471.165 -2.37864 2.6675 0
M  V30 4988 C 470.831 -1.90103 4.08867 0
M  V30 4989 C 469.493 -1.76795 4.47546 0
M  V30 4990 C 471.845 -1.54133 4.97888 0
M  V30 4991 C 469.173 -1.25868 5.73039 0
M  V30 4992 C 471.525 -1.04665 6.23881 0
M  V30 4993 C 470.189 -0.899823 6.61407 0
M  V30 4994 H 469.459 -0.466636 0.575614 0
M  V30 4995 H 472.106 -0.579109 1.82534 0
M  V30 4996 H 470.411 -3.13186 2.35418 0
M  V30 4997 H 472.108 -2.95969 2.70561 0
M  V30 4998 H 468.698 -2.01414 3.78326 0
M  V30 4999 H 472.882 -1.6327 4.68675 0
M  V30 5000 H 468.138 -1.13196 6.0083 0
M  V30 5001 H 472.312 -0.759074 6.92251 0
M  V30 5002 H 469.939 -0.503011 7.58534 0
M  V30 5003 N 471.514 -1.37532 -0.769588 0
M  V30 5004 C 472.763 -1.32183 -1.5235 0
M  V30 5005 C 473.076 0.0906555 -1.9539 0
M  V30 5006 O 474.282 0.266628 -2.70188 0
M  V30 5007 C 472.738 -2.32029 -2.75119 0
M  V30 5008 C 472.346 -3.78816 -2.3917 0
M  V30 5009 C 474.09 -2.35694 -3.53056 0
M  V30 5010 C 471.997 -4.70388 -3.58453 0
M  V30 5011 H 470.927 -0.491275 -0.571984 0
M  V30 5012 H 473.578 -1.63004 -0.842739 0
M  V30 5013 H 471.96 -1.94229 -3.45096 0
M  V30 5014 H 473.134 -4.25466 -1.76962 0
M  V30 5015 H 471.449 -3.78117 -1.74402 0
M  V30 5016 H 474.046 -3.01312 -4.41718 0
M  V30 5017 H 474.389 -1.37117 -3.93071 0
M  V30 5018 H 474.922 -2.72212 -2.90078 0
M  V30 5019 H 471.661 -5.70102 -3.23518 0
M  V30 5020 H 471.181 -4.28442 -4.19758 0
M  V30 5021 H 472.86 -4.87628 -4.25239 0
M  V30 5022 N 472.992 0.995999 -1.22138 0
M  V30 5023 C 473.922 2.10387 -1.01289 0
M  V30 5024 C 474.903 1.69975 0.0651454 0
M  V30 5025 O 476.088 1.9396 -0.0964628 0
M  V30 5026 C 473.218 3.42312 -0.586517 0
M  V30 5027 C 472.172 3.96558 -1.61014 0
M  V30 5028 C 471.498 5.24494 -1.0397 0
M  V30 5029 C 472.798 4.27595 -2.99933 0
M  V30 5030 H 474.492 2.28086 -1.93951 0
M  V30 5031 H 472.038 1.09607 -0.933928 0
M  V30 5032 H 473.991 4.19223 -0.427793 0
M  V30 5033 H 472.715 3.24431 0.375761 0
M  V30 5034 H 471.374 3.21776 -1.75658 0
M  V30 5035 H 471.022 5.02953 -0.0688703 0
M  V30 5036 H 470.722 5.61755 -1.72352 0
M  V30 5037 H 472.246 6.04042 -0.892494 0
M  V30 5038 H 473.66 4.95315 -2.8868 0
M  V30 5039 H 472.057 4.76021 -3.6541 0
M  V30 5040 H 473.127 3.35498 -3.50099 0
M  V30 5041 N 474.47 1.03057 1.19235 0
M  V30 5042 C 475.698 0.747697 1.92917 0
M  V30 5043 C 476.113 -0.69372 1.75593 0
M  V30 5044 O 475.47 -1.47191 1.07894 0
M  V30 5045 C 475.521 1.09159 3.44625 0
M  V30 5046 O 475.242 2.47641 3.61394 0
M  V30 5047 C 476.743 0.831763 4.35427 0
M  V30 5048 H 473.963 0.273453 0.612751 0
M  V30 5049 H 476.507 1.37552 1.51327 0
M  V30 5050 H 474.662 0.508919 3.84043 0
M  V30 5051 H 475.076 2.60499 4.55237 0
M  V30 5052 H 476.55 1.12233 5.4047 0
M  V30 5053 H 477.027 -0.233769 4.38577 0
M  V30 5054 H 477.633 1.39725 4.01693 0
M  V30 5055 N 475.948 -1.35272 0.808662 0
M  V30 5056 C 476.911 -2.28082 0.226093 0
M  V30 5057 C 477.911 -1.49673 -0.587762 0
M  V30 5058 O 479.101 -1.69404 -0.405943 0
M  V30 5059 C 476.233 -3.33955 -0.684596 0
M  V30 5060 H 477.426 -2.81116 1.04469 0
M  V30 5061 H 474.979 -1.45162 0.579466 0
M  V30 5062 H 475.714 -2.86111 -1.5268 0
M  V30 5063 H 475.499 -3.91965 -0.102699 0
M  V30 5064 H 476.989 -4.03219 -1.08646 0
M  V30 5065 N 477.426 -0.562348 -1.47226 0
M  V30 5066 C 478.675 -0.038041 -2.01664 0
M  V30 5067 C 478.988 1.32199 -1.44162 0
M  V30 5068 O 480.194 1.9365 -1.90294 0
M  V30 5069 C 478.65 -0.0174958 -3.59896 0
M  V30 5070 C 478.258 -1.3746 -4.2639 0
M  V30 5071 C 480.002 0.453934 -4.22066 0
M  V30 5072 C 477.909 -1.31289 -5.76643 0
M  V30 5073 H 476.839 -0.0104511 -0.753928 0
M  V30 5074 H 479.49 -0.710966 -1.69167 0
M  V30 5075 H 477.872 0.721182 -3.89378 0
M  V30 5076 H 479.046 -2.1314 -4.08544 0
M  V30 5077 H 477.361 -1.78438 -3.7623 0
M  V30 5078 H 479.958 0.518584 -5.32179 0
M  V30 5079 H 480.301 1.46706 -3.89594 0
M  V30 5080 H 480.834 -0.230044 -3.97134 0
M  V30 5081 H 477.573 -2.30217 -6.13743 0
M  V30 5082 H 477.093 -0.597973 -5.96812 0
M  V30 5083 H 478.772 -1.01713 -6.38955 0
M  V30 5084 N 478.904 1.54736 -0.299062 0
M  V30 5085 C 480.134 2.04215 0.312992 0
M  V30 5086 C 480.542 1.17596 1.48215 0
M  V30 5087 O 479.885 0.193835 1.82674 0
M  V30 5088 C 479.947 3.49696 0.833862 0
M  V30 5089 C 479.611 4.56518 -0.20977 0
M  V30 5090 C 480.608 5.09442 -1.03756 0
M  V30 5091 C 478.293 5.01073 -0.35091 0
M  V30 5092 C 480.287 6.05459 -1.99244 0
M  V30 5093 C 477.974 5.9691 -1.30924 0
M  V30 5094 C 478.972 6.48987 -2.1285 0
M  V30 5095 O 478.66 7.42947 -3.07059 0
M  V30 5096 H 478.392 0.672128 0.0722494 0
M  V30 5097 H 480.946 2.00718 -0.436043 0
M  V30 5098 H 479.176 3.5051 1.63339 0
M  V30 5099 H 480.865 3.82381 1.36159 0
M  V30 5100 H 481.631 4.75816 -0.939376 0
M  V30 5101 H 477.51 4.60168 0.276813 0
M  V30 5102 H 481.054 6.46031 -2.63229 0
M  V30 5103 H 476.951 6.29953 -1.40815 0
M  V30 5104 H 477.719 7.60743 -3.02015 0
M  V30 5105 N 480.382 0.0267497 1.57577 0
M  V30 5106 C 481.314 -0.984594 2.06974 0
M  V30 5107 C 482.327 -1.29032 0.992705 0
M  V30 5108 O 483.516 -1.25539 1.26895 0
M  V30 5109 C 480.616 -2.31262 2.47732 0
M  V30 5110 C 479.789 -2.1924 3.78487 0
M  V30 5111 C 478.848 -3.34956 4.05821 0
M  V30 5112 O 477.874 -3.11948 4.76106 0
M  V30 5113 N 479.076 -4.58672 3.55809 0
M  V30 5114 H 481.841 -0.563143 2.94362 0
M  V30 5115 H 479.402 -0.160061 1.61107 0
M  V30 5116 H 481.394 -3.07496 2.63112 0
M  V30 5117 H 479.964 -2.65056 1.65723 0
M  V30 5118 H 479.184 -1.27747 3.72927 0
M  V30 5119 H 480.472 -2.08409 4.64158 0
M  V30 5120 H 479.87 -4.8026 2.98942 0
M  V30 5121 H 478.427 -5.32083 3.76472 0
M  V30 5122 N 481.861 -1.55662 -0.24637 0
M  V30 5123 C 482.793 -1.86811 -1.32794 0
M  V30 5124 C 483.806 -0.754413 -1.44265 0
M  V30 5125 O 484.995 -1.03253 -1.45606 0
M  V30 5126 C 482.095 -2.0397 -2.70646 0
M  V30 5127 C 481.268 -3.34832 -2.81436 0
M  V30 5128 C 480.327 -3.41727 -4.00136 0
M  V30 5129 O 479.353 -4.14934 -3.89639 0
M  V30 5130 N 480.555 -2.71058 -5.1333 0
M  V30 5131 H 483.32 -2.80174 -1.06409 0
M  V30 5132 H 480.881 -1.55906 -0.43647 0
M  V30 5133 H 482.873 -2.05924 -3.48393 0
M  V30 5134 H 481.443 -1.1735 -2.89738 0
M  V30 5135 H 480.663 -3.4519 -1.90361 0
M  V30 5136 H 481.951 -4.21085 -2.85595 0
M  V30 5137 H 481.349 -2.11314 -5.2475 0
M  V30 5138 H 479.906 -2.78704 -5.89209 0
M  V30 5139 N 483.339 0.512053 -1.4905 0
M  V30 5140 C 484.269 1.62365 -1.67809 0
M  V30 5141 C 485.25 1.61737 -0.526809 0
M  V30 5142 O 486.435 1.78651 -0.761404 0
M  V30 5143 C 483.565 3.00895 -1.73435 0
M  V30 5144 C 482.519 3.16387 -2.88242 0
M  V30 5145 C 481.845 4.56157 -2.78971 0
M  V30 5146 C 483.145 2.97457 -4.29321 0
M  V30 5147 H 484.839 1.46921 -2.60873 0
M  V30 5148 H 482.385 0.705379 -1.2554 0
M  V30 5149 H 484.338 3.78549 -1.85145 0
M  V30 5150 H 483.062 3.17403 -0.769619 0
M  V30 5151 H 481.721 2.41155 -2.76116 0
M  V30 5152 H 481.369 4.69525 -1.8043 0
M  V30 5153 H 481.069 4.67465 -3.5602 0
M  V30 5154 H 482.593 5.35886 -2.92675 0
M  V30 5155 H 484.007 3.64888 -4.42187 0
M  V30 5156 H 482.404 3.20245 -5.07507 0
M  V30 5157 H 483.474 1.93692 -4.44535 0
M  V30 5158 N 484.817 1.37938 0.762283 0
M  V30 5159 C 485.765 1.34569 1.89721 0
M  V30 5160 C 486.759 0.232929 1.67791 0
M  V30 5161 O 487.965 0.401485 1.75465 0
M  V30 5162 H 484.34 0.419594 0.624055 0
M  V30 5163 H 486.311 2.30357 1.8968 0
M  V30 5164 C 485.06 1.17898 3.27101 0
M  V30 5165 H 484.383 2.02781 3.44558 0
M  V30 5166 H 485.823 1.19593 4.06784 0
M  V30 5167 C 484.282 -0.114728 3.36705 0
M  V30 5168 O 484.812 -1.0949 3.8649 0
M  V30 5169 N 483.018 -0.16863 2.9011 0
M  V30 5170 H 482.565 0.62967 2.49786 0
M  V30 5171 H 482.523 -1.03383 2.96916 0
M  V30 5172 N 486.295 -0.989507 1.22664 0
M  V30 5173 C 487.711 -1.25395 0.987331 0
M  V30 5174 C 487.911 -1.9899 -0.317056 0
M  V30 5175 O 486.967 -2.30141 -1.03882 0
M  V30 5176 C 488.28 -2.06242 2.18826 0
M  V30 5177 C 489.828 -2.19413 2.23219 0
M  V30 5178 C 490.303 -3.03648 3.42873 0
M  V30 5179 N 491.794 -3.11234 3.43056 0
M  V30 5180 C 492.529 -3.7671 4.32293 0
M  V30 5181 N 492.025 -4.44085 5.31752 0
M  V30 5182 N 493.818 -3.73505 4.2006 0
M  V30 5183 H 485.969 -0.496212 2.06522 0
M  V30 5184 H 488.232 -0.281784 0.905153 0
M  V30 5185 H 487.938 -1.59531 3.13437 0
M  V30 5186 H 487.812 -3.06996 2.19165 0
M  V30 5187 H 490.199 -2.65336 1.29154 0
M  V30 5188 H 490.28 -1.18078 2.26917 0
M  V30 5189 H 489.924 -2.58424 4.37241 0
M  V30 5190 H 489.854 -4.05132 3.36416 0
M  V30 5191 H 492.345 -2.63287 2.71088 0
M  V30 5192 H 492.658 -4.91797 5.96117 0
M  V30 5193 H 491.003 -4.42822 5.35662 0
M  V30 5194 H 494.194 -3.20033 3.41609 0
M  V30 5195 H 494.367 -4.24253 4.8981 0
M  V30 5196 N 487.773 -1.03688 -1.18687 0
M  V30 5197 C 489.019 -0.74888 -1.89112 0
M  V30 5198 C 489.374 0.715345 -1.78607 0
M  V30 5199 O 488.667 1.51498 -1.17299 0
M  V30 5200 C 488.861 -1.14477 -3.3857 0
M  V30 5201 C 488.69 -2.64594 -3.63621 0
M  V30 5202 C 487.46 -3.31685 -3.812 0
M  V30 5203 C 489.658 -3.62811 -3.64517 0
M  V30 5204 N 487.64 -4.70822 -3.93955 0
M  V30 5205 C 489.011 -4.87603 -3.8294 0
M  V30 5206 C 491.066 -3.56495 -3.47585 0
M  V30 5207 C 489.769 -6.0684 -3.86184 0
M  V30 5208 C 491.795 -4.75155 -3.52111 0
M  V30 5209 C 491.157 -5.98765 -3.71026 0
M  V30 5210 H 487.256 -0.32603 -0.710794 0
M  V30 5211 H 489.84 -1.3258 -1.42586 0
M  V30 5212 H 488.011 -0.595974 -3.838 0
M  V30 5213 H 489.743 -0.808187 -3.96548 0
M  V30 5214 H 486.498 -2.82091 -3.80423 0
M  V30 5215 H 486.922 -5.43122 -4.04163 0
M  V30 5216 H 491.564 -2.61907 -3.31911 0
M  V30 5217 H 489.282 -7.01788 -4.00648 0
M  V30 5218 H 492.868 -4.71905 -3.40289 0
M  V30 5219 H 491.748 -6.89047 -3.74412 0
M  V30 5220 N 489.251 1.34841 -0.815825 0
M  V30 5221 C 490.198 2.29644 -0.230664 0
M  V30 5222 C 491.168 1.53253 0.640533 0
M  V30 5223 O 492.353 1.81653 0.583672 0
M  V30 5224 C 489.493 3.39715 0.607275 0
M  V30 5225 C 488.606 4.31056 -0.28538 0
M  V30 5226 C 487.741 5.28225 0.561446 0
M  V30 5227 C 486.78 6.11204 -0.331035 0
M  V30 5228 N 485.917 7.00483 0.476302 0
M  V30 5229 H 490.757 2.79095 -1.0445 0
M  V30 5230 H 488.294 1.37351 -0.526595 0
M  V30 5231 H 490.252 4.02208 1.10835 0
M  V30 5232 H 488.882 2.91517 1.38629 0
M  V30 5233 H 487.934 3.69487 -0.904621 0
M  V30 5234 H 489.246 4.89239 -0.97193 0
M  V30 5235 H 488.4 5.96135 1.12728 0
M  V30 5236 H 487.139 4.70562 1.28153 0
M  V30 5237 H 486.144 5.42232 -0.909069 0
M  V30 5238 H 487.369 6.70947 -1.04912 0
M  V30 5239 H 485.315 6.45296 1.18019 0
M  V30 5240 H 485.232 7.55847 -0.152008 0
M  V30 5241 H 486.5 7.7273 1.02512 0
M  V30 5242 N 490.729 0.570148 1.46925 0
M  V30 5243 C 491.959 0.0561151 2.06524 0
M  V30 5244 C 492.367 -1.24874 1.42137 0
M  V30 5245 O 491.71 -1.76292 0.516417 0
M  V30 5246 C 491.772 -0.197035 3.5896 0
M  V30 5247 C 491.436 1.02033 4.45464 0
M  V30 5248 C 492.433 1.92921 4.82781 0
M  V30 5249 C 490.118 1.23864 4.86788 0
M  V30 5250 C 492.112 3.03999 5.60235 0
M  V30 5251 C 489.799 2.35249 5.64004 0
M  V30 5252 C 490.797 3.25146 6.0064 0
M  V30 5253 O 490.485 4.34598 6.76299 0
M  V30 5254 H 490.217 0.0487409 0.674241 0
M  V30 5255 H 492.771 0.786915 1.89728 0
M  V30 5256 H 491.001 -0.982299 3.74016 0
M  V30 5257 H 492.69 -0.658032 4.00531 0
M  V30 5258 H 493.456 1.77265 4.51444 0
M  V30 5259 H 489.335 0.54805 4.57731 0
M  V30 5260 H 492.879 3.74192 5.8875 0
M  V30 5261 H 488.776 2.50873 5.94755 0
M  V30 5262 H 489.544 4.32808 6.94708 0
M  V30 5263 N 492.207 -1.54576 0.307264 0
M  V30 5264 C 493.456 -1.99442 -0.300976 0
M  V30 5265 C 493.769 -1.19928 -1.5452 0
M  V30 5266 O 494.975 -1.55092 -2.22842 0
M  V30 5267 C 493.431 -3.55084 -0.586809 0
M  V30 5268 C 493.039 -4.43413 0.639438 0
M  V30 5269 C 494.783 -4.0846 -1.1559 0
M  V30 5270 C 492.69 -5.90499 0.326411 0
M  V30 5271 H 491.62 -0.744986 -0.116238 0
M  V30 5272 H 494.271 -1.787 0.416947 0
M  V30 5273 H 492.653 -3.71749 -1.36449 0
M  V30 5274 H 493.827 -4.38522 1.41545 0
M  V30 5275 H 492.142 -4.00842 1.1276 0
M  V30 5276 H 494.739 -5.15926 -1.40445 0
M  V30 5277 H 495.082 -3.59443 -2.10015 0
M  V30 5278 H 495.615 -3.95362 -0.439778 0
M  V30 5279 H 492.354 -6.43676 1.23939 0
M  V30 5280 H 491.874 -5.98382 -0.412212 0
M  V30 5281 H 493.553 -6.46962 -0.0697393 0
M  V30 5282 N 493.685 -0.035106 -1.57561 0
M  V30 5283 C 494.617 0.973604 -2.07494 0
M  V30 5284 C 495.63 1.28504 -0.999534 0
M  V30 5285 O 496.819 1.24864 -1.27559 0
M  V30 5286 C 493.919 2.29945 -2.48955 0
M  V30 5287 C 493.092 2.1723 -3.79644 0
M  V30 5288 C 492.151 3.328 -4.07592 0
M  V30 5289 O 491.177 3.09418 -4.77754 0
M  V30 5290 N 492.379 4.56779 -3.58236 0
M  V30 5291 H 495.144 0.547525 -2.94656 0
M  V30 5292 H 492.705 0.151515 -1.61189 0
M  V30 5293 H 494.697 3.06097 -2.64739 0
M  V30 5294 H 493.267 2.64173 -1.67126 0
M  V30 5295 H 492.487 1.25768 -3.73599 0
M  V30 5296 H 493.775 2.05945 -4.65257 0
M  V30 5297 H 493.173 4.78668 -3.01485 0
M  V30 5298 H 491.73 5.30079 -3.79288 0
M  V30 5299 N 495.163 1.55791 0.238111 0
M  V30 5300 C 496.095 1.87513 1.31802 0
M  V30 5301 C 497.108 0.762053 1.43863 0
M  V30 5302 O 498.297 1.04024 1.45056 0
M  V30 5303 C 495.397 2.05402 2.69561 0
M  V30 5304 C 494.57 3.3632 2.79656 0
M  V30 5305 C 493.629 3.43844 3.98319 0
M  V30 5306 O 492.655 4.16994 3.87433 0
M  V30 5307 N 493.857 2.73777 5.11885 0
M  V30 5308 H 496.622 2.80734 1.04922 0
M  V30 5309 H 494.183 1.56135 0.428196 0
M  V30 5310 H 496.175 2.07769 3.47296 0
M  V30 5311 H 494.745 1.18884 2.89111 0
M  V30 5312 H 493.965 3.46195 1.88528 0
M  V30 5313 H 495.253 4.22594 2.83358 0
M  V30 5314 H 494.651 2.14094 5.23622 0
M  V30 5315 H 493.208 2.81825 5.87723 0
M  V30 5316 N 496.642 -0.504142 1.49319 0
M  V30 5317 C 497.888 -1.26033 1.58882 0
M  V30 5318 C 498.221 -1.92268 0.273274 0
M  V30 5319 O 497.496 -1.80567 -0.72291 0
M  V30 5320 C 497.779 -2.32976 2.7458 0
M  V30 5321 C 497.632 -1.71263 4.1592 0
M  V30 5322 C 498.951 -3.34561 2.85932 0
M  V30 5323 H 496.07 -0.456863 0.578312 0
M  V30 5324 H 498.712 -0.558965 1.81592 0
M  V30 5325 H 496.862 -2.92796 2.55348 0
M  V30 5326 H 498.534 -1.15294 4.4666 0
M  V30 5327 H 496.777 -1.01686 4.21714 0
M  V30 5328 H 497.448 -2.48816 4.92742 0
M  V30 5329 H 499.924 -2.84727 3.0343 0
M  V30 5330 H 498.8 -4.06754 3.68568 0
M  V30 5331 H 499.061 -3.96695 1.95154 0
M  V30 5332 N 498.12 -1.38341 -0.754957 0
M  V30 5333 C 499.35 -1.37504 -1.54195 0
M  V30 5334 C 499.758 0.0373787 -1.89163 0
M  V30 5335 O 499.101 1.01402 -1.53178 0
M  V30 5336 C 499.163 -2.16488 -2.87008 0
M  V30 5337 C 498.827 -3.65311 -2.74585 0
M  V30 5338 C 499.824 -4.58834 -2.44474 0
M  V30 5339 C 497.509 -4.08649 -2.9208 0
M  V30 5340 C 499.503 -5.93675 -2.32011 0
M  V30 5341 C 497.19 -5.43571 -2.79237 0
M  V30 5342 C 498.188 -6.35898 -2.49245 0
M  V30 5343 O 497.876 -7.68338 -2.36458 0
M  V30 5344 H 497.608 -0.472159 -0.483779 0
M  V30 5345 H 500.162 -1.82515 -0.94221 0
M  V30 5346 H 498.392 -1.66194 -3.49166 0
M  V30 5347 H 500.081 -2.08076 -3.4851 0
M  V30 5348 H 500.847 -4.26657 -2.30627 0
M  V30 5349 H 496.726 -3.37134 -3.14422 0
M  V30 5350 H 500.27 -6.65706 -2.08522 0
M  V30 5351 H 496.167 -5.75345 -2.92657 0
M  V30 5352 H 496.935 -7.78845 -2.5168 0
M  V30 5353 N 499.598 0.982988 -1.23187 0
M  V30 5354 C 500.528 2.09301 -1.03515 0
M  V30 5355 C 501.509 1.70035 0.0471136 0
M  V30 5356 O 502.694 1.93847 -0.117029 0
M  V30 5357 C 499.824 3.4167 -0.622791 0
M  V30 5358 C 498.778 3.94828 -1.65211 0
M  V30 5359 C 498.104 5.23362 -1.09527 0
M  V30 5360 C 499.404 4.2439 -3.04451 0
M  V30 5361 H 501.098 2.26016 -1.96359 0
M  V30 5362 H 498.644 1.08611 -0.945501 0
M  V30 5363 H 500.597 4.18746 -0.472233 0
M  V30 5364 H 499.321 3.24811 0.341329 0
M  V30 5365 H 497.98 3.19895 -1.79061 0
M  V30 5366 H 497.628 5.02852 -0.122211 0
M  V30 5367 H 497.328 5.59895 -1.783 0
M  V30 5368 H 498.852 6.03062 -0.956511 0
M  V30 5369 H 500.266 4.92225 -2.93917 0
M  V30 5370 H 498.663 4.72118 -3.70438 0
M  V30 5371 H 499.733 3.31765 -3.53638 0
M  V30 5372 N 501.076 1.04316 1.18135 0
M  V30 5373 C 502.039 0.640794 2.2006 0
M  V30 5374 C 503.039 -0.303124 1.57917 0
M  V30 5375 O 504.229 -0.0881855 1.73977 0
M  V30 5376 C 501.361 -0.060148 3.40847 0
M  V30 5377 H 502.554 1.54281 2.57172 0
M  V30 5378 H 500.107 0.836004 1.32063 0
M  V30 5379 H 500.842 -0.975845 3.0927 0
M  V30 5380 H 500.627 0.618319 3.87194 0
M  V30 5381 H 502.117 -0.328082 4.16309 0
M  V30 5382 N 502.554 -1.34406 0.822964 0
M  V30 5383 C 503.779 -2.0304 0.423034 0
M  V30 5384 C 504.204 -1.61568 -0.963196 0
M  V30 5385 O 503.562 -0.800339 -1.62678 0
M  V30 5386 C 503.61 -3.56636 0.53321 0
M  V30 5387 O 502.714 -4.09971 -0.446939 0
M  V30 5388 H 502.055 -0.64075 0.174171 0
M  V30 5389 H 504.585 -1.71653 1.11339 0
M  V30 5390 H 504.595 -4.05945 0.408991 0
M  V30 5391 H 503.27 -3.86168 1.54425 0
M  V30 5392 H 501.847 -3.71835 -0.281601 0
M  V30 5393 N 504.032 -0.577932 -1.46621 0
M  V30 5394 C 505.279 -0.0616879 -2.02406 0
M  V30 5395 C 505.607 1.29638 -1.44997 0
M  V30 5396 O 504.862 1.86176 -0.60308 0
M  V30 5397 C 505.161 0.0590832 -3.57351 0
M  V30 5398 C 504.827 -1.23077 -4.33777 0
M  V30 5399 C 503.489 -1.58416 -4.54376 0
M  V30 5400 C 505.841 -2.08457 -4.77698 0
M  V30 5401 C 503.169 -2.78943 -5.16147 0
M  V30 5402 C 505.521 -3.28204 -5.408 0
M  V30 5403 C 504.185 -3.63832 -5.59627 0
M  V30 5404 H 503.455 -0.0225732 -0.740656 0
M  V30 5405 H 506.102 -0.753609 -1.76048 0
M  V30 5406 H 504.407 0.834104 -3.82818 0
M  V30 5407 H 506.104 0.474202 -3.98186 0
M  V30 5408 H 502.694 -0.945652 -4.18038 0
M  V30 5409 H 506.878 -1.82459 -4.61544 0
M  V30 5410 H 502.134 -3.06689 -5.28916 0
M  V30 5411 H 506.308 -3.94634 -5.73792 0
M  V30 5412 H 503.935 -4.57315 -6.07262 0
M  V30 5413 N 505.51 1.54411 -0.315457 0
M  V30 5414 C 506.756 2.01425 0.282775 0
M  V30 5415 C 507.111 1.19978 1.5041 0
M  V30 5416 O 506.404 0.271766 1.89663 0
M  V30 5417 C 506.598 3.50936 0.676652 0
M  V30 5418 C 506.427 4.46856 -0.504954 0
M  V30 5419 C 505.197 4.95275 -1.00152 0
M  V30 5420 C 507.395 4.96141 -1.35456 0
M  V30 5421 N 505.377 5.75081 -2.14838 0
M  V30 5422 C 506.748 5.73791 -2.3487 0
M  V30 5423 C 508.803 4.78299 -1.38327 0
M  V30 5424 C 507.506 6.35498 -3.36949 0
M  V30 5425 C 509.532 5.40836 -2.39271 0
M  V30 5426 C 508.894 6.1833 -3.37413 0
M  V30 5427 H 504.993 0.779078 0.0675398 0
M  V30 5428 H 507.577 1.8946 -0.448656 0
M  V30 5429 H 505.748 3.63162 1.37723 0
M  V30 5430 H 507.48 3.84728 1.25566 0
M  V30 5431 H 504.235 4.70107 -0.574123 0
M  V30 5432 H 504.659 6.19664 -2.72665 0
M  V30 5433 H 509.301 4.17956 -0.638196 0
M  V30 5434 H 507.019 6.94967 -4.12367 0
M  V30 5435 H 510.605 5.28952 -2.42284 0
M  V30 5436 H 509.485 6.65861 -4.14244 0
M  V30 5437 N 506.988 0.0434614 1.5754 0
M  V30 5438 C 507.918 -0.931651 2.14109 0
M  V30 5439 C 508.899 -1.32971 1.06079 0
M  V30 5440 O 510.084 -1.40579 1.33982 0
M  V30 5441 C 507.214 -2.20914 2.67982 0
M  V30 5442 C 506.168 -1.95139 3.80926 0
M  V30 5443 C 505.494 -3.29276 4.21285 0
M  V30 5444 C 506.794 -1.27913 5.06395 0
M  V30 5445 H 508.488 -0.460497 2.95837 0
M  V30 5446 H 506.034 -0.220058 1.42309 0
M  V30 5447 H 507.987 -2.89522 3.06194 0
M  V30 5448 H 506.711 -2.70221 1.83434 0
M  V30 5449 H 505.37 -1.28945 3.43175 0
M  V30 5450 H 505.018 -3.76369 3.33699 0
M  V30 5451 H 504.718 -3.12831 4.97404 0
M  V30 5452 H 506.242 -3.99129 4.62091 0
M  V30 5453 H 507.656 -1.86544 5.42102 0
M  V30 5454 H 506.053 -1.2182 5.87605 0
M  V30 5455 H 507.123 -0.254066 4.84234 0
M  V30 5456 N 508.466 -1.55915 -0.229846 0
M  V30 5457 C 509.429 -1.90914 -1.26824 0
M  V30 5458 C 510.429 -0.786999 -1.40225 0
M  V30 5459 O 511.619 -1.05484 -1.38632 0
M  V30 5460 C 508.751 -2.15264 -2.64337 0
M  V30 5461 H 509.944 -2.8378 -0.969998 0
M  V30 5462 H 507.497 -1.49069 -0.4699 0
M  V30 5463 H 508.232 -1.24923 -2.99274 0
M  V30 5464 H 508.017 -2.97005 -2.55989 0
M  V30 5465 H 509.507 -2.43467 -3.39284 0
M  V30 5466 N 509.944 0.496216 -1.49584 0
M  V30 5467 C 510.877 1.61508 -1.61215 0
M  V30 5468 C 511.855 1.55927 -0.461045 0
M  V30 5469 O 513.039 1.75914 -0.677231 0
M  V30 5470 C 510.166 3.00035 -1.57152 0
M  V30 5471 C 509.212 3.23861 -2.77518 0
M  V30 5472 S 510.045 3.06466 -4.39134 0
M  V30 5473 C 511.201 4.4738 -4.37724 0
M  V30 5474 H 511.434 1.51398 -2.55863 0
M  V30 5475 H 508.967 0.681727 -1.38535 0
M  V30 5476 H 510.925 3.7991 -1.55494 0
M  V30 5477 H 509.586 3.07556 -0.637834 0
M  V30 5478 H 508.779 4.25 -2.70908 0
M  V30 5479 H 508.381 2.51716 -2.76614 0
M  V30 5480 H 510.673 5.39556 -4.09738 0
M  V30 5481 H 511.616 4.59038 -5.39156 0
M  V30 5482 H 512.024 4.28283 -3.67742 0
M  V30 5483 N 511.423 1.38739 0.74761 0
M  V30 5484 C 512.648 1.38702 1.54197 0
M  V30 5485 C 513.073 -0.019664 1.8809 0
M  V30 5486 O 512.431 -1.00333 1.51006 0
M  V30 5487 C 512.479 2.25492 2.814 0
M  V30 5488 O 511.583 1.67613 3.76802 0
M  V30 5489 H 510.924 0.472863 0.466151 0
M  V30 5490 H 513.454 1.82577 0.923413 0
M  V30 5491 H 513.464 2.39561 3.30264 0
M  V30 5492 H 512.139 3.27727 2.56062 0
M  V30 5493 H 510.716 1.62718 3.35526 0
M  V30 5494 N 512.901 -0.976442 1.23707 0
M  V30 5495 C 514.126 -1.75875 1.09922 0
M  V30 5496 C 514.551 -1.84911 -0.34489 0
M  V30 5497 O 513.909 -1.31363 -1.24954 0
M  V30 5498 C 513.957 -3.16179 1.73388 0
M  V30 5499 O 513.061 -4.00124 0.99871 0
M  V30 5500 H 512.402 -0.540954 0.385052 0
M  V30 5501 H 514.932 -1.22546 1.6384 0
M  V30 5502 H 514.942 -3.66741 1.78788 0
M  V30 5503 H 513.617 -3.08917 2.78466 0
M  V30 5504 H 512.194 -3.58624 1.02193 0
M  V30 5505 N 514.379 -1.04941 -1.1758 0
M  V30 5506 C 515.607 -0.778294 -1.91703 0
M  V30 5507 C 516.022 0.665697 -1.76675 0
M  V30 5508 O 515.379 1.45456 -1.10222 0
M  V30 5509 C 515.43 -1.14628 -3.42845 0
M  V30 5510 O 515.151 -2.53359 -3.57409 0
M  V30 5511 C 516.652 -0.900931 -4.34049 0
M  V30 5512 H 513.872 -0.283167 -0.608323 0
M  V30 5513 H 516.416 -1.39942 -1.49119 0
M  V30 5514 H 514.571 -0.569953 -3.83184 0
M  V30 5515 H 514.985 -2.67709 -4.51035 0
M  V30 5516 H 516.459 -1.20817 -5.38616 0
M  V30 5517 H 516.936 0.163966 -4.38894 0
M  V30 5518 H 517.542 -1.46097 -3.99419 0
M  V30 5519 N 515.857 1.33968 -0.830081 0
M  V30 5520 C 516.79 2.27303 -0.202182 0
M  V30 5521 C 517.768 1.49235 0.645581 0
M  V30 5522 O 518.952 1.78433 0.607762 0
M  V30 5523 C 516.079 3.31025 0.716932 0
M  V30 5524 C 515.125 4.26466 -0.0542271 0
M  V30 5525 S 515.958 5.16707 -1.40622 0
M  V30 5526 C 517.114 6.23962 -0.492167 0
M  V30 5527 H 517.347 2.8021 -0.99346 0
M  V30 5528 H 514.88 1.41124 -0.626359 0
M  V30 5529 H 516.838 3.91271 1.24165 0
M  V30 5530 H 515.499 2.76951 1.4818 0
M  V30 5531 H 514.692 4.99858 0.644785 0
M  V30 5532 H 514.294 3.7051 -0.509722 0
M  V30 5533 H 516.586 6.76774 0.31347 0
M  V30 5534 H 517.529 6.97927 -1.19599 0
M  V30 5535 H 517.937 5.64447 -0.0774176 0
M  V30 5536 N 517.335 0.585699 1.46312 0
M  V30 5537 C 518.565 0.0780166 2.06453 0
M  V30 5538 C 518.973 -1.2336 1.43454 0
M  V30 5539 O 518.316 -1.75734 0.535086 0
M  V30 5540 C 518.378 -0.158951 3.59148 0
M  V30 5541 C 518.042 1.06752 4.44357 0
M  V30 5542 C 519.039 1.98031 4.80708 0
M  V30 5543 C 516.724 1.2902 4.85447 0
M  V30 5544 C 518.718 3.09924 5.5698 0
M  V30 5545 C 516.405 2.41218 5.61478 0
M  V30 5546 C 517.403 3.31499 5.97158 0
M  V30 5547 O 517.091 4.41747 6.71651 0
M  V30 5548 H 516.823 0.0558894 0.673686 0
M  V30 5549 H 519.377 0.806994 1.88883 0
M  V30 5550 H 517.607 -0.942575 3.75037 0
M  V30 5551 H 519.296 -0.615513 4.01206 0
M  V30 5552 H 520.062 1.82043 4.49539 0
M  V30 5553 H 515.941 0.596567 4.57124 0
M  V30 5554 H 519.485 3.80415 5.84748 0
M  V30 5555 H 515.382 2.57167 5.9206 0
M  V30 5556 H 516.15 4.40152 6.90079 0
M  V30 5557 N 518.813 -1.54241 0.323641 0
M  V30 5558 C 519.761 -2.25813 -0.557804 0
M  V30 5559 C 520.755 -1.27225 -1.11849 0
M  V30 5560 O 521.961 -1.45001 -1.06652 0
M  V30 5561 H 518.336 -0.72532 -0.198532 0
M  V30 5562 H 520.307 -2.98322 0.0681112 0
M  V30 5563 C 519.056 -3.02913 -1.70701 0
M  V30 5564 H 518.379 -3.78593 -1.28482 0
M  V30 5565 H 519.819 -3.56238 -2.29935 0
M  V30 5566 C 518.278 -2.11217 -2.62467 0
M  V30 5567 O 518.808 -1.69508 -3.64184 0
M  V30 5568 N 517.014 -1.76704 -2.30703 0
M  V30 5569 H 516.561 -2.1082 -1.48029 0
M  V30 5570 H 516.519 -1.15631 -2.92364 0
M  V30 5571 N 520.291 -0.0518155 -1.57515 0
M  V30 5572 C 521.702 0.483787 -1.80323 0
M  V30 5573 C 522.053 1.70879 -0.964099 0
M  V30 5574 O 521.178 2.15643 -0.180872 0
M  V30 5575 C 521.773 0.884459 -3.27052 0
M  V30 5576 C 520.332 1.36504 -3.50776 0
M  V30 5577 C 519.479 0.340539 -2.75201 0
M  V30 5578 H 522.43 -0.277691 -1.56252 0
M  V30 5579 H 522.451 1.74733 -3.38007 0
M  V30 5580 H 521.963 -0.00731093 -3.88099 0
M  V30 5581 H 520.064 2.27598 -2.95009 0
M  V30 5582 H 520.177 1.35675 -4.59488 0
M  V30 5583 H 518.541 0.81356 -2.41357 0
M  V30 5584 H 519.324 -0.543156 -3.38976 0
M  V30 5585 N 521.769 1.56035 0.221574 0
M  V30 5586 C 523.018 1.78245 0.944016 0
M  V30 5587 C 523.331 0.620371 1.85501 0
M  V30 5588 O 524.537 0.726103 2.6161 0
M  V30 5589 C 522.993 3.15659 1.7288 0
M  V30 5590 C 522.601 4.39591 0.863942 0
M  V30 5591 C 524.345 3.47195 2.44246 0
M  V30 5592 C 522.252 5.6803 1.64607 0
M  V30 5593 H 521.182 0.664547 0.356222 0
M  V30 5594 H 523.833 1.8243 0.197904 0
M  V30 5595 H 522.215 3.0565 2.51781 0
M  V30 5596 H 523.389 4.60655 0.115464 0
M  V30 5597 H 521.704 4.15572 0.262407 0
M  V30 5598 H 524.301 4.40381 3.03263 0
M  V30 5599 H 524.644 2.69693 3.1713 0
M  V30 5600 H 525.177 3.58533 1.72334 0
M  V30 5601 H 521.916 6.48425 0.960507 0
M  V30 5602 H 521.436 5.51027 2.36917 0
M  V30 5603 H 523.115 6.08203 2.20675 0
M  V30 5604 N 523.247 -0.488276 1.49845 0
M  V30 5605 C 524.496 -1.23826 1.59217 0
M  V30 5606 C 524.809 -1.93439 0.289966 0
M  V30 5607 O 526.015 -2.70229 0.262382 0
M  V30 5608 C 524.471 -2.24902 2.80976 0
M  V30 5609 C 524.079 -1.6117 4.18005 0
M  V30 5610 C 525.823 -3.00648 2.99685 0
M  V30 5611 C 523.73 -2.60431 5.3097 0
M  V30 5612 H 522.66 -0.465858 0.592868 0
M  V30 5613 H 525.311 -0.510645 1.76252 0
M  V30 5614 H 523.693 -3.0088 2.57463 0
M  V30 5615 H 524.867 -0.910968 4.51706 0
M  V30 5616 H 523.182 -0.97767 4.0476 0
M  V30 5617 H 525.779 -3.74903 3.81251 0
M  V30 5618 H 526.122 -3.5902 2.10738 0
M  V30 5619 H 526.655 -2.31784 3.23297 0
M  V30 5620 H 523.394 -2.06823 6.22017 0
M  V30 5621 H 522.914 -3.28707 5.01709 0
M  V30 5622 H 524.593 -3.22606 5.60834 0
M  V30 5623 N 524.725 -1.39134 -0.740242 0
M  V30 5624 C 525.955 -1.39132 -1.52728 0
M  V30 5625 C 526.363 0.0173133 -1.89192 0
M  V30 5626 O 525.706 0.997715 -1.54244 0
M  V30 5627 C 525.768 -2.1952 -2.84695 0
M  V30 5628 C 525.432 -3.68203 -2.70695 0
M  V30 5629 C 526.429 -4.61401 -2.39593 0
M  V30 5630 C 524.114 -4.11724 -2.8773 0
M  V30 5631 C 526.108 -5.96102 -2.25701 0
M  V30 5632 C 523.795 -5.46503 -2.73456 0
M  V30 5633 C 524.793 -6.38506 -2.42486 0
M  V30 5634 O 524.481 -7.70803 -2.28295 0
M  V30 5635 H 524.213 -0.477263 -0.478744 0
M  V30 5636 H 526.767 -1.83504 -0.922799 0
M  V30 5637 H 524.997 -1.69888 -3.47383 0
M  V30 5638 H 526.686 -2.1176 -3.46284 0
M  V30 5639 H 527.452 -4.29079 -2.26088 0
M  V30 5640 H 523.331 -3.4045 -3.10829 0
M  V30 5641 H 526.875 -6.6788 -2.0145 0
M  V30 5642 H 522.772 -5.78417 -2.86538 0
M  V30 5643 H 523.54 -7.8147 -2.43405 0
M  V30 5644 N 526.204 0.969867 -1.24223 0
M  V30 5645 C 527.444 1.72754 -1.0925 0
M  V30 5646 C 527.808 1.88541 0.362787 0
M  V30 5647 O 529.009 2.61217 0.633969 0
M  V30 5648 C 527.28 3.08204 -1.80957 0
M  V30 5649 S 528.839 3.99418 -1.81688 0
M  V30 5650 H 525.657 0.593981 -0.390778 0
M  V30 5651 H 528.259 1.15792 -1.5752 0
M  V30 5652 H 526.963 2.94372 -2.85961 0
M  V30 5653 H 526.494 3.70232 -1.33012 0
M  V30 5654 H 528.509 4.8828 -0.883001 0
M  V30 5655 N 527.682 1.05563 1.17022 0
M  V30 5656 C 528.922 0.777033 1.89054 0
M  V30 5657 C 529.286 -0.683617 1.79418 0
M  V30 5658 O 530.487 -1.07648 2.46303 0
M  V30 5659 C 528.758 1.24886 3.34871 0
M  V30 5660 S 530.317 1.0982 4.24835 0
M  V30 5661 H 527.135 0.282082 0.652649 0
M  V30 5662 H 529.737 1.35103 1.41306 0
M  V30 5663 H 528.441 2.30699 3.3942 0
M  V30 5664 H 527.972 0.669292 3.87665 0
M  V30 5665 H 529.987 0.02462 4.96194 0
M  V30 5666 N 529.16 -1.33526 0.837174 0
M  V30 5667 C 530.09 -2.31764 0.284206 0
M  V30 5668 C 531.071 -1.58896 -0.607142 0
M  V30 5669 O 532.256 -1.86798 -0.531047 0
M  V30 5670 C 529.386 -3.43029 -0.542962 0
M  V30 5671 C 528.34 -4.27255 0.252451 0
M  V30 5672 C 527.666 -5.3012 -0.69836 0
M  V30 5673 C 528.966 -5.01229 1.46858 0
M  V30 5674 H 530.66 -2.78262 1.10502 0
M  V30 5675 H 528.206 -1.3378 0.532812 0
M  V30 5676 H 530.159 -4.1078 -0.940096 0
M  V30 5677 H 528.883 -2.95216 -1.39697 0
M  V30 5678 H 527.542 -3.61127 0.631124 0
M  V30 5679 H 527.19 -4.78564 -1.54872 0
M  V30 5680 H 526.89 -5.87353 -0.170274 0
M  V30 5681 H 528.414 -6.00737 -1.09305 0
M  V30 5682 H 529.828 -5.61756 1.14469 0
M  V30 5683 H 528.225 -5.68104 1.93333 0
M  V30 5684 H 529.295 -4.301 2.23924 0
M  V30 5685 N 530.638 -0.59345 -1.46 0
M  V30 5686 C 531.586 0.146268 -2.3214 0
M  V30 5687 C 532.58 0.873743 -1.45128 0
M  V30 5688 O 533.786 0.790912 -1.61693 0
M  V30 5689 H 530.161 0.0660349 -0.749095 0
M  V30 5690 H 532.132 -0.598895 -2.92328 0
M  V30 5691 C 530.881 1.1396 -3.28494 0
M  V30 5692 H 530.204 0.589252 -3.95434 0
M  V30 5693 H 531.644 1.62738 -3.91526 0
M  V30 5694 C 530.103 2.20604 -2.54628 0
M  V30 5695 O 530.633 3.28128 -2.31722 0
M  V30 5696 N 528.839 1.95502 -2.15005 0
M  V30 5697 H 528.386 1.0807 -2.33834 0
M  V30 5698 H 528.344 2.67064 -1.65904 0
M  V30 5699 N 532.116 1.54067 -0.331816 0
M  V30 5700 C 533.063 2.24623 0.530372 0
M  V30 5701 C 534.033 1.24009 1.10503 0
M  V30 5702 O 535.218 1.52712 1.14384 0
M  V30 5703 C 532.358 3.01374 1.68129 0
M  V30 5704 C 531.471 4.16821 1.13507 0
M  V30 5705 C 530.606 4.81085 2.25234 0
M  V30 5706 C 529.645 5.88621 1.67903 0
M  V30 5707 N 528.782 6.46713 2.73326 0
M  V30 5708 H 533.622 2.97898 -0.0778607 0
M  V30 5709 H 531.159 1.47014 -0.0501965 0
M  V30 5710 H 533.117 3.44125 2.35868 0
M  V30 5711 H 531.747 2.30419 2.26069 0
M  V30 5712 H 530.799 3.78796 0.348979 0
M  V30 5713 H 532.111 4.94203 0.675633 0
M  V30 5714 H 531.265 5.26846 3.00862 0
M  V30 5715 H 530.004 4.03102 2.74518 0
M  V30 5716 H 529.009 5.42254 0.907773 0
M  V30 5717 H 530.234 6.68506 1.19487 0
M  V30 5718 H 528.18 5.71599 3.21886 0
M  V30 5719 H 528.097 7.19532 2.3197 0
M  V30 5720 H 529.365 6.97129 3.48758 0
M  V30 5721 N 533.594 0.0601682 1.57485 0
M  V30 5722 C 535.01 -0.296422 1.56823 0
M  V30 5723 C 535.21 -1.70831 1.0686 0
M  V30 5724 O 534.266 -2.4174 0.729245 0
M  V30 5725 C 535.579 -0.116681 3.00474 0
M  V30 5726 C 537.127 -0.187103 3.1244 0
M  V30 5727 C 537.602 -0.035783 4.57986 0
M  V30 5728 N 539.093 -0.0917676 4.63109 0
M  V30 5729 C 539.828 0.00107251 5.734 0
M  V30 5730 N 539.324 0.146773 6.92645 0
M  V30 5731 N 541.117 -0.0551577 5.62073 0
M  V30 5732 H 533.268 0.983055 1.88281 0
M  V30 5733 H 535.531 0.382386 0.867459 0
M  V30 5734 H 535.237 0.85712 3.41096 0
M  V30 5735 H 535.111 -0.873929 3.66936 0
M  V30 5736 H 537.498 -1.15138 2.71712 0
M  V30 5737 H 537.579 0.601052 2.48638 0
M  V30 5738 H 537.223 0.925212 4.99402 0
M  V30 5739 H 537.153 -0.843196 5.19806 0
M  V30 5740 H 539.644 -0.203261 3.77353 0
M  V30 5741 H 539.957 0.210076 7.72514 0
M  V30 5742 H 538.302 0.181979 6.94762 0
M  V30 5743 H 541.493 -0.167605 4.678 0
M  V30 5744 H 541.666 0.020652 6.47997 0
M  V30 5745 N 535.072 -1.5615 -0.213296 0
M  V30 5746 C 536.319 -1.79546 -0.936462 0
M  V30 5747 C 536.647 -0.630337 -1.84003 0
M  V30 5748 O 535.902 0.384883 -1.91878 0
M  V30 5749 C 536.201 -3.08772 -1.79985 0
M  V30 5750 C 535.867 -4.38532 -1.04882 0
M  V30 5751 C 534.529 -4.73787 -0.841393 0
M  V30 5752 C 536.881 -5.18609 -0.51907 0
M  V30 5753 C 534.209 -5.86627 -0.0924403 0
M  V30 5754 C 536.561 -6.32229 0.216581 0
M  V30 5755 C 535.225 -6.6608 0.435191 0
M  V30 5756 H 534.495 -0.657004 -0.342676 0
M  V30 5757 H 537.142 -1.9041 -0.204051 0
M  V30 5758 H 535.447 -2.93065 -2.60038 0
M  V30 5759 H 537.144 -3.24077 -2.36168 0
M  V30 5760 H 533.734 -4.10855 -1.22048 0
M  V30 5761 H 537.918 -4.91801 -0.666775 0
M  V30 5762 H 533.174 -6.11338 0.087081 0
M  V30 5763 H 537.348 -6.93503 0.634538 0
M  V30 5764 H 534.975 -7.5336 1.01746 0
M  V30 5765 N 536.55 0.480323 -1.50102 0
M  V30 5766 C 537.966 0.813295 -1.37323 0
M  V30 5767 C 538.166 1.97027 -0.422206 0
M  V30 5768 O 537.222 2.5212 0.138563 0
M  V30 5769 C 538.535 1.13404 -2.78496 0
M  V30 5770 C 540.083 1.24104 -2.87345 0
M  V30 5771 C 540.558 1.59497 -4.29331 0
M  V30 5772 N 542.049 1.66507 -4.32238 0
M  V30 5773 C 542.784 1.95378 -5.39087 0
M  V30 5774 N 542.28 2.22333 -6.56155 0
M  V30 5775 N 544.073 1.96803 -5.26522 0
M  V30 5776 H 536.224 -0.282291 -2.10516 0
M  V30 5777 H 538.487 -0.063752 -0.945854 0
M  V30 5778 H 538.193 0.357064 -3.49883 0
M  V30 5779 H 538.067 2.07251 -3.15162 0
M  V30 5780 H 540.454 2.00871 -2.16183 0
M  V30 5781 H 540.535 0.282593 -2.54234 0
M  V30 5782 H 540.179 0.832736 -5.01027 0
M  V30 5783 H 540.109 2.56477 -4.59921 0
M  V30 5784 H 542.6 1.47753 -3.47818 0
M  V30 5785 H 542.913 2.43611 -7.33399 0
M  V30 5786 H 541.258 2.19745 -6.59346 0
M  V30 5787 H 544.449 1.75235 -4.34062 0
M  V30 5788 H 544.622 2.18969 -6.09883 0
M  V30 5789 N 538.028 1.39524 0.732853 0
M  V30 5790 C 538.991 1.38189 1.82857 0
M  V30 5791 C 539.991 0.278624 1.58368 0
M  V30 5792 O 541.181 0.536639 1.65728 0
M  V30 5793 C 538.313 1.15661 3.2068 0
M  V30 5794 H 539.506 2.35692 1.85444 0
M  V30 5795 H 537.059 1.2512 0.936728 0
M  V30 5796 H 537.794 0.188482 3.23752 0
M  V30 5797 H 537.579 1.95559 3.39852 0
M  V30 5798 H 539.069 1.17472 4.00737 0
M  V30 5799 N 539.506 -0.963266 1.24736 0
M  V30 5800 C 540.754 -1.70343 1.08755 0
M  V30 5801 C 541.075 -1.91387 -0.373619 0
M  V30 5802 O 540.345 -1.4948 -1.2662 0
M  V30 5803 H 538.925 -0.631224 0.399456 0
M  V30 5804 H 541.587 -1.15859 1.56725 0
M  V30 5805 H 540.683 -2.68616 1.58909 0
M  V30 5806 N 540.985 -1.06182 -1.16461 0
M  V30 5807 C 542.232 -0.777863 -1.86964 0
M  V30 5808 C 542.56 0.695602 -1.81636 0
M  V30 5809 O 541.815 1.52532 -1.22607 0
M  V30 5810 C 542.114 -1.21633 -3.36066 0
M  V30 5811 C 541.78 -2.69371 -3.61594 0
M  V30 5812 C 540.442 -3.09727 -3.6827 0
M  V30 5813 C 542.794 -3.64791 -3.7226 0
M  V30 5814 C 540.122 -4.44345 -3.83112 0
M  V30 5815 C 542.474 -4.99155 -3.88623 0
M  V30 5816 C 541.138 -5.39149 -3.93541 0
M  V30 5817 H 540.408 -0.28464 -0.68415 0
M  V30 5818 H 543.055 -1.33071 -1.37711 0
M  V30 5819 H 541.36 -0.582651 -3.87443 0
M  V30 5820 H 543.057 -0.973682 -3.88999 0
M  V30 5821 H 539.647 -2.37124 -3.57029 0
M  V30 5822 H 543.831 -3.34746 -3.66413 0
M  V30 5823 H 539.087 -4.74819 -3.85172 0
M  V30 5824 H 543.261 -5.72976 -3.95817 0
M  V30 5825 H 540.888 -6.43464 -4.04794 0
M  V30 5826 N 542.463 1.3308 -0.844243 0
M  V30 5827 C 543.41 2.29104 -0.279323 0
M  V30 5828 C 544.38 1.54577 0.607882 0
M  V30 5829 O 545.565 1.8285 0.545009 0
M  V30 5830 C 542.705 3.40927 0.53508 0
M  V30 5831 C 541.818 4.30354 -0.376749 0
M  V30 5832 C 540.953 5.29297 0.449276 0
M  V30 5833 C 539.992 6.10365 -0.460606 0
M  V30 5834 N 539.129 7.01335 0.327612 0
M  V30 5835 H 543.969 2.76817 -1.10346 0
M  V30 5836 H 541.506 1.36203 -0.555611 0
M  V30 5837 H 543.464 4.04469 1.02278 0
M  V30 5838 H 542.094 2.94391 1.32414 0
M  V30 5839 H 541.146 3.67485 -0.982791 0
M  V30 5840 H 542.458 4.87067 -1.07549 0
M  V30 5841 H 541.612 5.98392 1.00058 0
M  V30 5842 H 540.351 4.73174 1.18143 0
M  V30 5843 H 539.356 5.40182 -1.02388 0
M  V30 5844 H 540.581 6.68571 -1.1912 0
M  V30 5845 H 538.527 6.47655 1.04305 0
M  V30 5846 H 538.444 7.55355 -0.3123 0
M  V30 5847 H 539.712 7.74731 0.86098 0
M  V30 5848 N 543.941 0.601185 1.45683 0
M  V30 5849 C 545.357 0.264315 1.57396 0
M  V30 5850 C 545.557 -1.23324 1.59353 0
M  V30 5851 O 544.613 -2.01594 1.52039 0
M  V30 5852 C 545.926 0.929839 2.85962 0
M  V30 5853 C 547.474 0.905156 2.99626 0
M  V30 5854 C 547.949 1.55057 4.30954 0
M  V30 5855 N 549.44 1.51576 4.37697 0
M  V30 5856 C 550.175 1.98436 5.37969 0
M  V30 5857 N 549.671 2.53352 6.44813 0
M  V30 5858 N 551.464 1.89242 5.29286 0
M  V30 5859 H 543.615 1.57363 1.42656 0
M  V30 5860 H 545.878 0.658831 0.681649 0
M  V30 5861 H 545.584 1.98404 2.90394 0
M  V30 5862 H 545.458 0.449224 3.74515 0
M  V30 5863 H 547.845 -0.14048 2.94765 0
M  V30 5864 H 547.926 1.42397 2.12501 0
M  V30 5865 H 547.57 2.5955 4.36573 0
M  V30 5866 H 547.5 1.00682 5.16886 0
M  V30 5867 H 549.991 1.11452 3.61091 0
M  V30 5868 H 550.304 2.86918 7.17564 0
M  V30 5869 H 548.649 2.57388 6.45582 0
M  V30 5870 H 551.84 1.46083 4.44722 0
M  V30 5871 H 552.013 2.26075 6.07284 0
M  V30 5872 N 545.419 -1.53889 0.339982 0
M  V30 5873 C 546.382 -2.23547 -0.50592 0
M  V30 5874 C 547.382 -1.23445 -1.03044 0
M  V30 5875 O 548.572 -1.47909 -0.920253 0
M  V30 5876 C 545.704 -2.95234 -1.7044 0
M  V30 5877 H 546.897 -2.99722 0.103247 0
M  V30 5878 H 544.45 -1.56033 0.0912804 0
M  V30 5879 H 545.185 -2.23236 -2.35236 0
M  V30 5880 H 544.97 -3.68654 -1.33553 0
M  V30 5881 H 546.46 -3.48258 -2.30447 0
M  V30 5882 N 546.897 -0.0685191 -1.57451 0
M  V30 5883 C 548.144 0.601348 -1.93365 0
M  V30 5884 C 548.472 1.69816 -0.948294 0
M  V30 5885 O 547.727 1.95666 0.0366199 0
M  V30 5886 C 548.026 1.22051 -3.35914 0
M  V30 5887 C 547.692 0.250165 -4.50205 0
M  V30 5888 C 546.354 -0.0167954 -4.81197 0
M  V30 5889 C 548.706 -0.413867 -5.19554 0
M  V30 5890 C 546.034 -0.95493 -5.78876 0
M  V30 5891 C 548.386 -1.3403 -6.18238 0
M  V30 5892 C 547.05 -1.61576 -6.47649 0
M  V30 5893 H 546.32 0.220049 -0.707573 0
M  V30 5894 H 548.967 -0.138697 -1.90997 0
M  V30 5895 H 547.272 2.03622 -3.34732 0
M  V30 5896 H 548.969 1.74605 -3.6099 0
M  V30 5897 H 545.559 0.468421 -4.26033 0
M  V30 5898 H 549.743 -0.220733 -4.95809 0
M  V30 5899 H 544.999 -1.17563 -5.99991 0
M  V30 5900 H 549.173 -1.86081 -6.71079 0
M  V30 5901 H 546.8 -2.34431 -7.2315 0
M  V30 5902 N 548.375 1.56261 0.205012 0
M  V30 5903 C 549.791 1.49623 0.555433 0
M  V30 5904 C 549.991 0.766719 1.86343 0
M  V30 5905 O 549.047 0.313158 2.50551 0
M  V30 5906 C 550.36 2.94253 0.619347 0
M  V30 5907 C 551.908 3.04868 0.708855 0
M  V30 5908 C 552.383 4.50888 0.803969 0
M  V30 5909 N 553.874 4.54999 0.867758 0
M  V30 5910 C 554.609 5.65284 0.96135 0
M  V30 5911 N 554.105 6.85282 1.01786 0
M  V30 5912 N 555.898 5.53174 0.997771 0
M  V30 5913 H 548.049 2.0211 -0.653094 0
M  V30 5914 H 550.312 0.919333 -0.231366 0
M  V30 5915 H 550.018 3.50643 -0.272458 0
M  V30 5916 H 549.892 3.47063 1.47741 0
M  V30 5917 H 552.279 2.48532 1.5911 0
M  V30 5918 H 552.36 2.55199 -0.175205 0
M  V30 5919 H 552.004 5.07846 -0.0738798 0
M  V30 5920 H 551.934 4.98279 1.70369 0
M  V30 5921 H 554.425 3.68588 0.833735 0
M  V30 5922 H 554.738 7.65081 1.08951 0
M  V30 5923 H 553.083 6.8796 0.986706 0
M  V30 5924 H 556.274 4.5835 0.950392 0
M  V30 5925 H 556.447 6.39151 1.06725 0
M  V30 5926 N 549.853 -0.472356 1.50355 0
M  V30 5927 C 551.099 -1.22348 1.62488 0
M  V30 5928 C 551.454 -1.89711 0.320574 0
M  V30 5929 O 550.747 -1.79074 -0.68141 0
M  V30 5930 C 550.941 -2.29257 2.74182 0
M  V30 5931 C 550.77 -1.72383 4.15348 0
M  V30 5932 C 549.54 -1.52411 4.81766 0
M  V30 5933 C 551.738 -1.21949 4.99633 0
M  V30 5934 N 549.72 -0.907669 6.07153 0
M  V30 5935 C 551.091 -0.726191 6.15732 0
M  V30 5936 C 553.146 -1.10792 4.85417 0
M  V30 5937 C 551.849 -0.132322 7.19178 0
M  V30 5938 C 553.875 -0.52799 5.89038 0
M  V30 5939 C 553.237 -0.0450604 7.04386 0
M  V30 5940 H 549.336 -0.436631 0.648751 0
M  V30 5941 H 551.92 -0.525698 1.87469 0
M  V30 5942 H 550.091 -2.96464 2.50926 0
M  V30 5943 H 551.823 -2.9628 2.75681 0
M  V30 5944 H 548.578 -1.776 4.39039 0
M  V30 5945 H 549.002 -0.617897 6.74174 0
M  V30 5946 H 553.644 -1.46722 3.96525 0
M  V30 5947 H 551.362 0.239187 8.07746 0
M  V30 5948 H 554.948 -0.444046 5.80103 0
M  V30 5949 H 553.828 0.396659 7.83196 0
M  V30 5950 N 551.331 -1.39911 -0.725443 0
M  V30 5951 C 552.571 -1.39096 -1.49772 0
M  V30 5952 C 552.935 0.0106452 -1.91997 0
M  V30 5953 O 554.136 0.143859 -2.68415 0
M  V30 5954 C 552.407 -2.34441 -2.69764 0
M  V30 5955 S 553.966 -2.51898 -3.59295 0
M  V30 5956 H 550.784 -0.49314 -0.512186 0
M  V30 5957 H 553.386 -1.76093 -0.849197 0
M  V30 5958 H 552.09 -3.35123 -2.36898 0
M  V30 5959 H 551.621 -1.98692 -3.39537 0
M  V30 5960 H 553.636 -1.76402 -4.63785 0
M  V30 5961 N 552.809 0.956637 -1.25245 0
M  V30 5962 C 554.22 1.51569 -1.09012 0
M  V30 5963 C 554.571 1.93322 0.334813 0
M  V30 5964 O 553.696 1.78421 1.22454 0
M  V30 5965 C 554.291 2.75444 -1.97271 0
M  V30 5966 C 552.85 3.27669 -1.8523 0
M  V30 5967 C 551.997 2.00517 -1.91542 0
M  V30 5968 H 554.948 0.773746 -1.3856 0
M  V30 5969 H 554.969 3.4919 -1.51151 0
M  V30 5970 H 554.481 2.45024 -3.00973 0
M  V30 5971 H 552.582 3.62914 -0.844045 0
M  V30 5972 H 552.695 3.9582 -2.69932 0
M  V30 5973 H 551.059 2.15727 -1.35404 0
M  V30 5974 H 551.842 1.72448 -2.96844 0
M  V30 5975 N 554.287 1.06798 1.15896 0
M  V30 5976 C 555.534 0.787767 1.86549 0
M  V30 5977 C 555.862 -0.685959 1.82002 0
M  V30 5978 O 555.117 -1.5188 1.23414 0
M  V30 5979 C 555.416 1.23414 3.35416 0
M  V30 5980 C 555.082 2.71285 3.6016 0
M  V30 5981 C 553.744 3.11676 3.66622 0
M  V30 5982 C 556.096 3.6676 3.7032 0
M  V30 5983 C 553.424 4.4637 3.8075 0
M  V30 5984 C 555.776 5.01209 3.8597 0
M  V30 5985 C 554.44 5.41229 3.90676 0
M  V30 5986 H 553.71 0.288264 0.682631 0
M  V30 5987 H 556.357 1.338 1.37003 0
M  V30 5988 H 554.662 0.60319 3.87129 0
M  V30 5989 H 556.359 0.994298 3.88477 0
M  V30 5990 H 552.949 2.39015 3.55767 0
M  V30 5991 H 557.133 3.36685 3.64633 0
M  V30 5992 H 552.389 4.76855 3.82648 0
M  V30 5993 H 556.563 5.75067 3.92773 0
M  V30 5994 H 554.19 6.45602 4.01375 0
M  V30 5995 N 555.766 -1.3263 0.851289 0
M  V30 5996 C 557.015 -1.96633 0.449267 0
M  V30 5997 C 557.328 -1.68131 -0.999562 0
M  V30 5998 O 558.534 -2.25845 -1.50685 0
M  V30 5999 C 556.99 -3.51946 0.752446 0
M  V30 6000 C 556.598 -3.89311 2.21678 0
M  V30 6001 C 558.342 -4.22437 0.417983 0
M  V30 6002 C 556.249 -5.37655 2.46336 0
M  V30 6003 H 555.179 -0.735888 0.164269 0
M  V30 6004 H 557.83 -1.51073 1.0416 0
M  V30 6005 H 556.212 -3.95899 0.0895858 0
M  V30 6006 H 557.386 -3.56378 2.92115 0
M  V30 6007 H 555.701 -3.31836 2.51543 0
M  V30 6008 H 558.298 -5.31549 0.579674 0
M  V30 6009 H 558.641 -4.11349 -0.640115 0
M  V30 6010 H 559.174 -3.84057 1.03659 0
M  V30 6011 H 555.913 -5.5376 3.50757 0
M  V30 6012 H 555.433 -5.72005 1.80473 0
M  V30 6013 H 557.112 -6.04695 2.30115 0
M  V30 6014 N 557.244 -0.608902 -1.45362 0
M  V30 6015 C 558.191 0.109172 -2.30542 0
M  V30 6016 C 559.161 0.858704 -1.42181 0
M  V30 6017 O 560.346 0.844178 -1.71109 0
M  V30 6018 C 557.486 1.09971 -3.27109 0
M  V30 6019 C 556.599 0.350911 -4.30572 0
M  V30 6020 C 555.734 1.33129 -5.14247 0
M  V30 6021 C 554.773 0.570377 -6.09437 0
M  V30 6022 N 553.91 1.5001 -6.85887 0
M  V30 6023 H 558.75 -0.623195 -2.91411 0
M  V30 6024 H 556.287 -0.319122 -1.43597 0
M  V30 6025 H 558.245 1.68714 -3.81564 0
M  V30 6026 H 556.875 1.79947 -2.67991 0
M  V30 6027 H 555.927 -0.352054 -3.78767 0
M  V30 6028 H 557.239 -0.242725 -4.98209 0
M  V30 6029 H 556.393 1.99074 -5.73109 0
M  V30 6030 H 555.132 1.95885 -4.46632 0
M  V30 6031 H 554.137 -0.102702 -5.49704 0
M  V30 6032 H 555.362 -0.0521607 -6.7908 0
M  V30 6033 H 553.308 2.11529 -6.2096 0
M  V30 6034 H 553.225 0.959934 -7.49881 0
M  V30 6035 H 554.493 2.14909 -7.49289 0
M  V30 6036 N 558.722 1.53707 -0.348139 0
M  V30 6037 C 559.968 2.01286 0.247332 0
M  V30 6038 C 560.301 1.23546 1.49834 0
M  V30 6039 O 559.576 0.324331 1.91777 0
M  V30 6040 C 559.859 3.55768 0.556858 0
M  V30 6041 C 559.712 4.44216 -0.706564 0
M  V30 6042 C 561.031 4.1841 1.3646 0
M  V30 6043 H 558.15 0.731677 0.0884201 0
M  V30 6044 H 560.792 1.84106 -0.469584 0
M  V30 6045 H 558.942 3.70539 1.16761 0
M  V30 6046 H 560.614 4.41274 -1.34444 0
M  V30 6047 H 558.857 4.12892 -1.33052 0
M  V30 6048 H 559.528 5.50202 -0.445186 0
M  V30 6049 H 562.004 4.07365 0.848113 0
M  V30 6050 H 560.88 5.26563 1.54992 0
M  V30 6051 H 561.141 3.7333 2.36805 0
M  V30 6052 N 560.2 0.0768682 1.57412 0
M  V30 6053 C 561.425 -0.603404 1.98428 0
M  V30 6054 C 561.85 -1.62047 0.955108 0
M  V30 6055 O 561.208 -1.81129 -0.0786778 0
M  V30 6056 C 561.256 -1.24396 3.38464 0
M  V30 6057 O 560.36 -2.35982 3.3821 0
M  V30 6058 H 559.701 -0.154741 0.645718 0
M  V30 6059 H 562.231 0.152885 2.04028 0
M  V30 6060 H 562.241 -1.5896 3.7576 0
M  V30 6061 H 560.916 -0.498735 4.12899 0
M  V30 6062 H 559.493 -2.03173 3.1269 0
M  V30 6063 N 561.678 -1.56367 -0.196722 0
M  V30 6064 C 562.903 -1.84991 -0.937714 0
M  V30 6065 C 563.328 -0.660244 -1.76132 0
M  V30 6066 O 562.686 0.390967 -1.77034 0
M  V30 6067 C 562.734 -3.11828 -1.81096 0
M  V30 6068 O 561.838 -2.92266 -2.90955 0
M  V30 6069 H 561.179 -0.609193 -0.264159 0
M  V30 6070 H 563.709 -2.03595 -0.202529 0
M  V30 6071 H 563.719 -3.42579 -2.21594 0
M  V30 6072 H 562.394 -3.98037 -1.2058 0
M  V30 6073 H 560.971 -2.72809 -2.54224 0
M  V30 6074 N 563.156 0.464375 -1.50603 0
M  V30 6075 C 564.386 1.23727 -1.65454 0
M  V30 6076 C 564.794 1.86119 -0.340032 0
M  V30 6077 O 564.137 1.70301 0.688706 0
M  V30 6078 C 564.199 2.38153 -2.69301 0
M  V30 6079 C 563.863 1.96345 -4.12671 0
M  V30 6080 C 564.86 1.48215 -4.98326 0
M  V30 6081 C 562.545 2.04861 -4.58625 0
M  V30 6082 C 564.539 1.09152 -6.27985 0
M  V30 6083 C 562.226 1.65409 -5.88288 0
M  V30 6084 C 563.224 1.17634 -6.72794 0
M  V30 6085 O 562.912 0.787312 -8.00035 0
M  V30 6086 H 562.644 0.380075 -0.559034 0
M  V30 6087 H 565.198 0.559919 -1.97621 0
M  V30 6088 H 563.428 3.09081 -2.32392 0
M  V30 6089 H 565.117 3.00099 -2.73304 0
M  V30 6090 H 565.883 1.41052 -4.64036 0
M  V30 6091 H 561.762 2.40996 -3.92991 0
M  V30 6092 H 565.306 0.717909 -6.93896 0
M  V30 6093 H 561.203 1.72233 -6.22098 0
M  V30 6094 H 561.971 0.915567 -8.13363 0
M  V30 6095 N 564.634 1.40294 0.718013 0
M  V30 6096 C 565.911 1.2894 1.47084 0
M  V30 6097 C 566.291 -0.0933625 2.10893 0
M  V30 6098 O 565.639 -1.10598 1.99951 0
M  V30 6099 C 565.849 2.4264 2.50852 0
M  V30 6100 C 567.197 2.8276 3.16752 0
M  V30 6101 O 568.221 2.42215 2.61171 0
M  V30 6102 O 567.08 3.528 4.17366 0
M  V30 6103 H 564.174 0.506236 0.653952 0
M  V30 6104 H 566.72 1.52208 0.750394 0
M  V30 6105 H 565.492 3.35009 2.022 0
M  V30 6106 H 565.115 2.21129 3.30435 0
M  V30 6107 N 566.112 -0.949982 1.2575 0
M  V30 6108 C 567.022 -2.08109 1.08295 0
M  V30 6109 C 568.038 -1.7399 0.0188181 0
M  V30 6110 O 569.214 -2.00187 0.220724 0
M  V30 6111 C 566.279 -3.39383 0.708534 0
M  V30 6112 C 565.34 -3.8734 1.85111 0
M  V30 6113 C 564.573 -5.12349 1.49447 0
M  V30 6114 O 564.796 -5.6905 0.392212 0
M  V30 6115 O 563.73 -5.5513 2.32624 0
M  V30 6116 H 567.556 -2.25738 2.03165 0
M  V30 6117 H 565.141 -1.06545 1.04731 0
M  V30 6118 H 567.023 -4.18277 0.512061 0
M  V30 6119 H 565.698 -3.23013 -0.210854 0
M  V30 6120 H 564.605 -3.09429 2.10248 0
M  V30 6121 H 565.938 -4.08216 2.74991 0
M  V30 6122 N 567.59 -1.07411 -1.15328 0
M  V30 6123 C 568.52 -0.716472 -2.22236 0
M  V30 6124 C 569.501 0.296373 -1.67498 0
M  V30 6125 O 570.686 0.168989 -1.93463 0
M  V30 6126 C 567.816 -0.114142 -3.47112 0
M  V30 6127 C 566.77 -1.05421 -4.14814 0
M  V30 6128 C 566.096 -0.314604 -5.33774 0
M  V30 6129 C 567.396 -2.38808 -4.64508 0
M  V30 6130 H 569.09 -1.61029 -2.52408 0
M  V30 6131 H 566.636 -0.775702 -1.21321 0
M  V30 6132 H 568.589 0.148001 -4.2114 0
M  V30 6133 H 567.313 0.814755 -3.16274 0
M  V30 6134 H 565.972 -1.30128 -3.42728 0
M  V30 6135 H 565.62 0.617772 -4.99192 0
M  V30 6136 H 565.32 -0.941209 -5.80013 0
M  V30 6137 H 566.844 -0.0602747 -6.1057 0
M  V30 6138 H 568.258 -2.18424 -5.3006 0
M  V30 6139 H 566.655 -2.97069 -5.21412 0
M  V30 6140 H 567.725 -3.01067 -3.80114 0
M  V30 6141 N 569.068 1.32177 -0.85831 0
M  V30 6142 C 569.978 2.32561 -0.308606 0
M  V30 6143 C 570.994 1.64209 0.575462 0
M  V30 6144 O 572.17 1.95719 0.474961 0
M  V30 6145 C 569.235 3.43207 0.490909 0
M  V30 6146 C 568.296 4.27243 -0.419733 0
M  V30 6147 C 567.529 5.32605 0.341719 0
M  V30 6148 O 567.752 5.48332 1.57125 0
M  V30 6149 O 566.686 6.0118 -0.294379 0
M  V30 6150 H 570.512 2.81477 -1.14037 0
M  V30 6151 H 568.097 1.35866 -0.621349 0
M  V30 6152 H 569.979 4.10677 0.944574 0
M  V30 6153 H 568.654 2.96474 1.29941 0
M  V30 6154 H 567.561 3.62569 -0.921652 0
M  V30 6155 H 568.894 4.7751 -1.19352 0
M  V30 6156 N 570.547 0.616602 1.45037 0
M  V30 6157 C 571.477 -0.0840787 2.33349 0
M  V30 6158 C 572.458 -0.849641 1.4736 0
M  V30 6159 O 573.643 -0.818407 1.76113 0
M  V30 6160 C 570.773 -1.07604 3.3021 0
M  V30 6161 C 569.727 -0.423096 4.25904 0
M  V30 6162 C 569.053 -1.52394 5.12523 0
M  V30 6163 C 570.353 0.661457 5.18095 0
M  V30 6164 H 572.047 0.653333 2.92185 0
M  V30 6165 H 569.593 0.315634 1.40498 0
M  V30 6166 H 571.546 -1.57485 3.90866 0
M  V30 6167 H 570.27 -1.84416 2.69552 0
M  V30 6168 H 568.929 0.05493 3.66559 0
M  V30 6169 H 568.577 -2.28257 4.48227 0
M  V30 6170 H 568.277 -1.09251 5.77354 0
M  V30 6171 H 569.801 -2.02485 5.76049 0
M  V30 6172 H 571.215 0.246353 5.7277 0
M  V30 6173 H 569.612 1.01517 5.91451 0
M  V30 6174 H 570.682 1.53446 4.59981 0
M  V30 6175 N 572.025 -1.5352 0.356285 0
M  V30 6176 C 572.972 -2.25439 -0.494569 0
M  V30 6177 C 573.942 -1.25752 -1.08516 0
M  V30 6178 O 575.127 -1.54513 -1.1194 0
M  V30 6179 C 572.267 -3.04011 -1.63313 0
M  V30 6180 C 571.38 -4.18574 -1.06862 0
M  V30 6181 C 570.515 -4.84607 -2.17552 0
M  V30 6182 C 569.554 -5.91218 -1.58518 0
M  V30 6183 N 568.691 -6.50979 -2.63003 0
M  V30 6184 H 573.531 -2.97737 0.125244 0
M  V30 6185 H 571.068 -1.46916 0.0735789 0
M  V30 6186 H 573.026 -3.47834 -2.30363 0
M  V30 6187 H 571.656 -2.33986 -2.22374 0
M  V30 6188 H 570.708 -3.79303 -0.288672 0
M  V30 6189 H 572.02 -4.95215 -0.596924 0
M  V30 6190 H 571.174 -5.31566 -2.92442 0
M  V30 6191 H 569.913 -4.07418 -2.6807 0
M  V30 6192 H 568.918 -5.4363 -0.821391 0
M  V30 6193 H 570.143 -6.70322 -1.08836 0
M  V30 6194 H 568.089 -5.76648 -3.12751 0
M  V30 6195 H 568.006 -7.23131 -2.20493 0
M  V30 6196 H 569.274 -7.02589 -3.37623 0
M  V30 6197 N 573.503 -0.0852151 -1.57369 0
M  V30 6198 C 574.731 0.58946 -1.98325 0
M  V30 6199 C 575.146 1.62333 -0.96403 0
M  V30 6200 O 574.503 1.82438 0.0476395 0
M  V30 6201 C 574.554 1.24604 -3.39347 0
M  V30 6202 O 574.275 0.253532 -4.37366 0
M  V30 6203 C 575.776 2.00726 -3.95252 0
M  V30 6204 H 572.996 0.158783 -0.651942 0
M  V30 6205 H 575.54 -0.161584 -2.03861 0
M  V30 6206 H 573.695 1.94808 -3.34856 0
M  V30 6207 H 574.109 0.726207 -5.19448 0
M  V30 6208 H 575.583 2.42039 -4.96106 0
M  V30 6209 H 576.06 2.86919 -3.32527 0
M  V30 6210 H 576.666 1.3536 -4.03185 0
M  V30 6211 N 574.981 1.5647 0.188427 0
M  V30 6212 C 576.209 1.85131 0.923803 0
M  V30 6213 C 576.624 0.668537 1.76567 0
M  V30 6214 O 575.981 -0.362662 1.7886 0
M  V30 6215 C 576.032 3.12661 1.81453 0
M  V30 6216 O 575.753 4.26378 1.00665 0
M  V30 6217 C 577.254 3.54548 2.66103 0
M  V30 6218 H 574.474 0.614624 0.269218 0
M  V30 6219 H 577.018 2.03581 0.193671 0
M  V30 6220 H 575.173 2.96088 2.49821 0
M  V30 6221 H 575.587 4.99041 1.61425 0
M  V30 6222 H 577.061 4.4673 3.24247 0
M  V30 6223 H 577.538 2.77853 3.40139 0
M  V30 6224 H 578.144 3.73674 2.03096 0
M  V30 6225 N 576.459 -0.456382 1.50847 0
M  V30 6226 C 577.875 -0.791345 1.386 0
M  V30 6227 C 578.075 -1.9633 0.453498 0
M  V30 6228 O 577.131 -2.52308 -0.0984353 0
M  V30 6229 C 578.444 -1.08959 2.80265 0
M  V30 6230 C 579.992 -1.19517 2.89283 0
M  V30 6231 C 580.467 -1.52647 4.31814 0
M  V30 6232 N 581.958 -1.59609 4.34832 0
M  V30 6233 C 582.693 -1.86777 5.42127 0
M  V30 6234 N 582.189 -2.11866 6.59609 0
M  V30 6235 N 583.982 -1.88402 5.29586 0
M  V30 6236 H 576.133 0.315746 2.1004 0
M  V30 6237 H 578.396 0.0787916 0.94472 0
M  V30 6238 H 578.102 -0.301355 3.50407 0
M  V30 6239 H 577.976 -2.02211 3.18419 0
M  V30 6240 H 580.363 -1.97406 2.19351 0
M  V30 6241 H 580.444 -0.242111 2.54652 0
M  V30 6242 H 580.088 -0.752922 5.02288 0
M  V30 6243 H 580.018 -2.49127 4.63943 0
M  V30 6244 H 582.509 -1.42201 3.50125 0
M  V30 6245 H 582.822 -2.31912 7.37182 0
M  V30 6246 H 581.167 -2.09228 6.62758 0
M  V30 6247 H 584.358 -1.68307 4.36795 0
M  V30 6248 H 584.531 -2.09238 6.13289 0
M  V30 6249 N 577.937 -1.40673 -0.710563 0
M  V30 6250 C 579.184 -1.39222 -1.47049 0
M  V30 6251 C 579.512 0.0037691 -1.945 0
M  V30 6252 O 578.767 0.989224 -1.68857 0
M  V30 6253 C 579.066 -2.33253 -2.70791 0
M  V30 6254 C 578.732 -3.80406 -2.42079 0
M  V30 6255 C 577.394 -4.20496 -2.33959 0
M  V30 6256 C 579.746 -4.73375 -2.18094 0
M  V30 6257 C 577.074 -5.51584 -1.99929 0
M  V30 6258 C 579.426 -6.04768 -1.85576 0
M  V30 6259 C 578.09 -6.43895 -1.75941 0
M  V30 6260 H 577.36 -0.509449 -0.538092 0
M  V30 6261 H 580.007 -1.73363 -0.81348 0
M  V30 6262 H 578.312 -1.92314 -3.41354 0
M  V30 6263 H 580.009 -2.29412 -3.28894 0
M  V30 6264 H 576.599 -3.48645 -2.49288 0
M  V30 6265 H 580.783 -4.43217 -2.23321 0
M  V30 6266 H 576.039 -5.80797 -1.91011 0
M  V30 6267 H 580.213 -6.76318 -1.66033 0
M  V30 6268 H 577.84 -7.45387 -1.4934 0
M  V30 6269 N 579.415 0.9433 -1.26252 0
M  V30 6270 C 580.365 2.02746 -1.04297 0
M  V30 6271 C 581.349 1.60882 0.0239435 0
M  V30 6272 O 582.541 1.75947 -0.192757 0
M  V30 6273 C 579.67 3.36585 -0.6757 0
M  V30 6274 C 578.756 3.84939 -1.77996 0
M  V30 6275 N 579.147 4.05966 -3.01704 0
M  V30 6276 C 577.445 4.13833 -1.66308 0
M  V30 6277 C 578.146 4.45987 -3.73458 0
M  V30 6278 N 577.122 4.52569 -3.01135 0
M  V30 6279 H 580.924 2.17012 -1.98199 0
M  V30 6280 H 578.438 1.12898 -1.16738 0
M  V30 6281 H 580.435 4.13896 -0.499571 0
M  V30 6282 H 579.095 3.2369 0.255863 0
M  V30 6283 H 580.106 3.92716 -3.37631 0
M  V30 6284 H 576.783 4.09739 -0.801267 0
M  V30 6285 H 578.173 4.70465 -4.79701 0
M  V30 6286 N 580.893 1.08022 1.14757 0
M  V30 6287 C 582.304 0.829144 1.67279 0
M  V30 6288 C 582.655 -0.644721 1.85305 0
M  V30 6289 O 581.78 -1.49838 1.56133 0
M  V30 6290 C 582.375 1.49855 3.03857 0
M  V30 6291 C 580.934 1.29482 3.53428 0
M  V30 6292 C 580.081 1.56386 2.28995 0
M  V30 6293 H 583.032 1.24134 0.988762 0
M  V30 6294 H 583.053 0.923572 3.69121 0
M  V30 6295 H 582.565 2.57123 2.90705 0
M  V30 6296 H 580.666 0.242669 3.71809 0
M  V30 6297 H 580.779 2.01974 4.34446 0
M  V30 6298 H 579.143 0.985217 2.34874 0
M  V30 6299 H 579.926 2.64851 2.18423 0
M  V30 6300 N 582.371 -1.3172 0.865308 0
M  V30 6301 C 583.319 -2.30569 0.306674 0
M  V30 6302 C 584.313 -1.59317 -0.575724 0
M  V30 6303 O 585.519 -1.73961 -0.462343 0
M  V30 6304 H 581.894 -0.747681 0.0804834 0
M  V30 6305 H 583.865 -2.75165 1.15441 0
M  V30 6306 C 582.614 -3.44358 -0.480952 0
M  V30 6307 H 581.937 -3.99354 0.18876 0
M  V30 6308 H 583.377 -4.15652 -0.837241 0
M  V30 6309 C 581.836 -2.92574 -1.67039 0
M  V30 6310 O 582.366 -2.90954 -2.76964 0
M  V30 6311 N 580.572 -2.48835 -1.50097 0
M  V30 6312 H 580.119 -2.50353 -0.606738 0
M  V30 6313 H 580.077 -2.14543 -2.29823 0
M  V30 6314 N 583.85 -0.624285 -1.44708 0
M  V30 6315 C 585.266 -0.289322 -1.56956 0
M  V30 6316 C 585.466 1.20773 -1.61295 0
M  V30 6317 O 584.522 1.9915 -1.55227 0
M  V30 6318 C 585.835 -0.975215 -2.84447 0
M  V30 6319 C 587.383 -0.952709 -2.98148 0
M  V30 6320 C 587.858 -1.61893 -4.28433 0
M  V30 6321 N 589.349 -1.5852 -4.35231 0
M  V30 6322 C 590.084 -2.06969 -5.34744 0
M  V30 6323 N 589.58 -2.63579 -6.40701 0
M  V30 6324 N 591.373 -1.97638 -5.26209 0
M  V30 6325 H 583.524 -1.59612 -1.40135 0
M  V30 6326 H 585.787 -0.669592 -0.671081 0
M  V30 6327 H 585.493 -2.02999 -2.87201 0
M  V30 6328 H 585.367 -0.508749 -3.73753 0
M  V30 6329 H 587.754 0.093568 -2.94952 0
M  V30 6330 H 587.835 -1.4576 -2.10209 0
M  V30 6331 H 587.479 -2.66463 -4.32389 0
M  V30 6332 H 587.409 -1.08893 -5.15218 0
M  V30 6333 H 589.899 -1.17183 -3.59272 0
M  V30 6334 H 590.213 -2.98298 -7.12908 0
M  V30 6335 H 588.558 -2.67626 -6.41406 0
M  V30 6336 H 591.749 -1.5314 -4.42341 0
M  V30 6337 H 591.922 -2.35708 -6.03611 0
M  V30 6338 N 585.328 1.53329 -0.364422 0
M  V30 6339 C 586.26 2.23286 0.517293 0
M  V30 6340 C 587.273 1.24657 1.04711 0
M  V30 6341 O 588.462 1.50887 0.95369 0
M  V30 6342 C 585.562 2.91604 1.72685 0
M  V30 6343 C 584.735 4.1673 1.32873 0
M  V30 6344 C 583.794 4.68269 2.40022 0
M  V30 6345 O 582.82 5.31976 2.02461 0
M  V30 6346 N 584.022 4.45983 3.7159 0
M  V30 6347 H 586.787 2.99588 -0.0819391 0
M  V30 6348 H 584.348 1.60787 -0.189544 0
M  V30 6349 H 586.34 3.22992 2.4384 0
M  V30 6350 H 584.91 2.18763 2.23297 0
M  V30 6351 H 584.13 3.91657 0.447069 0
M  V30 6352 H 585.418 4.98078 1.03902 0
M  V30 6353 H 584.816 3.95077 4.04883 0
M  V30 6354 H 583.373 4.81924 4.38854 0
M  V30 6355 N 586.806 0.0935595 1.57322 0
M  V30 6356 C 588.031 -0.582324 1.99057 0
M  V30 6357 C 588.456 -1.61025 0.972242 0
M  V30 6358 O 587.814 -1.81202 -0.0594622 0
M  V30 6359 C 587.862 -1.20799 3.39765 0
M  V30 6360 O 586.966 -2.32382 3.40694 0
M  V30 6361 H 586.307 -0.147884 0.647323 0
M  V30 6362 H 588.837 0.174516 2.03854 0
M  V30 6363 H 588.847 -1.54966 3.77425 0
M  V30 6364 H 587.522 -0.454914 4.13405 0
M  V30 6365 H 586.099 -1.99845 3.14827 0
M  V30 6366 N 588.284 -1.56567 -0.180126 0
M  V30 6367 C 589.509 -1.85975 -0.918041 0
M  V30 6368 C 589.934 -0.678888 -1.75422 0
M  V30 6369 O 589.292 0.372168 -1.77439 0
M  V30 6370 C 589.34 -3.13731 -1.77779 0
M  V30 6371 O 588.444 -2.95335 -2.87838 0
M  V30 6372 H 587.785 -0.61196 -0.257683 0
M  V30 6373 H 590.315 -2.03798 -0.180923 0
M  V30 6374 H 590.325 -3.4491 -2.17948 0
M  V30 6375 H 589 -3.99293 -1.16352 0
M  V30 6376 H 587.577 -2.7549 -2.51316 0
M  V30 6377 N 589.762 0.448376 -1.51087 0
M  V30 6378 C 590.695 1.56298 -1.66272 0
M  V30 6379 C 591.673 1.54381 -0.510419 0
M  V30 6380 O 592.857 1.73671 -0.732854 0
M  V30 6381 C 589.984 2.94883 -1.66618 0
M  V30 6382 C 589.03 3.14868 -2.87681 0
M  V30 6383 S 589.863 2.9234 -4.48662 0
M  V30 6384 C 591.019 4.33227 -4.51735 0
M  V30 6385 H 591.252 1.43182 -2.6055 0
M  V30 6386 H 588.785 0.637309 -1.40633 0
M  V30 6387 H 590.743 3.74771 -1.67502 0
M  V30 6388 H 589.404 3.05371 -0.735358 0
M  V30 6389 H 588.597 4.16166 -2.84292 0
M  V30 6390 H 588.199 2.42788 -2.84482 0
M  V30 6391 H 590.491 5.26247 -4.26697 0
M  V30 6392 H 591.434 4.41653 -5.53487 0
M  V30 6393 H 591.842 4.16367 -3.81181 0
M  V30 6394 N 591.24 1.41047 0.703093 0
M  V30 6395 C 592.47 1.43133 1.48985 0
M  V30 6396 C 592.878 0.0328537 1.89171 0
M  V30 6397 O 592.221 -0.956469 1.56835 0
M  V30 6398 C 592.283 2.26991 2.78775 0
M  V30 6399 C 591.947 3.7525 2.60837 0
M  V30 6400 C 592.944 4.67591 2.27276 0
M  V30 6401 C 590.629 4.19208 2.76712 0
M  V30 6402 C 592.623 6.01877 2.09817 0
M  V30 6403 C 590.31 5.53561 2.5887 0
M  V30 6404 C 591.308 6.4471 2.25472 0
M  V30 6405 O 590.996 7.76584 2.07778 0
M  V30 6406 H 590.728 0.489788 0.465922 0
M  V30 6407 H 593.282 1.85886 0.873822 0
M  V30 6408 H 591.512 1.79038 3.42757 0
M  V30 6409 H 593.201 2.20867 3.40547 0
M  V30 6410 H 593.967 4.34923 2.14633 0
M  V30 6411 H 589.846 3.48572 3.01693 0
M  V30 6412 H 593.39 6.72986 1.83671 0
M  V30 6413 H 589.287 5.85811 2.71102 0
M  V30 6414 H 590.055 7.87649 2.22601 0
M  V30 6415 N 592.718 -0.936591 1.26751 0
M  V30 6416 C 593.946 -1.71758 1.15355 0
M  V30 6417 C 594.361 -1.86549 -0.290683 0
M  V30 6418 O 593.718 -1.37616 -1.19868 0
M  V30 6419 C 593.769 -3.12193 1.82258 0
M  V30 6420 O 593.49 -2.98105 3.21038 0
M  V30 6421 C 594.991 -4.06485 1.76875 0
M  V30 6422 H 592.211 -0.537636 0.401483 0
M  V30 6423 H 594.755 -1.17382 1.67457 0
M  V30 6424 H 592.91 -3.63456 1.34083 0
M  V30 6425 H 593.324 -3.86824 3.54214 0
M  V30 6426 H 594.798 -5.02569 2.28316 0
M  V30 6427 H 595.275 -4.32986 0.736216 0
M  V30 6428 H 595.881 -3.61144 2.24623 0
M  V30 6429 N 594.196 -1.08629 -1.14182 0
M  V30 6430 C 595.442 -0.818556 -1.85546 0
M  V30 6431 C 595.775 0.654076 -1.82854 0
M  V30 6432 O 595.05 1.48099 -1.26083 0
M  V30 6433 C 595.333 -1.34397 -3.3408 0
M  V30 6434 C 595.186 -2.8821 -3.45333 0
M  V30 6435 C 596.505 -0.971069 -4.29253 0
M  V30 6436 H 593.624 -0.298821 -0.673702 0
M  V30 6437 H 596.266 -1.34629 -1.34071 0
M  V30 6438 H 594.416 -0.895064 -3.78049 0
M  V30 6439 H 596.088 -3.41488 -3.10134 0
M  V30 6440 H 594.331 -3.25756 -2.86471 0
M  V30 6441 H 595.002 -3.20047 -4.49749 0
M  V30 6442 H 597.478 -1.35809 -3.93313 0
M  V30 6443 H 596.354 -1.36586 -5.31635 0
M  V30 6444 H 596.615 0.121659 -4.41933 0
M  V30 6445 N 595.674 1.31259 -0.872281 0
M  V30 6446 C 596.902 2.00795 -0.498907 0
M  V30 6447 C 597.317 1.65464 0.909238 0
M  V30 6448 O 596.674 0.885073 1.59602 0
M  V30 6449 C 596.725 3.55625 -0.649092 0
M  V30 6450 O 596.446 3.89692 -2.00179 0
M  V30 6451 C 597.947 4.42434 -0.277034 0
M  V30 6452 H 595.167 0.642299 -0.194145 0
M  V30 6453 H 597.711 1.67438 -1.17408 0
M  V30 6454 H 595.866 3.87394 -0.0214402 0
M  V30 6455 H 596.28 4.84407 -2.01122 0
M  V30 6456 H 597.754 5.50299 -0.433064 0
M  V30 6457 H 598.231 4.32146 0.783989 0
M  V30 6458 H 598.837 4.16086 -0.880483 0
M  V30 6459 N 597.152 0.631951 1.44375 0
M  V30 6460 C 598.568 0.297642 1.568 0
M  V30 6461 C 598.768 -1.19916 1.61934 0
M  V30 6462 O 597.824 -1.98324 1.56281 0
M  V30 6463 C 599.137 0.990286 2.83926 0
M  V30 6464 C 600.685 0.968507 2.97639 0
M  V30 6465 C 601.16 1.64163 4.27568 0
M  V30 6466 N 602.651 1.60826 4.34384 0
M  V30 6467 C 603.386 2.09802 5.33639 0
M  V30 6468 N 602.882 2.66973 6.39294 0
M  V30 6469 N 604.675 2.00426 5.25153 0
M  V30 6470 H 596.826 1.60353 1.39286 0
M  V30 6471 H 599.089 0.673142 0.667521 0
M  V30 6472 H 598.795 2.04519 2.8612 0
M  V30 6473 H 598.669 0.528563 3.73478 0
M  V30 6474 H 601.056 -0.0779247 2.94997 0
M  V30 6475 H 601.137 1.46873 2.09433 0
M  V30 6476 H 600.781 2.68752 4.3097 0
M  V30 6477 H 600.711 1.11624 5.14634 0
M  V30 6478 H 603.202 1.19087 3.58646 0
M  V30 6479 H 603.515 3.02074 7.11316 0
M  V30 6480 H 601.86 2.71024 6.39977 0
M  V30 6481 H 605.051 1.55483 4.41523 0
M  V30 6482 H 605.224 2.38906 6.02352 0
M  V30 6483 N 598.631 -1.53133 0.372548 0
M  V30 6484 C 599.564 -2.22328 -0.514361 0
M  V30 6485 C 600.542 -1.21776 -1.07747 0
M  V30 6486 O 601.726 -1.50704 -1.13228 0
M  V30 6487 C 598.853 -2.92343 -1.71035 0
M  V30 6488 C 597.899 -4.07026 -1.27405 0
M  V30 6489 S 598.732 -5.34821 -0.269526 0
M  V30 6490 C 599.888 -6.08352 -1.47168 0
M  V30 6491 H 600.121 -2.9721 0.0732683 0
M  V30 6492 H 597.654 -1.53603 0.156673 0
M  V30 6493 H 599.612 -3.33296 -2.39634 0
M  V30 6494 H 598.273 -2.17173 -2.26925 0
M  V30 6495 H 597.466 -4.55056 -2.16656 0
M  V30 6496 H 597.068 -3.68001 -0.66719 0
M  V30 6497 H 599.36 -6.33507 -2.40157 0
M  V30 6498 H 600.303 -7.0053 -1.03263 0
M  V30 6499 H 600.711 -5.38893 -1.6809 0
M  V30 6500 N 600.109 -0.101901 -1.5727 0
M  V30 6501 C 601.019 0.868647 -2.17926 0
M  V30 6502 C 602.035 1.30527 -1.1506 0
M  V30 6503 O 603.211 1.37178 -1.47459 0
M  V30 6504 C 600.276 2.10727 -2.75309 0
M  V30 6505 C 599.337 1.7242 -3.93154 0
M  V30 6506 C 598.57 2.90377 -4.47791 0
M  V30 6507 O 598.793 4.05305 -4.01353 0
M  V30 6508 O 597.727 2.6845 -5.38719 0
M  V30 6509 H 601.553 0.382544 -3.01281 0
M  V30 6510 H 599.138 0.122812 -1.48894 0
M  V30 6511 H 601.02 2.83303 -3.11958 0
M  V30 6512 H 599.695 2.58376 -1.94996 0
M  V30 6513 H 598.602 0.970039 -3.61305 0
M  V30 6514 H 599.935 1.29528 -4.74851 0
M  V30 6515 N 601.587 1.56661 0.17182 0
M  V30 6516 C 602.812 1.86459 0.908165 0
M  V30 6517 C 603.237 0.688181 1.75059 0
M  V30 6518 O 602.595 -0.362753 1.77634 0
M  V30 6519 C 602.643 3.14669 1.76112 0
M  V30 6520 O 601.747 2.96858 2.86268 0
M  V30 6521 H 601.088 0.613318 0.254434 0
M  V30 6522 H 603.618 2.03892 0.170113 0
M  V30 6523 H 603.628 3.46061 2.16115 0
M  V30 6524 H 602.303 3.99905 1.14233 0
M  V30 6525 H 600.88 2.76819 2.49852 0
M  V30 6526 N 603.065 -0.440357 1.51323 0
M  V30 6527 C 603.998 -1.55414 1.67098 0
M  V30 6528 C 604.976 -1.54108 0.518599 0
M  V30 6529 O 606.16 -1.7328 0.742054 0
M  V30 6530 C 603.287 -2.93996 1.68179 0
M  V30 6531 C 602.333 -3.13338 2.89347 0
M  V30 6532 S 603.166 -2.89957 4.50206 0
M  V30 6533 C 604.322 -4.30826 4.54027 0
M  V30 6534 H 604.555 -1.41798 2.61306 0
M  V30 6535 H 602.088 -0.629841 1.40969 0
M  V30 6536 H 604.046 -3.73878 1.69487 0
M  V30 6537 H 602.707 -3.04976 0.751542 0
M  V30 6538 H 601.9 -4.14652 2.86495 0
M  V30 6539 H 601.502 -2.41276 2.85766 0
M  V30 6540 H 603.794 -5.23977 4.29481 0
M  V30 6541 H 604.737 -4.38712 5.55822 0
M  V30 6542 H 605.145 -4.1434 3.83384 0
M  V30 6543 N 604.543 -1.41418 -0.695603 0
M  V30 6544 C 605.771 -1.4413 -1.48439 0
M  V30 6545 C 606.186 -0.0465698 -1.88743 0
M  V30 6546 O 605.543 0.934117 -1.56782 0
M  V30 6547 C 605.594 -2.34998 -2.74696 0
M  V30 6548 O 605.315 -3.69043 -2.36091 0
M  V30 6549 C 606.816 -2.46513 -3.68438 0
M  V30 6550 H 604.036 -0.490905 -0.457442 0
M  V30 6551 H 606.58 -1.85702 -0.856454 0
M  V30 6552 H 604.735 -1.96735 -3.33728 0
M  V30 6553 H 605.149 -4.17505 -3.17474 0
M  V30 6554 H 606.623 -3.1426 -4.53811 0
M  V30 6555 H 607.1 -1.49638 -4.12922 0
M  V30 6556 H 607.706 -2.85412 -3.1531 0
M  V30 6557 N 606.021 0.929856 -1.27246 0
M  V30 6558 C 607.267 1.6798 -1.13625 0
M  V30 6559 C 607.6 1.91586 0.317589 0
M  V30 6560 O 606.875 1.50467 1.23247 0
M  V30 6561 C 607.158 3.04766 -1.91806 0
M  V30 6562 C 607.011 2.88415 -3.45162 0
M  V30 6563 C 608.33 4.05063 -1.72082 0
M  V30 6564 H 605.449 0.609632 -0.414147 0
M  V30 6565 H 608.091 1.0792 -1.56376 0
M  V30 6566 H 606.241 3.56034 -1.55474 0
M  V30 6567 H 607.913 2.44282 -3.91311 0
M  V30 6568 H 606.156 2.23802 -3.71611 0
M  V30 6569 H 606.827 3.85482 -3.95105 0
M  V30 6570 H 609.303 3.62798 -2.03757 0
M  V30 6571 H 608.179 4.98765 -2.29182 0
M  V30 6572 H 608.44 4.37021 -0.668206 0
M  V30 6573 N 607.499 1.09233 1.13605 0
M  V30 6574 C 608.745 0.828385 1.8511 0
M  V30 6575 C 609.078 -0.64437 1.83198 0
M  V30 6576 O 608.353 -1.47428 1.26867 0
M  V30 6577 C 608.636 1.36167 3.33363 0
M  V30 6578 C 608.489 2.90038 3.438 0
M  V30 6579 C 609.808 0.993819 4.28732 0
M  V30 6580 H 606.927 0.30239 0.672108 0
M  V30 6581 H 609.569 1.35339 1.33355 0
M  V30 6582 H 607.719 0.9151 3.77569 0
M  V30 6583 H 609.391 3.43128 3.08319 0
M  V30 6584 H 607.634 3.27271 2.84739 0
M  V30 6585 H 608.305 3.22428 4.48045 0
M  V30 6586 H 610.781 1.37893 3.92587 0
M  V30 6587 H 609.657 1.39403 5.30903 0
M  V30 6588 H 609.918 -0.0982206 4.41991 0
M  V30 6589 N 608.977 -1.30795 0.87923 0
M  V30 6590 C 610.224 -1.96362 0.494786 0
M  V30 6591 C 610.552 -1.69448 -0.954868 0
M  V30 6592 O 609.807 -0.988711 -1.68888 0
M  V30 6593 C 610.106 -3.50287 0.709476 0
M  V30 6594 C 609.772 -3.9724 2.13333 0
M  V30 6595 C 608.434 -4.09772 2.52271 0
M  V30 6596 C 610.786 -4.21807 3.06151 0
M  V30 6597 C 608.114 -4.44227 3.83248 0
M  V30 6598 C 610.466 -4.5773 4.36654 0
M  V30 6599 C 609.13 -4.68469 4.75492 0
M  V30 6600 H 608.4 -0.71854 0.181055 0
M  V30 6601 H 611.047 -1.55764 1.11399 0
M  V30 6602 H 609.352 -3.91799 0.0072 0
M  V30 6603 H 611.049 -3.99082 0.391703 0
M  V30 6604 H 607.639 -3.87988 1.82107 0
M  V30 6605 H 611.823 -4.11611 2.77291 0
M  V30 6606 H 607.079 -4.50741 4.13089 0
M  V30 6607 H 611.253 -4.7569 5.08617 0
M  V30 6608 H 608.88 -4.94923 5.77022 0
M  V30 6609 N 610.455 -0.639598 -1.44038 0
M  V30 6610 C 611.732 -0.078012 -1.95444 0
M  V30 6611 C 612.112 1.39847 -1.58133 0
M  V30 6612 O 611.46 2.11714 -0.859614 0
M  V30 6613 C 611.67 -0.309832 -3.47622 0
M  V30 6614 C 613.018 -0.207521 -4.24093 0
M  V30 6615 O 614.042 -0.241653 -3.55379 0
M  V30 6616 O 612.901 -0.119641 -5.46369 0
M  V30 6617 H 609.995 0.0174534 -0.826816 0
M  V30 6618 H 612.541 -0.711891 -1.54046 0
M  V30 6619 H 611.313 -1.33401 -3.67858 0
M  V30 6620 H 610.936 0.357777 -3.95987 0
M  V30 6621 N 611.933 1.52934 -0.380664 0
M  V30 6622 C 613.344 1.86457 0.0952684 0
M  V30 6623 C 613.695 1.3007 1.46889 0
M  V30 6624 O 612.82 0.628636 2.07068 0
M  V30 6625 C 613.415 3.38323 0.179648 0
M  V30 6626 C 611.974 3.71589 0.599858 0
M  V30 6627 C 611.121 2.76228 -0.243572 0
M  V30 6628 H 614.072 1.46966 -0.59888 0
M  V30 6629 H 614.093 3.67113 1.00042 0
M  V30 6630 H 613.605 3.79333 -0.820228 0
M  V30 6631 H 611.706 3.36144 1.60742 0
M  V30 6632 H 611.819 4.77715 0.364003 0
M  V30 6633 H 610.183 2.53045 0.289855 0
M  V30 6634 H 610.966 3.20074 -1.24127 0
M  V30 6635 N 613.412 0.11024 1.57214 0
M  V30 6636 C 614.36 -0.860586 2.16094 0
M  V30 6637 C 615.354 -1.28156 1.1078 0
M  V30 6638 O 616.56 -1.25433 1.29099 0
M  V30 6639 H 612.935 -0.295606 0.691463 0
M  V30 6640 H 614.906 -0.33942 2.96463 0
M  V30 6641 C 613.655 -2.10421 2.768 0
M  V30 6642 H 612.978 -1.7892 3.5753 0
M  V30 6643 H 614.418 -2.76375 3.21547 0
M  V30 6644 C 612.877 -2.88823 1.73444 0
M  V30 6645 O 613.407 -3.839 1.18251 0
M  V30 6646 N 611.613 -2.52649 1.43586 0
M  V30 6647 H 611.16 -1.754 1.8866 0
M  V30 6648 H 611.118 -3.05403 0.746735 0
M  V30 6649 N 614.89 -1.56749 -0.16351 0
M  V30 6650 C 616.167 -1.73321 -0.906599 0
M  V30 6651 C 616.547 -0.673779 -2.00059 0
M  V30 6652 O 615.895 0.310121 -2.26386 0
M  V30 6653 C 616.105 -3.168 -1.46419 0
M  V30 6654 C 617.453 -3.77993 -1.93407 0
M  V30 6655 O 618.477 -3.20127 -1.56196 0
M  V30 6656 O 617.336 -4.79615 -2.61976 0
M  V30 6657 H 614.43 -0.708073 -0.427272 0
M  V30 6658 H 616.976 -1.69029 -0.150727 0
M  V30 6659 H 615.748 -3.85396 -0.677189 0
M  V30 6660 H 615.371 -3.2545 -2.28403 0
M  V30 6661 N 616.368 0.432326 -1.51554 0
M  V30 6662 C 617.331 1.50765 -1.72634 0
M  V30 6663 C 618.331 1.49334 -0.596314 0
M  V30 6664 O 619.521 1.51268 -0.863925 0
M  V30 6665 C 616.653 2.90284 -1.7874 0
M  V30 6666 H 617.846 1.33377 -2.68609 0
M  V30 6667 H 615.399 0.661329 -1.4162 0
M  V30 6668 H 616.134 3.13071 -0.845977 0
M  V30 6669 H 615.919 2.92727 -2.6087 0
M  V30 6670 H 617.409 3.68282 -1.96871 0
M  V30 6671 N 617.846 1.41785 0.688094 0
M  V30 6672 C 619.123 1.32031 1.44316 0
M  V30 6673 C 619.503 -0.0486079 2.11044 0
M  V30 6674 O 618.851 -1.06332 2.02252 0
M  V30 6675 C 619.061 2.47906 2.45649 0
M  V30 6676 C 620.409 2.89415 3.10683 0
M  V30 6677 O 621.433 2.477 2.55975 0
M  V30 6678 O 620.292 3.61573 4.09789 0
M  V30 6679 H 617.386 0.519994 0.643067 0
M  V30 6680 H 619.932 1.53765 0.71794 0
M  V30 6681 H 618.704 3.39222 1.95048 0
M  V30 6682 H 618.327 2.28089 3.25671 0
M  V30 6683 N 619.324 -0.923095 1.27737 0
M  V30 6684 C 620.552 -1.70525 1.17171 0
M  V30 6685 C 620.967 -1.86847 -0.270881 0
M  V30 6686 O 620.324 -1.38879 -1.18401 0
M  V30 6687 C 620.375 -3.10242 1.85559 0
M  V30 6688 O 620.096 -2.94683 3.24182 0
M  V30 6689 C 621.597 -4.04586 1.81176 0
M  V30 6690 H 618.817 -0.533347 0.407163 0
M  V30 6691 H 621.361 -1.15599 1.68692 0
M  V30 6692 H 619.516 -3.62014 1.3793 0
M  V30 6693 H 619.93 -3.83045 3.58297 0
M  V30 6694 H 621.404 -5.00119 2.33633 0
M  V30 6695 H 621.881 -4.3218 0.782099 0
M  V30 6696 H 622.487 -3.58741 2.2844 0
M  V30 6697 N 620.802 -1.09834 -1.13024 0
M  V30 6698 C 622.03 -0.858902 -1.8823 0
M  V30 6699 C 622.445 0.590164 -1.79339 0
M  V30 6700 O 621.802 1.4065 -1.16292 0
M  V30 6701 C 621.853 -1.29066 -3.37675 0
M  V30 6702 O 621.574 -2.6829 -3.46341 0
M  V30 6703 C 623.075 -1.08421 -4.29837 0
M  V30 6704 H 620.295 -0.308713 -0.595766 0
M  V30 6705 H 622.839 -1.4614 -1.4305 0
M  V30 6706 H 620.994 -0.731961 -3.80422 0
M  V30 6707 H 621.408 -2.86598 -4.39274 0
M  V30 6708 H 622.882 -1.43553 -5.33007 0
M  V30 6709 H 623.359 -0.0223315 -4.39194 0
M  V30 6710 H 623.965 -1.62907 -3.92863 0
M  V30 6711 N 622.28 1.30327 -0.886154 0
M  V30 6712 C 623.696 1.48676 -0.580323 0
M  V30 6713 C 623.896 1.81189 0.881639 0
M  V30 6714 O 622.952 1.90021 1.66278 0
M  V30 6715 C 624.265 2.60932 -1.49449 0
M  V30 6716 C 625.813 2.74812 -1.49824 0
M  V30 6717 C 626.288 3.90183 -2.39836 0
M  V30 6718 N 627.779 3.97495 -2.37806 0
M  V30 6719 C 628.514 4.86078 -3.04165 0
M  V30 6720 N 628.01 5.79448 -3.79753 0
M  V30 6721 N 629.803 4.79456 -2.93391 0
M  V30 6722 H 621.954 1.07495 -1.8319 0
M  V30 6723 H 624.217 0.532661 -0.784204 0
M  V30 6724 H 623.923 2.43731 -2.5355 0
M  V30 6725 H 623.797 3.57437 -1.20494 0
M  V30 6726 H 626.184 2.91418 -0.464731 0
M  V30 6727 H 626.265 1.78924 -1.82811 0
M  V30 6728 H 625.909 3.74334 -3.43273 0
M  V30 6729 H 625.839 4.85411 -2.04166 0
M  V30 6730 H 628.33 3.30703 -1.82877 0
M  V30 6731 H 628.643 6.43805 -4.27475 0
M  V30 6732 H 626.988 5.79376 -3.8386 0
M  V30 6733 H 630.179 4.05494 -2.33864 0
M  V30 6734 H 630.352 5.48283 -3.45383 0
M  V30 6735 N 623.758 0.647228 1.43697 0
M  V30 6736 C 624.983 0.164083 2.0675 0
M  V30 6737 C 625.408 -1.15892 1.48158 0
M  V30 6738 O 624.766 -1.71459 0.589194 0
M  V30 6739 C 624.814 0.0800368 3.60511 0
M  V30 6740 O 623.918 -0.959453 4.01084 0
M  V30 6741 H 623.259 0.0921288 0.657578 0
M  V30 6742 H 625.789 0.88846 1.84303 0
M  V30 6743 H 625.799 -0.105263 4.07864 0
M  V30 6744 H 624.474 1.04586 4.02535 0
M  V30 6745 H 623.051 -0.747425 3.65333 0
M  V30 6746 N 625.236 -1.5273 0.388769 0
M  V30 6747 C 626.461 -2.0647 -0.19621 0
M  V30 6748 C 626.886 -1.25865 -1.39784 0
M  V30 6749 O 626.244 -0.283562 -1.79069 0
M  V30 6750 C 626.292 -3.56456 -0.5451 0
M  V30 6751 O 625.396 -3.78426 -1.63912 0
M  V30 6752 H 624.737 -0.663599 -0.023067 0
M  V30 6753 H 627.267 -1.96898 0.556084 0
M  V30 6754 H 627.277 -3.99888 -0.809557 0
M  V30 6755 H 625.952 -4.14561 0.333417 0
M  V30 6756 H 624.529 -3.46884 -1.36842 0
M  V30 6757 N 626.714 -0.118576 -1.57153 0
M  V30 6758 C 628.13 0.238014 -1.57815 0
M  V30 6759 C 628.33 1.66747 -1.13127 0
M  V30 6760 O 627.386 2.38867 -0.818462 0
M  V30 6761 C 628.699 0.00508207 -3.007 0
M  V30 6762 C 630.247 0.0710139 -3.12919 0
M  V30 6763 C 630.722 -0.13422 -4.57803 0
M  V30 6764 N 632.213 -0.0801755 -4.63131 0
M  V30 6765 C 632.948 -0.213885 -5.73001 0
M  V30 6766 N 632.444 -0.403742 -6.91623 0
M  V30 6767 N 634.237 -0.15349 -5.6189 0
M  V30 6768 H 626.388 -1.05226 -1.84503 0
M  V30 6769 H 628.651 -0.414318 -0.852669 0
M  V30 6770 H 628.357 -0.983125 -3.3768 0
M  V30 6771 H 628.231 0.73714 -3.69927 0
M  V30 6772 H 630.618 1.04975 -2.75798 0
M  V30 6773 H 630.699 -0.692918 -2.46236 0
M  V30 6774 H 630.343 -1.10992 -4.95624 0
M  V30 6775 H 630.273 0.649692 -5.22577 0
M  V30 6776 H 632.764 0.0630689 -3.77847 0
M  V30 6777 H 633.077 -0.496645 -7.71202 0
M  V30 6778 H 631.422 -0.43971 -6.93608 0
M  V30 6779 H 634.613 -0.00613174 -4.681 0
M  V30 6780 H 634.786 -0.261138 -6.47474 0
M  V30 6781 N 628.193 1.56834 0.155195 0
M  V30 6782 C 629.14 1.97646 1.19184 0
M  V30 6783 C 630.11 0.842788 1.4313 0
M  V30 6784 O 631.295 1.1042 1.55602 0
M  V30 6785 C 628.435 2.35527 2.52232 0
M  V30 6786 C 627.548 3.62147 2.35529 0
M  V30 6787 C 626.683 3.89167 3.61555 0
M  V30 6788 C 625.722 5.09084 3.39853 0
M  V30 6789 N 624.859 5.32156 4.5799 0
M  V30 6790 H 629.699 2.8601 0.836802 0
M  V30 6791 H 627.236 1.41507 0.401758 0
M  V30 6792 H 629.194 2.55516 3.29799 0
M  V30 6793 H 627.824 1.50253 2.85699 0
M  V30 6794 H 626.876 3.4998 1.49057 0
M  V30 6795 H 628.188 4.49871 2.15448 0
M  V30 6796 H 627.342 4.09611 4.47553 0
M  V30 6797 H 626.081 2.9985 3.84632 0
M  V30 6798 H 625.086 4.88522 2.52243 0
M  V30 6799 H 626.311 5.99947 3.18183 0
M  V30 6800 H 624.257 4.45791 4.81255 0
M  V30 6801 H 624.174 6.14133 4.40882 0
M  V30 6802 H 625.442 5.57091 5.45225 0
M  V30 6803 N 629.671 -0.424282 1.51781 0
M  V30 6804 C 630.618 -1.51591 1.74037 0
M  V30 6805 C 631.588 -1.55556 0.582358 0
M  V30 6806 O 632.773 -1.72364 0.818245 0
M  V30 6807 C 629.913 -2.89188 1.8832 0
M  V30 6808 C 629.026 -2.9465 3.1592 0
M  V30 6809 C 628.161 -4.23452 3.20721 0
M  V30 6810 C 627.2 -4.22831 4.42584 0
M  V30 6811 N 626.337 -5.43178 4.44862 0
M  V30 6812 H 631.177 -1.31917 2.67212 0
M  V30 6813 H 628.714 -0.640599 1.32419 0
M  V30 6814 H 630.672 -3.69044 1.94583 0
M  V30 6815 H 629.302 -3.07392 0.985402 0
M  V30 6816 H 628.354 -2.07378 3.18902 0
M  V30 6817 H 629.666 -2.90055 4.05795 0
M  V30 6818 H 628.82 -5.1169 3.25973 0
M  V30 6819 H 627.559 -4.30722 2.28757 0
M  V30 6820 H 626.564 -3.32984 4.37495 0
M  V30 6821 H 627.789 -4.17213 5.35826 0
M  V30 6822 H 625.735 -5.51145 3.55775 0
M  V30 6823 H 625.652 -5.40515 5.28563 0
M  V30 6824 H 626.92 -6.33412 4.54324 0
M  V30 6825 N 631.149 -1.42148 -0.680565 0
M  V30 6826 C 632.565 -1.24947 -0.992995 0
M  V30 6827 C 632.765 -0.149527 -2.00944 0
M  V30 6828 O 631.821 0.481145 -2.47873 0
M  V30 6829 C 633.134 -2.60426 -1.5033 0
M  V30 6830 C 634.682 -2.67733 -1.62137 0
M  V30 6831 C 635.157 -4.03564 -2.16565 0
M  V30 6832 N 636.648 -4.05488 -2.23905 0
M  V30 6833 C 637.383 -5.07401 -2.67081 0
M  V30 6834 N 636.879 -6.19698 -3.09751 0
M  V30 6835 N 638.672 -4.94758 -2.66778 0
M  V30 6836 H 630.823 -2.12399 -0.0074788 0
M  V30 6837 H 633.086 -0.94571 -0.0658529 0
M  V30 6838 H 632.792 -3.41743 -0.830947 0
M  V30 6839 H 632.666 -2.83949 -2.483 0
M  V30 6840 H 635.053 -1.86765 -2.2848 0
M  V30 6841 H 635.134 -2.48004 -0.626713 0
M  V30 6842 H 634.778 -4.84987 -1.50833 0
M  V30 6843 H 634.708 -4.20641 -3.1681 0
M  V30 6844 H 637.199 -3.24415 -1.93812 0
M  V30 6845 H 637.512 -6.93318 -3.41365 0
M  V30 6846 H 635.857 -6.23212 -3.07623 0
M  V30 6847 H 639.048 -4.06105 -2.32801 0
M  V30 6848 H 639.221 -5.74317 -3.00107 0
M  V30 6849 N 632.627 0.916307 -1.28225 0
M  V30 6850 C 633.59 1.99996 -1.11957 0
M  V30 6851 C 634.59 1.60688 -0.0600152 0
M  V30 6852 O 635.78 1.71499 -0.30558 0
M  V30 6853 C 632.912 3.33458 -0.708411 0
M  V30 6854 H 634.105 2.15858 -2.08196 0
M  V30 6855 H 631.658 1.09863 -1.11175 0
M  V30 6856 H 632.393 3.23297 0.254859 0
M  V30 6857 H 632.178 3.63349 -1.47377 0
M  V30 6858 H 633.668 4.13014 -0.617164 0
M  V30 6859 N 634.105 1.10431 1.1244 0
M  V30 6860 C 635.333 0.868872 1.87772 0
M  V30 6861 C 635.748 -0.580645 1.7965 0
M  V30 6862 O 635.105 -1.40031 1.17036 0
M  V30 6863 C 635.156 1.30855 3.36986 0
M  V30 6864 O 634.877 2.70123 3.44914 0
M  V30 6865 C 636.378 1.107 4.29256 0
M  V30 6866 H 633.598 0.311868 0.59412 0
M  V30 6867 H 636.142 1.46897 1.42273 0
M  V30 6868 H 634.297 0.752126 3.80029 0
M  V30 6869 H 634.711 2.88923 4.37748 0
M  V30 6870 H 636.185 1.46378 5.32238 0
M  V30 6871 H 636.662 0.0456228 4.39176 0
M  V30 6872 H 637.268 1.64988 3.91994 0
M  V30 6873 N 635.583 -1.29855 0.893053 0
M  V30 6874 C 636.994 -1.77946 0.564998 0
M  V30 6875 C 637.345 -1.73339 -0.919134 0
M  V30 6876 O 636.47 -1.3152 -1.71847 0
M  V30 6877 C 637.065 -3.23118 1.01883 0
M  V30 6878 C 635.624 -3.69013 0.742051 0
M  V30 6879 C 634.771 -2.50121 1.19727 0
M  V30 6880 H 637.722 -1.16611 1.07646 0
M  V30 6881 H 637.743 -3.78875 0.351249 0
M  V30 6882 H 637.255 -3.26439 2.09903 0
M  V30 6883 H 635.356 -3.71173 -0.325816 0
M  V30 6884 H 635.469 -4.60117 1.33527 0
M  V30 6885 H 633.833 -2.47128 0.616418 0
M  V30 6886 H 634.616 -2.56174 2.28538 0
M  V30 6887 N 637.061 -0.65484 -1.43351 0
M  V30 6888 C 638.477 -0.32255 -1.56307 0
M  V30 6889 C 638.677 1.17324 -1.63821 0
M  V30 6890 O 637.733 1.95813 -1.59417 0
M  V30 6891 C 639.046 -1.03533 -2.82314 0
M  V30 6892 C 640.594 -1.01574 -2.9606 0
M  V30 6893 C 641.069 -1.70945 -4.24902 0
M  V30 6894 N 642.56 -1.67716 -4.3177 0
M  V30 6895 C 643.295 -2.18265 -5.30234 0
M  V30 6896 N 642.791 -2.7711 -6.34966 0
M  V30 6897 N 644.584 -2.08756 -5.21898 0
M  V30 6898 H 636.735 -1.62549 -1.36717 0
M  V30 6899 H 638.998 -0.683676 -0.656727 0
M  V30 6900 H 638.704 -2.09045 -2.8283 0
M  V30 6901 H 638.578 -0.587913 -3.7259 0
M  V30 6902 H 640.965 0.0309834 -2.95084 0
M  V30 6903 H 641.046 -1.50186 -2.07069 0
M  V30 6904 H 640.69 -2.75574 -4.26639 0
M  V30 6905 H 640.62 -1.19797 -5.12793 0
M  V30 6906 H 643.111 -1.24777 -3.56706 0
M  V30 6907 H 643.424 -3.13353 -7.06421 0
M  V30 6908 H 641.769 -2.81171 -6.35585 0
M  V30 6909 H 644.96 -1.62488 -4.38994 0
M  V30 6910 H 645.133 -2.48459 -5.98475 0
M  V30 6911 N 638.539 1.52521 -0.396863 0
M  V30 6912 C 639.816 1.94112 0.240842 0
M  V30 6913 C 640.196 1.33288 1.637 0
M  V30 6914 O 639.544 0.503901 2.22875 0
M  V30 6915 C 639.754 3.48033 0.259567 0
M  V30 6916 C 641.102 4.21822 0.484866 0
M  V30 6917 O 642.126 3.54579 0.339453 0
M  V30 6918 O 640.985 5.41042 0.770412 0
M  V30 6919 H 638.079 0.812973 0.151671 0
M  V30 6920 H 640.625 1.63572 -0.451918 0
M  V30 6921 H 639.397 3.84655 -0.718078 0
M  V30 6922 H 639.02 3.84899 0.996937 0
M  V30 6923 N 640.017 0.126909 1.57088 0
M  V30 6924 C 641.428 -0.397201 1.82426 0
M  V30 6925 C 641.779 -1.66084 1.04453 0
M  V30 6926 O 640.904 -2.14534 0.283552 0
M  V30 6927 C 641.499 -0.727411 3.30899 0
M  V30 6928 C 640.058 -1.19612 3.56889 0
M  V30 6929 C 639.205 -0.20885 2.76512 0
M  V30 6930 H 642.156 0.351924 1.54749 0
M  V30 6931 H 642.177 -1.58407 3.45959 0
M  V30 6932 H 641.689 0.19247 3.87622 0
M  V30 6933 H 639.79 -2.13263 3.05532 0
M  V30 6934 H 639.903 -1.13598 4.65438 0
M  V30 6935 H 638.267 -0.697479 2.44964 0
M  V30 6936 H 639.05 0.704267 3.35998 0
M  V30 6937 N 641.495 -1.56914 -0.146875 0
M  V30 6938 C 642.72 -1.87881 -0.878386 0
M  V30 6939 C 643.145 -0.715945 -1.73942 0
M  V30 6940 O 642.503 0.334447 -1.78189 0
M  V30 6941 C 642.551 -3.17431 -1.71084 0
M  V30 6942 O 641.655 -3.01374 -2.81509 0
M  V30 6943 H 640.996 -0.617289 -0.244644 0
M  V30 6944 H 643.526 -2.04136 -0.137654 0
M  V30 6945 H 643.536 -3.49455 -2.10582 0
M  V30 6946 H 642.211 -4.01671 -1.07856 0
M  V30 6947 H 640.788 -2.80758 -2.45416 0
M  V30 6948 N 642.974 0.416227 -1.52004 0
M  V30 6949 C 644.221 1.16383 -1.65714 0
M  V30 6950 C 644.549 1.9068 -0.383594 0
M  V30 6951 O 643.804 1.85174 0.633185 0
M  V30 6952 C 644.103 2.18923 -2.82502 0
M  V30 6953 C 643.769 1.61485 -4.20991 0
M  V30 6954 C 642.431 1.45545 -4.58661 0
M  V30 6955 C 644.783 1.19468 -5.07323 0
M  V30 6956 C 642.111 0.860937 -5.80349 0
M  V30 6957 C 644.463 0.614386 -6.29609 0
M  V30 6958 C 643.127 0.442056 -6.66035 0
M  V30 6959 H 642.397 0.425875 -0.606392 0
M  V30 6960 H 645.044 0.45199 -1.8609 0
M  V30 6961 H 643.349 2.96225 -2.56433 0
M  V30 6962 H 645.046 2.76628 -2.90307 0
M  V30 6963 H 641.636 1.74873 -3.91302 0
M  V30 6964 H 645.82 1.30596 -4.78809 0
M  V30 6965 H 641.076 0.715372 -6.072 0
M  V30 6966 H 645.25 0.280393 -6.95835 0
M  V30 6967 H 642.877 -0.0207218 -7.60197 0
M  V30 6968 N 644.452 1.42507 0.673017 0
M  V30 6969 C 645.4 1.46362 1.80779 0
M  V30 6970 C 646.394 0.339166 1.6597 0
M  V30 6971 O 647.6 0.512262 1.72557 0
M  V30 6972 H 643.975 0.458433 0.596107 0
M  V30 6973 H 645.946 2.41953 1.74646 0
M  V30 6974 C 644.695 1.38462 3.18941 0
M  V30 6975 H 644.018 2.24283 3.30964 0
M  V30 6976 H 645.458 1.45221 3.98355 0
M  V30 6977 C 643.917 0.0996354 3.36753 0
M  V30 6978 O 644.447 -0.846894 3.92671 0
M  V30 6979 N 642.653 0.016211 2.90595 0
M  V30 6980 H 642.2 0.78725 2.45276 0
M  V30 6981 H 642.158 -0.84291 3.0289 0
M  V30 6982 N 645.93 -0.909495 1.28709 0
M  V30 6983 C 647.178 -1.65577 1.15882 0
M  V30 6984 C 647.499 -1.928 -0.292108 0
M  V30 6985 O 646.769 -1.54716 -1.20166 0
M  V30 6986 H 645.349 -0.613714 0.425869 0
M  V30 6987 H 648.011 -1.09108 1.61498 0
M  V30 6988 H 647.107 -2.61634 1.70159 0
M  V30 6989 N 647.408 -1.11026 -1.11852 0
M  V30 6990 C 648.648 -0.866348 -1.85132 0
M  V30 6991 C 649.012 0.597236 -1.82475 0
M  V30 6992 O 650.213 0.957744 -2.51159 0
M  V30 6993 C 648.484 -1.40721 -3.28531 0
M  V30 6994 S 650.043 -1.29964 -4.19112 0
M  V30 6995 H 646.861 -0.312899 -0.638447 0
M  V30 6996 H 649.463 -1.41691 -1.34699 0
M  V30 6997 H 648.167 -2.46631 -3.28027 0
M  V30 6998 H 647.698 -0.85349 -3.8403 0
M  V30 6999 H 649.713 -0.261333 -4.95511 0
M  V30 7000 N 648.886 1.2938 -0.899927 0
M  V30 7001 C 650.111 2.00228 -0.540692 0
M  V30 7002 C 650.536 1.66909 0.867359 0
M  V30 7003 O 649.894 0.893824 1.57735 0
M  V30 7004 C 649.942 3.52921 -0.740232 0
M  V30 7005 O 649.046 4.11879 0.207154 0
M  V30 7006 H 648.387 0.629505 -0.211233 0
M  V30 7007 H 650.917 1.6487 -1.21158 0
M  V30 7008 H 650.927 4.0287 -0.644973 0
M  V30 7009 H 649.602 3.76508 -1.76677 0
M  V30 7010 H 648.179 3.72845 0.0643315 0
M  V30 7011 N 650.364 0.662433 1.43002 0
M  V30 7012 C 651.78 0.330835 1.56133 0
M  V30 7013 C 651.98 -1.16454 1.64441 0
M  V30 7014 O 651.036 -1.94964 1.60453 0
M  V30 7015 C 652.349 1.05029 2.81761 0
M  V30 7016 C 653.897 1.03142 2.95518 0
M  V30 7017 C 654.372 1.73196 4.2399 0
M  V30 7018 N 655.863 1.70004 4.30875 0
M  V30 7019 C 656.598 2.21074 5.29069 0
M  V30 7020 N 656.094 2.80473 6.33488 0
M  V30 7021 N 657.887 2.1152 5.20784 0
M  V30 7022 H 650.038 1.63272 1.35853 0
M  V30 7023 H 652.301 0.687149 0.653092 0
M  V30 7024 H 652.007 2.10542 2.81718 0
M  V30 7025 H 651.881 0.607664 3.72273 0
M  V30 7026 H 654.268 -0.0153339 2.95096 0
M  V30 7027 H 654.349 1.51282 2.0627 0
M  V30 7028 H 653.993 2.77833 4.25172 0
M  V30 7029 H 653.923 1.22515 5.1215 0
M  V30 7030 H 656.414 1.26667 3.56039 0
M  V30 7031 H 656.727 3.17094 7.04749 0
M  V30 7032 H 655.072 2.84538 6.34085 0
M  V30 7033 H 658.263 1.64814 4.38126 0
M  V30 7034 H 658.436 2.51629 5.97149 0
M  V30 7035 N 651.842 -1.52309 0.404946 0
M  V30 7036 C 653.258 -1.59503 0.0556255 0
M  V30 7037 C 653.458 -1.41805 -1.43156 0
M  V30 7038 O 652.514 -1.2429 -2.19792 0
M  V30 7039 C 653.827 -2.95687 0.546801 0
M  V30 7040 C 655.375 -3.08909 0.504413 0
M  V30 7041 C 655.85 -4.47566 0.97203 0
M  V30 7042 N 657.341 -4.53795 0.928679 0
M  V30 7043 C 658.076 -5.59346 1.26174 0
M  V30 7044 N 657.572 -6.72469 1.66604 0
M  V30 7045 N 659.365 -5.49532 1.18198 0
M  V30 7046 H 651.516 -1.6206 1.37296 0
M  V30 7047 H 653.779 -0.762161 0.563751 0
M  V30 7048 H 653.485 -3.13905 1.58609 0
M  V30 7049 H 653.359 -3.77172 -0.0457905 0
M  V30 7050 H 655.746 -2.90378 -0.525819 0
M  V30 7051 H 655.827 -2.2934 1.13301 0
M  V30 7052 H 655.471 -4.6684 2.00057 0
M  V30 7053 H 655.401 -5.25625 0.320292 0
M  V30 7054 H 657.892 -3.72588 0.631369 0
M  V30 7055 H 658.205 -7.48993 1.9034 0
M  V30 7056 H 656.55 -6.73761 1.70504 0
M  V30 7057 H 659.741 -4.60038 0.865011 0
M  V30 7058 H 659.914 -6.31687 1.44485 0
M  V30 7059 N 653.32 -0.135238 -1.57019 0
M  V30 7060 C 654.268 0.826099 -2.17436 0
M  V30 7061 C 655.262 1.26378 -1.12805 0
M  V30 7062 O 656.468 1.23363 -1.31079 0
M  V30 7063 H 652.843 0.284568 -0.696078 0
M  V30 7064 H 654.814 0.292212 -2.96966 0
M  V30 7065 C 653.563 2.05991 -2.80112 0
M  V30 7066 H 652.886 1.73209 -3.60331 0
M  V30 7067 H 654.326 2.71225 -3.25903 0
M  V30 7068 C 652.785 2.86027 -1.78017 0
M  V30 7069 O 653.315 3.81971 -1.24344 0
M  V30 7070 N 651.521 2.50332 -1.47588 0
M  V30 7071 H 651.068 1.72377 -1.91426 0
M  V30 7072 H 651.026 3.04177 -0.795228 0
M  V30 7073 N 654.798 1.5699 0.138552 0
M  V30 7074 C 656.023 1.88344 0.86841 0
M  V30 7075 C 656.448 0.725159 1.7356 0
M  V30 7076 O 655.806 -0.324992 1.78363 0
M  V30 7077 C 655.854 3.18334 1.69398 0
M  V30 7078 O 654.958 3.02863 2.79907 0
M  V30 7079 H 654.299 0.618577 0.241367 0
M  V30 7080 H 656.829 2.04207 0.126826 0
M  V30 7081 H 656.839 3.50567 2.08726 0
M  V30 7082 H 655.514 4.02238 1.05725 0
M  V30 7083 H 654.091 2.82056 2.43924 0
M  V30 7084 N 656.276 -0.40816 1.52223 0
M  V30 7085 C 657.223 -1.49737 1.75635 0
M  V30 7086 C 658.193 -1.5493 0.598824 0
M  V30 7087 O 659.378 -1.71487 0.83648 0
M  V30 7088 C 656.518 -2.87174 1.91376 0
M  V30 7089 C 655.631 -2.91283 3.19027 0
M  V30 7090 C 654.766 -4.20026 3.25195 0
M  V30 7091 C 653.805 -4.18113 4.47044 0
M  V30 7092 N 652.942 -5.38429 4.50598 0
M  V30 7093 H 657.782 -1.29075 2.68596 0
M  V30 7094 H 655.319 -0.626518 1.33091 0
M  V30 7095 H 657.277 -3.66959 1.98486 0
M  V30 7096 H 655.907 -3.06329 1.01795 0
M  V30 7097 H 654.959 -2.03984 3.21084 0
M  V30 7098 H 656.271 -2.85734 4.08849 0
M  V30 7099 H 655.425 -5.08204 3.31382 0
M  V30 7100 H 654.164 -4.28271 2.33313 0
M  V30 7101 H 653.169 -3.28325 4.41002 0
M  V30 7102 H 654.394 -4.11507 5.40221 0
M  V30 7103 H 652.34 -5.4734 3.616 0
M  V30 7104 H 652.257 -5.34879 5.34266 0
M  V30 7105 H 653.525 -6.28557 4.61016 0
M  V30 7106 N 657.755 -1.42862 -0.66545 0
M  V30 7107 C 658.98 -1.47456 -1.45848 0
M  V30 7108 C 659.405 -0.0900312 -1.87884 0
M  V30 7109 O 658.763 0.913587 -1.56599 0
M  V30 7110 C 658.811 -2.41514 -2.67774 0
M  V30 7111 O 657.915 -1.89296 -3.66389 0
M  V30 7112 H 657.256 -0.499236 -0.437789 0
M  V30 7113 H 659.786 -1.8765 -0.815394 0
M  V30 7114 H 659.796 -2.58409 -3.15735 0
M  V30 7115 H 658.471 -3.42099 -2.36519 0
M  V30 7116 H 657.048 -1.82003 -3.25468 0
M  V30 7117 N 659.233 0.902656 -1.29189 0
M  V30 7118 C 660.196 1.98797 -1.14071 0
M  V30 7119 C 661.196 1.60615 -0.0770549 0
M  V30 7120 O 662.386 1.71165 -0.323753 0
M  V30 7121 C 659.518 3.32688 -0.743739 0
M  V30 7122 H 660.711 2.13637 -2.10473 0
M  V30 7123 H 658.264 1.08678 -1.12334 0
M  V30 7124 H 658.999 3.23549 0.220554 0
M  V30 7125 H 658.784 3.61765 -1.51223 0
M  V30 7126 H 660.274 4.12337 -0.660935 0
M  V30 7127 N 660.711 1.11618 1.11262 0
M  V30 7128 C 661.936 0.889013 1.8738 0
M  V30 7129 C 662.361 -0.555884 1.79698 0
M  V30 7130 O 661.719 -1.39272 1.16073 0
M  V30 7131 C 661.767 1.35759 3.34069 0
M  V30 7132 O 660.871 0.530499 4.08974 0
M  V30 7133 H 660.212 0.320082 0.581759 0
M  V30 7134 H 662.742 1.48611 1.40627 0
M  V30 7135 H 662.752 1.35291 3.84916 0
M  V30 7136 H 661.427 2.40973 3.38976 0
M  V30 7137 H 660.004 0.601439 3.68018 0
M  V30 7138 N 662.189 -1.289 0.906776 0
M  V30 7139 C 663.152 -2.25777 0.394656 0
M  V30 7140 C 664.152 -1.53621 -0.475119 0
M  V30 7141 O 665.342 -1.71949 -0.279165 0
M  V30 7142 C 662.474 -3.38113 -0.43499 0
M  V30 7143 H 663.667 -2.72592 1.25033 0
M  V30 7144 H 661.22 -1.40463 0.685547 0
M  V30 7145 H 661.955 -2.96648 -1.31036 0
M  V30 7146 H 661.74 -3.91647 0.188334 0
M  V30 7147 H 663.23 -4.10168 -0.784365 0
M  V30 7148 N 663.667 -0.670007 -1.42649 0
M  V30 7149 C 664.895 -0.19854 -2.05945 0
M  V30 7150 C 665.31 1.14243 -1.50313 0
M  V30 7151 O 664.667 1.70872 -0.641027 0
M  V30 7152 C 664.718 -0.11966 -3.61302 0
M  V30 7153 O 664.439 -1.40764 -4.1487 0
M  V30 7154 C 665.94 0.375878 -4.41704 0
M  V30 7155 H 663.16 -0.0976894 -0.663851 0
M  V30 7156 H 665.704 -0.915392 -1.82868 0
M  V30 7157 H 663.859 0.547851 -3.83507 0
M  V30 7158 H 664.273 -1.27784 -5.08696 0
M  V30 7159 H 665.747 0.379988 -5.50691 0
M  V30 7160 H 666.224 1.41028 -4.15942 0
M  V30 7161 H 666.83 -0.259727 -4.24506 0
M  V30 7162 N 665.145 1.52092 -0.413018 0
M  V30 7163 C 666.37 2.06756 0.163338 0
M  V30 7164 C 666.795 1.28073 1.37764 0
M  V30 7165 O 666.153 0.312015 1.78595 0
M  V30 7166 C 666.201 3.57278 0.488322 0
M  V30 7167 O 665.305 3.80986 1.57871 0
M  V30 7168 H 664.646 0.663882 0.0125068 0
M  V30 7169 H 667.176 1.95988 -0.587339 0
M  V30 7170 H 667.186 4.01125 0.745836 0
M  V30 7171 H 665.861 4.13978 -0.399327 0
M  V30 7172 H 664.438 3.49017 1.31306 0
M  V30 7173 N 666.623 0.143563 1.56945 0
M  V30 7174 C 667.848 -0.518701 2.00809 0
M  V30 7175 C 668.273 -1.5785 1.02298 0
M  V30 7176 O 667.631 -1.813 -0.0017839 0
M  V30 7177 C 667.679 -1.09929 3.43436 0
M  V30 7178 O 666.783 -2.21425 3.47915 0
M  V30 7179 H 666.124 -0.127215 0.6517 0
M  V30 7180 H 668.654 0.239283 2.03196 0
M  V30 7181 H 668.664 -1.4288 3.82164 0
M  V30 7182 H 667.339 -0.323162 4.14643 0
M  V30 7183 H 665.916 -1.89728 3.21026 0
M  V30 7184 N 668.101 -1.57061 -0.130224 0
M  V30 7185 C 669.348 -1.84257 -0.839972 0
M  V30 7186 C 669.676 -0.726986 -1.80403 0
M  V30 7187 O 668.931 0.282632 -1.93648 0
M  V30 7188 C 669.23 -3.17878 -1.63365 0
M  V30 7189 C 668.896 -4.43475 -0.814891 0
M  V30 7190 C 667.558 -4.77581 -0.589066 0
M  V30 7191 C 669.91 -5.20631 -0.243437 0
M  V30 7192 C 667.238 -5.86292 0.218648 0
M  V30 7193 C 669.59 -6.30192 0.551408 0
M  V30 7194 C 668.254 -6.62837 0.787653 0
M  V30 7195 H 667.524 -0.674245 -0.307367 0
M  V30 7196 H 670.171 -1.91224 -0.102832 0
M  V30 7197 H 668.476 -3.06437 -2.44138 0
M  V30 7198 H 670.173 -3.3614 -2.18658 0
M  V30 7199 H 666.763 -4.16747 -1.00098 0
M  V30 7200 H 670.947 -4.94644 -0.405145 0
M  V30 7201 H 666.203 -6.10017 0.411016 0
M  V30 7202 H 670.377 -6.89165 1.00126 0
M  V30 7203 H 668.004 -7.46908 1.41537 0
M  V30 7204 N 669.579 0.400081 -1.52437 0
M  V30 7205 C 670.828 1.14332 -1.66166 0
M  V30 7206 C 671.141 1.91419 -0.402253 0
M  V30 7207 O 672.347 2.6824 -0.419487 0
M  V30 7208 C 670.803 2.08137 -2.9361 0
M  V30 7209 C 670.411 1.36524 -4.26691 0
M  V30 7210 C 672.155 2.82664 -3.16703 0
M  V30 7211 C 670.062 2.29031 -5.45251 0
M  V30 7212 H 668.992 0.430499 -0.61902 0
M  V30 7213 H 671.643 0.407017 -1.78929 0
M  V30 7214 H 670.025 2.85358 -2.74567 0
M  V30 7215 H 671.199 0.646061 -4.56249 0
M  V30 7216 H 669.514 0.74002 -4.09771 0
M  V30 7217 H 672.111 3.52037 -4.0246 0
M  V30 7218 H 672.454 3.46122 -2.31312 0
M  V30 7219 H 672.987 2.12541 -3.36261 0
M  V30 7220 H 669.726 1.70206 -6.33017 0
M  V30 7221 H 669.246 2.98896 -5.2002 0
M  V30 7222 H 670.925 2.89359 -5.78689 0
M  V30 7223 N 671.057 1.43213 0.657864 0
M  V30 7224 C 672.282 1.48227 1.45064 0
M  V30 7225 C 672.707 0.0999939 1.87834 0
M  V30 7226 O 672.065 -0.905269 1.57081 0
M  V30 7227 C 672.113 2.42931 2.6649 0
M  V30 7228 O 671.217 1.91237 3.6538 0
M  V30 7229 H 670.558 0.501551 0.435135 0
M  V30 7230 H 673.088 1.8808 0.805431 0
M  V30 7231 H 673.098 2.6008 3.1436 0
M  V30 7232 H 671.773 3.43348 2.34701 0
M  V30 7233 H 670.35 1.83726 3.24498 0
M  V30 7234 N 672.536 -0.895792 1.29666 0
M  V30 7235 C 673.761 -1.68528 1.20885 0
M  V30 7236 C 674.186 -1.8673 -0.226595 0
M  V30 7237 O 673.544 -1.39044 -1.16347 0
M  V30 7238 C 673.592 -3.04512 1.93144 0
M  V30 7239 O 672.696 -3.92963 1.25115 0
M  V30 7240 H 672.037 -0.515371 0.418675 0
M  V30 7241 H 674.567 -1.11878 1.71302 0
M  V30 7242 H 674.577 -3.54628 2.0175 0
M  V30 7243 H 673.252 -2.90582 2.97548 0
M  V30 7244 H 671.829 -3.51399 1.24794 0
M  V30 7245 N 674.014 -1.12206 -1.10668 0
M  V30 7246 C 675.425 -0.890657 -1.64086 0
M  V30 7247 C 675.776 0.575502 -1.8757 0
M  V30 7248 O 674.901 1.4394 -1.61587 0
M  V30 7249 C 675.496 -1.61029 -2.98085 0
M  V30 7250 C 674.055 -1.4251 -3.48379 0
M  V30 7251 C 673.202 -1.64778 -2.23033 0
M  V30 7252 H 676.153 -1.27718 -0.94201 0
M  V30 7253 H 676.174 -1.05993 -3.65439 0
M  V30 7254 H 675.686 -2.67735 -2.80962 0
M  V30 7255 H 673.787 -0.380497 -3.70652 0
M  V30 7256 H 673.9 -2.17959 -4.26651 0
M  V30 7257 H 672.264 -1.07171 -2.31055 0
M  V30 7258 H 673.047 -2.72776 -2.08443 0
M  V30 7259 N 675.492 1.28418 -0.913599 0
M  V30 7260 C 676.722 1.98817 -0.56172 0
M  V30 7261 C 677.13 1.68457 0.861321 0
M  V30 7262 O 676.473 0.933653 1.58204 0
M  V30 7263 C 676.535 3.52801 -0.690785 0
M  V30 7264 C 676.199 4.0675 -2.08334 0
M  V30 7265 C 677.196 4.20597 -3.05604 0
M  V30 7266 C 674.881 4.41445 -2.39648 0
M  V30 7267 C 676.875 4.68392 -4.32305 0
M  V30 7268 C 674.562 4.88934 -3.66588 0
M  V30 7269 C 675.56 5.02364 -4.6273 0
M  V30 7270 O 675.248 5.48817 -5.87414 0
M  V30 7271 H 674.98 0.641608 -0.212874 0
M  V30 7272 H 677.534 1.64584 -1.22887 0
M  V30 7273 H 675.764 3.86686 0.0334336 0
M  V30 7274 H 677.453 4.04422 -0.346031 0
M  V30 7275 H 678.219 3.94067 -2.8273 0
M  V30 7276 H 674.098 4.30242 -1.65567 0
M  V30 7277 H 677.642 4.7879 -5.07352 0
M  V30 7278 H 673.539 5.14904 -3.89287 0
M  V30 7279 H 674.307 5.67103 -5.90201 0
M  V30 7280 N 676.97 0.677563 1.42291 0
M  V30 7281 C 678.198 0.209459 2.05837 0
M  V30 7282 C 678.613 -1.13444 1.50917 0
M  V30 7283 O 677.97 -1.70529 0.65008 0
M  V30 7284 C 678.021 0.138819 3.61233 0
M  V30 7285 O 677.742 1.42962 4.14118 0
M  V30 7286 C 679.243 -0.352449 4.41897 0
M  V30 7287 H 676.463 0.101209 0.663323 0
M  V30 7288 H 679.007 0.925077 1.8238 0
M  V30 7289 H 677.162 -0.527505 3.83792 0
M  V30 7290 H 677.576 1.3048 5.08011 0
M  V30 7291 H 679.05 -0.350778 5.50884 0
M  V30 7292 H 679.527 -1.3882 4.16684 0
M  V30 7293 H 680.133 0.282236 4.24362 0
M  V30 7294 N 678.448 -1.51871 0.421078 0
M  V30 7295 C 679.673 -2.0684 -0.152371 0
M  V30 7296 C 680.098 -1.28802 -1.37083 0
M  V30 7297 O 679.456 -0.321482 -1.78427 0
M  V30 7298 C 679.504 -3.57532 -0.469368 0
M  V30 7299 O 678.608 -3.81818 -1.55848 0
M  V30 7300 H 677.949 -0.663939 -0.00898586 0
M  V30 7301 H 680.479 -1.95674 0.597724 0
M  V30 7302 H 680.489 -4.01515 -0.724553 0
M  V30 7303 H 679.164 -4.13761 0.421276 0
M  V30 7304 H 677.741 -3.49709 -1.29453 0
M  V30 7305 N 679.926 -0.151884 -1.56866 0
M  V30 7306 C 681.172 0.498742 -1.96572 0
M  V30 7307 C 681.505 1.64194 -1.03702 0
M  V30 7308 O 680.78 1.94334 -0.0803432 0
M  V30 7309 C 681.063 1.00027 -3.45929 0
M  V30 7310 C 680.916 -0.141767 -4.49577 0
M  V30 7311 C 682.235 1.88044 -3.97904 0
M  V30 7312 H 679.354 0.17982 -0.714726 0
M  V30 7313 H 681.996 -0.234097 -1.88552 0
M  V30 7314 H 680.146 1.62476 -3.52894 0
M  V30 7315 H 681.818 -0.778269 -4.54687 0
M  V30 7316 H 680.061 -0.80019 -4.26356 0
M  V30 7317 H 680.732 0.250947 -5.51429 0
M  V30 7318 H 683.208 1.35416 -3.93449 0
M  V30 7319 H 682.084 2.20043 -5.02864 0
M  V30 7320 H 682.345 2.81916 -3.40552 0
M  V30 7321 N 681.404 1.57128 0.121893 0
M  V30 7322 C 682.681 1.75664 0.860327 0
M  V30 7323 C 683.061 0.726585 1.98202 0
M  V30 7324 O 682.409 -0.24999 2.27128 0
M  V30 7325 C 682.619 3.20571 1.37968 0
M  V30 7326 C 683.967 3.82988 1.83317 0
M  V30 7327 O 684.991 3.24156 1.47654 0
M  V30 7328 O 683.85 4.86393 2.49168 0
M  V30 7329 H 680.944 0.719153 0.408348 0
M  V30 7330 H 683.49 1.6937 0.105859 0
M  V30 7331 H 682.262 3.87056 0.57477 0
M  V30 7332 H 681.885 3.31392 2.19694 0
M  V30 7333 N 682.882 -0.391992 1.52647 0
M  V30 7334 C 683.792 -1.503 1.80131 0
M  V30 7335 C 684.808 -1.59825 0.687882 0
M  V30 7336 O 685.984 -1.76218 0.975149 0
M  V30 7337 C 683.049 -2.85863 1.96171 0
M  V30 7338 C 682.11 -2.86084 3.20085 0
M  V30 7339 C 681.343 -4.15181 3.35351 0
M  V30 7340 O 681.566 -5.09981 2.55491 0
M  V30 7341 O 680.5 -4.22603 4.28591 0
M  V30 7342 H 684.326 -1.30007 2.74466 0
M  V30 7343 H 681.911 -0.579539 1.37701 0
M  V30 7344 H 683.793 -3.66236 2.08445 0
M  V30 7345 H 682.468 -3.06189 1.05025 0
M  V30 7346 H 681.375 -2.04504 3.13256 0
M  V30 7347 H 682.708 -2.7071 4.11068 0
M  V30 7348 N 684.36 -1.4356 -0.65026 0
M  V30 7349 C 685.59 -1.48563 -1.4357 0
M  V30 7350 C 685.998 -0.103041 -1.88919 0
M  V30 7351 O 685.341 0.897602 -1.60277 0
M  V30 7352 C 685.403 -2.37181 -2.70158 0
M  V30 7353 C 685.067 -3.84673 -2.4673 0
M  V30 7354 C 686.064 -4.75704 -2.09765 0
M  V30 7355 C 683.749 -4.29189 -2.60963 0
M  V30 7356 C 685.743 -6.09249 -1.87334 0
M  V30 7357 C 683.43 -5.62787 -2.38147 0
M  V30 7358 C 684.428 -6.52634 -2.01389 0
M  V30 7359 O 684.116 -7.83761 -1.78813 0
M  V30 7360 H 683.848 -0.506743 -0.447423 0
M  V30 7361 H 686.402 -1.89001 -0.80423 0
M  V30 7362 H 684.632 -1.91636 -3.35876 0
M  V30 7363 H 686.321 -2.33354 -3.32116 0
M  V30 7364 H 687.087 -4.42589 -1.98343 0
M  V30 7365 H 682.966 -3.59529 -2.88548 0
M  V30 7366 H 686.51 -6.7934 -1.58567 0
M  V30 7367 H 682.407 -5.95469 -2.49173 0
M  V30 7368 H 683.175 -7.95368 -1.93214 0
M  V30 7369 N 685.838 0.888903 -1.30139 0
M  V30 7370 C 687.063 1.67884 -1.21777 0
M  V30 7371 C 687.488 1.86848 0.216689 0
M  V30 7372 O 686.846 1.39659 1.15608 0
M  V30 7373 C 686.894 3.03483 -1.94757 0
M  V30 7374 O 685.998 3.92294 -1.27198 0
M  V30 7375 H 685.339 0.513144 -0.421402 0
M  V30 7376 H 687.869 1.10968 -1.71893 0
M  V30 7377 H 687.879 3.53553 -2.03627 0
M  V30 7378 H 686.554 2.89 -2.99085 0
M  V30 7379 H 685.131 3.50732 -1.26655 0
M  V30 7380 O 687.355 1.24817 1.02483 0
M  V30 7381 H 688.046 1.02783 1.64181 0
M  V30 END ATOM
M  V30 BEGIN BOND
M  V30 END BOND
M  V30 END CTAB
M  END
$$$$
