drugbank_target|Q8IL86 Sec62, putative (DB11638)
 OpenBabel12092121103D

  0  0  0     0  0            999 V3000
M  V30 BEGIN CTAB
M  V30 COUNTS 6189 6261 0 0 0
M  V30 BEGIN ATOM
M  V30 1 H -0.908 1.98254 -0.117106 0
M  V30 2 N 0 1.576 0 0
M  V30 3 C 0.933 2.03868 1.02534 0
M  V30 4 C 1.911 0.928543 1.3348 0
M  V30 5 O 3.095 1.19667 1.45644 0
M  V30 6 C 0.222 2.43627 2.35294 0
M  V30 7 C -0.732 3.65373 2.2001 0
M  V30 8 S 0.101 5.13292 1.52614 0
M  V30 9 C 1.257 5.56322 2.86805 0
M  V30 10 H 1.49 2.90518 0.631377 0
M  V30 11 H -0.977 1.52953 0.210867 0
M  V30 12 H 0.981 2.67203 3.11629 0
M  V30 13 H -0.358 1.57376 2.7183 0
M  V30 14 H -1.165 3.90944 3.18086 0
M  V30 15 H -1.563 3.418 1.51819 0
M  V30 16 H 0.729 5.58782 3.83104 0
M  V30 17 H 1.672 6.56266 2.65933 0
M  V30 18 H 2.08 4.83886 2.90714 0
M  V30 19 N 1.4781 -0.272755 1.55222 0
M  V30 20 C 2.7031 -1.02683 1.80197 0
M  V30 21 C 3.1281 -1.79142 0.573551 0
M  V30 22 O 2.4861 -1.74917 -0.476849 0
M  V30 23 C 2.5341 -1.9609 3.02624 0
M  V30 24 O 1.6381 -3.04863 2.77727 0
M  V30 25 H 0.9791 -0.293557 0.595584 0
M  V30 26 H 3.5091 -0.30159 2.02365 0
M  V30 27 H 3.5191 -2.38039 3.31363 0
M  V30 28 H 2.1941 -1.39851 3.91682 0
M  V30 29 H 0.7711 -2.67228 2.60084 0
M  V30 30 N 2.9562 -1.48159 -0.537278 0
M  V30 31 C 3.9042 -1.62573 -1.66352 0
M  V30 32 C 4.8982 -0.492366 -1.62087 0
M  V30 33 O 6.1042 -0.670847 -1.67032 0
M  V30 34 H 2.4792 -0.511992 -0.550789 0
M  V30 35 H 4.4502 -2.57176 -1.51337 0
M  V30 36 C 3.1992 -1.67583 -3.04649 0
M  V30 37 H 2.5222 -2.54151 -3.08622 0
M  V30 38 H 3.9622 -1.81713 -3.83088 0
M  V30 39 C 2.4212 -0.413039 -3.34358 0
M  V30 40 O 2.9512 0.477259 -3.98855 0
M  V30 41 N 1.1572 -0.286961 -2.8918 0
M  V30 42 H 0.7042 -1.01241 -2.36871 0
M  V30 43 H 0.6622 0.556963 -3.09427 0
M  V30 44 N 4.4343 0.785586 -1.36625 0
M  V30 45 C 5.8503 1.08419 -1.17122 0
M  V30 46 C 6.0503 2.015 0.00208491 0
M  V30 47 O 5.1063 2.43551 0.666278 0
M  V30 48 C 6.4193 1.69498 -2.48377 0
M  V30 49 C 7.9673 1.81821 -2.54775 0
M  V30 50 C 8.4423 2.46315 -3.86126 0
M  V30 51 N 9.9333 2.53779 -3.87492 0
M  V30 52 C 10.6683 3.045 -4.85868 0
M  V30 53 N 10.1643 3.55499 -5.94637 0
M  V30 54 N 11.9573 3.03247 -4.73284 0
M  V30 55 H 4.1083 0.167264 -2.1174 0
M  V30 56 H 6.3713 0.13682 -0.938075 0
M  V30 57 H 6.0773 1.08571 -3.34522 0
M  V30 58 H 5.9513 2.6896 -2.64462 0
M  V30 59 H 8.3383 2.41884 -1.69045 0
M  V30 60 H 8.4193 0.811532 -2.42586 0
M  V30 61 H 8.0633 1.86895 -4.72263 0
M  V30 62 H 7.9933 3.47561 -3.95612 0
M  V30 63 H 10.4843 2.17672 -3.08913 0
M  V30 64 H 10.7973 3.92562 -6.65669 0
M  V30 65 H 9.1423 3.5364 -5.98301 0
M  V30 66 H 12.3333 2.62696 -3.87438 0
M  V30 67 H 12.5063 3.42467 -5.50109 0
M  V30 68 N 5.9124 1.20967 1.01018 0
M  V30 69 C 6.8454 0.907578 2.09376 0
M  V30 70 C 7.8234 -0.142868 1.61971 0
M  V30 71 O 9.0074 -0.0150391 1.88494 0
M  V30 72 C 6.1344 0.361791 3.36762 0
M  V30 73 C 5.1804 1.39423 4.03068 0
M  V30 74 S 6.0134 2.96159 4.4615 0
M  V30 75 C 7.1694 2.43173 5.7673 0
M  V30 76 H 7.4024 1.82519 2.34678 0
M  V30 77 H 4.9354 1.03884 1.14225 0
M  V30 78 H 6.8934 0.0534523 4.10465 0
M  V30 79 H 5.5544 -0.53443 3.0952 0
M  V30 80 H 4.7474 0.961853 4.94737 0
M  V30 81 H 4.3494 1.65038 3.35617 0
M  V30 82 H 6.6414 1.83335 6.52223 0
M  V30 83 H 7.5844 3.33264 6.24773 0
M  V30 84 H 7.9924 1.85069 5.33301 0
M  V30 85 N 7.3905 -1.2043 1.01659 0
M  V30 86 C 8.3005 -2.2689 0.596484 0
M  V30 87 C 9.3165 -1.70107 -0.36599 0
M  V30 88 O 10.4925 -2.00117 -0.226942 0
M  V30 89 C 7.5575 -3.4665 -0.0586659 0
M  V30 90 C 6.6185 -4.18662 0.949751 0
M  V30 91 C 5.8515 -5.32705 0.32577 0
M  V30 92 O 6.0745 -5.63656 -0.874509 0
M  V30 93 O 5.0085 -5.92803 1.04249 0
M  V30 94 H 8.8345 -2.65041 1.4828 0
M  V30 95 H 6.4195 -1.27048 0.786082 0
M  V30 96 H 8.3015 -4.19256 -0.424564 0
M  V30 97 H 6.9765 -3.10375 -0.91918 0
M  V30 98 H 5.8835 -3.48229 1.36702 0
M  V30 99 H 7.2165 -4.58878 1.78023 0
M  V30 100 N 8.8686 -0.792821 -1.36206 0
M  V30 101 C 9.7786 -0.194808 -2.3379 0
M  V30 102 C 10.7946 0.654869 -1.61206 0
M  V30 103 O 11.9706 0.569856 -1.9317 0
M  V30 104 C 9.0356 0.657721 -3.40404 0
M  V30 105 C 8.0966 -0.210849 -4.28782 0
M  V30 106 C 7.3296 0.601086 -5.30304 0
M  V30 107 O 7.5526 1.83682 -5.40016 0
M  V30 108 O 6.4866 -0.000808277 -6.019 0
M  V30 109 H 10.3126 -1.00172 -2.86704 0
M  V30 110 H 7.8976 -0.554341 -1.38735 0
M  V30 111 H 9.7796 1.14375 -4.05581 0
M  V30 112 H 8.4546 1.44247 -2.89784 0
M  V30 113 H 7.3616 -0.743714 -3.66633 0
M  V30 114 H 8.6946 -0.959195 -4.82763 0
M  V30 115 N 10.3467 1.47872 -0.545128 0
M  V30 116 C 11.2767 2.32661 0.197793 0
M  V30 117 C 12.2577 1.43041 0.920504 0
M  V30 118 O 13.4427 1.71912 0.90333 0
M  V30 119 C 10.5727 3.24569 1.23582 0
M  V30 120 C 9.5267 4.23333 0.630323 0
M  V30 121 C 8.8527 5.0448 1.77211 0
M  V30 122 C 10.1527 5.20704 -0.407974 0
M  V30 123 H 11.8467 2.95024 -0.510045 0
M  V30 124 H 9.3927 1.4187 -0.246731 0
M  V30 125 H 11.3457 3.8272 1.76362 0
M  V30 126 H 10.0697 2.60236 1.97344 0
M  V30 127 H 8.7287 3.6639 0.123922 0
M  V30 128 H 8.3767 4.36561 2.49847 0
M  V30 129 H 8.0767 5.71339 1.37281 0
M  V30 130 H 9.6007 5.65487 2.3034 0
M  V30 131 H 11.0147 5.7329 0.033305 0
M  V30 132 H 9.4117 5.95699 -0.725486 0
M  V30 133 H 10.4817 4.66917 -1.30828 0
M  V30 134 N 11.8248 0.280983 1.55075 0
M  V30 135 C 13.1018 -0.386207 1.91749 0
M  V30 136 C 13.4818 -1.73264 1.20594 0
M  V30 137 O 12.8298 -2.26034 0.334784 0
M  V30 138 C 13.0398 -0.520687 3.45094 0
M  V30 139 C 14.3878 -0.800865 4.16979 0
M  V30 140 O 15.4118 -0.605271 3.5102 0
M  V30 141 O 14.2708 -1.1753 5.33712 0
M  V30 142 H 11.3648 -0.212408 0.799257 0
M  V30 143 H 13.9108 0.327568 1.66509 0
M  V30 144 H 12.6828 0.426633 3.88967 0
M  V30 145 H 12.3058 -1.2837 3.76307 0
M  V30 146 N 13.3029 -1.57598 0.00835791 0
M  V30 147 C 14.7139 -1.7892 -0.53333 0
M  V30 148 C 15.0649 -0.916609 -1.73473 0
M  V30 149 O 14.1899 -0.121336 -2.1606 0
M  V30 150 C 14.7849 -3.24488 -0.974313 0
M  V30 151 C 13.3439 -3.46878 -1.46125 0
M  V30 152 C 12.4909 -2.74157 -0.416302 0
M  V30 153 H 15.4419 -1.56958 0.234495 0
M  V30 154 H 15.4629 -3.3306 -1.83988 0
M  V30 155 H 14.9749 -3.87972 -0.099718 0
M  V30 156 H 13.0759 -2.8862 -2.35646 0
M  V30 157 H 13.1889 -4.55572 -1.48295 0
M  V30 158 H 11.5529 -2.39022 -0.87981 0
M  V30 159 H 12.3359 -3.40345 0.44947 0
M  V30 160 N 14.781 0.264519 -1.55364 0
M  V30 161 C 16.058 1.01677 -1.67096 0
M  V30 162 C 16.438 2.03996 -0.543015 0
M  V30 163 O 15.786 2.23907 0.45585 0
M  V30 164 C 15.996 1.66596 -3.0667 0
M  V30 165 C 17.344 2.17442 -3.64697 0
M  V30 166 O 18.368 1.76568 -3.09358 0
M  V30 167 O 17.227 2.92439 -4.61673 0
M  V30 168 H 14.321 0.472161 -0.678965 0
M  V30 169 H 16.867 0.259703 -1.67701 0
M  V30 170 H 15.639 0.924962 -3.80211 0
M  V30 171 H 15.262 2.48968 -3.10001 0
M  V30 172 N 16.2591 1.48442 0.529413 0
M  V30 173 C 17.1921 1.57577 1.65059 0
M  V30 174 C 18.1701 0.426198 1.56915 0
M  V30 175 O 19.3541 0.637877 1.77379 0
M  V30 176 C 16.4811 1.5043 3.03461 0
M  V30 177 C 15.5271 2.70235 3.29962 0
M  V30 178 S 16.3601 4.32198 3.16172 0
M  V30 179 C 17.5161 4.2765 4.57019 0
M  V30 180 H 17.7491 2.52427 1.5706 0
M  V30 181 H 15.2821 1.36982 0.712417 0
M  V30 182 H 17.2401 1.46992 3.8328 0
M  V30 183 H 15.9011 0.569167 3.089 0
M  V30 184 H 15.0941 2.61374 4.30929 0
M  V30 185 H 14.6961 2.70938 2.57815 0
M  V30 186 H 16.9881 3.97618 5.48549 0
M  V30 187 H 17.9311 5.28797 4.70934 0
M  V30 188 H 18.3391 3.5811 4.36368 0
M  V30 189 N 17.7372 -0.778329 1.37039 0
M  V30 190 C 18.6672 -1.90546 1.34962 0
M  V30 191 C 19.6482 -1.68681 0.219274 0
M  V30 192 O 20.8332 -1.89634 0.418624 0
M  V30 193 C 17.9632 -3.27734 1.14925 0
M  V30 194 C 16.9172 -3.64147 2.24902 0
M  V30 195 C 16.2432 -4.99806 1.89996 0
M  V30 196 C 17.5432 -3.71579 3.67051 0
M  V30 197 H 19.2372 -1.92541 2.29277 0
M  V30 198 H 16.7832 -0.924948 1.10366 0
M  V30 199 H 18.7362 -4.06215 1.12104 0
M  V30 200 H 17.4602 -3.26154 0.170631 0
M  V30 201 H 16.1192 -2.8797 2.26868 0
M  V30 202 H 15.7672 -4.94759 0.906796 0
M  V30 203 H 15.4672 -5.25139 2.63634 0
M  V30 204 H 16.9912 -5.80694 1.88749 0
M  V30 205 H 18.4052 -4.40227 3.67251 0
M  V30 206 H 16.8022 -4.08405 4.39688 0
M  V30 207 H 17.8722 -2.72404 4.01154 0
M  V30 208 N 19.2153 -1.21501 -1.00376 0
M  V30 209 C 20.4633 -1.03095 -1.73827 0
M  V30 210 C 20.7843 0.436341 -1.90055 0
M  V30 211 O 20.0543 1.31466 -1.45236 0
M  V30 212 H 18.6343 -0.378487 -0.644016 0
M  V30 213 H 21.2963 -1.52831 -1.20949 0
M  V30 214 H 20.3923 -1.49991 -2.73695 0
M  V30 215 N 20.6934 1.19889 -1.02296 0
M  V30 216 C 21.9394 1.89701 -0.717033 0
M  V30 217 C 22.2724 1.7905 0.751989 0
M  V30 218 O 21.5474 1.17891 1.547 0
M  V30 219 C 21.8304 3.40858 -1.16136 0
M  V30 220 C 21.6834 3.60411 -2.69117 0
M  V30 221 C 23.0024 4.33876 -0.737549 0
M  V30 222 H 20.1214 0.688874 -0.261957 0
M  V30 223 H 22.7634 1.41154 -1.27183 0
M  V30 224 H 20.9134 3.82335 -0.689342 0
M  V30 225 H 22.5854 3.28145 -3.2422 0
M  V30 226 H 20.8284 3.03665 -3.0979 0
M  V30 227 H 21.4994 4.66396 -2.95261 0
M  V30 228 H 23.9754 4.00081 -1.14344 0
M  V30 229 H 22.8514 5.38242 -1.0764 0
M  V30 230 H 23.1124 4.40628 0.360436 0
M  V30 231 N 22.1715 0.800033 1.35784 0
M  V30 232 C 23.1015 0.220184 2.3246 0
M  V30 233 C 24.0825 -0.65073 1.57161 0
M  V30 234 O 25.2675 -0.582359 1.85263 0
M  V30 235 C 22.3975 -0.637353 3.41402 0
M  V30 236 C 21.3515 0.134531 4.27789 0
M  V30 237 C 20.6775 -0.844285 5.27992 0
M  V30 238 C 21.9775 1.32979 5.05088 0
M  V30 239 H 23.6715 1.02787 2.81203 0
M  V30 240 H 21.2175 0.495717 1.35199 0
M  V30 241 H 23.1705 -1.05302 4.08031 0
M  V30 242 H 21.8945 -1.47785 2.91251 0
M  V30 243 H 20.5535 0.531296 3.6273 0
M  V30 244 H 20.2015 -1.68011 4.74111 0
M  V30 245 H 19.9015 -0.332184 5.8666 0
M  V30 246 H 21.4255 -1.2583 5.97494 0
M  V30 247 H 22.8395 0.98934 5.64699 0
M  V30 248 H 21.2365 1.77593 5.7322 0
M  V30 249 H 22.3065 2.11978 4.36111 0
M  V30 250 N 23.6496 -1.47581 0.552962 0
M  V30 251 C 24.5966 -2.29957 -0.197108 0
M  V30 252 C 25.5666 -1.38799 -0.912359 0
M  V30 253 O 26.7516 -1.67761 -0.908888 0
M  V30 254 C 23.8916 -3.22672 -1.22379 0
M  V30 255 C 23.0046 -4.28919 -0.515038 0
M  V30 256 C 22.1396 -5.0879 -1.52664 0
M  V30 257 C 21.1786 -6.06815 -0.802631 0
M  V30 258 N 20.3156 -6.7966 -1.76086 0
M  V30 259 H 25.1556 -2.93578 0.511486 0
M  V30 260 H 22.6926 -1.4471 0.264067 0
M  V30 261 H 24.6506 -3.74845 -1.83159 0
M  V30 262 H 23.2806 -2.60925 -1.90047 0
M  V30 263 H 22.3326 -3.79835 0.207192 0
M  V30 264 H 23.6446 -4.98773 0.0523425 0
M  V30 265 H 22.7986 -5.65091 -2.20809 0
M  V30 266 H 21.5376 -4.38828 -2.12794 0
M  V30 267 H 20.5426 -5.49695 -0.107238 0
M  V30 268 H 21.7676 -6.78784 -0.207135 0
M  V30 269 H 19.7136 -6.12432 -2.35081 0
M  V30 270 H 19.6306 -7.45669 -1.24552 0
M  V30 271 H 20.8986 -7.40538 -2.43359 0
M  V30 272 N 25.1277 -0.289203 -1.54924 0
M  V30 273 C 26.3677 0.324536 -2.01807 0
M  V30 274 C 26.7317 1.5199 -1.17316 0
M  V30 275 O 27.9327 2.20422 -1.53843 0
M  V30 276 C 26.2037 0.683578 -3.50802 0
M  V30 277 S 27.7627 1.28185 -4.19659 0
M  V30 278 H 24.5807 0.100236 -0.703899 0
M  V30 279 H 27.1827 -0.414325 -1.91059 0
M  V30 280 H 25.8867 -0.195073 -4.09936 0
M  V30 281 H 25.4177 1.45354 -3.65562 0
M  V30 282 H 27.4327 2.57006 -4.24456 0
M  V30 283 N 26.6058 1.57591 -0.0167156 0
M  V30 284 C 27.5688 2.08393 0.954204 0
M  V30 285 C 28.5688 0.996531 1.26198 0
M  V30 286 O 29.7588 1.25858 1.20438 0
M  V30 287 C 26.8908 2.5394 2.27436 0
M  V30 288 H 28.0838 2.95455 0.514451 0
M  V30 289 H 25.6368 1.54582 0.231089 0
M  V30 290 H 26.3718 1.70171 2.76066 0
M  V30 291 H 26.1568 3.33371 2.06412 0
M  V30 292 H 27.6468 2.93512 2.97053 0
M  V30 293 N 28.0839 -0.256276 1.55502 0
M  V30 294 C 29.3309 -0.985619 1.76895 0
M  V30 295 C 29.6589 -1.85671 0.579355 0
M  V30 296 O 28.9139 -1.90744 -0.437651 0
M  V30 297 C 29.2129 -1.88432 3.03691 0
M  V30 298 C 28.8789 -1.16936 4.35473 0
M  V30 299 C 27.5409 -0.97173 4.71286 0
M  V30 300 C 29.8929 -0.661889 5.1698 0
M  V30 301 C 27.2209 -0.254179 5.86149 0
M  V30 302 C 29.5729 0.042149 6.32586 0
M  V30 303 C 28.2369 0.25134 6.67027 0
M  V30 304 H 27.5069 -0.360663 0.647304 0
M  V30 305 H 30.1539 -0.256483 1.89775 0
M  V30 306 H 28.4589 -2.68021 2.85783 0
M  V30 307 H 30.1559 -2.45015 3.1744 0
M  V30 308 H 26.7459 -1.33332 4.07333 0
M  V30 309 H 30.9299 -0.802145 4.89775 0
M  V30 310 H 26.1859 -0.0815408 6.11346 0
M  V30 311 H 30.3599 0.443049 6.94989 0
M  V30 312 H 27.9869 0.809314 7.5588 0
M  V30 313 N 29.562 -1.4872 -0.521534 0
M  V30 314 C 30.51 -1.64328 -1.64618 0
M  V30 315 C 31.504 -0.50953 -1.61555 0
M  V30 316 O 32.71 -0.688525 -1.66311 0
M  V30 317 H 29.085 -0.517805 -0.545328 0
M  V30 318 H 31.056 -2.58767 -1.48601 0
M  V30 319 C 29.805 -1.70805 -3.02855 0
M  V30 320 H 29.128 -2.5741 -3.05909 0
M  V30 321 H 30.568 -1.85766 -3.81139 0
M  V30 322 C 29.027 -0.448479 -3.33902 0
M  V30 323 O 29.557 0.434928 -3.99339 0
M  V30 324 N 27.763 -0.317616 -2.88859 0
M  V30 325 H 27.31 -1.03748 -2.35784 0
M  V30 326 H 27.268 0.524113 -3.10001 0
M  V30 327 N 31.0401 0.771051 -1.3745 0
M  V30 328 C 32.0031 1.86598 -1.33093 0
M  V30 329 C 33.0031 1.59076 -0.234845 0
M  V30 330 O 34.1931 1.67145 -0.490732 0
M  V30 331 C 31.3251 3.23747 -1.06773 0
M  V30 332 H 32.5181 1.91873 -2.30488 0
M  V30 333 H 30.0711 0.970876 -1.2249 0
M  V30 334 H 30.8061 3.24148 -0.099129 0
M  V30 335 H 30.5911 3.45115 -1.86112 0
M  V30 336 H 32.0811 4.03824 -1.06377 0
M  V30 337 N 32.5182 1.22032 0.997298 0
M  V30 338 C 33.7662 1.04016 1.73278 0
M  V30 339 C 34.0872 -0.426255 1.90284 0
M  V30 340 O 33.3572 -1.30694 1.45931 0
M  V30 341 H 31.9372 0.381897 0.642 0
M  V30 342 H 34.5992 1.5347 1.20137 0
M  V30 343 H 33.6952 1.51441 2.72896 0
M  V30 344 N 33.9963 -1.19345 1.0293 0
M  V30 345 C 35.2423 -1.89318 0.727083 0
M  V30 346 C 35.5753 -1.79446 -0.742483 0
M  V30 347 O 34.8503 -1.1871 -1.54072 0
M  V30 348 C 35.1333 -3.40238 1.17942 0
M  V30 349 C 34.9863 -3.58979 2.71024 0
M  V30 350 C 36.3053 -4.33479 0.760548 0
M  V30 351 H 33.4243 -0.687475 0.265606 0
M  V30 352 H 36.0663 -1.40477 1.2793 0
M  V30 353 H 34.2163 -3.81964 0.709608 0
M  V30 354 H 35.8883 -3.26421 3.25955 0
M  V30 355 H 34.1313 -3.02018 3.11396 0
M  V30 356 H 34.8023 -4.64823 2.9773 0
M  V30 357 H 37.2783 -3.99469 1.16464 0
M  V30 358 H 36.1543 -5.37664 1.10493 0
M  V30 359 H 36.4153 -4.40813 -0.337063 0
M  V30 360 N 35.4744 -0.807222 -1.35358 0
M  V30 361 C 36.4214 -0.216037 -2.29787 0
M  V30 362 C 37.3914 0.650278 -1.52842 0
M  V30 363 O 38.5764 0.595227 -1.81278 0
M  V30 364 C 35.7164 0.628893 -3.39321 0
M  V30 365 C 34.8294 -0.257927 -4.31229 0
M  V30 366 C 33.9644 0.595069 -5.27856 0
M  V30 367 C 33.0034 -0.292111 -6.11403 0
M  V30 368 N 32.1404 0.520895 -7.00165 0
M  V30 369 H 36.9804 -1.02671 -2.79755 0
M  V30 370 H 34.5174 -0.517839 -1.37684 0
M  V30 371 H 36.4754 1.13393 -4.01494 0
M  V30 372 H 35.1054 1.40482 -2.90628 0
M  V30 373 H 34.1574 -0.881076 -3.70056 0
M  V30 374 H 35.4694 -0.940759 -4.89848 0
M  V30 375 H 34.6234 1.16522 -5.95405 0
M  V30 376 H 33.3624 1.31146 -4.69736 0
M  V30 377 H 32.3674 -0.874525 -5.428 0
M  V30 378 H 33.5924 -1.00638 -6.71602 0
M  V30 379 H 31.5384 1.22125 -6.44532 0
M  V30 380 H 31.4554 -0.103877 -7.55929 0
M  V30 381 H 32.7234 1.0743 -7.72062 0
M  V30 382 N 36.9525 1.47285 -0.560781 0
M  V30 383 C 38.1985 2.02764 -0.0381184 0
M  V30 384 C 38.5315 1.43384 1.30976 0
M  V30 385 O 37.8065 0.590733 1.85312 0
M  V30 386 C 38.0895 3.60064 0.0511427 0
M  V30 387 C 37.9425 4.2987 -1.32408 0
M  V30 388 C 39.2615 4.33439 0.762795 0
M  V30 389 H 36.3805 0.736841 -0.0153264 0
M  V30 390 H 39.0225 1.75675 -0.723759 0
M  V30 391 H 37.1725 3.83274 0.635065 0
M  V30 392 H 38.8445 4.17989 -1.95148 0
M  V30 393 H 37.0875 3.90085 -1.8978 0
M  V30 394 H 37.7585 5.38478 -1.21431 0
M  V30 395 H 40.2345 4.15243 0.266965 0
M  V30 396 H 39.1105 5.43124 0.794221 0
M  V30 397 H 39.3715 4.02915 1.81966 0
M  V30 398 N 38.4306 0.297415 1.54768 0
M  V30 399 C 39.3776 -0.580276 2.23386 0
M  V30 400 C 40.3476 -1.13238 1.21517 0
M  V30 401 O 41.5326 -1.17757 1.50126 0
M  V30 402 C 38.6726 -1.74801 2.97555 0
M  V30 403 C 37.7856 -1.22764 4.1419 0
M  V30 404 C 36.9206 -2.35895 4.75949 0
M  V30 405 C 35.9596 -1.80974 5.84735 0
M  V30 406 N 35.0966 -2.87664 6.40464 0
M  V30 407 H 39.9366 0.0114833 2.97998 0
M  V30 408 H 37.4736 0.0174361 1.4709 0
M  V30 409 H 39.4316 -2.43475 3.38786 0
M  V30 410 H 38.0616 -2.31145 2.25326 0
M  V30 411 H 37.1136 -0.433271 3.77924 0
M  V30 412 H 38.4256 -0.785551 4.92575 0
M  V30 413 H 37.5796 -3.12523 5.20014 0
M  V30 414 H 36.3186 -2.83429 3.96887 0
M  V30 415 H 35.3236 -1.02834 5.40097 0
M  V30 416 H 36.5486 -1.34348 6.65678 0
M  V30 417 H 34.4946 -3.34538 5.64287 0
M  V30 418 H 34.4116 -2.4794 7.14186 0
M  V30 419 H 35.6796 -3.642 6.89187 0
M  V30 420 N 39.9087 -1.5758 0.0250728 0
M  V30 421 C 41.1337 -1.96337 -0.668317 0
M  V30 422 C 41.5587 -0.901314 -1.651 0
M  V30 423 O 40.9167 0.138187 -1.80773 0
M  V30 424 C 40.9647 -3.34191 -1.35457 0
M  V30 425 O 40.0687 -3.30269 -2.46974 0
M  V30 426 H 39.4097 -0.640281 -0.175887 0
M  V30 427 H 41.9397 -2.0442 0.0857224 0
M  V30 428 H 41.9497 -3.70331 -1.71228 0
M  V30 429 H 40.6247 -4.11036 -0.634218 0
M  V30 430 H 39.2017 -3.05841 -2.13344 0
M  V30 431 N 41.3868 0.248026 -1.55636 0
M  V30 432 C 42.3498 1.29044 -1.89421 0
M  V30 433 C 43.3498 1.41134 -0.770581 0
M  V30 434 O 44.5398 1.39854 -1.03858 0
M  V30 435 C 41.6718 2.66831 -2.12165 0
M  V30 436 H 42.8648 1.00305 -2.82629 0
M  V30 437 H 40.4178 0.487265 -1.48511 0
M  V30 438 H 41.1528 3.00711 -1.21422 0
M  V30 439 H 40.9378 2.59438 -2.93997 0
M  V30 440 H 42.4278 3.42103 -2.3949 0
M  V30 441 N 42.8649 1.48995 0.513639 0
M  V30 442 C 43.8279 1.64229 1.59879 0
M  V30 443 C 44.8279 0.514696 1.5234 0
M  V30 444 O 46.0179 0.78087 1.55718 0
M  V30 445 C 43.1499 1.62783 2.99524 0
M  V30 446 H 44.3429 2.61004 1.47705 0
M  V30 447 H 41.8959 1.37837 0.736936 0
M  V30 448 H 42.6309 0.675461 3.17188 0
M  V30 449 H 42.4159 2.4466 3.06404 0
M  V30 450 H 43.9059 1.76669 3.78388 0
M  V30 451 N 44.343 -0.763751 1.37857 0
M  V30 452 C 45.253 -1.90817 1.36478 0
M  V30 453 C 46.269 -1.71997 0.263248 0
M  V30 454 O 47.445 -1.95095 0.499979 0
M  V30 455 C 44.51 -3.2605 1.17864 0
M  V30 456 C 43.571 -3.57467 2.3773 0
M  V30 457 C 42.804 -4.86249 2.19995 0
M  V30 458 O 43.027 -5.57884 1.18836 0
M  V30 459 O 41.961 -5.16911 3.08361 0
M  V30 460 H 45.787 -1.94933 2.32884 0
M  V30 461 H 43.372 -0.907619 1.1867 0
M  V30 462 H 45.254 -4.06924 1.09504 0
M  V30 463 H 43.929 -3.22769 0.245372 0
M  V30 464 H 42.836 -2.76796 2.51664 0
M  V30 465 H 44.169 -3.655 3.29652 0
M  V30 466 N 45.8211 -1.22559 -0.990812 0
M  V30 467 C 47.0671 -1.05297 -1.73322 0
M  V30 468 C 47.4001 0.410655 -1.89808 0
M  V30 469 O 46.6751 1.30439 -1.44277 0
M  V30 470 C 46.9581 -1.76713 -3.13759 0
M  V30 471 C 46.8111 -3.30684 -3.04907 0
M  V30 472 C 48.1301 -1.52121 -4.12974 0
M  V30 473 H 45.2491 -0.38392 -0.629106 0
M  V30 474 H 47.8911 -1.50926 -1.15418 0
M  V30 475 H 46.0411 -1.37924 -3.63193 0
M  V30 476 H 47.7131 -3.7893 -2.63077 0
M  V30 477 H 45.9561 -3.60253 -2.41661 0
M  V30 478 H 46.6271 -3.75833 -4.04294 0
M  V30 479 H 49.1031 -1.85819 -3.72304 0
M  V30 480 H 47.9791 -2.04582 -5.0935 0
M  V30 481 H 48.2401 -0.454257 -4.3976 0
M  V30 482 N 47.2992 1.18797 -1.03562 0
M  V30 483 C 48.5472 1.88278 -0.734569 0
M  V30 484 C 48.8682 1.8043 0.739586 0
M  V30 485 O 48.1382 1.21925 1.53333 0
M  V30 486 H 46.7182 0.696991 -0.268725 0
M  V30 487 H 49.3802 1.44192 -1.31129 0
M  V30 488 H 48.4762 2.94443 -1.03489 0
M  V30 489 N 48.7773 0.814389 1.34928 0
M  V30 490 C 49.7243 0.22822 2.29669 0
M  V30 491 C 50.6943 -0.642164 1.53184 0
M  V30 492 O 51.8793 -0.585605 1.81591 0
M  V30 493 C 49.0193 -0.61089 3.3965 0
M  V30 494 C 48.1323 0.280792 4.31086 0
M  V30 495 C 47.2673 -0.567067 5.28165 0
M  V30 496 C 46.3063 0.324531 6.11239 0
M  V30 497 N 45.4433 -0.483756 7.00431 0
M  V30 498 H 50.2833 1.04153 2.79206 0
M  V30 499 H 47.8203 0.525133 1.37407 0
M  V30 500 H 49.7783 -1.11263 4.0209 0
M  V30 501 H 48.4083 -1.38939 2.91369 0
M  V30 502 H 47.4603 0.900688 3.69583 0
M  V30 503 H 48.7723 0.966723 4.89342 0
M  V30 504 H 47.9263 -1.13363 5.96015 0
M  V30 505 H 46.6653 -1.28654 4.70425 0
M  V30 506 H 45.6703 0.903298 5.42329 0
M  V30 507 H 46.8953 1.04198 6.71059 0
M  V30 508 H 44.8413 -1.18706 6.45171 0
M  V30 509 H 44.7583 0.143965 7.55863 0
M  V30 510 H 46.0263 -1.03334 7.7262 0
M  V30 511 N 50.2554 -1.46986 0.568584 0
M  V30 512 C 51.6714 -1.57946 0.229189 0
M  V30 513 C 51.8714 -1.56567 -1.26843 0
M  V30 514 O 50.9274 -1.47511 -2.04931 0
M  V30 515 C 52.2404 -2.87963 0.865909 0
M  V30 516 C 53.7884 -3.01568 0.838188 0
M  V30 517 C 54.2634 -4.34301 1.45419 0
M  V30 518 N 55.7544 -4.40965 1.41788 0
M  V30 519 C 56.4894 -5.42256 1.86403 0
M  V30 520 N 55.9854 -6.50297 2.38926 0
M  V30 521 N 57.7784 -5.3337 1.77405 0
M  V30 522 H 49.9294 -1.46126 1.54146 0
M  V30 523 H 52.1924 -0.696156 0.643484 0
M  V30 524 H 51.8984 -2.94742 1.91886 0
M  V30 525 H 51.7724 -3.75423 0.365687 0
M  V30 526 H 54.1594 -2.94379 -0.206106 0
M  V30 527 H 54.2404 -2.1562 1.37629 0
M  V30 528 H 53.8844 -4.42247 2.49761 0
M  V30 529 H 53.8144 -5.19 0.891435 0
M  V30 530 H 56.3054 -3.63484 1.03381 0
M  V30 531 H 56.6184 -7.23777 2.70863 0
M  V30 532 H 54.9634 -6.51155 2.42944 0
M  V30 533 H 58.1544 -4.47865 1.3614 0
M  V30 534 H 58.3274 -6.12169 2.12492 0
M  V30 535 N 51.7335 -0.305618 -1.54608 0
M  V30 536 C 52.6965 0.555591 -2.22364 0
M  V30 537 C 53.6965 1.05768 -1.21119 0
M  V30 538 O 54.8865 0.952972 -1.45822 0
M  V30 539 C 52.0185 1.76974 -2.91364 0
M  V30 540 H 53.2115 -0.0364572 -2.99878 0
M  V30 541 H 50.7645 -0.0565007 -1.56198 0
M  V30 542 H 51.4995 2.40151 -2.17941 0
M  V30 543 H 51.2845 1.41732 -3.65588 0
M  V30 544 H 52.7745 2.38148 -3.43038 0
M  V30 545 N 53.2116 1.57565 -0.0334293 0
M  V30 546 C 54.4576 1.92262 0.645226 0
M  V30 547 C 54.7906 0.910543 1.71531 0
M  V30 548 O 54.0656 -0.066099 1.94388 0
M  V30 549 C 54.3486 3.37422 1.2577 0
M  V30 550 C 54.2016 4.49369 0.196891 0
M  V30 551 C 55.5206 3.82628 2.17449 0
M  V30 552 H 52.6396 0.699171 0.233085 0
M  V30 553 H 55.2816 1.89779 -0.0915694 0
M  V30 554 H 53.4316 3.39669 1.88566 0
M  V30 555 H 55.1036 4.59254 -0.433962 0
M  V30 556 H 53.3466 4.31168 -0.477137 0
M  V30 557 H 54.0176 5.47978 0.665124 0
M  V30 558 H 56.4936 3.82145 1.64634 0
M  V30 559 H 55.3696 4.84883 2.57254 0
M  V30 560 H 55.6306 3.18376 3.0674 0
M  V30 561 N 54.6897 -0.239769 1.55765 0
M  V30 562 C 55.5997 -1.31831 1.94056 0
M  V30 563 C 56.6157 -1.52275 0.841925 0
M  V30 564 O 57.7917 -1.65759 1.14394 0
M  V30 565 C 54.8567 -2.65156 2.23368 0
M  V30 566 C 53.9177 -2.53173 3.46701 0
M  V30 567 C 53.1507 -3.8014 3.74606 0
M  V30 568 O 53.3737 -4.82343 3.04469 0
M  V30 569 O 52.3077 -3.78344 4.68123 0
M  V30 570 H 56.1337 -1.02347 2.85935 0
M  V30 571 H 53.7187 -0.441123 1.42739 0
M  V30 572 H 55.6007 -3.43929 2.43497 0
M  V30 573 H 54.2757 -2.94358 1.34666 0
M  V30 574 H 53.1827 -1.72662 3.31871 0
M  V30 575 H 54.5157 -2.28915 4.35728 0
M  V30 576 N 56.1678 -1.49265 -0.50573 0
M  V30 577 C 57.3978 -1.61979 -1.28243 0
M  V30 578 C 57.8058 -0.288576 -1.86986 0
M  V30 579 O 57.1488 0.735408 -1.68337 0
M  V30 580 C 57.2108 -2.62632 -2.45489 0
M  V30 581 C 56.8748 -4.071 -2.07651 0
M  V30 582 C 57.8718 -4.94049 -1.61901 0
M  V30 583 C 55.5568 -4.52801 -2.17431 0
M  V30 584 C 57.5508 -6.24736 -1.26428 0
M  V30 585 C 55.2378 -5.83503 -1.8157 0
M  V30 586 C 56.2358 -6.69294 -1.36142 0
M  V30 587 O 55.9238 -7.9756 -1.00764 0
M  V30 588 H 55.6558 -0.54834 -0.395347 0
M  V30 589 H 58.2098 -1.96002 -0.614204 0
M  V30 590 H 56.4398 -2.2378 -3.15372 0
M  V30 591 H 58.1288 -2.64925 -3.07522 0
M  V30 592 H 58.8948 -4.5997 -1.53795 0
M  V30 593 H 54.7738 -3.86196 -2.51742 0
M  V30 594 H 58.3178 -6.91652 -0.908992 0
M  V30 595 H 54.2148 -6.17112 -1.89324 0
M  V30 596 H 54.9828 -8.10529 -1.13952 0
M  V30 597 N 57.6459 0.756429 -1.3826 0
M  V30 598 C 58.8929 1.51547 -1.34312 0
M  V30 599 C 59.2209 1.94382 0.0677144 0
M  V30 600 O 58.4759 1.65514 1.04421 0
M  V30 601 C 58.7749 2.78313 -2.24224 0
M  V30 602 C 58.4409 2.54455 -3.72241 0
M  V30 603 C 57.1029 2.47657 -4.12576 0
M  V30 604 C 59.4549 2.3354 -4.65949 0
M  V30 605 C 56.7829 2.17956 -5.44713 0
M  V30 606 C 59.1349 2.05359 -5.9834 0
M  V30 607 C 57.7989 1.97016 -6.37762 0
M  V30 608 H 57.0689 0.55455 -0.491482 0
M  V30 609 H 59.7159 0.870039 -1.70595 0
M  V30 610 H 58.0209 3.47492 -1.80987 0
M  V30 611 H 59.7179 3.36259 -2.18474 0
M  V30 612 H 56.3079 2.60616 -3.40261 0
M  V30 613 H 60.4919 2.37772 -4.35635 0
M  V30 614 H 55.7479 2.10003 -5.74203 0
M  V30 615 H 59.9219 1.88179 -6.70494 0
M  V30 616 H 57.5489 1.73766 -7.40074 0
M  V30 617 N 59.124 1.23083 0.984299 0
M  V30 618 C 60.54 0.992637 1.24975 0
M  V30 619 C 60.74 -0.308618 1.99123 0
M  V30 620 O 59.796 -1.02905 2.30579 0
M  V30 621 C 61.109 2.19698 2.05312 0
M  V30 622 C 62.657 2.24147 2.18465 0
M  V30 623 C 63.132 3.44157 3.02192 0
M  V30 624 N 64.623 3.44372 3.09777 0
M  V30 625 C 65.358 4.33886 3.74874 0
M  V30 626 N 64.854 5.3363 4.41827 0
M  V30 627 N 66.647 4.21639 3.71721 0
M  V30 628 H 58.798 2.06731 0.487453 0
M  V30 629 H 61.061 0.906339 0.277944 0
M  V30 630 H 60.767 3.1411 1.58201 0
M  V30 631 H 60.641 2.20465 3.06064 0
M  V30 632 H 63.028 1.30277 2.64786 0
M  V30 633 H 63.109 2.27415 1.17115 0
M  V30 634 H 62.753 4.38332 2.56568 0
M  V30 635 H 62.683 3.3813 4.03702 0
M  V30 636 H 65.174 2.72201 2.62135 0
M  V30 637 H 65.487 5.98196 4.89266 0
M  V30 638 H 63.832 5.37534 4.40548 0
M  V30 639 H 67.023 3.42962 3.18582 0
M  V30 640 H 67.196 4.91604 4.22173 0
M  V30 641 N 60.6021 -1.18246 1.0419 0
M  V30 642 C 61.8501 -1.87886 0.744543 0
M  V30 643 C 62.1711 -1.8082 -0.730006 0
M  V30 644 O 61.4411 -1.22736 -1.52685 0
M  V30 645 H 60.0211 -0.695556 0.272417 0
M  V30 646 H 62.6831 -1.43494 1.31892 0
M  V30 647 H 61.7791 -2.9389 1.05049 0
M  V30 648 N 62.0802 -0.821533 -1.34494 0
M  V30 649 C 63.3572 -0.33159 -1.92769 0
M  V30 650 C 63.7372 1.18088 -1.74981 0
M  V30 651 O 63.0852 1.98733 -1.12772 0
M  V30 652 C 63.2952 -0.759398 -3.40638 0
M  V30 653 C 64.6432 -0.757433 -4.1779 0
M  V30 654 O 65.6672 -0.70189 -3.49216 0
M  V30 655 O 64.5262 -0.829361 -5.4017 0
M  V30 656 H 61.6202 -0.0902502 -0.822061 0
M  V30 657 H 64.1662 -0.906231 -1.43477 0
M  V30 658 H 62.9382 -1.8012 -3.47379 0
M  V30 659 H 62.5612 -0.160378 -3.97276 0
M  V30 660 N 63.5583 1.46682 -0.576371 0
M  V30 661 C 64.8353 1.95599 0.00703437 0
M  V30 662 C 65.2153 1.51904 1.46589 0
M  V30 663 O 64.5633 0.766755 2.15251 0
M  V30 664 C 64.7733 3.4864 -0.158404 0
M  V30 665 C 66.1213 4.24594 -0.0229439 0
M  V30 666 O 67.1453 3.56094 -0.0869173 0
M  V30 667 O 66.0043 5.46373 0.118015 0
M  V30 668 H 63.0983 0.825275 0.053384 0
M  V30 669 H 65.6443 1.56996 -0.644244 0
M  V30 670 H 64.4163 3.7331 -1.17282 0
M  V30 671 H 64.0393 3.94057 0.5296 0
M  V30 672 N 65.0364 0.313813 1.54444 0
M  V30 673 C 66.2834 -0.291675 2.00388 0
M  V30 674 C 66.6114 -1.52904 1.2021 0
M  V30 675 O 65.8664 -1.93833 0.269707 0
M  V30 676 C 66.1654 -0.680386 3.50864 0
M  V30 677 C 65.8314 0.456699 4.48581 0
M  V30 678 C 64.4934 0.768824 4.75018 0
M  V30 679 C 66.8454 1.22098 5.06697 0
M  V30 680 C 64.1734 1.84812 5.56831 0
M  V30 681 C 66.5254 2.29029 5.89685 0
M  V30 682 C 65.1894 2.60834 6.14428 0
M  V30 683 H 64.4594 -0.106732 0.733273 0
M  V30 684 H 67.1064 0.43557 1.86481 0
M  V30 685 H 65.4114 -1.48791 3.62448 0
M  V30 686 H 67.1084 -1.16026 3.83847 0
M  V30 687 H 63.6984 0.203337 4.28117 0
M  V30 688 H 67.8824 0.993096 4.86263 0
M  V30 689 H 63.1384 2.09912 5.74236 0
M  V30 690 H 67.3124 2.887 6.33739 0
M  V30 691 H 64.9394 3.44596 6.77612 0
M  V30 692 N 66.5145 -1.57545 0.0417849 0
M  V30 693 C 67.7605 -1.92601 -0.635021 0
M  V30 694 C 68.0935 -0.919627 -1.71045 0
M  V30 695 O 67.3685 0.0557892 -1.9442 0
M  V30 696 C 67.6515 -3.38085 -1.23979 0
M  V30 697 C 67.5045 -4.49467 -0.173057 0
M  V30 698 C 68.8235 -3.83776 -2.15416 0
M  V30 699 H 65.9425 -0.700397 -0.229374 0
M  V30 700 H 68.5845 -1.89728 0.101633 0
M  V30 701 H 66.7345 -3.40664 -1.86762 0
M  V30 702 H 68.4065 -4.59018 0.458312 0
M  V30 703 H 66.6495 -4.30909 0.499996 0
M  V30 704 H 67.3205 -5.48323 -0.636054 0
M  V30 705 H 69.7965 -3.83013 -1.62605 0
M  V30 706 H 68.6725 -4.8624 -2.54679 0
M  V30 707 H 68.9335 -3.19998 -3.05047 0
M  V30 708 N 67.9926 0.231505 -1.5589 0
M  V30 709 C 68.9406 1.30649 -1.92441 0
M  V30 710 C 69.9346 1.49037 -0.805254 0
M  V30 711 O 71.1406 1.50329 -0.990007 0
M  V30 712 H 67.5156 0.437812 -0.611412 0
M  V30 713 H 69.4866 0.970973 -2.82161 0
M  V30 714 C 68.2356 2.65179 -2.24889 0
M  V30 715 H 67.5586 2.51835 -3.10514 0
M  V30 716 H 68.9986 3.39234 -2.54355 0
M  V30 717 C 67.4576 3.19439 -1.07054 0
M  V30 718 O 67.9876 4.00371 -0.326499 0
M  V30 719 N 66.1936 2.77675 -0.85703 0
M  V30 720 H 65.7406 2.11969 -1.46379 0
M  V30 721 H 65.6986 3.14321 -0.0703223 0
M  V30 722 N 69.4707 1.49531 0.497807 0
M  V30 723 C 70.7177 1.59179 1.25173 0
M  V30 724 C 71.0457 0.279932 1.92475 0
M  V30 725 O 70.3007 -0.732383 1.81479 0
M  V30 726 C 70.5997 2.70252 2.33878 0
M  V30 727 C 70.2657 4.11644 1.84012 0
M  V30 728 C 68.9277 4.50121 1.70132 0
M  V30 729 C 71.2797 5.00121 1.46725 0
M  V30 730 C 68.6077 5.74845 1.17348 0
M  V30 731 C 70.9597 6.25366 0.95392 0
M  V30 732 C 69.6237 6.6267 0.801538 0
M  V30 733 H 68.8937 0.582478 0.45804 0
M  V30 734 H 71.5407 1.83373 0.551948 0
M  V30 735 H 69.8457 2.40041 3.09657 0
M  V30 736 H 71.5427 2.74925 2.9192 0
M  V30 737 H 68.1327 3.81274 1.95775 0
M  V30 738 H 72.3167 4.71048 1.56294 0
M  V30 739 H 67.5727 6.02444 1.04264 0
M  V30 740 H 71.7467 6.93301 0.656225 0
M  V30 741 H 69.3737 7.59197 0.390351 0
M  V30 742 N 70.9488 -0.749086 1.3866 0
M  V30 743 C 71.8788 -1.8764 1.38973 0
M  V30 744 C 72.8598 -1.68178 0.255004 0
M  V30 745 O 74.0448 -1.88704 0.458754 0
M  V30 746 C 71.1748 -3.25222 1.21851 0
M  V30 747 C 70.1288 -3.59295 2.32575 0
M  V30 748 C 69.4548 -4.95663 2.00555 0
M  V30 749 C 70.7548 -3.63709 3.7485 0
M  V30 750 H 72.4488 -1.87635 2.3331 0
M  V30 751 H 69.9948 -0.901329 1.12303 0
M  V30 752 H 71.9478 -4.03746 1.20695 0
M  V30 753 H 70.6718 -3.25719 0.239775 0
M  V30 754 H 69.3308 -2.83093 2.32925 0
M  V30 755 H 68.9788 -4.92724 1.01154 0
M  V30 756 H 68.6788 -5.19429 2.74714 0
M  V30 757 H 70.2028 -5.7656 2.01024 0
M  V30 758 H 71.6168 -4.32338 3.76506 0
M  V30 759 H 70.0138 -3.98986 4.48252 0
M  V30 760 H 71.0838 -2.63834 4.06841 0
M  V30 761 N 72.4269 -1.23603 -0.977757 0
M  V30 762 C 73.6519 -1.09735 -1.75991 0
M  V30 763 C 74.0769 0.346858 -1.84874 0
M  V30 764 O 73.4349 1.25093 -1.3123 0
M  V30 765 C 73.4829 -1.73051 -3.16363 0
M  V30 766 O 72.5869 -0.994452 -4.0023 0
M  V30 767 H 71.9279 -0.384476 -0.541364 0
M  V30 768 H 74.4579 -1.6371 -1.2272 0
M  V30 769 H 74.4679 -1.78398 -3.66931 0
M  V30 770 H 73.1429 -2.78137 -3.09213 0
M  V30 771 H 71.7199 -1.01812 -3.58732 0
M  V30 772 N 73.905 1.17692 -1.04816 0
M  V30 773 C 75.133 1.91786 -0.776254 0
M  V30 774 C 75.548 1.76604 0.667577 0
M  V30 775 O 74.905 1.10067 1.45573 0
M  V30 776 C 74.956 3.42967 -1.14263 0
M  V30 777 O 74.677 3.57678 -2.52978 0
M  V30 778 C 76.178 4.34144 -0.896311 0
M  V30 779 H 73.398 0.608624 -0.282519 0
M  V30 780 H 75.942 1.49268 -1.39783 0
M  V30 781 H 74.097 3.83245 -0.565874 0
M  V30 782 H 74.511 4.51319 -2.67229 0
M  V30 783 H 75.985 5.38744 -1.20244 0
M  V30 784 H 76.462 4.38876 0.168636 0
M  V30 785 H 77.068 3.99574 -1.45672 0
M  V30 786 N 75.3831 0.828654 1.34056 0
M  V30 787 C 76.3311 0.242973 2.31327 0
M  V30 788 C 77.3251 -0.61944 1.57668 0
M  V30 789 O 78.5311 -0.51014 1.7262 0
M  V30 790 H 74.9061 0.059834 0.749616 0
M  V30 791 H 76.8771 1.07809 2.78244 0
M  V30 792 C 75.6261 -0.575733 3.429 0
M  V30 793 H 74.9491 0.0785582 3.99723 0
M  V30 794 H 76.3891 -0.951547 4.13185 0
M  V30 795 C 74.8481 -1.75044 2.87856 0
M  V30 796 O 75.3781 -2.84882 2.83205 0
M  V30 797 N 73.5841 -1.56903 2.44602 0
M  V30 798 H 73.1311 -0.675547 2.48584 0
M  V30 799 H 73.0891 -2.35652 2.08124 0
M  V30 800 N 76.8612 -1.46375 0.584142 0
M  V30 801 C 78.1092 -2.01978 0.0701287 0
M  V30 802 C 78.4302 -1.4579 -1.295 0
M  V30 803 O 77.7002 -0.64314 -1.85042 0
M  V30 804 H 76.2802 -0.746648 0.0229345 0
M  V30 805 H 78.9422 -1.79461 0.760245 0
M  V30 806 H 78.0382 -3.121 0.0022064 0
M  V30 807 N 78.3393 -0.321999 -1.54275 0
M  V30 808 C 79.2493 0.553631 -2.27974 0
M  V30 809 C 80.2653 1.13054 -1.32268 0
M  V30 810 O 81.4413 1.15084 -1.6528 0
M  V30 811 C 78.5063 1.69927 -3.02201 0
M  V30 812 C 77.5673 1.15433 -4.1349 0
M  V30 813 C 76.8003 2.24537 -4.84168 0
M  V30 814 O 77.0233 3.44852 -4.5435 0
M  V30 815 O 75.9573 1.90044 -5.7111 0
M  V30 816 H 79.7833 -0.0448345 -3.03667 0
M  V30 817 H 77.3683 -0.0877418 -1.49142 0
M  V30 818 H 79.2503 2.3663 -3.48689 0
M  V30 819 H 77.9253 2.28395 -2.29385 0
M  V30 820 H 76.8323 0.452436 -3.71354 0
M  V30 821 H 78.1653 0.614805 -4.88345 0
M  V30 822 N 79.8174 1.5752 -0.0501392 0
M  V30 823 C 80.7504 2.07026 0.959962 0
M  V30 824 C 81.7284 0.970539 1.30458 0
M  V30 825 O 82.9124 1.2424 1.41763 0
M  V30 826 C 80.0394 2.5099 2.27424 0
M  V30 827 C 79.0854 3.72188 2.08275 0
M  V30 828 S 79.9184 5.17888 1.36207 0
M  V30 829 C 81.0744 5.65165 2.6896 0
M  V30 830 H 81.3074 2.9238 0.538631 0
M  V30 831 H 78.8404 1.53547 0.162099 0
M  V30 832 H 80.7984 2.76982 3.02971 0
M  V30 833 H 79.4594 1.65944 2.66686 0
M  V30 834 H 78.6524 4.00866 3.05487 0
M  V30 835 H 78.2544 3.46457 1.40868 0
M  V30 836 H 80.5464 5.70687 3.65133 0
M  V30 837 H 81.4894 6.64394 2.4492 0
M  V30 838 H 81.8974 4.9289 2.75172 0
M  V30 839 N 81.2955 -0.223234 1.56011 0
M  V30 840 C 82.2255 -1.27988 1.95298 0
M  V30 841 C 83.2065 -1.48976 0.820979 0
M  V30 842 O 84.3915 -1.61188 1.08315 0
M  V30 843 C 81.5215 -2.63 2.26822 0
M  V30 844 C 80.4755 -2.56671 3.42497 0
M  V30 845 C 79.8015 -3.95697 3.59622 0
M  V30 846 C 81.1015 -2.11601 4.77517 0
M  V30 847 H 82.7955 -0.953525 2.8381 0
M  V30 848 H 80.3415 -0.457244 1.36548 0
M  V30 849 H 82.2945 -3.37077 2.52898 0
M  V30 850 H 81.0185 -2.9732 1.35161 0
M  V30 851 H 79.6775 -1.85051 3.16467 0
M  V30 852 H 79.3255 -4.27322 2.6534 0
M  V30 853 H 79.0255 -3.92345 4.37424 0
M  V30 854 H 80.5495 -4.71438 3.88044 0
M  V30 855 H 81.9635 -2.7542 5.02809 0
M  V30 856 H 80.3605 -2.19311 5.5859 0
M  V30 857 H 81.4305 -1.06824 4.72987 0
M  V30 858 N 82.7736 -1.49793 -0.48987 0
M  V30 859 C 83.7206 -1.67281 -1.59014 0
M  V30 860 C 84.6906 -0.514177 -1.57941 0
M  V30 861 O 85.8756 -0.742533 -1.75759 0
M  V30 862 C 83.0156 -1.75569 -2.97102 0
M  V30 863 C 82.1286 -3.0281 -3.08107 0
M  V30 864 C 81.2636 -3.02008 -4.36995 0
M  V30 865 C 80.3026 -4.23782 -4.41673 0
M  V30 866 N 79.4396 -4.20826 -5.62005 0
M  V30 867 H 84.2796 -2.61224 -1.43409 0
M  V30 868 H 81.8166 -1.29508 -0.697565 0
M  V30 869 H 83.7746 -1.78354 -3.77155 0
M  V30 870 H 82.4046 -0.850827 -3.11385 0
M  V30 871 H 81.4566 -3.09584 -2.21047 0
M  V30 872 H 82.7686 -3.92801 -3.07423 0
M  V30 873 H 81.9226 -3.03418 -5.25378 0
M  V30 874 H 80.6616 -2.09815 -4.4026 0
M  V30 875 H 79.6666 -4.22604 -3.5169 0
M  V30 876 H 80.8916 -5.17181 -4.40115 0
M  V30 877 H 78.8376 -3.31476 -5.66091 0
M  V30 878 H 78.7546 -5.04564 -5.62984 0
M  V30 879 H 80.0226 -4.26355 -6.52565 0
M  V30 880 N 84.2517 0.741722 -1.39055 0
M  V30 881 C 85.1987 1.85566 -1.37237 0
M  V30 882 C 86.1687 1.64457 -0.233072 0
M  V30 883 O 87.3537 1.85957 -0.427147 0
M  V30 884 C 84.4937 3.23004 -1.215 0
M  V30 885 C 83.6067 3.55864 -2.44918 0
M  V30 886 C 82.7417 4.82669 -2.21821 0
M  V30 887 C 81.7807 5.08351 -3.40948 0
M  V30 888 N 80.9177 6.26356 -3.17211 0
M  V30 889 H 85.7577 1.86455 -2.32462 0
M  V30 890 H 83.2947 0.911176 -1.15482 0
M  V30 891 H 85.2527 4.02331 -1.10389 0
M  V30 892 H 83.8827 3.21411 -0.29908 0
M  V30 893 H 82.9347 2.7129 -2.66657 0
M  V30 894 H 84.2467 3.70765 -3.33668 0
M  V30 895 H 83.4007 5.69962 -2.07914 0
M  V30 896 H 82.1397 4.69929 -1.30454 0
M  V30 897 H 81.1447 4.19522 -3.55361 0
M  V30 898 H 82.3697 5.22981 -4.33207 0
M  V30 899 H 80.3157 6.14917 -2.28502 0
M  V30 900 H 80.2327 6.41813 -3.99515 0
M  V30 901 H 81.5007 7.16506 -3.06984 0
M  V30 902 N 85.7298 1.2412 0.971189 0
M  V30 903 C 86.6768 1.0305 2.06517 0
M  V30 904 C 87.6468 -0.0550666 1.66009 0
M  V30 905 O 88.8318 0.0988688 1.90544 0
M  V30 906 C 85.9718 0.637653 3.39158 0
M  V30 907 C 85.0848 1.79633 3.92882 0
M  V30 908 C 84.2198 1.34939 5.13775 0
M  V30 909 C 83.2588 2.47823 5.59687 0
M  V30 910 N 82.3958 2.04022 6.71803 0
M  V30 911 H 87.2358 1.96685 2.23873 0
M  V30 912 H 84.7728 0.979694 1.09729 0
M  V30 913 H 86.7308 0.390931 4.15364 0
M  V30 914 H 85.3608 -0.261693 3.21737 0
M  V30 915 H 84.4128 2.15681 3.13346 0
M  V30 916 H 85.7248 2.64466 4.22918 0
M  V30 917 H 84.8788 1.06134 5.97345 0
M  V30 918 H 83.6178 0.471557 4.85415 0
M  V30 919 H 82.6228 2.77392 4.74693 0
M  V30 920 H 83.8478 3.36158 5.90063 0
M  V30 921 H 81.7938 1.18632 6.45184 0
M  V30 922 H 81.7108 2.82409 7.01271 0
M  V30 923 H 82.9788 1.78347 7.58823 0
M  V30 924 N 87.2079 -1.17134 1.05439 0
M  V30 925 C 88.4549 -1.87456 0.765942 0
M  V30 926 C 88.7829 -1.81189 -0.707153 0
M  V30 927 O 88.0379 -1.21633 -1.5331 0
M  V30 928 C 88.3369 -3.36833 1.19491 0
M  V30 929 C 88.0029 -3.63301 2.67063 0
M  V30 930 C 86.6649 -3.70234 3.07376 0
M  V30 931 C 89.0169 -3.74575 3.62413 0
M  V30 932 C 86.3449 -3.85933 4.41896 0
M  V30 933 C 88.6969 -3.91793 4.9667 0
M  V30 934 C 87.3609 -3.96966 5.36633 0
M  V30 935 H 86.6309 -0.685948 0.280278 0
M  V30 936 H 89.2779 -1.38556 1.32192 0
M  V30 937 H 87.5829 -3.87807 0.557969 0
M  V30 938 H 89.2799 -3.89611 0.948893 0
M  V30 939 H 85.8699 -3.58532 2.34846 0
M  V30 940 H 90.0539 -3.68537 3.32406 0
M  V30 941 H 85.3099 -3.88187 4.72357 0
M  V30 942 H 89.4839 -3.99458 5.70444 0
M  V30 943 H 87.1109 -4.08883 6.40874 0
M  V30 944 N 88.686 -0.835752 -1.33615 0
M  V30 945 C 90.097 -0.487099 -1.80234 0
M  V30 946 C 90.448 0.993627 -1.69179 0
M  V30 947 O 89.573 1.77403 -1.23924 0
M  V30 948 C 90.168 -0.877385 -3.27242 0
M  V30 949 C 88.727 -0.580915 -3.7189 0
M  V30 950 C 87.874 -1.0874 -2.5509 0
M  V30 951 H 90.825 -1.02474 -1.2118 0
M  V30 952 H 90.846 -0.186195 -3.80044 0
M  V30 953 H 90.358 -1.95512 -3.35256 0
M  V30 954 H 88.459 0.486881 -3.69405 0
M  V30 955 H 88.572 -1.13396 -4.65487 0
M  V30 956 H 86.936 -0.508392 -2.49575 0
M  V30 957 H 87.719 -2.17184 -2.65868 0
M  V30 958 N 90.1641 1.46063 -0.591896 0
M  V30 959 C 91.1121 2.32124 0.148739 0
M  V30 960 C 92.1061 1.45035 0.875286 0
M  V30 961 O 93.3121 1.61609 0.792632 0
M  V30 962 H 89.6871 0.749024 0.066832 0
M  V30 963 H 91.6581 2.92392 -0.595783 0
M  V30 964 C 90.4071 3.28373 1.1431 0
M  V30 965 H 89.7301 3.95371 0.59346 0
M  V30 966 H 91.1701 3.91352 1.63155 0
M  V30 967 C 89.6291 2.54393 2.20875 0
M  V30 968 O 90.1591 2.31373 3.28374 0
M  V30 969 N 88.3651 2.14797 1.95731 0
M  V30 970 H 87.9121 2.33719 1.08319 0
M  V30 971 H 87.8701 1.65619 2.67241 0
M  V30 972 N 91.6422 0.330177 1.54103 0
M  V30 973 C 92.5722 -0.525353 2.27513 0
M  V30 974 C 93.5532 -1.11383 1.2856 0
M  V30 975 O 94.7382 -1.13773 1.57383 0
M  V30 976 C 91.8682 -1.6831 3.03791 0
M  V30 977 C 90.8222 -1.2236 4.10137 0
M  V30 978 C 90.1482 -2.46882 4.74293 0
M  V30 979 C 91.4482 -0.333697 5.21233 0
M  V30 980 H 93.1422 0.087013 2.99274 0
M  V30 981 H 90.6882 0.0432893 1.43935 0
M  V30 982 H 92.6412 -2.28795 3.5388 0
M  V30 983 H 91.3652 -2.32216 2.29659 0
M  V30 984 H 90.0242 -0.64165 3.60941 0
M  V30 985 H 89.6722 -3.09165 3.96769 0
M  V30 986 H 89.3722 -2.16825 5.46133 0
M  V30 987 H 90.8962 -3.08117 5.27159 0
M  V30 988 H 92.3102 -0.845013 5.67038 0
M  V30 989 H 90.7072 -0.125612 5.99969 0
M  V30 990 H 91.7772 0.633724 4.80741 0
M  V30 991 N 93.1203 -1.57491 0.0584922 0
M  V30 992 C 94.3673 -1.92978 -0.613648 0
M  V30 993 C 94.6953 -0.937461 -1.70417 0
M  V30 994 O 93.9503 0.049078 -1.95638 0
M  V30 995 C 94.2493 -3.3513 -1.24188 0
M  V30 996 C 93.9153 -4.50037 -0.278826 0
M  V30 997 C 92.5773 -4.81198 -0.0138447 0
M  V30 998 C 94.9293 -5.19807 0.380777 0
M  V30 999 C 92.2573 -5.79473 0.918052 0
M  V30 1000 C 94.6093 -6.19079 1.30091 0
M  V30 1001 C 93.2733 -6.48665 1.57449 0
M  V30 1002 H 92.5433 -0.706157 -0.22455 0
M  V30 1003 H 95.1903 -1.91082 0.126533 0
M  V30 1004 H 93.4953 -3.33429 -2.05749 0
M  V30 1005 H 95.1923 -3.59871 -1.769 0
M  V30 1006 H 91.7823 -4.25726 -0.495539 0
M  V30 1007 H 95.9663 -4.95939 0.189158 0
M  V30 1008 H 91.2223 -6.00727 1.1374 0
M  V30 1009 H 95.3963 -6.7225 1.81804 0
M  V30 1010 H 93.0233 -7.24628 2.29822 0
M  V30 1011 N 94.5984 0.214957 -1.56127 0
M  V30 1012 C 95.8474 0.936451 -1.78643 0
M  V30 1013 C 96.1604 1.85237 -0.628229 0
M  V30 1014 O 97.3664 2.613 -0.737186 0
M  V30 1015 C 95.8224 1.7154 -3.16389 0
M  V30 1016 C 95.4304 0.845299 -4.39953 0
M  V30 1017 C 97.1744 2.42772 -3.48227 0
M  V30 1018 C 95.0814 1.62198 -5.68723 0
M  V30 1019 H 94.0114 0.353401 -0.666051 0
M  V30 1020 H 96.6624 0.190169 -1.82512 0
M  V30 1021 H 95.0444 2.50484 -3.06715 0
M  V30 1022 H 96.2184 0.0959353 -4.607 0
M  V30 1023 H 94.5334 0.244789 -4.1568 0
M  V30 1024 H 97.1304 3.01394 -4.41663 0
M  V30 1025 H 97.4734 3.15984 -2.71035 0
M  V30 1026 H 98.0064 1.70813 -3.5926 0
M  V30 1027 H 94.7454 0.933011 -6.48826 0
M  V30 1028 H 94.2654 2.34579 -5.52026 0
M  V30 1029 H 95.9444 2.18095 -6.09133 0
M  V30 1030 N 96.0765 1.50051 0.48192 0
M  V30 1031 C 97.0245 1.68635 1.60203 0
M  V30 1032 C 98.0185 0.552184 1.60148 0
M  V30 1033 O 99.2245 0.732377 1.64427 0
M  V30 1034 H 95.5995 0.532081 0.531407 0
M  V30 1035 H 97.5705 2.62616 1.41688 0
M  V30 1036 C 96.3195 1.78775 2.9822 0
M  V30 1037 H 95.6425 2.6543 2.98976 0
M  V30 1038 H 97.0825 1.95806 3.7608 0
M  V30 1039 C 95.5415 0.536849 3.32595 0
M  V30 1040 O 96.0715 -0.328897 4.00351 0
M  V30 1041 N 94.2775 0.394091 2.87915 0
M  V30 1042 H 93.8245 1.09962 2.32951 0
M  V30 1043 H 93.7825 -0.441737 3.11281 0
M  V30 1044 N 97.5546 -0.734337 1.39446 0
M  V30 1045 C 98.9706 -1.03997 1.21065 0
M  V30 1046 C 99.1706 -2.01369 0.0727019 0
M  V30 1047 O 98.2266 -2.45856 -0.575426 0
M  V30 1048 C 99.5396 -1.60163 2.54496 0
M  V30 1049 C 101.088 -1.7224 2.61347 0
M  V30 1050 C 101.563 -2.31814 3.95002 0
M  V30 1051 N 103.054 -2.39223 3.96644 0
M  V30 1052 C 103.789 -2.86258 4.96834 0
M  V30 1053 N 103.285 -3.33184 6.07421 0
M  V30 1054 N 105.078 -2.85473 4.84213 0
M  V30 1055 H 97.2286 -0.0885624 2.12215 0
M  V30 1056 H 99.4916 -0.10191 0.942506 0
M  V30 1057 H 99.1976 -0.960811 3.38321 0
M  V30 1058 H 99.0716 -2.5896 2.74262 0
M  V30 1059 H 101.459 -2.35443 1.77906 0
M  V30 1060 H 101.54 -0.720939 2.4543 0
M  V30 1061 H 101.184 -1.69238 4.78875 0
M  V30 1062 H 101.114 -3.32638 4.08239 0
M  V30 1063 H 103.605 -2.06057 3.16779 0
M  V30 1064 H 103.918 -3.67586 6.7978 0
M  V30 1065 H 102.263 -3.31191 6.11013 0
M  V30 1066 H 105.454 -2.48136 3.96921 0
M  V30 1067 H 105.627 -3.21814 5.62441 0
M  V30 1068 N 99.0327 -1.24633 -0.964593 0
M  V30 1069 C 99.9807 -1.03917 -2.08096 0
M  V30 1070 C 100.975 0.0268581 -1.69379 0
M  V30 1071 O 102.181 -0.127952 -1.79545 0
M  V30 1072 H 98.5557 -0.319044 -0.680966 0
M  V30 1073 H 100.527 -1.98581 -2.22729 0
M  V30 1074 C 99.2757 -0.663983 -3.41301 0
M  V30 1075 H 98.5987 -1.47605 -3.71555 0
M  V30 1076 H 100.039 -0.558663 -4.20303 0
M  V30 1077 C 98.4977 0.629169 -3.30973 0
M  V30 1078 O 99.0277 1.67404 -3.65156 0
M  V30 1079 N 97.2337 0.611057 -2.84103 0
M  V30 1080 H 96.7807 -0.239593 -2.56483 0
M  V30 1081 H 96.7387 1.47647 -2.77575 0
M  V30 1082 N 100.511 1.16574 -1.06058 0
M  V30 1083 C 101.441 2.23057 -0.690488 0
M  V30 1084 C 102.422 1.67141 0.315901 0
M  V30 1085 O 103.607 1.93253 0.191556 0
M  V30 1086 C 100.737 3.47222 -0.073625 0
M  V30 1087 C 99.6908 4.16016 -1.00573 0
M  V30 1088 C 99.0168 5.34104 -0.252289 0
M  V30 1089 C 100.317 4.67264 -2.33371 0
M  V30 1090 H 102.011 2.54271 -1.58072 0
M  V30 1091 H 99.5568 1.22218 -0.76149 0
M  V30 1092 H 101.51 4.20939 0.19714 0
M  V30 1093 H 100.234 3.15302 0.85161 0
M  V30 1094 H 98.8928 3.44223 -1.2612 0
M  V30 1095 H 98.5408 4.98437 0.675988 0
M  V30 1096 H 98.2408 5.81072 -0.873455 0
M  V30 1097 H 99.7648 6.10599 0.0109857 0
M  V30 1098 H 101.179 5.32573 -2.12223 0
M  V30 1099 H 99.5758 5.24843 -2.90963 0
M  V30 1100 H 100.646 3.83602 -2.96611 0
M  V30 1101 N 101.989 0.842826 1.3317 0
M  V30 1102 C 103.214 0.453129 2.02389 0
M  V30 1103 C 103.639 -0.939105 1.6298 0
M  V30 1104 O 102.997 -1.61472 0.8244 0
M  V30 1105 C 103.045 0.586094 3.55805 0
M  V30 1106 O 102.149 -0.386029 4.10589 0
M  V30 1107 H 101.49 0.183664 0.638094 0
M  V30 1108 H 104.02 1.13875 1.69981 0
M  V30 1109 H 104.03 0.469209 4.05293 0
M  V30 1110 H 102.705 1.6014 3.83833 0
M  V30 1111 H 101.282 -0.226371 3.72212 0
M  V30 1112 N 103.467 -1.45747 0.599634 0
M  V30 1113 C 104.744 -1.95585 0.0240846 0
M  V30 1114 C 105.124 -1.54217 -1.44154 0
M  V30 1115 O 104.472 -0.800903 -2.14004 0
M  V30 1116 C 104.682 -3.48344 0.21385 0
M  V30 1117 C 106.03 -4.24504 0.0904902 0
M  V30 1118 O 107.054 -3.55911 0.143558 0
M  V30 1119 O 105.913 -5.46491 -0.0310766 0
M  V30 1120 H 103.007 -0.82602 -0.0402478 0
M  V30 1121 H 105.553 -1.55951 0.669139 0
M  V30 1122 H 104.325 -3.71397 1.23206 0
M  V30 1123 H 103.948 -3.9485 -0.466842 0
M  V30 1124 N 104.945 -0.338344 -1.53925 0
M  V30 1125 C 105.878 0.563758 -2.21127 0
M  V30 1126 C 106.856 1.10433 -1.19345 0
M  V30 1127 O 108.04 1.16557 -1.48144 0
M  V30 1128 C 105.167 1.77505 -2.88461 0
M  V30 1129 C 104.213 1.3644 -4.04087 0
M  V30 1130 S 105.046 0.388593 -5.34088 0
M  V30 1131 C 106.202 1.60683 -6.04923 0
M  V30 1132 H 106.435 -0.00704546 -2.97299 0
M  V30 1133 H 103.968 -0.122418 -1.53914 0
M  V30 1134 H 105.926 2.46999 -3.27875 0
M  V30 1135 H 104.587 2.31706 -2.12064 0
M  V30 1136 H 103.78 2.26739 -4.50117 0
M  V30 1137 H 103.382 0.748998 -3.66423 0
M  V30 1138 H 105.674 2.54209 -6.28 0
M  V30 1139 H 106.617 1.18842 -6.98056 0
M  V30 1140 H 107.025 1.80052 -5.35015 0
M  V30 1141 N 106.423 1.57458 -0.0668435 0
M  V30 1142 C 107.37 2.12439 0.902122 0
M  V30 1143 C 108.34 1.03565 1.2986 0
M  V30 1144 O 109.525 1.312 1.38532 0
M  V30 1145 C 106.665 2.6865 2.16614 0
M  V30 1146 C 105.778 3.91663 1.82274 0
M  V30 1147 C 104.913 4.36134 3.0325 0
M  V30 1148 C 103.952 5.51808 2.64904 0
M  V30 1149 N 103.089 5.9126 3.78624 0
M  V30 1150 H 107.929 2.94934 0.426382 0
M  V30 1151 H 105.466 1.4575 0.198819 0
M  V30 1152 H 107.424 2.99346 2.90599 0
M  V30 1153 H 106.054 1.88928 2.61737 0
M  V30 1154 H 105.106 3.6746 0.983719 0
M  V30 1155 H 106.418 4.75693 1.50059 0
M  V30 1156 H 105.572 4.68465 3.85519 0
M  V30 1157 H 104.311 3.50948 3.38655 0
M  V30 1158 H 103.316 5.19133 1.81055 0
M  V30 1159 H 104.541 6.38722 2.30675 0
M  V30 1160 H 102.487 5.09024 4.138 0
M  V30 1161 H 102.404 6.70018 3.5016 0
M  V30 1162 H 103.672 6.28212 4.61486 0
M  V30 1163 N 107.901 -0.206675 1.56239 0
M  V30 1164 C 108.811 -1.27686 1.96808 0
M  V30 1165 C 109.827 -1.50455 0.874035 0
M  V30 1166 O 111.003 -1.63295 1.17884 0
M  V30 1167 C 108.068 -2.60358 2.28942 0
M  V30 1168 C 107.129 -2.45762 3.51994 0
M  V30 1169 C 106.362 -3.72108 3.82585 0
M  V30 1170 O 106.585 -4.75776 3.14631 0
M  V30 1171 O 105.519 -3.6833 4.76043 0
M  V30 1172 H 109.345 -0.962593 2.88041 0
M  V30 1173 H 106.93 -0.410746 1.43643 0
M  V30 1174 H 108.812 -3.38687 2.50737 0
M  V30 1175 H 107.487 -2.91435 1.4088 0
M  V30 1176 H 106.394 -1.65584 3.35459 0
M  V30 1177 H 107.727 -2.19621 4.40486 0
M  V30 1178 N 109.379 -1.50304 -0.473955 0
M  V30 1179 C 110.628 -1.60392 -1.22301 0
M  V30 1180 C 110.941 -0.308411 -1.93153 0
M  V30 1181 O 112.147 -0.288156 -2.69966 0
M  V30 1182 C 110.603 -2.83109 -2.2221 0
M  V30 1183 C 110.211 -4.19524 -1.57173 0
M  V30 1184 C 111.955 -3.0254 -2.97775 0
M  V30 1185 C 109.862 -5.33431 -2.55353 0
M  V30 1186 H 108.792 -0.597286 -0.460179 0
M  V30 1187 H 111.443 -1.76731 -0.493803 0
M  V30 1188 H 109.825 -2.60322 -2.9841 0
M  V30 1189 H 110.999 -4.52554 -0.867824 0
M  V30 1190 H 109.314 -4.05674 -0.939002 0
M  V30 1191 H 111.911 -3.84811 -3.71248 0
M  V30 1192 H 112.254 -2.14154 -3.56992 0
M  V30 1193 H 112.787 -3.25494 -2.28688 0
M  V30 1194 H 109.526 -6.23962 -2.00878 0
M  V30 1195 H 109.046 -5.04823 -3.23904 0
M  V30 1196 H 110.725 -5.63887 -3.17239 0
M  V30 1197 N 110.857 0.726932 -1.39834 0
M  V30 1198 C 111.767 1.87131 -1.41489 0
M  V30 1199 C 112.783 1.71239 -0.308757 0
M  V30 1200 O 113.959 1.93701 -0.551529 0
M  V30 1201 C 111.024 3.22811 -1.26468 0
M  V30 1202 C 110.085 3.51039 -2.47124 0
M  V30 1203 C 109.318 4.80245 -2.3281 0
M  V30 1204 O 109.541 5.54537 -1.33585 0
M  V30 1205 O 108.475 5.08554 -3.21957 0
M  V30 1206 H 112.301 1.8869 -2.3797 0
M  V30 1207 H 109.886 0.875837 -1.21035 0
M  V30 1208 H 111.768 4.03877 -1.20255 0
M  V30 1209 H 110.443 3.22005 -0.330862 0
M  V30 1210 H 109.35 2.70027 -2.58914 0
M  V30 1211 H 110.683 3.56632 -3.39227 0
M  V30 1212 N 112.336 1.25143 0.95797 0
M  V30 1213 C 113.246 1.06968 2.08794 0
M  V30 1214 C 114.262 0.00773911 1.73998 0
M  V30 1215 O 115.438 0.207972 2.00323 0
M  V30 1216 C 112.503 0.68691 3.39827 0
M  V30 1217 C 111.564 1.82641 3.88511 0
M  V30 1218 C 110.797 1.46181 5.1329 0
M  V30 1219 O 111.02 0.355971 5.69288 0
M  V30 1220 O 109.954 2.29085 5.566 0
M  V30 1221 H 113.78 2.01723 2.27027 0
M  V30 1222 H 111.365 1.04051 1.07209 0
M  V30 1223 H 113.247 0.485417 4.18595 0
M  V30 1224 H 111.922 -0.231417 3.22872 0
M  V30 1225 H 110.829 2.08274 3.10762 0
M  V30 1226 H 112.162 2.72386 4.09959 0
M  V30 1227 N 113.814 -1.1601 1.06675 0
M  V30 1228 C 115.061 -1.86633 0.785781 0
M  V30 1229 C 115.389 -1.81929 -0.687896 0
M  V30 1230 O 114.644 -1.23253 -1.52011 0
M  V30 1231 C 114.943 -3.35547 1.23057 0
M  V30 1232 C 114.609 -3.60448 2.70902 0
M  V30 1233 C 113.271 -3.66954 3.11285 0
M  V30 1234 C 115.623 -3.7071 3.66365 0
M  V30 1235 C 112.951 -3.81225 4.45965 0
M  V30 1236 C 115.303 -3.86503 5.00797 0
M  V30 1237 C 113.967 -3.91252 5.40813 0
M  V30 1238 H 113.237 -0.682937 0.287538 0
M  V30 1239 H 115.884 -1.37146 1.33654 0
M  V30 1240 H 114.189 -3.87193 0.59907 0
M  V30 1241 H 115.886 -3.88583 0.990163 0
M  V30 1242 H 112.476 -3.56021 2.38636 0
M  V30 1243 H 116.66 -3.64991 3.36296 0
M  V30 1244 H 111.916 -3.83155 4.76447 0
M  V30 1245 H 116.09 -3.93385 5.74649 0
M  V30 1246 H 113.717 -4.02062 6.45174 0
M  V30 1247 N 115.292 -0.849877 -1.32721 0
M  V30 1248 C 116.255 -0.296122 -2.27279 0
M  V30 1249 C 117.255 0.541458 -1.5141 0
M  V30 1250 O 118.445 0.353658 -1.70572 0
M  V30 1251 C 115.577 0.581579 -3.35902 0
M  V30 1252 H 116.77 -1.13064 -2.77771 0
M  V30 1253 H 114.323 -0.62383 -1.43311 0
M  V30 1254 H 115.058 1.43809 -2.9067 0
M  V30 1255 H 114.843 -0.0178814 -3.92096 0
M  V30 1256 H 116.333 0.961951 -4.0637 0
M  V30 1257 N 116.77 1.45427 -0.607355 0
M  V30 1258 C 118.047 1.9557 -0.0344566 0
M  V30 1259 C 118.427 1.54979 1.43334 0
M  V30 1260 O 117.775 0.812241 2.13576 0
M  V30 1261 C 117.985 3.48226 -0.232321 0
M  V30 1262 C 119.333 4.2445 -0.113001 0
M  V30 1263 O 120.357 3.55829 -0.162431 0
M  V30 1264 O 119.216 5.465 0.00209442 0
M  V30 1265 H 116.31 0.826222 0.0358667 0
M  V30 1266 H 118.856 1.55594 -0.6774 0
M  V30 1267 H 117.628 3.70739 -1.25174 0
M  V30 1268 H 117.251 3.95092 0.445896 0
M  V30 1269 N 118.248 0.346503 1.53744 0
M  V30 1270 C 119.181 -0.552023 2.21423 0
M  V30 1271 C 120.159 -1.09798 1.19929 0
M  V30 1272 O 121.343 -1.1577 1.4876 0
M  V30 1273 C 118.47 -1.75972 2.89398 0
M  V30 1274 C 117.516 -1.34295 4.04805 0
M  V30 1275 S 118.349 -0.360263 5.34287 0
M  V30 1276 C 119.505 -1.57473 6.05767 0
M  V30 1277 H 119.738 0.0228119 2.97291 0
M  V30 1278 H 117.271 0.130579 1.53847 0
M  V30 1279 H 119.229 -2.45256 3.2918 0
M  V30 1280 H 117.89 -2.30578 2.1329 0
M  V30 1281 H 117.083 -2.24349 4.51313 0
M  V30 1282 H 116.685 -0.729555 3.66815 0
M  V30 1283 H 118.977 -2.50875 6.29339 0
M  V30 1284 H 119.92 -1.15138 6.98676 0
M  V30 1285 H 120.328 -1.77212 5.35963 0
M  V30 1286 N 119.726 -1.57421 0.075193 0
M  V30 1287 C 120.973 -1.93618 -0.593146 0
M  V30 1288 C 121.301 -0.955484 -1.69413 0
M  V30 1289 O 120.556 0.0283251 -1.9568 0
M  V30 1290 C 120.855 -3.36428 -1.20626 0
M  V30 1291 C 120.521 -4.50307 -0.231078 0
M  V30 1292 C 119.183 -4.81186 0.0371936 0
M  V30 1293 C 121.535 -5.19374 0.435888 0
M  V30 1294 C 118.863 -5.78466 0.979461 0
M  V30 1295 C 121.215 -6.17665 1.3665 0
M  V30 1296 C 119.879 -6.46958 1.6432 0
M  V30 1297 H 119.149 -0.708499 -0.217047 0
M  V30 1298 H 121.796 -1.90937 0.146793 0
M  V30 1299 H 120.101 -3.35592 -2.02201 0
M  V30 1300 H 121.798 -3.61727 -1.73073 0
M  V30 1301 H 118.388 -4.26227 -0.450357 0
M  V30 1302 H 122.572 -4.95711 0.241748 0
M  V30 1303 H 117.828 -5.99487 1.20106 0
M  V30 1304 H 122.002 -6.70284 1.88924 0
M  V30 1305 H 119.629 -7.2215 2.37494 0
M  V30 1306 N 121.204 0.198386 -1.56346 0
M  V30 1307 C 122.453 0.917451 -1.79627 0
M  V30 1308 C 122.766 1.8456 -0.64784 0
M  V30 1309 O 123.972 2.60504 -0.764859 0
M  V30 1310 C 122.428 1.68175 -3.18191 0
M  V30 1311 C 122.036 0.798589 -4.40825 0
M  V30 1312 C 123.78 2.39065 -3.50782 0
M  V30 1313 C 121.687 1.56157 -5.70411 0
M  V30 1314 H 120.617 0.346317 -0.669762 0
M  V30 1315 H 123.268 0.170801 -1.82703 0
M  V30 1316 H 121.65 2.47216 -3.09354 0
M  V30 1317 H 122.824 0.0470665 -4.60776 0
M  V30 1318 H 121.139 0.200686 -4.15916 0
M  V30 1319 H 123.736 2.96692 -4.44835 0
M  V30 1320 H 124.079 3.13091 -2.74371 0
M  V30 1321 H 124.612 1.66993 -3.61052 0
M  V30 1322 H 121.351 0.864142 -6.49779 0
M  V30 1323 H 120.871 2.2871 -5.54483 0
M  V30 1324 H 122.55 2.11622 -6.11412 0
M  V30 1325 N 122.682 1.50554 0.465978 0
M  V30 1326 C 123.614 1.65949 1.58093 0
M  V30 1327 C 124.627 0.540827 1.53554 0
M  V30 1328 O 125.816 0.814187 1.5885 0
M  V30 1329 C 122.916 1.63261 2.96983 0
M  V30 1330 C 122.089 2.91245 3.26336 0
M  V30 1331 C 121.148 2.8113 4.44806 0
M  V30 1332 O 120.174 3.55086 4.44862 0
M  V30 1333 N 121.376 1.95032 5.46756 0
M  V30 1334 H 124.141 2.62122 1.45301 0
M  V30 1335 H 121.702 1.48082 0.65448 0
M  V30 1336 H 123.694 1.54101 3.74212 0
M  V30 1337 H 122.264 0.748032 3.03518 0
M  V30 1338 H 121.484 3.14493 2.37672 0
M  V30 1339 H 122.772 3.76022 3.42761 0
M  V30 1340 H 122.17 1.3427 5.49534 0
M  V30 1341 H 120.727 1.91772 6.2295 0
M  V30 1342 N 124.16 -0.719506 1.40217 0
M  V30 1343 C 125.107 -1.83359 1.40172 0
M  V30 1344 C 126.077 -1.64065 0.259206 0
M  V30 1345 O 127.262 -1.85254 0.456677 0
M  V30 1346 C 124.402 -3.2103 1.26624 0
M  V30 1347 C 123.515 -3.51923 2.50548 0
M  V30 1348 C 122.65 -4.79079 2.29471 0
M  V30 1349 C 121.689 -5.02863 3.48992 0
M  V30 1350 N 120.826 -6.2123 3.27135 0
M  V30 1351 H 125.666 -1.82733 2.35399 0
M  V30 1352 H 123.203 -0.892688 1.16917 0
M  V30 1353 H 125.161 -4.00524 1.16776 0
M  V30 1354 H 123.791 -3.20895 0.350176 0
M  V30 1355 H 122.843 -2.67014 2.70939 0
M  V30 1356 H 124.155 -3.6541 3.39525 0
M  V30 1357 H 123.309 -5.66582 2.16955 0
M  V30 1358 H 122.048 -4.67794 1.37913 0
M  V30 1359 H 121.053 -4.13816 3.6199 0
M  V30 1360 H 122.278 -5.16023 4.41472 0
M  V30 1361 H 120.224 -6.11204 2.38256 0
M  V30 1362 H 120.141 -6.35375 4.09675 0
M  V30 1363 H 121.409 -7.11532 3.18344 0
M  V30 1364 N 125.638 -1.25649 -0.95132 0
M  V30 1365 C 126.886 -1.10375 -1.69298 0
M  V30 1366 C 127.207 0.355339 -1.91735 0
M  V30 1367 O 126.477 1.25188 -1.50681 0
M  V30 1368 H 125.057 -0.405461 -0.627384 0
M  V30 1369 H 127.719 -1.57823 -1.14358 0
M  V30 1370 H 126.815 -1.61465 -2.67087 0
M  V30 1371 N 127.117 1.15442 -1.07289 0
M  V30 1372 C 128.347 1.89821 -0.815576 0
M  V30 1373 C 128.755 1.7823 0.634867 0
M  V30 1374 O 128.098 1.13152 1.44715 0
M  V30 1375 C 128.16 3.40817 -1.14385 0
M  V30 1376 C 127.824 3.76193 -2.59476 0
M  V30 1377 C 128.821 3.77269 -3.57721 0
M  V30 1378 C 126.506 4.0652 -2.95037 0
M  V30 1379 C 128.5 4.08176 -4.89562 0
M  V30 1380 C 126.187 4.37092 -4.27076 0
M  V30 1381 C 127.185 4.37902 -5.24148 0
M  V30 1382 O 126.873 4.67741 -6.53815 0
M  V30 1383 H 126.605 0.608465 -0.294528 0
M  V30 1384 H 129.159 1.472 -1.43252 0
M  V30 1385 H 127.389 3.83835 -0.469865 0
M  V30 1386 H 129.078 3.96485 -0.869179 0
M  V30 1387 H 129.844 3.5394 -3.3159 0
M  V30 1388 H 125.723 4.05049 -2.20128 0
M  V30 1389 H 129.267 4.08723 -5.65324 0
M  V30 1390 H 125.164 4.59889 -4.5296 0
M  V30 1391 H 125.932 4.85509 -6.58957 0
M  V30 1392 N 128.595 0.856903 1.32268 0
M  V30 1393 C 129.844 0.457599 1.96441 0
M  V30 1394 C 130.157 -0.992426 1.68553 0
M  V30 1395 O 131.363 -1.49727 2.26482 0
M  V30 1396 C 129.819 0.767358 3.51624 0
M  V30 1397 C 129.427 2.23326 3.88367 0
M  V30 1398 C 131.171 0.435887 4.22256 0
M  V30 1399 C 129.078 2.48613 5.36606 0
M  V30 1400 H 128.008 0.167387 0.735185 0
M  V30 1401 H 130.659 1.048 1.5063 0
M  V30 1402 H 129.041 0.106367 3.95857 0
M  V30 1403 H 130.215 2.93623 3.55137 0
M  V30 1404 H 128.53 2.52948 3.30766 0
M  V30 1405 H 131.127 0.602202 5.31298 0
M  V30 1406 H 131.47 -0.622672 4.11617 0
M  V30 1407 H 132.003 1.05286 3.83614 0
M  V30 1408 H 128.742 3.53101 5.52268 0
M  V30 1409 H 128.262 1.82896 5.71235 0
M  V30 1410 H 129.941 2.32676 6.03714 0
M  V30 1411 N 130.073 -1.45103 0.615059 0
M  V30 1412 C 131.303 -2.06254 0.119596 0
M  V30 1413 C 131.711 -1.4591 -1.20445 0
M  V30 1414 O 131.054 -0.570384 -1.7462 0
M  V30 1415 C 131.116 -3.59396 -0.0865591 0
M  V30 1416 C 130.78 -4.42116 1.15683 0
M  V30 1417 C 131.777 -4.7662 2.07676 0
M  V30 1418 C 129.462 -4.82749 1.38775 0
M  V30 1419 C 131.456 -5.50622 3.21082 0
M  V30 1420 C 129.143 -5.56504 2.52481 0
M  V30 1421 C 130.141 -5.90358 3.43463 0
M  V30 1422 O 129.829 -6.62615 4.55189 0
M  V30 1423 H 129.561 -0.672423 0.0694512 0
M  V30 1424 H 132.115 -1.87219 0.844885 0
M  V30 1425 H 130.345 -3.76859 -0.866823 0
M  V30 1426 H 132.034 -4.02365 -0.534555 0
M  V30 1427 H 132.8 -4.4578 1.91063 0
M  V30 1428 H 128.679 -4.55829 0.688545 0
M  V30 1429 H 132.223 -5.76965 3.92119 0
M  V30 1430 H 128.12 -5.86759 2.69043 0
M  V30 1431 H 128.888 -6.81071 4.53966 0
M  V30 1432 N 131.551 -0.354651 -1.53558 0
M  V30 1433 C 132.498 0.496968 -2.25386 0
M  V30 1434 C 133.468 1.0865 -1.25636 0
M  V30 1435 O 134.653 1.12104 -1.54394 0
M  V30 1436 C 131.793 1.63637 -3.03837 0
M  V30 1437 C 130.906 1.07307 -4.18461 0
M  V30 1438 C 130.041 2.18068 -4.84376 0
M  V30 1439 C 129.08 1.59147 -5.91049 0
M  V30 1440 N 128.217 2.63695 -6.50699 0
M  V30 1441 H 133.057 -0.122075 -2.9775 0
M  V30 1442 H 130.594 -0.0720154 -1.46924 0
M  V30 1443 H 132.552 2.30734 -3.47589 0
M  V30 1444 H 131.182 2.22623 -2.33749 0
M  V30 1445 H 130.234 0.292708 -3.79272 0
M  V30 1446 H 131.546 0.602193 -4.95152 0
M  V30 1447 H 130.7 2.93007 -5.31255 0
M  V30 1448 H 129.439 2.68504 -4.07133 0
M  V30 1449 H 128.444 0.827175 -5.43542 0
M  V30 1450 H 129.669 1.09549 -6.70206 0
M  V30 1451 H 127.615 3.13365 -5.76315 0
M  V30 1452 H 127.532 2.21263 -7.22896 0
M  V30 1453 H 128.8 3.3837 -7.02229 0
M  V30 1454 N 133.029 1.57378 -0.0835403 0
M  V30 1455 C 133.992 2.12252 0.864959 0
M  V30 1456 C 134.992 1.04916 1.21858 0
M  V30 1457 O 136.182 1.30853 1.14991 0
M  V30 1458 C 133.314 2.63358 2.16461 0
M  V30 1459 H 134.507 2.97371 0.388676 0
M  V30 1460 H 132.06 1.55423 0.165317 0
M  V30 1461 H 132.795 1.81727 2.686 0
M  V30 1462 H 132.58 3.41826 1.92087 0
M  V30 1463 H 134.07 3.05847 2.84337 0
M  V30 1464 N 134.507 -0.190092 1.56449 0
M  V30 1465 C 135.439 -1.25973 1.91477 0
M  V30 1466 C 136.452 -1.41452 0.805931 0
M  V30 1467 O 137.641 -1.41789 1.08435 0
M  V30 1468 C 134.741 -2.63117 2.13594 0
M  V30 1469 C 133.914 -2.69182 3.4476 0
M  V30 1470 C 132.973 -3.87557 3.5593 0
M  V30 1471 O 131.999 -3.74427 4.28711 0
M  V30 1472 N 133.201 -5.03224 2.89388 0
M  V30 1473 H 135.966 -0.962394 2.83828 0
M  V30 1474 H 133.527 -0.379981 1.57378 0
M  V30 1475 H 135.519 -3.40742 2.1835 0
M  V30 1476 H 134.089 -2.85319 1.27719 0
M  V30 1477 H 133.309 -1.77793 3.51828 0
M  V30 1478 H 134.597 -2.70229 4.31107 0
M  V30 1479 H 133.995 -5.16791 2.30094 0
M  V30 1480 H 132.552 -5.78778 2.99764 0
M  V30 1481 N 135.985 -1.50799 -0.457987 0
M  V30 1482 C 137.215 -1.65977 -1.23025 0
M  V30 1483 C 137.623 -0.347918 -1.85974 0
M  V30 1484 O 136.966 0.68148 -1.70592 0
M  V30 1485 C 137.028 -2.70309 -2.3701 0
M  V30 1486 C 136.692 -4.135 -1.94594 0
M  V30 1487 C 137.689 -4.98949 -1.46101 0
M  V30 1488 C 135.374 -4.5949 -2.02915 0
M  V30 1489 C 137.368 -6.28442 -1.06489 0
M  V30 1490 C 135.055 -5.88984 -1.62914 0
M  V30 1491 C 136.053 -6.73286 -1.1478 0
M  V30 1492 O 135.741 -8.00362 -0.75339 0
M  V30 1493 H 135.473 -0.56064 -0.377702 0
M  V30 1494 H 138.027 -1.97857 -0.551537 0
M  V30 1495 H 136.257 -2.337 -3.08093 0
M  V30 1496 H 137.946 -2.74574 -2.98938 0
M  V30 1497 H 138.712 -4.6463 -1.39084 0
M  V30 1498 H 134.591 -3.94009 -2.39328 0
M  V30 1499 H 138.135 -6.94194 -0.688488 0
M  V30 1500 H 134.032 -6.22822 -1.69595 0
M  V30 1501 H 134.8 -8.13744 -0.88108 0
M  V30 1502 N 137.463 0.71206 -1.40597 0
M  V30 1503 C 138.41 1.82613 -1.41142 0
M  V30 1504 C 139.38 1.63925 -0.267903 0
M  V30 1505 O 140.565 1.85009 -0.466495 0
M  V30 1506 C 137.705 3.20354 -1.28324 0
M  V30 1507 C 136.818 3.50589 -2.52411 0
M  V30 1508 C 135.953 4.77855 -2.32009 0
M  V30 1509 C 134.992 5.01005 -3.51654 0
M  V30 1510 N 134.129 6.19487 -3.30425 0
M  V30 1511 H 138.969 1.81482 -2.36365 0
M  V30 1512 H 136.506 0.886475 -1.17388 0
M  V30 1513 H 138.464 3.99899 -1.18899 0
M  V30 1514 H 137.094 3.20705 -0.367189 0
M  V30 1515 H 136.146 2.65573 -2.72351 0
M  V30 1516 H 137.458 3.63604 -3.41458 0
M  V30 1517 H 136.612 5.65424 -2.19956 0
M  V30 1518 H 135.351 4.67056 -1.40392 0
M  V30 1519 H 134.356 4.1189 -3.64179 0
M  V30 1520 H 135.581 5.13674 -4.44202 0
M  V30 1521 H 133.527 6.09932 -2.41494 0
M  V30 1522 H 133.444 6.33194 -4.13039 0
M  V30 1523 H 134.712 7.09834 -3.22113 0
M  V30 1524 N 138.941 1.26152 0.944643 0
M  V30 1525 C 140.352 1.10454 1.50522 0
M  V30 1526 C 140.703 -0.31635 1.93633 0
M  V30 1527 O 139.828 -1.20746 1.79581 0
M  V30 1528 C 140.423 1.99891 2.73549 0
M  V30 1529 C 138.982 1.88348 3.25886 0
M  V30 1530 C 138.129 1.93447 1.9868 0
M  V30 1531 H 141.08 1.39292 0.760489 0
M  V30 1532 H 141.101 1.54477 3.47732 0
M  V30 1533 H 140.613 3.03297 2.42141 0
M  V30 1534 H 138.714 0.878636 3.62092 0
M  V30 1535 H 138.827 2.73696 3.93227 0
M  V30 1536 H 137.191 1.37456 2.14425 0
M  V30 1537 H 137.974 2.98476 1.69607 0
M  V30 1538 N 140.419 -1.14872 1.07899 0
M  V30 1539 C 141.668 -1.85135 0.800499 0
M  V30 1540 C 141.981 -1.83547 -0.676014 0
M  V30 1541 O 143.187 -2.49548 -1.06948 0
M  V30 1542 C 141.643 -3.3231 1.38197 0
M  V30 1543 C 141.251 -3.42329 2.8899 0
M  V30 1544 C 142.995 -4.0772 1.18174 0
M  V30 1545 C 140.902 -4.83684 3.403 0
M  V30 1546 H 139.832 -0.693563 0.29578 0
M  V30 1547 H 142.483 -1.29532 1.29976 0
M  V30 1548 H 140.865 -3.87618 0.810431 0
M  V30 1549 H 142.039 -2.97097 3.52236 0
M  V30 1550 H 140.354 -2.80369 3.07867 0
M  V30 1551 H 142.951 -5.12049 1.5398 0
M  V30 1552 H 143.294 -4.16124 0.12117 0
M  V30 1553 H 143.827 -3.58696 1.71994 0
M  V30 1554 H 140.566 -4.80465 4.45907 0
M  V30 1555 H 140.086 -5.29474 2.81811 0
M  V30 1556 H 141.765 -5.52558 3.36584 0
M  V30 1557 N 141.898 -0.863906 -1.31812 0
M  V30 1558 C 142.845 -0.313303 -2.28664 0
M  V30 1559 C 143.815 0.584868 -1.55462 0
M  V30 1560 O 145 0.517805 -1.83639 0
M  V30 1561 C 142.14 0.48441 -3.41683 0
M  V30 1562 C 141.253 -0.440594 -4.29747 0
M  V30 1563 C 140.388 0.370652 -5.29905 0
M  V30 1564 C 139.427 -0.551164 -6.09613 0
M  V30 1565 N 138.564 0.223462 -7.01744 0
M  V30 1566 H 143.404 -1.14444 -2.75148 0
M  V30 1567 H 140.941 -0.575769 -1.35364 0
M  V30 1568 H 142.899 0.962627 -4.05943 0
M  V30 1569 H 141.529 1.28029 -2.96325 0
M  V30 1570 H 140.581 -1.03724 -3.65986 0
M  V30 1571 H 141.893 -1.14767 -4.85417 0
M  V30 1572 H 141.047 0.911638 -5.99812 0
M  V30 1573 H 139.786 1.11105 -4.74876 0
M  V30 1574 H 138.791 -1.10396 -5.38603 0
M  V30 1575 H 140.016 -1.29032 -6.66729 0
M  V30 1576 H 137.962 0.946787 -6.49132 0
M  V30 1577 H 137.879 -0.424399 -7.54808 0
M  V30 1578 H 139.147 0.745876 -7.75923 0
M  V30 1579 N 143.376 1.44774 -0.622745 0
M  V30 1580 C 144.624 2.01721 -0.123655 0
M  V30 1581 C 144.945 1.49172 1.25589 0
M  V30 1582 O 144.215 0.691974 1.83272 0
M  V30 1583 H 142.795 0.745777 -0.0427225 0
M  V30 1584 H 145.457 1.77382 -0.807559 0
M  V30 1585 H 144.553 3.11984 -0.0849534 0
M  V30 1586 N 144.854 0.36279 1.53368 0
M  V30 1587 C 146.103 -0.22888 2.00397 0
M  V30 1588 C 146.416 -1.50096 1.25421 0
M  V30 1589 O 147.622 -2.17106 1.63025 0
M  V30 1590 C 146.078 -0.458417 3.56969 0
M  V30 1591 C 145.686 0.798877 4.4082 0
M  V30 1592 C 147.43 -1.00789 4.12361 0
M  V30 1593 C 145.337 0.539078 5.88938 0
M  V30 1594 H 144.267 -0.089305 0.748693 0
M  V30 1595 H 146.918 0.481099 1.77081 0
M  V30 1596 H 145.3 -1.22959 3.76427 0
M  V30 1597 H 146.474 1.57262 4.33134 0
M  V30 1598 H 144.789 1.27137 3.96516 0
M  V30 1599 H 147.386 -1.21754 5.20653 0
M  V30 1600 H 147.729 -1.9692 3.66781 0
M  V30 1601 H 148.262 -0.296961 3.9669 0
M  V30 1602 H 145.001 1.47064 6.3879 0
M  V30 1603 H 144.521 -0.196222 5.99479 0
M  V30 1604 H 146.2 0.163542 6.46793 0
M  V30 1605 N 146.332 -1.57332 0.0918853 0
M  V30 1606 C 147.28 -2.15075 -0.885747 0
M  V30 1607 C 148.274 -1.09277 -1.29441 0
M  V30 1608 O 149.48 -1.27627 -1.26931 0
M  V30 1609 H 145.855 -0.687966 -0.303656 0
M  V30 1610 H 147.826 -2.96047 -0.373995 0
M  V30 1611 C 146.575 -2.74325 -2.13638 0
M  V30 1612 H 145.898 -3.55418 -1.8308 0
M  V30 1613 H 147.338 -3.183 -2.80109 0
M  V30 1614 C 145.797 -1.70062 -2.90827 0
M  V30 1615 O 146.327 -1.13763 -3.85254 0
M  V30 1616 N 144.533 -1.40628 -2.54307 0
M  V30 1617 H 144.08 -1.866 -1.7759 0
M  V30 1618 H 144.038 -0.711043 -3.06254 0
M  V30 1619 N 147.81 0.181792 -1.56548 0
M  V30 1620 C 148.72 1.24538 -1.98815 0
M  V30 1621 C 149.736 1.49045 -0.897861 0
M  V30 1622 O 150.912 1.61399 -1.20467 0
M  V30 1623 C 147.977 2.56683 -2.33055 0
M  V30 1624 C 147.038 2.40131 -3.55859 0
M  V30 1625 C 146.271 3.65975 -3.88456 0
M  V30 1626 O 146.494 4.70711 -3.22161 0
M  V30 1627 O 145.428 3.6071 -4.81842 0
M  V30 1628 H 149.254 0.916647 -2.89536 0
M  V30 1629 H 146.839 0.387842 -1.44278 0
M  V30 1630 H 148.721 3.34655 -2.56094 0
M  V30 1631 H 147.396 2.89157 -1.45498 0
M  V30 1632 H 146.303 1.60226 -3.38051 0
M  V30 1633 H 147.636 2.12585 -4.43924 0
M  V30 1634 N 149.288 1.51039 0.449983 0
M  V30 1635 C 150.235 1.71439 1.54523 0
M  V30 1636 C 151.205 0.555871 1.56522 0
M  V30 1637 O 152.39 0.788871 1.73728 0
M  V30 1638 C 149.53 1.83384 2.92343 0
M  V30 1639 C 148.643 3.10873 2.9997 0
M  V30 1640 C 147.778 3.13488 4.28834 0
M  V30 1641 C 146.817 4.35343 4.30282 0
M  V30 1642 N 145.954 4.35579 5.5065 0
M  V30 1643 H 150.794 2.64934 1.36433 0
M  V30 1644 H 148.331 1.31312 0.662982 0
M  V30 1645 H 150.289 1.88291 3.72293 0
M  V30 1646 H 148.919 0.933086 3.0902 0
M  V30 1647 H 147.971 3.15336 2.12761 0
M  V30 1648 H 149.283 4.00814 2.96901 0
M  V30 1649 H 148.437 3.17241 5.17149 0
M  V30 1650 H 147.176 2.21414 4.34543 0
M  V30 1651 H 146.181 4.3178 3.40362 0
M  V30 1652 H 147.406 5.28668 4.26248 0
M  V30 1653 H 145.352 3.46369 5.57104 0
M  V30 1654 H 145.269 5.19313 5.49409 0
M  V30 1655 H 146.537 4.43507 6.41032 0
M  V30 1656 N 150.766 -0.704594 1.40972 0
M  V30 1657 C 152.043 -1.45847 1.30338 0
M  V30 1658 C 152.423 -2.10973 -0.0732344 0
M  V30 1659 O 151.771 -2.00997 -1.08685 0
M  V30 1660 C 151.981 -2.48525 2.45023 0
M  V30 1661 C 153.329 -3.1404 2.8577 0
M  V30 1662 O 154.353 -2.58848 2.44696 0
M  V30 1663 O 153.212 -4.13981 3.56766 0
M  V30 1664 H 150.306 -0.649092 0.512454 0
M  V30 1665 H 152.852 -0.735836 1.52917 0
M  V30 1666 H 151.624 -1.98994 3.36923 0
M  V30 1667 H 151.247 -3.2831 2.24272 0
M  V30 1668 N 152.244 -1.26651 -0.937939 0
M  V30 1669 C 153.154 -1.10276 -2.07066 0
M  V30 1670 C 154.17 -0.0354197 -1.73964 0
M  V30 1671 O 155.346 -0.239816 -1.99967 0
M  V30 1672 C 152.411 -0.740887 -3.38691 0
M  V30 1673 C 151.472 -1.88799 -3.85556 0
M  V30 1674 C 150.705 -1.54329 -5.10899 0
M  V30 1675 O 150.928 -0.446494 -5.6865 0
M  V30 1676 O 149.862 -2.37911 -5.52885 0
M  V30 1677 H 153.688 -2.05309 -2.23789 0
M  V30 1678 H 151.273 -1.05743 -1.0554 0
M  V30 1679 H 153.155 -0.55195 -4.1777 0
M  V30 1680 H 151.83 0.180022 -3.23199 0
M  V30 1681 H 150.737 -2.13191 -3.07409 0
M  V30 1682 H 152.07 -2.78874 -4.05574 0
M  V30 1683 N 153.722 1.14298 -1.08507 0
M  V30 1684 C 154.67 2.21483 -0.710483 0
M  V30 1685 C 155.664 1.66998 0.284234 0
M  V30 1686 O 156.87 1.79401 0.146692 0
M  V30 1687 H 153.245 0.721578 -0.211729 0
M  V30 1688 H 155.216 2.50348 -1.62384 0
M  V30 1689 C 153.965 3.4743 -0.137007 0
M  V30 1690 H 153.288 3.89686 -0.893592 0
M  V30 1691 H 154.728 4.2391 0.0872789 0
M  V30 1692 C 153.187 3.17548 1.12538 0
M  V30 1693 O 153.717 3.35437 2.21009 0
M  V30 1694 N 151.923 2.71499 1.03617 0
M  V30 1695 H 151.47 2.57143 0.153403 0
M  V30 1696 H 151.428 2.51881 1.88158 0
M  V30 1697 N 155.201 0.870884 1.31352 0
M  V30 1698 C 156.449 0.48132 1.96285 0
M  V30 1699 C 156.77 -0.969813 1.69173 0
M  V30 1700 O 156.04 -1.67998 1.00764 0
M  V30 1701 H 154.62 0.175002 0.726212 0
M  V30 1702 H 157.282 1.11087 1.60143 0
M  V30 1703 H 156.378 0.639825 3.05471 0
M  V30 1704 N 156.679 -1.44442 0.630414 0
M  V30 1705 C 157.925 -2.02351 0.134816 0
M  V30 1706 C 158.258 -1.4947 -1.23986 0
M  V30 1707 O 157.533 -0.678475 -1.82283 0
M  V30 1708 C 157.816 -3.59898 0.120707 0
M  V30 1709 C 157.669 -4.23063 1.52767 0
M  V30 1710 C 158.988 -4.36585 -0.555127 0
M  V30 1711 H 156.107 -0.73527 0.0504646 0
M  V30 1712 H 158.749 -1.72022 0.806751 0
M  V30 1713 H 156.899 -3.85868 -0.451477 0
M  V30 1714 H 158.571 -4.08202 2.14869 0
M  V30 1715 H 156.814 -3.80586 2.08175 0
M  V30 1716 H 157.485 -5.32071 1.46984 0
M  V30 1717 H 159.961 -4.16044 -0.0685429 0
M  V30 1718 H 158.837 -5.46294 -0.534185 0
M  V30 1719 H 159.098 -4.11138 -1.62535 0
M  V30 1720 N 158.157 -0.370918 -1.53173 0
M  V30 1721 C 159.387 0.217389 -2.05453 0
M  V30 1722 C 159.795 1.42568 -1.24382 0
M  V30 1723 O 159.138 1.81571 -0.278839 0
M  V30 1724 C 159.2 0.669827 -3.53205 0
M  V30 1725 C 158.864 -0.4225 -4.55043 0
M  V30 1726 C 159.861 -1.27407 -5.04047 0
M  V30 1727 C 157.546 -0.58427 -4.9889 0
M  V30 1728 C 159.54 -2.27271 -5.95505 0
M  V30 1729 C 157.227 -1.58627 -5.90153 0
M  V30 1730 C 158.225 -2.42892 -6.38351 0
M  V30 1731 O 157.913 -3.41382 -7.27814 0
M  V30 1732 H 157.645 0.0408171 -0.674767 0
M  V30 1733 H 160.199 -0.5292 -1.98466 0
M  V30 1734 H 158.429 1.4681 -3.57748 0
M  V30 1735 H 160.118 1.18173 -3.88317 0
M  V30 1736 H 160.884 -1.16031 -4.70916 0
M  V30 1737 H 156.763 0.061851 -4.60959 0
M  V30 1738 H 160.307 -2.93079 -6.33049 0
M  V30 1739 H 156.204 -1.70048 -6.22699 0
M  V30 1740 H 156.972 -3.37173 -7.45826 0
M  V30 1741 N 159.635 1.57281 -0.100228 0
M  V30 1742 C 160.582 2.14305 0.856858 0
M  V30 1743 C 161.552 1.06296 1.27634 0
M  V30 1744 O 162.737 1.34109 1.35718 0
M  V30 1745 C 159.877 2.73184 2.10866 0
M  V30 1746 C 158.99 3.95442 1.73925 0
M  V30 1747 C 158.125 4.42468 2.93931 0
M  V30 1748 C 157.164 5.57303 2.5314 0
M  V30 1749 N 156.301 5.99158 3.65997 0
M  V30 1750 H 161.141 2.95772 0.363726 0
M  V30 1751 H 158.678 1.46139 0.167858 0
M  V30 1752 H 160.636 3.05442 2.84185 0
M  V30 1753 H 159.266 1.94437 2.57671 0
M  V30 1754 H 158.318 3.69464 0.905554 0
M  V30 1755 H 159.63 4.78769 1.39935 0
M  V30 1756 H 158.784 4.76537 3.75496 0
M  V30 1757 H 157.523 3.58052 3.31134 0
M  V30 1758 H 156.528 5.22857 1.70003 0
M  V30 1759 H 157.753 6.43471 2.17075 0
M  V30 1760 H 155.699 5.17687 4.02909 0
M  V30 1761 H 155.616 6.77295 3.35869 0
M  V30 1762 H 156.884 6.3786 4.48057 0
M  V30 1763 N 161.113 -0.173488 1.56642 0
M  V30 1764 C 162.529 -0.525174 1.50712 0
M  V30 1765 C 162.729 -1.8476 0.804107 0
M  V30 1766 O 161.785 -2.49869 0.363574 0
M  V30 1767 C 163.098 -0.559937 2.95441 0
M  V30 1768 C 164.646 -0.647288 3.06234 0
M  V30 1769 C 165.121 -0.712963 4.52417 0
M  V30 1770 N 166.612 -0.775911 4.56655 0
M  V30 1771 C 167.347 -0.847264 5.67106 0
M  V30 1772 N 166.843 -0.879585 6.87194 0
M  V30 1773 N 168.636 -0.886117 5.55071 0
M  V30 1774 H 160.787 0.693681 2.00753 0
M  V30 1775 H 163.05 0.249841 0.914485 0
M  V30 1776 H 162.756 0.343049 3.50023 0
M  V30 1777 H 162.63 -1.40718 3.49969 0
M  V30 1778 H 165.017 -1.5407 2.51687 0
M  V30 1779 H 165.098 0.226586 2.54794 0
M  V30 1780 H 164.742 0.176183 5.07594 0
M  V30 1781 H 164.672 -1.60295 5.0161 0
M  V30 1782 H 167.163 -0.759304 3.70193 0
M  V30 1783 H 167.476 -0.935144 7.67121 0
M  V30 1784 H 165.821 -0.847898 6.89808 0
M  V30 1785 H 169.012 -0.857853 4.60172 0
M  V30 1786 H 169.185 -0.938263 6.41171 0
M  V30 1787 N 162.591 -1.51276 -0.441967 0
M  V30 1788 C 164.002 -1.56244 -1.02199 0
M  V30 1789 C 164.353 -0.383149 -1.92422 0
M  V30 1790 O 163.478 0.500613 -2.1053 0
M  V30 1791 C 164.073 -2.83162 -1.86024 0
M  V30 1792 C 162.632 -2.90716 -2.39084 0
M  V30 1793 C 161.779 -2.50858 -1.18175 0
M  V30 1794 H 164.73 -1.5712 -0.223416 0
M  V30 1795 H 164.751 -2.66663 -2.71425 0
M  V30 1796 H 164.263 -3.68974 -1.20331 0
M  V30 1797 H 162.364 -2.09323 -3.08244 0
M  V30 1798 H 162.477 -3.94266 -2.72198 0
M  V30 1799 H 160.841 -2.03951 -1.52565 0
M  V30 1800 H 161.624 -3.3901 -0.541001 0
M  V30 1801 N 164.069 0.697108 -1.41344 0
M  V30 1802 C 165.016 1.81106 -1.43071 0
M  V30 1803 C 165.986 1.63632 -0.285275 0
M  V30 1804 O 167.171 1.84504 -0.486091 0
M  V30 1805 C 164.311 3.18975 -1.31715 0
M  V30 1806 C 163.424 3.47892 -2.56115 0
M  V30 1807 C 162.559 4.75367 -2.37064 0
M  V30 1808 C 161.598 4.97247 -3.56948 0
M  V30 1809 N 160.735 6.15947 -3.36977 0
M  V30 1810 H 165.575 1.78965 -2.38276 0
M  V30 1811 H 163.112 0.873975 -1.18322 0
M  V30 1812 H 165.07 3.98615 -1.23133 0
M  V30 1813 H 163.7 3.20297 -0.401183 0
M  V30 1814 H 162.752 2.62669 -2.75153 0
M  V30 1815 H 164.064 3.59962 -3.45295 0
M  V30 1816 H 163.218 5.63059 -2.25941 0
M  V30 1817 H 161.957 4.65541 -1.45338 0
M  V30 1818 H 160.962 4.08004 -3.68527 0
M  V30 1819 H 162.187 5.08934 -4.49626 0
M  V30 1820 H 160.133 6.07336 -2.47949 0
M  V30 1821 H 160.05 6.28777 -4.19732 0
M  V30 1822 H 161.318 7.06377 -3.29623 0
M  V30 1823 N 165.547 1.27147 0.931209 0
M  V30 1824 C 166.793 1.14455 1.68141 0
M  V30 1825 C 167.148 -0.307172 1.89932 0
M  V30 1826 O 166.441 -1.22158 1.47607 0
M  V30 1827 C 166.635 1.8579 3.05314 0
M  V30 1828 C 166.464 3.3775 2.96909 0
M  V30 1829 C 165.234 4.07062 2.99381 0
M  V30 1830 C 167.432 4.33783 2.76291 0
M  V30 1831 N 165.414 5.45618 2.8138 0
M  V30 1832 C 166.785 5.59582 2.6696 0
M  V30 1833 C 168.84 4.23915 2.61152 0
M  V30 1834 C 167.543 6.76639 2.44033 0
M  V30 1835 C 169.569 5.40689 2.39602 0
M  V30 1836 C 168.931 6.65443 2.3101 0
M  V30 1837 H 165.03 0.473667 0.622225 0
M  V30 1838 H 167.614 1.60568 1.10118 0
M  V30 1839 H 165.785 1.42138 3.61457 0
M  V30 1840 H 167.517 1.65634 3.69253 0
M  V30 1841 H 164.272 3.585 3.09475 0
M  V30 1842 H 164.696 6.184 2.75519 0
M  V30 1843 H 169.338 3.28189 2.66555 0
M  V30 1844 H 167.056 7.72451 2.3737 0
M  V30 1845 H 170.642 5.34932 2.28778 0
M  V30 1846 H 169.522 7.54277 2.14558 0
M  V30 1847 N 167.025 -1.13721 1.09112 0
M  V30 1848 C 168.436 -1.6648 0.845068 0
M  V30 1849 C 168.787 -1.85911 -0.62701 0
M  V30 1850 O 167.912 -1.57556 -1.48341 0
M  V30 1851 C 168.507 -3.02413 1.52748 0
M  V30 1852 C 167.066 -3.52176 1.32849 0
M  V30 1853 C 166.213 -2.27492 1.58564 0
M  V30 1854 H 169.164 -0.976872 1.25072 0
M  V30 1855 H 169.185 -3.68223 0.958752 0
M  V30 1856 H 168.697 -2.88238 2.59885 0
M  V30 1857 H 166.798 -3.7156 0.278137 0
M  V30 1858 H 166.911 -4.32499 2.0611 0
M  V30 1859 H 165.275 -2.33923 1.00758 0
M  V30 1860 H 166.058 -2.15886 2.66924 0
M  V30 1861 N 168.503 -0.877838 -1.30888 0
M  V30 1862 C 169.45 -0.337538 -2.28318 0
M  V30 1863 C 170.42 0.568346 -1.56074 0
M  V30 1864 O 171.605 0.498298 -1.84178 0
M  V30 1865 C 168.745 0.448142 -3.42178 0
M  V30 1866 C 167.858 -0.48615 -4.29256 0
M  V30 1867 C 166.993 0.314427 -5.30269 0
M  V30 1868 C 166.032 -0.615791 -6.08995 0
M  V30 1869 N 165.169 0.14902 -7.01942 0
M  V30 1870 H 170.009 -1.17356 -2.73919 0
M  V30 1871 H 167.546 -0.590094 -1.34745 0
M  V30 1872 H 169.504 0.919517 -4.06941 0
M  V30 1873 H 168.134 1.24879 -2.97666 0
M  V30 1874 H 167.186 -1.076 -3.64865 0
M  V30 1875 H 168.498 -1.19909 -4.84173 0
M  V30 1876 H 167.652 0.847969 -6.00745 0
M  V30 1877 H 166.391 1.06062 -4.76027 0
M  V30 1878 H 165.396 -1.16102 -5.37401 0
M  V30 1879 H 166.621 -1.36097 -6.65323 0
M  V30 1880 H 164.567 0.877884 -6.50099 0
M  V30 1881 H 164.484 -0.504433 -7.54315 0
M  V30 1882 H 165.752 0.663537 -7.76671 0
M  V30 1883 N 169.982 1.44106 -0.638065 0
M  V30 1884 C 171.398 1.56672 -0.304286 0
M  V30 1885 C 171.598 1.6244 1.19228 0
M  V30 1886 O 170.654 1.57121 1.9766 0
M  V30 1887 C 171.967 2.83503 -1.00231 0
M  V30 1888 C 173.515 2.97226 -0.981116 0
M  V30 1889 C 173.99 4.26868 -1.65974 0
M  V30 1890 N 175.481 4.33698 -1.62666 0
M  V30 1891 C 176.216 5.32745 -2.12063 0
M  V30 1892 N 175.712 6.38157 -2.6968 0
M  V30 1893 N 177.505 5.24299 -2.02651 0
M  V30 1894 H 169.656 1.38605 -1.60942 0
M  V30 1895 H 171.919 0.664661 -0.675965 0
M  V30 1896 H 171.625 2.85251 -2.0573 0
M  V30 1897 H 171.499 3.73251 -0.54439 0
M  V30 1898 H 173.886 2.95027 0.0654188 0
M  V30 1899 H 173.967 2.08808 -1.47759 0
M  V30 1900 H 173.611 4.29826 -2.70576 0
M  V30 1901 H 173.541 5.14156 -1.13804 0
M  V30 1902 H 176.032 3.58138 -1.20606 0
M  V30 1903 H 176.345 7.10029 -3.05087 0
M  V30 1904 H 174.69 6.38823 -2.73734 0
M  V30 1905 H 177.881 4.4086 -1.57353 0
M  V30 1906 H 178.054 6.01334 -2.41457 0
M  V30 1907 N 171.46 0.379036 1.52974 0
M  V30 1908 C 172.39 -0.452706 2.29069 0
M  V30 1909 C 173.371 -1.07237 1.32039 0
M  V30 1910 O 174.556 -1.08708 1.60923 0
M  V30 1911 C 171.686 -1.5856 3.08992 0
M  V30 1912 C 170.64 -1.0925 4.13822 0
M  V30 1913 C 169.966 -2.31668 4.81907 0
M  V30 1914 C 171.266 -0.167702 5.22031 0
M  V30 1915 H 172.96 0.182181 2.98845 0
M  V30 1916 H 170.506 0.0890592 1.43724 0
M  V30 1917 H 172.459 -2.1742 3.6098 0
M  V30 1918 H 171.183 -2.24792 2.36931 0
M  V30 1919 H 169.842 -0.526494 3.628 0
M  V30 1920 H 169.49 -2.96386 4.06404 0
M  V30 1921 H 169.19 -1.9934 5.52754 0
M  V30 1922 H 170.714 -2.91189 5.36695 0
M  V30 1923 H 172.128 -0.664186 5.6944 0
M  V30 1924 H 170.525 0.0653265 6.00064 0
M  V30 1925 H 171.595 0.786347 4.78482 0
M  V30 1926 N 172.938 -1.57226 0.108567 0
M  V30 1927 C 174.187 -1.94008 -0.551703 0
M  V30 1928 C 174.5 -0.993442 -1.68494 0
M  V30 1929 O 175.706 -1.25551 -2.40726 0
M  V30 1930 C 174.162 -3.44763 -1.03279 0
M  V30 1931 C 173.77 -4.47943 0.0714193 0
M  V30 1932 C 175.514 -3.90483 -1.66503 0
M  V30 1933 C 173.421 -5.89865 -0.425779 0
M  V30 1934 H 172.351 -0.724206 -0.209863 0
M  V30 1935 H 175.002 -1.82547 0.186741 0
M  V30 1936 H 173.384 -3.51422 -1.82533 0
M  V30 1937 H 174.558 -4.52942 0.847365 0
M  V30 1938 H 172.873 -4.11913 0.609669 0
M  V30 1939 H 175.47 -4.93925 -2.04798 0
M  V30 1940 H 175.813 -3.29877 -2.53942 0
M  V30 1941 H 176.346 -3.86581 -0.938074 0
M  V30 1942 H 173.085 -6.54202 0.412316 0
M  V30 1943 H 172.605 -5.88309 -1.16843 0
M  V30 1944 H 174.284 -6.40844 -0.890397 0
M  V30 1945 N 174.416 0.165178 -1.56732 0
M  V30 1946 C 175.349 1.23336 -1.91998 0
M  V30 1947 C 176.327 1.42476 -0.783531 0
M  V30 1948 O 177.511 1.57384 -1.03743 0
M  V30 1949 C 174.638 2.59533 -2.17625 0
M  V30 1950 C 173.684 2.57093 -3.40302 0
M  V30 1951 S 174.517 2.05571 -4.9447 0
M  V30 1952 C 175.673 3.43532 -5.23198 0
M  V30 1953 H 175.906 0.932387 -2.82301 0
M  V30 1954 H 173.439 0.370013 -1.49901 0
M  V30 1955 H 175.397 3.37918 -2.3307 0
M  V30 1956 H 174.058 2.86827 -1.28019 0
M  V30 1957 H 173.251 3.57308 -3.55453 0
M  V30 1958 H 172.853 1.86806 -3.24005 0
M  V30 1959 H 175.145 4.39559 -5.15552 0
M  V30 1960 H 176.088 3.33251 -6.2478 0
M  V30 1961 H 176.496 3.39828 -4.50752 0
M  V30 1962 N 175.894 1.51508 0.433938 0
M  V30 1963 C 177.122 1.68157 1.20543 0
M  V30 1964 C 177.537 0.380362 1.84929 0
M  V30 1965 O 176.894 -0.641446 1.70856 0
M  V30 1966 C 176.945 2.79965 2.28696 0
M  V30 1967 O 176.666 4.05045 1.66943 0
M  V30 1968 C 178.167 3.07912 3.18912 0
M  V30 1969 H 175.387 0.56421 0.363191 0
M  V30 1970 H 177.931 1.97941 0.513754 0
M  V30 1971 H 176.086 2.5277 2.93574 0
M  V30 1972 H 176.5 4.67165 2.38448 0
M  V30 1973 H 177.974 3.89719 3.90926 0
M  V30 1974 H 178.451 2.20456 3.79863 0
M  V30 1975 H 179.057 3.36779 2.59731 0
M  V30 1976 N 177.372 -0.689602 1.41712 0
M  V30 1977 C 178.597 -1.48329 1.44959 0
M  V30 1978 C 179.022 -1.8801 0.0581283 0
M  V30 1979 O 178.38 -1.55026 -0.940035 0
M  V30 1980 C 178.428 -2.71835 2.36935 0
M  V30 1981 O 177.532 -3.69549 1.8305 0
M  V30 1982 H 176.873 -0.446199 0.491734 0
M  V30 1983 H 179.403 -0.847127 1.86239 0
M  V30 1984 H 179.413 -3.20076 2.53013 0
M  V30 1985 H 178.088 -2.42291 3.38035 0
M  V30 1986 H 176.665 -3.2851 1.76452 0
M  V30 1987 N 178.85 -1.27639 -0.924453 0
M  V30 1988 C 179.797 -1.10644 -2.0255 0
M  V30 1989 C 180.767 -0.00658438 -1.66099 0
M  V30 1990 O 181.952 -0.16952 -1.90045 0
M  V30 1991 C 179.092 -0.76309 -3.36557 0
M  V30 1992 C 178.205 -1.94091 -3.85944 0
M  V30 1993 C 177.34 -1.53914 -5.08413 0
M  V30 1994 C 176.379 -2.68425 -5.50104 0
M  V30 1995 N 175.516 -2.28815 -6.63768 0
M  V30 1996 H 180.356 -2.04858 -2.16419 0
M  V30 1997 H 177.893 -1.01974 -1.06017 0
M  V30 1998 H 179.851 -0.544822 -4.13627 0
M  V30 1999 H 178.481 0.142102 -3.22487 0
M  V30 2000 H 177.533 -2.27162 -3.05125 0
M  V30 2001 H 178.845 -2.7998 -4.12811 0
M  V30 2002 H 177.999 -1.28231 -5.92994 0
M  V30 2003 H 176.738 -0.651391 -4.8333 0
M  V30 2004 H 175.743 -2.94819 -4.64071 0
M  V30 2005 H 176.968 -3.57826 -5.7718 0
M  V30 2006 H 174.914 -1.42495 -6.40337 0
M  V30 2007 H 174.831 -3.08242 -6.90306 0
M  V30 2008 H 176.099 -2.06387 -7.51681 0
M  V30 2009 N 180.328 1.1314 -1.09713 0
M  V30 2010 C 181.26 2.18343 -0.697056 0
M  V30 2011 C 182.273 1.60669 0.262551 0
M  V30 2012 O 183.462 1.78435 0.0481527 0
M  V30 2013 C 180.562 3.38899 -0.00684728 0
M  V30 2014 C 179.735 4.26078 -0.988741 0
M  V30 2015 C 178.794 5.25155 -0.331394 0
M  V30 2016 O 177.82 5.60701 -0.979926 0
M  V30 2017 N 179.022 5.73271 0.913261 0
M  V30 2018 H 181.787 2.5328 -1.60216 0
M  V30 2019 H 179.348 1.28491 -0.984971 0
M  V30 2020 H 181.34 4.02255 0.444191 0
M  V30 2021 H 179.91 3.02175 0.800551 0
M  V30 2022 H 179.13 3.59453 -1.61826 0
M  V30 2023 H 180.418 4.81178 -1.65364 0
M  V30 2024 H 179.816 5.46544 1.45966 0
M  V30 2025 H 178.373 6.3855 1.30757 0
M  V30 2026 N 181.806 0.884767 1.30421 0
M  V30 2027 C 182.754 0.340869 2.30089 0
M  V30 2028 C 183.748 -0.55201 1.60154 0
M  V30 2029 O 184.954 -0.436467 1.74628 0
M  V30 2030 H 181.329 0.0915739 0.746404 0
M  V30 2031 H 183.3 1.19513 2.73421 0
M  V30 2032 C 182.049 -0.429779 3.45034 0
M  V30 2033 H 181.372 0.248024 3.9903 0
M  V30 2034 H 182.812 -0.775445 4.16849 0
M  V30 2035 C 181.271 -1.62677 2.95022 0
M  V30 2036 O 181.801 -2.72614 2.95033 0
M  V30 2037 N 180.007 -1.46387 2.51036 0
M  V30 2038 H 179.554 -0.569506 2.51226 0
M  V30 2039 H 179.512 -2.26612 2.17932 0
M  V30 2040 N 183.284 -1.43765 0.645699 0
M  V30 2041 C 184.531 -2.01898 0.15604 0
M  V30 2042 C 184.859 -1.50887 -1.22733 0
M  V30 2043 O 184.114 -0.689271 -1.8316 0
M  V30 2044 C 184.413 -3.57238 0.107679 0
M  V30 2045 C 184.079 -4.27564 1.43178 0
M  V30 2046 C 182.741 -4.46492 1.7944 0
M  V30 2047 C 185.093 -4.67454 2.30513 0
M  V30 2048 C 182.421 -5.02573 3.02716 0
M  V30 2049 C 184.773 -5.24901 3.53074 0
M  V30 2050 C 183.437 -5.42046 3.89541 0
M  V30 2051 H 182.707 -0.738797 0.057099 0
M  V30 2052 H 185.354 -1.72341 0.834912 0
M  V30 2053 H 183.659 -3.86293 -0.654618 0
M  V30 2054 H 185.356 -3.99965 -0.287938 0
M  V30 2055 H 181.946 -4.13171 1.13963 0
M  V30 2056 H 186.13 -4.5253 2.0379 0
M  V30 2057 H 181.386 -5.14033 3.31028 0
M  V30 2058 H 185.56 -5.54758 4.20971 0
M  V30 2059 H 183.187 -5.85268 4.85145 0
M  V30 2060 N 184.763 -0.387143 -1.52771 0
M  V30 2061 C 186.04 0.253197 -1.93954 0
M  V30 2062 C 186.42 1.64545 -1.32243 0
M  V30 2063 O 185.768 2.23191 -0.489699 0
M  V30 2064 C 185.978 0.281722 -3.47861 0
M  V30 2065 C 187.326 0.511715 -4.21505 0
M  V30 2066 O 188.35 0.362023 -3.54356 0
M  V30 2067 O 187.209 0.804847 -5.40541 0
M  V30 2068 H 184.303 0.156845 -0.811991 0
M  V30 2069 H 186.849 -0.441494 -1.63856 0
M  V30 2070 H 185.621 -0.693571 -3.85104 0
M  V30 2071 H 185.244 1.02142 -3.84256 0
M  V30 2072 N 186.241 1.57166 -0.116904 0
M  V30 2073 C 187.188 2.15202 0.83408 0
M  V30 2074 C 188.158 1.07644 1.26499 0
M  V30 2075 O 189.343 1.35541 1.34288 0
M  V30 2076 C 186.483 2.75405 2.07957 0
M  V30 2077 C 185.596 3.97264 1.69721 0
M  V30 2078 C 184.731 4.45561 2.89221 0
M  V30 2079 C 183.77 5.59956 2.47215 0
M  V30 2080 N 182.907 6.03006 3.59622 0
M  V30 2081 H 187.747 2.96141 0.332335 0
M  V30 2082 H 185.284 1.46309 0.152349 0
M  V30 2083 H 187.242 3.08439 2.80929 0
M  V30 2084 H 185.872 1.97159 2.55594 0
M  V30 2085 H 184.924 3.70404 0.866316 0
M  V30 2086 H 186.236 4.80226 1.34849 0
M  V30 2087 H 185.39 4.80493 3.7042 0
M  V30 2088 H 184.129 3.61544 3.27318 0
M  V30 2089 H 183.134 5.2463 1.64448 0
M  V30 2090 H 184.359 6.45738 2.10238 0
M  V30 2091 H 182.305 5.21931 3.97396 0
M  V30 2092 H 182.222 6.80819 3.28667 0
M  V30 2093 H 183.49 6.42576 4.41267 0
M  V30 2094 N 187.719 -0.156864 1.56817 0
M  V30 2095 C 188.947 -0.886316 1.86955 0
M  V30 2096 C 189.362 -1.75185 0.703975 0
M  V30 2097 O 188.719 -1.79555 -0.326552 0
M  V30 2098 C 188.77 -1.75117 3.16253 0
M  V30 2099 O 188.491 -0.920537 4.2832 0
M  V30 2100 C 189.992 -2.58905 3.59837 0
M  V30 2101 H 187.212 -0.25678 0.619923 0
M  V30 2102 H 189.756 -0.152615 2.0393 0
M  V30 2103 H 187.911 -2.43805 3.01062 0
M  V30 2104 H 188.325 -1.51337 5.02192 0
M  V30 2105 H 189.799 -3.1518 4.53172 0
M  V30 2106 H 190.276 -3.34472 2.84649 0
M  V30 2107 H 190.882 -1.95526 3.7769 0
M  V30 2108 N 189.197 -1.51736 -0.425897 0
M  V30 2109 C 190.422 -1.69082 -1.20108 0
M  V30 2110 C 190.847 -0.392398 -1.83962 0
M  V30 2111 O 190.205 0.64858 -1.69302 0
M  V30 2112 C 190.253 -2.81604 -2.25237 0
M  V30 2113 O 189.357 -2.46004 -3.30992 0
M  V30 2114 H 188.698 -0.563408 -0.35138 0
M  V30 2115 H 191.228 -1.98358 -0.501512 0
M  V30 2116 H 191.238 -3.06025 -2.69838 0
M  V30 2117 H 189.913 -3.75817 -1.78142 0
M  V30 2118 H 188.49 -2.32195 -2.91787 0
M  V30 2119 N 190.675 0.682077 -1.42076 0
M  V30 2120 C 191.922 1.44215 -1.42156 0
M  V30 2121 C 192.25 1.94468 -0.0354186 0
M  V30 2122 O 191.505 1.70816 0.955002 0
M  V30 2123 C 191.804 2.66036 -2.38662 0
M  V30 2124 C 191.47 2.34366 -3.85206 0
M  V30 2125 C 190.132 2.25439 -4.25124 0
M  V30 2126 C 192.484 2.08513 -4.77673 0
M  V30 2127 C 189.812 1.88775 -5.55501 0
M  V30 2128 C 192.164 1.73354 -6.08384 0
M  V30 2129 C 190.828 1.62933 -6.47309 0
M  V30 2130 H 190.098 0.527718 -0.520187 0
M  V30 2131 H 192.745 0.778387 -1.74967 0
M  V30 2132 H 191.05 3.3741 -1.99152 0
M  V30 2133 H 192.747 3.24205 -2.35991 0
M  V30 2134 H 189.337 2.42213 -3.53597 0
M  V30 2135 H 193.521 2.14346 -4.47626 0
M  V30 2136 H 188.777 1.7927 -5.84527 0
M  V30 2137 H 192.951 1.52373 -6.79526 0
M  V30 2138 H 190.578 1.34292 -7.48244 0
M  V30 2139 N 192.153 1.28127 0.917671 0
M  V30 2140 C 193.383 1.17722 1.6978 0
M  V30 2141 C 193.791 -0.267261 1.87303 0
M  V30 2142 O 193.134 -1.19286 1.39702 0
M  V30 2143 C 193.196 1.79958 3.11216 0
M  V30 2144 C 192.86 3.29187 3.16993 0
M  V30 2145 C 193.857 4.25679 2.98485 0
M  V30 2146 C 191.542 3.70075 3.39632 0
M  V30 2147 C 193.536 5.61035 3.02521 0
M  V30 2148 C 191.223 5.05557 3.433 0
M  V30 2149 C 192.221 6.00847 3.24764 0
M  V30 2150 O 191.909 7.33859 3.28187 0
M  V30 2151 H 191.641 0.409788 0.537634 0
M  V30 2152 H 194.195 1.69694 1.15728 0
M  V30 2153 H 192.425 1.22475 3.66793 0
M  V30 2154 H 194.114 1.64125 3.71238 0
M  V30 2155 H 194.88 3.95426 2.80826 0
M  V30 2156 H 190.759 2.96373 3.53106 0
M  V30 2157 H 194.303 6.35388 2.87971 0
M  V30 2158 H 190.2 5.35462 3.60486 0
M  V30 2159 H 190.968 7.42436 3.44575 0
M  V30 2160 N 193.631 -1.12557 1.10312 0
M  V30 2161 C 194.88 -1.83395 0.839588 0
M  V30 2162 C 195.193 -1.84939 -0.636929 0
M  V30 2163 O 196.399 -2.51761 -1.01631 0
M  V30 2164 C 194.855 -3.29303 1.45215 0
M  V30 2165 C 194.463 -3.36122 2.96186 0
M  V30 2166 C 196.207 -4.05121 1.26796 0
M  V30 2167 C 194.114 -4.76357 3.50483 0
M  V30 2168 H 193.044 -0.687133 0.310425 0
M  V30 2169 H 195.695 -1.26746 1.32694 0
M  V30 2170 H 194.077 -3.85812 0.892469 0
M  V30 2171 H 195.251 -2.89559 3.58458 0
M  V30 2172 H 193.566 -2.73776 3.13745 0
M  V30 2173 H 196.163 -5.08668 1.64806 0
M  V30 2174 H 196.506 -4.15773 0.209409 0
M  V30 2175 H 197.039 -3.54967 1.79563 0
M  V30 2176 H 193.778 -4.70899 4.55998 0
M  V30 2177 H 193.298 -5.23377 2.92978 0
M  V30 2178 H 194.977 -5.45294 3.48228 0
M  V30 2179 N 195.109 -0.891671 -1.2995 0
M  V30 2180 C 196.039 -0.379797 -2.30391 0
M  V30 2181 C 197.02 0.540919 -1.6127 0
M  V30 2182 O 198.205 0.453352 -1.88834 0
M  V30 2183 C 195.335 0.400654 -3.44981 0
M  V30 2184 C 194.289 -0.428905 -4.25846 0
M  V30 2185 C 193.615 0.478557 -5.32554 0
M  V30 2186 C 194.915 -1.67458 -4.94727 0
M  V30 2187 H 196.609 -1.21914 -2.73454 0
M  V30 2188 H 194.155 -0.587675 -1.31462 0
M  V30 2189 H 196.108 0.769434 -4.14316 0
M  V30 2190 H 194.832 1.27371 -3.0074 0
M  V30 2191 H 193.491 -0.779911 -3.58208 0
M  V30 2192 H 193.139 1.34951 -4.84559 0
M  V30 2193 H 192.839 -0.0727433 -5.87555 0
M  V30 2194 H 194.363 0.843705 -6.04743 0
M  V30 2195 H 195.777 -1.376 -5.56542 0
M  V30 2196 H 194.174 -2.16659 -5.59624 0
M  V30 2197 H 195.244 -2.41518 -4.20473 0
M  V30 2198 N 196.587 1.43421 -0.653314 0
M  V30 2199 C 197.833 2.02111 -0.166992 0
M  V30 2200 C 198.166 1.51423 1.21592 0
M  V30 2201 O 197.441 0.707389 1.8118 0
M  V30 2202 C 197.724 3.5966 -0.177948 0
M  V30 2203 C 197.577 4.20579 -1.59478 0
M  V30 2204 C 198.896 4.37413 0.4856 0
M  V30 2205 H 196.015 0.734374 -0.0621557 0
M  V30 2206 H 198.657 1.70717 -0.834016 0
M  V30 2207 H 196.807 3.86537 0.390032 0
M  V30 2208 H 198.479 4.04732 -2.21336 0
M  V30 2209 H 196.722 3.77226 -2.14204 0
M  V30 2210 H 197.393 5.29665 -1.5543 0
M  V30 2211 H 199.869 4.161 0.00234528 0
M  V30 2212 H 198.745 5.47075 0.447207 0
M  V30 2213 H 199.006 4.13672 1.55974 0
M  V30 2214 N 198.065 0.39524 1.52563 0
M  V30 2215 C 199.015 -0.4541 2.23432 0
M  V30 2216 C 199.999 -1.02482 1.24042 0
M  V30 2217 O 201.191 -0.949938 1.49349 0
M  V30 2218 C 198.32 -1.57769 3.049 0
M  V30 2219 C 197.406 -1.01842 4.1169 0
M  V30 2220 N 197.797 -0.184613 5.05463 0
M  V30 2221 C 196.095 -1.29033 4.26927 0
M  V30 2222 C 196.796 0.125013 5.81566 0
M  V30 2223 N 195.772 -0.480498 5.41472 0
M  V30 2224 H 199.574 0.189413 2.93289 0
M  V30 2225 H 197.088 0.204877 1.61102 0
M  V30 2226 H 199.085 -2.19862 3.54212 0
M  V30 2227 H 197.745 -2.22397 2.36579 0
M  V30 2228 H 198.756 0.178602 5.17592 0
M  V30 2229 H 195.433 -1.93721 3.69836 0
M  V30 2230 H 196.823 0.800962 6.67109 0
M  V30 2231 N 199.544 -1.57102 0.125237 0
M  V30 2232 C 200.454 -2.19191 -0.8362 0
M  V30 2233 C 201.47 -1.16985 -1.28805 0
M  V30 2234 O 202.646 -1.49479 -1.34974 0
M  V30 2235 C 199.711 -2.78407 -2.06617 0
M  V30 2236 C 198.772 -3.9567 -1.66565 0
M  V30 2237 C 198.005 -4.52052 -2.83698 0
M  V30 2238 O 198.228 -4.07326 -3.99302 0
M  V30 2239 O 197.162 -5.42645 -2.60423 0
M  V30 2240 H 200.988 -3.01816 -0.337776 0
M  V30 2241 H 198.573 -1.4906 -0.100695 0
M  V30 2242 H 200.455 -3.16129 -2.7864 0
M  V30 2243 H 199.13 -1.9881 -2.55453 0
M  V30 2244 H 198.037 -3.62705 -0.916296 0
M  V30 2245 H 199.37 -4.76722 -1.22464 0
M  V30 2246 N 201.022 0.148545 -1.56898 0
M  V30 2247 C 202.438 0.501131 -1.51528 0
M  V30 2248 C 202.638 1.83458 -0.833399 0
M  V30 2249 O 201.694 2.49259 -0.40328 0
M  V30 2250 C 203.007 0.512864 -2.96294 0
M  V30 2251 C 204.555 0.598487 -3.07225 0
M  V30 2252 C 205.03 0.640897 -4.53494 0
M  V30 2253 N 206.521 0.703163 -4.57832 0
M  V30 2254 C 207.256 0.756935 -5.68382 0
M  V30 2255 N 206.752 0.770147 -6.88506 0
M  V30 2256 N 208.545 0.797698 -5.56411 0
M  V30 2257 H 200.696 -0.725532 -1.99624 0
M  V30 2258 H 202.959 -0.264358 -0.910395 0
M  V30 2259 H 202.665 -0.398691 -3.49433 0
M  V30 2260 H 202.539 1.35133 -3.52163 0
M  V30 2261 H 204.926 1.50046 -2.54106 0
M  V30 2262 H 205.007 -0.267093 -2.54402 0
M  V30 2263 H 204.651 -0.256915 -5.0725 0
M  V30 2264 H 204.581 1.52295 -5.04097 0
M  V30 2265 H 207.072 0.700314 -3.71354 0
M  V30 2266 H 207.385 0.812983 -7.68512 0
M  V30 2267 H 205.73 0.738049 -6.9107 0
M  V30 2268 H 208.921 0.784535 -4.61479 0
M  V30 2269 H 209.094 0.83614 -6.42583 0
M  V30 2270 N 202.5 1.5196 0.417844 0
M  V30 2271 C 203.448 1.75278 1.52907 0
M  V30 2272 C 204.442 0.619611 1.57662 0
M  V30 2273 O 205.648 0.801457 1.61173 0
M  V30 2274 H 202.023 0.554141 0.508362 0
M  V30 2275 H 203.994 2.68389 1.30422 0
M  V30 2276 C 202.743 1.91262 2.90369 0
M  V30 2277 H 202.066 2.77872 2.8745 0
M  V30 2278 H 203.506 2.11581 3.67436 0
M  V30 2279 C 201.965 0.677431 3.30019 0
M  V30 2280 O 202.495 -0.158799 4.01386 0
M  V30 2281 N 200.701 0.515851 2.85985 0
M  V30 2282 H 200.248 1.19744 2.28077 0
M  V30 2283 H 200.206 -0.309315 3.12875 0
M  V30 2284 N 203.978 -0.674533 1.42435 0
M  V30 2285 C 204.925 -1.78807 1.45934 0
M  V30 2286 C 205.895 -1.63157 0.311271 0
M  V30 2287 O 207.08 -1.83707 0.515383 0
M  V30 2288 C 204.22 -3.16839 1.36773 0
M  V30 2289 C 203.333 -3.43774 2.61617 0
M  V30 2290 C 202.468 -4.71536 2.44597 0
M  V30 2291 C 201.507 -4.91505 3.64814 0
M  V30 2292 N 200.644 -6.10508 3.46734 0
M  V30 2293 H 205.484 -1.75151 2.41093 0
M  V30 2294 H 203.021 -0.85504 1.19697 0
M  V30 2295 H 204.979 -3.96606 1.29459 0
M  V30 2296 H 203.609 -3.19619 0.452089 0
M  V30 2297 H 202.661 -2.58259 2.79297 0
M  V30 2298 H 203.973 -3.54423 3.50978 0
M  V30 2299 H 203.127 -5.59393 2.3487 0
M  V30 2300 H 201.866 -4.6317 1.52726 0
M  V30 2301 H 200.871 -4.0209 3.74972 0
M  V30 2302 H 202.096 -5.01716 4.57665 0
M  V30 2303 H 200.042 -6.03315 2.5758 0
M  V30 2304 H 199.959 -6.2202 4.29682 0
M  V30 2305 H 201.227 -7.01044 3.40819 0
M  V30 2306 N 205.456 -1.28612 -0.910864 0
M  V30 2307 C 206.403 -1.12786 -2.01365 0
M  V30 2308 C 207.373 -0.024201 -1.66082 0
M  V30 2309 O 208.558 -0.189667 -1.89855 0
M  V30 2310 C 205.698 -0.798743 -3.35729 0
M  V30 2311 C 204.811 -1.98173 -3.83864 0
M  V30 2312 C 203.946 -1.59298 -5.06752 0
M  V30 2313 C 202.985 -2.74245 -5.47226 0
M  V30 2314 N 202.122 -2.35842 -6.61304 0
M  V30 2315 H 206.962 -2.07142 -2.14234 0
M  V30 2316 H 204.499 -1.03093 -1.0493 0
M  V30 2317 H 206.457 -0.588662 -4.13026 0
M  V30 2318 H 205.087 0.10789 -3.2262 0
M  V30 2319 H 204.139 -2.30386 -3.02699 0
M  V30 2320 H 205.451 -2.84343 -4.09818 0
M  V30 2321 H 204.605 -1.34513 -5.916 0
M  V30 2322 H 203.344 -0.702618 -4.82612 0
M  V30 2323 H 202.349 -2.99725 -4.60918 0
M  V30 2324 H 203.574 -3.63928 -5.73353 0
M  V30 2325 H 201.52 -1.49279 -6.38789 0
M  V30 2326 H 201.437 -3.15546 -6.86998 0
M  V30 2327 H 202.705 -2.14348 -7.4945 0
M  V30 2328 N 206.934 1.1197 -1.10907 0
M  V30 2329 C 207.864 2.19928 -0.784473 0
M  V30 2330 C 208.845 1.6833 0.244726 0
M  V30 2331 O 210.03 1.93892 0.109418 0
M  V30 2332 C 207.16 3.46597 -0.220827 0
M  V30 2333 C 206.114 4.11376 -1.18127 0
M  V30 2334 C 205.44 5.32554 -0.478594 0
M  V30 2335 C 206.74 4.56945 -2.52979 0
M  V30 2336 H 208.434 2.47337 -1.68715 0
M  V30 2337 H 205.98 1.18879 -0.812642 0
M  V30 2338 H 207.933 4.21396 0.0184278 0
M  V30 2339 H 206.657 3.1863 0.717113 0
M  V30 2340 H 205.316 3.38564 -1.40606 0
M  V30 2341 H 204.964 5.00856 0.463976 0
M  V30 2342 H 204.664 5.76844 -1.11912 0
M  V30 2343 H 206.188 6.10096 -0.248 0
M  V30 2344 H 207.602 5.23093 -2.3462 0
M  V30 2345 H 205.999 5.1203 -3.12962 0
M  V30 2346 H 207.069 3.70676 -3.12614 0
M  V30 2347 N 208.412 0.89855 1.29475 0
M  V30 2348 C 209.344 0.332726 2.26772 0
M  V30 2349 C 210.357 -0.520323 1.54261 0
M  V30 2350 O 211.546 -0.337668 1.75277 0
M  V30 2351 C 208.646 -0.544334 3.345 0
M  V30 2352 C 207.819 0.282728 4.36485 0
M  V30 2353 C 206.878 -0.526982 5.23555 0
M  V30 2354 O 205.904 0.0551165 5.69173 0
M  V30 2355 N 207.106 -1.83331 5.5079 0
M  V30 2356 H 209.871 1.16897 2.75962 0
M  V30 2357 H 207.432 0.762919 1.42798 0
M  V30 2358 H 209.424 -1.09239 3.89678 0
M  V30 2359 H 207.994 -1.28127 2.85136 0
M  V30 2360 H 207.214 1.01221 3.80983 0
M  V30 2361 H 208.502 0.84918 5.01664 0
M  V30 2362 H 207.9 -2.32898 5.15534 0
M  V30 2363 H 206.457 -2.32852 6.08788 0
M  V30 2364 N 209.89 -1.43072 0.660911 0
M  V30 2365 C 211.12 -2.05769 0.185153 0
M  V30 2366 C 211.528 -1.49668 -1.15742 0
M  V30 2367 O 210.871 -0.625649 -1.72717 0
M  V30 2368 C 210.933 -3.59489 0.0278237 0
M  V30 2369 C 210.597 -4.38212 1.2969 0
M  V30 2370 C 211.594 -4.69772 2.22734 0
M  V30 2371 C 209.279 -4.7809 1.54063 0
M  V30 2372 C 211.273 -5.40129 3.38437 0
M  V30 2373 C 208.96 -5.4819 2.70058 0
M  V30 2374 C 209.958 -5.79132 3.62071 0
M  V30 2375 O 209.646 -6.47798 4.76039 0
M  V30 2376 H 209.378 -0.669873 0.0908086 0
M  V30 2377 H 211.932 -1.84436 0.90402 0
M  V30 2378 H 210.162 -3.79426 -0.746489 0
M  V30 2379 H 211.851 -4.03862 -0.406275 0
M  V30 2380 H 212.617 -4.39476 2.05149 0
M  V30 2381 H 208.496 -4.53408 0.833215 0
M  V30 2382 H 212.04 -5.64198 4.10277 0
M  V30 2383 H 207.937 -5.77902 2.87574 0
M  V30 2384 H 208.705 -6.66283 4.75404 0
M  V30 2385 N 211.368 -0.403325 -1.52352 0
M  V30 2386 C 212.615 0.174347 -2.01748 0
M  V30 2387 C 212.943 1.45636 -1.2892 0
M  V30 2388 O 212.198 1.9193 -0.382258 0
M  V30 2389 C 212.497 0.474665 -3.54234 0
M  V30 2390 C 212.163 -0.717458 -4.45155 0
M  V30 2391 C 210.825 -1.04447 -4.69728 0
M  V30 2392 C 213.177 -1.51432 -4.98716 0
M  V30 2393 C 210.505 -2.16963 -5.45109 0
M  V30 2394 C 212.857 -2.6302 -5.75329 0
M  V30 2395 C 211.521 -2.96213 -5.98175 0
M  V30 2396 H 210.791 0.0637981 -0.738248 0
M  V30 2397 H 213.438 -0.543553 -1.83624 0
M  V30 2398 H 211.743 1.27406 -3.70506 0
M  V30 2399 H 213.44 0.934496 -3.89959 0
M  V30 2400 H 210.03 -0.452596 -4.26204 0
M  V30 2401 H 214.214 -1.27491 -4.79645 0
M  V30 2402 H 209.47 -2.43034 -5.61021 0
M  V30 2403 H 213.644 -3.25158 -6.15829 0
M  V30 2404 H 211.271 -3.83516 -6.56368 0
M  V30 2405 N 212.846 1.57033 -0.133567 0
M  V30 2406 C 213.779 2.11824 0.848872 0
M  V30 2407 C 214.757 1.03833 1.2513 0
M  V30 2408 O 215.941 1.31579 1.34978 0
M  V30 2409 C 213.068 2.62692 2.138 0
M  V30 2410 C 212.114 3.82705 1.88253 0
M  V30 2411 S 212.947 5.2438 1.08563 0
M  V30 2412 C 214.103 5.78627 2.38624 0
M  V30 2413 H 214.336 2.94824 0.38289 0
M  V30 2414 H 211.869 1.5419 0.0804796 0
M  V30 2415 H 213.827 2.92652 2.87863 0
M  V30 2416 H 212.488 1.79847 2.57515 0
M  V30 2417 H 211.681 4.16496 2.83809 0
M  V30 2418 H 211.283 3.53437 1.22305 0
M  V30 2419 H 213.575 5.8924 3.34369 0
M  V30 2420 H 214.518 6.76443 2.09358 0
M  V30 2421 H 214.926 5.06783 2.48658 0
M  V30 2422 N 214.325 -0.140222 1.56975 0
M  V30 2423 C 215.255 -1.17456 2.01808 0
M  V30 2424 C 216.236 -1.44415 0.898794 0
M  V30 2425 O 217.421 -1.5522 1.16707 0
M  V30 2426 C 214.551 -2.50607 2.40444 0
M  V30 2427 C 213.505 -2.38155 3.55621 0
M  V30 2428 C 212.831 -3.76078 3.80091 0
M  V30 2429 C 214.131 -1.85991 4.88062 0
M  V30 2430 H 215.825 -0.801743 2.88466 0
M  V30 2431 H 213.371 -0.38422 1.38779 0
M  V30 2432 H 215.324 -3.23197 2.7041 0
M  V30 2433 H 214.048 -2.89737 1.50732 0
M  V30 2434 H 212.707 -1.68016 3.25832 0
M  V30 2435 H 212.355 -4.12656 2.87618 0
M  V30 2436 H 212.055 -3.68606 4.57606 0
M  V30 2437 H 213.579 -4.50206 4.12488 0
M  V30 2438 H 214.993 -2.4838 5.16701 0
M  V30 2439 H 213.39 -1.89393 5.6943 0
M  V30 2440 H 214.46 -0.816023 4.77984 0
M  V30 2441 N 215.803 -1.52179 -0.40978 0
M  V30 2442 C 217.052 -1.65434 -1.15388 0
M  V30 2443 C 217.365 -0.390056 -1.91671 0
M  V30 2444 O 218.571 -0.402399 -2.68501 0
M  V30 2445 C 217.027 -2.92279 -2.10003 0
M  V30 2446 C 216.635 -4.25813 -1.39239 0
M  V30 2447 C 218.379 -3.14897 -2.84675 0
M  V30 2448 C 216.286 -5.43782 -2.32498 0
M  V30 2449 H 215.216 -0.616267 -0.434432 0
M  V30 2450 H 217.867 -1.78666 -0.418401 0
M  V30 2451 H 216.249 -2.72744 -2.871 0
M  V30 2452 H 217.423 -4.55828 -0.675099 0
M  V30 2453 H 215.738 -4.09292 -0.766097 0
M  V30 2454 H 218.335 -4.0021 -3.54593 0
M  V30 2455 H 218.678 -2.29103 -3.47588 0
M  V30 2456 H 219.211 -3.34901 -2.14677 0
M  V30 2457 H 215.95 -6.3192 -1.74233 0
M  V30 2458 H 215.47 -5.18106 -3.02201 0
M  V30 2459 H 217.149 -5.76834 -2.93038 0
M  V30 2460 N 217.281 0.66697 -1.42791 0
M  V30 2461 C 218.506 1.46004 -1.47301 0
M  V30 2462 C 218.931 1.87894 -0.0880317 0
M  V30 2463 O 218.289 1.56502 0.915253 0
M  V30 2464 C 218.337 2.68031 -2.41229 0
M  V30 2465 O 217.441 3.6659 -1.88906 0
M  V30 2466 H 216.782 0.43832 -0.49877 0
M  V30 2467 H 219.312 0.817391 -1.87563 0
M  V30 2468 H 219.322 3.1601 -2.58073 0
M  V30 2469 H 217.997 2.36883 -3.41847 0
M  V30 2470 H 216.574 3.25661 -1.81656 0
M  V30 2471 N 218.759 1.29093 0.90403 0
M  V30 2472 C 219.689 1.16401 2.02418 0
M  V30 2473 C 220.67 0.0593085 1.69997 0
M  V30 2474 O 221.855 0.238021 1.92736 0
M  V30 2475 C 218.985 0.835233 3.37107 0
M  V30 2476 C 217.939 1.89578 3.83724 0
M  V30 2477 C 217.265 1.42041 5.15489 0
M  V30 2478 C 218.565 3.30394 4.04521 0
M  V30 2479 H 220.259 2.10109 2.13295 0
M  V30 2480 H 217.805 1.01157 1.02486 0
M  V30 2481 H 219.758 0.733169 4.14973 0
M  V30 2482 H 218.482 -0.137543 3.2631 0
M  V30 2483 H 217.141 1.98715 3.08071 0
M  V30 2484 H 216.789 0.436426 5.01103 0
M  V30 2485 H 216.489 2.12964 5.4765 0
M  V30 2486 H 218.013 1.33176 5.959 0
M  V30 2487 H 219.427 3.24123 4.72882 0
M  V30 2488 H 217.824 3.99237 4.48029 0
M  V30 2489 H 218.894 3.73692 3.09002 0
M  V30 2490 N 220.237 -1.11381 1.11499 0
M  V30 2491 C 221.486 -1.82494 0.858993 0
M  V30 2492 C 221.799 -1.85605 -0.617278 0
M  V30 2493 O 223.005 -2.52824 -0.989552 0
M  V30 2494 C 221.461 -3.27745 1.48699 0
M  V30 2495 C 221.069 -3.32961 2.99735 0
M  V30 2496 C 222.813 -4.03754 1.31085 0
M  V30 2497 C 220.72 -4.72612 3.55516 0
M  V30 2498 H 219.65 -0.683802 0.317696 0
M  V30 2499 H 222.301 -1.25331 1.34031 0
M  V30 2500 H 220.683 -3.84844 0.933339 0
M  V30 2501 H 221.857 -2.85741 3.61509 0
M  V30 2502 H 220.172 -2.70433 3.16631 0
M  V30 2503 H 222.769 -5.06891 1.70192 0
M  V30 2504 H 223.112 -4.15527 0.253496 0
M  V30 2505 H 223.645 -3.53043 1.83318 0
M  V30 2506 H 220.384 -4.66036 4.60967 0
M  V30 2507 H 219.904 -5.2024 2.98513 0
M  V30 2508 H 221.583 -5.4157 3.53992 0
M  V30 2509 N 221.715 -0.905404 -1.28997 0
M  V30 2510 C 222.94 -0.549175 -1.99997 0
M  V30 2511 C 223.365 0.860276 -1.67275 0
M  V30 2512 O 222.723 1.57355 -0.900502 0
M  V30 2513 C 222.771 -0.755185 -3.52604 0
M  V30 2514 O 221.875 0.189692 -4.11964 0
M  V30 2515 H 221.216 -0.213899 -0.628604 0
M  V30 2516 H 223.746 -1.21856 -1.64354 0
M  V30 2517 H 223.756 -0.662045 -4.02593 0
M  V30 2518 H 222.431 -1.78271 -3.75755 0
M  V30 2519 H 221.008 0.0485257 -3.72868 0
M  V30 2520 N 223.193 1.4272 -0.668489 0
M  V30 2521 C 224.442 2.00846 -0.185389 0
M  V30 2522 C 224.755 1.53442 1.21305 0
M  V30 2523 O 225.961 2.03944 1.79218 0
M  V30 2524 C 224.417 3.58805 -0.280591 0
M  V30 2525 C 224.025 4.15198 -1.68268 0
M  V30 2526 C 225.769 4.24255 0.14412 0
M  V30 2527 C 223.676 5.655 -1.73099 0
M  V30 2528 H 222.606 0.751145 -0.0655475 0
M  V30 2529 H 225.257 1.63516 -0.832752 0
M  V30 2530 H 223.639 3.93608 0.434553 0
M  V30 2531 H 224.813 3.91866 -2.42441 0
M  V30 2532 H 223.128 3.62176 -2.05469 0
M  V30 2533 H 225.725 5.34547 0.128086 0
M  V30 2534 H 226.068 3.99277 1.17827 0
M  V30 2535 H 226.601 3.94389 -0.519798 0
M  V30 2536 H 223.34 5.95268 -2.74475 0
M  V30 2537 H 222.86 5.90842 -1.03274 0
M  V30 2538 H 224.539 6.29808 -1.48158 0
M  V30 2539 N 224.671 0.411399 1.52136 0
M  V30 2540 C 225.917 -0.163888 2.02137 0
M  V30 2541 C 226.25 -1.44597 1.29636 0
M  V30 2542 O 225.525 -1.90272 0.403353 0
M  V30 2543 C 225.808 -0.40927 3.57767 0
M  V30 2544 C 225.661 0.889643 4.40914 0
M  V30 2545 C 226.98 -1.19042 4.23694 0
M  V30 2546 H 224.099 -0.0580896 0.734707 0
M  V30 2547 H 226.741 0.54531 1.82007 0
M  V30 2548 H 224.891 -1.0134 3.7505 0
M  V30 2549 H 226.563 1.52575 4.35337 0
M  V30 2550 H 224.806 1.50011 4.07037 0
M  V30 2551 H 225.477 0.672314 5.4789 0
M  V30 2552 H 227.953 -0.678942 4.10524 0
M  V30 2553 H 226.829 -1.33086 5.32522 0
M  V30 2554 H 227.09 -2.21166 3.82803 0
M  V30 2555 N 226.149 -1.5696 0.141893 0
M  V30 2556 C 227.079 -2.19516 -0.795936 0
M  V30 2557 C 228.06 -1.14187 -1.26077 0
M  V30 2558 O 229.245 -1.42511 -1.31925 0
M  V30 2559 C 226.375 -2.81272 -2.03723 0
M  V30 2560 C 225.329 -3.92384 -1.70936 0
M  V30 2561 C 224.655 -4.41052 -3.02287 0
M  V30 2562 C 225.955 -5.13403 -0.959954 0
M  V30 2563 H 227.649 -2.98138 -0.274596 0
M  V30 2564 H 225.195 -1.43406 -0.130636 0
M  V30 2565 H 227.148 -3.237 -2.69808 0
M  V30 2566 H 225.872 -1.99973 -2.58221 0
M  V30 2567 H 224.531 -3.50566 -1.07232 0
M  V30 2568 H 224.179 -3.56582 -3.54765 0
M  V30 2569 H 223.879 -5.15993 -2.81114 0
M  V30 2570 H 225.403 -4.86146 -3.69451 0
M  V30 2571 H 226.817 -5.52706 -1.52279 0
M  V30 2572 H 225.214 -5.94073 -0.848357 0
M  V30 2573 H 226.284 -4.84875 0.0492434 0
M  V30 2574 N 227.627 0.131896 -1.57047 0
M  V30 2575 C 228.876 0.84044 -1.83356 0
M  V30 2576 C 229.189 1.81646 -0.725535 0
M  V30 2577 O 230.395 2.57025 -0.874659 0
M  V30 2578 C 228.851 1.54528 -3.25037 0
M  V30 2579 C 228.459 0.610902 -4.43815 0
M  V30 2580 C 230.203 2.23972 -3.60606 0
M  V30 2581 C 228.11 1.31823 -5.76521 0
M  V30 2582 H 227.04 0.317599 -0.683847 0
M  V30 2583 H 229.691 0.0931561 -1.83263 0
M  V30 2584 H 228.073 2.33873 -3.19561 0
M  V30 2585 H 229.247 -0.148407 -4.60561 0
M  V30 2586 H 227.562 0.0241016 -4.16393 0
M  V30 2587 H 230.159 2.77558 -4.57018 0
M  V30 2588 H 230.502 3.01173 -2.87403 0
M  V30 2589 H 231.035 1.51529 -3.6781 0
M  V30 2590 H 227.774 0.587771 -6.52859 0
M  V30 2591 H 227.294 2.04987 -5.63685 0
M  V30 2592 H 228.973 1.855 -6.19838 0
M  V30 2593 N 229.106 1.52395 0.401703 0
M  V30 2594 C 230.346 1.68498 1.15705 0
M  V30 2595 C 230.71 0.409748 1.87577 0
M  V30 2596 O 231.911 0.446983 2.65058 0
M  V30 2597 C 230.182 2.87789 2.11924 0
M  V30 2598 S 231.741 3.24415 2.95466 0
M  V30 2599 H 228.559 0.593267 0.391862 0
M  V30 2600 H 231.161 1.90408 0.443282 0
M  V30 2601 H 229.865 3.7884 1.57824 0
M  V30 2602 H 229.396 2.68175 2.87829 0
M  V30 2603 H 231.411 2.73614 4.13944 0
M  V30 2604 N 230.584 -0.659388 1.43143 0
M  V30 2605 C 231.824 -1.43121 1.45931 0
M  V30 2606 C 232.188 -1.91838 0.0789298 0
M  V30 2607 O 233.389 -2.68794 -0.018491 0
M  V30 2608 C 231.66 -2.58534 2.46769 0
M  V30 2609 S 233.219 -3.47154 2.68384 0
M  V30 2610 H 230.037 -0.488624 0.516496 0
M  V30 2611 H 232.639 -0.766128 1.79863 0
M  V30 2612 H 231.343 -2.21007 3.45809 0
M  V30 2613 H 230.874 -3.29898 2.14315 0
M  V30 2614 H 232.889 -4.55051 1.97845 0
M  V30 2615 N 232.062 -1.29571 -0.897171 0
M  V30 2616 C 232.995 -1.0924 -2.00354 0
M  V30 2617 C 233.973 -0.00354011 -1.626 0
M  V30 2618 O 235.157 -0.15473 -1.87864 0
M  V30 2619 C 232.284 -0.66352 -3.32137 0
M  V30 2620 C 231.33 -1.75146 -3.88878 0
M  V30 2621 S 232.163 -3.35124 -4.17674 0
M  V30 2622 C 233.319 -2.9411 -5.52494 0
M  V30 2623 H 233.552 -2.02907 -2.17292 0
M  V30 2624 H 231.085 -1.13746 -1.04408 0
M  V30 2625 H 233.043 -0.422791 -4.08317 0
M  V30 2626 H 231.704 0.253588 -3.13075 0
M  V30 2627 H 230.897 -1.40337 -4.84068 0
M  V30 2628 H 230.499 -1.94584 -3.19395 0
M  V30 2629 H 232.791 -2.41312 -6.33068 0
M  V30 2630 H 233.734 -3.88161 -5.9223 0
M  V30 2631 H 234.142 -2.32332 -5.14473 0
M  V30 2632 N 233.54 1.10788 -1.12088 0
M  V30 2633 C 234.787 1.82671 -0.873931 0
M  V30 2634 C 235.115 1.85004 0.600311 0
M  V30 2635 O 234.37 1.30365 1.45957 0
M  V30 2636 C 234.669 3.29294 -1.38926 0
M  V30 2637 C 234.335 3.47113 -2.87791 0
M  V30 2638 C 232.997 3.51684 -3.28439 0
M  V30 2639 C 235.349 3.52808 -3.83635 0
M  V30 2640 C 232.677 3.59513 -4.63646 0
M  V30 2641 C 235.029 3.62169 -5.18668 0
M  V30 2642 C 233.693 3.65003 -5.58864 0
M  V30 2643 H 232.963 0.668441 -0.319794 0
M  V30 2644 H 235.61 1.30613 -1.40045 0
M  V30 2645 H 233.915 3.83894 -0.783122 0
M  V30 2646 H 235.612 3.83416 -1.17443 0
M  V30 2647 H 232.202 3.4423 -2.5535 0
M  V30 2648 H 236.386 3.4853 -3.53328 0
M  V30 2649 H 231.642 3.59987 -4.94185 0
M  V30 2650 H 235.816 3.6552 -5.92763 0
M  V30 2651 H 233.443 3.70822 -6.63623 0
M  V30 2652 N 235.018 0.912232 1.28515 0
M  V30 2653 C 236.429 0.591352 1.77087 0
M  V30 2654 C 236.78 -0.8933 1.74684 0
M  V30 2655 O 235.905 -1.69876 1.34056 0
M  V30 2656 C 236.5 1.06668 3.2157 0
M  V30 2657 C 235.059 0.79675 3.67871 0
M  V30 2658 C 234.206 1.23427 2.48316 0
M  V30 2659 H 237.157 1.09365 1.15 0
M  V30 2660 H 237.178 0.407455 3.78312 0
M  V30 2661 H 236.69 2.14726 3.23287 0
M  V30 2662 H 234.791 -0.270679 3.71616 0
M  V30 2663 H 234.904 1.40343 4.58084 0
M  V30 2664 H 233.268 0.653036 2.46186 0
M  V30 2665 H 234.051 2.32316 2.52753 0
M  V30 2666 N 236.496 -1.42363 0.676048 0
M  V30 2667 C 237.742 -2.0182 0.199125 0
M  V30 2668 C 238.075 -1.53339 -1.19168 0
M  V30 2669 O 237.35 -0.736124 -1.80032 0
M  V30 2670 C 237.633 -3.59331 0.235144 0
M  V30 2671 C 237.486 -4.17989 1.66149 0
M  V30 2672 C 238.805 -4.3813 -0.41595 0
M  V30 2673 H 235.924 -0.733293 0.0738311 0
M  V30 2674 H 238.566 -1.69368 0.86107 0
M  V30 2675 H 236.716 -3.87109 -0.328487 0
M  V30 2676 H 238.388 -4.0116 2.27747 0
M  V30 2677 H 236.631 -3.7377 2.20178 0
M  V30 2678 H 237.302 -5.27126 1.63837 0
M  V30 2679 H 239.778 -4.16051 0.0638529 0
M  V30 2680 H 238.654 -5.47717 -0.360115 0
M  V30 2681 H 238.915 -4.16101 -1.49373 0
M  V30 2682 N 237.974 -0.419461 -1.51915 0
M  V30 2683 C 239.22 0.145505 -2.02879 0
M  V30 2684 C 239.575 1.41926 -1.29903 0
M  V30 2685 O 238.868 1.87383 -0.399782 0
M  V30 2686 C 239.062 0.437067 -3.54717 0
M  V30 2687 C 238.891 -0.806877 -4.42402 0
M  V30 2688 C 237.661 -1.33514 -4.87342 0
M  V30 2689 C 239.859 -1.68796 -4.85811 0
M  V30 2690 N 237.841 -2.53349 -5.59185 0
M  V30 2691 C 239.212 -2.73247 -5.56539 0
M  V30 2692 C 241.267 -1.70449 -4.67816 0
M  V30 2693 C 239.97 -3.79276 -6.11181 0
M  V30 2694 C 241.996 -2.75403 -5.23361 0
M  V30 2695 C 241.358 -3.78575 -5.9402 0
M  V30 2696 H 237.457 0.0145424 -0.781865 0
M  V30 2697 H 240.041 -0.576126 -1.85981 0
M  V30 2698 H 238.212 1.12774 -3.71667 0
M  V30 2699 H 239.944 0.99182 -3.92358 0
M  V30 2700 H 236.699 -0.891657 -4.65131 0
M  V30 2701 H 237.123 -3.14066 -5.99743 0
M  V30 2702 H 241.765 -0.920209 -4.12664 0
M  V30 2703 H 239.483 -4.58554 -6.65397 0
M  V30 2704 H 243.069 -2.77603 -5.113 0
M  V30 2705 H 241.949 -4.58453 -6.36231 0
M  V30 2706 N 239.452 1.56882 -0.150215 0
M  V30 2707 C 240.863 1.82995 0.370076 0
M  V30 2708 C 241.214 1.06907 1.64515 0
M  V30 2709 O 240.339 0.315369 2.1409 0
M  V30 2710 C 240.934 3.31942 0.678208 0
M  V30 2711 C 239.493 3.58625 1.14301 0
M  V30 2712 C 238.64 2.76792 0.167778 0
M  V30 2713 H 241.591 1.54209 -0.374858 0
M  V30 2714 H 241.612 3.48272 1.53254 0
M  V30 2715 H 241.124 3.87294 -0.249991 0
M  V30 2716 H 239.225 3.08664 2.08704 0
M  V30 2717 H 239.338 4.67073 1.06676 0
M  V30 2718 H 237.702 2.45972 0.661037 0
M  V30 2719 H 238.485 3.34916 -0.754069 0
M  V30 2720 N 240.93 -0.123565 1.57115 0
M  V30 2721 C 241.86 -1.15309 2.03042 0
M  V30 2722 C 242.841 -1.43454 0.914061 0
M  V30 2723 O 244.026 -1.53973 1.18347 0
M  V30 2724 C 241.156 -2.48043 2.43089 0
M  V30 2725 C 240.11 -2.3437 3.58127 0
M  V30 2726 C 239.436 -3.72026 3.84059 0
M  V30 2727 C 240.736 -1.80804 4.90007 0
M  V30 2728 H 242.43 -0.771102 2.893 0
M  V30 2729 H 239.976 -0.369479 1.39179 0
M  V30 2730 H 241.929 -3.20311 2.73823 0
M  V30 2731 H 240.653 -2.88122 1.53796 0
M  V30 2732 H 239.312 -1.64551 3.27595 0
M  V30 2733 H 238.96 -4.09582 2.91979 0
M  V30 2734 H 238.66 -3.63732 4.6149 0
M  V30 2735 H 240.184 -4.45806 4.1724 0
M  V30 2736 H 241.598 -2.42886 5.19307 0
M  V30 2737 H 239.995 -1.83343 5.71407 0
M  V30 2738 H 241.065 -0.76528 4.78823 0
M  V30 2739 N 242.408 -1.52605 -0.393616 0
M  V30 2740 C 243.824 -1.41753 -0.733357 0
M  V30 2741 C 244.024 -0.534293 -1.94287 0
M  V30 2742 O 243.08 -0.0059787 -2.52499 0
M  V30 2743 C 244.393 -2.84531 -0.972772 0
M  V30 2744 C 245.941 -2.93978 -1.07453 0
M  V30 2745 C 246.416 -4.37756 -1.3466 0
M  V30 2746 N 247.907 -4.4106 -1.41492 0
M  V30 2747 C 248.642 -5.49387 -1.642 0
M  V30 2748 N 248.138 -6.67806 -1.8441 0
M  V30 2749 N 249.931 -5.36923 -1.66342 0
M  V30 2750 H 242.082 -2.08555 0.402328 0
M  V30 2751 H 244.345 -0.940654 0.117789 0
M  V30 2752 H 244.051 -3.51353 -0.156204 0
M  V30 2753 H 243.925 -3.26508 -1.88871 0
M  V30 2754 H 246.312 -2.27326 -1.88167 0
M  V30 2755 H 246.393 -2.55435 -0.136605 0
M  V30 2756 H 246.037 -5.04972 -0.544581 0
M  V30 2757 H 245.967 -4.73848 -2.2973 0
M  V30 2758 H 248.458 -3.55705 -1.27601 0
M  V30 2759 H 248.771 -7.46141 -2.01231 0
M  V30 2760 H 247.116 -6.70843 -1.81644 0
M  V30 2761 H 250.307 -4.43381 -1.50102 0
M  V30 2762 H 250.48 -6.21416 -1.837 0
M  V30 2763 N 243.887 0.651787 -1.4349 0
M  V30 2764 C 244.817 1.77621 -1.51569 0
M  V30 2765 C 245.798 1.66022 -0.370253 0
M  V30 2766 O 246.983 1.85095 -0.587658 0
M  V30 2767 C 244.113 3.16056 -1.43966 0
M  V30 2768 C 243.067 3.4242 -2.56774 0
M  V30 2769 C 242.393 4.8067 -2.34223 0
M  V30 2770 C 243.693 3.37023 -3.99015 0
M  V30 2771 H 245.387 1.71117 -2.45681 0
M  V30 2772 H 242.933 0.821825 -1.18246 0
M  V30 2773 H 244.886 3.94472 -1.48221 0
M  V30 2774 H 243.61 3.23293 -0.463586 0
M  V30 2775 H 242.269 2.66375 -2.51873 0
M  V30 2776 H 241.917 4.84585 -1.34856 0
M  V30 2777 H 241.617 4.9927 -3.09844 0
M  V30 2778 H 243.141 5.61342 -2.40265 0
M  V30 2779 H 244.555 4.05374 -4.05395 0
M  V30 2780 H 242.952 3.67159 -4.74673 0
M  V30 2781 H 244.022 2.3518 -4.2405 0
M  V30 2782 N 245.365 1.30045 0.890287 0
M  V30 2783 C 246.312 1.15976 1.99545 0
M  V30 2784 C 247.282 0.0506202 1.66023 0
M  V30 2785 O 248.467 0.219847 1.89529 0
M  V30 2786 C 245.607 0.852054 3.34416 0
M  V30 2787 C 244.72 2.04255 3.80662 0
M  V30 2788 C 243.855 1.6734 5.04154 0
M  V30 2789 C 242.894 2.82916 5.42794 0
M  V30 2790 N 242.031 2.46333 6.57468 0
M  V30 2791 H 246.871 2.10524 2.10911 0
M  V30 2792 H 244.408 1.04749 1.03276 0
M  V30 2793 H 246.366 0.654296 4.12037 0
M  V30 2794 H 244.996 -0.0565502 3.2275 0
M  V30 2795 H 244.048 2.35172 2.98995 0
M  V30 2796 H 245.36 2.90826 4.05242 0
M  V30 2797 H 244.514 1.43908 5.89386 0
M  V30 2798 H 243.253 0.779308 4.81433 0
M  V30 2799 H 242.258 3.0702 4.56091 0
M  V30 2800 H 243.483 3.73004 5.6749 0
M  V30 2801 H 241.429 1.59423 6.36334 0
M  V30 2802 H 241.346 3.26436 6.81891 0
M  V30 2803 H 242.614 2.26244 7.45945 0
M  V30 2804 N 246.843 -1.10192 1.12674 0
M  V30 2805 C 247.773 -2.18652 0.819362 0
M  V30 2806 C 248.754 -1.68698 -0.217915 0
M  V30 2807 O 249.939 -1.94041 -0.0785581 0
M  V30 2808 C 247.069 -3.46202 0.27594 0
M  V30 2809 C 246.023 -4.09444 1.24656 0
M  V30 2810 C 245.349 -5.31725 0.563258 0
M  V30 2811 C 246.649 -4.52863 2.60217 0
M  V30 2812 H 248.343 -2.44622 1.72628 0
M  V30 2813 H 245.889 -1.17571 0.831451 0
M  V30 2814 H 247.842 -4.21372 0.0486149 0
M  V30 2815 H 246.566 -3.1973 -0.666331 0
M  V30 2816 H 245.225 -3.36284 1.45974 0
M  V30 2817 H 244.873 -5.0153 -0.384235 0
M  V30 2818 H 244.573 -5.74991 1.21075 0
M  V30 2819 H 246.097 -6.09624 0.34503 0
M  V30 2820 H 247.511 -5.19294 2.42913 0
M  V30 2821 H 245.908 -5.06986 3.21068 0
M  V30 2822 H 246.978 -3.65656 3.18471 0
M  V30 2823 N 248.321 -0.919034 -1.28029 0
M  V30 2824 C 249.284 -0.416182 -2.2539 0
M  V30 2825 C 250.284 0.460438 -1.54067 0
M  V30 2826 O 251.474 0.262744 -1.72207 0
M  V30 2827 C 248.606 0.402707 -3.38513 0
M  V30 2828 H 249.799 -1.27629 -2.71387 0
M  V30 2829 H 247.352 -0.698919 -1.39803 0
M  V30 2830 H 248.087 1.282 -2.97885 0
M  V30 2831 H 247.872 -0.225698 -3.9145 0
M  V30 2832 H 249.362 0.745191 -4.10897 0
M  V30 2833 N 249.799 1.42003 -0.683588 0
M  V30 2834 C 250.729 2.33487 -0.024866 0
M  V30 2835 C 251.71 1.51163 0.779975 0
M  V30 2836 O 252.895 1.79739 0.735362 0
M  V30 2837 C 250.025 3.3487 0.920836 0
M  V30 2838 C 248.979 4.27414 0.223958 0
M  V30 2839 C 248.305 5.19074 1.2832 0
M  V30 2840 C 249.605 5.14445 -0.90242 0
M  V30 2841 H 251.299 2.88819 -0.788921 0
M  V30 2842 H 248.845 1.38873 -0.38083 0
M  V30 2843 H 250.798 3.97787 1.39081 0
M  V30 2844 H 249.522 2.77861 1.71642 0
M  V30 2845 H 248.181 3.65904 -0.225864 0
M  V30 2846 H 247.829 4.58387 2.071 0
M  V30 2847 H 247.529 5.81822 0.821995 0
M  V30 2848 H 249.053 5.84867 1.75392 0
M  V30 2849 H 250.467 5.70998 -0.513272 0
M  V30 2850 H 248.864 5.86072 -1.28997 0
M  V30 2851 H 249.934 4.52322 -1.74737 0
M  V30 2852 N 251.277 0.427512 1.51691 0
M  V30 2853 C 252.523 -0.134744 2.02953 0
M  V30 2854 C 252.878 -1.41235 1.30654 0
M  V30 2855 O 252.171 -1.87168 0.409713 0
M  V30 2856 C 252.365 -0.418249 3.54944 0
M  V30 2857 C 252.194 0.830327 4.41968 0
M  V30 2858 C 250.964 1.36097 4.86627 0
M  V30 2859 C 253.162 1.7137 4.84909 0
M  V30 2860 N 251.144 2.56311 5.57833 0
M  V30 2861 C 252.515 2.76195 5.55082 0
M  V30 2862 C 254.57 1.72928 4.66905 0
M  V30 2863 C 253.273 3.82512 6.09161 0
M  V30 2864 C 255.299 2.78175 5.21894 0
M  V30 2865 C 254.661 3.8172 5.92004 0
M  V30 2866 H 250.76 -0.0103958 0.781931 0
M  V30 2867 H 253.344 0.585981 1.85673 0
M  V30 2868 H 251.515 -1.10801 3.7226 0
M  V30 2869 H 253.247 -0.970999 3.92879 0
M  V30 2870 H 250.002 0.916311 4.64651 0
M  V30 2871 H 250.426 3.17242 5.98069 0
M  V30 2872 H 255.068 0.942081 4.12171 0
M  V30 2873 H 252.786 4.62077 6.62956 0
M  V30 2874 H 256.372 2.8031 5.09821 0
M  V30 2875 H 255.252 4.61821 6.33791 0
M  V30 2876 N 252.755 -1.56801 0.158532 0
M  V30 2877 C 253.705 -2.13923 -0.788738 0
M  V30 2878 C 254.689 -1.07006 -1.2016 0
M  V30 2879 O 255.881 -1.33159 -1.1661 0
M  V30 2880 C 253.01 -2.77348 -2.02319 0
M  V30 2881 C 252.096 -3.91404 -1.6329 0
M  V30 2882 N 252.487 -4.9677 -0.951463 0
M  V30 2883 C 250.785 -4.02326 -1.92482 0
M  V30 2884 C 251.486 -5.76698 -0.761221 0
M  V30 2885 N 250.462 -5.27859 -1.29869 0
M  V30 2886 H 254.264 -2.92757 -0.258995 0
M  V30 2887 H 251.778 -1.62344 -0.0426055 0
M  V30 2888 H 253.775 -3.16639 -2.71192 0
M  V30 2889 H 252.435 -1.99991 -2.558 0
M  V30 2890 H 253.446 -5.14284 -0.610928 0
M  V30 2891 H 250.123 -3.36059 -2.47732 0
M  V30 2892 H 251.513 -6.71529 -0.223284 0
M  V30 2893 N 254.233 0.115231 -1.57178 0
M  V30 2894 C 255.482 0.820945 -1.84237 0
M  V30 2895 C 255.795 1.80866 -0.744761 0
M  V30 2896 O 257.001 2.56083 -0.901871 0
M  V30 2897 C 255.457 1.51072 -3.26658 0
M  V30 2898 C 255.065 0.563795 -4.44438 0
M  V30 2899 C 256.809 2.20134 -3.62962 0
M  V30 2900 C 254.716 1.25701 -5.77887 0
M  V30 2901 H 253.646 0.310328 -0.687177 0
M  V30 2902 H 256.297 0.0737134 -1.83352 0
M  V30 2903 H 254.679 2.30471 -3.22024 0
M  V30 2904 H 255.853 -0.197247 -4.60378 0
M  V30 2905 H 254.168 -0.0200638 -4.16395 0
M  V30 2906 H 256.765 2.72696 -4.59936 0
M  V30 2907 H 257.108 2.98107 -2.90582 0
M  V30 2908 H 257.641 1.47619 -3.69396 0
M  V30 2909 H 254.38 0.518493 -6.53446 0
M  V30 2910 H 253.9 1.98997 -5.65827 0
M  V30 2911 H 255.579 1.78915 -6.2177 0
M  V30 2912 N 255.711 1.52812 0.385517 0
M  V30 2913 C 256.936 1.72207 1.15583 0
M  V30 2914 C 257.361 0.441034 1.82857 0
M  V30 2915 O 256.719 -0.603465 1.70962 0
M  V30 2916 C 256.767 2.87476 2.17692 0
M  V30 2917 O 255.871 2.54693 3.24354 0
M  V30 2918 H 255.212 0.572526 0.336319 0
M  V30 2919 H 257.742 1.99618 0.448744 0
M  V30 2920 H 257.752 3.13072 2.6163 0
M  V30 2921 H 256.427 3.80408 1.68115 0
M  V30 2922 H 255.004 2.3985 2.85529 0
M  V30 2923 N 257.189 -0.644168 1.43834 0
M  V30 2924 C 258.435 -1.40603 1.46146 0
M  V30 2925 C 258.768 -1.93997 0.0887717 0
M  V30 2926 O 258.043 -1.72854 -0.891724 0
M  V30 2927 C 258.326 -2.58086 2.51124 0
M  V30 2928 C 258.179 -2.10126 3.97702 0
M  V30 2929 C 259.498 -3.60291 2.52742 0
M  V30 2930 H 256.617 -0.509905 0.532134 0
M  V30 2931 H 259.259 -0.729502 1.75437 0
M  V30 2932 H 257.409 -3.15801 2.26278 0
M  V30 2933 H 259.081 -1.57342 4.33637 0
M  V30 2934 H 257.324 -1.41419 4.10101 0
M  V30 2935 H 257.995 -2.94649 4.66783 0
M  V30 2936 H 260.471 -3.12352 2.7491 0
M  V30 2937 H 259.347 -4.40032 3.28121 0
M  V30 2938 H 259.608 -4.1349 1.56455 0
M  V30 2939 N 258.668 -1.30515 -0.883378 0
M  V30 2940 C 259.631 -1.1701 -1.97082 0
M  V30 2941 C 260.631 -0.10089 -1.60483 0
M  V30 2942 O 261.821 -0.349127 -1.70666 0
M  V30 2943 C 258.953 -0.793045 -3.31547 0
M  V30 2944 H 260.146 -2.13622 -2.10489 0
M  V30 2945 H 257.699 -1.13935 -1.06998 0
M  V30 2946 H 258.434 0.172499 -3.23841 0
M  V30 2947 H 258.219 -1.56576 -3.5948 0
M  V30 2948 H 259.709 -0.722073 -4.1131 0
M  V30 2949 N 260.146 1.09593 -1.13257 0
M  V30 2950 C 261.393 1.81734 -0.893257 0
M  V30 2951 C 261.721 1.8563 0.580656 0
M  V30 2952 O 260.976 1.31906 1.44566 0
M  V30 2953 C 261.275 3.27802 -1.42411 0
M  V30 2954 C 260.941 3.44041 -2.91456 0
M  V30 2955 C 259.603 3.48181 -3.3215 0
M  V30 2956 C 261.955 3.48719 -3.87356 0
M  V30 2957 C 259.283 3.54575 -4.67433 0
M  V30 2958 C 261.635 3.56648 -5.2248 0
M  V30 2959 C 260.299 3.59055 -5.62704 0
M  V30 2960 H 259.569 0.665011 -0.326866 0
M  V30 2961 H 262.216 1.2912 -1.41422 0
M  V30 2962 H 260.521 3.83042 -0.823795 0
M  V30 2963 H 262.218 3.82149 -1.21503 0
M  V30 2964 H 258.808 3.41502 -2.58987 0
M  V30 2965 H 262.992 3.44763 -3.57004 0
M  V30 2966 H 258.248 3.54725 -4.97976 0
M  V30 2967 H 262.422 3.59212 -5.96607 0
M  V30 2968 H 260.049 3.63763 -6.67518 0
M  V30 2969 N 261.624 0.925811 1.2754 0
M  V30 2970 C 262.554 0.440748 2.29303 0
M  V30 2971 C 263.535 -0.497971 1.62648 0
M  V30 2972 O 264.72 -0.403126 1.8997 0
M  V30 2973 C 261.85 -0.309048 3.45922 0
M  V30 2974 C 260.804 0.54166 4.24559 0
M  V30 2975 C 260.13 -0.337191 5.33636 0
M  V30 2976 C 261.43 1.80516 4.90114 0
M  V30 2977 H 263.124 1.29121 2.70126 0
M  V30 2978 H 260.67 0.622323 1.29858 0
M  V30 2979 H 262.623 -0.659315 4.1621 0
M  V30 2980 H 261.347 -1.19352 3.04011 0
M  V30 2981 H 260.006 0.874609 3.56014 0
M  V30 2982 H 259.654 -1.22056 4.87966 0
M  V30 2983 H 259.354 0.228497 5.87156 0
M  V30 2984 H 260.878 -0.683072 6.06767 0
M  V30 2985 H 262.292 1.52307 5.52698 0
M  V30 2986 H 260.689 2.3142 5.53683 0
M  V30 2987 H 261.759 2.52581 4.13921 0
M  V30 2988 N 263.102 -1.41638 0.69111 0
M  V30 2989 C 264.33 -2.05628 0.22909 0
M  V30 2990 C 264.745 -1.51992 -1.11999 0
M  V30 2991 O 264.102 -0.666322 -1.69901 0
M  V30 2992 C 264.153 -3.61084 0.173283 0
M  V30 2993 O 263.874 -4.12735 1.46907 0
M  V30 2994 C 265.375 -4.42213 -0.310266 0
M  V30 2995 H 262.595 -0.662327 0.107534 0
M  V30 2996 H 265.139 -1.81489 0.942438 0
M  V30 2997 H 263.294 -3.84278 -0.490858 0
M  V30 2998 H 263.708 -5.06743 1.35322 0
M  V30 2999 H 265.182 -5.51194 -0.298196 0
M  V30 3000 H 265.659 -4.1799 -1.34838 0
M  V30 3001 H 266.265 -4.24074 0.322716 0
M  V30 3002 N 264.58 -0.43555 -1.51462 0
M  V30 3003 C 265.51 0.367376 -2.30592 0
M  V30 3004 C 266.491 1.02263 -1.35928 0
M  V30 3005 O 267.676 1.02661 -1.64847 0
M  V30 3006 C 264.806 1.46983 -3.14664 0
M  V30 3007 C 263.76 0.938161 -4.17591 0
M  V30 3008 C 263.086 2.13622 -4.90173 0
M  V30 3009 C 264.386 -0.0261621 -5.22293 0
M  V30 3010 H 266.08 -0.292969 -2.97963 0
M  V30 3011 H 263.626 -0.14234 -1.43295 0
M  V30 3012 H 265.579 2.03873 -3.688 0
M  V30 3013 H 264.303 2.15843 -2.4511 0
M  V30 3014 H 262.962 0.391481 -3.64504 0
M  V30 3015 H 262.61 2.81098 -4.17124 0
M  V30 3016 H 262.31 1.78688 -5.59772 0
M  V30 3017 H 263.834 2.7107 -5.47132 0
M  V30 3018 H 265.248 0.452384 -5.71512 0
M  V30 3019 H 263.645 -0.287992 -5.99409 0
M  V30 3020 H 264.715 -0.963391 -4.75233 0
M  V30 3021 N 266.058 1.56714 -0.166846 0
M  V30 3022 C 267.307 1.95922 0.479318 0
M  V30 3023 C 267.62 1.05529 1.6469 0
M  V30 3024 O 268.826 1.34399 2.35901 0
M  V30 3025 C 267.282 3.48359 0.90412 0
M  V30 3026 C 266.89 4.47369 -0.237621 0
M  V30 3027 C 268.634 3.96394 1.51896 0
M  V30 3028 C 266.541 5.91039 0.206561 0
M  V30 3029 H 265.471 0.731495 0.18284 0
M  V30 3030 H 268.122 1.81728 -0.254363 0
M  V30 3031 H 266.504 3.57955 1.69365 0
M  V30 3032 H 267.678 4.49485 -1.01489 0
M  V30 3033 H 265.993 4.09366 -0.762128 0
M  V30 3034 H 268.59 5.01186 1.86325 0
M  V30 3035 H 268.933 3.39075 2.41524 0
M  V30 3036 H 269.466 3.89796 0.79395 0
M  V30 3037 H 266.205 6.52221 -0.654834 0
M  V30 3038 H 265.725 5.9224 0.949282 0
M  V30 3039 H 267.404 6.43707 0.651939 0
M  V30 3040 N 267.536 -0.106894 1.57237 0
M  V30 3041 C 268.761 -0.830287 1.90055 0
M  V30 3042 C 269.186 -1.72064 0.75998 0
M  V30 3043 O 268.544 -1.78982 -0.288991 0
M  V30 3044 C 268.592 -1.6295 3.21683 0
M  V30 3045 O 267.696 -2.73748 3.08441 0
M  V30 3046 H 267.037 -0.228855 0.623315 0
M  V30 3047 H 269.567 -0.085658 2.04421 0
M  V30 3048 H 269.577 -2.01621 3.54701 0
M  V30 3049 H 268.252 -0.975989 4.04286 0
M  V30 3050 H 266.829 -2.38192 2.86913 0
M  V30 3051 N 269.014 -1.53014 -0.377408 0
M  V30 3052 C 270.263 -1.67845 -1.11853 0
M  V30 3053 C 270.576 -0.430625 -1.90801 0
M  V30 3054 O 271.782 -0.459261 -2.67587 0
M  V30 3055 C 270.238 -2.96668 -2.03756 0
M  V30 3056 C 269.846 -4.28671 -1.30175 0
M  V30 3057 C 271.59 -3.20865 -2.77932 0
M  V30 3058 C 269.497 -5.48591 -2.20911 0
M  V30 3059 H 268.427 -0.625343 -0.421263 0
M  V30 3060 H 271.078 -1.79514 -0.380409 0
M  V30 3061 H 269.46 -2.78773 -2.8125 0
M  V30 3062 H 270.634 -4.57157 -0.578259 0
M  V30 3063 H 268.949 -4.10825 -0.679108 0
M  V30 3064 H 271.546 -4.07642 -3.46024 0
M  V30 3065 H 271.889 -2.36424 -3.4265 0
M  V30 3066 H 272.422 -3.39379 -2.07525 0
M  V30 3067 H 269.161 -6.35474 -1.6079 0
M  V30 3068 H 268.681 -5.244 -2.91144 0
M  V30 3069 H 270.36 -5.8292 -2.80736 0
M  V30 3070 N 270.492 0.636531 -1.44174 0
M  V30 3071 C 271.741 1.39213 -1.45954 0
M  V30 3072 C 272.054 1.95374 -0.0939119 0
M  V30 3073 O 273.26 2.71498 0.0107767 0
M  V30 3074 C 271.716 2.52025 -2.56927 0
M  V30 3075 C 271.324 2.024 -3.99673 0
M  V30 3076 C 273.068 3.29269 -2.67922 0
M  V30 3077 C 270.975 3.12521 -5.0208 0
M  V30 3078 H 269.905 0.523132 -0.542999 0
M  V30 3079 H 272.556 0.685349 -1.70221 0
M  V30 3080 H 270.938 3.25253 -2.25891 0
M  V30 3081 H 272.112 1.36073 -4.40251 0
M  V30 3082 H 270.427 1.37987 -3.92872 0
M  V30 3083 H 273.024 4.11352 -3.41605 0
M  V30 3084 H 273.367 3.78397 -1.73555 0
M  V30 3085 H 273.9 2.63129 -2.98342 0
M  V30 3086 H 270.639 2.68343 -5.98057 0
M  V30 3087 H 270.159 3.77507 -4.66099 0
M  V30 3088 H 271.838 3.77385 -5.25538 0
M  V30 3089 N 271.97 1.30982 0.876444 0
M  V30 3090 C 273.219 1.19658 1.62373 0
M  V30 3091 C 273.532 -0.245636 1.94052 0
M  V30 3092 O 274.738 -0.48049 2.67214 0
M  V30 3093 C 273.194 2.09433 2.92687 0
M  V30 3094 C 272.802 3.58613 2.68516 0
M  V30 3095 C 274.546 2.06893 3.70669 0
M  V30 3096 C 272.453 4.40416 3.94699 0
M  V30 3097 H 271.383 0.444268 0.609214 0
M  V30 3098 H 274.034 1.55791 0.969605 0
M  V30 3099 H 272.416 1.66191 3.59439 0
M  V30 3100 H 273.59 4.10058 2.10212 0
M  V30 3101 H 271.905 3.63063 2.03898 0
M  V30 3102 H 274.502 2.65258 4.64265 0
M  V30 3103 H 274.845 1.05448 4.02724 0
M  V30 3104 H 275.378 2.48301 3.10792 0
M  V30 3105 H 272.117 5.42591 3.67798 0
M  V30 3106 H 271.637 3.93731 4.52477 0
M  V30 3107 H 273.316 4.52294 4.62644 0
M  V30 3108 N 273.449 -1.08991 1.13837 0
M  V30 3109 C 274.695 -1.81526 0.90422 0
M  V30 3110 C 275.028 -1.85706 -0.568066 0
M  V30 3111 O 274.303 -1.32855 -1.42056 0
M  V30 3112 C 274.586 -3.27447 1.49835 0
M  V30 3113 C 274.439 -3.31512 3.04006 0
M  V30 3114 C 275.758 -4.24256 1.17025 0
M  V30 3115 H 272.877 -0.659029 0.329923 0
M  V30 3116 H 275.519 -1.27644 1.40737 0
M  V30 3117 H 273.669 -3.73462 1.07044 0
M  V30 3118 H 275.341 -2.93867 3.55584 0
M  V30 3119 H 273.584 -2.70963 3.38765 0
M  V30 3120 H 274.255 -4.34329 3.40679 0
M  V30 3121 H 276.731 -3.86549 1.54009 0
M  V30 3122 H 275.607 -5.24684 1.61237 0
M  V30 3123 H 275.868 -4.42019 0.0846274 0
M  V30 3124 N 274.927 -0.932562 -1.27047 0
M  V30 3125 C 276.175 -0.574422 -1.93765 0
M  V30 3126 C 276.496 0.887993 -1.73608 0
M  V30 3127 O 275.766 1.62999 -1.08665 0
M  V30 3128 H 274.346 -0.209451 -0.717035 0
M  V30 3129 H 277.008 -1.18601 -1.5466 0
M  V30 3130 H 276.104 -0.784841 -3.02071 0
M  V30 3131 N 276.405 1.4127 -0.698611 0
M  V30 3132 C 277.821 1.55241 -0.370462 0
M  V30 3133 C 278.021 1.67351 1.12231 0
M  V30 3134 O 277.077 1.65363 1.90818 0
M  V30 3135 C 278.39 2.78997 -1.12165 0
M  V30 3136 C 279.938 2.92797 -1.1063 0
M  V30 3137 C 280.413 4.19445 -1.8393 0
M  V30 3138 N 281.904 4.26409 -1.80914 0
M  V30 3139 C 282.639 5.23271 -2.34467 0
M  V30 3140 N 282.135 6.26145 -2.96504 0
M  V30 3141 N 283.928 5.15232 -2.24706 0
M  V30 3142 H 276.079 1.31654 -1.66676 0
M  V30 3143 H 278.342 0.635393 -0.703548 0
M  V30 3144 H 278.048 2.76268 -2.17644 0
M  V30 3145 H 277.922 3.70606 -0.702209 0
M  V30 3146 H 280.309 2.95039 -0.0597713 0
M  V30 3147 H 280.39 2.02353 -1.56483 0
M  V30 3148 H 280.034 4.17964 -2.88563 0
M  V30 3149 H 279.964 5.08866 -1.35509 0
M  V30 3150 H 282.455 3.527 -1.35687 0
M  V30 3151 H 282.768 6.96451 -3.34927 0
M  V30 3152 H 281.113 6.26638 -3.00583 0
M  V30 3153 H 284.304 4.33789 -1.7591 0
M  V30 3154 H 284.477 5.90552 -2.66745 0
M  V30 3155 N 277.883 0.443576 1.51229 0
M  V30 3156 C 278.813 -0.355142 2.30783 0
M  V30 3157 C 279.794 -1.0154 1.36468 0
M  V30 3158 O 280.979 -1.01785 1.65389 0
M  V30 3159 C 278.109 -1.45312 3.15439 0
M  V30 3160 C 277.063 -0.916002 4.18083 0
M  V30 3161 C 276.389 -2.1102 4.91299 0
M  V30 3162 C 277.689 0.0538602 5.22272 0
M  V30 3163 H 279.383 0.308767 2.97804 0
M  V30 3164 H 276.929 0.149937 1.43217 0
M  V30 3165 H 278.882 -2.01914 3.69876 0
M  V30 3166 H 277.606 -2.14541 2.46252 0
M  V30 3167 H 276.265 -0.372145 3.64706 0
M  V30 3168 H 275.913 -2.78882 4.18609 0
M  V30 3169 H 275.613 -1.75717 5.60712 0
M  V30 3170 H 277.137 -2.68164 5.48562 0
M  V30 3171 H 278.551 -0.422069 5.71744 0
M  V30 3172 H 276.948 0.319776 5.99247 0
M  V30 3173 H 278.018 0.98858 4.74716 0
M  V30 3174 N 279.361 -1.56624 0.175154 0
M  V30 3175 C 280.607 -1.9729 -0.469506 0
M  V30 3176 C 280.94 -1.06128 -1.62636 0
M  V30 3177 O 280.215 -0.109183 -1.94193 0
M  V30 3178 C 280.498 -3.47375 -0.948804 0
M  V30 3179 C 280.351 -4.49317 0.208491 0
M  V30 3180 C 281.67 -4.00652 -1.82116 0
M  V30 3181 H 278.789 -0.717317 -0.16919 0
M  V30 3182 H 281.431 -1.88184 0.262062 0
M  V30 3183 H 279.581 -3.55267 -1.57219 0
M  V30 3184 H 281.253 -4.53482 0.845682 0
M  V30 3185 H 279.496 -4.25121 0.863395 0
M  V30 3186 H 280.167 -5.51741 -0.169059 0
M  V30 3187 H 282.643 -3.95416 -1.2956 0
M  V30 3188 H 281.519 -5.06075 -2.12554 0
M  V30 3189 H 281.78 -3.44699 -2.7683 0
M  V30 3190 N 280.839 0.0985539 -1.57292 0
M  V30 3191 C 281.802 1.10402 -2.00858 0
M  V30 3192 C 282.802 1.33146 -0.901593 0
M  V30 3193 O 283.992 1.29318 -1.16716 0
M  V30 3194 C 281.124 2.45394 -2.36632 0
M  V30 3195 H 282.317 0.729099 -2.90902 0
M  V30 3196 H 279.87 0.343495 -1.52479 0
M  V30 3197 H 280.605 2.87769 -1.49531 0
M  V30 3198 H 280.39 2.30235 -3.17387 0
M  V30 3199 H 281.88 3.17718 -2.71007 0
M  V30 3200 N 282.317 1.53212 0.369288 0
M  V30 3201 C 283.564 1.69215 1.11232 0
M  V30 3202 C 283.892 0.442048 1.8941 0
M  V30 3203 O 283.147 -0.575944 1.87033 0
M  V30 3204 C 283.446 2.89101 2.10132 0
M  V30 3205 C 283.112 4.25758 1.48463 0
M  V30 3206 C 281.774 4.6292 1.31372 0
M  V30 3207 C 284.126 5.10757 1.03811 0
M  V30 3208 C 281.454 5.82722 0.68207 0
M  V30 3209 C 283.806 6.31201 0.420487 0
M  V30 3210 C 282.47 6.67079 0.237038 0
M  V30 3211 H 281.74 0.619201 0.407027 0
M  V30 3212 H 284.387 1.87391 0.394552 0
M  V30 3213 H 282.692 2.65421 2.88199 0
M  V30 3214 H 284.389 2.98676 2.6757 0
M  V30 3215 H 280.979 3.96494 1.62758 0
M  V30 3216 H 285.163 4.82599 1.1581 0
M  V30 3217 H 280.419 6.09113 0.528316 0
M  V30 3218 H 284.593 6.96368 0.0662874 0
M  V30 3219 H 282.22 7.59774 -0.254477 0
M  V30 3220 N 283.795 -0.628877 1.44509 0
M  V30 3221 C 285.044 -1.38437 1.4669 0
M  V30 3222 C 285.357 -1.95322 0.104272 0
M  V30 3223 O 286.563 -2.715 0.00362163 0
M  V30 3224 C 285.019 -2.50659 2.5826 0
M  V30 3225 C 284.627 -2.00277 4.0074 0
M  V30 3226 C 286.371 -3.27844 2.69664 0
M  V30 3227 C 284.278 -3.09854 5.0373 0
M  V30 3228 H 283.208 -0.520245 0.545766 0
M  V30 3229 H 285.859 -0.676313 1.70582 0
M  V30 3230 H 284.241 -3.2405 2.27612 0
M  V30 3231 H 285.415 -1.33736 4.40966 0
M  V30 3232 H 283.73 -1.35901 3.93599 0
M  V30 3233 H 286.327 -4.09534 3.43781 0
M  V30 3234 H 286.67 -3.77471 1.75559 0
M  V30 3235 H 287.203 -2.61543 2.99733 0
M  V30 3236 H 283.942 -2.65168 5.99472 0
M  V30 3237 H 283.462 -3.7503 4.68095 0
M  V30 3238 H 285.141 -3.74592 5.27532 0
M  V30 3239 N 285.273 -1.31445 -0.869486 0
M  V30 3240 C 286.52 -1.21158 -1.62256 0
M  V30 3241 C 286.848 0.230155 -1.93133 0
M  V30 3242 O 286.103 1.17906 -1.56194 0
M  V30 3243 C 286.402 -2.00145 -2.96102 0
M  V30 3244 C 286.068 -3.4964 -2.84715 0
M  V30 3245 C 284.73 -3.90403 -2.81317 0
M  V30 3246 C 287.082 -4.44769 -2.71716 0
M  V30 3247 C 284.41 -5.24561 -2.62778 0
M  V30 3248 C 286.762 -5.79054 -2.54714 0
M  V30 3249 C 285.426 -6.19037 -2.49699 0
M  V30 3250 H 284.696 -0.443348 -0.593737 0
M  V30 3251 H 287.343 -1.62715 -1.00976 0
M  V30 3252 H 285.648 -1.5127 -3.6142 0
M  V30 3253 H 287.345 -1.89566 -3.53363 0
M  V30 3254 H 283.935 -3.17256 -2.88178 0
M  V30 3255 H 288.119 -4.14208 -2.73397 0
M  V30 3256 H 283.375 -5.54613 -2.57321 0
M  V30 3257 H 287.549 -6.52393 -2.43632 0
M  V30 3258 H 285.176 -7.22935 -2.35093 0
M  V30 3259 N 286.751 1.08385 -1.14413 0
M  V30 3260 C 287.998 1.80776 -0.912482 0
M  V30 3261 C 288.326 1.86236 0.560934 0
M  V30 3262 O 287.581 1.33431 1.43159 0
M  V30 3263 C 287.88 3.26273 -1.45879 0
M  V30 3264 C 287.546 3.4093 -2.95089 0
M  V30 3265 C 286.208 3.44638 -3.35824 0
M  V30 3266 C 288.56 3.44591 -3.91033 0
M  V30 3267 C 285.888 3.49597 -4.71167 0
M  V30 3268 C 288.24 3.51086 -5.26233 0
M  V30 3269 C 286.904 3.53067 -5.6648 0
M  V30 3270 H 286.174 0.661507 -0.333901 0
M  V30 3271 H 288.821 1.27613 -1.42784 0
M  V30 3272 H 287.126 3.82146 -0.864376 0
M  V30 3273 H 288.823 3.80839 -1.2555 0
M  V30 3274 H 285.413 3.38736 -2.62594 0
M  V30 3275 H 289.597 3.40957 -3.60641 0
M  V30 3276 H 284.853 3.49424 -5.0171 0
M  V30 3277 H 289.027 3.52864 -6.00383 0
M  V30 3278 H 286.654 3.56662 -6.71339 0
M  V30 3279 N 288.23 0.939286 1.26551 0
M  V30 3280 C 289.476 0.596234 1.94465 0
M  V30 3281 C 289.831 -0.855013 1.72358 0
M  V30 3282 O 289.124 -1.6034 1.04889 0
M  V30 3283 C 289.318 0.872106 3.46596 0
M  V30 3284 C 289.147 2.34862 3.83497 0
M  V30 3285 C 287.917 3.00344 4.06352 0
M  V30 3286 C 290.115 3.32697 3.92195 0
M  V30 3287 N 288.097 4.38027 4.30123 0
M  V30 3288 C 289.468 4.55631 4.20476 0
M  V30 3289 C 291.523 3.27747 3.74815 0
M  V30 3290 C 290.226 5.74233 4.33185 0
M  V30 3291 C 292.252 4.45672 3.88755 0
M  V30 3292 C 291.614 5.67388 4.17433 0
M  V30 3293 H 287.713 0.268515 0.734455 0
M  V30 3294 H 290.297 1.2083 1.5267 0
M  V30 3295 H 288.468 0.289102 3.87323 0
M  V30 3296 H 290.2 0.490513 4.01716 0
M  V30 3297 H 286.955 2.50969 4.01636 0
M  V30 3298 H 287.379 5.09288 4.46044 0
M  V30 3299 H 292.021 2.34703 3.51673 0
M  V30 3300 H 289.739 6.67731 4.55149 0
M  V30 3301 H 293.325 4.43372 3.76713 0
M  V30 3302 H 292.205 6.57115 4.27983 0
M  V30 3303 N 289.708 -1.40897 0.706093 0
M  V30 3304 C 290.955 -2.01054 0.241531 0
M  V30 3305 C 291.283 -1.55956 -1.16223 0
M  V30 3306 O 290.538 -0.766336 -1.80072 0
M  V30 3307 C 290.837 -3.5646 0.259099 0
M  V30 3308 C 290.503 -4.21106 1.61184 0
M  V30 3309 C 289.165 -4.38479 1.98216 0
M  V30 3310 C 291.517 -4.57256 2.50132 0
M  V30 3311 C 288.845 -4.89282 3.2376 0
M  V30 3312 C 291.197 -5.09454 3.7502 0
M  V30 3313 C 289.861 -5.25037 4.12181 0
M  V30 3314 H 289.131 -0.73571 0.0883825 0
M  V30 3315 H 291.778 -1.68645 0.907257 0
M  V30 3316 H 290.083 -3.88721 -0.490189 0
M  V30 3317 H 291.78 -4.00826 -0.11804 0
M  V30 3318 H 288.37 -4.07966 1.31384 0
M  V30 3319 H 292.554 -4.43479 2.228 0
M  V30 3320 H 287.81 -4.99531 3.52532 0
M  V30 3321 H 291.984 -5.36404 4.44121 0
M  V30 3322 H 289.611 -5.64164 5.09532 0
M  V30 3323 N 291.186 -0.45159 -1.50991 0
M  V30 3324 C 292.433 0.110074 -2.02201 0
M  V30 3325 C 292.761 1.4146 -1.33489 0
M  V30 3326 O 292.016 1.90617 -0.443125 0
M  V30 3327 C 292.315 0.361728 -3.55565 0
M  V30 3328 C 291.981 -0.858717 -4.42648 0
M  V30 3329 C 290.643 -1.19338 -4.66167 0
M  V30 3330 C 292.995 -1.67221 -4.93646 0
M  V30 3331 C 290.323 -2.34195 -5.37931 0
M  V30 3332 C 292.675 -2.8119 -5.6667 0
M  V30 3333 C 291.339 -3.15094 -5.88449 0
M  V30 3334 H 290.609 0.040279 -0.739904 0
M  V30 3335 H 293.256 -0.601696 -1.81802 0
M  V30 3336 H 291.561 1.15554 -3.74372 0
M  V30 3337 H 293.258 0.80996 -3.92735 0
M  V30 3338 H 289.848 -0.58796 -4.24548 0
M  V30 3339 H 294.032 -1.42686 -4.75347 0
M  V30 3340 H 289.288 -2.6076 -5.53005 0
M  V30 3341 H 293.462 -3.44585 -6.05173 0
M  V30 3342 H 291.089 -4.04204 -6.43835 0
M  V30 3343 N 292.664 1.56529 -0.183458 0
M  V30 3344 C 293.912 1.96855 0.457452 0
M  V30 3345 C 294.233 1.07104 1.62953 0
M  V30 3346 O 293.503 0.139887 1.954 0
M  V30 3347 H 292.083 0.72693 0.171992 0
M  V30 3348 H 294.745 1.93056 -0.267476 0
M  V30 3349 H 293.841 3.01423 0.809368 0
M  V30 3350 N 294.142 -0.090211 1.57342 0
M  V30 3351 C 295.388 -0.793982 1.86611 0
M  V30 3352 C 295.721 -1.78142 0.773252 0
M  V30 3353 O 294.996 -1.93271 -0.218304 0
M  V30 3354 C 295.279 -1.51839 3.26523 0
M  V30 3355 C 295.132 -0.548609 4.46442 0
M  V30 3356 C 296.451 -2.46779 3.64401 0
M  V30 3357 H 293.57 -0.287186 0.678744 0
M  V30 3358 H 296.212 -0.0575076 1.89913 0
M  V30 3359 H 294.362 -2.14617 3.23839 0
M  V30 3360 H 296.034 0.0725513 4.61243 0
M  V30 3361 H 294.277 0.137614 4.33582 0
M  V30 3362 H 294.948 -1.09271 5.41076 0
M  V30 3363 H 297.424 -1.94089 3.68061 0
M  V30 3364 H 296.3 -2.94479 4.63221 0
M  V30 3365 H 296.561 -3.30758 2.93346 0
M  V30 3366 N 295.62 -1.53406 -0.361157 0
M  V30 3367 C 296.897 -1.60411 -1.11927 0
M  V30 3368 C 297.277 -0.414385 -2.06993 0
M  V30 3369 O 296.625 0.594976 -2.20618 0
M  V30 3370 C 296.835 -2.95652 -1.85448 0
M  V30 3371 C 298.183 -3.50386 -2.39823 0
M  V30 3372 O 299.207 -2.97711 -1.95568 0
M  V30 3373 O 298.066 -4.42482 -3.20737 0
M  V30 3374 H 295.16 -0.64811 -0.513695 0
M  V30 3375 H 297.706 -1.65749 -0.364065 0
M  V30 3376 H 296.478 -3.73682 -1.16091 0
M  V30 3377 H 296.101 -2.93825 -2.67866 0
M  V30 3378 N 297.098 0.621204 -1.44841 0
M  V30 3379 C 298.328 1.40548 -1.51426 0
M  V30 3380 C 298.736 1.88673 -0.141083 0
M  V30 3381 O 298.079 1.62053 0.865128 0
M  V30 3382 C 298.141 2.65325 -2.42576 0
M  V30 3383 C 297.805 2.3893 -3.89566 0
M  V30 3384 C 298.802 2.00138 -4.79834 0
M  V30 3385 C 296.487 2.52263 -4.3436 0
M  V30 3386 C 298.481 1.75021 -6.129 0
M  V30 3387 C 296.168 2.2676 -5.67471 0
M  V30 3388 C 297.166 1.88199 -6.56559 0
M  V30 3389 O 296.854 1.62986 -7.87204 0
M  V30 3390 H 296.586 0.437122 -0.515655 0
M  V30 3391 H 299.14 0.765987 -1.90583 0
M  V30 3392 H 297.37 3.31947 -1.98364 0
M  V30 3393 H 299.059 3.27347 -2.39998 0
M  V30 3394 H 299.825 1.89386 -4.46495 0
M  V30 3395 H 295.704 2.81246 -3.65269 0
M  V30 3396 H 299.248 1.44848 -6.82396 0
M  V30 3397 H 295.145 2.37125 -6.00368 0
M  V30 3398 H 295.913 1.7715 -7.991 0
M  V30 3399 N 298.576 1.31904 0.862503 0
M  V30 3400 C 299.822 1.23207 1.61838 0
M  V30 3401 C 300.177 -0.206062 1.91293 0
M  V30 3402 O 299.47 -1.14162 1.53875 0
M  V30 3403 C 299.664 2.01713 2.95037 0
M  V30 3404 C 299.493 3.53014 2.78588 0
M  V30 3405 C 298.263 4.22359 2.77382 0
M  V30 3406 C 300.461 4.47819 2.52909 0
M  V30 3407 N 298.443 5.59766 2.52062 0
M  V30 3408 C 299.814 5.72947 2.36922 0
M  V30 3409 C 301.869 4.37162 2.38314 0
M  V30 3410 C 300.572 6.88623 2.07823 0
M  V30 3411 C 302.598 5.5263 2.10604 0
M  V30 3412 C 301.96 6.76752 1.95411 0
M  V30 3413 H 298.059 0.505984 0.596242 0
M  V30 3414 H 300.643 1.66179 1.01452 0
M  V30 3415 H 298.814 1.61098 3.53415 0
M  V30 3416 H 300.546 1.84975 3.59953 0
M  V30 3417 H 297.301 3.74401 2.90036 0
M  V30 3418 H 297.725 6.32135 2.42352 0
M  V30 3419 H 302.367 3.41857 2.48784 0
M  V30 3420 H 300.085 7.83948 1.9609 0
M  V30 3421 H 303.671 5.46307 2.00101 0
M  V30 3422 H 302.551 7.6459 1.74274 0
M  V30 3423 N 300.054 -1.07777 1.14986 0
M  V30 3424 C 301.303 -1.79669 0.916617 0
M  V30 3425 C 301.616 -1.87474 -0.557917 0
M  V30 3426 O 302.822 -2.55845 -0.908617 0
M  V30 3427 C 301.278 -3.22848 1.59051 0
M  V30 3428 C 300.886 -3.23257 3.10176 0
M  V30 3429 C 302.63 -3.99379 1.43864 0
M  V30 3430 C 300.537 -4.61063 3.70372 0
M  V30 3431 H 299.467 -0.673349 0.33929 0
M  V30 3432 H 302.118 -1.21003 1.37951 0
M  V30 3433 H 300.5 -3.8168 1.0553 0
M  V30 3434 H 301.674 -2.74095 3.70417 0
M  V30 3435 H 299.989 -2.60222 3.25074 0
M  V30 3436 H 302.586 -5.0122 1.86232 0
M  V30 3437 H 302.929 -4.14511 0.385564 0
M  V30 3438 H 303.462 -3.47032 1.94457 0
M  V30 3439 H 300.201 -4.51135 4.7556 0
M  V30 3440 H 299.721 -5.1048 3.14913 0
M  V30 3441 H 301.4 -5.30034 3.71043 0
M  V30 3442 N 301.532 -0.945985 -1.26051 0
M  V30 3443 C 302.779 -0.596118 -1.93527 0
M  V30 3444 C 303.107 0.865559 -1.74179 0
M  V30 3445 O 302.362 1.63524 -1.0751 0
M  V30 3446 C 302.661 -0.890475 -3.46129 0
M  V30 3447 C 302.327 -2.3368 -3.85622 0
M  V30 3448 C 300.989 -2.73216 -3.96114 0
M  V30 3449 C 303.341 -3.27648 -4.05334 0
M  V30 3450 C 300.669 -4.05806 -4.2372 0
M  V30 3451 C 303.021 -4.59841 -4.3443 0
M  V30 3452 C 301.685 -4.99185 -4.43137 0
M  V30 3453 H 300.955 -0.218135 -0.708165 0
M  V30 3454 H 303.602 -1.1934 -1.49768 0
M  V30 3455 H 301.907 -0.210711 -3.91233 0
M  V30 3456 H 303.604 -0.598478 -3.96509 0
M  V30 3457 H 300.194 -2.02015 -3.78005 0
M  V30 3458 H 304.378 -2.98298 -3.96651 0
M  V30 3459 H 299.634 -4.35945 -4.28675 0
M  V30 3460 H 303.808 -5.32641 -4.48628 0
M  V30 3461 H 301.435 -6.01952 -4.64282 0
M  V30 3462 N 303.011 1.40521 -0.713556 0
M  V30 3463 C 304.422 1.83853 -0.324807 0
M  V30 3464 C 304.773 1.59667 1.14021 0
M  V30 3465 O 303.898 1.07649 1.87725 0
M  V30 3466 C 304.493 3.33751 -0.582746 0
M  V30 3467 C 303.052 3.75584 -0.247727 0
M  V30 3468 C 302.199 2.63753 -0.856121 0
M  V30 3469 H 305.15 1.29817 -0.91286 0
M  V30 3470 H 305.171 3.80194 0.152682 0
M  V30 3471 H 304.683 3.51322 -1.64908 0
M  V30 3472 H 302.784 3.63608 0.813624 0
M  V30 3473 H 302.897 4.7373 -0.715307 0
M  V30 3474 H 301.261 2.53108 -0.28432 0
M  V30 3475 H 302.044 2.84137 -1.92668 0
M  V30 3476 N 304.489 0.459591 1.5075 0
M  V30 3477 C 305.437 -0.354678 2.2988 0
M  V30 3478 C 306.431 -1.00086 1.36672 0
M  V30 3479 O 307.637 -0.933277 1.53915 0
M  V30 3480 H 304.012 -0.13321 0.740107 0
M  V30 3481 H 305.983 0.333269 2.96533 0
M  V30 3482 C 304.732 -1.43073 3.169 0
M  V30 3483 H 304.055 -0.942882 3.88523 0
M  V30 3484 H 305.495 -1.97328 3.75284 0
M  V30 3485 C 303.954 -2.42633 2.33732 0
M  V30 3486 O 304.484 -3.47658 2.01238 0
M  V30 3487 N 302.69 -2.14066 1.9653 0
M  V30 3488 H 302.237 -1.28685 2.23155 0
M  V30 3489 H 302.195 -2.80917 1.41185 0
M  V30 3490 N 305.967 -1.56429 0.191757 0
M  V30 3491 C 306.897 -2.21937 -0.725696 0
M  V30 3492 C 307.878 -1.1814 -1.2238 0
M  V30 3493 O 309.063 -1.46636 -1.27325 0
M  V30 3494 C 306.193 -2.87611 -1.94672 0
M  V30 3495 C 305.147 -3.97623 -1.58366 0
M  V30 3496 C 304.473 -4.50446 -2.88102 0
M  V30 3497 C 305.773 -5.16197 -0.796133 0
M  V30 3498 H 307.467 -2.98861 -0.179606 0
M  V30 3499 H 305.013 -1.43749 -0.0849464 0
M  V30 3500 H 306.966 -3.3212 -2.59373 0
M  V30 3501 H 305.69 -2.08087 -2.51728 0
M  V30 3502 H 304.349 -3.53801 -0.960247 0
M  V30 3503 H 303.997 -3.67688 -3.43241 0
M  V30 3504 H 303.697 -5.24675 -2.64556 0
M  V30 3505 H 305.221 -4.97654 -3.53798 0
M  V30 3506 H 306.635 -5.57271 -1.34618 0
M  V30 3507 H 305.032 -5.96471 -0.658928 0
M  V30 3508 H 306.102 -4.84473 0.203478 0
M  V30 3509 N 307.445 0.0818655 -1.57387 0
M  V30 3510 C 308.692 0.782914 -1.86753 0
M  V30 3511 C 309.02 1.78082 -0.782118 0
M  V30 3512 O 308.275 1.94426 0.22295 0
M  V30 3513 C 308.574 1.53513 -3.22752 0
M  V30 3514 C 308.24 0.678134 -4.45771 0
M  V30 3515 C 306.902 0.441929 -4.79166 0
M  V30 3516 C 309.254 0.0832243 -5.21134 0
M  V30 3517 C 306.582 -0.398833 -5.85343 0
M  V30 3518 C 308.934 -0.744935 -6.28199 0
M  V30 3519 C 307.598 -0.991107 -6.60101 0
M  V30 3520 H 306.868 0.286489 -0.683378 0
M  V30 3521 H 309.515 0.0439808 -1.91449 0
M  V30 3522 H 307.82 2.34599 -3.138 0
M  V30 3523 H 309.517 2.08218 -3.42705 0
M  V30 3524 H 306.107 0.872357 -4.19628 0
M  V30 3525 H 310.291 0.252847 -4.95655 0
M  V30 3526 H 305.547 -0.598405 -6.08465 0
M  V30 3527 H 309.721 -1.21271 -6.8576 0
M  V30 3528 H 307.348 -1.64437 -7.42202 0
M  V30 3529 N 308.923 1.53595 0.353017 0
M  V30 3530 C 310.2 1.61002 1.11075 0
M  V30 3531 C 310.58 0.425356 2.0677 0
M  V30 3532 O 309.928 -0.583267 2.2093 0
M  V30 3533 C 310.138 2.96631 1.83877 0
M  V30 3534 C 311.486 3.51653 2.37961 0
M  V30 3535 O 312.51 2.98743 1.93987 0
M  V30 3536 O 311.369 4.44177 3.18386 0
M  V30 3537 H 308.463 0.650825 0.510251 0
M  V30 3538 H 311.009 1.6594 0.35527 0
M  V30 3539 H 309.781 3.74293 1.14108 0
M  V30 3540 H 309.404 2.95242 2.66304 0
M  V30 3541 N 310.401 -0.613514 1.45168 0
M  V30 3542 C 311.311 -1.75296 1.55912 0
M  V30 3543 C 312.327 -1.68244 0.443856 0
M  V30 3544 O 313.503 -1.88706 0.70371 0
M  V30 3545 C 310.568 -3.1174 1.5172 0
M  V30 3546 C 309.629 -3.30291 2.74238 0
M  V30 3547 C 308.862 -4.60226 2.70236 0
M  V30 3548 O 309.085 -5.42168 1.77229 0
M  V30 3549 O 308.019 -4.81361 3.61352 0
M  V30 3550 H 311.845 -1.69183 2.52212 0
M  V30 3551 H 309.43 -0.776886 1.27612 0
M  V30 3552 H 311.312 -3.93044 1.51968 0
M  V30 3553 H 309.987 -3.18357 0.585697 0
M  V30 3554 H 308.894 -2.48598 2.79553 0
M  V30 3555 H 310.227 -3.28547 3.66494 0
M  V30 3556 N 311.879 -1.3236 -0.855495 0
M  V30 3557 C 312.789 -1.23221 -1.99634 0
M  V30 3558 C 313.805 -0.145983 -1.73387 0
M  V30 3559 O 314.981 -0.366502 -1.98037 0
M  V30 3560 C 312.046 -0.954782 -3.33294 0
M  V30 3561 C 311.107 -2.12937 -3.72769 0
M  V30 3562 C 310.34 -1.86508 -5.00051 0
M  V30 3563 O 310.563 -0.807231 -5.64659 0
M  V30 3564 O 309.497 -2.72591 -5.36636 0
M  V30 3565 H 313.323 -2.19126 -2.1028 0
M  V30 3566 H 310.908 -1.12241 -0.986018 0
M  V30 3567 H 312.79 -0.816519 -4.13414 0
M  V30 3568 H 311.465 -0.0258854 -3.2369 0
M  V30 3569 H 310.372 -2.3231 -2.93228 0
M  V30 3570 H 311.705 -3.04102 -3.87018 0
M  V30 3571 N 313.357 1.07166 -1.15556 0
M  V30 3572 C 314.597 1.81391 -0.94216 0
M  V30 3573 C 314.961 1.84788 0.521272 0
M  V30 3574 O 316.162 2.54904 0.85307 0
M  V30 3575 C 314.433 3.22431 -1.54185 0
M  V30 3576 S 315.992 4.13379 -1.47183 0
M  V30 3577 H 312.81 0.624963 -0.339031 0
M  V30 3578 H 315.412 1.28725 -1.4714 0
M  V30 3579 H 314.116 3.17548 -2.59984 0
M  V30 3580 H 313.647 3.80172 -1.01156 0
M  V30 3581 H 315.662 4.94007 -0.466004 0
M  V30 3582 N 314.835 0.952656 1.25548 0
M  V30 3583 C 315.783 0.462354 2.27958 0
M  V30 3584 C 316.777 -0.46634 1.62855 0
M  V30 3585 O 317.983 -0.343287 1.76696 0
M  V30 3586 H 314.358 0.13101 0.7405 0
M  V30 3587 H 316.329 1.33839 2.66702 0
M  V30 3588 C 315.078 -0.24628 3.46827 0
M  V30 3589 H 314.401 0.459192 3.97154 0
M  V30 3590 H 315.841 -0.553393 4.20373 0
M  V30 3591 C 314.3 -1.4681 3.0323 0
M  V30 3592 O 314.83 -2.56591 3.09069 0
M  V30 3593 N 313.036 -1.32874 2.58443 0
M  V30 3594 H 312.583 -0.435536 2.53891 0
M  V30 3595 H 312.541 -2.14742 2.29637 0
M  V30 3596 N 316.313 -1.40141 0.720998 0
M  V30 3597 C 317.559 -2.01084 0.263231 0
M  V30 3598 C 317.892 -1.57052 -1.14229 0
M  V30 3599 O 317.167 -0.793027 -1.77599 0
M  V30 3600 C 317.45 -3.58401 0.349344 0
M  V30 3601 C 317.303 -4.12491 1.79363 0
M  V30 3602 C 318.622 -4.39231 -0.276351 0
M  V30 3603 H 315.741 -0.730572 0.0971228 0
M  V30 3604 H 318.383 -1.66543 0.914518 0
M  V30 3605 H 316.533 -3.87958 -0.205165 0
M  V30 3606 H 318.205 -3.93711 2.40394 0
M  V30 3607 H 316.448 -3.66576 2.31958 0
M  V30 3608 H 317.119 -5.21646 1.80524 0
M  V30 3609 H 319.595 -4.15637 0.196184 0
M  V30 3610 H 318.471 -5.48586 -0.185681 0
M  V30 3611 H 318.732 -4.20643 -1.36059 0
M  V30 3612 N 317.792 -0.46758 -1.50504 0
M  V30 3613 C 319.038 0.0887532 -2.02606 0
M  V30 3614 C 319.371 1.39686 -1.34913 0
M  V30 3615 O 318.646 1.88644 -0.473694 0
M  V30 3616 C 318.929 0.276206 -3.59039 0
M  V30 3617 C 318.782 -1.05267 -4.37309 0
M  V30 3618 C 320.101 1.03235 -4.27821 0
M  V30 3619 H 317.22 0.0307814 -0.736357 0
M  V30 3620 H 319.862 -0.612485 -1.79857 0
M  V30 3621 H 318.012 0.8735 -3.78553 0
M  V30 3622 H 319.684 -1.68628 -4.29374 0
M  V30 3623 H 317.927 -1.65015 -4.01189 0
M  V30 3624 H 318.598 -0.875197 -5.45018 0
M  V30 3625 H 321.074 0.526111 -4.12761 0
M  V30 3626 H 319.95 1.1323 -5.37094 0
M  V30 3627 H 320.211 2.06806 -3.90748 0
M  V30 3628 N 319.27 1.56325 -0.20005 0
M  V30 3629 C 320.18 2.22931 0.730668 0
M  V30 3630 C 321.196 1.22997 1.23076 0
M  V30 3631 O 322.372 1.55748 1.27689 0
M  V30 3632 C 319.437 2.87948 1.93098 0
M  V30 3633 C 318.498 4.03166 1.47497 0
M  V30 3634 C 317.731 4.65073 2.61807 0
M  V30 3635 O 317.954 4.25913 3.79413 0
M  V30 3636 O 316.888 5.54452 2.34237 0
M  V30 3637 H 320.714 3.03084 0.193391 0
M  V30 3638 H 318.299 1.49371 0.0294621 0
M  V30 3639 H 320.181 3.29063 2.6324 0
M  V30 3640 H 318.856 2.10771 2.45677 0
M  V30 3641 H 317.763 3.66664 0.742201 0
M  V30 3642 H 319.096 4.82022 0.995796 0
M  V30 3643 N 320.748 -0.0735177 1.57428 0
M  V30 3644 C 321.973 -0.789787 1.91774 0
M  V30 3645 C 322.398 -1.70413 0.796306 0
M  V30 3646 O 321.756 -1.79555 -0.250961 0
M  V30 3647 C 321.804 -1.5609 3.25067 0
M  V30 3648 O 320.908 -2.67144 3.14178 0
M  V30 3649 H 320.249 -0.215582 0.628029 0
M  V30 3650 H 322.779 -0.0422781 2.04556 0
M  V30 3651 H 322.789 -1.94052 3.58898 0
M  V30 3652 H 321.464 -0.890015 4.06265 0
M  V30 3653 H 320.041 -2.32052 2.91901 0
M  V30 3654 N 322.226 -1.5378 -0.344866 0
M  V30 3655 C 323.473 -1.70963 -1.08526 0
M  V30 3656 C 323.801 -0.472126 -1.88683 0
M  V30 3657 O 323.056 0.546116 -1.87926 0
M  V30 3658 C 323.355 -2.92407 -2.05506 0
M  V30 3659 C 323.021 -4.28066 -1.41671 0
M  V30 3660 C 321.683 -4.64951 -1.2399 0
M  V30 3661 C 324.035 -5.12344 -0.956726 0
M  V30 3662 C 321.363 -5.83733 -0.589277 0
M  V30 3663 C 323.715 -6.3179 -0.320015 0
M  V30 3664 C 322.379 -6.67372 -0.130881 0
M  V30 3665 H 321.649 -0.625598 -0.397124 0
M  V30 3666 H 324.296 -1.87995 -0.36469 0
M  V30 3667 H 322.601 -2.69973 -2.8394 0
M  V30 3668 H 324.298 -3.02895 -2.62784 0
M  V30 3669 H 320.888 -3.99034 -1.56429 0
M  V30 3670 H 325.072 -4.8438 -1.08118 0
M  V30 3671 H 320.328 -6.09877 -0.431344 0
M  V30 3672 H 324.502 -6.96386 0.0445072 0
M  V30 3673 H 322.129 -7.59273 0.375318 0
M  V30 3674 N 323.704 0.605807 -1.45491 0
M  V30 3675 C 324.634 1.72709 -1.57143 0
M  V30 3676 C 325.615 1.6476 -0.422884 0
M  V30 3677 O 326.8 1.83132 -0.646247 0
M  V30 3678 C 323.93 3.11316 -1.53948 0
M  V30 3679 C 322.884 3.34077 -2.67537 0
M  V30 3680 C 322.21 4.72975 -2.49397 0
M  V30 3681 C 323.51 3.24158 -4.09535 0
M  V30 3682 H 325.204 1.63214 -2.51001 0
M  V30 3683 H 322.75 0.78379 -1.208 0
M  V30 3684 H 324.703 3.89557 -1.60696 0
M  V30 3685 H 323.427 3.21655 -0.566205 0
M  V30 3686 H 322.086 2.58227 -2.6022 0
M  V30 3687 H 321.734 4.8005 -1.50205 0
M  V30 3688 H 321.434 4.8916 -3.25571 0
M  V30 3689 H 322.958 5.53414 -2.58002 0
M  V30 3690 H 324.372 3.92271 -4.18086 0
M  V30 3691 H 322.769 3.51872 -4.86113 0
M  V30 3692 H 323.839 2.2157 -4.31317 0
M  V30 3693 N 325.182 1.32811 0.848464 0
M  V30 3694 C 326.593 1.21315 1.41914 0
M  V30 3695 C 326.944 -0.171847 1.95446 0
M  V30 3696 O 326.069 -1.07093 1.88043 0
M  V30 3697 C 326.664 2.19631 2.57968 0
M  V30 3698 C 325.223 2.12003 3.11017 0
M  V30 3699 C 324.37 2.07651 1.83783 0
M  V30 3700 H 327.321 1.44549 0.655071 0
M  V30 3701 H 327.342 1.79845 3.35315 0
M  V30 3702 H 326.854 3.20423 2.18976 0
M  V30 3703 H 324.955 1.14481 3.54577 0
M  V30 3704 H 325.068 3.02111 3.71841 0
M  V30 3705 H 323.432 1.52983 2.03638 0
M  V30 3706 H 324.215 3.10235 1.47 0
M  V30 3707 N 326.66 -1.06551 1.16123 0
M  V30 3708 C 327.59 -2.15935 0.88851 0
M  V30 3709 C 328.571 -1.69306 -0.164135 0
M  V30 3710 O 329.756 -1.94193 -0.0167857 0
M  V30 3711 C 326.886 -3.45149 0.385942 0
M  V30 3712 C 325.84 -4.05271 1.3762 0
M  V30 3713 C 325.166 -5.29664 0.732137 0
M  V30 3714 C 326.466 -4.44355 2.74493 0
M  V30 3715 H 328.16 -2.39006 1.80323 0
M  V30 3716 H 325.706 -1.14866 0.868435 0
M  V30 3717 H 327.659 -4.21004 0.182647 0
M  V30 3718 H 326.383 -3.21689 -0.564274 0
M  V30 3719 H 325.042 -3.3147 1.56599 0
M  V30 3720 H 324.69 -5.02499 -0.224483 0
M  V30 3721 H 324.39 -5.70848 1.39307 0
M  V30 3722 H 325.914 -6.08218 0.538802 0
M  V30 3723 H 327.328 -5.11303 2.59311 0
M  V30 3724 H 325.725 -4.96515 3.37035 0
M  V30 3725 H 326.795 -3.55339 3.29943 0
M  V30 3726 N 328.138 -0.959301 -1.25041 0
M  V30 3727 C 329.07 -0.440543 -2.24926 0
M  V30 3728 C 330.083 0.446131 -1.56568 0
M  V30 3729 O 331.272 0.253657 -1.76689 0
M  V30 3730 C 328.372 0.38412 -3.36716 0
M  V30 3731 C 327.545 -0.490658 -4.34639 0
M  V30 3732 C 326.604 0.276587 -5.25473 0
M  V30 3733 O 325.63 -0.326614 -5.68262 0
M  V30 3734 N 326.832 1.56844 -5.5891 0
M  V30 3735 H 329.597 -1.29931 -2.70071 0
M  V30 3736 H 327.158 -0.830181 -1.38995 0
M  V30 3737 H 329.15 0.905228 -3.94446 0
M  V30 3738 H 327.72 1.14377 -2.90924 0
M  V30 3739 H 326.94 -1.19282 -3.7572 0
M  V30 3740 H 328.228 -1.08756 -4.97041 0
M  V30 3741 H 327.626 2.08036 -5.26059 0
M  V30 3742 H 326.183 2.03541 -6.19205 0
M  V30 3743 N 329.616 1.39756 -0.72842 0
M  V30 3744 C 330.841 2.05472 -0.282159 0
M  V30 3745 C 331.266 1.54549 1.07221 0
M  V30 3746 O 330.624 0.686372 1.67805 0
M  V30 3747 C 330.672 3.59462 -0.286264 0
M  V30 3748 O 329.776 4.05918 0.728298 0
M  V30 3749 H 329.117 0.651226 -0.129618 0
M  V30 3750 H 331.647 1.78915 -0.992499 0
M  V30 3751 H 331.657 4.07798 -0.128373 0
M  V30 3752 H 330.332 3.95889 -1.27456 0
M  V30 3753 H 328.909 3.69012 0.537081 0
M  V30 3754 N 331.094 0.475555 1.50254 0
M  V30 3755 C 332.34 -0.0701075 2.03279 0
M  V30 3756 C 332.695 -1.37007 1.35081 0
M  V30 3757 O 331.988 -1.8577 0.469052 0
M  V30 3758 C 332.182 -0.305114 3.56095 0
M  V30 3759 C 332.011 0.970515 4.39103 0
M  V30 3760 C 330.781 1.51509 4.82051 0
M  V30 3761 C 332.979 1.8671 4.79212 0
M  V30 3762 N 330.961 2.73928 5.49397 0
M  V30 3763 C 332.332 2.93715 5.46014 0
M  V30 3764 C 334.387 1.87695 4.61167 0
M  V30 3765 C 333.09 4.01699 5.96683 0
M  V30 3766 C 335.116 2.94637 5.12779 0
M  V30 3767 C 334.478 4.00361 5.79561 0
M  V30 3768 H 330.577 0.014486 0.781866 0
M  V30 3769 H 333.161 0.644755 1.83714 0
M  V30 3770 H 331.332 -0.989019 3.75597 0
M  V30 3771 H 333.064 -0.845516 3.95769 0
M  V30 3772 H 329.819 1.06367 4.61501 0
M  V30 3773 H 330.243 3.36109 5.87673 0
M  V30 3774 H 334.885 1.07273 4.08965 0
M  V30 3775 H 332.603 4.82934 6.4792 0
M  V30 3776 H 336.189 2.96388 5.00645 0
M  V30 3777 H 335.069 4.81751 6.18778 0
M  V30 3778 N 332.573 -1.56217 0.208337 0
M  V30 3779 C 333.819 -1.98242 -0.427552 0
M  V30 3780 C 334.152 -1.09554 -1.60348 0
M  V30 3781 O 333.427 -0.15035 -1.93918 0
M  V30 3782 C 333.71 -3.4931 -0.874907 0
M  V30 3783 C 333.563 -4.48773 0.303751 0
M  V30 3784 C 334.882 -4.04424 -1.73577 0
M  V30 3785 H 332.001 -0.720744 -0.153936 0
M  V30 3786 H 334.643 -1.87586 0.30192 0
M  V30 3787 H 332.793 -3.58522 -1.49648 0
M  V30 3788 H 334.465 -4.51586 0.941682 0
M  V30 3789 H 332.708 -4.23194 0.953375 0
M  V30 3790 H 333.379 -5.51976 -0.0519883 0
M  V30 3791 H 335.855 -3.98075 -1.21143 0
M  V30 3792 H 334.731 -5.1047 -2.01771 0
M  V30 3793 H 334.992 -3.50494 -2.69456 0
M  V30 3794 N 334.051 0.0651679 -1.57465 0
M  V30 3795 C 335.281 0.774683 -1.91526 0
M  V30 3796 C 335.689 1.71305 -0.803196 0
M  V30 3797 O 335.032 1.82231 0.231881 0
M  V30 3798 C 335.094 1.61645 -3.21109 0
M  V30 3799 C 334.758 0.846753 -4.49087 0
M  V30 3800 C 335.755 0.163024 -5.19644 0
M  V30 3801 C 333.44 0.811966 -4.95694 0
M  V30 3802 C 335.434 -0.54519 -6.35064 0
M  V30 3803 C 333.121 0.0999836 -6.11018 0
M  V30 3804 C 334.119 -0.577388 -6.80555 0
M  V30 3805 O 333.807 -1.27789 -7.93678 0
M  V30 3806 H 333.539 0.225031 -0.637446 0
M  V30 3807 H 336.093 0.0377134 -2.05365 0
M  V30 3808 H 334.323 2.39638 -3.03497 0
M  V30 3809 H 336.012 2.20525 -3.40769 0
M  V30 3810 H 336.778 0.181163 -4.84662 0
M  V30 3811 H 332.657 1.32867 -4.41438 0
M  V30 3812 H 336.201 -1.07446 -6.89276 0
M  V30 3813 H 332.098 0.0797945 -6.45451 0
M  V30 3814 H 332.866 -1.18784 -8.09835 0
M  V30 3815 N 335.529 1.53961 0.336706 0
M  V30 3816 C 336.945 1.44378 0.680241 0
M  V30 3817 C 337.145 0.606034 1.9217 0
M  V30 3818 O 336.201 0.099688 2.52303 0
M  V30 3819 C 337.514 2.87945 0.8665 0
M  V30 3820 C 339.062 2.97763 0.964682 0
M  V30 3821 C 339.537 4.42453 1.18321 0
M  V30 3822 N 341.028 4.46008 1.25025 0
M  V30 3823 C 341.763 5.55102 1.43697 0
M  V30 3824 N 341.259 6.7419 1.59498 0
M  V30 3825 N 343.052 5.42727 1.463 0
M  V30 3826 H 335.203 2.06918 -0.479455 0
M  V30 3827 H 337.466 0.935634 -0.152619 0
M  V30 3828 H 337.172 3.51691 0.0256937 0
M  V30 3829 H 337.046 3.33293 1.76623 0
M  V30 3830 H 339.433 2.34153 1.796 0
M  V30 3831 H 339.514 2.55766 0.041708 0
M  V30 3832 H 339.158 5.06645 0.356788 0
M  V30 3833 H 339.088 4.82048 2.11985 0
M  V30 3834 H 341.579 3.60196 1.14312 0
M  V30 3835 H 341.892 7.53095 1.734 0
M  V30 3836 H 340.237 6.77123 1.56621 0
M  V30 3837 H 343.428 4.48647 1.33543 0
M  V30 3838 H 343.601 6.27806 1.6051 0
M  V30 3839 N 337.007 -0.598083 1.45811 0
M  V30 3840 C 337.955 -1.72932 1.55555 0
M  V30 3841 C 338.949 -1.63984 0.424921 0
M  V30 3842 O 340.155 -1.69663 0.601205 0
M  V30 3843 H 336.53 -0.571489 0.488779 0
M  V30 3844 H 338.501 -1.61842 2.50699 0
M  V30 3845 C 337.25 -3.11318 1.54843 0
M  V30 3846 H 336.573 -3.18867 2.41172 0
M  V30 3847 H 338.013 -3.90274 1.65717 0
M  V30 3848 C 336.472 -3.3578 0.274427 0
M  V30 3849 O 337.002 -3.9654 -0.641778 0
M  V30 3850 N 335.208 -2.90119 0.167139 0
M  V30 3851 H 334.755 -2.40855 0.913596 0
M  V30 3852 H 334.713 -3.0686 -0.684435 0
M  V30 3853 N 338.485 -1.33259 -0.841409 0
M  V30 3854 C 339.762 -1.15174 -1.58096 0
M  V30 3855 C 340.142 0.282858 -2.09196 0
M  V30 3856 O 339.49 1.28151 -1.89181 0
M  V30 3857 C 339.7 -2.1907 -2.71679 0
M  V30 3858 C 341.048 -2.53093 -3.40924 0
M  V30 3859 O 342.072 -2.17717 -2.81918 0
M  V30 3860 O 340.931 -3.1379 -4.47435 0
M  V30 3861 H 338.025 -0.445303 -0.696875 0
M  V30 3862 H 340.571 -1.44833 -0.884385 0
M  V30 3863 H 339.343 -3.15443 -2.31541 0
M  V30 3864 H 338.966 -1.90481 -3.49002 0
M  V30 3865 N 339.963 1.05934 -1.16686 0
M  V30 3866 C 341.191 1.8249 -0.974929 0
M  V30 3867 C 341.606 1.82679 0.476861 0
M  V30 3868 O 340.963 1.2486 1.33103 0
M  V30 3869 C 341.014 3.28943 -1.49929 0
M  V30 3870 O 340.735 3.28886 -2.89423 0
M  V30 3871 C 342.236 4.22215 -1.35089 0
M  V30 3872 H 339.456 0.575295 -0.345365 0
M  V30 3873 H 342 1.33631 -1.548 0
M  V30 3874 H 340.155 3.751 -0.968423 0
M  V30 3875 H 340.569 4.20493 -3.13506 0
M  V30 3876 H 342.043 5.22987 -1.76603 0
M  V30 3877 H 342.52 4.38195 -0.296935 0
M  V30 3878 H 343.126 3.81907 -1.87155 0
M  V30 3879 N 341.441 0.965919 1.2453 0
M  V30 3880 C 342.687 0.637349 1.93156 0
M  V30 3881 C 343.042 -0.818261 1.74133 0
M  V30 3882 O 342.335 -1.58079 1.08266 0
M  V30 3883 C 342.529 0.945428 3.44669 0
M  V30 3884 C 342.358 2.42944 3.78429 0
M  V30 3885 C 341.128 3.08895 3.9989 0
M  V30 3886 C 343.326 3.40941 3.8505 0
M  V30 3887 N 341.308 4.47052 4.20735 0
M  V30 3888 C 342.679 4.64448 4.10717 0
M  V30 3889 C 344.734 3.35624 3.67779 0
M  V30 3890 C 343.437 5.83292 4.20907 0
M  V30 3891 C 345.463 4.53818 3.79214 0
M  V30 3892 C 344.825 5.76114 4.05304 0
M  V30 3893 H 340.924 0.284034 0.728594 0
M  V30 3894 H 343.508 1.24041 1.50073 0
M  V30 3895 H 341.679 0.371193 3.86622 0
M  V30 3896 H 343.411 0.575613 4.00586 0
M  V30 3897 H 340.166 2.59432 3.96222 0
M  V30 3898 H 340.59 5.18634 4.35141 0
M  V30 3899 H 345.232 2.4211 3.46616 0
M  V30 3900 H 342.95 6.77236 4.40883 0
M  V30 3901 H 346.536 4.51263 3.67224 0
M  V30 3902 H 345.416 6.66045 4.13949 0
M  V30 3903 N 342.919 -1.39368 0.735821 0
M  V30 3904 C 344.166 -2.00497 0.284123 0
M  V30 3905 C 344.494 -1.58387 -1.12889 0
M  V30 3906 O 343.749 -0.804359 -1.78406 0
M  V30 3907 C 344.048 -3.5583 0.334651 0
M  V30 3908 C 343.714 -4.17593 1.7008 0
M  V30 3909 C 342.376 -4.34176 2.07472 0
M  V30 3910 C 344.728 -4.51848 2.59775 0
M  V30 3911 C 342.056 -4.82304 3.34065 0
M  V30 3912 C 344.408 -5.01384 3.85741 0
M  V30 3913 C 343.072 -5.16175 4.23225 0
M  V30 3914 H 342.342 -0.73367 0.103968 0
M  V30 3915 H 344.989 -1.66683 0.942825 0
M  V30 3916 H 343.294 -3.89674 -0.407625 0
M  V30 3917 H 344.991 -4.00986 -0.0329927 0
M  V30 3918 H 341.581 -4.05087 1.40008 0
M  V30 3919 H 345.765 -4.38653 2.32157 0
M  V30 3920 H 341.021 -4.91941 3.63049 0
M  V30 3921 H 345.195 -5.26863 4.55399 0
M  V30 3922 H 342.822 -5.5323 5.21384 0
M  V30 3923 N 344.397 -0.483516 -1.5 0
M  V30 3924 C 345.327 0.293829 -2.31644 0
M  V30 3925 C 346.308 0.978864 -1.39112 0
M  V30 3926 O 347.493 0.973644 -1.68029 0
M  V30 3927 C 344.623 1.36897 -3.19181 0
M  V30 3928 C 343.577 0.804833 -4.20365 0
M  V30 3929 C 342.903 1.9792 -4.96721 0
M  V30 3930 C 344.203 -0.192313 -5.21946 0
M  V30 3931 H 345.897 -0.387616 -2.9688 0
M  V30 3932 H 343.443 -0.187856 -1.42769 0
M  V30 3933 H 345.396 1.92037 -3.751 0
M  V30 3934 H 344.12 2.07936 -2.51853 0
M  V30 3935 H 342.779 0.275319 -3.65565 0
M  V30 3936 H 342.427 2.67686 -4.25856 0
M  V30 3937 H 342.127 1.60789 -5.65173 0
M  V30 3938 H 343.651 2.53526 -5.55479 0
M  V30 3939 H 345.065 0.270333 -5.72662 0
M  V30 3940 H 343.462 -0.478543 -5.98189 0
M  V30 3941 H 344.532 -1.11409 -4.71928 0
M  V30 3942 N 345.875 1.56104 -0.216619 0
M  V30 3943 C 347.122 1.98172 0.416416 0
M  V30 3944 C 347.45 1.10413 1.60122 0
M  V30 3945 O 346.705 0.147967 1.9514 0
M  V30 3946 C 347.004 3.45923 0.898464 0
M  V30 3947 C 346.67 4.50559 -0.175288 0
M  V30 3948 C 345.332 4.78897 -0.470271 0
M  V30 3949 C 347.684 5.1334 -0.901728 0
M  V30 3950 C 345.012 5.67299 -1.4963 0
M  V30 3951 C 347.364 6.02853 -1.91705 0
M  V30 3952 C 346.028 6.29537 -2.21901 0
M  V30 3953 H 345.298 0.725164 0.152377 0
M  V30 3954 H 347.945 1.88839 -0.318103 0
M  V30 3955 H 346.25 3.52434 1.71165 0
M  V30 3956 H 347.947 3.75841 1.39803 0
M  V30 3957 H 344.537 4.28551 0.0647806 0
M  V30 3958 H 348.721 4.91521 -0.687072 0
M  V30 3959 H 343.977 5.86239 -1.73592 0
M  V30 3960 H 348.151 6.50552 -2.48505 0
M  V30 3961 H 345.778 6.97835 -3.01548 0
M  V30 3962 N 347.353 -0.0568162 1.57498 0
M  V30 3963 C 348.599 -0.75422 1.88253 0
M  V30 3964 C 348.932 -1.76461 0.810865 0
M  V30 3965 O 348.207 -1.93691 -0.177259 0
M  V30 3966 C 348.49 -1.44878 3.2967 0
M  V30 3967 C 348.343 -0.453789 4.47505 0
M  V30 3968 C 349.662 -2.38994 3.69554 0
M  V30 3969 H 346.781 -0.272724 0.684683 0
M  V30 3970 H 349.423 -0.0172113 1.89992 0
M  V30 3971 H 347.573 -2.077 3.28318 0
M  V30 3972 H 349.245 0.170371 4.60985 0
M  V30 3973 H 347.488 0.229552 4.33192 0
M  V30 3974 H 348.159 -0.977699 5.43273 0
M  V30 3975 H 350.635 -1.86239 3.72095 0
M  V30 3976 H 349.511 -2.84587 4.69363 0
M  V30 3977 H 349.772 -3.24461 3.00296 0
M  V30 3978 N 348.832 -1.54138 -0.328536 0
M  V30 3979 C 349.795 -1.82462 -1.38709 0
M  V30 3980 C 350.795 -0.696229 -1.44946 0
M  V30 3981 O 351.985 -0.964535 -1.4506 0
M  V30 3982 C 349.117 -1.98018 -2.77492 0
M  V30 3983 H 350.31 -2.77037 -1.14851 0
M  V30 3984 H 347.863 -1.45779 -0.563751 0
M  V30 3985 H 348.598 -1.05637 -3.06613 0
M  V30 3986 H 348.383 -2.80124 -2.74359 0
M  V30 3987 H 349.873 -2.21396 -3.54081 0
M  V30 3988 N 350.31 0.590341 -1.46126 0
M  V30 3989 C 351.726 0.912917 -1.30912 0
M  V30 3990 C 351.926 1.99616 -0.274893 0
M  V30 3991 O 350.982 2.50397 0.325197 0
M  V30 3992 C 352.295 1.3375 -2.69317 0
M  V30 3993 C 353.843 1.45077 -2.77348 0
M  V30 3994 C 354.318 1.90904 -4.16317 0
M  V30 3995 N 355.809 1.9811 -4.18696 0
M  V30 3996 C 356.544 2.34828 -5.23109 0
M  V30 3997 N 356.04 2.70393 -6.37856 0
M  V30 3998 N 357.833 2.35317 -5.10473 0
M  V30 3999 H 349.984 -0.125358 -2.1203 0
M  V30 4000 H 352.247 0.00658481 -0.947977 0
M  V30 4001 H 351.953 0.615614 -3.4627 0
M  V30 4002 H 351.827 2.30058 -2.9892 0
M  V30 4003 H 354.214 2.16353 -2.00687 0
M  V30 4004 H 354.295 0.4704 -2.51438 0
M  V30 4005 H 353.939 1.20209 -4.9347 0
M  V30 4006 H 353.869 2.89886 -4.39629 0
M  V30 4007 H 356.36 1.73146 -3.359 0
M  V30 4008 H 356.673 2.97341 -7.13308 0
M  V30 4009 H 355.018 2.68048 -6.41229 0
M  V30 4010 H 358.209 2.0695 -4.19868 0
M  V30 4011 H 358.382 2.63605 -5.9196 0
M  V30 4012 N 351.788 1.33704 0.83433 0
M  V30 4013 C 352.721 1.18675 1.94914 0
M  V30 4014 C 353.699 0.0811145 1.62398 0
M  V30 4015 O 354.883 0.244186 1.86912 0
M  V30 4016 C 352.01 0.821231 3.28593 0
M  V30 4017 C 351.056 1.93501 3.80079 0
M  V30 4018 S 351.889 3.54671 4.01209 0
M  V30 4019 C 353.045 3.20136 5.37833 0
M  V30 4020 H 353.278 2.13043 2.07364 0
M  V30 4021 H 350.811 1.18598 0.988624 0
M  V30 4022 H 352.769 0.617123 4.05835 0
M  V30 4023 H 351.43 -0.103927 3.13928 0
M  V30 4024 H 350.623 1.63273 4.76821 0
M  V30 4025 H 350.225 2.09601 3.09747 0
M  V30 4026 H 352.517 2.71242 6.20833 0
M  V30 4027 H 353.46 4.15975 5.73036 0
M  V30 4028 H 353.868 2.56613 5.02802 0
M  V30 4029 N 353.266 -1.05314 1.17247 0
M  V30 4030 C 354.506 -1.79869 0.970898 0
M  V30 4031 C 354.87 -1.85594 -0.491808 0
M  V30 4032 O 356.071 -2.56229 -0.812409 0
M  V30 4033 C 354.342 -3.19937 1.59295 0
M  V30 4034 S 355.901 -4.10986 1.53741 0
M  V30 4035 H 352.719 -0.61949 0.348931 0
M  V30 4036 H 355.321 -1.26368 1.49169 0
M  V30 4037 H 354.025 -3.13372 2.65003 0
M  V30 4038 H 353.556 -3.78515 1.07191 0
M  V30 4039 H 355.571 -4.93203 0.544537 0
M  V30 4040 N 354.744 -0.972509 -1.24016 0
M  V30 4041 C 355.972 -0.654803 -1.96265 0
M  V30 4042 C 356.387 0.776708 -1.72083 0
M  V30 4043 O 355.744 1.52171 -1.00748 0
M  V30 4044 C 355.795 -0.92592 -3.49441 0
M  V30 4045 O 355.516 -2.30116 -3.72798 0
M  V30 4046 C 357.017 -0.623068 -4.38899 0
M  V30 4047 H 354.237 -0.243907 -0.6251 0
M  V30 4048 H 356.781 -1.30175 -1.57717 0
M  V30 4049 H 354.936 -0.325108 -3.86033 0
M  V30 4050 H 355.35 -2.38483 -4.67147 0
M  V30 4051 H 356.824 -0.863189 -5.45209 0
M  V30 4052 H 357.301 0.442754 -4.36963 0
M  V30 4053 H 357.907 -1.204 -4.07902 0
M  V30 4054 N 356.222 1.38976 -0.743202 0
M  V30 4055 C 357.185 2.28901 -0.117014 0
M  V30 4056 C 358.185 1.46698 0.658503 0
M  V30 4057 O 359.375 1.67274 0.486305 0
M  V30 4058 C 356.507 3.30309 0.84315 0
M  V30 4059 H 357.7 2.8578 -0.909373 0
M  V30 4060 H 355.253 1.47761 -0.509547 0
M  V30 4061 H 355.988 2.785 1.66157 0
M  V30 4062 H 355.773 3.91029 0.289594 0
M  V30 4063 H 357.263 3.97577 1.2776 0
M  V30 4064 N 357.7 0.491464 1.49741 0
M  V30 4065 C 358.946 -0.0565092 2.02721 0
M  V30 4066 C 359.279 -1.37522 1.37118 0
M  V30 4067 O 358.554 -1.87866 0.503645 0
M  V30 4068 C 358.837 -0.219051 3.59433 0
M  V30 4069 C 358.69 1.12211 4.35579 0
M  V30 4070 C 360.009 -0.964157 4.29409 0
M  V30 4071 H 357.128 -0.0190627 0.736753 0
M  V30 4072 H 359.77 0.641021 1.7886 0
M  V30 4073 H 357.92 -0.813165 3.79895 0
M  V30 4074 H 359.592 1.75437 4.26637 0
M  V30 4075 H 357.835 1.71377 3.98513 0
M  V30 4076 H 358.506 0.961794 5.43556 0
M  V30 4077 H 360.982 -0.460378 4.13545 0
M  V30 4078 H 359.858 -1.04671 5.38828 0
M  V30 4079 H 360.119 -2.00563 3.93988 0
M  V30 4080 N 359.178 -1.55987 0.224894 0
M  V30 4081 C 360.108 -2.23426 -0.678457 0
M  V30 4082 C 361.089 -1.20709 -1.19847 0
M  V30 4083 O 362.274 -1.49304 -1.24186 0
M  V30 4084 C 359.404 -2.91676 -1.88527 0
M  V30 4085 C 358.358 -4.00893 -1.49896 0
M  V30 4086 C 357.684 -4.56455 -2.78483 0
M  V30 4087 C 358.984 -5.17769 -0.686461 0
M  V30 4088 H 360.678 -2.99175 -0.116173 0
M  V30 4089 H 358.224 -1.43897 -0.054436 0
M  V30 4090 H 360.177 -3.37547 -2.5227 0
M  V30 4091 H 358.901 -2.1338 -2.47258 0
M  V30 4092 H 357.56 -3.55758 -0.884985 0
M  V30 4093 H 357.208 -3.74886 -3.35365 0
M  V30 4094 H 356.908 -5.30169 -2.53368 0
M  V30 4095 H 358.432 -5.05047 -3.43162 0
M  V30 4096 H 359.846 -5.60001 -1.22767 0
M  V30 4097 H 358.243 -5.97735 -0.532259 0
M  V30 4098 H 359.313 -4.83932 0.306196 0
M  V30 4099 N 360.656 0.0484629 -1.57525 0
M  V30 4100 C 361.586 1.0549 -2.08313 0
M  V30 4101 C 362.567 1.38929 -0.981463 0
M  V30 4102 O 363.752 1.48151 -1.25558 0
M  V30 4103 C 360.882 2.36162 -2.54646 0
M  V30 4104 C 359.836 2.17016 -3.68901 0
M  V30 4105 C 359.162 3.53278 -4.01371 0
M  V30 4106 C 360.462 1.57219 -4.98076 0
M  V30 4107 H 362.156 0.632195 -2.92649 0
M  V30 4108 H 359.702 0.302654 -1.40784 0
M  V30 4109 H 361.655 3.06882 -2.88793 0
M  V30 4110 H 360.379 2.80456 -1.67368 0
M  V30 4111 H 359.038 1.48733 -3.35073 0
M  V30 4112 H 358.686 3.95185 -3.11188 0
M  V30 4113 H 358.386 3.41299 -4.78318 0
M  V30 4114 H 359.91 4.25391 -4.38035 0
M  V30 4115 H 361.324 2.17832 -5.30304 0
M  V30 4116 H 359.721 1.55871 -5.79503 0
M  V30 4117 H 360.791 0.535956 -4.81929 0
M  V30 4118 N 362.134 1.5431 0.320358 0
M  V30 4119 C 363.097 1.83195 1.3774 0
M  V30 4120 C 364.097 0.703906 1.44575 0
M  V30 4121 O 365.287 0.972214 1.44546 0
M  V30 4122 C 362.419 1.99487 2.76438 0
M  V30 4123 H 363.612 2.77642 1.1338 0
M  V30 4124 H 361.165 1.46076 0.556012 0
M  V30 4125 H 361.9 1.07262 3.06048 0
M  V30 4126 H 361.685 2.81575 2.7287 0
M  V30 4127 H 363.175 2.23271 3.52902 0
M  V30 4128 N 363.613 -0.582584 1.46437 0
M  V30 4129 C 364.862 -1.337 1.5102 0
M  V30 4130 C 365.175 -1.94891 0.166359 0
M  V30 4131 O 366.381 -2.71351 0.0899954 0
M  V30 4132 C 364.837 -2.42315 2.66104 0
M  V30 4133 C 364.445 -1.87427 4.06909 0
M  V30 4134 C 366.189 -3.19099 2.79958 0
M  V30 4135 C 364.096 -2.93672 5.13333 0
M  V30 4136 H 363.026 -0.502619 0.562041 0
M  V30 4137 H 365.677 -0.621701 1.72647 0
M  V30 4138 H 364.059 -3.16645 2.37807 0
M  V30 4139 H 365.233 -1.19639 4.44998 0
M  V30 4140 H 363.548 -1.2331 3.97723 0
M  V30 4141 H 366.145 -3.9839 3.56636 0
M  V30 4142 H 366.488 -3.71695 1.87479 0
M  V30 4143 H 367.021 -2.51875 3.07902 0
M  V30 4144 H 363.76 -2.45962 6.07604 0
M  V30 4145 H 363.28 -3.59948 4.79789 0
M  V30 4146 H 364.959 -3.5762 5.39182 0
M  V30 4147 N 365.091 -1.34144 -0.827227 0
M  V30 4148 C 366.054 -1.25264 -1.91942 0
M  V30 4149 C 367.054 -0.168866 -1.59911 0
M  V30 4150 O 368.244 -0.421198 -1.69031 0
M  V30 4151 C 365.376 -0.932952 -3.27885 0
M  V30 4152 H 366.569 -2.22357 -2.0124 0
M  V30 4153 H 364.122 -1.1837 -1.0207 0
M  V30 4154 H 364.857 0.0349917 -3.24281 0
M  V30 4155 H 364.642 -1.71682 -3.52516 0
M  V30 4156 H 366.132 -0.895874 -4.07877 0
M  V30 4157 N 366.569 1.04691 -1.17803 0
M  V30 4158 C 367.818 1.77176 -0.963931 0
M  V30 4159 C 368.131 1.88888 0.508015 0
M  V30 4160 O 369.337 2.58164 0.840465 0
M  V30 4161 C 367.793 3.18518 -1.67555 0
M  V30 4162 C 367.401 3.14919 -3.18637 0
M  V30 4163 C 369.145 3.95424 -1.54402 0
M  V30 4164 C 367.052 4.51081 -3.82466 0
M  V30 4165 H 365.982 0.664116 -0.357023 0
M  V30 4166 H 368.633 1.17303 -1.4111 0
M  V30 4167 H 367.015 3.78748 -1.15613 0
M  V30 4168 H 368.189 2.64178 -3.77554 0
M  V30 4169 H 366.504 2.51512 -3.31859 0
M  V30 4170 H 369.101 4.96106 -1.99456 0
M  V30 4171 H 369.444 4.13343 -0.495329 0
M  V30 4172 H 369.977 3.41754 -2.0359 0
M  V30 4173 H 366.716 4.38368 -4.87354 0
M  V30 4174 H 366.236 5.01951 -3.28337 0
M  V30 4175 H 367.915 5.2001 -3.84965 0
M  V30 4176 N 368.047 0.979072 1.23499 0
M  V30 4177 C 368.979 0.476271 2.24197 0
M  V30 4178 C 369.992 -0.421166 1.57258 0
M  V30 4179 O 371.181 -0.225515 1.7707 0
M  V30 4180 C 368.281 -0.330503 3.37285 0
M  V30 4181 C 367.454 0.559744 4.33804 0
M  V30 4182 C 366.513 -0.192954 5.25846 0
M  V30 4183 O 365.539 0.416978 5.67671 0
M  V30 4184 N 366.741 -1.47932 5.61334 0
M  V30 4185 H 369.506 1.34211 2.67969 0
M  V30 4186 H 367.067 0.852189 1.37657 0
M  V30 4187 H 369.059 -0.842361 3.95836 0
M  V30 4188 H 367.629 -1.09734 2.92707 0
M  V30 4189 H 366.849 1.25245 3.73775 0
M  V30 4190 H 368.137 1.1665 4.95248 0
M  V30 4191 H 367.535 -1.9964 5.29302 0
M  V30 4192 H 366.092 -1.93664 6.22364 0
M  V30 4193 N 369.525 -1.3858 0.750561 0
M  V30 4194 C 370.457 -2.29057 0.0810714 0
M  V30 4195 C 371.47 -1.47596 -0.686973 0
M  V30 4196 O 372.659 -1.70495 -0.528563 0
M  V30 4197 C 369.759 -3.26475 -0.909247 0
M  V30 4198 C 368.932 -4.36945 -0.199478 0
M  V30 4199 C 367.991 -5.14572 -1.10011 0
M  V30 4200 O 367.017 -5.66321 -0.57177 0
M  V30 4201 N 368.219 -5.27262 -2.42849 0
M  V30 4202 H 370.984 -2.87153 0.858087 0
M  V30 4203 H 368.545 -1.50328 0.60109 0
M  V30 4204 H 370.537 -3.75285 -1.51471 0
M  V30 4205 H 369.107 -2.69298 -1.58736 0
M  V30 4206 H 368.327 -3.8981 0.586664 0
M  V30 4207 H 369.615 -5.07963 0.291783 0
M  V30 4208 H 369.013 -4.86763 -2.88233 0
M  V30 4209 H 367.57 -5.79456 -2.98453 0
M  V30 4210 N 371.003 -0.499398 -1.49478 0
M  V30 4211 C 371.933 0.269244 -2.31943 0
M  V30 4212 C 372.914 0.964054 -1.40143 0
M  V30 4213 O 374.099 0.955767 -1.69052 0
M  V30 4214 C 371.229 1.33504 -3.20615 0
M  V30 4215 C 370.183 0.760202 -4.21195 0
M  V30 4216 C 369.509 1.9264 -4.98792 0
M  V30 4217 C 370.809 -0.247661 -5.21712 0
M  V30 4218 H 372.503 -0.419082 -2.96452 0
M  V30 4219 H 370.049 -0.202988 -1.42562 0
M  V30 4220 H 372.002 1.88048 -3.77115 0
M  V30 4221 H 370.726 2.05253 -2.54045 0
M  V30 4222 H 369.385 0.23653 -3.65836 0
M  V30 4223 H 369.033 2.63154 -4.28671 0
M  V30 4224 H 368.733 1.54785 -5.66847 0
M  V30 4225 H 370.257 2.4762 -5.58137 0
M  V30 4226 H 371.671 0.209579 -5.72917 0
M  V30 4227 H 370.068 -0.541962 -5.97648 0
M  V30 4228 H 371.138 -1.16409 -4.7072 0
M  V30 4229 N 372.481 1.55866 -0.233164 0
M  V30 4230 C 373.729 1.9821 0.394593 0
M  V30 4231 C 374.05 1.12234 1.59463 0
M  V30 4232 O 373.32 0.201981 1.94856 0
M  V30 4233 H 371.9 0.732034 0.148778 0
M  V30 4234 H 374.562 1.92107 -0.32876 0
M  V30 4235 H 373.658 3.03845 0.713063 0
M  V30 4236 N 373.959 -0.0401083 1.57549 0
M  V30 4237 C 374.906 -1.04413 2.05831 0
M  V30 4238 C 375.876 -1.36585 0.945184 0
M  V30 4239 O 377.061 -1.47112 1.21502 0
M  V30 4240 C 374.201 -2.34336 2.53339 0
M  V30 4241 C 373.314 -2.08419 3.78398 0
M  V30 4242 C 372.449 -3.32133 4.14561 0
M  V30 4243 C 371.488 -3.01721 5.3257 0
M  V30 4244 N 370.625 -4.17855 5.64218 0
M  V30 4245 H 375.465 -0.625442 2.91363 0
M  V30 4246 H 373.002 -0.297218 1.44066 0
M  V30 4247 H 374.96 -3.10234 2.78946 0
M  V30 4248 H 373.59 -2.73948 1.7074 0
M  V30 4249 H 372.642 -1.23069 3.59942 0
M  V30 4250 H 373.954 -1.81978 4.64419 0
M  V30 4251 H 373.108 -4.16406 4.41238 0
M  V30 4252 H 371.847 -3.61678 3.2717 0
M  V30 4253 H 370.852 -2.15849 5.05657 0
M  V30 4254 H 372.077 -2.73466 6.21605 0
M  V30 4255 H 370.023 -4.47372 4.79786 0
M  V30 4256 H 369.94 -3.94798 6.44725 0
M  V30 4257 H 371.208 -5.03033 5.95465 0
M  V30 4258 N 375.437 -1.54477 -0.31217 0
M  V30 4259 C 376.665 -1.77205 -1.068 0
M  V30 4260 C 377.08 -0.526114 -1.81321 0
M  V30 4261 O 376.437 0.503647 -1.75413 0
M  V30 4262 C 376.488 -2.97253 -2.05725 0
M  V30 4263 O 376.209 -4.1703 -1.34228 0
M  V30 4264 C 377.71 -3.32281 -2.93435 0
M  V30 4265 H 374.93 -0.591287 -0.317208 0
M  V30 4266 H 377.474 -2.01398 -0.354834 0
M  V30 4267 H 375.629 -2.753 -2.72559 0
M  V30 4268 H 376.043 -4.84636 -2.00571 0
M  V30 4269 H 377.517 -4.19551 -3.58721 0
M  V30 4270 H 377.994 -2.49945 -3.61143 0
M  V30 4271 H 378.6 -3.56353 -2.32147 0
M  V30 4272 N 376.915 0.57481 -1.46744 0
M  V30 4273 C 377.865 1.67838 -1.54319 0
M  V30 4274 C 378.849 1.55759 -0.40346 0
M  V30 4275 O 380.041 1.6454 -0.652347 0
M  V30 4276 C 377.17 3.06624 -1.5439 0
M  V30 4277 C 376.256 3.23971 -2.73685 0
M  V30 4278 N 376.647 3.11447 -3.9854 0
M  V30 4279 C 374.945 3.5493 -2.70075 0
M  V30 4280 C 375.646 3.31011 -4.78337 0
M  V30 4281 N 374.622 3.56533 -4.10348 0
M  V30 4282 H 378.424 1.56698 -2.48642 0
M  V30 4283 H 375.938 0.779071 -1.42493 0
M  V30 4284 H 377.935 3.85839 -1.57905 0
M  V30 4285 H 376.595 3.1889 -0.611493 0
M  V30 4286 H 377.606 2.89145 -4.29669 0
M  V30 4287 H 374.283 3.73832 -1.85893 0
M  V30 4288 H 375.673 3.26445 -5.87268 0
M  V30 4289 N 378.394 1.34581 0.820102 0
M  V30 4290 C 379.619 1.30333 1.61332 0
M  V30 4291 C 380.044 -0.119339 1.87721 0
M  V30 4292 O 379.402 -1.08197 1.45475 0
M  V30 4293 C 379.45 2.10258 2.92957 0
M  V30 4294 O 378.554 1.47404 3.85157 0
M  V30 4295 H 377.895 0.447488 0.490561 0
M  V30 4296 H 380.425 1.77425 1.01889 0
M  V30 4297 H 380.435 2.21718 3.42498 0
M  V30 4298 H 379.11 3.13693 2.73074 0
M  V30 4299 H 377.687 1.44703 3.43679 0
M  V30 4300 N 379.872 -1.04064 1.18357 0
M  V30 4301 C 381.121 -1.76662 0.973313 0
M  V30 4302 C 381.434 -1.89154 -0.497991 0
M  V30 4303 O 382.64 -2.58606 -0.826762 0
M  V30 4304 C 381.096 -3.17624 1.69242 0
M  V30 4305 C 380.704 -3.13225 3.20303 0
M  V30 4306 C 382.448 -3.946 1.56497 0
M  V30 4307 C 380.355 -4.49046 3.84853 0
M  V30 4308 H 379.285 -0.662214 0.36054 0
M  V30 4309 H 381.936 -1.16553 1.41731 0
M  V30 4310 H 380.318 -3.78129 1.1762 0
M  V30 4311 H 381.492 -2.62172 3.78949 0
M  V30 4312 H 379.807 -2.49749 3.33189 0
M  V30 4313 H 382.404 -4.95042 2.02084 0
M  V30 4314 H 382.747 -4.13074 0.517243 0
M  V30 4315 H 383.28 -3.4067 2.05399 0
M  V30 4316 H 380.019 -4.35777 4.89672 0
M  V30 4317 H 379.539 -5.00203 3.30994 0
M  V30 4318 H 381.218 -5.17961 3.87718 0
M  V30 4319 N 381.35 -0.985608 -1.22978 0
M  V30 4320 C 382.313 -0.535071 -2.22867 0
M  V30 4321 C 383.313 0.378123 -1.56291 0
M  V30 4322 O 384.503 0.171092 -1.73358 0
M  V30 4323 C 381.635 0.222702 -3.40172 0
M  V30 4324 H 382.828 -1.41835 -2.6424 0
M  V30 4325 H 380.381 -0.772042 -1.35901 0
M  V30 4326 H 381.116 1.12229 -3.04262 0
M  V30 4327 H 380.901 -0.43288 -3.89703 0
M  V30 4328 H 382.391 0.526335 -4.1427 0
M  V30 4329 N 382.828 1.3818 -0.7579 0
M  V30 4330 C 384.105 1.94106 -0.241306 0
M  V30 4331 C 384.485 1.69282 1.26122 0
M  V30 4332 O 383.833 1.03378 2.03777 0
M  V30 4333 C 384.043 3.43809 -0.59967 0
M  V30 4334 C 385.391 4.20868 -0.561717 0
M  V30 4335 O 386.415 3.5211 -0.538222 0
M  V30 4336 O 385.274 5.43451 -0.576478 0
M  V30 4337 H 382.368 0.825376 -0.0518042 0
M  V30 4338 H 384.914 1.47548 -0.838315 0
M  V30 4339 H 383.686 3.55403 -1.6372 0
M  V30 4340 H 383.309 3.97592 0.0251197 0
M  V30 4341 N 384.306 0.507319 1.49211 0
M  V30 4342 C 385.555 -0.0368315 2.01666 0
M  V30 4343 C 385.868 -1.37459 1.39156 0
M  V30 4344 O 387.074 -2.00579 1.82976 0
M  V30 4345 C 385.53 -0.116089 3.59713 0
M  V30 4346 C 385.138 1.2154 4.31198 0
M  V30 4347 C 386.882 -0.610268 4.2009 0
M  V30 4348 C 384.789 1.09796 5.81119 0
M  V30 4349 H 383.719 -0.0175376 0.753796 0
M  V30 4350 H 386.37 0.647691 1.71689 0
M  V30 4351 H 384.752 -0.8652 3.86433 0
M  V30 4352 H 385.926 1.9783 4.16173 0
M  V30 4353 H 384.241 1.64352 3.82593 0
M  V30 4354 H 386.838 -0.715742 5.29888 0
M  V30 4355 H 387.181 -1.61064 3.8388 0
M  V30 4356 H 387.714 0.0824916 3.97714 0
M  V30 4357 H 384.453 2.0728 6.21864 0
M  V30 4358 H 383.973 0.376058 5.9862 0
M  V30 4359 H 385.652 0.779281 6.4229 0
M  V30 4360 N 385.784 -1.5574 0.241426 0
M  V30 4361 C 387.2 -1.59196 -0.113548 0
M  V30 4362 C 387.4 -1.25852 -1.57364 0
M  V30 4363 O 386.456 -1.00322 -2.31715 0
M  V30 4364 C 387.769 -2.99814 0.230695 0
M  V30 4365 C 389.317 -3.12513 0.174547 0
M  V30 4366 C 389.792 -4.55342 0.492744 0
M  V30 4367 N 391.283 -4.61076 0.443043 0
M  V30 4368 C 392.018 -5.6956 0.662484 0
M  V30 4369 N 391.514 -6.86328 0.944761 0
M  V30 4370 N 393.307 -5.58957 0.593564 0
M  V30 4371 H 385.458 -1.75685 1.19368 0
M  V30 4372 H 387.721 -0.81756 0.479896 0
M  V30 4373 H 387.427 -3.28932 1.24485 0
M  V30 4374 H 387.301 -3.74568 -0.444833 0
M  V30 4375 H 389.688 -2.83179 -0.830277 0
M  V30 4376 H 389.769 -2.40045 0.883845 0
M  V30 4377 H 389.413 -4.85396 1.4951 0
M  V30 4378 H 389.343 -5.26062 -0.23797 0
M  V30 4379 H 391.834 -3.77179 0.233374 0
M  V30 4380 H 392.147 -7.64935 1.09977 0
M  V30 4381 H 390.492 -6.88025 0.982175 0
M  V30 4382 H 393.683 -4.66611 0.373123 0
M  V30 4383 H 393.856 -6.43433 0.767981 0
M  V30 4384 N 387.262 0.0317525 -1.57568 0
M  V30 4385 C 388.21 1.05165 -2.07468 0
M  V30 4386 C 389.204 1.3761 -0.98792 0
M  V30 4387 O 390.41 1.36546 -1.17282 0
M  V30 4388 H 386.785 0.35666 -0.66204 0
M  V30 4389 H 388.756 0.604958 -2.92203 0
M  V30 4390 C 387.505 2.34488 -2.56731 0
M  V30 4391 H 386.828 2.10383 -3.39969 0
M  V30 4392 H 388.268 3.04203 -2.95358 0
M  V30 4393 C 386.727 3.03266 -1.46736 0
M  V30 4394 O 387.257 3.92988 -0.832069 0
M  V30 4395 N 385.463 2.6455 -1.20256 0
M  V30 4396 H 385.01 1.91674 -1.72102 0
M  V30 4397 H 384.968 3.10886 -0.468737 0
M  V30 4398 N 388.74 1.54641 0.303973 0
M  V30 4399 C 389.987 1.7378 1.03955 0
M  V30 4400 C 390.315 0.521986 1.87365 0
M  V30 4401 O 389.57 -0.496099 1.89308 0
M  V30 4402 C 389.869 2.97753 1.97681 0
M  V30 4403 C 389.535 4.31671 1.30271 0
M  V30 4404 C 388.197 4.68075 1.11619 0
M  V30 4405 C 390.549 5.147 0.82055 0
M  V30 4406 C 387.877 5.8509 0.434304 0
M  V30 4407 C 390.229 6.32416 0.152395 0
M  V30 4408 C 388.893 6.67484 -0.0461067 0
M  V30 4409 H 388.163 0.635908 0.380398 0
M  V30 4410 H 390.81 1.88896 0.314718 0
M  V30 4411 H 389.115 2.77406 2.76682 0
M  V30 4412 H 390.812 3.09756 2.54661 0
M  V30 4413 H 387.402 4.03041 1.45795 0
M  V30 4414 H 391.586 4.87077 0.952374 0
M  V30 4415 H 386.842 6.10806 0.269495 0
M  V30 4416 H 391.016 6.96023 -0.229126 0
M  V30 4417 H 388.643 7.58011 -0.576494 0
M  V30 4418 N 390.218 -0.567019 1.47046 0
M  V30 4419 C 391.181 -1.65696 1.58359 0
M  V30 4420 C 392.181 -1.54097 0.459441 0
M  V30 4421 O 393.371 -1.58432 0.724225 0
M  V30 4422 C 390.503 -3.05197 1.51879 0
M  V30 4423 H 391.696 -1.57019 2.5551 0
M  V30 4424 H 389.249 -0.786148 1.3509 0
M  V30 4425 H 389.984 -3.19417 0.560673 0
M  V30 4426 H 389.769 -3.15025 2.33455 0
M  V30 4427 H 391.259 -3.84511 1.62913 0
M  V30 4428 N 391.696 -1.35014 -0.812953 0
M  V30 4429 C 392.924 -1.31031 -1.6012 0
M  V30 4430 C 393.339 0.113558 -1.88458 0
M  V30 4431 O 392.696 1.06363 -1.48301 0
M  V30 4432 C 392.747 -2.10872 -2.93624 0
M  V30 4433 O 392.468 -3.47706 -2.66518 0
M  V30 4434 C 393.969 -2.14401 -3.88004 0
M  V30 4435 H 391.189 -0.45037 -0.497401 0
M  V30 4436 H 393.733 -1.77775 -1.01076 0
M  V30 4437 H 391.888 -1.67744 -3.492 0
M  V30 4438 H 392.302 -3.89097 -3.51715 0
M  V30 4439 H 393.776 -2.74669 -4.78812 0
M  V30 4440 H 394.253 -1.14105 -4.24119 0
M  V30 4441 H 394.859 -2.57662 -3.38364 0
M  V30 4442 N 393.175 1.03435 -1.18907 0
M  V30 4443 C 394.107 2.1165 -0.879595 0
M  V30 4444 C 395.12 1.62316 0.125439 0
M  V30 4445 O 396.309 1.78201 -0.103245 0
M  V30 4446 C 393.409 3.37622 -0.294042 0
M  V30 4447 C 392.582 4.16166 -1.34629 0
M  V30 4448 C 391.641 5.20457 -0.775274 0
M  V30 4449 O 390.667 5.50379 -1.4516 0
M  V30 4450 N 391.869 5.78949 0.424126 0
M  V30 4451 H 394.634 2.38791 -1.81105 0
M  V30 4452 H 392.195 1.19681 -1.09032 0
M  V30 4453 H 394.187 4.04572 0.101679 0
M  V30 4454 H 392.757 3.07873 0.541575 0
M  V30 4455 H 391.977 3.44444 -1.91707 0
M  V30 4456 H 393.265 4.65432 -2.05549 0
M  V30 4457 H 392.663 5.56948 0.991209 0
M  V30 4458 H 391.22 6.47334 0.761691 0
M  V30 4459 N 394.653 0.992116 1.22453 0
M  V30 4460 C 395.878 0.685644 1.95739 0
M  V30 4461 C 396.303 -0.743 1.72804 0
M  V30 4462 O 395.661 -1.50778 1.00676 0
M  V30 4463 C 395.709 0.996293 3.46564 0
M  V30 4464 O 394.813 0.0945512 4.12292 0
M  V30 4465 H 394.154 0.256694 0.612376 0
M  V30 4466 H 396.684 1.32888 1.5557 0
M  V30 4467 H 396.694 0.93781 3.97076 0
M  V30 4468 H 395.369 2.03733 3.62582 0
M  V30 4469 H 393.946 0.208451 3.72317 0
M  V30 4470 N 396.131 -1.37776 0.765217 0
M  V30 4471 C 397.361 -2.03828 0.337277 0
M  V30 4472 C 397.769 -1.57841 -1.04321 0
M  V30 4473 O 397.112 -0.752043 -1.67601 0
M  V30 4474 C 397.174 -3.58292 0.294407 0
M  V30 4475 C 396.838 -4.27384 1.61838 0
M  V30 4476 C 397.835 -4.51956 2.56967 0
M  V30 4477 C 395.52 -4.65345 1.89102 0
M  V30 4478 C 397.514 -5.13536 3.77571 0
M  V30 4479 C 395.201 -5.26647 3.09978 0
M  V30 4480 C 396.199 -5.50679 4.04032 0
M  V30 4481 O 395.887 -6.10702 5.2278 0
M  V30 4482 H 395.619 -0.661292 0.140248 0
M  V30 4483 H 398.173 -1.77222 1.03834 0
M  V30 4484 H 396.403 -3.83918 -0.462983 0
M  V30 4485 H 398.092 -4.05763 -0.105581 0
M  V30 4486 H 398.858 -4.23048 2.37183 0
M  V30 4487 H 394.737 -4.45978 1.16725 0
M  V30 4488 H 398.281 -5.3221 4.50997 0
M  V30 4489 H 394.178 -5.54979 3.29649 0
M  V30 4490 H 394.946 -6.29183 5.23517 0
M  V30 4491 N 397.609 -0.515225 -1.4894 0
M  V30 4492 C 398.858 0.0261361 -2.01683 0
M  V30 4493 C 399.171 1.36719 -1.39883 0
M  V30 4494 O 400.377 1.99606 -1.84037 0
M  V30 4495 C 398.833 0.0970111 -3.59769 0
M  V30 4496 C 398.441 -1.23825 -4.30548 0
M  V30 4497 C 400.185 0.587981 -4.20408 0
M  V30 4498 C 398.092 -1.12877 -5.80528 0
M  V30 4499 H 397.022 0.0135398 -0.753878 0
M  V30 4500 H 399.673 -0.656787 -1.71343 0
M  V30 4501 H 398.055 0.844694 -3.86886 0
M  V30 4502 H 399.229 -2.00034 -4.15118 0
M  V30 4503 H 397.544 -1.66379 -3.81716 0
M  V30 4504 H 400.141 0.68763 -5.3026 0
M  V30 4505 H 400.484 1.59026 -3.84729 0
M  V30 4506 H 401.017 -0.103582 -3.97665 0
M  V30 4507 H 397.756 -2.10575 -6.20756 0
M  V30 4508 H 397.276 -0.407799 -5.98412 0
M  V30 4509 H 398.955 -0.813332 -6.41868 0
M  V30 4510 N 399.087 1.5561 -0.249682 0
M  V30 4511 C 400.364 1.90932 0.424761 0
M  V30 4512 C 400.744 1.17078 1.75658 0
M  V30 4513 O 400.092 0.289176 2.26663 0
M  V30 4514 C 400.302 3.43975 0.590109 0
M  V30 4515 C 401.65 4.15281 0.884714 0
M  V30 4516 O 402.674 3.49729 0.67587 0
M  V30 4517 O 401.533 5.31236 1.28259 0
M  V30 4518 H 398.627 0.794815 0.228468 0
M  V30 4519 H 401.173 1.67135 -0.293954 0
M  V30 4520 H 399.945 3.89748 -0.34818 0
M  V30 4521 H 399.568 3.73644 1.35926 0
M  V30 4522 N 400.565 -0.0233959 1.57583 0
M  V30 4523 C 401.814 -0.712133 1.8871 0
M  V30 4524 C 402.127 -1.76217 0.848944 0
M  V30 4525 O 403.333 -2.50389 1.04964 0
M  V30 4526 C 401.789 -1.3177 3.3491 0
M  V30 4527 C 401.397 -0.303715 4.46969 0
M  V30 4528 C 403.141 -1.98598 3.75179 0
M  V30 4529 C 401.048 -0.917945 5.84233 0
M  V30 4530 H 399.978 -0.269735 0.704101 0
M  V30 4531 H 402.629 0.0333114 1.8347 0
M  V30 4532 H 401.011 -2.11304 3.34913 0
M  V30 4533 H 402.185 0.465325 4.58445 0
M  V30 4534 H 400.5 0.2628 4.1557 0
M  V30 4535 H 403.097 -2.45416 4.75053 0
M  V30 4536 H 403.44 -2.80659 3.07468 0
M  V30 4537 H 403.973 -1.25831 3.77374 0
M  V30 4538 H 400.712 -0.136633 6.55358 0
M  V30 4539 H 400.232 -1.65669 5.76467 0
M  V30 4540 H 401.911 -1.4236 6.31144 0
M  V30 4541 N 402.043 -1.548 -0.295768 0
M  V30 4542 C 403.292 -1.73538 -1.02798 0
M  V30 4543 C 403.605 -0.531159 -1.8825 0
M  V30 4544 O 404.811 -0.600458 -2.64777 0
M  V30 4545 C 403.267 -3.07051 -1.87744 0
M  V30 4546 C 402.875 -4.34968 -1.07269 0
M  V30 4547 C 404.619 -3.35146 -2.60533 0
M  V30 4548 C 402.526 -5.5953 -1.91521 0
M  V30 4549 H 401.456 -0.646794 -0.387522 0
M  V30 4550 H 404.107 -1.81278 -0.284718 0
M  V30 4551 H 402.489 -2.93289 -2.66078 0
M  V30 4552 H 403.663 -4.5958 -0.335117 0
M  V30 4553 H 401.978 -4.13847 -0.460384 0
M  V30 4554 H 404.575 -4.2541 -3.23929 0
M  V30 4555 H 404.918 -2.54255 -3.29636 0
M  V30 4556 H 405.451 -3.49902 -1.89244 0
M  V30 4557 H 402.19 -6.43103 -1.26878 0
M  V30 4558 H 401.71 -5.39096 -2.62937 0
M  V30 4559 H 403.389 -5.96982 -2.49442 0
M  V30 4560 N 403.521 0.559213 -1.47345 0
M  V30 4561 C 404.431 1.69388 -1.62311 0
M  V30 4562 C 405.447 1.6648 -0.505993 0
M  V30 4563 O 406.623 1.85964 -0.773262 0
M  V30 4564 C 403.688 3.05894 -1.63185 0
M  V30 4565 C 402.749 3.19885 -2.86307 0
M  V30 4566 C 401.982 4.49879 -2.87131 0
M  V30 4567 O 402.205 5.35217 -1.97229 0
M  V30 4568 O 401.139 4.67618 -3.78968 0
M  V30 4569 H 404.965 1.59706 -2.58317 0
M  V30 4570 H 402.55 0.728989 -1.30407 0
M  V30 4571 H 404.432 3.87133 -1.66451 0
M  V30 4572 H 403.107 3.15964 -0.70345 0
M  V30 4573 H 402.014 2.38052 -2.88587 0
M  V30 4574 H 403.347 3.14718 -3.78435 0
M  V30 4575 N 404.999 1.35443 0.805782 0
M  V30 4576 C 406.245 1.2996 1.56467 0
M  V30 4577 C 406.6 -0.124742 1.91995 0
M  V30 4578 O 405.893 -1.07533 1.58579 0
M  V30 4579 C 406.087 2.14045 2.86216 0
M  V30 4580 C 405.916 3.64512 2.63365 0
M  V30 4581 C 404.686 4.33744 2.59219 0
M  V30 4582 C 406.884 4.58142 2.33688 0
M  V30 4583 N 404.866 5.69953 2.28094 0
M  V30 4584 C 406.237 5.8248 2.12408 0
M  V30 4585 C 408.292 4.46877 2.19558 0
M  V30 4586 C 406.995 6.96818 1.78429 0
M  V30 4587 C 409.021 5.61065 1.86976 0
M  V30 4588 C 408.383 6.84431 1.66532 0
M  V30 4589 H 404.482 0.530817 0.574245 0
M  V30 4590 H 407.066 1.70333 0.943126 0
M  V30 4591 H 405.237 1.75942 3.46264 0
M  V30 4592 H 406.969 2.00075 3.51784 0
M  V30 4593 H 403.724 3.86365 2.73896 0
M  V30 4594 H 404.148 6.41845 2.15323 0
M  V30 4595 H 408.79 3.52102 2.34061 0
M  V30 4596 H 406.508 7.91559 1.62664 0
M  V30 4597 H 410.094 5.54302 1.7675 0
M  V30 4598 H 408.974 7.71294 1.41688 0
M  V30 4599 N 406.477 -1.02803 1.19454 0
M  V30 4600 C 407.725 -1.75869 0.995722 0
M  V30 4601 C 408.046 -1.89138 -0.474543 0
M  V30 4602 O 407.316 -1.42558 -1.34366 0
M  V30 4603 H 405.896 -0.651511 0.365435 0
M  V30 4604 H 408.558 -1.24004 1.50363 0
M  V30 4605 H 407.654 -2.76661 1.44447 0
M  V30 4606 N 407.956 -0.998596 -1.21925 0
M  V30 4607 C 408.904 -0.546641 -2.26085 0
M  V30 4608 C 409.898 0.405576 -1.64473 0
M  V30 4609 O 411.104 0.277471 -1.77849 0
M  V30 4610 H 407.479 -0.158403 -0.735127 0
M  V30 4611 H 409.45 -1.43645 -2.61551 0
M  V30 4612 C 408.199 0.117388 -3.47502 0
M  V30 4613 H 407.522 -0.606277 -3.95176 0
M  V30 4614 H 408.962 0.396993 -4.22137 0
M  V30 4615 C 407.421 1.35455 -3.0847 0
M  V30 4616 O 407.951 2.44944 -3.18379 0
M  V30 4617 N 406.157 1.23191 -2.63196 0
M  V30 4618 H 405.704 0.341006 -2.55333 0
M  V30 4619 H 405.662 2.06071 -2.37449 0
M  V30 4620 N 409.434 1.37368 -0.772513 0
M  V30 4621 C 410.381 2.30262 -0.157488 0
M  V30 4622 C 411.351 1.51137 0.688965 0
M  V30 4623 O 412.536 1.79704 0.641168 0
M  V30 4624 C 409.676 3.37611 0.715045 0
M  V30 4625 C 408.789 4.31746 -0.148098 0
M  V30 4626 C 407.924 5.26171 0.729213 0
M  V30 4627 C 406.963 6.11948 -0.136418 0
M  V30 4628 N 406.1 6.98613 0.698914 0
M  V30 4629 H 410.94 2.82277 -0.955179 0
M  V30 4630 H 408.477 1.38957 -0.482631 0
M  V30 4631 H 410.435 3.98479 1.23575 0
M  V30 4632 H 409.065 2.86959 1.47833 0
M  V30 4633 H 408.117 3.72178 -0.786613 0
M  V30 4634 H 409.429 4.92084 -0.81579 0
M  V30 4635 H 408.583 5.92247 1.31637 0
M  V30 4636 H 407.322 4.66246 1.43059 0
M  V30 4637 H 406.327 5.4485 -0.736102 0
M  V30 4638 H 407.552 6.73945 -0.835134 0
M  V30 4639 H 405.498 6.41215 1.38489 0
M  V30 4640 H 405.415 7.55948 0.0885358 0
M  V30 4641 H 406.683 7.69077 1.27044 0
M  V30 4642 N 410.912 0.523116 1.48665 0
M  V30 4643 C 411.859 -0.243398 2.29513 0
M  V30 4644 C 412.829 -0.940139 1.36933 0
M  V30 4645 O 414.014 -0.942503 1.65896 0
M  V30 4646 C 411.154 -1.28855 3.20141 0
M  V30 4647 C 410.267 -0.60135 4.27794 0
M  V30 4648 C 409.402 -1.62884 5.05611 0
M  V30 4649 C 408.441 -0.924726 6.05075 0
M  V30 4650 N 407.578 -1.89744 6.75975 0
M  V30 4651 H 412.418 0.452234 2.94549 0
M  V30 4652 H 409.955 0.234858 1.45213 0
M  V30 4653 H 411.913 -1.90674 3.71079 0
M  V30 4654 H 410.543 -1.95266 2.57043 0
M  V30 4655 H 409.595 0.130623 3.80176 0
M  V30 4656 H 410.907 -0.0481585 4.98777 0
M  V30 4657 H 410.061 -2.32149 5.60528 0
M  V30 4658 H 408.8 -2.21592 4.34452 0
M  V30 4659 H 407.805 -0.217966 5.49368 0
M  V30 4660 H 409.03 -0.343851 6.78229 0
M  V30 4661 H 406.976 -2.47373 6.07571 0
M  V30 4662 H 406.893 -1.3955 7.43009 0
M  V30 4663 H 408.161 -2.58229 7.35485 0
M  V30 4664 N 412.39 -1.55475 0.257931 0
M  V30 4665 C 413.32 -2.24815 -0.630912 0
M  V30 4666 C 414.301 -1.23224 -1.17259 0
M  V30 4667 O 415.486 -1.51904 -1.20991 0
M  V30 4668 C 412.616 -2.95609 -1.82298 0
M  V30 4669 C 411.57 -4.03982 -1.41359 0
M  V30 4670 C 410.896 -4.6226 -2.68738 0
M  V30 4671 C 412.196 -5.19109 -0.57648 0
M  V30 4672 H 413.89 -2.99354 -0.0526878 0
M  V30 4673 H 411.436 -1.4398 -0.023901 0
M  V30 4674 H 413.389 -3.42822 -2.45054 0
M  V30 4675 H 412.113 -2.18577 -2.42676 0
M  V30 4676 H 410.772 -3.57555 -0.809324 0
M  V30 4677 H 410.42 -3.81915 -3.27338 0
M  V30 4678 H 410.12 -5.35424 -2.42065 0
M  V30 4679 H 411.644 -5.12212 -3.32372 0
M  V30 4680 H 413.058 -5.62479 -1.10861 0
M  V30 4681 H 411.455 -5.98729 -0.405351 0
M  V30 4682 H 412.525 -4.83174 0.408776 0
M  V30 4683 N 413.868 0.0150385 -1.57593 0
M  V30 4684 C 414.831 0.995996 -2.06428 0
M  V30 4685 C 415.831 1.2818 -0.970903 0
M  V30 4686 O 417.021 1.22949 -1.23406 0
M  V30 4687 C 414.153 2.32506 -2.49307 0
M  V30 4688 H 415.346 0.573873 -2.94358 0
M  V30 4689 H 412.899 0.262186 -1.54085 0
M  V30 4690 H 413.634 2.79438 -1.64575 0
M  V30 4691 H 413.419 2.13087 -3.29145 0
M  V30 4692 H 414.909 3.02906 -2.87468 0
M  V30 4693 N 415.346 1.54954 0.287554 0
M  V30 4694 C 416.309 1.86076 1.33823 0
M  V30 4695 C 417.309 0.734414 1.43049 0
M  V30 4696 O 418.499 1.00266 1.42452 0
M  V30 4697 C 415.631 2.05305 2.72144 0
M  V30 4698 H 416.824 2.79984 1.07465 0
M  V30 4699 H 414.377 1.47223 0.524902 0
M  V30 4700 H 415.112 1.1373 3.03704 0
M  V30 4701 H 414.897 2.873 2.66836 0
M  V30 4702 H 416.387 2.30706 3.48087 0
M  V30 4703 N 416.824 -0.551391 1.4764 0
M  V30 4704 C 418.049 -1.33837 1.58437 0
M  V30 4705 C 418.474 -1.866 0.237063 0
M  V30 4706 O 417.832 -1.6328 -0.787994 0
M  V30 4707 C 417.88 -2.48014 2.61766 0
M  V30 4708 O 416.984 -3.50419 2.1744 0
M  V30 4709 H 416.325 -0.397299 0.532024 0
M  V30 4710 H 418.855 -0.665759 1.93465 0
M  V30 4711 H 418.865 -2.94503 2.82369 0
M  V30 4712 H 417.54 -2.08969 3.5959 0
M  V30 4713 H 416.117 -3.10196 2.06961 0
M  V30 4714 N 418.302 -1.35869 -0.798587 0
M  V30 4715 C 419.713 -1.26498 -1.37314 0
M  V30 4716 C 420.064 0.0991899 -1.95949 0
M  V30 4717 O 419.189 1.0004 -1.91888 0
M  V30 4718 C 419.784 -2.29054 -2.49639 0
M  V30 4719 C 418.343 -2.234 -3.02935 0
M  V30 4720 C 417.49 -2.14329 -1.75949 0
M  V30 4721 H 420.441 -1.46881 -0.600971 0
M  V30 4722 H 420.462 -1.92166 -3.28409 0
M  V30 4723 H 419.974 -3.2833 -2.06933 0
M  V30 4724 H 418.075 -1.27562 -3.50084 0
M  V30 4725 H 418.188 -3.15703 -3.60372 0
M  V30 4726 H 416.552 -1.60435 -1.9782 0
M  V30 4727 H 417.335 -3.15477 -1.35384 0
M  V30 4728 N 419.78 1.02168 -1.19998 0
M  V30 4729 C 420.69 2.14069 -0.959774 0
M  V30 4730 C 421.706 1.73804 0.082655 0
M  V30 4731 O 422.882 2.01133 -0.103633 0
M  V30 4732 C 419.947 3.42936 -0.509459 0
M  V30 4733 C 419.008 3.97474 -1.62213 0
M  V30 4734 C 418.241 5.2019 -1.19321 0
M  V30 4735 O 418.464 5.70369 -0.0597726 0
M  V30 4736 O 417.398 5.67749 -1.99863 0
M  V30 4737 H 421.224 2.37199 -1.89658 0
M  V30 4738 H 418.809 1.12469 -0.983411 0
M  V30 4739 H 420.691 4.20551 -0.267322 0
M  V30 4740 H 419.366 3.21234 0.398821 0
M  V30 4741 H 418.273 3.21161 -1.9185 0
M  V30 4742 H 419.606 4.23555 -2.50723 0
M  V30 4743 N 421.258 1.00505 1.21394 0
M  V30 4744 C 422.206 0.558623 2.25792 0
M  V30 4745 C 423.2 -0.396848 1.64686 0
M  V30 4746 O 424.406 -0.268035 1.77993 0
M  V30 4747 H 420.781 0.1623 0.734277 0
M  V30 4748 H 422.752 1.4503 2.60785 0
M  V30 4749 C 421.501 -0.0989574 3.47559 0
M  V30 4750 H 420.824 0.627225 3.94849 0
M  V30 4751 H 422.264 -0.3746 4.22342 0
M  V30 4752 C 420.723 -1.33817 3.09184 0
M  V30 4753 O 421.253 -2.43252 3.19674 0
M  V30 4754 N 419.459 -1.21793 2.63846 0
M  V30 4755 H 419.006 -0.32746 2.5551 0
M  V30 4756 H 418.964 -2.04809 2.38539 0
M  V30 4757 N 422.737 -1.36956 0.779787 0
M  V30 4758 C 423.983 -1.99787 0.348281 0
M  V30 4759 C 424.316 -1.61756 -1.07465 0
M  V30 4760 O 423.591 -0.867639 -1.74075 0
M  V30 4761 C 423.874 -3.56597 0.50104 0
M  V30 4762 C 423.727 -4.04513 1.96697 0
M  V30 4763 C 425.046 -4.40008 -0.0898097 0
M  V30 4764 H 422.165 -0.725796 0.128022 0
M  V30 4765 H 424.807 -1.62514 0.984331 0
M  V30 4766 H 422.957 -3.88479 -0.0404347 0
M  V30 4767 H 424.629 -3.83161 2.56876 0
M  V30 4768 H 422.872 -3.56408 2.47297 0
M  V30 4769 H 423.543 -5.1352 2.02486 0
M  V30 4770 H 426.019 -4.14431 0.372293 0
M  V30 4771 H 424.895 -5.4888 0.0471605 0
M  V30 4772 H 425.156 -4.26035 -1.18096 0
M  V30 4773 N 424.215 -0.530993 -1.48385 0
M  V30 4774 C 425.44 0.000729535 -2.074 0
M  V30 4775 C 425.865 1.27298 -1.3848 0
M  V30 4776 O 425.223 1.75599 -0.451081 0
M  V30 4777 C 425.271 0.206697 -3.60007 0
M  V30 4778 O 424.375 1.27514 -3.92191 0
M  V30 4779 H 423.716 -0.039583 -0.662819 0
M  V30 4780 H 426.246 -0.739194 -1.9078 0
M  V30 4781 H 426.256 0.42904 -4.05738 0
M  V30 4782 H 424.931 -0.722675 -4.09573 0
M  V30 4783 H 423.508 1.03537 -3.58238 0
M  V30 4784 N 425.693 1.55336 -0.266172 0
M  V30 4785 C 426.626 2.18256 0.666296 0
M  V30 4786 C 427.604 1.14064 1.1588 0
M  V30 4787 O 428.788 1.42546 1.23341 0
M  V30 4788 C 425.915 2.79867 1.90768 0
M  V30 4789 C 424.961 3.97283 1.55141 0
M  V30 4790 S 425.794 5.31694 0.637313 0
M  V30 4791 C 426.95 5.96769 1.88727 0
M  V30 4792 H 427.183 2.97008 0.131647 0
M  V30 4793 H 424.716 1.54317 -0.0504869 0
M  V30 4794 H 426.674 3.15996 2.62025 0
M  V30 4795 H 425.335 2.01025 2.41346 0
M  V30 4796 H 424.528 4.3905 2.4749 0
M  V30 4797 H 424.13 3.6253 0.919113 0
M  V30 4798 H 426.422 6.15458 2.83227 0
M  V30 4799 H 427.365 6.91752 1.51276 0
M  V30 4800 H 427.773 5.26034 2.04814 0
M  V30 4801 N 427.171 -0.0066808 1.57599 0
M  V30 4802 C 428.401 -0.703066 1.94269 0
M  V30 4803 C 428.809 -1.68206 0.866222 0
M  V30 4804 O 428.152 -1.82966 -0.164087 0
M  V30 4805 C 428.214 -1.49616 3.26887 0
M  V30 4806 C 427.878 -0.679494 4.5192 0
M  V30 4807 C 428.875 0.0299508 5.19891 0
M  V30 4808 C 426.56 -0.627433 4.98366 0
M  V30 4809 C 428.554 0.780514 6.32603 0
M  V30 4810 C 426.241 0.126861 6.10968 0
M  V30 4811 C 427.239 0.829574 6.77943 0
M  V30 4812 O 426.927 1.57157 7.88389 0
M  V30 4813 H 426.659 -0.201217 0.645359 0
M  V30 4814 H 429.213 0.0385326 2.05364 0
M  V30 4815 H 427.443 -2.28209 3.12182 0
M  V30 4816 H 429.132 -2.07726 3.48719 0
M  V30 4817 H 429.898 -0.00115963 4.85 0
M  V30 4818 H 425.777 -1.16392 4.46065 0
M  V30 4819 H 429.321 1.32954 6.84813 0
M  V30 4820 H 425.218 0.159815 6.45302 0
M  V30 4821 H 425.986 1.48758 8.04868 0
M  V30 4822 N 428.649 -1.55105 -0.279332 0
M  V30 4823 C 429.596 -1.8755 -1.34513 0
M  V30 4824 C 430.566 -0.726384 -1.49375 0
M  V30 4825 O 431.751 -0.977063 -1.63884 0
M  V30 4826 C 428.891 -2.14738 -2.70151 0
M  V30 4827 C 428.004 -3.42285 -2.63562 0
M  V30 4828 C 427.139 -3.59206 -3.91337 0
M  V30 4829 C 426.178 -4.80467 -3.79233 0
M  V30 4830 N 425.315 -4.94079 -4.98829 0
M  V30 4831 H 430.155 -2.78456 -1.06143 0
M  V30 4832 H 427.692 -1.37867 -0.512936 0
M  V30 4833 H 429.65 -2.28501 -3.49061 0
M  V30 4834 H 428.28 -1.27075 -2.96735 0
M  V30 4835 H 427.332 -3.37029 -1.76397 0
M  V30 4836 H 428.644 -4.31328 -2.50515 0
M  V30 4837 H 427.798 -3.72751 -4.78687 0
M  V30 4838 H 426.537 -2.68337 -4.07243 0
M  V30 4839 H 425.542 -4.66932 -2.90266 0
M  V30 4840 H 426.767 -5.72765 -3.64852 0
M  V30 4841 H 424.713 -4.06139 -5.15158 0
M  V30 4842 H 424.63 -5.77156 -4.8829 0
M  V30 4843 H 425.898 -5.12003 -5.8777 0
M  V30 4844 N 430.127 0.543554 -1.4793 0
M  V30 4845 C 431.352 1.32995 -1.59145 0
M  V30 4846 C 431.777 1.86472 -0.246956 0
M  V30 4847 O 431.135 1.63696 0.779324 0
M  V30 4848 C 431.183 2.46623 -2.63077 0
M  V30 4849 O 430.287 3.49261 -2.19295 0
M  V30 4850 H 429.628 0.394472 -0.534124 0
M  V30 4851 H 432.158 0.655489 -1.93816 0
M  V30 4852 H 432.168 2.93001 -2.83926 0
M  V30 4853 H 430.843 2.07059 -3.60693 0
M  V30 4854 H 429.42 3.09094 -2.08603 0
M  V30 4855 N 431.605 1.3629 0.791371 0
M  V30 4856 C 432.854 1.29742 1.54434 0
M  V30 4857 C 433.167 -0.121729 1.95221 0
M  V30 4858 O 434.373 -0.309579 2.69729 0
M  V30 4859 C 432.829 2.27623 2.78776 0
M  V30 4860 C 432.437 3.74963 2.45166 0
M  V30 4861 C 434.181 2.30047 3.56761 0
M  V30 4862 C 432.088 4.64626 3.65891 0
M  V30 4863 H 431.018 0.482113 0.579727 0
M  V30 4864 H 433.669 1.61642 0.868565 0
M  V30 4865 H 432.051 1.88714 3.48142 0
M  V30 4866 H 433.225 4.22596 1.83709 0
M  V30 4867 H 431.54 3.75295 1.80396 0
M  V30 4868 H 434.137 2.94247 4.46456 0
M  V30 4869 H 434.48 1.30846 3.95203 0
M  V30 4870 H 435.013 2.67563 2.94372 0
M  V30 4871 H 431.752 5.64883 3.32547 0
M  V30 4872 H 431.272 4.2171 4.26521 0
M  V30 4873 H 432.951 4.80801 4.32943 0
M  V30 4874 N 433.083 -1.0153 1.20538 0
M  V30 4875 C 434.36 -1.72327 0.925343 0
M  V30 4876 C 434.74 -2.03383 -0.565547 0
M  V30 4877 O 434.088 -1.69934 -1.52757 0
M  V30 4878 C 434.298 -2.9902 1.79967 0
M  V30 4879 C 435.646 -3.72258 2.04228 0
M  V30 4880 O 436.67 -3.08979 1.77231 0
M  V30 4881 O 435.529 -4.86053 2.4983 0
M  V30 4882 H 432.623 -0.751099 0.346092 0
M  V30 4883 H 435.169 -1.07366 1.31417 0
M  V30 4884 H 433.941 -2.72402 2.80915 0
M  V30 4885 H 433.564 -3.71721 1.41099 0
M  V30 4886 N 434.561 -1.01147 -1.20859 0
M  V30 4887 C 435.786 -0.716698 -1.94623 0
M  V30 4888 C 436.211 0.715415 -1.73964 0
M  V30 4889 O 435.569 1.49157 -1.03062 0
M  V30 4890 C 435.617 -1.0513 -3.44935 0
M  V30 4891 O 434.721 -0.160131 -4.12089 0
M  V30 4892 H 434.062 -0.266404 -0.608214 0
M  V30 4893 H 436.592 -1.35346 -1.53436 0
M  V30 4894 H 436.602 -1.00086 -3.95533 0
M  V30 4895 H 435.277 -2.09475 -3.59295 0
M  V30 4896 H 433.854 -0.267657 -3.71938 0
M  V30 4897 N 436.039 1.36541 -0.78704 0
M  V30 4898 C 436.986 2.30082 -0.181901 0
M  V30 4899 C 437.956 1.5186 0.672896 0
M  V30 4900 O 439.141 1.80374 0.622072 0
M  V30 4901 C 436.281 3.3835 0.679197 0
M  V30 4902 C 435.394 4.31565 -0.193882 0
M  V30 4903 C 434.529 5.26915 0.673364 0
M  V30 4904 C 433.568 6.11769 -0.201315 0
M  V30 4905 N 432.705 6.99315 0.624777 0
M  V30 4906 H 437.545 2.81248 -0.985064 0
M  V30 4907 H 435.082 1.38437 -0.497342 0
M  V30 4908 H 437.04 3.99767 1.19341 0
M  V30 4909 H 435.67 2.8851 1.44781 0
M  V30 4910 H 434.722 3.71323 -0.826044 0
M  V30 4911 H 436.034 4.91191 -0.867937 0
M  V30 4912 H 435.188 5.9361 1.25348 0
M  V30 4913 H 433.927 4.67737 1.38105 0
M  V30 4914 H 432.932 5.44039 -0.793849 0
M  V30 4915 H 434.157 6.73022 -0.906568 0
M  V30 4916 H 432.103 6.42648 1.3168 0
M  V30 4917 H 432.02 7.56 0.00835237 0
M  V30 4918 H 433.288 7.70382 1.18879 0
M  V30 4919 N 437.518 0.538854 1.48102 0
M  V30 4920 C 438.481 -0.208395 2.28251 0
M  V30 4921 C 439.481 -0.859656 1.35892 0
M  V30 4922 O 440.671 -0.71834 1.58699 0
M  V30 4923 C 437.803 -1.30252 3.15035 0
M  V30 4924 H 438.996 0.495407 2.9578 0
M  V30 4925 H 436.549 0.295112 1.53489 0
M  V30 4926 H 437.284 -2.0393 2.52157 0
M  V30 4927 H 437.069 -0.840551 3.82985 0
M  V30 4928 H 438.559 -1.82787 3.75471 0
M  V30 4929 N 438.996 -1.55193 0.274407 0
M  V30 4930 C 440.224 -2.03987 -0.345943 0
M  V30 4931 C 440.639 -1.15279 -1.4952 0
M  V30 4932 O 439.996 -0.172759 -1.8168 0
M  V30 4933 C 440.047 -3.51898 -0.827631 0
M  V30 4934 O 439.768 -4.37231 0.275855 0
M  V30 4935 C 441.269 -4.16577 -1.51587 0
M  V30 4936 H 438.489 -0.666335 -0.0789892 0
M  V30 4937 H 441.033 -2.00423 0.406294 0
M  V30 4938 H 439.188 -3.55909 -1.52996 0
M  V30 4939 H 439.602 -5.24415 -0.0943638 0
M  V30 4940 H 441.076 -5.21678 -1.80433 0
M  V30 4941 H 441.553 -3.64707 -2.44716 0
M  V30 4942 H 442.159 -4.16568 -0.857409 0
M  V30 4943 N 440.474 -0.00167713 -1.576 0
M  V30 4944 C 441.721 0.68282 -1.90641 0
M  V30 4945 C 442.049 1.73686 -0.875415 0
M  V30 4946 O 441.304 1.95334 0.119575 0
M  V30 4947 C 441.603 1.36189 -3.30435 0
M  V30 4948 C 441.269 0.440887 -4.48739 0
M  V30 4949 C 439.931 0.187312 -4.80835 0
M  V30 4950 C 442.283 -0.193134 -5.20842 0
M  V30 4951 C 439.611 -0.70855 -5.82406 0
M  V30 4952 C 441.963 -1.07688 -6.23367 0
M  V30 4953 C 440.627 -1.33962 -6.53919 0
M  V30 4954 H 439.897 0.249862 -0.697603 0
M  V30 4955 H 442.544 -0.0575642 -1.91413 0
M  V30 4956 H 440.849 2.17636 -3.25794 0
M  V30 4957 H 442.546 1.89759 -3.5326 0
M  V30 4958 H 439.136 0.648694 -4.23663 0
M  V30 4959 H 443.32 -0.0102445 -4.96299 0
M  V30 4960 H 438.576 -0.920097 -6.04437 0
M  V30 4961 H 442.75 -1.57451 -6.78367 0
M  V30 4962 H 440.377 -2.03549 -7.32442 0
M  V30 4963 N 441.952 1.55251 0.271103 0
M  V30 4964 C 442.862 1.9136 1.35714 0
M  V30 4965 C 443.878 0.811075 1.5394 0
M  V30 4966 O 445.054 1.11031 1.6803 0
M  V30 4967 C 442.119 2.1798 2.69603 0
M  V30 4968 C 441.18 3.4153 2.60107 0
M  V30 4969 C 440.413 3.66871 3.8761 0
M  V30 4970 O 440.636 2.94689 4.8838 0
M  V30 4971 O 439.57 4.60405 3.87699 0
M  V30 4972 H 443.396 2.83815 1.08088 0
M  V30 4973 H 440.981 1.41821 0.469792 0
M  V30 4974 H 442.863 2.36518 3.48765 0
M  V30 4975 H 441.538 1.28708 2.97012 0
M  V30 4976 H 440.445 3.28325 1.79314 0
M  V30 4977 H 441.778 4.31027 2.37647 0
M  V30 4978 N 443.43 -0.535701 1.48216 0
M  V30 4979 C 444.678 -1.28928 1.55634 0
M  V30 4980 C 444.999 -1.93645 0.229514 0
M  V30 4981 O 444.269 -1.81038 -0.74846 0
M  V30 4982 H 442.849 -0.47884 0.573342 0
M  V30 4983 H 445.511 -0.623853 1.84646 0
M  V30 4984 H 444.607 -2.07157 2.33436 0
M  V30 4985 N 444.908 -1.36708 -0.784132 0
M  V30 4986 C 445.856 -1.31533 -1.91838 0
M  V30 4987 C 446.85 -0.206205 -1.6814 0
M  V30 4988 O 448.056 -0.373519 -1.76082 0
M  V30 4989 H 444.431 -0.409613 -0.630651 0
M  V30 4990 H 446.402 -2.2731 -1.9332 0
M  V30 4991 C 445.151 -1.12679 -3.28936 0
M  V30 4992 H 444.474 -1.97274 -3.4774 0
M  V30 4993 H 445.914 -1.13106 -4.08636 0
M  V30 4994 C 444.373 0.168281 -3.36479 0
M  V30 4995 O 444.903 1.15625 -3.84699 0
M  V30 4996 N 443.109 0.214762 -2.89805 0
M  V30 4997 H 442.656 -0.589852 -2.50756 0
M  V30 4998 H 442.614 1.08094 -2.95234 0
M  V30 4999 N 446.386 1.0089 -1.21074 0
M  V30 5000 C 447.632 1.74866 -1.02712 0
M  V30 5001 C 447.965 1.89178 0.438787 0
M  V30 5002 O 447.24 1.42325 1.32567 0
M  V30 5003 C 447.523 3.16347 -1.72036 0
M  V30 5004 C 447.376 3.09782 -3.26121 0
M  V30 5005 C 448.695 4.15187 -1.45973 0
M  V30 5006 H 445.814 0.634736 -0.374539 0
M  V30 5007 H 448.456 1.17646 -1.49196 0
M  V30 5008 H 446.606 3.65201 -1.32517 0
M  V30 5009 H 448.278 2.68673 -3.74983 0
M  V30 5010 H 446.521 2.46982 -3.56626 0
M  V30 5011 H 447.192 4.09829 -3.6979 0
M  V30 5012 H 449.668 3.75022 -1.80272 0
M  V30 5013 H 448.544 5.12331 -1.96999 0
M  V30 5014 H 448.805 4.40386 -0.388924 0
M  V30 5015 N 447.864 1.01787 1.20321 0
M  V30 5016 C 449.141 0.622978 1.85414 0
M  V30 5017 C 449.521 -0.898887 1.91006 0
M  V30 5018 O 448.869 -1.79112 1.41884 0
M  V30 5019 C 449.079 1.27226 3.24984 0
M  V30 5020 C 450.427 1.3885 4.01255 0
M  V30 5021 O 451.451 1.22857 3.34342 0
M  V30 5022 O 450.31 1.64705 5.2109 0
M  V30 5023 H 447.404 0.215116 0.798533 0
M  V30 5024 H 449.95 1.11533 1.27901 0
M  V30 5025 H 448.722 2.31209 3.15687 0
M  V30 5026 H 448.345 0.767069 3.90131 0
M  V30 5027 N 449.342 -1.36122 0.79427 0
M  V30 5028 C 450.619 -1.93398 0.292685 0
M  V30 5029 C 450.999 -1.72567 -1.21589 0
M  V30 5030 O 450.347 -1.08745 -2.00965 0
M  V30 5031 C 450.557 -3.42099 0.690614 0
M  V30 5032 C 451.905 -4.19231 0.673105 0
M  V30 5033 O 452.929 -3.50559 0.631389 0
M  V30 5034 O 451.788 -5.41732 0.720362 0
M  V30 5035 H 448.882 -0.823712 0.0736693 0
M  V30 5036 H 451.428 -1.45273 0.87714 0
M  V30 5037 H 450.2 -3.50938 1.73085 0
M  V30 5038 H 449.823 -3.97519 0.0803036 0
M  V30 5039 N 450.82 -0.546701 -1.47814 0
M  V30 5040 C 452.097 0.0464413 -1.95545 0
M  V30 5041 C 452.477 1.4962 -1.48919 0
M  V30 5042 O 451.825 2.16752 -0.723232 0
M  V30 5043 C 452.035 -0.0881298 -3.48889 0
M  V30 5044 C 453.383 0.0626059 -4.24554 0
M  V30 5045 O 454.407 -0.0151555 -3.56197 0
M  V30 5046 O 453.266 0.228071 -5.46024 0
M  V30 5047 H 450.36 0.0700004 -0.824032 0
M  V30 5048 H 452.906 -0.612482 -1.58262 0
M  V30 5049 H 451.678 -1.09737 -3.75597 0
M  V30 5050 H 451.301 0.608886 -3.9291 0
M  V30 5051 N 452.299 1.55045 -0.282633 0
M  V30 5052 C 453.576 1.9179 0.384166 0
M  V30 5053 C 453.956 1.20778 1.73136 0
M  V30 5054 O 453.304 0.33719 2.25998 0
M  V30 5055 C 453.514 3.45149 0.517014 0
M  V30 5056 C 454.862 4.17064 0.796427 0
M  V30 5057 O 455.886 3.51084 0.601535 0
M  V30 5058 O 454.745 5.33837 1.16962 0
M  V30 5059 H 451.839 0.799483 0.211558 0
M  V30 5060 H 454.385 1.66474 -0.32934 0
M  V30 5061 H 453.157 3.88922 -0.430772 0
M  V30 5062 H 452.78 3.76443 1.2797 0
M  V30 5063 N 453.777 0.010035 1.57597 0
M  V30 5064 C 455.005 -0.683413 1.95287 0
M  V30 5065 C 455.42 -1.66747 0.885481 0
M  V30 5066 O 454.777 -1.82003 -0.134629 0
M  V30 5067 C 454.828 -1.40652 3.33015 0
M  V30 5068 O 454.549 -0.461916 4.35658 0
M  V30 5069 C 456.05 -2.19356 3.85225 0
M  V30 5070 H 453.27 -0.189708 0.643624 0
M  V30 5071 H 455.814 0.0641359 2.04399 0
M  V30 5072 H 453.969 -2.10562 3.2518 0
M  V30 5073 H 454.383 -0.973215 5.15392 0
M  V30 5074 H 455.857 -2.65433 4.83993 0
M  V30 5075 H 456.334 -3.02457 3.18459 0
M  V30 5076 H 456.94 -1.54442 3.96267 0
M  V30 5077 N 455.255 -1.55392 -0.262866 0
M  V30 5078 C 456.501 -1.76737 -0.99458 0
M  V30 5079 C 456.834 -0.572453 -1.85571 0
M  V30 5080 O 456.109 0.429732 -1.89693 0
M  V30 5081 C 456.392 -3.07824 -1.8686 0
M  V30 5082 C 456.245 -4.3769 -1.03672 0
M  V30 5083 C 457.564 -3.35021 -2.85393 0
M  V30 5084 H 454.683 -0.643005 -0.360157 0
M  V30 5085 H 457.325 -1.88126 -0.266216 0
M  V30 5086 H 455.475 -2.98245 -2.48962 0
M  V30 5087 H 457.147 -4.59238 -0.43563 0
M  V30 5088 H 455.39 -4.32461 -0.340513 0
M  V30 5089 H 456.061 -5.25759 -1.6817 0
M  V30 5090 H 458.537 -3.44458 -2.33426 0
M  V30 5091 H 457.413 -4.27989 -3.43681 0
M  V30 5092 H 457.674 -2.55153 -3.61039 0
M  V30 5093 N 456.733 0.527833 -1.48498 0
M  V30 5094 C 457.963 1.30633 -1.60058 0
M  V30 5095 C 458.371 1.87394 -0.260786 0
M  V30 5096 O 457.714 1.67227 0.760317 0
M  V30 5097 C 457.776 2.49361 -2.58958 0
M  V30 5098 C 457.44 2.13671 -4.03972 0
M  V30 5099 C 458.437 1.69217 -4.91591 0
M  V30 5100 C 456.122 2.24129 -4.49524 0
M  V30 5101 C 458.116 1.35689 -6.2279 0
M  V30 5102 C 455.803 1.90212 -5.80743 0
M  V30 5103 C 456.801 1.46063 -6.67199 0
M  V30 5104 O 456.489 1.12593 -7.95976 0
M  V30 5105 H 456.221 0.403444 -0.54241 0
M  V30 5106 H 458.775 0.643233 -1.95068 0
M  V30 5107 H 457.005 3.18659 -2.19073 0
M  V30 5108 H 458.694 3.11421 -2.6033 0
M  V30 5109 H 459.46 1.60607 -4.57636 0
M  V30 5110 H 455.339 2.57447 -3.82416 0
M  V30 5111 H 458.883 1.01157 -6.90227 0
M  V30 5112 H 454.78 1.98464 -6.14233 0
M  V30 5113 H 455.548 1.25972 -8.08748 0
M  V30 5114 N 458.211 1.37122 0.776871 0
M  V30 5115 C 459.488 1.22586 1.52421 0
M  V30 5116 C 459.868 -0.182726 2.10308 0
M  V30 5117 O 459.216 -1.18979 1.9508 0
M  V30 5118 C 459.426 2.31782 2.60918 0
M  V30 5119 C 460.774 2.69071 3.2846 0
M  V30 5120 O 461.798 2.3092 2.71209 0
M  V30 5121 O 460.657 3.3478 4.31954 0
M  V30 5122 H 457.751 0.478045 0.674835 0
M  V30 5123 H 460.297 1.48888 0.814275 0
M  V30 5124 H 459.069 3.26131 2.16227 0
M  V30 5125 H 458.692 2.06916 3.39517 0
M  V30 5126 N 459.689 -1.00246 1.21608 0
M  V30 5127 C 460.599 -2.12515 0.993709 0
M  V30 5128 C 461.615 -1.73913 -0.0549939 0
M  V30 5129 O 462.791 -2.00943 0.135619 0
M  V30 5130 C 459.856 -3.42083 0.563953 0
M  V30 5131 C 458.917 -3.94843 1.68516 0
M  V30 5132 C 458.15 -5.18226 1.27582 0
M  V30 5133 O 458.373 -5.70201 0.150506 0
M  V30 5134 O 457.307 -5.64497 2.0887 0
M  V30 5135 H 461.133 -2.34152 1.93407 0
M  V30 5136 H 458.718 -1.10891 1.00118 0
M  V30 5137 H 460.6 -4.20073 0.334194 0
M  V30 5138 H 459.275 -3.21828 -0.347665 0
M  V30 5139 H 458.182 -3.18068 1.96935 0
M  V30 5140 H 459.515 -4.19512 2.5743 0
M  V30 5141 N 461.167 -1.02423 -1.1978 0
M  V30 5142 C 462.115 -0.594474 -2.24875 0
M  V30 5143 C 463.109 0.370598 -1.65296 0
M  V30 5144 O 464.315 0.239684 -1.78397 0
M  V30 5145 H 460.69 -0.173961 -0.731602 0
M  V30 5146 H 462.661 -1.4916 -2.58445 0
M  V30 5147 C 461.41 0.0436512 -3.47673 0
M  V30 5148 H 460.733 -0.689963 -3.93801 0
M  V30 5149 H 462.173 0.307362 -4.22884 0
M  V30 5150 C 460.632 1.28881 -3.11274 0
M  V30 5151 O 461.162 2.38135 -3.23503 0
M  V30 5152 N 459.368 1.1758 -2.6575 0
M  V30 5153 H 458.915 0.286769 -2.55999 0
M  V30 5154 H 458.873 2.00988 -2.41767 0
M  V30 5155 N 462.645 1.35699 -0.801477 0
M  V30 5156 C 463.555 2.33661 -0.209691 0
M  V30 5157 C 464.571 1.6162 0.644591 0
M  V30 5158 O 465.747 1.93529 0.557545 0
M  V30 5159 C 462.812 3.40816 0.636033 0
M  V30 5160 C 461.873 4.28639 -0.238147 0
M  V30 5161 C 461.106 5.30676 0.567307 0
M  V30 5162 O 461.329 5.41174 1.8024 0
M  V30 5163 O 460.263 6.01887 -0.0391336 0
M  V30 5164 H 464.089 2.8606 -1.01996 0
M  V30 5165 H 461.674 1.38379 -0.563164 0
M  V30 5166 H 463.556 4.06301 1.11791 0
M  V30 5167 H 462.231 2.90696 1.42399 0
M  V30 5168 H 461.138 3.66152 -0.767044 0
M  V30 5169 H 462.471 4.82143 -0.989915 0
M  V30 5170 N 464.123 0.554532 1.47522 0
M  V30 5171 C 465.033 -0.197865 2.33764 0
M  V30 5172 C 466.049 -0.914576 1.48025 0
M  V30 5173 O 467.225 -0.884067 1.80959 0
M  V30 5174 C 464.29 -1.21628 3.24665 0
M  V30 5175 C 463.351 -0.507283 4.26292 0
M  V30 5176 C 462.584 -1.47718 5.1285 0
M  V30 5177 O 462.807 -2.7118 5.01814 0
M  V30 5178 O 461.741 -1.00313 5.93482 0
M  V30 5179 H 465.567 0.50949 2.99396 0
M  V30 5180 H 463.152 0.315176 1.46038 0
M  V30 5181 H 465.034 -1.80421 3.80823 0
M  V30 5182 H 463.709 -1.9056 2.61665 0
M  V30 5183 H 462.616 0.121778 3.73902 0
M  V30 5184 H 463.949 0.140544 4.91999 0
M  V30 5185 N 465.601 -1.54893 0.290851 0
M  V30 5186 C 466.549 -2.24579 -0.605576 0
M  V30 5187 C 467.543 -1.24824 -1.14522 0
M  V30 5188 O 468.749 -1.42706 -1.09704 0
M  V30 5189 H 465.124 -0.720946 -0.213872 0
M  V30 5190 H 467.095 -2.984 0.0048173 0
M  V30 5191 C 465.844 -2.99224 -1.77088 0
M  V30 5192 H 465.167 -3.75782 -1.36484 0
M  V30 5193 H 466.607 -3.51281 -2.3744 0
M  V30 5194 C 465.066 -2.05602 -2.66888 0
M  V30 5195 O 465.596 -1.61745 -3.67698 0
M  V30 5196 N 463.802 -1.71771 -2.34399 0
M  V30 5197 H 463.349 -2.07633 -1.52468 0
M  V30 5198 H 463.307 -1.09403 -2.94751 0
M  V30 5199 N 467.08 -0.0183926 -1.57589 0
M  V30 5200 C 468.31 0.67207 -1.95363 0
M  V30 5201 C 468.718 1.66807 -0.892872 0
M  V30 5202 O 468.061 1.83204 0.134958 0
M  V30 5203 C 468.123 1.44397 -3.29226 0
M  V30 5204 C 467.787 0.607511 -4.52944 0
M  V30 5205 C 468.784 -0.112657 -5.19778 0
M  V30 5206 C 466.469 0.548068 -4.99301 0
M  V30 5207 C 468.463 -0.881057 -6.31281 0
M  V30 5208 C 466.15 -0.224044 -6.10689 0
M  V30 5209 C 467.148 -0.937323 -6.76538 0
M  V30 5210 O 466.836 -1.6968 -7.85789 0
M  V30 5211 H 466.568 0.190925 -0.648478 0
M  V30 5212 H 469.122 -0.0711994 -2.05277 0
M  V30 5213 H 467.352 2.23214 -3.15773 0
M  V30 5214 H 469.041 2.02152 -3.51979 0
M  V30 5215 H 469.807 -0.0759998 -4.8494 0
M  V30 5216 H 465.686 1.09281 -4.4786 0
M  V30 5217 H 469.23 -1.43832 -6.82611 0
M  V30 5218 H 465.127 -0.262457 -6.44966 0
M  V30 5219 H 465.895 -1.61544 -8.024 0
M  V30 5220 N 468.558 1.5553 0.254621 0
M  V30 5221 C 469.835 1.6774 1.00611 0
M  V30 5222 C 470.215 0.555993 2.03647 0
M  V30 5223 O 469.563 -0.441583 2.24193 0
M  V30 5224 C 469.773 3.07725 1.6464 0
M  V30 5225 C 471.121 3.66074 2.15116 0
M  V30 5226 O 472.145 3.10476 1.74595 0
M  V30 5227 O 471.004 4.63526 2.89493 0
M  V30 5228 H 468.098 0.681958 0.467828 0
M  V30 5229 H 470.644 1.67863 0.24902 0
M  V30 5230 H 469.416 3.80792 0.900734 0
M  V30 5231 H 469.039 3.1158 2.46989 0
M  V30 5232 N 470.036 -0.519951 1.48776 0
M  V30 5233 C 471.276 -1.2856 1.58908 0
M  V30 5234 C 471.64 -1.90212 0.261418 0
M  V30 5235 O 472.841 -2.67746 0.237791 0
M  V30 5236 C 471.112 -2.33836 2.70288 0
M  V30 5237 S 472.671 -3.19992 3.0025 0
M  V30 5238 H 469.489 -0.43717 0.560717 0
M  V30 5239 H 472.091 -0.591205 1.86346 0
M  V30 5240 H 470.795 -1.87041 3.653 0
M  V30 5241 H 470.326 -3.07969 2.44783 0
M  V30 5242 H 472.341 -4.34122 2.40317 0
M  V30 5243 N 471.514 -1.37532 -0.769588 0
M  V30 5244 C 472.444 -1.36172 -1.89682 0
M  V30 5245 C 473.425 -0.23001 -1.68538 0
M  V30 5246 O 474.61 -0.43069 -1.89364 0
M  V30 5247 C 471.74 -1.1701 -3.26995 0
M  V30 5248 C 470.694 -2.27216 -3.62708 0
M  V30 5249 C 470.02 -1.93174 -4.98586 0
M  V30 5250 C 471.32 -3.6941 -3.69234 0
M  V30 5251 H 473.014 -2.30499 -1.91078 0
M  V30 5252 H 470.56 -1.10953 -0.917902 0
M  V30 5253 H 472.513 -1.14688 -4.05493 0
M  V30 5254 H 471.237 -0.191395 -3.26039 0
M  V30 5255 H 469.896 -2.28697 -2.86519 0
M  V30 5256 H 469.544 -0.938281 -4.94171 0
M  V30 5257 H 469.244 -2.66973 -5.23449 0
M  V30 5258 H 470.768 -1.92443 -5.79481 0
M  V30 5259 H 472.182 -3.70047 -4.37879 0
M  V30 5260 H 470.579 -4.4228 -4.05597 0
M  V30 5261 H 471.649 -4.0288 -2.69844 0
M  V30 5262 N 472.992 0.995999 -1.22138 0
M  V30 5263 C 473.939 2.08551 -0.988687 0
M  V30 5264 C 474.909 1.65864 0.0885021 0
M  V30 5265 O 476.094 1.90704 -0.0604589 0
M  V30 5266 C 473.234 3.40374 -0.569191 0
M  V30 5267 C 472.347 3.96421 -1.71681 0
M  V30 5268 C 471.482 5.1639 -1.2456 0
M  V30 5269 C 470.521 5.64567 -2.36497 0
M  V30 5270 N 469.658 6.75777 -1.90445 0
M  V30 5271 H 474.498 2.2779 -1.92135 0
M  V30 5272 H 472.035 1.1168 -0.957388 0
M  V30 5273 H 473.993 4.16068 -0.307166 0
M  V30 5274 H 472.623 3.21145 0.326462 0
M  V30 5275 H 471.675 3.17628 -2.09324 0
M  V30 5276 H 472.987 4.2816 -2.55891 0
M  V30 5277 H 472.141 5.99362 -0.940774 0
M  V30 5278 H 470.88 4.86266 -0.373662 0
M  V30 5279 H 469.885 4.80185 -2.67772 0
M  V30 5280 H 471.11 5.96716 -3.24202 0
M  V30 5281 H 469.056 6.47443 -1.05609 0
M  V30 5282 H 468.973 7.06818 -2.68223 0
M  V30 5283 H 470.241 7.62262 -1.63022 0
M  V30 5284 N 474.47 1.03057 1.19235 0
M  V30 5285 C 475.417 0.612832 2.22515 0
M  V30 5286 C 476.387 -0.374224 1.61829 0
M  V30 5287 O 477.572 -0.270501 1.88873 0
M  V30 5288 C 474.712 -0.028475 3.45088 0
M  V30 5289 C 473.825 1.00483 4.20151 0
M  V30 5290 C 472.96 0.333102 5.30155 0
M  V30 5291 C 471.999 1.3522 5.96977 0
M  V30 5292 N 471.136 0.70616 6.9854 0
M  V30 5293 H 475.976 1.49812 2.57605 0
M  V30 5294 H 473.513 0.749658 1.26564 0
M  V30 5295 H 475.471 -0.417548 4.15105 0
M  V30 5296 H 474.101 -0.877334 3.10649 0
M  V30 5297 H 473.153 1.51194 3.49062 0
M  V30 5298 H 474.465 1.77929 4.65986 0
M  V30 5299 H 473.619 -0.110725 6.06599 0
M  V30 5300 H 472.358 -0.473547 4.85396 0
M  V30 5301 H 471.363 1.80627 5.19282 0
M  V30 5302 H 472.588 2.16037 6.4382 0
M  V30 5303 H 470.534 -0.0803667 6.55951 0
M  V30 5304 H 470.451 1.41848 7.42573 0
M  V30 5305 H 471.719 0.286391 7.78974 0
M  V30 5306 N 475.948 -1.35272 0.808662 0
M  V30 5307 C 477.188 -2.00534 0.395668 0
M  V30 5308 C 477.552 -1.62755 -1.01857 0
M  V30 5309 O 478.753 -2.20752 -1.53368 0
M  V30 5310 C 477.024 -3.52732 0.575771 0
M  V30 5311 S 478.583 -4.38067 0.253507 0
M  V30 5312 H 475.401 -0.694962 0.150165 0
M  V30 5313 H 478.003 -1.64823 1.05137 0
M  V30 5314 H 476.707 -3.77714 1.60499 0
M  V30 5315 H 476.238 -3.93285 -0.0951739 0
M  V30 5316 H 478.253 -4.87252 -0.938068 0
M  V30 5317 N 477.426 -0.562348 -1.47226 0
M  V30 5318 C 478.674 -0.0401371 -2.0206 0
M  V30 5319 C 478.995 1.3165 -1.43852 0
M  V30 5320 O 478.265 1.85976 -0.615599 0
M  V30 5321 H 476.845 -0.0118479 -0.746906 0
M  V30 5322 H 479.507 -0.73352 -1.8057 0
M  V30 5323 H 478.603 0.0441254 -3.12069 0
M  V30 5324 N 478.904 1.54736 -0.299062 0
M  V30 5325 C 480.151 2.00101 0.310784 0
M  V30 5326 C 480.479 1.18746 1.54045 0
M  V30 5327 O 479.734 0.251198 1.94081 0
M  V30 5328 C 480.033 3.50199 0.713835 0
M  V30 5329 C 479.699 4.48997 -0.413873 0
M  V30 5330 C 478.361 4.7573 -0.723462 0
M  V30 5331 C 480.713 5.07839 -1.17257 0
M  V30 5332 C 478.041 5.5857 -1.79491 0
M  V30 5333 C 480.393 5.91844 -2.23392 0
M  V30 5334 C 479.057 6.16889 -2.54959 0
M  V30 5335 H 478.327 0.732221 0.113724 0
M  V30 5336 H 480.974 1.86888 -0.417756 0
M  V30 5337 H 479.279 3.61012 1.52243 0
M  V30 5338 H 480.976 3.82723 1.19684 0
M  V30 5339 H 477.566 4.28292 -0.162476 0
M  V30 5340 H 481.75 4.87188 -0.946651 0
M  V30 5341 H 477.006 5.76213 -2.04423 0
M  V30 5342 H 481.18 6.36465 -2.8264 0
M  V30 5343 H 478.807 6.80869 -3.38114 0
M  V30 5344 N 480.382 0.0267497 1.57577 0
M  V30 5345 C 481.61 -0.662661 1.96001 0
M  V30 5346 C 482.025 -1.65799 0.903117 0
M  V30 5347 O 481.382 -1.82135 -0.115317 0
M  V30 5348 C 481.433 -1.37112 3.34488 0
M  V30 5349 O 481.154 -0.415683 4.36123 0
M  V30 5350 C 482.655 -2.15257 3.8753 0
M  V30 5351 H 479.875 -0.18287 0.6456 0
M  V30 5352 H 482.419 0.0858116 2.0432 0
M  V30 5353 H 480.574 -2.07101 3.27395 0
M  V30 5354 H 480.988 -0.918496 5.16395 0
M  V30 5355 H 482.462 -2.60285 4.86781 0
M  V30 5356 H 482.939 -2.99063 3.21649 0
M  V30 5357 H 483.545 -1.50231 3.97883 0
M  V30 5358 N 481.861 -1.55662 -0.24637 0
M  V30 5359 C 483.086 -1.81914 -0.996093 0
M  V30 5360 C 483.511 -0.603875 -1.78143 0
M  V30 5361 O 482.869 0.447091 -1.75701 0
M  V30 5362 C 482.917 -3.05908 -1.90925 0
M  V30 5363 O 482.021 -2.82861 -3.00105 0
M  V30 5364 H 481.362 -0.600481 -0.283406 0
M  V30 5365 H 483.892 -2.02848 -0.267199 0
M  V30 5366 H 483.902 -3.35356 -2.3238 0
M  V30 5367 H 482.577 -3.93999 -1.33183 0
M  V30 5368 H 481.154 -2.64583 -2.62775 0
M  V30 5369 N 483.339 0.512053 -1.4905 0
M  V30 5370 C 484.586 1.26686 -1.57978 0
M  V30 5371 C 484.914 1.92733 -0.261553 0
M  V30 5372 O 484.169 1.80772 0.749667 0
M  V30 5373 C 484.468 2.36446 -2.68008 0
M  V30 5374 C 484.134 1.87932 -4.09869 0
M  V30 5375 C 482.796 1.74419 -4.48477 0
M  V30 5376 C 485.148 1.5149 -4.98698 0
M  V30 5377 C 482.476 1.22827 -5.73699 0
M  V30 5378 C 484.828 1.01355 -6.24428 0
M  V30 5379 C 483.492 0.864735 -6.61875 0
M  V30 5380 H 482.762 0.463577 -0.578081 0
M  V30 5381 H 485.409 0.569421 -1.82838 0
M  V30 5382 H 483.714 3.11933 -2.37076 0
M  V30 5383 H 485.411 2.9453 -2.72127 0
M  V30 5384 H 482.001 1.99405 -3.79389 0
M  V30 5385 H 486.185 1.60782 -4.69535 0
M  V30 5386 H 481.441 1.10008 -6.01422 0
M  V30 5387 H 485.615 0.722351 -6.92644 0
M  V30 5388 H 483.242 0.462777 -7.5879 0
M  V30 5389 N 484.817 1.37938 0.762283 0
M  V30 5390 C 485.727 1.36681 1.90671 0
M  V30 5391 C 486.743 0.265078 1.71969 0
M  V30 5392 O 487.919 0.502055 1.95042 0
M  V30 5393 C 484.984 1.18211 3.25925 0
M  V30 5394 C 484.045 2.3811 3.57214 0
M  V30 5395 C 483.278 2.20512 4.86014 0
M  V30 5396 O 483.501 1.19429 5.57757 0
M  V30 5397 O 482.435 3.08911 5.16583 0
M  V30 5398 H 486.261 2.33091 1.94685 0
M  V30 5399 H 483.846 1.18767 0.906356 0
M  V30 5400 H 485.728 1.09937 4.06807 0
M  V30 5401 H 484.403 0.248807 3.22742 0
M  V30 5402 H 483.31 2.51958 2.76529 0
M  V30 5403 H 484.643 3.30041 3.65149 0
M  V30 5404 N 486.295 -0.989507 1.22664 0
M  V30 5405 C 487.205 -2.11449 1.01619 0
M  V30 5406 C 488.221 -1.73962 -0.036545 0
M  V30 5407 O 489.397 -2.00788 0.156924 0
M  V30 5408 C 486.462 -3.41465 0.600204 0
M  V30 5409 C 485.523 -3.93033 1.72695 0
M  V30 5410 C 484.756 -5.16844 1.33071 0
M  V30 5411 O 484.979 -5.7001 0.210975 0
M  V30 5412 O 483.913 -5.6225 2.14845 0
M  V30 5413 H 487.739 -2.32088 1.9588 0
M  V30 5414 H 485.324 -1.09823 1.01289 0
M  V30 5415 H 487.206 -4.19695 0.37873 0
M  V30 5416 H 485.881 -3.22178 -0.313511 0
M  V30 5417 H 484.788 -3.15961 2.00298 0
M  V30 5418 H 486.121 -4.16758 2.61865 0
M  V30 5419 N 487.773 -1.03688 -1.18687 0
M  V30 5420 C 488.703 -0.645407 -2.24403 0
M  V30 5421 C 489.684 0.349511 -1.66471 0
M  V30 5422 O 490.869 0.230453 -1.92828 0
M  V30 5423 C 487.999 -0.00365337 -3.473 0
M  V30 5424 C 486.953 -0.921705 -4.17958 0
M  V30 5425 C 486.279 -0.144629 -5.34504 0
M  V30 5426 C 487.579 -2.23909 -4.71871 0
M  V30 5427 H 489.273 -1.52917 -2.57404 0
M  V30 5428 H 486.819 -0.736711 -1.23728 0
M  V30 5429 H 488.772 0.281908 -4.20456 0
M  V30 5430 H 487.496 0.914963 -3.13522 0
M  V30 5431 H 486.155 -1.19159 -3.46694 0
M  V30 5432 H 485.803 0.776274 -4.96974 0
M  V30 5433 H 485.503 -0.756206 -5.82714 0
M  V30 5434 H 487.027 0.134004 -6.10453 0
M  V30 5435 H 488.441 -2.0145 -5.36741 0
M  V30 5436 H 486.838 -2.8033 -5.30599 0
M  V30 5437 H 487.908 -2.88822 -3.895 0
M  V30 5438 N 489.251 1.34841 -0.815825 0
M  V30 5439 C 490.497 1.98793 -0.401129 0
M  V30 5440 C 490.83 1.64548 1.03139 0
M  V30 5441 O 490.105 0.913487 1.71714 0
M  V30 5442 C 490.388 3.55143 -0.595409 0
M  V30 5443 C 490.241 3.99155 -2.07352 0
M  V30 5444 C 491.56 4.40092 -0.0268823 0
M  V30 5445 H 488.679 0.722146 -0.14722 0
M  V30 5446 H 491.321 1.59847 -1.02707 0
M  V30 5447 H 489.471 3.8845 -0.0625779 0
M  V30 5448 H 491.143 3.76216 -2.66945 0
M  V30 5449 H 489.386 3.49726 -2.56659 0
M  V30 5450 H 490.057 5.07971 -2.1603 0
M  V30 5451 H 492.533 4.13298 -0.482042 0
M  V30 5452 H 491.409 5.48562 -0.19267 0
M  V30 5453 H 491.67 4.29016 1.06759 0
M  V30 5454 N 490.729 0.570148 1.46925 0
M  V30 5455 C 492.145 0.23087 1.57921 0
M  V30 5456 C 492.345 -1.26676 1.56702 0
M  V30 5457 O 491.401 -2.04774 1.47729 0
M  V30 5458 C 492.714 0.868973 2.8787 0
M  V30 5459 C 494.262 0.841397 3.01479 0
M  V30 5460 C 494.737 1.45881 4.34146 0
M  V30 5461 N 496.228 1.42258 4.40814 0
M  V30 5462 C 496.963 1.8698 5.42057 0
M  V30 5463 N 496.459 2.39618 6.50042 0
M  V30 5464 N 498.252 1.77972 5.33181 0
M  V30 5465 H 490.403 1.54301 1.45962 0
M  V30 5466 H 492.666 0.644224 0.69547 0
M  V30 5467 H 492.372 1.922 2.94537 0
M  V30 5468 H 492.246 0.369682 3.75384 0
M  V30 5469 H 494.633 -0.202973 2.94401 0
M  V30 5470 H 494.714 1.37858 2.15474 0
M  V30 5471 H 494.358 2.50231 4.4198 0
M  V30 5472 H 494.288 0.896958 5.18905 0
M  V30 5473 H 496.779 1.03768 3.63374 0
M  V30 5474 H 497.092 2.71633 7.23488 0
M  V30 5475 H 495.437 2.43636 6.50897 0
M  V30 5476 H 498.628 1.36617 4.4772 0
M  V30 5477 H 498.801 2.13143 6.11943 0
M  V30 5478 N 492.207 -1.54576 0.307264 0
M  V30 5479 C 493.154 -2.23751 -0.56604 0
M  V30 5480 C 494.124 -1.22235 -1.12462 0
M  V30 5481 O 495.309 -1.50873 -1.16799 0
M  V30 5482 C 492.449 -2.98661 -1.72903 0
M  V30 5483 C 491.562 -4.14963 -1.20124 0
M  V30 5484 C 490.697 -4.77441 -2.3286 0
M  V30 5485 C 489.736 -5.85875 -1.77247 0
M  V30 5486 N 488.873 -6.42282 -2.8358 0
M  V30 5487 H 493.713 -2.97984 0.0304578 0
M  V30 5488 H 491.25 -1.47076 0.0268015 0
M  V30 5489 H 493.208 -3.40329 -2.41313 0
M  V30 5490 H 491.838 -2.26793 -2.29706 0
M  V30 5491 H 490.89 -3.78193 -0.409198 0
M  V30 5492 H 492.202 -4.93066 -0.754171 0
M  V30 5493 H 491.356 -5.21993 -3.09205 0
M  V30 5494 H 490.095 -3.98684 -2.80896 0
M  V30 5495 H 489.1 -5.40741 -0.993926 0
M  V30 5496 H 490.325 -6.6652 -1.30107 0
M  V30 5497 H 488.271 -5.66406 -3.30939 0
M  V30 5498 H 488.188 -7.1575 -2.43388 0
M  V30 5499 H 489.456 -6.91492 -3.59804 0
M  V30 5500 N 493.685 -0.035106 -1.57561 0
M  V30 5501 C 494.925 0.646316 -1.93913 0
M  V30 5502 C 495.289 1.68947 -0.912185 0
M  V30 5503 O 496.49 2.42381 -1.1621 0
M  V30 5504 C 494.761 1.24136 -3.35149 0
M  V30 5505 S 496.32 1.94302 -3.93436 0
M  V30 5506 H 493.138 0.212642 -0.678457 0
M  V30 5507 H 495.74 -0.100203 -1.95243 0
M  V30 5508 H 494.444 0.46979 -4.07702 0
M  V30 5509 H 493.975 2.02505 -3.37276 0
M  V30 5510 H 495.99 3.22205 -3.77357 0
M  V30 5511 N 495.163 1.55791 0.238111 0
M  V30 5512 C 496.41 1.78033 0.964907 0
M  V30 5513 C 496.738 0.600984 1.84982 0
M  V30 5514 O 495.993 -0.41536 1.91241 0
M  V30 5515 C 496.292 3.05869 1.84875 0
M  V30 5516 C 495.958 4.36808 1.11846 0
M  V30 5517 C 494.62 4.72388 0.916662 0
M  V30 5518 C 496.972 5.17717 0.60151 0
M  V30 5519 C 494.3 5.86406 0.185756 0
M  V30 5520 C 496.652 6.32494 -0.115972 0
M  V30 5521 C 495.316 6.66688 -0.329168 0
M  V30 5522 H 494.586 0.651469 0.353085 0
M  V30 5523 H 497.233 1.90061 0.234318 0
M  V30 5524 H 495.538 2.88891 2.64668 0
M  V30 5525 H 497.235 3.20278 2.41294 0
M  V30 5526 H 493.825 4.08862 1.28569 0
M  V30 5527 H 498.009 4.90678 0.744932 0
M  V30 5528 H 493.265 6.11399 0.0101886 0
M  V30 5529 H 497.439 6.94425 -0.524127 0
M  V30 5530 H 495.066 7.54884 -0.897474 0
M  V30 5531 N 496.642 -0.504142 1.49319 0
M  V30 5532 C 497.572 -1.61473 1.68667 0
M  V30 5533 C 498.553 -1.61455 0.535378 0
M  V30 5534 O 499.738 -1.78245 0.770868 0
M  V30 5535 C 496.868 -2.99971 1.75028 0
M  V30 5536 C 495.822 -3.14854 2.89916 0
M  V30 5537 C 495.148 -4.54671 2.81387 0
M  V30 5538 C 496.448 -2.95176 4.30893 0
M  V30 5539 H 498.142 -1.45535 2.61648 0
M  V30 5540 H 495.688 -0.698711 1.25913 0
M  V30 5541 H 497.641 -3.77562 1.8715 0
M  V30 5542 H 496.365 -3.1699 0.786441 0
M  V30 5543 H 495.024 -2.39687 2.77391 0
M  V30 5544 H 494.672 -4.68562 1.82917 0
M  V30 5545 H 494.372 -4.6557 3.58494 0
M  V30 5546 H 495.896 -5.34327 2.95512 0
M  V30 5547 H 497.31 -3.62538 4.44116 0
M  V30 5548 H 495.707 -3.17549 5.09198 0
M  V30 5549 H 496.777 -1.91332 4.45556 0
M  V30 5550 N 498.12 -1.38341 -0.754957 0
M  V30 5551 C 499.067 -1.3546 -1.86867 0
M  V30 5552 C 500.037 -0.217369 -1.64672 0
M  V30 5553 O 501.222 -0.409383 -1.86356 0
M  V30 5554 C 498.362 -1.18413 -3.24149 0
M  V30 5555 C 497.475 -2.41511 -3.58185 0
M  V30 5556 C 496.61 -2.17205 -4.84763 0
M  V30 5557 C 495.649 -3.36081 -5.11582 0
M  V30 5558 N 494.786 -3.11219 -6.29354 0
M  V30 5559 H 499.626 -2.30672 -1.88664 0
M  V30 5560 H 497.163 -1.14607 -0.922154 0
M  V30 5561 H 499.121 -1.06545 -4.03366 0
M  V30 5562 H 497.751 -0.268397 -3.21682 0
M  V30 5563 H 496.803 -2.64056 -2.73822 0
M  V30 5564 H 498.115 -3.30115 -3.73932 0
M  V30 5565 H 497.269 -2.02465 -5.7192 0
M  V30 5566 H 496.008 -1.25964 -4.71152 0
M  V30 5567 H 495.013 -3.51341 -4.22894 0
M  V30 5568 H 496.238 -4.28196 -5.27091 0
M  V30 5569 H 494.184 -2.22624 -6.17069 0
M  V30 5570 H 494.101 -3.93373 -6.45596 0
M  V30 5571 H 495.369 -3.00132 -7.19403 0
M  V30 5572 N 499.598 0.982988 -1.23187 0
M  V30 5573 C 500.838 1.73903 -1.07412 0
M  V30 5574 C 501.202 1.88146 0.382764 0
M  V30 5575 O 502.403 2.6053 0.661638 0
M  V30 5576 C 500.674 3.10105 -1.77678 0
M  V30 5577 S 502.233 4.01323 -1.77441 0
M  V30 5578 H 499.051 0.598093 -0.384456 0
M  V30 5579 H 501.653 1.17456 -1.56283 0
M  V30 5580 H 500.357 2.97388 -2.82822 0
M  V30 5581 H 499.888 3.71622 -1.29077 0
M  V30 5582 H 501.903 4.89189 -0.831162 0
M  V30 5583 N 501.076 1.04316 1.18135 0
M  V30 5584 C 501.986 0.646876 2.25505 0
M  V30 5585 C 503.002 -0.328008 1.7088 0
M  V30 5586 O 504.178 -0.182309 2.00573 0
M  V30 5587 C 501.243 0.0185664 3.46695 0
M  V30 5588 C 500.304 1.04277 4.16443 0
M  V30 5589 C 499.537 0.444352 5.31847 0
M  V30 5590 O 499.76 -0.748735 5.65465 0
M  V30 5591 O 498.694 1.17428 5.90334 0
M  V30 5592 H 502.52 1.54147 2.61672 0
M  V30 5593 H 500.105 0.814188 1.25265 0
M  V30 5594 H 501.987 -0.331068 4.20097 0
M  V30 5595 H 500.662 -0.849814 3.12346 0
M  V30 5596 H 499.569 1.44425 3.45098 0
M  V30 5597 H 500.902 1.882 4.54798 0
M  V30 5598 N 502.554 -1.34406 0.822964 0
M  V30 5599 C 503.794 -2.00103 0.416915 0
M  V30 5600 C 504.158 -1.63826 -1.00125 0
M  V30 5601 O 505.359 -2.22367 -1.51018 0
M  V30 5602 C 503.63 -3.52101 0.613151 0
M  V30 5603 S 505.189 -4.37774 0.299956 0
M  V30 5604 H 502.007 -0.69333 0.157527 0
M  V30 5605 H 504.609 -1.63698 1.06879 0
M  V30 5606 H 503.313 -3.75991 1.64496 0
M  V30 5607 H 502.844 -3.93364 -0.0534554 0
M  V30 5608 H 504.859 -4.8822 -0.886336 0
M  V30 5609 N 504.032 -0.577932 -1.46621 0
M  V30 5610 C 504.965 0.206312 -2.27265 0
M  V30 5611 C 505.943 0.901306 -1.35334 0
M  V30 5612 O 507.127 0.916151 -1.64739 0
M  V30 5613 C 504.254 1.29563 -3.1294 0
M  V30 5614 C 503.3 0.706981 -4.206 0
M  V30 5615 S 504.133 -0.462459 -5.33499 0
M  V30 5616 C 505.289 0.628171 -6.2274 0
M  V30 5617 H 505.522 -0.477961 -2.93433 0
M  V30 5618 H 503.055 -0.364715 -1.50031 0
M  V30 5619 H 505.013 1.91935 -3.62865 0
M  V30 5620 H 503.674 1.95183 -2.46095 0
M  V30 5621 H 502.867 1.52565 -4.80354 0
M  V30 5622 H 502.469 0.159022 -3.73662 0
M  V30 5623 H 504.761 1.51506 -6.60342 0
M  V30 5624 H 505.704 0.0674961 -7.08068 0
M  V30 5625 H 506.112 0.930167 -5.56784 0
M  V30 5626 N 505.51 1.54411 -0.315457 0
M  V30 5627 C 506.42 2.27737 0.56329 0
M  V30 5628 C 507.436 1.31787 1.13614 0
M  V30 5629 O 508.612 1.64791 1.15784 0
M  V30 5630 C 505.677 3.01478 1.71207 0
M  V30 5631 C 504.738 4.12997 1.17185 0
M  V30 5632 C 503.971 4.83212 2.26588 0
M  V30 5633 O 504.194 4.52884 3.46775 0
M  V30 5634 O 503.128 5.70299 1.92463 0
M  V30 5635 H 506.954 3.03683 -0.0319614 0
M  V30 5636 H 504.539 1.49178 -0.0814188 0
M  V30 5637 H 506.421 3.47683 2.38106 0
M  V30 5638 H 505.096 2.28414 2.29366 0
M  V30 5639 H 504.003 3.71159 0.468174 0
M  V30 5640 H 505.336 4.8808 0.635501 0
M  V30 5641 N 506.988 0.0434614 1.5754 0
M  V30 5642 C 507.935 -0.93356 2.11077 0
M  V30 5643 C 508.905 -1.31383 1.01626 0
M  V30 5644 O 510.09 -1.40465 1.29129 0
M  V30 5645 C 507.23 -2.20578 2.65404 0
M  V30 5646 C 506.343 -1.88068 3.88914 0
M  V30 5647 C 505.478 -3.09691 4.31584 0
M  V30 5648 C 504.517 -2.73067 5.47815 0
M  V30 5649 N 503.654 -3.87359 5.85574 0
M  V30 5650 H 508.494 -0.470118 2.94268 0
M  V30 5651 H 506.031 -0.220434 1.45439 0
M  V30 5652 H 507.989 -2.95011 2.94999 0
M  V30 5653 H 506.619 -2.64513 1.85021 0
M  V30 5654 H 505.671 -1.03816 3.6596 0
M  V30 5655 H 506.983 -1.57104 4.73413 0
M  V30 5656 H 506.137 -3.92431 4.62691 0
M  V30 5657 H 504.876 -3.43827 3.45882 0
M  V30 5658 H 503.881 -1.88742 5.16388 0
M  V30 5659 H 505.106 -2.40131 6.35227 0
M  V30 5660 H 503.052 -4.21311 5.02825 0
M  V30 5661 H 502.969 -3.60068 6.64746 0
M  V30 5662 H 504.237 -4.70761 6.21292 0
M  V30 5663 N 508.466 -1.55915 -0.229846 0
M  V30 5664 C 509.712 -1.78807 -0.956868 0
M  V30 5665 C 510.045 -0.611687 -1.84315 0
M  V30 5666 O 509.32 0.389398 -1.90562 0
M  V30 5667 C 509.603 -3.11718 -1.80288 0
M  V30 5668 C 509.456 -4.3979 -0.943649 0
M  V30 5669 C 510.775 -3.40999 -2.78222 0
M  V30 5670 H 507.894 -0.6505 -0.346437 0
M  V30 5671 H 510.536 -1.88648 -0.226252 0
M  V30 5672 H 508.686 -3.03459 -2.42579 0
M  V30 5673 H 510.358 -4.60059 -0.338121 0
M  V30 5674 H 508.601 -4.33086 -0.248705 0
M  V30 5675 H 509.272 -5.29208 -1.5698 0
M  V30 5676 H 511.748 -3.49332 -2.26067 0
M  V30 5677 H 510.624 -4.35183 -3.34526 0
M  V30 5678 H 510.885 -2.62754 -3.55546 0
M  V30 5679 N 509.944 0.496216 -1.49584 0
M  V30 5680 C 511.193 1.24668 -1.58558 0
M  V30 5681 C 511.506 1.9359 -0.279703 0
M  V30 5682 O 512.712 2.70365 -0.248048 0
M  V30 5683 C 511.168 2.26388 -2.79779 0
M  V30 5684 C 510.776 1.63384 -4.17145 0
M  V30 5685 C 512.52 3.02233 -2.98086 0
M  V30 5686 C 510.427 2.63243 -5.29582 0
M  V30 5687 H 509.357 0.468995 -0.590389 0
M  V30 5688 H 512.008 0.519985 -1.75978 0
M  V30 5689 H 510.39 3.02241 -2.55863 0
M  V30 5690 H 511.564 0.93491 -4.51216 0
M  V30 5691 H 509.879 0.999121 -4.04236 0
M  V30 5692 H 512.476 3.76919 -3.79257 0
M  V30 5693 H 512.819 3.60132 -2.08831 0
M  V30 5694 H 513.352 2.33495 -3.22063 0
M  V30 5695 H 510.091 2.10119 -6.20911 0
M  V30 5696 H 509.611 3.31363 -4.99959 0
M  V30 5697 H 511.29 3.25575 -5.59115 0
M  V30 5698 N 511.423 1.38739 0.74761 0
M  V30 5699 C 512.37 1.36449 1.86146 0
M  V30 5700 C 513.34 0.226098 1.64554 0
M  V30 5701 O 514.525 0.41926 1.86137 0
M  V30 5702 C 511.665 1.2013 3.23516 0
M  V30 5703 C 510.778 2.43407 3.56899 0
M  V30 5704 C 509.913 2.19773 4.83605 0
M  V30 5705 C 508.952 3.3879 5.09792 0
M  V30 5706 N 508.089 3.14553 6.27695 0
M  V30 5707 H 512.929 2.3167 1.87438 0
M  V30 5708 H 510.466 1.15094 0.916063 0
M  V30 5709 H 512.424 1.08683 4.02795 0
M  V30 5710 H 511.054 0.285453 3.21535 0
M  V30 5711 H 510.106 2.65504 2.72418 0
M  V30 5712 H 511.418 3.32094 3.72176 0
M  V30 5713 H 510.572 2.05496 5.70838 0
M  V30 5714 H 509.311 1.28461 4.70478 0
M  V30 5715 H 508.316 3.53579 4.21025 0
M  V30 5716 H 509.541 4.30986 5.24812 0
M  V30 5717 H 507.487 2.25893 6.1588 0
M  V30 5718 H 507.404 3.96791 6.435 0
M  V30 5719 H 508.672 3.03943 7.17801 0
M  V30 5720 N 512.901 -0.976442 1.23707 0
M  V30 5721 C 514.126 -1.75875 1.09922 0
M  V30 5722 C 514.551 -1.84911 -0.34489 0
M  V30 5723 O 513.909 -1.31363 -1.24954 0
M  V30 5724 C 513.957 -3.16179 1.73388 0
M  V30 5725 O 513.061 -4.00124 0.99871 0
M  V30 5726 H 512.402 -0.540954 0.385052 0
M  V30 5727 H 514.932 -1.22546 1.6384 0
M  V30 5728 H 514.942 -3.66741 1.78788 0
M  V30 5729 H 513.617 -3.08917 2.78466 0
M  V30 5730 H 512.194 -3.58624 1.02193 0
M  V30 5731 N 514.379 -1.04941 -1.1758 0
M  V30 5732 C 515.289 -0.658826 -2.25159 0
M  V30 5733 C 516.305 0.318941 -1.71052 0
M  V30 5734 O 517.481 0.171669 -2.00667 0
M  V30 5735 C 514.546 -0.0369522 -3.4668 0
M  V30 5736 C 513.607 -1.06484 -4.15884 0
M  V30 5737 C 512.84 -0.472551 -5.31604 0
M  V30 5738 O 513.063 0.718736 -5.65854 0
M  V30 5739 O 511.997 -1.20557 -5.89703 0
M  V30 5740 H 515.823 -1.55533 -2.60851 0
M  V30 5741 H 513.408 -0.820819 -1.24832 0
M  V30 5742 H 515.29 0.308784 -4.20267 0
M  V30 5743 H 513.965 0.833238 -3.12792 0
M  V30 5744 H 512.872 -1.46253 -3.44327 0
M  V30 5745 H 514.205 -1.9061 -4.53794 0
M  V30 5746 N 515.857 1.33968 -0.830081 0
M  V30 5747 C 517.097 1.99879 -0.427521 0
M  V30 5748 C 517.461 1.64355 0.992546 0
M  V30 5749 O 518.662 2.23164 1.49837 0
M  V30 5750 C 516.933 3.51771 -0.631815 0
M  V30 5751 S 518.492 4.37608 -0.323168 0
M  V30 5752 H 515.31 0.692485 -0.161202 0
M  V30 5753 H 517.912 1.63129 -1.07745 0
M  V30 5754 H 516.616 3.75113 -1.66488 0
M  V30 5755 H 516.147 3.93386 0.0325936 0
M  V30 5756 H 518.162 4.88683 0.860432 0
M  V30 5757 N 517.335 0.585699 1.46312 0
M  V30 5758 C 518.565 0.0780166 2.06453 0
M  V30 5759 C 518.973 -1.2336 1.43454 0
M  V30 5760 O 518.316 -1.75734 0.535086 0
M  V30 5761 C 518.378 -0.158951 3.59148 0
M  V30 5762 C 518.042 1.06752 4.44357 0
M  V30 5763 C 519.039 1.98031 4.80708 0
M  V30 5764 C 516.724 1.2902 4.85447 0
M  V30 5765 C 518.718 3.09924 5.5698 0
M  V30 5766 C 516.405 2.41218 5.61478 0
M  V30 5767 C 517.403 3.31499 5.97158 0
M  V30 5768 O 517.091 4.41747 6.71651 0
M  V30 5769 H 516.823 0.0558894 0.673686 0
M  V30 5770 H 519.377 0.806994 1.88883 0
M  V30 5771 H 517.607 -0.942575 3.75037 0
M  V30 5772 H 519.296 -0.615513 4.01206 0
M  V30 5773 H 520.062 1.82043 4.49539 0
M  V30 5774 H 515.941 0.596567 4.57124 0
M  V30 5775 H 519.485 3.80415 5.84748 0
M  V30 5776 H 515.382 2.57167 5.9206 0
M  V30 5777 H 516.15 4.40152 6.90079 0
M  V30 5778 N 518.813 -1.54241 0.323641 0
M  V30 5779 C 519.76 -2.24339 -0.542277 0
M  V30 5780 C 520.73 -1.23421 -1.11159 0
M  V30 5781 O 521.915 -1.52104 -1.15192 0
M  V30 5782 C 519.055 -3.00479 -1.69725 0
M  V30 5783 C 518.168 -4.16214 -1.15716 0
M  V30 5784 C 517.303 -4.79884 -2.27783 0
M  V30 5785 C 516.342 -5.87722 -1.71023 0
M  V30 5786 N 515.479 -6.45254 -2.76752 0
M  V30 5787 H 520.319 -2.97935 0.0620613 0
M  V30 5788 H 517.856 -1.47039 0.0423993 0
M  V30 5789 H 519.814 -3.42869 -2.3769 0
M  V30 5790 H 518.444 -2.29217 -2.27288 0
M  V30 5791 H 517.496 -3.78605 -0.369063 0
M  V30 5792 H 518.808 -4.93838 -0.701832 0
M  V30 5793 H 517.962 -5.25243 -3.03651 0
M  V30 5794 H 516.701 -4.01641 -2.76652 0
M  V30 5795 H 515.706 -5.41765 -0.936518 0
M  V30 5796 H 516.931 -6.67863 -1.2303 0
M  V30 5797 H 514.877 -5.69884 -3.24912 0
M  V30 5798 H 514.794 -7.18292 -2.35782 0
M  V30 5799 H 516.062 -6.95269 -3.5245 0
M  V30 5800 N 520.291 -0.0518155 -1.57515 0
M  V30 5801 C 521.238 0.922352 -2.11569 0
M  V30 5802 C 522.208 1.30842 -1.02321 0
M  V30 5803 O 523.393 1.39778 -1.29872 0
M  V30 5804 C 520.533 2.19167 -2.6657 0
M  V30 5805 C 519.646 1.86003 -3.89906 0
M  V30 5806 C 518.781 3.07398 -4.33221 0
M  V30 5807 C 517.82 2.70158 -5.49255 0
M  V30 5808 N 516.957 3.84248 -5.8762 0
M  V30 5809 H 521.797 0.454506 -2.94514 0
M  V30 5810 H 519.334 0.212718 -1.45554 0
M  V30 5811 H 521.292 2.93443 -2.96559 0
M  V30 5812 H 519.922 2.63528 -1.86421 0
M  V30 5813 H 518.974 1.01874 -3.66505 0
M  V30 5814 H 520.286 1.54592 -4.74239 0
M  V30 5815 H 519.44 3.89972 -4.64765 0
M  V30 5816 H 518.179 3.41988 -3.477 0
M  V30 5817 H 517.184 1.86001 -5.17382 0
M  V30 5818 H 518.409 2.36759 -6.36492 0
M  V30 5819 H 516.355 4.18638 -5.05053 0
M  V30 5820 H 516.272 3.56538 -6.66646 0
M  V30 5821 H 517.54 4.6746 -6.2378 0
M  V30 5822 N 521.769 1.56035 0.221574 0
M  V30 5823 C 522.716 1.92413 1.27459 0
M  V30 5824 C 523.686 0.781323 1.46576 0
M  V30 5825 O 524.871 1.03721 1.60145 0
M  V30 5826 C 522.011 2.24617 2.61995 0
M  V30 5827 C 521.124 3.51831 2.50677 0
M  V30 5828 C 520.259 3.73482 3.77736 0
M  V30 5829 C 519.298 4.94211 3.6114 0
M  V30 5830 N 518.435 5.12252 4.80148 0
M  V30 5831 H 523.275 2.82203 0.957355 0
M  V30 5832 H 520.812 1.39676 0.461415 0
M  V30 5833 H 522.77 2.41298 3.40339 0
M  V30 5834 H 521.4 1.38 2.91815 0
M  V30 5835 H 520.452 3.43343 1.63767 0
M  V30 5836 H 521.764 4.40328 2.34334 0
M  V30 5837 H 520.918 3.9026 4.64523 0
M  V30 5838 H 519.657 2.83266 3.97003 0
M  V30 5839 H 518.662 4.77384 2.72736 0
M  V30 5840 H 519.887 5.85912 3.43343 0
M  V30 5841 H 517.833 4.24978 4.99729 0
M  V30 5842 H 517.75 5.94881 4.66532 0
M  V30 5843 H 519.018 5.33465 5.68362 0
M  V30 5844 N 523.247 -0.488276 1.49845 0
M  V30 5845 C 524.487 -1.2516 1.61599 0
M  V30 5846 C 524.851 -1.89615 0.301706 0
M  V30 5847 O 526.052 -2.67182 0.29453 0
M  V30 5848 C 524.323 -2.2805 2.75187 0
M  V30 5849 S 525.882 -3.13552 3.0697 0
M  V30 5850 H 522.7 -0.425178 0.569864 0
M  V30 5851 H 525.302 -0.551545 1.87559 0
M  V30 5852 H 524.006 -1.7925 3.69185 0
M  V30 5853 H 523.537 -3.02708 2.5126 0
M  V30 5854 H 525.552 -4.28927 2.49471 0
M  V30 5855 N 524.725 -1.39134 -0.740242 0
M  V30 5856 C 525.95 -1.39518 -1.53459 0
M  V30 5857 C 526.375 0.00968883 -1.88098 0
M  V30 5858 O 525.733 0.995312 -1.51536 0
M  V30 5859 C 525.781 -2.26981 -2.802 0
M  V30 5860 O 524.885 -1.69609 -3.75908 0
M  V30 5861 H 524.226 -0.475328 -0.463637 0
M  V30 5862 H 526.756 -1.83064 -0.913717 0
M  V30 5863 H 526.766 -2.41309 -3.28989 0
M  V30 5864 H 525.441 -3.29081 -2.5432 0
M  V30 5865 H 524.018 -1.64495 -3.34658 0
M  V30 5866 N 526.204 0.969867 -1.24223 0
M  V30 5867 C 527.151 2.06407 -1.0327 0
M  V30 5868 C 528.121 1.66014 0.0533 0
M  V30 5869 O 529.306 1.90533 -0.100896 0
M  V30 5870 C 526.446 3.3909 -0.641262 0
M  V30 5871 C 525.559 3.9269 -1.80051 0
M  V30 5872 C 524.694 5.13631 -1.35486 0
M  V30 5873 C 523.733 5.59423 -2.48419 0
M  V30 5874 N 522.87 6.71586 -2.04737 0
M  V30 5875 H 527.71 2.23663 -1.96923 0
M  V30 5876 H 525.247 1.09624 -0.980862 0
M  V30 5877 H 527.205 4.15323 -0.395351 0
M  V30 5878 H 525.835 3.21765 0.258269 0
M  V30 5879 H 524.887 3.13116 -2.16014 0
M  V30 5880 H 526.199 4.22636 -2.64916 0
M  V30 5881 H 525.353 5.97231 -1.0677 0
M  V30 5882 H 524.092 4.85364 -0.476722 0
M  V30 5883 H 523.097 4.74398 -2.77897 0
M  V30 5884 H 524.322 5.89705 -3.36786 0
M  V30 5885 H 522.268 6.45058 -1.19318 0
M  V30 5886 H 522.185 7.0097 -2.83156 0
M  V30 5887 H 523.453 7.58633 -1.79154 0
M  V30 5888 N 527.682 1.05563 1.17022 0
M  V30 5889 C 528.928 0.769074 1.87652 0
M  V30 5890 C 529.261 -0.702326 1.81055 0
M  V30 5891 O 528.536 -1.5139 1.22112 0
M  V30 5892 C 528.819 1.25492 3.37526 0
M  V30 5893 C 528.672 2.78953 3.52853 0
M  V30 5894 C 529.991 0.856919 4.31677 0
M  V30 5895 H 527.11 0.280854 0.681388 0
M  V30 5896 H 529.752 1.31027 1.37593 0
M  V30 5897 H 527.902 0.794516 3.80289 0
M  V30 5898 H 529.574 3.33146 3.19079 0
M  V30 5899 H 527.817 3.18046 2.95007 0
M  V30 5900 H 528.488 3.08011 4.58076 0
M  V30 5901 H 530.964 1.25334 3.96775 0
M  V30 5902 H 529.84 1.22443 5.35069 0
M  V30 5903 H 530.101 -0.238787 4.41455 0
M  V30 5904 N 529.16 -1.33526 0.837174 0
M  V30 5905 C 530.388 -2.02047 0.445494 0
M  V30 5906 C 530.803 -1.62995 -0.952788 0
M  V30 5907 O 530.16 -0.842447 -1.61892 0
M  V30 5908 C 530.211 -3.57221 0.554577 0
M  V30 5909 O 529.932 -3.94863 1.89776 0
M  V30 5910 C 531.433 -4.43012 0.159634 0
M  V30 5911 H 528.653 -0.647221 0.177048 0
M  V30 5912 H 531.197 -1.70492 1.12928 0
M  V30 5913 H 529.352 -3.87315 -0.0812781 0
M  V30 5914 H 529.766 -4.89569 1.88208 0
M  V30 5915 H 531.24 -5.51253 0.28701 0
M  V30 5916 H 531.717 -4.29916 -0.898289 0
M  V30 5917 H 532.323 -4.18274 0.769855 0
M  V30 5918 N 530.638 -0.59345 -1.46 0
M  V30 5919 C 531.585 0.133618 -2.30413 0
M  V30 5920 C 532.555 0.873736 -1.41262 0
M  V30 5921 O 533.74 0.862279 -1.70204 0
M  V30 5922 C 530.88 1.13434 -3.25924 0
M  V30 5923 C 529.993 0.39656 -4.30176 0
M  V30 5924 C 529.128 1.38575 -5.12806 0
M  V30 5925 C 528.167 0.634984 -6.08797 0
M  V30 5926 N 527.304 1.57276 -6.84258 0
M  V30 5927 H 532.144 -0.592252 -2.92055 0
M  V30 5928 H 529.681 -0.303874 -1.43927 0
M  V30 5929 H 531.639 1.72752 -3.79753 0
M  V30 5930 H 530.269 1.82779 -2.66067 0
M  V30 5931 H 529.321 -0.311861 -3.79119 0
M  V30 5932 H 530.633 -0.189869 -4.98438 0
M  V30 5933 H 529.787 2.05141 -5.70966 0
M  V30 5934 H 528.526 2.00611 -4.44529 0
M  V30 5935 H 527.531 -0.0443925 -5.49782 0
M  V30 5936 H 528.756 0.0198678 -6.79097 0
M  V30 5937 H 526.702 2.18103 -6.18682 0
M  V30 5938 H 526.619 1.03941 -7.48821 0
M  V30 5939 H 527.887 2.22844 -7.46968 0
M  V30 5940 N 532.116 1.54067 -0.331816 0
M  V30 5941 C 533.079 2.23275 0.517768 0
M  V30 5942 C 534.079 1.22897 1.03697 0
M  V30 5943 O 535.269 1.47419 0.928084 0
M  V30 5944 C 532.401 2.94326 1.72004 0
M  V30 5945 H 533.594 2.99773 -0.0873507 0
M  V30 5946 H 531.147 1.56079 -0.0830042 0
M  V30 5947 H 531.882 2.21986 2.36417 0
M  V30 5948 H 531.667 3.67941 1.35507 0
M  V30 5949 H 533.157 3.47031 2.32291 0
M  V30 5950 N 533.594 0.0601682 1.57485 0
M  V30 5951 C 534.84 -0.612501 1.93329 0
M  V30 5952 C 535.173 -1.6996 0.939526 0
M  V30 5953 O 534.448 -1.94472 -0.0330957 0
M  V30 5954 C 534.731 -1.20025 3.39508 0
M  V30 5955 C 534.584 -0.12059 4.49638 0
M  V30 5956 C 535.903 -2.10923 3.86264 0
M  V30 5957 H 533.022 -0.221185 0.703027 0
M  V30 5958 H 535.664 0.123768 1.89596 0
M  V30 5959 H 533.814 -1.82774 3.42821 0
M  V30 5960 H 535.486 0.51185 4.58452 0
M  V30 5961 H 533.729 0.550251 4.30296 0
M  V30 5962 H 534.4 -0.572019 5.49028 0
M  V30 5963 H 536.876 -1.58124 3.84884 0
M  V30 5964 H 535.752 -2.48987 4.8918 0
M  V30 5965 H 536.013 -3.01292 3.23536 0
M  V30 5966 N 535.072 -1.5615 -0.213296 0
M  V30 5967 C 536.002 -1.96109 -1.26742 0
M  V30 5968 C 536.983 -0.830448 -1.48451 0
M  V30 5969 O 538.168 -1.09339 -1.60495 0
M  V30 5970 C 535.298 -2.28492 -2.61551 0
M  V30 5971 C 534.252 -3.44124 -2.54485 0
M  V30 5972 C 533.578 -3.62134 -3.93399 0
M  V30 5973 C 534.878 -4.78855 -2.08556 0
M  V30 5974 H 536.572 -2.84412 -0.935434 0
M  V30 5975 H 534.118 -1.36836 -0.44854 0
M  V30 5976 H 536.071 -2.55039 -3.3546 0
M  V30 5977 H 534.795 -1.37052 -2.96453 0
M  V30 5978 H 533.454 -3.17639 -1.83033 0
M  V30 5979 H 533.102 -2.68055 -4.25623 0
M  V30 5980 H 532.802 -4.39913 -3.89551 0
M  V30 5981 H 534.326 -3.91038 -4.68958 0
M  V30 5982 H 535.74 -5.04552 -2.72213 0
M  V30 5983 H 534.137 -5.59975 -2.1575 0
M  V30 5984 H 535.207 -4.73657 -1.03811 0
M  V30 5985 N 536.55 0.480323 -1.50102 0
M  V30 5986 C 537.827 1.24159 -1.51142 0
M  V30 5987 C 538.207 2.09605 -0.250818 0
M  V30 5988 O 537.555 2.15274 0.766118 0
M  V30 5989 C 537.765 2.08057 -2.80202 0
M  V30 5990 C 539.113 2.66556 -3.30504 0
M  V30 5991 O 540.137 2.18308 -2.81461 0
M  V30 5992 O 538.996 3.54442 -4.15973 0
M  V30 5993 H 536.09 0.562928 -0.605839 0
M  V30 5994 H 538.636 0.492899 -1.62384 0
M  V30 5995 H 537.408 1.45032 -3.6343 0
M  V30 5996 H 537.031 2.90079 -2.71919 0
M  V30 5997 N 538.028 1.39524 0.732853 0
M  V30 5998 C 538.938 1.40695 1.87729 0
M  V30 5999 C 539.954 0.301496 1.71368 0
M  V30 6000 O 541.13 0.543313 1.93933 0
M  V30 6001 C 538.195 1.25098 3.23344 0
M  V30 6002 C 537.256 2.45634 3.52083 0
M  V30 6003 C 536.489 2.30772 4.81228 0
M  V30 6004 O 536.712 1.31233 5.55098 0
M  V30 6005 O 535.646 3.19799 5.09914 0
M  V30 6006 H 539.472 2.37168 1.89697 0
M  V30 6007 H 537.057 1.20663 0.880959 0
M  V30 6008 H 538.939 1.18541 4.04383 0
M  V30 6009 H 537.614 0.317209 3.22142 0
M  V30 6010 H 536.521 2.57767 2.71122 0
M  V30 6011 H 537.854 3.37712 3.58066 0
M  V30 6012 N 539.506 -0.963266 1.24736 0
M  V30 6013 C 540.469 -2.04013 1.04457 0
M  V30 6014 C 541.469 -1.608 0.000335555 0
M  V30 6015 O 542.659 -1.72515 0.241719 0
M  V30 6016 C 539.791 -3.35858 0.584162 0
M  V30 6017 H 540.984 -2.23436 2.00041 0
M  V30 6018 H 538.537 -1.13914 1.07021 0
M  V30 6019 H 539.272 -3.22128 -0.374673 0
M  V30 6020 H 539.057 -3.68568 1.3379 0
M  V30 6021 H 540.547 -4.1502 0.463451 0
M  V30 6022 N 540.985 -1.06182 -1.16461 0
M  V30 6023 C 541.935 -0.641619 -2.18786 0
M  V30 6024 C 542.919 0.327122 -1.5754 0
M  V30 6025 O 544.111 0.142746 -1.76423 0
M  V30 6026 C 541.24 -0.0283734 -3.43288 0
M  V30 6027 C 540.326 -1.02154 -4.11613 0
M  V30 6028 N 540.717 -2.19671 -4.55608 0
M  V30 6029 C 539.015 -0.852229 -4.37782 0
M  V30 6030 C 539.716 -2.82583 -5.0845 0
M  V30 6031 N 538.692 -2.10318 -5.01266 0
M  V30 6032 H 542.494 -1.53684 -2.50516 0
M  V30 6033 H 540.008 -0.933349 -1.329 0
M  V30 6034 H 542.005 0.29049 -4.15887 0
M  V30 6035 H 540.665 0.862118 -3.13046 0
M  V30 6036 H 541.676 -2.57453 -4.49375 0
M  V30 6037 H 538.353 -0.0136314 -4.17498 0
M  V30 6038 H 539.743 -3.82298 -5.52538 0
M  V30 6039 N 542.463 1.3308 -0.844243 0
M  V30 6040 C 543.41 2.29104 -0.279323 0
M  V30 6041 C 544.38 1.54577 0.607882 0
M  V30 6042 O 545.565 1.8285 0.545009 0
M  V30 6043 C 542.705 3.40927 0.53508 0
M  V30 6044 C 541.818 4.30354 -0.376749 0
M  V30 6045 C 540.953 5.29297 0.449276 0
M  V30 6046 C 539.992 6.10365 -0.460606 0
M  V30 6047 N 539.129 7.01335 0.327612 0
M  V30 6048 H 543.969 2.76817 -1.10346 0
M  V30 6049 H 541.506 1.36203 -0.555611 0
M  V30 6050 H 543.464 4.04469 1.02278 0
M  V30 6051 H 542.094 2.94391 1.32414 0
M  V30 6052 H 541.146 3.67485 -0.982791 0
M  V30 6053 H 542.458 4.87067 -1.07549 0
M  V30 6054 H 541.612 5.98392 1.00058 0
M  V30 6055 H 540.351 4.73174 1.18143 0
M  V30 6056 H 539.356 5.40182 -1.02388 0
M  V30 6057 H 540.581 6.68571 -1.1912 0
M  V30 6058 H 538.527 6.47655 1.04305 0
M  V30 6059 H 538.444 7.55355 -0.3123 0
M  V30 6060 H 539.712 7.74731 0.86098 0
M  V30 6061 N 543.941 0.601185 1.45683 0
M  V30 6062 C 544.851 -0.123395 2.34275 0
M  V30 6063 C 545.867 -0.86702 1.5086 0
M  V30 6064 O 547.043 -0.826049 1.8368 0
M  V30 6065 C 544.108 -1.11237 3.2837 0
M  V30 6066 C 543.169 -0.371405 4.2769 0
M  V30 6067 C 542.402 -1.31327 5.1729 0
M  V30 6068 O 542.625 -2.55078 5.10188 0
M  V30 6069 O 541.559 -0.813811 5.96373 0
M  V30 6070 H 545.385 0.604483 2.97623 0
M  V30 6071 H 542.97 0.361477 1.44961 0
M  V30 6072 H 544.852 -1.68214 3.8637 0
M  V30 6073 H 543.527 -1.82139 2.67595 0
M  V30 6074 H 542.434 0.24067 3.73325 0
M  V30 6075 H 543.767 0.296998 4.91303 0
M  V30 6076 N 545.419 -1.53889 0.339982 0
M  V30 6077 C 546.382 -2.23547 -0.50592 0
M  V30 6078 C 547.382 -1.23445 -1.03044 0
M  V30 6079 O 548.572 -1.47909 -0.920253 0
M  V30 6080 C 545.704 -2.95234 -1.7044 0
M  V30 6081 H 546.897 -2.99722 0.103247 0
M  V30 6082 H 544.45 -1.56033 0.0912804 0
M  V30 6083 H 545.185 -2.23236 -2.35236 0
M  V30 6084 H 544.97 -3.68654 -1.33553 0
M  V30 6085 H 546.46 -3.48258 -2.30447 0
M  V30 6086 N 546.897 -0.0685191 -1.57451 0
M  V30 6087 C 548.137 0.605038 -1.9524 0
M  V30 6088 C 548.501 1.66974 -0.947816 0
M  V30 6089 O 549.702 2.39862 -1.21325 0
M  V30 6090 C 547.973 1.16999 -3.37707 0
M  V30 6091 S 549.532 1.85913 -3.97469 0
M  V30 6092 H 546.35 0.198203 -0.682815 0
M  V30 6093 H 548.952 -0.141594 -1.94987 0
M  V30 6094 H 547.656 0.383205 -4.08607 0
M  V30 6095 H 547.187 1.95305 -3.41496 0
M  V30 6096 H 549.202 3.14128 -3.84107 0
M  V30 6097 N 548.375 1.56261 0.205012 0
M  V30 6098 C 549.622 1.8004 0.926927 0
M  V30 6099 C 549.95 0.640086 1.83666 0
M  V30 6100 O 549.205 -0.374702 1.92079 0
M  V30 6101 C 549.504 3.09722 1.78345 0
M  V30 6102 C 549.17 4.39082 1.02555 0
M  V30 6103 C 547.832 4.74226 0.816256 0
M  V30 6104 C 550.184 5.18877 0.491559 0
M  V30 6105 C 547.512 5.86668 0.0613287 0
M  V30 6106 C 549.864 6.32105 -0.250107 0
M  V30 6107 C 548.528 6.6584 -0.470508 0
M  V30 6108 H 547.798 0.658812 0.339187 0
M  V30 6109 H 550.445 1.90515 0.19395 0
M  V30 6110 H 548.75 2.9444 2.5848 0
M  V30 6111 H 550.447 3.25324 2.34446 0
M  V30 6112 H 547.037 4.11497 1.19868 0
M  V30 6113 H 551.221 4.92147 0.640684 0
M  V30 6114 H 546.477 6.11283 -0.119501 0
M  V30 6115 H 550.651 6.93157 -0.671307 0
M  V30 6116 H 548.278 7.5281 -1.05739 0
M  V30 6117 N 549.853 -0.472356 1.50355 0
M  V30 6118 C 551.13 -1.23356 1.51798 0
M  V30 6119 C 551.51 -2.09469 0.26193 0
M  V30 6120 O 550.858 -2.15677 -0.754691 0
M  V30 6121 C 551.068 -2.06568 2.81302 0
M  V30 6122 C 552.416 -2.648 3.31913 0
M  V30 6123 O 553.44 -2.16812 2.82614 0
M  V30 6124 O 552.299 -3.52231 4.17846 0
M  V30 6125 H 549.393 -0.559707 0.608816 0
M  V30 6126 H 551.939 -0.48428 1.62643 0
M  V30 6127 H 550.711 -1.43103 3.64194 0
M  V30 6128 H 550.334 -2.88633 2.73454 0
M  V30 6129 N 551.331 -1.39911 -0.725443 0
M  V30 6130 C 552.278 -1.39393 -1.83952 0
M  V30 6131 C 553.248 -0.252249 -1.64173 0
M  V30 6132 O 554.433 -0.44882 -1.85446 0
M  V30 6133 C 551.573 -1.25262 -3.21564 0
M  V30 6134 C 550.686 -2.49054 -3.52982 0
M  V30 6135 C 549.821 -2.27439 -4.80047 0
M  V30 6136 C 548.86 -3.46857 -5.04338 0
M  V30 6137 N 547.997 -3.24499 -6.22611 0
M  V30 6138 H 552.837 -2.34622 -1.83729 0
M  V30 6139 H 550.374 -1.16537 -0.897636 0
M  V30 6140 H 552.332 -1.15077 -4.01015 0
M  V30 6141 H 550.962 -0.33657 -3.21041 0
M  V30 6142 H 550.014 -2.69805 -2.6816 0
M  V30 6143 H 551.326 -3.37973 -3.66846 0
M  V30 6144 H 550.48 -2.14551 -5.67497 0
M  V30 6145 H 549.219 -1.35929 -4.68374 0
M  V30 6146 H 548.224 -3.60232 -4.15346 0
M  V30 6147 H 549.449 -4.3928 -5.17889 0
M  V30 6148 H 547.395 -2.35663 -6.12208 0
M  V30 6149 H 547.312 -4.06978 -6.37106 0
M  V30 6150 H 548.58 -3.15325 -7.12875 0
M  V30 6151 N 552.809 0.956637 -1.25245 0
M  V30 6152 C 554.034 1.74104 -1.12706 0
M  V30 6153 C 554.459 1.85436 0.315429 0
M  V30 6154 O 553.817 1.33334 1.22848 0
M  V30 6155 C 553.865 3.1338 -1.78396 0
M  V30 6156 O 552.969 3.98485 -1.06224 0
M  V30 6157 H 552.31 0.53476 -0.393609 0
M  V30 6158 H 554.84 1.19924 -1.65769 0
M  V30 6159 H 554.85 3.6385 -1.846 0
M  V30 6160 H 553.525 3.04448 -2.83345 0
M  V30 6161 H 552.102 3.56952 -1.07886 0
M  V30 6162 N 554.287 1.06798 1.15896 0
M  V30 6163 C 555.564 0.701057 1.82605 0
M  V30 6164 C 555.944 -0.817066 1.94646 0
M  V30 6165 O 555.292 -1.72933 1.49353 0
M  V30 6166 C 555.502 1.40895 3.19296 0
M  V30 6167 C 556.85 1.55744 3.95005 0
M  V30 6168 O 557.874 1.36927 3.28831 0
M  V30 6169 O 556.733 1.86658 5.13635 0
M  V30 6170 H 553.827 0.248791 0.78869 0
M  V30 6171 H 556.373 1.16857 1.23055 0
M  V30 6172 H 555.145 2.4439 3.05596 0
M  V30 6173 H 554.768 0.931847 3.86526 0
M  V30 6174 N 555.766 -1.3263 0.851289 0
M  V30 6175 C 556.714 -2.30882 0.282202 0
M  V30 6176 C 557.708 -1.58697 -0.592589 0
M  V30 6177 O 558.914 -1.73461 -0.480768 0
M  V30 6178 H 555.289 -0.748492 0.0725487 0
M  V30 6179 H 557.26 -2.76374 1.12516 0
M  V30 6180 C 556.009 -3.43828 -0.517449 0
M  V30 6181 H 555.332 -3.99532 0.146392 0
M  V30 6182 H 556.772 -4.1474 -0.88128 0
M  V30 6183 C 555.231 -2.90786 -1.70133 0
M  V30 6184 O 555.761 -2.88 -2.80034 0
M  V30 6185 N 553.967 -2.4723 -1.52728 0
M  V30 6186 H 553.514 -2.49695 -0.633257 0
M  V30 6187 H 553.472 -2.12094 -2.32085 0
M  V30 6188 O 557.283 -0.749239 -1.43069 0
M  V30 6189 H 557.974 -0.305579 -1.91274 0
M  V30 END ATOM
M  V30 BEGIN BOND
M  V30 END BOND
M  V30 END CTAB
M  END
$$$$
