drugbank_target|P61925 cAMP-dependent protein kinase inhibitor alpha (DB03374; DB04707; DB06959; DB07107; DB07204; DB07583; DB07854; DB07855; DB07856; DB07857; DB07858; DB07859; DB07860; DB07876; DB07947; DB07995; DB07996; DB07997; DB08070; DB08073; DB08113; DB08114; DB08148; DB08149; DB08150; DB08162; DB08231; DB08568; DB08569; DB08756)
 OpenBabel12092120393D

  0  0  0     0  0            999 V3000
M  V30 BEGIN CTAB
M  V30 COUNTS 1088 1090 0 0 0
M  V30 BEGIN ATOM
M  V30 1 H -0.908 1.98254 -0.117106 0
M  V30 2 N 0 1.576 0 0
M  V30 3 C 0.933 2.03868 1.02534 0
M  V30 4 C 1.911 0.928543 1.3348 0
M  V30 5 O 3.095 1.19667 1.45644 0
M  V30 6 C 0.222 2.43627 2.35294 0
M  V30 7 C -0.732 3.65373 2.2001 0
M  V30 8 S 0.101 5.13292 1.52614 0
M  V30 9 C 1.257 5.56322 2.86805 0
M  V30 10 H 1.49 2.90518 0.631377 0
M  V30 11 H -0.977 1.52953 0.210867 0
M  V30 12 H 0.981 2.67203 3.11629 0
M  V30 13 H -0.358 1.57376 2.7183 0
M  V30 14 H -1.165 3.90944 3.18086 0
M  V30 15 H -1.563 3.418 1.51819 0
M  V30 16 H 0.729 5.58782 3.83104 0
M  V30 17 H 1.672 6.56266 2.65933 0
M  V30 18 H 2.08 4.83886 2.90714 0
M  V30 19 N 1.4781 -0.272755 1.55222 0
M  V30 20 C 2.7061 -1.02255 1.79865 0
M  V30 21 C 3.1211 -1.79924 0.572088 0
M  V30 22 O 2.4781 -1.76638 -0.458842 0
M  V30 23 C 2.5291 -1.98094 3.02392 0
M  V30 24 O 2.2501 -1.23572 4.20311 0
M  V30 25 C 3.7511 -2.84884 3.39641 0
M  V30 26 H 0.9711 -0.302057 0.599168 0
M  V30 27 H 3.5151 -0.303465 2.02236 0
M  V30 28 H 1.6701 -2.65465 2.82147 0
M  V30 29 H 2.0841 -1.88172 4.89583 0
M  V30 30 H 3.5581 -3.47927 4.28545 0
M  V30 31 H 4.0351 -3.54665 2.59055 0
M  V30 32 H 4.6411 -2.23003 3.62146 0
M  V30 33 N 2.9562 -1.48159 -0.537278 0
M  V30 34 C 4.2332 -1.46291 -1.29839 0
M  V30 35 C 4.6132 -0.170613 -2.10409 0
M  V30 36 O 3.9612 0.847746 -2.12192 0
M  V30 37 C 4.1712 -2.72055 -2.18603 0
M  V30 38 C 5.5192 -3.20087 -2.7898 0
M  V30 39 O 6.5432 -2.72921 -2.28894 0
M  V30 40 O 5.4022 -4.02138 -3.70064 0
M  V30 41 H 2.4962 -0.583906 -0.585647 0
M  V30 42 H 5.0422 -1.60384 -0.554534 0
M  V30 43 H 3.8142 -3.57628 -1.58801 0
M  V30 44 H 3.4372 -2.60646 -3.00249 0
M  V30 45 N 4.4343 0.785586 -1.36625 0
M  V30 46 C 5.6803 1.54591 -1.31261 0
M  V30 47 C 6.0133 1.93906 0.106823 0
M  V30 48 O 5.2883 1.63007 1.06108 0
M  V30 49 C 5.5713 2.82038 -2.23889 0
M  V30 50 C 5.4243 2.49066 -3.74548 0
M  V30 51 C 6.7433 3.83887 -2.15217 0
M  V30 52 H 3.8623 0.560846 -0.478143 0
M  V30 53 H 6.5043 0.902278 -1.67209 0
M  V30 54 H 4.6543 3.36961 -1.93363 0
M  V30 55 H 6.3263 2.00164 -4.15611 0
M  V30 56 H 4.5693 1.81954 -3.93796 0
M  V30 57 H 5.2403 3.40109 -4.34776 0
M  V30 58 H 7.7163 3.38421 -2.42096 0
M  V30 59 H 6.5923 4.70806 -2.82193 0
M  V30 60 H 6.8533 4.27131 -1.14068 0
M  V30 61 N 5.9124 1.20967 1.01018 0
M  V30 62 C 6.8224 0.980157 2.13143 0
M  V30 63 C 7.8384 -0.0660665 1.73875 0
M  V30 64 O 9.0144 0.122821 2.01025 0
M  V30 65 C 6.0794 0.54216 3.42435 0
M  V30 66 C 5.1404 1.65999 3.95908 0
M  V30 67 C 4.3734 1.2428 5.19028 0
M  V30 68 O 4.5964 0.114196 5.70286 0
M  V30 69 O 3.5304 2.05271 5.65816 0
M  V30 70 H 7.3564 1.91913 2.35379 0
M  V30 71 H 4.9414 0.994099 1.11526 0
M  V30 72 H 6.8234 0.30744 4.20277 0
M  V30 73 H 5.4984 -0.36815 3.216 0
M  V30 74 H 4.4054 1.94906 3.19316 0
M  V30 75 H 5.7384 2.54753 4.21143 0
M  V30 76 N 7.3905 -1.2043 1.01659 0
M  V30 77 C 8.6185 -1.93777 0.725132 0
M  V30 78 C 9.0335 -1.74772 -0.714166 0
M  V30 79 O 8.3905 -1.06169 -1.4844 0
M  V30 80 C 8.4415 -3.45876 1.05129 0
M  V30 81 O 8.1625 -3.6426 2.43406 0
M  V30 82 C 9.6635 -4.36368 0.780891 0
M  V30 83 H 6.8835 -0.615901 0.266284 0
M  V30 84 H 9.4275 -1.52922 1.35776 0
M  V30 85 H 7.5825 -3.8461 0.464065 0
M  V30 86 H 7.9965 -4.58246 2.55169 0
M  V30 87 H 9.4705 -5.41743 1.05918 0
M  V30 88 H 9.9475 -4.38275 -0.284937 0
M  V30 89 H 10.5535 -4.03296 1.35027 0
M  V30 90 N 8.8686 -0.792821 -1.36206 0
M  V30 91 C 10.0966 -0.378825 -2.03402 0
M  V30 92 C 10.5116 1.00586 -1.59774 0
M  V30 93 O 9.8686 1.64574 -0.788764 0
M  V30 94 C 9.9196 -0.43683 -3.58851 0
M  V30 95 O 9.6406 -1.76691 -4.00889 0
M  V30 96 C 11.1416 -0.0138943 -4.43298 0
M  V30 97 H 8.3616 -0.155673 -0.652692 0
M  V30 98 H 10.9056 -1.07261 -1.74113 0
M  V30 99 H 9.0606 0.208575 -3.86838 0
M  V30 100 H 9.4746 -1.72011 -4.95492 0
M  V30 101 H 10.9486 -0.105615 -5.51899 0
M  V30 102 H 11.4256 1.03915 -4.2673 0
M  V30 103 H 12.0316 -0.63192 -4.20579 0
M  V30 104 N 10.3467 1.47872 -0.545128 0
M  V30 105 C 11.5767 2.06589 -0.0210534 0
M  V30 106 C 11.9847 1.39997 1.27269 0
M  V30 107 O 11.3277 0.486421 1.77143 0
M  V30 108 C 11.3897 3.58574 0.257933 0
M  V30 109 C 11.0537 4.47132 -0.944573 0
M  V30 110 C 12.0507 4.85986 -1.84699 0
M  V30 111 C 9.7357 4.88821 -1.15584 0
M  V30 112 C 11.7297 5.65314 -2.94446 0
M  V30 113 C 9.4167 5.67916 -2.25642 0
M  V30 114 C 10.4147 6.06073 -3.14905 0
M  V30 115 O 10.1027 6.83578 -4.23057 0
M  V30 116 H 9.8347 0.674971 -0.0372899 0
M  V30 117 H 12.3887 1.91037 -0.754599 0
M  V30 118 H 10.6187 3.72295 1.04564 0
M  V30 119 H 12.3077 3.99356 0.72592 0
M  V30 120 H 13.0737 4.54388 -1.69577 0
M  V30 121 H 8.9527 4.58595 -0.470279 0
M  V30 122 H 12.4967 5.95016 -3.64145 0
M  V30 123 H 8.3937 5.98927 -2.40742 0
M  V30 124 H 9.1617 7.01954 -4.20954 0
M  V30 125 N 11.8248 0.280983 1.55075 0
M  V30 126 C 12.7878 -0.590896 2.21452 0
M  V30 127 C 13.7878 -1.07682 1.19421 0
M  V30 128 O 14.9778 -0.97605 1.44288 0
M  V30 129 C 12.1098 -1.81587 2.88511 0
M  V30 130 H 13.3028 -0.0112554 2.99898 0
M  V30 131 H 10.8558 0.0316438 1.56268 0
M  V30 132 H 11.5908 -2.43587 2.14093 0
M  V30 133 H 11.3758 -1.4753 3.63287 0
M  V30 134 H 12.8658 -2.43575 3.39206 0
M  V30 135 N 13.3029 -1.57598 0.00835791 0
M  V30 136 C 14.5799 -1.82172 -0.712235 0
M  V30 137 C 14.9599 -0.887873 -1.9152 0
M  V30 138 O 14.3079 0.06146 -2.28417 0
M  V30 139 C 14.5179 -3.30875 -1.11008 0
M  V30 140 C 15.8659 -3.96826 -1.51044 0
M  V30 141 O 16.8899 -3.35248 -1.20364 0
M  V30 142 O 15.7489 -5.05318 -2.08125 0
M  V30 143 H 12.8429 -0.750435 -0.347529 0
M  V30 144 H 15.3889 -1.69665 0.0344523 0
M  V30 145 H 14.1609 -3.90481 -0.252982 0
M  V30 146 H 13.7839 -3.48412 -1.9156 0
M  V30 147 N 14.781 0.264519 -1.55364 0
M  V30 148 C 16.028 0.994986 -1.7637 0
M  V30 149 C 16.356 1.85976 -0.5695 0
M  V30 150 O 15.611 1.90509 0.44776 0
M  V30 151 C 15.91 1.9004 -3.02687 0
M  V30 152 C 15.576 1.19243 -4.34847 0
M  V30 153 C 14.238 0.996709 -4.70764 0
M  V30 154 C 16.59 0.689296 -5.16622 0
M  V30 155 C 13.918 0.285261 -5.86006 0
M  V30 156 C 16.27 -0.00860079 -6.32599 0
M  V30 157 C 14.934 -0.215963 -6.67151 0
M  V30 158 H 14.204 0.364091 -0.645383 0
M  V30 159 H 16.851 0.266543 -1.89636 0
M  V30 160 H 15.156 2.69533 -2.84357 0
M  V30 161 H 16.853 2.46695 -3.16137 0
M  V30 162 H 13.443 1.3549 -4.06621 0
M  V30 163 H 17.627 0.828108 -4.89342 0
M  V30 164 H 12.883 0.113961 -6.11294 0
M  V30 165 H 17.057 -0.406186 -6.95214 0
M  V30 166 H 14.684 -0.769217 -7.56298 0
M  V30 167 N 16.2591 1.48442 0.529413 0
M  V30 168 C 17.5081 1.55742 1.28169 0
M  V30 169 C 17.8211 0.236511 1.94165 0
M  V30 170 O 19.0271 0.187761 2.7085 0
M  V30 171 C 17.4831 2.74667 2.32564 0
M  V30 172 C 17.0911 4.13402 1.72636 0
M  V30 173 C 18.8351 2.9128 3.08798 0
M  V30 174 C 16.7421 5.23587 2.74975 0
M  V30 175 H 15.6721 0.579796 0.48203 0
M  V30 176 H 18.3231 1.74776 0.559056 0
M  V30 177 H 16.7051 2.49067 3.07866 0
M  V30 178 H 17.8791 4.49022 1.03519 0
M  V30 179 H 16.1941 4.0191 1.08892 0
M  V30 180 H 18.7911 3.70767 3.85274 0
M  V30 181 H 19.1341 2.00757 3.64695 0
M  V30 182 H 19.6671 3.16782 2.40611 0
M  V30 183 H 16.4061 6.16076 2.23897 0
M  V30 184 H 15.9261 4.92454 3.42417 0
M  V30 185 H 17.6051 5.51724 3.37949 0
M  V30 186 N 17.7372 -0.778329 1.37039 0
M  V30 187 C 18.7002 -1.87301 1.32102 0
M  V30 188 C 19.7002 -1.59198 0.226405 0
M  V30 189 O 20.8902 -1.67403 0.481861 0
M  V30 190 C 18.0222 -3.24309 1.05055 0
M  V30 191 H 19.2152 -1.93093 2.29467 0
M  V30 192 H 16.7682 -0.977358 1.21973 0
M  V30 193 H 17.5032 -3.24196 0.0819373 0
M  V30 194 H 17.2882 -3.46098 1.84279 0
M  V30 195 H 18.7782 -4.04382 1.04234 0
M  V30 196 N 19.2153 -1.21501 -1.00376 0
M  V30 197 C 20.4403 -1.05977 -1.78279 0
M  V30 198 C 20.8653 0.385994 -1.84097 0
M  V30 199 O 20.2233 1.27849 -1.28547 0
M  V30 200 C 20.2713 -1.66302 -3.19963 0
M  V30 201 O 19.3753 -0.909333 -4.0225 0
M  V30 202 H 18.7163 -0.372906 -0.549397 0
M  V30 203 H 21.2463 -1.6107 -1.26165 0
M  V30 204 H 21.2563 -1.70574 -3.70632 0
M  V30 205 H 19.9313 -2.71515 -3.15043 0
M  V30 206 H 18.5083 -0.941795 -3.60811 0
M  V30 207 N 20.6934 1.19889 -1.02296 0
M  V30 208 C 21.9414 1.89046 -0.714558 0
M  V30 209 C 22.2624 1.79636 0.758681 0
M  V30 210 O 21.5324 1.20292 1.54618 0
M  V30 211 H 20.1124 0.699802 -0.261317 0
M  V30 212 H 22.7744 1.45574 -1.29592 0
M  V30 213 H 21.8704 2.95524 -1.0036 0
M  V30 214 N 22.1715 0.800033 1.35784 0
M  V30 215 C 23.5875 0.482977 1.52117 0
M  V30 216 C 23.7875 -0.996948 1.75109 0
M  V30 217 O 22.8435 -1.78216 1.78872 0
M  V30 218 C 24.1565 1.32264 2.70049 0
M  V30 219 C 25.7045 1.31742 2.83924 0
M  V30 220 C 26.1795 2.14106 4.04874 0
M  V30 221 N 27.6705 2.11607 4.12039 0
M  V30 222 C 28.4055 2.72099 5.04727 0
M  V30 223 N 27.9015 3.41492 6.02789 0
M  V30 224 N 29.6945 2.61776 4.97423 0
M  V30 225 H 21.8455 1.75856 1.19115 0
M  V30 226 H 24.1085 0.748122 0.582252 0
M  V30 227 H 23.8145 2.37261 2.59616 0
M  V30 228 H 23.6885 0.971303 3.6448 0
M  V30 229 H 26.0755 0.275333 2.93813 0
M  V30 230 H 26.1565 1.70859 1.9037 0
M  V30 231 H 25.8005 3.18351 3.95746 0
M  V30 232 H 25.7305 1.72353 4.97596 0
M  V30 233 H 28.2215 1.61112 3.41835 0
M  V30 234 H 28.5345 3.84953 6.70098 0
M  V30 235 H 26.8795 3.45596 6.02983 0
M  V30 236 H 30.0705 2.07157 4.19766 0
M  V30 237 H 30.2435 3.0921 5.69468 0
M  V30 238 N 23.6496 -1.47581 0.552962 0
M  V30 239 C 24.8776 -2.06875 0.0320556 0
M  V30 240 C 25.2926 -1.40625 -1.25976 0
M  V30 241 O 24.6496 -0.501349 -1.75479 0
M  V30 242 C 24.7006 -3.61092 -0.17167 0
M  V30 243 O 24.4216 -4.24858 1.06899 0
M  V30 244 C 25.9226 -4.37242 -0.730344 0
M  V30 245 H 23.1426 -0.669561 0.043915 0
M  V30 246 H 25.6866 -1.89646 0.765163 0
M  V30 247 H 23.8416 -3.7785 -0.854894 0
M  V30 248 H 24.2556 -5.17334 0.864059 0
M  V30 249 H 25.7296 -5.45842 -0.822203 0
M  V30 250 H 26.2066 -4.03235 -1.74064 0
M  V30 251 H 26.8126 -4.25219 -0.0829543 0
M  V30 252 N 25.1277 -0.289203 -1.54924 0
M  V30 253 C 26.3757 0.322879 -1.99504 0
M  V30 254 C 26.6967 1.55313 -1.1791 0
M  V30 255 O 25.9667 1.94001 -0.272097 0
M  V30 256 H 24.5467 0.122291 -0.736922 0
M  V30 257 H 27.2087 -0.397802 -1.90797 0
M  V30 258 H 26.3047 0.603061 -3.06218 0
M  V30 259 N 26.6058 1.57591 -0.0167156 0
M  V30 260 C 28.0218 1.55946 0.339557 0
M  V30 261 C 28.2218 1.02109 1.73713 0
M  V30 262 O 27.2778 0.662303 2.43659 0
M  V30 263 C 28.5908 3.00037 0.199499 0
M  V30 264 C 30.1388 3.11805 0.273193 0
M  V30 265 C 30.6138 4.57713 0.162068 0
M  V30 266 N 32.1048 4.6268 0.219444 0
M  V30 267 C 32.8398 5.73185 0.157054 0
M  V30 268 N 32.3358 6.92786 0.0442936 0
M  V30 269 N 34.1288 5.61707 0.21014 0
M  V30 270 H 26.2798 1.90921 -0.930758 0
M  V30 271 H 28.5428 0.877674 -0.358319 0
M  V30 272 H 28.2488 3.4333 -0.76273 0
M  V30 273 H 28.1228 3.64387 0.974786 0
M  V30 274 H 30.5098 2.68433 1.22587 0
M  V30 275 H 30.5908 2.50201 -0.532256 0
M  V30 276 H 30.2348 5.01763 -0.78714 0
M  V30 277 H 30.1648 5.17283 0.986222 0
M  V30 278 H 32.6558 3.76649 0.307246 0
M  V30 279 H 32.9688 7.728 0.00304069 0
M  V30 280 H 31.3138 6.94999 0.00968457 0
M  V30 281 H 34.5048 4.6716 0.296546 0
M  V30 282 H 34.6778 6.47807 0.158054 0
M  V30 283 N 28.0839 -0.256276 1.55502 0
M  V30 284 C 29.4999 -0.604325 1.47716 0
M  V30 285 C 29.6999 -1.88763 0.705039 0
M  V30 286 O 28.7559 -2.51445 0.230613 0
M  V30 287 C 30.0689 -0.715756 2.92057 0
M  V30 288 C 31.6169 -0.808706 3.02372 0
M  V30 289 C 32.0919 -0.951777 4.48001 0
M  V30 290 N 33.5829 -1.01688 4.519 0
M  V30 291 C 34.3179 -1.14668 5.61817 0
M  V30 292 N 33.8139 -1.24261 6.81565 0
M  V30 293 N 35.6069 -1.1791 5.49594 0
M  V30 294 H 27.7579 0.586291 2.04148 0
M  V30 295 H 30.0209 0.201015 0.926443 0
M  V30 296 H 29.7269 0.157027 3.51349 0
M  V30 297 H 29.6009 -1.59071 3.42018 0
M  V30 298 H 31.9879 -1.67195 2.43166 0
M  V30 299 H 32.0689 0.0912063 2.55637 0
M  V30 300 H 31.7129 -0.0931291 5.07815 0
M  V30 301 H 31.6429 -1.86659 4.92408 0
M  V30 302 H 34.1339 -0.954468 3.65648 0
M  V30 303 H 34.4469 -1.34046 7.61086 0
M  V30 304 H 32.7919 -1.21236 6.84344 0
M  V30 305 H 35.9829 -1.10057 4.54978 0
M  V30 306 H 36.1559 -1.27681 6.35296 0
M  V30 307 N 29.562 -1.4872 -0.521534 0
M  V30 308 C 30.51 -1.64328 -1.64618 0
M  V30 309 C 31.504 -0.50953 -1.61555 0
M  V30 310 O 32.71 -0.688525 -1.66311 0
M  V30 311 H 29.085 -0.517805 -0.545328 0
M  V30 312 H 31.056 -2.58767 -1.48601 0
M  V30 313 C 29.805 -1.70805 -3.02855 0
M  V30 314 H 29.128 -2.5741 -3.05909 0
M  V30 315 H 30.568 -1.85766 -3.81139 0
M  V30 316 C 29.027 -0.448479 -3.33902 0
M  V30 317 O 29.557 0.434928 -3.99339 0
M  V30 318 N 27.763 -0.317616 -2.88859 0
M  V30 319 H 27.31 -1.03748 -2.35784 0
M  V30 320 H 27.268 0.524113 -3.10001 0
M  V30 321 N 31.0401 0.771051 -1.3745 0
M  V30 322 C 32.0031 1.86598 -1.33093 0
M  V30 323 C 33.0031 1.59076 -0.234845 0
M  V30 324 O 34.1931 1.67145 -0.490732 0
M  V30 325 C 31.3251 3.23747 -1.06773 0
M  V30 326 H 32.5181 1.91873 -2.30488 0
M  V30 327 H 30.0711 0.970876 -1.2249 0
M  V30 328 H 30.8061 3.24148 -0.099129 0
M  V30 329 H 30.5911 3.45115 -1.86112 0
M  V30 330 H 32.0811 4.03824 -1.06377 0
M  V30 331 N 32.5182 1.22032 0.997298 0
M  V30 332 C 33.7672 1.03637 1.73038 0
M  V30 333 C 34.0802 -0.429475 1.90827 0
M  V30 334 O 35.2862 -0.732995 2.61418 0
M  V30 335 C 33.7422 1.80582 3.11317 0
M  V30 336 C 33.3502 3.31387 3.01474 0
M  V30 337 C 35.0942 1.70621 3.88701 0
M  V30 338 C 33.0012 4.00791 4.3488 0
M  V30 339 H 31.9312 0.384179 0.648785 0
M  V30 340 H 34.5822 1.4584 1.11368 0
M  V30 341 H 32.9642 1.31175 3.73643 0
M  V30 342 H 34.1382 3.88155 2.4834 0
M  V30 343 H 32.4532 3.41976 2.37575 0
M  V30 344 H 35.0502 2.19799 4.87434 0
M  V30 345 H 35.3932 0.665823 4.10941 0
M  V30 346 H 35.9262 2.17547 3.33044 0
M  V30 347 H 32.6652 5.05064 4.1784 0
M  V30 348 H 32.1852 3.48811 4.87945 0
M  V30 349 H 33.8642 4.06139 5.03647 0
M  V30 350 N 33.9963 -1.19345 1.0293 0
M  V30 351 C 34.9463 -2.20472 0.58104 0
M  V30 352 C 35.9303 -1.56578 -0.370442 0
M  V30 353 O 37.1223 -1.75963 -0.191344 0
M  V30 354 C 34.2513 -3.43236 -0.066306 0
M  V30 355 C 33.3373 -4.14274 0.907642 0
M  V30 356 N 33.7283 -4.61492 2.07023 0
M  V30 357 C 32.0263 -4.39966 0.731177 0
M  V30 358 C 32.7273 -5.1605 2.68454 0
M  V30 359 N 31.7033 -5.06875 1.96414 0
M  V30 360 H 35.5053 -2.54659 1.46717 0
M  V30 361 H 33.0193 -1.35423 0.896345 0
M  V30 362 H 35.0163 -4.14927 -0.405068 0
M  V30 363 H 33.6763 -3.10549 -0.948118 0
M  V30 364 H 34.6873 -4.56304 2.44963 0
M  V30 365 H 31.3643 -4.17377 -0.101507 0
M  V30 366 H 32.7543 -5.6287 3.66915 0
M  V30 367 N 35.4744 -0.807222 -1.35358 0
M  V30 368 C 36.7514 -0.311126 -1.9311 0
M  V30 369 C 37.1314 1.19937 -1.73719 0
M  V30 370 O 36.4794 1.99918 -1.10657 0
M  V30 371 C 36.6894 -0.723226 -3.41424 0
M  V30 372 C 38.0374 -0.713078 -4.18569 0
M  V30 373 O 39.0614 -0.664811 -3.49941 0
M  V30 374 O 37.9204 -0.772022 -5.41019 0
M  V30 375 H 35.0144 -0.081526 -0.822972 0
M  V30 376 H 37.5604 -0.890962 -1.4443 0
M  V30 377 H 36.3324 -1.76426 -3.4927 0
M  V30 378 H 35.9554 -0.118232 -3.97424 0
M  V30 379 N 36.9525 1.47285 -0.560781 0
M  V30 380 C 38.2015 2.01668 -0.035895 0
M  V30 381 C 38.5145 1.44021 1.32353 0
M  V30 382 O 39.7205 1.90088 1.93853 0
M  V30 383 C 38.1765 3.59897 -0.0136659 0
M  V30 384 C 37.7845 4.26536 -1.37006 0
M  V30 385 C 39.5285 4.22017 0.458425 0
M  V30 386 C 37.4355 5.76782 -1.30675 0
M  V30 387 H 36.3655 0.753938 -0.00964879 0
M  V30 388 H 39.0165 1.69243 -0.709166 0
M  V30 389 H 37.3985 3.89301 0.725325 0
M  V30 390 H 38.5725 4.0877 -2.12705 0
M  V30 391 H 36.8875 3.76419 -1.78038 0
M  V30 392 H 39.4845 5.32124 0.524247 0
M  V30 393 H 39.8275 3.89437 1.4712 0
M  V30 394 H 40.3605 3.97159 -0.225818 0
M  V30 395 H 37.0995 6.13988 -2.29564 0
M  V30 396 H 36.6195 5.96875 -0.591622 0
M  V30 397 H 38.2985 6.39063 -1.01033 0
M  V30 398 N 38.4306 0.297415 1.54768 0
M  V30 399 C 39.3606 -0.573494 2.26348 0
M  V30 400 C 40.3416 -1.14085 1.26169 0
M  V30 401 O 41.5266 -1.17086 1.54934 0
M  V30 402 C 38.6566 -1.74716 3.00153 0
M  V30 403 C 37.6106 -1.31032 4.07449 0
M  V30 404 C 36.9366 -2.56887 4.68949 0
M  V30 405 C 38.2366 -0.444183 5.20408 0
M  V30 406 H 39.9306 0.0235131 2.99391 0
M  V30 407 H 37.4766 0.0127488 1.43994 0
M  V30 408 H 39.4296 -2.3625 3.48947 0
M  V30 409 H 38.1536 -2.37035 2.24682 0
M  V30 410 H 36.8126 -0.718066 3.59499 0
M  V30 411 H 36.4606 -3.17512 3.90122 0
M  V30 412 H 36.1606 -2.2836 5.41411 0
M  V30 413 H 37.6846 -3.19229 5.20505 0
M  V30 414 H 39.0986 -0.9651 5.65118 0
M  V30 415 H 37.4956 -0.252846 5.99567 0
M  V30 416 H 38.5656 0.531609 4.81977 0
M  V30 417 N 39.9087 -1.5758 0.0250728 0
M  V30 418 C 41.1547 -1.91917 -0.655413 0
M  V30 419 C 41.4877 -0.901433 -1.72011 0
M  V30 420 O 40.7627 0.0764069 -1.9435 0
M  V30 421 C 41.0457 -3.36751 -1.27558 0
M  V30 422 C 40.8987 -4.49258 -0.220719 0
M  V30 423 C 42.2177 -3.81469 -2.19475 0
M  V30 424 H 39.3367 -0.697925 -0.23679 0
M  V30 425 H 41.9787 -1.89825 0.0815036 0
M  V30 426 H 40.1287 -3.38664 -1.90365 0
M  V30 427 H 41.8007 -4.59478 0.409601 0
M  V30 428 H 40.0437 -4.31415 0.454264 0
M  V30 429 H 40.7147 -5.47618 -0.694175 0
M  V30 430 H 43.1907 -3.81266 -1.66659 0
M  V30 431 H 42.0667 -4.83512 -2.59822 0
M  V30 432 H 42.3277 -3.16744 -3.08424 0
M  V30 433 N 41.3868 0.248026 -1.55636 0
M  V30 434 C 42.6118 0.998028 -1.81808 0
M  V30 435 C 43.0368 1.78207 -0.601979 0
M  V30 436 O 42.3948 1.75653 0.448961 0
M  V30 437 C 42.4428 1.9125 -3.05705 0
M  V30 438 O 41.5468 3.00406 -2.82542 0
M  V30 439 H 40.8878 0.284045 -0.600179 0
M  V30 440 H 43.4178 0.269357 -2.02819 0
M  V30 441 H 43.4278 2.32737 -3.35108 0
M  V30 442 H 42.1028 1.33602 -3.93857 0
M  V30 443 H 40.6798 2.63056 -2.64303 0
M  V30 444 N 42.8649 1.48995 0.513639 0
M  V30 445 C 44.0899 1.61792 1.29762 0
M  V30 446 C 44.5149 0.284475 1.85936 0
M  V30 447 O 43.8729 -0.746185 1.65232 0
M  V30 448 C 43.9209 2.67993 2.41272 0
M  V30 449 O 43.0249 2.26287 3.44772 0
M  V30 450 H 42.3659 0.541963 0.38363 0
M  V30 451 H 44.8959 1.95097 0.616307 0
M  V30 452 H 44.9059 2.89772 2.87221 0
M  V30 453 H 43.5809 3.64791 1.9975 0
M  V30 454 H 42.1579 2.14788 3.04829 0
M  V30 455 N 44.343 -0.763751 1.37857 0
M  V30 456 C 45.306 -1.85889 1.34081 0
M  V30 457 C 46.306 -1.58949 0.243277 0
M  V30 458 O 47.496 -1.66882 0.499589 0
M  V30 459 C 44.628 -3.23176 1.08489 0
M  V30 460 H 45.821 -1.90648 2.31502 0
M  V30 461 H 43.374 -0.964367 1.23003 0
M  V30 462 H 44.109 -3.24091 0.116318 0
M  V30 463 H 43.894 -3.44124 1.8794 0
M  V30 464 H 45.384 -4.03254 1.08517 0
M  V30 465 N 45.8211 -1.22559 -0.990812 0
M  V30 466 C 47.0461 -1.07862 -1.77145 0
M  V30 467 C 47.4711 0.366447 -1.84496 0
M  V30 468 O 46.8291 1.26478 -1.29896 0
M  V30 469 C 46.8771 -1.69686 -3.18181 0
M  V30 470 O 45.9811 -0.951946 -4.01263 0
M  V30 471 H 45.3221 -0.378712 -0.545411 0
M  V30 472 H 47.8521 -1.62399 -1.2445 0
M  V30 473 H 47.8621 -1.74496 -3.68802 0
M  V30 474 H 46.5371 -2.74841 -3.12146 0
M  V30 475 H 45.1141 -0.980011 -3.59792 0
M  V30 476 N 47.2992 1.18797 -1.03562 0
M  V30 477 C 48.5472 1.88278 -0.734569 0
M  V30 478 C 48.8682 1.8043 0.739586 0
M  V30 479 O 48.1382 1.21925 1.53333 0
M  V30 480 H 46.7182 0.696991 -0.268725 0
M  V30 481 H 49.3802 1.44192 -1.31129 0
M  V30 482 H 48.4762 2.94443 -1.03489 0
M  V30 483 N 48.7773 0.814389 1.34928 0
M  V30 484 C 49.7253 0.218424 2.31572 0
M  V30 485 C 50.7193 -0.636128 1.57002 0
M  V30 486 O 51.9253 -0.52842 1.72069 0
M  V30 487 H 48.3003 0.0518799 0.750208 0
M  V30 488 H 50.2713 1.04852 2.79372 0
M  V30 489 C 49.0203 -0.61207 3.4227 0
M  V30 490 H 48.3433 0.0361578 3.99784 0
M  V30 491 H 49.7833 -0.995317 4.12152 0
M  V30 492 C 48.2423 -1.78087 2.85984 0
M  V30 493 O 48.7723 -2.8787 2.80168 0
M  V30 494 N 46.9783 -1.59488 2.42924 0
M  V30 495 H 46.5253 -0.701874 2.47854 0
M  V30 496 H 46.4833 -2.37846 2.05613 0
M  V30 497 N 50.2554 -1.46986 0.568584 0
M  V30 498 C 51.4804 -2.07335 0.0520528 0
M  V30 499 C 51.9054 -1.41675 -1.23733 0
M  V30 500 O 51.2634 -0.495623 -1.74394 0
M  V30 501 C 51.3114 -3.60417 -0.11501 0
M  V30 502 O 50.4154 -3.95309 -1.17492 0
M  V30 503 H 49.7564 -0.661597 0.0564385 0
M  V30 504 H 52.2864 -1.88837 0.787507 0
M  V30 505 H 52.2964 -4.06698 -0.325644 0
M  V30 506 H 50.9714 -4.07601 0.826675 0
M  V30 507 H 49.5484 -3.60757 -0.943869 0
M  V30 508 N 51.7335 -0.305618 -1.54608 0
M  V30 509 C 52.6815 0.584119 -2.25146 0
M  V30 510 C 53.6755 1.13326 -1.25911 0
M  V30 511 O 54.8815 1.08337 -1.43747 0
M  V30 512 H 51.2565 0.206983 -0.722954 0
M  V30 513 H 53.2275 -0.033291 -2.98381 0
M  V30 514 C 51.9765 1.74225 -3.009 0
M  V30 515 H 51.2995 1.32892 -3.77067 0
M  V30 516 H 52.7395 2.34077 -3.53531 0
M  V30 517 C 51.1985 2.64914 -2.0814 0
M  V30 518 O 51.7285 3.66137 -1.65246 0
M  V30 519 N 49.9345 2.3275 -1.74 0
M  V30 520 H 49.4815 1.50479 -2.09078 0
M  V30 521 H 49.4395 2.93694 -1.12211 0
M  V30 522 N 53.2116 1.57565 -0.0334293 0
M  V30 523 C 54.1216 2.13943 0.962572 0
M  V30 524 C 55.1376 1.09276 1.35406 0
M  V30 525 O 56.3136 1.41355 1.4346 0
M  V30 526 C 53.3786 2.65887 2.22497 0
M  V30 527 C 52.4396 3.85286 1.8935 0
M  V30 528 C 51.6726 4.34743 3.09571 0
M  V30 529 O 51.8956 3.83352 4.22371 0
M  V30 530 O 50.8296 5.26538 2.91618 0
M  V30 531 H 54.6556 2.99333 0.513169 0
M  V30 532 H 52.2406 1.4822 0.18743 0
M  V30 533 H 54.1226 2.99346 2.96598 0
M  V30 534 H 52.7976 1.83578 2.6661 0
M  V30 535 H 51.7046 3.56746 1.1262 0
M  V30 536 H 53.0376 4.68771 1.5005 0
M  V30 537 N 54.6897 -0.239769 1.55765 0
M  V30 538 C 55.6197 -1.30052 1.9393 0
M  V30 539 C 56.6007 -1.49839 0.805132 0
M  V30 540 O 57.7857 -1.62328 1.06599 0
M  V30 541 C 54.9157 -2.65391 2.2402 0
M  V30 542 C 53.8697 -2.60289 3.39755 0
M  V30 543 C 53.1957 -3.99489 3.55405 0
M  V30 544 C 54.4957 -2.16654 4.75246 0
M  V30 545 H 56.1897 -0.983573 2.82783 0
M  V30 546 H 53.7357 -0.471701 1.36055 0
M  V30 547 H 55.6887 -3.3974 2.49308 0
M  V30 548 H 54.4127 -2.98736 1.32 0
M  V30 549 H 53.0717 -1.88398 3.14487 0
M  V30 550 H 52.7197 -4.30112 2.60793 0
M  V30 551 H 52.4197 -3.96962 4.33238 0
M  V30 552 H 53.9437 -4.75528 3.83022 0
M  V30 553 H 55.3577 -2.80737 4.99859 0
M  V30 554 H 53.7547 -2.25223 5.56232 0
M  V30 555 H 54.8247 -1.11835 4.71827 0
M  V30 556 N 56.1678 -1.49265 -0.50573 0
M  V30 557 C 57.1308 -1.65075 -1.59006 0
M  V30 558 C 58.1308 -0.522768 -1.52065 0
M  V30 559 O 59.3208 -0.789117 -1.55302 0
M  V30 560 C 56.4528 -1.64369 -2.98656 0
M  V30 561 H 57.6458 -2.61784 -1.46319 0
M  V30 562 H 55.1988 -1.38226 -0.729616 0
M  V30 563 H 55.9338 -0.692272 -3.16825 0
M  V30 564 H 55.7188 -2.46282 -3.05103 0
M  V30 565 H 57.2088 -1.78674 -3.77446 0
M  V30 566 N 57.6459 0.756429 -1.3826 0
M  V30 567 C 58.5759 1.88374 -1.37976 0
M  V30 568 C 59.5569 1.68311 -0.246082 0
M  V30 569 O 60.7419 1.88944 -0.44874 0
M  V30 570 C 57.8719 3.25864 -1.20125 0
M  V30 571 C 56.8259 3.60523 -2.30666 0
M  V30 572 C 56.1519 4.9672 -1.97923 0
M  V30 573 C 57.4519 3.65692 -3.72916 0
M  V30 574 H 59.1459 1.88869 -2.32312 0
M  V30 575 H 56.6919 0.907272 -1.11824 0
M  V30 576 H 58.6449 4.0438 -1.18552 0
M  V30 577 H 57.3689 3.25841 -0.222498 0
M  V30 578 H 56.0279 2.84324 -2.3142 0
M  V30 579 H 55.6759 4.93253 -0.985393 0
M  V30 580 H 55.3759 5.20878 -2.71955 0
M  V30 581 H 56.8999 5.77618 -1.97964 0
M  V30 582 H 58.3139 4.34328 -3.74208 0
M  V30 583 H 56.7109 4.01358 -4.4613 0
M  V30 584 H 57.7809 2.65987 -4.05436 0
M  V30 585 N 59.124 1.23083 0.984299 0
M  V30 586 C 60.071 1.00854 2.07598 0
M  V30 587 C 61.041 -0.0726709 1.65941 0
M  V30 588 O 62.226 0.0786535 1.90638 0
M  V30 589 C 59.366 0.601645 3.39815 0
M  V30 590 C 58.479 1.75456 3.94765 0
M  V30 591 C 57.614 1.29482 5.15177 0
M  V30 592 C 56.653 2.41873 5.62284 0
M  V30 593 N 55.79 1.96885 6.73929 0
M  V30 594 H 60.63 1.943 2.25946 0
M  V30 595 H 58.167 0.968001 1.10762 0
M  V30 596 H 60.125 0.346854 4.15756 0
M  V30 597 H 58.755 -0.295803 3.21442 0
M  V30 598 H 57.807 2.12346 3.15616 0
M  V30 599 H 59.119 2.59965 4.25699 0
M  V30 600 H 58.273 0.997923 5.98437 0
M  V30 601 H 57.012 0.420046 4.85888 0
M  V30 602 H 56.017 2.72342 4.77608 0
M  V30 603 H 57.242 3.29881 5.93595 0
M  V30 604 H 55.188 1.11782 6.46406 0
M  V30 605 H 55.105 2.74956 7.04227 0
M  V30 606 H 56.373 1.70289 7.60672 0
M  V30 607 N 60.6021 -1.18246 1.0419 0
M  V30 608 C 61.5321 -2.24127 0.654914 0
M  V30 609 C 62.5131 -1.66617 -0.342451 0
M  V30 610 O 63.6981 -1.92924 -0.222277 0
M  V30 611 C 60.8281 -3.47295 0.0183757 0
M  V30 612 C 59.7821 -4.17563 0.939414 0
M  V30 613 C 59.1081 -5.34438 0.167286 0
M  V30 614 C 60.4081 -4.70917 2.25908 0
M  V30 615 H 62.1021 -2.56753 1.54007 0
M  V30 616 H 59.6481 -1.23414 0.74195 0
M  V30 617 H 61.6011 -4.20572 -0.264082 0
M  V30 618 H 60.3251 -3.13907 -0.901664 0
M  V30 619 H 58.9841 -3.46186 1.20628 0
M  V30 620 H 58.6321 -4.97298 -0.7552 0
M  V30 621 H 58.3321 -5.82388 0.780901 0
M  V30 622 H 59.8561 -6.10504 -0.108125 0
M  V30 623 H 61.2701 -5.35882 2.03724 0
M  V30 624 H 59.6671 -5.29406 2.82577 0
M  V30 625 H 60.7371 -3.88272 2.9047 0
M  V30 626 N 62.0802 -0.821533 -1.34494 0
M  V30 627 C 63.0432 -0.247847 -2.27856 0
M  V30 628 C 64.0432 0.573453 -1.50227 0
M  V30 629 O 65.2332 0.389759 -1.69784 0
M  V30 630 C 62.3652 0.652698 -3.34593 0
M  V30 631 H 63.5582 -1.07146 -2.80107 0
M  V30 632 H 61.1112 -0.593291 -1.44602 0
M  V30 633 H 61.8462 1.49943 -2.87555 0
M  V30 634 H 61.6312 0.065292 -3.92046 0
M  V30 635 H 63.1212 1.04793 -4.04238 0
M  V30 636 N 63.5583 1.46682 -0.576371 0
M  V30 637 C 64.8063 2.02013 -0.0594163 0
M  V30 638 C 65.1273 1.45101 1.30271 0
M  V30 639 O 64.3973 0.633317 1.8538 0
M  V30 640 H 62.9773 0.746759 -0.0189745 0
M  V30 641 H 65.6393 1.79862 -0.750717 0
M  V30 642 H 64.7353 3.12097 0.014345 0
M  V30 643 N 65.0364 0.313813 1.54444 0
M  V30 644 C 65.9664 -0.549454 2.26943 0
M  V30 645 C 66.9474 -1.12741 1.27372 0
M  V30 646 O 68.1324 -1.15436 1.56167 0
M  V30 647 C 65.2624 -1.71523 3.01989 0
M  V30 648 C 64.2164 -1.26703 4.08816 0
M  V30 649 C 63.5424 -2.51898 4.71647 0
M  V30 650 C 64.8424 -0.388962 5.2085 0
M  V30 651 H 66.5364 0.0552661 2.99349 0
M  V30 652 H 64.0824 0.0280207 1.43973 0
M  V30 653 H 66.0354 -2.32535 3.51433 0
M  V30 654 H 64.7594 -2.34639 2.27183 0
M  V30 655 H 63.4184 -0.679896 3.6024 0
M  V30 656 H 63.0664 -3.13356 3.93468 0
M  V30 657 H 62.7664 -2.22605 5.43802 0
M  V30 658 H 64.2904 -3.1369 5.23861 0
M  V30 659 H 65.7044 -0.905107 5.6611 0
M  V30 660 H 64.1014 -0.18924 5.99802 0
M  V30 661 H 65.1714 0.582699 4.81386 0
M  V30 662 N 66.5145 -1.57545 0.0417849 0
M  V30 663 C 67.7915 -1.83642 -0.673433 0
M  V30 664 C 68.1715 -0.928298 -1.89594 0
M  V30 665 O 67.5195 0.0129955 -2.28496 0
M  V30 666 C 67.7295 -3.33155 -1.03964 0
M  V30 667 C 69.0775 -3.99941 -1.42592 0
M  V30 668 O 70.1015 -3.37725 -1.13226 0
M  V30 669 O 68.9605 -5.09619 -1.9736 0
M  V30 670 H 66.0545 -0.757638 -0.331533 0
M  V30 671 H 68.6005 -1.69554 0.070433 0
M  V30 672 H 67.3725 -3.9093 -0.170098 0
M  V30 673 H 66.9955 -3.52396 -1.84126 0
M  V30 674 N 67.9926 0.231505 -1.5589 0
M  V30 675 C 69.2416 0.955346 -1.7764 0
M  V30 676 C 69.5546 1.85893 -0.608546 0
M  V30 677 O 70.7606 2.62067 -0.70943 0
M  V30 678 C 69.2166 1.74886 -3.14552 0
M  V30 679 C 68.8246 0.891915 -4.39032 0
M  V30 680 C 70.5686 2.46452 -3.45633 0
M  V30 681 C 68.4756 1.68221 -5.66971 0
M  V30 682 H 67.4056 0.360446 -0.662265 0
M  V30 683 H 70.0566 0.209516 -1.823 0
M  V30 684 H 68.4386 2.53723 -3.04041 0
M  V30 685 H 69.6126 0.144793 -4.60572 0
M  V30 686 H 67.9276 0.288863 -4.15397 0
M  V30 687 H 70.5246 3.06061 -4.38441 0
M  V30 688 H 70.8676 3.18841 -2.67668 0
M  V30 689 H 71.4006 1.74613 -3.57428 0
M  V30 690 H 68.1396 1.00178 -6.478 0
M  V30 691 H 67.6596 2.4042 -5.49507 0
M  V30 692 H 69.3386 2.24544 -6.06786 0
M  V30 693 N 69.4707 1.49531 0.497807 0
M  V30 694 C 70.4187 1.66926 1.61983 0
M  V30 695 C 71.4127 0.535167 1.60724 0
M  V30 696 O 72.6187 0.714896 1.65195 0
M  V30 697 H 68.9937 0.526415 0.537021 0
M  V30 698 H 70.9647 2.61098 1.44465 0
M  V30 699 C 69.7137 1.75602 3.00099 0
M  V30 700 H 69.0367 2.62244 3.01775 0
M  V30 701 H 70.4767 1.91807 3.78135 0
M  V30 702 C 68.9357 0.501543 3.33146 0
M  V30 703 O 69.4657 -0.371342 3.9998 0
M  V30 704 N 67.6717 0.363531 2.88317 0
M  V30 705 H 67.2187 1.07485 2.34104 0
M  V30 706 H 67.1767 -0.474728 3.10795 0
M  V30 707 N 70.9488 -0.749086 1.3866 0
M  V30 708 C 71.8958 -1.86291 1.36251 0
M  V30 709 C 72.8658 -1.64578 0.224347 0
M  V30 710 O 74.0508 -1.86181 0.417279 0
M  V30 711 C 71.1908 -3.23644 1.19786 0
M  V30 712 C 70.3038 -3.57158 2.43027 0
M  V30 713 C 69.4388 -4.83838 2.19258 0
M  V30 714 C 68.4778 -5.10152 3.38247 0
M  V30 715 N 67.6148 -6.28029 3.13884 0
M  V30 716 H 72.4548 -1.87685 2.3147 0
M  V30 717 H 69.9918 -0.917287 1.14997 0
M  V30 718 H 71.9498 -4.0291 1.08254 0
M  V30 719 H 70.5798 -3.21566 0.282031 0
M  V30 720 H 69.6318 -2.72701 2.65214 0
M  V30 721 H 70.9438 -3.7253 3.31697 0
M  V30 722 H 70.0978 -5.71057 2.04888 0
M  V30 723 H 68.8368 -4.70614 1.2796 0
M  V30 724 H 67.8418 -4.21401 3.53131 0
M  V30 725 H 69.0668 -5.25271 4.30427 0
M  V30 726 H 67.0128 -6.1612 2.25238 0
M  V30 727 H 66.9298 -6.43922 3.96106 0
M  V30 728 H 68.1978 -7.18124 3.03179 0
M  V30 729 N 72.4269 -1.23603 -0.977757 0
M  V30 730 C 73.6549 -1.09646 -1.75458 0
M  V30 731 C 74.0699 0.351859 -1.85492 0
M  V30 732 O 73.4269 1.24327 -1.336 0
M  V30 733 C 73.4779 -1.71895 -3.18016 0
M  V30 734 O 73.1989 -3.11063 -3.08498 0
M  V30 735 C 74.6999 -1.63415 -4.12081 0
M  V30 736 H 71.9199 -0.38359 -0.550545 0
M  V30 737 H 74.4639 -1.63507 -1.22824 0
M  V30 738 H 72.6189 -1.22061 -3.67668 0
M  V30 739 H 73.0329 -3.41305 -3.9826 0
M  V30 740 H 74.5069 -2.11669 -5.09804 0
M  V30 741 H 74.9839 -0.593462 -4.35172 0
M  V30 742 H 75.5899 -2.12628 -3.68334 0
M  V30 743 N 73.905 1.17692 -1.04816 0
M  V30 744 C 74.815 2.25229 -0.65643 0
M  V30 745 C 75.831 1.71018 0.320761 0
M  V30 746 O 77.007 2.00649 0.173805 0
M  V30 747 C 74.072 3.46684 -0.0332629 0
M  V30 748 C 73.133 4.15997 -1.06042 0
M  V30 749 C 72.366 5.31654 -0.466893 0
M  V30 750 O 72.589 5.65777 0.724758 0
M  V30 751 O 71.523 5.89831 -1.1993 0
M  V30 752 H 75.349 2.61016 -1.55255 0
M  V30 753 H 72.934 1.24919 -0.81949 0
M  V30 754 H 74.816 4.20234 0.313256 0
M  V30 755 H 73.491 3.12703 0.836566 0
M  V30 756 H 72.398 3.44482 -1.45886 0
M  V30 757 H 73.731 4.53996 -1.90127 0
M  V30 758 N 75.3831 0.828654 1.34056 0
M  V30 759 C 76.6311 0.41863 1.97717 0
M  V30 760 C 76.9521 -1.02314 1.66002 0
M  V30 761 O 76.2221 -1.71119 0.953683 0
M  V30 762 H 74.8021 0.151809 0.731412 0
M  V30 763 H 77.4641 1.05936 1.63596 0
M  V30 764 H 76.5601 0.542318 3.07352 0
M  V30 765 N 76.8612 -1.46375 0.584142 0
M  V30 766 C 77.7712 -2.34115 -0.150728 0
M  V30 767 C 78.7872 -1.49838 -0.884567 0
M  V30 768 O 79.9632 -1.82704 -0.847429 0
M  V30 769 C 77.0282 -3.2705 -1.15062 0
M  V30 770 C 76.0892 -4.27228 -0.421293 0
M  V30 771 C 75.3222 -5.15722 -1.37355 0
M  V30 772 O 75.5452 -5.07176 -2.61014 0
M  V30 773 O 74.4792 -5.95383 -0.883355 0
M  V30 774 H 78.3052 -2.98309 0.569708 0
M  V30 775 H 75.8902 -1.45373 0.344535 0
M  V30 776 H 77.7722 -3.84381 -1.72712 0
M  V30 777 H 76.4472 -2.65451 -1.8525 0
M  V30 778 H 75.3542 -3.7358 0.197085 0
M  V30 779 H 76.6872 -4.91616 0.239641 0
M  V30 780 N 78.3393 -0.321999 -1.54275 0
M  V30 781 C 79.2493 0.553631 -2.27974 0
M  V30 782 C 80.2653 1.13054 -1.32268 0
M  V30 783 O 81.4413 1.15084 -1.6528 0
M  V30 784 C 78.5063 1.69927 -3.02201 0
M  V30 785 C 77.5673 1.15433 -4.1349 0
M  V30 786 C 76.8003 2.24537 -4.84168 0
M  V30 787 O 77.0233 3.44852 -4.5435 0
M  V30 788 O 75.9573 1.90044 -5.7111 0
M  V30 789 H 79.7833 -0.0448345 -3.03667 0
M  V30 790 H 77.3683 -0.0877418 -1.49142 0
M  V30 791 H 79.2503 2.3663 -3.48689 0
M  V30 792 H 77.9253 2.28395 -2.29385 0
M  V30 793 H 76.8323 0.452436 -3.71354 0
M  V30 794 H 78.1653 0.614805 -4.88345 0
M  V30 795 N 79.8174 1.5752 -0.0501392 0
M  V30 796 C 81.0944 1.83996 0.663685 0
M  V30 797 C 81.4744 0.938339 1.89099 0
M  V30 798 O 80.8224 -0.00087759 2.285 0
M  V30 799 C 81.0324 3.33702 1.02196 0
M  V30 800 C 82.3804 4.00691 1.40469 0
M  V30 801 O 83.4044 3.38321 1.11433 0
M  V30 802 O 82.2634 5.10658 1.94654 0
M  V30 803 H 79.3574 0.759385 0.32751 0
M  V30 804 H 81.9034 1.69514 -0.0794238 0
M  V30 805 H 80.6754 3.91015 0.149364 0
M  V30 806 H 80.2984 3.53368 1.82255 0
M  V30 807 N 81.2955 -0.223234 1.56011 0
M  V30 808 C 82.2585 -1.26014 1.9145 0
M  V30 809 C 83.2585 -1.3989 0.792937 0
M  V30 810 O 84.4485 -1.38184 1.0607 0
M  V30 811 C 81.5805 -2.63422 2.16383 0
M  V30 812 H 82.7735 -0.95796 2.84189 0
M  V30 813 H 80.3265 -0.463576 1.49267 0
M  V30 814 H 81.0615 -2.98741 1.2619 0
M  V30 815 H 80.8465 -2.54728 2.98088 0
M  V30 816 H 82.3365 -3.38249 2.44903 0
M  V30 817 N 82.7736 -1.49793 -0.48987 0
M  V30 818 C 83.7056 -1.63413 -1.60713 0
M  V30 819 C 84.7186 -0.516329 -1.54395 0
M  V30 820 O 85.9076 -0.788812 -1.60125 0
M  V30 821 C 83.0076 -1.58516 -2.99543 0
M  V30 822 C 82.1806 -2.86016 -3.30928 0
M  V30 823 C 81.2396 -2.74018 -4.49222 0
M  V30 824 O 80.2656 -3.47964 -4.50455 0
M  V30 825 N 81.4676 -1.86309 -5.4979 0
M  V30 826 H 84.2326 -2.59777 -1.49452 0
M  V30 827 H 81.7936 -1.47022 -0.677955 0
M  V30 828 H 83.7856 -1.48128 -3.76617 0
M  V30 829 H 82.3556 -0.69965 -3.0467 0
M  V30 830 H 81.5756 -3.10672 -2.42645 0
M  V30 831 H 82.8636 -3.70521 -3.487 0
M  V30 832 H 82.2616 -1.2551 -5.51601 0
M  V30 833 H 80.8186 -1.81837 -6.25922 0
M  V30 834 N 84.2517 0.741722 -1.39055 0
M  V30 835 C 85.6677 1.04638 -1.20512 0
M  V30 836 C 85.8677 2.01405 -0.0620218 0
M  V30 837 O 84.9237 2.45547 0.588457 0
M  V30 838 C 86.2367 1.6151 -2.53643 0
M  V30 839 C 87.7847 1.73623 -2.6043 0
M  V30 840 C 88.2597 2.33906 -3.93767 0
M  V30 841 N 89.7507 2.41323 -3.9537 0
M  V30 842 C 90.4857 2.88888 -4.95309 0
M  V30 843 N 89.9817 3.36401 -6.05645 0
M  V30 844 N 91.7747 2.88037 -4.82692 0
M  V30 845 H 83.9257 0.0998155 -2.12165 0
M  V30 846 H 86.1887 0.106907 -0.941953 0
M  V30 847 H 85.8947 0.978739 -3.37807 0
M  V30 848 H 85.7687 2.60411 -2.72885 0
M  V30 849 H 88.1557 2.36384 -1.76655 0
M  V30 850 H 88.2367 0.733945 -2.45045 0
M  V30 851 H 87.8807 1.71776 -4.7797 0
M  V30 852 H 87.8107 3.34799 -4.06469 0
M  V30 853 H 90.3017 2.07734 -3.15682 0
M  V30 854 H 90.6147 3.71186 -6.77821 0
M  V30 855 H 88.9597 3.34427 -6.09248 0
M  V30 856 H 92.1507 2.50237 -3.95599 0
M  V30 857 H 92.3237 3.24792 -5.60726 0
M  V30 858 N 85.7298 1.2412 0.971189 0
M  V30 859 C 86.9548 1.10667 1.75407 0
M  V30 860 C 87.3798 -0.337048 1.85056 0
M  V30 861 O 86.7378 -1.24396 1.31892 0
M  V30 862 C 86.7858 1.74726 3.15441 0
M  V30 863 O 85.8898 1.01566 3.99697 0
M  V30 864 H 85.2308 0.387341 0.539317 0
M  V30 865 H 87.7608 1.64358 1.2185 0
M  V30 866 H 87.7708 1.80341 3.6598 0
M  V30 867 H 86.4458 2.79773 3.07734 0
M  V30 868 H 85.0228 1.03713 3.58187 0
M  V30 869 N 87.2079 -1.17134 1.05439 0
M  V30 870 C 88.4329 -1.91913 0.786396 0
M  V30 871 C 88.8579 -1.7643 -0.652234 0
M  V30 872 O 88.2159 -1.08372 -1.45345 0
M  V30 873 C 88.2639 -3.40921 1.17497 0
M  V30 874 O 87.3679 -4.11244 0.308589 0
M  V30 875 H 86.7089 -0.598215 0.288158 0
M  V30 876 H 89.2389 -1.48457 1.4079 0
M  V30 877 H 89.2489 -3.91668 1.14281 0
M  V30 878 H 87.9239 -3.5151 2.22292 0
M  V30 879 H 86.5009 -3.70731 0.40157 0
M  V30 880 N 88.686 -0.835752 -1.33615 0
M  V30 881 C 89.914 -0.443344 -2.02094 0
M  V30 882 C 90.329 0.954522 -1.62894 0
M  V30 883 O 89.686 1.61982 -0.840723 0
M  V30 884 C 89.737 -0.550775 -3.5728 0
M  V30 885 O 89.458 -1.89356 -3.95065 0
M  V30 886 C 90.959 -0.154919 -4.43029 0
M  V30 887 H 88.179 -0.176359 -0.647409 0
M  V30 888 H 90.723 -1.12746 -1.70612 0
M  V30 889 H 88.878 0.0853997 -3.87306 0
M  V30 890 H 89.292 -1.87687 -4.89769 0
M  V30 891 H 90.766 -0.281144 -5.51284 0
M  V30 892 H 91.243 0.902863 -4.2982 0
M  V30 893 H 91.849 -0.765404 -4.18356 0
M  V30 894 N 90.1641 1.46063 -0.591896 0
M  V30 895 C 91.0741 2.34192 0.13831 0
M  V30 896 C 92.0901 1.50305 0.876608 0
M  V30 897 O 93.2661 1.8315 0.837728 0
M  V30 898 C 90.3311 3.27656 1.13326 0
M  V30 899 C 89.3921 4.27445 0.39863 0
M  V30 900 C 88.6251 5.16443 1.34618 0
M  V30 901 O 88.8481 5.08553 2.58321 0
M  V30 902 O 87.7821 5.95843 0.851768 0
M  V30 903 H 91.6081 2.98002 -0.58552 0
M  V30 904 H 89.1931 1.45188 -0.352239 0
M  V30 905 H 91.0751 3.85291 1.70671 0
M  V30 906 H 89.7501 2.6643 1.83839 0
M  V30 907 H 88.6571 3.73471 -0.216895 0
M  V30 908 H 89.9901 4.91482 -0.265709 0
M  V30 909 N 91.6422 0.330177 1.54103 0
M  V30 910 C 92.5742 -0.566902 2.22079 0
M  V30 911 C 93.5872 -1.07462 1.22294 0
M  V30 912 O 94.7762 -0.987065 1.48726 0
M  V30 913 C 91.8762 -1.79138 2.87685 0
M  V30 914 C 91.0492 -1.42123 4.13666 0
M  V30 915 C 90.1082 -2.50394 4.62806 0
M  V30 916 O 89.1342 -2.14261 5.27334 0
M  V30 917 N 90.3362 -3.81433 4.37595 0
M  V30 918 H 93.1012 0.0151844 2.99696 0
M  V30 919 H 90.6622 0.153681 1.61169 0
M  V30 920 H 92.6542 -2.50975 3.1748 0
M  V30 921 H 91.2242 -2.28115 2.13734 0
M  V30 922 H 90.4442 -0.534201 3.90564 0
M  V30 923 H 91.7322 -1.14971 4.9564 0
M  V30 924 H 91.1302 -4.13584 3.8596 0
M  V30 925 H 89.6872 -4.4948 4.72029 0
M  V30 926 N 93.1203 -1.57491 0.0584922 0
M  V30 927 C 94.3453 -1.97711 -0.62652 0
M  V30 928 C 94.7703 -0.936132 -1.63151 0
M  V30 929 O 94.1283 0.099811 -1.81025 0
M  V30 930 C 94.1763 -3.36989 -1.28338 0
M  V30 931 O 93.2803 -3.35433 -2.39913 0
M  V30 932 H 92.6213 -0.643868 -0.162266 0
M  V30 933 H 95.1513 -2.04193 0.129064 0
M  V30 934 H 95.1613 -3.73879 -1.63335 0
M  V30 935 H 93.8363 -4.12289 -0.546889 0
M  V30 936 H 92.4133 -3.10298 -2.06809 0
M  V30 937 N 94.5984 0.214957 -1.56127 0
M  V30 938 C 95.8464 0.936518 -1.79091 0
M  V30 939 C 96.1674 1.84606 -0.628148 0
M  V30 940 O 95.4374 1.92664 0.35462 0
M  V30 941 H 94.0174 0.3488 -0.660566 0
M  V30 942 H 96.6794 0.22523 -1.93594 0
M  V30 943 H 95.7754 1.53943 -2.71492 0
M  V30 944 N 96.0765 1.50051 0.48192 0
M  V30 945 C 96.9865 1.7089 1.60728 0
M  V30 946 C 98.0025 0.591788 1.63627 0
M  V30 947 O 99.1785 0.868817 1.81696 0
M  V30 948 C 96.2435 1.78855 2.97005 0
M  V30 949 C 95.3045 3.02537 3.04581 0
M  V30 950 C 94.5375 3.10112 4.34357 0
M  V30 951 O 94.7605 2.24765 5.24249 0
M  V30 952 O 93.6945 4.02747 4.47301 0
M  V30 953 H 97.5205 2.66264 1.46072 0
M  V30 954 H 95.1055 1.34018 0.660264 0
M  V30 955 H 96.9875 1.86336 3.77964 0
M  V30 956 H 95.6625 0.866628 3.11883 0
M  V30 957 H 94.5695 3.00563 2.22739 0
M  V30 958 H 95.9025 3.94272 2.94636 0
M  V30 959 N 97.5546 -0.734337 1.39446 0
M  V30 960 C 98.5176 -1.83004 1.37994 0
M  V30 961 C 99.5176 -1.58397 0.276938 0
M  V30 962 O 100.708 -1.65785 0.534875 0
M  V30 963 C 97.8396 -3.20802 1.1532 0
M  V30 964 H 99.0326 -1.85694 2.35494 0
M  V30 965 H 96.5856 -0.938059 1.25021 0
M  V30 966 H 97.3206 -3.23772 0.185036 0
M  V30 967 H 97.1056 -3.4006 1.95197 0
M  V30 968 H 98.5956 -4.00862 1.17046 0
M  V30 969 N 99.0327 -1.24633 -0.964593 0
M  V30 970 C 99.9647 -0.999302 -2.06268 0
M  V30 971 C 100.978 0.0323226 -1.62768 0
M  V30 972 O 102.167 -0.205079 -1.77318 0
M  V30 973 C 99.2667 -0.486816 -3.35385 0
M  V30 974 C 98.4397 -1.5823 -4.07777 0
M  V30 975 C 97.4987 -1.07191 -5.15166 0
M  V30 976 O 96.5247 -1.76426 -5.41168 0
M  V30 977 N 97.7267 0.0920373 -5.80427 0
M  V30 978 H 100.492 -1.94477 -2.28033 0
M  V30 979 H 98.0527 -1.15704 -1.13244 0
M  V30 980 H 100.045 -0.130066 -4.04491 0
M  V30 981 H 98.6147 0.364459 -3.10468 0
M  V30 982 H 97.8347 -2.11109 -3.32906 0
M  V30 983 H 99.1227 -2.31854 -4.52903 0
M  V30 984 H 98.5207 0.670784 -5.61709 0
M  V30 985 H 97.0777 0.389905 -6.50633 0
M  V30 986 N 100.511 1.16574 -1.06058 0
M  V30 987 C 101.759 1.86677 -0.77434 0
M  V30 988 C 102.08 1.81959 0.701147 0
M  V30 989 O 101.35 1.2515 1.50713 0
M  V30 990 H 99.9298 0.691134 -0.283449 0
M  V30 991 H 102.592 1.41378 -1.34158 0
M  V30 992 H 101.688 2.92181 -1.09711 0
M  V30 993 N 101.989 0.842826 1.3317 0
M  V30 994 C 102.899 0.281444 2.32906 0
M  V30 995 C 103.915 -0.594587 1.63526 0
M  V30 996 O 105.091 -0.49777 1.95152 0
M  V30 997 C 102.156 -0.530929 3.42611 0
M  V30 998 C 101.217 0.369843 4.27704 0
M  V30 999 C 100.45 -0.403853 5.3217 0
M  V30 1000 O 100.673 -1.63513 5.46461 0
M  V30 1001 O 99.6069 0.224199 6.01482 0
M  V30 1002 H 103.433 1.10744 2.82789 0
M  V30 1003 H 101.018 0.60545 1.36582 0
M  V30 1004 H 102.9 -0.992437 4.09547 0
M  V30 1005 H 101.575 -1.33392 2.94938 0
M  V30 1006 H 100.482 0.879275 3.6362 0
M  V30 1007 H 101.815 1.13771 4.78871 0
M  V30 1008 N 103.467 -1.45747 0.599634 0
M  V30 1009 C 104.43 -2.28917 -0.113835 0
M  V30 1010 C 105.43 -1.3933 -0.802729 0
M  V30 1011 O 106.62 -1.61534 -0.652103 0
M  V30 1012 C 103.752 -3.20152 -1.17114 0
M  V30 1013 H 104.945 -2.93478 0.617289 0
M  V30 1014 H 102.498 -1.52137 0.358327 0
M  V30 1015 H 103.233 -2.60374 -1.93329 0
M  V30 1016 H 103.018 -3.86133 -0.681468 0
M  V30 1017 H 104.508 -3.82708 -1.67105 0
M  V30 1018 N 104.945 -0.338344 -1.53925 0
M  V30 1019 C 105.908 0.508299 -2.23493 0
M  V30 1020 C 106.908 1.03175 -1.23335 0
M  V30 1021 O 108.098 0.921826 -1.47811 0
M  V30 1022 C 105.23 1.70754 -2.95052 0
M  V30 1023 H 106.423 -0.100058 -2.99733 0
M  V30 1024 H 103.976 -0.0896198 -1.56043 0
M  V30 1025 H 104.711 2.35474 -2.22986 0
M  V30 1026 H 104.496 1.33946 -3.68512 0
M  V30 1027 H 105.986 2.30818 -3.48013 0
M  V30 1028 N 106.423 1.57458 -0.0668435 0
M  V30 1029 C 107.37 2.12439 0.902122 0
M  V30 1030 C 108.34 1.03565 1.2986 0
M  V30 1031 O 109.525 1.312 1.38532 0
M  V30 1032 C 106.665 2.6865 2.16614 0
M  V30 1033 C 105.778 3.91663 1.82274 0
M  V30 1034 C 104.913 4.36134 3.0325 0
M  V30 1035 C 103.952 5.51808 2.64904 0
M  V30 1036 N 103.089 5.9126 3.78624 0
M  V30 1037 H 107.929 2.94934 0.426382 0
M  V30 1038 H 105.466 1.4575 0.198819 0
M  V30 1039 H 107.424 2.99346 2.90599 0
M  V30 1040 H 106.054 1.88928 2.61737 0
M  V30 1041 H 105.106 3.6746 0.983719 0
M  V30 1042 H 106.418 4.75693 1.50059 0
M  V30 1043 H 105.572 4.68465 3.85519 0
M  V30 1044 H 104.311 3.50948 3.38655 0
M  V30 1045 H 103.316 5.19133 1.81055 0
M  V30 1046 H 104.541 6.38722 2.30675 0
M  V30 1047 H 102.487 5.09024 4.138 0
M  V30 1048 H 102.404 6.70018 3.5016 0
M  V30 1049 H 103.672 6.28212 4.61486 0
M  V30 1050 N 107.901 -0.206675 1.56239 0
M  V30 1051 C 109.126 -0.949474 1.8439 0
M  V30 1052 C 109.551 -1.76549 0.649016 0
M  V30 1053 O 108.909 -1.76782 -0.402231 0
M  V30 1054 C 108.957 -1.83078 3.10668 0
M  V30 1055 O 108.061 -2.9281 2.90407 0
M  V30 1056 H 107.402 -0.268033 0.607499 0
M  V30 1057 H 109.932 -0.215488 2.03462 0
M  V30 1058 H 109.942 -2.2377 3.41161 0
M  V30 1059 H 108.617 -1.23112 3.97261 0
M  V30 1060 H 107.194 -2.55956 2.71184 0
M  V30 1061 N 109.379 -1.50304 -0.473955 0
M  V30 1062 C 110.289 -1.7174 -1.5982 0
M  V30 1063 C 111.305 -0.600457 -1.63311 0
M  V30 1064 O 112.481 -0.878441 -1.81233 0
M  V30 1065 C 109.546 -1.80427 -2.96052 0
M  V30 1066 C 108.607 -3.04148 -3.02972 0
M  V30 1067 C 107.84 -3.12411 -4.32706 0
M  V30 1068 O 108.063 -2.27542 -5.23049 0
M  V30 1069 O 106.997 -4.05113 -4.45159 0
M  V30 1070 H 110.823 -2.67035 -1.44657 0
M  V30 1071 H 108.408 -1.34366 -0.653148 0
M  V30 1072 H 110.29 -1.88338 -3.7697 0
M  V30 1073 H 108.965 -0.883156 -3.11419 0
M  V30 1074 H 107.872 -3.0174 -2.21142 0
M  V30 1075 H 109.205 -3.95829 -2.92541 0
M  V30 1076 N 110.857 0.726932 -1.39834 0
M  V30 1077 C 112.082 1.52121 -1.40976 0
M  V30 1078 C 112.507 1.88098 -0.00826029 0
M  V30 1079 O 111.865 1.52479 0.980807 0
M  V30 1080 C 111.913 2.78021 -2.29644 0
M  V30 1081 O 111.017 3.74272 -1.73188 0
M  V30 1082 H 110.358 0.45908 -0.479731 0
M  V30 1083 H 112.888 0.896207 -1.83927 0
M  V30 1084 H 112.898 3.26671 -2.44438 0
M  V30 1085 H 111.573 2.51169 -3.31492 0
M  V30 1086 H 110.15 3.33073 -1.6768 0
M  V30 1087 O 112.374 1.36175 0.868252 0
M  V30 1088 H 113.065 1.21675 1.50715 0
M  V30 END ATOM
M  V30 BEGIN BOND
M  V30 END BOND
M  V30 END CTAB
M  END
$$$$
